drugbank_target|Q92736 Ryanodine receptor 2 (DB01195; DB09085)
 OpenBabel12092121023D

  0  0  0     0  0            999 V3000
M  V30 BEGIN CTAB
M  V30 COUNTS 78961 79800 0 0 0
M  V30 BEGIN ATOM
M  V30 1 H -0.908 1.98254 -0.117106 0
M  V30 2 N 0 1.576 0 0
M  V30 3 C 0.933 2.03868 1.02534 0
M  V30 4 C 1.911 0.928543 1.3348 0
M  V30 5 O 3.095 1.19667 1.45644 0
M  V30 6 C 0.222 2.43627 2.35294 0
M  V30 7 C -0.732 3.65373 2.2001 0
M  V30 8 S 0.101 5.13292 1.52614 0
M  V30 9 C 1.257 5.56322 2.86805 0
M  V30 10 H 1.49 2.90518 0.631377 0
M  V30 11 H -0.977 1.52953 0.210867 0
M  V30 12 H 0.981 2.67203 3.11629 0
M  V30 13 H -0.358 1.57376 2.7183 0
M  V30 14 H -1.165 3.90944 3.18086 0
M  V30 15 H -1.563 3.418 1.51819 0
M  V30 16 H 0.729 5.58782 3.83104 0
M  V30 17 H 1.672 6.56266 2.65933 0
M  V30 18 H 2.08 4.83886 2.90714 0
M  V30 19 N 1.4781 -0.272755 1.55222 0
M  V30 20 C 2.4411 -1.32041 1.87344 0
M  V30 21 C 3.4411 -1.42342 0.74803 0
M  V30 22 O 4.6311 -1.41488 1.0162 0
M  V30 23 C 1.7631 -2.70173 2.07893 0
M  V30 24 H 2.9561 -1.04789 2.80997 0
M  V30 25 H 0.5091 -0.51083 1.47717 0
M  V30 26 H 1.2441 -3.02605 1.16622 0
M  V30 27 H 1.0291 -2.64082 2.89833 0
M  V30 28 H 2.5191 -3.45869 2.34017 0
M  V30 29 N 2.9562 -1.48159 -0.537278 0
M  V30 30 C 4.2332 -1.46291 -1.29839 0
M  V30 31 C 4.6132 -0.170613 -2.10409 0
M  V30 32 O 3.9612 0.847746 -2.12192 0
M  V30 33 C 4.1712 -2.72055 -2.18603 0
M  V30 34 C 5.5192 -3.20087 -2.7898 0
M  V30 35 O 6.5432 -2.72921 -2.28894 0
M  V30 36 O 5.4022 -4.02138 -3.70064 0
M  V30 37 H 2.4962 -0.583906 -0.585647 0
M  V30 38 H 5.0422 -1.60384 -0.554534 0
M  V30 39 H 3.8142 -3.57628 -1.58801 0
M  V30 40 H 3.4372 -2.60646 -3.00249 0
M  V30 41 N 4.4343 0.785586 -1.36625 0
M  V30 42 C 5.6823 1.54057 -1.30808 0
M  V30 43 C 6.0033 1.94683 0.111157 0
M  V30 44 O 5.2733 1.65241 1.05224 0
M  V30 45 H 3.8533 0.571354 -0.481211 0
M  V30 46 H 6.5153 0.935821 -1.70963 0
M  V30 47 H 5.6113 2.44637 -1.93801 0
M  V30 48 N 5.9124 1.20967 1.01018 0
M  V30 49 C 7.1604 1.02172 1.74371 0
M  V30 50 C 7.4814 -0.446414 1.89821 0
M  V30 51 O 6.7514 -1.32234 1.44537 0
M  V30 52 H 5.3314 0.375066 0.646014 0
M  V30 53 H 7.9934 1.52187 1.21758 0
M  V30 54 H 7.0894 1.48538 2.74487 0
M  V30 55 N 7.3905 -1.2043 1.01659 0
M  V30 56 C 8.3005 -2.2689 0.596484 0
M  V30 57 C 9.3165 -1.70107 -0.36599 0
M  V30 58 O 10.4925 -2.00117 -0.226942 0
M  V30 59 C 7.5575 -3.4665 -0.0586659 0
M  V30 60 C 6.6185 -4.18662 0.949751 0
M  V30 61 C 5.8515 -5.32705 0.32577 0
M  V30 62 O 6.0745 -5.63656 -0.874509 0
M  V30 63 O 5.0085 -5.92803 1.04249 0
M  V30 64 H 8.8345 -2.65041 1.4828 0
M  V30 65 H 6.4195 -1.27048 0.786082 0
M  V30 66 H 8.3015 -4.19256 -0.424564 0
M  V30 67 H 6.9765 -3.10375 -0.91918 0
M  V30 68 H 5.8835 -3.48229 1.36702 0
M  V30 69 H 7.2165 -4.58878 1.78023 0
M  V30 70 N 8.8686 -0.792821 -1.36206 0
M  V30 71 C 10.1166 -0.366062 -1.98757 0
M  V30 72 C 10.4376 1.0668 -1.63231 0
M  V30 73 O 9.7076 1.73587 -0.907978 0
M  V30 74 H 8.2876 -0.132364 -0.735179 0
M  V30 75 H 10.9496 -1.01562 -1.66347 0
M  V30 76 H 10.0456 -0.460638 -3.08682 0
M  V30 77 N 10.3467 1.47872 -0.545128 0
M  V30 78 C 11.2567 2.33633 0.212746 0
M  V30 79 C 12.2727 1.4744 0.923983 0
M  V30 80 O 13.4487 1.80393 0.895572 0
M  V30 81 C 10.5137 3.23884 1.23693 0
M  V30 82 C 9.5747 4.25961 0.534417 0
M  V30 83 C 8.8077 5.11899 1.5098 0
M  V30 84 O 9.0307 5.00077 2.7437 0
M  V30 85 O 7.9647 5.92831 1.0409 0
M  V30 86 H 11.7907 2.99714 -0.490416 0
M  V30 87 H 9.3757 1.46235 -0.305871 0
M  V30 88 H 11.2577 3.79666 1.82843 0
M  V30 89 H 9.9327 2.60446 1.92222 0
M  V30 90 H 8.8397 3.73972 -0.0979679 0
M  V30 91 H 10.1727 4.92079 -0.109213 0
M  V30 92 N 11.8248 0.280983 1.55075 0
M  V30 93 C 13.1018 -0.386207 1.91749 0
M  V30 94 C 13.4818 -1.73264 1.20594 0
M  V30 95 O 12.8298 -2.26034 0.334784 0
M  V30 96 C 13.0398 -0.520687 3.45094 0
M  V30 97 C 14.3878 -0.800865 4.16979 0
M  V30 98 O 15.4118 -0.605271 3.5102 0
M  V30 99 O 14.2708 -1.1753 5.33712 0
M  V30 100 H 11.3648 -0.212408 0.799257 0
M  V30 101 H 13.9108 0.327568 1.66509 0
M  V30 102 H 12.6828 0.426633 3.88967 0
M  V30 103 H 12.3058 -1.2837 3.76307 0
M  V30 104 N 13.3029 -1.57598 0.00835791 0
M  V30 105 C 14.2129 -2.12385 -0.996487 0
M  V30 106 C 15.2289 -1.07108 -1.37127 0
M  V30 107 O 16.4049 -1.39055 -1.4569 0
M  V30 108 C 13.4699 -2.62314 -2.26699 0
M  V30 109 C 12.5309 -3.82225 -1.95456 0
M  V30 110 C 11.7639 -4.29763 -3.16449 0
M  V30 111 O 11.9869 -3.76584 -4.28416 0
M  V30 112 O 10.9209 -5.21832 -2.99958 0
M  V30 113 H 14.7469 -2.98479 -0.560725 0
M  V30 114 H 12.3319 -1.47903 -0.210987 0
M  V30 115 H 14.2139 -2.94589 -3.01322 0
M  V30 116 H 12.8889 -1.79313 -2.69497 0
M  V30 117 H 11.7959 -3.54909 -1.18282 0
M  V30 118 H 13.1289 -4.66324 -1.57489 0
M  V30 119 N 14.781 0.264519 -1.55364 0
M  V30 120 C 16.03 0.992812 -1.75574 0
M  V30 121 C 16.343 1.87142 -0.568979 0
M  V30 122 O 17.549 2.63513 -0.653682 0
M  V30 123 C 16.005 1.81519 -3.10771 0
M  V30 124 C 15.613 0.984839 -4.37041 0
M  V30 125 C 17.357 2.53727 -3.40327 0
M  V30 126 C 15.264 1.80209 -5.63275 0
M  V30 127 H 14.194 0.374412 -0.65447 0
M  V30 128 H 16.845 0.248138 -1.81815 0
M  V30 129 H 15.227 2.60115 -2.98591 0
M  V30 130 H 16.401 0.242455 -4.60162 0
M  V30 131 H 14.716 0.37691 -4.14691 0
M  V30 132 H 17.313 3.15292 -4.3185 0
M  V30 133 H 17.656 3.24447 -2.60845 0
M  V30 134 H 18.189 1.82156 -3.53644 0
M  V30 135 H 14.928 1.13896 -6.45529 0
M  V30 136 H 14.448 2.52022 -5.44284 0
M  V30 137 H 16.127 2.37364 -6.01887 0
M  V30 138 N 16.2591 1.48442 0.529413 0
M  V30 139 C 17.1911 1.59095 1.64989 0
M  V30 140 C 18.2041 0.475212 1.5571 0
M  V30 141 O 19.3931 0.746081 1.6216 0
M  V30 142 C 16.4931 1.50518 3.0364 0
M  V30 143 C 15.6661 2.77142 3.38395 0
M  V30 144 C 14.7251 2.62012 4.56329 0
M  V30 145 O 13.7511 3.35898 4.59522 0
M  V30 146 N 14.9531 1.71667 5.54536 0
M  V30 147 H 17.7181 2.55723 1.56287 0
M  V30 148 H 15.2791 1.45173 0.716697 0
M  V30 149 H 17.2711 1.38091 3.80412 0
M  V30 150 H 15.8411 0.618627 3.06418 0
M  V30 151 H 15.0611 3.0413 2.50796 0
M  V30 152 H 16.3491 3.61146 3.58401 0
M  V30 153 H 15.7471 1.10841 5.54735 0
M  V30 154 H 14.3041 1.65178 6.30523 0
M  V30 155 N 17.7372 -0.778329 1.37039 0
M  V30 156 C 18.9842 -1.53665 1.31884 0
M  V30 157 C 19.3122 -1.9425 -0.0986303 0
M  V30 158 O 18.5672 -1.63832 -1.07041 0
M  V30 159 C 18.8662 -2.81845 2.19768 0
M  V30 160 C 18.5322 -2.60345 3.68146 0
M  V30 161 C 17.1942 -2.5419 4.08584 0
M  V30 162 C 19.5462 -2.40923 4.62175 0
M  V30 163 C 16.8742 -2.26594 5.41177 0
M  V30 164 C 19.2262 -2.14852 5.94997 0
M  V30 165 C 17.8902 -2.07137 6.34547 0
M  V30 166 H 17.1602 -0.562299 0.482598 0
M  V30 167 H 19.8072 -0.897069 1.69189 0
M  V30 168 H 18.1122 -3.50328 1.75436 0
M  V30 169 H 19.8092 -3.39692 2.13097 0
M  V30 170 H 16.3992 -2.65996 3.36072 0
M  V30 171 H 20.5832 -2.44673 4.31797 0
M  V30 172 H 15.8392 -2.19111 5.70789 0
M  V30 173 H 20.0132 -1.98822 6.67415 0
M  V30 174 H 17.6402 -1.85518 7.37216 0
M  V30 175 N 19.2153 -1.21501 -1.00376 0
M  V30 176 C 20.1453 -0.999478 -2.11028 0
M  V30 177 C 21.1263 0.0759671 -1.6993 0
M  V30 178 O 22.3113 -0.0841106 -1.94018 0
M  V30 179 C 19.4413 -0.564709 -3.42678 0
M  V30 180 C 18.3953 -1.58486 -3.97576 0
M  V30 181 C 17.7213 -1.00628 -5.25146 0
M  V30 182 C 19.0213 -2.97204 -4.29496 0
M  V30 183 H 20.7153 -1.92495 -2.29317 0
M  V30 184 H 18.2613 -0.92693 -1.102 0
M  V30 185 H 20.2143 -0.401091 -4.19487 0
M  V30 186 H 18.9383 0.396411 -3.24185 0
M  V30 187 H 17.5973 -1.73606 -3.22888 0
M  V30 188 H 17.2453 -0.0368439 -5.02987 0
M  V30 189 H 16.9453 -1.68771 -5.62841 0
M  V30 190 H 18.4693 -0.854015 -6.04598 0
M  V30 191 H 19.8833 -2.8552 -4.97143 0
M  V30 192 H 18.2803 -3.62372 -4.78338 0
M  V30 193 H 19.3503 -3.47956 -3.3772 0
M  V30 194 N 20.6934 1.19889 -1.02296 0
M  V30 195 C 22.1094 1.41462 -0.738954 0
M  V30 196 C 22.3094 1.89721 0.678846 0
M  V30 197 O 21.3654 2.07016 1.4457 0
M  V30 198 C 22.6784 2.43083 -1.77005 0
M  V30 199 C 24.2264 2.5684 -1.78892 0
M  V30 200 C 24.7014 3.61709 -2.80945 0
M  V30 201 N 26.1924 3.69199 -2.79725 0
M  V30 202 C 26.9274 4.50019 -3.55345 0
M  V30 203 N 26.4234 5.34592 -4.40662 0
M  V30 204 N 28.2164 4.44612 -3.43914 0
M  V30 205 H 20.3674 0.868827 -1.93817 0
M  V30 206 H 22.6304 0.44399 -0.837602 0
M  V30 207 H 22.3364 2.14636 -2.78612 0
M  V30 208 H 22.2104 3.4217 -1.58744 0
M  V30 209 H 24.5974 2.84614 -0.779674 0
M  V30 210 H 24.6784 1.57927 -2.01228 0
M  V30 211 H 24.3224 3.34678 -3.82038 0
M  V30 212 H 24.2524 4.60259 -2.5587 0
M  V30 213 H 26.7434 3.08794 -2.17842 0
M  V30 214 H 27.0564 5.93363 -4.95116 0
M  V30 215 H 25.4014 5.34073 -4.44737 0
M  V30 216 H 28.5924 3.7758 -2.76679 0
M  V30 217 H 28.7654 5.0736 -4.031 0
M  V30 218 N 22.1715 0.800033 1.35784 0
M  V30 219 C 23.3995 0.389606 2.03199 0
M  V30 220 C 23.8145 -0.997375 1.60306 0
M  V30 221 O 23.1715 -1.64154 0.797481 0
M  V30 222 C 23.2225 0.455855 3.58614 0
M  V30 223 O 22.9435 1.78815 3.99946 0
M  V30 224 C 24.4445 0.0374032 4.43284 0
M  V30 225 H 21.6645 0.159132 0.651857 0
M  V30 226 H 24.2085 1.08183 1.73541 0
M  V30 227 H 22.3635 -0.188057 3.86943 0
M  V30 228 H 22.7775 1.74636 4.94573 0
M  V30 229 H 24.2515 0.134882 5.51835 0
M  V30 230 H 24.7285 -1.01651 4.27275 0
M  V30 231 H 25.3345 0.654215 4.20238 0
M  V30 232 N 23.6496 -1.47581 0.552962 0
M  V30 233 C 24.9266 -1.95563 -0.0381515 0
M  V30 234 C 25.3066 -1.49552 -1.48988 0
M  V30 235 O 24.6546 -0.732414 -2.16444 0
M  V30 236 C 24.8646 -3.48848 0.102919 0
M  V30 237 C 26.2126 -4.24577 -0.0446082 0
M  V30 238 O 27.2366 -3.56187 0.0302548 0
M  V30 239 O 26.0956 -5.46116 -0.204923 0
M  V30 240 H 23.1896 -0.824321 -0.0665067 0
M  V30 241 H 25.7356 -1.58001 0.619186 0
M  V30 242 H 24.5076 -3.75129 1.11328 0
M  V30 243 H 24.1306 -3.93165 -0.592224 0
M  V30 244 N 25.1277 -0.289203 -1.54924 0
M  V30 245 C 26.4047 0.376032 -1.91951 0
M  V30 246 C 26.7847 1.72622 -1.21511 0
M  V30 247 O 26.1327 2.25853 -0.346767 0
M  V30 248 C 26.3427 0.502378 -3.45365 0
M  V30 249 C 27.6907 0.778741 -4.17398 0
M  V30 250 O 28.7147 0.586647 -3.51336 0
M  V30 251 O 27.5737 1.14698 -5.34328 0
M  V30 252 H 24.6677 0.208167 -0.800372 0
M  V30 253 H 27.2137 -0.336394 -1.66332 0
M  V30 254 H 25.9857 -0.447255 -3.88736 0
M  V30 255 H 25.6087 1.26373 -3.76982 0
M  V30 256 N 26.6058 1.57591 -0.0167156 0
M  V30 257 C 27.5158 2.1291 0.98521 0
M  V30 258 C 28.5318 1.07834 1.36557 0
M  V30 259 O 29.7078 1.39826 1.44951 0
M  V30 260 C 26.7728 2.63512 2.25305 0
M  V30 261 C 25.8338 3.83256 1.93426 0
M  V30 262 C 25.0668 4.31435 3.14165 0
M  V30 263 O 25.2898 3.78851 4.26413 0
M  V30 264 O 24.2238 5.23416 2.97186 0
M  V30 265 H 28.0498 2.98772 0.544888 0
M  V30 266 H 25.6348 1.48012 0.203141 0
M  V30 267 H 27.5168 2.96183 2.99756 0
M  V30 268 H 26.1918 1.8074 2.68542 0
M  V30 269 H 25.0988 3.55531 1.16398 0
M  V30 270 H 26.4318 4.67153 1.55013 0
M  V30 271 N 28.0839 -0.256276 1.55502 0
M  V30 272 C 29.3299 -0.987079 1.77157 0
M  V30 273 C 29.6629 -1.85327 0.580315 0
M  V30 274 O 28.9379 -1.89874 -0.421686 0
M  V30 275 C 29.2209 -1.85553 3.08613 0
M  V30 276 C 29.0739 -1.01816 4.38125 0
M  V30 277 C 30.3929 -2.8397 3.36228 0
M  V30 278 H 27.5119 -0.357428 0.644526 0
M  V30 279 H 30.1539 -0.258239 1.88237 0
M  V30 280 H 28.3039 -2.47695 2.99298 0
M  V30 281 H 29.9759 -0.416159 4.59419 0
M  V30 282 H 28.2189 -0.322178 4.32602 0
M  V30 283 H 28.8899 -1.65939 5.26468 0
M  V30 284 H 31.3659 -2.31964 3.45445 0
M  V30 285 H 30.2419 -3.41864 4.29442 0
M  V30 286 H 30.5029 -3.59955 2.56681 0
M  V30 287 N 29.562 -1.4872 -0.521534 0
M  V30 288 C 30.808 -1.574 -1.27879 0
M  V30 289 C 31.141 -0.250817 -1.92573 0
M  V30 290 O 30.416 0.743934 -1.79711 0
M  V30 291 C 30.699 -2.71843 -2.36164 0
M  V30 292 C 30.552 -4.13893 -1.76105 0
M  V30 293 C 31.871 -2.82008 -3.37875 0
M  V30 294 H 28.99 -0.572941 -0.463581 0
M  V30 295 H 31.632 -1.80927 -0.580119 0
M  V30 296 H 29.782 -2.51914 -2.95756 0
M  V30 297 H 31.454 -4.45284 -1.20499 0
M  V30 298 H 29.697 -4.20498 -1.06601 0
M  V30 299 H 30.368 -4.89804 -2.5455 0
M  V30 300 H 32.844 -3.00086 -2.88249 0
M  V30 301 H 31.72 -3.63796 -4.11028 0
M  V30 302 H 31.981 -1.90511 -3.98946 0
M  V30 303 N 31.0401 0.771051 -1.3745 0
M  V30 304 C 31.9701 1.89827 -1.3597 0
M  V30 305 C 32.9511 1.68562 -0.228216 0
M  V30 306 O 34.1361 1.8941 -0.428675 0
M  V30 307 C 31.2661 3.2712 -1.16662 0
M  V30 308 C 30.2201 3.6295 -2.2683 0
M  V30 309 C 29.5461 4.98791 -1.92644 0
M  V30 310 C 30.8461 3.69627 -3.69017 0
M  V30 311 H 32.5401 1.91323 -2.30295 0
M  V30 312 H 30.0861 0.919082 -1.10855 0
M  V30 313 H 32.0391 4.05615 -1.14256 0
M  V30 314 H 30.7631 3.26059 -0.187926 0
M  V30 315 H 29.4221 2.86763 -2.28392 0
M  V30 316 H 29.0701 4.94271 -0.933021 0
M  V30 317 H 28.7701 5.23733 -2.66416 0
M  V30 318 H 30.2941 5.79685 -1.91826 0
M  V30 319 H 31.7081 4.38273 -3.69581 0
M  V30 320 H 30.1051 4.06067 -4.41848 0
M  V30 321 H 31.1751 2.70273 -4.02592 0
M  V30 322 N 32.5182 1.22032 0.997298 0
M  V30 323 C 33.4502 0.944263 2.08845 0
M  V30 324 C 34.4632 -0.0754663 1.62625 0
M  V30 325 O 35.6522 0.157994 1.77799 0
M  V30 326 C 32.7522 0.397723 3.36558 0
M  V30 327 C 31.9252 1.47362 4.11829 0
M  V30 328 C 30.9842 0.934951 5.17827 0
M  V30 329 O 30.0102 1.62016 5.45655 0
M  V30 330 N 31.2122 -0.245895 5.79979 0
M  V30 331 H 33.9772 1.88363 2.33109 0
M  V30 332 H 31.5382 1.12661 1.16272 0
M  V30 333 H 33.5302 0.0227771 4.04694 0
M  V30 334 H 32.1002 -0.446646 3.09393 0
M  V30 335 H 31.3202 2.02208 3.38386 0
M  V30 336 H 32.6082 2.19764 4.58891 0
M  V30 337 H 32.0062 -0.819475 5.59733 0
M  V30 338 H 30.5632 -0.562272 6.4937 0
M  V30 339 N 33.9963 -1.19345 1.0293 0
M  V30 340 C 35.2363 -1.90738 0.734727 0
M  V30 341 C 35.6003 -1.7785 -0.723414 0
M  V30 342 O 36.8013 -2.43844 -1.13108 0
M  V30 343 C 35.0723 -3.37569 1.17396 0
M  V30 344 S 36.6313 -4.27176 1.00329 0
M  V30 345 H 33.4493 -0.658771 0.267474 0
M  V30 346 H 36.0513 -1.4428 1.31922 0
M  V30 347 H 34.7553 -3.44475 2.23081 0
M  V30 348 H 34.2863 -3.8906 0.582772 0
M  V30 349 H 36.3013 -4.96126 -0.0859152 0
M  V30 350 N 35.4744 -0.807222 -1.35358 0
M  V30 351 C 36.7024 -0.400377 -2.02989 0
M  V30 352 C 37.1174 0.988859 -1.60832 0
M  V30 353 O 36.4744 1.63729 -0.806175 0
M  V30 354 C 36.5254 -0.474867 -3.58368 0
M  V30 355 O 36.2464 -1.80933 -3.98992 0
M  V30 356 C 37.7474 -0.0609112 -4.43258 0
M  V30 357 H 34.9674 -0.162587 -0.651004 0
M  V30 358 H 37.5114 -1.09102 -1.72965 0
M  V30 359 H 35.6664 0.167534 -3.87038 0
M  V30 360 H 36.0804 -1.77256 -4.9364 0
M  V30 361 H 37.5544 -0.164145 -5.51756 0
M  V30 362 H 38.0314 0.993831 -4.27808 0
M  V30 363 H 38.6374 -0.676492 -4.19885 0
M  V30 364 N 36.9525 1.47285 -0.560781 0
M  V30 365 C 37.9155 2.28535 0.174488 0
M  V30 366 C 38.9155 1.37153 0.839388 0
M  V30 367 O 40.1055 1.59748 0.694702 0
M  V30 368 C 37.2375 3.16934 1.25561 0
M  V30 369 H 38.4305 2.95012 -0.539262 0
M  V30 370 H 35.9835 1.53034 -0.317865 0
M  V30 371 H 36.7185 2.55157 2.00164 0
M  V30 372 H 36.5035 3.8419 0.783604 0
M  V30 373 H 37.9935 3.78143 1.77193 0
M  V30 374 N 38.4306 0.297415 1.54768 0
M  V30 375 C 39.6586 -0.315623 2.04478 0
M  V30 376 C 40.0736 -1.47792 1.17486 0
M  V30 377 O 39.4306 -1.81404 0.19971 0
M  V30 378 C 39.4816 -0.7753 3.53088 0
M  V30 379 O 39.2026 0.340732 4.36773 0
M  V30 380 C 40.7036 -1.45386 4.18781 0
M  V30 381 H 37.9236 -0.0690887 0.667434 0
M  V30 382 H 40.4676 0.436003 1.99798 0
M  V30 383 H 38.6226 -1.47696 3.58141 0
M  V30 384 H 39.0366 -0.0165035 5.24497 0
M  V30 385 H 40.5106 -1.72669 5.24299 0
M  V30 386 H 40.9876 -2.39275 3.68299 0
M  V30 387 H 41.5936 -0.795475 4.17795 0
M  V30 388 N 39.9087 -1.5758 0.0250728 0
M  V30 389 C 41.1577 -1.90811 -0.653767 0
M  V30 390 C 41.4707 -0.90273 -1.73523 0
M  V30 391 O 42.6767 -1.12614 -2.47043 0
M  V30 392 C 41.1327 -3.38804 -1.21409 0
M  V30 393 C 40.7407 -4.47692 -0.166126 0
M  V30 394 C 42.4847 -3.81108 -1.86967 0
M  V30 395 C 40.3917 -5.86779 -0.737856 0
M  V30 396 H 39.3217 -0.712063 -0.247956 0
M  V30 397 H 41.9727 -1.83281 0.0897137 0
M  V30 398 H 40.3547 -3.41252 -2.00905 0
M  V30 399 H 41.5287 -4.56797 0.606079 0
M  V30 400 H 39.8437 -4.14565 0.390466 0
M  V30 401 H 42.4407 -4.82375 -2.30692 0
M  V30 402 H 42.7837 -3.15953 -2.71071 0
M  V30 403 H 43.3167 -3.81065 -1.14167 0
M  V30 404 H 40.0557 -6.55468 0.0649577 0
M  V30 405 H 39.5757 -5.81288 -1.47864 0
M  V30 406 H 41.2547 -6.35223 -1.22884 0
M  V30 407 N 41.3868 0.248026 -1.55636 0
M  V30 408 C 42.3368 1.30994 -1.86614 0
M  V30 409 C 43.3208 1.43543 -0.726918 0
M  V30 410 O 44.5128 1.46804 -0.988818 0
M  V30 411 C 41.6418 2.6656 -2.16335 0
M  V30 412 C 40.7278 2.58019 -3.36581 0
M  V30 413 N 41.1188 2.1911 -4.55878 0
M  V30 414 C 39.4168 2.89035 -3.39669 0
M  V30 415 C 40.1178 2.21174 -5.38012 0
M  V30 416 N 39.0938 2.60632 -4.77045 0
M  V30 417 H 42.8958 0.999583 -2.76379 0
M  V30 418 H 40.4098 0.456652 -1.55848 0
M  V30 419 H 42.4068 3.43194 -2.36692 0
M  V30 420 H 41.0668 2.98463 -1.27867 0
M  V30 421 H 42.0778 1.90672 -4.81523 0
M  V30 422 H 38.7548 3.25485 -2.61469 0
M  V30 423 H 40.1448 1.9344 -6.43452 0
M  V30 424 N 42.8649 1.48995 0.513639 0
M  V30 425 C 43.8119 1.6473 1.61656 0
M  V30 426 C 44.7819 0.488984 1.58739 0
M  V30 427 O 45.9669 0.714478 1.76918 0
M  V30 428 C 43.1069 1.7082 2.99858 0
M  V30 429 C 42.2199 2.9787 3.12885 0
M  V30 430 C 41.3549 2.95017 4.41744 0
M  V30 431 C 40.3939 4.16702 4.48359 0
M  V30 432 N 39.5309 4.11832 5.68629 0
M  V30 433 H 44.3709 2.58909 1.47547 0
M  V30 434 H 41.9079 1.28382 0.71808 0
M  V30 435 H 43.8659 1.72331 3.79944 0
M  V30 436 H 42.4959 0.801181 3.12699 0
M  V30 437 H 41.5479 3.06029 2.25944 0
M  V30 438 H 42.8599 3.8786 3.13633 0
M  V30 439 H 42.0139 2.95021 5.30139 0
M  V30 440 H 40.7529 2.02784 4.43542 0
M  V30 441 H 39.7579 4.16955 3.58369 0
M  V30 442 H 40.9829 5.10113 4.48287 0
M  V30 443 H 38.9289 3.22428 5.71293 0
M  V30 444 H 38.8459 4.95543 5.7094 0
M  V30 445 H 40.1139 4.1592 6.59266 0
M  V30 446 N 44.343 -0.763751 1.37857 0
M  V30 447 C 45.253 -1.90817 1.36478 0
M  V30 448 C 46.269 -1.71997 0.263248 0
M  V30 449 O 47.445 -1.95095 0.499979 0
M  V30 450 C 44.51 -3.2605 1.17864 0
M  V30 451 C 43.571 -3.57467 2.3773 0
M  V30 452 C 42.804 -4.86249 2.19995 0
M  V30 453 O 43.027 -5.57884 1.18836 0
M  V30 454 O 41.961 -5.16911 3.08361 0
M  V30 455 H 45.787 -1.94933 2.32884 0
M  V30 456 H 43.372 -0.907619 1.1867 0
M  V30 457 H 45.254 -4.06924 1.09504 0
M  V30 458 H 43.929 -3.22769 0.245372 0
M  V30 459 H 42.836 -2.76796 2.51664 0
M  V30 460 H 44.169 -3.655 3.29652 0
M  V30 461 N 45.8211 -1.22559 -0.990812 0
M  V30 462 C 46.7531 -0.955325 -2.08342 0
M  V30 463 C 47.7661 0.0668408 -1.62663 0
M  V30 464 O 48.9551 -0.167421 -1.77713 0
M  V30 465 C 46.0551 -0.415566 -3.36342 0
M  V30 466 C 45.2281 -1.49544 -4.11042 0
M  V30 467 C 44.2871 -0.962399 -5.17324 0
M  V30 468 O 43.3131 -1.64907 -5.44788 0
M  V30 469 N 44.5151 0.215134 -5.80101 0
M  V30 470 H 47.2801 -1.89596 -2.32106 0
M  V30 471 H 44.8411 -1.13276 -1.15673 0
M  V30 472 H 46.8331 -0.0442386 -4.04676 0
M  V30 473 H 45.4031 0.430232 -3.09625 0
M  V30 474 H 44.6231 -2.04 -3.37309 0
M  V30 475 H 45.9111 -2.22195 -4.57719 0
M  V30 476 H 45.3091 0.789779 -5.6016 0
M  V30 477 H 43.8661 0.527826 -6.49659 0
M  V30 478 N 47.2992 1.18797 -1.03562 0
M  V30 479 C 48.2312 2.21731 -0.580337 0
M  V30 480 C 49.2442 1.59051 0.347349 0
M  V30 481 O 50.4332 1.77929 0.142669 0
M  V30 482 C 47.5332 3.38459 0.172805 0
M  V30 483 C 46.7062 4.3072 -0.761496 0
M  V30 484 C 45.7652 5.26174 -0.0525547 0
M  V30 485 O 44.7912 5.65108 -0.681333 0
M  V30 486 N 45.9932 5.67624 1.21586 0
M  V30 487 H 48.7582 2.61417 -1.46565 0
M  V30 488 H 46.3192 1.33531 -0.915476 0
M  V30 489 H 48.3112 3.99335 0.656793 0
M  V30 490 H 46.8812 2.97507 0.959602 0
M  V30 491 H 46.1012 3.67525 -1.42544 0
M  V30 492 H 47.3892 4.89267 -1.39626 0
M  V30 493 H 46.7872 5.38038 1.74732 0
M  V30 494 H 45.3442 6.30721 1.64421 0
M  V30 495 N 48.7773 0.814389 1.34928 0
M  V30 496 C 49.7243 0.22822 2.29669 0
M  V30 497 C 50.6943 -0.642164 1.53184 0
M  V30 498 O 51.8793 -0.585605 1.81591 0
M  V30 499 C 49.0193 -0.61089 3.3965 0
M  V30 500 C 48.1323 0.280792 4.31086 0
M  V30 501 C 47.2673 -0.567067 5.28165 0
M  V30 502 C 46.3063 0.324531 6.11239 0
M  V30 503 N 45.4433 -0.483756 7.00431 0
M  V30 504 H 50.2833 1.04153 2.79206 0
M  V30 505 H 47.8203 0.525133 1.37407 0
M  V30 506 H 49.7783 -1.11263 4.0209 0
M  V30 507 H 48.4083 -1.38939 2.91369 0
M  V30 508 H 47.4603 0.900688 3.69583 0
M  V30 509 H 48.7723 0.966723 4.89342 0
M  V30 510 H 47.9263 -1.13363 5.96015 0
M  V30 511 H 46.6653 -1.28654 4.70425 0
M  V30 512 H 45.6703 0.903298 5.42329 0
M  V30 513 H 46.8953 1.04198 6.71059 0
M  V30 514 H 44.8413 -1.18706 6.45171 0
M  V30 515 H 44.7583 0.143965 7.55863 0
M  V30 516 H 46.0263 -1.03334 7.7262 0
M  V30 517 N 50.2554 -1.46986 0.568584 0
M  V30 518 C 51.1854 -2.32946 -0.160753 0
M  V30 519 C 52.1664 -1.44487 -0.897631 0
M  V30 520 O 53.3514 -1.73327 -0.875867 0
M  V30 521 C 50.4814 -3.26494 -1.18403 0
M  V30 522 C 49.4354 -4.24282 -0.562895 0
M  V30 523 C 48.7614 -5.07236 -1.69163 0
M  V30 524 C 50.0614 -5.19989 0.490761 0
M  V30 525 H 51.7554 -2.94175 0.556916 0
M  V30 526 H 49.3014 -1.4146 0.26927 0
M  V30 527 H 51.2544 -3.85477 -1.70251 0
M  V30 528 H 49.9784 -2.63343 -1.93179 0
M  V30 529 H 48.6374 -3.66541 -0.0656164 0
M  V30 530 H 48.2854 -4.4048 -2.42871 0
M  V30 531 H 47.9854 -5.7345 -1.28174 0
M  V30 532 H 49.5094 -5.6908 -2.21314 0
M  V30 533 H 50.9234 -5.73271 0.0579047 0
M  V30 534 H 49.3204 -5.94469 0.820165 0
M  V30 535 H 50.3904 -4.64777 1.3824 0
M  V30 536 N 51.7335 -0.305618 -1.54608 0
M  V30 537 C 52.9735 0.303114 -2.0214 0
M  V30 538 C 53.3375 1.50737 -1.18921 0
M  V30 539 O 54.5385 2.18778 -1.56172 0
M  V30 540 C 52.8095 0.646332 -3.51507 0
M  V30 541 S 54.3685 1.23727 -4.20995 0
M  V30 542 H 51.1865 0.0927643 -0.704923 0
M  V30 543 H 53.7885 -0.434566 -1.90609 0
M  V30 544 H 52.4925 -0.238541 -4.09706 0
M  V30 545 H 52.0235 1.41468 -3.67084 0
M  V30 546 H 54.0385 2.52489 -4.27158 0
M  V30 547 N 53.2116 1.57565 -0.0334293 0
M  V30 548 C 54.1416 2.13511 0.945265 0
M  V30 549 C 55.1226 1.05231 1.33643 0
M  V30 550 O 56.3076 1.33084 1.41429 0
M  V30 551 C 53.4376 2.6657 2.22616 0
M  V30 552 C 52.3916 3.79676 1.97561 0
M  V30 553 C 51.7176 4.1918 3.31952 0
M  V30 554 C 53.0176 5.0557 1.31135 0
M  V30 555 H 54.7116 2.95538 0.479325 0
M  V30 556 H 52.2576 1.42166 0.229115 0
M  V30 557 H 54.2106 3.04344 2.91466 0
M  V30 558 H 52.9346 1.8171 2.71384 0
M  V30 559 H 51.5936 3.42347 1.31127 0
M  V30 560 H 51.2416 3.31296 3.78487 0
M  V30 561 H 50.9416 4.95402 3.15992 0
M  V30 562 H 52.4656 4.59541 4.02063 0
M  V30 563 H 53.8796 5.40903 1.89992 0
M  V30 564 H 52.2766 5.86818 1.25559 0
M  V30 565 H 53.3466 4.84062 0.284894 0
M  V30 566 N 54.6897 -0.239769 1.55765 0
M  V30 567 C 55.6527 -1.28038 1.90103 0
M  V30 568 C 56.6527 -1.40723 0.778055 0
M  V30 569 O 57.8427 -1.39301 1.04599 0
M  V30 570 C 54.9747 -2.65702 2.13577 0
M  V30 571 H 56.1677 -0.988048 2.83157 0
M  V30 572 H 53.7207 -0.479382 1.48767 0
M  V30 573 H 54.4557 -3.00063 1.23015 0
M  V30 574 H 54.2407 -2.57875 2.95369 0
M  V30 575 H 55.7307 -3.40828 2.41301 0
M  V30 576 N 56.1678 -1.49265 -0.50573 0
M  V30 577 C 57.1308 -1.65075 -1.59006 0
M  V30 578 C 58.1308 -0.522768 -1.52065 0
M  V30 579 O 59.3208 -0.789117 -1.55302 0
M  V30 580 C 56.4528 -1.64369 -2.98656 0
M  V30 581 H 57.6458 -2.61784 -1.46319 0
M  V30 582 H 55.1988 -1.38226 -0.729616 0
M  V30 583 H 55.9338 -0.692272 -3.16825 0
M  V30 584 H 55.7188 -2.46282 -3.05103 0
M  V30 585 H 57.2088 -1.78674 -3.77446 0
M  V30 586 N 57.6459 0.756429 -1.3826 0
M  V30 587 C 58.5559 1.9009 -1.37488 0
M  V30 588 C 59.5719 1.71855 -0.272366 0
M  V30 589 O 60.7479 1.94827 -0.510318 0
M  V30 590 C 57.8129 3.25421 -1.19592 0
M  V30 591 C 56.8739 3.56202 -2.39622 0
M  V30 592 C 56.1069 4.85075 -2.2257 0
M  V30 593 O 56.3299 5.57246 -1.21793 0
M  V30 594 O 55.2639 5.15269 -3.11098 0
M  V30 595 H 59.0899 1.93695 -2.33914 0
M  V30 596 H 56.6749 0.901313 -1.1915 0
M  V30 597 H 58.5569 4.06337 -1.11661 0
M  V30 598 H 57.2319 3.22634 -0.262486 0
M  V30 599 H 56.1389 2.75458 -2.53128 0
M  V30 600 H 57.4719 3.63747 -3.31586 0
M  V30 601 N 59.124 1.23083 0.984299 0
M  V30 602 C 60.372 1.05848 1.72165 0
M  V30 603 C 60.693 -0.406049 1.90726 0
M  V30 604 O 59.963 -1.29139 1.47309 0
M  V30 605 H 58.543 0.388685 0.637913 0
M  V30 606 H 61.205 1.54736 1.18503 0
M  V30 607 H 60.301 1.54327 2.71274 0
M  V30 608 N 60.6021 -1.18246 1.0419 0
M  V30 609 C 61.8491 -1.88257 0.746017 0
M  V30 610 C 62.1771 -1.80429 -0.726331 0
M  V30 611 O 61.4321 -1.2 -1.54591 0
M  V30 612 C 61.7311 -3.38082 1.15911 0
M  V30 613 C 61.3971 -3.66114 2.63195 0
M  V30 614 C 60.0591 -3.73474 3.03432 0
M  V30 615 C 62.4111 -3.78398 3.5842 0
M  V30 616 C 59.7391 -3.90599 4.37778 0
M  V30 617 C 62.0911 -3.97039 4.92487 0
M  V30 618 C 60.7551 -4.02635 5.32392 0
M  V30 619 H 60.0251 -0.688883 0.272987 0
M  V30 620 H 62.6721 -1.3995 1.30715 0
M  V30 621 H 60.9771 -3.88377 0.516806 0
M  V30 622 H 62.6741 -3.90596 0.907516 0
M  V30 623 H 59.2641 -3.61003 2.3103 0
M  V30 624 H 63.4481 -3.72042 3.28479 0
M  V30 625 H 58.7041 -3.93175 4.68213 0
M  V30 626 H 62.8781 -4.05486 5.66175 0
M  V30 627 H 60.5051 -4.15657 6.36501 0
M  V30 628 N 62.0802 -0.821533 -1.34494 0
M  V30 629 C 63.3282 -0.408139 -1.97936 0
M  V30 630 C 63.6492 1.03193 -1.65457 0
M  V30 631 O 62.9192 1.71622 -0.944595 0
M  V30 632 H 61.4992 -0.147928 -0.732206 0
M  V30 633 H 64.1612 -1.05067 -1.64155 0
M  V30 634 H 63.2572 -0.52601 -3.07635 0
M  V30 635 N 63.5583 1.46682 -0.576371 0
M  V30 636 C 64.5063 2.31953 0.17335 0
M  V30 637 C 65.5003 1.44098 0.89062 0
M  V30 638 O 66.7063 1.60759 0.809728 0
M  V30 639 H 63.0813 0.748273 0.0747727 0
M  V30 640 H 65.0523 2.93007 -0.564738 0
M  V30 641 C 63.8013 3.27142 1.17786 0
M  V30 642 H 63.1243 3.94719 0.635361 0
M  V30 643 H 64.5643 3.896 1.67296 0
M  V30 644 C 63.0233 2.52036 2.23561 0
M  V30 645 O 63.5533 2.27877 3.3081 0
M  V30 646 N 61.7593 2.12709 1.97998 0
M  V30 647 H 61.3063 2.32557 1.10792 0
M  V30 648 H 61.2643 1.62776 2.68982 0
M  V30 649 N 65.0364 0.313813 1.54444 0
M  V30 650 C 66.4524 -0.0391619 1.59552 0
M  V30 651 C 66.6524 -1.51322 1.33056 0
M  V30 652 O 65.7084 -2.26782 1.11022 0
M  V30 653 C 67.0214 0.370302 2.98411 0
M  V30 654 C 68.5694 0.320139 3.11358 0
M  V30 655 C 69.0444 0.704617 4.52547 0
M  V30 656 N 70.5354 0.657645 4.58508 0
M  V30 657 C 71.2704 0.927453 5.6585 0
M  V30 658 N 70.7664 1.26389 6.81174 0
M  V30 659 N 72.5594 0.853662 5.5558 0
M  V30 660 H 64.7104 1.27433 1.69925 0
M  V30 661 H 66.9734 0.517511 0.794284 0
M  V30 662 H 66.6794 1.39694 3.22767 0
M  V30 663 H 66.5534 -0.269619 3.76235 0
M  V30 664 H 68.9404 -0.697275 2.86744 0
M  V30 665 H 69.0214 0.99486 2.35661 0
M  V30 666 H 68.6654 1.7199 4.77893 0
M  V30 667 H 68.5954 0.00768843 5.26599 0
M  V30 668 H 71.0864 0.409067 3.75679 0
M  V30 669 H 71.3994 1.4554 7.58972 0
M  V30 670 H 69.7444 1.30206 6.82694 0
M  V30 671 H 72.9354 0.590383 4.64362 0
M  V30 672 H 73.1084 1.0673 6.3915 0
M  V30 673 N 66.5145 -1.57545 0.0417849 0
M  V30 674 C 67.4445 -2.14009 -0.933929 0
M  V30 675 C 68.4255 -1.05938 -1.33083 0
M  V30 676 O 69.6105 -1.33833 -1.40721 0
M  V30 677 C 66.7405 -2.67747 -2.21199 0
M  V30 678 C 65.6945 -3.80718 -1.95544 0
M  V30 679 C 65.0205 -4.20935 -3.29724 0
M  V30 680 C 66.3205 -5.06258 -1.28452 0
M  V30 681 H 68.0145 -2.95788 -0.463645 0
M  V30 682 H 65.5605 -1.42285 -0.221573 0
M  V30 683 H 67.5135 -3.05886 -2.89848 0
M  V30 684 H 66.2375 -1.83147 -2.70416 0
M  V30 685 H 64.8965 -3.43037 -1.2931 0
M  V30 686 H 64.5445 -3.33298 -3.76724 0
M  V30 687 H 64.2445 -4.9707 -3.13361 0
M  V30 688 H 65.7685 -4.61666 -3.9962 0
M  V30 689 H 67.1825 -5.41903 -1.8712 0
M  V30 690 H 65.5795 -5.87475 -1.22445 0
M  V30 691 H 66.6495 -4.84207 -0.259219 0
M  V30 692 N 67.9926 0.231505 -1.5589 0
M  V30 693 C 69.2326 0.964533 -1.80211 0
M  V30 694 C 69.5966 1.81926 -0.613744 0
M  V30 695 O 70.7976 2.58526 -0.736045 0
M  V30 696 C 69.0686 1.78956 -3.09369 0
M  V30 697 S 70.6276 2.57959 -3.54969 0
M  V30 698 H 67.4456 0.324173 -0.632798 0
M  V30 699 H 70.0476 0.230985 -1.94131 0
M  V30 700 H 68.7516 1.15161 -3.93911 0
M  V30 701 H 68.2826 2.56559 -2.9823 0
M  V30 702 H 70.2976 3.81309 -3.17519 0
M  V30 703 N 69.4707 1.49531 0.497807 0
M  V30 704 C 70.7177 1.59179 1.25173 0
M  V30 705 C 71.0457 0.279932 1.92475 0
M  V30 706 O 70.3007 -0.732383 1.81479 0
M  V30 707 C 70.5997 2.70252 2.33878 0
M  V30 708 C 70.2657 4.11644 1.84012 0
M  V30 709 C 68.9277 4.50121 1.70132 0
M  V30 710 C 71.2797 5.00121 1.46725 0
M  V30 711 C 68.6077 5.74845 1.17348 0
M  V30 712 C 70.9597 6.25366 0.95392 0
M  V30 713 C 69.6237 6.6267 0.801538 0
M  V30 714 H 68.8937 0.582478 0.45804 0
M  V30 715 H 71.5407 1.83373 0.551948 0
M  V30 716 H 69.8457 2.40041 3.09657 0
M  V30 717 H 71.5427 2.74925 2.9192 0
M  V30 718 H 68.1327 3.81274 1.95775 0
M  V30 719 H 72.3167 4.71048 1.56294 0
M  V30 720 H 67.5727 6.02444 1.04264 0
M  V30 721 H 71.7467 6.93301 0.656225 0
M  V30 722 H 69.3737 7.59197 0.390351 0
M  V30 723 N 70.9488 -0.749086 1.3866 0
M  V30 724 C 71.8788 -1.8764 1.38973 0
M  V30 725 C 72.8598 -1.68178 0.255004 0
M  V30 726 O 74.0448 -1.88704 0.458754 0
M  V30 727 C 71.1748 -3.25222 1.21851 0
M  V30 728 C 70.1288 -3.59295 2.32575 0
M  V30 729 C 69.4548 -4.95663 2.00555 0
M  V30 730 C 70.7548 -3.63709 3.7485 0
M  V30 731 H 72.4488 -1.87635 2.3331 0
M  V30 732 H 69.9948 -0.901329 1.12303 0
M  V30 733 H 71.9478 -4.03746 1.20695 0
M  V30 734 H 70.6718 -3.25719 0.239775 0
M  V30 735 H 69.3308 -2.83093 2.32925 0
M  V30 736 H 68.9788 -4.92724 1.01154 0
M  V30 737 H 68.6788 -5.19429 2.74714 0
M  V30 738 H 70.2028 -5.7656 2.01024 0
M  V30 739 H 71.6168 -4.32338 3.76506 0
M  V30 740 H 70.0138 -3.98986 4.48252 0
M  V30 741 H 71.0838 -2.63834 4.06841 0
M  V30 742 N 72.4269 -1.23603 -0.977757 0
M  V30 743 C 73.3369 -1.03632 -2.1047 0
M  V30 744 C 74.3529 0.0199435 -1.73989 0
M  V30 745 O 75.5289 -0.176076 -2.00629 0
M  V30 746 C 72.5939 -0.63276 -3.40877 0
M  V30 747 C 71.6549 -1.76437 -3.91367 0
M  V30 748 C 70.8879 -1.37997 -5.15551 0
M  V30 749 O 71.1109 -0.265357 -5.69782 0
M  V30 750 O 70.0449 -2.20201 -5.60174 0
M  V30 751 H 73.8709 -1.98086 -2.30208 0
M  V30 752 H 71.4559 -1.02332 -1.08851 0
M  V30 753 H 73.3379 -0.418761 -4.19314 0
M  V30 754 H 72.0129 0.282754 -3.22463 0
M  V30 755 H 70.9199 -2.03304 -3.14036 0
M  V30 756 H 72.2529 -2.6583 -4.14241 0
M  V30 757 N 73.905 1.17692 -1.04816 0
M  V30 758 C 75.13 1.92327 -0.776207 0
M  V30 759 C 75.555 1.76082 0.661581 0
M  V30 760 O 74.913 1.076 1.45917 0
M  V30 761 C 74.961 3.41539 -1.15687 0
M  V30 762 O 74.065 4.11402 -0.286775 0
M  V30 763 H 73.406 0.599735 -0.284981 0
M  V30 764 H 75.936 1.49201 -1.4 0
M  V30 765 H 75.946 3.92269 -1.12202 0
M  V30 766 H 74.621 3.52684 -2.20425 0
M  V30 767 H 73.198 3.70939 -0.381903 0
M  V30 768 N 75.3831 0.828654 1.34056 0
M  V30 769 C 76.6111 0.43262 2.02326 0
M  V30 770 C 77.0261 -0.963147 1.62385 0
M  V30 771 O 76.3831 -1.62425 0.832121 0
M  V30 772 C 76.4341 0.53182 3.57567 0
M  V30 773 O 76.1551 1.87258 3.96063 0
M  V30 774 C 77.6561 0.131422 4.43105 0
M  V30 775 H 74.8761 0.172923 0.648335 0
M  V30 776 H 77.4201 1.1184 1.71208 0
M  V30 777 H 75.5751 -0.105938 3.87255 0
M  V30 778 H 75.9891 1.85087 4.90758 0
M  V30 779 H 77.4631 0.251904 5.51425 0
M  V30 780 H 77.9401 -0.925645 4.29335 0
M  V30 781 H 78.5461 0.743207 4.18756 0
M  V30 782 N 76.8612 -1.46375 0.584142 0
M  V30 783 C 78.0862 -2.07268 0.0740405 0
M  V30 784 C 78.5112 -1.42979 -1.22223 0
M  V30 785 O 77.8692 -0.514092 -1.73859 0
M  V30 786 C 77.9172 -3.60518 -0.0767769 0
M  V30 787 O 77.0212 -3.96533 -1.13292 0
M  V30 788 H 76.3622 -0.660961 0.0634524 0
M  V30 789 H 78.8922 -1.87991 0.807492 0
M  V30 790 H 78.9022 -4.07021 -0.282489 0
M  V30 791 H 77.5772 -4.06702 0.86986 0
M  V30 792 H 76.1542 -3.61738 -0.905553 0
M  V30 793 N 78.3393 -0.321999 -1.54275 0
M  V30 794 C 79.2873 0.560206 -2.25753 0
M  V30 795 C 80.2813 1.11984 -1.27106 0
M  V30 796 O 81.4873 1.06806 -1.44888 0
M  V30 797 H 77.8623 0.199304 -0.725108 0
M  V30 798 H 79.8333 -0.0649365 -2.98329 0
M  V30 799 C 78.5823 1.71023 -3.02731 0
M  V30 800 H 77.9053 1.28885 -3.78456 0
M  V30 801 H 79.3453 2.30314 -3.55993 0
M  V30 802 C 77.8043 2.62692 -2.10938 0
M  V30 803 O 78.3343 3.64364 -1.6912 0
M  V30 804 N 76.5403 2.30891 -1.76459 0
M  V30 805 H 76.0873 1.48253 -2.10663 0
M  V30 806 H 76.0453 2.92487 -1.1532 0
M  V30 807 N 79.8174 1.5752 -0.0501392 0
M  V30 808 C 81.0424 1.97376 0.636997 0
M  V30 809 C 81.4674 0.927466 1.63645 0
M  V30 810 O 80.8254 -0.10941 1.8097 0
M  V30 811 C 80.8734 3.36304 1.30123 0
M  V30 812 O 79.9774 3.34156 2.41689 0
M  V30 813 H 79.3184 0.642998 0.165679 0
M  V30 814 H 81.8484 2.04258 -0.118233 0
M  V30 815 H 81.8584 3.73008 1.65315 0
M  V30 816 H 80.5334 4.11993 0.568746 0
M  V30 817 H 79.1104 3.09196 2.08451 0
M  V30 818 N 81.2955 -0.223234 1.56011 0
M  V30 819 C 82.2425 -1.27664 1.92277 0
M  V30 820 C 83.2125 -1.46659 0.779763 0
M  V30 821 O 84.3975 -1.60256 1.03551 0
M  V30 822 C 81.5375 -2.62234 2.24338 0
M  V30 823 C 80.6505 -2.51051 3.51564 0
M  V30 824 C 79.7855 -3.78133 3.7308 0
M  V30 825 C 78.8245 -3.61665 4.93827 0
M  V30 826 N 77.9615 -4.80693 5.11741 0
M  V30 827 H 82.8015 -0.960358 2.82101 0
M  V30 828 H 80.3385 -0.462901 1.39627 0
M  V30 829 H 82.2965 -3.40596 2.40936 0
M  V30 830 H 80.9265 -2.91961 1.3769 0
M  V30 831 H 79.9785 -1.64132 3.43169 0
M  V30 832 H 81.2905 -2.34803 4.40079 0
M  V30 833 H 80.4445 -4.64938 3.89766 0
M  V30 834 H 79.1835 -3.97304 2.82844 0
M  V30 835 H 78.1885 -2.73244 4.77093 0
M  V30 836 H 79.4135 -3.43966 5.85546 0
M  V30 837 H 77.3595 -5.00181 4.24446 0
M  V30 838 H 77.2765 -4.67165 5.94384 0
M  V30 839 H 78.5445 -5.6893 5.3286 0
M  V30 840 N 82.7736 -1.49793 -0.48987 0
M  V30 841 C 83.7216 -1.67783 -1.61095 0
M  V30 842 C 84.7156 -0.543683 -1.60438 0
M  V30 843 O 85.9216 -0.723647 -1.64813 0
M  V30 844 H 82.2966 -0.529255 -0.534222 0
M  V30 845 H 84.2676 -2.61861 -1.43078 0
M  V30 846 C 83.0166 -1.77191 -2.99164 0
M  V30 847 H 82.3396 -2.63841 -3.0038 0
M  V30 848 H 83.7796 -1.93809 -3.77113 0
M  V30 849 C 82.2386 -0.519203 -3.32875 0
M  V30 850 O 82.7686 0.350124 -4.00171 0
M  V30 851 N 80.9746 -0.378816 -2.8812 0
M  V30 852 H 80.5216 -1.08725 -2.33531 0
M  V30 853 H 80.4796 0.458239 -3.11043 0
M  V30 854 N 84.2517 0.741722 -1.39055 0
M  V30 855 C 85.4977 1.50336 -1.36113 0
M  V30 856 C 85.8307 1.94148 0.0450796 0
M  V30 857 O 85.1057 1.66301 1.00868 0
M  V30 858 C 85.3887 2.74773 -2.32749 0
M  V30 859 C 85.2417 2.37023 -3.82283 0
M  V30 860 C 86.5607 3.76846 -2.27322 0
M  V30 861 H 83.6797 0.545351 -0.495743 0
M  V30 862 H 86.3217 0.848624 -1.69995 0
M  V30 863 H 84.4717 3.30639 -2.03986 0
M  V30 864 H 86.1437 1.8684 -4.21768 0
M  V30 865 H 84.3867 1.69334 -3.99385 0
M  V30 866 H 85.0577 3.26104 -4.45376 0
M  V30 867 H 87.5337 3.30548 -2.5274 0
M  V30 868 H 86.4097 4.6159 -2.97028 0
M  V30 869 H 86.6707 4.23286 -1.27599 0
M  V30 870 N 85.7298 1.2412 0.971189 0
M  V30 871 C 87.1408 1.07236 1.52831 0
M  V30 872 C 87.4918 -0.357352 1.92918 0
M  V30 873 O 86.6168 -1.24528 1.76979 0
M  V30 874 C 87.2118 1.94043 2.77728 0
M  V30 875 C 85.7708 1.81394 3.29808 0
M  V30 876 C 84.9178 1.89189 2.02738 0
M  V30 877 H 87.8688 1.37648 0.789864 0
M  V30 878 H 87.8898 1.47066 3.5093 0
M  V30 879 H 87.4018 2.98093 2.4852 0
M  V30 880 H 85.5028 0.801634 3.63874 0
M  V30 881 H 85.6158 2.65294 3.98944 0
M  V30 882 H 83.9798 1.32877 2.17292 0
M  V30 883 H 84.7628 2.94812 1.759 0
M  V30 884 N 87.2079 -1.17134 1.05439 0
M  V30 885 C 88.6189 -1.69084 0.791676 0
M  V30 886 C 88.9699 -1.83822 -0.685839 0
M  V30 887 O 88.0949 -1.52757 -1.53278 0
M  V30 888 C 88.6899 -3.07119 1.4305 0
M  V30 889 C 87.2489 -3.56225 1.21577 0
M  V30 890 C 86.3959 -2.32421 1.51247 0
M  V30 891 H 89.3469 -1.01617 1.219 0
M  V30 892 H 89.3679 -3.71087 0.84112 0
M  V30 893 H 88.8799 -2.9636 2.50584 0
M  V30 894 H 86.9809 -3.72257 0.159787 0
M  V30 895 H 87.0939 -4.38837 1.92246 0
M  V30 896 H 85.4579 -2.3701 0.932653 0
M  V30 897 H 86.2409 -2.24268 2.5992 0
M  V30 898 N 88.686 -0.835752 -1.33615 0
M  V30 899 C 89.963 -0.352017 -1.92406 0
M  V30 900 C 90.343 1.16225 -1.76224 0
M  V30 901 O 89.691 1.97526 -1.14873 0
M  V30 902 C 89.901 -0.795485 -3.39813 0
M  V30 903 C 91.249 -0.801703 -4.16963 0
M  V30 904 O 92.273 -0.738889 -3.48452 0
M  V30 905 O 91.132 -0.886607 -5.3926 0
M  V30 906 H 88.226 -0.0989641 -0.821057 0
M  V30 907 H 90.772 -0.921397 -1.42507 0
M  V30 908 H 89.544 -1.83795 -3.45449 0
M  V30 909 H 89.167 -0.202505 -3.97084 0
M  V30 910 N 90.1641 1.46063 -0.591896 0
M  V30 911 C 91.0941 2.33172 0.123673 0
M  V30 912 C 92.0751 1.45897 0.87453 0
M  V30 913 O 93.2601 1.74698 0.848181 0
M  V30 914 C 90.3901 3.28336 1.13194 0
M  V30 915 C 89.3441 4.25124 0.495324 0
M  V30 916 C 88.6701 5.09863 1.61071 0
M  V30 917 C 89.9701 5.19143 -0.573425 0
M  V30 918 H 91.6641 2.93252 -0.603646 0
M  V30 919 H 89.2101 1.41014 -0.291741 0
M  V30 920 H 91.1631 3.88137 1.64097 0
M  V30 921 H 89.8871 2.66383 1.88965 0
M  V30 922 H 88.5461 3.66599 0.00729452 0
M  V30 923 H 88.1941 4.44288 2.35832 0
M  V30 924 H 87.8941 5.75417 1.19035 0
M  V30 925 H 89.4181 5.72529 2.12233 0
M  V30 926 H 90.8321 5.73106 -0.1491 0
M  V30 927 H 89.2291 5.93089 -0.914636 0
M  V30 928 H 90.2991 4.62519 -1.45617 0
M  V30 929 N 91.6422 0.330177 1.54103 0
M  V30 930 C 92.8672 -0.274893 2.0557 0
M  V30 931 C 93.2922 -1.44487 1.20437 0
M  V30 932 O 92.6502 -1.80021 0.214991 0
M  V30 933 C 92.6982 -0.68079 3.54115 0
M  V30 934 O 91.8022 -1.7824 3.71893 0
M  V30 935 H 91.1432 -0.0483849 0.662235 0
M  V30 936 H 93.6732 0.480508 1.98878 0
M  V30 937 H 93.6832 -0.961635 3.96505 0
M  V30 938 H 92.3582 0.174903 4.15532 0
M  V30 939 H 90.9352 -1.49985 3.41407 0
M  V30 940 N 93.1203 -1.57491 0.0584922 0
M  V30 941 C 94.3693 -1.92155 -0.613146 0
M  V30 942 C 94.6823 -0.939334 -1.71569 0
M  V30 943 O 95.8883 -1.17829 -2.44599 0
M  V30 944 C 94.3443 -3.41303 -1.14195 0
M  V30 945 C 93.9523 -4.47944 -0.0711265 0
M  V30 946 C 95.6963 -3.84988 -1.78841 0
M  V30 947 C 93.6033 -5.88212 -0.613225 0
M  V30 948 H 92.5333 -0.717162 -0.232796 0
M  V30 949 H 95.1843 -1.83049 0.12857 0
M  V30 950 H 93.5663 -3.45437 -1.93621 0
M  V30 951 H 94.7403 -4.55408 0.702836 0
M  V30 952 H 93.0553 -4.13644 0.478313 0
M  V30 953 H 95.6523 -4.87159 -2.20408 0
M  V30 954 H 95.9953 -3.21632 -2.64308 0
M  V30 955 H 96.5283 -3.83401 -1.06059 0
M  V30 956 H 93.2673 -6.55183 0.203978 0
M  V30 957 H 92.7873 -5.84294 -1.35501 0
M  V30 958 H 94.4663 -6.37687 -1.09383 0
M  V30 959 N 94.5984 0.214957 -1.56127 0
M  V30 960 C 95.8384 0.945364 -1.81224 0
M  V30 961 C 96.2024 1.81265 -0.633005 0
M  V30 962 O 97.4034 2.57731 -0.763423 0
M  V30 963 C 95.6744 1.75665 -3.1125 0
M  V30 964 S 97.2334 2.54179 -3.57685 0
M  V30 965 H 94.0514 0.317443 -0.6362 0
M  V30 966 H 96.6534 0.210381 -1.94365 0
M  V30 967 H 95.3574 1.10977 -3.9511 0
M  V30 968 H 94.8884 2.53381 -3.00934 0
M  V30 969 H 96.9034 3.7792 -3.21545 0
M  V30 970 N 96.0765 1.50051 0.48192 0
M  V30 971 C 97.3045 1.64237 1.25832 0
M  V30 972 C 97.7195 0.321336 1.86045 0
M  V30 973 O 97.0765 -0.695478 1.68729 0
M  V30 974 C 97.1275 2.72548 2.37487 0
M  V30 975 O 96.8485 3.99529 1.79745 0
M  V30 976 C 98.3495 2.9761 3.28547 0
M  V30 977 H 95.5695 0.55237 0.380957 0
M  V30 978 H 98.1135 1.96207 0.576467 0
M  V30 979 H 96.2685 2.43303 3.01467 0
M  V30 980 H 96.6825 4.59342 2.5319 0
M  V30 981 H 98.1565 3.77084 4.03127 0
M  V30 982 H 98.6335 2.0826 3.86684 0
M  V30 983 H 99.2395 3.28345 2.70314 0
M  V30 984 N 97.5546 -0.734337 1.39446 0
M  V30 985 C 98.8016 -1.49391 1.36706 0
M  V30 986 C 99.1296 -1.94465 -0.0367813 0
M  V30 987 O 98.3846 -1.67154 -1.01774 0
M  V30 988 C 98.6836 -2.74711 2.28623 0
M  V30 989 C 98.3496 -2.48501 3.76242 0
M  V30 990 C 97.0116 -2.41062 4.16464 0
M  V30 991 C 99.3636 -2.26098 4.69606 0
M  V30 992 C 96.6916 -2.09262 5.48112 0
M  V30 993 C 99.0436 -1.95814 6.01531 0
M  V30 994 C 97.7076 -1.86845 6.40816 0
M  V30 995 H 96.9776 -0.546661 0.500243 0
M  V30 996 H 99.6246 -0.842788 1.71957 0
M  V30 997 H 97.9296 -3.44569 1.86492 0
M  V30 998 H 99.6266 -3.32741 2.23796 0
M  V30 999 H 96.2166 -2.55169 3.44364 0
M  V30 1000 H 100.401 -2.30812 4.39363 0
M  V30 1001 H 95.6566 -2.00841 5.77471 0
M  V30 1002 H 99.8306 -1.77488 6.73403 0
M  V30 1003 H 97.4576 -1.6197 7.42745 0
M  V30 1004 N 99.0327 -1.24633 -0.964593 0
M  V30 1005 C 100.279 -1.08949 -1.71049 0
M  V30 1006 C 100.612 0.370302 -1.90637 0
M  V30 1007 O 99.8867 1.27349 -1.47011 0
M  V30 1008 C 100.17 -1.83329 -3.0994 0
M  V30 1009 C 100.023 -3.37077 -2.97824 0
M  V30 1010 C 101.342 -1.60846 -4.09654 0
M  V30 1011 H 98.4607 -0.397178 -0.620821 0
M  V30 1012 H 101.103 -1.5334 -1.12191 0
M  V30 1013 H 99.2527 -1.45597 -3.60186 0
M  V30 1014 H 100.925 -3.84425 -2.5498 0
M  V30 1015 H 99.1677 -3.65298 -2.33965 0
M  V30 1016 H 99.8387 -3.84324 -3.96231 0
M  V30 1017 H 102.315 -1.93674 -3.68279 0
M  V30 1018 H 101.191 -2.1534 -5.04896 0
M  V30 1019 H 101.452 -0.547434 -4.38698 0
M  V30 1020 N 100.511 1.16574 -1.06058 0
M  V30 1021 C 101.441 2.23057 -0.690488 0
M  V30 1022 C 102.422 1.67141 0.315901 0
M  V30 1023 O 103.607 1.93253 0.191556 0
M  V30 1024 C 100.737 3.47222 -0.073625 0
M  V30 1025 C 99.6908 4.16016 -1.00573 0
M  V30 1026 C 99.0168 5.34104 -0.252289 0
M  V30 1027 C 100.317 4.67264 -2.33371 0
M  V30 1028 H 102.011 2.54271 -1.58072 0
M  V30 1029 H 99.5568 1.22218 -0.76149 0
M  V30 1030 H 101.51 4.20939 0.19714 0
M  V30 1031 H 100.234 3.15302 0.85161 0
M  V30 1032 H 98.8928 3.44223 -1.2612 0
M  V30 1033 H 98.5408 4.98437 0.675988 0
M  V30 1034 H 98.2408 5.81072 -0.873455 0
M  V30 1035 H 99.7648 6.10599 0.0109857 0
M  V30 1036 H 101.179 5.32573 -2.12223 0
M  V30 1037 H 99.5758 5.24843 -2.90963 0
M  V30 1038 H 100.646 3.83602 -2.96611 0
M  V30 1039 N 101.989 0.842826 1.3317 0
M  V30 1040 C 102.899 0.281444 2.32906 0
M  V30 1041 C 103.915 -0.594587 1.63526 0
M  V30 1042 O 105.091 -0.49777 1.95152 0
M  V30 1043 C 102.156 -0.530929 3.42611 0
M  V30 1044 C 101.217 0.369843 4.27704 0
M  V30 1045 C 100.45 -0.403853 5.3217 0
M  V30 1046 O 100.673 -1.63513 5.46461 0
M  V30 1047 O 99.6069 0.224199 6.01482 0
M  V30 1048 H 103.433 1.10744 2.82789 0
M  V30 1049 H 101.018 0.60545 1.36582 0
M  V30 1050 H 102.9 -0.992437 4.09547 0
M  V30 1051 H 101.575 -1.33392 2.94938 0
M  V30 1052 H 100.482 0.879275 3.6362 0
M  V30 1053 H 101.815 1.13771 4.78871 0
M  V30 1054 N 103.467 -1.45747 0.599634 0
M  V30 1055 C 104.399 -2.28628 -0.161879 0
M  V30 1056 C 105.412 -1.39494 -0.839367 0
M  V30 1057 O 106.601 -1.63941 -0.706089 0
M  V30 1058 C 103.701 -3.15014 -1.24976 0
M  V30 1059 C 102.874 -4.32378 -0.660935 0
M  V30 1060 C 101.933 -5.00033 -1.63869 0
M  V30 1061 O 100.959 -5.57085 -1.1681 0
M  V30 1062 N 102.161 -4.98589 -2.97303 0
M  V30 1063 H 104.926 -2.94624 0.549265 0
M  V30 1064 H 102.487 -1.55847 0.438565 0
M  V30 1065 H 104.479 -3.5714 -1.9035 0
M  V30 1066 H 103.049 -2.5098 -1.86354 0
M  V30 1067 H 102.269 -3.9383 0.170688 0
M  V30 1068 H 103.557 -5.08197 -0.247619 0
M  V30 1069 H 102.955 -4.53514 -3.38145 0
M  V30 1070 H 101.512 -5.44603 -3.58121 0
M  V30 1071 N 104.945 -0.338344 -1.53925 0
M  V30 1072 C 106.17 0.263987 -2.05713 0
M  V30 1073 C 106.595 1.43847 -1.21201 0
M  V30 1074 O 105.953 1.79904 -0.224535 0
M  V30 1075 C 106.001 0.662 -3.54471 0
M  V30 1076 O 105.105 1.76265 -3.72833 0
M  V30 1077 H 104.446 0.0448722 -0.662482 0
M  V30 1078 H 106.976 -0.491048 -1.9862 0
M  V30 1079 H 106.986 0.940594 -3.9701 0
M  V30 1080 H 105.661 -0.196937 -4.15433 0
M  V30 1081 H 104.238 1.48173 -3.42198 0
M  V30 1082 N 106.423 1.57458 -0.0668435 0
M  V30 1083 C 107.353 2.15468 0.899764 0
M  V30 1084 C 108.334 1.08042 1.31381 0
M  V30 1085 O 109.519 1.36054 1.38574 0
M  V30 1086 C 106.649 2.71232 2.16911 0
M  V30 1087 C 105.603 3.83781 1.89463 0
M  V30 1088 C 104.929 4.26127 3.22986 0
M  V30 1089 C 106.229 5.08238 1.20381 0
M  V30 1090 H 107.923 2.96488 0.416529 0
M  V30 1091 H 105.469 1.4262 0.198908 0
M  V30 1092 H 107.422 3.10458 2.84945 0
M  V30 1093 H 106.146 1.87426 2.67468 0
M  V30 1094 H 104.805 3.45051 1.23836 0
M  V30 1095 H 104.453 3.39249 3.71374 0
M  V30 1096 H 104.153 5.01993 3.05413 0
M  V30 1097 H 105.677 4.67966 3.92225 0
M  V30 1098 H 107.091 5.44811 1.78475 0
M  V30 1099 H 105.488 5.89349 1.13083 0
M  V30 1100 H 106.558 4.84558 0.182153 0
M  V30 1101 N 107.901 -0.206675 1.56239 0
M  V30 1102 C 109.126 -0.949474 1.8439 0
M  V30 1103 C 109.551 -1.76549 0.649016 0
M  V30 1104 O 108.909 -1.76782 -0.402231 0
M  V30 1105 C 108.957 -1.83078 3.10668 0
M  V30 1106 O 108.061 -2.9281 2.90407 0
M  V30 1107 H 107.402 -0.268033 0.607499 0
M  V30 1108 H 109.932 -0.215488 2.03462 0
M  V30 1109 H 109.942 -2.2377 3.41161 0
M  V30 1110 H 108.617 -1.23112 3.97261 0
M  V30 1111 H 107.194 -2.55956 2.71184 0
M  V30 1112 N 109.379 -1.50304 -0.473955 0
M  V30 1113 C 110.625 -1.61389 -1.22806 0
M  V30 1114 C 110.958 -0.311955 -1.91678 0
M  V30 1115 O 110.233 0.686384 -1.81986 0
M  V30 1116 C 110.516 -2.79219 -2.27396 0
M  V30 1117 C 110.369 -4.19286 -1.62848 0
M  V30 1118 C 111.688 -2.92614 -3.28732 0
M  V30 1119 H 108.807 -0.587399 -0.445119 0
M  V30 1120 H 111.449 -1.82681 -0.522265 0
M  V30 1121 H 109.599 -2.61195 -2.87592 0
M  V30 1122 H 111.271 -4.48892 -1.06271 0
M  V30 1123 H 109.514 -4.23677 -0.931693 0
M  V30 1124 H 110.185 -4.97655 -2.38838 0
M  V30 1125 H 112.661 -3.09105 -2.78556 0
M  V30 1126 H 111.537 -3.76688 -3.99246 0
M  V30 1127 H 111.798 -2.03107 -3.92683 0
M  V30 1128 N 110.857 0.726932 -1.39834 0
M  V30 1129 C 112.273 1.03354 -1.21615 0
M  V30 1130 C 112.473 2.01327 -0.08338 0
M  V30 1131 O 111.529 2.46158 0.56238 0
M  V30 1132 C 112.842 1.58811 -2.55342 0
M  V30 1133 C 114.39 1.70851 -2.62257 0
M  V30 1134 C 114.865 2.29716 -3.96225 0
M  V30 1135 N 116.356 2.37116 -3.97907 0
M  V30 1136 C 117.091 2.83619 -4.98345 0
M  V30 1137 N 116.587 3.29958 -6.09179 0
M  V30 1138 N 118.38 2.82901 -4.8572 0
M  V30 1139 H 110.531 0.0773069 -2.12259 0
M  V30 1140 H 112.794 0.0969102 -0.943034 0
M  V30 1141 H 112.5 0.942855 -3.38826 0
M  V30 1142 H 112.374 2.57502 -2.75632 0
M  V30 1143 H 114.761 2.34497 -1.79152 0
M  V30 1144 H 114.842 0.707913 -2.45809 0
M  V30 1145 H 114.486 1.66696 -4.79765 0
M  V30 1146 H 114.416 3.30469 -4.09997 0
M  V30 1147 H 116.907 2.04374 -3.17868 0
M  V30 1148 H 117.22 3.63976 -6.8172 0
M  V30 1149 H 115.565 3.27946 -6.12761 0
M  V30 1150 H 118.756 2.46027 -3.98231 0
M  V30 1151 H 118.929 3.18827 -5.6414 0
M  V30 1152 N 112.336 1.25143 0.95797 0
M  V30 1153 C 113.299 1.05321 2.03569 0
M  V30 1154 C 114.299 0.007152 1.60798 0
M  V30 1155 O 115.489 0.24903 1.72411 0
M  V30 1156 C 112.621 0.598394 3.35607 0
M  V30 1157 H 113.814 2.00986 2.22586 0
M  V30 1158 H 111.367 1.07502 1.13459 0
M  V30 1159 H 112.102 -0.361014 3.22284 0
M  V30 1160 H 111.887 1.35351 3.67998 0
M  V30 1161 H 113.377 0.48104 4.1482 0
M  V30 1162 N 113.814 -1.1601 1.06675 0
M  V30 1163 C 114.744 -2.22688 0.702307 0
M  V30 1164 C 115.725 -1.67306 -0.307032 0
M  V30 1165 O 116.91 -1.93352 -0.181305 0
M  V30 1166 C 114.04 -3.47178 0.092038 0
M  V30 1167 C 112.994 -4.15477 1.02777 0
M  V30 1168 C 112.32 -5.33963 0.28061 0
M  V30 1169 C 113.62 -4.66019 2.35846 0
M  V30 1170 H 115.314 -2.53429 1.59419 0
M  V30 1171 H 112.86 -1.21813 0.767961 0
M  V30 1172 H 114.813 -4.21037 -0.174814 0
M  V30 1173 H 113.537 -3.15749 -0.834877 0
M  V30 1174 H 112.196 -3.43549 1.27944 0
M  V30 1175 H 111.844 -4.98788 -0.649545 0
M  V30 1176 H 111.544 -5.806 0.904258 0
M  V30 1177 H 113.068 -6.10596 0.021396 0
M  V30 1178 H 114.482 -5.3144 2.15045 0
M  V30 1179 H 112.879 -5.23293 2.93743 0
M  V30 1180 H 113.949 -3.82023 2.98641 0
M  V30 1181 N 115.292 -0.849877 -1.32721 0
M  V30 1182 C 116.224 -0.248332 -2.27851 0
M  V30 1183 C 117.237 0.577218 -1.52224 0
M  V30 1184 O 118.426 0.402489 -1.73903 0
M  V30 1185 C 115.526 0.668107 -3.32249 0
M  V30 1186 C 114.699 -0.120534 -4.37234 0
M  V30 1187 C 113.758 0.720932 -5.21238 0
M  V30 1188 O 112.784 0.156166 -5.68986 0
M  V30 1189 N 113.986 2.03647 -5.43607 0
M  V30 1190 H 116.751 -1.06575 -2.80111 0
M  V30 1191 H 114.312 -0.709395 -1.45531 0
M  V30 1192 H 116.304 1.23627 -3.85355 0
M  V30 1193 H 114.874 1.38621 -2.80184 0
M  V30 1194 H 114.094 -0.870108 -3.84477 0
M  V30 1195 H 115.382 -0.662406 -5.0447 0
M  V30 1196 H 114.78 2.51871 -5.06535 0
M  V30 1197 H 113.337 2.55287 -5.99727 0
M  V30 1198 N 116.77 1.45427 -0.607355 0
M  V30 1199 C 117.68 2.34325 0.113463 0
M  V30 1200 C 118.696 1.51226 0.860617 0
M  V30 1201 O 119.872 1.84029 0.818255 0
M  V30 1202 C 116.937 3.28839 1.09844 0
M  V30 1203 C 115.998 4.27844 0.353271 0
M  V30 1204 C 115.231 5.17842 1.29133 0
M  V30 1205 O 115.454 5.11264 2.52913 0
M  V30 1206 O 114.388 5.96713 0.788523 0
M  V30 1207 H 118.214 2.97364 -0.617094 0
M  V30 1208 H 115.799 1.44807 -0.367619 0
M  V30 1209 H 117.681 3.8708 1.66575 0
M  V30 1210 H 116.356 2.68365 1.81003 0
M  V30 1211 H 115.263 3.7322 -0.256494 0
M  V30 1212 H 116.596 4.91173 -0.317822 0
M  V30 1213 N 118.248 0.346503 1.53744 0
M  V30 1214 C 119.181 -0.552023 2.21423 0
M  V30 1215 C 120.159 -1.09798 1.19929 0
M  V30 1216 O 121.343 -1.1577 1.4876 0
M  V30 1217 C 118.47 -1.75972 2.89398 0
M  V30 1218 C 117.516 -1.34295 4.04805 0
M  V30 1219 S 118.349 -0.360263 5.34287 0
M  V30 1220 C 119.505 -1.57473 6.05767 0
M  V30 1221 H 119.738 0.0228119 2.97291 0
M  V30 1222 H 117.271 0.130579 1.53847 0
M  V30 1223 H 119.229 -2.45256 3.2918 0
M  V30 1224 H 117.89 -2.30578 2.1329 0
M  V30 1225 H 117.083 -2.24349 4.51313 0
M  V30 1226 H 116.685 -0.729555 3.66815 0
M  V30 1227 H 118.977 -2.50875 6.29339 0
M  V30 1228 H 119.92 -1.15138 6.98676 0
M  V30 1229 H 120.328 -1.77212 5.35963 0
M  V30 1230 N 119.726 -1.57421 0.075193 0
M  V30 1231 C 120.656 -2.15942 -0.888324 0
M  V30 1232 C 121.637 -1.08737 -1.30806 0
M  V30 1233 O 122.822 -1.36787 -1.37851 0
M  V30 1234 C 119.952 -2.72379 -2.1547 0
M  V30 1235 C 118.906 -3.8478 -1.87425 0
M  V30 1236 C 118.232 -4.27834 -3.20721 0
M  V30 1237 C 119.532 -5.08869 -1.17684 0
M  V30 1238 H 121.226 -2.96705 -0.400799 0
M  V30 1239 H 118.772 -1.42723 -0.191342 0
M  V30 1240 H 120.725 -3.11965 -2.83295 0
M  V30 1241 H 119.449 -1.88841 -2.6647 0
M  V30 1242 H 118.108 -3.45703 -1.22004 0
M  V30 1243 H 117.756 -3.41214 -3.6957 0
M  V30 1244 H 117.456 -5.03605 -3.02746 0
M  V30 1245 H 118.98 -4.70039 -3.89738 0
M  V30 1246 H 120.394 -5.4575 -1.75584 0
M  V30 1247 H 118.791 -5.8994 -1.09956 0
M  V30 1248 H 119.861 -4.84648 -0.156453 0
M  V30 1249 N 121.204 0.198386 -1.56346 0
M  V30 1250 C 122.167 1.22952 -1.93431 0
M  V30 1251 C 123.167 1.38611 -0.815092 0
M  V30 1252 O 124.357 1.36479 -1.08255 0
M  V30 1253 C 121.489 2.59946 -2.20546 0
M  V30 1254 H 122.682 0.912626 -2.85677 0
M  V30 1255 H 120.235 0.43977 -1.49986 0
M  V30 1256 H 120.97 2.96696 -1.30927 0
M  V30 1257 H 120.755 2.49953 -3.02102 0
M  V30 1258 H 122.245 3.3431 -2.50253 0
M  V30 1259 N 122.682 1.50554 0.465978 0
M  V30 1260 C 123.63 1.70324 1.58406 0
M  V30 1261 C 124.624 0.569139 1.59553 0
M  V30 1262 O 125.83 0.749776 1.63641 0
M  V30 1263 H 122.205 0.537688 0.525734 0
M  V30 1264 H 124.176 2.64104 1.38894 0
M  V30 1265 C 122.925 1.81928 2.96307 0
M  V30 1266 H 122.248 2.68586 2.96144 0
M  V30 1267 H 123.688 1.99784 3.73982 0
M  V30 1268 C 122.147 0.572095 3.32007 0
M  V30 1269 O 122.677 -0.286416 4.00678 0
M  V30 1270 N 120.883 0.424606 2.87481 0
M  V30 1271 H 120.43 1.12427 2.31771 0
M  V30 1272 H 120.388 -0.408697 3.11732 0
M  V30 1273 N 124.16 -0.719506 1.40217 0
M  V30 1274 C 125.388 -1.50864 1.41589 0
M  V30 1275 C 125.803 -1.88794 0.0145275 0
M  V30 1276 O 125.16 -1.55174 -0.960594 0
M  V30 1277 C 125.211 -2.78646 2.30302 0
M  V30 1278 O 124.932 -2.42321 3.64983 0
M  V30 1279 C 126.433 -3.72569 2.40224 0
M  V30 1280 H 123.653 -0.465709 0.48307 0
M  V30 1281 H 126.197 -0.88785 1.84221 0
M  V30 1282 H 124.352 -3.37019 1.91042 0
M  V30 1283 H 124.766 -3.24514 4.12057 0
M  V30 1284 H 126.24 -4.5908 3.06512 0
M  V30 1285 H 126.717 -4.15403 1.42608 0
M  V30 1286 H 127.323 -3.20109 2.80019 0
M  V30 1287 N 125.638 -1.25649 -0.95132 0
M  V30 1288 C 126.884 -1.10757 -1.69884 0
M  V30 1289 C 127.217 0.350061 -1.91019 0
M  V30 1290 O 126.492 1.25783 -1.48354 0
M  V30 1291 C 126.775 -1.86606 -3.07978 0
M  V30 1292 C 126.628 -3.40217 -2.94232 0
M  V30 1293 C 127.947 -1.65182 -4.07925 0
M  V30 1294 H 125.066 -0.40374 -0.616574 0
M  V30 1295 H 127.708 -1.54521 -1.10558 0
M  V30 1296 H 125.858 -1.49409 -3.58621 0
M  V30 1297 H 127.53 -3.87108 -2.50889 0
M  V30 1298 H 125.773 -3.67759 -2.30078 0
M  V30 1299 H 126.444 -3.88505 -3.92133 0
M  V30 1300 H 128.92 -1.9757 -3.66204 0
M  V30 1301 H 127.796 -2.20683 -5.02583 0
M  V30 1302 H 128.057 -0.593933 -4.38092 0
M  V30 1303 N 127.117 1.15442 -1.07289 0
M  V30 1304 C 128.027 2.23786 -0.704057 0
M  V30 1305 C 129.043 1.7166 0.284413 0
M  V30 1306 O 130.219 2.00972 0.131205 0
M  V30 1307 C 127.284 3.46535 -0.106792 0
M  V30 1308 C 126.345 4.13654 -1.14842 0
M  V30 1309 C 125.578 5.30544 -0.57956 0
M  V30 1310 O 125.801 5.67187 0.604585 0
M  V30 1311 O 124.735 5.87154 -1.32414 0
M  V30 1312 H 128.561 2.57664 -1.60757 0
M  V30 1313 H 126.146 1.23152 -0.845803 0
M  V30 1314 H 128.028 4.20804 0.224048 0
M  V30 1315 H 126.703 3.14407 0.770049 0
M  V30 1316 H 125.61 3.4131 -1.5316 0
M  V30 1317 H 126.943 4.49861 -1.99714 0
M  V30 1318 N 128.595 0.856903 1.32268 0
M  V30 1319 C 129.542 0.301172 2.28827 0
M  V30 1320 C 130.512 -0.593104 1.5515 0
M  V30 1321 O 131.697 -0.527537 1.83362 0
M  V30 1322 C 128.837 -0.502523 3.41422 0
M  V30 1323 C 127.95 0.417797 4.29975 0
M  V30 1324 C 127.085 -0.398749 5.29701 0
M  V30 1325 C 126.124 0.518827 6.09897 0
M  V30 1326 N 125.261 -0.260674 7.01616 0
M  V30 1327 H 130.101 1.12983 2.75751 0
M  V30 1328 H 127.638 0.568582 1.35667 0
M  V30 1329 H 129.596 -0.984141 4.05426 0
M  V30 1330 H 128.226 -1.29599 2.95642 0
M  V30 1331 H 127.278 1.01781 3.66531 0
M  V30 1332 H 128.59 1.12191 4.86019 0
M  V30 1333 H 127.744 -0.943435 5.9932 0
M  V30 1334 H 126.483 -1.13622 4.7428 0
M  V30 1335 H 125.488 1.07538 5.39181 0
M  V30 1336 H 126.713 1.25495 6.67404 0
M  V30 1337 H 124.659 -0.981198 6.4862 0
M  V30 1338 H 124.576 0.384364 7.55022 0
M  V30 1339 H 125.844 -0.787014 7.75517 0
M  V30 1340 N 130.073 -1.45103 0.615059 0
M  V30 1341 C 131.298 -2.07064 0.117988 0
M  V30 1342 C 131.723 -1.4554 -1.19163 0
M  V30 1343 O 131.081 -0.550855 -1.72729 0
M  V30 1344 C 131.129 -3.606 -0.000288387 0
M  V30 1345 O 130.233 -3.98847 -1.04856 0
M  V30 1346 H 129.574 -0.659467 0.0774581 0
M  V30 1347 H 132.104 -1.86236 0.847186 0
M  V30 1348 H 132.114 -4.07529 -0.196091 0
M  V30 1349 H 130.789 -4.04765 0.955932 0
M  V30 1350 H 129.366 -3.63577 -0.828619 0
M  V30 1351 N 131.551 -0.354651 -1.53558 0
M  V30 1352 C 132.461 0.50515 -2.29097 0
M  V30 1353 C 133.477 1.10223 -1.34636 0
M  V30 1354 O 134.653 1.11553 -1.67684 0
M  V30 1355 C 131.718 1.63479 -3.05738 0
M  V30 1356 C 130.779 1.06636 -4.15845 0
M  V30 1357 C 130.012 2.14217 -4.88822 0
M  V30 1358 O 130.235 3.35137 -4.61562 0
M  V30 1359 O 129.169 1.77887 -5.75013 0
M  V30 1360 H 132.995 -0.109237 -3.03503 0
M  V30 1361 H 130.58 -0.119357 -1.48922 0
M  V30 1362 H 132.462 2.2918 -3.5363 0
M  V30 1363 H 131.137 2.23478 -2.34178 0
M  V30 1364 H 130.044 0.373565 -3.7223 0
M  V30 1365 H 131.377 0.511081 -4.89539 0
M  V30 1366 N 133.029 1.57378 -0.0835403 0
M  V30 1367 C 134.277 1.93547 0.581718 0
M  V30 1368 C 134.598 0.96524 1.69435 0
M  V30 1369 O 133.868 0.0153369 1.95894 0
M  V30 1370 H 132.448 0.714521 0.217874 0
M  V30 1371 H 135.11 1.94366 -0.144158 0
M  V30 1372 H 134.206 2.95665 0.999423 0
M  V30 1373 N 134.507 -0.190092 1.56449 0
M  V30 1374 C 135.439 -1.25973 1.91477 0
M  V30 1375 C 136.452 -1.41452 0.805931 0
M  V30 1376 O 137.641 -1.41789 1.08435 0
M  V30 1377 C 134.741 -2.63117 2.13594 0
M  V30 1378 C 133.914 -2.69182 3.4476 0
M  V30 1379 C 132.973 -3.87557 3.5593 0
M  V30 1380 O 131.999 -3.74427 4.28711 0
M  V30 1381 N 133.201 -5.03224 2.89388 0
M  V30 1382 H 135.966 -0.962394 2.83828 0
M  V30 1383 H 133.527 -0.379981 1.57378 0
M  V30 1384 H 135.519 -3.40742 2.1835 0
M  V30 1385 H 134.089 -2.85319 1.27719 0
M  V30 1386 H 133.309 -1.77793 3.51828 0
M  V30 1387 H 134.597 -2.70229 4.31107 0
M  V30 1388 H 133.995 -5.16791 2.30094 0
M  V30 1389 H 132.552 -5.78778 2.99764 0
M  V30 1390 N 135.985 -1.50799 -0.457987 0
M  V30 1391 C 137.231 -1.62683 -1.21088 0
M  V30 1392 C 137.564 -0.332268 -1.91336 0
M  V30 1393 O 136.839 0.667043 -1.82704 0
M  V30 1394 C 137.122 -2.81615 -2.24422 0
M  V30 1395 C 136.975 -4.20989 -1.58392 0
M  V30 1396 C 138.294 -2.96085 -3.2561 0
M  V30 1397 H 135.413 -0.592087 -0.438864 0
M  V30 1398 H 138.055 -1.83225 -0.50286 0
M  V30 1399 H 136.205 -2.64231 -2.84806 0
M  V30 1400 H 137.877 -4.49994 -1.01504 0
M  V30 1401 H 136.12 -4.24641 -0.886704 0
M  V30 1402 H 136.791 -5.0016 -2.33547 0
M  V30 1403 H 139.267 -3.12042 -2.75262 0
M  V30 1404 H 138.143 -3.80902 -3.95228 0
M  V30 1405 H 138.404 -2.0726 -3.90507 0
M  V30 1406 N 137.463 0.71206 -1.40597 0
M  V30 1407 C 138.74 1.46536 -1.29563 0
M  V30 1408 C 139.12 2.10931 0.0844217 0
M  V30 1409 O 138.468 2.00418 1.0975 0
M  V30 1410 C 138.678 2.49821 -2.43701 0
M  V30 1411 C 140.026 3.15551 -2.841 0
M  V30 1412 O 141.05 2.60142 -2.4332 0
M  V30 1413 O 139.909 4.15867 -3.54566 0
M  V30 1414 H 137.003 0.651801 -0.509004 0
M  V30 1415 H 139.549 0.743935 -1.52524 0
M  V30 1416 H 138.321 2.00778 -3.35863 0
M  V30 1417 H 137.944 3.29495 -2.22528 0
M  V30 1418 N 138.941 1.26152 0.944643 0
M  V30 1419 C 140.187 1.11657 1.69294 0
M  V30 1420 C 140.52 -0.339926 1.91202 0
M  V30 1421 O 139.795 -1.24994 1.49019 0
M  V30 1422 C 140.078 1.88236 3.06984 0
M  V30 1423 C 139.931 3.41772 2.92424 0
M  V30 1424 C 141.25 1.67343 4.07043 0
M  V30 1425 H 138.369 0.407004 0.614424 0
M  V30 1426 H 141.011 1.55106 1.09737 0
M  V30 1427 H 139.161 1.51308 3.57824 0
M  V30 1428 H 140.833 3.88433 2.48832 0
M  V30 1429 H 139.076 3.68974 2.28124 0
M  V30 1430 H 139.747 3.90579 3.90067 0
M  V30 1431 H 142.223 1.99509 3.65151 0
M  V30 1432 H 141.099 2.23346 5.01406 0
M  V30 1433 H 141.36 0.617158 4.37771 0
M  V30 1434 N 140.419 -1.14872 1.07899 0
M  V30 1435 C 141.329 -2.2341 0.715915 0
M  V30 1436 C 142.345 -1.71808 -0.275306 0
M  V30 1437 O 143.521 -2.01039 -0.120545 0
M  V30 1438 C 140.586 -3.46474 0.125168 0
M  V30 1439 C 139.647 -4.13039 1.17034 0
M  V30 1440 C 138.88 -5.30229 0.607688 0
M  V30 1441 O 139.103 -5.675 -0.574497 0
M  V30 1442 O 138.037 -5.86444 1.35526 0
M  V30 1443 H 141.863 -2.56808 1.62121 0
M  V30 1444 H 139.448 -1.22702 0.852322 0
M  V30 1445 H 141.33 -4.20917 -0.201729 0
M  V30 1446 H 140.005 -3.14811 -0.753364 0
M  V30 1447 H 138.912 -3.40493 1.54968 0
M  V30 1448 H 140.245 -4.48796 2.02097 0
M  V30 1449 N 141.898 -0.863906 -1.31812 0
M  V30 1450 C 142.845 -0.313303 -2.28664 0
M  V30 1451 C 143.815 0.584868 -1.55462 0
M  V30 1452 O 145 0.517805 -1.83639 0
M  V30 1453 C 142.14 0.48441 -3.41683 0
M  V30 1454 C 141.253 -0.440594 -4.29747 0
M  V30 1455 C 140.388 0.370652 -5.29905 0
M  V30 1456 C 139.427 -0.551164 -6.09613 0
M  V30 1457 N 138.564 0.223462 -7.01744 0
M  V30 1458 H 143.404 -1.14444 -2.75148 0
M  V30 1459 H 140.941 -0.575769 -1.35364 0
M  V30 1460 H 142.899 0.962627 -4.05943 0
M  V30 1461 H 141.529 1.28029 -2.96325 0
M  V30 1462 H 140.581 -1.03724 -3.65986 0
M  V30 1463 H 141.893 -1.14767 -4.85417 0
M  V30 1464 H 141.047 0.911638 -5.99812 0
M  V30 1465 H 139.786 1.11105 -4.74876 0
M  V30 1466 H 138.791 -1.10396 -5.38603 0
M  V30 1467 H 140.016 -1.29032 -6.66729 0
M  V30 1468 H 137.962 0.946787 -6.49132 0
M  V30 1469 H 137.879 -0.424399 -7.54808 0
M  V30 1470 H 139.147 0.745876 -7.75923 0
M  V30 1471 N 143.376 1.44774 -0.622745 0
M  V30 1472 C 144.622 2.02968 -0.13257 0
M  V30 1473 C 144.977 1.48047 1.22881 0
M  V30 1474 O 144.27 0.651625 1.80179 0
M  V30 1475 C 144.464 3.57364 -0.0508323 0
M  V30 1476 C 144.293 4.27262 -1.40275 0
M  V30 1477 C 143.063 4.64577 -1.98737 0
M  V30 1478 C 145.261 4.58248 -2.3348 0
M  V30 1479 N 143.243 5.19404 -3.27251 0
M  V30 1480 C 144.614 5.14069 -3.46603 0
M  V30 1481 C 146.669 4.40195 -2.32664 0
M  V30 1482 C 145.372 5.53738 -4.59093 0
M  V30 1483 C 147.398 4.80907 -3.44213 0
M  V30 1484 C 146.76 5.36834 -4.56058 0
M  V30 1485 H 142.859 0.776541 -0.0922354 0
M  V30 1486 H 145.443 1.76385 -0.82441 0
M  V30 1487 H 143.614 3.83576 0.610265 0
M  V30 1488 H 145.346 4.02219 0.447397 0
M  V30 1489 H 142.101 4.48622 -1.51774 0
M  V30 1490 H 142.525 5.51301 -3.92933 0
M  V30 1491 H 147.167 3.96257 -1.47446 0
M  V30 1492 H 144.885 5.96635 -5.45025 0
M  V30 1493 H 148.471 4.68659 -3.44747 0
M  V30 1494 H 147.351 5.67755 -5.40947 0
M  V30 1495 N 144.854 0.36279 1.53368 0
M  V30 1496 C 145.801 -0.485008 2.25646 0
M  V30 1497 C 146.771 -1.07982 1.2621 0
M  V30 1498 O 147.956 -1.11284 1.54986 0
M  V30 1499 C 145.096 -1.62023 3.04701 0
M  V30 1500 C 144.209 -1.05086 4.19024 0
M  V30 1501 C 143.344 -2.15496 4.85525 0
M  V30 1502 C 142.383 -1.5601 5.91884 0
M  V30 1503 N 141.52 -2.60241 6.52088 0
M  V30 1504 H 146.36 0.137864 2.97681 0
M  V30 1505 H 143.897 0.0798061 1.46883 0
M  V30 1506 H 145.855 -2.28887 3.48807 0
M  V30 1507 H 144.485 -2.2138 2.34927 0
M  V30 1508 H 143.537 -0.27259 3.79422 0
M  V30 1509 H 144.849 -0.575926 4.95464 0
M  V30 1510 H 144.003 -2.90186 5.32801 0
M  V30 1511 H 142.742 -2.66341 4.08551 0
M  V30 1512 H 141.747 -0.798338 5.43973 0
M  V30 1513 H 142.972 -1.05994 6.70777 0
M  V30 1514 H 140.918 -3.10304 5.77968 0
M  V30 1515 H 140.835 -2.17426 7.24059 0
M  V30 1516 H 142.103 -3.34641 7.04014 0
M  V30 1517 N 146.332 -1.57332 0.0918853 0
M  V30 1518 C 147.579 -1.94236 -0.572577 0
M  V30 1519 C 147.907 -0.973398 -1.6839 0
M  V30 1520 O 147.162 0.00756912 -1.95699 0
M  V30 1521 C 147.461 -3.37689 -1.17051 0
M  V30 1522 C 147.127 -4.50527 -0.183304 0
M  V30 1523 C 145.789 -4.81119 0.0882276 0
M  V30 1524 C 148.141 -5.18883 0.49095 0
M  V30 1525 C 145.469 -5.77395 1.04076 0
M  V30 1526 C 147.821 -6.1618 1.43193 0
M  V30 1527 C 146.485 -6.45179 1.71173 0
M  V30 1528 H 145.755 -0.710762 -0.209521 0
M  V30 1529 H 148.402 -1.9077 0.167036 0
M  V30 1530 H 146.707 -3.37718 -1.9863 0
M  V30 1531 H 148.404 -3.63543 -1.69227 0
M  V30 1532 H 144.994 -4.26681 -0.405124 0
M  V30 1533 H 149.178 -4.95427 0.294312 0
M  V30 1534 H 144.434 -5.98179 1.26457 0
M  V30 1535 H 148.608 -6.68243 1.96023 0
M  V30 1536 H 146.235 -7.1959 2.4514 0
M  V30 1537 N 147.81 0.181792 -1.56548 0
M  V30 1538 C 148.743 1.25366 -1.90679 0
M  V30 1539 C 149.721 1.43299 -0.768376 0
M  V30 1540 O 150.905 1.58475 -1.02068 0
M  V30 1541 C 148.032 2.61826 -2.1486 0
M  V30 1542 C 147.078 2.60688 -3.37556 0
M  V30 1543 S 147.911 2.10804 -4.92262 0
M  V30 1544 C 149.067 3.49062 -5.19525 0
M  V30 1545 H 149.3 0.962277 -2.81296 0
M  V30 1546 H 146.833 0.385892 -1.495 0
M  V30 1547 H 148.791 3.40371 -2.29473 0
M  V30 1548 H 147.452 2.88169 -1.24969 0
M  V30 1549 H 146.645 3.61058 -3.51643 0
M  V30 1550 H 146.247 1.90232 -3.22006 0
M  V30 1551 H 148.539 4.45003 -5.10861 0
M  V30 1552 H 149.482 3.39859 -6.2121 0
M  V30 1553 H 149.89 3.4459 -4.47122 0
M  V30 1554 N 149.288 1.51039 0.449983 0
M  V30 1555 C 150.221 1.66105 1.56474 0
M  V30 1556 C 151.199 0.508776 1.54435 0
M  V30 1557 O 152.383 0.731005 1.73749 0
M  V30 1558 C 149.51 1.66304 2.9506 0
M  V30 1559 C 148.556 2.87346 3.15174 0
M  V30 1560 S 149.389 4.4835 2.92818 0
M  V30 1561 C 150.545 4.51274 4.33708 0
M  V30 1562 H 150.778 2.60397 1.43459 0
M  V30 1563 H 148.311 1.40565 0.638805 0
M  V30 1564 H 150.269 1.67103 3.74949 0
M  V30 1565 H 148.93 0.732108 3.05449 0
M  V30 1566 H 148.123 2.83849 4.16468 0
M  V30 1567 H 147.725 2.84223 2.43091 0
M  V30 1568 H 150.017 4.26136 5.26701 0
M  V30 1569 H 150.96 5.53017 4.42242 0
M  V30 1570 H 151.368 3.80738 4.16772 0
M  V30 1571 N 150.766 -0.704594 1.40972 0
M  V30 1572 C 151.713 -1.81862 1.42109 0
M  V30 1573 C 152.683 -1.63781 0.276593 0
M  V30 1574 O 153.868 -1.84759 0.4763 0
M  V30 1575 C 151.008 -3.19669 1.30022 0
M  V30 1576 C 150.121 -3.49246 2.54267 0
M  V30 1577 C 149.256 -4.76618 2.3454 0
M  V30 1578 C 148.295 -4.99133 3.54306 0
M  V30 1579 N 147.432 -6.17726 3.33706 0
M  V30 1580 H 152.272 -1.80226 2.37324 0
M  V30 1581 H 149.809 -0.880238 1.17857 0
M  V30 1582 H 151.767 -3.99263 1.21018 0
M  V30 1583 H 150.397 -3.20506 0.384192 0
M  V30 1584 H 149.449 -2.64125 2.73756 0
M  V30 1585 H 150.761 -3.61788 3.43381 0
M  V30 1586 H 149.915 -5.64249 2.22952 0
M  V30 1587 H 148.654 -4.66305 1.42867 0
M  V30 1588 H 147.659 -4.09953 3.66359 0
M  V30 1589 H 148.884 -5.11311 4.4692 0
M  V30 1590 H 146.83 -6.08642 2.44725 0
M  V30 1591 H 146.747 -6.30995 4.16391 0
M  V30 1592 H 148.015 -7.08115 3.25873 0
M  V30 1593 N 152.244 -1.26651 -0.937939 0
M  V30 1594 C 153.472 -1.15173 -1.7188 0
M  V30 1595 C 153.887 0.292668 -1.86518 0
M  V30 1596 O 153.244 1.20014 -1.37488 0
M  V30 1597 C 153.295 -1.81925 -3.12387 0
M  V30 1598 O 153.016 -3.2072 -2.98446 0
M  V30 1599 C 154.517 -1.76442 -4.06673 0
M  V30 1600 H 151.737 -0.400911 -0.538063 0
M  V30 1601 H 154.281 -1.67332 -1.1756 0
M  V30 1602 H 152.436 -1.33696 -3.63599 0
M  V30 1603 H 152.85 -3.53802 -3.872 0
M  V30 1604 H 154.324 -2.27781 -5.02812 0
M  V30 1605 H 154.801 -0.731608 -4.33064 0
M  V30 1606 H 155.407 -2.24238 -3.61382 0
M  V30 1607 N 153.722 1.14298 -1.08507 0
M  V30 1608 C 154.685 2.17607 -0.719711 0
M  V30 1609 C 155.685 1.58907 0.245997 0
M  V30 1610 O 156.875 1.74181 0.0254081 0
M  V30 1611 C 154.007 3.40842 -0.0627695 0
M  V30 1612 H 155.2 2.51443 -1.63452 0
M  V30 1613 H 152.753 1.28963 -0.88307 0
M  V30 1614 H 153.488 3.12587 0.863716 0
M  V30 1615 H 153.273 3.84713 -0.757504 0
M  V30 1616 H 154.763 4.17221 0.177786 0
M  V30 1617 N 155.201 0.870884 1.31352 0
M  V30 1618 C 156.133 0.28455 2.27427 0
M  V30 1619 C 157.146 -0.552927 1.53123 0
M  V30 1620 O 158.335 -0.374771 1.74521 0
M  V30 1621 C 155.435 -0.615164 3.3327 0
M  V30 1622 C 154.608 0.190079 4.36987 0
M  V30 1623 C 153.667 -0.637917 5.22319 0
M  V30 1624 O 152.693 -0.065626 5.69162 0
M  V30 1625 N 153.895 -1.94973 5.46778 0
M  V30 1626 H 156.66 1.11017 2.7838 0
M  V30 1627 H 154.221 0.732458 1.44384 0
M  V30 1628 H 156.213 -1.1748 3.87273 0
M  V30 1629 H 154.783 -1.34146 2.82354 0
M  V30 1630 H 154.003 0.931165 3.83044 0
M  V30 1631 H 155.291 0.742579 5.03352 0
M  V30 1632 H 154.689 -2.4378 5.10478 0
M  V30 1633 H 153.246 -2.45713 6.03712 0
M  V30 1634 N 156.679 -1.44442 0.630414 0
M  V30 1635 C 157.927 -2.01653 0.134351 0
M  V30 1636 C 158.248 -1.49836 -1.24796 0
M  V30 1637 O 157.518 -0.701684 -1.82902 0
M  V30 1638 H 156.098 -0.74554 0.0466769 0
M  V30 1639 H 158.76 -1.76952 0.816955 0
M  V30 1640 H 157.856 -3.11935 0.101498 0
M  V30 1641 N 158.157 -0.370918 -1.53173 0
M  V30 1642 C 159.405 0.216673 -2.00935 0
M  V30 1643 C 159.726 1.48845 -1.25977 0
M  V30 1644 O 158.996 1.92286 -0.374551 0
M  V30 1645 H 157.576 0.0830565 -0.742368 0
M  V30 1646 H 160.238 -0.49838 -1.8842 0
M  V30 1647 H 159.334 0.439893 -3.08984 0
M  V30 1648 N 159.635 1.57281 -0.100228 0
M  V30 1649 C 160.883 1.94153 0.561157 0
M  V30 1650 C 161.204 0.983157 1.68401 0
M  V30 1651 O 160.474 0.0361132 1.95867 0
M  V30 1652 H 159.054 0.716791 0.210283 0
M  V30 1653 H 161.716 1.94202 -0.164765 0
M  V30 1654 H 160.812 2.96709 0.968008 0
M  V30 1655 N 161.113 -0.173488 1.56642 0
M  V30 1656 C 162.063 -1.21941 1.92651 0
M  V30 1657 C 163.047 -1.39912 0.794577 0
M  V30 1658 O 164.239 -1.41919 1.05773 0
M  V30 1659 C 161.368 -2.55935 2.28806 0
M  V30 1660 C 160.454 -2.41667 3.48508 0
M  V30 1661 N 160.845 -1.9711 4.65813 0
M  V30 1662 C 159.143 -2.72499 3.53072 0
M  V30 1663 C 159.844 -1.95253 5.47952 0
M  V30 1664 N 158.82 -2.37575 4.88937 0
M  V30 1665 H 162.622 -0.866581 2.80834 0
M  V30 1666 H 160.136 -0.381776 1.57849 0
M  V30 1667 H 162.133 -3.31511 2.52797 0
M  V30 1668 H 160.793 -2.92022 1.41961 0
M  V30 1669 H 161.804 -1.67481 4.90072 0
M  V30 1670 H 158.481 -3.12639 2.767 0
M  V30 1671 H 159.871 -1.6252 6.51948 0
M  V30 1672 N 162.591 -1.51276 -0.441967 0
M  V30 1673 C 164.007 -1.39349 -0.778083 0
M  V30 1674 C 164.207 -0.472212 -1.95889 0
M  V30 1675 O 163.263 0.0743551 -2.5239 0
M  V30 1676 C 164.576 -2.81292 -1.0628 0
M  V30 1677 C 166.124 -2.9041 -1.16751 0
M  V30 1678 C 166.599 -4.33251 -1.48519 0
M  V30 1679 N 168.09 -4.36336 -1.55453 0
M  V30 1680 C 168.825 -5.43885 -1.81596 0
M  V30 1681 N 168.321 -6.61601 -2.05562 0
M  V30 1682 N 170.114 -5.3136 -1.8334 0
M  V30 1683 H 162.265 -2.09729 0.335774 0
M  V30 1684 H 164.528 -0.943925 0.0878028 0
M  V30 1685 H 164.234 -3.50678 -0.267905 0
M  V30 1686 H 164.108 -3.20334 -1.99163 0
M  V30 1687 H 166.495 -2.21225 -1.95304 0
M  V30 1688 H 166.576 -2.54871 -0.217801 0
M  V30 1689 H 166.22 -5.02984 -0.704958 0
M  V30 1690 H 166.15 -4.66299 -2.44689 0
M  V30 1691 H 168.641 -3.51466 -1.38853 0
M  V30 1692 H 168.954 -7.39361 -2.24867 0
M  V30 1693 H 167.299 -6.64725 -2.02894 0
M  V30 1694 H 170.49 -4.38382 -1.64132 0
M  V30 1695 H 170.663 -6.15258 -2.03377 0
M  V30 1696 N 164.069 0.697108 -1.41344 0
M  V30 1697 C 165.297 1.48593 -1.43972 0
M  V30 1698 C 165.712 1.88747 -0.0445612 0
M  V30 1699 O 165.069 1.56682 0.935785 0
M  V30 1700 C 165.12 2.74946 -2.34706 0
M  V30 1701 O 164.841 2.36484 -3.68791 0
M  V30 1702 C 166.342 3.687 -2.46121 0
M  V30 1703 H 163.562 0.457964 -0.490418 0
M  V30 1704 H 166.106 0.858429 -1.8561 0
M  V30 1705 H 164.261 3.33937 -1.9638 0
M  V30 1706 H 164.675 3.17918 -4.17167 0
M  V30 1707 H 166.149 4.54145 -3.13777 0
M  V30 1708 H 166.626 4.13081 -1.49199 0
M  V30 1709 H 167.232 3.15613 -2.85076 0
M  V30 1710 N 165.547 1.27147 0.931209 0
M  V30 1711 C 166.477 1.12081 2.04842 0
M  V30 1712 C 167.458 0.0232364 1.70084 0
M  V30 1713 O 168.643 0.197085 1.93197 0
M  V30 1714 C 165.773 0.76354 3.38803 0
M  V30 1715 C 164.727 1.81396 3.87659 0
M  V30 1716 C 164.053 1.31075 5.18385 0
M  V30 1717 C 165.353 3.21739 4.11438 0
M  V30 1718 H 167.047 2.05537 2.17703 0
M  V30 1719 H 164.593 0.989603 1.04608 0
M  V30 1720 H 166.546 0.644982 4.16435 0
M  V30 1721 H 165.27 -0.206727 3.25945 0
M  V30 1722 H 163.929 1.92136 3.12217 0
M  V30 1723 H 163.577 0.330037 5.01916 0
M  V30 1724 H 163.277 2.013 5.52044 0
M  V30 1725 H 164.801 1.20506 5.98591 0
M  V30 1726 H 166.215 3.14019 4.79651 0
M  V30 1727 H 164.612 3.89644 4.56397 0
M  V30 1728 H 165.682 3.67054 3.16859 0
M  V30 1729 N 167.025 -1.13721 1.09112 0
M  V30 1730 C 167.955 -2.21148 0.749385 0
M  V30 1731 C 168.936 -1.6792 -0.271475 0
M  V30 1732 O 170.121 -1.93693 -0.140251 0
M  V30 1733 C 167.251 -3.46905 0.165659 0
M  V30 1734 C 166.205 -4.13203 1.11567 0
M  V30 1735 C 165.531 -5.33248 0.393809 0
M  V30 1736 C 166.831 -4.60912 2.45678 0
M  V30 1737 H 168.525 -2.4999 1.64758 0
M  V30 1738 H 166.071 -1.20156 0.793626 0
M  V30 1739 H 168.024 -4.21313 -0.085466 0
M  V30 1740 H 166.748 -3.17449 -0.767714 0
M  V30 1741 H 165.407 -3.40758 1.35202 0
M  V30 1742 H 165.055 -5.00054 -0.543599 0
M  V30 1743 H 164.755 -5.78552 1.02721 0
M  V30 1744 H 166.279 -6.10413 0.150908 0
M  V30 1745 H 167.693 -5.26759 2.26269 0
M  V30 1746 H 166.09 -5.16944 3.04776 0
M  V30 1747 H 167.16 -3.75603 3.06677 0
M  V30 1748 N 168.503 -0.877838 -1.30888 0
M  V30 1749 C 169.733 -0.506678 -2.00291 0
M  V30 1750 C 170.141 0.907449 -1.66018 0
M  V30 1751 O 169.484 1.60719 -0.88967 0
M  V30 1752 C 169.546 -0.59323 -3.54572 0
M  V30 1753 C 169.21 -1.97038 -4.12341 0
M  V30 1754 C 170.207 -2.93889 -4.28865 0
M  V30 1755 C 167.892 -2.27383 -4.47886 0
M  V30 1756 C 169.886 -4.19224 -4.80136 0
M  V30 1757 C 167.573 -3.52965 -4.98857 0
M  V30 1758 C 168.571 -4.48701 -5.14934 0
M  V30 1759 O 168.259 -5.72056 -5.64808 0
M  V30 1760 H 167.991 -0.1951 -0.647234 0
M  V30 1761 H 170.545 -1.18301 -1.6791 0
M  V30 1762 H 168.775 0.140057 -3.86446 0
M  V30 1763 H 170.464 -0.234372 -4.05223 0
M  V30 1764 H 171.23 -2.71756 -4.01714 0
M  V30 1765 H 167.109 -1.53639 -4.34645 0
M  V30 1766 H 170.653 -4.93956 -4.92599 0
M  V30 1767 H 166.55 -3.74939 -5.25443 0
M  V30 1768 H 167.318 -5.74337 -5.83163 0
M  V30 1769 N 169.982 1.44106 -0.638065 0
M  V30 1770 C 171.23 2.01579 -0.145043 0
M  V30 1771 C 171.551 1.50496 1.24 0
M  V30 1772 O 170.821 0.711374 1.82527 0
M  V30 1773 H 169.401 0.745282 -0.05063 0
M  V30 1774 H 172.063 1.76516 -0.826327 0
M  V30 1775 H 171.159 3.11877 -0.118039 0
M  V30 1776 N 171.46 0.379036 1.52974 0
M  V30 1777 C 172.41 -0.477772 2.22938 0
M  V30 1778 C 173.394 -1.03792 1.22948 0
M  V30 1779 O 174.586 -0.965725 1.48333 0
M  V30 1780 C 171.715 -1.60994 3.03209 0
M  V30 1781 C 170.801 -1.06203 4.10587 0
M  V30 1782 N 171.192 -0.238214 5.05239 0
M  V30 1783 C 169.49 -1.33554 4.25534 0
M  V30 1784 C 170.191 0.0633235 5.81666 0
M  V30 1785 N 169.167 -0.537901 5.40932 0
M  V30 1786 H 172.969 0.158295 2.93473 0
M  V30 1787 H 170.483 0.187778 1.61311 0
M  V30 1788 H 172.48 -2.23607 3.5186 0
M  V30 1789 H 171.14 -2.24893 2.34207 0
M  V30 1790 H 172.151 0.123695 5.17752 0
M  V30 1791 H 168.828 -1.97632 3.6776 0
M  V30 1792 H 170.218 0.730161 6.67921 0
M  V30 1793 N 172.938 -1.57226 0.108567 0
M  V30 1794 C 173.901 -2.13602 -0.831082 0
M  V30 1795 C 174.901 -1.06841 -1.20173 0
M  V30 1796 O 176.091 -1.32666 -1.12895 0
M  V30 1797 C 173.223 -2.66769 -2.12243 0
M  V30 1798 H 174.416 -2.97951 -0.341317 0
M  V30 1799 H 171.969 -1.55667 -0.14057 0
M  V30 1800 H 172.704 -1.85977 -2.65675 0
M  V30 1801 H 172.489 -3.44839 -1.86625 0
M  V30 1802 H 173.979 -3.10332 -2.79435 0
M  V30 1803 N 174.416 0.165178 -1.56732 0
M  V30 1804 C 175.665 0.879143 -1.81532 0
M  V30 1805 C 175.978 1.83144 -0.686842 0
M  V30 1806 O 177.184 2.58823 -0.819944 0
M  V30 1807 C 175.64 1.61388 -3.21686 0
M  V30 1808 C 175.248 0.704904 -4.4242 0
M  V30 1809 C 176.992 2.3157 -3.55774 0
M  V30 1810 C 174.899 1.44022 -5.73595 0
M  V30 1811 H 173.829 0.332033 -0.676957 0
M  V30 1812 H 176.48 0.132008 -1.83025 0
M  V30 1813 H 174.862 2.40599 -3.14529 0
M  V30 1814 H 176.036 -0.0506815 -4.60772 0
M  V30 1815 H 174.351 0.112419 -4.16248 0
M  V30 1816 H 176.948 2.8719 -4.51028 0
M  V30 1817 H 177.291 3.07201 -2.8095 0
M  V30 1818 H 177.824 1.59297 -3.64513 0
M  V30 1819 H 174.563 0.72612 -6.51466 0
M  V30 1820 H 174.083 2.16898 -5.5921 0
M  V30 1821 H 175.762 1.98606 -6.15764 0
M  V30 1822 N 175.894 1.51508 0.433938 0
M  V30 1823 C 176.824 1.76016 1.53429 0
M  V30 1824 C 177.805 0.610112 1.58782 0
M  V30 1825 O 178.99 0.853177 1.74455 0
M  V30 1826 C 176.12 1.88831 2.9148 0
M  V30 1827 C 175.074 3.04288 3.00987 0
M  V30 1828 C 174.4 3.0229 4.4105 0
M  V30 1829 C 175.7 4.44193 2.74754 0
M  V30 1830 H 177.394 2.68152 1.33171 0
M  V30 1831 H 174.94 1.29035 0.639214 0
M  V30 1832 H 176.893 2.04559 3.6842 0
M  V30 1833 H 175.617 0.933455 3.12976 0
M  V30 1834 H 174.276 2.8827 2.26486 0
M  V30 1835 H 173.924 2.04576 4.59519 0
M  V30 1836 H 173.624 3.79822 4.4834 0
M  V30 1837 H 175.148 3.20116 5.1996 0
M  V30 1838 H 176.562 4.60544 3.41426 0
M  V30 1839 H 174.959 5.23457 2.9345 0
M  V30 1840 H 176.029 4.53996 1.70339 0
M  V30 1841 N 177.372 -0.689602 1.41712 0
M  V30 1842 C 178.302 -1.81577 1.46806 0
M  V30 1843 C 179.283 -1.66945 0.326105 0
M  V30 1844 O 180.468 -1.86588 0.538377 0
M  V30 1845 C 177.598 -3.19762 1.35535 0
M  V30 1846 C 176.552 -3.49107 2.47605 0
M  V30 1847 C 175.878 -4.86711 2.21397 0
M  V30 1848 C 177.178 -3.47483 3.89939 0
M  V30 1849 H 178.872 -1.7757 2.41058 0
M  V30 1850 H 176.418 -0.852887 1.16025 0
M  V30 1851 H 178.371 -3.98263 1.3771 0
M  V30 1852 H 177.095 -3.24409 0.377708 0
M  V30 1853 H 175.754 -2.72959 2.44722 0
M  V30 1854 H 175.402 -4.8799 1.21961 0
M  V30 1855 H 175.102 -5.0731 2.96497 0
M  V30 1856 H 176.626 -5.67515 2.25297 0
M  V30 1857 H 178.04 -4.1598 3.94505 0
M  V30 1858 H 176.437 -3.79615 4.64771 0
M  V30 1859 H 177.507 -2.46341 4.17665 0
M  V30 1860 N 178.85 -1.27639 -0.924453 0
M  V30 1861 C 180.266 -1.05113 -1.20097 0
M  V30 1862 C 180.466 0.213262 -2.00368 0
M  V30 1863 O 179.522 0.91787 -2.35226 0
M  V30 1864 C 180.835 -2.29244 -1.94596 0
M  V30 1865 C 182.383 -2.34315 -2.07522 0
M  V30 1866 C 182.858 -3.58183 -2.85427 0
M  V30 1867 N 184.349 -3.5876 -2.92994 0
M  V30 1868 C 185.084 -4.51277 -3.53746 0
M  V30 1869 N 184.58 -5.54102 -4.15863 0
M  V30 1870 N 186.373 -4.38894 -3.51181 0
M  V30 1871 H 178.524 -2.08821 -0.388264 0
M  V30 1872 H 180.787 -0.918568 -0.234385 0
M  V30 1873 H 180.493 -3.21301 -1.43034 0
M  V30 1874 H 180.367 -2.34816 -2.95197 0
M  V30 1875 H 182.754 -1.42762 -2.58269 0
M  V30 1876 H 182.835 -2.32744 -1.06131 0
M  V30 1877 H 182.479 -4.50074 -2.35363 0
M  V30 1878 H 182.409 -3.57006 -3.8711 0
M  V30 1879 H 184.9 -2.84398 -2.4885 0
M  V30 1880 H 185.213 -6.20859 -4.60168 0
M  V30 1881 H 183.558 -5.57941 -4.144 0
M  V30 1882 H 186.749 -3.57772 -3.01856 0
M  V30 1883 H 186.922 -5.11186 -3.98237 0
M  V30 1884 N 180.328 1.1314 -1.09713 0
M  V30 1885 C 181.278 2.16709 -0.708593 0
M  V30 1886 C 182.262 1.58471 0.278523 0
M  V30 1887 O 183.454 1.76779 0.088427 0
M  V30 1888 C 180.583 3.43039 -0.133923 0
M  V30 1889 C 179.669 4.08277 -1.14763 0
M  V30 1890 N 180.06 4.48637 -2.33577 0
M  V30 1891 C 178.358 4.34954 -0.986446 0
M  V30 1892 C 179.059 4.9952 -2.98085 0
M  V30 1893 N 178.035 4.94561 -2.25632 0
M  V30 1894 H 181.837 2.45672 -1.61315 0
M  V30 1895 H 179.351 1.29967 -0.973775 0
M  V30 1896 H 181.348 4.16583 0.162465 0
M  V30 1897 H 180.008 3.15549 0.765447 0
M  V30 1898 H 181.019 4.41246 -2.7115 0
M  V30 1899 H 177.696 4.17258 -0.142008 0
M  V30 1900 H 179.086 5.40521 -3.99108 0
M  V30 1901 N 181.806 0.884767 1.30421 0
M  V30 1902 C 183.031 0.517288 2.00845 0
M  V30 1903 C 183.456 -0.886779 1.65885 0
M  V30 1904 O 182.814 -1.58768 0.875354 0
M  V30 1905 C 182.862 0.698994 3.5376 0
M  V30 1906 O 181.966 -0.255208 4.1161 0
M  V30 1907 H 181.307 0.203872 0.631927 0
M  V30 1908 H 183.837 1.19225 1.66272 0
M  V30 1909 H 183.847 0.597912 4.03595 0
M  V30 1910 H 182.522 1.72271 3.78544 0
M  V30 1911 H 181.099 -0.10784 3.72744 0
M  V30 1912 N 183.284 -1.43765 0.645699 0
M  V30 1913 C 184.514 -2.05953 0.163318 0
M  V30 1914 C 184.922 -1.48432 -1.17322 0
M  V30 1915 O 184.265 -0.607295 -1.73371 0
M  V30 1916 C 184.327 -3.59499 -0.0103065 0
M  V30 1917 C 183.991 -4.39563 1.25035 0
M  V30 1918 C 184.988 -4.72108 2.17739 0
M  V30 1919 C 182.673 -4.79697 1.48983 0
M  V30 1920 C 184.667 -5.43688 3.3269 0
M  V30 1921 C 182.354 -5.51023 2.64229 0
M  V30 1922 C 183.352 -5.8294 3.55908 0
M  V30 1923 O 183.04 -6.5281 4.69142 0
M  V30 1924 H 182.772 -0.670798 0.0836986 0
M  V30 1925 H 185.326 -1.85384 0.884407 0
M  V30 1926 H 183.556 -3.78613 -0.78669 0
M  V30 1927 H 185.245 -4.03408 -0.449087 0
M  V30 1928 H 186.011 -4.41627 2.00476 0
M  V30 1929 H 181.89 -4.54266 0.785078 0
M  V30 1930 H 185.434 -5.68517 4.04269 0
M  V30 1931 H 181.331 -5.8092 2.81429 0
M  V30 1932 H 182.099 -6.71288 4.6831 0
M  V30 1933 N 184.763 -0.387143 -1.52771 0
M  V30 1934 C 185.988 0.198407 -2.06449 0
M  V30 1935 C 186.413 1.39918 -1.25716 0
M  V30 1936 O 185.771 1.79099 -0.281657 0
M  V30 1937 C 185.819 0.548893 -3.56398 0
M  V30 1938 O 184.923 1.64315 -3.78252 0
M  V30 1939 H 184.264 0.0237731 -0.663574 0
M  V30 1940 H 186.794 -0.553989 -1.96957 0
M  V30 1941 H 186.804 0.813812 -3.99801 0
M  V30 1942 H 185.479 -0.329005 -4.14597 0
M  V30 1943 H 184.056 1.37211 -3.46738 0
M  V30 1944 N 186.241 1.57166 -0.116904 0
M  V30 1945 C 187.489 1.94737 0.540533 0
M  V30 1946 C 187.81 1.00096 1.67349 0
M  V30 1947 O 187.08 0.0568854 1.95817 0
M  V30 1948 H 185.66 0.718981 0.202669 0
M  V30 1949 H 188.322 1.94017 -0.185353 0
M  V30 1950 H 187.418 2.97719 0.936483 0
M  V30 1951 N 187.719 -0.156864 1.56817 0
M  V30 1952 C 188.652 -1.22316 1.9265 0
M  V30 1953 C 189.63 -1.42059 0.791076 0
M  V30 1954 O 190.814 -1.56831 1.04576 0
M  V30 1955 C 187.941 -2.58375 2.18998 0
M  V30 1956 C 186.987 -2.55284 3.41661 0
M  V30 1957 S 187.82 -2.02946 4.95553 0
M  V30 1958 C 188.976 -3.40753 5.25013 0
M  V30 1959 H 189.209 -0.917403 2.82791 0
M  V30 1960 H 186.742 -0.362059 1.50095 0
M  V30 1961 H 188.7 -3.36677 2.34859 0
M  V30 1962 H 187.361 -2.86145 1.29538 0
M  V30 1963 H 186.554 -3.55418 3.57343 0
M  V30 1964 H 186.156 -1.85086 3.24991 0
M  V30 1965 H 188.448 -4.36819 5.17876 0
M  V30 1966 H 189.391 -3.29933 6.26538 0
M  V30 1967 H 189.799 -3.37433 4.52548 0
M  V30 1968 N 189.197 -1.51736 -0.425897 0
M  V30 1969 C 190.427 -1.68549 -1.19476 0
M  V30 1970 C 190.835 -0.387288 -1.85194 0
M  V30 1971 O 190.178 0.645142 -1.71999 0
M  V30 1972 C 190.24 -2.75275 -2.31223 0
M  V30 1973 C 189.904 -4.17534 -1.8578 0
M  V30 1974 C 190.901 -5.01936 -1.35485 0
M  V30 1975 C 188.586 -4.6369 -1.93123 0
M  V30 1976 C 190.58 -6.30559 -0.931347 0
M  V30 1977 C 188.267 -5.92307 -1.50384 0
M  V30 1978 C 189.265 -6.75569 -1.00473 0
M  V30 1979 O 188.953 -8.0178 -0.583452 0
M  V30 1980 H 188.685 -0.568525 -0.365725 0
M  V30 1981 H 191.239 -1.98982 -0.509444 0
M  V30 1982 H 189.469 -2.40182 -3.03067 0
M  V30 1983 H 191.158 -2.80853 -2.93047 0
M  V30 1984 H 191.924 -4.67475 -1.29197 0
M  V30 1985 H 187.803 -3.98997 -2.30916 0
M  V30 1986 H 191.347 -6.95498 -0.541084 0
M  V30 1987 H 187.244 -6.2628 -1.56346 0
M  V30 1988 H 188.012 -8.1543 -0.708275 0
M  V30 1989 N 190.675 0.682077 -1.42076 0
M  V30 1990 C 191.605 1.80796 -1.47767 0
M  V30 1991 C 192.586 1.6677 -0.334954 0
M  V30 1992 O 193.771 1.863 -0.548264 0
M  V30 1993 C 190.901 3.19038 -1.37229 0
M  V30 1994 C 189.855 3.47789 -2.49453 0
M  V30 1995 C 189.181 4.8553 -2.23975 0
M  V30 1996 C 190.481 3.45411 -3.91776 0
M  V30 1997 H 192.175 1.7629 -2.41997 0
M  V30 1998 H 189.721 0.846721 -1.16476 0
M  V30 1999 H 191.674 3.97528 -1.39821 0
M  V30 2000 H 190.398 3.24204 -0.394907 0
M  V30 2001 H 189.057 2.71657 -2.46166 0
M  V30 2002 H 188.705 4.87337 -1.24547 0
M  V30 2003 H 188.405 5.0573 -2.99184 0
M  V30 2004 H 189.929 5.66312 -2.28304 0
M  V30 2005 H 191.343 4.13882 -3.96705 0
M  V30 2006 H 189.74 3.77145 -4.66778 0
M  V30 2007 H 190.81 2.44122 -4.18966 0
M  V30 2008 N 192.153 1.28127 0.917671 0
M  V30 2009 C 193.393 1.163 1.68088 0
M  V30 2010 C 193.757 -0.284515 1.8988 0
M  V30 2011 O 194.958 -0.525413 2.63615 0
M  V30 2012 C 193.229 1.93546 3.00457 0
M  V30 2013 S 194.788 1.98048 3.91564 0
M  V30 2014 H 191.606 0.415005 0.577315 0
M  V30 2015 H 194.208 1.62173 1.09179 0
M  V30 2016 H 192.912 2.97888 2.82295 0
M  V30 2017 H 192.443 1.48207 3.64415 0
M  V30 2018 H 194.458 1.08415 4.84211 0
M  V30 2019 N 193.631 -1.12557 1.10312 0
M  V30 2020 C 194.871 -1.8568 0.854543 0
M  V30 2021 C 195.235 -1.82091 -0.608843 0
M  V30 2022 O 196.436 -2.50544 -0.973717 0
M  V30 2023 C 194.707 -3.2942 1.38626 0
M  V30 2024 S 196.266 -4.19931 1.27293 0
M  V30 2025 H 193.084 -0.640427 0.308827 0
M  V30 2026 H 195.686 -1.35599 1.40831 0
M  V30 2027 H 194.39 -3.2959 2.44537 0
M  V30 2028 H 193.921 -3.84566 0.82902 0
M  V30 2029 H 195.936 -4.95668 0.229776 0
M  V30 2030 N 195.109 -0.891671 -1.2995 0
M  V30 2031 C 196.039 -0.379797 -2.30391 0
M  V30 2032 C 197.02 0.540919 -1.6127 0
M  V30 2033 O 198.205 0.453352 -1.88834 0
M  V30 2034 C 195.335 0.400654 -3.44981 0
M  V30 2035 C 194.289 -0.428905 -4.25846 0
M  V30 2036 C 193.615 0.478557 -5.32554 0
M  V30 2037 C 194.915 -1.67458 -4.94727 0
M  V30 2038 H 196.609 -1.21914 -2.73454 0
M  V30 2039 H 194.155 -0.587675 -1.31462 0
M  V30 2040 H 196.108 0.769434 -4.14316 0
M  V30 2041 H 194.832 1.27371 -3.0074 0
M  V30 2042 H 193.491 -0.779911 -3.58208 0
M  V30 2043 H 193.139 1.34951 -4.84559 0
M  V30 2044 H 192.839 -0.0727433 -5.87555 0
M  V30 2045 H 194.363 0.843705 -6.04743 0
M  V30 2046 H 195.777 -1.376 -5.56542 0
M  V30 2047 H 194.174 -2.16659 -5.59624 0
M  V30 2048 H 195.244 -2.41518 -4.20473 0
M  V30 2049 N 196.587 1.43421 -0.653314 0
M  V30 2050 C 197.812 2.06678 -0.172846 0
M  V30 2051 C 198.237 1.48648 1.15262 0
M  V30 2052 O 197.595 0.596457 1.71208 0
M  V30 2053 C 197.643 3.60474 -0.0953184 0
M  V30 2054 O 196.747 4.01487 0.942442 0
M  V30 2055 H 196.088 0.657181 -0.0949155 0
M  V30 2056 H 198.618 1.83925 -0.896265 0
M  V30 2057 H 198.628 4.07905 0.0879728 0
M  V30 2058 H 197.303 4.02088 -1.06291 0
M  V30 2059 H 195.88 3.65646 0.731932 0
M  V30 2060 N 198.065 0.39524 1.52563 0
M  V30 2061 C 199.293 -0.184943 2.06072 0
M  V30 2062 C 199.708 -1.40021 1.26647 0
M  V30 2063 O 199.065 -1.79767 0.314672 0
M  V30 2064 C 199.116 -0.549179 3.57304 0
M  V30 2065 O 198.837 0.617813 4.33722 0
M  V30 2066 C 200.338 -1.18459 4.2718 0
M  V30 2067 H 197.558 -0.0265025 0.670476 0
M  V30 2068 H 200.102 0.562184 1.96621 0
M  V30 2069 H 198.257 -1.2462 3.66809 0
M  V30 2070 H 198.671 0.317091 5.23541 0
M  V30 2071 H 200.145 -1.38976 5.34219 0
M  V30 2072 H 200.622 -2.15368 3.82771 0
M  V30 2073 H 201.228 -0.528163 4.22008 0
M  V30 2074 N 199.544 -1.57102 0.125237 0
M  V30 2075 C 200.769 -2.0019 -0.542101 0
M  V30 2076 C 201.194 -1.00449 -1.59034 0
M  V30 2077 O 200.552 0.0229423 -1.81285 0
M  V30 2078 C 200.6 -3.42129 -1.13929 0
M  V30 2079 O 199.704 -3.45307 -2.2547 0
M  V30 2080 H 199.045 -0.650171 -0.134812 0
M  V30 2081 H 201.575 -2.03461 0.215553 0
M  V30 2082 H 201.585 -3.80471 -1.4733 0
M  V30 2083 H 200.26 -4.14237 -0.371531 0
M  V30 2084 H 198.837 -3.1879 -1.93462 0
M  V30 2085 N 201.022 0.148545 -1.56898 0
M  V30 2086 C 202.438 0.501131 -1.51528 0
M  V30 2087 C 202.638 1.83458 -0.833399 0
M  V30 2088 O 201.694 2.49259 -0.40328 0
M  V30 2089 C 203.007 0.512864 -2.96294 0
M  V30 2090 C 204.555 0.598487 -3.07225 0
M  V30 2091 C 205.03 0.640897 -4.53494 0
M  V30 2092 N 206.521 0.703163 -4.57832 0
M  V30 2093 C 207.256 0.756935 -5.68382 0
M  V30 2094 N 206.752 0.770147 -6.88506 0
M  V30 2095 N 208.545 0.797698 -5.56411 0
M  V30 2096 H 200.696 -0.725532 -1.99624 0
M  V30 2097 H 202.959 -0.264358 -0.910395 0
M  V30 2098 H 202.665 -0.398691 -3.49433 0
M  V30 2099 H 202.539 1.35133 -3.52163 0
M  V30 2100 H 204.926 1.50046 -2.54106 0
M  V30 2101 H 205.007 -0.267093 -2.54402 0
M  V30 2102 H 204.651 -0.256915 -5.0725 0
M  V30 2103 H 204.581 1.52295 -5.04097 0
M  V30 2104 H 207.072 0.700314 -3.71354 0
M  V30 2105 H 207.385 0.812983 -7.68512 0
M  V30 2106 H 205.73 0.738049 -6.9107 0
M  V30 2107 H 208.921 0.784535 -4.61479 0
M  V30 2108 H 209.094 0.83614 -6.42583 0
M  V30 2109 N 202.5 1.5196 0.417844 0
M  V30 2110 C 203.725 1.69717 1.1921 0
M  V30 2111 C 204.15 0.402148 1.83751 0
M  V30 2112 O 203.508 -0.639593 1.69643 0
M  V30 2113 C 203.556 2.82794 2.2374 0
M  V30 2114 O 202.66 2.47756 3.29683 0
M  V30 2115 H 202.001 0.565263 0.348387 0
M  V30 2116 H 204.531 1.98621 0.490985 0
M  V30 2117 H 204.541 3.07452 2.68212 0
M  V30 2118 H 203.216 3.76756 1.76146 0
M  V30 2119 H 201.793 2.33739 2.90552 0
M  V30 2120 N 203.978 -0.674533 1.42435 0
M  V30 2121 C 205.203 -1.46784 1.46524 0
M  V30 2122 C 205.628 -1.87938 0.078066 0
M  V30 2123 O 204.986 -1.56014 -0.92354 0
M  V30 2124 C 205.034 -2.69307 2.39805 0
M  V30 2125 O 204.138 -3.67587 1.86959 0
M  V30 2126 H 203.479 -0.440959 0.496439 0
M  V30 2127 H 206.009 -0.827326 1.87127 0
M  V30 2128 H 206.019 -3.17374 2.56393 0
M  V30 2129 H 204.694 -2.38692 3.40586 0
M  V30 2130 H 203.271 -3.2662 1.79927 0
M  V30 2131 N 205.456 -1.28612 -0.910864 0
M  V30 2132 C 206.684 -1.18792 -1.69399 0
M  V30 2133 C 207.099 0.253039 -1.87097 0
M  V30 2134 O 206.456 1.17071 -1.40003 0
M  V30 2135 C 206.507 -1.88511 -3.08457 0
M  V30 2136 O 206.228 -3.26979 -2.91576 0
M  V30 2137 C 207.729 -1.85029 -4.02839 0
M  V30 2138 H 204.949 -0.412233 -0.529438 0
M  V30 2139 H 207.493 -1.69788 -1.13984 0
M  V30 2140 H 205.648 -1.41379 -3.60681 0
M  V30 2141 H 206.062 -3.61936 -3.79608 0
M  V30 2142 H 207.536 -2.38395 -4.97867 0
M  V30 2143 H 208.013 -0.823303 -4.31414 0
M  V30 2144 H 208.619 -2.31853 -3.56545 0
M  V30 2145 N 206.934 1.1197 -1.10907 0
M  V30 2146 C 208.211 1.79959 -0.766432 0
M  V30 2147 C 208.591 1.97466 0.746363 0
M  V30 2148 O 207.939 1.55491 1.67436 0
M  V30 2149 C 208.149 3.14009 -1.52314 0
M  V30 2150 C 209.497 3.89134 -1.69883 0
M  V30 2151 O 210.521 3.2368 -1.48692 0
M  V30 2152 O 209.38 5.06572 -2.05054 0
M  V30 2153 H 206.474 0.779208 -0.277062 0
M  V30 2154 H 209.02 1.18762 -1.21217 0
M  V30 2155 H 207.792 2.96587 -2.55249 0
M  V30 2156 H 207.415 3.82915 -1.07059 0
M  V30 2157 N 208.412 0.89855 1.29475 0
M  V30 2158 C 209.359 0.373819 2.27753 0
M  V30 2159 C 210.329 -0.543444 1.56958 0
M  V30 2160 O 211.514 -0.468934 1.84948 0
M  V30 2161 C 208.654 -0.393648 3.42848 0
M  V30 2162 C 207.767 0.554379 4.28428 0
M  V30 2163 C 206.902 -0.230026 5.30702 0
M  V30 2164 C 205.941 0.712599 6.07938 0
M  V30 2165 N 205.078 -0.0373283 7.0209 0
M  V30 2166 H 209.918 1.21699 2.72017 0
M  V30 2167 H 207.455 0.611456 1.33789 0
M  V30 2168 H 209.413 -0.85466 4.08352 0
M  V30 2169 H 208.043 -1.20128 2.99615 0
M  V30 2170 H 207.095 1.13391 3.63107 0
M  V30 2171 H 208.407 1.27597 4.82204 0
M  V30 2172 H 207.561 -0.752288 6.02018 0
M  V30 2173 H 206.3 -0.984758 4.77654 0
M  V30 2174 H 205.305 1.24637 5.35486 0
M  V30 2175 H 206.53 1.46664 6.63074 0
M  V30 2176 H 204.476 -0.774348 6.51414 0
M  V30 2177 H 204.393 0.624374 7.53417 0
M  V30 2178 H 205.661 -0.539891 7.77628 0
M  V30 2179 N 209.89 -1.43072 0.660911 0
M  V30 2180 C 210.82 -2.33497 -0.0122829 0
M  V30 2181 C 211.801 -1.49903 -0.803925 0
M  V30 2182 O 212.986 -1.78546 -0.763864 0
M  V30 2183 C 210.116 -3.33363 -0.973994 0
M  V30 2184 C 209.07 -4.27003 -0.291928 0
M  V30 2185 C 208.396 -5.16967 -1.36562 0
M  V30 2186 C 209.696 -5.15816 0.820462 0
M  V30 2187 H 211.39 -2.90038 0.742873 0
M  V30 2188 H 208.936 -1.39461 0.358688 0
M  V30 2189 H 210.889 -3.95524 -1.45392 0
M  V30 2190 H 209.613 -2.75095 -1.7604 0
M  V30 2191 H 208.272 -3.66217 0.167623 0
M  V30 2192 H 207.92 -4.55034 -2.14366 0
M  V30 2193 H 207.62 -5.80441 -0.914454 0
M  V30 2194 H 209.144 -5.82003 -1.84675 0
M  V30 2195 H 210.558 -5.71742 0.422366 0
M  V30 2196 H 208.955 -5.8805 1.19656 0
M  V30 2197 H 210.025 -4.55045 1.67518 0
M  V30 2198 N 211.368 -0.403325 -1.52352 0
M  V30 2199 C 212.331 0.413051 -2.25447 0
M  V30 2200 C 213.331 0.978513 -1.276 0
M  V30 2201 O 214.521 0.858305 -1.51587 0
M  V30 2202 C 211.653 1.58087 -3.02029 0
M  V30 2203 H 212.846 -0.227094 -2.99039 0
M  V30 2204 H 210.399 -0.155722 -1.55522 0
M  V30 2205 H 211.134 2.25804 -2.32772 0
M  V30 2206 H 210.919 1.18195 -3.73861 0
M  V30 2207 H 212.409 2.1585 -3.57489 0
M  V30 2208 N 212.846 1.57033 -0.133567 0
M  V30 2209 C 214.093 1.95686 0.520877 0
M  V30 2210 C 214.421 1.0177 1.6575 0
M  V30 2211 O 213.676 0.0443195 1.9565 0
M  V30 2212 C 213.975 3.40674 1.08057 0
M  V30 2213 C 213.641 4.50855 0.0637899 0
M  V30 2214 C 212.303 4.80716 -0.215757 0
M  V30 2215 C 214.655 5.17398 -0.62835 0
M  V30 2216 C 211.983 5.74433 -1.19348 0
M  V30 2217 C 214.335 6.12167 -1.5948 0
M  V30 2218 C 212.999 6.40414 -1.88218 0
M  V30 2219 H 212.269 0.716067 0.190602 0
M  V30 2220 H 214.916 1.9026 -0.217556 0
M  V30 2221 H 213.221 3.42865 1.89606 0
M  V30 2222 H 214.918 3.67902 1.59529 0
M  V30 2223 H 211.508 4.27605 0.291855 0
M  V30 2224 H 215.692 4.94472 -0.425562 0
M  V30 2225 H 210.948 5.94616 -1.42272 0
M  V30 2226 H 215.122 6.6281 -2.13671 0
M  V30 2227 H 212.749 7.12838 -2.64133 0
M  V30 2228 N 214.325 -0.140222 1.56975 0
M  V30 2229 C 215.602 -0.880769 1.74648 0
M  V30 2230 C 215.982 -1.99036 0.703404 0
M  V30 2231 O 215.33 -2.26821 -0.27648 0
M  V30 2232 C 215.54 -1.417 3.18939 0
M  V30 2233 C 216.888 -1.87774 3.80823 0
M  V30 2234 O 217.912 -1.51427 3.2241 0
M  V30 2235 O 216.771 -2.54827 4.83452 0
M  V30 2236 H 213.865 -0.416713 0.714338 0
M  V30 2237 H 216.411 -0.125618 1.69234 0
M  V30 2238 H 215.183 -0.619902 3.86359 0
M  V30 2239 H 214.806 -2.23546 3.28805 0
M  V30 2240 N 215.803 -1.52179 -0.40978 0
M  V30 2241 C 217.049 -1.66453 -1.15851 0
M  V30 2242 C 217.382 -0.392972 -1.90182 0
M  V30 2243 O 216.657 0.608579 -1.84734 0
M  V30 2244 C 216.94 -2.88612 -2.15349 0
M  V30 2245 C 216.793 -4.25815 -1.44918 0
M  V30 2246 C 218.112 -3.06294 -3.16026 0
M  V30 2247 H 215.231 -0.60575 -0.419805 0
M  V30 2248 H 217.873 -1.84732 -0.444314 0
M  V30 2249 H 216.023 -2.73158 -2.76255 0
M  V30 2250 H 217.695 -4.52995 -0.871365 0
M  V30 2251 H 215.938 -4.27247 -0.751159 0
M  V30 2252 H 216.609 -5.07337 -2.17516 0
M  V30 2253 H 219.085 -3.20641 -2.65195 0
M  V30 2254 H 217.961 -3.93283 -3.8291 0
M  V30 2255 H 218.222 -2.19579 -3.83715 0
M  V30 2256 N 217.281 0.66697 -1.42791 0
M  V30 2257 C 218.529 1.42417 -1.43394 0
M  V30 2258 C 218.85 1.94925 -0.0542373 0
M  V30 2259 O 218.12 1.73564 0.908415 0
M  V30 2260 H 216.7 0.528515 -0.527902 0
M  V30 2261 H 219.362 0.787562 -1.78279 0
M  V30 2262 H 218.458 2.27333 -2.13837 0
M  V30 2263 N 218.759 1.29093 0.90403 0
M  V30 2264 C 219.689 1.16401 2.02418 0
M  V30 2265 C 220.67 0.0593085 1.69997 0
M  V30 2266 O 221.855 0.238021 1.92736 0
M  V30 2267 C 218.985 0.835233 3.37107 0
M  V30 2268 C 217.939 1.89578 3.83724 0
M  V30 2269 C 217.265 1.42041 5.15489 0
M  V30 2270 C 218.565 3.30394 4.04521 0
M  V30 2271 H 220.259 2.10109 2.13295 0
M  V30 2272 H 217.805 1.01157 1.02486 0
M  V30 2273 H 219.758 0.733169 4.14973 0
M  V30 2274 H 218.482 -0.137543 3.2631 0
M  V30 2275 H 217.141 1.98715 3.08071 0
M  V30 2276 H 216.789 0.436426 5.01103 0
M  V30 2277 H 216.489 2.12964 5.4765 0
M  V30 2278 H 218.013 1.33176 5.959 0
M  V30 2279 H 219.427 3.24123 4.72882 0
M  V30 2280 H 217.824 3.99237 4.48029 0
M  V30 2281 H 218.894 3.73692 3.09002 0
M  V30 2282 N 220.237 -1.11381 1.11499 0
M  V30 2283 C 221.169 -2.17207 0.731704 0
M  V30 2284 C 222.182 -1.61066 -0.236957 0
M  V30 2285 O 223.371 -1.78489 -0.0197591 0
M  V30 2286 C 220.471 -3.38846 0.0607624 0
M  V30 2287 C 219.644 -4.24451 1.0564 0
M  V30 2288 C 218.703 -5.24562 0.4149 0
M  V30 2289 O 217.729 -5.59071 1.069 0
M  V30 2290 N 218.931 -5.74651 -0.821943 0
M  V30 2291 H 221.696 -2.50699 1.64225 0
M  V30 2292 H 219.257 -1.26908 1.00529 0
M  V30 2293 H 221.249 -4.02911 -0.380139 0
M  V30 2294 H 219.819 -3.03411 -0.752376 0
M  V30 2295 H 219.039 -3.56833 1.67524 0
M  V30 2296 H 220.327 -4.78486 1.72998 0
M  V30 2297 H 219.725 -5.48797 -1.37252 0
M  V30 2298 H 218.282 -6.40549 -1.20582 0
M  V30 2299 N 221.715 -0.905404 -1.28997 0
M  V30 2300 C 222.625 -0.392246 -2.31298 0
M  V30 2301 C 223.641 0.515889 -1.66176 0
M  V30 2302 O 224.817 0.404093 -1.97304 0
M  V30 2303 C 221.882 0.36686 -3.44754 0
M  V30 2304 C 220.943 -0.573485 -4.25452 0
M  V30 2305 C 220.176 0.149488 -5.33491 0
M  V30 2306 O 220.399 1.37255 -5.5364 0
M  V30 2307 O 219.333 -0.510919 -5.99728 0
M  V30 2308 H 223.159 -1.2411 -2.77183 0
M  V30 2309 H 220.744 -0.669926 -1.33538 0
M  V30 2310 H 222.626 0.795907 -4.13816 0
M  V30 2311 H 221.301 1.19169 -3.00966 0
M  V30 2312 H 220.208 -1.05176 -3.59011 0
M  V30 2313 H 221.541 -1.36489 -4.72897 0
M  V30 2314 N 223.193 1.4272 -0.668489 0
M  V30 2315 C 224.47 1.95248 -0.117373 0
M  V30 2316 C 224.85 1.60919 1.36632 0
M  V30 2317 O 224.198 0.902095 2.09939 0
M  V30 2318 C 224.408 3.46927 -0.379806 0
M  V30 2319 C 225.756 4.23588 -0.292923 0
M  V30 2320 O 226.78 3.5482 -0.313204 0
M  V30 2321 O 225.639 5.46017 -0.229697 0
M  V30 2322 H 222.733 0.827 0.00079152 0
M  V30 2323 H 225.279 1.52581 -0.742783 0
M  V30 2324 H 224.051 3.65096 -1.40786 0
M  V30 2325 H 223.674 3.96627 0.277923 0
M  V30 2326 N 224.671 0.411399 1.52136 0
M  V30 2327 C 225.899 -0.163076 2.06256 0
M  V30 2328 C 226.314 -1.3867 1.28125 0
M  V30 2329 O 225.671 -1.79423 0.333721 0
M  V30 2330 C 225.722 -0.511252 3.57867 0
M  V30 2331 O 225.443 0.66378 4.33042 0
M  V30 2332 C 226.944 -1.13921 4.28412 0
M  V30 2333 H 224.164 -0.0193897 0.67072 0
M  V30 2334 H 226.708 0.583007 1.96013 0
M  V30 2335 H 224.863 -1.20723 3.6811 0
M  V30 2336 H 225.277 0.372601 5.23175 0
M  V30 2337 H 226.751 -1.33302 5.35663 0
M  V30 2338 H 227.228 -2.11296 3.85033 0
M  V30 2339 H 227.834 -0.483373 4.22544 0
M  V30 2340 N 226.149 -1.5696 0.141893 0
M  V30 2341 C 227.377 -2.00322 -0.517579 0
M  V30 2342 C 227.792 -1.02193 -1.58752 0
M  V30 2343 O 227.149 -0.0181619 -1.82491 0
M  V30 2344 C 227.2 -3.43618 -1.12289 0
M  V30 2345 O 226.921 -4.37995 -0.0956929 0
M  V30 2346 C 228.422 -4.02231 -1.86347 0
M  V30 2347 H 225.642 -0.657243 -0.135177 0
M  V30 2348 H 228.186 -2.03146 0.234973 0
M  V30 2349 H 226.341 -3.41662 -1.82609 0
M  V30 2350 H 226.755 -5.21729 -0.538469 0
M  V30 2351 H 228.229 -5.04509 -2.23997 0
M  V30 2352 H 228.706 -3.42655 -2.74744 0
M  V30 2353 H 229.312 -4.07802 -1.20737 0
M  V30 2354 N 227.627 0.131896 -1.57047 0
M  V30 2355 C 228.875 0.840269 -1.83804 0
M  V30 2356 C 229.196 1.81017 -0.72512 0
M  V30 2357 O 228.466 1.94272 0.251995 0
M  V30 2358 H 227.046 0.313294 -0.678127 0
M  V30 2359 H 229.708 0.122294 -1.94516 0
M  V30 2360 H 228.804 1.39335 -2.79271 0
M  V30 2361 N 229.106 1.52395 0.401703 0
M  V30 2362 C 230.016 1.7917 1.51444 0
M  V30 2363 C 231.032 0.677691 1.6026 0
M  V30 2364 O 232.208 0.963909 1.76835 0
M  V30 2365 C 229.273 1.94347 2.87107 0
M  V30 2366 C 228.334 3.18257 2.88116 0
M  V30 2367 C 227.567 3.32701 4.17308 0
M  V30 2368 O 227.79 2.52238 5.11598 0
M  V30 2369 O 226.724 4.25891 4.25324 0
M  V30 2370 H 230.55 2.73633 1.31752 0
M  V30 2371 H 228.135 1.3733 0.588296 0
M  V30 2372 H 230.017 2.06109 3.67555 0
M  V30 2373 H 228.692 1.03073 3.06851 0
M  V30 2374 H 227.599 3.11947 2.06494 0
M  V30 2375 H 228.932 4.09336 2.73322 0
M  V30 2376 N 230.584 -0.659388 1.43143 0
M  V30 2377 C 231.547 -1.75432 1.47501 0
M  V30 2378 C 232.547 -1.56707 0.360512 0
M  V30 2379 O 233.737 -1.62717 0.622002 0
M  V30 2380 C 230.869 -3.14239 1.32162 0
M  V30 2381 H 232.062 -1.7295 2.45006 0
M  V30 2382 H 229.615 -0.870469 1.29817 0
M  V30 2383 H 230.35 -3.22336 0.356401 0
M  V30 2384 H 230.135 -3.29235 2.12948 0
M  V30 2385 H 231.625 -3.94094 1.3813 0
M  V30 2386 N 232.062 -1.29571 -0.897171 0
M  V30 2387 C 233.302 -1.18959 -1.66217 0
M  V30 2388 C 233.666 0.254271 -1.90309 0
M  V30 2389 O 234.867 0.483407 -2.64417 0
M  V30 2390 C 233.138 -1.98302 -2.9734 0
M  V30 2391 S 234.697 -2.04253 -3.88364 0
M  V30 2392 H 231.515 -0.424137 -0.570639 0
M  V30 2393 H 234.117 -1.6389 -1.06585 0
M  V30 2394 H 232.821 -3.02342 -2.77521 0
M  V30 2395 H 232.352 -1.53986 -3.62011 0
M  V30 2396 H 234.367 -1.16105 -4.82425 0
M  V30 2397 N 233.54 1.10788 -1.12088 0
M  V30 2398 C 234.786 1.8313 -0.885148 0
M  V30 2399 C 235.141 1.8336 0.582839 0
M  V30 2400 O 234.434 1.28062 1.42516 0
M  V30 2401 C 234.628 3.29294 -1.38926 0
M  V30 2402 C 234.457 3.43302 -2.90472 0
M  V30 2403 C 233.227 3.55928 -3.58669 0
M  V30 2404 C 235.425 3.37014 -3.88492 0
M  V30 2405 N 233.407 3.58475 -4.98366 0
M  V30 2406 C 234.778 3.46263 -5.14298 0
M  V30 2407 C 236.833 3.20589 -3.80955 0
M  V30 2408 C 235.536 3.4078 -6.33452 0
M  V30 2409 C 237.562 3.16427 -4.99628 0
M  V30 2410 C 236.924 3.26253 -6.2429 0
M  V30 2411 H 233.023 0.685054 -0.377128 0
M  V30 2412 H 235.607 1.3251 -1.4265 0
M  V30 2413 H 233.778 3.78416 -0.874999 0
M  V30 2414 H 235.51 3.89578 -1.09596 0
M  V30 2415 H 232.265 3.58779 -3.09151 0
M  V30 2416 H 232.689 3.6337 -5.71219 0
M  V30 2417 H 237.331 3.11873 -2.85474 0
M  V30 2418 H 235.049 3.48263 -7.29204 0
M  V30 2419 H 238.635 3.04874 -4.95523 0
M  V30 2420 H 237.515 3.2303 -7.14578 0
M  V30 2421 N 235.018 0.912232 1.28515 0
M  V30 2422 C 236.264 0.554851 1.95686 0
M  V30 2423 C 236.619 -0.89138 1.70506 0
M  V30 2424 O 235.912 -1.62529 1.01464 0
M  V30 2425 C 236.106 0.798392 3.48368 0
M  V30 2426 C 235.935 2.26674 3.88393 0
M  V30 2427 C 234.705 2.91657 4.12631 0
M  V30 2428 C 236.903 3.24303 3.99164 0
M  V30 2429 N 234.885 4.28805 4.39317 0
M  V30 2430 C 236.256 4.4661 4.30046 0
M  V30 2431 C 238.311 3.19723 3.81683 0
M  V30 2432 C 237.014 5.64915 4.45268 0
M  V30 2433 C 239.04 4.37325 3.98121 0
M  V30 2434 C 238.402 5.58406 4.29375 0
M  V30 2435 H 234.501 0.252876 0.739985 0
M  V30 2436 H 237.085 1.17565 1.55199 0
M  V30 2437 H 235.256 0.20688 3.87849 0
M  V30 2438 H 236.988 0.405193 4.02666 0
M  V30 2439 H 233.743 2.42393 4.06869 0
M  V30 2440 H 234.167 4.99712 4.56746 0
M  V30 2441 H 238.809 2.27191 3.56573 0
M  V30 2442 H 236.527 6.57927 4.6921 0
M  V30 2443 H 240.113 4.35282 3.86033 0
M  V30 2444 H 238.993 6.47889 4.41825 0
M  V30 2445 N 236.496 -1.42363 0.676048 0
M  V30 2446 C 237.724 -2.05859 0.207268 0
M  V30 2447 C 238.139 -1.50796 -1.13605 0
M  V30 2448 O 237.496 -0.648265 -1.70598 0
M  V30 2449 C 237.547 -3.61248 0.134975 0
M  V30 2450 O 237.268 -4.1427 1.42521 0
M  V30 2451 C 238.769 -4.41859 -0.357151 0
M  V30 2452 H 235.989 -0.663431 0.100503 0
M  V30 2453 H 238.533 -1.82479 0.923136 0
M  V30 2454 H 236.688 -3.83735 -0.531588 0
M  V30 2455 H 237.102 -5.0815 1.29939 0
M  V30 2456 H 238.576 -5.50847 -0.356641 0
M  V30 2457 H 239.053 -4.16536 -1.39264 0
M  V30 2458 H 239.659 -4.24392 0.27772 0
M  V30 2459 N 237.974 -0.419461 -1.51915 0
M  V30 2460 C 239.223 0.154346 -2.01109 0
M  V30 2461 C 239.536 1.45338 -1.30905 0
M  V30 2462 O 240.742 2.10906 -1.7097 0
M  V30 2463 C 239.198 0.325615 -3.58424 0
M  V30 2464 C 238.806 -0.961934 -4.37551 0
M  V30 2465 C 240.55 0.854155 -4.15818 0
M  V30 2466 C 238.457 -0.757287 -5.86531 0
M  V30 2467 H 237.387 0.0614563 -0.751491 0
M  V30 2468 H 240.038 -0.54649 -1.75173 0
M  V30 2469 H 238.42 1.08903 -3.80731 0
M  V30 2470 H 239.594 -1.7323 -4.26999 0
M  V30 2471 H 237.909 -1.41766 -3.91524 0
M  V30 2472 H 240.506 1.02346 -5.24814 0
M  V30 2473 H 240.849 1.83172 -3.73837 0
M  V30 2474 H 241.382 0.149528 -3.97519 0
M  V30 2475 H 238.121 -1.70671 -6.32892 0
M  V30 2476 H 237.641 -0.0264061 -5.99794 0
M  V30 2477 H 239.32 -0.403482 -6.45741 0
M  V30 2478 N 239.452 1.56882 -0.150215 0
M  V30 2479 C 240.402 2.13501 0.800071 0
M  V30 2480 C 241.386 1.06368 1.20726 0
M  V30 2481 O 242.578 1.32538 1.17314 0
M  V30 2482 C 239.707 2.76271 2.03787 0
M  V30 2483 C 238.793 3.90533 1.65364 0
M  V30 2484 N 239.184 4.96259 0.977794 0
M  V30 2485 C 237.482 4.013 1.94613 0
M  V30 2486 C 238.183 5.76286 0.791794 0
M  V30 2487 N 237.159 5.27163 1.32666 0
M  V30 2488 H 240.961 2.92615 0.274517 0
M  V30 2489 H 238.475 1.62319 0.0512144 0
M  V30 2490 H 240.472 3.15197 2.72867 0
M  V30 2491 H 239.132 1.98631 2.56857 0
M  V30 2492 H 240.143 5.13953 0.638193 0
M  V30 2493 H 236.82 3.3474 2.4951 0
M  V30 2494 H 238.21 6.71401 0.258894 0
M  V30 2495 N 240.93 -0.123565 1.57115 0
M  V30 2496 C 242.341 -0.681198 1.73829 0
M  V30 2497 C 242.692 -1.80535 0.768214 0
M  V30 2498 O 241.817 -2.16317 -0.0599103 0
M  V30 2499 C 242.412 -1.24246 3.15196 0
M  V30 2500 C 240.971 -1.74643 3.33432 0
M  V30 2501 C 240.118 -0.644284 2.69711 0
M  V30 2502 H 243.069 0.102315 1.5837 0
M  V30 2503 H 243.09 -2.11216 3.16493 0
M  V30 2504 H 242.602 -0.424062 3.85776 0
M  V30 2505 H 240.703 -2.58974 2.67886 0
M  V30 2506 H 240.816 -1.85902 4.41562 0
M  V30 2507 H 239.18 -1.07676 2.3082 0
M  V30 2508 H 239.963 0.163058 3.42913 0
M  V30 2509 N 242.408 -1.52605 -0.393616 0
M  V30 2510 C 243.371 -1.76415 -1.46323 0
M  V30 2511 C 244.371 -0.634126 -1.47768 0
M  V30 2512 O 245.561 -0.902142 -1.4902 0
M  V30 2513 C 242.693 -1.8607 -2.85641 0
M  V30 2514 H 243.886 -2.71916 -1.26498 0
M  V30 2515 H 241.439 -1.43257 -0.625073 0
M  V30 2516 H 242.174 -0.925378 -3.10817 0
M  V30 2517 H 241.959 -2.68235 -2.85993 0
M  V30 2518 H 243.449 -2.06179 -3.63153 0
M  V30 2519 N 243.887 0.651787 -1.4349 0
M  V30 2520 C 245.112 1.44434 -1.48841 0
M  V30 2521 C 245.537 1.8779 -0.107955 0
M  V30 2522 O 244.895 1.57464 0.898602 0
M  V30 2523 C 244.943 2.65458 -2.44059 0
M  V30 2524 O 244.047 3.64566 -1.92784 0
M  V30 2525 H 243.388 0.433005 -0.503391 0
M  V30 2526 H 245.918 0.797451 -1.88419 0
M  V30 2527 H 245.928 3.13255 -2.6141 0
M  V30 2528 H 244.603 2.33244 -3.4434 0
M  V30 2529 H 243.18 3.23716 -1.851 0
M  V30 2530 N 245.365 1.30045 0.890287 0
M  V30 2531 C 246.312 1.15976 1.99545 0
M  V30 2532 C 247.282 0.0506202 1.66023 0
M  V30 2533 O 248.467 0.219847 1.89529 0
M  V30 2534 C 245.607 0.852054 3.34416 0
M  V30 2535 C 244.72 2.04255 3.80662 0
M  V30 2536 C 243.855 1.6734 5.04154 0
M  V30 2537 C 242.894 2.82916 5.42794 0
M  V30 2538 N 242.031 2.46333 6.57468 0
M  V30 2539 H 246.871 2.10524 2.10911 0
M  V30 2540 H 244.408 1.04749 1.03276 0
M  V30 2541 H 246.366 0.654296 4.12037 0
M  V30 2542 H 244.996 -0.0565502 3.2275 0
M  V30 2543 H 244.048 2.35172 2.98995 0
M  V30 2544 H 245.36 2.90826 4.05242 0
M  V30 2545 H 244.514 1.43908 5.89386 0
M  V30 2546 H 243.253 0.779308 4.81433 0
M  V30 2547 H 242.258 3.0702 4.56091 0
M  V30 2548 H 243.483 3.73004 5.6749 0
M  V30 2549 H 241.429 1.59423 6.36334 0
M  V30 2550 H 241.346 3.26436 6.81891 0
M  V30 2551 H 242.614 2.26244 7.45945 0
M  V30 2552 N 246.843 -1.10192 1.12674 0
M  V30 2553 C 247.775 -2.16418 0.754701 0
M  V30 2554 C 248.788 -1.61309 -0.21986 0
M  V30 2555 O 249.977 -1.785 -0.000826841 0
M  V30 2556 C 247.077 -3.38762 0.096698 0
M  V30 2557 C 246.25 -4.23307 1.10136 0
M  V30 2558 C 245.309 -5.24092 0.470513 0
M  V30 2559 O 244.335 -5.57906 1.12824 0
M  V30 2560 N 245.537 -5.75491 -0.760948 0
M  V30 2561 H 248.302 -2.48943 1.66875 0
M  V30 2562 H 245.863 -1.25834 1.01869 0
M  V30 2563 H 247.855 -4.03291 -0.337384 0
M  V30 2564 H 246.425 -3.04192 -0.720153 0
M  V30 2565 H 245.645 -3.55036 1.71299 0
M  V30 2566 H 246.933 -4.76624 1.78064 0
M  V30 2567 H 246.331 -5.50222 -1.31424 0
M  V30 2568 H 244.888 -6.41792 -1.13781 0
M  V30 2569 N 248.321 -0.919034 -1.28029 0
M  V30 2570 C 249.737 -0.617972 -1.4715 0
M  V30 2571 C 249.937 0.835242 -1.83374 0
M  V30 2572 O 248.993 1.61388 -1.94191 0
M  V30 2573 C 250.306 -1.56041 -2.57044 0
M  V30 2574 C 251.854 -1.56769 -2.7091 0
M  V30 2575 C 252.329 -2.49688 -3.83953 0
M  V30 2576 N 253.82 -2.47845 -3.91314 0
M  V30 2577 C 254.555 -3.16437 -4.78179 0
M  V30 2578 N 254.051 -3.94376 -5.69596 0
M  V30 2579 N 255.844 -3.05498 -4.71834 0
M  V30 2580 H 247.995 -1.85866 -1.02798 0
M  V30 2581 H 250.258 -0.797506 -0.512531 0
M  V30 2582 H 249.964 -2.59671 -2.372 0
M  V30 2583 H 249.838 -1.29551 -3.54255 0
M  V30 2584 H 252.225 -0.538745 -2.90141 0
M  V30 2585 H 252.306 -1.87305 -1.74214 0
M  V30 2586 H 251.95 -3.52688 -3.65477 0
M  V30 2587 H 251.88 -2.16453 -4.80058 0
M  V30 2588 H 254.371 -1.91234 -3.25941 0
M  V30 2589 H 254.684 -4.43721 -6.32718 0
M  V30 2590 H 253.029 -3.98481 -5.69419 0
M  V30 2591 H 256.22 -2.44108 -3.99411 0
M  V30 2592 H 256.393 -3.59225 -5.39316 0
M  V30 2593 N 249.799 1.42003 -0.683588 0
M  V30 2594 C 251.024 2.06265 -0.216647 0
M  V30 2595 C 251.449 1.51059 1.12083 0
M  V30 2596 O 250.807 0.632638 1.69904 0
M  V30 2597 C 250.855 3.60191 -0.171759 0
M  V30 2598 O 249.959 4.03396 0.857069 0
M  V30 2599 H 249.3 0.65502 -0.108834 0
M  V30 2600 H 251.83 1.81982 -0.935077 0
M  V30 2601 H 251.84 4.08 0.0014303 0
M  V30 2602 H 250.515 3.99743 -1.14796 0
M  V30 2603 H 249.092 3.67117 0.654208 0
M  V30 2604 N 251.277 0.427512 1.51691 0
M  V30 2605 C 252.187 -0.39527 2.31246 0
M  V30 2606 C 253.203 -1.03674 1.39742 0
M  V30 2607 O 254.379 -1.03425 1.72816 0
M  V30 2608 C 251.444 -1.48706 3.13189 0
M  V30 2609 C 250.505 -0.866743 4.20459 0
M  V30 2610 C 249.738 -1.90651 4.98486 0
M  V30 2611 O 249.961 -3.12733 4.77026 0
M  V30 2612 O 248.895 -1.5025 5.82845 0
M  V30 2613 H 252.721 0.253918 3.02637 0
M  V30 2614 H 250.306 0.190274 1.48183 0
M  V30 2615 H 252.188 -2.12047 3.64162 0
M  V30 2616 H 250.863 -2.12051 2.44573 0
M  V30 2617 H 249.77 -0.195544 3.73589 0
M  V30 2618 H 251.103 -0.276934 4.9142 0
M  V30 2619 N 252.755 -1.56801 0.158532 0
M  V30 2620 C 254.003 -1.96102 -0.488712 0
M  V30 2621 C 254.324 -1.04498 -1.64636 0
M  V30 2622 O 253.594 -0.108783 -1.95598 0
M  V30 2623 H 252.174 -0.724102 -0.183535 0
M  V30 2624 H 254.836 -1.93457 0.236728 0
M  V30 2625 H 253.932 -3.00097 -0.857219 0
M  V30 2626 N 254.233 0.115231 -1.57178 0
M  V30 2627 C 255.143 1.15994 -2.03918 0
M  V30 2628 C 256.159 1.45103 -0.960268 0
M  V30 2629 O 257.335 1.56144 -1.27204 0
M  V30 2630 C 254.4 2.46568 -2.43732 0
M  V30 2631 C 253.461 2.24822 -3.65723 0
M  V30 2632 C 252.694 3.4917 -4.03629 0
M  V30 2633 O 252.917 4.56623 -3.41835 0
M  V30 2634 O 251.851 3.39949 -4.96708 0
M  V30 2635 H 255.677 0.793019 -2.93164 0
M  V30 2636 H 253.262 0.3263 -1.45793 0
M  V30 2637 H 255.144 3.23492 -2.70057 0
M  V30 2638 H 253.819 2.82726 -1.57631 0
M  V30 2639 H 252.726 1.45744 -3.44542 0
M  V30 2640 H 254.059 1.93566 -4.52541 0
M  V30 2641 N 255.711 1.52812 0.385517 0
M  V30 2642 C 256.658 1.77838 1.47113 0
M  V30 2643 C 257.628 0.621757 1.54024 0
M  V30 2644 O 258.813 0.861846 1.70226 0
M  V30 2645 C 255.953 1.95618 2.84302 0
M  V30 2646 C 255.066 3.23316 2.86515 0
M  V30 2647 C 254.201 3.31394 4.15152 0
M  V30 2648 C 253.24 4.53201 4.1143 0
M  V30 2649 N 252.377 4.58542 5.3168 0
M  V30 2650 H 257.217 2.70482 1.25073 0
M  V30 2651 H 254.754 1.34006 0.606692 0
M  V30 2652 H 256.712 2.03912 3.63972 0
M  V30 2653 H 255.342 1.06331 3.04784 0
M  V30 2654 H 254.394 3.24076 1.99195 0
M  V30 2655 H 255.706 4.13045 2.79634 0
M  V30 2656 H 254.86 3.3889 5.03228 0
M  V30 2657 H 253.599 2.39645 4.24761 0
M  V30 2658 H 252.604 4.45827 3.21742 0
M  V30 2659 H 253.829 5.46271 4.03442 0
M  V30 2660 H 251.775 3.69686 5.41912 0
M  V30 2661 H 251.692 5.42148 5.26889 0
M  V30 2662 H 252.96 4.70296 6.21644 0
M  V30 2663 N 257.189 -0.644168 1.43834 0
M  V30 2664 C 258.435 -1.40603 1.46146 0
M  V30 2665 C 258.768 -1.93997 0.0887717 0
M  V30 2666 O 258.043 -1.72854 -0.891724 0
M  V30 2667 C 258.326 -2.58086 2.51124 0
M  V30 2668 C 258.179 -2.10126 3.97702 0
M  V30 2669 C 259.498 -3.60291 2.52742 0
M  V30 2670 H 256.617 -0.509905 0.532134 0
M  V30 2671 H 259.259 -0.729502 1.75437 0
M  V30 2672 H 257.409 -3.15801 2.26278 0
M  V30 2673 H 259.081 -1.57342 4.33637 0
M  V30 2674 H 257.324 -1.41419 4.10101 0
M  V30 2675 H 257.995 -2.94649 4.66783 0
M  V30 2676 H 260.471 -3.12352 2.7491 0
M  V30 2677 H 259.347 -4.40032 3.28121 0
M  V30 2678 H 259.608 -4.1349 1.56455 0
M  V30 2679 N 258.668 -1.30515 -0.883378 0
M  V30 2680 C 260.084 -1.08881 -1.16692 0
M  V30 2681 C 260.284 0.149409 -2.00945 0
M  V30 2682 O 259.34 0.84257 -2.38027 0
M  V30 2683 C 260.653 -2.35319 -1.87204 0
M  V30 2684 C 262.201 -2.40799 -1.99962 0
M  V30 2685 C 262.676 -3.67083 -2.73887 0
M  V30 2686 N 264.167 -3.679 -2.81432 0
M  V30 2687 C 264.902 -4.62303 -3.3921 0
M  V30 2688 N 264.398 -5.67052 -3.98025 0
M  V30 2689 N 266.191 -4.49845 -3.3704 0
M  V30 2690 H 258.342 -2.09951 -0.321633 0
M  V30 2691 H 260.605 -0.92556 -0.205043 0
M  V30 2692 H 260.311 -3.25689 -1.3274 0
M  V30 2693 H 260.185 -2.44089 -2.87577 0
M  V30 2694 H 262.572 -1.50907 -2.53597 0
M  V30 2695 H 262.653 -2.36003 -0.98673 0
M  V30 2696 H 262.297 -4.57334 -2.20925 0
M  V30 2697 H 262.227 -3.69141 -3.75556 0
M  V30 2698 H 264.718 -2.92171 -2.39676 0
M  V30 2699 H 265.031 -6.35184 -4.40183 0
M  V30 2700 H 263.376 -5.70842 -3.96439 0
M  V30 2701 H 266.567 -3.67194 -2.90321 0
M  V30 2702 H 266.74 -5.23597 -3.81772 0
M  V30 2703 N 260.146 1.09593 -1.13257 0
M  V30 2704 C 261.392 1.82003 -0.89458 0
M  V30 2705 C 261.725 1.85402 0.577906 0
M  V30 2706 O 261 1.32099 1.42759 0
M  V30 2707 C 261.283 3.28237 -1.48096 0
M  V30 2708 C 261.136 3.3312 -3.02244 0
M  V30 2709 C 262.455 4.24871 -1.14774 0
M  V30 2710 H 259.574 0.66077 -0.326424 0
M  V30 2711 H 262.216 1.28389 -1.40058 0
M  V30 2712 H 260.366 3.74024 -1.05062 0
M  V30 2713 H 262.038 2.95748 -3.54021 0
M  V30 2714 H 260.281 2.72756 -3.37323 0
M  V30 2715 H 260.952 4.3613 -3.38371 0
M  V30 2716 H 263.428 3.87361 -1.51957 0
M  V30 2717 H 262.304 5.25532 -1.58452 0
M  V30 2718 H 262.565 4.42058 -0.0611849 0
M  V30 2719 N 261.624 0.925811 1.2754 0
M  V30 2720 C 262.872 0.564138 1.94067 0
M  V30 2721 C 263.193 -0.897188 1.73134 0
M  V30 2722 O 262.463 -1.63573 1.07799 0
M  V30 2723 H 261.043 0.205645 0.718136 0
M  V30 2724 H 263.705 1.1778 1.55287 0
M  V30 2725 H 262.801 0.76881 3.02483 0
M  V30 2726 N 263.102 -1.41638 0.69111 0
M  V30 2727 C 264.379 -1.95036 0.148421 0
M  V30 2728 C 264.759 -1.63072 -1.34055 0
M  V30 2729 O 264.107 -0.93538 -2.08478 0
M  V30 2730 C 264.317 -3.46279 0.434951 0
M  V30 2731 C 265.665 -4.23069 0.360275 0
M  V30 2732 O 266.689 -3.54277 0.369613 0
M  V30 2733 O 265.548 -5.45583 0.316534 0
M  V30 2734 H 262.642 -0.826908 0.0123654 0
M  V30 2735 H 265.188 -1.5138 0.766963 0
M  V30 2736 H 263.96 -3.6281 1.46576 0
M  V30 2737 H 263.583 -3.97019 -0.214787 0
M  V30 2738 N 264.58 -0.43555 -1.51462 0
M  V30 2739 C 265.857 0.191364 -1.94662 0
M  V30 2740 C 266.237 1.60254 -1.37411 0
M  V30 2741 O 265.585 2.2152 -0.560458 0
M  V30 2742 C 265.795 0.17091 -3.48581 0
M  V30 2743 C 267.143 0.377357 -4.2292 0
M  V30 2744 O 268.167 0.249104 -3.55328 0
M  V30 2745 O 267.026 0.63247 -5.42828 0
M  V30 2746 H 264.12 0.130932 -0.816569 0
M  V30 2747 H 266.666 -0.4934 -1.62369 0
M  V30 2748 H 265.438 -0.815738 -3.82703 0
M  V30 2749 H 265.061 0.898659 -3.87311 0
M  V30 2750 N 266.058 1.56714 -0.166846 0
M  V30 2751 C 266.988 2.20754 0.760913 0
M  V30 2752 C 267.969 1.16178 1.24244 0
M  V30 2753 O 269.154 1.44592 1.29641 0
M  V30 2754 C 266.284 2.84478 1.99223 0
M  V30 2755 C 265.238 3.95053 1.64672 0
M  V30 2756 C 264.564 4.45805 2.95232 0
M  V30 2757 C 265.864 5.14865 0.878155 0
M  V30 2758 H 267.558 2.98537 0.22713 0
M  V30 2759 H 265.104 1.43596 0.107805 0
M  V30 2760 H 267.057 3.27951 2.64624 0
M  V30 2761 H 265.781 2.04056 2.55007 0
M  V30 2762 H 264.44 3.52228 1.01641 0
M  V30 2763 H 264.088 3.62181 3.49047 0
M  V30 2764 H 263.788 5.204 2.7287 0
M  V30 2765 H 265.312 4.91962 3.6167 0
M  V30 2766 H 266.726 5.55059 1.43466 0
M  V30 2767 H 265.123 5.95348 0.753738 0
M  V30 2768 H 266.193 4.84735 -0.126377 0
M  V30 2769 N 267.536 -0.106894 1.57237 0
M  V30 2770 C 268.785 -0.811163 1.8467 0
M  V30 2771 C 269.098 -1.80469 0.754342 0
M  V30 2772 O 270.304 -2.55601 0.915439 0
M  V30 2773 C 268.76 -1.49337 3.27454 0
M  V30 2774 C 268.368 -0.540217 4.44731 0
M  V30 2775 C 270.112 -2.18206 3.64124 0
M  V30 2776 C 268.019 -1.22634 5.78545 0
M  V30 2777 H 266.949 -0.306679 0.688813 0
M  V30 2778 H 269.6 -0.0639887 1.83388 0
M  V30 2779 H 267.982 -2.2876 3.23241 0
M  V30 2780 H 269.156 0.221659 4.60267 0
M  V30 2781 H 267.471 0.042146 4.16379 0
M  V30 2782 H 270.068 -2.70253 4.61376 0
M  V30 2783 H 270.411 -2.96562 2.92158 0
M  V30 2784 H 270.944 -1.45658 3.70174 0
M  V30 2785 H 267.683 -0.483832 6.53712 0
M  V30 2786 H 267.203 -1.95993 5.66874 0
M  V30 2787 H 268.882 -1.75615 6.2271 0
M  V30 2788 N 269.014 -1.53014 -0.377408 0
M  V30 2789 C 269.944 -1.81589 -1.46791 0
M  V30 2790 C 270.925 -0.668622 -1.56408 0
M  V30 2791 O 272.11 -0.917337 -1.71168 0
M  V30 2792 C 269.24 -1.99519 -2.8427 0
M  V30 2793 C 268.194 -3.15249 -2.89486 0
M  V30 2794 C 267.52 -3.18451 -4.29527 0
M  V30 2795 C 268.82 -4.54084 -2.58079 0
M  V30 2796 H 270.514 -2.7291 -1.23127 0
M  V30 2797 H 268.06 -1.31319 -0.590883 0
M  V30 2798 H 270.013 -2.18092 -3.60575 0
M  V30 2799 H 268.737 -1.04897 -3.09296 0
M  V30 2800 H 267.396 -2.96477 -2.15631 0
M  V30 2801 H 267.044 -2.2149 -4.5161 0
M  V30 2802 H 266.744 -3.962 -4.33934 0
M  V30 2803 H 268.268 -3.39193 -5.07721 0
M  V30 2804 H 269.682 -4.72899 -3.24098 0
M  V30 2805 H 268.079 -5.33987 -2.7382 0
M  V30 2806 H 269.149 -4.60006 -1.53372 0
M  V30 2807 N 270.492 0.636531 -1.44174 0
M  V30 2808 C 271.738 1.39826 -1.4689 0
M  V30 2809 C 272.071 1.93947 -0.0990585 0
M  V30 2810 O 271.346 1.73325 0.882544 0
M  V30 2811 C 271.629 2.56751 -2.5249 0
M  V30 2812 C 271.482 2.08014 -3.98811 0
M  V30 2813 C 272.801 3.58946 -2.54649 0
M  V30 2814 H 269.92 0.507075 -0.53483 0
M  V30 2815 H 272.562 0.720188 -1.75822 0
M  V30 2816 H 270.712 3.14597 -2.2795 0
M  V30 2817 H 272.384 1.5504 -4.34466 0
M  V30 2818 H 270.627 1.39242 -4.10846 0
M  V30 2819 H 271.298 2.92169 -4.68339 0
M  V30 2820 H 273.774 3.1089 -2.76563 0
M  V30 2821 H 272.65 4.38286 -3.3045 0
M  V30 2822 H 272.911 4.12655 -1.58646 0
M  V30 2823 N 271.97 1.30982 0.876444 0
M  V30 2824 C 273.195 1.23373 1.66715 0
M  V30 2825 C 273.62 -0.19885 1.87046 0
M  V30 2826 O 272.978 -1.1427 1.40756 0
M  V30 2827 C 273.026 1.97644 3.01611 0
M  V30 2828 O 272.13 1.30935 3.91062 0
M  V30 2829 H 271.471 0.426279 0.509099 0
M  V30 2830 H 274.001 1.72944 1.09323 0
M  V30 2831 H 274.011 2.06992 3.51594 0
M  V30 2832 H 272.686 3.01829 2.86133 0
M  V30 2833 H 271.263 1.29996 3.49507 0
M  V30 2834 N 273.449 -1.08991 1.13837 0
M  V30 2835 C 274.695 -1.81526 0.90422 0
M  V30 2836 C 275.028 -1.85706 -0.568066 0
M  V30 2837 O 274.303 -1.32855 -1.42056 0
M  V30 2838 C 274.586 -3.27447 1.49835 0
M  V30 2839 C 274.439 -3.31512 3.04006 0
M  V30 2840 C 275.758 -4.24256 1.17025 0
M  V30 2841 H 272.877 -0.659029 0.329923 0
M  V30 2842 H 275.519 -1.27644 1.40737 0
M  V30 2843 H 273.669 -3.73462 1.07044 0
M  V30 2844 H 275.341 -2.93867 3.55584 0
M  V30 2845 H 273.584 -2.70963 3.38765 0
M  V30 2846 H 274.255 -4.34329 3.40679 0
M  V30 2847 H 276.731 -3.86549 1.54009 0
M  V30 2848 H 275.607 -5.24684 1.61237 0
M  V30 2849 H 275.868 -4.42019 0.0846274 0
M  V30 2850 N 274.927 -0.932562 -1.27047 0
M  V30 2851 C 276.152 -0.591474 -1.98787 0
M  V30 2852 C 276.577 0.824601 -1.69062 0
M  V30 2853 O 275.935 1.5541 -0.933677 0
M  V30 2854 C 275.983 -0.829808 -3.50922 0
M  V30 2855 O 275.087 0.102266 -4.12273 0
M  V30 2856 H 274.428 -0.227185 -0.623926 0
M  V30 2857 H 276.958 -1.25314 -1.61733 0
M  V30 2858 H 276.968 -0.747292 -4.01098 0
M  V30 2859 H 275.643 -1.86201 -3.7189 0
M  V30 2860 H 274.22 -0.0305761 -3.72887 0
M  V30 2861 N 276.405 1.4127 -0.698611 0
M  V30 2862 C 277.63 2.06024 -0.238512 0
M  V30 2863 C 278.055 1.5224 1.10475 0
M  V30 2864 O 277.413 0.650623 1.69223 0
M  V30 2865 C 277.461 3.59988 -0.209952 0
M  V30 2866 O 276.565 4.04282 0.814235 0
M  V30 2867 H 275.906 0.653829 -0.115775 0
M  V30 2868 H 278.436 1.8098 -0.954326 0
M  V30 2869 H 278.446 4.07979 -0.0418436 0
M  V30 2870 H 277.121 3.98503 -1.1903 0
M  V30 2871 H 275.698 3.6779 0.615234 0
M  V30 2872 N 277.883 0.443576 1.51229 0
M  V30 2873 C 278.793 -0.370721 2.31652 0
M  V30 2874 C 279.809 -1.02186 1.40833 0
M  V30 2875 O 280.985 -1.01586 1.73903 0
M  V30 2876 C 278.05 -1.45376 3.14749 0
M  V30 2877 C 277.111 -0.822099 4.21355 0
M  V30 2878 C 276.344 -1.85353 5.0048 0
M  V30 2879 O 276.567 -3.07656 4.80316 0
M  V30 2880 O 275.501 -1.4406 5.84406 0
M  V30 2881 H 279.327 0.286002 3.0235 0
M  V30 2882 H 276.912 0.20598 1.47973 0
M  V30 2883 H 278.794 -2.08173 3.66391 0
M  V30 2884 H 277.469 -2.09445 2.46809 0
M  V30 2885 H 276.376 -0.155909 3.73775 0
M  V30 2886 H 277.709 -0.224797 4.91686 0
M  V30 2887 N 279.361 -1.56624 0.175154 0
M  V30 2888 C 280.777 -1.58571 -0.180966 0
M  V30 2889 C 280.977 -1.19065 -1.6256 0
M  V30 2890 O 280.033 -0.904044 -2.35761 0
M  V30 2891 C 281.346 -3.00522 0.103326 0
M  V30 2892 C 282.894 -3.12972 0.0418426 0
M  V30 2893 C 283.369 -4.57022 0.299175 0
M  V30 2894 N 284.86 -4.62541 0.247086 0
M  V30 2895 C 285.595 -5.71857 0.420318 0
M  V30 2896 N 285.091 -6.89717 0.652816 0
M  V30 2897 N 286.884 -5.60972 0.355957 0
M  V30 2898 H 279.035 -1.80589 1.11809 0
M  V30 2899 H 281.298 -0.837178 0.444788 0
M  V30 2900 H 281.004 -3.33916 1.10422 0
M  V30 2901 H 280.878 -3.72344 -0.603299 0
M  V30 2902 H 283.265 -2.79403 -0.949636 0
M  V30 2903 H 283.346 -2.43578 0.781238 0
M  V30 2904 H 282.99 -4.913 1.28788 0
M  V30 2905 H 282.92 -5.24579 -0.460876 0
M  V30 2906 H 285.411 -3.77829 0.0731895 0
M  V30 2907 H 285.724 -7.68911 0.774347 0
M  V30 2908 H 284.069 -6.91572 0.689476 0
M  V30 2909 H 287.26 -4.67773 0.174882 0
M  V30 2910 H 287.433 -6.46111 0.494388 0
M  V30 2911 N 280.839 0.0985539 -1.57292 0
M  V30 2912 C 282.069 0.815135 -1.8984 0
M  V30 2913 C 282.477 1.7297 -0.766679 0
M  V30 2914 O 281.82 1.81698 0.270483 0
M  V30 2915 C 281.882 1.6842 -3.17608 0
M  V30 2916 C 281.546 0.94182 -4.4719 0
M  V30 2917 C 282.543 0.273212 -5.19182 0
M  V30 2918 C 280.228 0.916927 -4.9386 0
M  V30 2919 C 282.222 -0.410361 -6.36078 0
M  V30 2920 C 279.909 0.229567 -6.10669 0
M  V30 2921 C 280.907 -0.432902 -6.81627 0
M  V30 2922 O 280.595 -1.10925 -7.9621 0
M  V30 2923 H 280.327 0.238501 -0.632529 0
M  V30 2924 H 282.881 0.0812659 -2.05239 0
M  V30 2925 H 281.111 2.46022 -2.98345 0
M  V30 2926 H 282.8 2.27704 -3.36015 0
M  V30 2927 H 283.566 0.283927 -4.84168 0
M  V30 2928 H 279.445 1.42201 -4.3852 0
M  V30 2929 H 282.989 -0.928013 -6.914 0
M  V30 2930 H 278.886 0.216686 -6.45136 0
M  V30 2931 H 279.654 -1.01579 -8.12172 0
M  V30 2932 N 282.317 1.53212 0.369288 0
M  V30 2933 C 283.247 1.82365 1.45826 0
M  V30 2934 C 284.228 0.676907 1.56051 0
M  V30 2935 O 285.413 0.926401 1.70679 0
M  V30 2936 C 282.543 2.01023 2.83208 0
M  V30 2937 C 281.497 3.1678 2.8781 0
M  V30 2938 C 280.823 3.20724 4.27832 0
M  V30 2939 C 282.123 4.55447 2.55667 0
M  V30 2940 H 283.817 2.73559 1.21678 0
M  V30 2941 H 281.363 1.3163 0.583911 0
M  V30 2942 H 283.316 2.20001 3.59413 0
M  V30 2943 H 282.04 1.06536 3.08736 0
M  V30 2944 H 280.699 2.97616 2.14056 0
M  V30 2945 H 280.347 2.23882 4.50429 0
M  V30 2946 H 280.047 3.98496 4.31827 0
M  V30 2947 H 281.571 3.41881 5.05915 0
M  V30 2948 H 282.985 4.74611 3.21586 0
M  V30 2949 H 281.382 5.35432 2.70984 0
M  V30 2950 H 282.452 4.60812 1.5093 0
M  V30 2951 N 283.795 -0.628877 1.44509 0
M  V30 2952 C 284.745 -1.7345 1.47983 0
M  V30 2953 C 285.729 -1.5715 0.345373 0
M  V30 2954 O 286.921 -1.66848 0.590829 0
M  V30 2955 C 284.05 -3.12143 1.42904 0
M  V30 2956 C 283.136 -3.33906 2.61472 0
M  V30 2957 N 283.527 -3.26024 3.86706 0
M  V30 2958 C 281.825 -3.64709 2.56716 0
M  V30 2959 C 282.526 -3.48536 4.65722 0
M  V30 2960 N 281.502 -3.71517 3.96832 0
M  V30 2961 H 285.304 -1.65818 2.42655 0
M  V30 2962 H 282.818 -0.831419 1.39503 0
M  V30 2963 H 284.815 -3.91433 1.43476 0
M  V30 2964 H 283.475 -3.2094 0.492717 0
M  V30 2965 H 284.486 -3.04893 4.18641 0
M  V30 2966 H 281.163 -3.80473 1.71891 0
M  V30 2967 H 282.553 -3.48016 5.74747 0
M  V30 2968 N 285.273 -1.31445 -0.869486 0
M  V30 2969 C 286.203 -1.21727 -1.99261 0
M  V30 2970 C 287.184 -0.104359 -1.6978 0
M  V30 2971 O 288.369 -0.289038 -1.92037 0
M  V30 2972 C 285.499 -0.924317 -3.34774 0
M  V30 2973 C 284.453 -1.99685 -3.78563 0
M  V30 2974 C 283.779 -1.55658 -5.11541 0
M  V30 2975 C 285.079 -3.41003 -3.95619 0
M  V30 2976 H 286.773 -2.1569 -2.07649 0
M  V30 2977 H 284.319 -1.03839 -0.997675 0
M  V30 2978 H 286.272 -0.842934 -4.12883 0
M  V30 2979 H 284.996 0.0509793 -3.2656 0
M  V30 2980 H 283.655 -2.06813 -3.02694 0
M  V30 2981 H 283.303 -0.569132 -4.9977 0
M  V30 2982 H 283.003 -2.27409 -5.41811 0
M  V30 2983 H 284.527 -1.48928 -5.92159 0
M  V30 2984 H 285.941 -3.36547 -4.64122 0
M  V30 2985 H 284.338 -4.10975 -4.37286 0
M  V30 2986 H 285.408 -3.81754 -2.98985 0
M  V30 2987 N 286.751 1.08385 -1.14413 0
M  V30 2988 C 287.976 1.85057 -0.936413 0
M  V30 2989 C 288.401 1.81055 0.509971 0
M  V30 2990 O 287.759 1.1958 1.36273 0
M  V30 2991 C 287.807 3.30505 -1.44217 0
M  V30 2992 O 286.911 4.07491 -0.634409 0
M  V30 2993 H 286.252 0.573425 -0.334784 0
M  V30 2994 H 288.782 1.36799 -1.52142 0
M  V30 2995 H 288.792 3.81348 -1.45043 0
M  V30 2996 H 287.467 3.32734 -2.49522 0
M  V30 2997 H 286.044 3.66368 -0.694902 0
M  V30 2998 N 288.23 0.939286 1.26551 0
M  V30 2999 C 289.46 0.601663 1.97645 0
M  V30 3000 C 289.868 -0.827206 1.70159 0
M  V30 3001 O 289.211 -1.56291 0.965338 0
M  V30 3002 C 289.273 0.761725 3.51337 0
M  V30 3003 C 288.937 2.16487 4.0247 0
M  V30 3004 C 289.934 3.14016 4.14355 0
M  V30 3005 C 287.619 2.48494 4.36527 0
M  V30 3006 C 289.613 4.41654 4.59587 0
M  V30 3007 C 287.3 3.76364 4.81449 0
M  V30 3008 C 288.298 4.72758 4.92939 0
M  V30 3009 O 287.986 5.98352 5.36871 0
M  V30 3010 H 287.718 0.225758 0.637189 0
M  V30 3011 H 290.272 1.26178 1.62075 0
M  V30 3012 H 288.502 0.0444808 3.86674 0
M  V30 3013 H 290.191 0.427442 4.03643 0
M  V30 3014 H 290.957 2.90613 3.8829 0
M  V30 3015 H 286.836 1.74202 4.26819 0
M  V30 3016 H 290.38 5.16896 4.68471 0
M  V30 3017 H 286.277 3.99582 5.06956 0
M  V30 3018 H 287.045 6.01507 5.55096 0
M  V30 3019 N 289.708 -1.40897 0.706093 0
M  V30 3020 C 290.956 -2.00657 0.241054 0
M  V30 3021 C 291.277 -1.56241 -1.16678 0
M  V30 3022 O 290.547 -0.79765 -1.78926 0
M  V30 3023 H 289.127 -0.742018 0.0861308 0
M  V30 3024 H 291.789 -1.72372 0.909604 0
M  V30 3025 H 290.885 -3.10958 0.266705 0
M  V30 3026 N 291.186 -0.45159 -1.50991 0
M  V30 3027 C 292.134 0.366864 -2.29689 0
M  V30 3028 C 293.128 1.00809 -1.36139 0
M  V30 3029 O 294.334 0.941427 -1.53418 0
M  V30 3030 H 290.709 0.137133 -0.739391 0
M  V30 3031 H 292.68 -0.317538 -2.96706 0
M  V30 3032 C 291.429 1.44751 -3.16137 0
M  V30 3033 H 290.752 0.963473 -3.88017 0
M  V30 3034 H 292.192 1.99315 -3.74232 0
M  V30 3035 C 290.651 2.43869 -2.32442 0
M  V30 3036 O 291.181 3.4872 -1.99392 0
M  V30 3037 N 289.387 2.15105 -1.95392 0
M  V30 3038 H 288.934 1.29866 -2.22469 0
M  V30 3039 H 288.892 2.81661 -1.39693 0
M  V30 3040 N 292.664 1.56529 -0.183458 0
M  V30 3041 C 293.912 1.96855 0.457452 0
M  V30 3042 C 294.233 1.07104 1.62953 0
M  V30 3043 O 293.503 0.139887 1.954 0
M  V30 3044 H 292.083 0.72693 0.171992 0
M  V30 3045 H 294.745 1.93056 -0.267476 0
M  V30 3046 H 293.841 3.01423 0.809368 0
M  V30 3047 N 294.142 -0.090211 1.57342 0
M  V30 3048 C 295.367 -0.810082 1.90925 0
M  V30 3049 C 295.792 -1.71248 0.778187 0
M  V30 3050 O 295.15 -1.79278 -0.269991 0
M  V30 3051 C 295.198 -1.59529 3.23393 0
M  V30 3052 O 294.302 -2.70461 3.11327 0
M  V30 3053 H 293.643 -0.222231 0.625707 0
M  V30 3054 H 296.173 -0.0639716 2.045 0
M  V30 3055 H 296.183 -1.97847 3.5682 0
M  V30 3056 H 294.858 -0.933055 4.05299 0
M  V30 3057 H 293.435 -2.35135 2.89423 0
M  V30 3058 N 295.62 -1.53406 -0.361157 0
M  V30 3059 C 296.55 -1.83136 -1.44857 0
M  V30 3060 C 297.531 -0.685174 -1.5569 0
M  V30 3061 O 298.716 -0.93544 -1.70186 0
M  V30 3062 C 295.846 -2.02522 -2.82138 0
M  V30 3063 C 294.8 -3.18302 -2.86126 0
M  V30 3064 C 294.126 -3.22989 -4.26125 0
M  V30 3065 C 295.426 -4.56796 -2.53248 0
M  V30 3066 H 297.12 -2.74201 -1.20226 0
M  V30 3067 H 294.666 -1.31938 -0.576922 0
M  V30 3068 H 296.619 -2.21904 -3.58241 0
M  V30 3069 H 295.343 -1.08172 -3.08166 0
M  V30 3070 H 294.002 -2.98747 -2.12475 0
M  V30 3071 H 293.65 -2.26267 -4.49235 0
M  V30 3072 H 293.35 -4.00781 -4.29708 0
M  V30 3073 H 294.874 -3.44559 -5.04094 0
M  V30 3074 H 296.288 -4.7631 -3.19064 0
M  V30 3075 H 294.685 -5.36862 -2.68141 0
M  V30 3076 H 295.755 -4.61606 -1.48484 0
M  V30 3077 N 297.098 0.621204 -1.44841 0
M  V30 3078 C 298.048 1.72663 -1.48901 0
M  V30 3079 C 299.032 1.56964 -0.353702 0
M  V30 3080 O 300.224 1.66532 -0.599669 0
M  V30 3081 C 297.353 3.11381 -1.44557 0
M  V30 3082 C 296.439 3.32514 -2.6324 0
M  V30 3083 N 296.83 3.23969 -3.8843 0
M  V30 3084 C 295.128 3.63343 -2.58647 0
M  V30 3085 C 295.829 3.46062 -4.67564 0
M  V30 3086 N 294.805 3.69407 -3.98797 0
M  V30 3087 H 298.607 1.64529 -2.43531 0
M  V30 3088 H 296.121 0.82401 -1.39942 0
M  V30 3089 H 298.118 3.90667 -1.4555 0
M  V30 3090 H 296.778 3.20674 -0.509731 0
M  V30 3091 H 297.789 3.02669 -4.20252 0
M  V30 3092 H 294.466 3.79556 -1.73906 0
M  V30 3093 H 295.856 3.44963 -5.76585 0
M  V30 3094 N 298.576 1.31904 0.862503 0
M  V30 3095 C 299.822 1.22197 1.61851 0
M  V30 3096 C 300.155 -0.217641 1.92977 0
M  V30 3097 O 299.43 -1.15264 1.56666 0
M  V30 3098 C 299.713 2.07378 2.94391 0
M  V30 3099 C 299.566 3.59678 2.70096 0
M  V30 3100 C 300.885 1.92891 3.95577 0
M  V30 3101 H 298.004 0.445255 0.587296 0
M  V30 3102 H 300.646 1.6177 0.99651 0
M  V30 3103 H 298.796 1.73758 3.47477 0
M  V30 3104 H 300.468 4.03472 2.23625 0
M  V30 3105 H 298.711 3.82735 2.04197 0
M  V30 3106 H 299.382 4.14595 3.64438 0
M  V30 3107 H 301.858 2.22327 3.51724 0
M  V30 3108 H 300.734 2.54781 4.86187 0
M  V30 3109 H 300.995 0.894315 4.3296 0
M  V30 3110 N 300.054 -1.07777 1.14986 0
M  V30 3111 C 301.331 -1.7699 0.832695 0
M  V30 3112 C 301.711 -2.001 -0.672561 0
M  V30 3113 O 301.059 -1.61598 -1.6155 0
M  V30 3114 C 301.269 -3.08139 1.63863 0
M  V30 3115 C 302.617 -3.8256 1.84208 0
M  V30 3116 O 303.641 -3.17939 1.60603 0
M  V30 3117 O 302.5 -4.98612 2.23714 0
M  V30 3118 H 299.594 -0.768389 0.305791 0
M  V30 3119 H 302.14 -1.14182 1.25541 0
M  V30 3120 H 300.912 -2.86909 2.6608 0
M  V30 3121 H 300.535 -3.78678 1.21197 0
M  V30 3122 N 301.532 -0.945985 -1.26051 0
M  V30 3123 C 302.495 -0.463897 -2.24456 0
M  V30 3124 C 303.495 0.427655 -1.55009 0
M  V30 3125 O 304.685 0.226157 -1.72726 0
M  V30 3126 C 301.817 0.330812 -3.39291 0
M  V30 3127 H 303.01 -1.33357 -2.68619 0
M  V30 3128 H 300.563 -0.728416 -1.38289 0
M  V30 3129 H 301.298 1.21852 -3.00537 0
M  V30 3130 H 301.083 -0.308679 -3.90883 0
M  V30 3131 H 302.573 0.657865 -4.12386 0
M  V30 3132 N 303.011 1.40521 -0.713556 0
M  V30 3133 C 303.974 2.29098 -0.0684347 0
M  V30 3134 C 304.974 1.45268 0.689472 0
M  V30 3135 O 306.164 1.66205 0.521677 0
M  V30 3136 C 303.296 3.28446 0.913024 0
M  V30 3137 H 304.489 2.87645 -0.84855 0
M  V30 3138 H 302.042 1.48809 -0.47809 0
M  V30 3139 H 302.777 2.74913 1.72027 0
M  V30 3140 H 302.562 3.90327 0.372472 0
M  V30 3141 H 304.052 3.94777 1.36165 0
M  V30 3142 N 304.489 0.459591 1.5075 0
M  V30 3143 C 305.736 -0.0993495 2.02256 0
M  V30 3144 C 306.064 -1.40751 1.34237 0
M  V30 3145 O 305.319 -1.90379 0.453228 0
M  V30 3146 C 305.618 -0.342866 3.55752 0
M  V30 3147 C 305.284 0.88218 4.42186 0
M  V30 3148 C 303.946 1.21808 4.65528 0
M  V30 3149 C 306.298 1.69837 4.92752 0
M  V30 3150 C 303.626 2.37045 5.36681 0
M  V30 3151 C 305.978 2.84192 5.65171 0
M  V30 3152 C 304.642 3.1821 5.8677 0
M  V30 3153 H 303.912 -0.0363545 0.740108 0
M  V30 3154 H 306.559 0.611329 1.8148 0
M  V30 3155 H 304.864 -1.13567 3.7498 0
M  V30 3156 H 306.561 -0.789121 3.93159 0
M  V30 3157 H 303.151 0.610467 4.2423 0
M  V30 3158 H 307.335 1.45205 4.74583 0
M  V30 3159 H 302.591 2.63689 5.51614 0
M  V30 3160 H 306.765 3.4779 6.03337 0
M  V30 3161 H 304.392 4.07613 6.41682 0
M  V30 3162 N 305.967 -1.56429 0.191757 0
M  V30 3163 C 306.899 -2.16154 -0.762245 0
M  V30 3164 C 307.912 -1.12247 -1.17917 0
M  V30 3165 O 309.101 -1.39353 -1.11548 0
M  V30 3166 C 306.201 -2.70606 -2.04024 0
M  V30 3167 C 305.374 -3.99381 -1.78364 0
M  V30 3168 C 304.433 -4.38692 -2.90578 0
M  V30 3169 O 303.459 -5.06179 -2.6033 0
M  V30 3170 N 304.661 -4.01922 -4.18854 0
M  V30 3171 H 307.426 -2.98643 -0.251526 0
M  V30 3172 H 304.987 -1.61897 0.00967373 0
M  V30 3173 H 306.979 -2.93891 -2.78227 0
M  V30 3174 H 305.549 -1.9259 -2.46227 0
M  V30 3175 H 304.769 -3.84262 -0.879581 0
M  V30 3176 H 306.057 -4.83445 -1.58614 0
M  V30 3177 H 305.455 -3.47631 -4.46283 0
M  V30 3178 H 304.012 -4.30165 -4.89695 0
M  V30 3179 N 307.445 0.0818655 -1.57387 0
M  V30 3180 C 308.377 1.12484 -1.997 0
M  V30 3181 C 309.39 1.35564 -0.90146 0
M  V30 3182 O 310.579 1.33982 -1.17945 0
M  V30 3183 C 307.679 2.47778 -2.31213 0
M  V30 3184 C 306.852 2.44793 -3.62485 0
M  V30 3185 C 305.911 3.62117 -3.81782 0
M  V30 3186 O 304.937 3.44005 -4.53486 0
M  V30 3187 N 306.139 4.82094 -3.23367 0
M  V30 3188 H 308.904 0.764585 -2.89783 0
M  V30 3189 H 306.465 0.270664 -1.59621 0
M  V30 3190 H 308.457 3.24891 -2.41304 0
M  V30 3191 H 307.027 2.75843 -1.4707 0
M  V30 3192 H 306.247 1.53134 -3.6324 0
M  V30 3193 H 307.535 2.39889 -4.48699 0
M  V30 3194 H 306.933 4.99713 -2.65148 0
M  V30 3195 H 305.49 5.56753 -3.38923 0
M  V30 3196 N 308.923 1.53595 0.353017 0
M  V30 3197 C 310.151 1.74311 1.1146 0
M  V30 3198 C 310.566 0.477854 1.82653 0
M  V30 3199 O 309.923 -0.549977 1.74016 0
M  V30 3200 C 309.974 2.91694 2.13534 0
M  V30 3201 O 309.695 4.13325 1.45238 0
M  V30 3202 C 311.196 3.24384 3.02142 0
M  V30 3203 H 308.416 0.582669 0.332773 0
M  V30 3204 H 310.96 2.00386 0.408107 0
M  V30 3205 H 309.115 2.67977 2.79763 0
M  V30 3206 H 309.529 4.79148 2.13349 0
M  V30 3207 H 311.003 4.09893 3.69718 0
M  V30 3208 H 311.48 2.40282 3.67643 0
M  V30 3209 H 312.086 3.50073 2.41514 0
M  V30 3210 N 310.401 -0.613514 1.45168 0
M  V30 3211 C 311.331 -1.7354 1.56225 0
M  V30 3212 C 312.312 -1.64981 0.41414 0
M  V30 3213 O 313.497 -1.83472 0.636526 0
M  V30 3214 C 310.627 -3.12128 1.52295 0
M  V30 3215 C 309.581 -3.35491 2.65762 0
M  V30 3216 C 308.907 -4.74291 2.46885 0
M  V30 3217 C 310.207 -3.26325 4.0781 0
M  V30 3218 H 311.901 -1.64543 2.50132 0
M  V30 3219 H 309.447 -0.790185 1.20383 0
M  V30 3220 H 311.4 -3.90404 1.58628 0
M  V30 3221 H 310.124 -3.2195 0.549139 0
M  V30 3222 H 308.783 -2.59603 2.58847 0
M  V30 3223 H 308.431 -4.80839 1.47657 0
M  V30 3224 H 308.131 -4.9088 3.22972 0
M  V30 3225 H 309.655 -5.54775 2.55063 0
M  V30 3226 H 311.069 -3.94483 4.16 0
M  V30 3227 H 309.466 -3.54445 4.8424 0
M  V30 3228 H 310.536 -2.23855 4.30136 0
M  V30 3229 N 311.879 -1.3236 -0.855495 0
M  V30 3230 C 313.125 -1.24064 -1.61182 0
M  V30 3231 C 313.48 0.195914 -1.914 0
M  V30 3232 O 312.773 1.13345 -1.54478 0
M  V30 3233 C 312.967 -2.03275 -2.93963 0
M  V30 3234 C 312.796 -3.54486 -2.76712 0
M  V30 3235 C 311.566 -4.23824 -2.75139 0
M  V30 3236 C 313.764 -4.49154 -2.50531 0
M  V30 3237 N 311.746 -5.61095 -2.4909 0
M  V30 3238 C 313.117 -5.74195 -2.3388 0
M  V30 3239 C 315.172 -4.3842 -2.35992 0
M  V30 3240 C 313.875 -6.89716 -2.04168 0
M  V30 3241 C 315.901 -5.53739 -2.0767 0
M  V30 3242 C 315.263 -6.77779 -1.9182 0
M  V30 3243 H 311.362 -0.509139 -0.59355 0
M  V30 3244 H 313.946 -1.66715 -1.00569 0
M  V30 3245 H 312.117 -1.6297 -3.52555 0
M  V30 3246 H 313.849 -1.86881 -3.58967 0
M  V30 3247 H 310.604 -3.75934 -2.88047 0
M  V30 3248 H 311.028 -6.33411 -2.38996 0
M  V30 3249 H 315.67 -3.43172 -2.46967 0
M  V30 3250 H 313.388 -7.84977 -1.9193 0
M  V30 3251 H 316.974 -5.4736 -1.97201 0
M  V30 3252 H 315.854 -7.65504 -1.70217 0
M  V30 3253 N 313.357 1.07166 -1.15556 0
M  V30 3254 C 314.582 1.84053 -0.955988 0
M  V30 3255 C 315.007 1.81586 0.490739 0
M  V30 3256 O 314.365 1.21018 1.34997 0
M  V30 3257 C 314.413 3.28957 -1.47714 0
M  V30 3258 O 313.517 4.06795 -0.677593 0
M  V30 3259 H 312.858 0.569842 -0.340847 0
M  V30 3260 H 315.388 1.35178 -1.53584 0
M  V30 3261 H 315.398 3.79788 -1.4908 0
M  V30 3262 H 314.073 3.30068 -2.53037 0
M  V30 3263 H 312.65 3.6561 -0.733721 0
M  V30 3264 N 314.835 0.952656 1.25548 0
M  V30 3265 C 316.081 0.607272 1.93494 0
M  V30 3266 C 316.414 -0.853245 1.74452 0
M  V30 3267 O 315.689 -1.61194 1.08843 0
M  V30 3268 C 315.972 0.96435 3.46947 0
M  V30 3269 C 315.825 2.48045 3.75225 0
M  V30 3270 C 317.144 0.487987 4.37386 0
M  V30 3271 H 314.263 0.222096 0.702739 0
M  V30 3272 H 316.905 1.18895 1.48203 0
M  V30 3273 H 315.055 0.469361 3.85654 0
M  V30 3274 H 316.727 3.04905 3.46166 0
M  V30 3275 H 314.97 2.919 3.209 0
M  V30 3276 H 315.641 2.6808 4.82532 0
M  V30 3277 H 318.117 0.912558 4.0597 0
M  V30 3278 H 316.993 0.766547 5.43521 0
M  V30 3279 H 317.254 -0.612063 4.37843 0
M  V30 3280 N 316.313 -1.40141 0.720998 0
M  V30 3281 C 317.276 -2.29058 0.0805834 0
M  V30 3282 C 318.276 -1.45632 -0.681758 0
M  V30 3283 O 319.466 -1.6648 -0.512856 0
M  V30 3284 C 316.598 -3.28925 -0.895593 0
M  V30 3285 H 317.791 -2.87191 0.863793 0
M  V30 3286 H 315.344 -1.48553 0.485975 0
M  V30 3287 H 316.079 -2.75822 -1.70566 0
M  V30 3288 H 315.864 -3.90519 -0.351766 0
M  V30 3289 H 317.354 -3.95494 -1.34069 0
M  V30 3290 N 317.792 -0.46758 -1.50504 0
M  V30 3291 C 319.203 -0.0116166 -1.86696 0
M  V30 3292 C 319.554 1.39202 -1.38265 0
M  V30 3293 O 318.679 2.0313 -0.746132 0
M  V30 3294 C 319.274 -0.0143044 -3.38797 0
M  V30 3295 C 317.833 0.386175 -3.74414 0
M  V30 3296 C 316.98 -0.401287 -2.74381 0
M  V30 3297 H 319.931 -0.682022 -1.43297 0
M  V30 3298 H 319.952 0.788641 -3.72237 0
M  V30 3299 H 319.464 -1.03602 -3.74016 0
M  V30 3300 H 317.565 1.41237 -3.44794 0
M  V30 3301 H 317.678 0.0899596 -4.79016 0
M  V30 3302 H 316.042 0.144536 -2.5429 0
M  V30 3303 H 316.825 -1.42244 -3.12444 0
M  V30 3304 N 319.27 1.56325 -0.20005 0
M  V30 3305 C 320.519 1.96895 0.437652 0
M  V30 3306 C 320.832 1.08999 1.62415 0
M  V30 3307 O 322.038 1.39372 2.32997 0
M  V30 3308 C 320.494 3.50198 0.830025 0
M  V30 3309 C 320.102 4.46765 -0.332461 0
M  V30 3310 C 321.846 3.99526 1.43453 0
M  V30 3311 C 319.753 5.91344 0.0811468 0
M  V30 3312 H 318.683 0.735209 0.167282 0
M  V30 3313 H 321.334 1.81148 -0.292853 0
M  V30 3314 H 319.716 3.61467 1.61734 0
M  V30 3315 H 320.89 4.47231 -1.11 0
M  V30 3316 H 319.205 4.07657 -0.848789 0
M  V30 3317 H 321.802 5.05025 1.75652 0
M  V30 3318 H 322.145 3.44122 2.34277 0
M  V30 3319 H 322.678 3.91393 0.71109 0
M  V30 3320 H 319.417 6.50685 -0.793033 0
M  V30 3321 H 318.937 5.94121 0.823445 0
M  V30 3322 H 320.616 6.44945 0.515252 0
M  V30 3323 N 320.748 -0.0735177 1.57428 0
M  V30 3324 C 321.973 -0.789787 1.91774 0
M  V30 3325 C 322.398 -1.70413 0.796306 0
M  V30 3326 O 321.756 -1.79555 -0.250961 0
M  V30 3327 C 321.804 -1.5609 3.25067 0
M  V30 3328 O 320.908 -2.67144 3.14178 0
M  V30 3329 H 320.249 -0.215582 0.628029 0
M  V30 3330 H 322.779 -0.0422781 2.04556 0
M  V30 3331 H 322.789 -1.94052 3.58898 0
M  V30 3332 H 321.464 -0.890015 4.06265 0
M  V30 3333 H 320.041 -2.32052 2.91901 0
M  V30 3334 N 322.226 -1.5378 -0.344866 0
M  V30 3335 C 323.451 -1.75211 -1.10977 0
M  V30 3336 C 323.876 -0.48936 -1.81623 0
M  V30 3337 O 323.234 0.557925 -1.72502 0
M  V30 3338 C 323.282 -2.93147 -2.09993 0
M  V30 3339 O 322.386 -2.63203 -3.17487 0
M  V30 3340 H 321.727 -0.581241 -0.321021 0
M  V30 3341 H 324.257 -2.00738 -0.395661 0
M  V30 3342 H 324.267 -3.19898 -2.53237 0
M  V30 3343 H 322.942 -3.84731 -1.5797 0
M  V30 3344 H 321.519 -2.47336 -2.79069 0
M  V30 3345 N 323.704 0.605807 -1.45491 0
M  V30 3346 C 324.952 1.36207 -1.49305 0
M  V30 3347 C 325.273 1.94519 -0.136863 0
M  V30 3348 O 324.543 1.77261 0.833983 0
M  V30 3349 H 323.123 0.50565 -0.549843 0
M  V30 3350 H 325.785 0.711239 -1.81459 0
M  V30 3351 H 324.881 2.18058 -2.23287 0
M  V30 3352 N 325.182 1.32811 0.848464 0
M  V30 3353 C 326.407 1.26882 1.6406 0
M  V30 3354 C 326.832 -0.15913 1.87426 0
M  V30 3355 O 326.19 -1.11258 1.43148 0
M  V30 3356 C 326.238 2.03997 2.97351 0
M  V30 3357 O 325.342 1.39201 3.88197 0
M  V30 3358 H 324.683 0.436982 0.499943 0
M  V30 3359 H 327.213 1.75224 1.0563 0
M  V30 3360 H 327.223 2.14403 3.47124 0
M  V30 3361 H 325.898 3.0783 2.79666 0
M  V30 3362 H 324.475 1.37381 3.46671 0
M  V30 3363 N 326.66 -1.06551 1.16123 0
M  V30 3364 C 327.57 -2.17484 0.879662 0
M  V30 3365 C 328.586 -1.73377 -0.147104 0
M  V30 3366 O 329.762 -2.01379 0.0289128 0
M  V30 3367 C 326.827 -3.44591 0.381829 0
M  V30 3368 C 325.888 -4.0322 1.4735 0
M  V30 3369 C 325.121 -5.24261 0.999324 0
M  V30 3370 O 325.344 -5.70198 -0.151957 0
M  V30 3371 O 324.278 -5.74775 1.78653 0
M  V30 3372 H 328.104 -2.44075 1.80724 0
M  V30 3373 H 325.689 -1.16042 0.940992 0
M  V30 3374 H 327.571 -4.21254 0.111053 0
M  V30 3375 H 326.246 -3.19532 -0.51777 0
M  V30 3376 H 325.153 -3.2806 1.79798 0
M  V30 3377 H 326.486 -4.32568 2.34831 0
M  V30 3378 N 328.138 -0.959301 -1.25041 0
M  V30 3379 C 329.101 -0.487677 -2.23952 0
M  V30 3380 C 330.101 0.41119 -1.55454 0
M  V30 3381 O 331.291 0.207825 -1.72956 0
M  V30 3382 C 328.423 0.294807 -3.39623 0
M  V30 3383 H 329.616 -1.36198 -2.67189 0
M  V30 3384 H 327.169 -0.743042 -1.37508 0
M  V30 3385 H 327.904 1.18658 -3.01813 0
M  V30 3386 H 327.689 -0.35012 -3.90534 0
M  V30 3387 H 329.179 0.614089 -4.1306 0
M  V30 3388 N 329.616 1.39756 -0.72842 0
M  V30 3389 C 330.579 2.29012 -0.0927297 0
M  V30 3390 C 331.579 1.45992 0.674025 0
M  V30 3391 O 332.769 1.66749 0.50402 0
M  V30 3392 C 329.901 3.29396 0.878137 0
M  V30 3393 H 331.094 2.86729 -0.879011 0
M  V30 3394 H 328.647 1.48293 -0.493847 0
M  V30 3395 H 329.382 2.76722 1.69101 0
M  V30 3396 H 329.167 3.907 0.331051 0
M  V30 3397 H 330.657 3.96199 1.3197 0
M  V30 3398 N 331.094 0.475555 1.50254 0
M  V30 3399 C 332.026 -0.352649 2.26471 0
M  V30 3400 C 333.039 -0.953165 1.3198 0
M  V30 3401 O 334.228 -0.840815 1.57457 0
M  V30 3402 C 331.328 -1.50902 3.0345 0
M  V30 3403 C 330.501 -1.02047 4.25329 0
M  V30 3404 C 329.56 -2.05142 4.84565 0
M  V30 3405 O 328.586 -1.63023 5.45355 0
M  V30 3406 N 329.788 -3.37987 4.71959 0
M  V30 3407 H 332.553 0.300767 2.98187 0
M  V30 3408 H 330.114 0.306598 1.5897 0
M  V30 3409 H 332.106 -2.19572 3.39956 0
M  V30 3410 H 330.676 -2.06705 2.34504 0
M  V30 3411 H 329.896 -0.159507 3.93877 0
M  V30 3412 H 331.184 -0.672061 5.04342 0
M  V30 3413 H 330.582 -3.74913 4.23623 0
M  V30 3414 H 329.139 -4.02443 5.12721 0
M  V30 3415 N 332.573 -1.56217 0.208337 0
M  V30 3416 C 333.821 -1.97558 -0.426076 0
M  V30 3417 C 334.142 -1.09683 -1.61229 0
M  V30 3418 O 333.412 -0.170956 -1.95153 0
M  V30 3419 H 331.992 -0.729575 -0.160405 0
M  V30 3420 H 334.654 -1.92606 0.298155 0
M  V30 3421 H 333.75 -3.02672 -0.761312 0
M  V30 3422 N 334.051 0.0651679 -1.57465 0
M  V30 3423 C 335.281 0.774683 -1.91526 0
M  V30 3424 C 335.689 1.71305 -0.803196 0
M  V30 3425 O 335.032 1.82231 0.231881 0
M  V30 3426 C 335.094 1.61645 -3.21109 0
M  V30 3427 C 334.758 0.846753 -4.49087 0
M  V30 3428 C 335.755 0.163024 -5.19644 0
M  V30 3429 C 333.44 0.811966 -4.95694 0
M  V30 3430 C 335.434 -0.54519 -6.35064 0
M  V30 3431 C 333.121 0.0999836 -6.11018 0
M  V30 3432 C 334.119 -0.577388 -6.80555 0
M  V30 3433 O 333.807 -1.27789 -7.93678 0
M  V30 3434 H 333.539 0.225031 -0.637446 0
M  V30 3435 H 336.093 0.0377134 -2.05365 0
M  V30 3436 H 334.323 2.39638 -3.03497 0
M  V30 3437 H 336.012 2.20525 -3.40769 0
M  V30 3438 H 336.778 0.181163 -4.84662 0
M  V30 3439 H 332.657 1.32867 -4.41438 0
M  V30 3440 H 336.201 -1.07446 -6.89276 0
M  V30 3441 H 332.098 0.0797945 -6.45451 0
M  V30 3442 H 332.866 -1.18784 -8.09835 0
M  V30 3443 N 335.529 1.53961 0.336706 0
M  V30 3444 C 336.459 1.85417 1.41925 0
M  V30 3445 C 337.44 0.709856 1.5458 0
M  V30 3446 O 338.625 0.962396 1.68676 0
M  V30 3447 C 335.755 2.06985 2.78881 0
M  V30 3448 C 334.709 3.22813 2.81026 0
M  V30 3449 C 334.035 3.29727 4.20932 0
M  V30 3450 C 335.335 4.60767 2.45949 0
M  V30 3451 H 337.029 2.76079 1.15848 0
M  V30 3452 H 334.575 1.32839 0.555859 0
M  V30 3453 H 336.528 2.27575 3.54665 0
M  V30 3454 H 335.252 1.13061 3.06406 0
M  V30 3455 H 333.911 3.0209 2.07695 0
M  V30 3456 H 333.559 2.33385 4.45579 0
M  V30 3457 H 333.259 4.07566 4.23277 0
M  V30 3458 H 334.783 3.52536 4.98549 0
M  V30 3459 H 336.197 4.81325 3.11446 0
M  V30 3460 H 334.594 5.4106 2.59566 0
M  V30 3461 H 335.664 4.6391 1.41122 0
M  V30 3462 N 337.007 -0.598083 1.45811 0
M  V30 3463 C 338.256 -1.35295 1.49594 0
M  V30 3464 C 338.569 -1.95057 0.145679 0
M  V30 3465 O 339.775 -2.71431 0.0612099 0
M  V30 3466 C 338.231 -2.45124 2.63519 0
M  V30 3467 C 337.839 -1.91732 4.04899 0
M  V30 3468 C 339.583 -3.2205 2.76558 0
M  V30 3469 C 337.49 -2.991 5.1019 0
M  V30 3470 H 336.42 -0.508552 0.556679 0
M  V30 3471 H 339.071 -0.639977 1.71978 0
M  V30 3472 H 337.453 -3.19149 2.34435 0
M  V30 3473 H 338.627 -1.24352 4.43704 0
M  V30 3474 H 336.942 -1.27522 3.96393 0
M  V30 3475 H 339.539 -4.0215 3.52391 0
M  V30 3476 H 339.882 -3.73663 1.83526 0
M  V30 3477 H 340.415 -2.55127 3.05213 0
M  V30 3478 H 337.154 -2.52393 6.04961 0
M  V30 3479 H 336.674 -3.65017 4.75944 0
M  V30 3480 H 338.353 -3.63318 5.35359 0
M  V30 3481 N 338.485 -1.33259 -0.841409 0
M  V30 3482 C 339.733 -1.24326 -1.59334 0
M  V30 3483 C 340.054 0.191564 -1.94057 0
M  V30 3484 O 339.324 1.11967 -1.60749 0
M  V30 3485 H 337.904 -0.457174 -0.590763 0
M  V30 3486 H 340.566 -1.66947 -1.00571 0
M  V30 3487 H 339.662 -1.8352 -2.52442 0
M  V30 3488 N 339.963 1.05934 -1.16686 0
M  V30 3489 C 341.211 1.78447 -0.948744 0
M  V30 3490 C 341.532 1.87813 0.524523 0
M  V30 3491 O 340.802 1.38945 1.38098 0
M  V30 3492 H 339.382 0.660971 -0.348033 0
M  V30 3493 H 342.044 1.27947 -1.47022 0
M  V30 3494 H 341.14 2.80394 -1.37061 0
M  V30 3495 N 341.441 0.965919 1.2453 0
M  V30 3496 C 342.718 0.543777 1.87889 0
M  V30 3497 C 343.098 -0.97909 1.87021 0
M  V30 3498 O 342.446 -1.84969 1.3416 0
M  V30 3499 C 342.656 1.13327 3.30088 0
M  V30 3500 C 344.004 1.21707 4.06783 0
M  V30 3501 O 345.028 1.08566 3.39252 0
M  V30 3502 O 343.887 1.42456 5.27606 0
M  V30 3503 H 340.981 0.181054 0.806938 0
M  V30 3504 H 343.527 1.06007 1.32516 0
M  V30 3505 H 342.299 2.17612 3.25209 0
M  V30 3506 H 341.922 0.600911 3.93033 0
M  V30 3507 N 342.919 -1.39368 0.735821 0
M  V30 3508 C 344.165 -2.00794 0.284544 0
M  V30 3509 C 344.498 -1.58255 -1.12557 0
M  V30 3510 O 343.773 -0.811819 -1.76748 0
M  V30 3511 C 344.056 -3.58011 0.387337 0
M  V30 3512 C 343.909 -4.10566 1.83728 0
M  V30 3513 C 345.228 -4.395 -0.22975 0
M  V30 3514 H 342.347 -0.729501 0.104866 0
M  V30 3515 H 344.989 -1.65564 0.93213 0
M  V30 3516 H 343.139 -3.88154 -0.164006 0
M  V30 3517 H 344.811 -3.91139 2.44556 0
M  V30 3518 H 343.054 -3.64095 2.35833 0
M  V30 3519 H 343.725 -5.19702 1.86047 0
M  V30 3520 H 346.201 -4.15406 0.240257 0
M  V30 3521 H 345.077 -5.48752 -0.127485 0
M  V30 3522 H 345.338 -4.22062 -1.3159 0
M  V30 3523 N 344.397 -0.483516 -1.5 0
M  V30 3524 C 345.327 0.293829 -2.31644 0
M  V30 3525 C 346.308 0.978864 -1.39112 0
M  V30 3526 O 347.493 0.973644 -1.68029 0
M  V30 3527 C 344.623 1.36897 -3.19181 0
M  V30 3528 C 343.577 0.804833 -4.20365 0
M  V30 3529 C 342.903 1.9792 -4.96721 0
M  V30 3530 C 344.203 -0.192313 -5.21946 0
M  V30 3531 H 345.897 -0.387616 -2.9688 0
M  V30 3532 H 343.443 -0.187856 -1.42769 0
M  V30 3533 H 345.396 1.92037 -3.751 0
M  V30 3534 H 344.12 2.07936 -2.51853 0
M  V30 3535 H 342.779 0.275319 -3.65565 0
M  V30 3536 H 342.427 2.67686 -4.25856 0
M  V30 3537 H 342.127 1.60789 -5.65173 0
M  V30 3538 H 343.651 2.53526 -5.55479 0
M  V30 3539 H 345.065 0.270333 -5.72662 0
M  V30 3540 H 343.462 -0.478543 -5.98189 0
M  V30 3541 H 344.532 -1.11409 -4.71928 0
M  V30 3542 N 345.875 1.56104 -0.216619 0
M  V30 3543 C 347.291 1.58995 0.13886 0
M  V30 3544 C 347.491 1.23333 1.59346 0
M  V30 3545 O 346.547 0.966234 2.33281 0
M  V30 3546 C 347.86 3.00143 -0.182968 0
M  V30 3547 C 349.408 3.12751 -0.124807 0
M  V30 3548 C 349.883 4.56068 -0.420241 0
M  V30 3549 N 351.374 4.61723 -0.369634 0
M  V30 3550 C 352.109 5.70542 -0.571789 0
M  V30 3551 N 351.605 6.87744 -0.835453 0
M  V30 3552 N 353.398 5.59831 -0.504563 0
M  V30 3553 H 345.549 1.77562 -1.16557 0
M  V30 3554 H 347.812 0.825091 -0.466828 0
M  V30 3555 H 347.518 3.30871 -1.19237 0
M  V30 3556 H 347.392 3.73813 0.504367 0
M  V30 3557 H 349.779 2.81822 0.875223 0
M  V30 3558 H 349.86 2.41421 -0.845544 0
M  V30 3559 H 349.504 4.87713 -1.41769 0
M  V30 3560 H 349.434 5.25617 0.321631 0
M  V30 3561 H 351.925 3.77502 -0.173338 0
M  V30 3562 H 352.238 7.66587 -0.977938 0
M  V30 3563 H 350.583 6.895 -0.872592 0
M  V30 3564 H 353.774 4.67145 -0.298842 0
M  V30 3565 H 353.947 6.44573 -0.665519 0
M  V30 3566 N 347.353 -0.0568162 1.57498 0
M  V30 3567 C 348.283 -1.06593 2.0775 0
M  V30 3568 C 349.264 -1.39448 0.974082 0
M  V30 3569 O 350.449 -1.48815 1.24771 0
M  V30 3570 C 347.579 -2.37509 2.5339 0
M  V30 3571 C 346.533 -2.1897 3.67745 0
M  V30 3572 C 345.859 -3.55402 3.99492 0
M  V30 3573 C 347.159 -1.59859 4.97235 0
M  V30 3574 H 348.853 -0.647706 2.9231 0
M  V30 3575 H 346.399 -0.310116 1.40621 0
M  V30 3576 H 348.352 -3.08409 2.87162 0
M  V30 3577 H 347.076 -2.8134 1.65878 0
M  V30 3578 H 345.735 -1.50508 3.3428 0
M  V30 3579 H 345.383 -3.9683 3.09088 0
M  V30 3580 H 345.083 -3.43831 4.76502 0
M  V30 3581 H 346.607 -4.27708 4.35773 0
M  V30 3582 H 348.021 -2.20642 5.29141 0
M  V30 3583 H 346.418 -1.58942 5.78669 0
M  V30 3584 H 347.488 -0.561506 4.81638 0
M  V30 3585 N 348.832 -1.54138 -0.328536 0
M  V30 3586 C 349.762 -1.86167 -1.40939 0
M  V30 3587 C 350.743 -0.718044 -1.54202 0
M  V30 3588 O 351.928 -0.971328 -1.68163 0
M  V30 3589 C 349.058 -2.08461 -2.77779 0
M  V30 3590 C 348.012 -3.24299 -2.7931 0
M  V30 3591 C 347.338 -3.31955 -4.19178 0
M  V30 3592 C 348.638 -4.62065 -2.43502 0
M  V30 3593 H 350.332 -2.76689 -1.14383 0
M  V30 3594 H 347.878 -1.33132 -0.548806 0
M  V30 3595 H 349.831 -2.29453 -3.53454 0
M  V30 3596 H 348.555 -1.14684 -3.05802 0
M  V30 3597 H 347.214 -3.03187 -2.0609 0
M  V30 3598 H 346.862 -2.35745 -4.44335 0
M  V30 3599 H 346.562 -4.09805 -4.2111 0
M  V30 3600 H 348.086 -3.55175 -4.96672 0
M  V30 3601 H 349.5 -4.8297 -3.08889 0
M  V30 3602 H 347.897 -5.42429 -2.56693 0
M  V30 3603 H 348.967 -4.64652 -1.38659 0
M  V30 3604 N 350.31 0.590341 -1.46126 0
M  V30 3605 C 351.26 1.69466 -1.5253 0
M  V30 3606 C 352.244 1.56179 -0.386917 0
M  V30 3607 O 353.436 1.65223 -0.634858 0
M  V30 3608 C 350.565 3.08245 -1.5113 0
M  V30 3609 C 349.651 3.26856 -2.70233 0
M  V30 3610 N 350.042 3.15657 -3.95214 0
M  V30 3611 C 348.34 3.57775 -2.66296 0
M  V30 3612 C 349.041 3.36066 -4.74799 0
M  V30 3613 N 348.017 3.60865 -4.06543 0
M  V30 3614 H 351.819 1.59326 -2.46966 0
M  V30 3615 H 349.333 0.79414 -1.41659 0
M  V30 3616 H 351.33 3.87492 -1.53804 0
M  V30 3617 H 349.99 3.19521 -0.577636 0
M  V30 3618 H 351.001 2.93686 -4.26578 0
M  V30 3619 H 347.678 3.75782 -1.81918 0
M  V30 3620 H 349.068 3.32655 -5.83772 0
M  V30 3621 N 351.788 1.33704 0.83433 0
M  V30 3622 C 353.036 1.25169 1.58673 0
M  V30 3623 C 353.357 -0.18127 1.94156 0
M  V30 3624 O 352.627 -1.11113 1.6134 0
M  V30 3625 H 351.207 0.4603 0.58833 0
M  V30 3626 H 353.869 1.67478 0.996847 0
M  V30 3627 H 352.965 1.84856 2.51465 0
M  V30 3628 N 353.266 -1.05314 1.17247 0
M  V30 3629 C 354.216 -2.11313 0.856196 0
M  V30 3630 C 355.2 -1.60013 -0.168694 0
M  V30 3631 O 356.392 -1.76968 0.0335624 0
M  V30 3632 C 353.521 -3.41301 0.369917 0
M  V30 3633 C 352.607 -3.99401 1.42616 0
M  V30 3634 N 352.998 -4.31481 2.63928 0
M  V30 3635 C 351.296 -4.27126 1.28373 0
M  V30 3636 C 351.997 -4.77799 3.31787 0
M  V30 3637 N 350.973 -4.77843 2.59166 0
M  V30 3638 H 354.775 -2.33976 1.77856 0
M  V30 3639 H 352.289 -1.2295 1.06099 0
M  V30 3640 H 354.286 -4.16713 0.124897 0
M  V30 3641 H 352.946 -3.20072 -0.546253 0
M  V30 3642 H 353.957 -4.21519 3.00902 0
M  V30 3643 H 350.634 -4.15289 0.429111 0
M  V30 3644 H 352.024 -5.11743 4.35395 0
M  V30 3645 N 354.744 -0.972509 -1.24016 0
M  V30 3646 C 355.677 -0.45117 -2.23696 0
M  V30 3647 C 356.655 0.477378 -1.55434 0
M  V30 3648 O 357.839 0.407647 -1.84039 0
M  V30 3649 C 354.966 0.34818 -3.36906 0
M  V30 3650 C 354.012 -0.523355 -4.23277 0
M  V30 3651 S 354.845 -1.96647 -4.98087 0
M  V30 3652 C 356.001 -1.17604 -6.14752 0
M  V30 3653 H 356.234 -1.29588 -2.67571 0
M  V30 3654 H 353.767 -0.777903 -1.33372 0
M  V30 3655 H 355.725 0.803387 -4.02562 0
M  V30 3656 H 354.386 1.16792 -2.91579 0
M  V30 3657 H 353.579 0.0906181 -5.03919 0
M  V30 3658 H 353.181 -0.914485 -3.62647 0
M  V30 3659 H 355.473 -0.433434 -6.76112 0
M  V30 3660 H 356.416 -1.95701 -6.8052 0
M  V30 3661 H 356.824 -0.698295 -5.60164 0
M  V30 3662 N 356.222 1.38976 -0.743202 0
M  V30 3663 C 357.499 1.94351 -0.220705 0
M  V30 3664 C 357.879 1.67935 1.2791 0
M  V30 3665 O 357.227 1.01211 2.04862 0
M  V30 3666 C 357.437 3.44426 -0.563171 0
M  V30 3667 C 358.785 4.2144 -0.517046 0
M  V30 3668 O 359.809 3.52661 -0.500846 0
M  V30 3669 O 358.668 5.44032 -0.518806 0
M  V30 3670 H 355.762 0.825879 -0.043047 0
M  V30 3671 H 358.308 1.48429 -0.822618 0
M  V30 3672 H 357.08 3.5712 -1.59941 0
M  V30 3673 H 356.703 3.97543 0.0672883 0
M  V30 3674 N 357.7 0.491464 1.49741 0
M  V30 3675 C 358.61 -0.296835 2.32715 0
M  V30 3676 C 359.626 -0.976536 1.44013 0
M  V30 3677 O 360.802 -0.960023 1.77047 0
M  V30 3678 C 357.867 -1.35288 3.19215 0
M  V30 3679 C 356.928 -0.687632 4.23757 0
M  V30 3680 C 356.161 -1.69336 5.06123 0
M  V30 3681 O 356.384 -2.92219 4.89861 0
M  V30 3682 O 355.318 -1.25394 5.88693 0
M  V30 3683 H 359.144 0.382048 3.01287 0
M  V30 3684 H 356.729 0.252953 1.47243 0
M  V30 3685 H 358.611 -1.96411 3.72828 0
M  V30 3686 H 357.286 -2.01487 2.53347 0
M  V30 3687 H 356.193 -0.0369159 3.74082 0
M  V30 3688 H 357.526 -0.0682566 4.92153 0
M  V30 3689 N 359.178 -1.55987 0.224894 0
M  V30 3690 C 360.418 -2.00293 -0.407706 0
M  V30 3691 C 360.782 -1.1093 -1.56711 0
M  V30 3692 O 361.983 -1.44597 -2.26595 0
M  V30 3693 C 360.254 -3.47675 -0.82805 0
M  V30 3694 S 361.813 -4.14 -1.45429 0
M  V30 3695 H 358.631 -0.699152 -0.129256 0
M  V30 3696 H 361.233 -1.92609 0.334967 0
M  V30 3697 H 359.937 -4.10392 0.0253964 0
M  V30 3698 H 359.468 -3.59239 -1.60345 0
M  V30 3699 H 361.483 -4.13465 -2.74337 0
M  V30 3700 N 360.656 0.0484629 -1.57525 0
M  V30 3701 C 361.586 1.0549 -2.08313 0
M  V30 3702 C 362.567 1.38929 -0.981463 0
M  V30 3703 O 363.752 1.48151 -1.25558 0
M  V30 3704 C 360.882 2.36162 -2.54646 0
M  V30 3705 C 359.836 2.17016 -3.68901 0
M  V30 3706 C 359.162 3.53278 -4.01371 0
M  V30 3707 C 360.462 1.57219 -4.98076 0
M  V30 3708 H 362.156 0.632195 -2.92649 0
M  V30 3709 H 359.702 0.302654 -1.40784 0
M  V30 3710 H 361.655 3.06882 -2.88793 0
M  V30 3711 H 360.379 2.80456 -1.67368 0
M  V30 3712 H 359.038 1.48733 -3.35073 0
M  V30 3713 H 358.686 3.95185 -3.11188 0
M  V30 3714 H 358.386 3.41299 -4.78318 0
M  V30 3715 H 359.91 4.25391 -4.38035 0
M  V30 3716 H 361.324 2.17832 -5.30304 0
M  V30 3717 H 359.721 1.55871 -5.79503 0
M  V30 3718 H 360.791 0.535956 -4.81929 0
M  V30 3719 N 362.134 1.5431 0.320358 0
M  V30 3720 C 363.362 1.76636 1.07738 0
M  V30 3721 C 363.777 0.51649 1.81598 0
M  V30 3722 O 363.134 -0.512942 1.75143 0
M  V30 3723 C 363.185 2.96158 2.07299 0
M  V30 3724 O 362.906 4.16313 1.36438 0
M  V30 3725 C 364.407 3.3072 2.95193 0
M  V30 3726 H 361.627 0.589597 0.320339 0
M  V30 3727 H 364.171 2.01207 0.36551 0
M  V30 3728 H 362.326 2.73851 2.74016 0
M  V30 3729 H 362.74 4.83565 2.03138 0
M  V30 3730 H 364.214 4.17643 3.60941 0
M  V30 3731 H 364.691 2.48026 3.62463 0
M  V30 3732 H 365.297 3.55117 2.34034 0
M  V30 3733 N 363.613 -0.582584 1.46437 0
M  V30 3734 C 364.859 -1.34278 1.51978 0
M  V30 3735 C 365.192 -1.93446 0.170973 0
M  V30 3736 O 364.467 -1.76481 -0.817608 0
M  V30 3737 C 364.75 -2.47203 2.61845 0
M  V30 3738 C 364.603 -1.93069 4.06257 0
M  V30 3739 C 365.922 -3.49247 2.67795 0
M  V30 3740 H 363.041 -0.486876 0.553282 0
M  V30 3741 H 365.683 -0.654437 1.78374 0
M  V30 3742 H 363.833 -3.0592 2.39469 0
M  V30 3743 H 365.505 -1.38808 4.3992 0
M  V30 3744 H 363.748 -1.23898 4.1573 0
M  V30 3745 H 364.419 -2.74586 4.7886 0
M  V30 3746 H 366.895 -3.00411 2.8791 0
M  V30 3747 H 365.771 -4.25719 3.46489 0
M  V30 3748 H 366.032 -4.06482 1.73852 0
M  V30 3749 N 365.091 -1.34144 -0.827227 0
M  V30 3750 C 366.502 -1.23557 -1.39966 0
M  V30 3751 C 366.853 0.140731 -1.95695 0
M  V30 3752 O 365.978 1.04087 -1.89723 0
M  V30 3753 C 366.573 -2.23708 -2.54441 0
M  V30 3754 C 365.132 -2.16924 -3.07605 0
M  V30 3755 C 364.279 -2.10549 -1.80456 0
M  V30 3756 H 367.23 -1.45573 -0.631991 0
M  V30 3757 H 367.251 -1.85157 -3.32411 0
M  V30 3758 H 366.763 -3.23866 -2.13851 0
M  V30 3759 H 364.864 -1.20107 -3.52711 0
M  V30 3760 H 364.977 -3.07988 -3.66988 0
M  V30 3761 H 363.341 -1.56203 -2.01178 0
M  V30 3762 H 364.124 -3.12535 -1.42046 0
M  V30 3763 N 366.569 1.04691 -1.17803 0
M  V30 3764 C 367.794 1.81984 -0.994813 0
M  V30 3765 C 368.219 1.82586 0.452112 0
M  V30 3766 O 367.577 1.23854 1.324 0
M  V30 3767 C 367.625 3.2575 -1.54659 0
M  V30 3768 O 366.729 4.05267 -0.763728 0
M  V30 3769 H 366.07 0.562483 -0.352857 0
M  V30 3770 H 368.6 1.3189 -1.56417 0
M  V30 3771 H 368.61 3.76541 -1.57102 0
M  V30 3772 H 367.285 3.24627 -2.59981 0
M  V30 3773 H 365.862 3.63972 -0.811108 0
M  V30 3774 N 368.047 0.979072 1.23499 0
M  V30 3775 C 369.295 0.645941 1.91499 0
M  V30 3776 C 369.616 -0.822948 1.76784 0
M  V30 3777 O 368.886 -1.58854 1.14639 0
M  V30 3778 H 367.466 0.235919 0.708767 0
M  V30 3779 H 370.128 1.2426 1.50152 0
M  V30 3780 H 369.224 0.896411 2.9895 0
M  V30 3781 N 369.525 -1.3858 0.750561 0
M  V30 3782 C 370.435 -2.34278 0.122825 0
M  V30 3783 C 371.451 -1.59116 -0.704131 0
M  V30 3784 O 372.627 -1.91326 -0.628987 0
M  V30 3785 C 369.692 -3.38221 -0.762086 0
M  V30 3786 C 368.753 -4.29227 0.078896 0
M  V30 3787 C 367.986 -5.28205 -0.763874 0
M  V30 3788 O 368.209 -5.34112 -2.00201 0
M  V30 3789 O 367.143 -6.01618 -0.18428 0
M  V30 3790 H 370.969 -2.89649 0.913088 0
M  V30 3791 H 368.554 -1.40374 0.511417 0
M  V30 3792 H 370.436 -4.01872 -1.26793 0
M  V30 3793 H 369.111 -2.85211 -1.5309 0
M  V30 3794 H 368.018 -3.68747 0.630621 0
M  V30 3795 H 369.351 -4.85484 0.810289 0
M  V30 3796 N 371.003 -0.499398 -1.49478 0
M  V30 3797 C 371.953 0.299103 -2.2603 0
M  V30 3798 C 372.937 0.936934 -1.30807 0
M  V30 3799 O 374.129 0.844798 -1.55538 0
M  V30 3800 C 371.258 1.36391 -3.15044 0
M  V30 3801 C 370.344 0.732398 -4.17728 0
M  V30 3802 N 370.735 -0.164028 -5.05534 0
M  V30 3803 C 369.033 0.993162 -4.34801 0
M  V30 3804 C 369.734 -0.525345 -5.79323 0
M  V30 3805 N 368.71 0.106348 -5.43496 0
M  V30 3806 H 372.512 -0.391003 -2.91287 0
M  V30 3807 H 370.026 -0.31537 -1.59308 0
M  V30 3808 H 372.023 1.94939 -3.68516 0
M  V30 3809 H 370.683 2.05571 -2.51338 0
M  V30 3810 H 371.694 -0.534736 -5.15132 0
M  V30 3811 H 368.371 1.67783 -3.82302 0
M  V30 3812 H 369.761 -1.25862 -6.60006 0
M  V30 3813 N 372.481 1.55866 -0.233164 0
M  V30 3814 C 373.729 1.9821 0.394593 0
M  V30 3815 C 374.05 1.12234 1.59463 0
M  V30 3816 O 373.32 0.201981 1.94856 0
M  V30 3817 H 371.9 0.732034 0.148778 0
M  V30 3818 H 374.562 1.92107 -0.32876 0
M  V30 3819 H 373.658 3.03845 0.713063 0
M  V30 3820 N 373.959 -0.0401083 1.57549 0
M  V30 3821 C 374.869 -1.06133 2.0922 0
M  V30 3822 C 375.885 -1.40356 1.0284 0
M  V30 3823 O 377.061 -1.49897 1.34509 0
M  V30 3824 C 374.126 -2.34658 2.55218 0
M  V30 3825 C 373.187 -2.07117 3.76033 0
M  V30 3826 C 372.42 -3.29514 4.19829 0
M  V30 3827 O 372.643 -4.39794 3.63232 0
M  V30 3828 O 371.577 -3.15863 5.12362 0
M  V30 3829 H 375.403 -0.652244 2.96613 0
M  V30 3830 H 372.988 -0.256368 1.47184 0
M  V30 3831 H 374.87 -3.10239 2.85184 0
M  V30 3832 H 373.545 -2.74883 1.70941 0
M  V30 3833 H 372.452 -1.29139 3.51104 0
M  V30 3834 H 373.785 -1.71754 4.61261 0
M  V30 3835 N 375.437 -1.54477 -0.31217 0
M  V30 3836 C 376.347 -1.87695 -1.4074 0
M  V30 3837 C 377.363 -0.769975 -1.56036 0
M  V30 3838 O 378.539 -1.06537 -1.70915 0
M  V30 3839 C 375.604 -2.10755 -2.75287 0
M  V30 3840 C 374.665 -3.34514 -2.69071 0
M  V30 3841 C 373.898 -3.56465 -3.97201 0
M  V30 3842 O 374.121 -2.81637 -4.96021 0
M  V30 3843 O 373.055 -4.49964 -3.9977 0
M  V30 3844 H 376.881 -2.80849 -1.15574 0
M  V30 3845 H 374.466 -1.40526 -0.507228 0
M  V30 3846 H 376.348 -2.27188 -3.54913 0
M  V30 3847 H 375.023 -1.20788 -3.0032 0
M  V30 3848 H 373.93 -3.23456 -1.87955 0
M  V30 3849 H 375.263 -4.24575 -2.48992 0
M  V30 3850 N 376.915 0.57481 -1.46744 0
M  V30 3851 C 377.847 1.69804 -1.53946 0
M  V30 3852 C 378.86 1.57098 -0.427106 0
M  V30 3853 O 380.049 1.64378 -0.695863 0
M  V30 3854 C 377.149 3.08125 -1.4111 0
M  V30 3855 C 376.322 3.46757 -2.66605 0
M  V30 3856 C 375.381 4.6417 -2.47855 0
M  V30 3857 O 374.407 4.69634 -3.21609 0
M  V30 3858 N 375.609 5.59553 -1.54534 0
M  V30 3859 H 378.374 1.64077 -2.50796 0
M  V30 3860 H 375.935 0.761 -1.429 0
M  V30 3861 H 377.927 3.84478 -1.26328 0
M  V30 3862 H 376.497 3.08175 -0.524109 0
M  V30 3863 H 375.717 2.6003 -2.96274 0
M  V30 3864 H 377.005 3.69337 -3.49954 0
M  V30 3865 H 376.403 5.57881 -0.937304 0
M  V30 3866 H 374.96 6.35304 -1.45711 0
M  V30 3867 N 378.394 1.34581 0.820102 0
M  V30 3868 C 379.81 1.14325 1.11364 0
M  V30 3869 C 380.01 -0.0533648 2.01429 0
M  V30 3870 O 379.066 -0.728044 2.41776 0
M  V30 3871 C 380.379 2.43983 1.75764 0
M  V30 3872 C 381.927 2.50065 1.88246 0
M  V30 3873 C 382.402 3.79732 2.56061 0
M  V30 3874 N 383.893 3.80908 2.63558 0
M  V30 3875 C 384.628 4.77961 3.16766 0
M  V30 3876 N 384.124 5.85397 3.70517 0
M  V30 3877 N 385.917 4.65413 3.15194 0
M  V30 3878 H 378.068 2.11246 0.221096 0
M  V30 3879 H 380.331 0.934289 0.160649 0
M  V30 3880 H 380.037 3.31651 1.1705 0
M  V30 3881 H 379.911 2.57531 2.75604 0
M  V30 3882 H 382.298 1.62834 2.46108 0
M  V30 3883 H 382.379 2.40442 0.873006 0
M  V30 3884 H 382.023 4.67354 1.98853 0
M  V30 3885 H 381.953 3.86639 3.57516 0
M  V30 3886 H 384.444 3.03274 2.25463 0
M  V30 3887 H 384.757 6.55463 4.09376 0
M  V30 3888 H 383.102 5.89107 3.68752 0
M  V30 3889 H 386.293 3.80627 2.72471 0
M  V30 3890 H 386.466 5.41216 3.56356 0
M  V30 3891 N 379.872 -1.04064 1.18357 0
M  V30 3892 C 381.288 -1.2947 0.933258 0
M  V30 3893 C 381.488 -1.97466 -0.401169 0
M  V30 3894 O 380.544 -2.25528 -1.13549 0
M  V30 3895 C 381.857 -2.15337 2.09882 0
M  V30 3896 C 383.405 -2.28683 2.13712 0
M  V30 3897 C 383.88 -3.17917 3.29686 0
M  V30 3898 N 385.371 -3.25504 3.29547 0
M  V30 3899 C 386.106 -3.94706 4.15926 0
M  V30 3900 N 385.602 -4.66239 5.12439 0
M  V30 3901 N 387.395 -3.90986 4.0384 0
M  V30 3902 H 379.546 -0.583359 2.04232 0
M  V30 3903 H 381.809 -0.319921 0.892387 0
M  V30 3904 H 381.515 -1.72682 3.06389 0
M  V30 3905 H 381.389 -3.16015 2.05947 0
M  V30 3906 H 383.776 -2.70575 1.17784 0
M  V30 3907 H 383.857 -1.27596 2.21705 0
M  V30 3908 H 383.501 -2.76736 4.25887 0
M  V30 3909 H 383.431 -4.19036 3.1893 0
M  V30 3910 H 385.922 -2.74547 2.59677 0
M  V30 3911 H 386.235 -5.16638 5.74722 0
M  V30 3912 H 384.58 -4.65143 5.16398 0
M  V30 3913 H 387.771 -3.34234 3.27727 0
M  V30 3914 H 387.944 -4.44646 4.71375 0
M  V30 3915 N 381.35 -0.985608 -1.22978 0
M  V30 3916 C 382.578 -0.675582 -1.95559 0
M  V30 3917 C 382.993 0.758413 -1.72897 0
M  V30 3918 O 382.35 1.51094 -1.02357 0
M  V30 3919 C 382.401 -0.96293 -3.48439 0
M  V30 3920 O 382.122 -2.34057 -3.70336 0
M  V30 3921 C 383.623 -0.669585 -4.38214 0
M  V30 3922 H 380.843 -0.250523 -0.622478 0
M  V30 3923 H 383.387 -1.3184 -1.56328 0
M  V30 3924 H 381.542 -0.366033 -3.85667 0
M  V30 3925 H 381.956 -2.43424 -4.64591 0
M  V30 3926 H 383.43 -0.920967 -5.44263 0
M  V30 3927 H 383.907 0.396383 -4.37408 0
M  V30 3928 H 384.513 -1.2472 -4.06602 0
M  V30 3929 N 382.828 1.3818 -0.7579 0
M  V30 3930 C 384.074 2.00316 -0.316453 0
M  V30 3931 C 384.407 1.60026 1.10025 0
M  V30 3932 O 383.682 0.839835 1.75434 0
M  V30 3933 C 383.965 3.57349 -0.444245 0
M  V30 3934 C 383.818 4.07591 -1.90236 0
M  V30 3935 C 385.137 4.3981 0.1598 0
M  V30 3936 H 382.256 0.727741 -0.116459 0
M  V30 3937 H 384.898 1.6406 -0.958352 0
M  V30 3938 H 383.048 3.88365 0.102233 0
M  V30 3939 H 384.72 3.87199 -2.50748 0
M  V30 3940 H 382.963 3.60297 -2.41595 0
M  V30 3941 H 383.634 5.16677 -1.94291 0
M  V30 3942 H 386.11 4.14971 -0.306314 0
M  V30 3943 H 384.986 5.48885 0.0401675 0
M  V30 3944 H 385.247 4.24102 1.24859 0
M  V30 3945 N 384.306 0.507319 1.49211 0
M  V30 3946 C 385.256 -0.287112 2.26185 0
M  V30 3947 C 386.24 -0.929983 1.31302 0
M  V30 3948 O 387.432 -0.836538 1.55984 0
M  V30 3949 C 384.561 -1.34718 3.15763 0
M  V30 3950 C 383.647 -0.710235 4.18111 0
M  V30 3951 N 384.038 0.190836 5.0544 0
M  V30 3952 C 382.336 -0.97009 4.35322 0
M  V30 3953 C 383.037 0.55606 5.79036 0
M  V30 3954 N 382.013 -0.0775232 5.43545 0
M  V30 3955 H 385.815 0.406445 2.91076 0
M  V30 3956 H 383.329 0.323814 1.59139 0
M  V30 3957 H 385.326 -1.92982 3.69545 0
M  V30 3958 H 383.986 -2.04235 2.52424 0
M  V30 3959 H 384.997 0.562047 5.14841 0
M  V30 3960 H 381.674 -1.65753 3.83187 0
M  V30 3961 H 383.064 1.2936 6.5933 0
M  V30 3962 N 385.784 -1.5574 0.241426 0
M  V30 3963 C 387.014 -2.02913 -0.38857 0
M  V30 3964 C 387.422 -1.12014 -1.52478 0
M  V30 3965 O 386.765 -0.125903 -1.83268 0
M  V30 3966 C 386.827 -3.4636 -0.963075 0
M  V30 3967 C 386.491 -4.56982 0.0401916 0
M  V30 3968 C 387.488 -5.12941 0.847766 0
M  V30 3969 C 385.173 -5.0203 0.164699 0
M  V30 3970 C 387.167 -6.12437 1.76636 0
M  V30 3971 C 384.854 -6.01358 1.0868 0
M  V30 3972 C 385.852 -6.5644 1.88616 0
M  V30 3973 O 385.54 -7.53831 2.79273 0
M  V30 3974 H 385.272 -0.668983 -0.0971452 0
M  V30 3975 H 387.826 -2.02198 0.361248 0
M  V30 3976 H 386.056 -3.44206 -1.76235 0
M  V30 3977 H 387.745 -3.77065 -1.50257 0
M  V30 3978 H 388.511 -4.78974 0.762133 0
M  V30 3979 H 384.39 -4.58824 -0.447411 0
M  V30 3980 H 387.934 -6.55355 2.39071 0
M  V30 3981 H 383.831 -6.34746 1.17338 0
M  V30 3982 H 384.599 -7.71428 2.73572 0
M  V30 3983 N 387.262 0.0317525 -1.57568 0
M  V30 3984 C 388.172 1.05021 -2.0978 0
M  V30 3985 C 389.188 1.39809 -1.03583 0
M  V30 3986 O 390.364 1.49182 -1.35302 0
M  V30 3987 C 387.429 2.33301 -2.56459 0
M  V30 3988 C 386.49 2.0512 -3.77127 0
M  V30 3989 C 385.723 3.27283 -4.2157 0
M  V30 3990 O 385.946 4.37861 -3.65559 0
M  V30 3991 O 384.88 3.13141 -5.14029 0
M  V30 3992 H 388.706 0.636505 -2.96955 0
M  V30 3993 H 386.291 0.248559 -1.47318 0
M  V30 3994 H 388.173 3.08722 -2.86825 0
M  V30 3995 H 386.848 2.73973 -1.72397 0
M  V30 3996 H 385.755 1.27276 -3.51784 0
M  V30 3997 H 387.088 1.69305 -4.62165 0
M  V30 3998 N 388.74 1.54641 0.303973 0
M  V30 3999 C 389.988 1.73437 1.0375 0
M  V30 4000 C 390.309 0.521449 1.87899 0
M  V30 4001 O 389.579 -0.46432 1.90318 0
M  V30 4002 H 388.159 0.639518 0.386039 0
M  V30 4003 H 390.821 1.91988 0.335675 0
M  V30 4004 H 389.917 2.62235 1.69231 0
M  V30 4005 N 390.218 -0.567019 1.47046 0
M  V30 4006 C 391.466 -1.322 1.52864 0
M  V30 4007 C 391.787 -1.94088 0.188388 0
M  V30 4008 O 391.057 -1.7941 -0.786693 0
M  V30 4009 H 389.637 -0.490894 0.563056 0
M  V30 4010 H 392.299 -0.662879 1.83281 0
M  V30 4011 H 391.395 -2.12062 2.2899 0
M  V30 4012 N 391.696 -1.35014 -0.812953 0
M  V30 4013 C 392.659 -1.27292 -1.90602 0
M  V30 4014 C 393.659 -0.185817 -1.59723 0
M  V30 4015 O 394.849 -0.439102 -1.68575 0
M  V30 4016 C 391.981 -0.967676 -3.26877 0
M  V30 4017 H 393.174 -2.24479 -1.9887 0
M  V30 4018 H 390.727 -1.19446 -1.00808 0
M  V30 4019 H 391.462 0.0005954 -3.243 0
M  V30 4020 H 391.247 -1.75412 -3.50675 0
M  V30 4021 H 392.737 -0.939085 -4.06904 0
M  V30 4022 N 393.175 1.03435 -1.18907 0
M  V30 4023 C 394.421 1.77005 -0.989798 0
M  V30 4024 C 394.754 1.88205 0.478816 0
M  V30 4025 O 394.029 1.39481 1.35556 0
M  V30 4026 C 394.312 3.19925 -1.65287 0
M  V30 4027 C 394.165 3.1663 -3.19477 0
M  V30 4028 C 395.484 4.18189 -1.37134 0
M  V30 4029 H 392.603 0.642538 -0.360991 0
M  V30 4030 H 395.245 1.20784 -1.46667 0
M  V30 4031 H 393.395 3.67929 -1.24741 0
M  V30 4032 H 395.067 2.76567 -3.692 0
M  V30 4033 H 393.31 2.54491 -3.51307 0
M  V30 4034 H 393.981 4.1758 -3.61013 0
M  V30 4035 H 396.457 3.78761 -1.72276 0
M  V30 4036 H 395.333 5.16394 -1.86087 0
M  V30 4037 H 395.594 4.41112 -0.295424 0
M  V30 4038 N 394.653 0.992116 1.22453 0
M  V30 4039 C 395.878 0.685644 1.95739 0
M  V30 4040 C 396.303 -0.743 1.72804 0
M  V30 4041 O 395.661 -1.50778 1.00676 0
M  V30 4042 C 395.709 0.996293 3.46564 0
M  V30 4043 O 394.813 0.0945512 4.12292 0
M  V30 4044 H 394.154 0.256694 0.612376 0
M  V30 4045 H 396.684 1.32888 1.5557 0
M  V30 4046 H 396.694 0.93781 3.97076 0
M  V30 4047 H 395.369 2.03733 3.62582 0
M  V30 4048 H 393.946 0.208451 3.72317 0
M  V30 4049 N 396.131 -1.37776 0.765217 0
M  V30 4050 C 397.377 -2.00145 0.327072 0
M  V30 4051 C 397.71 -1.60607 -1.09175 0
M  V30 4052 O 396.985 -0.849127 -1.74986 0
M  V30 4053 C 397.268 -3.57109 0.46319 0
M  V30 4054 C 397.121 -4.06576 1.92395 0
M  V30 4055 C 398.44 -4.39888 -0.136473 0
M  V30 4056 H 395.559 -0.727113 0.120316 0
M  V30 4057 H 398.201 -1.63549 0.967039 0
M  V30 4058 H 396.351 -3.88414 -0.0816358 0
M  V30 4059 H 398.023 -3.85864 2.52798 0
M  V30 4060 H 396.266 -3.59011 2.43503 0
M  V30 4061 H 396.937 -5.15639 1.97028 0
M  V30 4062 H 399.413 -4.14803 0.328317 0
M  V30 4063 H 398.289 -5.48899 -0.0110582 0
M  V30 4064 H 398.55 -4.24758 -1.22608 0
M  V30 4065 N 397.609 -0.515225 -1.4894 0
M  V30 4066 C 398.559 0.275113 -2.26334 0
M  V30 4067 C 399.543 0.923007 -1.31793 0
M  V30 4068 O 400.735 0.828254 -1.56426 0
M  V30 4069 C 397.864 1.33041 -3.16473 0
M  V30 4070 C 396.95 0.688051 -4.18481 0
M  V30 4071 N 397.341 -0.217638 -5.05332 0
M  V30 4072 C 395.639 0.94699 -4.3583 0
M  V30 4073 C 396.34 -0.58676 -5.78733 0
M  V30 4074 N 395.316 0.0486966 -5.43578 0
M  V30 4075 H 399.118 -0.421876 -2.90856 0
M  V30 4076 H 396.632 -0.332249 -1.58965 0
M  V30 4077 H 398.629 1.9102 -3.70563 0
M  V30 4078 H 397.289 2.02894 -2.53504 0
M  V30 4079 H 398.3 -0.589343 -5.14536 0
M  V30 4080 H 394.977 1.63719 -3.8406 0
M  V30 4081 H 396.367 -1.32855 -6.58634 0
M  V30 4082 N 399.087 1.5561 -0.249682 0
M  V30 4083 C 400.05 2.20217 0.635394 0
M  V30 4084 C 401.05 1.17227 1.10066 0
M  V30 4085 O 402.24 1.42292 1.00492 0
M  V30 4086 C 399.372 2.84794 1.87363 0
M  V30 4087 H 400.565 2.99814 0.0716752 0
M  V30 4088 H 398.118 1.563 -0.000153234 0
M  V30 4089 H 398.853 2.09142 2.47851 0
M  V30 4090 H 398.638 3.60241 1.5482 0
M  V30 4091 H 400.128 3.3423 2.5036 0
M  V30 4092 N 400.565 -0.0233959 1.57583 0
M  V30 4093 C 401.981 -0.379134 1.55031 0
M  V30 4094 C 402.181 -1.76255 0.976548 0
M  V30 4095 O 401.237 -2.45266 0.600078 0
M  V30 4096 C 402.55 -0.275792 2.99433 0
M  V30 4097 C 404.098 -0.352458 3.11009 0
M  V30 4098 C 404.573 -0.278501 4.57152 0
M  V30 4099 N 406.064 -0.337123 4.61972 0
M  V30 4100 C 406.799 -0.302876 5.726 0
M  V30 4101 N 406.295 -0.220589 6.92449 0
M  V30 4102 N 408.088 -0.353023 5.6099 0
M  V30 4103 H 400.239 0.881869 1.93227 0
M  V30 4104 H 402.502 0.335867 0.886509 0
M  V30 4105 H 402.208 0.675108 3.4516 0
M  V30 4106 H 402.082 -1.06721 3.61788 0
M  V30 4107 H 404.469 -1.29379 2.65226 0
M  V30 4108 H 404.55 0.468409 2.51475 0
M  V30 4109 H 404.194 0.659189 5.03604 0
M  V30 4110 H 404.124 -1.11755 5.14605 0
M  V30 4111 H 406.615 -0.403002 3.75745 0
M  V30 4112 H 406.928 -0.199713 7.72542 0
M  V30 4113 H 405.273 -0.186555 6.9475 0
M  V30 4114 H 408.464 -0.415339 4.66254 0
M  V30 4115 H 408.637 -0.322866 6.47195 0
M  V30 4116 N 402.043 -1.548 -0.295768 0
M  V30 4117 C 403.268 -1.78653 -1.05346 0
M  V30 4118 C 403.693 -0.546894 -1.79974 0
M  V30 4119 O 403.051 0.502763 -1.7419 0
M  V30 4120 C 403.099 -2.99679 -2.00561 0
M  V30 4121 O 402.203 -2.7317 -3.08953 0
M  V30 4122 H 401.544 -0.59116 -0.302367 0
M  V30 4123 H 404.074 -2.01895 -0.331598 0
M  V30 4124 H 404.084 -3.27793 -2.42932 0
M  V30 4125 H 402.759 -3.89562 -1.4565 0
M  V30 4126 H 401.336 -2.56089 -2.71059 0
M  V30 4127 N 403.521 0.559213 -1.47345 0
M  V30 4128 C 404.451 1.67622 -1.62558 0
M  V30 4129 C 405.432 1.63331 -0.475087 0
M  V30 4130 O 406.617 1.80983 -0.704182 0
M  V30 4131 C 403.747 3.0626 -1.63774 0
M  V30 4132 C 402.701 3.25397 -2.7803 0
M  V30 4133 C 402.027 4.64801 -2.64318 0
M  V30 4134 C 403.327 3.10965 -4.19641 0
M  V30 4135 H 405.021 1.55146 -2.56067 0
M  V30 4136 H 402.567 0.744961 -1.23233 0
M  V30 4137 H 404.52 3.84247 -1.73008 0
M  V30 4138 H 403.244 3.1969 -0.66825 0
M  V30 4139 H 401.903 2.49817 -2.68304 0
M  V30 4140 H 401.551 4.75028 -1.65401 0
M  V30 4141 H 401.251 4.78555 -3.40968 0
M  V30 4142 H 402.775 5.44926 -2.75478 0
M  V30 4143 H 404.189 3.78772 -4.30354 0
M  V30 4144 H 402.586 3.36229 -4.97062 0
M  V30 4145 H 403.656 2.07736 -4.38148 0
M  V30 4146 N 404.999 1.35443 0.805782 0
M  V30 4147 C 406.245 1.2996 1.56467 0
M  V30 4148 C 406.6 -0.124742 1.91995 0
M  V30 4149 O 405.893 -1.07533 1.58579 0
M  V30 4150 C 406.087 2.14045 2.86216 0
M  V30 4151 C 405.916 3.64512 2.63365 0
M  V30 4152 C 404.686 4.33744 2.59219 0
M  V30 4153 C 406.884 4.58142 2.33688 0
M  V30 4154 N 404.866 5.69953 2.28094 0
M  V30 4155 C 406.237 5.8248 2.12408 0
M  V30 4156 C 408.292 4.46877 2.19558 0
M  V30 4157 C 406.995 6.96818 1.78429 0
M  V30 4158 C 409.021 5.61065 1.86976 0
M  V30 4159 C 408.383 6.84431 1.66532 0
M  V30 4160 H 404.482 0.530817 0.574245 0
M  V30 4161 H 407.066 1.70333 0.943126 0
M  V30 4162 H 405.237 1.75942 3.46264 0
M  V30 4163 H 406.969 2.00075 3.51784 0
M  V30 4164 H 403.724 3.86365 2.73896 0
M  V30 4165 H 404.148 6.41845 2.15323 0
M  V30 4166 H 408.79 3.52102 2.34061 0
M  V30 4167 H 406.508 7.91559 1.62664 0
M  V30 4168 H 410.094 5.54302 1.7675 0
M  V30 4169 H 408.974 7.71294 1.41688 0
M  V30 4170 N 406.477 -1.02803 1.19454 0
M  V30 4171 C 407.893 -1.28473 0.946937 0
M  V30 4172 C 408.093 -1.97881 -0.380202 0
M  V30 4173 O 407.149 -2.26719 -1.11151 0
M  V30 4174 C 408.462 -2.13099 2.12154 0
M  V30 4175 C 410.01 -2.26404 2.16126 0
M  V30 4176 C 410.485 -3.14402 3.33039 0
M  V30 4177 N 411.976 -3.21991 3.32981 0
M  V30 4178 C 412.711 -3.90272 4.20089 0
M  V30 4179 N 412.207 -4.60777 5.17355 0
M  V30 4180 N 414 -3.8668 4.07964 0
M  V30 4181 H 406.151 -0.561665 2.04839 0
M  V30 4182 H 408.414 -0.310438 0.89573 0
M  V30 4183 H 408.12 -1.69422 3.08203 0
M  V30 4184 H 407.994 -3.13813 2.09287 0
M  V30 4185 H 410.381 -2.69311 1.20647 0
M  V30 4186 H 410.462 -1.25237 2.23045 0
M  V30 4187 H 410.106 -2.72204 4.28798 0
M  V30 4188 H 410.036 -4.1563 3.23356 0
M  V30 4189 H 412.527 -2.71778 2.62574 0
M  V30 4190 H 412.84 -5.10513 5.80169 0
M  V30 4191 H 411.185 -4.5964 5.21302 0
M  V30 4192 H 414.376 -3.30739 3.31254 0
M  V30 4193 H 414.549 -4.39621 4.76064 0
M  V30 4194 N 407.956 -0.998596 -1.21925 0
M  V30 4195 C 408.886 -0.573688 -2.26343 0
M  V30 4196 C 409.867 0.402296 -1.65274 0
M  V30 4197 O 411.052 0.291683 -1.91997 0
M  V30 4198 C 408.182 0.106839 -3.47136 0
M  V30 4199 C 407.136 -0.788269 -4.20678 0
M  V30 4200 C 406.462 0.0254927 -5.34694 0
M  V30 4201 C 407.762 -2.08784 -4.78755 0
M  V30 4202 H 409.456 -1.44651 -2.62138 0
M  V30 4203 H 407.002 -0.696975 -1.26009 0
M  V30 4204 H 408.955 0.415531 -4.19346 0
M  V30 4205 H 407.679 1.01424 -3.10452 0
M  V30 4206 H 406.338 -1.08069 -3.50309 0
M  V30 4207 H 405.986 0.933989 -4.94253 0
M  V30 4208 H 405.686 -0.570437 -5.84825 0
M  V30 4209 H 407.21 0.328147 -6.09718 0
M  V30 4210 H 408.624 -1.84272 -5.42878 0
M  V30 4211 H 407.021 -2.63307 -5.39249 0
M  V30 4212 H 408.091 -2.76284 -3.98491 0
M  V30 4213 N 409.434 1.37368 -0.772513 0
M  V30 4214 C 410.344 2.34053 -0.160081 0
M  V30 4215 C 411.36 1.60216 0.678728 0
M  V30 4216 O 412.536 1.92303 0.59847 0
M  V30 4217 C 409.601 3.3939 0.708182 0
M  V30 4218 C 408.662 4.29048 -0.147172 0
M  V30 4219 C 407.895 5.29354 0.679744 0
M  V30 4220 O 408.118 5.3723 1.91678 0
M  V30 4221 O 407.052 6.01835 0.0885444 0
M  V30 4222 H 410.878 2.88159 -0.959053 0
M  V30 4223 H 408.463 1.39543 -0.533685 0
M  V30 4224 H 410.345 4.03839 1.20384 0
M  V30 4225 H 409.02 2.8761 1.48533 0
M  V30 4226 H 407.927 3.67697 -0.689205 0
M  V30 4227 H 409.26 4.84134 -0.887423 0
M  V30 4228 N 410.912 0.523116 1.48665 0
M  V30 4229 C 412.14 -0.0096312 2.06898 0
M  V30 4230 C 412.555 -1.28784 1.38059 0
M  V30 4231 O 411.912 -1.76453 0.465893 0
M  V30 4232 C 411.963 -0.244386 3.60673 0
M  V30 4233 O 411.684 0.983172 4.26925 0
M  V30 4234 C 413.185 -0.818289 4.35682 0
M  V30 4235 H 410.405 0.0304161 0.67031 0
M  V30 4236 H 412.949 0.726799 1.91149 0
M  V30 4237 H 411.104 -0.930847 3.76051 0
M  V30 4238 H 411.518 0.759653 5.1897 0
M  V30 4239 H 412.992 -0.93201 5.44075 0
M  V30 4240 H 413.469 -1.82153 3.99646 0
M  V30 4241 H 414.075 -0.168609 4.24966 0
M  V30 4242 N 412.39 -1.55475 0.257931 0
M  V30 4243 C 413.32 -2.24815 -0.630912 0
M  V30 4244 C 414.301 -1.23224 -1.17259 0
M  V30 4245 O 415.486 -1.51904 -1.20991 0
M  V30 4246 C 412.616 -2.95609 -1.82298 0
M  V30 4247 C 411.57 -4.03982 -1.41359 0
M  V30 4248 C 410.896 -4.6226 -2.68738 0
M  V30 4249 C 412.196 -5.19109 -0.57648 0
M  V30 4250 H 413.89 -2.99354 -0.0526878 0
M  V30 4251 H 411.436 -1.4398 -0.023901 0
M  V30 4252 H 413.389 -3.42822 -2.45054 0
M  V30 4253 H 412.113 -2.18577 -2.42676 0
M  V30 4254 H 410.772 -3.57555 -0.809324 0
M  V30 4255 H 410.42 -3.81915 -3.27338 0
M  V30 4256 H 410.12 -5.35424 -2.42065 0
M  V30 4257 H 411.644 -5.12212 -3.32372 0
M  V30 4258 H 413.058 -5.62479 -1.10861 0
M  V30 4259 H 411.455 -5.98729 -0.405351 0
M  V30 4260 H 412.525 -4.83174 0.408776 0
M  V30 4261 N 413.868 0.0150385 -1.57593 0
M  V30 4262 C 415.284 0.370907 -1.5523 0
M  V30 4263 C 415.484 1.75735 -0.985882 0
M  V30 4264 O 414.54 2.44944 -0.613077 0
M  V30 4265 C 415.853 0.259908 -2.99575 0
M  V30 4266 C 417.401 0.335959 -3.11192 0
M  V30 4267 C 417.876 0.254253 -4.57294 0
M  V30 4268 N 419.367 0.312618 -4.62144 0
M  V30 4269 C 420.102 0.272505 -5.72752 0
M  V30 4270 N 419.598 0.183864 -6.92556 0
M  V30 4271 N 421.391 0.323267 -5.6117 0
M  V30 4272 H 413.542 -0.892104 -1.92757 0
M  V30 4273 H 415.805 -0.340563 -0.884715 0
M  V30 4274 H 415.511 -0.693403 -3.44797 0
M  V30 4275 H 415.385 1.048 -3.62349 0
M  V30 4276 H 417.772 1.27971 -2.65909 0
M  V30 4277 H 417.853 -0.481739 -2.51223 0
M  V30 4278 H 417.497 -0.685887 -5.03247 0
M  V30 4279 H 417.427 1.09024 -5.15191 0
M  V30 4280 H 419.918 0.38307 -3.75953 0
M  V30 4281 H 420.231 0.15874 -7.72637 0
M  V30 4282 H 418.576 0.149708 -6.94839 0
M  V30 4283 H 421.767 0.390607 -4.66467 0
M  V30 4284 H 421.94 0.288539 -6.47357 0
M  V30 4285 N 415.346 1.54954 0.287554 0
M  V30 4286 C 416.592 1.75132 1.02257 0
M  V30 4287 C 416.925 0.542858 1.86458 0
M  V30 4288 O 416.2 -0.459856 1.88986 0
M  V30 4289 C 416.483 3.04812 1.91733 0
M  V30 4290 C 416.336 4.35985 1.10622 0
M  V30 4291 C 417.655 3.30438 2.90687 0
M  V30 4292 H 414.774 0.637194 0.370341 0
M  V30 4293 H 417.416 1.87678 0.296111 0
M  V30 4294 H 415.566 2.94247 2.53675 0
M  V30 4295 H 417.238 4.58487 0.508636 0
M  V30 4296 H 415.481 4.31865 0.409271 0
M  V30 4297 H 416.152 5.23017 1.76513 0
M  V30 4298 H 418.628 3.40701 2.38877 0
M  V30 4299 H 417.504 4.22467 3.50447 0
M  V30 4300 H 417.765 2.49377 3.65053 0
M  V30 4301 N 416.824 -0.551391 1.4764 0
M  V30 4302 C 417.787 -1.64007 1.60107 0
M  V30 4303 C 418.787 -1.53601 0.47576 0
M  V30 4304 O 419.977 -1.57655 0.740988 0
M  V30 4305 C 417.109 -3.03569 1.55108 0
M  V30 4306 H 418.302 -1.543 2.57161 0
M  V30 4307 H 415.855 -0.771776 1.35917 0
M  V30 4308 H 416.59 -3.18804 0.594519 0
M  V30 4309 H 416.375 -3.12532 2.36783 0
M  V30 4310 H 417.865 -3.82762 1.66982 0
M  V30 4311 N 418.302 -1.35869 -0.798587 0
M  V30 4312 C 419.548 -1.30788 -1.55775 0
M  V30 4313 C 419.903 0.114558 -1.92059 0
M  V30 4314 O 419.196 1.06691 -1.59147 0
M  V30 4315 C 419.39 -2.1556 -2.85077 0
M  V30 4316 C 419.219 -3.65904 -2.61428 0
M  V30 4317 C 417.989 -4.35112 -2.56915 0
M  V30 4318 C 420.187 -4.59375 -2.31255 0
M  V30 4319 N 418.169 -5.71155 -2.25068 0
M  V30 4320 C 419.54 -5.83598 -2.09316 0
M  V30 4321 C 421.595 -4.48035 -2.17185 0
M  V30 4322 C 420.298 -6.97755 -1.74731 0
M  V30 4323 C 422.324 -5.62049 -1.83998 0
M  V30 4324 C 421.686 -6.85305 -1.629 0
M  V30 4325 H 417.785 -0.533855 -0.571422 0
M  V30 4326 H 420.369 -1.7083 -0.934079 0
M  V30 4327 H 418.54 -1.77776 -3.45326 0
M  V30 4328 H 420.272 -2.01938 -3.50718 0
M  V30 4329 H 417.027 -3.87812 -2.71843 0
M  V30 4330 H 417.451 -6.42978 -2.11916 0
M  V30 4331 H 422.093 -3.53338 -2.3219 0
M  V30 4332 H 419.811 -7.92411 -1.58464 0
M  V30 4333 H 423.397 -5.55232 -1.73808 0
M  V30 4334 H 422.277 -7.72034 -1.37596 0
M  V30 4335 N 419.78 1.02168 -1.19998 0
M  V30 4336 C 421.005 1.79833 -1.03319 0
M  V30 4337 C 421.43 1.83504 0.413281 0
M  V30 4338 O 420.788 1.26635 1.29743 0
M  V30 4339 C 420.836 3.22396 -1.61533 0
M  V30 4340 O 419.94 4.03555 -0.849519 0
M  V30 4341 H 419.281 0.554872 -0.364709 0
M  V30 4342 H 421.811 1.28542 -1.59179 0
M  V30 4343 H 421.821 3.73124 -1.65054 0
M  V30 4344 H 420.496 3.19039 -2.66809 0
M  V30 4345 H 419.073 3.62169 -0.888129 0
M  V30 4346 N 421.258 1.00505 1.21394 0
M  V30 4347 C 422.506 0.686415 1.90086 0
M  V30 4348 C 422.827 -0.785264 1.7849 0
M  V30 4349 O 422.097 -1.56387 1.17983 0
M  V30 4350 H 420.677 0.2509 0.703604 0
M  V30 4351 H 423.339 1.27417 1.47482 0
M  V30 4352 H 422.435 0.959621 2.96981 0
M  V30 4353 N 422.737 -1.36956 0.779787 0
M  V30 4354 C 423.962 -2.04283 0.358224 0
M  V30 4355 C 424.387 -1.58422 -1.01411 0
M  V30 4356 O 423.745 -0.748179 -1.65142 0
M  V30 4357 C 423.793 -3.58152 0.419479 0
M  V30 4358 O 422.897 -4.08342 -0.577142 0
M  V30 4359 H 422.238 -0.645967 0.153698 0
M  V30 4360 H 424.768 -1.75108 1.05822 0
M  V30 4361 H 424.778 -4.07041 0.279636 0
M  V30 4362 H 423.453 -3.90886 1.42061 0
M  V30 4363 H 422.03 -3.70751 -0.399755 0
M  V30 4364 N 424.215 -0.530993 -1.48385 0
M  V30 4365 C 425.165 0.251092 -2.26613 0
M  V30 4366 C 426.149 0.908977 -1.32765 0
M  V30 4367 O 427.341 0.811616 -1.57295 0
M  V30 4368 C 424.47 1.29677 -3.17866 0
M  V30 4369 C 423.556 0.643627 -4.19188 0
M  V30 4370 N 423.947 -0.271223 -5.05072 0
M  V30 4371 C 422.245 0.900711 -4.3681 0
M  V30 4372 C 422.946 -0.648109 -5.78078 0
M  V30 4373 N 421.922 -0.00895987 -5.43599 0
M  V30 4374 H 425.724 -0.452702 -2.90393 0
M  V30 4375 H 423.238 -0.349091 -1.58604 0
M  V30 4376 H 425.235 1.87079 -3.72568 0
M  V30 4377 H 423.895 2.00193 -2.55642 0
M  V30 4378 H 424.906 -0.643883 -5.13882 0
M  V30 4379 H 421.583 1.59636 -3.85775 0
M  V30 4380 H 422.973 -1.39833 -6.57188 0
M  V30 4381 N 425.693 1.55336 -0.266172 0
M  V30 4382 C 426.942 1.98574 0.353749 0
M  V30 4383 C 427.255 1.15789 1.57646 0
M  V30 4384 O 428.461 1.49129 2.26876 0
M  V30 4385 C 426.917 3.53403 0.680747 0
M  V30 4386 C 426.525 4.44953 -0.52165 0
M  V30 4387 C 428.269 4.05251 1.26379 0
M  V30 4388 C 426.176 5.91156 -0.169736 0
M  V30 4389 H 425.106 0.741643 0.135949 0
M  V30 4390 H 427.757 1.79743 -0.369421 0
M  V30 4391 H 426.139 3.68001 1.46257 0
M  V30 4392 H 427.313 4.42121 -1.29869 0
M  V30 4393 H 425.628 4.03691 -1.02093 0
M  V30 4394 H 428.225 5.12021 1.54074 0
M  V30 4395 H 428.568 3.53749 2.19471 0
M  V30 4396 H 429.101 3.94057 0.544447 0
M  V30 4397 H 425.84 6.46736 -1.0683 0
M  V30 4398 H 425.36 5.97079 0.570717 0
M  V30 4399 H 427.039 6.4655 0.241245 0
M  V30 4400 N 427.171 -0.0066808 1.57599 0
M  V30 4401 C 428.587 -0.36267 1.55425 0
M  V30 4402 C 428.787 -1.75209 0.995187 0
M  V30 4403 O 427.843 -2.44616 0.626058 0
M  V30 4404 C 429.156 -0.244017 2.99708 0
M  V30 4405 C 430.704 -0.319451 3.11366 0
M  V30 4406 C 431.179 -0.229998 4.57422 0
M  V30 4407 N 432.67 -0.288105 4.62303 0
M  V30 4408 C 433.405 -0.242127 5.72889 0
M  V30 4409 N 432.901 -0.147133 6.92644 0
M  V30 4410 N 434.694 -0.293502 5.61333 0
M  V30 4411 H 426.845 0.902314 1.92281 0
M  V30 4412 H 429.108 0.34525 0.882896 0
M  V30 4413 H 428.814 0.711678 3.44424 0
M  V30 4414 H 428.688 -1.02877 3.629 0
M  V30 4415 H 431.075 -1.26559 2.66584 0
M  V30 4416 H 431.156 0.495055 2.50964 0
M  V30 4417 H 430.8 0.712566 5.02877 0
M  V30 4418 H 430.73 -1.0629 5.15761 0
M  V30 4419 H 433.221 -0.363126 3.76151 0
M  V30 4420 H 433.534 -0.117763 7.7271 0
M  V30 4421 H 431.879 -0.112857 6.94908 0
M  V30 4422 H 435.07 -0.365864 4.66668 0
M  V30 4423 H 435.243 -0.254204 6.47501 0
M  V30 4424 N 428.649 -1.55105 -0.279332 0
M  V30 4425 C 429.895 -1.76597 -1.00921 0
M  V30 4426 C 430.25 -0.556831 -1.84166 0
M  V30 4427 O 429.543 0.450573 -1.86227 0
M  V30 4428 C 429.737 -3.0086 -1.92919 0
M  V30 4429 C 429.566 -4.33744 -1.18728 0
M  V30 4430 C 428.336 -4.9712 -0.905545 0
M  V30 4431 C 430.534 -5.11009 -0.580857 0
M  V30 4432 N 428.516 -6.13749 -0.136169 0
M  V30 4433 C 429.887 -6.19976 0.0546661 0
M  V30 4434 C 431.942 -4.95502 -0.488067 0
M  V30 4435 C 430.645 -7.15123 0.774028 0
M  V30 4436 C 432.671 -5.90999 0.217688 0
M  V30 4437 C 432.033 -6.9935 0.841975 0
M  V30 4438 H 428.132 -0.698553 -0.351493 0
M  V30 4439 H 430.716 -1.92595 -0.285531 0
M  V30 4440 H 428.887 -2.86249 -2.62519 0
M  V30 4441 H 430.619 -3.10784 -2.59221 0
M  V30 4442 H 427.374 -4.57903 -1.20921 0
M  V30 4443 H 427.798 -6.7659 0.235665 0
M  V30 4444 H 432.44 -4.11841 -0.956406 0
M  V30 4445 H 430.158 -7.9831 1.25407 0
M  V30 4446 H 433.744 -5.81078 0.289717 0
M  V30 4447 H 432.624 -7.71973 1.37939 0
M  V30 4448 N 430.127 0.543554 -1.4793 0
M  V30 4449 C 431.375 1.29752 -1.54948 0
M  V30 4450 C 431.696 1.93764 -0.219242 0
M  V30 4451 O 430.966 1.80639 0.75805 0
M  V30 4452 H 429.546 0.481874 -0.570795 0
M  V30 4453 H 432.208 0.633636 -1.84312 0
M  V30 4454 H 431.304 2.08392 -2.32334 0
M  V30 4455 N 431.605 1.3629 0.791371 0
M  V30 4456 C 432.537 1.26321 1.91248 0
M  V30 4457 C 433.55 0.18313 1.61767 0
M  V30 4458 O 434.739 0.437682 1.73051 0
M  V30 4459 C 431.839 0.925901 3.26007 0
M  V30 4460 C 431.012 2.10746 3.83281 0
M  V30 4461 C 430.071 1.74352 4.96475 0
M  V30 4462 O 429.097 2.46416 5.13096 0
M  V30 4463 N 430.299 0.676058 5.7655 0
M  V30 4464 H 433.064 2.22915 2.00323 0
M  V30 4465 H 430.625 1.29659 0.969546 0
M  V30 4466 H 432.617 0.663636 3.99222 0
M  V30 4467 H 431.187 0.0491581 3.12561 0
M  V30 4468 H 430.407 2.53264 3.02077 0
M  V30 4469 H 431.695 2.8969 4.18279 0
M  V30 4470 H 431.093 0.0776467 5.65647 0
M  V30 4471 H 429.65 0.473612 6.50077 0
M  V30 4472 N 433.083 -1.0153 1.20538 0
M  V30 4473 C 434.494 -1.56598 1.01657 0
M  V30 4474 C 434.845 -1.91505 -0.426668 0
M  V30 4475 O 433.97 -1.72375 -1.30827 0
M  V30 4476 C 434.565 -2.84542 1.83905 0
M  V30 4477 C 433.124 -3.36133 1.69386 0
M  V30 4478 C 432.271 -2.09427 1.81757 0
M  V30 4479 H 435.222 -0.838974 1.34711 0
M  V30 4480 H 435.243 -3.56004 1.34319 0
M  V30 4481 H 434.755 -2.59105 2.8894 0
M  V30 4482 H 432.856 -3.66528 0.669933 0
M  V30 4483 H 432.969 -4.08248 2.50739 0
M  V30 4484 H 431.333 -2.21941 1.24957 0
M  V30 4485 H 432.116 -1.86414 2.88279 0
M  V30 4486 N 434.561 -1.01147 -1.20859 0
M  V30 4487 C 435.808 -0.697865 -1.90095 0
M  V30 4488 C 436.136 0.772014 -1.78522 0
M  V30 4489 O 435.391 1.57595 -1.16027 0
M  V30 4490 C 435.69 -1.0727 -3.40922 0
M  V30 4491 C 435.356 -2.53792 -3.72693 0
M  V30 4492 C 434.018 -2.93829 -3.81075 0
M  V30 4493 C 436.37 -3.48674 -3.87397 0
M  V30 4494 C 433.698 -4.27696 -4.01613 0
M  V30 4495 C 436.05 -4.82223 -4.09444 0
M  V30 4496 C 434.714 -5.21973 -4.16054 0
M  V30 4497 H 433.984 -0.255367 -0.695607 0
M  V30 4498 H 436.631 -1.27111 -1.43231 0
M  V30 4499 H 434.936 -0.417799 -3.89566 0
M  V30 4500 H 436.633 -0.807818 -3.92779 0
M  V30 4501 H 433.223 -2.21768 -3.66765 0
M  V30 4502 H 437.407 -3.18904 -3.80281 0
M  V30 4503 H 432.663 -4.58055 -4.04964 0
M  V30 4504 H 436.837 -5.55672 -4.19763 0
M  V30 4505 H 434.464 -6.25717 -4.31721 0
M  V30 4506 N 436.039 1.36541 -0.78704 0
M  V30 4507 C 437.455 1.52571 -0.46844 0
M  V30 4508 C 437.655 1.7415 1.01361 0
M  V30 4509 O 436.711 1.77163 1.79915 0
M  V30 4510 C 438.024 2.71299 -1.29682 0
M  V30 4511 C 439.572 2.85169 -1.29027 0
M  V30 4512 C 440.047 4.06898 -2.10233 0
M  V30 4513 N 441.538 4.1404 -2.07666 0
M  V30 4514 C 442.273 5.07301 -2.67271 0
M  V30 4515 N 441.769 6.06021 -3.35724 0
M  V30 4516 N 443.562 4.99898 -2.57018 0
M  V30 4517 H 435.713 1.20788 -1.74711 0
M  V30 4518 H 437.976 0.589364 -0.742532 0
M  V30 4519 H 437.682 2.61868 -2.34773 0
M  V30 4520 H 437.556 3.6539 -0.936479 0
M  V30 4521 H 439.943 2.94062 -0.247284 0
M  V30 4522 H 440.024 1.91992 -1.69035 0
M  V30 4523 H 439.668 3.98766 -3.1456 0
M  V30 4524 H 439.598 4.99218 -1.67597 0
M  V30 4525 H 442.089 3.43357 -1.57843 0
M  V30 4526 H 442.402 6.73741 -3.78541 0
M  V30 4527 H 440.747 6.06253 -3.39826 0
M  V30 4528 H 443.938 4.21724 -2.03142 0
M  V30 4529 H 444.111 5.72392 -3.03761 0
M  V30 4530 N 437.518 0.538854 1.48102 0
M  V30 4531 C 438.448 -0.207654 2.32575 0
M  V30 4532 C 439.429 -0.926559 1.4265 0
M  V30 4533 O 440.614 -0.91061 1.71527 0
M  V30 4534 C 437.744 -1.24957 3.24042 0
M  V30 4535 C 436.698 -0.648263 4.23062 0
M  V30 4536 C 436.024 -1.79348 5.03725 0
M  V30 4537 C 437.324 0.385897 5.20872 0
M  V30 4538 H 439.018 0.497534 2.95237 0
M  V30 4539 H 436.564 0.240715 1.41974 0
M  V30 4540 H 438.517 -1.77983 3.81969 0
M  V30 4541 H 437.241 -1.98446 2.59397 0
M  V30 4542 H 435.9 -0.139452 3.66335 0
M  V30 4543 H 435.548 -2.51696 4.35498 0
M  V30 4544 H 435.248 -1.39702 5.70751 0
M  V30 4545 H 436.772 -2.32735 5.64506 0
M  V30 4546 H 438.186 -0.057607 5.73271 0
M  V30 4547 H 436.583 0.700227 5.96001 0
M  V30 4548 H 437.653 1.28848 4.67468 0
M  V30 4549 N 438.996 -1.55193 0.274407 0
M  V30 4550 C 440.412 -1.59401 -0.0797543 0
M  V30 4551 C 440.612 -1.29162 -1.54659 0
M  V30 4552 O 439.668 -1.05215 -2.29534 0
M  V30 4553 C 440.981 -2.99257 0.294238 0
M  V30 4554 C 442.529 -3.12072 0.240796 0
M  V30 4555 C 443.004 -4.54194 0.589218 0
M  V30 4556 N 444.495 -4.60033 0.540744 0
M  V30 4557 C 445.23 -5.68027 0.783147 0
M  V30 4558 N 444.726 -6.8417 1.09013 0
M  V30 4559 N 446.519 -5.57572 0.711993 0
M  V30 4560 H 438.67 -1.73113 1.23067 0
M  V30 4561 H 440.933 -0.807197 0.497129 0
M  V30 4562 H 440.639 -3.26217 1.31435 0
M  V30 4563 H 440.513 -3.75427 -0.365281 0
M  V30 4564 H 442.9 -2.84877 -0.770024 0
M  V30 4565 H 442.981 -2.38117 0.934563 0
M  V30 4566 H 442.625 -4.82115 1.59772 0
M  V30 4567 H 442.555 -5.26448 -0.126331 0
M  V30 4568 H 445.046 -3.76599 0.313327 0
M  V30 4569 H 445.359 -7.6243 1.26178 0
M  V30 4570 H 443.704 -6.85787 1.12789 0
M  V30 4571 H 446.895 -4.65714 0.472014 0
M  V30 4572 H 447.068 -6.41659 0.90429 0
M  V30 4573 N 440.474 -0.00167713 -1.576 0
M  V30 4574 C 441.424 0.997744 -2.0501 0
M  V30 4575 C 442.408 1.30214 -0.94515 0
M  V30 4576 O 443.6 1.29284 -1.20891 0
M  V30 4577 C 440.729 2.2892 -2.55833 0
M  V30 4578 C 439.815 2.01437 -3.73208 0
M  V30 4579 N 440.206 1.44119 -4.84833 0
M  V30 4580 C 438.504 2.31571 -3.8117 0
M  V30 4581 C 439.205 1.33145 -5.66257 0
M  V30 4582 N 438.181 1.81763 -5.12312 0
M  V30 4583 H 441.983 0.549098 -2.88725 0
M  V30 4584 H 439.497 0.20398 -1.61114 0
M  V30 4585 H 441.494 3.01361 -2.88075 0
M  V30 4586 H 440.154 2.74436 -1.73537 0
M  V30 4587 H 441.165 1.11978 -5.0565 0
M  V30 4588 H 437.842 2.7995 -3.09732 0
M  V30 4589 H 439.232 0.890567 -6.65972 0
M  V30 4590 N 441.952 1.55251 0.271103 0
M  V30 4591 C 443.198 1.76207 1.00394 0
M  V30 4592 C 443.531 0.562604 1.85872 0
M  V30 4593 O 442.806 -0.439785 1.89463 0
M  V30 4594 C 443.089 3.06828 1.8849 0
M  V30 4595 C 442.942 4.37134 1.05992 0
M  V30 4596 C 444.261 3.33503 2.87165 0
M  V30 4597 H 441.38 0.641086 0.363562 0
M  V30 4598 H 444.022 1.87982 0.276189 0
M  V30 4599 H 442.172 2.96921 2.5054 0
M  V30 4600 H 443.844 4.59001 0.459978 0
M  V30 4601 H 442.087 4.32275 0.363443 0
M  V30 4602 H 442.758 5.2486 1.70955 0
M  V30 4603 H 445.234 3.43215 2.3525 0
M  V30 4604 H 444.11 4.2616 3.45946 0
M  V30 4605 H 444.371 2.53235 3.62387 0
M  V30 4606 N 443.43 -0.535701 1.48216 0
M  V30 4607 C 444.658 -1.31671 1.59594 0
M  V30 4608 C 445.073 -1.87083 0.254056 0
M  V30 4609 O 444.43 -1.66112 -0.755854 0
M  V30 4610 C 444.481 -2.47158 2.63809 0
M  V30 4611 O 444.202 -1.94032 3.92789 0
M  V30 4612 C 445.703 -3.39062 2.85573 0
M  V30 4613 H 442.923 -0.400623 0.538277 0
M  V30 4614 H 445.467 -0.646827 1.94001 0
M  V30 4615 H 443.622 -3.10043 2.32276 0
M  V30 4616 H 444.036 -2.69585 4.49916 0
M  V30 4617 H 445.51 -4.16459 3.62306 0
M  V30 4618 H 445.987 -3.93941 1.94184 0
M  V30 4619 H 446.593 -2.81975 3.18387 0
M  V30 4620 N 444.908 -1.36708 -0.784132 0
M  V30 4621 C 446.136 -1.34398 -1.57305 0
M  V30 4622 C 446.551 0.0735577 -1.88657 0
M  V30 4623 O 445.908 1.03193 -1.50524 0
M  V30 4624 C 445.959 -2.17053 -2.89085 0
M  V30 4625 O 445.68 -3.53281 -2.59083 0
M  V30 4626 C 447.181 -2.22583 -3.83369 0
M  V30 4627 H 444.401 -0.460819 -0.487736 0
M  V30 4628 H 446.945 -1.79879 -0.972819 0
M  V30 4629 H 445.1 -1.75113 -3.45564 0
M  V30 4630 H 445.514 -3.9647 -3.43383 0
M  V30 4631 H 446.988 -2.84763 -4.72878 0
M  V30 4632 H 447.465 -1.23075 -4.21603 0
M  V30 4633 H 448.071 -2.64781 -3.32823 0
M  V30 4634 N 446.386 1.0089 -1.21074 0
M  V30 4635 C 447.634 1.74262 -1.02358 0
M  V30 4636 C 447.955 1.89869 0.444393 0
M  V30 4637 O 447.225 1.44677 1.32081 0
M  V30 4638 H 445.805 0.645615 -0.375754 0
M  V30 4639 H 448.467 1.21596 -1.52317 0
M  V30 4640 H 447.563 2.74328 -1.4883 0
M  V30 4641 N 447.864 1.01787 1.20321 0
M  V30 4642 C 448.811 0.589197 2.23153 0
M  V30 4643 C 449.781 -0.391367 1.61423 0
M  V30 4644 O 450.966 -0.290518 1.88575 0
M  V30 4645 C 448.106 -0.0650747 3.45039 0
M  V30 4646 C 447.219 0.960207 4.21194 0
M  V30 4647 C 446.354 0.276854 5.30478 0
M  V30 4648 C 445.393 1.2888 5.98378 0
M  V30 4649 N 444.53 0.632031 6.99249 0
M  V30 4650 H 449.37 1.47071 2.59179 0
M  V30 4651 H 446.907 0.736192 1.27352 0
M  V30 4652 H 448.865 -0.461552 4.14639 0
M  V30 4653 H 447.495 -0.910233 3.09701 0
M  V30 4654 H 446.547 1.47484 3.50646 0
M  V30 4655 H 447.859 1.72977 4.67847 0
M  V30 4656 H 447.013 -0.175056 6.06447 0
M  V30 4657 H 445.752 -0.525004 4.84866 0
M  V30 4658 H 444.757 1.75109 5.21169 0
M  V30 4659 H 445.982 2.09196 6.46076 0
M  V30 4660 H 443.928 -0.149935 6.55829 0
M  V30 4661 H 443.845 1.33964 7.44036 0
M  V30 4662 H 445.113 0.203755 7.79234 0
M  V30 4663 N 449.342 -1.36122 0.79427 0
M  V30 4664 C 450.572 -2.03067 0.380437 0
M  V30 4665 C 450.98 -1.60018 -1.00949 0
M  V30 4666 O 450.323 -0.787425 -1.65968 0
M  V30 4667 C 450.385 -3.57587 0.37034 0
M  V30 4668 C 450.049 -4.23855 1.70867 0
M  V30 4669 C 451.046 -4.46404 2.66496 0
M  V30 4670 C 448.731 -4.61229 1.9893 0
M  V30 4671 C 450.725 -5.05412 3.88378 0
M  V30 4672 C 448.412 -5.19953 3.21079 0
M  V30 4673 C 449.41 -5.41985 4.15621 0
M  V30 4674 O 449.098 -5.99475 5.35616 0
M  V30 4675 H 448.83 -0.658168 0.154243 0
M  V30 4676 H 451.384 -1.7498 1.0757 0
M  V30 4677 H 449.614 -3.84814 -0.381444 0
M  V30 4678 H 451.303 -4.05895 -0.0194894 0
M  V30 4679 H 452.069 -4.17921 2.46103 0
M  V30 4680 H 447.948 -4.43402 1.26158 0
M  V30 4681 H 451.492 -5.22524 4.62185 0
M  V30 4682 H 447.389 -5.47862 3.41347 0
M  V30 4683 H 448.157 -6.17937 5.36745 0
M  V30 4684 N 450.82 -0.546701 -1.47814 0
M  V30 4685 C 451.75 0.195317 -2.32682 0
M  V30 4686 C 452.731 0.918981 -1.43139 0
M  V30 4687 O 453.916 0.901501 -1.72008 0
M  V30 4688 C 451.046 1.23237 -3.247 0
M  V30 4689 C 450 0.625818 -4.234 0
M  V30 4690 C 449.326 1.76674 -5.04669 0
M  V30 4691 C 450.626 -0.413515 -5.2066 0
M  V30 4692 H 452.32 -0.513184 -2.94969 0
M  V30 4693 H 449.866 -0.248241 -1.41844 0
M  V30 4694 H 451.819 1.75955 -3.82907 0
M  V30 4695 H 450.543 1.97067 -2.60446 0
M  V30 4696 H 449.202 0.120023 -3.66403 0
M  V30 4697 H 448.85 2.49383 -4.36826 0
M  V30 4698 H 448.55 1.36673 -5.71484 0
M  V30 4699 H 450.074 2.29738 -5.65732 0
M  V30 4700 H 451.488 0.0272042 -5.73294 0
M  V30 4701 H 449.885 -0.731825 -5.95621 0
M  V30 4702 H 450.955 -1.31325 -4.66778 0
M  V30 4703 N 452.299 1.55045 -0.282633 0
M  V30 4704 C 453.524 2.04628 0.337977 0
M  V30 4705 C 453.949 1.15937 1.48123 0
M  V30 4706 O 453.307 0.159532 1.80597 0
M  V30 4707 C 453.355 3.51854 0.78936 0
M  V30 4708 O 452.459 3.66236 1.89592 0
M  V30 4709 H 451.8 0.660434 0.0687261 0
M  V30 4710 H 454.33 2.00261 -0.419124 0
M  V30 4711 H 454.34 3.93361 1.08311 0
M  V30 4712 H 453.015 4.15873 -0.0470419 0
M  V30 4713 H 451.592 3.36633 1.60413 0
M  V30 4714 N 453.777 0.010035 1.57597 0
M  V30 4715 C 454.707 -0.976857 2.12084 0
M  V30 4716 C 455.688 -1.35191 1.03235 0
M  V30 4717 O 456.873 -1.43389 1.3097 0
M  V30 4718 C 454.003 -2.26548 2.63236 0
M  V30 4719 C 452.957 -2.03175 3.76701 0
M  V30 4720 C 452.283 -3.38138 4.14206 0
M  V30 4721 C 453.583 -1.38625 5.03568 0
M  V30 4722 H 455.277 -0.523145 2.94794 0
M  V30 4723 H 452.823 -0.250195 1.4181 0
M  V30 4724 H 454.776 -2.95952 2.99984 0
M  V30 4725 H 453.5 -2.74051 1.77661 0
M  V30 4726 H 452.159 -1.36195 3.40362 0
M  V30 4727 H 451.807 -3.83363 3.25641 0
M  V30 4728 H 451.507 -3.23312 4.90656 0
M  V30 4729 H 453.031 -4.08841 4.53521 0
M  V30 4730 H 454.445 -1.98 5.38023 0
M  V30 4731 H 452.842 -1.34256 5.84889 0
M  V30 4732 H 453.912 -0.356722 4.83586 0
M  V30 4733 N 455.255 -1.55392 -0.262866 0
M  V30 4734 C 456.188 -1.8391 -1.35101 0
M  V30 4735 C 457.166 -0.692901 -1.47097 0
M  V30 4736 O 458.35 -0.936979 -1.63563 0
M  V30 4737 C 455.477 -2.00969 -2.72634 0
M  V30 4738 C 454.523 -3.23559 -2.7787 0
M  V30 4739 S 455.356 -4.80647 -2.3609 0
M  V30 4740 C 456.512 -5.00692 -3.75578 0
M  V30 4741 H 456.745 -2.75918 -1.1071 0
M  V30 4742 H 454.278 -1.47294 -0.463029 0
M  V30 4743 H 456.236 -2.11482 -3.51832 0
M  V30 4744 H 454.897 -1.09832 -2.94272 0
M  V30 4745 H 454.09 -3.32413 -3.78837 0
M  V30 4746 H 453.692 -3.11689 -2.06702 0
M  V30 4747 H 455.984 -4.87055 -4.70939 0
M  V30 4748 H 456.927 -6.02717 -3.71669 0
M  V30 4749 H 457.335 -4.28619 -3.6735 0
M  V30 4750 N 456.733 0.527833 -1.48498 0
M  V30 4751 C 457.643 1.65907 -1.65867 0
M  V30 4752 C 458.659 1.6537 -0.541192 0
M  V30 4753 O 459.835 1.84282 -0.812534 0
M  V30 4754 C 456.9 3.02364 -1.69637 0
M  V30 4755 C 455.961 3.1374 -2.93028 0
M  V30 4756 C 455.194 4.43688 -2.96609 0
M  V30 4757 O 455.417 5.30913 -2.08538 0
M  V30 4758 O 454.351 4.59475 -3.88802 0
M  V30 4759 H 458.177 1.5419 -2.61647 0
M  V30 4760 H 455.762 0.701163 -1.31924 0
M  V30 4761 H 457.644 3.83515 -1.74625 0
M  V30 4762 H 456.319 3.14401 -0.770312 0
M  V30 4763 H 455.226 2.31877 -2.93571 0
M  V30 4764 H 456.559 3.06621 -3.85026 0
M  V30 4765 N 458.211 1.37122 0.776871 0
M  V30 4766 C 459.488 1.22586 1.52421 0
M  V30 4767 C 459.868 -0.182726 2.10308 0
M  V30 4768 O 459.216 -1.18979 1.9508 0
M  V30 4769 C 459.426 2.31782 2.60918 0
M  V30 4770 C 460.774 2.69071 3.2846 0
M  V30 4771 O 461.798 2.3092 2.71209 0
M  V30 4772 O 460.657 3.3478 4.31954 0
M  V30 4773 H 457.751 0.478045 0.674835 0
M  V30 4774 H 460.297 1.48888 0.814275 0
M  V30 4775 H 459.069 3.26131 2.16227 0
M  V30 4776 H 458.692 2.06916 3.39517 0
M  V30 4777 N 459.689 -1.00246 1.21608 0
M  V30 4778 C 460.636 -2.09073 0.977613 0
M  V30 4779 C 461.606 -1.65815 -0.097297 0
M  V30 4780 O 462.791 -1.90734 0.0503445 0
M  V30 4781 C 459.931 -3.40671 0.551133 0
M  V30 4782 C 459.044 -3.97326 1.69576 0
M  V30 4783 C 458.179 -5.17043 1.2182 0
M  V30 4784 C 457.218 -5.65813 2.335 0
M  V30 4785 N 456.355 -6.76778 1.86859 0
M  V30 4786 H 461.195 -2.28806 1.90924 0
M  V30 4787 H 458.732 -1.12186 0.951452 0
M  V30 4788 H 460.69 -4.16225 0.285097 0
M  V30 4789 H 459.32 -3.20967 -0.343489 0
M  V30 4790 H 458.372 -3.18734 2.07637 0
M  V30 4791 H 459.684 -4.29511 2.53617 0
M  V30 4792 H 458.838 -5.99852 0.908975 0
M  V30 4793 H 457.577 -4.86458 0.347869 0
M  V30 4794 H 456.582 -4.81599 2.65222 0
M  V30 4795 H 457.807 -5.98427 3.21033 0
M  V30 4796 H 455.753 -6.47994 1.02174 0
M  V30 4797 H 455.67 -7.08231 2.64471 0
M  V30 4798 H 456.938 -7.63116 1.58978 0
M  V30 4799 N 461.167 -1.02423 -1.1978 0
M  V30 4800 C 462.115 -0.594474 -2.24875 0
M  V30 4801 C 463.109 0.370598 -1.65296 0
M  V30 4802 O 464.315 0.239684 -1.78397 0
M  V30 4803 H 460.69 -0.173961 -0.731602 0
M  V30 4804 H 462.661 -1.4916 -2.58445 0
M  V30 4805 C 461.41 0.0436512 -3.47673 0
M  V30 4806 H 460.733 -0.689963 -3.93801 0
M  V30 4807 H 462.173 0.307362 -4.22884 0
M  V30 4808 C 460.632 1.28881 -3.11274 0
M  V30 4809 O 461.162 2.38135 -3.23503 0
M  V30 4810 N 459.368 1.1758 -2.6575 0
M  V30 4811 H 458.915 0.286769 -2.55999 0
M  V30 4812 H 458.873 2.00988 -2.41767 0
M  V30 4813 N 462.645 1.35699 -0.801477 0
M  V30 4814 C 463.575 2.32436 -0.222658 0
M  V30 4815 C 464.556 1.5723 0.649057 0
M  V30 4816 O 465.741 1.85324 0.580387 0
M  V30 4817 C 462.871 3.41469 0.633719 0
M  V30 4818 C 461.825 4.27774 -0.139083 0
M  V30 4819 C 461.151 5.28082 0.838666 0
M  V30 4820 C 462.451 5.04946 -1.33517 0
M  V30 4821 H 464.145 2.81094 -1.03086 0
M  V30 4822 H 461.691 1.35146 -0.497155 0
M  V30 4823 H 463.644 4.08143 1.04868 0
M  V30 4824 H 462.368 2.91408 1.47475 0
M  V30 4825 H 461.027 3.62673 -0.535156 0
M  V30 4826 H 460.675 4.7429 1.67506 0
M  V30 4827 H 460.375 5.86695 0.32594 0
M  V30 4828 H 461.899 5.97628 1.25194 0
M  V30 4829 H 463.313 5.64593 -0.995349 0
M  V30 4830 H 461.71 5.7303 -1.78202 0
M  V30 4831 H 462.78 4.35886 -2.12442 0
M  V30 4832 N 464.123 0.554532 1.47522 0
M  V30 4833 C 465.053 -0.182974 2.32782 0
M  V30 4834 C 466.034 -0.911377 1.43624 0
M  V30 4835 O 467.219 -0.892366 1.72483 0
M  V30 4836 C 464.349 -1.21513 3.25349 0
M  V30 4837 C 463.303 -0.603355 4.23726 0
M  V30 4838 C 462.629 -1.73995 5.05598 0
M  V30 4839 C 463.929 0.441121 5.20434 0
M  V30 4840 H 465.623 0.52882 2.94693 0
M  V30 4841 H 463.169 0.255759 1.41711 0
M  V30 4842 H 465.122 -1.73922 3.83835 0
M  V30 4843 H 463.846 -1.95683 2.61487 0
M  V30 4844 H 462.505 -0.10059 3.66462 0
M  V30 4845 H 462.153 -2.47063 4.38143 0
M  V30 4846 H 461.853 -1.3364 5.72201 0
M  V30 4847 H 463.377 -2.26735 5.66942 0
M  V30 4848 H 464.791 0.00319931 5.733 0
M  V30 4849 H 463.188 0.763402 5.95224 0
M  V30 4850 H 464.258 1.33799 4.66075 0
M  V30 4851 N 465.601 -1.54893 0.290851 0
M  V30 4852 C 466.531 -2.26103 -0.583084 0
M  V30 4853 C 467.512 -1.25684 -1.14619 0
M  V30 4854 O 468.697 -1.54436 -1.17741 0
M  V30 4855 C 465.827 -2.99409 -1.75987 0
M  V30 4856 C 464.781 -4.0689 -1.32758 0
M  V30 4857 C 464.107 -4.67856 -2.58872 0
M  V30 4858 C 465.407 -5.20215 -0.46624 0
M  V30 4859 H 467.101 -2.99398 0.0108214 0
M  V30 4860 H 464.647 -1.43998 0.00664468 0
M  V30 4861 H 466.6 -3.47943 -2.37727 0
M  V30 4862 H 465.324 -2.23675 -2.37985 0
M  V30 4863 H 463.983 -3.59191 -0.733299 0
M  V30 4864 H 463.631 -3.88772 -3.19163 0
M  V30 4865 H 463.331 -5.40438 -2.30653 0
M  V30 4866 H 464.855 -5.19147 -3.21433 0
M  V30 4867 H 466.269 -5.64704 -0.989047 0
M  V30 4868 H 464.666 -5.99455 -0.27826 0
M  V30 4869 H 465.736 -4.82198 0.511173 0
M  V30 4870 N 467.08 -0.0183926 -1.57589 0
M  V30 4871 C 468.013 1.00148 -2.0505 0
M  V30 4872 C 468.991 1.32387 -0.944058 0
M  V30 4873 O 470.175 1.44237 -1.21358 0
M  V30 4874 C 467.302 2.32435 -2.46357 0
M  V30 4875 C 466.348 2.15731 -3.67916 0
M  V30 4876 S 467.181 1.46613 -5.15039 0
M  V30 4877 C 468.337 2.80293 -5.59631 0
M  V30 4878 H 468.57 0.597429 -2.91235 0
M  V30 4879 H 466.103 0.193002 -1.53189 0
M  V30 4880 H 468.061 3.0849 -2.70822 0
M  V30 4881 H 466.722 2.69975 -1.60537 0
M  V30 4882 H 465.915 3.13502 -3.9463 0
M  V30 4883 H 465.517 1.4782 -3.43548 0
M  V30 4884 H 467.809 3.76557 -5.63215 0
M  V30 4885 H 468.752 2.58256 -6.59325 0
M  V30 4886 H 469.16 2.85047 -4.87246 0
M  V30 4887 N 468.558 1.5553 0.254621 0
M  V30 4888 C 469.835 1.6774 1.00611 0
M  V30 4889 C 470.215 0.555993 2.03647 0
M  V30 4890 O 469.563 -0.441583 2.24193 0
M  V30 4891 C 469.773 3.07725 1.6464 0
M  V30 4892 C 471.121 3.66074 2.15116 0
M  V30 4893 O 472.145 3.10476 1.74595 0
M  V30 4894 O 471.004 4.63526 2.89493 0
M  V30 4895 H 468.098 0.681958 0.467828 0
M  V30 4896 H 470.644 1.67863 0.24902 0
M  V30 4897 H 469.416 3.80792 0.900734 0
M  V30 4898 H 469.039 3.1158 2.46989 0
M  V30 4899 N 470.036 -0.519951 1.48776 0
M  V30 4900 C 470.983 -1.62352 1.64044 0
M  V30 4901 C 471.953 -1.58945 0.482251 0
M  V30 4902 O 473.138 -1.77219 0.706971 0
M  V30 4903 C 470.278 -3.00579 1.69547 0
M  V30 4904 C 469.391 -3.14145 2.96541 0
M  V30 4905 C 468.526 -4.42991 2.93142 0
M  V30 4906 C 467.565 -4.50122 4.14797 0
M  V30 4907 N 466.702 -5.7037 4.09418 0
M  V30 4908 H 471.542 -1.48643 2.58281 0
M  V30 4909 H 469.079 -0.723516 1.28077 0
M  V30 4910 H 471.037 -3.80671 1.70719 0
M  V30 4911 H 469.667 -3.13036 0.787918 0
M  V30 4912 H 468.719 -2.27239 3.05068 0
M  V30 4913 H 470.031 -3.15275 3.86527 0
M  V30 4914 H 469.185 -5.31385 2.92772 0
M  V30 4915 H 467.924 -4.44398 2.00902 0
M  V30 4916 H 466.929 -3.60133 4.15433 0
M  V30 4917 H 468.154 -4.50445 5.08208 0
M  V30 4918 H 466.1 -5.72655 3.20004 0
M  V30 4919 H 466.017 -5.73036 4.93119 0
M  V30 4920 H 467.285 -6.61023 4.13121 0
M  V30 4921 N 471.514 -1.37532 -0.769588 0
M  V30 4922 C 472.424 -1.35668 -1.91393 0
M  V30 4923 C 473.44 -0.255954 -1.72107 0
M  V30 4924 O 474.616 -0.491704 -1.95305 0
M  V30 4925 C 471.681 -1.16481 -3.26547 0
M  V30 4926 C 470.742 -2.36212 -3.58472 0
M  V30 4927 C 469.975 -2.17932 -4.87177 0
M  V30 4928 O 470.198 -1.1647 -5.58382 0
M  V30 4929 O 469.132 -3.06167 -5.18214 0
M  V30 4930 H 472.958 -2.32055 -1.95918 0
M  V30 4931 H 470.543 -1.18284 -0.912641 0
M  V30 4932 H 472.425 -1.07778 -4.07384 0
M  V30 4933 H 471.1 -0.231687 -3.2287 0
M  V30 4934 H 470.007 -2.50488 -2.77861 0
M  V30 4935 H 471.34 -3.281 -3.66894 0
M  V30 4936 N 472.992 0.995999 -1.22138 0
M  V30 4937 C 473.939 2.08551 -0.988687 0
M  V30 4938 C 474.909 1.65864 0.0885021 0
M  V30 4939 O 476.094 1.90704 -0.0604589 0
M  V30 4940 C 473.234 3.40374 -0.569191 0
M  V30 4941 C 472.347 3.96421 -1.71681 0
M  V30 4942 C 471.482 5.1639 -1.2456 0
M  V30 4943 C 470.521 5.64567 -2.36497 0
M  V30 4944 N 469.658 6.75777 -1.90445 0
M  V30 4945 H 474.498 2.2779 -1.92135 0
M  V30 4946 H 472.035 1.1168 -0.957388 0
M  V30 4947 H 473.993 4.16068 -0.307166 0
M  V30 4948 H 472.623 3.21145 0.326462 0
M  V30 4949 H 471.675 3.17628 -2.09324 0
M  V30 4950 H 472.987 4.2816 -2.55891 0
M  V30 4951 H 472.141 5.99362 -0.940774 0
M  V30 4952 H 470.88 4.86266 -0.373662 0
M  V30 4953 H 469.885 4.80185 -2.67772 0
M  V30 4954 H 471.11 5.96716 -3.24202 0
M  V30 4955 H 469.056 6.47443 -1.05609 0
M  V30 4956 H 468.973 7.06818 -2.68223 0
M  V30 4957 H 470.241 7.62262 -1.63022 0
M  V30 4958 N 474.47 1.03057 1.19235 0
M  V30 4959 C 475.433 0.617418 2.20727 0
M  V30 4960 C 476.433 -0.319856 1.57587 0
M  V30 4961 O 477.623 -0.106633 1.73873 0
M  V30 4962 C 474.755 -0.096296 3.40764 0
M  V30 4963 H 475.948 1.51544 2.58794 0
M  V30 4964 H 473.501 0.821949 1.32942 0
M  V30 4965 H 474.236 -1.00859 3.08217 0
M  V30 4966 H 474.021 0.577217 3.87828 0
M  V30 4967 H 475.511 -0.372219 4.15938 0
M  V30 4968 N 475.948 -1.35272 0.808662 0
M  V30 4969 C 477.225 -1.93077 0.313181 0
M  V30 4970 C 477.605 -1.73847 -1.19752 0
M  V30 4971 O 476.953 -1.1087 -1.998 0
M  V30 4972 C 477.163 -3.41347 0.726859 0
M  V30 4973 C 478.511 -4.18493 0.717532 0
M  V30 4974 O 479.535 -3.4987 0.668535 0
M  V30 4975 O 478.394 -5.40937 0.777779 0
M  V30 4976 H 475.488 -0.822885 0.0824018 0
M  V30 4977 H 478.034 -1.44335 0.892499 0
M  V30 4978 H 476.806 -3.49082 1.76797 0
M  V30 4979 H 476.429 -3.97411 0.122461 0
M  V30 4980 N 477.426 -0.562348 -1.47226 0
M  V30 4981 C 478.672 -0.0402761 -2.0276 0
M  V30 4982 C 479.005 1.30823 -1.43523 0
M  V30 4983 O 478.28 1.85249 -0.592705 0
M  V30 4984 C 478.563 0.047311 -3.60069 0
M  V30 4985 C 478.416 -1.32865 -4.29729 0
M  V30 4986 C 479.735 0.758182 -4.3352 0
M  V30 4987 H 476.854 -0.0161105 -0.736824 0
M  V30 4988 H 479.496 -0.725628 -1.75598 0
M  V30 4989 H 477.646 0.630986 -3.83342 0
M  V30 4990 H 479.318 -1.95593 -4.17781 0
M  V30 4991 H 477.561 -1.90195 -3.89882 0
M  V30 4992 H 478.232 -1.22004 -5.38349 0
M  V30 4993 H 480.708 0.262546 -4.15271 0
M  V30 4994 H 479.584 0.78844 -5.43208 0
M  V30 4995 H 479.845 1.81537 -4.03109 0
M  V30 4996 N 478.904 1.54736 -0.299062 0
M  V30 4997 C 479.851 2.23448 0.577899 0
M  V30 4998 C 480.821 1.21637 1.13109 0
M  V30 4999 O 482.006 1.50252 1.17597 0
M  V30 5000 C 479.146 2.9774 1.74484 0
M  V30 5001 C 478.259 4.1432 1.22323 0
M  V30 5002 C 477.394 4.76199 2.35388 0
M  V30 5003 C 476.433 5.84927 1.80351 0
M  V30 5004 N 475.57 6.4077 2.86982 0
M  V30 5005 H 480.41 2.97996 -0.0146545 0
M  V30 5006 H 477.947 1.47088 -0.0190013 0
M  V30 5007 H 479.905 3.39045 2.43114 0
M  V30 5008 H 478.535 2.25572 2.30905 0
M  V30 5009 H 477.587 3.7797 0.429249 0
M  V30 5010 H 478.899 4.92659 0.780309 0
M  V30 5011 H 478.053 5.20346 3.11969 0
M  V30 5012 H 476.792 3.97188 2.83006 0
M  V30 5013 H 475.797 5.40207 1.02259 0
M  V30 5014 H 477.022 6.65821 1.3364 0
M  V30 5015 H 474.968 5.64643 3.33938 0
M  V30 5016 H 474.885 7.1445 2.4718 0
M  V30 5017 H 476.153 6.89574 3.63466 0
M  V30 5018 N 480.382 0.0267497 1.57577 0
M  V30 5019 C 481.607 -0.666227 1.96408 0
M  V30 5020 C 482.032 -1.65004 0.903071 0
M  V30 5021 O 481.39 -1.80787 -0.136263 0
M  V30 5022 C 481.438 -1.35101 3.34335 0
M  V30 5023 O 480.542 -2.46623 3.30531 0
M  V30 5024 H 479.883 -0.175206 0.640468 0
M  V30 5025 H 482.413 0.0878977 2.04411 0
M  V30 5026 H 482.423 -1.70834 3.70513 0
M  V30 5027 H 481.098 -0.629844 4.11103 0
M  V30 5028 H 479.675 -2.13019 3.06068 0
M  V30 5029 N 481.861 -1.55662 -0.24637 0
M  V30 5030 C 483.089 -1.81575 -0.991876 0
M  V30 5031 C 483.504 -0.602545 -1.78927 0
M  V30 5032 O 482.861 0.428795 -1.77391 0
M  V30 5033 C 482.912 -3.05711 -1.92933 0
M  V30 5034 O 482.633 -4.22348 -1.1642 0
M  V30 5035 C 484.134 -3.44428 -2.79078 0
M  V30 5036 H 481.354 -0.604209 -0.291844 0
M  V30 5037 H 483.898 -2.02722 -0.269095 0
M  V30 5038 H 482.053 -2.86612 -2.60638 0
M  V30 5039 H 482.467 -4.92706 -1.79835 0
M  V30 5040 H 483.941 -4.34388 -3.40603 0
M  V30 5041 H 484.418 -2.65037 -3.50217 0
M  V30 5042 H 485.024 -3.65879 -2.16824 0
M  V30 5043 N 483.339 0.512053 -1.4905 0
M  V30 5044 C 484.302 1.59704 -1.64399 0
M  V30 5045 C 485.302 1.52285 -0.516317 0
M  V30 5046 O 486.492 1.55635 -0.782527 0
M  V30 5047 C 483.624 2.9935 -1.63102 0
M  V30 5048 H 484.817 1.47428 -2.61161 0
M  V30 5049 H 482.37 0.735469 -1.37915 0
M  V30 5050 H 483.105 3.17116 -0.678836 0
M  V30 5051 H 482.89 3.06144 -2.44986 0
M  V30 5052 H 484.38 3.782 -1.77072 0
M  V30 5053 N 484.817 1.37938 0.762283 0
M  V30 5054 C 486.064 1.33668 1.52115 0
M  V30 5055 C 486.392 -0.0759538 1.94352 0
M  V30 5056 O 485.647 -1.05121 1.6507 0
M  V30 5057 C 485.946 2.23042 2.79261 0
M  V30 5058 C 485.612 3.71159 2.56031 0
M  V30 5059 C 484.274 4.11523 2.49404 0
M  V30 5060 C 486.626 4.64955 2.35513 0
M  V30 5061 C 483.954 5.43784 2.20263 0
M  V30 5062 C 486.306 5.97464 2.07894 0
M  V30 5063 C 484.97 6.36922 1.99718 0
M  V30 5064 H 484.24 0.489127 0.556629 0
M  V30 5065 H 486.887 1.70224 0.877262 0
M  V30 5066 H 485.192 1.79512 3.48256 0
M  V30 5067 H 486.889 2.17047 3.37182 0
M  V30 5068 H 483.479 3.39153 2.62056 0
M  V30 5069 H 487.663 4.34623 2.39617 0
M  V30 5070 H 482.919 5.73307 2.12435 0
M  V30 5071 H 487.093 6.6969 1.91019 0
M  V30 5072 H 484.72 7.39331 1.76902 0
M  V30 5073 N 486.295 -0.989507 1.22664 0
M  V30 5074 C 487.523 -1.76496 1.07967 0
M  V30 5075 C 487.938 -1.85148 -0.369543 0
M  V30 5076 O 487.295 -1.32408 -1.25596 0
M  V30 5077 C 487.346 -3.19642 1.68853 0
M  V30 5078 O 487.067 -3.11453 3.08105 0
M  V30 5079 C 488.568 -4.13621 1.59475 0
M  V30 5080 H 485.788 -0.55418 0.378319 0
M  V30 5081 H 488.332 -1.24378 1.62328 0
M  V30 5082 H 486.487 -3.68816 1.18547 0
M  V30 5083 H 486.901 -4.01499 3.37489 0
M  V30 5084 H 488.375 -5.11801 2.06795 0
M  V30 5085 H 488.852 -4.35718 0.55191 0
M  V30 5086 H 489.458 -3.70346 2.09103 0
M  V30 5087 N 487.773 -1.03688 -1.18687 0
M  V30 5088 C 489.02 -0.73803 -1.88572 0
M  V30 5089 C 489.348 0.733973 -1.8012 0
M  V30 5090 O 488.603 1.55098 -1.19344 0
M  V30 5091 C 488.902 -1.14477 -3.3857 0
M  V30 5092 C 488.568 -2.61641 -3.67226 0
M  V30 5093 C 487.23 -3.01846 -3.74757 0
M  V30 5094 C 489.582 -3.56812 -3.79914 0
M  V30 5095 C 486.91 -4.36118 -3.92451 0
M  V30 5096 C 489.262 -4.90799 -3.99123 0
M  V30 5097 C 487.926 -5.3068 -4.04888 0
M  V30 5098 H 487.196 -0.270064 -0.690034 0
M  V30 5099 H 489.843 -1.3012 -1.40503 0
M  V30 5100 H 488.148 -0.500337 -3.88592 0
M  V30 5101 H 489.845 -0.89095 -3.90977 0
M  V30 5102 H 486.435 -2.29498 -3.61979 0
M  V30 5103 H 490.619 -3.26899 -3.73431 0
M  V30 5104 H 485.875 -4.66542 -3.95157 0
M  V30 5105 H 490.049 -5.64451 -4.07882 0
M  V30 5106 H 487.676 -6.34733 -4.18351 0
M  V30 5107 N 489.251 1.34841 -0.815825 0
M  V30 5108 C 490.667 1.51543 -0.500697 0
M  V30 5109 C 490.867 1.76261 0.976444 0
M  V30 5110 O 489.923 1.8094 1.76117 0
M  V30 5111 C 491.236 2.68487 -1.35407 0
M  V30 5112 C 492.784 2.82368 -1.35046 0
M  V30 5113 C 493.259 4.02347 -2.18816 0
M  V30 5114 N 494.75 4.09542 -2.16402 0
M  V30 5115 C 495.485 5.01517 -2.77971 0
M  V30 5116 N 494.981 5.98763 -3.48503 0
M  V30 5117 N 496.774 4.94334 -2.67563 0
M  V30 5118 H 488.925 1.17055 -1.77234 0
M  V30 5119 H 491.188 0.573481 -0.754866 0
M  V30 5120 H 490.894 2.56829 -2.40274 0
M  V30 5121 H 490.768 3.63321 -1.01377 0
M  V30 5122 H 493.155 2.93471 -0.309604 0
M  V30 5123 H 493.236 1.88363 -1.73069 0
M  V30 5124 H 492.88 3.92004 -3.22948 0
M  V30 5125 H 492.81 4.95551 -1.78148 0
M  V30 5126 H 495.301 3.39932 -1.65091 0
M  V30 5127 H 495.614 6.6556 -3.92747 0
M  V30 5128 H 493.959 5.98909 -3.52609 0
M  V30 5129 H 497.15 4.1732 -2.12041 0
M  V30 5130 H 497.323 5.6582 -3.15834 0
M  V30 5131 N 490.729 0.570148 1.46925 0
M  V30 5132 C 491.954 0.0542592 2.07329 0
M  V30 5133 C 492.379 -1.23582 1.41806 0
M  V30 5134 O 491.737 -1.74341 0.497479 0
M  V30 5135 C 491.785 -0.111175 3.60429 0
M  V30 5136 O 490.889 -1.17071 3.95434 0
M  V30 5137 H 490.23 0.0571425 0.661537 0
M  V30 5138 H 492.76 0.789516 1.88753 0
M  V30 5139 H 492.77 -0.321315 4.06733 0
M  V30 5140 H 491.445 0.831012 4.07513 0
M  V30 5141 H 490.022 -0.940029 3.60857 0
M  V30 5142 N 492.207 -1.54576 0.307264 0
M  V30 5143 C 493.432 -2.05139 -0.305379 0
M  V30 5144 C 493.857 -1.18278 -1.46259 0
M  V30 5145 O 493.215 -0.188243 -1.8032 0
M  V30 5146 C 493.263 -3.53066 -0.733283 0
M  V30 5147 O 492.367 -3.69206 -1.83741 0
M  V30 5148 H 491.708 -0.661444 -0.0582105 0
M  V30 5149 H 494.238 -1.99569 0.450931 0
M  V30 5150 H 494.248 -3.95034 -1.02039 0
M  V30 5151 H 492.923 -4.15746 0.113198 0
M  V30 5152 H 491.5 -3.39143 -1.55037 0
M  V30 5153 N 493.685 -0.035106 -1.57561 0
M  V30 5154 C 494.632 0.94474 -2.10578 0
M  V30 5155 C 495.602 1.3192 -1.00927 0
M  V30 5156 O 496.787 1.41147 -1.28382 0
M  V30 5157 C 493.927 2.21982 -2.64231 0
M  V30 5158 C 493.04 1.90128 -3.87911 0
M  V30 5159 C 492.175 3.11975 -4.29936 0
M  V30 5160 C 491.214 2.75968 -5.46359 0
M  V30 5161 N 490.351 3.90459 -5.83512 0
M  V30 5162 H 495.191 0.485717 -2.94015 0
M  V30 5163 H 492.728 0.228143 -1.4532 0
M  V30 5164 H 494.686 2.96572 -2.9343 0
M  V30 5165 H 493.316 2.6549 -1.83616 0
M  V30 5166 H 492.368 1.05755 -3.65404 0
M  V30 5167 H 493.68 1.59613 -4.72573 0
M  V30 5168 H 492.834 3.9488 -4.60603 0
M  V30 5169 H 491.573 3.45657 -3.44053 0
M  V30 5170 H 490.578 1.91478 -5.1538 0
M  V30 5171 H 491.803 2.43497 -6.33945 0
M  V30 5172 H 489.749 4.23971 -5.00584 0
M  V30 5173 H 489.666 3.63588 -6.62827 0
M  V30 5174 H 490.934 4.7405 -6.18787 0
M  V30 5175 N 495.163 1.55791 0.238111 0
M  V30 5176 C 496.073 1.94196 1.31625 0
M  V30 5177 C 497.089 0.843545 1.52185 0
M  V30 5178 O 498.265 1.1457 1.65637 0
M  V30 5179 C 495.33 2.2365 2.64918 0
M  V30 5180 C 494.391 3.46971 2.52804 0
M  V30 5181 C 493.624 3.7501 3.79741 0
M  V30 5182 O 493.847 3.04982 4.82019 0
M  V30 5183 O 492.781 4.68525 3.77846 0
M  V30 5184 H 496.607 2.86044 1.02043 0
M  V30 5185 H 494.192 1.42786 0.439603 0
M  V30 5186 H 496.074 2.43863 3.4367 0
M  V30 5187 H 494.749 1.34979 2.94215 0
M  V30 5188 H 493.656 3.32055 1.72309 0
M  V30 5189 H 494.989 4.35971 2.28451 0
M  V30 5190 N 496.642 -0.504142 1.49319 0
M  V30 5191 C 497.589 -1.60603 1.65756 0
M  V30 5192 C 498.559 -1.58425 0.499082 0
M  V30 5193 O 499.744 -1.76459 0.725728 0
M  V30 5194 C 496.884 -2.98764 1.72726 0
M  V30 5195 C 495.997 -3.10982 2.99857 0
M  V30 5196 C 495.132 -4.39857 2.97824 0
M  V30 5197 C 494.171 -4.45697 4.19548 0
M  V30 5198 N 493.308 -5.65995 4.15444 0
M  V30 5199 H 498.148 -1.45895 2.59843 0
M  V30 5200 H 495.685 -0.709891 1.28837 0
M  V30 5201 H 497.643 -3.78839 1.74747 0
M  V30 5202 H 496.273 -3.12183 0.821075 0
M  V30 5203 H 495.325 -2.23991 3.07461 0
M  V30 5204 H 496.637 -3.11157 3.89849 0
M  V30 5205 H 495.791 -5.2825 2.98391 0
M  V30 5206 H 494.53 -4.42242 2.05604 0
M  V30 5207 H 493.535 -3.55707 4.19229 0
M  V30 5208 H 494.76 -4.4503 5.12957 0
M  V30 5209 H 492.706 -5.69229 3.26059 0
M  V30 5210 H 492.623 -5.67773 4.99169 0
M  V30 5211 H 493.891 -6.56604 4.20109 0
M  V30 5212 N 498.12 -1.38341 -0.754957 0
M  V30 5213 C 499.05 -1.38176 -1.88227 0
M  V30 5214 C 500.031 -0.247873 -1.68284 0
M  V30 5215 O 501.216 -0.45075 -1.88896 0
M  V30 5216 C 498.346 -1.20471 -3.25736 0
M  V30 5217 C 497.3 -2.3105 -3.60278 0
M  V30 5218 C 496.626 -1.98452 -4.96509 0
M  V30 5219 C 497.926 -3.73305 -3.65295 0
M  V30 5220 H 499.62 -2.32512 -1.88622 0
M  V30 5221 H 497.166 -1.1192 -0.906082 0
M  V30 5222 H 499.119 -1.18982 -4.04254 0
M  V30 5223 H 497.843 -0.225965 -3.25817 0
M  V30 5224 H 496.502 -2.31723 -2.84078 0
M  V30 5225 H 496.15 -0.990641 -4.93148 0
M  V30 5226 H 495.85 -2.7251 -5.20588 0
M  V30 5227 H 497.374 -1.98578 -5.77407 0
M  V30 5228 H 498.788 -3.7467 -4.3393 0
M  V30 5229 H 497.185 -4.46557 -4.00883 0
M  V30 5230 H 498.255 -4.05719 -2.65556 0
M  V30 5231 N 499.598 0.982988 -1.23187 0
M  V30 5232 C 500.875 1.69814 -0.970707 0
M  V30 5233 C 501.255 2.04811 0.511424 0
M  V30 5234 O 500.603 1.73924 1.48198 0
M  V30 5235 C 500.813 2.94143 -1.87831 0
M  V30 5236 C 502.161 3.66712 -2.14026 0
M  V30 5237 O 503.185 3.04171 -1.8536 0
M  V30 5238 O 502.044 4.79258 -2.62629 0
M  V30 5239 H 499.138 0.741659 -0.365884 0
M  V30 5240 H 501.684 1.03844 -1.34218 0
M  V30 5241 H 500.456 2.64858 -2.88038 0
M  V30 5242 H 500.079 3.6785 -1.50905 0
M  V30 5243 N 501.076 1.04316 1.18135 0
M  V30 5244 C 502.322 0.749128 1.88457 0
M  V30 5245 C 502.655 -0.72149 1.803 0
M  V30 5246 O 501.93 -1.52676 1.205 0
M  V30 5247 C 502.213 1.21905 3.38838 0
M  V30 5248 C 502.066 2.75195 3.55792 0
M  V30 5249 C 503.385 0.811085 4.32561 0
M  V30 5250 H 500.504 0.273611 0.684329 0
M  V30 5251 H 503.146 1.29561 1.38975 0
M  V30 5252 H 501.296 0.754137 3.8111 0
M  V30 5253 H 502.968 3.29743 3.22595 0
M  V30 5254 H 501.211 3.14899 2.98364 0
M  V30 5255 H 501.882 3.03135 4.61317 0
M  V30 5256 H 504.358 1.21118 3.98082 0
M  V30 5257 H 503.234 1.16761 5.36338 0
M  V30 5258 H 503.495 -0.285596 4.41177 0
M  V30 5259 N 502.554 -1.34406 0.822964 0
M  V30 5260 C 503.802 -1.97892 0.410245 0
M  V30 5261 C 504.123 -1.65567 -1.03017 0
M  V30 5262 O 503.393 -0.94642 -1.71522 0
M  V30 5263 H 501.973 -0.732049 0.148707 0
M  V30 5264 H 504.635 -1.64043 1.05242 0
M  V30 5265 H 503.731 -3.07579 0.529284 0
M  V30 5266 N 504.032 -0.577932 -1.46621 0
M  V30 5267 C 505.278 -0.0617793 -2.02706 0
M  V30 5268 C 505.611 1.29294 -1.44903 0
M  V30 5269 O 504.886 1.8461 -0.61232 0
M  V30 5270 C 505.169 0.00911824 -3.60099 0
M  V30 5271 C 505.022 -1.37416 -4.28295 0
M  V30 5272 C 506.341 0.712159 -4.343 0
M  V30 5273 H 503.46 -0.0239246 -0.736612 0
M  V30 5274 H 506.102 -0.744211 -1.74818 0
M  V30 5275 H 504.252 0.590292 -3.83989 0
M  V30 5276 H 505.924 -2.00013 -4.15683 0
M  V30 5277 H 504.167 -1.94319 -3.87843 0
M  V30 5278 H 504.838 -1.27707 -5.37024 0
M  V30 5279 H 507.314 0.218486 -4.15526 0
M  V30 5280 H 506.19 0.730782 -5.44014 0
M  V30 5281 H 506.451 1.77251 -4.05012 0
M  V30 5282 N 505.51 1.54411 -0.315457 0
M  V30 5283 C 506.926 1.59556 0.037464 0
M  V30 5284 C 507.126 1.33217 1.5118 0
M  V30 5285 O 506.182 1.11264 2.26664 0
M  V30 5286 C 507.495 2.98372 -0.373477 0
M  V30 5287 C 509.043 3.11324 -0.323452 0
M  V30 5288 C 509.518 4.52472 -0.709433 0
M  V30 5289 N 511.009 4.58437 -0.662524 0
M  V30 5290 C 511.744 5.65751 -0.933474 0
M  V30 5291 N 511.24 6.81039 -1.27114 0
M  V30 5292 N 513.033 5.55489 -0.859573 0
M  V30 5293 H 505.184 1.6979 -1.27614 0
M  V30 5294 H 507.447 0.793732 -0.518356 0
M  V30 5295 H 507.153 3.22618 -1.40037 0
M  V30 5296 H 507.027 3.76264 0.265615 0
M  V30 5297 H 509.414 2.86818 0.694223 0
M  V30 5298 H 509.495 2.35555 -0.997367 0
M  V30 5299 H 509.139 4.7771 -1.72498 0
M  V30 5300 H 509.069 5.26598 -0.0132923 0
M  V30 5301 H 511.56 3.75636 -0.413065 0
M  V30 5302 H 511.873 7.58816 -1.46348 0
M  V30 5303 H 510.218 6.82555 -1.30932 0
M  V30 5304 H 513.409 4.64299 -0.595324 0
M  V30 5305 H 513.582 6.39036 -1.0741 0
M  V30 5306 N 506.988 0.0434614 1.5754 0
M  V30 5307 C 507.935 -0.93356 2.11077 0
M  V30 5308 C 508.905 -1.31383 1.01626 0
M  V30 5309 O 510.09 -1.40465 1.29129 0
M  V30 5310 C 507.23 -2.20578 2.65404 0
M  V30 5311 C 506.343 -1.88068 3.88914 0
M  V30 5312 C 505.478 -3.09691 4.31584 0
M  V30 5313 C 504.517 -2.73067 5.47815 0
M  V30 5314 N 503.654 -3.87359 5.85574 0
M  V30 5315 H 508.494 -0.470118 2.94268 0
M  V30 5316 H 506.031 -0.220434 1.45439 0
M  V30 5317 H 507.989 -2.95011 2.94999 0
M  V30 5318 H 506.619 -2.64513 1.85021 0
M  V30 5319 H 505.671 -1.03816 3.6596 0
M  V30 5320 H 506.983 -1.57104 4.73413 0
M  V30 5321 H 506.137 -3.92431 4.62691 0
M  V30 5322 H 504.876 -3.43827 3.45882 0
M  V30 5323 H 503.881 -1.88742 5.16388 0
M  V30 5324 H 505.106 -2.40131 6.35227 0
M  V30 5325 H 503.052 -4.21311 5.02825 0
M  V30 5326 H 502.969 -3.60068 6.64746 0
M  V30 5327 H 504.237 -4.70761 6.21292 0
M  V30 5328 N 508.466 -1.55915 -0.229846 0
M  V30 5329 C 509.376 -1.94891 -1.30593 0
M  V30 5330 C 510.392 -0.851604 -1.51736 0
M  V30 5331 O 511.568 -1.15447 -1.65027 0
M  V30 5332 C 508.633 -2.25052 -2.63728 0
M  V30 5333 C 507.694 -3.48306 -2.5096 0
M  V30 5334 C 506.927 -3.77019 -3.77747 0
M  V30 5335 O 507.15 -3.07534 -4.80395 0
M  V30 5336 O 506.084 -4.70523 -3.75356 0
M  V30 5337 H 509.91 -2.86581 -1.00525 0
M  V30 5338 H 507.495 -1.43017 -0.432025 0
M  V30 5339 H 509.377 -2.45682 -3.42372 0
M  V30 5340 H 508.052 -1.36538 -2.93495 0
M  V30 5341 H 506.959 -3.32964 -1.70546 0
M  V30 5342 H 508.292 -4.37177 -2.26136 0
M  V30 5343 N 509.944 0.496216 -1.49584 0
M  V30 5344 C 511.19 1.25189 -1.59548 0
M  V30 5345 C 511.523 1.9212 -0.283466 0
M  V30 5346 O 510.798 1.80947 0.713324 0
M  V30 5347 C 511.081 2.31516 -2.75812 0
M  V30 5348 C 510.934 1.69054 -4.16822 0
M  V30 5349 C 512.253 3.3304 -2.87702 0
M  V30 5350 H 509.372 0.45379 -0.580727 0
M  V30 5351 H 512.014 0.549327 -1.81886 0
M  V30 5352 H 510.164 2.91438 -2.56897 0
M  V30 5353 H 511.836 1.12923 -4.47265 0
M  V30 5354 H 510.079 0.994485 -4.22247 0
M  V30 5355 H 510.75 2.462 -4.94054 0
M  V30 5356 H 513.226 2.83114 -3.04936 0
M  V30 5357 H 512.102 4.04794 -3.7072 0
M  V30 5358 H 512.363 3.95655 -1.97255 0
M  V30 5359 N 511.423 1.38739 0.74761 0
M  V30 5360 C 512.7 1.25791 1.49786 0
M  V30 5361 C 513.08 -0.138075 2.10648 0
M  V30 5362 O 512.428 -1.14815 1.9756 0
M  V30 5363 C 512.638 2.37265 2.55942 0
M  V30 5364 C 513.986 2.75978 3.22679 0
M  V30 5365 O 515.01 2.36621 2.6625 0
M  V30 5366 O 513.869 3.43867 4.24756 0
M  V30 5367 H 510.963 0.492251 0.664543 0
M  V30 5368 H 513.509 1.50582 0.782511 0
M  V30 5369 H 512.281 3.30644 2.0926 0
M  V30 5370 H 511.904 2.14071 3.35051 0
M  V30 5371 N 512.901 -0.976442 1.23707 0
M  V30 5372 C 514.149 -1.71487 1.06942 0
M  V30 5373 C 514.47 -1.9098 -0.393897 0
M  V30 5374 O 513.74 -1.48128 -1.28198 0
M  V30 5375 H 512.32 -0.635425 0.392739 0
M  V30 5376 H 514.982 -1.17515 1.55487 0
M  V30 5377 H 514.078 -2.70286 1.56051 0
M  V30 5378 N 514.379 -1.04941 -1.1758 0
M  V30 5379 C 515.312 -0.592518 -2.20373 0
M  V30 5380 C 516.29 0.377561 -1.58156 0
M  V30 5381 O 517.474 0.28978 -1.86259 0
M  V30 5382 C 514.601 0.133215 -3.38438 0
M  V30 5383 C 513.647 -0.791484 -4.19092 0
M  V30 5384 S 514.48 -2.27925 -4.84572 0
M  V30 5385 C 515.636 -1.56462 -6.06028 0
M  V30 5386 H 515.869 -1.46342 -2.58788 0
M  V30 5387 H 513.402 -0.861148 -1.28155 0
M  V30 5388 H 515.36 0.545746 -4.06856 0
M  V30 5389 H 514.021 0.980124 -2.98416 0
M  V30 5390 H 513.214 -0.230039 -5.03475 0
M  V30 5391 H 512.816 -1.14326 -3.56098 0
M  V30 5392 H 515.108 -0.862539 -6.71987 0
M  V30 5393 H 516.051 -2.38583 -6.66696 0
M  V30 5394 H 516.459 -1.05313 -5.5459 0
M  V30 5395 N 515.857 1.33968 -0.830081 0
M  V30 5396 C 517.105 1.97672 -0.420734 0
M  V30 5397 C 517.426 1.66111 1.02138 0
M  V30 5398 O 516.696 0.955503 1.71017 0
M  V30 5399 H 515.276 0.73125 -0.152587 0
M  V30 5400 H 517.938 1.63483 -1.0611 0
M  V30 5401 H 517.034 3.07294 -0.545588 0
M  V30 5402 N 517.335 0.585699 1.46312 0
M  V30 5403 C 518.563 0.0781299 2.06752 0
M  V30 5404 C 518.978 -1.22812 1.43396 0
M  V30 5405 O 518.335 -1.74318 0.540314 0
M  V30 5406 C 518.386 -0.0911927 3.61385 0
M  V30 5407 O 518.107 1.16336 4.22371 0
M  V30 5408 C 519.608 -0.632765 4.38761 0
M  V30 5409 H 516.828 0.0588188 0.668417 0
M  V30 5410 H 519.372 0.807218 1.87894 0
M  V30 5411 H 517.527 -0.770514 3.7966 0
M  V30 5412 H 517.941 0.979082 5.15281 0
M  V30 5413 H 519.415 -0.70041 5.47538 0
M  V30 5414 H 519.892 -1.65039 4.07012 0
M  V30 5415 H 520.498 0.0117856 4.25298 0
M  V30 5416 N 518.813 -1.54241 0.323641 0
M  V30 5417 C 520.038 -2.05452 -0.283605 0
M  V30 5418 C 520.463 -1.19823 -1.44997 0
M  V30 5419 O 519.821 -0.207358 -1.8011 0
M  V30 5420 C 519.869 -3.53823 -0.695795 0
M  V30 5421 O 518.973 -3.71134 -1.79815 0
M  V30 5422 H 518.314 -0.662024 -0.0511917 0
M  V30 5423 H 520.844 -1.99079 0.472073 0
M  V30 5424 H 520.854 -3.96094 -0.978434 0
M  V30 5425 H 519.529 -4.15602 0.157287 0
M  V30 5426 H 518.106 -3.40768 -1.51431 0
M  V30 5427 N 520.291 -0.0518155 -1.57515 0
M  V30 5428 C 521.201 0.937539 -2.15052 0
M  V30 5429 C 522.217 1.34121 -1.10849 0
M  V30 5430 O 523.393 1.418 -1.4302 0
M  V30 5431 C 520.458 2.19379 -2.68466 0
M  V30 5432 C 519.519 1.84841 -3.87469 0
M  V30 5433 C 518.752 3.04477 -4.38326 0
M  V30 5434 O 518.975 4.17868 -3.88256 0
M  V30 5435 O 517.909 2.85453 -5.29906 0
M  V30 5436 H 521.735 0.478201 -2.99912 0
M  V30 5437 H 519.32 0.17012 -1.48428 0
M  V30 5438 H 521.202 2.93084 -3.02787 0
M  V30 5439 H 519.877 2.64449 -1.86677 0
M  V30 5440 H 518.784 1.08449 -3.58036 0
M  V30 5441 H 520.117 1.44569 -4.7049 0
M  V30 5442 N 521.769 1.56035 0.221574 0
M  V30 5443 C 523.018 1.78245 0.944016 0
M  V30 5444 C 523.331 0.620371 1.85501 0
M  V30 5445 O 524.537 0.726103 2.6161 0
M  V30 5446 C 522.993 3.15659 1.7288 0
M  V30 5447 C 522.601 4.39591 0.863942 0
M  V30 5448 C 524.345 3.47195 2.44246 0
M  V30 5449 C 522.252 5.6803 1.64607 0
M  V30 5450 H 521.182 0.664547 0.356222 0
M  V30 5451 H 523.833 1.8243 0.197904 0
M  V30 5452 H 522.215 3.0565 2.51781 0
M  V30 5453 H 523.389 4.60655 0.115464 0
M  V30 5454 H 521.704 4.15572 0.262407 0
M  V30 5455 H 524.301 4.40381 3.03263 0
M  V30 5456 H 524.644 2.69693 3.1713 0
M  V30 5457 H 525.177 3.58533 1.72334 0
M  V30 5458 H 521.916 6.48425 0.960507 0
M  V30 5459 H 521.436 5.51027 2.36917 0
M  V30 5460 H 523.115 6.08203 2.20675 0
M  V30 5461 N 523.247 -0.488276 1.49845 0
M  V30 5462 C 524.194 -1.58836 1.67451 0
M  V30 5463 C 525.164 -1.57886 0.515857 0
M  V30 5464 O 526.349 -1.75679 0.744403 0
M  V30 5465 C 523.489 -2.96915 1.75885 0
M  V30 5466 C 522.602 -3.07784 3.03138 0
M  V30 5467 C 521.737 -4.36673 3.02473 0
M  V30 5468 C 520.776 -4.41222 4.24252 0
M  V30 5469 N 519.913 -5.61557 4.21424 0
M  V30 5470 H 524.753 -1.43131 2.61376 0
M  V30 5471 H 522.29 -0.696186 1.29583 0
M  V30 5472 H 524.248 -3.76965 1.78755 0
M  V30 5473 H 522.878 -3.11295 0.85414 0
M  V30 5474 H 521.93 -2.20717 3.09819 0
M  V30 5475 H 523.242 -3.07005 3.93128 0
M  V30 5476 H 522.396 -5.25055 3.03977 0
M  V30 5477 H 521.135 -4.40037 2.10283 0
M  V30 5478 H 520.14 -3.5124 4.22978 0
M  V30 5479 H 521.365 -4.39564 5.17649 0
M  V30 5480 H 519.311 -5.65738 3.32078 0
M  V30 5481 H 519.228 -5.62447 5.05163 0
M  V30 5482 H 520.496 -6.52111 4.2705 0
M  V30 5483 N 524.725 -1.39134 -0.740242 0
M  V30 5484 C 525.955 -1.39132 -1.52728 0
M  V30 5485 C 526.363 0.0173133 -1.89192 0
M  V30 5486 O 525.706 0.997715 -1.54244 0
M  V30 5487 C 525.768 -2.1952 -2.84695 0
M  V30 5488 C 525.432 -3.68203 -2.70695 0
M  V30 5489 C 526.429 -4.61401 -2.39593 0
M  V30 5490 C 524.114 -4.11724 -2.8773 0
M  V30 5491 C 526.108 -5.96102 -2.25701 0
M  V30 5492 C 523.795 -5.46503 -2.73456 0
M  V30 5493 C 524.793 -6.38506 -2.42486 0
M  V30 5494 O 524.481 -7.70803 -2.28295 0
M  V30 5495 H 524.213 -0.477263 -0.478744 0
M  V30 5496 H 526.767 -1.83504 -0.922799 0
M  V30 5497 H 524.997 -1.69888 -3.47383 0
M  V30 5498 H 526.686 -2.1176 -3.46284 0
M  V30 5499 H 527.452 -4.29079 -2.26088 0
M  V30 5500 H 523.331 -3.4045 -3.10829 0
M  V30 5501 H 526.875 -6.6788 -2.0145 0
M  V30 5502 H 522.772 -5.78417 -2.86538 0
M  V30 5503 H 523.54 -7.8147 -2.43405 0
M  V30 5504 N 526.204 0.969867 -1.24223 0
M  V30 5505 C 527.452 1.70918 -1.0785 0
M  V30 5506 C 527.773 1.91186 0.383763 0
M  V30 5507 O 527.043 1.48806 1.27411 0
M  V30 5508 H 525.623 0.633334 -0.396103 0
M  V30 5509 H 528.285 1.16689 -1.56108 0
M  V30 5510 H 527.381 2.69455 -1.57482 0
M  V30 5511 N 527.682 1.05563 1.17022 0
M  V30 5512 C 528.959 0.68165 1.83338 0
M  V30 5513 C 529.339 -0.837665 1.93769 0
M  V30 5514 O 528.687 -1.74507 1.47511 0
M  V30 5515 C 528.897 1.375 3.20772 0
M  V30 5516 C 530.245 1.51545 3.96635 0
M  V30 5517 O 531.269 1.33431 3.30264 0
M  V30 5518 O 530.128 1.812 5.15586 0
M  V30 5519 H 527.222 0.240412 0.791285 0
M  V30 5520 H 529.768 1.15545 1.24288 0
M  V30 5521 H 528.54 2.41135 3.08171 0
M  V30 5522 H 528.163 0.890798 3.87493 0
M  V30 5523 N 529.16 -1.33526 0.837174 0
M  V30 5524 C 530.385 -2.0258 0.444545 0
M  V30 5525 C 530.81 -1.6258 -0.946006 0
M  V30 5526 O 530.168 -0.817548 -1.6182 0
M  V30 5527 C 530.216 -3.5605 0.571006 0
M  V30 5528 O 529.32 -4.10422 -0.403431 0
M  V30 5529 H 528.661 -0.638866 0.180958 0
M  V30 5530 H 531.191 -1.70462 1.13154 0
M  V30 5531 H 531.201 -4.05488 0.452024 0
M  V30 5532 H 529.876 -3.84509 1.58512 0
M  V30 5533 H 528.453 -3.72113 -0.242147 0
M  V30 5534 N 530.638 -0.59345 -1.46 0
M  V30 5535 C 531.884 -0.0832754 -2.02629 0
M  V30 5536 C 532.217 1.27749 -1.46266 0
M  V30 5537 O 531.492 1.8395 -0.631866 0
M  V30 5538 C 531.775 -0.0290756 -3.60088 0
M  V30 5539 C 531.628 -1.41951 -4.26814 0
M  V30 5540 C 532.947 0.666055 -4.35031 0
M  V30 5541 H 530.066 -0.031736 -0.736316 0
M  V30 5542 H 532.708 -0.762711 -1.74019 0
M  V30 5543 H 530.858 0.549532 -3.84594 0
M  V30 5544 H 532.53 -2.04411 -4.13538 0
M  V30 5545 H 530.773 -1.98422 -3.8576 0
M  V30 5546 H 531.444 -1.33395 -5.3564 0
M  V30 5547 H 533.92 0.174401 -4.15734 0
M  V30 5548 H 532.796 0.673041 -5.44758 0
M  V30 5549 H 533.057 1.72946 -4.06869 0
M  V30 5550 N 532.116 1.54067 -0.331816 0
M  V30 5551 C 533.356 2.02625 0.26876 0
M  V30 5552 C 533.72 1.21462 1.48697 0
M  V30 5553 O 534.921 1.59863 2.16096 0
M  V30 5554 C 533.192 3.52554 0.586577 0
M  V30 5555 S 534.751 4.23035 1.16563 0
M  V30 5556 H 531.569 0.706395 0.0807862 0
M  V30 5557 H 534.171 1.89844 -0.466856 0
M  V30 5558 H 532.875 4.09242 -0.308046 0
M  V30 5559 H 532.406 3.69432 1.35217 0
M  V30 5560 H 534.421 4.31382 2.45203 0
M  V30 5561 N 533.594 0.0601682 1.57485 0
M  V30 5562 C 534.824 -0.620037 1.97076 0
M  V30 5563 C 535.232 -1.64381 0.936784 0
M  V30 5564 O 534.575 -1.83497 -0.0863377 0
M  V30 5565 C 534.637 -1.35617 3.32939 0
M  V30 5566 C 534.301 -0.487208 4.54396 0
M  V30 5567 C 535.298 0.250428 5.19297 0
M  V30 5568 C 532.983 -0.415494 5.00579 0
M  V30 5569 C 534.977 1.04812 6.28723 0
M  V30 5570 C 532.664 0.385879 6.0988 0
M  V30 5571 C 533.662 1.11637 6.73815 0
M  V30 5572 O 533.35 1.90454 7.81014 0
M  V30 5573 H 533.082 -0.173664 0.653312 0
M  V30 5574 H 535.636 0.1256 2.05016 0
M  V30 5575 H 533.866 -2.14763 3.2158 0
M  V30 5576 H 535.555 -1.92749 3.57215 0
M  V30 5577 H 536.321 0.204546 4.84568 0
M  V30 5578 H 532.2 -0.973679 4.506 0
M  V30 5579 H 535.744 1.6188 6.78558 0
M  V30 5580 H 531.641 0.433366 6.44044 0
M  V30 5581 H 532.409 1.82762 7.97835 0
M  V30 5582 N 535.072 -1.5615 -0.213296 0
M  V30 5583 C 536.321 -1.78743 -0.93455 0
M  V30 5584 C 536.634 -0.630199 -1.8517 0
M  V30 5585 O 537.84 -0.739966 -2.61222 0
M  V30 5586 C 536.296 -3.16571 -1.71203 0
M  V30 5587 C 535.904 -4.40043 -0.840617 0
M  V30 5588 C 537.648 -3.48485 -2.42401 0
M  V30 5589 C 535.555 -5.68895 -1.61592 0
M  V30 5590 H 534.485 -0.666426 -0.352692 0
M  V30 5591 H 537.136 -1.82532 -0.188227 0
M  V30 5592 H 535.518 -3.06981 -2.50157 0
M  V30 5593 H 536.692 -4.6071 -0.0910326 0
M  V30 5594 H 535.007 -4.15706 -0.240365 0
M  V30 5595 H 537.604 -4.41983 -3.00924 0
M  V30 5596 H 537.947 -2.71371 -3.15695 0
M  V30 5597 H 538.48 -3.59442 -1.7043 0
M  V30 5598 H 535.219 -6.48925 -0.926106 0
M  V30 5599 H 534.739 -5.52275 -2.33991 0
M  V30 5600 H 536.418 -6.09365 -2.17447 0
M  V30 5601 N 536.55 0.480323 -1.50102 0
M  V30 5602 C 537.482 1.59669 -1.64433 0
M  V30 5603 C 538.495 1.54063 -0.52615 0
M  V30 5604 O 539.684 1.59619 -0.798992 0
M  V30 5605 C 536.784 2.98527 -1.6042 0
M  V30 5606 C 535.957 3.291 -2.88117 0
M  V30 5607 C 535.016 4.47468 -2.76873 0
M  V30 5608 O 534.042 4.4823 -3.50825 0
M  V30 5609 N 535.244 5.48593 -1.89806 0
M  V30 5610 H 538.009 1.47795 -2.60723 0
M  V30 5611 H 535.57 0.66858 -1.4745 0
M  V30 5612 H 537.562 3.75666 -1.50523 0
M  V30 5613 H 536.132 3.04218 -0.719036 0
M  V30 5614 H 535.352 2.40662 -3.12211 0
M  V30 5615 H 536.64 3.46334 -3.72734 0
M  V30 5616 H 536.038 5.50791 -1.2902 0
M  V30 5617 H 534.595 6.24752 -1.85819 0
M  V30 5618 N 538.028 1.39524 0.732853 0
M  V30 5619 C 538.978 1.34905 1.83806 0
M  V30 5620 C 539.962 0.229546 1.59254 0
M  V30 5621 O 541.154 0.467255 1.70721 0
M  V30 5622 C 538.283 1.19699 3.21756 0
M  V30 5623 C 537.369 2.36359 3.5213 0
M  V30 5624 N 537.76 3.61834 3.53426 0
M  V30 5625 C 536.058 2.29363 3.82503 0
M  V30 5626 C 536.759 4.38992 3.81655 0
M  V30 5627 N 535.735 3.68606 3.99538 0
M  V30 5628 H 539.537 2.29882 1.83116 0
M  V30 5629 H 537.051 1.33051 0.931194 0
M  V30 5630 H 539.048 1.14472 4.00876 0
M  V30 5631 H 537.708 0.256739 3.23683 0
M  V30 5632 H 538.719 3.95228 3.34686 0
M  V30 5633 H 535.396 1.43612 3.92023 0
M  V30 5634 H 536.786 5.47763 3.89108 0
M  V30 5635 N 539.506 -0.963266 1.24736 0
M  V30 5636 C 540.752 -1.70933 1.09131 0
M  V30 5637 C 541.085 -1.90676 -0.368273 0
M  V30 5638 O 540.36 -1.47147 -1.27193 0
M  V30 5639 C 540.643 -3.09744 1.83658 0
M  V30 5640 C 540.496 -2.97465 3.37394 0
M  V30 5641 C 541.815 -4.09483 1.61282 0
M  V30 5642 H 538.934 -0.620398 0.397838 0
M  V30 5643 H 541.576 -1.12028 1.53459 0
M  V30 5644 H 539.726 -3.60031 1.4598 0
M  V30 5645 H 541.398 -2.54571 3.84696 0
M  V30 5646 H 539.641 -2.33576 3.65547 0
M  V30 5647 H 540.312 -3.95822 3.84745 0
M  V30 5648 H 542.788 -3.68073 1.94066 0
M  V30 5649 H 541.664 -5.04666 2.15878 0
M  V30 5650 H 541.925 -4.38639 0.552102 0
M  V30 5651 N 540.985 -1.06182 -1.16461 0
M  V30 5652 C 542.262 -0.691364 -1.82974 0
M  V30 5653 C 542.642 0.827377 -1.9421 0
M  V30 5654 O 541.99 1.73723 -1.48434 0
M  V30 5655 C 542.2 -1.39199 -3.20038 0
M  V30 5656 C 543.548 -1.53647 -3.95825 0
M  V30 5657 O 544.572 -1.35181 -3.29552 0
M  V30 5658 O 543.431 -1.83932 -5.14618 0
M  V30 5659 H 540.525 -0.244605 -0.789998 0
M  V30 5660 H 543.071 -1.16203 -1.23673 0
M  V30 5661 H 541.843 -2.42766 -3.06888 0
M  V30 5662 H 541.466 -0.911335 -3.87015 0
M  V30 5663 N 542.463 1.3308 -0.844243 0
M  V30 5664 C 543.691 2.01808 -0.456203 0
M  V30 5665 C 544.106 1.63498 0.944131 0
M  V30 5666 O 543.463 0.85102 1.61443 0
M  V30 5667 C 543.514 3.56922 -0.573513 0
M  V30 5668 O 543.235 3.93851 -1.91868 0
M  V30 5669 C 544.736 4.42922 -0.183125 0
M  V30 5670 H 541.956 0.646273 -0.180477 0
M  V30 5671 H 544.5 1.69891 -1.1383 0
M  V30 5672 H 542.655 3.87352 0.0607367 0
M  V30 5673 H 543.069 4.88564 -1.90802 0
M  V30 5674 H 544.543 5.51093 -0.316241 0
M  V30 5675 H 545.02 4.30386 0.875477 0
M  V30 5676 H 545.626 4.1786 -0.792027 0
M  V30 5677 N 543.941 0.601185 1.45683 0
M  V30 5678 C 545.189 0.0936957 2.01883 0
M  V30 5679 C 545.51 -1.2779 1.47291 0
M  V30 5680 O 544.78 -1.84279 0.664691 0
M  V30 5681 H 543.36 0.0316466 0.746329 0
M  V30 5682 H 546.022 0.781137 1.78562 0
M  V30 5683 H 545.118 0.0386297 3.12076 0
M  V30 5684 N 545.419 -1.53889 0.339982 0
M  V30 5685 C 546.349 -2.27843 -0.510856 0
M  V30 5686 C 547.33 -1.29267 -1.10563 0
M  V30 5687 O 548.515 -1.58104 -1.12768 0
M  V30 5688 C 545.645 -3.04857 -1.66372 0
M  V30 5689 C 544.599 -4.10907 -1.19746 0
M  V30 5690 C 543.925 -4.75855 -2.43857 0
M  V30 5691 C 545.225 -5.21435 -0.300501 0
M  V30 5692 H 546.919 -2.99212 0.106067 0
M  V30 5693 H 544.465 -1.43904 0.0524533 0
M  V30 5694 H 546.418 -3.5533 -2.26537 0
M  V30 5695 H 545.142 -2.31133 -2.30749 0
M  V30 5696 H 543.801 -3.61342 -0.618654 0
M  V30 5697 H 543.449 -3.9873 -3.06633 0
M  V30 5698 H 543.149 -5.47502 -2.13343 0
M  V30 5699 H 544.673 -5.2911 -3.04754 0
M  V30 5700 H 546.087 -5.67565 -0.80889 0
M  V30 5701 H 544.484 -6.00036 -0.0874076 0
M  V30 5702 H 545.554 -4.80328 0.664321 0
M  V30 5703 N 546.897 -0.0685191 -1.57451 0
M  V30 5704 C 548.143 0.596247 -1.94465 0
M  V30 5705 C 548.498 1.67417 -0.948117 0
M  V30 5706 O 547.791 1.91576 0.0301056 0
M  V30 5707 C 547.985 1.22051 -3.35914 0
M  V30 5708 C 547.814 0.204586 -4.49234 0
M  V30 5709 C 546.584 -0.20959 -5.04865 0
M  V30 5710 C 548.782 -0.556872 -5.11276 0
M  V30 5711 N 546.764 -1.21656 -6.01725 0
M  V30 5712 C 548.135 -1.41642 -6.03604 0
M  V30 5713 C 550.19 -0.613297 -4.94108 0
M  V30 5714 C 548.893 -2.32737 -6.80607 0
M  V30 5715 C 550.919 -1.51174 -5.71752 0
M  V30 5716 C 550.281 -2.35898 -6.63726 0
M  V30 5717 H 546.38 0.189307 -0.75874 0
M  V30 5718 H 548.964 -0.144899 -1.9416 0
M  V30 5719 H 547.135 1.9316 -3.36963 0
M  V30 5720 H 548.867 1.84548 -3.60172 0
M  V30 5721 H 545.622 0.172871 -4.73284 0
M  V30 5722 H 546.046 -1.71746 -6.54853 0
M  V30 5723 H 550.688 0.0275228 -4.22791 0
M  V30 5724 H 548.406 -2.97856 -7.51204 0
M  V30 5725 H 551.992 -1.5602 -5.6049 0
M  V30 5726 H 550.872 -3.04291 -7.22756 0
M  V30 5727 N 548.375 1.56261 0.205012 0
M  V30 5728 C 549.305 1.96779 1.257 0
M  V30 5729 C 550.286 0.838309 1.48008 0
M  V30 5730 O 551.471 1.10189 1.59913 0
M  V30 5731 C 548.601 2.29876 2.60335 0
M  V30 5732 C 547.555 3.45469 2.52656 0
M  V30 5733 C 546.881 3.64215 3.91473 0
M  V30 5734 C 548.181 4.79954 2.06014 0
M  V30 5735 H 549.875 2.84904 0.920338 0
M  V30 5736 H 547.421 1.37072 0.441277 0
M  V30 5737 H 549.374 2.56814 3.34102 0
M  V30 5738 H 548.098 1.38622 2.95722 0
M  V30 5739 H 546.757 3.18605 1.81345 0
M  V30 5740 H 546.405 2.70309 4.24196 0
M  V30 5741 H 546.105 4.41973 3.87213 0
M  V30 5742 H 547.629 3.93519 4.66878 0
M  V30 5743 H 549.043 5.05989 2.69533 0
M  V30 5744 H 547.44 5.61111 2.12777 0
M  V30 5745 H 548.51 4.74201 1.01297 0
M  V30 5746 N 549.853 -0.472356 1.50355 0
M  V30 5747 C 551.081 -1.24784 1.65035 0
M  V30 5748 C 551.496 -1.85837 0.333176 0
M  V30 5749 O 550.853 -1.69168 -0.68472 0
M  V30 5750 C 550.904 -2.35747 2.74054 0
M  V30 5751 O 550.625 -1.77197 4.00665 0
M  V30 5752 C 552.126 -3.26645 2.99696 0
M  V30 5753 H 549.346 -0.377432 0.554785 0
M  V30 5754 H 551.89 -0.563962 1.9657 0
M  V30 5755 H 550.045 -2.99912 2.45217 0
M  V30 5756 H 550.459 -2.5026 4.60945 0
M  V30 5757 H 551.933 -4.00718 3.79644 0
M  V30 5758 H 552.41 -3.8535 2.10718 0
M  V30 5759 H 553.016 -2.68218 3.3006 0
M  V30 5760 N 551.331 -1.39911 -0.725443 0
M  V30 5761 C 552.561 -1.40744 -1.51244 0
M  V30 5762 C 552.969 -0.00275403 -1.892 0
M  V30 5763 O 552.312 0.981299 -1.55294 0
M  V30 5764 C 552.374 -2.22527 -2.82351 0
M  V30 5765 C 552.038 -3.71053 -2.66774 0
M  V30 5766 C 553.035 -4.63916 -2.34686 0
M  V30 5767 C 550.72 -4.14753 -2.83347 0
M  V30 5768 C 552.714 -5.98463 -2.19366 0
M  V30 5769 C 550.401 -5.49372 -2.67644 0
M  V30 5770 C 551.399 -6.41042 -2.357 0
M  V30 5771 O 551.087 -7.73181 -2.20107 0
M  V30 5772 H 550.819 -0.482314 -0.473655 0
M  V30 5773 H 553.373 -1.84472 -0.903284 0
M  V30 5774 H 551.603 -1.73563 -3.45562 0
M  V30 5775 H 553.292 -2.15421 -3.44018 0
M  V30 5776 H 554.058 -4.31453 -2.21525 0
M  V30 5777 H 549.937 -3.43728 -3.072 0
M  V30 5778 H 553.481 -6.69979 -1.94354 0
M  V30 5779 H 549.378 -5.81424 -2.80387 0
M  V30 5780 H 550.146 -7.84008 -2.35103 0
M  V30 5781 N 552.809 0.956637 -1.25245 0
M  V30 5782 C 553.741 2.05628 -1.01242 0
M  V30 5783 C 554.754 1.62785 0.0219579 0
M  V30 5784 O 555.943 1.77184 -0.216365 0
M  V30 5785 C 553.043 3.35069 -0.508161 0
M  V30 5786 C 552.216 4.06761 -1.60823 0
M  V30 5787 C 551.275 5.14473 -1.1047 0
M  V30 5788 O 550.301 5.40033 -1.79868 0
M  V30 5789 N 551.503 5.80474 0.0550773 0
M  V30 5790 H 554.268 2.2679 -1.95925 0
M  V30 5791 H 551.829 1.12505 -1.16423 0
M  V30 5792 H 553.821 4.044 -0.155819 0
M  V30 5793 H 552.391 3.10694 0.344683 0
M  V30 5794 H 551.611 3.31555 -2.13224 0
M  V30 5795 H 552.899 4.51418 -2.34733 0
M  V30 5796 H 552.297 5.62125 0.635004 0
M  V30 5797 H 550.854 6.50868 0.348469 0
M  V30 5798 N 554.287 1.06798 1.15896 0
M  V30 5799 C 555.512 0.808739 1.90982 0
M  V30 5800 C 555.937 -0.6316 1.77179 0
M  V30 5801 O 555.295 -1.4407 1.10061 0
M  V30 5802 C 555.343 1.21468 3.39526 0
M  V30 5803 O 554.447 0.356562 4.10856 0
M  V30 5804 H 553.788 0.29512 0.594811 0
M  V30 5805 H 556.318 1.42513 1.46804 0
M  V30 5806 H 556.328 1.18844 3.90308 0
M  V30 5807 H 555.003 2.26379 3.48891 0
M  V30 5808 H 553.58 0.444808 3.70238 0
M  V30 5809 N 555.766 -1.3263 0.851289 0
M  V30 5810 C 557.012 -1.9766 0.453694 0
M  V30 5811 C 557.345 -1.67225 -0.987396 0
M  V30 5812 O 556.62 -0.958693 -1.69232 0
M  V30 5813 C 556.903 -3.5344 0.68936 0
M  V30 5814 C 556.756 -3.93517 2.17862 0
M  V30 5815 C 558.075 -4.39866 0.143555 0
M  V30 5816 H 555.194 -0.717989 0.166314 0
M  V30 5817 H 557.836 -1.57068 1.06909 0
M  V30 5818 H 555.986 -3.88147 0.165546 0
M  V30 5819 H 557.658 -3.69006 2.76826 0
M  V30 5820 H 555.901 -3.42798 2.65841 0
M  V30 5821 H 556.572 -5.02065 2.29422 0
M  V30 5822 H 559.048 -4.11875 0.591451 0
M  V30 5823 H 557.924 -5.47858 0.338043 0
M  V30 5824 H 558.185 -4.31696 -0.953466 0
M  V30 5825 N 557.244 -0.608902 -1.45362 0
M  V30 5826 C 558.521 -0.0365378 -1.95566 0
M  V30 5827 C 558.901 1.43169 -1.55131 0
M  V30 5828 O 558.249 2.1349 -0.814513 0
M  V30 5829 C 558.459 -0.236026 -3.48201 0
M  V30 5830 C 559.807 -0.117518 -4.24437 0
M  V30 5831 O 560.831 -0.166217 -3.55812 0
M  V30 5832 O 559.69 -0.00372127 -5.465 0
M  V30 5833 H 556.784 0.0349874 -0.82626 0
M  V30 5834 H 559.33 -0.679055 -1.55521 0
M  V30 5835 H 558.102 -1.25569 -3.70605 0
M  V30 5836 H 557.725 0.441691 -3.95139 0
M  V30 5837 N 558.722 1.53707 -0.348139 0
M  V30 5838 C 559.968 2.01286 0.247332 0
M  V30 5839 C 560.301 1.23546 1.49834 0
M  V30 5840 O 559.576 0.324331 1.91777 0
M  V30 5841 C 559.859 3.55768 0.556858 0
M  V30 5842 C 559.712 4.44216 -0.706564 0
M  V30 5843 C 561.031 4.1841 1.3646 0
M  V30 5844 H 558.15 0.731677 0.0884201 0
M  V30 5845 H 560.792 1.84106 -0.469584 0
M  V30 5846 H 558.942 3.70539 1.16761 0
M  V30 5847 H 560.614 4.41274 -1.34444 0
M  V30 5848 H 558.857 4.12892 -1.33052 0
M  V30 5849 H 559.528 5.50202 -0.445186 0
M  V30 5850 H 562.004 4.07365 0.848113 0
M  V30 5851 H 560.88 5.26563 1.54992 0
M  V30 5852 H 561.141 3.7333 2.36805 0
M  V30 5853 N 560.2 0.0768682 1.57412 0
M  V30 5854 C 561.147 -0.888577 2.13009 0
M  V30 5855 C 562.117 -1.29198 1.0439 0
M  V30 5856 O 563.302 -1.37694 1.3208 0
M  V30 5857 C 560.442 -2.14899 2.70023 0
M  V30 5858 C 559.555 -1.79777 3.92816 0
M  V30 5859 C 558.69 -3.00467 4.38056 0
M  V30 5860 C 557.729 -2.61385 5.53484 0
M  V30 5861 N 556.866 -3.74851 5.93659 0
M  V30 5862 H 561.706 -0.407593 2.95199 0
M  V30 5863 H 559.243 -0.189534 1.45874 0
M  V30 5864 H 561.201 -2.88688 3.0119 0
M  V30 5865 H 559.831 -2.60529 1.9059 0
M  V30 5866 H 558.883 -0.960301 3.68079 0
M  V30 5867 H 560.195 -1.47027 4.76639 0
M  V30 5868 H 559.349 -3.82529 4.7091 0
M  V30 5869 H 558.088 -3.36413 3.53097 0
M  V30 5870 H 557.093 -1.77746 5.20275 0
M  V30 5871 H 558.318 -2.26603 6.40178 0
M  V30 5872 H 556.264 -4.1055 5.11649 0
M  V30 5873 H 556.181 -3.45887 6.72234 0
M  V30 5874 H 557.449 -4.57477 6.31138 0
M  V30 5875 N 561.678 -1.56367 -0.196722 0
M  V30 5876 C 562.903 -1.84991 -0.937714 0
M  V30 5877 C 563.328 -0.660244 -1.76132 0
M  V30 5878 O 562.686 0.390967 -1.77034 0
M  V30 5879 C 562.734 -3.11828 -1.81096 0
M  V30 5880 O 561.838 -2.92266 -2.90955 0
M  V30 5881 H 561.179 -0.609193 -0.264159 0
M  V30 5882 H 563.709 -2.03595 -0.202529 0
M  V30 5883 H 563.719 -3.42579 -2.21594 0
M  V30 5884 H 562.394 -3.98037 -1.2058 0
M  V30 5885 H 560.971 -2.72809 -2.54224 0
M  V30 5886 N 563.156 0.464375 -1.50603 0
M  V30 5887 C 564.402 1.21776 -1.62168 0
M  V30 5888 C 564.735 1.91476 -0.324154 0
M  V30 5889 O 564.01 1.8242 0.674782 0
M  V30 5890 C 564.293 2.25614 -2.80661 0
M  V30 5891 C 564.146 1.60175 -4.20314 0
M  V30 5892 C 565.465 3.26862 -2.94702 0
M  V30 5893 H 562.584 0.44137 -0.590222 0
M  V30 5894 H 565.226 0.510623 -1.8301 0
M  V30 5895 H 563.376 2.85923 -2.63021 0
M  V30 5896 H 565.048 1.03411 -4.4956 0
M  V30 5897 H 563.291 0.904697 -4.24261 0
M  V30 5898 H 563.962 2.35665 -4.99165 0
M  V30 5899 H 566.438 2.76582 -3.10872 0
M  V30 5900 H 565.314 3.96839 -3.79223 0
M  V30 5901 H 565.575 3.91382 -2.05603 0
M  V30 5902 N 564.634 1.40294 0.718013 0
M  V30 5903 C 566.05 1.2227 1.02577 0
M  V30 5904 C 566.25 0.0961976 2.0127 0
M  V30 5905 O 565.306 -0.546695 2.46511 0
M  V30 5906 C 566.619 2.56348 1.57182 0
M  V30 5907 C 568.167 2.6334 1.69178 0
M  V30 5908 C 568.642 3.9768 2.27188 0
M  V30 5909 N 570.133 3.99409 2.34578 0
M  V30 5910 C 570.868 5.00141 2.8044 0
M  V30 5911 N 570.364 6.11268 3.26073 0
M  V30 5912 N 572.157 4.87511 2.79802 0
M  V30 5913 H 564.308 2.12304 0.0637899 0
M  V30 5914 H 566.571 0.943632 0.0909036 0
M  V30 5915 H 566.277 3.3942 0.921262 0
M  V30 5916 H 566.151 2.77266 2.55741 0
M  V30 5917 H 568.538 1.80641 2.33351 0
M  V30 5918 H 568.619 2.46255 0.692247 0
M  V30 5919 H 568.263 4.80817 1.63638 0
M  V30 5920 H 568.193 4.12093 3.27852 0
M  V30 5921 H 570.684 3.19162 2.02346 0
M  V30 5922 H 570.997 6.84023 3.59628 0
M  V30 5923 H 569.342 6.14837 3.24038 0
M  V30 5924 H 572.533 3.9979 2.43487 0
M  V30 5925 H 572.706 5.66158 3.15228 0
M  V30 5926 N 566.112 -0.949982 1.2575 0
M  V30 5927 C 567.045 -2.047 1.00862 0
M  V30 5928 C 568.023 -1.62475 -0.0636982 0
M  V30 5929 O 569.207 -1.88343 0.0769153 0
M  V30 5930 C 566.334 -3.34597 0.525613 0
M  V30 5931 C 565.38 -3.95788 1.58916 0
M  V30 5932 S 566.213 -4.31175 3.17567 0
M  V30 5933 C 567.369 -5.64183 2.71013 0
M  V30 5934 H 567.602 -2.25497 1.93749 0
M  V30 5935 H 565.135 -1.09022 1.09332 0
M  V30 5936 H 567.093 -4.09716 0.25359 0
M  V30 5937 H 565.754 -3.11758 -0.382828 0
M  V30 5938 H 564.947 -4.89457 1.20201 0
M  V30 5939 H 564.549 -3.27168 1.81211 0
M  V30 5940 H 566.841 -6.42504 2.14928 0
M  V30 5941 H 567.784 -6.07774 3.6334 0
M  V30 5942 H 568.192 -5.2364 2.1086 0
M  V30 5943 N 567.59 -1.07411 -1.15328 0
M  V30 5944 C 568.838 -0.796073 -1.85761 0
M  V30 5945 C 569.159 0.679864 -1.82764 0
M  V30 5946 O 568.429 1.49242 -1.269 0
M  V30 5947 H 567.009 -0.291495 -0.687779 0
M  V30 5948 H 569.671 -1.35799 -1.39802 0
M  V30 5949 H 568.767 -1.13114 -2.90881 0
M  V30 5950 N 569.068 1.32177 -0.85831 0
M  V30 5951 C 570.293 2.01847 -0.476718 0
M  V30 5952 C 570.718 1.64065 0.920021 0
M  V30 5953 O 570.076 0.843189 1.60499 0
M  V30 5954 C 570.124 3.55097 -0.627578 0
M  V30 5955 O 569.228 4.11012 0.338086 0
M  V30 5956 H 568.569 0.635907 -0.191099 0
M  V30 5957 H 571.099 1.68641 -1.15851 0
M  V30 5958 H 571.109 4.04718 -0.516476 0
M  V30 5959 H 569.784 3.81938 -1.64609 0
M  V30 5960 H 568.361 3.72451 0.182917 0
M  V30 5961 N 570.547 0.616602 1.45037 0
M  V30 5962 C 571.796 0.112861 2.01384 0
M  V30 5963 C 572.109 -1.26758 1.48969 0
M  V30 5964 O 573.315 -1.86454 1.9735 0
M  V30 5965 C 571.771 0.151057 3.59583 0
M  V30 5966 C 571.379 1.53191 4.20995 0
M  V30 5967 C 573.123 -0.296974 4.2346 0
M  V30 5968 C 571.03 1.526 5.71373 0
M  V30 5969 H 569.96 0.0384254 0.75302 0
M  V30 5970 H 572.611 0.773262 1.66412 0
M  V30 5971 H 570.993 -0.57617 3.91786 0
M  V30 5972 H 572.167 2.28156 4.00352 0
M  V30 5973 H 570.482 1.92279 3.69348 0
M  V30 5974 H 573.079 -0.320712 5.33737 0
M  V30 5975 H 573.422 -1.32145 3.9477 0
M  V30 5976 H 573.955 0.377279 3.96007 0
M  V30 5977 H 570.694 2.52837 6.04776 0
M  V30 5978 H 570.214 0.819064 5.94181 0
M  V30 5979 H 571.893 1.25357 6.3474 0
M  V30 5980 N 572.025 -1.5352 0.356285 0
M  V30 5981 C 572.957 -2.23009 -0.529127 0
M  V30 5982 C 573.97 -1.241 -1.05371 0
M  V30 5983 O 575.159 -1.50379 -0.961679 0
M  V30 5984 C 572.259 -2.90685 -1.74229 0
M  V30 5985 C 571.432 -4.16019 -1.35081 0
M  V30 5986 C 570.491 -4.66989 -2.42502 0
M  V30 5987 O 569.517 -5.30895 -2.05279 0
M  V30 5988 N 570.719 -4.44006 -3.7395 0
M  V30 5989 H 573.484 -2.99627 0.0660501 0
M  V30 5990 H 571.045 -1.60885 0.181014 0
M  V30 5991 H 573.037 -3.21695 -2.4555 0
M  V30 5992 H 571.607 -2.17575 -2.24454 0
M  V30 5993 H 570.827 -3.91414 -0.467833 0
M  V30 5994 H 572.115 -4.9752 -1.06542 0
M  V30 5995 H 571.513 -3.92924 -4.06973 0
M  V30 5996 H 570.07 -4.7959 -4.41403 0
M  V30 5997 N 573.503 -0.0852151 -1.57369 0
M  V30 5998 C 574.919 0.271436 -1.57275 0
M  V30 5999 C 575.119 1.69109 -1.09565 0
M  V30 6000 O 574.175 2.40549 -0.767611 0
M  V30 6001 C 575.488 0.0688638 -3.00621 0
M  V30 6002 C 577.036 0.137373 -3.12698 0
M  V30 6003 C 577.511 -0.0370832 -4.57985 0
M  V30 6004 N 579.002 0.0180794 -4.63196 0
M  V30 6005 C 579.737 -0.0922953 -5.73326 0
M  V30 6006 N 579.233 -0.256948 -6.92323 0
M  V30 6007 N 581.026 -0.0342702 -5.6209 0
M  V30 6008 H 573.177 -1.01288 -1.86693 0
M  V30 6009 H 575.44 -0.396138 -0.861266 0
M  V30 6010 H 575.146 -0.911277 -3.39689 0
M  V30 6011 H 575.02 0.815442 -3.6828 0
M  V30 6012 H 577.407 1.10801 -2.73509 0
M  V30 6013 H 577.488 -0.640532 -2.47651 0
M  V30 6014 H 577.132 -1.00455 -4.97867 0
M  V30 6015 H 577.062 0.760392 -5.21081 0
M  V30 6016 H 579.553 0.143202 -3.77629 0
M  V30 6017 H 579.866 -0.332949 -7.72082 0
M  V30 6018 H 578.211 -0.292487 -6.94384 0
M  V30 6019 H 581.402 0.0931605 -4.68007 0
M  V30 6020 H 581.575 -0.12374 -6.47882 0
M  V30 6021 N 574.981 1.5647 0.188427 0
M  V30 6022 C 575.928 1.95073 1.23349 0
M  V30 6023 C 576.898 0.812238 1.44886 0
M  V30 6024 O 578.083 1.07095 1.57909 0
M  V30 6025 C 575.223 2.30124 2.57171 0
M  V30 6026 C 574.336 3.57069 2.43157 0
M  V30 6027 C 573.471 3.81411 3.69729 0
M  V30 6028 C 572.51 5.0176 3.50575 0
M  V30 6029 N 571.647 5.22321 4.69175 0
M  V30 6030 H 576.487 2.84171 0.89728 0
M  V30 6031 H 574.024 1.40623 0.431683 0
M  V30 6032 H 575.982 2.48463 3.35145 0
M  V30 6033 H 574.612 1.44159 2.88822 0
M  V30 6034 H 573.664 3.4674 1.56447 0
M  V30 6035 H 574.976 4.452 2.24942 0
M  V30 6036 H 574.13 4.00026 4.56141 0
M  V30 6037 H 572.869 2.91624 3.90905 0
M  V30 6038 H 571.874 4.83061 2.62549 0
M  V30 6039 H 573.099 5.93063 3.30837 0
M  V30 6040 H 571.045 4.35483 4.90602 0
M  V30 6041 H 570.962 6.04643 4.53809 0
M  V30 6042 H 572.23 5.45401 5.56919 0
M  V30 6043 N 576.459 -0.456382 1.50847 0
M  V30 6044 C 577.422 -1.53493 1.70213 0
M  V30 6045 C 578.422 -1.50264 0.572481 0
M  V30 6046 O 579.612 -1.52623 0.839751 0
M  V30 6047 C 576.744 -2.93091 1.741 0
M  V30 6048 H 577.937 -1.37633 2.66453 0
M  V30 6049 H 575.49 -0.683776 1.4055 0
M  V30 6050 H 576.225 -3.14378 0.796063 0
M  V30 6051 H 576.01 -2.9684 2.5618 0
M  V30 6052 H 577.5 -3.71368 1.90987 0
M  V30 6053 N 577.937 -1.40673 -0.710563 0
M  V30 6054 C 579.186 -1.38525 -1.46607 0
M  V30 6055 C 579.499 0.0077024 -1.95598 0
M  V30 6056 O 580.705 0.151792 -2.71075 0
M  V30 6057 C 579.161 -2.43489 -2.6503 0
M  V30 6058 C 578.769 -3.88619 -2.22888 0
M  V30 6059 C 580.513 -2.50456 -3.42742 0
M  V30 6060 C 578.42 -4.85168 -3.3818 0
M  V30 6061 H 577.35 -0.515092 -0.550632 0
M  V30 6062 H 580.001 -1.66431 -0.772846 0
M  V30 6063 H 578.383 -2.0869 -3.36548 0
M  V30 6064 H 579.557 -4.32588 -1.58758 0
M  V30 6065 H 577.872 -3.85174 -1.58208 0
M  V30 6066 H 580.469 -3.19776 -4.28541 0
M  V30 6067 H 580.812 -1.53665 -3.86902 0
M  V30 6068 H 581.345 -2.84271 -2.78271 0
M  V30 6069 H 578.084 -5.8331 -2.99047 0
M  V30 6070 H 577.604 -4.4586 -4.01209 0
M  V30 6071 H 579.283 -5.05225 -4.04174 0
M  V30 6072 N 579.415 0.9433 -1.26252 0
M  V30 6073 C 580.348 2.04162 -1.01946 0
M  V30 6074 C 581.326 1.62507 0.0550808 0
M  V30 6075 O 582.51 1.883 -0.0869025 0
M  V30 6076 C 579.637 3.34313 -0.54335 0
M  V30 6077 C 578.683 3.94939 -1.61013 0
M  V30 6078 S 579.516 4.29484 -3.19849 0
M  V30 6079 C 580.672 5.62738 -2.74001 0
M  V30 6080 H 580.905 2.24466 -1.94942 0
M  V30 6081 H 578.438 1.08441 -1.09909 0
M  V30 6082 H 580.396 4.09576 -0.275315 0
M  V30 6083 H 579.057 3.11957 0.36629 0
M  V30 6084 H 578.25 4.88812 -1.22795 0
M  V30 6085 H 577.852 3.26202 -1.82943 0
M  V30 6086 H 580.144 6.41356 -2.18333 0
M  V30 6087 H 581.087 6.05839 -3.66558 0
M  V30 6088 H 581.495 5.22514 -2.13634 0
M  V30 6089 N 580.893 1.08022 1.14757 0
M  V30 6090 C 581.843 0.676345 2.17737 0
M  V30 6091 C 582.827 -0.302018 1.5804 0
M  V30 6092 O 584.019 -0.11466 1.76628 0
M  V30 6093 C 581.148 0.082984 3.432 0
M  V30 6094 C 580.234 1.0869 4.09936 0
M  V30 6095 N 580.625 2.26891 4.52055 0
M  V30 6096 C 578.923 0.921768 4.36371 0
M  V30 6097 C 579.624 2.90636 5.0389 0
M  V30 6098 N 578.6 2.18266 4.97856 0
M  V30 6099 H 582.402 1.5765 2.4804 0
M  V30 6100 H 579.916 0.954374 1.31398 0
M  V30 6101 H 581.913 -0.224289 4.16296 0
M  V30 6102 H 580.573 -0.812206 3.14378 0
M  V30 6103 H 581.584 2.6457 4.45223 0
M  V30 6104 H 578.261 0.0800499 4.17423 0
M  V30 6105 H 579.651 3.9104 5.46386 0
M  V30 6106 N 582.371 -1.3172 0.865308 0
M  V30 6107 C 583.321 -2.26157 0.289305 0
M  V30 6108 C 584.305 -1.50428 -0.570977 0
M  V30 6109 O 585.497 -1.71978 -0.418617 0
M  V30 6110 C 582.626 -3.39457 -0.512237 0
M  V30 6111 C 581.712 -4.22561 0.361028 0
M  V30 6112 N 582.103 -4.84501 1.45231 0
M  V30 6113 C 580.401 -4.45739 0.152641 0
M  V30 6114 C 581.102 -5.46586 1.99043 0
M  V30 6115 N 580.078 -5.28119 1.28809 0
M  V30 6116 H 583.88 -2.71581 1.12344 0
M  V30 6117 H 581.394 -1.45932 0.712565 0
M  V30 6118 H 583.391 -4.06133 -0.941379 0
M  V30 6119 H 582.051 -2.95577 -1.34404 0
M  V30 6120 H 583.062 -4.84293 1.83524 0
M  V30 6121 H 579.739 -4.1251 -0.643583 0
M  V30 6122 H 581.129 -6.05817 2.90577 0
M  V30 6123 N 583.85 -0.624285 -1.44708 0
M  V30 6124 C 584.76 0.0861083 -2.34442 0
M  V30 6125 C 585.776 0.84291 -1.5222 0
M  V30 6126 O 586.952 0.796723 -1.84971 0
M  V30 6127 C 584.017 1.05999 -3.30099 0
M  V30 6128 C 583.077 0.303316 -4.28227 0
M  V30 6129 C 582.311 1.23081 -5.19314 0
M  V30 6130 O 582.534 2.46929 -5.14181 0
M  V30 6131 O 581.468 0.71883 -5.97592 0
M  V30 6132 H 585.293 -0.651756 -2.96624 0
M  V30 6133 H 582.879 -0.384493 -1.44368 0
M  V30 6134 H 584.76 1.62046 -3.88997 0
M  V30 6135 H 583.436 1.77859 -2.70459 0
M  V30 6136 H 582.343 -0.300033 -3.72895 0
M  V30 6137 H 583.676 -0.375123 -4.90768 0
M  V30 6138 N 585.328 1.53329 -0.364422 0
M  V30 6139 C 586.576 2.00842 0.225189 0
M  V30 6140 C 586.897 1.25345 1.49378 0
M  V30 6141 O 586.167 0.366396 1.92443 0
M  V30 6142 H 584.747 0.742009 0.0862027 0
M  V30 6143 H 587.409 1.8863 -0.490389 0
M  V30 6144 H 586.505 3.08795 0.452987 0
M  V30 6145 N 586.806 0.0935595 1.57322 0
M  V30 6146 C 587.756 -0.876521 2.10478 0
M  V30 6147 C 588.74 -1.24482 1.01946 0
M  V30 6148 O 589.932 -1.22016 1.28223 0
M  V30 6149 C 587.061 -2.13615 2.68745 0
M  V30 6150 C 586.147 -1.79335 3.84317 0
M  V30 6151 N 586.538 -1.15606 4.92411 0
M  V30 6152 C 584.836 -2.08954 3.94023 0
M  V30 6153 C 585.537 -0.999036 5.73057 0
M  V30 6154 N 584.513 -1.51585 5.22037 0
M  V30 6155 H 588.315 -0.379829 2.91435 0
M  V30 6156 H 585.829 -0.109699 1.62029 0
M  V30 6157 H 587.826 -2.84053 3.05155 0
M  V30 6158 H 586.486 -2.63851 1.89242 0
M  V30 6159 H 587.497 -0.823063 5.11318 0
M  V30 6160 H 584.174 -2.61416 3.25527 0
M  V30 6161 H 585.564 -0.500772 6.70031 0
M  V30 6162 N 588.284 -1.56567 -0.180126 0
M  V30 6163 C 589.217 -1.90813 -1.25163 0
M  V30 6164 C 590.195 -0.7699 -1.43218 0
M  V30 6165 O 591.379 -1.02236 -1.58367 0
M  V30 6166 C 588.506 -2.15138 -2.61597 0
M  V30 6167 C 587.552 -3.37834 -2.60328 0
M  V30 6168 S 588.385 -4.92486 -2.1028 0
M  V30 6169 C 589.541 -5.19896 -3.48509 0
M  V30 6170 H 589.774 -2.81398 -0.959283 0
M  V30 6171 H 587.307 -1.49541 -0.3843 0
M  V30 6172 H 589.265 -2.29835 -3.40127 0
M  V30 6173 H 587.926 -1.25276 -2.88036 0
M  V30 6174 H 587.119 -3.52027 -3.60684 0
M  V30 6175 H 586.721 -3.22208 -1.8989 0
M  V30 6176 H 589.013 -5.11334 -4.44459 0
M  V30 6177 H 589.956 -6.21571 -3.39198 0
M  V30 6178 H 590.364 -4.47489 -3.44114 0
M  V30 6179 N 589.762 0.448376 -1.51087 0
M  V30 6180 C 591.039 1.20926 -1.53741 0
M  V30 6181 C 591.419 2.09025 -0.295222 0
M  V30 6182 O 590.767 2.16851 0.720283 0
M  V30 6183 C 590.977 2.02067 -2.84552 0
M  V30 6184 C 592.325 2.59486 -3.36084 0
M  V30 6185 O 593.349 2.12289 -2.86028 0
M  V30 6186 O 592.208 3.45539 -4.23397 0
M  V30 6187 H 589.302 0.549951 -0.617643 0
M  V30 6188 H 591.848 0.458344 -1.63393 0
M  V30 6189 H 590.62 1.37291 -3.66425 0
M  V30 6190 H 590.243 2.84246 -2.78011 0
M  V30 6191 N 591.24 1.41047 0.703093 0
M  V30 6192 C 592.517 1.30493 1.45708 0
M  V30 6193 C 592.897 -0.0709892 2.10981 0
M  V30 6194 O 592.245 -1.08471 2.01113 0
M  V30 6195 C 592.455 2.45287 2.48265 0
M  V30 6196 C 593.803 2.86104 3.13735 0
M  V30 6197 O 594.827 2.44971 2.58587 0
M  V30 6198 O 593.686 3.57206 4.13601 0
M  V30 6199 H 590.78 0.513144 0.648546 0
M  V30 6200 H 593.326 1.52995 0.734208 0
M  V30 6201 H 592.098 3.37135 1.98635 0
M  V30 6202 H 591.721 2.24622 3.28071 0
M  V30 6203 N 592.718 -0.936591 1.26751 0
M  V30 6204 C 593.966 -1.67998 1.12343 0
M  V30 6205 C 594.287 -1.92137 -0.332938 0
M  V30 6206 O 593.557 -1.52132 -1.23421 0
M  V30 6207 H 592.137 -0.622609 0.412756 0
M  V30 6208 H 594.799 -1.12509 1.59147 0
M  V30 6209 H 593.895 -2.65185 1.64571 0
M  V30 6210 N 594.196 -1.08629 -1.14182 0
M  V30 6211 C 595.445 -0.812271 -1.84621 0
M  V30 6212 C 595.758 0.664313 -1.83973 0
M  V30 6213 O 596.964 1.05357 -2.50224 0
M  V30 6214 C 595.42 -1.4031 -3.31423 0
M  V30 6215 C 595.028 -2.91164 -3.40481 0
M  V30 6216 C 596.772 -1.20767 -4.06959 0
M  V30 6217 C 594.679 -3.43373 -4.81507 0
M  V30 6218 H 593.609 -0.30019 -0.691666 0
M  V30 6219 H 596.26 -1.30798 -1.28701 0
M  V30 6220 H 594.642 -0.835096 -3.87094 0
M  V30 6221 H 595.816 -3.5412 -2.94848 0
M  V30 6222 H 594.131 -3.09646 -2.78403 0
M  V30 6223 H 596.728 -1.57237 -5.11058 0
M  V30 6224 H 597.071 -0.147664 -4.16038 0
M  V30 6225 H 597.604 -1.74274 -3.57594 0
M  V30 6226 H 594.343 -4.48958 -4.77616 0
M  V30 6227 H 593.863 -2.85176 -5.27669 0
M  V30 6228 H 595.542 -3.40095 -5.50404 0
M  V30 6229 N 595.674 1.31259 -0.872281 0
M  V30 6230 C 596.899 2.0133 -0.498099 0
M  V30 6231 C 597.324 1.65031 0.902568 0
M  V30 6232 O 596.682 0.860164 1.59596 0
M  V30 6233 C 596.73 3.54411 -0.665205 0
M  V30 6234 O 595.834 4.11347 0.294473 0
M  V30 6235 H 595.175 0.633844 -0.197832 0
M  V30 6236 H 597.705 1.67402 -1.17633 0
M  V30 6237 H 597.715 4.04147 -0.559373 0
M  V30 6238 H 596.39 3.80171 -1.68651 0
M  V30 6239 H 594.967 3.72624 0.143403 0
M  V30 6240 N 597.152 0.631951 1.44375 0
M  V30 6241 C 598.082 -0.0593243 2.33425 0
M  V30 6242 C 599.063 -0.833964 1.48253 0
M  V30 6243 O 600.248 -0.799682 1.76971 0
M  V30 6244 C 597.378 -1.04096 3.31333 0
M  V30 6245 C 596.332 -0.377899 4.26328 0
M  V30 6246 C 595.658 -1.4695 5.14111 0
M  V30 6247 C 596.958 0.716371 5.17364 0
M  V30 6248 H 598.652 0.684287 2.91475 0
M  V30 6249 H 596.198 0.330518 1.40156 0
M  V30 6250 H 598.151 -1.53331 3.92514 0
M  V30 6251 H 596.875 -1.81547 2.71493 0
M  V30 6252 H 595.534 0.0938054 3.6648 0
M  V30 6253 H 595.182 -2.2349 4.50623 0
M  V30 6254 H 594.882 -1.03121 5.78481 0
M  V30 6255 H 596.406 -1.96363 5.78164 0
M  V30 6256 H 597.82 0.307089 5.72477 0
M  V30 6257 H 596.217 1.07784 5.90341 0
M  V30 6258 H 597.287 1.58316 4.58327 0
M  V30 6259 N 598.631 -1.53133 0.372548 0
M  V30 6260 C 599.856 -2.0625 -0.218098 0
M  V30 6261 C 600.281 -1.24375 -1.41111 0
M  V30 6262 O 599.639 -0.264554 -1.79359 0
M  V30 6263 C 599.687 -3.55858 -0.582876 0
M  V30 6264 O 598.791 -3.76667 -1.67917 0
M  V30 6265 H 598.132 -0.663317 -0.030104 0
M  V30 6266 H 600.662 -1.97477 0.535169 0
M  V30 6267 H 600.672 -3.99007 -0.851925 0
M  V30 6268 H 599.347 -4.14892 0.289428 0
M  V30 6269 H 597.924 -3.45413 -1.40513 0
M  V30 6270 N 600.109 -0.101901 -1.5727 0
M  V30 6271 C 601.525 0.254739 -1.57554 0
M  V30 6272 C 601.725 1.67937 -1.11352 0
M  V30 6273 O 600.781 2.39722 -0.793081 0
M  V30 6274 C 602.094 0.036975 -3.00677 0
M  V30 6275 C 603.642 0.104199 -3.12827 0
M  V30 6276 C 604.117 -0.0856565 -4.5792 0
M  V30 6277 N 605.608 -0.0310498 -4.6319 0
M  V30 6278 C 606.343 -0.153099 -5.73196 0
M  V30 6279 N 605.839 -0.330364 -6.92012 0
M  V30 6280 N 607.632 -0.0938854 -5.62022 0
M  V30 6281 H 599.783 -1.03263 -1.85609 0
M  V30 6282 H 602.046 -0.405251 -0.857016 0
M  V30 6283 H 601.752 -0.947254 -3.38703 0
M  V30 6284 H 601.626 0.776335 -3.69124 0
M  V30 6285 H 604.013 1.07894 -2.74669 0
M  V30 6286 H 604.094 -0.666762 -2.46957 0
M  V30 6287 H 603.738 -1.05729 -4.96773 0
M  V30 6288 H 603.668 0.705082 -5.21858 0
M  V30 6289 H 606.159 0.103141 -3.77759 0
M  V30 6290 H 606.472 -0.41482 -7.71686 0
M  V30 6291 H 604.817 -0.366119 -6.94035 0
M  V30 6292 H 608.008 0.0435168 -4.6808 0
M  V30 6293 H 608.181 -0.19245 -6.47714 0
M  V30 6294 N 601.587 1.56661 0.17182 0
M  V30 6295 C 602.812 1.86459 0.908165 0
M  V30 6296 C 603.237 0.688181 1.75059 0
M  V30 6297 O 602.595 -0.362753 1.77634 0
M  V30 6298 C 602.643 3.14669 1.76112 0
M  V30 6299 O 601.747 2.96858 2.86268 0
M  V30 6300 H 601.088 0.613318 0.254434 0
M  V30 6301 H 603.618 2.03892 0.170113 0
M  V30 6302 H 603.628 3.46061 2.16115 0
M  V30 6303 H 602.303 3.99905 1.14233 0
M  V30 6304 H 600.88 2.76819 2.49852 0
M  V30 6305 N 603.065 -0.440357 1.51323 0
M  V30 6306 C 603.997 -1.55254 1.68609 0
M  V30 6307 C 605.01 -1.52614 0.566812 0
M  V30 6308 O 606.199 -1.57445 0.841032 0
M  V30 6309 C 603.299 -2.94169 1.68279 0
M  V30 6310 C 602.472 -3.21346 2.96742 0
M  V30 6311 C 601.531 -4.3997 2.8864 0
M  V30 6312 O 600.557 -4.38771 3.62586 0
M  V30 6313 N 601.759 -5.43367 2.04285 0
M  V30 6314 H 604.524 -1.40831 2.6455 0
M  V30 6315 H 602.085 -0.629251 1.49171 0
M  V30 6316 H 604.077 -3.71543 1.60431 0
M  V30 6317 H 602.647 -3.02205 0.799441 0
M  V30 6318 H 601.867 -2.32299 3.18482 0
M  V30 6319 H 603.155 -3.3633 3.81785 0
M  V30 6320 H 602.553 -5.47176 1.43578 0
M  V30 6321 H 601.11 -6.19605 2.02318 0
M  V30 6322 N 604.543 -1.41418 -0.695603 0
M  V30 6323 C 605.493 -1.39731 -1.80165 0
M  V30 6324 C 606.477 -0.271689 -1.5859 0
M  V30 6325 O 607.669 -0.512354 -1.69422 0
M  V30 6326 C 604.798 -1.28187 -3.1847 0
M  V30 6327 C 603.884 -2.45612 -3.45739 0
M  V30 6328 N 604.275 -3.71077 -3.43708 0
M  V30 6329 C 602.573 -2.39424 -3.76288 0
M  V30 6330 C 603.274 -4.48957 -3.69882 0
M  V30 6331 N 602.25 -3.7907 -3.89624 0
M  V30 6332 H 606.052 -2.34656 -1.76957 0
M  V30 6333 H 603.566 -1.35473 -0.89559 0
M  V30 6334 H 605.563 -1.2506 -3.977 0
M  V30 6335 H 604.223 -0.342468 -3.22889 0
M  V30 6336 H 605.234 -4.03963 -3.2409 0
M  V30 6337 H 601.911 -1.53955 -3.88077 0
M  V30 6338 H 603.301 -5.57887 -3.74448 0
M  V30 6339 N 606.021 0.929856 -1.27246 0
M  V30 6340 C 606.931 2.0636 -1.11592 0
M  V30 6341 C 607.947 1.73938 -0.046496 0
M  V30 6342 O 609.123 1.9981 -0.252544 0
M  V30 6343 C 606.188 3.38213 -0.762437 0
M  V30 6344 C 605.249 3.84346 -1.9125 0
M  V30 6345 C 604.482 5.09906 -1.57579 0
M  V30 6346 O 604.705 5.68354 -0.482694 0
M  V30 6347 O 603.639 5.51359 -2.41426 0
M  V30 6348 H 607.465 2.22478 -2.0673 0
M  V30 6349 H 605.05 1.04865 -1.06413 0
M  V30 6350 H 606.932 4.1741 -0.57854 0
M  V30 6351 H 605.607 3.23307 0.159439 0
M  V30 6352 H 604.514 3.06045 -2.15144 0
M  V30 6353 H 605.847 4.0379 -2.81451 0
M  V30 6354 N 607.499 1.09233 1.13605 0
M  V30 6355 C 608.409 0.741939 2.22559 0
M  V30 6356 C 609.425 -0.255236 1.72118 0
M  V30 6357 O 610.601 -0.0970747 2.01166 0
M  V30 6358 C 607.666 0.165595 3.46304 0
M  V30 6359 C 606.727 1.21846 4.11645 0
M  V30 6360 C 605.96 0.669526 5.29484 0
M  V30 6361 O 606.183 -0.508228 5.68131 0
M  V30 6362 O 605.117 1.42361 5.84822 0
M  V30 6363 H 608.943 1.65107 2.54899 0
M  V30 6364 H 606.528 0.866584 1.21699 0
M  V30 6365 H 608.41 -0.152592 4.21124 0
M  V30 6366 H 607.085 -0.716573 3.15669 0
M  V30 6367 H 605.992 1.58931 3.38662 0
M  V30 6368 H 607.325 2.07321 4.46407 0
M  V30 6369 N 608.977 -1.30795 0.87923 0
M  V30 6370 C 610.202 -2.01063 0.508769 0
M  V30 6371 C 610.627 -1.65508 -0.893803 0
M  V30 6372 O 609.985 -0.868616 -1.59138 0
M  V30 6373 C 610.033 -3.54054 0.683991 0
M  V30 6374 O 609.137 -4.11498 -0.272654 0
M  V30 6375 H 608.478 -0.632786 0.201191 0
M  V30 6376 H 611.008 -1.66776 1.18519 0
M  V30 6377 H 611.018 -4.03845 0.580798 0
M  V30 6378 H 609.693 -3.79271 1.70665 0
M  V30 6379 H 608.27 -3.72695 -0.12364 0
M  V30 6380 N 610.455 -0.639598 -1.44038 0
M  V30 6381 C 611.871 -0.305953 -1.5664 0
M  V30 6382 C 612.071 1.19055 -1.62567 0
M  V30 6383 O 611.127 1.97492 -1.57331 0
M  V30 6384 C 612.44 -1.00533 -2.83397 0
M  V30 6385 C 613.988 -0.984278 -2.97121 0
M  V30 6386 C 614.463 -1.66428 -4.26691 0
M  V30 6387 N 615.954 -1.63127 -4.33525 0
M  V30 6388 C 616.689 -2.12629 -5.32519 0
M  V30 6389 N 616.185 -2.70359 -6.3787 0
M  V30 6390 N 617.978 -2.03208 -5.24083 0
M  V30 6391 H 610.129 -1.6109 -1.38434 0
M  V30 6392 H 612.392 -0.676672 -0.663942 0
M  V30 6393 H 612.098 -2.06034 -2.85032 0
M  V30 6394 H 611.972 -0.548362 -3.73193 0
M  V30 6395 H 614.359 0.0622792 -2.95034 0
M  V30 6396 H 614.44 -1.47981 -2.08651 0
M  V30 6397 H 614.084 -2.71034 -4.29538 0
M  V30 6398 H 614.014 -1.14351 -5.14034 0
M  V30 6399 H 616.505 -1.20987 -3.58009 0
M  V30 6400 H 616.818 -3.05842 -7.09704 0
M  V30 6401 H 615.163 -2.74414 -6.38531 0
M  V30 6402 H 618.354 -1.57823 -4.40692 0
M  V30 6403 H 618.527 -2.42097 -6.01077 0
M  V30 6404 N 611.933 1.52934 -0.380664 0
M  V30 6405 C 613.161 2.05886 0.204599 0
M  V30 6406 C 613.576 1.25305 1.41223 0
M  V30 6407 O 612.933 0.297504 1.80059 0
M  V30 6408 C 612.984 3.56764 0.583249 0
M  V30 6409 O 612.705 4.34292 -0.576398 0
M  V30 6410 C 614.206 4.2603 1.2253 0
M  V30 6411 H 611.426 0.670193 0.0328991 0
M  V30 6412 H 613.97 1.97148 -0.543397 0
M  V30 6413 H 612.125 3.65603 1.28115 0
M  V30 6414 H 612.539 5.23819 -0.267119 0
M  V30 6415 H 614.013 5.32868 1.44068 0
M  V30 6416 H 614.49 3.80698 2.19011 0
M  V30 6417 H 615.096 4.21485 0.568407 0
M  V30 6418 N 613.412 0.11024 1.57214 0
M  V30 6419 C 614.375 -0.828808 2.1369 0
M  V30 6420 C 615.375 -1.20059 1.06969 0
M  V30 6421 O 616.565 -1.12754 1.32786 0
M  V30 6422 C 613.697 -2.11959 2.66994 0
M  V30 6423 H 614.89 -0.338146 2.97988 0
M  V30 6424 H 612.443 -0.138913 1.55681 0
M  V30 6425 H 613.178 -2.65476 1.8626 0
M  V30 6426 H 612.963 -1.86258 3.45037 0
M  V30 6427 H 614.453 -2.79105 3.10629 0
M  V30 6428 N 614.89 -1.56749 -0.16351 0
M  V30 6429 C 616.306 -1.51043 -0.515567 0
M  V30 6430 C 616.506 -0.815855 -1.84245 0
M  V30 6431 O 615.562 -0.379477 -2.49632 0
M  V30 6432 C 616.875 -2.95791 -0.541114 0
M  V30 6433 C 618.423 -3.0664 -0.627776 0
M  V30 6434 C 618.898 -4.52861 -0.684141 0
M  V30 6435 N 620.389 -4.5714 -0.746818 0
M  V30 6436 C 621.124 -5.67634 -0.811137 0
M  V30 6437 N 620.62 -6.8774 -0.835811 0
M  V30 6438 N 622.413 -5.55624 -0.850756 0
M  V30 6439 H 614.564 -2.00307 0.70645 0
M  V30 6440 H 616.827 -0.912876 0.255659 0
M  V30 6441 H 616.533 -3.49797 0.365329 0
M  V30 6442 H 616.407 -3.50858 -1.38487 0
M  V30 6443 H 618.794 -2.52663 -1.52464 0
M  V30 6444 H 618.875 -2.54645 0.242805 0
M  V30 6445 H 618.519 -5.07472 0.2085 0
M  V30 6446 H 618.449 -5.02621 -1.57098 0
M  V30 6447 H 620.94 -3.70669 -0.735717 0
M  V30 6448 H 621.253 -7.67701 -0.886279 0
M  V30 6449 H 619.598 -6.90334 -0.803958 0
M  V30 6450 H 622.789 -4.60709 -0.828535 0
M  V30 6451 H 622.962 -6.41756 -0.897418 0
M  V30 6452 N 616.368 0.432326 -1.51554 0
M  V30 6453 C 617.614 1.18309 -1.64714 0
M  V30 6454 C 617.947 1.90745 -0.364696 0
M  V30 6455 O 617.222 1.8381 0.635936 0
M  V30 6456 C 617.505 2.1961 -2.85383 0
M  V30 6457 C 617.358 1.51223 -4.23617 0
M  V30 6458 C 618.677 3.20538 -3.01569 0
M  V30 6459 H 615.796 0.428751 -0.599451 0
M  V30 6460 H 618.438 0.471689 -1.84052 0
M  V30 6461 H 616.588 2.8028 -2.69027 0
M  V30 6462 H 618.26 0.938516 -4.51652 0
M  V30 6463 H 616.503 0.814501 -4.26085 0
M  V30 6464 H 617.174 2.25024 -5.04052 0
M  V30 6465 H 619.65 2.69926 -3.16669 0
M  V30 6466 H 618.526 3.88706 -3.87555 0
M  V30 6467 H 618.787 3.86933 -2.13859 0
M  V30 6468 N 617.846 1.41785 0.688094 0
M  V30 6469 C 619.095 1.4084 1.44385 0
M  V30 6470 C 619.408 0.0234166 1.95586 0
M  V30 6471 O 620.614 -0.108647 2.71283 0
M  V30 6472 C 619.07 2.47675 2.61123 0
M  V30 6473 C 618.678 3.92116 2.16677 0
M  V30 6474 C 620.422 2.55877 3.38714 0
M  V30 6475 C 618.329 4.90487 3.30419 0
M  V30 6476 H 617.259 0.523787 0.542368 0
M  V30 6477 H 619.91 1.6764 0.74627 0
M  V30 6478 H 618.292 2.14018 3.33185 0
M  V30 6479 H 619.466 4.35059 1.51856 0
M  V30 6480 H 617.781 3.87642 1.5206 0
M  V30 6481 H 620.378 3.26553 4.234 0
M  V30 6482 H 620.721 1.59801 3.84408 0
M  V30 6483 H 621.254 2.88662 2.73714 0
M  V30 6484 H 617.993 5.87994 2.89729 0
M  V30 6485 H 617.513 4.52187 3.94065 0
M  V30 6486 H 619.192 5.11591 3.96085 0
M  V30 6487 N 619.324 -0.923095 1.27737 0
M  V30 6488 C 620.74 -1.19985 1.05241 0
M  V30 6489 C 620.94 -2.00391 -0.21113 0
M  V30 6490 O 619.996 -2.35324 -0.915366 0
M  V30 6491 C 621.309 -1.94352 2.29451 0
M  V30 6492 C 622.857 -2.07273 2.34536 0
M  V30 6493 C 623.332 -2.85046 3.58487 0
M  V30 6494 N 624.823 -2.92612 3.59072 0
M  V30 6495 C 625.558 -3.53266 4.51654 0
M  V30 6496 N 625.054 -4.15274 5.54545 0
M  V30 6497 N 626.847 -3.50714 4.39268 0
M  V30 6498 H 618.998 -0.386042 2.08862 0
M  V30 6499 H 621.261 -0.233407 0.918817 0
M  V30 6500 H 620.967 -1.42692 3.21453 0
M  V30 6501 H 620.841 -2.94947 2.3513 0
M  V30 6502 H 623.228 -2.58117 1.43037 0
M  V30 6503 H 623.309 -1.05884 2.32857 0
M  V30 6504 H 622.953 -2.34884 4.50324 0
M  V30 6505 H 622.883 -3.8673 3.57418 0
M  V30 6506 H 625.374 -2.48547 2.84663 0
M  V30 6507 H 625.687 -4.59507 6.21348 0
M  V30 6508 H 624.032 -4.13806 5.58382 0
M  V30 6509 H 627.223 -3.01475 3.58093 0
M  V30 6510 H 627.396 -3.97693 5.1161 0
M  V30 6511 N 620.802 -1.09834 -1.13024 0
M  V30 6512 C 622.027 -0.85909 -1.88771 0
M  V30 6513 C 622.452 0.584402 -1.78791 0
M  V30 6514 O 621.81 1.41101 -1.13842 0
M  V30 6515 C 621.858 -1.30427 -3.36186 0
M  V30 6516 O 620.962 -0.465368 -4.09766 0
M  V30 6517 H 620.303 -0.310786 -0.586778 0
M  V30 6518 H 622.833 -1.46355 -1.42973 0
M  V30 6519 H 622.843 -1.2915 -3.8702 0
M  V30 6520 H 621.518 -2.3555 -3.42767 0
M  V30 6521 H 620.095 -0.542814 -3.68928 0
M  V30 6522 N 622.28 1.30327 -0.886154 0
M  V30 6523 C 623.508 2.00254 -0.520176 0
M  V30 6524 C 623.923 1.66419 0.891637 0
M  V30 6525 O 623.28 0.901951 1.58654 0
M  V30 6526 C 623.331 3.54916 -0.686775 0
M  V30 6527 O 623.052 3.87547 -2.04301 0
M  V30 6528 C 624.553 4.42115 -0.323945 0
M  V30 6529 H 621.773 0.640204 -0.200947 0
M  V30 6530 H 624.317 1.66183 -1.19178 0
M  V30 6531 H 622.472 3.8735 -0.0625273 0
M  V30 6532 H 622.886 4.82247 -2.06249 0
M  V30 6533 H 624.36 5.49808 -0.491407 0
M  V30 6534 H 624.837 4.32953 0.73811 0
M  V30 6535 H 625.443 4.15129 -0.924565 0
M  V30 6536 N 623.758 0.647228 1.43697 0
M  V30 6537 C 625.004 0.158422 2.0218 0
M  V30 6538 C 625.337 -1.22233 1.50907 0
M  V30 6539 O 624.612 -1.81478 0.699702 0
M  V30 6540 C 624.895 0.1627 3.59732 0
M  V30 6541 C 624.748 1.57694 4.21251 0
M  V30 6542 C 626.067 -0.504138 4.37203 0
M  V30 6543 H 623.186 0.059042 0.734631 0
M  V30 6544 H 625.828 0.826772 1.71069 0
M  V30 6545 H 623.978 -0.406414 3.86368 0
M  V30 6546 H 625.65 2.19618 4.05667 0
M  V30 6547 H 623.893 2.12603 3.7813 0
M  V30 6548 H 624.564 1.53183 5.3032 0
M  V30 6549 H 627.04 -0.0199841 4.16095 0
M  V30 6550 H 625.916 -0.470394 5.46881 0
M  V30 6551 H 626.177 -1.57726 4.13007 0
M  V30 6552 N 625.236 -1.5273 0.388769 0
M  V30 6553 C 626.483 -2.01573 -0.19359 0
M  V30 6554 C 626.811 -1.27525 -1.46859 0
M  V30 6555 O 626.066 -0.363926 -1.92286 0
M  V30 6556 C 626.365 -3.53765 -0.508445 0
M  V30 6557 C 626.031 -4.4582 0.674947 0
M  V30 6558 C 624.693 -4.70703 0.999596 0
M  V30 6559 C 627.045 -5.00138 1.46666 0
M  V30 6560 C 624.373 -5.47155 2.11751 0
M  V30 6561 C 626.725 -5.77812 2.57518 0
M  V30 6562 C 625.389 -6.00975 2.90492 0
M  V30 6563 H 624.659 -0.737606 -0.0708397 0
M  V30 6564 H 627.306 -1.84134 0.526006 0
M  V30 6565 H 625.611 -3.69274 -1.30936 0
M  V30 6566 H 627.308 -3.8905 -0.971664 0
M  V30 6567 H 623.898 -4.26616 0.411906 0
M  V30 6568 H 628.082 -4.8084 1.22909 0
M  V30 6569 H 623.338 -5.63314 2.3767 0
M  V30 6570 H 627.512 -6.18904 3.19267 0
M  V30 6571 H 625.139 -6.59998 3.77236 0
M  V30 6572 N 626.714 -0.118576 -1.57153 0
M  V30 6573 C 627.644 0.828436 -2.1831 0
M  V30 6574 C 628.625 1.27758 -1.12303 0
M  V30 6575 O 629.81 1.34026 -1.40537 0
M  V30 6576 C 626.94 2.07876 -2.78217 0
M  V30 6577 C 625.894 1.76742 -3.89803 0
M  V30 6578 C 625.22 3.08801 -4.36516 0
M  V30 6579 C 626.52 1.03606 -5.11921 0
M  V30 6580 H 628.214 0.318824 -2.97698 0
M  V30 6581 H 625.76 0.151911 -1.43196 0
M  V30 6582 H 627.713 2.74584 -3.19659 0
M  V30 6583 H 626.437 2.61161 -1.96118 0
M  V30 6584 H 625.096 1.12424 -3.48936 0
M  V30 6585 H 624.744 3.6002 -3.51276 0
M  V30 6586 H 624.444 2.88743 -5.11763 0
M  V30 6587 H 625.968 3.76627 -4.80608 0
M  V30 6588 H 627.382 1.60467 -5.50385 0
M  V30 6589 H 625.779 0.936454 -5.92748 0
M  V30 6590 H 626.849 0.0227421 -4.84895 0
M  V30 6591 N 628.193 1.56834 0.155195 0
M  V30 6592 C 629.44 1.82898 0.869179 0
M  V30 6593 C 629.768 0.698194 1.81537 0
M  V30 6594 O 629.023 -0.313404 1.93174 0
M  V30 6595 C 629.322 3.15239 1.68402 0
M  V30 6596 C 628.988 4.42123 0.885341 0
M  V30 6597 C 627.65 4.76583 0.664971 0
M  V30 6598 C 630.002 5.20178 0.326234 0
M  V30 6599 C 627.33 5.86566 -0.125346 0
M  V30 6600 C 629.682 6.3099 -0.45108 0
M  V30 6601 C 628.346 6.64006 -0.682102 0
M  V30 6602 H 627.616 0.66927 0.318055 0
M  V30 6603 H 630.263 1.91036 0.133241 0
M  V30 6604 H 628.568 3.02515 2.48982 0
M  V30 6605 H 630.265 3.32618 2.23978 0
M  V30 6606 H 626.855 4.15102 1.06716 0
M  V30 6607 H 631.039 4.93936 0.483787 0
M  V30 6608 H 626.295 6.10594 -0.313915 0
M  V30 6609 H 630.469 6.9067 -0.89149 0
M  V30 6610 H 628.096 7.49065 -1.29636 0
M  V30 6611 N 629.671 -0.424282 1.51781 0
M  V30 6612 C 630.619 -1.53649 1.74628 0
M  V30 6613 C 631.613 -1.57923 0.612922 0
M  V30 6614 O 632.819 -1.61511 0.794618 0
M  V30 6615 H 629.194 -0.510706 0.551981 0
M  V30 6616 H 631.165 -1.31558 2.67834 0
M  V30 6617 C 629.914 -2.91177 1.9003 0
M  V30 6618 H 629.237 -2.88625 2.76651 0
M  V30 6619 H 630.677 -3.6833 2.10021 0
M  V30 6620 C 629.136 -3.30303 0.663435 0
M  V30 6621 O 629.666 -4.01315 -0.175812 0
M  V30 6622 N 627.872 -2.86201 0.503723 0
M  V30 6623 H 627.419 -2.28583 1.18776 0
M  V30 6624 H 627.377 -3.12741 -0.322575 0
M  V30 6625 N 631.149 -1.42148 -0.680565 0
M  V30 6626 C 632.565 -1.24947 -0.992995 0
M  V30 6627 C 632.765 -0.149527 -2.00944 0
M  V30 6628 O 631.821 0.481145 -2.47873 0
M  V30 6629 C 633.134 -2.60426 -1.5033 0
M  V30 6630 C 634.682 -2.67733 -1.62137 0
M  V30 6631 C 635.157 -4.03564 -2.16565 0
M  V30 6632 N 636.648 -4.05488 -2.23905 0
M  V30 6633 C 637.383 -5.07401 -2.67081 0
M  V30 6634 N 636.879 -6.19698 -3.09751 0
M  V30 6635 N 638.672 -4.94758 -2.66778 0
M  V30 6636 H 630.823 -2.12399 -0.0074788 0
M  V30 6637 H 633.086 -0.94571 -0.0658529 0
M  V30 6638 H 632.792 -3.41743 -0.830947 0
M  V30 6639 H 632.666 -2.83949 -2.483 0
M  V30 6640 H 635.053 -1.86765 -2.2848 0
M  V30 6641 H 635.134 -2.48004 -0.626713 0
M  V30 6642 H 634.778 -4.84987 -1.50833 0
M  V30 6643 H 634.708 -4.20641 -3.1681 0
M  V30 6644 H 637.199 -3.24415 -1.93812 0
M  V30 6645 H 637.512 -6.93318 -3.41365 0
M  V30 6646 H 635.857 -6.23212 -3.07623 0
M  V30 6647 H 639.048 -4.06105 -2.32801 0
M  V30 6648 H 639.221 -5.74317 -3.00107 0
M  V30 6649 N 632.627 0.916307 -1.28225 0
M  V30 6650 C 633.874 1.66518 -1.1523 0
M  V30 6651 C 634.202 1.92178 0.299632 0
M  V30 6652 O 633.457 1.51842 1.2346 0
M  V30 6653 C 633.756 3.03125 -1.8934 0
M  V30 6654 C 633.422 2.97135 -3.39148 0
M  V30 6655 C 632.084 2.95208 -3.80007 0
M  V30 6656 C 634.436 2.87574 -4.34685 0
M  V30 6657 C 631.764 2.81518 -5.14747 0
M  V30 6658 C 634.116 2.75424 -5.69495 0
M  V30 6659 C 632.78 2.71854 -6.09632 0
M  V30 6660 H 632.05 0.609334 -0.421655 0
M  V30 6661 H 634.697 1.06776 -1.58969 0
M  V30 6662 H 633.002 3.66639 -1.38143 0
M  V30 6663 H 634.699 3.59968 -1.76704 0
M  V30 6664 H 631.289 2.99428 -3.06661 0
M  V30 6665 H 635.473 2.88152 -4.04082 0
M  V30 6666 H 630.729 2.77148 -5.44976 0
M  V30 6667 H 634.903 2.66993 -6.43185 0
M  V30 6668 H 632.53 2.61003 -7.1399 0
M  V30 6669 N 634.105 1.10431 1.1244 0
M  V30 6670 C 635.354 0.841539 1.83306 0
M  V30 6671 C 635.667 -0.634961 1.85007 0
M  V30 6672 O 636.873 -1.01363 2.51869 0
M  V30 6673 C 635.329 1.45565 3.29149 0
M  V30 6674 C 634.937 2.96544 3.35806 0
M  V30 6675 C 636.681 1.27227 4.04986 0
M  V30 6676 C 634.588 3.5099 4.75983 0
M  V30 6677 H 633.518 0.311156 0.686803 0
M  V30 6678 H 636.169 1.32829 1.26604 0
M  V30 6679 H 634.551 0.896574 3.85717 0
M  V30 6680 H 635.725 3.58766 2.89177 0
M  V30 6681 H 634.04 3.14036 2.73442 0
M  V30 6682 H 636.637 1.65348 5.08492 0
M  V30 6683 H 636.98 0.213834 4.1575 0
M  V30 6684 H 637.513 1.79941 3.54776 0
M  V30 6685 H 634.252 4.56499 4.70413 0
M  V30 6686 H 633.772 2.93535 5.23065 0
M  V30 6687 H 635.451 3.48808 5.44924 0
M  V30 6688 N 635.583 -1.29855 0.893053 0
M  V30 6689 C 636.999 -1.48366 0.588199 0
M  V30 6690 C 637.199 -1.81654 -0.872018 0
M  V30 6691 O 636.255 -1.909 -1.65268 0
M  V30 6692 C 637.568 -2.60136 1.5083 0
M  V30 6693 C 639.116 -2.74014 1.51279 0
M  V30 6694 C 639.591 -3.88905 2.41902 0
M  V30 6695 N 641.082 -3.96228 2.39911 0
M  V30 6696 C 641.817 -4.84458 3.06738 0
M  V30 6697 N 641.313 -5.77426 3.8282 0
M  V30 6698 N 643.106 -4.77894 2.95929 0
M  V30 6699 H 635.257 -1.06522 1.83757 0
M  V30 6700 H 637.52 -0.528495 0.787018 0
M  V30 6701 H 637.226 -2.42383 2.54839 0
M  V30 6702 H 637.1 -3.56793 1.22388 0
M  V30 6703 H 639.487 -2.91167 0.480179 0
M  V30 6704 H 639.568 -1.77952 1.83757 0
M  V30 6705 H 639.212 -3.72508 3.45253 0
M  V30 6706 H 639.142 -4.84322 2.06737 0
M  V30 6707 H 641.633 -3.29728 1.84629 0
M  V30 6708 H 641.946 -6.41529 4.30883 0
M  V30 6709 H 640.291 -5.77332 3.86927 0
M  V30 6710 H 643.482 -4.04248 2.36012 0
M  V30 6711 H 643.655 -5.46444 3.48286 0
M  V30 6712 N 637.061 -0.65484 -1.43351 0
M  V30 6713 C 638.309 -0.168559 -2.01396 0
M  V30 6714 C 638.63 1.22235 -1.51933 0
M  V30 6715 O 637.9 1.81685 -0.732627 0
M  V30 6716 H 636.48 -0.0593244 -0.744641 0
M  V30 6717 H 639.142 -0.846871 -1.75539 0
M  V30 6718 H 638.238 -0.154428 -3.11718 0
M  V30 6719 N 638.539 1.52521 -0.396863 0
M  V30 6720 C 639.469 2.29582 0.425941 0
M  V30 6721 C 640.45 1.33281 1.05689 0
M  V30 6722 O 641.635 1.62181 1.06823 0
M  V30 6723 C 638.765 3.10821 1.54943 0
M  V30 6724 C 637.719 4.15069 1.04413 0
M  V30 6725 C 637.045 4.84578 2.26028 0
M  V30 6726 C 638.345 5.22191 0.106767 0
M  V30 6727 H 640.039 2.98612 -0.217045 0
M  V30 6728 H 637.585 1.43611 -0.105826 0
M  V30 6729 H 639.538 3.63492 2.13193 0
M  V30 6730 H 638.262 2.39538 2.22011 0
M  V30 6731 H 636.921 3.63389 0.484118 0
M  V30 6732 H 636.569 4.09835 2.91623 0
M  V30 6733 H 636.269 5.55043 1.92876 0
M  V30 6734 H 637.793 5.40056 2.84906 0
M  V30 6735 H 639.207 5.70176 0.597685 0
M  V30 6736 H 637.604 5.99947 -0.135352 0
M  V30 6737 H 638.674 4.77531 -0.842134 0
M  V30 6738 N 640.017 0.126909 1.57088 0
M  V30 6739 C 641.294 -0.573152 1.87014 0
M  V30 6740 C 641.674 -1.84297 1.02945 0
M  V30 6741 O 641.022 -2.28232 0.110573 0
M  V30 6742 C 641.232 -0.857984 3.38289 0
M  V30 6743 C 642.58 -1.20759 4.07066 0
M  V30 6744 O 643.604 -0.947992 3.43353 0
M  V30 6745 O 642.463 -1.69516 5.19545 0
M  V30 6746 H 639.557 -0.290082 0.774456 0
M  V30 6747 H 642.103 0.162008 1.68925 0
M  V30 6748 H 640.875 0.0415286 3.91278 0
M  V30 6749 H 640.498 -1.64803 3.61837 0
M  V30 6750 N 641.495 -1.56914 -0.146875 0
M  V30 6751 C 642.458 -1.97368 -1.16526 0
M  V30 6752 C 643.458 -0.860223 -1.35856 0
M  V30 6753 O 644.648 -1.12684 -1.32846 0
M  V30 6754 C 641.78 -2.28974 -2.52555 0
M  V30 6755 H 642.973 -2.88523 -0.818209 0
M  V30 6756 H 640.526 -1.5135 -0.390221 0
M  V30 6757 H 641.261 -1.40611 -2.92231 0
M  V30 6758 H 641.046 -3.10157 -2.39886 0
M  V30 6759 H 642.536 -2.61109 -3.25902 0
M  V30 6760 N 642.974 0.416227 -1.52004 0
M  V30 6761 C 643.904 1.51365 -1.77795 0
M  V30 6762 C 644.885 1.58059 -0.628601 0
M  V30 6763 O 646.07 1.73447 -0.873478 0
M  V30 6764 C 643.2 2.89256 -1.92219 0
M  V30 6765 C 642.154 2.97415 -3.0778 0
M  V30 6766 C 641.48 4.37492 -3.07417 0
M  V30 6767 C 642.78 2.69551 -4.47369 0
M  V30 6768 H 644.474 1.30033 -2.69688 0
M  V30 6769 H 642.02 0.624112 -1.29772 0
M  V30 6770 H 643.973 3.66008 -2.08845 0
M  V30 6771 H 642.697 3.11866 -0.969917 0
M  V30 6772 H 641.356 2.23107 -2.90893 0
M  V30 6773 H 641.004 4.571 -2.09925 0
M  V30 6774 H 640.704 4.43877 -3.85029 0
M  V30 6775 H 642.228 5.16188 -3.26162 0
M  V30 6776 H 643.642 3.36028 -4.64497 0
M  V30 6777 H 642.039 2.87321 -5.26846 0
M  V30 6778 H 643.109 1.65029 -4.55953 0
M  V30 6779 N 644.452 1.42507 0.673017 0
M  V30 6780 C 645.677 1.4668 1.46627 0
M  V30 6781 C 646.102 0.080066 1.8793 0
M  V30 6782 O 645.46 -0.921879 1.56112 0
M  V30 6783 C 645.508 2.40091 2.69051 0
M  V30 6784 O 644.612 1.8735 3.67387 0
M  V30 6785 H 643.953 0.496908 0.44043 0
M  V30 6786 H 646.483 1.87215 0.825334 0
M  V30 6787 H 646.493 2.56731 3.17101 0
M  V30 6788 H 645.168 3.4084 2.3833 0
M  V30 6789 H 643.745 1.80274 3.26429 0
M  V30 6790 N 645.93 -0.909495 1.28709 0
M  V30 6791 C 646.877 -2.01245 1.13 0
M  V30 6792 C 647.847 -1.6608 0.0259684 0
M  V30 6793 O 649.032 -1.89835 0.191687 0
M  V30 6794 C 646.172 -3.35644 0.802315 0
M  V30 6795 C 645.285 -3.83653 1.98582 0
M  V30 6796 C 644.42 -5.06582 1.59837 0
M  V30 6797 C 643.459 -5.46934 2.74827 0
M  V30 6798 N 642.596 -6.61053 2.36546 0
M  V30 6799 H 647.436 -2.14013 2.0737 0
M  V30 6800 H 644.973 -1.0482 1.03205 0
M  V30 6801 H 646.931 -4.12963 0.593057 0
M  V30 6802 H 645.561 -3.22631 -0.104457 0
M  V30 6803 H 644.613 -3.02454 2.30708 0
M  V30 6804 H 645.925 -4.09515 2.84779 0
M  V30 6805 H 645.079 -5.91457 1.35143 0
M  V30 6806 H 643.818 -4.82537 0.707753 0
M  V30 6807 H 642.823 -4.60599 3.00215 0
M  V30 6808 H 644.048 -5.72965 3.64538 0
M  V30 6809 H 641.994 -6.3863 1.49959 0
M  V30 6810 H 641.911 -6.86662 3.16277 0
M  V30 6811 H 643.179 -7.49221 2.15146 0
M  V30 6812 N 647.408 -1.11026 -1.11852 0
M  V30 6813 C 648.355 -0.764662 -2.17765 0
M  V30 6814 C 649.325 0.261854 -1.64023 0
M  V30 6815 O 650.51 0.139748 -1.90288 0
M  V30 6816 C 647.65 -0.209317 -3.44465 0
M  V30 6817 C 646.763 -1.29187 -4.12231 0
M  V30 6818 C 645.898 -0.697523 -5.266 0
M  V30 6819 C 644.937 -1.76023 -5.86244 0
M  V30 6820 N 644.074 -1.18569 -6.92016 0
M  V30 6821 H 648.914 -1.67202 -2.46673 0
M  V30 6822 H 646.451 -0.835065 -1.21099 0
M  V30 6823 H 648.409 0.130599 -4.16996 0
M  V30 6824 H 647.039 0.661251 -3.15955 0
M  V30 6825 H 646.091 -1.74881 -3.37818 0
M  V30 6826 H 647.403 -2.09607 -4.52622 0
M  V30 6827 H 646.557 -0.307412 -6.05921 0
M  V30 6828 H 645.296 0.138044 -4.87505 0
M  V30 6829 H 644.301 -2.1597 -5.05606 0
M  V30 6830 H 645.526 -2.59875 -6.27409 0
M  V30 6831 H 643.472 -0.371695 -6.54946 0
M  V30 6832 H 643.389 -1.92666 -7.31038 0
M  V30 6833 H 644.657 -0.82233 -7.7515 0
M  V30 6834 N 648.886 1.2938 -0.899927 0
M  V30 6835 C 649.849 2.25983 -0.382677 0
M  V30 6836 C 650.849 1.53366 0.483259 0
M  V30 6837 O 652.039 1.71798 0.28828 0
M  V30 6838 C 649.171 3.37878 0.452915 0
M  V30 6839 H 650.364 2.73252 -1.23586 0
M  V30 6840 H 647.917 1.40825 -0.678088 0
M  V30 6841 H 648.652 2.95949 1.32608 0
M  V30 6842 H 648.437 3.91742 -0.167562 0
M  V30 6843 H 649.927 4.09746 0.806107 0
M  V30 6844 N 650.364 0.662433 1.43002 0
M  V30 6845 C 651.311 -0.0235324 2.30788 0
M  V30 6846 C 652.281 -0.805342 1.4527 0
M  V30 6847 O 653.466 -0.78009 1.74124 0
M  V30 6848 C 650.606 -0.977545 3.30965 0
M  V30 6849 C 649.719 -0.190865 4.31578 0
M  V30 6850 C 648.854 -1.13951 5.18834 0
M  V30 6851 C 647.893 -0.343796 6.11134 0
M  V30 6852 N 647.03 -1.2445 6.90982 0
M  V30 6853 H 651.87 0.730921 2.88897 0
M  V30 6854 H 649.407 0.372197 1.42313 0
M  V30 6855 H 651.365 -1.54437 3.87563 0
M  V30 6856 H 649.995 -1.69877 2.74484 0
M  V30 6857 H 649.047 0.492388 3.772 0
M  V30 6858 H 650.359 0.427464 4.96965 0
M  V30 6859 H 649.513 -1.77666 5.80103 0
M  V30 6860 H 648.252 -1.79174 4.53595 0
M  V30 6861 H 647.257 0.30665 5.48944 0
M  V30 6862 H 648.482 0.304161 6.78419 0
M  V30 6863 H 646.428 -1.88336 6.28383 0
M  V30 6864 H 646.345 -0.680959 7.52927 0
M  V30 6865 H 647.613 -1.86952 7.56749 0
M  V30 6866 N 651.842 -1.52309 0.404946 0
M  V30 6867 C 652.805 -2.25491 -0.410651 0
M  V30 6868 C 653.805 -1.27704 -0.977154 0
M  V30 6869 O 654.995 -1.51679 -0.856691 0
M  V30 6870 C 652.127 -3.02197 -1.57765 0
M  V30 6871 H 653.32 -2.99015 0.230277 0
M  V30 6872 H 650.873 -1.55506 0.157377 0
M  V30 6873 H 651.608 -2.33013 -2.25556 0
M  V30 6874 H 651.393 -3.73987 -1.17797 0
M  V30 6875 H 652.883 -3.57719 -2.15469 0
M  V30 6876 N 653.32 -0.135238 -1.57019 0
M  V30 6877 C 654.545 0.529343 -2.00531 0
M  V30 6878 C 654.97 1.58391 -1.01459 0
M  V30 6879 O 654.328 1.81296 0.0113986 0
M  V30 6880 C 654.376 1.11748 -3.42848 0
M  V30 6881 O 653.48 2.23267 -3.46736 0
M  V30 6882 H 652.821 0.130669 -0.651016 0
M  V30 6883 H 655.351 -0.228503 -2.0332 0
M  V30 6884 H 655.361 1.44905 -3.81401 0
M  V30 6885 H 654.036 0.345147 -4.14465 0
M  V30 6886 H 652.613 1.91428 -3.20015 0
M  V30 6887 N 654.798 1.5699 0.138552 0
M  V30 6888 C 656.026 1.87976 0.864437 0
M  V30 6889 C 656.441 0.724372 1.74351 0
M  V30 6890 O 655.798 -0.305575 1.79924 0
M  V30 6891 C 655.849 3.18276 1.71414 0
M  V30 6892 O 655.57 4.29365 0.870487 0
M  V30 6893 C 657.071 3.62834 2.54688 0
M  V30 6894 H 654.291 0.622878 0.249528 0
M  V30 6895 H 656.835 2.04094 0.128805 0
M  V30 6896 H 654.99 3.03886 2.40274 0
M  V30 6897 H 655.404 5.03924 1.45466 0
M  V30 6898 H 656.878 4.5682 3.0987 0
M  V30 6899 H 657.355 2.88533 3.31127 0
M  V30 6900 H 657.961 3.79946 1.91105 0
M  V30 6901 N 656.276 -0.40816 1.52223 0
M  V30 6902 C 657.522 -1.15673 1.66576 0
M  V30 6903 C 657.855 -1.90141 0.394996 0
M  V30 6904 O 657.13 -1.84798 -0.606613 0
M  V30 6905 C 657.413 -2.15042 2.88841 0
M  V30 6906 C 657.266 -1.44465 4.25969 0
M  V30 6907 C 658.585 -3.15699 3.0663 0
M  V30 6908 H 655.704 -0.41916 0.606196 0
M  V30 6909 H 658.346 -0.442348 1.84779 0
M  V30 6910 H 656.496 -2.75964 2.73452 0
M  V30 6911 H 658.168 -0.866544 4.53088 0
M  V30 6912 H 656.411 -0.746612 4.27327 0
M  V30 6913 H 657.082 -2.16976 5.07568 0
M  V30 6914 H 659.558 -2.64854 3.20923 0
M  V30 6915 H 658.434 -3.82491 3.9369 0
M  V30 6916 H 658.695 -3.83481 2.19987 0
M  V30 6917 N 657.755 -1.42862 -0.66545 0
M  V30 6918 C 659.032 -1.3431 -1.42197 0
M  V30 6919 C 659.412 0.0150265 -2.11095 0
M  V30 6920 O 658.76 1.03101 -2.03918 0
M  V30 6921 C 658.97 -2.51783 -2.41674 0
M  V30 6922 C 660.318 -2.94321 -3.0604 0
M  V30 6923 O 661.342 -2.51741 -2.52001 0
M  V30 6924 O 660.201 -3.68047 -4.03985 0
M  V30 6925 H 657.295 -0.530159 -0.634713 0
M  V30 6926 H 659.841 -1.54888 -0.693386 0
M  V30 6927 H 658.613 -3.42282 -1.89627 0
M  V30 6928 H 658.236 -2.33241 -3.22001 0
M  V30 6929 N 659.233 0.902656 -1.29189 0
M  V30 6930 C 660.163 2.02294 -1.16616 0
M  V30 6931 C 661.144 1.6999 -0.0611175 0
M  V30 6932 O 662.329 1.9271 -0.240072 0
M  V30 6933 C 659.459 3.37018 -0.83882 0
M  V30 6934 C 658.413 3.83522 -1.89986 0
M  V30 6935 C 657.739 5.15337 -1.42589 0
M  V30 6936 C 659.039 4.04169 -3.30824 0
M  V30 6937 H 660.733 2.13071 -2.10336 0
M  V30 6938 H 658.279 1.02378 -1.01266 0
M  V30 6939 H 660.232 4.14895 -0.737584 0
M  V30 6940 H 658.956 3.26325 0.134071 0
M  V30 6941 H 657.615 3.07859 -1.99043 0
M  V30 6942 H 657.263 5.01056 -0.441759 0
M  V30 6943 H 656.963 5.47423 -2.13547 0
M  V30 6944 H 658.487 5.95758 -1.3381 0
M  V30 6945 H 659.901 4.72537 -3.24626 0
M  V30 6946 H 658.298 4.47604 -3.99713 0
M  V30 6947 H 659.368 3.08604 -3.74021 0
M  V30 6948 N 660.711 1.11618 1.11262 0
M  V30 6949 C 662.122 0.881942 1.64556 0
M  V30 6950 C 662.473 -0.585442 1.87262 0
M  V30 6951 O 661.598 -1.44795 1.60821 0
M  V30 6952 C 662.193 1.59446 2.98935 0
M  V30 6953 C 660.752 1.40661 3.4913 0
M  V30 6954 C 659.899 1.63593 2.23903 0
M  V30 6955 H 662.85 1.27217 0.94877 0
M  V30 6956 H 662.871 1.04054 3.65996 0
M  V30 6957 H 662.383 2.66241 2.82378 0
M  V30 6958 H 660.484 0.360835 3.70849 0
M  V30 6959 H 660.597 2.15693 4.27801 0
M  V30 6960 H 658.961 1.05944 2.3162 0
M  V30 6961 H 659.744 2.71666 2.09886 0
M  V30 6962 N 662.189 -1.289 0.906776 0
M  V30 6963 C 663.438 -1.9455 0.532262 0
M  V30 6964 C 663.751 -1.72219 -0.927353 0
M  V30 6965 O 664.957 -2.32033 -1.40971 0
M  V30 6966 C 663.413 -3.48438 0.901041 0
M  V30 6967 C 663.021 -3.79558 2.37991 0
M  V30 6968 C 664.765 -4.20284 0.596777 0
M  V30 6969 C 662.672 -5.26723 2.68918 0
M  V30 6970 H 661.602 -0.728259 0.195333 0
M  V30 6971 H 664.253 -1.46519 1.10474 0
M  V30 6972 H 662.635 -3.95162 0.257419 0
M  V30 6973 H 663.809 -3.43668 3.06967 0
M  V30 6974 H 662.124 -3.20868 2.65391 0
M  V30 6975 H 664.721 -5.28612 0.8046 0
M  V30 6976 H 665.064 -4.13694 -0.465072 0
M  V30 6977 H 665.597 -3.79315 1.19855 0
M  V30 6978 H 662.336 -5.38384 3.73928 0
M  V30 6979 H 661.856 -5.63836 2.04571 0
M  V30 6980 H 663.535 -5.94391 2.55555 0
M  V30 6981 N 663.667 -0.670007 -1.42649 0
M  V30 6982 C 664.577 0.0114788 -2.34597 0
M  V30 6983 C 665.593 0.794055 -1.54825 0
M  V30 6984 O 666.769 0.737472 -1.87412 0
M  V30 6985 C 663.834 0.954436 -3.33304 0
M  V30 6986 C 662.895 0.166925 -4.28975 0
M  V30 6987 C 662.128 1.06497 -5.22967 0
M  V30 6988 O 662.351 2.30446 -5.21777 0
M  V30 6989 O 661.285 0.528347 -5.99577 0
M  V30 6990 H 665.111 -0.745794 -2.944 0
M  V30 6991 H 662.696 -0.430228 -1.43071 0
M  V30 6992 H 664.578 1.49589 -3.93956 0
M  V30 6993 H 663.253 1.69164 -2.7598 0
M  V30 6994 H 662.16 -0.418515 -3.71752 0
M  V30 6995 H 663.493 -0.531067 -4.89327 0
M  V30 6996 N 665.145 1.52092 -0.413018 0
M  V30 6997 C 666.37 2.06756 0.163338 0
M  V30 6998 C 666.795 1.28073 1.37764 0
M  V30 6999 O 666.153 0.312015 1.78595 0
M  V30 7000 C 666.201 3.57278 0.488322 0
M  V30 7001 O 665.305 3.80986 1.57871 0
M  V30 7002 H 664.646 0.663882 0.0125068 0
M  V30 7003 H 667.176 1.95988 -0.587339 0
M  V30 7004 H 667.186 4.01125 0.745836 0
M  V30 7005 H 665.861 4.13978 -0.399327 0
M  V30 7006 H 664.438 3.49017 1.31306 0
M  V30 7007 N 666.623 0.143563 1.56945 0
M  V30 7008 C 667.869 -0.50916 1.96304 0
M  V30 7009 C 668.202 -1.64741 1.0283 0
M  V30 7010 O 667.477 -1.94374 0.0700361 0
M  V30 7011 C 667.76 -1.0186 3.45393 0
M  V30 7012 C 667.613 0.117923 4.49645 0
M  V30 7013 C 668.932 -1.90151 3.96901 0
M  V30 7014 H 666.051 -0.183608 0.713763 0
M  V30 7015 H 668.693 0.224095 1.88674 0
M  V30 7016 H 666.843 -1.64345 3.52027 0
M  V30 7017 H 668.515 0.754145 4.55094 0
M  V30 7018 H 666.758 0.777568 4.26774 0
M  V30 7019 H 667.429 -0.280187 5.51288 0
M  V30 7020 H 669.905 -1.375 3.92725 0
M  V30 7021 H 668.781 -2.22707 5.0169 0
M  V30 7022 H 669.042 -2.83718 3.39052 0
M  V30 7023 N 668.101 -1.57061 -0.130224 0
M  V30 7024 C 669.326 -1.88802 -0.858409 0
M  V30 7025 C 669.751 -0.734353 -1.73173 0
M  V30 7026 O 669.109 0.315529 -1.78533 0
M  V30 7027 C 669.157 -3.19228 -1.67708 0
M  V30 7028 O 668.261 -3.04343 -2.78297 0
M  V30 7029 H 667.602 -0.619849 -0.238083 0
M  V30 7030 H 670.132 -2.04271 -0.115995 0
M  V30 7031 H 670.142 -3.51669 -2.06864 0
M  V30 7032 H 668.817 -4.02793 -1.0359 0
M  V30 7033 H 667.394 -2.83346 -2.42425 0
M  V30 7034 N 669.579 0.400081 -1.52437 0
M  V30 7035 C 670.509 1.4947 -1.7939 0
M  V30 7036 C 671.49 1.57383 -0.645329 0
M  V30 7037 O 672.675 1.72511 -0.891826 0
M  V30 7038 C 669.805 2.87201 -1.95276 0
M  V30 7039 C 668.759 2.94134 -3.10917 0
M  V30 7040 C 668.085 4.34207 -3.1204 0
M  V30 7041 C 669.385 2.64791 -4.50203 0
M  V30 7042 H 671.079 1.27165 -2.71052 0
M  V30 7043 H 668.625 0.610312 -1.30427 0
M  V30 7044 H 670.578 3.63772 -2.12715 0
M  V30 7045 H 669.302 3.10819 -1.00294 0
M  V30 7046 H 667.961 2.20009 -2.93243 0
M  V30 7047 H 667.609 4.54848 -2.14761 0
M  V30 7048 H 667.309 4.39768 -3.89715 0
M  V30 7049 H 668.833 5.127 -3.31619 0
M  V30 7050 H 670.247 3.31083 -4.68035 0
M  V30 7051 H 668.644 2.81717 -5.29864 0
M  V30 7052 H 669.714 1.60184 -4.57678 0
M  V30 7053 N 671.057 1.43213 0.657864 0
M  V30 7054 C 672.282 1.48227 1.45064 0
M  V30 7055 C 672.707 0.0999939 1.87834 0
M  V30 7056 O 672.065 -0.905269 1.57081 0
M  V30 7057 C 672.113 2.42931 2.6649 0
M  V30 7058 O 671.217 1.91237 3.6538 0
M  V30 7059 H 670.558 0.501551 0.435135 0
M  V30 7060 H 673.088 1.8808 0.805431 0
M  V30 7061 H 673.098 2.6008 3.1436 0
M  V30 7062 H 671.773 3.43348 2.34701 0
M  V30 7063 H 670.35 1.83726 3.24498 0
M  V30 7064 N 672.536 -0.895792 1.29666 0
M  V30 7065 C 673.466 -2.01673 1.17688 0
M  V30 7066 C 674.447 -1.69955 0.0701317 0
M  V30 7067 O 675.632 -1.9258 0.250289 0
M  V30 7068 C 672.762 -3.36568 0.856681 0
M  V30 7069 C 671.716 -3.82509 1.92017 0
M  V30 7070 C 671.042 -5.14574 1.4532 0
M  V30 7071 C 672.342 -4.02409 3.32963 0
M  V30 7072 H 674.036 -2.11953 2.11463 0
M  V30 7073 H 671.582 -1.01839 1.01807 0
M  V30 7074 H 673.535 -4.14498 0.759577 0
M  V30 7075 H 672.259 -3.26391 -0.116763 0
M  V30 7076 H 670.918 -3.068 2.00673 0
M  V30 7077 H 670.566 -5.00815 0.468325 0
M  V30 7078 H 670.266 -5.46283 2.16447 0
M  V30 7079 H 671.79 -5.9504 1.36968 0
M  V30 7080 H 673.204 -4.70808 3.27127 0
M  V30 7081 H 671.601 -4.45478 4.02082 0
M  V30 7082 H 672.671 -3.06616 3.75652 0
M  V30 7083 N 674.014 -1.12206 -1.10668 0
M  V30 7084 C 674.946 -0.74552 -2.16736 0
M  V30 7085 C 675.959 0.226696 -1.61214 0
M  V30 7086 O 677.148 0.0083936 -1.78498 0
M  V30 7087 C 674.248 -0.0823368 -3.388 0
M  V30 7088 C 673.421 -1.08341 -4.2377 0
M  V30 7089 C 672.48 -0.448292 -5.24287 0
M  V30 7090 O 671.506 -1.10458 -5.58379 0
M  V30 7091 N 672.708 0.785336 -5.75163 0
M  V30 7092 H 675.473 -1.65818 -2.49649 0
M  V30 7093 H 673.034 -1.01335 -1.26265 0
M  V30 7094 H 675.026 0.354476 -4.03145 0
M  V30 7095 H 673.596 0.733041 -3.03884 0
M  V30 7096 H 672.816 -1.69792 -3.55759 0
M  V30 7097 H 674.104 -1.76042 -4.77375 0
M  V30 7098 H 673.502 1.33755 -5.4966 0
M  V30 7099 H 672.059 1.16501 -6.41304 0
M  V30 7100 N 675.492 1.28418 -0.913599 0
M  V30 7101 C 676.769 1.89977 -0.465619 0
M  V30 7102 C 677.149 1.82813 1.05559 0
M  V30 7103 O 676.497 1.26397 1.90358 0
M  V30 7104 C 676.707 3.34492 -0.995813 0
M  V30 7105 C 678.055 4.11468 -1.04782 0
M  V30 7106 O 679.079 3.43451 -0.944445 0
M  V30 7107 O 677.938 5.33046 -1.20518 0
M  V30 7108 H 675.032 0.813734 -0.147532 0
M  V30 7109 H 677.578 1.36786 -1.00437 0
M  V30 7110 H 676.35 3.33929 -2.03978 0
M  V30 7111 H 675.973 3.95181 -0.437878 0
M  V30 7112 N 676.97 0.677563 1.42291 0
M  V30 7113 C 677.9 0.014968 2.33495 0
M  V30 7114 C 678.881 -0.786376 1.50831 0
M  V30 7115 O 680.066 -0.742975 1.79426 0
M  V30 7116 C 677.196 -0.935023 3.34477 0
M  V30 7117 C 676.15 -0.242074 4.27315 0
M  V30 7118 C 675.476 -1.30519 5.18526 0
M  V30 7119 C 676.776 0.880604 5.14823 0
M  V30 7120 H 678.47 0.776671 2.89151 0
M  V30 7121 H 676.016 0.37494 1.39033 0
M  V30 7122 H 677.969 -1.40766 3.97194 0
M  V30 7123 H 676.693 -1.72818 2.77131 0
M  V30 7124 H 675.352 0.210351 3.65996 0
M  V30 7125 H 675 -2.09041 4.57505 0
M  V30 7126 H 674.7 -0.846652 5.81468 0
M  V30 7127 H 676.224 -1.7787 5.84119 0
M  V30 7128 H 677.638 0.489062 5.7121 0
M  V30 7129 H 676.035 1.26511 5.86613 0
M  V30 7130 H 677.105 1.72818 4.53059 0
M  V30 7131 N 678.448 -1.51871 0.421078 0
M  V30 7132 C 679.697 -2.01125 -0.152206 0
M  V30 7133 C 680.01 -1.3106 -1.45199 0
M  V30 7134 O 681.216 -1.71195 -2.10724 0
M  V30 7135 C 679.672 -3.58458 -0.3218 0
M  V30 7136 C 679.28 -4.37448 0.96659 0
M  V30 7137 C 681.024 -4.15908 -0.84973 0
M  V30 7138 C 678.931 -5.86451 0.763529 0
M  V30 7139 H 677.861 -0.751556 -0.0606565 0
M  V30 7140 H 680.512 -1.75115 0.548354 0
M  V30 7141 H 678.894 -3.80847 -1.08498 0
M  V30 7142 H 680.068 -4.26814 1.73684 0
M  V30 7143 H 678.383 -3.91373 1.42183 0
M  V30 7144 H 680.98 -5.24922 -1.01788 0
M  V30 7145 H 681.323 -3.74031 -1.82774 0
M  V30 7146 H 681.856 -3.97535 -0.145297 0
M  V30 7147 H 678.595 -6.3271 1.71344 0
M  V30 7148 H 678.115 -5.99791 0.0327889 0
M  V30 7149 H 679.794 -6.45697 0.410354 0
M  V30 7150 N 679.926 -0.151884 -1.56866 0
M  V30 7151 C 681.174 0.497021 -1.95893 0
M  V30 7152 C 681.495 1.65078 -1.03799 0
M  V30 7153 O 680.765 1.95642 -0.10049 0
M  V30 7154 H 679.345 0.186603 -0.723318 0
M  V30 7155 H 682.007 -0.228525 -1.93556 0
M  V30 7156 H 681.103 0.869933 -2.99731 0
M  V30 7157 N 681.404 1.57128 0.121893 0
M  V30 7158 C 682.634 1.88609 0.843227 0
M  V30 7159 C 683.042 0.740917 1.74089 0
M  V30 7160 O 682.385 -0.297426 1.81276 0
M  V30 7161 C 682.447 3.15073 1.73117 0
M  V30 7162 C 682.111 4.45742 1.0081 0
M  V30 7163 C 683.108 5.18719 0.350255 0
M  V30 7164 C 680.793 4.92444 0.99014 0
M  V30 7165 C 682.787 6.36617 -0.315889 0
M  V30 7166 C 680.474 6.10261 0.320196 0
M  V30 7167 C 681.472 6.82194 -0.331666 0
M  V30 7168 O 681.16 7.97769 -0.990927 0
M  V30 7169 H 680.892 0.628919 0.247865 0
M  V30 7170 H 683.446 2.05096 0.111725 0
M  V30 7171 H 681.676 2.9466 2.50424 0
M  V30 7172 H 683.365 3.32597 2.32667 0
M  V30 7173 H 684.131 4.83693 0.35577 0
M  V30 7174 H 680.01 4.36361 1.48695 0
M  V30 7175 H 683.554 6.92701 -0.825272 0
M  V30 7176 H 679.451 6.44743 0.312433 0
M  V30 7177 H 680.219 8.13591 -0.895113 0
M  V30 7178 N 682.882 -0.391992 1.52647 0
M  V30 7179 C 684.129 -1.13732 1.67545 0
M  V30 7180 C 684.457 -1.90045 0.413881 0
M  V30 7181 O 683.712 -1.86157 -0.603646 0
M  V30 7182 C 684.011 -2.14401 2.85949 0
M  V30 7183 C 683.677 -1.54767 4.23507 0
M  V30 7184 C 682.339 -1.38229 4.60919 0
M  V30 7185 C 684.691 -1.11382 5.0916 0
M  V30 7186 C 682.019 -0.7685 5.81645 0
M  V30 7187 C 684.371 -0.514143 6.30507 0
M  V30 7188 C 683.035 -0.33604 6.66654 0
M  V30 7189 H 682.305 -0.416174 0.613091 0
M  V30 7190 H 684.952 -0.422327 1.86785 0
M  V30 7191 H 683.257 -2.92108 2.61114 0
M  V30 7192 H 684.954 -2.71974 2.94671 0
M  V30 7193 H 681.544 -1.68626 3.94035 0
M  V30 7194 H 685.728 -1.22962 4.80826 0
M  V30 7195 H 680.984 -0.618681 6.08262 0
M  V30 7196 H 685.158 -0.169657 6.96193 0
M  V30 7197 H 682.785 0.14166 7.60068 0
M  V30 7198 N 684.36 -1.4356 -0.65026 0
M  V30 7199 C 685.31 -1.45392 -1.75628 0
M  V30 7200 C 686.294 -0.322006 -1.57645 0
M  V30 7201 O 687.486 -0.565996 -1.67707 0
M  V30 7202 C 684.615 -1.38254 -3.1423 0
M  V30 7203 C 683.701 -2.56487 -3.3775 0
M  V30 7204 N 684.092 -3.81824 -3.31729 0
M  V30 7205 C 682.39 -2.51274 -3.6848 0
M  V30 7206 C 683.091 -4.60497 -3.55412 0
M  V30 7207 N 682.067 -3.91274 -3.77367 0
M  V30 7208 H 685.869 -2.40167 -1.69402 0
M  V30 7209 H 683.383 -1.38254 -0.852037 0
M  V30 7210 H 685.38 -1.3765 -3.9352 0
M  V30 7211 H 684.04 -0.445019 -3.21636 0
M  V30 7212 H 685.051 -4.14069 -3.11074 0
M  V30 7213 H 681.728 -1.66223 -3.82983 0
M  V30 7214 H 683.118 -5.69518 -3.5651 0
M  V30 7215 N 685.838 0.888903 -1.30139 0
M  V30 7216 C 687.249 1.45578 -1.16893 0
M  V30 7217 C 687.6 1.94825 0.231866 0
M  V30 7218 O 686.725 1.84661 1.12824 0
M  V30 7219 C 687.32 2.646 -2.11595 0
M  V30 7220 C 685.879 3.17389 -2.02339 0
M  V30 7221 C 685.026 1.90081 -2.01902 0
M  V30 7222 H 687.977 0.69921 -1.42467 0
M  V30 7223 H 687.998 3.40687 -1.69449 0
M  V30 7224 H 687.51 2.28726 -3.13538 0
M  V30 7225 H 685.611 3.5793 -1.03523 0
M  V30 7226 H 685.724 3.80955 -2.90534 0
M  V30 7227 H 684.088 2.08246 -1.46648 0
M  V30 7228 H 684.871 1.5647 -3.05568 0
M  V30 7229 N 687.317 1.12792 1.10072 0
M  V30 7230 C 688.728 0.899346 1.63611 0
M  V30 7231 C 689.079 -0.565547 1.87872 0
M  V30 7232 O 688.204 -1.43081 1.62348 0
M  V30 7233 C 688.799 1.62608 2.97227 0
M  V30 7234 C 687.358 1.44356 3.47618 0
M  V30 7235 C 686.505 1.65958 2.22156 0
M  V30 7236 H 689.456 1.28216 0.935223 0
M  V30 7237 H 689.477 1.0793 3.64872 0
M  V30 7238 H 688.989 2.69221 2.79538 0
M  V30 7239 H 687.09 0.400148 3.70445 0
M  V30 7240 H 687.203 2.20218 4.25489 0
M  V30 7241 H 685.567 1.08395 2.30484 0
M  V30 7242 H 686.35 2.73877 2.06993 0
M  V30 7243 N 688.795 -1.27931 0.920396 0
M  V30 7244 C 690.072 -1.89728 0.475687 0
M  V30 7245 C 690.452 -1.8337 -1.04588 0
M  V30 7246 O 689.8 -1.27404 -1.89685 0
M  V30 7247 C 690.01 -3.33959 1.01354 0
M  V30 7248 C 691.358 -4.10907 1.06963 0
M  V30 7249 O 692.382 -3.42945 0.962646 0
M  V30 7250 O 691.241 -5.32399 1.23343 0
M  V30 7251 H 688.335 -0.81294 0.151845 0
M  V30 7252 H 690.881 -1.36252 1.01161 0
M  V30 7253 H 689.653 -3.32843 2.05746 0
M  V30 7254 H 689.276 -3.94944 0.458829 0
M  V30 7255 N 690.273 -0.685099 -1.4193 0
M  V30 7256 C 691.183 -0.013404 -2.34596 0
M  V30 7257 C 692.199 0.777589 -1.55658 0
M  V30 7258 O 693.375 0.717553 -1.88184 0
M  V30 7259 C 690.44 0.919031 -3.34297 0
M  V30 7260 C 689.501 0.121417 -4.29128 0
M  V30 7261 C 688.734 1.00944 -5.24067 0
M  V30 7262 O 688.957 2.24898 -5.24192 0
M  V30 7263 O 687.891 0.464724 -6.00103 0
M  V30 7264 H 691.717 -0.776978 -2.93593 0
M  V30 7265 H 689.302 -0.445379 -1.42607 0
M  V30 7266 H 691.184 1.45402 -3.9552 0
M  V30 7267 H 689.859 1.66228 -2.77759 0
M  V30 7268 H 688.766 -0.45792 -3.71287 0
M  V30 7269 H 690.099 -0.582937 -4.88736 0
M  V30 7270 N 691.751 1.51645 -0.429126 0
M  V30 7271 C 692.701 2.24388 0.404217 0
M  V30 7272 C 693.685 1.26294 0.996933 0
M  V30 7273 O 694.877 1.51428 0.916434 0
M  V30 7274 C 692.006 3.08338 1.50938 0
M  V30 7275 C 691.092 4.13857 0.926464 0
M  V30 7276 N 691.483 5.05749 0.0719732 0
M  V30 7277 C 689.781 4.29695 1.19491 0
M  V30 7278 C 690.482 5.81143 -0.254528 0
M  V30 7279 N 689.458 5.42408 0.359763 0
M  V30 7280 H 693.26 2.92794 -0.254697 0
M  V30 7281 H 690.774 1.60606 -0.240712 0
M  V30 7282 H 692.771 3.59022 2.11918 0
M  V30 7283 H 691.431 2.41475 2.17072 0
M  V30 7284 H 692.442 5.17066 -0.293854 0
M  V30 7285 H 689.119 3.74059 1.85434 0
M  V30 7286 H 690.509 6.65159 -0.949365 0
M  V30 7287 N 693.229 0.160201 1.56784 0
M  V30 7288 C 694.159 -0.770264 2.2043 0
M  V30 7289 C 695.14 -1.24736 1.15651 0
M  V30 7290 O 696.325 -1.30253 1.44041 0
M  V30 7291 C 693.455 -2.00427 2.83631 0
M  V30 7292 C 692.409 -1.66345 3.94352 0
M  V30 7293 C 691.735 -2.97119 4.4455 0
M  V30 7294 C 693.035 -0.899972 5.14488 0
M  V30 7295 H 694.729 -0.239783 2.98438 0
M  V30 7296 H 692.275 -0.113891 1.43549 0
M  V30 7297 H 694.228 -2.66012 3.26827 0
M  V30 7298 H 692.952 -2.5587 2.02973 0
M  V30 7299 H 691.611 -1.03133 3.51794 0
M  V30 7300 H 691.259 -3.5058 3.60698 0
M  V30 7301 H 690.959 -2.75073 5.19238 0
M  V30 7302 H 692.483 -3.63753 4.90425 0
M  V30 7303 H 693.897 -1.45818 5.54446 0
M  V30 7304 H 692.294 -0.778968 5.95023 0
M  V30 7305 H 693.364 0.105827 4.84785 0
M  V30 7306 N 694.707 -1.5719 -0.113559 0
M  V30 7307 C 695.617 -2.04041 -1.15777 0
M  V30 7308 C 696.633 -0.961812 -1.45001 0
M  V30 7309 O 697.809 -1.2737 -1.56009 0
M  V30 7310 C 694.874 -2.43994 -2.46308 0
M  V30 7311 C 693.935 -3.65962 -2.24433 0
M  V30 7312 C 693.168 -4.04 -3.4874 0
M  V30 7313 O 693.391 -3.42321 -4.56259 0
M  V30 7314 O 692.325 -4.97069 -3.3942 0
M  V30 7315 H 696.151 -2.93248 -0.789899 0
M  V30 7316 H 693.736 -1.45828 -0.324748 0
M  V30 7317 H 695.618 -2.70401 -3.23204 0
M  V30 7318 H 694.293 -1.57932 -2.82558 0
M  V30 7319 H 693.2 -3.44697 -1.45377 0
M  V30 7320 H 694.533 -4.52746 -1.93084 0
M  V30 7321 N 696.185 0.383891 -1.52853 0
M  V30 7322 C 697.135 1.46892 -1.74375 0
M  V30 7323 C 698.119 1.49378 -0.597909 0
M  V30 7324 O 699.311 1.54929 -0.855929 0
M  V30 7325 C 696.44 2.84547 -1.92063 0
M  V30 7326 C 695.526 2.8661 -3.12594 0
M  V30 7327 N 695.917 2.58339 -4.3485 0
M  V30 7328 C 694.215 3.17777 -3.12944 0
M  V30 7329 C 694.916 2.67616 -5.16485 0
M  V30 7330 N 693.892 3.01561 -4.52285 0
M  V30 7331 H 697.694 1.23869 -2.66522 0
M  V30 7332 H 695.208 0.591895 -1.51229 0
M  V30 7333 H 697.205 3.62674 -2.05604 0
M  V30 7334 H 695.865 3.08549 -1.01133 0
M  V30 7335 H 696.876 2.32266 -4.62896 0
M  V30 7336 H 693.553 3.47211 -2.31842 0
M  V30 7337 H 694.943 2.4926 -6.23955 0
M  V30 7338 N 697.663 1.43903 0.642637 0
M  V30 7339 C 698.573 1.52349 1.78401 0
M  V30 7340 C 699.589 0.409869 1.69104 0
M  V30 7341 O 700.765 0.665548 1.90085 0
M  V30 7342 C 697.83 1.45408 3.14734 0
M  V30 7343 C 696.891 2.67528 3.35749 0
M  V30 7344 C 696.124 2.60909 4.65577 0
M  V30 7345 O 696.347 1.6627 5.45628 0
M  V30 7346 O 695.281 3.5158 4.88544 0
M  V30 7347 H 699.107 2.48752 1.7423 0
M  V30 7348 H 696.692 1.26021 0.802439 0
M  V30 7349 H 698.574 1.44019 3.96026 0
M  V30 7350 H 697.249 0.521437 3.19473 0
M  V30 7351 H 696.156 2.74487 2.5418 0
M  V30 7352 H 697.489 3.598 3.35864 0
M  V30 7353 N 699.141 -0.881989 1.30609 0
M  V30 7354 C 700.418 -1.61563 1.10258 0
M  V30 7355 C 700.798 -2.08228 -0.347053 0
M  V30 7356 O 700.146 -1.85151 -1.33908 0
M  V30 7357 C 700.356 -2.78287 2.10612 0
M  V30 7358 C 701.704 -3.48545 2.4249 0
M  V30 7359 O 702.728 -2.88479 2.08945 0
M  V30 7360 O 701.587 -4.56873 2.99883 0
M  V30 7361 H 698.681 -0.710238 0.423663 0
M  V30 7362 H 701.227 -0.928503 1.42045 0
M  V30 7363 H 699.999 -2.41131 3.08174 0
M  V30 7364 H 699.622 -3.54695 1.79659 0
M  V30 7365 N 700.619 -1.13374 -1.09472 0
M  V30 7366 C 701.566 -0.810682 -2.16094 0
M  V30 7367 C 702.536 0.227003 -1.64541 0
M  V30 7368 O 703.721 0.0993538 -1.90541 0
M  V30 7369 C 700.861 -0.282336 -3.43943 0
M  V30 7370 C 699.974 -1.37902 -4.09398 0
M  V30 7371 C 699.109 -0.809066 -5.25002 0
M  V30 7372 C 698.148 -1.88419 -5.82379 0
M  V30 7373 N 697.285 -1.33221 -6.89345 0
M  V30 7374 H 702.125 -1.72397 -2.43071 0
M  V30 7375 H 699.662 -0.860564 -1.19301 0
M  V30 7376 H 701.62 0.0421189 -4.17179 0
M  V30 7377 H 700.25 0.594083 -3.17286 0
M  V30 7378 H 699.302 -1.82008 -3.34032 0
M  V30 7379 H 700.614 -2.19161 -4.48074 0
M  V30 7380 H 699.768 -0.435867 -6.05132 0
M  V30 7381 H 698.507 0.0346058 -4.87688 0
M  V30 7382 H 697.512 -2.26646 -5.00911 0
M  V30 7383 H 698.737 -2.73125 -6.21755 0
M  V30 7384 H 696.683 -0.510535 -6.5401 0
M  V30 7385 H 696.6 -2.08129 -7.26786 0
M  V30 7386 H 697.868 -0.986565 -7.73232 0
M  V30 7387 N 702.098 1.27442 -0.927168 0
M  V30 7388 C 703.03 2.25975 -0.383158 0
M  V30 7389 C 704.043 1.55382 0.485832 0
M  V30 7390 O 705.232 1.75986 0.298541 0
M  V30 7391 C 702.332 3.35629 0.469688 0
M  V30 7392 C 701.505 4.35747 -0.379886 0
M  V30 7393 C 700.564 5.24598 0.410227 0
M  V30 7394 O 699.59 5.68909 -0.181888 0
M  V30 7395 N 700.792 5.54737 1.71017 0
M  V30 7396 H 703.557 2.7329 -1.23015 0
M  V30 7397 H 701.118 1.41063 -0.794539 0
M  V30 7398 H 703.11 3.92015 1.00532 0
M  V30 7399 H 701.68 2.87919 1.21744 0
M  V30 7400 H 700.9 3.78634 -1.09682 0
M  V30 7401 H 702.188 4.99648 -0.960717 0
M  V30 7402 H 701.586 5.20594 2.21356 0
M  V30 7403 H 700.143 6.13824 2.19234 0
M  V30 7404 N 703.576 0.692616 1.41565 0
M  V30 7405 C 704.524 0.0139952 2.32596 0
M  V30 7406 C 705.518 -0.771691 1.50802 0
M  V30 7407 O 706.724 -0.677646 1.66757 0
M  V30 7408 H 703.099 -0.0142745 0.751865 0
M  V30 7409 H 705.07 0.798851 2.87508 0
M  V30 7410 C 703.819 -0.910602 3.35564 0
M  V30 7411 H 703.142 -0.315446 3.98554 0
M  V30 7412 H 704.582 -1.3538 4.01806 0
M  V30 7413 C 703.041 -2.02539 2.6922 0
M  V30 7414 O 703.571 -3.11386 2.53775 0
M  V30 7415 N 701.777 -1.80227 2.27962 0
M  V30 7416 H 701.324 -0.917054 2.40724 0
M  V30 7417 H 701.282 -2.55001 1.83907 0
M  V30 7418 N 705.054 -1.51416 0.437162 0
M  V30 7419 C 706.47 -1.59349 0.0894459 0
M  V30 7420 C 706.67 -1.44809 -1.40116 0
M  V30 7421 O 705.726 -1.28924 -2.17106 0
M  V30 7422 C 707.039 -2.9446 0.609398 0
M  V30 7423 C 708.587 -3.07769 0.569824 0
M  V30 7424 C 709.062 -4.45404 1.06675 0
M  V30 7425 N 710.553 -4.51723 1.02473 0
M  V30 7426 C 711.288 -5.56544 1.3801 0
M  V30 7427 N 710.784 -6.68784 1.80831 0
M  V30 7428 N 712.577 -5.46901 1.29828 0
M  V30 7429 H 704.728 -1.59112 1.40703 0
M  V30 7430 H 706.991 -0.750031 0.579791 0
M  V30 7431 H 706.697 -3.1047 1.65231 0
M  V30 7432 H 706.571 -3.77184 0.0342236 0
M  V30 7433 H 708.958 -2.91428 -0.464107 0
M  V30 7434 H 709.039 -2.26885 1.1814 0
M  V30 7435 H 708.683 -4.62492 2.09914 0
M  V30 7436 H 708.613 -5.24827 0.431712 0
M  V30 7437 H 711.104 -3.71165 0.710258 0
M  V30 7438 H 711.417 -7.44787 2.06185 0
M  V30 7439 H 709.762 -6.69992 1.84757 0
M  V30 7440 H 712.953 -4.581 0.962397 0
M  V30 7441 H 713.126 -6.2848 1.57851 0
M  V30 7442 N 706.532 -0.168513 -1.56696 0
M  V30 7443 C 707.462 0.758563 -2.20835 0
M  V30 7444 C 708.443 1.24121 -1.1631 0
M  V30 7445 O 709.628 1.29487 -1.4473 0
M  V30 7446 C 706.758 1.9892 -2.8469 0
M  V30 7447 C 705.712 1.64252 -3.95228 0
M  V30 7448 C 705.038 2.94757 -4.46119 0
M  V30 7449 C 706.338 0.872675 -5.14958 0
M  V30 7450 H 708.032 0.223953 -2.98561 0
M  V30 7451 H 705.578 0.106277 -1.43607 0
M  V30 7452 H 707.531 2.64275 -3.28233 0
M  V30 7453 H 706.255 2.5479 -2.04327 0
M  V30 7454 H 704.914 1.01266 -3.52336 0
M  V30 7455 H 704.562 3.48662 -3.62552 0
M  V30 7456 H 704.262 2.72316 -5.2069 0
M  V30 7457 H 705.786 3.61147 -4.92347 0
M  V30 7458 H 707.2 1.42875 -5.55211 0
M  V30 7459 H 705.597 0.747402 -5.95428 0
M  V30 7460 H 706.667 -0.131535 -4.84722 0
M  V30 7461 N 708.01 1.57248 0.105221 0
M  V30 7462 C 709.426 1.52853 0.459153 0
M  V30 7463 C 709.626 0.883674 1.8109 0
M  V30 7464 O 708.682 0.471864 2.48052 0
M  V30 7465 C 709.995 2.97596 0.43096 0
M  V30 7466 C 711.543 3.08758 0.513536 0
M  V30 7467 C 712.018 4.55089 0.515593 0
M  V30 7468 N 713.509 4.59597 0.576639 0
M  V30 7469 C 714.244 5.70253 0.599904 0
M  V30 7470 N 713.74 6.90368 0.579985 0
M  V30 7471 N 715.533 5.58399 0.643953 0
M  V30 7472 H 707.684 1.97547 -0.780306 0
M  V30 7473 H 709.947 0.902758 -0.289363 0
M  V30 7474 H 709.653 3.48201 -0.494903 0
M  V30 7475 H 709.527 3.55756 1.2537 0
M  V30 7476 H 711.914 2.58148 1.42982 0
M  V30 7477 H 711.995 2.53568 -0.337148 0
M  V30 7478 H 711.639 5.06348 -0.396701 0
M  V30 7479 H 711.569 5.08105 1.38335 0
M  V30 7480 H 714.06 3.73144 0.597639 0
M  V30 7481 H 714.373 7.70462 0.600741 0
M  V30 7482 H 712.718 6.92843 0.547191 0
M  V30 7483 H 715.909 4.63467 0.656975 0
M  V30 7484 H 716.082 6.44644 0.658616 0
M  V30 7485 N 709.488 -0.375779 1.53054 0
M  V30 7486 C 710.451 -1.44254 1.7811 0
M  V30 7487 C 711.451 -1.47018 0.651328 0
M  V30 7488 O 712.641 -1.47957 0.919472 0
M  V30 7489 C 709.773 -2.8345 1.89391 0
M  V30 7490 H 710.966 -1.23316 2.73374 0
M  V30 7491 H 708.519 -0.608312 1.43977 0
M  V30 7492 H 709.254 -3.09716 0.961589 0
M  V30 7493 H 709.039 -2.82844 2.71555 0
M  V30 7494 H 710.529 -3.60722 2.10404 0
M  V30 7495 N 710.966 -1.44241 -0.634997 0
M  V30 7496 C 711.896 -1.53632 -1.7584 0
M  V30 7497 C 712.877 -0.389603 -1.65578 0
M  V30 7498 O 714.062 -0.609219 -1.84397 0
M  V30 7499 C 711.192 -1.47644 -3.14354 0
M  V30 7500 C 710.146 -2.60752 -3.394 0
M  V30 7501 C 709.472 -2.39817 -4.77904 0
M  V30 7502 C 710.772 -4.02921 -3.32343 0
M  V30 7503 H 712.466 -2.47662 -1.68238 0
M  V30 7504 H 710.012 -1.19197 -0.807969 0
M  V30 7505 H 711.965 -1.52815 -3.92716 0
M  V30 7506 H 710.689 -0.501284 -3.2273 0
M  V30 7507 H 709.348 -2.54965 -2.63417 0
M  V30 7508 H 708.996 -1.40502 -4.82978 0
M  V30 7509 H 708.696 -3.15649 -4.9562 0
M  V30 7510 H 710.22 -2.46799 -5.585 0
M  V30 7511 H 711.634 -4.10098 -4.00615 0
M  V30 7512 H 710.031 -4.78925 -3.61595 0
M  V30 7513 H 711.101 -4.26766 -2.30215 0
M  V30 7514 N 712.444 0.87505 -1.31075 0
M  V30 7515 C 713.391 1.98178 -1.18296 0
M  V30 7516 C 714.361 1.65952 -0.0699923 0
M  V30 7517 O 715.546 1.8926 -0.241951 0
M  V30 7518 C 712.686 3.33399 -0.891024 0
M  V30 7519 C 711.799 3.78253 -2.08684 0
M  V30 7520 C 710.934 5.02166 -1.73212 0
M  V30 7521 C 709.973 5.39455 -2.89231 0
M  V30 7522 N 709.11 6.54549 -2.53989 0
M  V30 7523 H 713.95 2.0844 -2.12971 0
M  V30 7524 H 711.487 1.02047 -1.05948 0
M  V30 7525 H 713.445 4.11246 -0.702338 0
M  V30 7526 H 712.075 3.22794 0.0188799 0
M  V30 7527 H 711.127 2.9623 -2.38646 0
M  V30 7528 H 712.439 4.01821 -2.95536 0
M  V30 7529 H 711.593 5.87666 -1.50777 0
M  V30 7530 H 710.332 4.80491 -0.83544 0
M  V30 7531 H 709.337 4.52477 -3.12321 0
M  V30 7532 H 710.562 5.63098 -3.79601 0
M  V30 7533 H 708.508 6.3443 -1.66838 0
M  V30 7534 H 708.425 6.78035 -3.34372 0
M  V30 7535 H 709.693 7.43254 -2.34934 0
M  V30 7536 N 713.922 1.13953 1.08869 0
M  V30 7537 C 714.87 0.817664 2.17754 0
M  V30 7538 C 715.864 -0.202444 1.68186 0
M  V30 7539 O 717.07 -0.0590159 1.79903 0
M  V30 7540 H 713.445 0.246671 0.710392 0
M  V30 7541 H 715.416 1.74401 2.4213 0
M  V30 7542 C 714.165 0.3063 3.46348 0
M  V30 7543 H 713.488 1.08259 3.84864 0
M  V30 7544 H 714.928 0.119584 4.23831 0
M  V30 7545 C 713.387 -0.969158 3.22659 0
M  V30 7546 O 713.917 -2.04386 3.45817 0
M  V30 7547 N 712.123 -0.902516 2.7623 0
M  V30 7548 H 711.67 -0.027801 2.57585 0
M  V30 7549 H 711.628 -1.75649 2.60758 0
M  V30 7550 N 715.4 -1.26948 0.933913 0
M  V30 7551 C 716.816 -1.46419 0.635103 0
M  V30 7552 C 717.016 -1.84336 -0.813785 0
M  V30 7553 O 716.072 -1.96061 -1.59111 0
M  V30 7554 C 717.385 -2.55206 1.5903 0
M  V30 7555 C 718.933 -2.69062 1.5992 0
M  V30 7556 C 719.408 -3.81013 2.54152 0
M  V30 7557 N 720.899 -3.88395 2.52395 0
M  V30 7558 C 721.634 -4.74454 3.21996 0
M  V30 7559 N 721.13 -5.64954 4.00997 0
M  V30 7560 N 722.923 -4.68237 3.10983 0
M  V30 7561 H 715.074 -1.00622 1.87053 0
M  V30 7562 H 717.337 -0.503189 0.803433 0
M  V30 7563 H 717.043 -2.34153 2.62422 0
M  V30 7564 H 716.917 -3.52719 1.33677 0
M  V30 7565 H 719.304 -2.89492 0.572569 0
M  V30 7566 H 719.385 -1.72016 1.89325 0
M  V30 7567 H 719.029 -3.61336 3.5693 0
M  V30 7568 H 718.959 -4.77499 2.22041 0
M  V30 7569 H 721.45 -3.23687 1.95025 0
M  V30 7570 H 721.763 -6.27496 4.51074 0
M  V30 7571 H 720.108 -5.6473 4.05099 0
M  V30 7572 H 723.299 -3.96535 2.48753 0
M  V30 7573 H 723.472 -5.35087 3.65494 0
M  V30 7574 N 716.879 -0.700114 -1.41195 0
M  V30 7575 C 717.811 0.00155823 -2.292 0
M  V30 7576 C 718.824 0.739736 -1.45023 0
M  V30 7577 O 720.013 0.589684 -1.68478 0
M  V30 7578 C 717.113 1.02635 -3.22985 0
M  V30 7579 C 716.286 0.356871 -4.35942 0
M  V30 7580 C 715.345 1.28491 -5.10271 0
M  V30 7581 O 714.371 0.775562 -5.63892 0
M  V30 7582 N 715.573 2.61699 -5.18164 0
M  V30 7583 H 718.338 -0.754008 -2.9006 0
M  V30 7584 H 715.899 -0.546504 -1.52397 0
M  V30 7585 H 717.891 1.64902 -3.6958 0
M  V30 7586 H 716.461 1.68341 -2.63401 0
M  V30 7587 H 715.681 -0.445753 -3.91672 0
M  V30 7588 H 716.969 -0.108469 -5.08684 0
M  V30 7589 H 716.367 3.05594 -4.76056 0
M  V30 7590 H 714.924 3.19149 -5.6832 0
M  V30 7591 N 718.357 1.51182 -0.445186 0
M  V30 7592 C 719.305 2.29531 0.376597 0
M  V30 7593 C 720.299 1.35711 1.01385 0
M  V30 7594 O 721.505 1.53018 0.947922 0
M  V30 7595 H 717.88 0.738803 0.140267 0
M  V30 7596 H 719.851 2.96838 -0.304958 0
M  V30 7597 C 718.6 3.1552 1.4609 0
M  V30 7598 H 717.923 3.87605 0.979912 0
M  V30 7599 H 719.363 3.73384 2.009 0
M  V30 7600 C 717.822 2.31406 2.44852 0
M  V30 7601 O 718.352 1.97912 3.49562 0
M  V30 7602 N 716.558 1.94478 2.15932 0
M  V30 7603 H 716.105 2.21917 1.30808 0
M  V30 7604 H 716.063 1.38498 2.82251 0
M  V30 7605 N 719.835 0.176821 1.56605 0
M  V30 7606 C 720.765 -0.746841 2.21234 0
M  V30 7607 C 721.746 -1.23502 1.16967 0
M  V30 7608 O 722.931 -1.28718 1.45414 0
M  V30 7609 C 720.061 -1.97407 2.8574 0
M  V30 7610 C 719.015 -1.62153 3.96094 0
M  V30 7611 C 718.341 -2.92387 4.47676 0
M  V30 7612 C 719.641 -0.845353 5.15413 0
M  V30 7613 H 721.335 -0.208116 2.98676 0
M  V30 7614 H 718.881 -0.0986594 1.43662 0
M  V30 7615 H 720.834 -2.62531 3.2963 0
M  V30 7616 H 719.558 -2.53703 2.05676 0
M  V30 7617 H 718.217 -0.993964 3.52868 0
M  V30 7618 H 717.865 -3.46734 3.64396 0
M  V30 7619 H 717.565 -2.69551 5.22127 0
M  V30 7620 H 719.089 -3.5853 4.94255 0
M  V30 7621 H 720.503 -1.39929 5.55961 0
M  V30 7622 H 718.9 -0.715814 5.95815 0
M  V30 7623 H 719.97 0.157239 4.84645 0
M  V30 7624 N 721.313 -1.57302 -0.09688 0
M  V30 7625 C 722.56 -1.85997 -0.800699 0
M  V30 7626 C 722.888 -0.765089 -1.7882 0
M  V30 7627 O 722.143 0.241492 -1.94204 0
M  V30 7628 C 722.442 -3.21272 -1.56586 0
M  V30 7629 C 722.108 -4.45104 -0.72064 0
M  V30 7630 C 720.77 -4.78723 -0.487632 0
M  V30 7631 C 723.122 -5.2103 -0.132948 0
M  V30 7632 C 720.45 -5.85697 0.34296 0
M  V30 7633 C 722.802 -6.28881 0.684957 0
M  V30 7634 C 721.466 -6.61017 0.928073 0
M  V30 7635 H 720.736 -0.680613 -0.292997 0
M  V30 7636 H 723.383 -1.91399 -0.0622474 0
M  V30 7637 H 721.688 -3.11547 -2.37583 0
M  V30 7638 H 723.385 -3.40702 -2.11478 0
M  V30 7639 H 719.975 -4.18777 -0.912359 0
M  V30 7640 H 724.159 -4.95392 -0.300132 0
M  V30 7641 H 719.415 -6.09008 0.540317 0
M  V30 7642 H 723.589 -6.86886 1.14721 0
M  V30 7643 H 721.216 -7.43738 1.57348 0
M  V30 7644 N 722.791 0.367657 -1.53252 0
M  V30 7645 C 723.723 1.47032 -1.75824 0
M  V30 7646 C 724.736 1.49736 -0.63898 0
M  V30 7647 O 725.925 1.53253 -0.915193 0
M  V30 7648 C 723.025 2.85805 -1.82122 0
M  V30 7649 C 722.198 3.06822 -3.11736 0
M  V30 7650 C 721.257 4.25698 -3.09302 0
M  V30 7651 O 720.283 4.20972 -3.83107 0
M  V30 7652 N 721.485 5.33002 -2.29977 0
M  V30 7653 H 724.25 1.28048 -2.70968 0
M  V30 7654 H 721.811 0.557363 -1.52004 0
M  V30 7655 H 723.803 3.63465 -1.77975 0
M  V30 7656 H 722.373 2.98046 -0.942716 0
M  V30 7657 H 721.593 2.1684 -3.29202 0
M  V30 7658 H 722.881 3.17731 -3.97397 0
M  V30 7659 H 722.279 5.39703 -1.69521 0
M  V30 7660 H 720.836 6.09247 -2.3165 0
M  V30 7661 N 724.269 1.44576 0.627338 0
M  V30 7662 C 725.179 1.54232 1.76776 0
M  V30 7663 C 726.195 0.427782 1.6866 0
M  V30 7664 O 727.371 0.685671 1.89369 0
M  V30 7665 C 724.436 1.48738 3.13174 0
M  V30 7666 C 723.497 2.71074 3.32893 0
M  V30 7667 C 722.73 2.65832 4.62784 0
M  V30 7668 O 722.953 1.72048 5.43834 0
M  V30 7669 O 721.887 3.56742 4.84787 0
M  V30 7670 H 725.713 2.50586 1.71582 0
M  V30 7671 H 723.298 1.26865 0.789028 0
M  V30 7672 H 725.18 1.48211 3.94476 0
M  V30 7673 H 723.855 0.555292 3.18902 0
M  V30 7674 H 722.762 2.77168 2.51254 0
M  V30 7675 H 724.095 3.63342 3.32029 0
M  V30 7676 N 725.747 -0.868086 1.31537 0
M  V30 7677 C 726.657 -2.00801 1.21311 0
M  V30 7678 C 727.673 -1.73518 0.129431 0
M  V30 7679 O 728.849 -1.98378 0.347588 0
M  V30 7680 C 725.914 -3.3419 0.922935 0
M  V30 7681 C 724.975 -3.74783 2.0937 0
M  V30 7682 C 724.208 -5.01807 1.81728 0
M  V30 7683 O 724.431 -5.65404 0.753313 0
M  V30 7684 O 723.365 -5.39213 2.67457 0
M  V30 7685 H 727.191 -2.12361 2.17109 0
M  V30 7686 H 724.776 -0.996684 1.11295 0
M  V30 7687 H 726.658 -4.14174 0.777033 0
M  V30 7688 H 725.333 -3.237 -0.00500301 0
M  V30 7689 H 724.24 -2.95432 2.29501 0
M  V30 7690 H 725.573 -3.89902 3.00396 0
M  V30 7691 N 727.225 -1.14528 -1.08264 0
M  V30 7692 C 728.473 -0.912599 -1.80322 0
M  V30 7693 C 728.794 0.562256 -1.86718 0
M  V30 7694 O 728.064 1.40869 -1.36135 0
M  V30 7695 H 726.644 -0.334645 -0.667849 0
M  V30 7696 H 729.306 -1.44415 -1.30883 0
M  V30 7697 H 728.402 -1.31384 -2.83098 0
M  V30 7698 N 728.703 1.26451 -0.940633 0
M  V30 7699 C 729.636 2.24771 -0.394094 0
M  V30 7700 C 730.614 1.54169 0.516781 0
M  V30 7701 O 731.798 1.82942 0.454352 0
M  V30 7702 C 728.925 3.3591 0.433807 0
M  V30 7703 C 727.971 4.24472 -0.415464 0
M  V30 7704 S 728.804 5.0293 -1.83907 0
M  V30 7705 C 729.96 6.17546 -1.01921 0
M  V30 7706 H 730.193 2.70782 -1.22737 0
M  V30 7707 H 727.726 1.35308 -0.743709 0
M  V30 7708 H 729.684 4.00387 0.905576 0
M  V30 7709 H 728.345 2.88512 1.24175 0
M  V30 7710 H 727.538 5.03525 0.218833 0
M  V30 7711 H 727.14 3.64857 -0.821897 0
M  V30 7712 H 729.432 6.76996 -0.261227 0
M  V30 7713 H 730.375 6.8528 -1.78318 0
M  V30 7714 H 730.783 5.6176 -0.555511 0
M  V30 7715 N 730.181 0.707592 1.40822 0
M  V30 7716 C 731.43 0.240705 2.00259 0
M  V30 7717 C 731.743 -1.17027 1.56729 0
M  V30 7718 O 732.949 -1.73526 2.08809 0
M  V30 7719 C 731.405 0.379432 3.57894 0
M  V30 7720 C 731.013 1.79654 4.104 0
M  V30 7721 C 732.757 -0.0270684 4.24491 0
M  V30 7722 C 730.664 1.88628 5.60512 0
M  V30 7723 H 729.594 0.0862369 0.749052 0
M  V30 7724 H 732.245 0.877528 1.61157 0
M  V30 7725 H 730.627 -0.325842 3.94657 0
M  V30 7726 H 731.801 2.53155 3.85032 0
M  V30 7727 H 730.116 2.15379 3.56372 0
M  V30 7728 H 732.713 0.0193743 5.34696 0
M  V30 7729 H 733.056 -1.06772 4.02375 0
M  V30 7730 H 733.589 0.628361 3.92806 0
M  V30 7731 H 730.328 2.90787 5.87472 0
M  V30 7732 H 729.848 1.19528 5.8777 0
M  V30 7733 H 731.527 1.6547 6.25483 0
M  V30 7734 N 731.66 -1.50943 0.453197 0
M  V30 7735 C 732.608 -2.29728 -0.364419 0
M  V30 7736 C 733.602 -1.36246 -1.00664 0
M  V30 7737 O 734.808 -1.53518 -0.939794 0
M  V30 7738 H 731.183 -0.739536 -0.136347 0
M  V30 7739 H 733.154 -2.96672 0.320696 0
M  V30 7740 C 731.903 -3.1629 -1.44415 0
M  V30 7741 H 731.226 -3.88119 -0.959343 0
M  V30 7742 H 732.666 -3.74444 -1.98917 0
M  V30 7743 C 731.125 -2.32702 -2.43622 0
M  V30 7744 O 731.655 -1.99763 -3.48508 0
M  V30 7745 N 729.861 -1.95621 -2.14897 0
M  V30 7746 H 729.408 -2.22607 -1.29629 0
M  V30 7747 H 729.366 -1.39993 -2.81513 0
M  V30 7748 N 733.138 -0.185124 -1.56509 0
M  V30 7749 C 734.068 0.735098 -2.21627 0
M  V30 7750 C 735.049 1.2288 -1.1762 0
M  V30 7751 O 736.234 1.27945 -1.46095 0
M  V30 7752 C 733.364 1.95889 -2.86783 0
M  V30 7753 C 732.318 1.6005 -3.96948 0
M  V30 7754 C 731.644 2.90009 -4.4922 0
M  V30 7755 C 732.944 0.818008 -5.15855 0
M  V30 7756 H 734.638 0.192274 -2.98782 0
M  V30 7757 H 732.184 0.0910393 -1.43712 0
M  V30 7758 H 734.137 2.60779 -3.31017 0
M  V30 7759 H 732.861 2.52608 -2.07018 0
M  V30 7760 H 731.52 0.975237 -3.5339 0
M  V30 7761 H 731.168 3.44797 -3.6623 0
M  V30 7762 H 730.868 2.66778 -5.23549 0
M  V30 7763 H 732.392 3.55904 -4.9615 0
M  V30 7764 H 733.806 1.36979 -5.56695 0
M  V30 7765 H 732.203 0.684207 -5.96187 0
M  V30 7766 H 733.273 -0.182939 -4.84555 0
M  V30 7767 N 734.616 1.57351 0.0885366 0
M  V30 7768 C 735.862 1.86696 0.791996 0
M  V30 7769 C 736.195 0.775148 1.78059 0
M  V30 7770 O 735.47 -0.216247 1.93294 0
M  V30 7771 C 735.753 3.26684 1.51491 0
M  V30 7772 C 735.606 4.465 0.543858 0
M  V30 7773 C 736.925 3.64664 2.46391 0
M  V30 7774 H 734.044 0.679049 0.286463 0
M  V30 7775 H 736.686 1.89919 0.0554866 0
M  V30 7776 H 734.836 3.24067 2.14273 0
M  V30 7777 H 736.508 4.61235 -0.0774597 0
M  V30 7778 H 734.751 4.33567 -0.142228 0
M  V30 7779 H 735.422 5.41192 1.08696 0
M  V30 7780 H 737.898 3.68267 1.93698 0
M  V30 7781 H 736.774 4.63534 2.93986 0
M  V30 7782 H 737.035 2.93698 3.30445 0
M  V30 7783 N 736.094 -0.359525 1.53444 0
M  V30 7784 C 737.024 -1.44662 1.8329 0
M  V30 7785 C 738.005 -1.55617 0.68683 0
M  V30 7786 O 739.19 -1.70086 0.93725 0
M  V30 7787 C 736.32 -2.81923 2.02822 0
M  V30 7788 C 735.274 -2.85787 3.18606 0
M  V30 7789 C 734.6 -4.25781 3.23442 0
M  V30 7790 C 735.9 -2.52762 4.57065 0
M  V30 7791 H 737.594 -1.19934 2.74329 0
M  V30 7792 H 735.14 -0.575517 1.31999 0
M  V30 7793 H 737.093 -3.58005 2.22285 0
M  V30 7794 H 735.817 -3.08051 1.085 0
M  V30 7795 H 734.476 -2.12157 2.98973 0
M  V30 7796 H 734.124 -4.48994 2.26745 0
M  V30 7797 H 733.824 -4.29281 4.01238 0
M  V30 7798 H 735.348 -5.03727 3.45096 0
M  V30 7799 H 736.762 -3.18557 4.76649 0
M  V30 7800 H 735.159 -2.67569 5.37147 0
M  V30 7801 H 736.229 -1.47993 4.61764 0
M  V30 7802 N 737.572 -1.44907 -0.619662 0
M  V30 7803 C 738.482 -1.55168 -1.75955 0
M  V30 7804 C 739.498 -0.43672 -1.6843 0
M  V30 7805 O 740.674 -0.695704 -1.89002 0
M  V30 7806 C 737.739 -1.50397 -3.12381 0
M  V30 7807 C 736.8 -2.72835 -3.31451 0
M  V30 7808 C 736.033 -2.68283 -4.61368 0
M  V30 7809 O 736.256 -1.74929 -5.42914 0
M  V30 7810 O 735.19 -3.59308 -4.82889 0
M  V30 7811 H 739.016 -2.51493 -1.7025 0
M  V30 7812 H 736.601 -1.27282 -0.782289 0
M  V30 7813 H 738.483 -1.50301 -3.93685 0
M  V30 7814 H 737.158 -0.572197 -3.18603 0
M  V30 7815 H 736.065 -2.78496 -2.49781 0
M  V30 7816 H 737.398 -3.65098 -3.30098 0
M  V30 7817 N 739.05 0.861098 -1.31996 0
M  V30 7818 C 740.29 1.62873 -1.23498 0
M  V30 7819 C 740.654 1.90938 0.201692 0
M  V30 7820 O 741.855 2.6565 0.410305 0
M  V30 7821 C 740.126 2.91759 -2.06426 0
M  V30 7822 S 741.685 3.82583 -2.14885 0
M  V30 7823 H 738.503 0.558726 -0.439712 0
M  V30 7824 H 741.105 1.02025 -1.66767 0
M  V30 7825 H 739.809 2.69077 -3.0988 0
M  V30 7826 H 739.34 3.57627 -1.6391 0
M  V30 7827 H 741.355 4.7904 -1.29364 0
M  V30 7828 N 740.528 1.15101 1.07655 0
M  V30 7829 C 741.777 0.918528 1.79572 0
M  V30 7830 C 742.09 -0.555922 1.87534 0
M  V30 7831 O 743.296 -0.905893 2.55941 0
M  V30 7832 C 741.752 1.59394 3.22679 0
M  V30 7833 C 741.36 3.1052 3.22927 0
M  V30 7834 C 743.104 1.44289 3.99225 0
M  V30 7835 C 741.011 3.70862 4.60668 0
M  V30 7836 H 739.941 0.340006 0.672987 0
M  V30 7837 H 742.592 1.38079 1.20857 0
M  V30 7838 H 740.974 1.05936 3.81567 0
M  V30 7839 H 742.148 3.70708 2.737 0
M  V30 7840 H 740.463 3.25351 2.59876 0
M  V30 7841 H 743.06 1.86766 5.01022 0
M  V30 7842 H 743.403 0.389975 4.14469 0
M  V30 7843 H 743.936 1.94826 3.46825 0
M  V30 7844 H 740.675 4.7604 4.50628 0
M  V30 7845 H 740.195 3.15456 5.10145 0
M  V30 7846 H 741.874 3.71607 5.29639 0
M  V30 7847 N 742.006 -1.2595 0.947325 0
M  V30 7848 C 743.283 -1.88676 0.515824 0
M  V30 7849 C 743.663 -1.85547 -1.00675 0
M  V30 7850 O 743.011 -1.31399 -1.8694 0
M  V30 7851 C 743.221 -3.31734 1.08415 0
M  V30 7852 C 744.569 -4.08545 1.15654 0
M  V30 7853 O 745.593 -3.40826 1.03517 0
M  V30 7854 O 744.452 -5.29663 1.34608 0
M  V30 7855 H 741.546 -0.809537 0.169055 0
M  V30 7856 H 744.092 -1.34075 1.04029 0
M  V30 7857 H 742.864 -3.28404 2.1276 0
M  V30 7858 H 742.487 -3.93882 0.542499 0
M  V30 7859 N 743.484 -0.715051 -1.40445 0
M  V30 7860 C 744.9 -0.388555 -1.54798 0
M  V30 7861 C 745.1 1.10271 -1.68649 0
M  V30 7862 O 744.156 1.88875 -1.67578 0
M  V30 7863 C 745.469 -1.15414 -2.77669 0
M  V30 7864 C 747.017 -1.14039 -2.91486 0
M  V30 7865 C 747.492 -1.88812 -4.1727 0
M  V30 7866 N 748.983 -1.85878 -4.24268 0
M  V30 7867 C 749.718 -2.40558 -5.20499 0
M  V30 7868 N 749.214 -3.03791 -6.22642 0
M  V30 7869 N 751.007 -2.30703 -5.12574 0
M  V30 7870 H 743.158 -1.68201 -1.297 0
M  V30 7871 H 745.421 -0.710915 -0.627139 0
M  V30 7872 H 745.127 -2.20853 -2.7371 0
M  V30 7873 H 745.001 -0.745412 -3.69761 0
M  V30 7874 H 747.388 -0.0941996 -2.9495 0
M  V30 7875 H 747.469 -1.58834 -2.00513 0
M  V30 7876 H 747.113 -2.93422 -4.14568 0
M  V30 7877 H 747.043 -1.41438 -5.0725 0
M  V30 7878 H 749.534 -1.39794 -3.51093 0
M  V30 7879 H 749.847 -3.43032 -6.92495 0
M  V30 7880 H 748.192 -3.07875 -6.23087 0
M  V30 7881 H 751.383 -1.80961 -4.31707 0
M  V30 7882 H 751.556 -2.73618 -5.87398 0
M  V30 7883 N 744.962 1.50701 -0.461195 0
M  V30 7884 C 745.892 2.31182 0.328184 0
M  V30 7885 C 746.873 1.37644 0.999408 0
M  V30 7886 O 748.058 1.66565 0.99848 0
M  V30 7887 C 745.188 3.17113 1.41621 0
M  V30 7888 C 744.142 4.19124 0.867148 0
M  V30 7889 C 743.468 4.93728 2.05272 0
M  V30 7890 C 744.768 5.22174 -0.114808 0
M  V30 7891 H 746.462 2.97423 -0.343501 0
M  V30 7892 H 744.008 1.43033 -0.166641 0
M  V30 7893 H 745.961 3.72208 1.97584 0
M  V30 7894 H 744.685 2.48739 2.11652 0
M  V30 7895 H 743.344 3.65116 0.329557 0
M  V30 7896 H 742.992 4.21835 2.73978 0
M  V30 7897 H 742.692 5.62724 1.69161 0
M  V30 7898 H 744.216 5.51654 2.61744 0
M  V30 7899 H 745.63 5.72198 0.355316 0
M  V30 7900 H 744.027 5.98833 -0.389689 0
M  V30 7901 H 745.097 4.7353 -1.04391 0
M  V30 7902 N 746.441 0.193421 1.56409 0
M  V30 7903 C 747.391 -0.74089 2.15627 0
M  V30 7904 C 748.375 -1.17747 1.09656 0
M  V30 7905 O 749.567 -1.13615 1.35723 0
M  V30 7906 C 746.696 -1.96091 2.81786 0
M  V30 7907 C 745.782 -1.54531 3.94944 0
M  V30 7908 N 746.173 -0.840569 4.98767 0
M  V30 7909 C 744.471 -1.83473 4.06514 0
M  V30 7910 C 745.172 -0.632571 5.7825 0
M  V30 7911 N 744.148 -1.18078 5.30621 0
M  V30 7912 H 747.95 -0.193718 2.93261 0
M  V30 7913 H 745.464 -0.00643211 1.62399 0
M  V30 7914 H 747.461 -2.64071 3.22602 0
M  V30 7915 H 746.121 -2.51282 2.05639 0
M  V30 7916 H 747.132 -0.496218 5.15517 0
M  V30 7917 H 743.809 -2.40184 3.41493 0
M  V30 7918 H 745.199 -0.0736433 6.7186 0
M  V30 7919 N 747.919 -1.57396 -0.0801906 0
M  V30 7920 C 749.165 -1.87113 -0.782083 0
M  V30 7921 C 749.498 -0.78458 -1.77646 0
M  V30 7922 O 748.773 0.205993 -1.93406 0
M  V30 7923 C 749.056 -3.27483 -1.49756 0
M  V30 7924 C 748.909 -4.46782 -0.520171 0
M  V30 7925 C 750.228 -3.65965 -2.44454 0
M  V30 7926 H 747.347 -0.680559 -0.282858 0
M  V30 7927 H 749.989 -1.89946 -0.0454139 0
M  V30 7928 H 748.139 -3.25199 -2.12551 0
M  V30 7929 H 749.811 -4.61187 0.101919 0
M  V30 7930 H 748.054 -4.33485 0.165219 0
M  V30 7931 H 748.725 -5.41761 -1.05824 0
M  V30 7932 H 751.201 -3.69289 -1.91742 0
M  V30 7933 H 750.077 -4.65086 -2.91524 0
M  V30 7934 H 750.338 -2.95446 -3.28883 0
M  V30 7935 N 749.397 0.351382 -1.53633 0
M  V30 7936 C 750.627 1.11113 -1.74176 0
M  V30 7937 C 751.035 1.83084 -0.477154 0
M  V30 7938 O 750.378 1.74941 0.560483 0
M  V30 7939 C 750.44 2.17521 -2.86225 0
M  V30 7940 C 750.104 1.65193 -4.26099 0
M  V30 7941 C 751.101 1.10842 -5.07947 0
M  V30 7942 C 748.786 1.70277 -4.72558 0
M  V30 7943 C 750.78 0.622689 -6.34351 0
M  V30 7944 C 748.467 1.21316 -5.98937 0
M  V30 7945 C 749.465 0.674033 -6.79666 0
M  V30 7946 O 749.153 0.191696 -8.03671 0
M  V30 7947 H 748.885 0.33756 -0.585687 0
M  V30 7948 H 751.439 0.411786 -2.0123 0
M  V30 7949 H 749.669 2.90991 -2.54678 0
M  V30 7950 H 751.358 2.78999 -2.94812 0
M  V30 7951 H 752.124 1.06243 -4.7322 0
M  V30 7952 H 748.003 2.11181 -4.09785 0
M  V30 7953 H 751.547 0.201216 -6.9731 0
M  V30 7954 H 747.444 1.25613 -6.3316 0
M  V30 7955 H 748.212 0.309712 -8.17914 0
M  V30 7956 N 750.875 1.45233 0.611969 0
M  V30 7957 C 752.1 1.52767 1.40274 0
M  V30 7958 C 752.525 0.159701 1.87421 0
M  V30 7959 O 751.883 -0.854837 1.59882 0
M  V30 7960 C 751.931 2.51286 2.58626 0
M  V30 7961 O 751.035 2.02764 3.59111 0
M  V30 7962 H 750.376 0.515141 0.418958 0
M  V30 7963 H 752.906 1.90547 0.745188 0
M  V30 7964 H 752.916 2.69949 3.05927 0
M  V30 7965 H 751.591 3.50641 2.23659 0
M  V30 7966 H 750.168 1.93957 3.18489 0
M  V30 7967 N 752.353 -0.854086 1.3245 0
M  V30 7968 C 753.578 -1.64597 1.26185 0
M  V30 7969 C 754.003 -1.87357 -0.167074 0
M  V30 7970 O 753.361 -1.42675 -1.11864 0
M  V30 7971 C 753.409 -2.98213 2.02734 0
M  V30 7972 O 752.513 -3.88784 1.37554 0
M  V30 7973 H 751.854 -0.50179 0.434859 0
M  V30 7974 H 754.384 -1.06372 1.74775 0
M  V30 7975 H 754.394 -3.4803 2.1293 0
M  V30 7976 H 753.069 -2.80969 3.06642 0
M  V30 7977 H 751.646 -3.4725 1.3591 0
M  V30 7978 N 753.831 -1.1567 -1.07043 0
M  V30 7979 C 754.794 -0.858906 -2.12498 0
M  V30 7980 C 755.794 0.142735 -1.60165 0
M  V30 7981 O 756.984 -0.0872678 -1.73981 0
M  V30 7982 C 754.116 -0.283021 -3.39723 0
M  V30 7983 H 755.309 -1.79368 -2.40348 0
M  V30 7984 H 752.862 -0.964608 -1.22984 0
M  V30 7985 H 753.597 0.659796 -3.17517 0
M  V30 7986 H 753.382 -1.00467 -3.7901 0
M  V30 7987 H 754.872 -0.0923543 -4.17498 0
M  V30 7988 N 755.309 1.25446 -0.953992 0
M  V30 7989 C 756.272 2.24156 -0.478179 0
M  V30 7990 C 757.272 1.55278 0.417776 0
M  V30 7991 O 758.462 1.72866 0.215155 0
M  V30 7992 C 755.594 3.39495 0.309202 0
M  V30 7993 H 756.787 2.67764 -1.35064 0
M  V30 7994 H 754.34 1.37822 -0.737206 0
M  V30 7995 H 755.075 3.01307 1.19936 0
M  V30 7996 H 754.86 3.90679 -0.333562 0
M  V30 7997 H 756.35 4.12796 0.631594 0
M  V30 7998 N 756.787 0.722489 1.40064 0
M  V30 7999 C 757.737 0.0506801 2.27944 0
M  V30 8000 C 758.721 -0.725493 1.43615 0
M  V30 8001 O 759.913 -0.596559 1.66644 0
M  V30 8002 C 757.042 -0.865195 3.32219 0
M  V30 8003 C 756.128 -0.0838393 4.24017 0
M  V30 8004 N 756.519 0.936516 4.97054 0
M  V30 8005 C 754.817 -0.315371 4.44884 0
M  V30 8006 C 755.518 1.4066 5.64437 0
M  V30 8007 N 754.494 0.727485 5.3871 0
M  V30 8008 H 758.296 0.832609 2.8186 0
M  V30 8009 H 755.81 0.555691 1.52597 0
M  V30 8010 H 757.807 -1.36186 3.94029 0
M  V30 8011 H 756.467 -1.64642 2.79862 0
M  V30 8012 H 757.478 1.31755 5.0086 0
M  V30 8013 H 754.155 -1.07238 4.03492 0
M  V30 8014 H 755.545 2.25482 6.32936 0
M  V30 8015 N 758.265 -1.50454 0.469181 0
M  V30 8016 C 759.512 -2.02315 -0.086469 0
M  V30 8017 C 759.84 -1.3513 -1.39893 0
M  V30 8018 O 759.095 -0.465341 -1.90087 0
M  V30 8019 C 759.394 -3.55963 -0.320207 0
M  V30 8020 C 759.06 -4.41615 0.910318 0
M  V30 8021 C 757.722 -4.64743 1.2477 0
M  V30 8022 C 760.074 -4.91661 1.72971 0
M  V30 8023 C 757.402 -5.35161 2.40457 0
M  V30 8024 C 759.754 -5.6335 2.87785 0
M  V30 8025 C 758.418 -5.84732 3.2194 0
M  V30 8026 H 757.688 -0.740324 -0.0316412 0
M  V30 8027 H 760.335 -1.81087 0.622872 0
M  V30 8028 H 758.64 -3.75695 -1.11177 0
M  V30 8029 H 760.337 -3.93653 -0.764071 0
M  V30 8030 H 756.927 -4.23833 0.637467 0
M  V30 8031 H 761.111 -4.73649 1.48224 0
M  V30 8032 H 756.367 -5.49924 2.67196 0
M  V30 8033 H 760.541 -6.0111 3.51624 0
M  V30 8034 H 758.168 -6.39074 4.1169 0
M  V30 8035 N 759.743 -0.201713 -1.56304 0
M  V30 8036 C 760.706 0.702811 -2.18159 0
M  V30 8037 C 761.706 1.13619 -1.13787 0
M  V30 8038 O 762.896 1.0482 -1.39134 0
M  V30 8039 C 760.028 1.96032 -2.78898 0
M  V30 8040 H 761.221 0.163836 -2.99452 0
M  V30 8041 H 758.774 0.04791 -1.56227 0
M  V30 8042 H 759.509 2.54165 -2.01421 0
M  V30 8043 H 759.294 1.65824 -3.55309 0
M  V30 8044 H 760.784 2.60519 -3.26373 0
M  V30 8045 N 761.222 1.57436 0.0718424 0
M  V30 8046 C 762.499 1.78312 0.804006 0
M  V30 8047 C 762.879 0.789273 1.9579 0
M  V30 8048 O 762.227 -0.177605 2.27809 0
M  V30 8049 C 762.437 3.24798 1.277 0
M  V30 8050 C 763.785 3.88627 1.71039 0
M  V30 8051 O 764.809 3.28689 1.37266 0
M  V30 8052 O 763.668 4.94073 2.33567 0
M  V30 8053 H 760.762 0.73178 0.385262 0
M  V30 8054 H 763.308 1.69621 0.0519219 0
M  V30 8055 H 762.08 3.88688 0.45134 0
M  V30 8056 H 761.703 3.38213 2.0904 0
M  V30 8057 N 762.7 -0.34323 1.53817 0
M  V30 8058 C 763.946 -1.08504 1.71332 0
M  V30 8059 C 764.279 -1.88294 0.475285 0
M  V30 8060 O 763.554 -1.87205 -0.527688 0
M  V30 8061 C 763.837 -2.02597 2.97702 0
M  V30 8062 C 763.69 -1.26268 4.31713 0
M  V30 8063 C 765.009 -3.0241 3.19744 0
M  V30 8064 H 762.128 -0.393072 0.623429 0
M  V30 8065 H 764.77 -0.363579 1.86489 0
M  V30 8066 H 762.92 -2.64118 2.8491 0
M  V30 8067 H 764.592 -0.673594 4.56356 0
M  V30 8068 H 762.835 -0.564696 4.30109 0
M  V30 8069 H 763.506 -1.95253 5.16314 0
M  V30 8070 H 765.982 -2.51004 3.31868 0
M  V30 8071 H 764.858 -3.65449 4.09558 0
M  V30 8072 H 765.119 -3.73806 2.36054 0
M  V30 8073 N 764.178 -1.45556 -0.604258 0
M  V30 8074 C 765.141 -1.54091 -1.69672 0
M  V30 8075 C 766.141 -0.420076 -1.55216 0
M  V30 8076 O 767.331 -0.683671 -1.60224 0
M  V30 8077 C 764.463 -1.44063 -3.08964 0
M  V30 8078 H 765.656 -2.51431 -1.6347 0
M  V30 8079 H 763.209 -1.33046 -0.820273 0
M  V30 8080 H 763.944 -0.479201 -3.2074 0
M  V30 8081 H 763.729 -2.25362 -3.20865 0
M  V30 8082 H 765.219 -1.53075 -3.88533 0
M  V30 8083 N 765.656 0.84705 -1.32902 0
M  V30 8084 C 766.904 1.5986 -1.2365 0
M  V30 8085 C 767.225 1.93974 0.199789 0
M  V30 8086 O 766.495 1.60273 1.12648 0
M  V30 8087 H 765.075 0.592696 -0.454665 0
M  V30 8088 H 767.737 1.01278 -1.66519 0
M  V30 8089 H 766.833 2.53218 -1.82448 0
M  V30 8090 N 767.134 1.16236 1.06428 0
M  V30 8091 C 768.55 0.906983 1.31324 0
M  V30 8092 C 768.75 -0.440872 1.96618 0
M  V30 8093 O 767.806 -1.1807 2.23194 0
M  V30 8094 C 769.119 2.05501 2.19522 0
M  V30 8095 C 770.667 2.09061 2.32943 0
M  V30 8096 C 771.142 3.23214 3.24495 0
M  V30 8097 N 772.633 3.22922 3.32078 0
M  V30 8098 C 773.368 4.07889 4.03006 0
M  V30 8099 N 772.864 5.02941 4.76469 0
M  V30 8100 N 774.657 3.95881 3.99043 0
M  V30 8101 H 766.808 2.03015 0.624388 0
M  V30 8102 H 769.071 0.88576 0.337835 0
M  V30 8103 H 768.777 3.02847 1.78819 0
M  V30 8104 H 768.651 1.99538 3.201 0
M  V30 8105 H 771.038 1.12308 2.72893 0
M  V30 8106 H 771.119 2.19089 1.32037 0
M  V30 8107 H 770.763 4.20225 2.85261 0
M  V30 8108 H 770.693 3.10423 4.25377 0
M  V30 8109 H 773.184 2.54093 2.79724 0
M  V30 8110 H 773.497 5.64196 5.28112 0
M  V30 8111 H 771.842 5.06922 4.75453 0
M  V30 8112 H 775.033 3.20927 3.40769 0
M  V30 8113 H 775.206 4.62321 4.54052 0
M  V30 8114 N 768.612 -1.24939 0.960631 0
M  V30 8115 C 769.522 -2.29374 0.492435 0
M  V30 8116 C 770.538 -1.68262 -0.443154 0
M  V30 8117 O 771.714 -1.98875 -0.31793 0
M  V30 8118 C 768.779 -3.46023 -0.216626 0
M  V30 8119 C 767.84 -4.22557 0.757915 0
M  V30 8120 C 767.073 -5.33636 0.0825969 0
M  V30 8121 O 767.296 -5.59084 -1.13054 0
M  V30 8122 O 766.23 -5.96939 0.771177 0
M  V30 8123 H 770.056 -2.71525 1.36044 0
M  V30 8124 H 767.641 -1.30499 0.72735 0
M  V30 8125 H 769.523 -4.16885 -0.615241 0
M  V30 8126 H 768.198 -3.05862 -1.05971 0
M  V30 8127 H 767.105 -3.54099 1.20685 0
M  V30 8128 H 768.438 -4.66516 1.5692 0
M  V30 8129 N 770.09 -0.729906 -1.39679 0
M  V30 8130 C 771.053 -0.0951668 -2.29002 0
M  V30 8131 C 772.053 0.672471 -1.46063 0
M  V30 8132 O 773.243 0.502245 -1.66803 0
M  V30 8133 C 770.375 0.874631 -3.29489 0
M  V30 8134 H 771.568 -0.882062 -2.86635 0
M  V30 8135 H 769.121 -0.495424 -1.4824 0
M  V30 8136 H 769.856 1.68807 -2.76902 0
M  V30 8137 H 769.641 0.326893 -3.90735 0
M  V30 8138 H 771.131 1.31548 -3.96339 0
M  V30 8139 N 771.568 1.50203 -0.477153 0
M  V30 8140 C 772.816 2.01959 0.0755889 0
M  V30 8141 C 773.137 1.3608 1.39668 0
M  V30 8142 O 772.407 0.508136 1.89195 0
M  V30 8143 H 770.987 0.74636 0.0309248 0
M  V30 8144 H 773.649 1.84473 -0.628959 0
M  V30 8145 H 772.745 3.11305 0.222683 0
M  V30 8146 N 773.046 0.209999 1.56195 0
M  V30 8147 C 773.956 -0.716459 2.23392 0
M  V30 8148 C 774.972 -1.22291 1.23778 0
M  V30 8149 O 776.148 -1.26694 1.56558 0
M  V30 8150 C 773.213 -1.91261 2.89172 0
M  V30 8151 C 772.274 -1.44927 4.04097 0
M  V30 8152 C 771.507 -2.5884 4.66731 0
M  V30 8153 O 771.73 -3.76693 4.2832 0
M  V30 8154 O 770.664 -2.30701 5.55932 0
M  V30 8155 H 774.49 -0.174089 3.03201 0
M  V30 8156 H 772.075 -0.0199505 1.49387 0
M  V30 8157 H 773.957 -2.6114 3.30733 0
M  V30 8158 H 772.632 -2.4433 2.12331 0
M  V30 8159 H 771.539 -0.718839 3.67129 0
M  V30 8160 H 772.872 -0.965084 4.82646 0
M  V30 8161 N 774.524 -1.57472 -0.0634922 0
M  V30 8162 C 775.749 -1.92273 -0.77756 0
M  V30 8163 C 776.174 -0.807141 -1.69902 0
M  V30 8164 O 775.532 0.239523 -1.79711 0
M  V30 8165 C 775.58 -3.26054 -1.54017 0
M  V30 8166 O 774.684 -3.15873 -2.65138 0
M  V30 8167 H 774.025 -0.629389 -0.211579 0
M  V30 8168 H 776.555 -2.04579 -0.0292523 0
M  V30 8169 H 776.565 -3.60127 -1.91763 0
M  V30 8170 H 775.24 -4.06824 -0.864128 0
M  V30 8171 H 773.817 -2.93373 -2.30189 0
M  V30 8172 N 776.003 0.335068 -1.53997 0
M  V30 8173 C 777.249 1.07222 -1.72844 0
M  V30 8174 C 777.604 1.86054 -0.490075 0
M  V30 8175 O 776.897 1.84481 0.517416 0
M  V30 8176 C 777.091 2.0364 -2.9371 0
M  V30 8177 C 776.92 1.34287 -4.29182 0
M  V30 8178 C 775.69 1.08417 -4.93532 0
M  V30 8179 C 777.888 0.764703 -5.08583 0
M  V30 8180 N 775.87 0.357342 -6.12859 0
M  V30 8181 C 777.241 0.168876 -6.1977 0
M  V30 8182 C 779.296 0.666383 -4.9342 0
M  V30 8183 C 777.999 -0.515716 -7.17449 0
M  V30 8184 C 780.025 -0.0044859 -5.914 0
M  V30 8185 C 779.387 -0.589305 -7.01931 0
M  V30 8186 H 775.486 0.376448 -0.685427 0
M  V30 8187 H 778.07 0.354778 -1.9144 0
M  V30 8188 H 776.241 2.72668 -2.76599 0
M  V30 8189 H 777.973 2.70256 -3.01237 0
M  V30 8190 H 774.728 1.37351 -4.53246 0
M  V30 8191 H 775.152 0.00840481 -6.76999 0
M  V30 8192 H 779.794 1.10426 -4.08125 0
M  V30 8193 H 777.512 -0.965457 -8.02312 0
M  V30 8194 H 781.098 -0.0800446 -5.81745 0
M  V30 8195 H 779.978 -1.10019 -7.76444 0
M  V30 8196 N 777.481 1.45874 0.596531 0
M  V30 8197 C 778.428 1.55389 1.70655 0
M  V30 8198 C 779.398 0.399036 1.61236 0
M  V30 8199 O 780.583 0.61396 1.80652 0
M  V30 8200 C 777.723 1.53705 3.0898 0
M  V30 8201 C 776.836 2.79823 3.29125 0
M  V30 8202 C 775.971 2.69735 4.5762 0
M  V30 8203 C 775.01 3.90856 4.71061 0
M  V30 8204 N 774.147 3.79237 5.90867 0
M  V30 8205 H 778.987 2.50211 1.61859 0
M  V30 8206 H 776.524 1.24146 0.789069 0
M  V30 8207 H 778.482 1.50715 3.89026 0
M  V30 8208 H 777.112 0.624247 3.16706 0
M  V30 8209 H 776.164 2.92852 2.42779 0
M  V30 8210 H 777.476 3.69628 3.34927 0
M  V30 8211 H 776.63 2.64773 5.45875 0
M  V30 8212 H 775.369 1.77547 4.54234 0
M  V30 8213 H 774.374 3.96164 3.81227 0
M  V30 8214 H 775.599 4.84124 4.76236 0
M  V30 8215 H 773.545 2.89825 5.88504 0
M  V30 8216 H 773.462 4.62686 5.97877 0
M  V30 8217 H 774.73 3.78227 6.8159 0
M  V30 8218 N 778.959 -0.83999 1.33349 0
M  V30 8219 C 780.184 -1.63249 1.27924 0
M  V30 8220 C 780.609 -1.87523 -0.147193 0
M  V30 8221 O 779.967 -1.43853 -1.10345 0
M  V30 8222 C 780.015 -2.96046 2.05886 0
M  V30 8223 O 779.119 -3.87303 1.4167 0
M  V30 8224 H 778.46 -0.49715 0.440157 0
M  V30 8225 H 780.99 -1.04512 1.75893 0
M  V30 8226 H 781 -3.45752 2.16609 0
M  V30 8227 H 779.675 -2.77701 3.09605 0
M  V30 8228 H 778.252 -3.45789 1.39585 0
M  V30 8229 N 780.437 -1.16799 -1.0581 0
M  V30 8230 C 781.686 -0.94698 -1.78088 0
M  V30 8231 C 781.999 0.526016 -1.88394 0
M  V30 8232 O 783.205 0.865061 -2.5735 0
M  V30 8233 C 781.661 -1.64508 -3.20102 0
M  V30 8234 C 781.269 -3.15618 -3.17946 0
M  V30 8235 C 783.013 -1.50622 -3.96879 0
M  V30 8236 C 780.92 -3.78144 -4.5471 0
M  V30 8237 H 779.85 -0.35067 -0.667493 0
M  V30 8238 H 782.501 -1.39985 -1.18645 0
M  V30 8239 H 780.883 -1.11993 -3.79834 0
M  V30 8240 H 782.057 -3.75016 -2.67768 0
M  V30 8241 H 780.372 -3.29444 -2.54667 0
M  V30 8242 H 782.969 -1.94713 -4.97987 0
M  V30 8243 H 783.312 -0.455864 -4.13797 0
M  V30 8244 H 783.845 -2.00319 -3.43682 0
M  V30 8245 H 780.584 -4.83149 -4.42998 0
M  V30 8246 H 780.104 -3.23532 -5.05062 0
M  V30 8247 H 781.783 -3.79986 -5.2366 0
M  V30 8248 N 781.915 1.24427 -0.967243 0
M  V30 8249 C 782.845 2.2773 -0.515899 0
M  V30 8250 C 783.826 1.64197 0.444227 0
M  V30 8251 O 785.011 1.91193 0.340451 0
M  V30 8252 C 782.141 3.46751 0.195149 0
M  V30 8253 C 781.095 4.22548 -0.680953 0
M  V30 8254 C 780.421 5.34456 0.161561 0
M  V30 8255 C 781.721 4.83914 -1.96532 0
M  V30 8256 H 783.415 2.65735 -1.37933 0
M  V30 8257 H 780.961 1.27742 -0.664681 0
M  V30 8258 H 782.914 4.18153 0.522117 0
M  V30 8259 H 781.638 3.07771 1.09292 0
M  V30 8260 H 780.297 3.52946 -0.991186 0
M  V30 8261 H 779.945 4.91716 1.05947 0
M  V30 8262 H 779.645 5.86087 -0.421418 0
M  V30 8263 H 781.169 6.08685 0.483211 0
M  V30 8264 H 782.583 5.47392 -1.70396 0
M  V30 8265 H 780.98 5.45775 -2.49499 0
M  V30 8266 H 782.05 4.05393 -2.66053 0
M  V30 8267 N 783.393 0.737304 1.3929 0
M  V30 8268 C 784.341 0.0879867 2.32434 0
M  V30 8269 C 785.335 -0.723324 1.53181 0
M  V30 8270 O 786.541 -0.624251 1.68829 0
M  V30 8271 H 782.916 0.00965277 0.751938 0
M  V30 8272 H 784.887 0.889915 2.84821 0
M  V30 8273 C 783.636 -0.803384 3.38291 0
M  V30 8274 H 782.959 -0.18849 3.99355 0
M  V30 8275 H 784.399 -1.22528 4.0591 0
M  V30 8276 C 782.858 -1.93872 2.75527 0
M  V30 8277 O 783.388 -3.03154 2.63553 0
M  V30 8278 N 781.594 -1.72883 2.3358 0
M  V30 8279 H 781.141 -0.840005 2.43519 0
M  V30 8280 H 781.099 -2.49021 1.91927 0
M  V30 8281 N 784.871 -1.49948 0.485112 0
M  V30 8282 C 786.096 -2.073 -0.0645059 0
M  V30 8283 C 786.521 -1.345 -1.31497 0
M  V30 8284 O 785.879 -0.39687 -1.76903 0
M  V30 8285 C 785.927 -3.59201 -0.317304 0
M  V30 8286 O 785.031 -3.88085 -1.39514 0
M  V30 8287 H 784.372 -0.663723 0.0191822 0
M  V30 8288 H 786.902 -1.92963 0.680179 0
M  V30 8289 H 786.912 -4.04227 -0.553604 0
M  V30 8290 H 785.587 -4.11602 0.596387 0
M  V30 8291 H 784.164 -3.54885 -1.14504 0
M  V30 8292 N 786.349 -0.21828 -1.56081 0
M  V30 8293 C 787.279 0.687922 -2.23136 0
M  V30 8294 C 788.26 1.20357 -1.202 0
M  V30 8295 O 789.445 1.24817 -1.48776 0
M  V30 8296 C 786.575 1.89762 -2.90874 0
M  V30 8297 C 785.529 1.51595 -4.00254 0
M  V30 8298 C 784.855 2.80415 -4.55271 0
M  V30 8299 C 786.155 0.708404 -5.17474 0
M  V30 8300 H 787.849 0.128854 -2.99123 0
M  V30 8301 H 785.395 0.0605354 -1.43873 0
M  V30 8302 H 787.348 2.53699 -3.36474 0
M  V30 8303 H 786.072 2.4816 -2.1233 0
M  V30 8304 H 784.731 0.900058 -3.55379 0
M  V30 8305 H 784.379 3.36951 -3.73461 0
M  V30 8306 H 784.079 2.55613 -5.2909 0
M  V30 8307 H 785.603 3.453 -5.03587 0
M  V30 8308 H 787.017 1.2514 -5.59476 0
M  V30 8309 H 785.414 0.557593 -5.97504 0
M  V30 8310 H 786.484 -0.285679 -4.84058 0
M  V30 8311 N 787.827 1.57504 0.0551401 0
M  V30 8312 C 789.057 1.92015 0.762472 0
M  V30 8313 C 789.465 0.814088 1.7079 0
M  V30 8314 O 788.808 -0.220273 1.82375 0
M  V30 8315 C 788.87 3.22132 1.59598 0
M  V30 8316 C 788.534 4.49617 0.818141 0
M  V30 8317 C 789.531 5.19738 0.129933 0
M  V30 8318 C 787.216 4.96201 0.780387 0
M  V30 8319 C 789.21 6.34704 -0.585616 0
M  V30 8320 C 786.897 6.11069 0.0610756 0
M  V30 8321 C 787.895 6.80174 -0.62071 0
M  V30 8322 O 787.583 7.92849 -1.3284 0
M  V30 8323 H 787.315 0.638866 0.220967 0
M  V30 8324 H 789.869 2.05385 0.0246362 0
M  V30 8325 H 788.099 3.05016 2.37701 0
M  V30 8326 H 789.788 3.42166 2.18351 0
M  V30 8327 H 790.554 4.84767 0.150299 0
M  V30 8328 H 786.433 4.42275 1.30054 0
M  V30 8329 H 789.977 6.88578 -1.11833 0
M  V30 8330 H 785.874 6.45488 0.0386945 0
M  V30 8331 H 786.642 8.09062 -1.23938 0
M  V30 8332 N 789.305 -0.326896 1.54172 0
M  V30 8333 C 790.215 -1.42525 1.86343 0
M  V30 8334 C 791.231 -1.56764 0.75505 0
M  V30 8335 O 792.407 -1.71924 1.04901 0
M  V30 8336 C 789.472 -2.77286 2.08119 0
M  V30 8337 C 788.533 -2.7225 3.31931 0
M  V30 8338 C 787.766 -4.00584 3.52659 0
M  V30 8339 O 787.989 -4.98686 2.76891 0
M  V30 8340 O 786.923 -4.04045 4.46129 0
M  V30 8341 H 790.749 -1.18249 2.79734 0
M  V30 8342 H 788.334 -0.520614 1.40036 0
M  V30 8343 H 790.216 -3.57065 2.23791 0
M  V30 8344 H 788.891 -3.01459 1.17917 0
M  V30 8345 H 787.798 -1.91033 3.21647 0
M  V30 8346 H 789.131 -2.53032 4.2218 0
M  V30 8347 N 790.784 -1.46188 -0.588786 0
M  V30 8348 C 791.714 -1.59148 -1.70863 0
M  V30 8349 C 792.695 -0.442083 -1.64255 0
M  V30 8350 O 793.88 -0.667575 -1.82365 0
M  V30 8351 C 791.01 -1.5757 -3.09498 0
M  V30 8352 C 789.964 -2.71418 -3.30932 0
M  V30 8353 C 789.29 -2.549 -4.70032 0
M  V30 8354 C 790.59 -4.1329 -3.19356 0
M  V30 8355 H 792.284 -2.52889 -1.60274 0
M  V30 8356 H 789.83 -1.21707 -0.769638 0
M  V30 8357 H 791.783 -1.65231 -3.87655 0
M  V30 8358 H 790.507 -0.603705 -3.20972 0
M  V30 8359 H 789.166 -2.63216 -2.55172 0
M  V30 8360 H 788.814 -1.55797 -4.78264 0
M  V30 8361 H 788.514 -3.31257 -4.85327 0
M  V30 8362 H 790.038 -2.64443 -5.50366 0
M  V30 8363 H 791.452 -4.22636 -3.87365 0
M  V30 8364 H 789.849 -4.90187 -3.46175 0
M  V30 8365 H 790.919 -4.33874 -2.16522 0
M  V30 8366 N 792.262 0.832906 -1.33792 0
M  V30 8367 C 793.192 1.95828 -1.27176 0
M  V30 8368 C 794.173 1.69427 -0.15114 0
M  V30 8369 O 795.358 1.91167 -0.341886 0
M  V30 8370 C 792.488 3.32098 -1.01629 0
M  V30 8371 C 791.442 3.72912 -2.10049 0
M  V30 8372 C 790.768 5.07054 -1.69706 0
M  V30 8373 C 792.068 3.86064 -3.51783 0
M  V30 8374 H 793.762 2.01622 -2.21334 0
M  V30 8375 H 791.308 0.96866 -1.0655 0
M  V30 8376 H 793.261 4.10402 -0.956474 0
M  V30 8377 H 791.985 3.26577 -0.0390956 0
M  V30 8378 H 790.644 2.96876 -2.15082 0
M  V30 8379 H 790.292 4.9801 -0.706737 0
M  V30 8380 H 789.992 5.35333 -2.42264 0
M  V30 8381 H 791.516 5.87827 -1.65202 0
M  V30 8382 H 792.93 4.54665 -3.49218 0
M  V30 8383 H 791.327 4.25787 -4.22878 0
M  V30 8384 H 792.397 2.88344 -3.89854 0
M  V30 8385 N 793.74 1.17359 1.05189 0
M  V30 8386 C 794.703 0.892604 2.11105 0
M  V30 8387 C 795.703 -0.117236 1.60372 0
M  V30 8388 O 796.893 0.114936 1.7382 0
M  V30 8389 C 794.025 0.337032 3.3923 0
M  V30 8390 H 795.218 1.83169 2.37464 0
M  V30 8391 H 792.771 0.984051 1.21434 0
M  V30 8392 H 793.506 -0.609198 3.18527 0
M  V30 8393 H 793.291 1.06484 3.77364 0
M  V30 8394 H 794.781 0.158763 4.17298 0
M  V30 8395 N 795.218 -1.23913 0.973828 0
M  V30 8396 C 796.181 -2.23367 0.51378 0
M  V30 8397 C 797.181 -1.55923 -0.39302 0
M  V30 8398 O 798.371 -1.73187 -0.187626 0
M  V30 8399 C 795.503 -3.39944 -0.255152 0
M  V30 8400 H 796.696 -2.65581 1.39307 0
M  V30 8401 H 794.249 -1.36632 0.759039 0
M  V30 8402 H 794.984 -3.03177 -1.15127 0
M  V30 8403 H 794.769 -3.90098 0.395673 0
M  V30 8404 H 796.259 -4.13749 -0.565842 0
M  V30 8405 N 796.696 -0.74468 -1.38897 0
M  V30 8406 C 797.626 -0.126355 -2.33158 0
M  V30 8407 C 798.607 0.713517 -1.54412 0
M  V30 8408 O 799.792 0.656523 -1.82766 0
M  V30 8409 C 796.922 0.774375 -3.38557 0
M  V30 8410 C 795.876 0.0379214 -4.27983 0
M  V30 8411 C 795.202 1.05631 -5.24162 0
M  V30 8412 C 796.502 -1.12523 -5.10035 0
M  V30 8413 H 798.196 -0.913744 -2.85116 0
M  V30 8414 H 795.742 -0.440847 -1.37086 0
M  V30 8415 H 797.695 1.21655 -4.03458 0
M  V30 8416 H 796.419 1.59399 -2.85061 0
M  V30 8417 H 795.078 -0.384733 -3.64576 0
M  V30 8418 H 794.726 1.86975 -4.66958 0
M  V30 8419 H 794.426 0.568261 -5.84846 0
M  V30 8420 H 795.95 1.49799 -5.9194 0
M  V30 8421 H 797.364 -0.761037 -5.68226 0
M  V30 8422 H 795.761 -1.54355 -5.79909 0
M  V30 8423 H 796.831 -1.94237 -4.44297 0
M  V30 8424 N 798.174 1.49689 -0.493057 0
M  V30 8425 C 799.423 2.01622 0.0560733 0
M  V30 8426 C 799.736 1.37838 1.3878 0
M  V30 8427 O 800.942 1.81054 2.02316 0
M  V30 8428 C 799.398 3.59586 0.150409 0
M  V30 8429 C 799.006 4.32338 -1.1742 0
M  V30 8430 C 800.75 4.19489 0.650327 0
M  V30 8431 C 798.657 5.8214 -1.04246 0
M  V30 8432 H 797.587 0.753594 0.0247297 0
M  V30 8433 H 800.238 1.723 -0.631279 0
M  V30 8434 H 798.62 3.8559 0.902035 0
M  V30 8435 H 799.794 4.18042 -1.9385 0
M  V30 8436 H 798.109 3.84144 -1.60694 0
M  V30 8437 H 800.706 5.29181 0.766272 0
M  V30 8438 H 801.049 3.82326 1.6472 0
M  V30 8439 H 801.582 3.97775 -0.0445371 0
M  V30 8440 H 798.321 6.23814 -2.01336 0
M  V30 8441 H 797.841 5.98952 -0.31892 0
M  V30 8442 H 799.52 6.43004 -0.717957 0
M  V30 8443 N 799.652 0.226554 1.55963 0
M  V30 8444 C 801.068 -0.128733 1.5908 0
M  V30 8445 C 801.268 -1.58558 1.24345 0
M  V30 8446 O 800.324 -2.32661 0.981069 0
M  V30 8447 C 801.637 0.202076 3.0002 0
M  V30 8448 C 803.185 0.144718 3.12665 0
M  V30 8449 C 803.66 0.449272 4.55791 0
M  V30 8450 N 805.151 0.399026 4.61478 0
M  V30 8451 C 805.886 0.608106 5.70166 0
M  V30 8452 N 805.382 0.879227 6.87198 0
M  V30 8453 N 807.175 0.5402 5.59498 0
M  V30 8454 H 799.326 1.17686 1.76816 0
M  V30 8455 H 801.589 0.472072 0.822102 0
M  V30 8456 H 801.295 1.21341 3.30105 0
M  V30 8457 H 801.169 -0.480554 3.74126 0
M  V30 8458 H 803.556 -0.857261 2.82374 0
M  V30 8459 H 803.637 0.860899 2.40878 0
M  V30 8460 H 803.281 1.44871 4.86801 0
M  V30 8461 H 803.211 -0.288157 5.25811 0
M  V30 8462 H 805.702 0.197372 3.77384 0
M  V30 8463 H 806.015 1.02673 7.65949 0
M  V30 8464 H 804.36 0.916477 6.88931 0
M  V30 8465 H 807.551 0.328581 4.66945 0
M  V30 8466 H 807.724 0.706548 6.44137 0
M  V30 8467 N 801.13 -1.57531 -0.0467866 0
M  V30 8468 C 802.378 -1.88078 -0.739656 0
M  V30 8469 C 802.699 -0.821936 -1.76831 0
M  V30 8470 O 801.969 0.146582 -1.95351 0
M  V30 8471 H 800.549 -0.694075 -0.276169 0
M  V30 8472 H 803.211 -1.94893 -0.0169391 0
M  V30 8473 H 802.307 -2.86396 -1.24031 0
M  V30 8474 N 802.608 0.318715 -1.54344 0
M  V30 8475 C 803.556 1.41254 -1.84798 0
M  V30 8476 C 804.55 1.53325 -0.720256 0
M  V30 8477 O 805.756 1.55653 -0.903992 0
M  V30 8478 H 802.131 0.471468 -0.585851 0
M  V30 8479 H 804.102 1.12795 -2.7626 0
M  V30 8480 C 802.851 2.77395 -2.09637 0
M  V30 8481 H 802.174 2.68881 -2.95876 0
M  V30 8482 H 803.614 3.52987 -2.34896 0
M  V30 8483 C 802.073 3.24948 -0.889398 0
M  V30 8484 O 802.603 4.01573 -0.101063 0
M  V30 8485 N 800.809 2.82051 -0.699684 0
M  V30 8486 H 800.356 2.19858 -1.3424 0
M  V30 8487 H 800.314 3.1422 0.106368 0
M  V30 8488 N 804.086 1.46499 0.581025 0
M  V30 8489 C 805.502 1.31491 0.904563 0
M  V30 8490 C 805.702 0.287598 1.99437 0
M  V30 8491 O 804.758 -0.309247 2.50599 0
M  V30 8492 C 806.071 2.70163 1.32032 0
M  V30 8493 C 807.619 2.78266 1.43308 0
M  V30 8494 C 808.094 4.17524 1.8825 0
M  V30 8495 N 809.585 4.19949 1.9544 0
M  V30 8496 C 810.32 5.24594 2.31493 0
M  V30 8497 N 809.816 6.39564 2.66326 0
M  V30 8498 N 811.609 5.11961 2.32062 0
M  V30 8499 H 803.76 2.11946 -0.138856 0
M  V30 8500 H 806.023 0.948 0.000548528 0
M  V30 8501 H 805.729 3.46655 0.593554 0
M  V30 8502 H 805.603 3.00379 2.2815 0
M  V30 8503 H 807.99 2.02061 2.15071 0
M  V30 8504 H 808.071 2.51732 0.45438 0
M  V30 8505 H 807.715 4.94225 1.17065 0
M  V30 8506 H 807.645 4.41466 2.87081 0
M  V30 8507 H 810.136 3.36996 1.71004 0
M  V30 8508 H 810.449 7.15187 2.92793 0
M  V30 8509 H 808.794 6.42923 2.6396 0
M  V30 8510 H 811.985 4.21177 2.04272 0
M  V30 8511 H 812.158 5.93626 2.5983 0
M  V30 8512 N 805.565 -0.825799 1.34232 0
M  V30 8513 C 806.512 -1.93651 1.2557 0
M  V30 8514 C 807.482 -1.65578 0.131536 0
M  V30 8515 O 808.667 -1.88231 0.312027 0
M  V30 8516 C 805.807 -3.29862 1.01415 0
M  V30 8517 C 804.92 -3.70247 2.22579 0
M  V30 8518 C 804.055 -4.95392 1.91731 0
M  V30 8519 C 803.094 -5.28349 3.09053 0
M  V30 8520 N 802.231 -6.44671 2.78107 0
M  V30 8521 H 807.071 -2.00392 2.20561 0
M  V30 8522 H 804.608 -0.980441 1.09662 0
M  V30 8523 H 806.566 -4.08356 0.854485 0
M  V30 8524 H 805.196 -3.22642 0.100936 0
M  V30 8525 H 804.248 -2.87169 2.49476 0
M  V30 8526 H 805.56 -3.90575 3.10246 0
M  V30 8527 H 804.714 -5.81665 1.72484 0
M  V30 8528 H 803.453 -4.77059 1.0132 0
M  V30 8529 H 802.458 -4.40574 3.289 0
M  V30 8530 H 803.683 -5.48622 4.00239 0
M  V30 8531 H 801.629 -6.278 1.9027 0
M  V30 8532 H 801.546 -6.65158 3.59306 0
M  V30 8533 H 802.814 -7.34022 2.62358 0
M  V30 8534 N 807.043 -1.17915 -1.04565 0
M  V30 8535 C 807.991 -0.897919 -2.1457 0
M  V30 8536 C 808.985 0.139883 -1.68821 0
M  V30 8537 O 810.191 -0.00779463 -1.79998 0
M  V30 8538 H 806.566 -0.272867 -0.700748 0
M  V30 8539 H 808.537 -1.83268 -2.3549 0
M  V30 8540 C 807.286 -0.434634 -3.44973 0
M  V30 8541 H 806.609 -1.22469 -3.8058 0
M  V30 8542 H 808.049 -0.276804 -4.23095 0
M  V30 8543 C 806.508 0.848738 -3.26034 0
M  V30 8544 O 807.038 1.9141 -3.53164 0
M  V30 8545 N 805.244 0.799373 -2.79389 0
M  V30 8546 H 804.791 -0.0678192 -2.57511 0
M  V30 8547 H 804.749 1.6585 -2.67098 0
M  V30 8548 N 808.521 1.23394 -0.980386 0
M  V30 8549 C 809.761 1.93543 -0.657288 0
M  V30 8550 C 810.125 1.74791 0.794477 0
M  V30 8551 O 811.326 2.39089 1.2284 0
M  V30 8552 C 809.597 3.42025 -1.03701 0
M  V30 8553 S 811.156 4.30871 -0.830379 0
M  V30 8554 H 807.974 0.669012 -0.240717 0
M  V30 8555 H 810.576 1.49478 -1.26002 0
M  V30 8556 H 809.28 3.53183 -2.09022 0
M  V30 8557 H 808.811 3.91091 -0.425559 0
M  V30 8558 H 810.826 4.95377 0.285719 0
M  V30 8559 N 809.999 0.752036 1.385 0
M  V30 8560 C 810.962 0.131587 2.28822 0
M  V30 8561 C 811.962 -0.649149 1.47115 0
M  V30 8562 O 813.152 -0.475645 1.67581 0
M  V30 8563 C 810.284 -0.822101 3.30839 0
M  V30 8564 H 811.477 0.927551 2.85196 0
M  V30 8565 H 809.03 0.518945 1.47434 0
M  V30 8566 H 809.765 -1.6438 2.79553 0
M  V30 8567 H 809.55 -0.264689 3.91206 0
M  V30 8568 H 811.04 -1.25226 3.98382 0
M  V30 8569 N 811.477 -1.49425 0.500989 0
M  V30 8570 C 812.409 -2.27037 -0.314159 0
M  V30 8571 C 813.422 -1.33578 -0.930626 0
M  V30 8572 O 814.611 -1.58861 -0.813968 0
M  V30 8573 C 811.711 -3.05968 -1.45729 0
M  V30 8574 C 810.884 -4.27 -0.948135 0
M  V30 8575 C 809.943 -4.87977 -1.96888 0
M  V30 8576 O 808.969 -5.48044 -1.53743 0
M  V30 8577 N 810.171 -4.77627 -3.29928 0
M  V30 8578 H 812.936 -2.97634 0.351336 0
M  V30 8579 H 810.497 -1.58427 0.333536 0
M  V30 8580 H 812.489 -3.43634 -2.1377 0
M  V30 8581 H 811.059 -2.37978 -2.02695 0
M  V30 8582 H 810.279 -3.94091 -0.0926311 0
M  V30 8583 H 811.567 -5.0541 -0.586362 0
M  V30 8584 H 810.965 -4.29926 -3.67669 0
M  V30 8585 H 809.522 -5.19478 -3.93682 0
M  V30 8586 N 812.955 -0.234822 -1.55841 0
M  V30 8587 C 814.202 0.39326 -1.98645 0
M  V30 8588 C 814.53 1.58823 -1.12274 0
M  V30 8589 O 813.785 1.94954 -0.170731 0
M  V30 8590 C 814.084 0.858032 -3.46947 0
M  V30 8591 C 813.75 -0.227858 -4.50324 0
M  V30 8592 C 812.412 -0.526128 -4.78315 0
M  V30 8593 C 814.764 -0.961576 -5.12253 0
M  V30 8594 C 812.092 -1.5624 -5.65514 0
M  V30 8595 C 814.444 -1.98728 -6.00575 0
M  V30 8596 C 813.108 -2.29233 -6.26904 0
M  V30 8597 H 812.378 0.143904 -0.726892 0
M  V30 8598 H 815.025 -0.34012 -1.88455 0
M  V30 8599 H 813.33 1.67041 -3.54408 0
M  V30 8600 H 815.027 1.35407 -3.77447 0
M  V30 8601 H 811.617 0.0147624 -4.28597 0
M  V30 8602 H 815.801 -0.744388 -4.90686 0
M  V30 8603 H 811.057 -1.80422 -5.84173 0
M  V30 8604 H 815.231 -2.5608 -6.47608 0
M  V30 8605 H 812.858 -3.09671 -6.94268 0
M  V30 8606 N 814.433 1.57553 0.0384317 0
M  V30 8607 C 815.658 1.93485 0.746872 0
M  V30 8608 C 816.083 0.834069 1.68597 0
M  V30 8609 O 815.441 -0.210902 1.80069 0
M  V30 8610 C 815.489 3.28463 1.4881 0
M  V30 8611 O 814.593 3.20051 2.60079 0
M  V30 8612 H 813.934 0.632675 0.201539 0
M  V30 8613 H 816.464 2.046 -0.00329815 0
M  V30 8614 H 816.474 3.63132 1.86009 0
M  V30 8615 H 815.149 4.08147 0.799297 0
M  V30 8616 H 813.726 2.96998 2.25492 0
M  V30 8617 N 815.911 -0.310526 1.54511 0
M  V30 8618 C 817.159 -1.04484 1.72996 0
M  V30 8619 C 817.48 -1.88118 0.513479 0
M  V30 8620 O 816.75 -1.90119 -0.472384 0
M  V30 8621 H 815.33 -0.388747 0.637875 0
M  V30 8622 H 817.992 -0.343811 1.91844 0
M  V30 8623 H 817.088 -1.70341 2.61515 0
M  V30 8624 N 817.389 -1.46805 -0.573248 0
M  V30 8625 C 818.614 -1.56433 -1.36175 0
M  V30 8626 C 819.039 -0.209336 -1.86932 0
M  V30 8627 O 818.397 0.812146 -1.62092 0
M  V30 8628 C 818.445 -2.58055 -2.51873 0
M  V30 8629 O 817.549 -2.12214 -3.53609 0
M  V30 8630 H 816.89 -0.526068 -0.405153 0
M  V30 8631 H 819.42 -1.92456 -0.694405 0
M  V30 8632 H 819.43 -2.77966 -2.98662 0
M  V30 8633 H 818.105 -3.56448 -2.14284 0
M  V30 8634 H 816.682 -2.02333 -3.13234 0
M  V30 8635 N 818.867 0.818669 -1.34668 0
M  V30 8636 C 819.797 1.94468 -1.29245 0
M  V30 8637 C 820.778 1.69257 -0.169101 0
M  V30 8638 O 821.963 1.90794 -0.362143 0
M  V30 8639 C 819.093 3.31001 -1.05145 0
M  V30 8640 C 818.047 3.70663 -2.13992 0
M  V30 8641 C 817.373 5.05226 -1.75074 0
M  V30 8642 C 818.673 3.82312 -3.55858 0
M  V30 8643 H 820.367 1.99263 -2.2346 0
M  V30 8644 H 817.913 0.957304 -1.07572 0
M  V30 8645 H 819.866 4.09364 -0.999949 0
M  V30 8646 H 818.59 3.26517 -0.0737312 0
M  V30 8647 H 817.249 2.94578 -2.18219 0
M  V30 8648 H 816.897 4.97233 -0.759518 0
M  V30 8649 H 816.597 5.32734 -2.47928 0
M  V30 8650 H 818.121 5.86042 -1.71427 0
M  V30 8651 H 819.535 4.50935 -3.5402 0
M  V30 8652 H 817.932 4.21278 -4.2737 0
M  V30 8653 H 819.002 2.84193 -3.9289 0
M  V30 8654 N 820.346 1.18468 1.03938 0
M  V30 8655 C 821.623 0.890435 1.74157 0
M  V30 8656 C 822.003 -0.606409 2.02203 0
M  V30 8657 O 821.351 -1.5615 1.66822 0
M  V30 8658 C 821.561 1.73906 3.02585 0
M  V30 8659 C 822.909 1.96686 3.76297 0
M  V30 8660 O 823.933 1.70969 3.12487 0
M  V30 8661 O 822.792 2.39986 4.90988 0
M  V30 8662 H 819.886 0.330889 0.757919 0
M  V30 8663 H 822.432 1.29228 1.09992 0
M  V30 8664 H 821.204 2.75369 2.78006 0
M  V30 8665 H 820.827 1.33581 3.74489 0
M  V30 8666 N 821.824 -1.22873 0.986916 0
M  V30 8667 C 823.07 -1.92047 0.670042 0
M  V30 8668 C 823.425 -1.75497 -0.788587 0
M  V30 8669 O 822.718 -1.10934 -1.56218 0
M  V30 8670 C 822.912 -3.43014 1.00379 0
M  V30 8671 C 822.741 -3.74251 2.49332 0
M  V30 8672 C 821.511 -3.94589 3.15638 0
M  V30 8673 C 823.709 -3.79208 3.47428 0
M  V30 8674 N 821.691 -4.13086 4.54129 0
M  V30 8675 C 823.062 -4.02775 4.71352 0
M  V30 8676 C 825.117 -3.62029 3.41818 0
M  V30 8677 C 823.82 -4.10946 5.90352 0
M  V30 8678 C 825.846 -3.71457 4.60189 0
M  V30 8679 C 825.208 -3.95468 5.82911 0
M  V30 8680 H 821.307 -0.723668 0.29636 0
M  V30 8681 H 823.891 -1.47946 1.26571 0
M  V30 8682 H 822.062 -3.85936 0.436762 0
M  V30 8683 H 823.794 -3.99551 0.643522 0
M  V30 8684 H 820.549 -3.91762 2.66119 0
M  V30 8685 H 820.973 -4.26275 5.25945 0
M  V30 8686 H 825.615 -3.42457 2.47958 0
M  V30 8687 H 823.333 -4.29324 6.84621 0
M  V30 8688 H 826.919 -3.59511 4.57431 0
M  V30 8689 H 825.799 -4.02584 6.72975 0
M  V30 8690 N 823.302 -0.75937 -1.38099 0
M  V30 8691 C 824.232 -0.151077 -2.33011 0
M  V30 8692 C 825.213 0.697099 -1.5516 0
M  V30 8693 O 826.398 0.637101 -1.83452 0
M  V30 8694 C 823.528 0.738423 -3.39359 0
M  V30 8695 C 822.482 -0.0074741 -4.27999 0
M  V30 8696 C 821.808 1.00066 -5.25253 0
M  V30 8697 C 823.108 -1.17926 -5.08813 0
M  V30 8698 H 824.802 -0.943933 -2.84131 0
M  V30 8699 H 822.348 -0.455362 -1.36611 0
M  V30 8700 H 824.301 1.17369 -4.04725 0
M  V30 8701 H 823.025 1.56366 -2.86735 0
M  V30 8702 H 821.684 -0.423379 -3.64147 0
M  V30 8703 H 821.332 1.82012 -4.68914 0
M  V30 8704 H 821.032 0.506199 -5.85416 0
M  V30 8705 H 822.556 1.43512 -5.93495 0
M  V30 8706 H 823.97 -0.821262 -5.67387 0
M  V30 8707 H 822.367 -1.60497 -5.78239 0
M  V30 8708 H 823.437 -1.98938 -4.42212 0
M  V30 8709 N 824.78 1.49157 -0.508906 0
M  V30 8710 C 826.029 2.0167 0.0346854 0
M  V30 8711 C 826.342 1.39302 1.37311 0
M  V30 8712 O 827.548 1.83189 2.00385 0
M  V30 8713 C 826.004 3.59725 0.112261 0
M  V30 8714 C 825.612 4.31069 -1.21999 0
M  V30 8715 C 827.356 4.20155 0.605798 0
M  V30 8716 C 825.263 5.81001 -1.10415 0
M  V30 8717 H 824.193 0.753814 0.0167355 0
M  V30 8718 H 826.844 1.7162 -0.649518 0
M  V30 8719 H 825.226 3.86525 0.861087 0
M  V30 8720 H 826.4 4.15962 -1.98273 0
M  V30 8721 H 824.715 3.82418 -1.64759 0
M  V30 8722 H 827.312 5.29964 0.710102 0
M  V30 8723 H 827.655 3.84051 1.60656 0
M  V30 8724 H 828.188 3.97705 -0.0867239 0
M  V30 8725 H 824.927 6.21643 -2.07941 0
M  V30 8726 H 824.447 5.9858 -0.382428 0
M  V30 8727 H 826.126 6.42207 -0.786116 0
M  V30 8728 N 826.258 0.243083 1.55714 0
M  V30 8729 C 827.483 -0.389944 2.03701 0
M  V30 8730 C 827.908 -1.51025 1.12129 0
M  V30 8731 O 827.266 -1.80944 0.11352 0
M  V30 8732 C 827.314 -0.878649 3.49731 0
M  V30 8733 O 826.418 -1.98851 3.61292 0
M  V30 8734 H 825.759 -0.0855115 0.658471 0
M  V30 8735 H 828.289 0.368023 2.01263 0
M  V30 8736 H 828.299 -1.18287 3.90477 0
M  V30 8737 H 826.974 -0.0588107 4.15858 0
M  V30 8738 H 825.551 -1.68928 3.32442 0
M  V30 8739 N 827.736 -1.57571 -0.0300757 0
M  V30 8740 C 829.152 -1.54869 -0.385703 0
M  V30 8741 C 829.352 -0.969068 -1.76667 0
M  V30 8742 O 828.408 -0.589676 -2.45518 0
M  V30 8743 C 829.721 -2.99313 -0.288482 0
M  V30 8744 C 831.269 -3.10857 -0.365638 0
M  V30 8745 C 831.744 -4.5703 -0.297878 0
M  V30 8746 N 833.235 -4.61825 -0.356703 0
M  V30 8747 C 833.97 -5.72466 -0.327146 0
M  V30 8748 N 833.466 -6.92349 -0.249941 0
M  V30 8749 N 835.259 -5.60836 -0.376801 0
M  V30 8750 H 827.41 -1.936 0.87367 0
M  V30 8751 H 829.673 -0.887924 0.332106 0
M  V30 8752 H 829.379 -3.45443 0.66047 0
M  V30 8753 H 829.253 -3.61332 -1.08253 0
M  V30 8754 H 831.64 -2.64676 -1.30502 0
M  V30 8755 H 831.721 -2.51671 0.457744 0
M  V30 8756 H 831.365 -5.03879 0.637835 0
M  V30 8757 H 831.295 -5.14127 -1.13935 0
M  V30 8758 H 833.786 -3.75571 -0.418926 0
M  V30 8759 H 834.099 -7.7245 -0.23246 0
M  V30 8760 H 832.444 -6.94664 -0.216004 0
M  V30 8761 H 835.635 -4.66073 -0.435101 0
M  V30 8762 H 835.808 -6.47052 -0.350298 0
M  V30 8763 N 829.214 0.302327 -1.54673 0
M  V30 8764 C 830.144 1.37759 -1.88533 0
M  V30 8765 C 831.125 1.52961 -0.744113 0
M  V30 8766 O 832.31 1.6649 -0.999731 0
M  V30 8767 C 829.44 2.74201 -2.13146 0
M  V30 8768 C 828.394 2.73765 -3.28993 0
M  V30 8769 C 827.72 4.13483 -3.39022 0
M  V30 8770 C 829.02 2.35624 -4.66132 0
M  V30 8771 H 830.714 1.0967 -2.78591 0
M  V30 8772 H 828.26 0.52613 -1.34044 0
M  V30 8773 H 830.213 3.49508 -2.35419 0
M  V30 8774 H 828.937 3.03812 -1.19858 0
M  V30 8775 H 827.596 2.00914 -3.06642 0
M  V30 8776 H 827.244 4.40269 -2.43253 0
M  V30 8777 H 826.944 4.14093 -4.16894 0
M  V30 8778 H 828.468 4.90572 -3.63553 0
M  V30 8779 H 829.882 3.00647 -4.88143 0
M  V30 8780 H 828.279 2.47449 -5.46707 0
M  V30 8781 H 829.349 1.30753 -4.66939 0
M  V30 8782 N 830.692 1.47107 0.565454 0
M  V30 8783 C 831.602 1.61591 1.70075 0
M  V30 8784 C 832.618 0.498931 1.66693 0
M  V30 8785 O 833.794 0.765372 1.8629 0
M  V30 8786 C 830.859 1.61887 3.06583 0
M  V30 8787 C 829.92 2.84949 3.21096 0
M  V30 8788 C 829.153 2.85221 4.51093 0
M  V30 8789 O 829.376 1.94959 5.36048 0
M  V30 8790 O 828.31 3.76982 4.69221 0
M  V30 8791 H 832.136 2.57638 1.60799 0
M  V30 8792 H 829.721 1.30097 0.73451 0
M  V30 8793 H 831.603 1.64809 3.87835 0
M  V30 8794 H 830.278 0.69005 3.16259 0
M  V30 8795 H 829.185 2.87575 2.39273 0
M  V30 8796 H 830.518 3.77098 3.1632 0
M  V30 8797 N 832.17 -0.811516 1.35101 0
M  V30 8798 C 833.586 -1.10634 1.15031 0
M  V30 8799 C 833.786 -2.01459 -0.0405379 0
M  V30 8800 O 832.842 -2.42235 -0.712635 0
M  V30 8801 C 834.155 -1.74207 2.45097 0
M  V30 8802 C 835.703 -1.8665 2.51258 0
M  V30 8803 C 836.178 -2.53638 3.81355 0
M  V30 8804 N 837.669 -2.61128 3.82579 0
M  V30 8805 C 838.404 -3.13717 4.79968 0
M  V30 8806 N 837.9 -3.66782 5.87744 0
M  V30 8807 N 839.693 -3.12224 4.67411 0
M  V30 8808 H 831.844 -0.207641 2.11383 0
M  V30 8809 H 834.107 -0.154697 0.935293 0
M  V30 8810 H 833.813 -1.14936 3.32389 0
M  V30 8811 H 833.687 -2.73958 2.59281 0
M  V30 8812 H 836.074 -2.45066 1.64398 0
M  V30 8813 H 836.155 -0.857678 2.40993 0
M  V30 8814 H 835.799 -1.95873 4.68611 0
M  V30 8815 H 835.729 -3.55047 3.88907 0
M  V30 8816 H 838.22 -2.23527 3.04703 0
M  V30 8817 H 838.533 -4.05194 6.58056 0
M  V30 8818 H 836.878 -3.64994 5.91443 0
M  V30 8819 H 840.069 -2.70042 3.82354 0
M  V30 8820 H 840.242 -3.52903 5.43474 0
M  V30 8821 N 833.648 -1.19017 -1.03309 0
M  V30 8822 C 834.578 -0.94772 -2.13402 0
M  V30 8823 C 835.559 0.117383 -1.69694 0
M  V30 8824 O 836.744 -0.0367733 -1.94165 0
M  V30 8825 C 833.874 -0.480977 -3.43953 0
M  V30 8826 C 832.828 -1.48743 -4.01322 0
M  V30 8827 C 832.154 -0.877924 -5.27443 0
M  V30 8828 C 833.454 -2.86642 -4.36616 0
M  V30 8829 H 835.148 -1.86846 -2.33942 0
M  V30 8830 H 832.694 -0.899781 -1.12427 0
M  V30 8831 H 834.647 -0.298677 -4.2034 0
M  V30 8832 H 833.371 0.475348 -3.23122 0
M  V30 8833 H 832.03 -1.65681 -3.27025 0
M  V30 8834 H 831.678 0.0858232 -5.02927 0
M  V30 8835 H 831.378 -1.54996 -5.66789 0
M  V30 8836 H 832.902 -0.706326 -6.06501 0
M  V30 8837 H 834.316 -2.73312 -5.03958 0
M  V30 8838 H 832.713 -3.50599 -4.87032 0
M  V30 8839 H 833.783 -3.39617 -3.46105 0
M  V30 8840 N 835.127 1.22348 -0.993418 0
M  V30 8841 C 836.037 2.27987 -0.553076 0
M  V30 8842 C 837.053 1.69378 0.398386 0
M  V30 8843 O 838.229 1.99648 0.26509 0
M  V30 8844 C 835.294 3.46475 0.124809 0
M  V30 8845 C 834.355 4.20399 -0.869682 0
M  V30 8846 C 833.588 5.33229 -0.224052 0
M  V30 8847 O 833.811 5.61885 0.981915 0
M  V30 8848 O 832.745 5.94685 -0.929174 0
M  V30 8849 H 836.571 2.67822 -1.43195 0
M  V30 8850 H 834.156 1.28525 -0.761694 0
M  V30 8851 H 836.038 4.18369 0.504496 0
M  V30 8852 H 834.713 3.08565 0.978243 0
M  V30 8853 H 833.62 3.50774 -1.30031 0
M  V30 8854 H 834.953 4.62191 -1.69233 0
M  V30 8855 N 836.605 0.766683 1.37694 0
M  V30 8856 C 837.568 0.155849 2.2867 0
M  V30 8857 C 838.568 -0.633509 1.47795 0
M  V30 8858 O 839.758 -0.457844 1.68076 0
M  V30 8859 C 836.89 -0.786965 3.31692 0
M  V30 8860 H 838.083 0.957748 2.84196 0
M  V30 8861 H 835.636 0.534554 1.46875 0
M  V30 8862 H 836.371 -1.61406 2.8128 0
M  V30 8863 H 836.156 -0.223182 3.91464 0
M  V30 8864 H 837.646 -1.20994 3.99688 0
M  V30 8865 N 838.083 -1.48885 0.516809 0
M  V30 8866 C 839.308 -2.0739 -0.0205201 0
M  V30 8867 C 839.733 -1.37259 -1.28614 0
M  V30 8868 O 839.091 -0.434304 -1.76021 0
M  V30 8869 C 839.139 -3.59793 -0.24104 0
M  V30 8870 O 838.243 -3.90957 -1.31251 0
M  V30 8871 H 837.584 -0.663167 0.0332564 0
M  V30 8872 H 840.114 -1.91477 0.720956 0
M  V30 8873 H 840.124 -4.0531 -0.467737 0
M  V30 8874 H 838.799 -4.10244 0.68356 0
M  V30 8875 H 837.376 -3.57234 -1.06951 0
M  V30 8876 N 839.561 -0.251338 -1.55583 0
M  V30 8877 C 840.786 0.379136 -2.03905 0
M  V30 8878 C 841.211 1.50428 -1.12929 0
M  V30 8879 O 840.569 1.80882 -0.123114 0
M  V30 8880 C 840.617 0.86009 -3.50193 0
M  V30 8881 O 839.721 1.96932 -3.62342 0
M  V30 8882 H 839.062 0.0820183 -0.658915 0
M  V30 8883 H 841.592 -0.378692 -2.01065 0
M  V30 8884 H 841.602 1.16214 -3.91099 0
M  V30 8885 H 840.277 0.0367559 -4.15884 0
M  V30 8886 H 838.854 1.67163 -3.33333 0
M  V30 8887 N 841.039 1.57585 0.0217189 0
M  V30 8888 C 842.287 1.89231 0.709641 0
M  V30 8889 C 842.608 0.849964 1.75501 0
M  V30 8890 O 841.878 -0.115485 1.95559 0
M  V30 8891 H 840.458 0.69838 0.265092 0
M  V30 8892 H 843.12 1.94895 -0.0140688 0
M  V30 8893 H 842.216 2.88333 1.19459 0
M  V30 8894 N 842.517 -0.29412 1.54831 0
M  V30 8895 C 843.766 -1.02614 1.73647 0
M  V30 8896 C 844.079 -1.88193 0.533162 0
M  V30 8897 O 845.285 -2.64713 0.603275 0
M  V30 8898 C 843.741 -1.87417 3.07251 0
M  V30 8899 C 843.349 -1.06806 4.35082 0
M  V30 8900 C 845.093 -2.60176 3.35423 0
M  V30 8901 C 843 -1.90926 5.59733 0
M  V30 8902 H 841.93 -0.386834 0.647206 0
M  V30 8903 H 844.581 -0.282789 1.81308 0
M  V30 8904 H 842.963 -2.65765 2.93572 0
M  V30 8905 H 844.137 -0.330226 4.59615 0
M  V30 8906 H 842.452 -0.455979 4.13896 0
M  V30 8907 H 845.049 -3.23476 4.25755 0
M  V30 8908 H 845.392 -3.29365 2.54606 0
M  V30 8909 H 845.925 -1.88871 3.50103 0
M  V30 8910 H 842.664 -1.26194 6.43238 0
M  V30 8911 H 842.184 -2.62363 5.39375 0
M  V30 8912 H 843.863 -2.48807 5.97247 0
M  V30 8913 N 843.995 -1.47404 -0.557645 0
M  V30 8914 C 844.925 -1.62736 -1.67449 0
M  V30 8915 C 845.906 -0.476824 -1.6328 0
M  V30 8916 O 847.091 -0.706108 -1.80908 0
M  V30 8917 C 844.221 -1.641 -3.06086 0
M  V30 8918 C 843.175 -2.78377 -3.25101 0
M  V30 8919 C 842.501 -2.64812 -4.6452 0
M  V30 8920 C 843.801 -4.19971 -3.10518 0
M  V30 8921 H 845.495 -2.56232 -1.54873 0
M  V30 8922 H 843.041 -1.23312 -0.743649 0
M  V30 8923 H 844.994 -1.73417 -3.84063 0
M  V30 8924 H 843.718 -0.671652 -3.19619 0
M  V30 8925 H 842.377 -2.6857 -2.49531 0
M  V30 8926 H 842.025 -1.65906 -4.74852 0
M  V30 8927 H 841.725 -3.41477 -4.78191 0
M  V30 8928 H 843.249 -2.76057 -5.44633 0
M  V30 8929 H 844.663 -4.30757 -3.78313 0
M  V30 8930 H 843.06 -4.97419 -3.35699 0
M  V30 8931 H 844.13 -4.38369 -2.0727 0
M  V30 8932 N 845.473 0.80434 -1.35529 0
M  V30 8933 C 846.383 1.94784 -1.30753 0
M  V30 8934 C 847.399 1.72703 -0.212071 0
M  V30 8935 O 848.575 1.96494 -0.441841 0
M  V30 8936 C 845.64 3.29406 -1.08133 0
M  V30 8937 C 844.701 3.64367 -2.27013 0
M  V30 8938 C 843.934 4.92566 -2.05463 0
M  V30 8939 O 844.157 5.61166 -1.02222 0
M  V30 8940 O 843.091 5.25838 -2.92879 0
M  V30 8941 H 846.917 2.01761 -2.26994 0
M  V30 8942 H 844.502 0.942448 -1.15924 0
M  V30 8943 H 846.384 4.09995 -0.973756 0
M  V30 8944 H 845.059 3.23355 -0.149444 0
M  V30 8945 H 843.966 2.84146 -2.43335 0
M  V30 8946 H 845.299 3.75125 -3.18656 0
M  V30 8947 N 846.951 1.19563 1.02676 0
M  V30 8948 C 848.197 1.00105 1.76371 0
M  V30 8949 C 848.53 -0.466823 1.88506 0
M  V30 8950 O 847.805 -1.34665 1.40341 0
M  V30 8951 C 848.088 1.67321 3.18866 0
M  V30 8952 C 847.941 3.21486 3.1459 0
M  V30 8953 C 849.26 1.39794 4.17308 0
M  V30 8954 H 846.379 0.365075 0.640226 0
M  V30 8955 H 849.021 1.47433 1.19848 0
M  V30 8956 H 847.171 1.27081 3.67128 0
M  V30 8957 H 848.843 3.70953 2.7421 0
M  V30 8958 H 847.086 3.5292 2.52249 0
M  V30 8959 H 847.757 3.63665 4.15273 0
M  V30 8960 H 850.233 1.74685 3.77657 0
M  V30 8961 H 849.109 1.89371 5.15199 0
M  V30 8962 H 849.37 0.323505 4.40915 0
M  V30 8963 N 848.429 -1.21819 0.999893 0
M  V30 8964 C 849.359 -2.26282 0.576096 0
M  V30 8965 C 850.34 -1.65317 -0.400537 0
M  V30 8966 O 851.525 -1.92028 -0.28964 0
M  V30 8967 C 848.655 -3.47147 -0.103145 0
M  V30 8968 C 847.609 -4.20594 0.792745 0
M  V30 8969 C 846.935 -5.34696 -0.0198026 0
M  V30 8970 C 848.235 -4.78533 2.09293 0
M  V30 8971 H 849.929 -2.61984 1.4493 0
M  V30 8972 H 847.475 -1.25935 0.698316 0
M  V30 8973 H 849.428 -4.1939 -0.411068 0
M  V30 8974 H 848.152 -3.1056 -1.01094 0
M  V30 8975 H 846.811 -3.50194 1.08442 0
M  V30 8976 H 846.459 -4.94352 -0.928729 0
M  V30 8977 H 846.159 -5.84764 0.576661 0
M  V30 8978 H 847.683 -6.09752 -0.321659 0
M  V30 8979 H 849.097 -5.42682 1.8485 0
M  V30 8980 H 847.494 -5.38968 2.63881 0
M  V30 8981 H 848.564 -3.98197 2.76708 0
M  V30 8982 N 849.908 -0.773975 -1.37286 0
M  V30 8983 C 850.858 -0.135245 -2.27599 0
M  V30 8984 C 851.842 0.671691 -1.46209 0
M  V30 8985 O 853.034 0.534299 -1.68743 0
M  V30 8986 C 850.163 0.741298 -3.35201 0
M  V30 8987 C 849.249 -0.0735896 -4.24036 0
M  V30 8988 N 849.64 -1.12035 -4.93236 0
M  V30 8989 C 847.938 0.150038 -4.45748 0
M  V30 8990 C 848.639 -1.61512 -5.58828 0
M  V30 8991 N 847.615 -0.926922 -5.35639 0
M  V30 8992 H 851.417 -0.936646 -2.78575 0
M  V30 8993 H 848.931 -0.611944 -1.50429 0
M  V30 8994 H 850.928 1.21468 -3.98812 0
M  V30 8995 H 849.588 1.54142 -2.8578 0
M  V30 8996 H 850.599 -1.50253 -4.95625 0
M  V30 8997 H 847.276 0.921891 -4.07195 0
M  V30 8998 H 848.666 -2.48818 -6.24131 0
M  V30 8999 N 851.386 1.48609 -0.524698 0
M  V30 9000 C 852.626 2.04398 0.00938367 0
M  V30 9001 C 852.99 1.39355 1.32077 0
M  V30 9002 O 854.191 1.86 1.94055 0
M  V30 9003 C 852.462 3.57148 0.134318 0
M  V30 9004 S 854.021 4.34409 0.619227 0
M  V30 9005 H 850.839 0.710936 -0.00953362 0
M  V30 9006 H 853.441 1.82382 -0.704058 0
M  V30 9007 H 852.145 4.02022 -0.825027 0
M  V30 9008 H 851.676 3.83607 0.872296 0
M  V30 9009 H 853.691 4.59017 1.88462 0
M  V30 9010 N 852.864 0.259585 1.55447 0
M  V30 9011 C 854.11 -0.362143 1.9954 0
M  V30 9012 C 854.443 -1.5666 1.14767 0
M  V30 9013 O 853.718 -1.93319 0.214025 0
M  V30 9014 C 854.001 -0.759588 3.51998 0
M  V30 9015 C 853.854 0.451134 4.47532 0
M  V30 9016 C 855.173 -1.60186 4.09913 0
M  V30 9017 H 852.292 -0.130157 0.725416 0
M  V30 9018 H 854.934 0.363431 1.86492 0
M  V30 9019 H 853.084 -1.3778 3.63248 0
M  V30 9020 H 854.756 1.08965 4.48246 0
M  V30 9021 H 852.999 1.092 4.19831 0
M  V30 9022 H 853.67 0.129518 5.51848 0
M  V30 9023 H 856.146 -1.0799 4.01842 0
M  V30 9024 H 855.022 -1.84879 5.16828 0
M  V30 9025 H 855.283 -2.57787 3.59163 0
M  V30 9026 N 854.342 -1.57594 -0.0133615 0
M  V30 9027 C 855.272 -2.10611 -1.00823 0
M  V30 9028 C 856.253 -1.01217 -1.36708 0
M  V30 9029 O 857.438 -1.28827 -1.45318 0
M  V30 9030 C 854.568 -2.59844 -2.30431 0
M  V30 9031 C 853.522 -3.73644 -2.08745 0
M  V30 9032 C 852.848 -4.09141 -3.4425 0
M  V30 9033 C 854.148 -5.01454 -1.46086 0
M  V30 9034 H 855.842 -2.93985 -0.566849 0
M  V30 9035 H 853.388 -1.41423 -0.271219 0
M  V30 9036 H 855.341 -2.95557 -3.00373 0
M  V30 9037 H 854.065 -1.73573 -2.76658 0
M  V30 9038 H 852.724 -3.38303 -1.41232 0
M  V30 9039 H 852.372 -3.19914 -3.88155 0
M  V30 9040 H 852.072 -4.85802 -3.3056 0
M  V30 9041 H 853.596 -4.47402 -4.15528 0
M  V30 9042 H 855.01 -5.35024 -2.05966 0
M  V30 9043 H 853.407 -5.82832 -1.42924 0
M  V30 9044 H 854.477 -4.83003 -0.428471 0
M  V30 9045 N 855.82 0.285905 -1.54985 0
M  V30 9046 C 857.066 1.02071 -1.75241 0
M  V30 9047 C 857.399 1.864 -0.544842 0
M  V30 9048 O 856.674 1.89034 0.457844 0
M  V30 9049 C 856.957 1.91409 -3.05016 0
M  V30 9050 C 856.81 1.10158 -4.36102 0
M  V30 9051 C 858.129 2.90335 -3.30747 0
M  V30 9052 H 855.248 0.369663 -0.637588 0
M  V30 9053 H 857.89 0.294114 -1.8771 0
M  V30 9054 H 856.04 2.53362 -2.94517 0
M  V30 9055 H 857.712 0.503756 -4.58541 0
M  V30 9056 H 855.955 0.404675 -4.31908 0
M  V30 9057 H 856.626 1.75956 -5.23205 0
M  V30 9058 H 859.102 2.38514 -3.40955 0
M  V30 9059 H 857.978 3.49997 -4.2284 0
M  V30 9060 H 858.239 3.64787 -2.49765 0
M  V30 9061 N 857.298 1.47698 0.54982 0
M  V30 9062 C 858.208 1.63386 1.68351 0
M  V30 9063 C 859.224 0.516583 1.66155 0
M  V30 9064 O 860.4 0.785088 1.85468 0
M  V30 9065 C 857.465 1.6513 3.04849 0
M  V30 9066 C 856.526 2.88338 3.18056 0
M  V30 9067 C 855.759 2.8999 4.48042 0
M  V30 9068 O 855.982 2.00633 5.3395 0
M  V30 9069 O 854.916 3.81938 4.65196 0
M  V30 9070 H 858.742 2.59329 1.58057 0
M  V30 9071 H 856.327 1.30869 0.72067 0
M  V30 9072 H 858.209 1.68913 3.86065 0
M  V30 9073 H 856.884 0.723555 3.1551 0
M  V30 9074 H 855.791 2.90097 2.36209 0
M  V30 9075 H 857.124 3.80431 3.12302 0
M  V30 9076 N 858.776 -0.797141 1.35954 0
M  V30 9077 C 860.001 -1.59097 1.33053 0
M  V30 9078 C 860.426 -1.87897 -0.0874592 0
M  V30 9079 O 859.784 -1.47291 -1.05712 0
M  V30 9080 C 859.832 -2.89346 2.152 0
M  V30 9081 O 858.936 -3.826 1.5392 0
M  V30 9082 H 858.277 -0.482895 0.45575 0
M  V30 9083 H 860.807 -0.988633 1.79129 0
M  V30 9084 H 860.817 -3.38686 2.27499 0
M  V30 9085 H 859.492 -2.6771 3.18283 0
M  V30 9086 H 858.069 -3.41174 1.50516 0
M  V30 9087 N 860.254 -1.20106 -1.0204 0
M  V30 9088 C 861.665 -1.00992 -1.57027 0
M  V30 9089 C 862.016 0.434782 -1.91322 0
M  V30 9090 O 861.141 1.31557 -1.71819 0
M  V30 9091 C 861.736 -1.82697 -2.85319 0
M  V30 9092 C 860.295 -1.67959 -3.36848 0
M  V30 9093 C 859.442 -1.80868 -2.10195 0
M  V30 9094 H 862.393 -1.34354 -0.844676 0
M  V30 9095 H 862.414 -1.32809 -3.5657 0
M  V30 9096 H 861.926 -2.87839 -2.60328 0
M  V30 9097 H 860.027 -0.654389 -3.66809 0
M  V30 9098 H 860.14 -2.49006 -4.09308 0
M  V30 9099 H 858.504 -1.24015 -2.22469 0
M  V30 9100 H 859.287 -2.87486 -1.87635 0
M  V30 9101 N 861.732 1.21287 -1.00634 0
M  V30 9102 C 862.642 2.27388 -0.577226 0
M  V30 9103 C 863.658 1.69791 0.380399 0
M  V30 9104 O 864.834 1.99918 0.2439 0
M  V30 9105 C 861.899 3.46588 0.0880532 0
M  V30 9106 C 860.96 4.19453 -0.914222 0
M  V30 9107 C 860.193 5.32962 -0.280596 0
M  V30 9108 O 860.416 5.62895 0.922265 0
M  V30 9109 O 859.35 5.93666 -0.992196 0
M  V30 9110 H 863.176 2.66289 -1.46028 0
M  V30 9111 H 860.761 1.2771 -0.775283 0
M  V30 9112 H 862.643 4.18881 0.460094 0
M  V30 9113 H 861.318 3.09585 0.945461 0
M  V30 9114 H 860.225 3.49376 -1.33744 0
M  V30 9115 H 861.558 4.6037 -1.74126 0
M  V30 9116 N 863.21 0.781244 1.36873 0
M  V30 9117 C 864.173 0.180094 2.28491 0
M  V30 9118 C 865.173 -0.617798 1.48458 0
M  V30 9119 O 866.363 -0.439991 1.68552 0
M  V30 9120 C 863.495 -0.751741 3.32508 0
M  V30 9121 H 864.688 0.987837 2.83164 0
M  V30 9122 H 862.241 0.550102 1.463 0
M  V30 9123 H 862.976 -1.58413 2.82977 0
M  V30 9124 H 862.761 -0.181649 3.91679 0
M  V30 9125 H 864.251 -1.16748 4.00949 0
M  V30 9126 N 864.689 -1.48329 0.532571 0
M  V30 9127 C 865.619 -2.32485 -0.217511 0
M  V30 9128 C 866.6 -1.42255 -0.932598 0
M  V30 9129 O 867.785 -1.7114 -0.917873 0
M  V30 9130 C 864.915 -3.23509 -1.26329 0
M  V30 9131 C 863.869 -4.22784 -0.666191 0
M  V30 9132 C 863.195 -5.0296 -1.81482 0
M  V30 9133 C 864.495 -5.21031 0.363813 0
M  V30 9134 H 866.189 -2.95445 0.485014 0
M  V30 9135 H 863.735 -1.42075 0.234694 0
M  V30 9136 H 865.688 -3.81211 -1.79601 0
M  V30 9137 H 864.412 -2.58554 -1.99543 0
M  V30 9138 H 863.071 -3.66272 -0.15498 0
M  V30 9139 H 862.719 -4.34427 -2.5354 0
M  V30 9140 H 862.419 -5.70154 -1.4212 0
M  V30 9141 H 863.943 -5.63514 -2.35126 0
M  V30 9142 H 865.357 -5.73241 -0.0819079 0
M  V30 9143 H 863.754 -5.96292 0.674956 0
M  V30 9144 H 864.824 -4.6801 1.26865 0
M  V30 9145 N 866.167 -0.267825 -1.55308 0
M  V30 9146 C 867.115 0.638848 -2.23655 0
M  V30 9147 C 868.109 1.16363 -1.2311 0
M  V30 9148 O 869.315 1.1181 -1.41062 0
M  V30 9149 H 865.69 0.224551 -0.717691 0
M  V30 9150 H 867.661 0.0394809 -2.98374 0
M  V30 9151 C 866.41 1.8151 -2.96562 0
M  V30 9152 H 865.733 1.42048 -3.73715 0
M  V30 9153 H 867.173 2.42629 -3.47717 0
M  V30 9154 C 865.632 2.69911 -2.01618 0
M  V30 9155 O 866.162 3.70058 -1.56268 0
M  V30 9156 N 864.368 2.36924 -1.68272 0
M  V30 9157 H 863.915 1.55533 -2.05347 0
M  V30 9158 H 863.873 2.96343 -1.05016 0
M  V30 9159 N 867.645 1.57599 0.00500368 0
M  V30 9160 C 868.894 1.89528 0.690061 0
M  V30 9161 C 869.207 0.869451 1.75214 0
M  V30 9162 O 870.413 1.07879 2.49147 0
M  V30 9163 C 868.869 3.36425 1.27852 0
M  V30 9164 C 868.477 4.47293 0.251531 0
M  V30 9165 C 870.221 3.77471 1.94206 0
M  V30 9166 C 868.128 5.85264 0.8497 0
M  V30 9167 H 867.058 0.707201 0.2615 0
M  V30 9168 H 869.709 1.83418 -0.0547209 0
M  V30 9169 H 868.091 3.37356 2.07381 0
M  V30 9170 H 869.265 4.5787 -0.518796 0
M  V30 9171 H 867.58 4.15235 -0.311281 0
M  V30 9172 H 870.177 4.77884 2.39855 0
M  V30 9173 H 870.52 3.10722 2.77051 0
M  V30 9174 H 871.053 3.78817 1.21419 0
M  V30 9175 H 867.792 6.55472 0.0601408 0
M  V30 9176 H 867.312 5.78361 1.5893 0
M  V30 9177 H 868.991 6.32762 1.34984 0
M  V30 9178 N 869.123 -0.277682 1.55134 0
M  V30 9179 C 870.372 -1.00766 1.74726 0
M  V30 9180 C 870.685 -1.87617 0.553092 0
M  V30 9181 O 871.891 -2.64058 0.631318 0
M  V30 9182 C 870.347 -1.84147 3.09221 0
M  V30 9183 C 869.955 -1.02186 4.3619 0
M  V30 9184 C 871.699 -2.56604 3.38164 0
M  V30 9185 C 869.606 -1.84978 5.61727 0
M  V30 9186 H 868.536 -0.379948 0.651273 0
M  V30 9187 H 871.187 -0.263543 1.81598 0
M  V30 9188 H 869.569 -2.62637 2.96375 0
M  V30 9189 H 870.743 -0.281459 4.5994 0
M  V30 9190 H 869.058 -0.412054 4.14356 0
M  V30 9191 H 871.655 -3.18942 4.29162 0
M  V30 9192 H 871.998 -3.26647 2.58085 0
M  V30 9193 H 872.531 -1.85147 3.52087 0
M  V30 9194 H 869.27 -1.19365 6.4454 0
M  V30 9195 H 868.79 -2.56628 5.42128 0
M  V30 9196 H 870.469 -2.42458 5.99853 0
M  V30 9197 N 870.601 -1.47988 -0.541979 0
M  V30 9198 C 871.548 -1.61615 -1.6477 0
M  V30 9199 C 872.518 -0.458602 -1.59644 0
M  V30 9200 O 873.703 -0.680585 -1.78249 0
M  V30 9201 C 870.843 -1.65066 -3.03063 0
M  V30 9202 C 869.956 -2.91845 -3.18513 0
M  V30 9203 C 869.091 -2.86534 -4.47294 0
M  V30 9204 C 868.13 -4.0807 -4.5623 0
M  V30 9205 N 867.267 -4.00905 -5.76385 0
M  V30 9206 H 872.107 -2.56046 -1.52461 0
M  V30 9207 H 869.644 -1.26989 -0.742449 0
M  V30 9208 H 871.602 -1.65049 -3.83164 0
M  V30 9209 H 870.232 -0.74136 -3.14171 0
M  V30 9210 H 869.284 -3.01661 -2.31743 0
M  V30 9211 H 870.596 -3.81804 -3.20978 0
M  V30 9212 H 869.75 -2.84851 -5.35672 0
M  V30 9213 H 868.489 -1.94283 -4.47332 0
M  V30 9214 H 867.494 -4.10041 -3.66261 0
M  V30 9215 H 868.719 -5.01465 -4.5794 0
M  V30 9216 H 866.665 -3.11467 -5.77342 0
M  V30 9217 H 866.582 -4.84557 -5.80293 0
M  V30 9218 H 867.85 -4.03263 -6.67083 0
M  V30 9219 N 872.079 0.78992 -1.36375 0
M  V30 9220 C 872.989 1.93386 -1.32812 0
M  V30 9221 C 874.005 1.72468 -0.230377 0
M  V30 9222 O 875.181 1.96014 -0.462657 0
M  V30 9223 C 872.246 3.2824 -1.11621 0
M  V30 9224 C 871.307 3.61939 -2.30865 0
M  V30 9225 C 870.54 4.90359 -2.10675 0
M  V30 9226 O 870.763 5.6005 -1.08168 0
M  V30 9227 O 869.697 5.22702 -2.9844 0
M  V30 9228 H 873.523 1.99342 -2.29121 0
M  V30 9229 H 871.108 0.9301 -1.16917 0
M  V30 9230 H 872.99 4.08939 -1.01719 0
M  V30 9231 H 871.665 3.23178 -0.183732 0
M  V30 9232 H 870.572 2.81549 -2.46335 0
M  V30 9233 H 871.905 3.71725 -3.22617 0
M  V30 9234 N 873.557 1.20646 1.01402 0
M  V30 9235 C 874.805 1.01618 1.74695 0
M  V30 9236 C 875.126 -0.452438 1.89679 0
M  V30 9237 O 874.396 -1.32693 1.44116 0
M  V30 9238 H 872.976 0.373013 0.647202 0
M  V30 9239 H 875.638 1.518 1.22241 0
M  V30 9240 H 874.734 1.47666 2.74957 0
M  V30 9241 N 875.035 -1.20752 1.01276 0
M  V30 9242 C 875.985 -2.21252 0.550602 0
M  V30 9243 C 876.969 -1.56052 -0.391985 0
M  V30 9244 O 878.161 -1.75682 -0.215575 0
M  V30 9245 C 875.29 -3.43112 -0.113601 0
M  V30 9246 C 874.376 -4.15485 0.850465 0
M  V30 9247 N 874.767 -4.64301 2.00643 0
M  V30 9248 C 873.065 -4.40932 0.670476 0
M  V30 9249 C 873.766 -5.197 2.61317 0
M  V30 9250 N 872.742 -5.09534 1.8941 0
M  V30 9251 H 876.544 -2.56657 1.43194 0
M  V30 9252 H 874.058 -1.36646 0.877597 0
M  V30 9253 H 876.055 -4.1433 -0.462211 0
M  V30 9254 H 874.715 -3.09213 -0.990825 0
M  V30 9255 H 875.726 -4.59637 2.38651 0
M  V30 9256 H 872.403 -4.17197 -0.159016 0
M  V30 9257 H 873.793 -5.67873 3.59123 0
M  V30 9258 N 876.513 -0.788492 -1.36457 0
M  V30 9259 C 877.762 -0.357052 -1.98515 0
M  V30 9260 C 878.075 1.0769 -1.63285 0
M  V30 9261 O 879.281 1.61057 -2.1857 0
M  V30 9262 C 877.737 -0.587449 -3.55073 0
M  V30 9263 C 877.345 -2.03276 -3.99228 0
M  V30 9264 C 879.089 -0.220468 -4.23927 0
M  V30 9265 C 876.996 -2.20987 -5.48561 0
M  V30 9266 H 875.926 -0.129762 -0.74275 0
M  V30 9267 H 878.577 -0.969995 -1.55767 0
M  V30 9268 H 876.959 0.0951918 -3.95886 0
M  V30 9269 H 878.133 -2.75173 -3.69617 0
M  V30 9270 H 876.448 -2.3579 -3.43208 0
M  V30 9271 H 879.045 -0.331085 -5.33674 0
M  V30 9272 H 879.388 0.831306 -4.07915 0
M  V30 9273 H 879.921 -0.856309 -3.88474 0
M  V30 9274 H 876.66 -3.24543 -5.69519 0
M  V30 9275 H 876.18 -1.53594 -5.79801 0
M  V30 9276 H 877.859 -2.01656 -6.14771 0
M  V30 9277 N 877.991 1.48044 -0.54043 0
M  V30 9278 C 878.938 2.29781 0.216597 0
M  V30 9279 C 879.908 1.38021 0.924094 0
M  V30 9280 O 881.093 1.66985 0.923078 0
M  V30 9281 C 878.233 3.21623 1.2511 0
M  V30 9282 C 877.346 4.28467 0.551384 0
M  V30 9283 C 876.481 5.07477 1.56972 0
M  V30 9284 C 875.52 6.06113 0.854048 0
M  V30 9285 N 874.657 6.78143 1.81842 0
M  V30 9286 H 879.497 2.94001 -0.486578 0
M  V30 9287 H 877.034 1.44929 -0.251789 0
M  V30 9288 H 878.992 3.73279 1.8633 0
M  V30 9289 H 877.622 2.59305 1.92252 0
M  V30 9290 H 876.674 3.79997 -0.174982 0
M  V30 9291 H 877.986 4.98799 -0.0100542 0
M  V30 9292 H 877.14 5.63199 2.25592 0
M  V30 9293 H 875.879 4.37008 2.16507 0
M  V30 9294 H 874.884 5.49585 0.153838 0
M  V30 9295 H 876.109 6.78584 0.264675 0
M  V30 9296 H 874.055 6.10417 2.40265 0
M  V30 9297 H 873.972 7.44587 1.3087 0
M  V30 9298 H 875.24 7.38448 2.49628 0
M  V30 9299 N 879.47 0.276058 1.55163 0
M  V30 9300 C 880.695 -0.346648 2.04483 0
M  V30 9301 C 881.12 -1.48613 1.15308 0
M  V30 9302 O 880.478 -1.80663 0.151875 0
M  V30 9303 C 880.526 -0.804268 3.51517 0
M  V30 9304 O 879.63 -1.91143 3.65429 0
M  V30 9305 H 878.971 -0.0715251 0.660136 0
M  V30 9306 H 881.501 0.410631 2.00437 0
M  V30 9307 H 881.511 -1.09977 3.92898 0
M  V30 9308 H 880.186 0.0294123 4.1589 0
M  V30 9309 H 878.763 -1.61839 3.3595 0
M  V30 9310 N 880.948 -1.576 0.00335426 0
M  V30 9311 C 882.197 -1.89892 -0.680001 0
M  V30 9312 C 882.51 -0.878731 -1.7475 0
M  V30 9313 O 883.716 -1.09199 -2.48572 0
M  V30 9314 C 882.172 -3.37098 -1.26066 0
M  V30 9315 C 881.78 -4.4742 -0.227807 0
M  V30 9316 C 883.524 -3.78495 -1.92202 0
M  V30 9317 C 881.431 -5.85706 -0.81865 0
M  V30 9318 H 880.361 -0.708578 -0.257746 0
M  V30 9319 H 883.012 -1.83387 0.0644472 0
M  V30 9320 H 881.394 -3.38451 -2.05589 0
M  V30 9321 H 882.568 -4.57589 0.54307 0
M  V30 9322 H 880.883 -4.15064 0.333297 0
M  V30 9323 H 883.48 -4.7915 -2.37318 0
M  V30 9324 H 883.823 -3.12187 -2.75399 0
M  V30 9325 H 884.356 -3.79456 -1.19408 0
M  V30 9326 H 881.095 -6.55495 -0.0253787 0
M  V30 9327 H 880.615 -5.79196 -1.55861 0
M  V30 9328 H 882.294 -6.33469 -1.31627 0
M  V30 9329 N 882.426 0.269451 -1.5528 0
M  V30 9330 C 883.675 0.998381 -1.75258 0
M  V30 9331 C 883.988 1.87321 -0.563034 0
M  V30 9332 O 885.194 2.63719 -0.645313 0
M  V30 9333 C 883.65 1.82505 -3.10193 0
M  V30 9334 C 883.258 0.99871 -4.36726 0
M  V30 9335 C 885.002 2.54807 -3.3952 0
M  V30 9336 C 882.909 1.81997 -5.627 0
M  V30 9337 H 881.839 0.376488 -0.653278 0
M  V30 9338 H 884.49 0.253909 -1.81735 0
M  V30 9339 H 882.872 2.61061 -2.97763 0
M  V30 9340 H 884.046 0.257064 -4.60082 0
M  V30 9341 H 882.361 0.390074 -4.14569 0
M  V30 9342 H 884.958 3.16662 -4.30847 0
M  V30 9343 H 885.301 3.25273 -2.59813 0
M  V30 9344 H 885.834 1.83278 -3.53064 0
M  V30 9345 H 882.573 1.15945 -6.45164 0
M  V30 9346 H 882.093 2.53749 -5.43481 0
M  V30 9347 H 883.772 2.39274 -6.0113 0
M  V30 9348 N 883.904 1.48273 0.534124 0
M  V30 9349 C 885.129 1.59988 1.31979 0
M  V30 9350 C 885.554 0.258824 1.86311 0
M  V30 9351 O 884.912 -0.768885 1.64188 0
M  V30 9352 C 884.96 2.64642 2.44943 0
M  V30 9353 O 884.064 2.21515 3.47858 0
M  V30 9354 H 883.405 0.536625 0.391063 0
M  V30 9355 H 885.935 1.94229 0.643135 0
M  V30 9356 H 885.945 2.85786 2.91187 0
M  V30 9357 H 884.62 3.62004 2.04758 0
M  V30 9358 H 883.197 2.10567 3.0776 0
M  V30 9359 N 885.382 -0.782676 1.36792 0
M  V30 9360 C 886.312 -1.90973 1.34356 0
M  V30 9361 C 887.293 -1.6875 0.213917 0
M  V30 9362 O 888.478 -1.89766 0.412601 0
M  V30 9363 C 885.608 -3.28097 1.13884 0
M  V30 9364 C 884.562 -3.6486 2.23744 0
M  V30 9365 C 883.888 -5.00406 1.88408 0
M  V30 9366 C 885.188 -3.72742 3.6587 0
M  V30 9367 H 886.882 -1.93268 2.28665 0
M  V30 9368 H 884.428 -0.928447 1.10072 0
M  V30 9369 H 886.381 -4.06569 1.10813 0
M  V30 9370 H 885.105 -3.26206 0.160275 0
M  V30 9371 H 883.764 -2.88689 2.25952 0
M  V30 9372 H 883.412 -4.95044 0.891083 0
M  V30 9373 H 883.112 -5.25973 2.61966 0
M  V30 9374 H 884.636 -5.81291 1.86905 0
M  V30 9375 H 886.05 -4.4139 3.65852 0
M  V30 9376 H 884.447 -4.09798 4.38389 0
M  V30 9377 H 885.517 -2.73676 4.00287 0
M  V30 9378 N 886.86 -1.21182 -1.00761 0
M  V30 9379 C 887.79 -0.992773 -2.11344 0
M  V30 9380 C 888.771 0.0813618 -1.69905 0
M  V30 9381 O 889.956 -0.0779503 -1.94043 0
M  V30 9382 C 887.086 -0.553826 -3.42856 0
M  V30 9383 C 886.04 -1.57223 -3.98077 0
M  V30 9384 C 885.366 -0.989605 -5.25463 0
M  V30 9385 C 886.666 -2.95839 -4.30438 0
M  V30 9386 H 888.36 -1.91766 -2.29927 0
M  V30 9387 H 885.906 -0.923426 -1.10494 0
M  V30 9388 H 887.859 -0.387771 -4.19612 0
M  V30 9389 H 886.583 0.406702 -3.24058 0
M  V30 9390 H 885.242 -1.7258 -3.23437 0
M  V30 9391 H 884.89 -0.0208743 -5.02996 0
M  V30 9392 H 884.59 -1.66984 -5.63374 0
M  V30 9393 H 886.114 -0.834815 -6.04866 0
M  V30 9394 H 887.528 -2.8394 -4.98047 0
M  V30 9395 H 885.925 -3.60851 -4.79486 0
M  V30 9396 H 886.995 -3.46882 -3.38823 0
M  V30 9397 N 888.338 1.20213 -1.01915 0
M  V30 9398 C 889.615 1.85348 -0.62495 0
M  V30 9399 C 889.995 1.91101 0.896854 0
M  V30 9400 O 889.343 1.42075 1.78961 0
M  V30 9401 C 889.553 3.24849 -1.27571 0
M  V30 9402 C 890.901 4.01107 -1.39277 0
M  V30 9403 O 891.925 3.34211 -1.23212 0
M  V30 9404 O 890.784 5.20914 -1.6526 0
M  V30 9405 H 887.878 0.798303 -0.215965 0
M  V30 9406 H 890.424 1.27782 -1.11669 0
M  V30 9407 H 889.196 3.1544 -2.31545 0
M  V30 9408 H 888.819 3.90049 -0.77122 0
M  V30 9409 N 889.816 0.795718 1.36037 0
M  V30 9410 C 890.763 0.196548 2.29962 0
M  V30 9411 C 891.733 -0.663213 1.52285 0
M  V30 9412 O 892.918 -0.610574 1.80767 0
M  V30 9413 C 890.058 -0.657639 3.38776 0
M  V30 9414 C 889.171 0.221358 4.31433 0
M  V30 9415 C 888.306 -0.6398 5.27333 0
M  V30 9416 C 887.345 0.240265 6.11628 0
M  V30 9417 N 886.482 -0.580237 6.99698 0
M  V30 9418 H 891.322 1.00295 2.80615 0
M  V30 9419 H 888.859 0.506147 1.38118 0
M  V30 9420 H 890.817 -1.16793 4.00519 0
M  V30 9421 H 889.447 -1.42941 2.89426 0
M  V30 9422 H 888.499 0.84967 3.70789 0
M  V30 9423 H 889.811 0.899195 4.90628 0
M  V30 9424 H 888.965 -1.21566 5.94396 0
M  V30 9425 H 887.704 -1.35124 4.68607 0
M  V30 9426 H 886.709 0.828474 5.43522 0
M  V30 9427 H 887.934 0.949403 6.72431 0
M  V30 9428 H 885.88 -1.27585 6.43473 0
M  V30 9429 H 885.797 0.0397853 7.5599 0
M  V30 9430 H 887.065 -1.13972 7.71123 0
M  V30 9431 N 891.294 -1.47756 0.548274 0
M  V30 9432 C 892.244 -2.26891 -0.224628 0
M  V30 9433 C 893.228 -1.33816 -0.893421 0
M  V30 9434 O 894.42 -1.58232 -0.793204 0
M  V30 9435 C 891.549 -3.19358 -1.25959 0
M  V30 9436 C 890.635 -4.1991 -0.594662 0
M  V30 9437 N 891.026 -5.04721 0.330148 0
M  V30 9438 C 889.324 -4.37832 -0.849672 0
M  V30 9439 C 890.025 -5.77282 0.71553 0
M  V30 9440 N 889.001 -5.43552 0.0723997 0
M  V30 9441 H 892.803 -2.89844 0.486561 0
M  V30 9442 H 890.317 -1.58185 0.367577 0
M  V30 9443 H 892.314 -3.74726 -1.82718 0
M  V30 9444 H 890.974 -2.57961 -1.97196 0
M  V30 9445 H 891.985 -5.13095 0.703811 0
M  V30 9446 H 888.662 -3.87612 -1.55123 0
M  V30 9447 H 890.052 -6.55512 1.47493 0
M  V30 9448 N 892.772 -0.284283 -1.55015 0
M  V30 9449 C 894.02 0.329212 -1.99401 0
M  V30 9450 C 894.341 1.55687 -1.17416 0
M  V30 9451 O 893.611 1.94087 -0.265937 0
M  V30 9452 H 892.191 0.12463 -0.73653 0
M  V30 9453 H 894.853 -0.391743 -1.90922 0
M  V30 9454 H 893.949 0.61278 -3.06025 0
M  V30 9455 N 894.251 1.57596 -0.0117121 0
M  V30 9456 C 895.667 1.55837 0.344506 0
M  V30 9457 C 895.867 1.01557 1.74036 0
M  V30 9458 O 894.923 0.654563 2.43868 0
M  V30 9459 C 896.236 2.99973 0.209023 0
M  V30 9460 C 897.784 3.11717 0.283092 0
M  V30 9461 C 898.259 4.57659 0.176599 0
M  V30 9462 N 899.75 4.62608 0.234133 0
M  V30 9463 C 900.485 5.73132 0.175252 0
M  V30 9464 N 899.981 6.92768 0.0662888 0
M  V30 9465 N 901.774 5.61638 0.227972 0
M  V30 9466 H 893.925 1.91215 -0.924692 0
M  V30 9467 H 896.188 0.878807 -0.355531 0
M  V30 9468 H 895.894 3.4357 -0.751826 0
M  V30 9469 H 895.768 3.64075 0.98635 0
M  V30 9470 H 898.155 2.68043 1.23439 0
M  V30 9471 H 898.236 2.50369 -0.52431 0
M  V30 9472 H 897.88 5.02011 -0.771205 0
M  V30 9473 H 897.81 5.16967 1.00264 0
M  V30 9474 H 900.301 3.76549 0.319203 0
M  V30 9475 H 900.614 7.72795 0.0275765 0
M  V30 9476 H 898.959 6.94993 0.0317502 0
M  V30 9477 H 902.15 4.67063 0.311377 0
M  V30 9478 H 902.323 6.47754 0.178621 0
M  V30 9479 N 895.729 -0.261212 1.5542 0
M  V30 9480 C 896.677 -1.34298 1.89913 0
M  V30 9481 C 897.671 -1.50547 0.776665 0
M  V30 9482 O 898.877 -1.52191 0.961139 0
M  V30 9483 H 895.252 -0.4494 0.602946 0
M  V30 9484 H 897.223 -1.02464 2.80256 0
M  V30 9485 C 895.972 -2.69423 2.19788 0
M  V30 9486 H 895.295 -2.57715 3.05652 0
M  V30 9487 H 896.735 -3.44026 2.47835 0
M  V30 9488 C 895.194 -3.21423 1.00939 0
M  V30 9489 O 895.724 -4.00921 0.250034 0
M  V30 9490 N 893.93 -2.7926 0.803883 0
M  V30 9491 H 893.477 -2.14724 1.42308 0
M  V30 9492 H 893.435 -3.14398 0.0103257 0
M  V30 9493 N 897.207 -1.48554 -0.526253 0
M  V30 9494 C 898.157 -1.59753 -1.62674 0
M  V30 9495 C 899.141 -0.454452 -1.54349 0
M  V30 9496 O 900.333 -0.706091 -1.62306 0
M  V30 9497 C 897.462 -1.64388 -3.01383 0
M  V30 9498 C 896.548 -2.84188 -3.14798 0
M  V30 9499 N 896.939 -4.08564 -2.98176 0
M  V30 9500 C 895.237 -2.81599 -3.45859 0
M  V30 9501 C 895.938 -4.88961 -3.15106 0
M  V30 9502 N 894.914 -4.21848 -3.42849 0
M  V30 9503 H 898.716 -2.5366 -1.48438 0
M  V30 9504 H 896.23 -1.44977 -0.731801 0
M  V30 9505 H 898.227 -1.70505 -3.80439 0
M  V30 9506 H 896.887 -0.716006 -3.16707 0
M  V30 9507 H 897.898 -4.38943 -2.74862 0
M  V30 9508 H 894.575 -1.98083 -3.67518 0
M  V30 9509 H 895.965 -5.97683 -3.0696 0
M  V30 9510 N 898.685 0.775411 -1.37205 0
M  V30 9511 C 899.632 1.88857 -1.32671 0
M  V30 9512 C 900.602 1.64976 -0.192899 0
M  V30 9513 O 901.787 1.86944 -0.381673 0
M  V30 9514 C 898.927 3.25871 -1.13588 0
M  V30 9515 C 898.04 3.61731 -2.36167 0
M  V30 9516 C 897.175 4.87934 -2.09985 0
M  V30 9517 C 896.214 5.16514 -3.2845 0
M  V30 9518 N 895.351 6.33905 -3.01842 0
M  V30 9519 H 900.191 1.92068 -2.27846 0
M  V30 9520 H 897.728 0.939066 -1.13225 0
M  V30 9521 H 899.686 4.04903 -1.00546 0
M  V30 9522 H 898.316 3.22045 -0.220613 0
M  V30 9523 H 897.368 2.77712 -2.59962 0
M  V30 9524 H 898.68 3.78792 -3.24528 0
M  V30 9525 H 897.834 5.74863 -1.93953 0
M  V30 9526 H 896.573 4.7297 -1.18956 0
M  V30 9527 H 895.578 4.28063 -3.45025 0
M  V30 9528 H 896.803 5.33389 -4.20325 0
M  V30 9529 H 894.749 6.20306 -2.13439 0
M  V30 9530 H 894.666 6.51364 -3.83746 0
M  V30 9531 H 895.934 7.23779 -2.8942 0
M  V30 9532 N 900.163 1.21714 1.00117 0
M  V30 9533 C 901.409 1.03823 1.74208 0
M  V30 9534 C 901.742 -0.426733 1.89454 0
M  V30 9535 O 901.017 -1.31658 1.43166 0
M  V30 9536 C 901.3 1.74047 3.15246 0
M  V30 9537 C 901.153 3.28087 3.077 0
M  V30 9538 C 902.472 1.48614 4.14249 0
M  V30 9539 H 899.591 0.378573 0.632338 0
M  V30 9540 H 902.233 1.49942 1.16694 0
M  V30 9541 H 900.383 1.3484 3.64349 0
M  V30 9542 H 902.055 3.76686 2.6628 0
M  V30 9543 H 900.298 3.58191 2.44707 0
M  V30 9544 H 900.969 3.72392 4.07466 0
M  V30 9545 H 903.445 1.82656 3.73866 0
M  V30 9546 H 902.321 2.00257 5.11066 0
M  V30 9547 H 902.582 0.416957 4.40129 0
M  V30 9548 N 901.641 -1.19671 1.02551 0
M  V30 9549 C 902.571 -2.25009 0.623965 0
M  V30 9550 C 903.552 -1.66129 -0.36538 0
M  V30 9551 O 904.737 -1.92599 -0.248842 0
M  V30 9552 C 901.867 -3.47287 -0.0294869 0
M  V30 9553 C 900.821 -4.18818 0.881781 0
M  V30 9554 C 900.147 -5.34618 0.0936189 0
M  V30 9555 C 901.447 -4.73986 2.19396 0
M  V30 9556 H 903.141 -2.58851 1.50454 0
M  V30 9557 H 900.687 -1.24425 0.724872 0
M  V30 9558 H 902.64 -4.20168 -0.322016 0
M  V30 9559 H 901.364 -3.12635 -0.944838 0
M  V30 9560 H 900.023 -3.47815 1.15845 0
M  V30 9561 H 899.671 -4.9621 -0.823661 0
M  V30 9562 H 899.371 -5.83409 0.700568 0
M  V30 9563 H 900.895 -6.10297 -0.192249 0
M  V30 9564 H 902.309 -5.38639 1.96319 0
M  V30 9565 H 900.706 -5.3325 2.75254 0
M  V30 9566 H 901.776 -3.92238 2.85092 0
M  V30 9567 N 903.119 -0.802921 -1.35613 0
M  V30 9568 C 904.396 -0.304993 -1.93208 0
M  V30 9569 C 904.776 1.20488 -1.73337 0
M  V30 9570 O 904.124 2.00268 -1.10022 0
M  V30 9571 C 904.334 -0.712383 -3.41652 0
M  V30 9572 C 905.682 -0.699785 -4.18794 0
M  V30 9573 O 906.706 -0.653698 -3.5015 0
M  V30 9574 O 905.565 -0.754842 -5.41262 0
M  V30 9575 H 902.659 -0.0789127 -0.823226 0
M  V30 9576 H 905.205 -0.886372 -1.44712 0
M  V30 9577 H 903.977 -1.75316 -3.49829 0
M  V30 9578 H 903.6 -0.105614 -3.9746 0
M  V30 9579 N 904.597 1.47463 -0.556102 0
M  V30 9580 C 905.843 2.02775 -0.0316806 0
M  V30 9581 C 906.176 1.42967 1.3143 0
M  V30 9582 O 905.451 0.584847 1.85499 0
M  V30 9583 C 905.734 3.60046 0.0625742 0
M  V30 9584 C 905.587 4.30288 -1.31043 0
M  V30 9585 C 906.906 4.33195 0.776553 0
M  V30 9586 H 904.025 0.736886 -0.0129869 0
M  V30 9587 H 906.667 1.75904 -0.718177 0
M  V30 9588 H 904.817 3.83071 0.647231 0
M  V30 9589 H 906.489 4.18607 -1.9382 0
M  V30 9590 H 904.732 3.90685 -1.8854 0
M  V30 9591 H 905.403 5.38861 -1.1972 0
M  V30 9592 H 907.879 4.15156 0.280147 0
M  V30 9593 H 906.755 5.42869 0.81146 0
M  V30 9594 H 907.016 4.02336 1.83244 0
M  V30 9595 N 906.075 0.2925 1.54862 0
M  V30 9596 C 907.005 -0.580677 2.26165 0
M  V30 9597 C 907.986 -1.14485 1.25806 0
M  V30 9598 O 909.171 -1.17577 1.54562 0
M  V30 9599 C 906.301 -1.75668 2.99596 0
M  V30 9600 C 905.255 -1.32325 4.07031 0
M  V30 9601 C 904.581 -2.58374 4.68131 0
M  V30 9602 C 905.881 -0.460703 5.20264 0
M  V30 9603 H 907.575 0.0140075 2.99397 0
M  V30 9604 H 905.121 0.00817706 1.43998 0
M  V30 9605 H 907.074 -2.37356 3.48195 0
M  V30 9606 H 905.798 -2.37747 2.23928 0
M  V30 9607 H 904.457 -0.729477 3.59269 0
M  V30 9608 H 904.105 -3.18749 3.89112 0
M  V30 9609 H 903.805 -2.30078 5.40683 0
M  V30 9610 H 905.329 -3.2088 5.19489 0
M  V30 9611 H 906.743 -0.983037 5.64809 0
M  V30 9612 H 905.14 -0.271881 5.99484 0
M  V30 9613 H 906.21 0.516304 4.82143 0
M  V30 9614 N 907.553 -1.57587 0.0200696 0
M  V30 9615 C 908.793 -1.93287 -0.66479 0
M  V30 9616 C 909.157 -0.896022 -1.6981 0
M  V30 9617 O 910.358 -1.13892 -2.43479 0
M  V30 9618 C 908.629 -3.33949 -1.27328 0
M  V30 9619 S 910.188 -3.91564 -1.98047 0
M  V30 9620 H 907.006 -0.676397 -0.219106 0
M  V30 9621 H 909.608 -1.9533 0.081568 0
M  V30 9622 H 908.312 -4.07235 -0.508673 0
M  V30 9623 H 907.843 -3.35329 -2.05714 0
M  V30 9624 H 909.858 -3.74265 -3.25791 0
M  V30 9625 N 909.032 0.252966 -1.55557 0
M  V30 9626 C 910.257 1.0038 -1.8149 0
M  V30 9627 C 910.682 1.78397 -0.596318 0
M  V30 9628 O 910.04 1.7551 0.454535 0
M  V30 9629 C 910.088 1.9222 -3.05096 0
M  V30 9630 O 909.192 3.01302 -2.81587 0
M  V30 9631 H 908.533 0.285949 -0.599274 0
M  V30 9632 H 911.063 0.275795 -2.02733 0
M  V30 9633 H 911.073 2.338 -3.34368 0
M  V30 9634 H 909.748 1.34852 -3.93431 0
M  V30 9635 H 908.325 2.63894 -2.63466 0
M  V30 9636 N 910.51 1.48831 0.518367 0
M  V30 9637 C 911.44 1.67119 1.63075 0
M  V30 9638 C 912.421 0.519948 1.61958 0
M  V30 9639 O 913.606 0.753824 1.78972 0
M  V30 9640 C 910.736 1.72158 3.01627 0
M  V30 9641 C 909.69 2.86898 3.17606 0
M  V30 9642 C 909.016 2.77035 4.57335 0
M  V30 9643 C 910.316 4.28057 2.99274 0
M  V30 9644 H 912.01 2.60248 1.48025 0
M  V30 9645 H 909.556 1.2524 0.710694 0
M  V30 9646 H 911.509 1.83539 3.7933 0
M  V30 9647 H 910.233 0.756157 3.17726 0
M  V30 9648 H 908.892 2.75091 2.42323 0
M  V30 9649 H 908.54 1.78438 4.70286 0
M  V30 9650 H 908.24 3.54036 4.6897 0
M  V30 9651 H 909.764 2.904 5.37122 0
M  V30 9652 H 911.178 4.40636 3.6676 0
M  V30 9653 H 909.575 5.06145 3.22393 0
M  V30 9654 H 910.645 4.4371 1.95574 0
M  V30 9655 N 911.988 -0.768124 1.37614 0
M  V30 9656 C 913.228 -1.53979 1.34424 0
M  V30 9657 C 913.592 -1.91874 -0.0696803 0
M  V30 9658 O 914.793 -2.67845 -0.22633 0
M  V30 9659 C 913.064 -2.76845 2.26034 0
M  V30 9660 S 914.623 -3.66871 2.4073 0
M  V30 9661 H 911.441 -0.527108 0.477157 0
M  V30 9662 H 914.043 -0.902945 1.73399 0
M  V30 9663 H 912.747 -2.47091 3.2768 0
M  V30 9664 H 912.278 -3.45486 1.88157 0
M  V30 9665 H 914.293 -4.6899 1.62057 0
M  V30 9666 N 913.466 -1.22244 -0.994698 0
M  V30 9667 C 914.712 -1.04746 -1.73655 0
M  V30 9668 C 915.045 0.41668 -1.89677 0
M  V30 9669 O 914.32 1.30897 -1.43862 0
M  V30 9670 C 914.603 -1.75716 -3.14318 0
M  V30 9671 C 914.456 -3.29714 -3.05955 0
M  V30 9672 C 915.775 -1.50809 -4.13455 0
M  V30 9673 H 912.894 -0.381921 -0.630322 0
M  V30 9674 H 915.536 -1.50559 -1.15897 0
M  V30 9675 H 913.686 -1.3677 -3.63629 0
M  V30 9676 H 915.358 -3.78093 -2.64279 0
M  V30 9677 H 913.601 -3.59484 -2.42804 0
M  V30 9678 H 914.272 -3.74547 -4.05485 0
M  V30 9679 H 916.748 -1.84636 -3.72892 0
M  V30 9680 H 915.624 -2.02964 -5.09997 0
M  V30 9681 H 915.885 -0.440292 -4.39902 0
M  V30 9682 N 914.944 1.19125 -1.03184 0
M  V30 9683 C 916.184 1.90582 -0.738785 0
M  V30 9684 C 916.548 1.78004 0.719627 0
M  V30 9685 O 917.749 2.44084 1.12589 0
M  V30 9686 C 916.02 3.37319 -1.18114 0
M  V30 9687 S 917.579 4.26962 -1.01238 0
M  V30 9688 H 914.397 0.6582 -0.268875 0
M  V30 9689 H 916.999 1.43999 -1.32229 0
M  V30 9690 H 915.703 3.43999 -2.23814 0
M  V30 9691 H 915.234 3.88935 -0.591051 0
M  V30 9692 H 917.249 4.96143 0.0753558 0
M  V30 9693 N 916.422 0.810101 1.35185 0
M  V30 9694 C 917.372 0.195541 2.2716 0
M  V30 9695 C 918.356 -0.632691 1.47939 0
M  V30 9696 O 919.548 -0.489372 1.701 0
M  V30 9697 C 916.677 -0.652164 3.37049 0
M  V30 9698 C 915.763 0.185989 4.23692 0
M  V30 9699 N 916.154 1.25073 4.90092 0
M  V30 9700 C 914.452 -0.0318033 4.45989 0
M  V30 9701 C 915.153 1.76272 5.54349 0
M  V30 9702 N 914.129 1.06861 5.32993 0
M  V30 9703 H 917.931 1.01018 2.75994 0
M  V30 9704 H 915.445 0.651612 1.48754 0
M  V30 9705 H 917.442 -1.10851 4.01893 0
M  V30 9706 H 916.102 -1.46511 2.89767 0
M  V30 9707 H 917.113 1.63341 4.91467 0
M  V30 9708 H 913.79 -0.813607 4.09496 0
M  V30 9709 H 915.18 2.65278 6.17315 0
M  V30 9710 N 917.9 -1.47166 0.563914 0
M  V30 9711 C 919.148 -2.02056 0.0422873 0
M  V30 9712 C 919.469 -1.43992 -1.31497 0
M  V30 9713 O 918.739 -0.617578 -1.85911 0
M  V30 9714 H 917.319 -0.746893 0.0126427 0
M  V30 9715 H 919.981 -1.80492 0.735441 0
M  V30 9716 H 919.077 -3.12073 -0.0408044 0
M  V30 9717 N 919.378 -0.300708 -1.54705 0
M  V30 9718 C 920.624 0.309111 -2.0043 0
M  V30 9719 C 920.957 1.53562 -1.1888 0
M  V30 9720 O 920.232 1.92683 -0.265205 0
M  V30 9721 C 920.515 0.665995 -3.53888 0
M  V30 9722 C 920.368 -0.56963 -4.46178 0
M  V30 9723 C 921.687 1.49262 -4.14016 0
M  V30 9724 H 918.806 0.110878 -0.728612 0
M  V30 9725 H 921.448 -0.412748 -1.85463 0
M  V30 9726 H 919.598 1.281 -3.66773 0
M  V30 9727 H 921.27 -1.20811 -4.45199 0
M  V30 9728 H 919.513 -1.20292 -4.16788 0
M  V30 9729 H 920.184 -0.275785 -5.51311 0
M  V30 9730 H 922.66 0.972979 -4.04564 0
M  V30 9731 H 921.536 1.71111 -5.21548 0
M  V30 9732 H 921.797 2.48174 -3.65872 0
M  V30 9733 N 920.856 1.57574 -0.0284266 0
M  V30 9734 C 921.819 2.09096 0.938691 0
M  V30 9735 C 922.819 1.00588 1.25454 0
M  V30 9736 O 924.009 1.2675 1.19499 0
M  V30 9737 C 921.141 2.55624 2.25542 0
M  V30 9738 H 922.334 2.95829 0.49248 0
M  V30 9739 H 919.887 1.5475 0.219594 0
M  V30 9740 H 920.622 1.72218 2.74793 0
M  V30 9741 H 920.407 3.34896 2.03929 0
M  V30 9742 H 921.897 2.95712 2.94863 0
M  V30 9743 N 922.334 -0.244713 1.55689 0
M  V30 9744 C 923.58 -0.973886 1.77886 0
M  V30 9745 C 923.913 -1.8489 0.594071 0
M  V30 9746 O 923.188 -1.90182 -0.407564 0
M  V30 9747 C 923.471 -1.83255 3.09983 0
M  V30 9748 C 923.324 -0.985571 4.3887 0
M  V30 9749 C 924.643 -2.81464 3.38329 0
M  V30 9750 H 921.762 -0.352629 0.647165 0
M  V30 9751 H 924.404 -0.244243 1.88424 0
M  V30 9752 H 922.554 -2.45464 3.01131 0
M  V30 9753 H 924.226 -0.382005 4.59716 0
M  V30 9754 H 922.469 -0.29002 4.32829 0
M  V30 9755 H 923.14 -1.62022 5.27686 0
M  V30 9756 H 925.616 -2.2939 3.47159 0
M  V30 9757 H 924.492 -3.38663 4.31971 0
M  V30 9758 H 924.753 -3.58037 2.59349 0
M  V30 9759 N 923.813 -1.49104 -0.510467 0
M  V30 9760 C 925.229 -1.35657 -0.840797 0
M  V30 9761 C 925.429 -0.382425 -1.97838 0
M  V30 9762 O 924.485 0.189331 -2.51789 0
M  V30 9763 C 925.798 -2.76155 -1.18992 0
M  V30 9764 C 927.346 -2.84786 -1.29868 0
M  V30 9765 C 927.821 -4.2603 -1.68115 0
M  V30 9766 N 929.312 -4.28796 -1.75181 0
M  V30 9767 C 930.047 -5.35041 -2.062 0
M  V30 9768 N 929.543 -6.51543 -2.35508 0
M  V30 9769 N 931.336 -5.2245 -2.07371 0
M  V30 9770 H 923.487 -2.11042 0.23982 0
M  V30 9771 H 925.75 -0.946946 0.0446824 0
M  V30 9772 H 925.456 -3.49092 -0.427484 0
M  V30 9773 H 925.33 -3.10922 -2.13558 0
M  V30 9774 H 927.717 -2.12092 -2.05186 0
M  V30 9775 H 927.798 -2.53613 -0.333758 0
M  V30 9776 H 927.442 -4.99247 -0.933512 0
M  V30 9777 H 927.372 -4.5466 -2.65691 0
M  V30 9778 H 929.863 -3.44771 -1.5473 0
M  V30 9779 H 930.176 -7.28342 -2.58337 0
M  V30 9780 H 928.521 -6.54785 -2.32985 0
M  V30 9781 H 931.712 -4.30444 -1.83945 0
M  V30 9782 H 931.885 -6.05347 -2.31212 0
M  V30 9783 N 925.291 0.760815 -1.38019 0
M  V30 9784 C 926.516 1.55513 -1.37224 0
M  V30 9785 C 926.941 1.88062 0.037611 0
M  V30 9786 O 926.299 1.50042 1.0177 0
M  V30 9787 C 926.347 2.83539 -2.22796 0
M  V30 9788 O 925.451 3.78384 -1.64009 0
M  V30 9789 H 924.792 0.470642 -0.468393 0
M  V30 9790 H 927.322 0.940792 -1.81687 0
M  V30 9791 H 927.332 3.32535 -2.36399 0
M  V30 9792 H 926.007 2.59178 -3.25269 0
M  V30 9793 H 924.584 3.37063 -1.59508 0
M  V30 9794 N 926.769 1.22769 0.988202 0
M  V30 9795 C 927.717 0.999271 2.10041 0
M  V30 9796 C 928.711 -0.0591767 1.69297 0
M  V30 9797 O 929.917 0.0936653 1.79756 0
M  V30 9798 H 926.292 0.30599 0.686931 0
M  V30 9799 H 928.263 1.94294 2.26478 0
M  V30 9800 C 927.012 0.59873 3.42506 0
M  V30 9801 H 926.335 1.40487 3.74304 0
M  V30 9802 H 927.775 0.478353 4.21293 0
M  V30 9803 C 926.234 -0.692216 3.29712 0
M  V30 9804 O 926.764 -1.74342 3.61895 0
M  V30 9805 N 924.97 -0.665163 2.82885 0
M  V30 9806 H 924.517 0.190604 2.56894 0
M  V30 9807 H 924.475 -1.52917 2.74706 0
M  V30 9808 N 928.247 -1.18576 1.03814 0
M  V30 9809 C 929.179 -2.21607 0.585055 0
M  V30 9810 C 930.192 -1.59125 -0.343963 0
M  V30 9811 O 931.381 -1.77959 -0.138882 0
M  V30 9812 C 928.481 -3.38495 -0.165602 0
M  V30 9813 C 927.654 -4.30557 0.770662 0
M  V30 9814 C 926.713 -5.26161 0.0637534 0
M  V30 9815 O 925.739 -5.64961 0.693359 0
M  V30 9816 N 926.941 -5.67882 -1.20377 0
M  V30 9817 H 929.706 -2.61104 1.47121 0
M  V30 9818 H 927.267 -1.33336 0.918316 0
M  V30 9819 H 929.259 -3.99474 -0.648292 0
M  V30 9820 H 927.829 -2.97711 -0.953268 0
M  V30 9821 H 927.049 -3.67221 1.43326 0
M  V30 9822 H 928.337 -4.88969 1.40667 0
M  V30 9823 H 927.735 -5.38409 -1.73586 0
M  V30 9824 H 926.292 -6.31069 -1.63079 0
M  V30 9825 N 929.725 -0.817259 -1.34754 0
M  V30 9826 C 930.675 -0.207585 -2.27053 0
M  V30 9827 C 931.659 0.624836 -1.48272 0
M  V30 9828 O 932.851 0.480344 -1.70358 0
M  V30 9829 C 929.98 0.634281 -3.3739 0
M  V30 9830 C 929.066 -0.208456 -4.23587 0
M  V30 9831 N 929.457 -1.2767 -4.89422 0
M  V30 9832 C 927.755 0.00815096 -4.45999 0
M  V30 9833 C 928.456 -1.79209 -5.53407 0
M  V30 9834 N 927.432 -1.09686 -5.32419 0
M  V30 9835 H 931.234 -1.0248 -2.75454 0
M  V30 9836 H 928.748 -0.659492 -1.48406 0
M  V30 9837 H 930.745 1.08718 -4.02475 0
M  V30 9838 H 929.405 1.44972 -2.90539 0
M  V30 9839 H 930.416 -1.65945 -4.90594 0
M  V30 9840 H 927.093 0.791879 -4.09921 0
M  V30 9841 H 928.483 -2.68548 -6.15899 0
M  V30 9842 N 931.203 1.46865 -0.571711 0
M  V30 9843 C 932.133 2.3298 0.155795 0
M  V30 9844 C 933.114 1.44678 0.894553 0
M  V30 9845 O 934.299 1.73513 0.872176 0
M  V30 9846 C 931.429 3.26745 1.17708 0
M  V30 9847 C 930.383 4.24401 0.553863 0
M  V30 9848 C 929.709 5.07595 1.68083 0
M  V30 9849 C 931.009 5.19884 -0.501827 0
M  V30 9850 H 932.703 2.94056 -0.563176 0
M  V30 9851 H 930.249 1.41402 -0.27228 0
M  V30 9852 H 932.202 3.85838 1.6943 0
M  V30 9853 H 930.926 2.63753 1.92618 0
M  V30 9854 H 929.585 3.66554 0.057815 0
M  V30 9855 H 929.233 4.40996 2.41933 0
M  V30 9856 H 928.933 5.73722 1.26953 0
M  V30 9857 H 930.457 5.6955 2.20103 0
M  V30 9858 H 931.871 5.73257 -0.0701057 0
M  V30 9859 H 930.268 5.94293 -0.832815 0
M  V30 9860 H 931.338 4.64482 -1.39229 0
M  V30 9861 N 932.681 0.308908 1.54543 0
M  V30 9862 C 933.93 -0.298854 1.99474 0
M  V30 9863 C 934.243 -1.54393 1.20093 0
M  V30 9864 O 935.449 -2.22677 1.55329 0
M  V30 9865 C 933.905 -0.58303 3.55146 0
M  V30 9866 C 933.513 0.644157 4.43345 0
M  V30 9867 C 935.257 -1.15155 4.08582 0
M  V30 9868 C 933.164 0.332694 5.90463 0
M  V30 9869 H 932.094 -0.115445 0.74511 0
M  V30 9870 H 934.745 0.418848 1.78656 0
M  V30 9871 H 933.127 -1.36053 3.71894 0
M  V30 9872 H 934.301 1.42012 4.38371 0
M  V30 9873 H 932.616 1.13186 4.00722 0
M  V30 9874 H 935.213 -1.39896 5.16075 0
M  V30 9875 H 935.556 -2.09632 3.59667 0
M  V30 9876 H 936.089 -0.435571 3.95408 0
M  V30 9877 H 932.828 1.24624 6.43544 0
M  V30 9878 H 932.348 -0.405844 5.98425 0
M  V30 9879 H 934.027 -0.0628545 6.46969 0
M  V30 9880 N 934.159 -1.57557 0.0367827 0
M  V30 9881 C 935.399 -1.93981 -0.644252 0
M  V30 9882 C 935.763 -0.913982 -1.6885 0
M  V30 9883 O 936.964 -1.16468 -2.42257 0
M  V30 9884 C 935.235 -3.35281 -1.23779 0
M  V30 9885 S 936.794 -3.93643 -1.93883 0
M  V30 9886 H 933.612 -0.678683 -0.21192 0
M  V30 9887 H 936.214 -1.95232 0.102281 0
M  V30 9888 H 934.918 -4.07752 -0.465451 0
M  V30 9889 H 934.449 -3.37492 -2.02146 0
M  V30 9890 H 936.464 -3.777 -3.21803 0
M  V30 9891 N 935.637 0.236453 -1.55816 0
M  V30 9892 C 936.914 0.986463 -1.68903 0
M  V30 9893 C 937.294 2.02984 -0.579722 0
M  V30 9894 O 936.642 2.24693 0.415389 0
M  V30 9895 C 936.852 1.61038 -3.09625 0
M  V30 9896 C 938.2 2.10829 -3.6856 0
M  V30 9897 O 939.224 1.7096 -3.12492 0
M  V30 9898 O 938.083 2.84064 -4.66873 0
M  V30 9899 H 935.177 0.459837 -0.687371 0
M  V30 9900 H 937.723 0.229412 -1.68142 0
M  V30 9901 H 936.495 0.856232 -3.81817 0
M  V30 9902 H 936.118 2.43336 -3.14441 0
M  V30 9903 N 937.115 1.49373 0.502552 0
M  V30 9904 C 938.063 1.66411 1.62512 0
M  V30 9905 C 939.057 0.530062 1.60893 0
M  V30 9906 O 940.263 0.709648 1.65421 0
M  V30 9907 H 936.638 0.524707 0.538689 0
M  V30 9908 H 938.609 2.60639 1.45293 0
M  V30 9909 C 937.358 1.74648 3.00655 0
M  V30 9910 H 936.681 2.61285 3.02606 0
M  V30 9911 H 938.121 1.90605 3.78742 0
M  V30 9912 C 936.58 0.490963 3.33303 0
M  V30 9913 O 937.11 -0.384039 3.9986 0
M  V30 9914 N 935.316 0.354375 2.88431 0
M  V30 9915 H 934.863 1.06742 2.34444 0
M  V30 9916 H 934.821 -0.484593 3.10643 0
M  V30 9917 N 938.594 -0.753485 1.38421 0
M  V30 9918 C 939.524 -1.8808 1.38377 0
M  V30 9919 C 940.505 -1.68258 0.249664 0
M  V30 9920 O 941.69 -1.88848 0.45276 0
M  V30 9921 C 938.82 -3.25608 1.20818 0
M  V30 9922 C 937.774 -3.60032 2.31433 0
M  V30 9923 C 937.1 -4.96297 1.9898 0
M  V30 9924 C 938.4 -3.64898 3.73694 0
M  V30 9925 H 940.094 -1.88375 2.32713 0
M  V30 9926 H 937.64 -0.90489 1.12017 0
M  V30 9927 H 939.593 -4.04127 1.19412 0
M  V30 9928 H 938.317 -3.25793 0.229433 0
M  V30 9929 H 936.976 -2.83831 2.32025 0
M  V30 9930 H 936.624 -4.93043 0.995889 0
M  V30 9931 H 936.324 -5.20298 2.73063 0
M  V30 9932 H 937.848 -5.77196 1.99193 0
M  V30 9933 H 939.262 -4.33531 3.75132 0
M  V30 9934 H 937.659 -4.00407 4.46983 0
M  V30 9935 H 938.729 -2.65124 4.06002 0
M  V30 9936 N 940.072 -1.23292 -0.981677 0
M  V30 9937 C 941.002 -1.03738 -2.09191 0
M  V30 9938 C 941.983 0.0453041 -1.7004 0
M  V30 9939 O 943.168 -0.119092 -1.93834 0
M  V30 9940 C 940.298 -0.626426 -3.41604 0
M  V30 9941 C 939.252 -1.65631 -3.94652 0
M  V30 9942 C 938.578 -1.10084 -5.23245 0
M  V30 9943 C 939.878 -3.04903 -4.24066 0
M  V30 9944 H 941.572 -1.966 -2.25807 0
M  V30 9945 H 939.118 -0.946656 -1.0851 0
M  V30 9946 H 941.071 -0.476689 -4.18695 0
M  V30 9947 H 939.795 0.337873 -3.24848 0
M  V30 9948 H 938.454 -1.79402 -3.19704 0
M  V30 9949 H 938.102 -0.127562 -5.02838 0
M  V30 9950 H 937.802 -1.78896 -5.59705 0
M  V30 9951 H 939.326 -0.962928 -6.02959 0
M  V30 9952 H 940.74 -2.94441 -4.91912 0
M  V30 9953 H 939.137 -3.70941 -4.71724 0
M  V30 9954 H 940.207 -3.53991 -3.31389 0
M  V30 9955 N 941.55 1.18024 -1.04442 0
M  V30 9956 C 942.961 1.69749 -0.777312 0
M  V30 9957 C 943.312 1.83234 0.701399 0
M  V30 9958 O 942.437 1.51452 1.54568 0
M  V30 9959 C 943.032 3.08321 -1.40441 0
M  V30 9960 C 941.591 3.57243 -1.18553 0
M  V30 9961 C 940.738 2.33695 -1.49271 0
M  V30 9962 H 943.689 1.02647 -1.21035 0
M  V30 9963 H 943.71 3.71787 -0.809628 0
M  V30 9964 H 943.222 2.98474 -2.48062 0
M  V30 9965 H 941.323 3.72379 -0.128221 0
M  V30 9966 H 941.436 4.40451 -1.88519 0
M  V30 9967 H 939.8 2.37792 -0.912526 0
M  V30 9968 H 940.583 2.26464 -2.5801 0
M  V30 9969 N 943.028 0.824394 1.34319 0
M  V30 9970 C 944.276 0.41235 1.97849 0
M  V30 9971 C 944.597 -1.02841 1.65677 0
M  V30 9972 O 943.867 -1.71421 0.948245 0
M  V30 9973 H 942.447 0.149486 0.73189 0
M  V30 9974 H 945.109 1.05416 1.63931 0
M  V30 9975 H 944.205 0.532557 3.07523 0
M  V30 9976 N 944.506 -1.46559 0.579492 0
M  V30 9977 C 945.922 -1.57771 0.240921 0
M  V30 9978 C 946.122 -1.57505 -1.25676 0
M  V30 9979 O 945.178 -1.4903 -2.03829 0
M  V30 9980 C 946.491 -2.87311 0.887285 0
M  V30 9981 C 948.039 -3.00937 0.860576 0
M  V30 9982 C 948.514 -4.33208 1.48642 0
M  V30 9983 N 950.005 -4.39899 1.45062 0
M  V30 9984 C 950.74 -5.40856 1.90428 0
M  V30 9985 N 950.236 -6.48503 2.43752 0
M  V30 9986 N 952.029 -5.32037 1.81364 0
M  V30 9987 H 944.18 -1.44976 1.55228 0
M  V30 9988 H 946.443 -0.691354 0.648639 0
M  V30 9989 H 946.149 -2.93307 1.94071 0
M  V30 9990 H 946.023 -3.75141 0.393577 0
M  V30 9991 H 948.41 -2.94524 -0.184223 0
M  V30 9992 H 948.491 -2.14591 1.39227 0
M  V30 9993 H 948.135 -4.40378 2.5304 0
M  V30 9994 H 948.065 -5.18323 0.92998 0
M  V30 9995 H 950.556 -3.62706 1.0608 0
M  V30 9996 H 950.869 -7.21744 2.76234 0
M  V30 9997 H 949.214 -6.49332 2.47776 0
M  V30 9998 H 952.405 -4.46841 1.39465 0
M  V30 9999 H 952.578 -6.10573 2.17035 0
M  V30 10000 N 945.984 -0.3171 -1.54377 0
M  V30 10001 C 947.261 0.341348 -1.92598 0
M  V30 10002 C 947.641 1.70402 -1.24605 0
M  V30 10003 O 946.989 2.25191 -0.387448 0
M  V30 10004 C 947.199 0.440003 -3.46215 0
M  V30 10005 C 948.547 0.703327 -4.18734 0
M  V30 10006 O 949.571 0.523181 -3.52337 0
M  V30 10007 O 948.43 1.05042 -5.3631 0
M  V30 10008 H 945.524 0.193696 -0.803997 0
M  V30 10009 H 948.07 -0.366341 -1.65699 0
M  V30 10010 H 946.842 -0.517299 -3.87866 0
M  V30 10011 H 946.465 1.19553 -3.792 0
M  V30 10012 N 947.462 1.57535 -0.0451378 0
M  V30 10013 C 948.392 2.14208 0.929372 0
M  V30 10014 C 949.373 1.06221 1.32858 0
M  V30 10015 O 950.558 1.34132 1.40436 0
M  V30 10016 C 947.688 2.68217 2.20629 0
M  V30 10017 C 946.642 3.81134 1.94734 0
M  V30 10018 C 945.968 4.21636 3.28828 0
M  V30 10019 C 947.268 5.06531 1.27374 0
M  V30 10020 H 948.962 2.95886 0.457348 0
M  V30 10021 H 946.508 1.42332 0.218544 0
M  V30 10022 H 948.461 3.06502 2.89196 0
M  V30 10023 H 947.185 1.83722 2.70026 0
M  V30 10024 H 945.844 3.43312 1.28579 0
M  V30 10025 H 945.492 3.34099 3.76014 0
M  V30 10026 H 945.192 4.97736 3.12302 0
M  V30 10027 H 946.716 4.62516 3.98637 0
M  V30 10028 H 948.13 5.423 1.85967 0
M  V30 10029 H 946.527 5.87735 1.21194 0
M  V30 10030 H 947.597 4.84261 0.248913 0
M  V30 10031 N 948.94 -0.228186 1.55939 0
M  V30 10032 C 949.87 -1.28607 1.94891 0
M  V30 10033 C 950.851 -1.49236 0.816245 0
M  V30 10034 O 952.036 -1.61531 1.07803 0
M  V30 10035 C 949.166 -2.63719 2.25986 0
M  V30 10036 C 948.12 -2.57757 3.4168 0
M  V30 10037 C 947.446 -3.96837 3.58364 0
M  V30 10038 C 948.746 -2.13116 4.76843 0
M  V30 10039 H 950.44 -0.962531 2.83506 0
M  V30 10040 H 947.986 -0.461577 1.36402 0
M  V30 10041 H 949.939 -3.37878 2.51826 0
M  V30 10042 H 948.663 -2.97747 1.34217 0
M  V30 10043 H 947.322 -1.86055 3.15878 0
M  V30 10044 H 946.97 -4.28162 2.63982 0
M  V30 10045 H 946.67 -3.93731 4.36176 0
M  V30 10046 H 948.194 -4.72668 3.86545 0
M  V30 10047 H 949.608 -2.77015 5.01932 0
M  V30 10048 H 948.005 -2.21083 5.57891 0
M  V30 10049 H 949.075 -1.08326 4.72645 0
M  V30 10050 N 950.418 -1.49637 -0.494624 0
M  V30 10051 C 951.348 -1.69692 -1.60396 0
M  V30 10052 C 952.329 -0.545648 -1.61111 0
M  V30 10053 O 953.514 -0.782202 -1.77751 0
M  V30 10054 C 950.644 -1.76934 -2.9885 0
M  V30 10055 C 949.598 -2.91915 -3.13001 0
M  V30 10056 C 948.924 -2.84276 -4.5287 0
M  V30 10057 C 950.224 -4.32764 -2.92426 0
M  V30 10058 H 951.918 -2.6257 -1.43866 0
M  V30 10059 H 949.464 -1.26355 -0.690679 0
M  V30 10060 H 951.417 -1.8955 -3.76362 0
M  V30 10061 H 950.141 -0.806609 -3.16483 0
M  V30 10062 H 948.8 -2.78911 -2.37916 0
M  V30 10063 H 948.448 -1.85897 -4.67388 0
M  V30 10064 H 948.148 -3.61452 -4.63278 0
M  V30 10065 H 949.672 -2.98909 -5.32434 0
M  V30 10066 H 951.086 -4.46415 -3.59703 0
M  V30 10067 H 949.483 -5.1121 -3.143 0
M  V30 10068 H 950.553 -4.46765 -1.88491 0
M  V30 10069 N 951.896 0.746133 -1.38819 0
M  V30 10070 C 952.828 1.86991 -1.3254 0
M  V30 10071 C 953.841 1.61077 -0.236216 0
M  V30 10072 O 955.03 1.71518 -0.494341 0
M  V30 10073 C 952.13 3.22786 -1.03258 0
M  V30 10074 C 951.303 3.76145 -2.23234 0
M  V30 10075 C 950.362 4.90474 -1.90581 0
M  V30 10076 O 949.388 5.04717 -2.63153 0
M  V30 10077 N 950.59 5.74015 -0.86525 0
M  V30 10078 H 953.355 1.92885 -2.2938 0
M  V30 10079 H 950.916 0.926392 -1.32776 0
M  V30 10080 H 952.908 3.96824 -0.794533 0
M  V30 10081 H 951.478 3.12231 -0.151895 0
M  V30 10082 H 950.698 2.93587 -2.63059 0
M  V30 10083 H 951.986 4.08528 -3.03285 0
M  V30 10084 H 951.384 5.65086 -0.263577 0
M  V30 10085 H 949.941 6.48168 -0.687087 0
M  V30 10086 N 953.375 1.23811 0.975125 0
M  V30 10087 C 954.603 1.10019 1.75224 0
M  V30 10088 C 955.018 -0.34791 1.85567 0
M  V30 10089 O 954.375 -1.24043 1.33864 0
M  V30 10090 C 954.426 1.72572 3.1765 0
M  V30 10091 O 954.147 3.11719 3.07836 0
M  V30 10092 C 955.648 1.64292 4.11732 0
M  V30 10093 H 952.868 0.38476 0.549728 0
M  V30 10094 H 955.412 1.63768 1.22476 0
M  V30 10095 H 953.567 1.22843 3.67408 0
M  V30 10096 H 953.981 3.42152 3.97533 0
M  V30 10097 H 955.455 2.12754 5.09352 0
M  V30 10098 H 955.932 0.602722 4.35045 0
M  V30 10099 H 956.538 2.13411 3.6788 0
M  V30 10100 N 954.853 -1.17469 1.05066 0
M  V30 10101 C 956.269 -1.39699 0.771769 0
M  V30 10102 C 956.469 -1.91253 -0.634382 0
M  V30 10103 O 955.525 -2.10334 -1.39699 0
M  V30 10104 C 956.838 -2.38886 1.82631 0
M  V30 10105 C 958.386 -2.52595 1.84838 0
M  V30 10106 C 958.861 -3.55054 2.89311 0
M  V30 10107 N 960.352 -3.6257 2.88266 0
M  V30 10108 C 961.087 -4.41603 3.65752 0
M  V30 10109 N 960.583 -5.24162 4.53019 0
M  V30 10110 N 962.376 -4.36464 3.54197 0
M  V30 10111 H 954.527 -0.823355 1.95792 0
M  V30 10112 H 956.79 -0.42432 0.847736 0
M  V30 10113 H 956.496 -2.08075 2.83545 0
M  V30 10114 H 956.37 -3.38371 1.66687 0
M  V30 10115 H 958.757 -2.82717 0.845888 0
M  V30 10116 H 958.838 -1.53188 2.04859 0
M  V30 10117 H 958.482 -3.2567 3.89745 0
M  V30 10118 H 958.412 -4.54162 2.66542 0
M  V30 10119 H 960.903 -3.03625 2.24989 0
M  V30 10120 H 961.216 -5.81646 5.0883 0
M  V30 10121 H 959.561 -5.23547 4.57081 0
M  V30 10122 H 962.752 -3.7102 2.85416 0
M  V30 10123 H 962.925 -4.97814 4.14832 0
M  V30 10124 N 956.331 -0.831506 -1.3388 0
M  V30 10125 C 957.261 -0.274378 -2.31882 0
M  V30 10126 C 958.242 0.613872 -1.58637 0
M  V30 10127 O 959.427 0.538961 -1.86571 0
M  V30 10128 C 956.557 0.557498 -3.42796 0
M  V30 10129 C 955.511 -0.234337 -4.27358 0
M  V30 10130 C 954.837 0.720825 -5.29819 0
M  V30 10131 C 956.137 -1.44732 -5.01847 0
M  V30 10132 H 957.831 -1.09322 -2.78728 0
M  V30 10133 H 955.377 -0.527136 -1.34005 0
M  V30 10134 H 957.33 0.957501 -4.10378 0
M  V30 10135 H 956.054 1.40947 -2.94621 0
M  V30 10136 H 954.713 -0.61581 -3.61391 0
M  V30 10137 H 954.361 1.569 -4.77903 0
M  V30 10138 H 954.061 0.195171 -5.87276 0
M  V30 10139 H 955.585 1.1185 -6.00268 0
M  V30 10140 H 956.999 -1.12087 -5.62236 0
M  V30 10141 H 955.396 -1.90923 -5.68919 0
M  V30 10142 H 956.466 -2.22099 -4.31045 0
M  V30 10143 N 957.809 1.4625 -0.587256 0
M  V30 10144 C 959.055 2.02662 -0.0746851 0
M  V30 10145 C 959.388 1.45723 1.28368 0
M  V30 10146 O 958.663 0.624062 1.84216 0
M  V30 10147 C 958.946 3.60097 -0.0138109 0
M  V30 10148 C 958.799 4.27412 -1.4014 0
M  V30 10149 C 960.118 4.34744 0.684491 0
M  V30 10150 H 957.237 0.736444 -0.0286144 0
M  V30 10151 H 959.879 1.74341 -0.755328 0
M  V30 10152 H 958.029 3.84357 0.56583 0
M  V30 10153 H 959.701 4.14401 -2.02656 0
M  V30 10154 H 957.944 3.86598 -1.96785 0
M  V30 10155 H 958.615 5.362 -1.31124 0
M  V30 10156 H 961.091 4.15657 0.192023 0
M  V30 10157 H 959.967 5.44468 0.696127 0
M  V30 10158 H 960.228 4.06132 1.74669 0
M  V30 10159 N 959.287 0.325282 1.54207 0
M  V30 10160 C 960.235 -0.5554 2.25872 0
M  V30 10161 C 961.229 -1.11714 1.27344 0
M  V30 10162 O 962.435 -1.06498 1.45115 0
M  V30 10163 H 958.81 -0.19776 0.725531 0
M  V30 10164 H 960.781 0.0712858 2.98315 0
M  V30 10165 C 959.53 -1.70379 3.03095 0
M  V30 10166 H 958.853 -1.2808 3.78729 0
M  V30 10167 H 960.293 -2.29556 3.56483 0
M  V30 10168 C 958.752 -2.62242 2.11496 0
M  V30 10169 O 959.282 -3.64003 1.69895 0
M  V30 10170 N 957.488 -2.30515 1.7695 0
M  V30 10171 H 957.035 -1.47805 2.10978 0
M  V30 10172 H 956.993 -2.92241 1.15942 0
M  V30 10173 N 960.765 -1.57509 0.0534917 0
M  V30 10174 C 961.715 -2.08179 -0.929802 0
M  V30 10175 C 962.699 -0.987451 -1.27036 0
M  V30 10176 O 963.891 -1.25076 -1.2524 0
M  V30 10177 C 961.02 -2.63221 -2.20385 0
M  V30 10178 C 960.106 -3.79629 -1.89058 0
M  V30 10179 N 960.497 -4.8931 -1.28101 0
M  V30 10180 C 958.795 -3.88578 -2.18914 0
M  V30 10181 C 959.496 -5.70329 -1.14455 0
M  V30 10182 N 958.472 -5.18011 -1.64821 0
M  V30 10183 H 962.274 -2.90374 -0.453874 0
M  V30 10184 H 959.788 -1.61697 -0.150899 0
M  V30 10185 H 961.785 -2.97827 -2.91727 0
M  V30 10186 H 960.445 -1.82466 -2.68582 0
M  V30 10187 H 961.456 -5.09058 -0.952924 0
M  V30 10188 H 958.133 -3.18769 -2.69616 0
M  V30 10189 H 959.523 -6.6854 -0.671129 0
M  V30 10190 N 962.243 0.219913 -1.56058 0
M  V30 10191 C 963.489 0.945463 -1.79412 0
M  V30 10192 C 963.822 1.83922 -0.62341 0
M  V30 10193 O 963.097 1.90806 0.377256 0
M  V30 10194 C 963.38 1.783 -3.1286 0
M  V30 10195 C 963.233 0.915626 -4.40382 0
M  V30 10196 C 964.552 2.76045 -3.42764 0
M  V30 10197 H 961.671 0.342288 -0.652693 0
M  V30 10198 H 964.313 0.214235 -1.88788 0
M  V30 10199 H 962.463 2.40642 -3.04998 0
M  V30 10200 H 964.135 0.30882 -4.60265 0
M  V30 10201 H 962.378 0.221124 -4.33236 0
M  V30 10202 H 963.049 1.53607 -5.30197 0
M  V30 10203 H 965.525 2.23838 -3.50764 0
M  V30 10204 H 964.401 3.31748 -4.37304 0
M  V30 10205 H 964.662 3.53866 -2.65012 0
M  V30 10206 N 963.721 1.49897 0.486681 0
M  V30 10207 C 964.946 1.64106 1.26823 0
M  V30 10208 C 965.371 0.317967 1.85393 0
M  V30 10209 O 964.729 -0.71626 1.66551 0
M  V30 10210 C 964.777 2.72301 2.36399 0
M  V30 10211 O 963.881 2.32469 3.40634 0
M  V30 10212 H 963.222 0.548794 0.373793 0
M  V30 10213 H 965.752 1.96177 0.581017 0
M  V30 10214 H 965.762 2.94906 2.81948 0
M  V30 10215 H 964.437 3.68335 1.93137 0
M  V30 10216 H 963.014 2.20251 3.00905 0
M  V30 10217 N 965.199 -0.738761 1.39212 0
M  V30 10218 C 966.424 -1.5331 1.39681 0
M  V30 10219 C 966.849 -1.88098 -0.00768715 0
M  V30 10220 O 966.207 -1.51642 -0.993699 0
M  V30 10221 C 966.255 -2.79958 2.27279 0
M  V30 10222 O 965.359 -3.75727 1.70008 0
M  V30 10223 H 964.7 -0.463131 0.475821 0
M  V30 10224 H 967.23 -0.911768 1.83161 0
M  V30 10225 H 967.24 -3.28732 2.41659 0
M  V30 10226 H 965.915 -2.5397 3.29351 0
M  V30 10227 H 964.492 -3.34483 1.64851 0
M  V30 10228 N 966.677 -1.24326 -0.968545 0
M  V30 10229 C 967.61 -0.978121 -2.06175 0
M  V30 10230 C 968.588 0.0878107 -1.62363 0
M  V30 10231 O 969.772 -0.0489472 -1.88436 0
M  V30 10232 C 966.899 -0.475884 -3.3534 0
M  V30 10233 C 965.945 -1.53023 -3.98103 0
M  V30 10234 S 966.778 -3.11131 -4.35841 0
M  V30 10235 C 967.934 -2.62608 -5.68144 0
M  V30 10236 H 968.167 -1.9038 -2.28348 0
M  V30 10237 H 965.7 -1.07701 -1.10633 0
M  V30 10238 H 967.658 -0.192739 -4.10047 0
M  V30 10239 H 966.319 0.429067 -3.11156 0
M  V30 10240 H 965.512 -1.12922 -4.91187 0
M  V30 10241 H 965.114 -1.76334 -3.29822 0
M  V30 10242 H 967.406 -2.05367 -6.45624 0
M  V30 10243 H 968.349 -3.54277 -6.13101 0
M  V30 10244 H 968.757 -2.03063 -5.26712 0
M  V30 10245 N 968.156 1.1691 -1.05688 0
M  V30 10246 C 969.572 1.39288 -0.779167 0
M  V30 10247 C 969.772 1.91587 0.624231 0
M  V30 10248 O 968.828 2.11072 1.38582 0
M  V30 10249 C 970.141 2.37914 -1.83895 0
M  V30 10250 C 971.689 2.51611 -1.86175 0
M  V30 10251 C 972.164 3.53514 -2.9119 0
M  V30 10252 N 973.655 3.61036 -2.90184 0
M  V30 10253 C 974.39 4.39657 -3.68088 0
M  V30 10254 N 973.886 5.21752 -4.55793 0
M  V30 10255 N 975.679 4.3458 -3.56507 0
M  V30 10256 H 967.83 0.81296 -1.96226 0
M  V30 10257 H 970.093 0.419818 -0.849975 0
M  V30 10258 H 969.799 2.06568 -2.84645 0
M  V30 10259 H 969.673 3.37483 -1.68479 0
M  V30 10260 H 972.06 2.82264 -0.86087 0
M  V30 10261 H 972.141 1.52099 -2.05668 0
M  V30 10262 H 971.785 3.23599 -3.91467 0
M  V30 10263 H 971.715 4.52742 -2.68947 0
M  V30 10264 H 974.206 3.02428 -2.26596 0
M  V30 10265 H 974.519 5.78939 -5.11907 0
M  V30 10266 H 972.864 5.21116 -4.59851 0
M  V30 10267 H 976.055 3.69501 -2.87379 0
M  V30 10268 H 976.228 4.95607 -4.17466 0
M  V30 10269 N 969.634 0.838594 1.33437 0
M  V30 10270 C 971.045 0.490934 1.8013 0
M  V30 10271 C 971.396 -0.990024 1.6939 0
M  V30 10272 O 970.521 -1.77139 1.24302 0
M  V30 10273 C 971.116 0.884347 3.27055 0
M  V30 10274 C 969.675 0.588829 3.71766 0
M  V30 10275 C 968.822 1.09282 2.54858 0
M  V30 10276 H 971.773 1.02732 1.20962 0
M  V30 10277 H 971.794 0.194283 3.80004 0
M  V30 10278 H 971.306 1.96225 3.34839 0
M  V30 10279 H 969.407 -0.479018 3.69508 0
M  V30 10280 H 969.52 1.14387 4.65245 0
M  V30 10281 H 967.884 0.513702 2.49466 0
M  V30 10282 H 968.667 2.1775 2.65405 0
M  V30 10283 N 971.112 -1.45937 0.595003 0
M  V30 10284 C 972.06 -2.32155 -0.143798 0
M  V30 10285 C 973.054 -1.45221 -0.872198 0
M  V30 10286 O 974.26 -1.61777 -0.789191 0
M  V30 10287 H 970.635 -0.749165 -0.0652377 0
M  V30 10288 H 972.606 -2.92264 0.602005 0
M  V30 10289 C 971.355 -3.28615 -1.13611 0
M  V30 10290 H 970.678 -3.95496 -0.585044 0
M  V30 10291 H 972.118 -3.91699 -1.62321 0
M  V30 10292 C 970.577 -2.54863 -2.20333 0
M  V30 10293 O 971.107 -2.32071 -3.27881 0
M  V30 10294 N 969.313 -2.15213 -1.95274 0
M  V30 10295 H 968.86 -2.33949 -1.07822 0
M  V30 10296 H 968.818 -1.66188 -2.66888 0
M  V30 10297 N 972.59 -0.333456 -1.54032 0
M  V30 10298 C 973.839 0.267081 -1.99924 0
M  V30 10299 C 974.152 1.52463 -1.22534 0
M  V30 10300 O 975.358 2.20178 -1.58852 0
M  V30 10301 C 973.814 0.526456 -3.56029 0
M  V30 10302 C 973.422 -0.714607 -4.42264 0
M  V30 10303 C 975.166 1.0864 -4.10363 0
M  V30 10304 C 973.073 -0.42659 -5.89859 0
M  V30 10305 H 972.003 0.103577 -0.746852 0
M  V30 10306 H 974.654 -0.447218 -1.77967 0
M  V30 10307 H 973.036 1.3012 -3.74012 0
M  V30 10308 H 974.21 -1.48968 -4.36056 0
M  V30 10309 H 972.525 -1.19547 -3.9887 0
M  V30 10310 H 975.122 1.31668 -5.18235 0
M  V30 10311 H 975.465 2.03884 -3.62956 0
M  V30 10312 H 975.998 0.37261 -3.96051 0
M  V30 10313 H 972.737 -1.34847 -6.4148 0
M  V30 10314 H 972.257 0.310588 -5.98995 0
M  V30 10315 H 973.936 -0.0400807 -6.46988 0
M  V30 10316 N 974.068 1.57479 -0.061844 0
M  V30 10317 C 975.315 1.93108 0.60954 0
M  V30 10318 C 975.643 0.941086 1.70217 0
M  V30 10319 O 974.898 -0.044914 1.95648 0
M  V30 10320 C 975.197 3.35394 1.23474 0
M  V30 10321 C 974.863 4.50095 0.269247 0
M  V30 10322 C 973.525 4.812 0.00360316 0
M  V30 10323 C 975.877 5.19725 -0.391839 0
M  V30 10324 C 973.205 5.79276 -0.930383 0
M  V30 10325 C 975.557 6.18801 -1.31408 0
M  V30 10326 C 974.221 6.48328 -1.58829 0
M  V30 10327 H 973.491 0.706634 0.223046 0
M  V30 10328 H 976.138 1.91054 -0.1306 0
M  V30 10329 H 974.443 3.33866 2.05039 0
M  V30 10330 H 976.14 3.60247 1.76134 0
M  V30 10331 H 972.73 4.2583 0.486477 0
M  V30 10332 H 976.914 4.95898 -0.199713 0
M  V30 10333 H 972.17 6.00484 -1.15019 0
M  V30 10334 H 976.344 6.71862 -1.83234 0
M  V30 10335 H 973.971 7.24137 -2.31363 0
M  V30 10336 N 975.546 -0.211634 1.56173 0
M  V30 10337 C 976.476 -1.26533 1.96244 0
M  V30 10338 C 977.457 -1.48362 0.832028 0
M  V30 10339 O 978.642 -1.60378 1.0951 0
M  V30 10340 C 975.772 -2.61307 2.2877 0
M  V30 10341 C 974.726 -2.54119 3.44395 0
M  V30 10342 C 974.052 -3.93014 3.62552 0
M  V30 10343 C 975.352 -2.08046 4.79076 0
M  V30 10344 H 977.046 -0.932407 2.84511 0
M  V30 10345 H 974.592 -0.447084 1.36884 0
M  V30 10346 H 976.545 -3.35188 2.55396 0
M  V30 10347 H 975.269 -2.96307 1.37367 0
M  V30 10348 H 973.928 -1.82694 3.17834 0
M  V30 10349 H 973.576 -4.25338 2.68508 0
M  V30 10350 H 973.276 -3.89083 4.40327 0
M  V30 10351 H 974.8 -4.68542 3.91537 0
M  V30 10352 H 976.214 -2.71676 5.04842 0
M  V30 10353 H 974.611 -2.15154 5.60204 0
M  V30 10354 H 975.681 -1.03306 4.73768 0
M  V30 10355 N 977.024 -1.50153 -0.478725 0
M  V30 10356 C 978.272 -1.60443 -1.22892 0
M  V30 10357 C 978.593 -0.303276 -1.92627 0
M  V30 10358 O 977.863 0.678798 -1.83764 0
M  V30 10359 H 976.443 -0.591205 -0.456602 0
M  V30 10360 H 979.105 -1.86893 -0.552905 0
M  V30 10361 H 978.201 -2.41175 -1.98094 0
M  V30 10362 N 978.502 0.731368 -1.39602 0
M  V30 10363 C 979.748 1.49321 -1.37227 0
M  V30 10364 C 980.081 1.94176 0.0306502 0
M  V30 10365 O 979.356 1.67046 0.996294 0
M  V30 10366 C 979.639 2.73035 -2.34784 0
M  V30 10367 C 979.492 2.34176 -3.84033 0
M  V30 10368 C 980.811 3.75146 -2.30116 0
M  V30 10369 H 977.93 0.541652 -0.499783 0
M  V30 10370 H 980.572 0.835968 -1.70621 0
M  V30 10371 H 978.722 3.29114 -2.06437 0
M  V30 10372 H 980.394 1.83701 -4.23145 0
M  V30 10373 H 978.637 1.66361 -4.00633 0
M  V30 10374 H 979.308 3.22786 -4.47787 0
M  V30 10375 H 981.784 3.28661 -2.55189 0
M  V30 10376 H 980.66 4.5937 -3.00451 0
M  V30 10377 H 980.921 4.22326 -1.30741 0
M  V30 10378 N 979.98 1.24838 0.961938 0
M  V30 10379 C 981.205 1.11967 1.7458 0
M  V30 10380 C 981.63 -0.323287 1.85301 0
M  V30 10381 O 980.988 -1.23412 1.32812 0
M  V30 10382 C 981.036 1.77066 3.14134 0
M  V30 10383 O 980.14 1.04534 3.98932 0
M  V30 10384 H 979.481 0.391338 0.536424 0
M  V30 10385 H 982.011 1.65259 1.20626 0
M  V30 10386 H 982.021 1.83056 3.64629 0
M  V30 10387 H 980.696 2.82052 3.05646 0
M  V30 10388 H 979.273 1.06372 3.57407 0
M  V30 10389 N 981.458 -1.16348 1.06306 0
M  V30 10390 C 982.368 -2.24375 0.685059 0
M  V30 10391 C 983.384 -1.71413 -0.298956 0
M  V30 10392 O 984.56 -2.00854 -0.148239 0
M  V30 10393 C 981.625 -3.46614 0.0774088 0
M  V30 10394 C 980.686 -4.14613 1.11331 0
M  V30 10395 C 979.919 -5.31016 0.534559 0
M  V30 10396 O 980.142 -5.66654 -0.65265 0
M  V30 10397 O 979.076 -5.88256 1.27431 0
M  V30 10398 H 982.902 -2.59018 1.58566 0
M  V30 10399 H 980.487 -1.23865 0.835332 0
M  V30 10400 H 982.369 -4.20599 -0.259716 0
M  V30 10401 H 981.044 -3.13743 -0.796677 0
M  V30 10402 H 979.951 -3.42597 1.50261 0
M  V30 10403 H 981.284 -4.51538 1.95893 0
M  V30 10404 N 982.937 -0.845659 -1.3299 0
M  V30 10405 C 984.185 -0.443774 -1.97168 0
M  V30 10406 C 984.506 1.00192 -1.67292 0
M  V30 10407 O 983.776 1.69891 -0.975397 0
M  V30 10408 H 982.356 -0.161111 -0.729419 0
M  V30 10409 H 985.018 -1.08011 -1.62233 0
M  V30 10410 H 984.114 -0.581414 -3.06637 0
M  V30 10411 N 984.415 1.45619 -0.602734 0
M  V30 10412 C 985.64 2.07157 -0.100429 0
M  V30 10413 C 986.065 1.44524 1.20393 0
M  V30 10414 O 985.423 0.536191 1.7319 0
M  V30 10415 C 985.471 3.60587 0.0308604 0
M  V30 10416 O 984.575 3.97944 1.08234 0
M  V30 10417 H 983.916 0.6601 -0.0718643 0
M  V30 10418 H 986.446 1.86948 -0.831366 0
M  V30 10419 H 986.456 4.07348 0.230634 0
M  V30 10420 H 985.131 4.05561 -0.921581 0
M  V30 10421 H 983.708 3.62862 0.859414 0
M  V30 10422 N 985.893 0.34162 1.53853 0
M  V30 10423 C 986.856 -0.503541 2.236 0
M  V30 10424 C 987.856 -1.02912 1.23554 0
M  V30 10425 O 989.046 -0.918678 1.48007 0
M  V30 10426 C 986.178 -1.70126 2.95415 0
M  V30 10427 H 987.371 0.106437 2.99711 0
M  V30 10428 H 984.924 0.0929408 1.56023 0
M  V30 10429 H 985.659 -2.34999 2.23486 0
M  V30 10430 H 985.444 -1.33161 3.68796 0
M  V30 10431 H 986.934 -2.30077 3.48503 0
M  V30 10432 N 987.371 -1.57444 0.0701946 0
M  V30 10433 C 988.303 -2.09611 -0.927142 0
M  V30 10434 C 989.316 -1.02791 -1.26245 0
M  V30 10435 O 990.505 -1.30309 -1.21992 0
M  V30 10436 C 987.605 -2.54015 -2.24342 0
M  V30 10437 C 986.778 -3.84389 -2.08719 0
M  V30 10438 C 985.837 -4.14904 -3.23638 0
M  V30 10439 O 984.863 -4.84528 -2.98699 0
M  V30 10440 N 986.065 -3.68322 -4.48686 0
M  V30 10441 H 988.83 -2.95803 -0.481753 0
M  V30 10442 H 986.391 -1.61487 -0.115572 0
M  V30 10443 H 988.383 -2.71492 -3.00124 0
M  V30 10444 H 986.953 -1.72969 -2.60385 0
M  V30 10445 H 986.173 -3.76308 -1.17415 0
M  V30 10446 H 987.461 -4.69729 -1.9553 0
M  V30 10447 H 986.859 -3.12073 -4.71834 0
M  V30 10448 H 985.416 -3.91002 -5.21499 0
M  V30 10449 N 988.849 0.203349 -1.56283 0
M  V30 10450 C 990.079 0.940061 -1.83974 0
M  V30 10451 C 990.487 1.77703 -0.649486 0
M  V30 10452 O 989.83 1.79487 0.391189 0
M  V30 10453 C 989.892 1.89249 -3.05655 0
M  V30 10454 C 989.556 1.23828 -4.39904 0
M  V30 10455 C 990.553 0.619231 -5.16199 0
M  V30 10456 C 988.238 1.2446 -4.86636 0
M  V30 10457 C 990.232 0.0152287 -6.37398 0
M  V30 10458 C 987.919 0.636764 -6.07773 0
M  V30 10459 C 988.917 0.0231481 -6.82996 0
M  V30 10460 O 988.605 -0.575187 -8.0184 0
M  V30 10461 H 988.337 0.280199 -0.615194 0
M  V30 10462 H 990.891 0.218111 -2.04239 0
M  V30 10463 H 989.121 2.65392 -2.81254 0
M  V30 10464 H 990.81 2.4963 -3.20062 0
M  V30 10465 H 991.576 0.606545 -4.81192 0
M  V30 10466 H 987.455 1.71161 -4.28048 0
M  V30 10467 H 990.999 -0.464333 -6.96053 0
M  V30 10468 H 986.896 0.646924 -6.4225 0
M  V30 10469 H 987.664 -0.471284 -8.17142 0
M  V30 10470 N 990.327 1.50405 0.470755 0
M  V30 10471 C 991.274 1.69293 1.56871 0
M  V30 10472 C 992.244 0.534248 1.57274 0
M  V30 10473 O 993.429 0.764855 1.74799 0
M  V30 10474 C 990.569 1.79338 2.94842 0
M  V30 10475 C 989.682 3.06709 3.04226 0
M  V30 10476 C 988.817 3.07548 4.33114 0
M  V30 10477 C 987.856 4.29372 4.36241 0
M  V30 10478 N 986.993 4.27949 5.56601 0
M  V30 10479 H 991.833 2.63029 1.40071 0
M  V30 10480 H 989.37 1.30386 0.681016 0
M  V30 10481 H 991.328 1.83143 3.74853 0
M  V30 10482 H 989.958 0.890411 3.10277 0
M  V30 10483 H 989.01 3.12374 2.17086 0
M  V30 10484 H 990.322 3.96684 3.02396 0
M  V30 10485 H 989.476 3.10084 5.21472 0
M  V30 10486 H 988.215 2.15404 4.37553 0
M  V30 10487 H 987.22 4.27048 3.4628 0
M  V30 10488 H 988.445 5.22743 4.33493 0
M  V30 10489 H 986.391 3.38658 5.61824 0
M  V30 10490 H 986.308 5.11692 5.56513 0
M  V30 10491 H 987.576 4.34631 6.47083 0
M  V30 10492 N 991.805 -0.723954 1.39988 0
M  V30 10493 C 992.752 -1.83803 1.39589 0
M  V30 10494 C 993.722 -1.64146 0.253996 0
M  V30 10495 O 994.907 -1.85398 0.450793 0
M  V30 10496 C 992.047 -3.21431 1.25604 0
M  V30 10497 C 991.16 -3.52717 2.49429 0
M  V30 10498 C 990.295 -4.79805 2.27949 0
M  V30 10499 C 989.334 -5.03968 3.47394 0
M  V30 10500 N 988.471 -6.22266 3.25161 0
M  V30 10501 H 993.311 -1.83479 2.34818 0
M  V30 10502 H 990.848 -0.896396 1.16633 0
M  V30 10503 H 992.806 -4.00892 1.15504 0
M  V30 10504 H 991.436 -3.21005 0.339986 0
M  V30 10505 H 990.488 -2.67872 2.7009 0
M  V30 10506 H 991.8 -3.66486 3.38363 0
M  V30 10507 H 990.954 -5.67268 2.15155 0
M  V30 10508 H 989.693 -4.68229 1.36428 0
M  V30 10509 H 988.698 -4.14963 3.60674 0
M  V30 10510 H 989.923 -5.17422 4.39831 0
M  V30 10511 H 987.869 -6.11957 2.36314 0
M  V30 10512 H 987.786 -6.36673 4.07656 0
M  V30 10513 H 989.054 -7.12539 3.16083 0
M  V30 10514 N 993.283 -1.25346 -0.955304 0
M  V30 10515 C 994.529 -1.11226 -1.70295 0
M  V30 10516 C 994.884 0.343362 -1.89311 0
M  V30 10517 O 994.177 1.24953 -1.45249 0
M  V30 10518 C 994.371 -1.7993 -3.08804 0
M  V30 10519 C 994.2 -3.32023 -3.033 0
M  V30 10520 C 992.97 -4.01274 -3.07094 0
M  V30 10521 C 995.168 -4.28431 -2.84519 0
M  V30 10522 N 993.15 -5.40149 -2.91741 0
M  V30 10523 C 994.521 -5.54386 -2.7759 0
M  V30 10524 C 996.576 -4.18854 -2.69194 0
M  V30 10525 C 995.279 -6.71859 -2.56902 0
M  V30 10526 C 997.305 -5.36018 -2.49876 0
M  V30 10527 C 996.667 -6.60913 -2.43667 0
M  V30 10528 H 992.766 -0.461707 -0.631151 0
M  V30 10529 H 995.35 -1.58437 -1.13162 0
M  V30 10530 H 993.521 -1.35214 -3.64104 0
M  V30 10531 H 995.253 -1.58557 -3.72346 0
M  V30 10532 H 992.008 -3.52529 -3.1626 0
M  V30 10533 H 992.432 -6.13029 -2.8727 0
M  V30 10534 H 997.074 -3.23043 -2.7277 0
M  V30 10535 H 994.792 -7.67781 -2.52068 0
M  V30 10536 H 998.378 -5.30468 -2.38944 0
M  V30 10537 H 997.258 -7.50045 -2.28914 0
M  V30 10538 N 994.761 1.15782 -1.06922 0
M  V30 10539 C 995.991 1.90079 -0.809545 0
M  V30 10540 C 996.399 1.78028 0.640523 0
M  V30 10541 O 995.742 1.12692 1.45073 0
M  V30 10542 C 995.804 3.41179 -1.13302 0
M  V30 10543 C 995.468 3.77015 -2.5828 0
M  V30 10544 C 996.465 3.78403 -3.56521 0
M  V30 10545 C 994.15 4.07455 -2.93745 0
M  V30 10546 C 996.144 4.09729 -4.88264 0
M  V30 10547 C 993.831 4.38446 -4.25686 0
M  V30 10548 C 994.829 4.39564 -5.22755 0
M  V30 10549 O 994.517 4.69814 -6.52326 0
M  V30 10550 H 994.249 0.609397 -0.292595 0
M  V30 10551 H 996.803 1.47654 -1.42784 0
M  V30 10552 H 995.033 3.83982 -0.457676 0
M  V30 10553 H 996.722 3.96759 -0.856586 0
M  V30 10554 H 997.488 3.54991 -3.30464 0
M  V30 10555 H 993.367 4.05746 -2.1884 0
M  V30 10556 H 996.911 4.10516 -5.64023 0
M  V30 10557 H 992.808 4.61325 -4.51497 0
M  V30 10558 H 993.576 4.87598 -6.57412 0
M  V30 10559 N 996.239 0.8527 1.3254 0
M  V30 10560 C 997.469 0.468363 2.01221 0
M  V30 10561 C 997.877 -0.938966 1.64256 0
M  V30 10562 O 997.22 -1.62387 0.858837 0
M  V30 10563 C 997.282 0.525457 3.55639 0
M  V30 10564 C 996.946 1.89133 4.16026 0
M  V30 10565 C 997.943 2.85652 4.34395 0
M  V30 10566 C 995.628 2.18795 4.52144 0
M  V30 10567 C 997.622 4.09985 4.88048 0
M  V30 10568 C 995.309 3.43381 5.05502 0
M  V30 10569 C 996.307 4.38792 5.23403 0
M  V30 10570 O 995.995 5.61173 5.75622 0
M  V30 10571 H 995.727 0.182712 0.65084 0
M  V30 10572 H 998.281 1.15076 1.70138 0
M  V30 10573 H 996.511 -0.213779 3.86109 0
M  V30 10574 H 998.2 0.156999 4.05596 0
M  V30 10575 H 998.966 2.6404 4.06827 0
M  V30 10576 H 994.845 1.45317 4.37498 0
M  V30 10577 H 998.389 4.84465 5.01936 0
M  V30 10578 H 994.286 3.64844 5.32503 0
M  V30 10579 H 995.054 5.63104 5.94017 0
M  V30 10580 N 997.718 -1.45297 0.610449 0
M  V30 10581 C 998.628 -2.34349 -0.108475 0
M  V30 10582 C 999.644 -1.51409 -0.857397 0
M  V30 10583 O 1000.82 -1.84202 -0.814337 0
M  V30 10584 C 997.885 -3.29072 -1.09144 0
M  V30 10585 C 996.946 -4.27918 -0.344165 0
M  V30 10586 C 996.179 -5.18116 -1.28031 0
M  V30 10587 O 996.402 -5.11802 -2.51824 0
M  V30 10588 O 995.336 -5.96879 -0.775821 0
M  V30 10589 H 999.162 -2.97232 0.623421 0
M  V30 10590 H 996.747 -1.44728 0.3707 0
M  V30 10591 H 998.629 -3.87433 -1.65751 0
M  V30 10592 H 997.304 -2.68749 -1.80431 0
M  V30 10593 H 996.211 -3.73164 0.264437 0
M  V30 10594 H 997.544 -4.91104 0.328275 0
M  V30 10595 N 999.196 -0.349774 -1.5367 0
M  V30 10596 C 1000.13 0.496338 -2.28164 0
M  V30 10597 C 1001.11 1.09737 -1.29968 0
M  V30 10598 O 1002.29 1.11759 -1.58819 0
M  V30 10599 C 999.422 1.64428 -3.0591 0
M  V30 10600 C 998.376 1.17127 -4.11661 0
M  V30 10601 C 997.702 2.40822 -4.77398 0
M  V30 10602 C 999.002 0.267293 -5.21616 0
M  V30 10603 H 1000.7 -0.125117 -2.99138 0
M  V30 10604 H 998.242 -0.0616152 -1.43868 0
M  V30 10605 H 1000.19 2.2427 -3.56765 0
M  V30 10606 H 998.919 2.29272 -2.32598 0
M  V30 10607 H 997.578 0.595634 -3.61729 0
M  V30 10608 H 997.226 3.04088 -4.00674 0
M  V30 10609 H 996.926 2.09852 -5.48849 0
M  V30 10610 H 998.45 3.01378 -5.3104 0
M  V30 10611 H 999.864 0.772734 -5.68068 0
M  V30 10612 H 998.261 0.0491991 -6.0008 0
M  V30 10613 H 999.331 -0.694892 -4.79895 0
M  V30 10614 N 1000.67 1.57404 -0.0785433 0
M  V30 10615 C 1001.61 2.08724 0.922464 0
M  V30 10616 C 1002.58 0.993912 1.28686 0
M  V30 10617 O 1003.77 1.26776 1.39499 0
M  V30 10618 C 1000.9 2.55051 2.2286 0
M  V30 10619 C 999.942 3.75884 2.01528 0
M  V30 10620 S 1000.77 5.2026 1.26844 0
M  V30 10621 C 1001.93 5.69924 2.58723 0
M  V30 10622 H 1002.16 2.93304 0.485807 0
M  V30 10623 H 999.697 1.53814 0.134377 0
M  V30 10624 H 1001.65 2.82402 2.97926 0
M  V30 10625 H 1000.32 1.70727 2.63649 0
M  V30 10626 H 999.509 4.06311 2.98207 0
M  V30 10627 H 999.111 3.48941 1.34596 0
M  V30 10628 H 1001.4 5.7718 3.5478 0
M  V30 10629 H 1002.35 6.68704 2.32897 0
M  V30 10630 H 1002.75 4.97773 2.66237 0
M  V30 10631 N 1002.15 -0.195058 1.56388 0
M  V30 10632 C 1003.4 -0.9168 1.80894 0
M  V30 10633 C 1003.73 -1.82907 0.652592 0
M  V30 10634 O 1003.01 -1.91382 -0.346853 0
M  V30 10635 C 1003.29 -1.733 3.15657 0
M  V30 10636 C 1003.14 -0.845449 4.41783 0
M  V30 10637 C 1004.46 -2.70557 3.47112 0
M  V30 10638 H 1001.58 -0.331861 0.658056 0
M  V30 10639 H 1004.22 -0.184174 1.89105 0
M  V30 10640 H 1002.37 -2.3576 3.08787 0
M  V30 10641 H 1004.04 -0.235557 4.60698 0
M  V30 10642 H 1002.29 -0.152172 4.33533 0
M  V30 10643 H 1002.96 -1.45152 5.32574 0
M  V30 10644 H 1005.43 -2.1823 3.54281 0
M  V30 10645 H 1004.31 -3.24749 4.42526 0
M  V30 10646 H 1004.57 -3.49605 2.70608 0
M  V30 10647 N 1003.63 -1.50653 -0.462772 0
M  V30 10648 C 1004.91 -1.5258 -1.22387 0
M  V30 10649 C 1005.29 -0.275263 -2.09298 0
M  V30 10650 O 1004.63 0.740943 -2.16153 0
M  V30 10651 C 1004.84 -2.82611 -2.04773 0
M  V30 10652 C 1006.19 -3.33592 -2.62681 0
M  V30 10653 O 1007.22 -2.83989 -2.15008 0
M  V30 10654 O 1006.08 -4.20081 -3.49563 0
M  V30 10655 H 1003.17 -0.612367 -0.55582 0
M  V30 10656 H 1005.72 -1.62948 -0.473914 0
M  V30 10657 H 1004.49 -3.65098 -1.40781 0
M  V30 10658 H 1004.11 -2.75286 -2.86886 0
M  V30 10659 N 1005.11 0.71652 -1.4037 0
M  V30 10660 C 1006.06 1.82219 -1.37041 0
M  V30 10661 C 1007.04 1.58975 -0.248116 0
M  V30 10662 O 1008.23 1.70164 -0.487147 0
M  V30 10663 C 1005.36 3.20337 -1.23446 0
M  V30 10664 C 1004.45 3.49347 -2.40452 0
M  V30 10665 N 1004.84 3.49179 -3.65934 0
M  V30 10666 C 1003.14 3.798 -2.33811 0
M  V30 10667 C 1003.84 3.76506 -4.43416 0
M  V30 10668 N 1002.82 3.95209 -3.73244 0
M  V30 10669 H 1006.62 1.80421 -2.32003 0
M  V30 10670 H 1004.13 0.915603 -1.34129 0
M  V30 10671 H 1006.13 3.99513 -1.19143 0
M  V30 10672 H 1004.79 3.23362 -0.294497 0
M  V30 10673 H 1005.8 3.30051 -3.99107 0
M  V30 10674 H 1002.48 3.9032 -1.48177 0
M  V30 10675 H 1003.87 3.82689 -5.52267 0
M  V30 10676 N 1006.59 1.25851 0.948643 0
M  V30 10677 C 1007.81 1.13711 1.72851 0
M  V30 10678 C 1008.23 -0.308471 1.86263 0
M  V30 10679 O 1007.59 -1.21175 1.36465 0
M  V30 10680 C 1007.64 1.79271 3.13918 0
M  V30 10681 O 1007.36 3.18179 3.01154 0
M  V30 10682 C 1008.86 1.72988 4.08154 0
M  V30 10683 H 1006.08 0.396334 0.541443 0
M  V30 10684 H 1008.62 1.66329 1.18974 0
M  V30 10685 H 1006.78 1.30609 3.64719 0
M  V30 10686 H 1007.19 3.50507 3.90186 0
M  V30 10687 H 1008.67 2.2351 5.04725 0
M  V30 10688 H 1009.14 0.694866 4.33668 0
M  V30 10689 H 1009.75 2.21166 3.63271 0
M  V30 10690 N 1008.06 -1.15214 1.07534 0
M  V30 10691 C 1008.97 -2.23636 0.708818 0
M  V30 10692 C 1009.99 -1.7172 -0.280759 0
M  V30 10693 O 1011.17 -2.01 -0.126927 0
M  V30 10694 C 1008.23 -3.46512 0.114167 0
M  V30 10695 C 1007.29 -4.13409 1.15722 0
M  V30 10696 C 1006.53 -5.30419 0.59085 0
M  V30 10697 O 1006.75 -5.67314 -0.592512 0
M  V30 10698 O 1005.68 -5.86871 1.33663 0
M  V30 10699 H 1009.51 -2.57322 1.61305 0
M  V30 10700 H 1007.09 -1.22972 0.848422 0
M  V30 10701 H 1008.98 -4.20851 -0.215091 0
M  V30 10702 H 1007.65 -3.1457 -0.763356 0
M  V30 10703 H 1006.56 -3.40984 1.53886 0
M  V30 10704 H 1007.89 -4.49435 2.00671 0
M  V30 10705 N 1009.54 -0.859717 -1.32086 0
M  V30 10706 C 1010.95 -0.519529 -1.79326 0
M  V30 10707 C 1011.3 0.96295 -1.70944 0
M  V30 10708 O 1010.43 1.75139 -1.27104 0
M  V30 10709 C 1011.02 -0.936267 -3.25606 0
M  V30 10710 C 1009.58 -0.647899 -3.70782 0
M  V30 10711 C 1008.73 -1.13323 -2.53087 0
M  V30 10712 H 1011.68 -1.04643 -1.19312 0
M  V30 10713 H 1011.7 -0.254714 -3.79646 0
M  V30 10714 H 1011.21 -2.01527 -3.31675 0
M  V30 10715 H 1009.32 0.420172 -3.70223 0
M  V30 10716 H 1009.43 -1.21774 -4.63366 0
M  V30 10717 H 1007.79 -0.553325 -2.48617 0
M  V30 10718 H 1008.58 -2.21945 -2.61907 0
M  V30 10719 N 1011.02 1.44971 -0.618145 0
M  V30 10720 C 1012.27 2.02159 -0.117482 0
M  V30 10721 C 1012.6 1.48517 1.2559 0
M  V30 10722 O 1011.85 0.654192 1.84442 0
M  V30 10723 C 1012.15 3.57378 -0.0394861 0
M  V30 10724 C 1011.82 4.30218 -1.34993 0
M  V30 10725 C 1010.48 4.49835 -1.70886 0
M  V30 10726 C 1012.83 4.71768 -2.21551 0
M  V30 10727 C 1010.16 5.08258 -2.9307 0
M  V30 10728 C 1012.51 5.31543 -3.42993 0
M  V30 10729 C 1011.17 5.49381 -3.79126 0
M  V30 10730 H 1010.44 0.739752 -0.0429897 0
M  V30 10731 H 1013.09 1.73903 -0.801871 0
M  V30 10732 H 1011.4 3.84973 0.728217 0
M  V30 10733 H 1013.09 3.99343 0.364213 0
M  V30 10734 H 1009.68 4.15271 -1.06057 0
M  V30 10735 H 1013.87 4.56336 -1.95117 0
M  V30 10736 H 1009.12 5.20257 -3.21158 0
M  V30 10737 H 1013.3 5.62691 -4.10308 0
M  V30 10738 H 1010.92 5.94419 -4.73888 0
M  V30 10739 N 1012.5 0.357919 1.53482 0
M  V30 10740 C 1013.74 -0.23451 2.0144 0
M  V30 10741 C 1014.08 -1.49044 1.24497 0
M  V30 10742 O 1013.35 -1.91566 0.336535 0
M  V30 10743 C 1013.64 -0.534193 3.56116 0
M  V30 10744 C 1013.49 0.734834 4.43757 0
M  V30 10745 C 1014.81 -1.33793 4.1927 0
M  V30 10746 H 1011.93 -0.0837595 0.732225 0
M  V30 10747 H 1014.57 0.481297 1.83803 0
M  V30 10748 H 1012.72 -1.144 3.71275 0
M  V30 10749 H 1014.39 1.37251 4.40409 0
M  V30 10750 H 1012.63 1.35678 4.12036 0
M  V30 10751 H 1013.3 0.48021 5.49907 0
M  V30 10752 H 1015.78 -0.822158 4.07897 0
M  V30 10753 H 1014.66 -1.51636 5.27539 0
M  V30 10754 H 1014.92 -2.34423 3.74831 0
M  V30 10755 N 1013.98 -1.5736 0.0868897 0
M  V30 10756 C 1015.2 -1.98388 -0.587349 0
M  V30 10757 C 1015.62 -0.965757 -1.6223 0
M  V30 10758 O 1014.98 0.0456981 -1.82443 0
M  V30 10759 C 1015.03 -3.39479 -1.24242 0
M  V30 10760 O 1014.75 -4.37393 -0.248878 0
M  V30 10761 C 1016.25 -3.95465 -2.00305 0
M  V30 10762 H 1013.47 -0.652111 -0.15809 0
M  V30 10763 H 1016.01 -2.03843 0.163754 0
M  V30 10764 H 1014.17 -3.35063 -1.94451 0
M  V30 10765 H 1014.58 -5.19525 -0.720678 0
M  V30 10766 H 1016.06 -4.96363 -2.41511 0
M  V30 10767 H 1016.53 -3.32832 -2.86565 0
M  V30 10768 H 1017.14 -4.03328 -1.34931 0
M  V30 10769 N 1015.45 0.186762 -1.56489 0
M  V30 10770 C 1016.42 1.21511 -1.94339 0
M  V30 10771 C 1017.42 1.38001 -0.82537 0
M  V30 10772 O 1018.61 1.3567 -1.09266 0
M  V30 10773 C 1015.74 2.583 -2.22472 0
M  V30 10774 H 1016.93 0.891371 -2.86347 0
M  V30 10775 H 1014.49 0.428612 -1.50308 0
M  V30 10776 H 1015.22 2.95715 -1.33129 0
M  V30 10777 H 1015.01 2.47701 -3.03951 0
M  V30 10778 H 1016.5 3.32441 -2.5273 0
M  V30 10779 N 1016.93 1.50896 0.454776 0
M  V30 10780 C 1017.84 1.73762 1.5762 0
M  V30 10781 C 1018.86 0.621206 1.62533 0
M  V30 10782 O 1020.03 0.901449 1.801 0
M  V30 10783 C 1017.1 1.84183 2.9373 0
M  V30 10784 C 1016.16 3.07982 2.99075 0
M  V30 10785 C 1015.39 3.17896 4.28693 0
M  V30 10786 O 1015.62 2.34184 5.20109 0
M  V30 10787 O 1014.55 4.10749 4.39964 0
M  V30 10788 H 1018.38 2.68856 1.41245 0
M  V30 10789 H 1015.96 1.35187 0.635984 0
M  V30 10790 H 1017.84 1.93123 3.74542 0
M  V30 10791 H 1016.52 0.922742 3.10269 0
M  V30 10792 H 1015.43 3.04531 2.17282 0
M  V30 10793 H 1016.76 3.99523 2.87476 0
M  V30 10794 N 1018.41 -0.709066 1.40748 0
M  V30 10795 C 1019.37 -1.80485 1.41272 0
M  V30 10796 C 1020.37 -1.57872 0.305463 0
M  V30 10797 O 1021.56 -1.64793 0.564691 0
M  V30 10798 C 1018.7 -3.1867 1.21087 0
M  V30 10799 H 1019.89 -1.81417 2.38805 0
M  V30 10800 H 1017.44 -0.915356 1.26692 0
M  V30 10801 H 1018.18 -3.23385 0.243406 0
M  V30 10802 H 1017.96 -3.36484 2.01299 0
M  V30 10803 H 1019.45 -3.98685 1.24257 0
M  V30 10804 N 1019.89 -1.26353 -0.941956 0
M  V30 10805 C 1021.12 -1.14626 -1.72245 0
M  V30 10806 C 1021.53 0.298588 -1.86424 0
M  V30 10807 O 1020.89 1.2045 -1.37106 0
M  V30 10808 C 1020.94 -1.80933 -3.12963 0
M  V30 10809 O 1020.66 -3.19771 -2.99463 0
M  V30 10810 C 1022.16 -1.7515 -4.07231 0
M  V30 10811 H 1019.38 -0.3992 -0.539333 0
M  V30 10812 H 1021.93 -1.66958 -1.1809 0
M  V30 10813 H 1020.08 -1.32541 -3.64021 0
M  V30 10814 H 1020.5 -3.52571 -3.88322 0
M  V30 10815 H 1021.97 -2.26183 -5.03533 0
M  V30 10816 H 1022.45 -0.717855 -4.33294 0
M  V30 10817 H 1023.05 -2.2309 -3.62093 0
M  V30 10818 N 1021.37 1.14642 -1.08144 0
M  V30 10819 C 1022.32 2.17665 -0.678661 0
M  V30 10820 C 1023.3 1.58072 0.300336 0
M  V30 10821 O 1024.49 1.7664 0.112781 0
M  V30 10822 C 1021.62 3.43191 -0.0866362 0
M  V30 10823 C 1020.71 4.0982 -1.09126 0
M  V30 10824 N 1021.1 4.51814 -2.27372 0
M  V30 10825 C 1019.4 4.36272 -0.926411 0
M  V30 10826 C 1020.1 5.03581 -2.91172 0
M  V30 10827 N 1019.07 4.97624 -2.18795 0
M  V30 10828 H 1022.88 2.47872 -1.57914 0
M  V30 10829 H 1020.39 1.31296 -0.955772 0
M  V30 10830 H 1022.39 4.1632 0.219859 0
M  V30 10831 H 1021.05 3.14464 0.80886 0
M  V30 10832 H 1022.06 4.44941 -2.65044 0
M  V30 10833 H 1018.74 4.17414 -0.084492 0
M  V30 10834 H 1020.13 5.45969 -3.91621 0
M  V30 10835 N 1022.85 0.866709 1.31628 0
M  V30 10836 C 1023.78 0.335762 2.31073 0
M  V30 10837 C 1024.76 -0.571597 1.60209 0
M  V30 10838 O 1025.94 -0.489306 1.87935 0
M  V30 10839 C 1023.07 -0.466416 3.44154 0
M  V30 10840 C 1022.03 0.347561 4.26586 0
M  V30 10841 C 1021.35 -0.5801 5.31544 0
M  V30 10842 C 1022.65 1.57986 4.97833 0
M  V30 10843 H 1024.35 1.16673 2.75731 0
M  V30 10844 H 1021.89 0.56248 1.3256 0
M  V30 10845 H 1023.84 -0.84836 4.12772 0
M  V30 10846 H 1022.57 -1.33086 2.98254 0
M  V30 10847 H 1021.23 0.71141 3.59631 0
M  V30 10848 H 1020.88 -1.44174 4.81895 0
M  V30 10849 H 1020.58 -0.0393965 5.87587 0
M  V30 10850 H 1022.1 -0.958958 6.03023 0
M  V30 10851 H 1023.51 1.26954 5.59067 0
M  V30 10852 H 1021.91 2.05939 5.63657 0
M  V30 10853 H 1022.98 2.3345 4.25005 0
M  V30 10854 N 1024.32 -1.44642 0.625825 0
M  V30 10855 C 1025.74 -1.56925 0.290992 0
M  V30 10856 C 1025.94 -1.61424 -1.20601 0
M  V30 10857 O 1025 -1.55439 -1.98985 0
M  V30 10858 C 1026.31 -2.84343 0.978242 0
M  V30 10859 C 1027.86 -2.98047 0.955882 0
M  V30 10860 C 1028.33 -4.2826 1.62349 0
M  V30 10861 N 1029.82 -4.35062 1.58983 0
M  V30 10862 C 1030.56 -5.34524 2.07538 0
M  V30 10863 N 1030.05 -6.4042 2.6426 0
M  V30 10864 N 1031.85 -5.25998 1.98198 0
M  V30 10865 H 1024 -1.39965 1.59761 0
M  V30 10866 H 1026.26 -0.670368 0.670306 0
M  V30 10867 H 1025.97 -2.86985 2.03304 0
M  V30 10868 H 1025.84 -3.73699 0.512726 0
M  V30 10869 H 1028.23 -2.94961 -0.0904292 0
M  V30 10870 H 1028.31 -2.10053 1.45984 0
M  V30 10871 H 1027.95 -4.32105 2.66923 0
M  V30 10872 H 1027.88 -5.15102 1.09441 0
M  V30 10873 H 1030.37 -3.59147 1.17565 0
M  V30 10874 H 1030.69 -7.1259 2.99056 0
M  V30 10875 H 1029.03 -6.41121 2.68308 0
M  V30 10876 H 1032.22 -4.42178 1.5361 0
M  V30 10877 H 1032.4 -6.03359 2.3635 0
M  V30 10878 N 1025.8 -0.366053 -1.5329 0
M  V30 10879 C 1027.05 0.223824 -2.01561 0
M  V30 10880 C 1027.38 1.48382 -1.25286 0
M  V30 10881 O 1026.66 1.91385 -0.34669 0
M  V30 10882 C 1026.94 0.5153 -3.56394 0
M  V30 10883 C 1026.79 -0.758357 -4.43361 0
M  V30 10884 C 1028.11 1.31568 -4.19974 0
M  V30 10885 H 1025.23 0.0798751 -0.732659 0
M  V30 10886 H 1027.87 -0.491038 -1.83545 0
M  V30 10887 H 1026.02 1.12429 -3.71876 0
M  V30 10888 H 1027.69 -1.39584 -4.39675 0
M  V30 10889 H 1025.94 -1.37862 -4.11311 0
M  V30 10890 H 1026.61 -0.509366 -5.49645 0
M  V30 10891 H 1029.08 0.800514 -4.08327 0
M  V30 10892 H 1027.96 1.48837 -5.28336 0
M  V30 10893 H 1028.22 2.32432 -3.76069 0
M  V30 10894 N 1027.28 1.57312 -0.0952337 0
M  V30 10895 C 1028.53 1.93974 0.567319 0
M  V30 10896 C 1028.85 0.977805 1.68713 0
M  V30 10897 O 1028.12 0.0298944 1.95877 0
M  V30 10898 H 1026.7 0.71612 0.212558 0
M  V30 10899 H 1029.36 1.94254 -0.158598 0
M  V30 10900 H 1028.46 2.964 0.977423 0
M  V30 10901 N 1028.76 -0.17846 1.56586 0
M  V30 10902 C 1030 -0.892915 1.82753 0
M  V30 10903 C 1030.36 -1.8018 0.674744 0
M  V30 10904 O 1029.65 -1.8875 -0.329219 0
M  V30 10905 C 1029.85 -1.73063 3.12704 0
M  V30 10906 C 1029.67 -0.904341 4.40513 0
M  V30 10907 C 1028.44 -0.582221 5.01935 0
M  V30 10908 C 1030.64 -0.249232 5.13696 0
M  V30 10909 N 1028.62 0.260955 6.13345 0
M  V30 10910 C 1030 0.455417 6.18325 0
M  V30 10911 C 1032.05 -0.166663 4.97621 0
M  V30 10912 C 1030.75 1.23479 7.08622 0
M  V30 10913 C 1032.78 0.599362 5.88355 0
M  V30 10914 C 1032.14 1.2924 6.92442 0
M  V30 10915 H 1028.24 -0.30559 0.719818 0
M  V30 10916 H 1030.82 -0.160405 1.94038 0
M  V30 10917 H 1029 -2.43461 3.02624 0
M  V30 10918 H 1030.73 -2.38584 3.26894 0
M  V30 10919 H 1027.48 -0.910612 4.64763 0
M  V30 10920 H 1027.91 0.672643 6.7365 0
M  V30 10921 H 1032.55 -0.688116 4.17163 0
M  V30 10922 H 1030.27 1.76762 7.88531 0
M  V30 10923 H 1033.85 0.664826 5.77989 0
M  V30 10924 H 1032.73 1.87564 7.61439 0
M  V30 10925 N 1030.24 -1.51135 -0.446768 0
M  V30 10926 C 1031.2 -1.71187 -1.52406 0
M  V30 10927 C 1032.2 -0.582037 -1.49897 0
M  V30 10928 O 1033.39 -0.849452 -1.52085 0
M  V30 10929 C 1030.52 -1.75962 -2.91976 0
M  V30 10930 H 1031.71 -2.67324 -1.35934 0
M  V30 10931 H 1029.27 -1.40982 -0.674813 0
M  V30 10932 H 1030 -0.816065 -3.13864 0
M  V30 10933 H 1029.79 -2.58065 -2.95203 0
M  V30 10934 H 1031.28 -1.93347 -3.70144 0
M  V30 10935 N 1031.71 0.701592 -1.41122 0
M  V30 10936 C 1032.94 1.49553 -1.43696 0
M  V30 10937 C 1033.36 1.88053 -0.0421865 0
M  V30 10938 O 1032.72 1.54223 0.953144 0
M  V30 10939 C 1032.77 2.73834 -2.34622 0
M  V30 10940 O 1031.87 3.71088 -1.7991 0
M  V30 10941 H 1031.21 0.450352 -0.487933 0
M  V30 10942 H 1033.74 0.862886 -1.85514 0
M  V30 10943 H 1033.75 3.22209 -2.5029 0
M  V30 10944 H 1032.43 2.45149 -3.35969 0
M  V30 10945 H 1031.01 3.29994 -1.73661 0
M  V30 10946 N 1033.19 1.2685 0.935242 0
M  V30 10947 C 1034.42 1.15538 1.71635 0
M  V30 10948 C 1034.83 -0.288698 1.8658 0
M  V30 10949 O 1034.19 -1.19721 1.37743 0
M  V30 10950 C 1034.24 1.8259 3.11999 0
M  V30 10951 O 1033.96 3.21355 2.97763 0
M  V30 10952 C 1035.46 1.77307 4.06297 0
M  V30 10953 H 1032.68 0.402055 0.537208 0
M  V30 10954 H 1035.23 1.67582 1.17203 0
M  V30 10955 H 1033.38 1.3447 3.63313 0
M  V30 10956 H 1033.8 3.54626 3.86446 0
M  V30 10957 H 1035.27 2.28851 5.02326 0
M  V30 10958 H 1035.75 0.740823 4.32907 0
M  V30 10959 H 1036.35 2.25007 3.60904 0
M  V30 10960 N 1034.67 -1.14067 1.0875 0
M  V30 10961 C 1035.58 -2.22871 0.732498 0
M  V30 10962 C 1036.6 -1.72008 -0.26253 0
M  V30 10963 O 1037.77 -2.01123 -0.105601 0
M  V30 10964 C 1034.84 -3.46371 0.150913 0
M  V30 10965 C 1033.9 -4.12158 1.201 0
M  V30 10966 C 1033.13 -5.29763 0.647075 0
M  V30 10967 O 1033.35 -5.67911 -0.532307 0
M  V30 10968 O 1032.29 -5.8542 1.3988 0
M  V30 10969 H 1036.11 -2.55596 1.64025 0
M  V30 10970 H 1033.7 -1.22065 0.861417 0
M  V30 10971 H 1035.58 -4.21055 -0.170442 0
M  V30 10972 H 1034.26 -3.15362 -0.729948 0
M  V30 10973 H 1033.16 -3.39332 1.57494 0
M  V30 10974 H 1034.5 -4.47282 2.05426 0
M  V30 10975 N 1036.15 -0.873678 -1.31166 0
M  V30 10976 C 1037.4 -0.485497 -1.96182 0
M  V30 10977 C 1037.72 0.96621 -1.69379 0
M  V30 10978 O 1036.99 1.67783 -1.01121 0
M  V30 10979 H 1035.57 -0.176547 -0.725838 0
M  V30 10980 H 1038.23 -1.11428 -1.59906 0
M  V30 10981 H 1037.33 -0.646325 -3.05334 0
M  V30 10982 N 1037.63 1.44308 -0.633487 0
M  V30 10983 C 1038.86 2.06085 -0.145852 0
M  V30 10984 C 1039.26 1.47432 1.18577 0
M  V30 10985 O 1038.61 0.592575 1.7388 0
M  V30 10986 C 1038.67 3.59477 0.0407848 0
M  V30 10987 C 1038.33 4.40607 -1.21304 0
M  V30 10988 C 1039.33 4.73937 -2.13728 0
M  V30 10989 C 1037.02 4.80943 -1.44911 0
M  V30 10990 C 1039.01 5.46489 -3.28068 0
M  V30 10991 C 1036.7 5.53243 -2.59548 0
M  V30 10992 C 1037.69 5.85936 -3.50953 0
M  V30 10993 O 1037.38 6.56764 -4.6359 0
M  V30 10994 H 1037.11 0.671484 -0.0780085 0
M  V30 10995 H 1039.67 1.86128 -0.868658 0
M  V30 10996 H 1037.9 3.77933 0.818761 0
M  V30 10997 H 1039.59 4.03013 0.483273 0
M  V30 10998 H 1040.35 4.43311 -1.96725 0
M  V30 10999 H 1036.23 4.54915 -0.746537 0
M  V30 11000 H 1039.78 5.71924 -3.99435 0
M  V30 11001 H 1035.67 5.83285 -2.76493 0
M  V30 11002 H 1036.44 6.75234 -4.62602 0
M  V30 11003 N 1039.1 0.374177 1.53094 0
M  V30 11004 C 1040.33 -0.215903 2.06273 0
M  V30 11005 C 1040.75 -1.40979 1.24526 0
M  V30 11006 O 1040.11 -1.79331 0.266462 0
M  V30 11007 C 1040.16 -0.579089 3.5592 0
M  V30 11008 O 1039.26 -1.67516 3.76845 0
M  V30 11009 H 1038.61 -0.0293981 0.663349 0
M  V30 11010 H 1041.14 0.537271 1.9742 0
M  V30 11011 H 1041.15 -0.847678 3.99097 0
M  V30 11012 H 1039.82 0.293843 4.14861 0
M  V30 11013 H 1038.4 -1.40146 3.45563 0
M  V30 11014 N 1040.58 -1.57259 0.103575 0
M  V30 11015 C 1041.99 -1.81816 -0.424239 0
M  V30 11016 C 1042.34 -1.01976 -1.67617 0
M  V30 11017 O 1041.47 -0.251673 -2.14932 0
M  V30 11018 C 1042.06 -3.29783 -0.776453 0
M  V30 11019 C 1040.62 -3.55074 -1.24897 0
M  V30 11020 C 1039.77 -2.76172 -0.249875 0
M  V30 11021 H 1042.72 -1.55254 0.328913 0
M  V30 11022 H 1042.74 -3.43569 -1.63526 0
M  V30 11023 H 1042.25 -3.87865 0.134906 0
M  V30 11024 H 1040.36 -3.02332 -2.17775 0
M  V30 11025 H 1040.47 -4.637 -1.20495 0
M  V30 11026 H 1038.83 -2.43902 -0.733767 0
M  V30 11027 H 1039.62 -3.37007 0.65431 0
M  V30 11028 N 1042.06 0.170153 -1.56679 0
M  V30 11029 C 1043.29 0.900826 -1.85927 0
M  V30 11030 C 1043.7 1.76285 -0.687033 0
M  V30 11031 O 1043.04 1.80276 0.353029 0
M  V30 11032 C 1043.1 1.82723 -3.096 0
M  V30 11033 C 1042.77 1.14469 -4.42432 0
M  V30 11034 C 1043.76 0.509598 -5.17396 0
M  V30 11035 C 1041.45 1.1411 -4.89167 0
M  V30 11036 C 1043.44 -0.119976 -6.37287 0
M  V30 11037 C 1041.13 0.507703 -6.08987 0
M  V30 11038 C 1042.13 -0.121731 -6.82892 0
M  V30 11039 O 1041.82 -0.74514 -8.00439 0
M  V30 11040 H 1041.55 0.267087 -0.621 0
M  V30 11041 H 1044.1 0.17474 -2.04655 0
M  V30 11042 H 1042.33 2.59367 -2.8682 0
M  V30 11043 H 1044.02 2.42784 -3.25285 0
M  V30 11044 H 1044.79 0.504341 -4.82371 0
M  V30 11045 H 1040.67 1.62043 -4.31582 0
M  V30 11046 H 1044.21 -0.611872 -6.94911 0
M  V30 11047 H 1040.11 0.510548 -6.43478 0
M  V30 11048 H 1040.88 -0.644506 -8.15959 0
M  V30 11049 N 1043.54 1.5137 0.438746 0
M  V30 11050 C 1044.95 1.56462 1.01866 0
M  V30 11051 C 1045.3 0.387244 1.9234 0
M  V30 11052 O 1044.43 -0.496131 2.10636 0
M  V30 11053 C 1045.02 2.83557 1.85421 0
M  V30 11054 C 1043.58 2.91224 2.38464 0
M  V30 11055 C 1042.73 2.51109 1.17641 0
M  V30 11056 H 1045.68 1.57167 0.220072 0
M  V30 11057 H 1045.7 2.6724 2.70857 0
M  V30 11058 H 1045.21 3.69229 1.19546 0
M  V30 11059 H 1043.31 2.09979 3.07798 0
M  V30 11060 H 1043.42 3.94844 2.71358 0
M  V30 11061 H 1041.79 2.04276 1.5213 0
M  V30 11062 H 1042.57 3.39125 0.533785 0
M  V30 11063 N 1045.02 -0.694098 1.41492 0
M  V30 11064 C 1046.26 -1.45127 1.4065 0
M  V30 11065 C 1046.59 -1.94993 0.0170289 0
M  V30 11066 O 1045.86 -1.71799 -0.941372 0
M  V30 11067 H 1044.44 -0.538493 0.51772 0
M  V30 11068 H 1047.1 -0.821441 1.76744 0
M  V30 11069 H 1046.19 -2.31372 2.0946 0
M  V30 11070 N 1046.49 -1.27344 -0.928501 0
M  V30 11071 C 1047.74 -1.13411 -1.67279 0
M  V30 11072 C 1048.06 0.320698 -1.92345 0
M  V30 11073 O 1047.33 1.2245 -1.52915 0
M  V30 11074 H 1045.91 -0.416712 -0.619968 0
M  V30 11075 H 1048.58 -1.5986 -1.11493 0
M  V30 11076 H 1047.67 -1.66256 -2.64131 0
M  V30 11077 N 1047.97 1.13488 -1.09353 0
M  V30 11078 C 1049.22 1.84383 -0.827488 0
M  V30 11079 C 1049.54 1.83892 0.648745 0
M  V30 11080 O 1048.81 1.29415 1.47066 0
M  V30 11081 H 1047.39 0.682732 -0.303127 0
M  V30 11082 H 1050.05 1.37477 -1.38152 0
M  V30 11083 H 1049.15 2.88919 -1.18035 0
M  V30 11084 N 1049.45 0.880621 1.30701 0
M  V30 11085 C 1050.36 0.348034 2.32004 0
M  V30 11086 C 1051.38 -0.547508 1.65162 0
M  V30 11087 O 1052.55 -0.441673 1.96497 0
M  V30 11088 C 1049.62 -0.432585 3.43991 0
M  V30 11089 C 1048.68 0.492189 4.26469 0
M  V30 11090 C 1047.91 -0.25127 5.33108 0
M  V30 11091 O 1048.14 -1.47795 5.5092 0
M  V30 11092 O 1047.07 0.396376 6.00593 0
M  V30 11093 H 1050.9 1.18798 2.79501 0
M  V30 11094 H 1048.48 0.64432 1.34792 0
M  V30 11095 H 1050.36 -0.874733 4.12221 0
M  V30 11096 H 1049.04 -1.2489 2.98637 0
M  V30 11097 H 1047.94 0.983058 3.60953 0
M  V30 11098 H 1049.28 1.27439 4.75416 0
M  V30 11099 N 1050.93 -1.4397 0.641131 0
M  V30 11100 C 1051.84 -2.34526 -0.058742 0
M  V30 11101 C 1052.86 -1.53194 -0.825088 0
M  V30 11102 O 1054.03 -1.85888 -0.775081 0
M  V30 11103 C 1051.1 -3.31313 -1.02139 0
M  V30 11104 C 1050.16 -4.28552 -0.253319 0
M  V30 11105 C 1049.39 -5.20715 -1.17012 0
M  V30 11106 O 1049.61 -5.17028 -2.40911 0
M  V30 11107 O 1048.55 -5.9839 -0.649039 0
M  V30 11108 H 1052.37 -2.95843 0.686329 0
M  V30 11109 H 1049.96 -1.43909 0.401316 0
M  V30 11110 H 1051.84 -3.90862 -1.57496 0
M  V30 11111 H 1050.52 -2.72516 -1.7469 0
M  V30 11112 H 1049.42 -3.72519 0.343531 0
M  V30 11113 H 1050.76 -4.90297 0.432372 0
M  V30 11114 N 1052.41 -0.382291 -1.52893 0
M  V30 11115 C 1053.65 0.194935 -2.02464 0
M  V30 11116 C 1054.01 1.45051 -1.26404 0
M  V30 11117 O 1053.3 1.88302 -0.353968 0
M  V30 11118 C 1053.5 0.523437 -3.53546 0
M  V30 11119 C 1053.32 -0.698754 -4.44238 0
M  V30 11120 C 1052.09 -1.2159 -4.90453 0
M  V30 11121 C 1054.29 -1.56899 -4.89783 0
M  V30 11122 N 1052.27 -2.39637 -5.65197 0
M  V30 11123 C 1053.65 -2.59595 -5.63037 0
M  V30 11124 C 1055.7 -1.58991 -4.71833 0
M  V30 11125 C 1054.4 -3.6426 -6.20248 0
M  V30 11126 C 1056.43 -2.62559 -5.29922 0
M  V30 11127 C 1055.79 -3.63977 -6.03076 0
M  V30 11128 H 1051.89 0.0336043 -0.781278 0
M  V30 11129 H 1054.47 -0.530603 -1.8733 0
M  V30 11130 H 1052.65 1.21804 -3.68807 0
M  V30 11131 H 1054.38 1.0872 -3.89823 0
M  V30 11132 H 1051.13 -0.777967 -4.67167 0
M  V30 11133 H 1051.56 -2.99348 -6.07223 0
M  V30 11134 H 1056.2 -0.819305 -4.14786 0
M  V30 11135 H 1053.92 -4.42192 -6.76382 0
M  V30 11136 H 1057.5 -2.65052 -5.17918 0
M  V30 11137 H 1056.38 -4.42802 -6.47222 0
M  V30 11138 N 1053.89 1.57202 -0.111913 0
M  V30 11139 C 1055.13 1.94565 0.546713 0
M  V30 11140 C 1055.45 0.995644 1.67666 0
M  V30 11141 O 1054.72 0.0506681 1.95834 0
M  V30 11142 H 1053.3 0.718334 0.204951 0
M  V30 11143 H 1055.97 1.94074 -0.179193 0
M  V30 11144 H 1055.06 2.9742 0.945931 0
M  V30 11145 N 1055.36 -0.161842 1.56767 0
M  V30 11146 C 1056.61 -0.875192 1.82167 0
M  V30 11147 C 1056.93 -1.82367 0.690444 0
M  V30 11148 O 1056.2 -1.93756 -0.289023 0
M  V30 11149 H 1054.78 -0.326178 0.672024 0
M  V30 11150 H 1057.44 -0.159392 1.94247 0
M  V30 11151 H 1056.54 -1.44639 2.76561 0
M  V30 11152 N 1056.84 -1.516 -0.430713 0
M  V30 11153 C 1057.79 -1.73975 -1.54387 0
M  V30 11154 C 1058.78 -0.606222 -1.58181 0
M  V30 11155 O 1059.99 -0.787764 -1.61846 0
M  V30 11156 H 1056.36 -0.549811 -0.513041 0
M  V30 11157 H 1058.34 -2.67274 -1.32692 0
M  V30 11158 C 1057.08 -1.88794 -2.9198 0
M  V30 11159 H 1056.41 -2.75425 -2.89795 0
M  V30 11160 H 1057.85 -2.08458 -3.69217 0
M  V30 11161 C 1056.31 -0.649427 -3.30581 0
M  V30 11162 O 1056.84 0.192823 -4.01237 0
M  V30 11163 N 1055.04 -0.491586 -2.86412 0
M  V30 11164 H 1054.59 -1.17806 -2.29084 0
M  V30 11165 H 1054.55 0.33583 -3.12601 0
M  V30 11166 N 1058.32 0.686584 -1.41858 0
M  V30 11167 C 1059.57 1.44379 -1.41418 0
M  V30 11168 C 1059.89 1.94981 -0.0273696 0
M  V30 11169 O 1059.16 1.72296 0.932248 0
M  V30 11170 H 1057.74 0.53574 -0.520568 0
M  V30 11171 H 1060.4 0.812056 -1.77177 0
M  V30 11172 H 1059.5 2.30258 -2.10684 0
M  V30 11173 N 1059.8 1.27835 0.921735 0
M  V30 11174 C 1061.04 1.14692 1.67253 0
M  V30 11175 C 1061.38 -0.305384 1.91784 0
M  V30 11176 O 1060.65 -1.22286 1.51249 0
M  V30 11177 C 1060.93 1.93743 3.03539 0
M  V30 11178 C 1060.79 3.46991 2.86212 0
M  V30 11179 C 1062.11 1.74658 4.03959 0
M  V30 11180 H 1059.23 0.418021 0.606983 0
M  V30 11181 H 1061.87 1.5706 1.06922 0
M  V30 11182 H 1060.02 1.57738 3.55037 0
M  V30 11183 H 1061.69 3.92858 2.41785 0
M  V30 11184 H 1059.93 3.73029 2.21432 0
M  V30 11185 H 1060.6 3.97551 3.82958 0
M  V30 11186 H 1063.08 2.06063 3.61493 0
M  V30 11187 H 1061.96 2.32353 4.97296 0
M  V30 11188 H 1062.22 0.696019 4.36587 0
M  V30 11189 N 1061.28 -1.12907 1.09954 0
M  V30 11190 C 1062.52 -1.83941 0.837255 0
M  V30 11191 C 1062.84 -1.84234 -0.638984 0
M  V30 11192 O 1062.11 -1.30193 -1.46378 0
M  V30 11193 H 1060.69 -0.681115 0.306743 0
M  V30 11194 H 1063.36 -1.36743 1.38879 0
M  V30 11195 H 1062.45 -2.88289 1.19565 0
M  V30 11196 N 1062.75 -0.88754 -1.30232 0
M  V30 11197 C 1064.03 -0.427249 -1.90877 0
M  V30 11198 C 1064.41 1.0922 -1.80649 0
M  V30 11199 O 1063.76 1.92866 -1.22536 0
M  V30 11200 C 1063.97 -0.928219 -3.3643 0
M  V30 11201 C 1065.32 -0.964706 -4.13496 0
M  V30 11202 O 1066.34 -0.875057 -3.45284 0
M  V30 11203 O 1065.2 -1.09754 -5.35366 0
M  V30 11204 H 1062.29 -0.131107 -0.816541 0
M  V30 11205 H 1064.84 -0.976609 -1.38782 0
M  V30 11206 H 1063.61 -1.97209 -3.37971 0
M  V30 11207 H 1063.23 -0.358169 -3.95983 0
M  V30 11208 N 1064.23 1.43628 -0.648757 0
M  V30 11209 C 1065.51 1.95391 -0.0904551 0
M  V30 11210 C 1065.89 1.59021 1.38837 0
M  V30 11211 O 1065.24 0.873078 2.11163 0
M  V30 11212 C 1065.45 3.47418 -0.33196 0
M  V30 11213 C 1066.8 4.23952 -0.234521 0
M  V30 11214 O 1067.82 3.55218 -0.264276 0
M  V30 11215 O 1066.68 5.46282 -0.154428 0
M  V30 11216 H 1063.77 0.82691 0.0121884 0
M  V30 11217 H 1066.32 1.5359 -0.721685 0
M  V30 11218 H 1065.09 3.67001 -1.35741 0
M  V30 11219 H 1064.71 3.96207 0.332556 0
M  V30 11220 N 1065.71 0.390394 1.52688 0
M  V30 11221 C 1066.64 -0.43567 2.294 0
M  V30 11222 C 1067.62 -1.06253 1.32832 0
M  V30 11223 O 1068.81 -1.07509 1.61726 0
M  V30 11224 C 1065.94 -1.56259 3.10162 0
M  V30 11225 C 1064.89 -1.06172 4.14622 0
M  V30 11226 C 1064.22 -2.2808 4.83615 0
M  V30 11227 C 1065.52 -0.128902 5.22141 0
M  V30 11228 H 1067.21 0.204384 2.98702 0
M  V30 11229 H 1064.76 0.0997377 1.43654 0
M  V30 11230 H 1066.71 -2.14732 3.62585 0
M  V30 11231 H 1065.43 -2.23025 2.38595 0
M  V30 11232 H 1064.09 -0.499518 3.63181 0
M  V30 11233 H 1063.74 -2.93358 4.08595 0
M  V30 11234 H 1063.44 -1.95227 5.5422 0
M  V30 11235 H 1064.96 -2.87193 5.38844 0
M  V30 11236 H 1066.38 -0.621849 5.69917 0
M  V30 11237 H 1064.78 0.109919 5.99999 0
M  V30 11238 H 1065.85 0.821884 4.77884 0
M  V30 11239 N 1067.19 -1.57141 0.120249 0
M  V30 11240 C 1068.44 -1.95238 -0.537449 0
M  V30 11241 C 1068.76 -1.00361 -1.66607 0
M  V30 11242 O 1068.02 -0.0277306 -1.9568 0
M  V30 11243 C 1068.32 -3.39745 -1.10941 0
M  V30 11244 C 1067.98 -4.50785 -0.102012 0
M  V30 11245 C 1066.65 -4.80882 0.174994 0
M  V30 11246 C 1069 -5.17913 0.584462 0
M  V30 11247 C 1066.33 -5.75424 1.14474 0
M  V30 11248 C 1068.68 -6.13497 1.54284 0
M  V30 11249 C 1067.34 -6.41987 1.82782 0
M  V30 11250 H 1066.61 -0.714425 -0.196666 0
M  V30 11251 H 1069.26 -1.90438 0.201418 0
M  V30 11252 H 1067.56 -3.41246 -1.92506 0
M  V30 11253 H 1069.26 -3.66536 -1.62642 0
M  V30 11254 H 1065.85 -4.27342 -0.328097 0
M  V30 11255 H 1070.03 -4.94815 0.383625 0
M  V30 11256 H 1065.29 -5.95801 1.37226 0
M  V30 11257 H 1069.46 -6.64598 2.08044 0
M  V30 11258 H 1067.09 -7.15052 2.5808 0
M  V30 11259 N 1068.67 0.153526 -1.5685 0
M  V30 11260 C 1069.89 0.886343 -1.87507 0
M  V30 11261 C 1070.32 1.74244 -0.708565 0
M  V30 11262 O 1069.67 1.78045 0.341997 0
M  V30 11263 C 1069.72 1.72428 -3.16703 0
M  V30 11264 O 1068.83 2.82784 -3.00178 0
M  V30 11265 H 1068.17 0.247259 -0.616246 0
M  V30 11266 H 1070.7 0.146306 -2.04076 0
M  V30 11267 H 1070.71 2.12062 -3.4856 0
M  V30 11268 H 1069.38 1.09558 -4.01211 0
M  V30 11269 H 1067.96 2.46604 -2.79716 0
M  V30 11270 N 1070.14 1.51827 0.422667 0
M  V30 11271 C 1071.37 1.68803 1.19117 0
M  V30 11272 C 1071.78 0.391228 1.85111 0
M  V30 11273 O 1071.13 -0.64148 1.72136 0
M  V30 11274 C 1071.19 2.75767 2.30636 0
M  V30 11275 C 1070.85 4.17929 1.8489 0
M  V30 11276 C 1071.85 5.02223 1.34416 0
M  V30 11277 C 1069.53 4.641 1.92136 0
M  V30 11278 C 1071.53 6.30756 0.917925 0
M  V30 11279 C 1069.21 5.92626 1.49123 0
M  V30 11280 C 1070.21 6.75782 0.990352 0
M  V30 11281 O 1069.9 8.01902 0.566386 0
M  V30 11282 H 1069.63 0.569303 0.364514 0
M  V30 11283 H 1072.19 1.9909 0.505208 0
M  V30 11284 H 1070.42 2.40827 3.02555 0
M  V30 11285 H 1072.11 2.81476 2.92448 0
M  V30 11286 H 1072.87 4.67749 1.28202 0
M  V30 11287 H 1068.75 3.99488 2.30066 0
M  V30 11288 H 1072.29 6.95612 0.52628 0
M  V30 11289 H 1068.19 6.26611 1.55012 0
M  V30 11290 H 1068.96 8.15579 0.690918 0
M  V30 11291 N 1071.62 -0.679052 1.4222 0
M  V30 11292 C 1072.87 -1.43627 1.42182 0
M  V30 11293 C 1073.19 -1.94964 0.0377095 0
M  V30 11294 O 1072.46 -1.72788 -0.923098 0
M  V30 11295 H 1071.04 -0.532972 0.523402 0
M  V30 11296 H 1073.7 -0.802649 1.77605 0
M  V30 11297 H 1072.8 -2.29137 2.11902 0
M  V30 11298 N 1073.1 -1.28322 -0.914942 0
M  V30 11299 C 1074.35 -1.15407 -1.66396 0
M  V30 11300 C 1074.68 0.297587 -1.9221 0
M  V30 11301 O 1073.93 1.23299 -1.51973 0
M  V30 11302 C 1074.23 -1.89663 -3.02924 0
M  V30 11303 C 1073.9 -3.39464 -2.96774 0
M  V30 11304 C 1072.56 -3.80321 -2.94804 0
M  V30 11305 C 1074.91 -4.3499 -2.87111 0
M  V30 11306 C 1072.24 -5.15046 -2.8097 0
M  V30 11307 C 1074.59 -5.69788 -2.74818 0
M  V30 11308 C 1073.25 -6.09921 -2.71205 0
M  V30 11309 H 1072.52 -0.422303 -0.608885 0
M  V30 11310 H 1075.17 -1.59082 -1.06607 0
M  V30 11311 H 1073.48 -1.38533 -3.66491 0
M  V30 11312 H 1075.17 -1.77087 -3.59779 0
M  V30 11313 H 1071.76 -3.06979 -2.99101 0
M  V30 11314 H 1075.95 -4.04389 -2.87721 0
M  V30 11315 H 1071.2 -5.45271 -2.76568 0
M  V30 11316 H 1075.38 -6.43469 -2.66309 0
M  V30 11317 H 1073 -7.14267 -2.60243 0
M  V30 11318 N 1074.58 1.12322 -1.10551 0
M  V30 11319 C 1075.86 1.80201 -0.760715 0
M  V30 11320 C 1076.24 1.97228 0.752628 0
M  V30 11321 O 1075.58 1.54958 1.67929 0
M  V30 11322 C 1075.79 3.14491 -1.51316 0
M  V30 11323 C 1077.14 3.89671 -1.68647 0
M  V30 11324 O 1078.17 3.24151 -1.47664 0
M  V30 11325 O 1077.02 5.0722 -2.03445 0
M  V30 11326 H 1074.12 0.780084 -0.274587 0
M  V30 11327 H 1076.66 1.19147 -1.20839 0
M  V30 11328 H 1075.44 2.97396 -2.54306 0
M  V30 11329 H 1075.06 3.83253 -1.05842 0
M  V30 11330 N 1076.06 0.894434 1.2976 0
M  V30 11331 C 1077.3 0.516646 1.95385 0
M  V30 11332 C 1077.63 -0.939141 1.70895 0
M  V30 11333 O 1076.9 -1.66153 1.03778 0
M  V30 11334 H 1075.48 0.188072 0.722937 0
M  V30 11335 H 1078.14 1.13958 1.58113 0
M  V30 11336 H 1077.23 0.694819 3.04267 0
M  V30 11337 N 1077.53 -1.43282 0.656365 0
M  V30 11338 C 1078.46 -2.33492 -0.0196962 0
M  V30 11339 C 1079.45 -1.49647 -0.80868 0
M  V30 11340 O 1080.63 -1.78303 -0.769529 0
M  V30 11341 C 1077.76 -3.33052 -0.984574 0
M  V30 11342 C 1076.71 -4.26908 -0.305483 0
M  V30 11343 C 1076.04 -5.16531 -1.38202 0
M  V30 11344 C 1077.34 -5.16073 0.804081 0
M  V30 11345 H 1079.03 -2.90272 0.733661 0
M  V30 11346 H 1076.58 -1.39574 0.354259 0
M  V30 11347 H 1078.53 -3.9506 -1.46647 0
M  V30 11348 H 1077.26 -2.74535 -1.76913 0
M  V30 11349 H 1075.92 -3.66268 0.155995 0
M  V30 11350 H 1075.56 -4.54351 -2.1581 0
M  V30 11351 H 1075.26 -5.80148 -0.932878 0
M  V30 11352 H 1076.79 -5.81414 -1.86522 0
M  V30 11353 H 1078.2 -5.71873 0.404212 0
M  V30 11354 H 1076.6 -5.88427 1.17789 0
M  V30 11355 H 1077.67 -4.55574 1.66073 0
M  V30 11356 N 1079.01 -0.398486 -1.52479 0
M  V30 11357 C 1079.96 0.449343 -2.23528 0
M  V30 11358 C 1080.95 1.02218 -1.24259 0
M  V30 11359 O 1082.14 0.946757 -1.49551 0
M  V30 11360 C 1079.27 1.5712 -3.05235 0
M  V30 11361 C 1078.35 1.00966 -4.11906 0
M  V30 11362 N 1078.75 0.173855 -5.05501 0
M  V30 11363 C 1077.04 1.28124 -4.272 0
M  V30 11364 C 1077.74 -0.137391 -5.81538 0
M  V30 11365 N 1076.72 0.468972 -5.41573 0
M  V30 11366 H 1080.52 -0.195654 -2.93248 0
M  V30 11367 H 1078.04 -0.208305 -1.61059 0
M  V30 11368 H 1080.03 2.19108 -3.54679 0
M  V30 11369 H 1078.69 2.21893 -2.37052 0
M  V30 11370 H 1079.7 -0.189618 -5.17553 0
M  V30 11371 H 1076.38 1.92933 -3.70247 0
M  V30 11372 H 1077.77 -0.815159 -6.66937 0
M  V30 11373 N 1080.49 1.57075 -0.12858 0
M  V30 11374 C 1081.42 2.18833 0.814519 0
M  V30 11375 C 1082.4 1.13114 1.2704 0
M  V30 11376 O 1083.59 1.41387 1.33129 0
M  V30 11377 C 1080.72 2.79535 2.06101 0
M  V30 11378 C 1079.67 3.9092 1.74257 0
M  V30 11379 C 1079 4.38473 3.06015 0
M  V30 11380 C 1080.3 5.1257 1.00345 0
M  V30 11381 H 1081.99 2.97895 0.299862 0
M  V30 11382 H 1079.54 1.4329 0.14279 0
M  V30 11383 H 1081.49 3.21401 2.72543 0
M  V30 11384 H 1080.21 1.97777 2.59907 0
M  V30 11385 H 1078.87 3.49645 1.102 0
M  V30 11386 H 1078.52 3.53561 3.57776 0
M  V30 11387 H 1078.22 5.13591 2.85479 0
M  V30 11388 H 1079.75 4.82997 3.7356 0
M  V30 11389 H 1081.16 5.51395 1.56959 0
M  V30 11390 H 1079.56 5.93333 0.898693 0
M  V30 11391 H 1080.63 4.84899 -0.0081335 0
M  V30 11392 N 1081.97 -0.145205 1.5693 0
M  V30 11393 C 1083.22 -0.85395 1.84606 0
M  V30 11394 C 1083.57 -1.78709 0.712811 0
M  V30 11395 O 1082.86 -1.89406 -0.289108 0
M  V30 11396 C 1083.06 -1.66391 3.16305 0
M  V30 11397 C 1082.89 -0.810698 4.42332 0
M  V30 11398 C 1081.66 -0.475623 5.03057 0
M  V30 11399 C 1083.85 -0.140213 5.14109 0
M  V30 11400 N 1081.84 0.390996 6.12654 0
M  V30 11401 C 1083.21 0.586471 6.1722 0
M  V30 11402 C 1085.26 -0.0610725 4.97863 0
M  V30 11403 C 1083.97 1.38483 7.05844 0
M  V30 11404 C 1085.99 0.724026 5.86951 0
M  V30 11405 C 1085.35 1.43899 6.89545 0
M  V30 11406 H 1081.45 -0.290253 0.726138 0
M  V30 11407 H 1084.04 -0.119211 1.94335 0
M  V30 11408 H 1082.21 -2.36987 3.0772 0
M  V30 11409 H 1083.94 -2.31596 3.31882 0
M  V30 11410 H 1080.69 -0.811824 4.6659 0
M  V30 11411 H 1081.12 0.815383 6.72072 0
M  V30 11412 H 1085.76 -0.599475 4.18529 0
M  V30 11413 H 1083.48 1.93448 7.84604 0
M  V30 11414 H 1087.06 0.787276 5.76449 0
M  V30 11415 H 1085.94 2.03674 7.57289 0
M  V30 11416 N 1083.45 -1.52049 -0.414609 0
M  V30 11417 C 1084.67 -1.6997 -1.18848 0
M  V30 11418 C 1085.1 -0.406058 -1.83665 0
M  V30 11419 O 1084.46 0.635981 -1.69779 0
M  V30 11420 C 1084.5 -2.8327 -2.23138 0
M  V30 11421 O 1083.61 -2.48457 -3.29155 0
M  V30 11422 H 1082.95 -0.566003 -0.347183 0
M  V30 11423 H 1085.48 -1.98726 -0.486757 0
M  V30 11424 H 1085.49 -3.08022 -2.67557 0
M  V30 11425 H 1084.16 -3.7713 -1.75344 0
M  V30 11426 H 1082.74 -2.34357 -2.90054 0
M  V30 11427 N 1084.93 0.6715 -1.42579 0
M  V30 11428 C 1086.17 1.42871 -1.42941 0
M  V30 11429 C 1086.49 1.94941 -0.0480483 0
M  V30 11430 O 1085.76 1.73275 0.913921 0
M  V30 11431 H 1084.34 0.530189 -0.526221 0
M  V30 11432 H 1087.01 0.793219 -1.78028 0
M  V30 11433 H 1086.1 2.2801 -2.13114 0
M  V30 11434 N 1086.4 1.28806 0.908124 0
M  V30 11435 C 1087.64 1.17546 1.67219 0
M  V30 11436 C 1088.01 -0.270396 1.90086 0
M  V30 11437 O 1089.21 -0.505808 2.63998 0
M  V30 11438 C 1087.48 1.95774 2.99011 0
M  V30 11439 S 1089.04 2.00953 3.90081 0
M  V30 11440 H 1085.86 0.419283 0.574215 0
M  V30 11441 H 1088.46 1.6298 1.07971 0
M  V30 11442 H 1087.16 2.99978 2.80074 0
M  V30 11443 H 1086.69 1.50911 3.63303 0
M  V30 11444 H 1088.71 1.1201 4.83392 0
M  V30 11445 N 1087.88 -1.11734 1.11145 0
M  V30 11446 C 1089.13 -1.82766 0.853194 0
M  V30 11447 C 1089.44 -1.85408 -0.623168 0
M  V30 11448 O 1090.65 -2.52509 -0.997574 0
M  V30 11449 C 1089.11 -3.28215 1.47658 0
M  V30 11450 C 1088.71 -3.33911 2.98676 0
M  V30 11451 C 1090.46 -4.04168 1.29803 0
M  V30 11452 C 1088.36 -4.73739 3.54013 0
M  V30 11453 H 1087.29 -0.684807 0.315523 0
M  V30 11454 H 1089.95 -1.25756 1.33633 0
M  V30 11455 H 1088.33 -3.85138 0.921116 0
M  V30 11456 H 1089.5 -2.86887 3.606 0
M  V30 11457 H 1087.82 -2.71437 3.15771 0
M  V30 11458 H 1090.41 -5.07429 1.68582 0
M  V30 11459 H 1090.76 -4.15606 0.240302 0
M  V30 11460 H 1091.29 -3.53623 1.82196 0
M  V30 11461 H 1088.03 -4.67497 4.59485 0
M  V30 11462 H 1087.55 -5.21186 2.9686 0
M  V30 11463 H 1089.23 -5.42691 3.52271 0
M  V30 11464 N 1089.36 -0.901303 -1.29284 0
M  V30 11465 C 1090.32 -0.385081 -2.25942 0
M  V30 11466 C 1091.32 0.481626 -1.53418 0
M  V30 11467 O 1092.51 0.286451 -1.71829 0
M  V30 11468 C 1089.64 0.449319 -3.37926 0
M  V30 11469 H 1090.84 -1.23877 -2.7312 0
M  V30 11470 H 1088.39 -0.679586 -1.40753 0
M  V30 11471 H 1089.13 1.32292 -2.9609 0
M  V30 11472 H 1088.91 -0.171731 -3.91724 0
M  V30 11473 H 1090.4 0.801746 -4.09831 0
M  V30 11474 N 1090.84 1.42931 -0.663954 0
M  V30 11475 C 1092.25 1.56098 -0.332496 0
M  V30 11476 C 1092.45 1.64564 1.16279 0
M  V30 11477 O 1091.51 1.6066 1.94794 0
M  V30 11478 C 1092.82 2.81649 -1.05329 0
M  V30 11479 C 1094.37 2.95408 -1.03457 0
M  V30 11480 C 1094.85 4.23805 -1.73647 0
M  V30 11481 N 1096.34 4.30693 -1.70462 0
M  V30 11482 C 1097.07 5.28833 -2.21637 0
M  V30 11483 N 1096.57 6.33189 -2.81147 0
M  V30 11484 N 1098.36 5.20558 -2.12075 0
M  V30 11485 H 1090.51 1.3568 -1.63416 0
M  V30 11486 H 1092.77 0.652361 -0.687844 0
M  V30 11487 H 1092.48 2.81494 -2.10842 0
M  V30 11488 H 1092.35 3.72208 -0.611626 0
M  V30 11489 H 1094.74 2.95097 0.0121936 0
M  V30 11490 H 1094.82 2.06109 -1.51502 0
M  V30 11491 H 1094.47 4.24876 -2.78285 0
M  V30 11492 H 1094.4 5.12019 -1.2306 0
M  V30 11493 H 1096.89 3.55904 -1.27046 0
M  V30 11494 H 1097.2 7.04411 -3.17844 0
M  V30 11495 H 1095.55 6.33781 -2.85212 0
M  V30 11496 H 1098.74 4.3795 -1.6528 0
M  V30 11497 H 1098.91 5.96881 -2.52264 0
M  V30 11498 N 1092.32 0.406567 1.52266 0
M  V30 11499 C 1093.54 -0.169624 2.06204 0
M  V30 11500 C 1093.96 -1.39076 1.27684 0
M  V30 11501 O 1093.32 -1.79528 0.328023 0
M  V30 11502 C 1093.37 -0.522611 3.57702 0
M  V30 11503 O 1093.09 0.650028 4.33251 0
M  V30 11504 C 1094.59 -1.15281 4.28048 0
M  V30 11505 H 1091.81 -0.0215191 0.670655 0
M  V30 11506 H 1094.35 0.576781 1.96198 0
M  V30 11507 H 1092.51 -1.21891 3.67725 0
M  V30 11508 H 1092.92 0.355989 5.23291 0
M  V30 11509 H 1094.4 -1.35002 5.35237 0
M  V30 11510 H 1094.87 -2.12517 3.84361 0
M  V30 11511 H 1095.48 -0.496786 4.22389 0
M  V30 11512 N 1093.79 -1.57004 0.136909 0
M  V30 11513 C 1095.04 -1.96087 -0.517477 0
M  V30 11514 C 1095.37 -1.0213 -1.65176 0
M  V30 11515 O 1094.65 -0.0617958 -1.94402 0
M  V30 11516 C 1094.93 -3.44958 -1.03323 0
M  V30 11517 C 1094.78 -4.49691 0.0988609 0
M  V30 11518 C 1096.1 -3.96091 -1.91832 0
M  V30 11519 H 1093.22 -0.712978 -0.186632 0
M  V30 11520 H 1095.86 -1.88767 0.216095 0
M  V30 11521 H 1094.01 -3.51327 -1.65836 0
M  V30 11522 H 1095.69 -4.55409 0.734847 0
M  V30 11523 H 1093.93 -4.271 0.75947 0
M  V30 11524 H 1094.6 -5.51165 -0.303554 0
M  V30 11525 H 1097.08 -3.92139 -1.39164 0
M  V30 11526 H 1095.95 -5.00742 -2.24831 0
M  V30 11527 H 1096.21 -3.37846 -2.85153 0
M  V30 11528 N 1095.27 0.136881 -1.57004 0
M  V30 11529 C 1096.5 0.866405 -1.88436 0
M  V30 11530 C 1096.92 1.73483 -0.727006 0
M  V30 11531 O 1096.28 1.78398 0.323094 0
M  V30 11532 C 1096.33 1.69059 -3.18514 0
M  V30 11533 O 1095.43 2.79584 -3.03161 0
M  V30 11534 H 1094.77 0.240709 -0.618834 0
M  V30 11535 H 1097.3 0.124653 -2.0422 0
M  V30 11536 H 1097.31 2.08353 -3.50789 0
M  V30 11537 H 1095.99 1.05296 -4.0235 0
M  V30 11538 H 1094.57 2.43623 -2.82315 0
M  V30 11539 N 1096.75 1.52266 0.40654 0
M  V30 11540 C 1097.98 1.70598 1.17945 0
M  V30 11541 C 1098.4 0.415793 1.83447 0
M  V30 11542 O 1097.76 -0.626968 1.70114 0
M  V30 11543 C 1097.81 2.84449 2.21633 0
M  V30 11544 O 1096.91 2.50199 3.27833 0
M  V30 11545 H 1096.25 0.567837 0.344177 0
M  V30 11546 H 1098.78 1.98981 0.476211 0
M  V30 11547 H 1098.79 3.09436 2.65919 0
M  V30 11548 H 1097.47 3.78055 1.73341 0
M  V30 11549 H 1096.04 2.35892 2.88807 0
M  V30 11550 N 1098.23 -0.663929 1.42933 0
M  V30 11551 C 1099.64 -1.24484 1.39143 0
M  V30 11552 C 1099.99 -1.95993 0.0901142 0
M  V30 11553 O 1099.12 -2.00636 -0.810812 0
M  V30 11554 C 1099.71 -2.26402 2.52047 0
M  V30 11555 C 1098.27 -2.79995 2.51555 0
M  V30 11556 C 1097.42 -1.54475 2.30289 0
M  V30 11557 H 1100.37 -0.456619 1.51989 0
M  V30 11558 H 1100.39 -3.08361 2.22921 0
M  V30 11559 H 1099.9 -1.74328 3.46744 0
M  V30 11560 H 1098 -3.36161 1.60707 0
M  V30 11561 H 1098.11 -3.2827 3.48964 0
M  V30 11562 H 1096.48 -1.81437 1.78753 0
M  V30 11563 H 1097.26 -1.04351 3.27056 0
M  V30 11564 N 1099.71 -1.29285 -0.901281 0
M  V30 11565 C 1100.65 -1.14159 -2.02659 0
M  V30 11566 C 1101.65 -0.0575887 -1.69302 0
M  V30 11567 O 1102.85 -0.217273 -1.78684 0
M  V30 11568 H 1099.23 -0.352584 -0.66422 0
M  V30 11569 H 1101.2 -2.09434 -2.12555 0
M  V30 11570 C 1099.95 -0.833253 -3.37568 0
M  V30 11571 H 1099.27 -1.65939 -3.63737 0
M  V30 11572 H 1100.71 -0.767436 -4.16997 0
M  V30 11573 C 1099.17 0.46344 -3.33697 0
M  V30 11574 O 1099.7 1.48998 -3.73045 0
M  V30 11575 N 1097.91 0.468709 -2.86795 0
M  V30 11576 H 1097.45 -0.36712 -2.54971 0
M  V30 11577 H 1097.41 1.3363 -2.84588 0
M  V30 11578 N 1101.18 1.11143 -1.11736 0
M  V30 11579 C 1102.12 2.1705 -0.736325 0
M  V30 11580 C 1103.13 1.61116 0.233528 0
M  V30 11581 O 1104.32 1.78493 0.0159602 0
M  V30 11582 C 1101.42 3.38832 -0.067974 0
M  V30 11583 C 1100.59 4.24226 -1.06543 0
M  V30 11584 C 1099.65 5.24472 -0.426063 0
M  V30 11585 O 1098.68 5.58843 -1.0809 0
M  V30 11586 N 1099.88 5.74825 0.809711 0
M  V30 11587 H 1102.64 2.50349 -1.64758 0
M  V30 11588 H 1100.2 1.26693 -1.00799 0
M  V30 11589 H 1102.2 4.02991 0.371563 0
M  V30 11590 H 1100.77 3.0357 0.745917 0
M  V30 11591 H 1099.99 3.56475 -1.68283 0
M  V30 11592 H 1101.27 4.78117 -1.74016 0
M  V30 11593 H 1100.67 5.49088 1.36084 0
M  V30 11594 H 1099.23 6.40804 1.19218 0
M  V30 11595 N 1102.66 0.908147 1.28804 0
M  V30 11596 C 1103.61 0.363504 2.25084 0
M  V30 11597 C 1104.6 -0.52121 1.52224 0
M  V30 11598 O 1105.79 -0.361848 1.73262 0
M  V30 11599 C 1102.92 -0.400353 3.40958 0
M  V30 11600 C 1102 0.499761 4.21145 0
M  V30 11601 N 1102.39 1.61082 4.79464 0
M  V30 11602 C 1100.69 0.299108 4.44996 0
M  V30 11603 C 1101.39 2.16906 5.39747 0
M  V30 11604 N 1100.37 1.46103 5.23598 0
M  V30 11605 H 1104.17 1.21212 2.6774 0
M  V30 11606 H 1101.69 0.760159 1.43511 0
M  V30 11607 H 1103.68 -0.807343 4.09008 0
M  V30 11608 H 1102.34 -1.24613 2.99836 0
M  V30 11609 H 1103.35 1.99347 4.77997 0
M  V30 11610 H 1100.03 -0.507611 4.14403 0
M  V30 11611 H 1101.42 3.10338 5.95936 0
M  V30 11612 N 1104.14 -1.42577 0.671525 0
M  V30 11613 C 1105.07 -2.33499 0.00506984 0
M  V30 11614 C 1106.05 -1.50497 -0.792763 0
M  V30 11615 O 1107.24 -1.79109 -0.750574 0
M  V30 11616 C 1104.37 -3.34077 -0.949194 0
M  V30 11617 C 1103.32 -4.27208 -0.260187 0
M  V30 11618 C 1102.65 -5.17968 -1.32716 0
M  V30 11619 C 1103.95 -5.15192 0.858772 0
M  V30 11620 H 1105.64 -2.89477 0.764407 0
M  V30 11621 H 1103.19 -1.39191 0.369043 0
M  V30 11622 H 1105.14 -3.96594 -1.42448 0
M  V30 11623 H 1103.86 -2.76396 -1.73991 0
M  V30 11624 H 1102.52 -3.66082 0.194834 0
M  V30 11625 H 1102.17 -4.56615 -2.10979 0
M  V30 11626 H 1101.87 -5.81104 -0.871293 0
M  V30 11627 H 1103.39 -5.83359 -1.80345 0
M  V30 11628 H 1104.81 -5.71412 0.464844 0
M  V30 11629 H 1103.21 -5.87144 1.24023 0
M  V30 11630 H 1104.28 -4.53787 1.70895 0
M  V30 11631 N 1105.62 -0.414636 -1.52048 0
M  V30 11632 C 1106.55 0.399119 -2.30064 0
M  V30 11633 C 1107.53 1.04126 -1.34506 0
M  V30 11634 O 1108.71 1.04923 -1.63416 0
M  V30 11635 C 1105.84 1.51305 -3.12608 0
M  V30 11636 C 1104.8 0.995621 -4.16259 0
M  V30 11637 C 1104.12 2.20357 -4.87183 0
M  V30 11638 C 1105.42 0.0458178 -5.2228 0
M  V30 11639 H 1107.12 -0.251879 -2.98339 0
M  V30 11640 H 1104.66 -0.122579 -1.43477 0
M  V30 11641 H 1106.62 2.08936 -3.65956 0
M  V30 11642 H 1105.34 2.19201 -2.42113 0
M  V30 11643 H 1104 0.441676 -3.6393 0
M  V30 11644 H 1103.65 2.8682 -4.13211 0
M  V30 11645 H 1103.35 1.86385 -5.57256 0
M  V30 11646 H 1104.87 2.78584 -5.43345 0
M  V30 11647 H 1106.29 0.531102 -5.70835 0
M  V30 11648 H 1104.68 -0.20536 -5.99749 0
M  V30 11649 H 1105.75 -0.897807 -4.76516 0
M  V30 11650 N 1107.1 1.56929 -0.145233 0
M  V30 11651 C 1108.51 1.58196 0.211194 0
M  V30 11652 C 1108.71 1.15941 1.64803 0
M  V30 11653 O 1107.77 0.858888 2.37443 0
M  V30 11654 C 1109.08 3.00665 -0.0459569 0
M  V30 11655 C 1110.63 3.12995 0.0178913 0
M  V30 11656 C 1111.1 4.5751 -0.211905 0
M  V30 11657 N 1112.6 4.62928 -0.158772 0
M  V30 11658 C 1113.33 5.72555 -0.311111 0
M  V30 11659 N 1112.83 6.90838 -0.521074 0
M  V30 11660 N 1114.62 5.61549 -0.248838 0
M  V30 11661 H 1106.77 1.8269 -1.08342 0
M  V30 11662 H 1109.03 0.845514 -0.428731 0
M  V30 11663 H 1108.74 3.35962 -1.0403 0
M  V30 11664 H 1108.61 3.71125 0.674246 0
M  V30 11665 H 1111 2.7754 1.00278 0
M  V30 11666 H 1111.08 2.45025 -0.734612 0
M  V30 11667 H 1110.73 4.93669 -1.19389 0
M  V30 11668 H 1110.66 5.23604 0.560901 0
M  V30 11669 H 1113.15 3.779 -0.00107283 0
M  V30 11670 H 1113.46 7.70248 -0.62747 0
M  V30 11671 H 1111.8 6.92761 -0.557374 0
M  V30 11672 H 1115 4.68022 -0.0855821 0
M  V30 11673 H 1115.17 6.46937 -0.370997 0
M  V30 11674 N 1108.58 -0.128553 1.57075 0
M  V30 11675 C 1109.8 -0.85245 1.88523 0
M  V30 11676 C 1110.22 -1.73886 0.735459 0
M  V30 11677 O 1109.58 -1.80114 -0.294113 0
M  V30 11678 C 1109.63 -1.69384 3.19361 0
M  V30 11679 O 1109.35 -0.84313 4.2991 0
M  V30 11680 C 1110.85 -2.52373 3.64449 0
M  V30 11681 H 1108.07 -0.245556 0.624454 0
M  V30 11682 H 1110.61 -0.115807 2.04172 0
M  V30 11683 H 1108.77 -2.38335 3.0541 0
M  V30 11684 H 1109.18 -1.42255 5.0484 0
M  V30 11685 H 1110.66 -3.06955 4.58784 0
M  V30 11686 H 1111.13 -3.29283 2.90636 0
M  V30 11687 H 1111.74 -1.88681 3.81155 0
M  V30 11688 N 1110.05 -1.5248 -0.398459 0
M  V30 11689 C 1111.33 -1.57634 -1.15805 0
M  V30 11690 C 1111.71 -0.363785 -2.07942 0
M  V30 11691 O 1111.06 0.648598 -2.19101 0
M  V30 11692 C 1111.27 -2.91042 -1.92602 0
M  V30 11693 C 1112.62 -3.44433 -2.48296 0
M  V30 11694 O 1113.64 -2.92853 -2.0277 0
M  V30 11695 O 1112.5 -4.34529 -3.31432 0
M  V30 11696 H 1109.59 -0.63539 -0.529347 0
M  V30 11697 H 1112.14 -1.64812 -0.404376 0
M  V30 11698 H 1110.91 -3.7074 -1.25169 0
M  V30 11699 H 1110.53 -2.87206 -2.74952 0
M  V30 11700 N 1111.53 0.65634 -1.43283 0
M  V30 11701 C 1112.81 1.41339 -1.35213 0
M  V30 11702 C 1113.19 2.111 0.00158494 0
M  V30 11703 O 1112.54 2.0457 1.018 0
M  V30 11704 C 1112.75 2.40066 -2.53317 0
M  V30 11705 C 1114.09 3.04159 -2.96264 0
M  V30 11706 O 1115.12 2.50393 -2.53341 0
M  V30 11707 O 1113.98 4.01633 -3.70612 0
M  V30 11708 H 1111.07 0.631325 -0.534189 0
M  V30 11709 H 1113.62 0.68351 -1.55326 0
M  V30 11710 H 1112.39 1.87444 -3.43483 0
M  V30 11711 H 1112.01 3.20509 -2.35287 0
M  V30 11712 N 1113.01 1.29761 0.894412 0
M  V30 11713 C 1114.26 1.18214 1.64782 0
M  V30 11714 C 1114.59 -0.264635 1.92388 0
M  V30 11715 O 1113.86 -1.19051 1.53809 0
M  V30 11716 C 1114.15 2.00138 2.99361 0
M  V30 11717 C 1114 3.52984 2.78787 0
M  V30 11718 C 1115.32 1.83187 4.00163 0
M  V30 11719 H 1112.44 0.430802 0.597979 0
M  V30 11720 H 1115.08 1.59292 1.03566 0
M  V30 11721 H 1113.23 1.65233 3.51611 0
M  V30 11722 H 1114.9 3.97898 2.33398 0
M  V30 11723 H 1113.14 3.77642 2.13469 0
M  V30 11724 H 1113.82 4.05585 3.7444 0
M  V30 11725 H 1116.29 2.13684 3.57041 0
M  V30 11726 H 1115.17 2.42849 4.92255 0
M  V30 11727 H 1115.43 0.788469 4.35012 0
M  V30 11728 N 1114.49 -1.10549 1.12324 0
M  V30 11729 C 1115.74 -1.81851 0.872531 0
M  V30 11730 C 1116.05 -1.86058 -0.603468 0
M  V30 11731 O 1117.26 -2.53553 -0.970736 0
M  V30 11732 C 1115.71 -3.26631 1.51131 0
M  V30 11733 C 1115.32 -3.30725 3.02201 0
M  V30 11734 C 1117.06 -4.02768 1.34082 0
M  V30 11735 C 1114.97 -4.69957 3.59018 0
M  V30 11736 H 1113.9 -0.681422 0.322769 0
M  V30 11737 H 1116.55 -1.24332 1.34959 0
M  V30 11738 H 1114.93 -3.8414 0.961913 0
M  V30 11739 H 1116.11 -2.83046 3.63623 0
M  V30 11740 H 1114.42 -2.68072 3.18632 0
M  V30 11741 H 1117.02 -5.05612 1.73955 0
M  V30 11742 H 1117.36 -4.15328 0.284369 0
M  V30 11743 H 1117.9 -3.51671 1.85937 0
M  V30 11744 H 1114.63 -4.62597 4.64418 0
M  V30 11745 H 1114.15 -5.18008 3.02371 0
M  V30 11746 H 1115.83 -5.38925 3.58007 0
M  V30 11747 N 1115.97 -0.914965 -1.28321 0
M  V30 11748 C 1117.19 -0.564023 -1.99583 0
M  V30 11749 C 1117.62 0.847821 -1.6791 0
M  V30 11750 O 1116.97 1.56682 -0.912171 0
M  V30 11751 C 1117.02 -0.781368 -3.52033 0
M  V30 11752 O 1116.13 0.159072 -4.12093 0
M  V30 11753 H 1115.47 -0.218565 -0.626997 0
M  V30 11754 H 1118 -1.23074 -1.63444 0
M  V30 11755 H 1118.01 -0.691946 -4.0209 0
M  V30 11756 H 1116.68 -1.81059 -3.7442 0
M  V30 11757 H 1115.26 0.0208145 -3.72894 0
M  V30 11758 N 1117.44 1.42219 -0.679077 0
M  V30 11759 C 1118.68 2.03349 -0.207058 0
M  V30 11760 C 1119.05 1.52554 1.16581 0
M  V30 11761 O 1120.25 2.05499 1.73274 0
M  V30 11762 C 1118.52 3.56562 -0.244537 0
M  V30 11763 S 1120.08 4.38523 0.155853 0
M  V30 11764 H 1116.9 0.705932 -0.0847444 0
M  V30 11765 H 1119.5 1.73904 -0.893183 0
M  V30 11766 H 1118.2 3.91028 -1.246 0
M  V30 11767 H 1117.73 3.90686 0.461282 0
M  V30 11768 H 1119.75 4.76389 1.38808 0
M  V30 11769 N 1118.92 0.422693 1.51826 0
M  V30 11770 C 1120.16 -0.147997 2.03864 0
M  V30 11771 C 1120.53 -1.41224 1.30076 0
M  V30 11772 O 1121.73 -2.06224 1.72409 0
M  V30 11773 C 1120 -0.376248 3.55414 0
M  V30 11774 S 1121.56 -0.912444 4.29208 0
M  V30 11775 H 1118.37 -0.0387084 0.709946 0
M  V30 11776 H 1120.98 0.578733 1.86738 0
M  V30 11777 H 1119.68 0.550451 4.06692 0
M  V30 11778 H 1119.21 -1.13047 3.76807 0
M  V30 11779 H 1121.23 -2.19161 4.45177 0
M  V30 11780 N 1120.4 -1.5685 0.153553 0
M  V30 11781 C 1121.33 -2.20101 -0.779601 0
M  V30 11782 C 1122.31 -1.15121 -1.25225 0
M  V30 11783 O 1123.5 -1.43487 -1.30862 0
M  V30 11784 C 1120.63 -2.82778 -2.01628 0
M  V30 11785 C 1119.58 -3.93643 -1.68015 0
M  V30 11786 C 1118.91 -4.43286 -2.99001 0
M  V30 11787 C 1120.21 -5.14102 -0.921774 0
M  V30 11788 H 1121.9 -2.98334 -0.252432 0
M  V30 11789 H 1119.45 -1.43499 -0.119975 0
M  V30 11790 H 1121.4 -3.25696 -2.67395 0
M  V30 11791 H 1120.12 -2.01887 -2.56728 0
M  V30 11792 H 1118.78 -3.51354 -1.04624 0
M  V30 11793 H 1118.43 -3.59208 -3.52106 0
M  V30 11794 H 1118.13 -5.18068 -2.77272 0
M  V30 11795 H 1119.65 -4.88878 -3.65828 0
M  V30 11796 H 1121.07 -5.53823 -1.48167 0
M  V30 11797 H 1119.46 -5.94687 -0.804185 0
M  V30 11798 H 1120.53 -4.84825 0.0852757 0
M  V30 11799 N 1121.88 0.120221 -1.57141 0
M  V30 11800 C 1123.15 0.858458 -1.75755 0
M  V30 11801 C 1123.53 1.98124 -0.728693 0
M  V30 11802 O 1122.88 2.27155 0.247573 0
M  V30 11803 C 1123.09 1.37627 -3.20718 0
M  V30 11804 C 1124.44 1.82909 -3.83183 0
M  V30 11805 O 1125.46 1.47309 -3.24312 0
M  V30 11806 O 1124.32 2.4865 -4.86657 0
M  V30 11807 H 1121.42 0.407583 -0.719587 0
M  V30 11808 H 1123.96 0.104057 -1.69381 0
M  V30 11809 H 1122.74 0.570651 -3.87117 0
M  V30 11810 H 1122.36 2.19341 -3.31625 0
M  V30 11811 N 1123.36 1.52689 0.390367 0
M  V30 11812 C 1124.29 1.80338 1.48325 0
M  V30 11813 C 1125.27 0.655338 1.56969 0
M  V30 11814 O 1126.45 0.902792 1.7194 0
M  V30 11815 C 1123.58 1.97101 2.85952 0
M  V30 11816 C 1122.54 3.12783 2.92148 0
M  V30 11817 C 1121.86 3.14798 4.32211 0
M  V30 11818 C 1123.16 4.5188 2.61919 0
M  V30 11819 H 1124.86 2.71857 1.25437 0
M  V30 11820 H 1122.4 1.30813 0.601995 0
M  V30 11821 H 1124.36 2.15027 3.62411 0
M  V30 11822 H 1123.08 1.02271 3.10174 0
M  V30 11823 H 1121.74 2.94638 2.18137 0
M  V30 11824 H 1121.39 2.17653 4.53471 0
M  V30 11825 H 1121.09 3.92507 4.37278 0
M  V30 11826 H 1122.61 3.34877 5.10578 0
M  V30 11827 H 1124.02 4.70134 3.28096 0
M  V30 11828 H 1122.42 5.31647 2.78337 0
M  V30 11829 H 1123.49 4.58689 1.57266 0
M  V30 11830 N 1124.83 -0.648732 1.43629 0
M  V30 11831 C 1126.06 -1.44117 1.49148 0
M  V30 11832 C 1126.48 -1.87767 0.111952 0
M  V30 11833 O 1125.84 -1.57655 -0.895249 0
M  V30 11834 C 1125.89 -2.64938 2.44623 0
M  V30 11835 O 1124.99 -3.64155 1.93559 0
M  V30 11836 H 1124.34 -0.431933 0.504312 0
M  V30 11837 H 1126.87 -0.793439 1.88589 0
M  V30 11838 H 1126.88 -3.12698 2.62076 0
M  V30 11839 H 1125.55 -2.3251 3.44836 0
M  V30 11840 H 1124.13 -3.23322 1.85789 0
M  V30 11841 N 1126.31 -1.30234 -0.887518 0
M  V30 11842 C 1127.28 -1.16384 -1.97452 0
M  V30 11843 C 1128.28 -0.0957942 -1.60514 0
M  V30 11844 O 1129.47 -0.343706 -1.70776 0
M  V30 11845 C 1126.6 -0.782514 -3.31797 0
M  V30 11846 H 1127.79 -2.12952 -2.11167 0
M  V30 11847 H 1125.34 -1.13594 -1.07359 0
M  V30 11848 H 1126.08 0.18278 -3.23785 0
M  V30 11849 H 1125.86 -1.55434 -3.59976 0
M  V30 11850 H 1127.35 -0.709011 -4.11537 0
M  V30 11851 N 1127.79 1.09952 -1.12909 0
M  V30 11852 C 1129.2 1.63516 -0.901087 0
M  V30 11853 C 1129.55 1.87932 0.563547 0
M  V30 11854 O 1128.68 1.625 1.42908 0
M  V30 11855 C 1129.27 2.97054 -1.62924 0
M  V30 11856 C 1127.83 3.47464 -1.44725 0
M  V30 11857 C 1126.98 2.21979 -1.66194 0
M  V30 11858 H 1129.93 0.933858 -1.28315 0
M  V30 11859 H 1129.95 3.64757 -1.08318 0
M  V30 11860 H 1129.46 2.79251 -2.69519 0
M  V30 11861 H 1127.56 3.70402 -0.40409 0
M  V30 11862 H 1127.68 4.25254 -2.20671 0
M  V30 11863 H 1126.04 2.30368 -1.0864 0
M  V30 11864 H 1126.82 2.06702 -2.74097 0
M  V30 11865 N 1129.27 0.921757 1.27833 0
M  V30 11866 C 1130.49 0.574599 1.99281 0
M  V30 11867 C 1130.92 -0.838905 1.68357 0
M  V30 11868 O 1130.28 -1.56196 0.920468 0
M  V30 11869 C 1130.32 0.800027 3.51613 0
M  V30 11870 O 1129.43 -0.137215 4.12172 0
M  V30 11871 H 1128.77 0.221887 0.625829 0
M  V30 11872 H 1131.3 1.23939 1.62789 0
M  V30 11873 H 1131.31 0.71326 4.01717 0
M  V30 11874 H 1129.98 1.83042 3.73455 0
M  V30 11875 H 1128.56 -0.00103872 3.729 0
M  V30 11876 N 1130.75 -1.41857 0.686609 0
M  V30 11877 C 1132 -2.00594 0.21095 0
M  V30 11878 C 1132.31 -1.54974 -1.19341 0
M  V30 11879 O 1133.51 -2.0621 -1.76607 0
M  V30 11880 C 1131.97 -3.58418 0.326261 0
M  V30 11881 C 1131.58 -4.13022 1.73542 0
M  V30 11882 C 1133.32 -4.24404 -0.0900816 0
M  V30 11883 C 1131.23 -5.6325 1.80287 0
M  V30 11884 H 1130.16 -0.75025 0.0751077 0
M  V30 11885 H 1132.81 -1.62442 0.853508 0
M  V30 11886 H 1131.19 -3.9413 -0.384394 0
M  V30 11887 H 1132.37 -3.88747 2.47411 0
M  V30 11888 H 1130.68 -3.5953 2.10065 0
M  V30 11889 H 1133.28 -5.34666 -0.060004 0
M  V30 11890 H 1133.62 -4.00745 -1.12733 0
M  V30 11891 H 1134.15 -3.93695 0.569979 0
M  V30 11892 H 1130.89 -5.91724 2.82034 0
M  V30 11893 H 1130.41 -5.89479 1.1079 0
M  V30 11894 H 1132.09 -6.2787 1.56167 0
M  V30 11895 N 1132.22 -0.430739 -1.51599 0
M  V30 11896 C 1133.45 0.139197 -2.06932 0
M  V30 11897 C 1133.87 1.3626 -1.29672 0
M  V30 11898 O 1133.23 1.78219 -0.332836 0
M  V30 11899 C 1133.28 0.446593 -3.57824 0
M  V30 11900 O 1132.38 1.53414 -3.82803 0
M  V30 11901 H 1131.73 0.00475812 -0.663983 0
M  V30 11902 H 1134.26 -0.610171 -1.9529 0
M  V30 11903 H 1134.27 0.698972 -4.01968 0
M  V30 11904 H 1132.94 -0.447613 -4.13484 0
M  V30 11905 H 1131.52 1.27224 -3.50526 0
M  V30 11906 N 1133.7 1.56767 -0.161869 0
M  V30 11907 C 1134.95 1.96594 0.485496 0
M  V30 11908 C 1135.28 1.04743 1.63887 0
M  V30 11909 O 1134.53 0.079602 1.95538 0
M  V30 11910 C 1134.83 3.42567 1.01894 0
M  V30 11911 C 1134.5 4.50897 -0.0175419 0
M  V30 11912 C 1133.16 4.80249 -0.302429 0
M  V30 11913 C 1135.51 5.16181 -0.721572 0
M  V30 11914 C 1132.84 5.72187 -1.2969 0
M  V30 11915 C 1135.19 6.09191 -1.70496 0
M  V30 11916 C 1133.86 6.36915 -1.99739 0
M  V30 11917 H 1133.13 0.719388 0.177656 0
M  V30 11918 H 1135.77 1.89837 -0.251839 0
M  V30 11919 H 1134.08 3.4623 1.83391 0
M  V30 11920 H 1135.77 3.70719 1.52867 0
M  V30 11921 H 1132.36 4.28062 0.21468 0
M  V30 11922 H 1136.55 4.93624 -0.514681 0
M  V30 11923 H 1131.8 5.91953 -1.52974 0
M  V30 11924 H 1135.98 6.58849 -2.25591 0
M  V30 11925 H 1133.61 7.07958 -2.76948 0
M  V30 11926 N 1135.18 -0.111886 1.57202 0
M  V30 11927 C 1136.6 -0.465629 1.52657 0
M  V30 11928 C 1136.8 -1.81463 0.875989 0
M  V30 11929 O 1135.85 -2.4825 0.461345 0
M  V30 11930 C 1137.17 -0.443571 2.9741 0
M  V30 11931 C 1138.71 -0.52662 3.08538 0
M  V30 11932 C 1139.19 -0.53488 4.54866 0
M  V30 11933 N 1140.68 -0.596117 4.59348 0
M  V30 11934 C 1141.41 -0.624073 5.69994 0
M  V30 11935 N 1140.91 -0.609245 6.90116 0
M  V30 11936 N 1142.7 -0.667619 5.58121 0
M  V30 11937 H 1134.85 0.771925 1.97876 0
M  V30 11938 H 1137.12 0.285534 0.903977 0
M  V30 11939 H 1136.82 0.480138 3.48407 0
M  V30 11940 H 1136.7 -1.26876 3.55221 0
M  V30 11941 H 1139.08 -1.44075 2.57539 0
M  V30 11942 H 1139.17 0.326396 2.53709 0
M  V30 11943 H 1138.81 0.375233 5.06512 0
M  V30 11944 H 1138.74 -1.40488 5.07514 0
M  V30 11945 H 1141.23 -0.613452 3.72888 0
M  V30 11946 H 1141.54 -0.633396 7.702 0
M  V30 11947 H 1139.89 -0.576557 6.92604 0
M  V30 11948 H 1143.08 -0.676616 4.63184 0
M  V30 11949 H 1143.25 -0.685938 6.44359 0
M  V30 11950 N 1136.66 -1.52894 -0.382264 0
M  V30 11951 C 1137.91 -1.67489 -1.12385 0
M  V30 11952 C 1138.22 -0.424565 -1.90937 0
M  V30 11953 O 1139.43 -0.450763 -2.67732 0
M  V30 11954 C 1137.88 -2.96019 -2.04697 0
M  V30 11955 C 1137.49 -4.28255 -1.31535 0
M  V30 11956 C 1139.23 -3.19981 -2.78949 0
M  V30 11957 C 1137.14 -5.47887 -2.22652 0
M  V30 11958 H 1136.07 -0.624002 -0.423246 0
M  V30 11959 H 1138.72 -1.79392 -0.386107 0
M  V30 11960 H 1137.1 -2.77878 -2.82134 0
M  V30 11961 H 1138.28 -4.56971 -0.592771 0
M  V30 11962 H 1136.59 -4.10607 -0.692148 0
M  V30 11963 H 1139.19 -4.06541 -3.47316 0
M  V30 11964 H 1139.53 -2.35335 -3.43399 0
M  V30 11965 H 1140.07 -3.38718 -2.08602 0
M  V30 11966 H 1136.81 -6.3496 -1.62806 0
M  V30 11967 H 1136.33 -5.23473 -2.92807 0
M  V30 11968 H 1138 -5.82026 -2.82586 0
M  V30 11969 N 1138.14 0.641106 -1.43971 0
M  V30 11970 C 1139.09 1.77474 -1.50352 0
M  V30 11971 C 1140.08 1.65173 -0.376052 0
M  V30 11972 O 1141.29 1.71373 -0.550572 0
M  V30 11973 H 1137.66 0.585747 -0.471597 0
M  V30 11974 H 1139.63 1.69213 -2.45784 0
M  V30 11975 C 1138.38 3.15778 -1.45532 0
M  V30 11976 H 1137.7 3.25886 -2.316 0
M  V30 11977 H 1139.14 3.95022 -1.54058 0
M  V30 11978 C 1137.6 3.36447 -0.174624 0
M  V30 11979 O 1138.13 3.9446 0.759215 0
M  V30 11980 N 1136.34 2.90487 -0.0809383 0
M  V30 11981 H 1135.89 2.43461 -0.841691 0
M  V30 11982 H 1135.84 3.04693 0.775231 0
M  V30 11983 N 1139.62 1.30703 0.880598 0
M  V30 11984 C 1140.86 1.19541 1.62955 0
M  V30 11985 C 1141.18 -0.249089 1.93403 0
M  V30 11986 O 1140.45 -1.1669 1.57354 0
M  V30 11987 H 1139.03 0.439434 0.604075 0
M  V30 11988 H 1141.7 1.63888 1.05483 0
M  V30 11989 H 1140.79 1.75945 2.57779 0
M  V30 11990 N 1141.09 -1.09351 1.1349 0
M  V30 11991 C 1142.03 -2.15852 0.770763 0
M  V30 11992 C 1143.04 -1.61468 -0.207866 0
M  V30 11993 O 1144.23 -1.78496 0.0124385 0
M  V30 11994 C 1141.33 -3.38681 0.121871 0
M  V30 11995 C 1140.5 -4.22477 1.13279 0
M  V30 11996 C 1139.56 -5.23728 0.509448 0
M  V30 11997 O 1138.59 -5.57052 1.16967 0
M  V30 11998 N 1139.79 -5.76041 -0.718159 0
M  V30 11999 H 1142.55 -2.47696 1.6872 0
M  V30 12000 H 1140.11 -1.25074 1.02801 0
M  V30 12001 H 1142.11 -4.03531 -0.307404 0
M  V30 12002 H 1140.68 -3.04718 -0.697527 0
M  V30 12003 H 1139.9 -3.53753 1.73933 0
M  V30 12004 H 1141.18 -4.75288 1.81601 0
M  V30 12005 H 1140.58 -5.51183 -1.27331 0
M  V30 12006 H 1139.14 -6.4262 -1.09008 0
M  V30 12007 N 1142.57 -0.928524 -1.27343 0
M  V30 12008 C 1143.98 -0.613856 -1.7632 0
M  V30 12009 C 1144.33 0.870983 -1.75808 0
M  V30 12010 O 1143.46 1.68155 -1.36209 0
M  V30 12011 C 1144.05 -1.10755 -3.20186 0
M  V30 12012 C 1142.61 -0.843532 -3.66826 0
M  V30 12013 C 1141.76 -1.26579 -2.46724 0
M  V30 12014 H 1144.71 -1.10821 -1.13598 0
M  V30 12015 H 1144.73 -0.455598 -3.77763 0
M  V30 12016 H 1144.24 -2.18825 -3.20526 0
M  V30 12017 H 1142.34 0.223334 -3.7193 0
M  V30 12018 H 1142.46 -1.46165 -4.56259 0
M  V30 12019 H 1140.82 -0.684334 -2.45334 0
M  V30 12020 H 1141.6 -2.35516 -2.49774 0
M  V30 12021 N 1144.05 1.41491 -0.694123 0
M  V30 12022 C 1145.3 2.0155 -0.224809 0
M  V30 12023 C 1145.63 1.54844 1.17205 0
M  V30 12024 O 1144.9 0.75899 1.7908 0
M  V30 12025 C 1145.19 3.59003 -0.280884 0
M  V30 12026 C 1145.04 4.15839 -1.71458 0
M  V30 12027 C 1146.36 4.38624 0.360122 0
M  V30 12028 H 1143.48 0.732293 -0.0831632 0
M  V30 12029 H 1146.12 1.68258 -0.882569 0
M  V30 12030 H 1144.27 3.87496 0.279164 0
M  V30 12031 H 1145.94 3.98227 -2.32837 0
M  V30 12032 H 1144.18 3.70936 -2.2492 0
M  V30 12033 H 1144.86 5.24997 -1.70536 0
M  V30 12034 H 1147.33 4.15936 -0.11683 0
M  V30 12035 H 1146.21 5.48132 0.290337 0
M  V30 12036 H 1146.47 4.1797 1.44062 0
M  V30 12037 N 1145.53 0.438773 1.51369 0
M  V30 12038 C 1146.46 -0.407771 2.25543 0
M  V30 12039 C 1147.47 -0.985065 1.29616 0
M  V30 12040 O 1148.66 -0.878961 1.55359 0
M  V30 12041 C 1145.76 -1.58257 2.9968 0
M  V30 12042 C 1144.93 -1.12389 4.22714 0
M  V30 12043 C 1143.99 -2.16897 4.79418 0
M  V30 12044 O 1143.02 -1.76273 5.41218 0
M  V30 12045 N 1144.22 -3.49396 4.63576 0
M  V30 12046 H 1146.99 0.227963 2.98832 0
M  V30 12047 H 1144.55 0.267741 1.59671 0
M  V30 12048 H 1146.54 -2.27796 3.34501 0
M  V30 12049 H 1145.11 -2.12362 2.29393 0
M  V30 12050 H 1144.33 -0.255509 3.93371 0
M  V30 12051 H 1145.62 -0.794848 5.02553 0
M  V30 12052 H 1145.02 -3.85132 4.14355 0
M  V30 12053 H 1143.57 -4.14826 5.02755 0
M  V30 12054 N 1147.01 -1.56678 0.170181 0
M  V30 12055 C 1148.25 -1.9646 -0.474125 0
M  V30 12056 C 1148.57 -1.05719 -1.63855 0
M  V30 12057 O 1147.84 -0.123316 -1.95511 0
M  V30 12058 H 1146.42 -0.725446 -0.178149 0
M  V30 12059 H 1149.09 -1.93276 0.251099 0
M  V30 12060 H 1148.18 -3.00726 -0.834894 0
M  V30 12061 N 1148.48 0.103547 -1.57259 0
M  V30 12062 C 1149.42 1.15707 -1.9669 0
M  V30 12063 C 1150.39 1.39292 -0.838837 0
M  V30 12064 O 1151.58 1.53192 -1.09839 0
M  V30 12065 C 1148.71 2.50793 -2.27642 0
M  V30 12066 C 1147.75 2.43541 -3.50129 0
M  V30 12067 S 1148.58 1.86009 -5.02156 0
M  V30 12068 C 1149.74 3.22737 -5.36276 0
M  V30 12069 H 1149.97 0.820891 -2.85742 0
M  V30 12070 H 1147.51 0.310906 -1.51237 0
M  V30 12071 H 1149.46 3.28512 -2.46151 0
M  V30 12072 H 1148.13 2.81583 -1.39176 0
M  V30 12073 H 1147.32 3.43085 -3.692 0
M  V30 12074 H 1146.92 1.73948 -3.31086 0
M  V30 12075 H 1149.21 4.1899 -5.32404 0
M  V30 12076 H 1150.16 3.08477 -6.37375 0
M  V30 12077 H 1150.56 3.21878 -4.6374 0
M  V30 12078 N 1149.96 1.53094 0.37415 0
M  V30 12079 C 1151.21 1.68861 1.11769 0
M  V30 12080 C 1151.54 0.436032 1.89549 0
M  V30 12081 O 1150.79 -0.581879 1.86849 0
M  V30 12082 C 1151.09 2.88432 2.11049 0
M  V30 12083 C 1150.76 4.25284 1.49814 0
M  V30 12084 C 1149.42 4.62501 1.32841 0
M  V30 12085 C 1151.77 5.10425 1.05433 0
M  V30 12086 C 1149.1 5.82502 0.700567 0
M  V30 12087 C 1151.45 6.31064 0.440525 0
M  V30 12088 C 1150.11 6.67 0.258216 0
M  V30 12089 H 1149.38 0.617906 0.40899 0
M  V30 12090 H 1152.03 1.87265 0.4005 0
M  V30 12091 H 1150.34 2.64505 2.8904 0
M  V30 12092 H 1152.03 2.97825 2.68517 0
M  V30 12093 H 1148.62 3.95976 1.64016 0
M  V30 12094 H 1152.81 4.82229 1.17342 0
M  V30 12095 H 1148.06 6.08942 0.547652 0
M  V30 12096 H 1152.24 6.96344 0.0883962 0
M  V30 12097 H 1149.86 7.59851 -0.230354 0
M  V30 12098 N 1151.44 -0.633461 1.44309 0
M  V30 12099 C 1152.35 -1.77428 1.53481 0
M  V30 12100 C 1153.37 -1.68839 0.420628 0
M  V30 12101 O 1154.54 -1.89658 0.677638 0
M  V30 12102 C 1151.61 -3.13801 1.47409 0
M  V30 12103 C 1150.67 -3.34039 2.6966 0
M  V30 12104 C 1149.9 -4.63907 2.63868 0
M  V30 12105 O 1150.12 -5.44559 1.69741 0
M  V30 12106 O 1149.06 -4.86295 3.54684 0
M  V30 12107 H 1152.88 -1.72642 2.49857 0
M  V30 12108 H 1150.47 -0.794399 1.26529 0
M  V30 12109 H 1152.35 -3.95101 1.46537 0
M  V30 12110 H 1151.03 -3.19134 0.541769 0
M  V30 12111 H 1149.93 -2.52427 2.761 0
M  V30 12112 H 1151.27 -3.33566 3.61931 0
M  V30 12113 N 1152.92 -1.31168 -0.873655 0
M  V30 12114 C 1153.87 -1.18432 -2.00191 0
M  V30 12115 C 1154.86 -0.0934873 -1.69142 0
M  V30 12116 O 1156.07 -0.255126 -1.78183 0
M  V30 12117 H 1152.44 -0.366594 -0.656592 0
M  V30 12118 H 1154.41 -2.13896 -2.08065 0
M  V30 12119 C 1153.16 -0.904668 -3.35725 0
M  V30 12120 H 1152.48 -1.73617 -3.60135 0
M  V30 12121 H 1153.92 -0.855715 -4.15275 0
M  V30 12122 C 1152.38 0.392554 -3.34605 0
M  V30 12123 O 1152.91 1.41052 -3.76121 0
M  V30 12124 N 1151.12 0.40777 -2.87725 0
M  V30 12125 H 1150.67 -0.42112 -2.54134 0
M  V30 12126 H 1150.62 1.27564 -2.87358 0
M  V30 12127 N 1154.4 1.08748 -1.14068 0
M  V30 12128 C 1155.64 1.81065 -0.906738 0
M  V30 12129 C 1155.97 1.86057 0.566844 0
M  V30 12130 O 1155.23 1.32976 1.43582 0
M  V30 12131 C 1155.53 3.26734 -1.44843 0
M  V30 12132 C 1155.19 3.41866 -2.94005 0
M  V30 12133 C 1153.85 3.45703 -3.34729 0
M  V30 12134 C 1156.21 3.45831 -3.89937 0
M  V30 12135 C 1153.53 3.51092 -4.70055 0
M  V30 12136 C 1155.89 3.52755 -5.25116 0
M  V30 12137 C 1154.55 3.54863 -5.65357 0
M  V30 12138 H 1153.82 0.662564 -0.331799 0
M  V30 12139 H 1156.47 1.28065 -1.42378 0
M  V30 12140 H 1154.77 3.82419 -0.852239 0
M  V30 12141 H 1156.47 3.81236 -1.2434 0
M  V30 12142 H 1153.06 3.39568 -2.61518 0
M  V30 12143 H 1157.24 3.421 -3.59557 0
M  V30 12144 H 1152.5 3.51015 -5.00598 0
M  V30 12145 H 1156.67 3.54768 -5.9926 0
M  V30 12146 H 1154.3 3.58792 -6.70203 0
M  V30 12147 N 1155.87 0.935264 1.26849 0
M  V30 12148 C 1156.82 0.430895 2.28574 0
M  V30 12149 C 1157.82 -0.488739 1.62196 0
M  V30 12150 O 1159.02 -0.367605 1.76206 0
M  V30 12151 H 1155.4 0.120793 0.742235 0
M  V30 12152 H 1157.37 1.3015 2.68521 0
M  V30 12153 C 1156.12 -0.294053 3.46454 0
M  V30 12154 H 1155.44 0.404416 3.97749 0
M  V30 12155 H 1156.88 -0.611272 4.19571 0
M  V30 12156 C 1155.34 -1.50975 3.01178 0
M  V30 12157 O 1155.87 -2.60826 3.05504 0
M  V30 12158 N 1154.08 -1.36423 2.56587 0
M  V30 12159 H 1153.62 -0.470483 2.53267 0
M  V30 12160 H 1153.58 -2.17886 2.26656 0
M  V30 12161 N 1157.35 -1.41121 0.701616 0
M  V30 12162 C 1158.6 -2.00359 0.232214 0
M  V30 12163 C 1158.91 -1.56231 -1.17691 0
M  V30 12164 O 1160.12 -2.08071 -1.74409 0
M  V30 12165 C 1158.58 -3.58052 0.364257 0
M  V30 12166 C 1158.18 -4.11158 1.77913 0
M  V30 12167 C 1159.93 -4.24476 -0.0450628 0
M  V30 12168 C 1157.84 -5.61306 1.8625 0
M  V30 12169 H 1156.77 -0.749411 0.0830609 0
M  V30 12170 H 1159.42 -1.61528 0.870689 0
M  V30 12171 H 1157.8 -3.94515 -0.342569 0
M  V30 12172 H 1158.97 -3.86101 2.5152 0
M  V30 12173 H 1157.29 -3.57282 2.13866 0
M  V30 12174 H 1159.88 -5.347 -0.00329209 0
M  V30 12175 H 1160.23 -4.01919 -1.08477 0
M  V30 12176 H 1160.76 -3.93069 0.611704 0
M  V30 12177 H 1157.5 -5.88699 2.88294 0
M  V30 12178 H 1157.02 -5.88271 1.17036 0
M  V30 12179 H 1158.7 -6.26179 1.62817 0
M  V30 12180 N 1158.83 -0.446794 -1.51134 0
M  V30 12181 C 1160.11 0.176892 -1.94798 0
M  V30 12182 C 1160.49 1.59229 -1.38598 0
M  V30 12183 O 1159.84 2.21097 -0.576905 0
M  V30 12184 C 1160.05 0.145 -3.48699 0
M  V30 12185 C 1161.39 0.345917 -4.23189 0
M  V30 12186 O 1162.42 0.222691 -3.55503 0
M  V30 12187 O 1161.28 0.592112 -5.43283 0
M  V30 12188 H 1158.37 0.12486 -0.81752 0
M  V30 12189 H 1160.92 -0.505453 -1.61998 0
M  V30 12190 H 1159.69 -0.844156 -3.82086 0
M  V30 12191 H 1159.31 0.869851 -3.87968 0
M  V30 12192 N 1160.31 1.56586 -0.178487 0
M  V30 12193 C 1161.56 1.96709 0.4637 0
M  V30 12194 C 1161.88 1.06586 1.63292 0
M  V30 12195 O 1161.15 0.133683 1.95443 0
M  V30 12196 H 1159.73 0.726381 0.174299 0
M  V30 12197 H 1162.39 1.9314 -0.261345 0
M  V30 12198 H 1161.49 3.01164 0.818934 0
M  V30 12199 N 1161.79 -0.095206 1.57312 0
M  V30 12200 C 1162.72 -1.11627 2.05089 0
M  V30 12201 C 1163.7 -1.41782 0.939787 0
M  V30 12202 O 1164.88 -1.51813 1.21105 0
M  V30 12203 C 1162.01 -2.43618 2.47523 0
M  V30 12204 C 1160.97 -2.27872 3.62296 0
M  V30 12205 C 1160.29 -3.65038 3.90706 0
M  V30 12206 C 1161.59 -1.71936 4.93189 0
M  V30 12207 H 1163.29 -0.718795 2.90644 0
M  V30 12208 H 1160.83 -0.344315 1.39823 0
M  V30 12209 H 1162.79 -3.1532 2.79556 0
M  V30 12210 H 1161.51 -2.85301 1.58968 0
M  V30 12211 H 1160.17 -1.58615 3.3051 0
M  V30 12212 H 1159.82 -4.04249 2.99319 0
M  V30 12213 H 1159.52 -3.55349 4.67976 0
M  V30 12214 H 1161.04 -4.38208 4.25213 0
M  V30 12215 H 1162.45 -2.33479 5.23603 0
M  V30 12216 H 1160.85 -1.73006 5.74621 0
M  V30 12217 H 1161.92 -0.678789 4.80125 0
M  V30 12218 N 1163.26 -1.53291 -0.366026 0
M  V30 12219 C 1164.51 -1.69451 -1.10872 0
M  V30 12220 C 1164.84 -0.446078 -1.89316 0
M  V30 12221 O 1164.09 0.571962 -1.87155 0
M  V30 12222 C 1164.39 -2.89547 -2.09517 0
M  V30 12223 C 1164.06 -4.26073 -1.47556 0
M  V30 12224 C 1162.72 -4.63199 -1.30386 0
M  V30 12225 C 1165.07 -5.10977 -1.02724 0
M  V30 12226 C 1162.4 -5.82866 -0.669666 0
M  V30 12227 C 1164.75 -6.31289 -0.407052 0
M  V30 12228 C 1163.42 -6.67128 -0.222839 0
M  V30 12229 H 1162.69 -0.620066 -0.405708 0
M  V30 12230 H 1165.33 -1.87475 -0.390563 0
M  V30 12231 H 1163.64 -2.66034 -2.87634 0
M  V30 12232 H 1165.34 -2.99245 -2.66933 0
M  V30 12233 H 1161.93 -3.9684 -1.61914 0
M  V30 12234 H 1166.11 -4.82844 -1.14783 0
M  V30 12235 H 1161.37 -6.09224 -0.515351 0
M  V30 12236 H 1165.54 -6.96381 -0.0514661 0
M  V30 12237 H 1163.17 -7.59718 0.270647 0
M  V30 12238 N 1164.74 0.6258 -1.44643 0
M  V30 12239 C 1165.99 1.38525 -1.47706 0
M  V30 12240 C 1166.32 1.94179 -0.111703 0
M  V30 12241 O 1165.57 1.74432 0.887237 0
M  V30 12242 C 1165.87 2.56466 -2.48917 0
M  V30 12243 C 1165.54 2.19069 -3.94106 0
M  V30 12244 C 1164.2 2.08583 -4.33643 0
M  V30 12245 C 1166.55 1.89608 -4.85488 0
M  V30 12246 C 1163.88 1.66831 -5.6248 0
M  V30 12247 C 1166.23 1.49347 -6.14718 0
M  V30 12248 C 1164.9 1.37406 -6.53204 0
M  V30 12249 H 1164.17 0.506899 -0.540494 0
M  V30 12250 H 1166.81 0.709128 -1.77887 0
M  V30 12251 H 1165.12 3.29335 -2.12239 0
M  V30 12252 H 1166.81 3.14695 -2.48532 0
M  V30 12253 H 1163.4 2.28151 -3.62829 0
M  V30 12254 H 1167.59 1.96616 -4.55693 0
M  V30 12255 H 1162.84 1.56195 -5.91112 0
M  V30 12256 H 1167.02 1.2559 -6.84982 0
M  V30 12257 H 1164.65 1.04826 -7.52938 0
M  V30 12258 N 1166.22 1.31629 0.866686 0
M  V30 12259 C 1167.63 1.19347 1.43573 0
M  V30 12260 C 1167.98 -0.198765 1.95191 0
M  V30 12261 O 1167.11 -1.09674 1.86549 0
M  V30 12262 C 1167.7 2.16055 2.6097 0
M  V30 12263 C 1166.26 2.07697 3.13909 0
M  V30 12264 C 1165.41 2.05099 1.86627 0
M  V30 12265 H 1168.36 1.43633 0.674929 0
M  V30 12266 H 1168.38 1.75207 3.37761 0
M  V30 12267 H 1167.89 3.17375 2.23371 0
M  V30 12268 H 1165.99 1.09583 3.56121 0
M  V30 12269 H 1166.11 2.96958 3.75969 0
M  V30 12270 H 1164.47 1.50162 2.05727 0
M  V30 12271 H 1165.25 3.0818 1.51261 0
M  V30 12272 N 1167.7 -1.08142 1.14644 0
M  V30 12273 C 1168.95 -1.80849 0.917685 0
M  V30 12274 C 1169.28 -1.86123 -0.554249 0
M  V30 12275 O 1168.55 -1.33907 -1.41065 0
M  V30 12276 C 1168.84 -3.26325 1.52264 0
M  V30 12277 C 1168.69 -3.29244 3.06461 0
M  V30 12278 C 1170.01 -4.23375 1.20175 0
M  V30 12279 H 1167.13 -0.656559 0.334812 0
M  V30 12280 H 1169.77 -1.26595 1.41682 0
M  V30 12281 H 1167.92 -3.72656 1.09817 0
M  V30 12282 H 1169.59 -2.91216 3.57758 0
M  V30 12283 H 1167.83 -2.68438 3.40769 0
M  V30 12284 H 1168.51 -4.31785 3.43897 0
M  V30 12285 H 1170.98 -3.85394 1.56877 0
M  V30 12286 H 1169.86 -5.23472 1.65132 0
M  V30 12287 H 1170.12 -4.41944 0.117474 0
M  V30 12288 N 1169.18 -0.941978 -1.26351 0
M  V30 12289 C 1170.42 -0.590845 -1.94002 0
M  V30 12290 C 1170.76 0.868004 -1.73722 0
M  V30 12291 O 1170.03 1.62111 -1.07472 0
M  V30 12292 C 1170.31 -0.934901 -3.47752 0
M  V30 12293 C 1170.17 -2.44855 -3.77314 0
M  V30 12294 C 1171.49 -0.450888 -4.37784 0
M  V30 12295 H 1168.61 -0.21613 -0.704597 0
M  V30 12296 H 1171.25 -1.17634 -1.49205 0
M  V30 12297 H 1169.4 -0.436648 -3.86038 0
M  V30 12298 H 1171.07 -3.01959 -3.48738 0
M  V30 12299 H 1169.31 -2.89169 -3.23363 0
M  V30 12300 H 1169.98 -2.6398 -4.84787 0
M  V30 12301 H 1172.46 -0.878107 -4.06729 0
M  V30 12302 H 1171.34 -0.720439 -5.44152 0
M  V30 12303 H 1171.6 0.649162 -4.37308 0
M  V30 12304 N 1170.66 1.40747 -0.709091 0
M  V30 12305 C 1171.88 2.05841 -0.253816 0
M  V30 12306 C 1172.31 1.53056 1.09341 0
M  V30 12307 O 1171.66 0.663181 1.68735 0
M  V30 12308 C 1171.71 3.59822 -0.236699 0
M  V30 12309 O 1170.82 4.04876 0.784168 0
M  V30 12310 H 1170.16 0.65295 -0.120631 0
M  V30 12311 H 1172.69 1.80266 -0.967749 0
M  V30 12312 H 1172.7 4.07936 -0.0721616 0
M  V30 12313 H 1171.37 3.97608 -1.21988 0
M  V30 12314 H 1169.95 3.68237 0.587884 0
M  V30 12315 N 1172.13 0.454803 1.50895 0
M  V30 12316 C 1173.38 -0.10577 2.02224 0
M  V30 12317 C 1173.71 -1.41176 1.33789 0
M  V30 12318 O 1172.96 -1.90522 0.447181 0
M  V30 12319 C 1173.26 -0.354159 3.55641 0
M  V30 12320 C 1172.93 0.868136 4.42464 0
M  V30 12321 C 1171.59 1.2033 4.65912 0
M  V30 12322 C 1173.94 1.68272 4.93289 0
M  V30 12323 C 1171.27 2.3534 5.37431 0
M  V30 12324 C 1173.62 2.82396 5.6607 0
M  V30 12325 C 1172.29 3.16346 5.87777 0
M  V30 12326 H 1171.56 -0.0387041 0.739989 0
M  V30 12327 H 1174.2 0.605564 1.81673 0
M  V30 12328 H 1172.51 -1.14757 3.74617 0
M  V30 12329 H 1174.21 -0.8016 3.92906 0
M  V30 12330 H 1170.8 0.596995 4.24422 0
M  V30 12331 H 1174.98 1.43698 4.75042 0
M  V30 12332 H 1170.24 2.61936 5.52449 0
M  V30 12333 H 1174.41 3.45873 6.04438 0
M  V30 12334 H 1172.04 4.05574 6.42973 0
M  V30 12335 N 1173.61 -1.56489 0.186789 0
M  V30 12336 C 1174.84 -2.02163 -0.463126 0
M  V30 12337 C 1175.26 -1.06612 -1.54969 0
M  V30 12338 O 1174.62 -0.0482139 -1.81236 0
M  V30 12339 C 1174.67 -3.46337 -1.00416 0
M  V30 12340 O 1173.77 -3.53889 -2.11747 0
M  V30 12341 H 1173.11 -0.65496 -0.109194 0
M  V30 12342 H 1175.64 -2.02459 0.295227 0
M  V30 12343 H 1175.65 -3.85959 -1.32287 0
M  V30 12344 H 1174.33 -4.15376 -0.208693 0
M  V30 12345 H 1172.9 -3.26136 -1.80803 0
M  V30 12346 N 1175.09 0.086862 -1.5736 0
M  V30 12347 C 1176.05 1.08906 -2.01673 0
M  V30 12348 C 1177.05 1.32473 -0.911463 0
M  V30 12349 O 1178.24 1.28447 -1.17673 0
M  V30 12350 C 1175.37 2.43629 -2.38449 0
M  V30 12351 H 1176.57 0.707461 -2.91436 0
M  V30 12352 H 1174.12 0.332154 -1.5273 0
M  V30 12353 H 1174.86 2.8665 -1.51665 0
M  V30 12354 H 1174.64 2.2787 -3.19089 0
M  V30 12355 H 1176.13 3.15695 -2.73361 0
M  V30 12356 N 1176.57 1.53483 0.357892 0
M  V30 12357 C 1177.82 1.69701 1.09754 0
M  V30 12358 C 1178.14 0.455389 1.89608 0
M  V30 12359 O 1177.41 -0.530623 1.88577 0
M  V30 12360 H 1175.99 0.62562 0.408178 0
M  V30 12361 H 1178.65 1.90696 0.402641 0
M  V30 12362 H 1177.74 2.56154 1.78302 0
M  V30 12363 N 1178.05 -0.61812 1.44973 0
M  V30 12364 C 1179.29 -1.37343 1.47715 0
M  V30 12365 C 1179.61 -1.95239 0.118784 0
M  V30 12366 O 1180.81 -2.7149 0.0237981 0
M  V30 12367 C 1179.27 -2.48732 2.60116 0
M  V30 12368 C 1178.88 -1.97294 4.02218 0
M  V30 12369 C 1180.62 -3.25831 2.72093 0
M  V30 12370 C 1178.53 -3.06102 5.06019 0
M  V30 12371 H 1177.46 -0.516175 0.549617 0
M  V30 12372 H 1180.11 -0.663617 1.7108 0
M  V30 12373 H 1178.49 -3.2235 2.30014 0
M  V30 12374 H 1179.67 -1.30455 4.41948 0
M  V30 12375 H 1177.98 -1.32972 3.94598 0
M  V30 12376 H 1180.58 -4.06968 3.46815 0
M  V30 12377 H 1180.92 -3.76156 1.7836 0
M  V30 12378 H 1181.45 -2.59309 3.01668 0
M  V30 12379 H 1178.19 -2.60706 6.01426 0
M  V30 12380 H 1177.71 -3.71541 4.70869 0
M  V30 12381 H 1179.39 -3.70662 5.30301 0
M  V30 12382 N 1179.52 -1.32087 -0.859693 0
M  V30 12383 C 1180.47 -1.20601 -1.96784 0
M  V30 12384 C 1181.44 -0.089355 -1.65859 0
M  V30 12385 O 1182.63 -0.264022 -1.88964 0
M  V30 12386 C 1179.77 -0.929872 -3.32336 0
M  V30 12387 C 1178.88 -2.13084 -3.75791 0
M  V30 12388 C 1178.01 -1.79061 -5.00111 0
M  V30 12389 C 1177.05 -2.95507 -5.36043 0
M  V30 12390 N 1176.19 -2.61611 -6.5154 0
M  V30 12391 H 1181.03 -2.1539 -2.0594 0
M  V30 12392 H 1178.57 -1.07131 -1.00803 0
M  V30 12393 H 1180.52 -0.750285 -4.10398 0
M  V30 12394 H 1179.15 -0.0187929 -3.22795 0
M  V30 12395 H 1178.21 -2.42086 -2.93425 0
M  V30 12396 H 1179.52 -3.00205 -3.98344 0
M  V30 12397 H 1178.67 -1.57625 -5.85866 0
M  V30 12398 H 1177.41 -0.891459 -4.79483 0
M  V30 12399 H 1176.42 -3.17581 -4.48801 0
M  V30 12400 H 1177.64 -3.86147 -5.5863 0
M  V30 12401 H 1175.59 -1.74231 -6.32439 0
M  V30 12402 H 1175.5 -3.42262 -6.74087 0
M  V30 12403 H 1176.77 -2.43592 -7.40461 0
M  V30 12404 N 1181 1.07532 -1.15215 0
M  V30 12405 C 1182.25 1.8036 -0.927263 0
M  V30 12406 C 1182.58 1.86414 0.544371 0
M  V30 12407 O 1181.86 1.34653 1.40353 0
M  V30 12408 C 1182.14 3.25512 -1.53992 0
M  V30 12409 C 1181.99 3.27614 -3.08203 0
M  V30 12410 C 1183.31 4.22731 -1.22418 0
M  V30 12411 H 1180.43 0.654775 -0.338289 0
M  V30 12412 H 1183.07 1.25842 -1.42351 0
M  V30 12413 H 1181.22 3.72068 -1.11791 0
M  V30 12414 H 1182.89 2.89315 -3.59297 0
M  V30 12415 H 1181.14 2.66627 -3.42188 0
M  V30 12416 H 1181.81 4.29956 -3.46182 0
M  V30 12417 H 1184.28 3.84557 -1.58919 0
M  V30 12418 H 1183.16 5.22589 -1.67906 0
M  V30 12419 H 1183.42 4.41875 -0.14091 0
M  V30 12420 N 1182.48 0.948665 1.2585 0
M  V30 12421 C 1183.9 0.652147 1.45668 0
M  V30 12422 C 1184.1 -0.792217 1.85273 0
M  V30 12423 O 1183.15 -1.56812 1.97905 0
M  V30 12424 C 1184.47 1.61998 2.53332 0
M  V30 12425 C 1186.01 1.6305 2.67178 0
M  V30 12426 C 1186.49 2.58582 3.78021 0
M  V30 12427 N 1187.98 2.56911 3.85423 0
M  V30 12428 C 1188.71 3.27511 4.70664 0
M  V30 12429 N 1188.21 4.07563 5.60236 0
M  V30 12430 N 1190 3.16427 4.64576 0
M  V30 12431 H 1182.15 1.88215 0.984325 0
M  V30 12432 H 1184.42 0.809251 0.493778 0
M  V30 12433 H 1184.12 2.65137 2.31075 0
M  V30 12434 H 1184 1.37784 3.51134 0
M  V30 12435 H 1186.38 0.606315 2.88804 0
M  V30 12436 H 1186.47 1.9132 1.69795 0
M  V30 12437 H 1186.11 3.61122 3.57146 0
M  V30 12438 H 1186.04 2.27598 4.74875 0
M  V30 12439 H 1188.53 1.9879 3.21389 0
M  V30 12440 H 1188.84 4.58367 6.22189 0
M  V30 12441 H 1187.19 4.11662 5.59964 0
M  V30 12442 H 1190.38 2.53364 3.93604 0
M  V30 12443 H 1190.55 3.71714 5.30785 0
M  V30 12444 N 1183.96 -1.40369 0.716545 0
M  V30 12445 C 1185.21 -2.00869 0.256466 0
M  V30 12446 C 1185.53 -1.56816 -1.15061 0
M  V30 12447 O 1184.79 -0.779696 -1.79497 0
M  V30 12448 C 1185.09 -3.56257 0.285583 0
M  V30 12449 C 1184.75 -4.19897 1.64309 0
M  V30 12450 C 1183.42 -4.36994 2.01469 0
M  V30 12451 C 1185.77 -4.55385 2.53524 0
M  V30 12452 C 1183.1 -4.86862 3.27387 0
M  V30 12453 C 1185.45 -5.06653 3.78795 0
M  V30 12454 C 1184.11 -5.21959 4.16071 0
M  V30 12455 H 1183.38 -0.735033 0.0938475 0
M  V30 12456 H 1186.03 -1.67966 0.919765 0
M  V30 12457 H 1184.33 -3.89075 -0.461287 0
M  V30 12458 H 1186.03 -4.00903 -0.0882496 0
M  V30 12459 H 1182.62 -4.06978 1.34413 0
M  V30 12460 H 1186.8 -4.41811 2.2609 0
M  V30 12461 H 1182.06 -4.96897 3.56235 0
M  V30 12462 H 1186.23 -5.33089 4.48095 0
M  V30 12463 H 1183.86 -5.60362 5.1371 0
M  V30 12464 N 1185.44 -0.462799 -1.50652 0
M  V30 12465 C 1186.37 0.325724 -2.31217 0
M  V30 12466 C 1187.35 0.997942 -1.3775 0
M  V30 12467 O 1188.53 0.996707 -1.66671 0
M  V30 12468 C 1185.66 1.41283 -3.17264 0
M  V30 12469 C 1184.62 0.862687 -4.19216 0
M  V30 12470 C 1183.94 2.04746 -4.93946 0
M  V30 12471 C 1185.24 -0.120365 -5.22161 0
M  V30 12472 H 1186.94 -0.346666 -2.97386 0
M  V30 12473 H 1184.48 -0.168163 -1.43015 0
M  V30 12474 H 1186.44 1.97188 -3.72418 0
M  V30 12475 H 1185.16 2.11387 -2.48964 0
M  V30 12476 H 1183.82 0.325671 -3.65151 0
M  V30 12477 H 1183.47 2.73529 -4.22127 0
M  V30 12478 H 1183.17 1.68562 -5.62904 0
M  V30 12479 H 1184.69 2.61157 -5.51932 0
M  V30 12480 H 1186.1 0.349226 -5.72235 0
M  V30 12481 H 1184.5 -0.396061 -5.98792 0
M  V30 12482 H 1185.57 -1.04895 -4.73418 0
M  V30 12483 N 1186.91 1.56388 -0.195085 0
M  V30 12484 C 1187.84 2.22091 0.720971 0
M  V30 12485 C 1188.83 1.184 1.22128 0
M  V30 12486 O 1190.01 1.46907 1.27012 0
M  V30 12487 C 1187.14 2.88025 1.94059 0
M  V30 12488 C 1186.09 3.97959 1.5752 0
M  V30 12489 C 1185.42 4.51058 2.87143 0
M  V30 12490 C 1186.72 5.16365 0.785145 0
M  V30 12491 H 1188.41 2.98898 0.173245 0
M  V30 12492 H 1185.96 1.43767 0.0818868 0
M  V30 12493 H 1187.91 3.32671 2.58666 0
M  V30 12494 H 1186.64 2.08623 2.51285 0
M  V30 12495 H 1185.3 3.54004 0.952715 0
M  V30 12496 H 1184.94 3.68418 3.42458 0
M  V30 12497 H 1184.64 5.25237 2.63439 0
M  V30 12498 H 1186.17 4.98406 3.52738 0
M  V30 12499 H 1187.58 5.57556 1.33431 0
M  V30 12500 H 1185.98 5.9661 0.646231 0
M  V30 12501 H 1187.05 4.84428 -0.213789 0
M  V30 12502 N 1188.39 -0.0785156 1.57404 0
M  V30 12503 C 1189.64 -0.777399 1.8655 0
M  V30 12504 C 1189.96 -1.78451 0.786142 0
M  V30 12505 O 1189.23 -1.95016 -0.185911 0
M  V30 12506 H 1187.81 -0.290097 0.688369 0
M  V30 12507 H 1190.47 -0.0562017 1.94819 0
M  V30 12508 H 1189.57 -1.29776 2.83839 0
M  V30 12509 N 1189.87 -1.5367 -0.349747 0
M  V30 12510 C 1191.12 -1.70281 -1.08853 0
M  V30 12511 C 1191.44 -0.465438 -1.89364 0
M  V30 12512 O 1190.71 0.520615 -1.88856 0
M  V30 12513 H 1189.29 -0.627775 -0.404854 0
M  V30 12514 H 1191.95 -1.90906 -0.392523 0
M  V30 12515 H 1191.05 -2.57096 -1.76941 0
M  V30 12516 N 1191.35 0.610423 -1.45298 0
M  V30 12517 C 1192.76 0.930872 -1.29642 0
M  V30 12518 C 1192.96 1.99976 -0.247358 0
M  V30 12519 O 1192.02 2.49925 0.359674 0
M  V30 12520 C 1193.33 1.37449 -2.67448 0
M  V30 12521 C 1194.88 1.48885 -2.75322 0
M  V30 12522 C 1195.36 1.96624 -4.13646 0
M  V30 12523 N 1196.85 2.03862 -4.15926 0
M  V30 12524 C 1197.58 2.42015 -5.19823 0
M  V30 12525 N 1197.08 2.79157 -6.34069 0
M  V30 12526 N 1198.87 2.42329 -5.07181 0
M  V30 12527 H 1191.02 -0.0961259 -2.12182 0
M  V30 12528 H 1193.29 0.0196483 -0.947796 0
M  V30 12529 H 1192.99 0.663276 -3.45389 0
M  V30 12530 H 1192.87 2.34155 -2.95721 0
M  V30 12531 H 1195.25 2.19098 -1.97686 0
M  V30 12532 H 1195.33 0.505006 -2.50765 0
M  V30 12533 H 1194.98 1.26998 -4.91766 0
M  V30 12534 H 1194.91 2.95917 -4.35592 0
M  V30 12535 H 1197.4 1.77759 -3.33482 0
M  V30 12536 H 1197.71 3.07143 -7.09142 0
M  V30 12537 H 1196.06 2.7686 -6.37474 0
M  V30 12538 H 1199.25 2.12717 -4.16976 0
M  V30 12539 H 1199.42 2.71738 -5.88271 0
M  V30 12540 N 1192.83 1.32541 0.852676 0
M  V30 12541 C 1193.78 1.18224 1.94954 0
M  V30 12542 C 1194.76 0.0886514 1.60656 0
M  V30 12543 O 1195.95 0.315359 1.74168 0
M  V30 12544 C 1193.08 0.909484 3.31034 0
M  V30 12545 C 1192.17 2.04486 3.71546 0
M  V30 12546 N 1192.56 3.29362 3.83868 0
M  V30 12547 C 1190.86 1.94848 4.01186 0
M  V30 12548 C 1191.56 4.0374 4.18771 0
M  V30 12549 N 1190.53 3.32054 4.30396 0
M  V30 12550 H 1194.34 2.12893 2.02617 0
M  V30 12551 H 1191.85 1.24349 1.04456 0
M  V30 12552 H 1193.85 0.787865 4.09388 0
M  V30 12553 H 1192.51 -0.0288163 3.24687 0
M  V30 12554 H 1193.52 3.64274 3.68137 0
M  V30 12555 H 1190.19 1.08591 4.0313 0
M  V30 12556 H 1191.58 5.11434 4.35757 0
M  V30 12557 N 1194.3 -1.0692 1.15784 0
M  V30 12558 C 1195.55 -1.79245 0.933581 0
M  V30 12559 C 1195.87 -1.87362 -0.540427 0
M  V30 12560 O 1195.14 -1.37769 -1.39271 0
M  V30 12561 H 1193.72 -0.663898 0.342416 0
M  V30 12562 H 1196.39 -1.29189 1.45932 0
M  V30 12563 H 1195.48 -2.81546 1.34679 0
M  V30 12564 N 1195.78 -0.955326 -1.25345 0
M  V30 12565 C 1196.69 -0.482707 -2.2958 0
M  V30 12566 C 1197.71 0.450283 -1.68073 0
M  V30 12567 O 1198.88 0.326358 -1.98738 0
M  V30 12568 C 1195.95 0.231293 -3.45928 0
M  V30 12569 C 1195.01 -0.739995 -4.22874 0
M  V30 12570 C 1194.24 -0.0599748 -5.33666 0
M  V30 12571 O 1194.47 1.15423 -5.586 0
M  V30 12572 O 1193.4 -0.745865 -5.97261 0
M  V30 12573 H 1197.23 -1.34892 -2.72099 0
M  V30 12574 H 1194.81 -0.721812 -1.30806 0
M  V30 12575 H 1196.69 0.632908 -4.1662 0
M  V30 12576 H 1195.37 1.07267 -3.0541 0
M  V30 12577 H 1194.28 -1.19183 -3.54607 0
M  V30 12578 H 1195.61 -1.54941 -4.67177 0
M  V30 12579 N 1197.26 1.39987 -0.723979 0
M  V30 12580 C 1198.51 2.00731 -0.267115 0
M  V30 12581 C 1198.84 1.57424 1.14228 0
M  V30 12582 O 1198.09 0.789205 1.79081 0
M  V30 12583 C 1198.39 3.56101 -0.304472 0
M  V30 12584 C 1198.06 4.1902 -1.66533 0
M  V30 12585 C 1196.72 4.3592 -2.03783 0
M  V30 12586 C 1199.07 4.54034 -2.55935 0
M  V30 12587 C 1196.4 4.85119 -3.29964 0
M  V30 12588 C 1198.75 5.04637 -3.81477 0
M  V30 12589 C 1197.41 5.19745 -4.18833 0
M  V30 12590 H 1196.68 0.734525 -0.0977442 0
M  V30 12591 H 1199.33 1.67476 -0.928659 0
M  V30 12592 H 1197.64 3.89314 0.440647 0
M  V30 12593 H 1199.33 4.00944 0.0669875 0
M  V30 12594 H 1195.92 4.0626 -1.36569 0
M  V30 12595 H 1200.11 4.40606 -2.2843 0
M  V30 12596 H 1195.36 4.95001 -3.58865 0
M  V30 12597 H 1199.54 5.30705 -4.50916 0
M  V30 12598 H 1197.16 5.5763 -5.16675 0
M  V30 12599 N 1198.74 0.470782 1.50404 0
M  V30 12600 C 1199.69 -0.32355 2.28521 0
M  V30 12601 C 1200.66 -0.987472 1.3356 0
M  V30 12602 O 1201.84 -0.999969 1.62497 0
M  V30 12603 C 1198.98 -1.39977 3.15437 0
M  V30 12604 C 1198.09 -0.750656 4.25428 0
M  V30 12605 C 1197.23 -1.80474 4.99602 0
M  V30 12606 C 1196.27 -1.13586 6.01469 0
M  V30 12607 N 1195.41 -2.13279 6.68922 0
M  V30 12608 H 1200.25 0.348902 2.9595 0
M  V30 12609 H 1197.78 0.183908 1.45946 0
M  V30 12610 H 1199.74 -2.0354 3.6418 0
M  V30 12611 H 1198.37 -2.04139 2.50054 0
M  V30 12612 H 1197.42 -0.00247092 3.804 0
M  V30 12613 H 1198.73 -0.222638 4.98303 0
M  V30 12614 H 1197.89 -2.51619 5.52062 0
M  V30 12615 H 1196.63 -2.36657 4.26433 0
M  V30 12616 H 1195.63 -0.410042 5.48269 0
M  V30 12617 H 1196.86 -0.580935 6.76611 0
M  V30 12618 H 1194.8 -2.68479 5.98544 0
M  V30 12619 H 1194.72 -1.65461 7.37671 0
M  V30 12620 H 1195.99 -2.83804 7.26 0
M  V30 12621 N 1200.22 -1.56282 0.203376 0
M  V30 12622 C 1201.46 -1.97812 -0.433202 0
M  V30 12623 C 1201.79 -1.09052 -1.61053 0
M  V30 12624 O 1201.05 -0.131417 -1.95258 0
M  V30 12625 C 1201.35 -3.45148 -0.927759 0
M  V30 12626 C 1201.01 -4.50692 0.137083 0
M  V30 12627 C 1199.67 -4.79278 0.429652 0
M  V30 12628 C 1202.03 -5.14086 0.858174 0
M  V30 12629 C 1199.35 -5.68547 1.44815 0
M  V30 12630 C 1201.71 -6.04457 1.86588 0
M  V30 12631 C 1200.37 -6.31395 2.16556 0
M  V30 12632 H 1199.64 -0.723846 -0.15852 0
M  V30 12633 H 1202.29 -1.89102 0.302082 0
M  V30 12634 H 1200.59 -3.5097 -1.74147 0
M  V30 12635 H 1202.29 -3.74642 -1.42984 0
M  V30 12636 H 1198.88 -4.28481 -0.101111 0
M  V30 12637 H 1203.06 -4.92086 0.645376 0
M  V30 12638 H 1198.32 -5.87689 1.68615 0
M  V30 12639 H 1202.49 -6.52636 2.4298 0
M  V30 12640 H 1200.12 -7.00366 2.9562 0
M  V30 12641 N 1201.7 0.070167 -1.57444 0
M  V30 12642 C 1202.63 1.08351 -2.06839 0
M  V30 12643 C 1203.61 1.40269 -0.962224 0
M  V30 12644 O 1204.79 1.49867 -1.23505 0
M  V30 12645 C 1201.92 2.39649 -2.51368 0
M  V30 12646 C 1200.88 2.22079 -3.65875 0
M  V30 12647 C 1200.2 3.58776 -3.96464 0
M  V30 12648 C 1201.5 1.64069 -4.95862 0
M  V30 12649 H 1203.2 0.672465 -2.9175 0
M  V30 12650 H 1200.74 0.322027 -1.40353 0
M  V30 12651 H 1202.69 3.10833 -2.84537 0
M  V30 12652 H 1201.42 2.82736 -1.63487 0
M  V30 12653 H 1200.08 1.53337 -3.32992 0
M  V30 12654 H 1199.73 3.99436 -3.05712 0
M  V30 12655 H 1199.43 3.47859 -4.7357 0
M  V30 12656 H 1200.95 4.31387 -4.32131 0
M  V30 12657 H 1202.36 2.2512 -5.27251 0
M  V30 12658 H 1200.76 1.63843 -5.773 0
M  V30 12659 H 1201.83 0.60232 -4.81145 0
M  V30 12660 N 1203.17 1.53854 0.341593 0
M  V30 12661 C 1204.58 1.62623 0.917093 0
M  V30 12662 C 1204.94 0.508781 1.89488 0
M  V30 12663 O 1204.06 -0.361171 2.13365 0
M  V30 12664 C 1204.66 2.94775 1.67012 0
M  V30 12665 C 1203.21 3.058 2.19461 0
M  V30 12666 C 1202.36 2.58082 1.01433 0
M  V30 12667 H 1205.31 1.58248 0.119674 0
M  V30 12668 H 1205.33 2.83924 2.53313 0
M  V30 12669 H 1204.85 3.76085 0.958221 0
M  V30 12670 H 1202.95 2.29128 2.93821 0
M  V30 12671 H 1203.06 4.11302 2.45698 0
M  V30 12672 H 1201.42 2.13537 1.38831 0
M  V30 12673 H 1202.21 3.41833 0.317033 0
M  V30 12674 N 1204.65 -0.602709 1.4562 0
M  V30 12675 C 1206.06 -1.1847 1.44297 0
M  V30 12676 C 1206.41 -1.95434 0.17316 0
M  V30 12677 O 1205.54 -2.03894 -0.724986 0
M  V30 12678 C 1206.13 -2.15508 2.61422 0
M  V30 12679 C 1204.69 -2.69073 2.63204 0
M  V30 12680 C 1203.84 -1.44568 2.36633 0
M  V30 12681 H 1206.79 -0.391745 1.53789 0
M  V30 12682 H 1206.81 -2.98628 2.35799 0
M  V30 12683 H 1206.32 -1.59464 3.53826 0
M  V30 12684 H 1204.42 -3.29042 1.7482 0
M  V30 12685 H 1204.54 -3.13173 3.62573 0
M  V30 12686 H 1202.9 -1.73692 1.86287 0
M  V30 12687 H 1203.68 -0.903852 3.31188 0
M  V30 12688 N 1206.13 -1.32992 -0.845635 0
M  V30 12689 C 1207.54 -1.21616 -1.41656 0
M  V30 12690 C 1207.89 0.167687 -1.95482 0
M  V30 12691 O 1207.02 1.06692 -1.8827 0
M  V30 12692 C 1207.61 -2.2018 -2.575 0
M  V30 12693 C 1206.17 -2.12664 -3.10565 0
M  V30 12694 C 1205.32 -2.08042 -1.83341 0
M  V30 12695 H 1208.27 -1.44688 -0.651993 0
M  V30 12696 H 1208.29 -1.80558 -3.34931 0
M  V30 12697 H 1207.8 -3.20888 -2.18294 0
M  V30 12698 H 1205.9 -1.15235 -3.54333 0
M  V30 12699 H 1206.02 -3.02902 -3.71197 0
M  V30 12700 H 1204.38 -1.53416 -2.03312 0
M  V30 12701 H 1205.16 -3.10547 -1.46339 0
M  V30 12702 N 1207.61 1.06304 -1.1635 0
M  V30 12703 C 1208.86 1.78747 -0.943074 0
M  V30 12704 C 1209.18 1.87646 0.530483 0
M  V30 12705 O 1208.45 1.38506 1.38538 0
M  V30 12706 H 1207.03 0.662072 -0.345932 0
M  V30 12707 H 1209.69 1.28413 -1.46615 0
M  V30 12708 H 1208.78 2.80828 -1.3617 0
M  V30 12709 N 1209.09 0.96196 1.24836 0
M  V30 12710 C 1210.32 0.637214 1.96528 0
M  V30 12711 C 1210.72 -0.79638 1.71623 0
M  V30 12712 O 1210.07 -1.54524 0.993372 0
M  V30 12713 C 1210.13 0.824972 3.49906 0
M  V30 12714 C 1209.79 2.23711 3.985 0
M  V30 12715 C 1210.79 3.21439 4.08623 0
M  V30 12716 C 1208.47 2.56327 4.31974 0
M  V30 12717 C 1210.47 4.49872 4.51546 0
M  V30 12718 C 1208.16 3.84987 4.74582 0
M  V30 12719 C 1209.15 4.81572 4.84332 0
M  V30 12720 O 1208.84 6.07938 5.25991 0
M  V30 12721 H 1208.57 0.237214 0.633013 0
M  V30 12722 H 1211.13 1.29081 1.59773 0
M  V30 12723 H 1209.36 0.114219 3.86531 0
M  V30 12724 H 1211.05 0.500179 4.02806 0
M  V30 12725 H 1211.81 2.97569 3.82985 0
M  V30 12726 H 1207.69 1.81872 4.23608 0
M  V30 12727 H 1211.24 5.25261 4.59071 0
M  V30 12728 H 1207.13 4.08661 4.99666 0
M  V30 12729 H 1207.9 6.11421 5.44157 0
M  V30 12730 N 1210.56 -1.39601 0.731392 0
M  V30 12731 C 1211.53 -2.28992 0.0976037 0
M  V30 12732 C 1212.53 -1.46135 -0.670917 0
M  V30 12733 O 1213.72 -1.66856 -0.50047 0
M  V30 12734 C 1210.85 -3.29582 -0.871124 0
M  V30 12735 H 1212.04 -2.86541 0.885112 0
M  V30 12736 H 1209.59 -1.48188 0.497002 0
M  V30 12737 H 1210.33 -2.77082 -1.68512 0
M  V30 12738 H 1210.11 -3.9077 -0.322735 0
M  V30 12739 H 1211.6 -3.96479 -1.31126 0
M  V30 12740 N 1212.04 -0.478751 -1.50152 0
M  V30 12741 C 1213.45 -0.0254907 -1.86683 0
M  V30 12742 C 1213.8 1.38171 -1.39295 0
M  V30 12743 O 1212.93 2.0257 -0.761207 0
M  V30 12744 C 1213.52 -0.0394819 -3.38777 0
M  V30 12745 C 1212.08 0.35834 -3.7469 0
M  V30 12746 C 1211.23 -0.421667 -2.74075 0
M  V30 12747 H 1214.18 -0.692653 -1.42787 0
M  V30 12748 H 1214.2 0.760957 -3.72813 0
M  V30 12749 H 1213.71 -1.06378 -3.73236 0
M  V30 12750 H 1211.82 1.38671 -3.45834 0
M  V30 12751 H 1211.93 0.0543589 -4.79069 0
M  V30 12752 H 1210.29 0.125634 -2.5439 0
M  V30 12753 H 1211.08 -1.44562 -3.11379 0
M  V30 12754 N 1213.52 1.56172 -0.211661 0
M  V30 12755 C 1214.76 1.9994 0.424672 0
M  V30 12756 C 1215.12 1.09598 1.57646 0
M  V30 12757 O 1216.33 1.4267 2.27813 0
M  V30 12758 C 1214.6 3.46961 0.857497 0
M  V30 12759 S 1216.16 4.12752 1.48933 0
M  V30 12760 H 1212.97 0.698031 0.135179 0
M  V30 12761 H 1215.58 1.92886 -0.318625 0
M  V30 12762 H 1214.28 4.10399 0.009398 0
M  V30 12763 H 1213.81 3.57867 1.63385 0
M  V30 12764 H 1215.83 4.11125 2.77833 0
M  V30 12765 N 1215 -0.0618163 1.57479 0
M  V30 12766 C 1216.23 -0.770605 1.9169 0
M  V30 12767 C 1216.64 -1.71134 0.806841 0
M  V30 12768 O 1215.98 -1.8228 -0.228002 0
M  V30 12769 C 1216.04 -1.60962 3.21452 0
M  V30 12770 C 1215.71 -0.837193 4.49266 0
M  V30 12771 C 1216.7 -0.151964 5.19678 0
M  V30 12772 C 1214.39 -0.801414 4.95866 0
M  V30 12773 C 1216.38 0.558705 6.34947 0
M  V30 12774 C 1214.07 -0.0869788 6.11038 0
M  V30 12775 C 1215.07 0.591871 6.80431 0
M  V30 12776 O 1214.75 1.29478 7.93405 0
M  V30 12777 H 1214.49 -0.223673 0.637923 0
M  V30 12778 H 1217.04 -0.0333424 2.05373 0
M  V30 12779 H 1215.27 -2.38992 3.04006 0
M  V30 12780 H 1216.96 -2.19799 3.41238 0
M  V30 12781 H 1217.73 -0.170848 4.84699 0
M  V30 12782 H 1213.6 -1.31927 4.4172 0
M  V30 12783 H 1217.15 1.08913 6.89046 0
M  V30 12784 H 1213.05 -0.066057 6.45466 0
M  V30 12785 H 1213.81 1.20507 8.0958 0
M  V30 12786 N 1216.48 -1.54033 -0.333429 0
M  V30 12787 C 1217.39 -1.85737 -1.43314 0
M  V30 12788 C 1218.4 -0.748398 -1.57083 0
M  V30 12789 O 1219.58 -1.04171 -1.72367 0
M  V30 12790 C 1216.64 -2.06942 -2.78165 0
M  V30 12791 C 1215.7 -3.30774 -2.73655 0
M  V30 12792 C 1214.94 -3.50957 -4.02075 0
M  V30 12793 O 1215.16 -2.74774 -4.99855 0
M  V30 12794 O 1214.09 -4.44412 -4.05933 0
M  V30 12795 H 1217.92 -2.7923 -1.19434 0
M  V30 12796 H 1215.51 -1.39814 -0.526546 0
M  V30 12797 H 1217.39 -2.22276 -3.58011 0
M  V30 12798 H 1216.06 -1.16638 -3.01956 0
M  V30 12799 H 1214.97 -3.20835 -1.92395 0
M  V30 12800 H 1216.3 -4.21103 -2.54819 0
M  V30 12801 N 1217.95 0.594978 -1.45938 0
M  V30 12802 C 1218.92 1.68688 -1.55168 0
M  V30 12803 C 1219.92 1.54945 -0.429951 0
M  V30 12804 O 1221.11 1.59785 -0.693859 0
M  V30 12805 C 1218.24 3.0804 -1.46027 0
M  V30 12806 H 1219.43 1.61866 -2.52467 0
M  V30 12807 H 1216.99 0.811785 -1.33565 0
M  V30 12808 H 1217.72 3.20428 -0.499614 0
M  V30 12809 H 1217.51 3.19423 -2.27401 0
M  V30 12810 H 1219 3.8755 -1.55546 0
M  V30 12811 N 1219.43 1.33438 0.838571 0
M  V30 12812 C 1220.68 1.25097 1.5962 0
M  V30 12813 C 1221.01 -0.182798 1.93338 0
M  V30 12814 O 1220.29 -1.1242 1.5872 0
M  V30 12815 C 1220.57 2.12655 2.90603 0
M  V30 12816 C 1220.42 3.64491 2.63565 0
M  V30 12817 C 1221.74 1.99994 3.92033 0
M  V30 12818 H 1218.86 0.455776 0.579169 0
M  V30 12819 H 1221.5 1.63542 0.967169 0
M  V30 12820 H 1219.65 1.79998 3.44286 0
M  V30 12821 H 1221.32 4.0744 2.16312 0
M  V30 12822 H 1219.57 3.86356 1.9726 0
M  V30 12823 H 1220.24 4.21101 3.569 0
M  V30 12824 H 1222.71 2.28635 3.47657 0
M  V30 12825 H 1221.59 2.63509 4.81512 0
M  V30 12826 H 1221.85 0.972263 4.31277 0
M  V30 12827 N 1220.91 -1.05686 1.16912 0
M  V30 12828 C 1221.84 -2.15268 0.904532 0
M  V30 12829 C 1222.82 -1.69424 -0.151548 0
M  V30 12830 O 1224.01 -1.942 -0.00235371 0
M  V30 12831 C 1221.14 -3.44853 0.411581 0
M  V30 12832 C 1220.09 -4.04237 1.40628 0
M  V30 12833 C 1219.42 -5.29105 0.771479 0
M  V30 12834 C 1220.72 -4.42303 2.77787 0
M  V30 12835 H 1222.41 -2.37659 1.82094 0
M  V30 12836 H 1219.96 -1.14217 0.876947 0
M  V30 12837 H 1221.91 -4.20857 0.213929 0
M  V30 12838 H 1220.63 -3.22099 -0.540352 0
M  V30 12839 H 1219.29 -3.30297 1.59058 0
M  V30 12840 H 1218.94 -5.02652 -0.187133 0
M  V30 12841 H 1218.64 -5.69797 1.43545 0
M  V30 12842 H 1220.16 -6.07801 0.583988 0
M  V30 12843 H 1221.58 -5.09362 2.63103 0
M  V30 12844 H 1219.98 -4.93997 3.40716 0
M  V30 12845 H 1221.05 -3.52877 3.32575 0
M  V30 12846 N 1222.39 -0.968567 -1.24324 0
M  V30 12847 C 1223.8 -0.66964 -1.74278 0
M  V30 12848 C 1224.15 0.81461 -1.7849 0
M  V30 12849 O 1223.28 1.63736 -1.4149 0
M  V30 12850 C 1223.87 -1.20885 -3.165 0
M  V30 12851 C 1222.43 -0.959808 -3.63957 0
M  V30 12852 C 1221.58 -1.34365 -2.42573 0
M  V30 12853 H 1224.53 -1.14379 -1.10015 0
M  V30 12854 H 1224.55 -0.57555 -3.76122 0
M  V30 12855 H 1224.06 -2.28912 -3.13402 0
M  V30 12856 H 1222.16 0.104894 -3.72452 0
M  V30 12857 H 1222.27 -1.60606 -4.51378 0
M  V30 12858 H 1220.64 -0.762039 -2.43033 0
M  V30 12859 H 1221.42 -2.43343 -2.42155 0
M  V30 12860 N 1223.87 1.39211 -0.738786 0
M  V30 12861 C 1224.81 2.30578 -0.10129 0
M  V30 12862 C 1225.78 1.49412 0.725616 0
M  V30 12863 O 1226.97 1.78087 0.684799 0
M  V30 12864 C 1224.11 3.35767 0.797161 0
M  V30 12865 C 1223.22 4.31979 -0.0427701 0
M  V30 12866 C 1222.36 5.24236 0.857306 0
M  V30 12867 C 1221.4 6.12099 0.0128501 0
M  V30 12868 N 1220.53 6.96701 0.869067 0
M  V30 12869 H 1225.37 2.84522 -0.88606 0
M  V30 12870 H 1222.91 1.40093 -0.448602 0
M  V30 12871 H 1224.87 3.95347 1.33255 0
M  V30 12872 H 1223.5 2.83268 1.54787 0
M  V30 12873 H 1222.55 3.73986 -0.695622 0
M  V30 12874 H 1223.86 4.93927 -0.69555 0
M  V30 12875 H 1223.02 5.88861 1.4604 0
M  V30 12876 H 1221.75 4.62619 1.54386 0
M  V30 12877 H 1220.76 5.46483 -0.603018 0
M  V30 12878 H 1221.98 6.75781 -0.67054 0
M  V30 12879 H 1219.93 6.37647 1.54084 0
M  V30 12880 H 1219.85 7.55507 0.272852 0
M  V30 12881 H 1221.12 7.65751 1.4576 0
M  V30 12882 N 1225.34 0.486708 1.49896 0
M  V30 12883 C 1226.25 -0.304222 2.32619 0
M  V30 12884 C 1227.27 -0.981103 1.43702 0
M  V30 12885 O 1228.45 -0.965639 1.76741 0
M  V30 12886 C 1225.51 -1.36301 3.18783 0
M  V30 12887 C 1224.57 -0.701082 4.23537 0
M  V30 12888 C 1223.81 -1.70943 5.05583 0
M  V30 12889 O 1224.03 -2.93773 4.88931 0
M  V30 12890 O 1222.96 -1.27263 5.88292 0
M  V30 12891 H 1226.79 0.37248 3.01407 0
M  V30 12892 H 1224.37 0.248277 1.47323 0
M  V30 12893 H 1226.26 -1.97594 3.72202 0
M  V30 12894 H 1224.93 -2.0229 2.52706 0
M  V30 12895 H 1223.84 -0.0487926 3.74068 0
M  V30 12896 H 1225.17 -0.0838817 4.92129 0
M  V30 12897 N 1226.82 -1.56058 0.219941 0
M  V30 12898 C 1227.77 -2.20218 -0.690846 0
M  V30 12899 C 1228.74 -1.15725 -1.19151 0
M  V30 12900 O 1229.93 -1.44073 -1.2509 0
M  V30 12901 C 1227.07 -2.88477 -1.89408 0
M  V30 12902 C 1226.18 -4.07559 -1.43246 0
M  V30 12903 C 1225.31 -4.63605 -2.59314 0
M  V30 12904 C 1224.35 -5.74993 -2.0988 0
M  V30 12905 N 1223.49 -6.25337 -3.19214 0
M  V30 12906 H 1228.33 -2.97685 -0.136992 0
M  V30 12907 H 1225.87 -1.46994 -0.055865 0
M  V30 12908 H 1227.82 -3.26235 -2.60051 0
M  V30 12909 H 1226.45 -2.1353 -2.42084 0
M  V30 12910 H 1225.51 -3.75297 -0.621013 0
M  V30 12911 H 1226.82 -4.8805 -1.02997 0
M  V30 12912 H 1225.97 -5.03798 -3.38041 0
M  V30 12913 H 1224.71 -3.82274 -3.0285 0
M  V30 12914 H 1223.72 -5.34304 -1.29613 0
M  V30 12915 H 1224.94 -6.58158 -1.67345 0
M  V30 12916 H 1222.89 -5.4692 -3.62236 0
M  V30 12917 H 1222.8 -7.00947 -2.83213 0
M  V30 12918 H 1224.07 -6.70187 -3.98083 0
M  V30 12919 N 1228.3 0.053464 -1.57509 0
M  V30 12920 C 1229.23 1.06151 -2.07977 0
M  V30 12921 C 1230.21 1.3924 -0.977047 0
M  V30 12922 O 1231.4 1.48549 -1.25087 0
M  V30 12923 C 1228.53 2.36969 -2.53895 0
M  V30 12924 C 1227.48 2.18186 -3.6821 0
M  V30 12925 C 1226.81 3.54551 -4.00247 0
M  V30 12926 C 1228.11 1.588 -4.97574 0
M  V30 12927 H 1229.8 0.641483 -2.92447 0
M  V30 12928 H 1227.35 0.307122 -1.40687 0
M  V30 12929 H 1229.3 3.07797 -2.87817 0
M  V30 12930 H 1228.02 2.80986 -1.66476 0
M  V30 12931 H 1226.68 1.49796 -3.34599 0
M  V30 12932 H 1226.33 3.96171 -3.09932 0
M  V30 12933 H 1226.03 3.42816 -4.77232 0
M  V30 12934 H 1227.56 4.2678 -4.36682 0
M  V30 12935 H 1228.97 2.19515 -5.29609 0
M  V30 12936 H 1227.37 1.57711 -5.79006 0
M  V30 12937 H 1228.44 0.551254 -4.81756 0
M  V30 12938 N 1229.78 1.54207 0.325255 0
M  V30 12939 C 1230.73 1.83474 1.40021 0
M  V30 12940 C 1231.7 0.681719 1.51466 0
M  V30 12941 O 1232.88 0.92798 1.66713 0
M  V30 12942 C 1230.02 2.06624 2.76407 0
M  V30 12943 C 1229.13 3.3431 2.73607 0
M  V30 12944 C 1228.27 3.4743 4.01828 0
M  V30 12945 C 1227.31 4.68997 3.93329 0
M  V30 12946 N 1226.45 4.79052 5.13277 0
M  V30 12947 H 1231.29 2.75182 1.14363 0
M  V30 12948 H 1228.82 1.36284 0.553639 0
M  V30 12949 H 1230.78 2.18037 3.5569 0
M  V30 12950 H 1229.41 1.18209 3.00377 0
M  V30 12951 H 1228.46 3.31643 1.86324 0
M  V30 12952 H 1229.77 4.237 2.6321 0
M  V30 12953 H 1228.93 3.58376 4.89542 0
M  V30 12954 H 1227.67 2.56128 4.1503 0
M  V30 12955 H 1226.67 4.58109 3.04 0
M  V30 12956 H 1227.9 5.61681 3.81695 0
M  V30 12957 H 1225.84 3.90666 5.26988 0
M  V30 12958 H 1225.76 5.62406 5.05208 0
M  V30 12959 H 1227.03 4.94328 6.02711 0
M  V30 12960 N 1231.26 -0.58723 1.46251 0
M  V30 12961 C 1232.5 -1.3476 1.51551 0
M  V30 12962 C 1232.84 -1.93499 0.16483 0
M  V30 12963 O 1232.11 -1.7622 -0.823207 0
M  V30 12964 C 1232.39 -2.48033 2.61059 0
M  V30 12965 C 1232.25 -1.94358 4.05642 0
M  V30 12966 C 1233.57 -3.50096 2.66685 0
M  V30 12967 H 1230.69 -0.48863 0.551733 0
M  V30 12968 H 1233.33 -0.660097 1.78165 0
M  V30 12969 H 1231.48 -3.06679 2.38496 0
M  V30 12970 H 1233.15 -1.40204 4.39478 0
M  V30 12971 H 1231.39 -1.25217 4.15335 0
M  V30 12972 H 1232.06 -2.76105 4.77986 0
M  V30 12973 H 1234.54 -3.01324 2.86955 0
M  V30 12974 H 1233.42 -4.26817 3.45135 0
M  V30 12975 H 1233.68 -4.07032 1.7256 0
M  V30 12976 N 1232.74 -1.33881 -0.831482 0
M  V30 12977 C 1233.65 -1.26802 -1.97379 0
M  V30 12978 C 1234.66 -0.177233 -1.73095 0
M  V30 12979 O 1235.84 -0.402163 -1.97344 0
M  V30 12980 C 1232.9 -1.01474 -3.31517 0
M  V30 12981 C 1231.96 -2.19626 -3.68867 0
M  V30 12982 C 1231.2 -1.95497 -4.96605 0
M  V30 12983 O 1231.42 -0.908948 -5.63111 0
M  V30 12984 O 1230.35 -2.82226 -5.31632 0
M  V30 12985 H 1234.18 -2.22883 -2.06293 0
M  V30 12986 H 1231.76 -1.14001 -0.965613 0
M  V30 12987 H 1233.65 -0.890954 -4.11874 0
M  V30 12988 H 1232.32 -0.0842656 -3.2359 0
M  V30 12989 H 1231.23 -2.37561 -2.88991 0
M  V30 12990 H 1232.56 -3.11034 -3.81469 0
M  V30 12991 N 1234.21 1.05064 -1.1747 0
M  V30 12992 C 1235.16 2.11131 -0.860692 0
M  V30 12993 C 1236.15 1.60049 0.165288 0
M  V30 12994 O 1237.34 1.76961 -0.0373288 0
M  V30 12995 C 1234.47 3.41222 -0.37718 0
M  V30 12996 C 1233.55 3.99097 -1.43466 0
M  V30 12997 N 1233.95 4.30918 -2.64846 0
M  V30 12998 C 1232.24 4.26851 -1.29282 0
M  V30 12999 C 1232.94 4.77092 -3.32804 0
M  V30 13000 N 1231.92 4.77291 -2.60182 0
M  V30 13001 H 1235.72 2.33597 -1.78353 0
M  V30 13002 H 1233.24 1.22724 -1.06361 0
M  V30 13003 H 1235.23 4.16685 -0.133766 0
M  V30 13004 H 1233.89 3.20188 0.53944 0
M  V30 13005 H 1234.9 4.20877 -3.01799 0
M  V30 13006 H 1231.58 4.15197 -0.437949 0
M  V30 13007 H 1232.97 5.10815 -4.36483 0
M  V30 13008 N 1235.69 0.975146 1.23809 0
M  V30 13009 C 1236.92 0.658605 1.96665 0
M  V30 13010 C 1237.34 -0.766744 1.71763 0
M  V30 13011 O 1236.7 -1.52151 0.985887 0
M  V30 13012 C 1236.75 0.948438 3.47904 0
M  V30 13013 O 1235.85 0.0377241 4.12383 0
M  V30 13014 H 1235.19 0.248231 0.615855 0
M  V30 13015 H 1237.72 1.30732 1.57386 0
M  V30 13016 H 1237.73 0.883 3.9833 0
M  V30 13017 H 1236.41 1.98717 3.65355 0
M  V30 13018 H 1234.98 0.157122 3.72569 0
M  V30 13019 N 1237.17 -1.38817 0.746158 0
M  V30 13020 C 1238.59 -1.53894 0.42294 0
M  V30 13021 C 1238.79 -1.71064 -1.06486 0
M  V30 13022 O 1237.84 -1.71744 -1.85095 0
M  V30 13023 C 1239.15 -2.75029 1.2157 0
M  V30 13024 C 1240.7 -2.88873 1.20504 0
M  V30 13025 C 1241.18 -4.1296 1.9806 0
M  V30 13026 N 1242.67 -4.20022 1.95283 0
M  V30 13027 C 1243.4 -5.15011 2.52093 0
M  V30 13028 N 1242.9 -6.1572 3.17586 0
M  V30 13029 N 1244.69 -5.07308 2.42064 0
M  V30 13030 H 1236.84 -1.25921 1.71049 0
M  V30 13031 H 1239.11 -0.611148 0.724708 0
M  V30 13032 H 1238.81 -2.68722 2.26895 0
M  V30 13033 H 1238.69 -3.68009 0.827593 0
M  V30 13034 H 1241.07 -2.94667 0.159877 0
M  V30 13035 H 1241.15 -1.96925 1.63261 0
M  V30 13036 H 1240.8 -4.07929 3.02583 0
M  V30 13037 H 1240.73 -5.03974 1.52702 0
M  V30 13038 H 1243.22 -3.47892 1.4758 0
M  V30 13039 H 1243.53 -6.84682 3.58373 0
M  V30 13040 H 1241.88 -6.16075 3.21678 0
M  V30 13041 H 1245.07 -4.27569 1.90532 0
M  V30 13042 H 1245.24 -5.81158 2.86635 0
M  V30 13043 N 1238.65 -0.49465 -1.49636 0
M  V30 13044 C 1239.56 0.291881 -2.32777 0
M  V30 13045 C 1240.57 0.973468 -1.44221 0
M  V30 13046 O 1241.75 0.956252 -1.77251 0
M  V30 13047 C 1238.81 1.34609 -3.19502 0
M  V30 13048 C 1237.88 0.678611 -4.23903 0
M  V30 13049 C 1237.11 1.68259 -5.06483 0
M  V30 13050 O 1237.33 2.91176 -4.90482 0
M  V30 13051 O 1236.27 1.24141 -5.88959 0
M  V30 13052 H 1240.09 -0.388459 -3.01205 0
M  V30 13053 H 1237.68 -0.256086 -1.47189 0
M  V30 13054 H 1239.56 1.95617 -3.73245 0
M  V30 13055 H 1238.23 2.00947 -2.53775 0
M  V30 13056 H 1237.14 0.0289541 -3.74089 0
M  V30 13057 H 1238.47 0.0577817 -4.92166 0
M  V30 13058 N 1240.13 1.55939 -0.228214 0
M  V30 13059 C 1241.36 2.02576 0.405759 0
M  V30 13060 C 1241.76 1.10718 1.53422 0
M  V30 13061 O 1241.11 0.110361 1.83368 0
M  V30 13062 C 1241.17 3.45531 0.992405 0
M  V30 13063 C 1240.83 4.57 -0.00144674 0
M  V30 13064 C 1241.83 5.13642 -0.804248 0
M  V30 13065 C 1239.51 5.02152 -0.12213 0
M  V30 13066 C 1241.51 6.13912 -1.71437 0
M  V30 13067 C 1239.2 6.02258 -1.03578 0
M  V30 13068 C 1240.19 6.58015 -1.83044 0
M  V30 13069 O 1239.88 7.56172 -2.72872 0
M  V30 13070 H 1239.61 0.668136 0.102813 0
M  V30 13071 H 1242.17 2.02497 -0.344092 0
M  V30 13072 H 1240.4 3.427 1.79147 0
M  V30 13073 H 1242.09 3.75777 1.53448 0
M  V30 13074 H 1242.85 4.79603 -0.721497 0
M  V30 13075 H 1238.73 4.58428 0.486294 0
M  V30 13076 H 1242.28 6.57359 -2.33506 0
M  V30 13077 H 1238.17 6.35718 -1.11952 0
M  V30 13078 H 1238.94 7.73719 -2.67022 0
M  V30 13079 N 1241.6 -0.0451101 1.57535 0
M  V30 13080 C 1242.55 -1.05066 2.05499 0
M  V30 13081 C 1243.52 -1.36884 0.940843 0
M  V30 13082 O 1244.71 -1.47497 1.21034 0
M  V30 13083 C 1241.85 -2.35139 2.52594 0
M  V30 13084 C 1240.96 -2.0962 3.77735 0
M  V30 13085 C 1240.09 -3.33447 4.13505 0
M  V30 13086 C 1239.13 -3.03411 5.31609 0
M  V30 13087 N 1238.27 -4.19644 5.62888 0
M  V30 13088 H 1243.11 -0.63469 2.91163 0
M  V30 13089 H 1240.65 -0.30179 1.43971 0
M  V30 13090 H 1242.61 -3.11118 2.7796 0
M  V30 13091 H 1241.24 -2.74489 1.69869 0
M  V30 13092 H 1240.29 -1.24211 3.59549 0
M  V30 13093 H 1241.6 -1.83452 4.63839 0
M  V30 13094 H 1240.75 -4.17805 4.39914 0
M  V30 13095 H 1239.49 -3.62715 3.2602 0
M  V30 13096 H 1238.5 -2.17453 5.04969 0
M  V30 13097 H 1239.72 -2.75438 6.20734 0
M  V30 13098 H 1237.67 -4.48893 4.78363 0
M  V30 13099 H 1237.59 -3.96843 6.43468 0
M  V30 13100 H 1238.85 -5.04921 5.93865 0
M  V30 13101 N 1243.08 -1.54377 -0.317073 0
M  V30 13102 C 1244.01 -1.80563 -1.41172 0
M  V30 13103 C 1245.03 -0.687865 -1.47554 0
M  V30 13104 O 1246.22 -0.965084 -1.50161 0
M  V30 13105 C 1243.32 -1.9142 -2.79663 0
M  V30 13106 C 1242.49 -3.21655 -2.96407 0
M  V30 13107 C 1241.55 -3.23131 -4.15298 0
M  V30 13108 O 1240.57 -3.96741 -4.08149 0
M  V30 13109 N 1241.78 -2.47376 -5.25153 0
M  V30 13110 H 1244.54 -2.75032 -1.1907 0
M  V30 13111 H 1242.1 -1.53754 -0.507086 0
M  V30 13112 H 1244.09 -1.89828 -3.57418 0
M  V30 13113 H 1242.66 -1.0402 -2.94786 0
M  V30 13114 H 1241.88 -3.36154 -2.05899 0
M  V30 13115 H 1243.17 -4.07629 -3.04494 0
M  V30 13116 H 1242.57 -1.87173 -5.33838 0
M  V30 13117 H 1241.13 -2.51555 -6.01301 0
M  V30 13118 N 1244.56 0.579466 -1.4656 0
M  V30 13119 C 1245.47 1.71609 -1.59961 0
M  V30 13120 C 1246.49 1.67162 -0.483002 0
M  V30 13121 O 1247.66 1.87012 -0.747561 0
M  V30 13122 C 1244.73 3.08114 -1.58954 0
M  V30 13123 C 1243.79 3.238 -2.81872 0
M  V30 13124 C 1243.02 4.53794 -2.80904 0
M  V30 13125 O 1243.24 5.37884 -1.89835 0
M  V30 13126 O 1242.18 4.72796 -3.72488 0
M  V30 13127 H 1246 1.6325 -2.56092 0
M  V30 13128 H 1243.59 0.746891 -1.2939 0
M  V30 13129 H 1245.47 3.8939 -1.611 0
M  V30 13130 H 1244.15 3.16903 -0.65984 0
M  V30 13131 H 1243.05 2.42006 -2.85279 0
M  V30 13132 H 1244.39 3.19904 -3.74062 0
M  V30 13133 N 1246.04 1.3432 0.824371 0
M  V30 13134 C 1247.45 1.1397 1.11727 0
M  V30 13135 C 1247.65 -0.0597597 2.01411 0
M  V30 13136 O 1246.71 -0.735717 2.41544 0
M  V30 13137 C 1248.02 2.43423 1.76538 0
M  V30 13138 C 1249.57 2.49466 1.89039 0
M  V30 13139 C 1250.05 3.78917 2.57266 0
M  V30 13140 N 1251.54 3.8007 2.64767 0
M  V30 13141 C 1252.27 4.76953 3.18282 0
M  V30 13142 N 1251.77 5.84217 3.72373 0
M  V30 13143 N 1253.56 4.6441 3.1667 0
M  V30 13144 H 1245.71 2.11175 0.227802 0
M  V30 13145 H 1247.98 0.933774 0.163615 0
M  V30 13146 H 1247.68 3.31278 1.18102 0
M  V30 13147 H 1247.56 2.56655 2.7642 0
M  V30 13148 H 1249.94 1.62052 2.46623 0
M  V30 13149 H 1250.02 2.40163 0.880635 0
M  V30 13150 H 1249.67 4.6672 2.00336 0
M  V30 13151 H 1249.6 3.85502 3.58742 0
M  V30 13152 H 1252.09 3.02556 2.26425 0
M  V30 13153 H 1252.4 6.54159 4.11455 0
M  V30 13154 H 1250.75 5.87933 3.70621 0
M  V30 13155 H 1253.94 3.7976 2.73678 0
M  V30 13156 H 1254.11 5.40081 3.58073 0
M  V30 13157 N 1247.52 -1.0444 1.18026 0
M  V30 13158 C 1248.74 -1.81234 0.998089 0
M  V30 13159 C 1249.16 -1.83271 -0.453559 0
M  V30 13160 O 1248.52 -1.26545 -1.31502 0
M  V30 13161 C 1248.57 -3.27007 1.54106 0
M  V30 13162 O 1248.29 -3.25174 2.93587 0
M  V30 13163 C 1249.79 -4.20461 1.40455 0
M  V30 13164 H 1247.01 -0.57085 0.352663 0
M  V30 13165 H 1249.55 -1.31649 1.56489 0
M  V30 13166 H 1247.71 -3.73837 1.01611 0
M  V30 13167 H 1248.12 -4.16466 3.18836 0
M  V30 13168 H 1249.6 -5.20695 1.83249 0
M  V30 13169 H 1250.07 -4.37781 0.352713 0
M  V30 13170 H 1250.68 -3.79493 1.92004 0
M  V30 13171 N 1248.99 -0.981699 -1.2329 0
M  V30 13172 C 1250.22 -0.668399 -1.95489 0
M  V30 13173 C 1250.63 0.768976 -1.72868 0
M  V30 13174 O 1249.98 1.52925 -1.01783 0
M  V30 13175 C 1250.04 -0.880535 -3.4855 0
M  V30 13176 C 1249.7 -2.30023 -3.9489 0
M  V30 13177 C 1250.7 -3.27899 -4.03458 0
M  V30 13178 C 1248.38 -2.63167 -4.27842 0
M  V30 13179 C 1250.38 -4.56999 -4.44332 0
M  V30 13180 C 1248.06 -3.92489 -4.68397 0
M  V30 13181 C 1249.06 -4.89216 -4.76609 0
M  V30 13182 O 1248.75 -6.16229 -5.16253 0
M  V30 13183 H 1248.48 -0.247255 -0.629159 0
M  V30 13184 H 1251.04 -1.31606 -1.57699 0
M  V30 13185 H 1249.27 -0.175698 -3.86301 0
M  V30 13186 H 1250.96 -0.564198 -4.0196 0
M  V30 13187 H 1251.72 -3.03624 -3.78203 0
M  V30 13188 H 1247.6 -1.88588 -4.20661 0
M  V30 13189 H 1251.14 -5.32498 -4.50656 0
M  V30 13190 H 1247.04 -4.16558 -4.93102 0
M  V30 13191 H 1247.81 -6.20001 -5.34361 0
M  V30 13192 N 1250.47 1.3842 -0.753509 0
M  V30 13193 C 1251.7 2.04403 -0.320449 0
M  V30 13194 C 1252.12 1.5683 1.05118 0
M  V30 13195 O 1251.47 0.741335 1.66765 0
M  V30 13196 C 1251.52 3.59954 -0.333937 0
M  V30 13197 O 1251.24 4.05782 -1.65144 0
M  V30 13198 C 1252.75 4.43156 0.112997 0
M  V30 13199 H 1249.97 0.656881 -0.136927 0
M  V30 13200 H 1252.51 1.77112 -1.02234 0
M  V30 13201 H 1250.66 3.86083 0.319215 0
M  V30 13202 H 1251.08 5.00213 -1.57757 0
M  V30 13203 H 1252.55 5.51975 0.0523995 0
M  V30 13204 H 1253.03 4.23581 1.16087 0
M  V30 13205 H 1253.64 4.22216 -0.511278 0
M  V30 13206 N 1251.95 0.502579 1.49372 0
M  V30 13207 C 1253.37 0.158641 1.5881 0
M  V30 13208 C 1253.57 -1.33688 1.50764 0
M  V30 13209 O 1252.62 -2.11295 1.38241 0
M  V30 13210 C 1253.94 0.736843 2.91532 0
M  V30 13211 C 1255.48 0.703093 3.05001 0
M  V30 13212 C 1255.96 1.25938 4.40345 0
M  V30 13213 N 1257.45 1.22015 4.46841 0
M  V30 13214 C 1258.18 1.62076 5.50017 0
M  V30 13215 N 1257.68 2.09736 6.6029 0
M  V30 13216 N 1259.47 1.53482 5.4074 0
M  V30 13217 H 1251.62 1.47487 1.52844 0
M  V30 13218 H 1253.89 0.611851 0.724115 0
M  V30 13219 H 1253.59 1.78573 3.02992 0
M  V30 13220 H 1253.47 0.198178 3.76679 0
M  V30 13221 H 1255.85 -0.336965 2.9317 0
M  V30 13222 H 1255.94 1.27892 2.21534 0
M  V30 13223 H 1255.58 2.29823 4.52928 0
M  V30 13224 H 1255.51 0.659481 5.22454 0
M  V30 13225 H 1258 0.870957 3.67726 0
M  V30 13226 H 1258.31 2.3837 7.35119 0
M  V30 13227 H 1256.66 2.13712 6.61326 0
M  V30 13228 H 1259.85 1.16065 4.53483 0
M  V30 13229 H 1260.02 1.85026 6.21023 0
M  V30 13230 N 1253.43 -1.55816 0.23648 0
M  V30 13231 C 1254.71 -1.90565 -0.440933 0
M  V30 13232 C 1255.09 -1.15585 -1.76645 0
M  V30 13233 O 1254.43 -0.269949 -2.269 0
M  V30 13234 C 1254.64 -3.43462 -0.61925 0
M  V30 13235 C 1255.99 -4.14516 -0.91989 0
M  V30 13236 O 1257.02 -3.49144 -0.705496 0
M  V30 13237 O 1255.87 -5.3013 -1.32759 0
M  V30 13238 H 1252.97 -0.79285 -0.235199 0
M  V30 13239 H 1255.51 -1.67378 0.279774 0
M  V30 13240 H 1254.29 -3.90029 0.315124 0
M  V30 13241 H 1253.91 -3.72478 -1.39089 0
M  V30 13242 N 1254.91 0.036755 -1.57557 0
M  V30 13243 C 1255.84 1.03939 -2.09091 0
M  V30 13244 C 1256.82 1.38196 -0.991761 0
M  V30 13245 O 1258 1.47214 -1.26656 0
M  V30 13246 C 1255.13 2.34263 -2.56394 0
M  V30 13247 C 1254.09 2.14269 -3.70504 0
M  V30 13248 C 1253.41 3.50286 -4.03985 0
M  V30 13249 C 1254.71 1.53514 -4.9923 0
M  V30 13250 H 1256.41 0.610429 -2.93111 0
M  V30 13251 H 1253.95 0.292183 -1.41005 0
M  V30 13252 H 1255.91 3.04727 -2.91066 0
M  V30 13253 H 1254.63 2.79205 -1.69447 0
M  V30 13254 H 1253.29 1.46239 -3.36169 0
M  V30 13255 H 1252.94 3.92861 -3.14116 0
M  V30 13256 H 1252.64 3.37735 -4.80842 0
M  V30 13257 H 1254.16 4.22124 -4.41184 0
M  V30 13258 H 1255.57 2.13885 -5.31908 0
M  V30 13259 H 1253.97 1.51561 -5.80646 0
M  V30 13260 H 1255.04 0.500126 -4.82314 0
M  V30 13261 N 1256.39 1.54543 0.308881 0
M  V30 13262 C 1257.32 1.87947 1.38557 0
M  V30 13263 C 1258.3 0.737622 1.53275 0
M  V30 13264 O 1259.48 0.992664 1.66913 0
M  V30 13265 C 1256.61 2.11982 2.75102 0
M  V30 13266 C 1255.57 3.2783 2.75158 0
M  V30 13267 C 1254.89 3.37266 4.14917 0
M  V30 13268 C 1256.19 4.65129 2.37598 0
M  V30 13269 H 1257.89 2.78123 1.1085 0
M  V30 13270 H 1255.43 1.3382 0.531808 0
M  V30 13271 H 1257.38 2.33935 3.50503 0
M  V30 13272 H 1256.11 1.18569 3.04317 0
M  V30 13273 H 1254.77 3.05787 2.02212 0
M  V30 13274 H 1254.42 2.41384 4.41296 0
M  V30 13275 H 1254.12 4.15135 4.15857 0
M  V30 13276 H 1255.64 3.61471 4.92109 0
M  V30 13277 H 1257.05 4.86865 3.02714 0
M  V30 13278 H 1255.45 5.45653 2.49765 0
M  V30 13279 H 1256.52 4.6638 1.32731 0
M  V30 13280 N 1257.86 -0.571685 1.46866 0
M  V30 13281 C 1259.11 -1.32685 1.52444 0
M  V30 13282 C 1259.43 -1.94147 0.182225 0
M  V30 13283 O 1258.7 -1.79159 -0.792385 0
M  V30 13284 H 1257.28 -0.492679 0.561495 0
M  V30 13285 H 1259.94 -0.668694 1.8307 0
M  V30 13286 H 1259.04 -2.12788 2.28315 0
M  V30 13287 N 1259.34 -1.34755 -0.817236 0
M  V30 13288 C 1260.75 -1.24594 -1.39044 0
M  V30 13289 C 1261.1 0.126184 -1.95794 0
M  V30 13290 O 1260.23 1.02675 -1.90491 0
M  V30 13291 C 1260.82 -2.25592 -2.52772 0
M  V30 13292 C 1259.38 -2.19204 -3.05984 0
M  V30 13293 C 1258.53 -2.11884 -1.78886 0
M  V30 13294 H 1261.48 -1.46039 -0.621155 0
M  V30 13295 H 1261.5 -1.87622 -3.31026 0
M  V30 13296 H 1261.01 -3.25447 -2.11438 0
M  V30 13297 H 1259.11 -1.22725 -3.51809 0
M  V30 13298 H 1259.23 -3.10707 -3.64689 0
M  V30 13299 H 1257.59 -1.57694 -2.00012 0
M  V30 13300 H 1258.37 -3.13582 -1.39719 0
M  V30 13301 N 1260.82 1.03812 -1.18578 0
M  V30 13302 C 1262.05 1.80702 -1.00769 0
M  V30 13303 C 1262.46 1.83509 0.443833 0
M  V30 13304 O 1261.82 1.2724 1.30829 0
M  V30 13305 C 1261.87 3.26185 -1.55838 0
M  V30 13306 O 1261.59 3.23612 -2.95308 0
M  V30 13307 C 1263.09 4.1971 -1.42682 0
M  V30 13308 H 1260.31 0.568972 -0.355685 0
M  V30 13309 H 1262.86 1.30817 -1.57185 0
M  V30 13310 H 1261.01 3.73293 -1.03592 0
M  V30 13311 H 1261.43 4.14769 -3.2104 0
M  V30 13312 H 1262.9 5.19716 -1.86008 0
M  V30 13313 H 1263.38 4.37588 -0.375924 0
M  V30 13314 H 1263.98 3.78469 -1.94013 0
M  V30 13315 N 1262.3 0.988223 1.22768 0
M  V30 13316 C 1263.54 0.662441 1.91676 0
M  V30 13317 C 1263.88 -0.802931 1.76824 0
M  V30 13318 O 1263.15 -1.58011 1.13415 0
M  V30 13319 C 1263.43 1.06332 3.44043 0
M  V30 13320 C 1263.29 2.5869 3.67967 0
M  V30 13321 C 1264.61 0.613058 4.35809 0
M  V30 13322 H 1261.73 0.242132 0.69609 0
M  V30 13323 H 1264.37 1.23091 1.44736 0
M  V30 13324 H 1262.52 0.579623 3.84152 0
M  V30 13325 H 1264.19 3.14694 3.37291 0
M  V30 13326 H 1262.43 3.00971 3.12408 0
M  V30 13327 H 1263.1 2.8179 4.74656 0
M  V30 13328 H 1265.58 1.02846 4.0319 0
M  V30 13329 H 1264.46 0.921901 5.41103 0
M  V30 13330 H 1264.72 -0.48641 4.39416 0
M  V30 13331 N 1263.78 -1.38018 0.760839 0
M  V30 13332 C 1265 -2.04757 0.330038 0
M  V30 13333 C 1265.43 -1.57009 -1.03585 0
M  V30 13334 O 1264.78 -0.725349 -1.66158 0
M  V30 13335 C 1264.83 -3.58696 0.370082 0
M  V30 13336 O 1263.94 -4.07507 -0.633361 0
M  V30 13337 H 1263.28 -0.648023 0.144782 0
M  V30 13338 H 1265.81 -1.7655 1.03399 0
M  V30 13339 H 1265.82 -4.07387 0.223515 0
M  V30 13340 H 1264.49 -3.92806 1.36661 0
M  V30 13341 H 1263.07 -3.70165 -0.45081 0
M  V30 13342 N 1265.25 -0.510493 -1.49103 0
M  V30 13343 C 1266.18 0.251999 -2.32136 0
M  V30 13344 C 1267.16 0.953613 -1.40855 0
M  V30 13345 O 1268.35 0.943178 -1.69758 0
M  V30 13346 C 1265.48 1.31118 -3.21598 0
M  V30 13347 C 1264.43 0.72888 -4.21748 0
M  V30 13348 C 1263.76 1.88928 -5.0021 0
M  V30 13349 C 1265.06 -0.286425 -5.21514 0
M  V30 13350 H 1266.75 -0.441102 -2.96133 0
M  V30 13351 H 1264.3 -0.213577 -1.42407 0
M  V30 13352 H 1266.25 1.8524 -3.78503 0
M  V30 13353 H 1264.98 2.0336 -2.55563 0
M  V30 13354 H 1263.64 0.209336 -3.66002 0
M  V30 13355 H 1263.28 2.59961 -4.30615 0
M  V30 13356 H 1262.98 1.50568 -5.67981 0
M  V30 13357 H 1264.51 2.43465 -5.59962 0
M  V30 13358 H 1265.92 0.166997 -5.73057 0
M  V30 13359 H 1264.32 -0.586361 -5.97228 0
M  V30 13360 H 1265.39 -1.19904 -4.69842 0
M  V30 13361 N 1266.73 1.55688 -0.24474 0
M  V30 13362 C 1267.96 2.0329 0.384808 0
M  V30 13363 C 1268.37 1.12405 1.51692 0
M  V30 13364 O 1267.73 0.138056 1.81977 0
M  V30 13365 C 1267.78 3.50255 0.894635 0
M  V30 13366 O 1267.5 4.37677 -0.192365 0
M  V30 13367 C 1269 4.13608 1.59509 0
M  V30 13368 H 1266.22 0.664706 0.0916908 0
M  V30 13369 H 1268.77 2.01162 -0.367973 0
M  V30 13370 H 1266.92 3.52924 1.5976 0
M  V30 13371 H 1267.34 5.2414 0.194424 0
M  V30 13372 H 1268.81 5.1814 1.90356 0
M  V30 13373 H 1269.29 3.5997 2.51631 0
M  V30 13374 H 1269.89 4.14856 0.936749 0
M  V30 13375 N 1268.21 -0.0283989 1.57574 0
M  V30 13376 C 1269.14 -1.05641 2.03403 0
M  V30 13377 C 1270.15 -1.32426 0.946953 0
M  V30 13378 O 1271.34 -1.29902 1.22425 0
M  V30 13379 C 1268.44 -2.39788 2.39489 0
M  V30 13380 C 1267.62 -2.32348 3.70585 0
M  V30 13381 C 1266.68 -3.4895 3.93853 0
M  V30 13382 O 1265.7 -3.28414 4.64901 0
M  V30 13383 N 1266.9 -4.7084 3.39543 0
M  V30 13384 H 1269.67 -0.665788 2.92211 0
M  V30 13385 H 1267.23 -0.21633 1.60448 0
M  V30 13386 H 1269.22 -3.16514 2.52193 0
M  V30 13387 H 1267.79 -2.70692 1.56348 0
M  V30 13388 H 1267.01 -1.40717 3.68229 0
M  V30 13389 H 1268.3 -2.24521 4.56582 0
M  V30 13390 H 1267.7 -4.90425 2.81956 0
M  V30 13391 H 1266.25 -5.44929 3.57625 0
M  V30 13392 N 1269.69 -1.54705 -0.300681 0
M  V30 13393 C 1270.65 -1.84934 -1.35395 0
M  V30 13394 C 1271.65 -0.72226 -1.43666 0
M  V30 13395 O 1272.84 -0.990543 -1.43296 0
M  V30 13396 C 1269.97 -2.02991 -2.73875 0
M  V30 13397 H 1271.17 -2.79063 -1.09835 0
M  V30 13398 H 1268.72 -1.46772 -0.537365 0
M  V30 13399 H 1269.45 -1.11151 -3.04657 0
M  V30 13400 H 1269.24 -2.85027 -2.69262 0
M  V30 13401 H 1270.73 -2.27747 -3.5003 0
M  V30 13402 N 1271.17 0.563888 -1.47167 0
M  V30 13403 C 1272.13 1.65359 -1.58711 0
M  V30 13404 C 1273.13 1.53999 -0.46272 0
M  V30 13405 O 1274.32 1.58277 -0.727595 0
M  V30 13406 C 1271.45 3.04874 -1.52529 0
M  V30 13407 H 1272.64 1.56475 -2.55843 0
M  V30 13408 H 1270.2 0.783271 -1.35257 0
M  V30 13409 H 1270.93 3.19297 -0.56747 0
M  V30 13410 H 1270.72 3.14528 -2.34125 0
M  V30 13411 H 1272.21 3.84164 -1.63731 0
M  V30 13412 N 1272.64 1.35187 0.810078 0
M  V30 13413 C 1273.89 1.28264 1.56699 0
M  V30 13414 C 1274.22 -0.143906 1.93967 0
M  V30 13415 O 1273.47 -1.10832 1.61291 0
M  V30 13416 C 1273.77 2.13135 2.86894 0
M  V30 13417 C 1273.44 3.61974 2.6886 0
M  V30 13418 C 1272.1 4.02545 2.63649 0
M  V30 13419 C 1274.45 4.5643 2.51636 0
M  V30 13420 C 1271.78 5.35745 2.39154 0
M  V30 13421 C 1274.13 5.89824 2.2867 0
M  V30 13422 C 1272.8 6.29544 2.2188 0
M  V30 13423 H 1272.07 0.469353 0.573401 0
M  V30 13424 H 1274.71 1.67051 0.936282 0
M  V30 13425 H 1273.02 1.67218 3.54324 0
M  V30 13426 H 1274.72 2.05117 3.44569 0
M  V30 13427 H 1271.31 3.29777 2.73761 0
M  V30 13428 H 1275.49 4.25974 2.54677 0
M  V30 13429 H 1270.75 5.65524 2.32363 0
M  V30 13430 H 1274.92 6.62597 2.14333 0
M  V30 13431 H 1272.55 7.32689 2.0266 0
M  V30 13432 N 1274.12 -1.03182 1.19127 0
M  V30 13433 C 1275.35 -1.80165 1.01726 0
M  V30 13434 C 1275.77 -1.83742 -0.434095 0
M  V30 13435 O 1275.12 -1.27932 -1.30152 0
M  V30 13436 C 1275.17 -3.25354 1.57566 0
M  V30 13437 O 1274.89 -3.22042 2.9702 0
M  V30 13438 C 1276.4 -4.18948 1.44906 0
M  V30 13439 H 1273.62 -0.567078 0.358698 0
M  V30 13440 H 1276.16 -1.29982 1.57877 0
M  V30 13441 H 1274.31 -3.72738 1.0557 0
M  V30 13442 H 1274.73 -4.13061 3.23235 0
M  V30 13443 H 1276.2 -5.18723 1.88762 0
M  V30 13444 H 1276.68 -4.37383 0.399125 0
M  V30 13445 H 1277.29 -3.77435 1.96018 0
M  V30 13446 N 1275.6 -0.99472 -1.22242 0
M  V30 13447 C 1277.01 -0.706456 -1.72818 0
M  V30 13448 C 1277.36 0.776566 -1.80177 0
M  V30 13449 O 1276.49 1.60698 -1.44931 0
M  V30 13450 C 1277.08 -1.27571 -3.13865 0
M  V30 13451 C 1275.64 -1.03679 -3.61839 0
M  V30 13452 C 1274.79 -1.3948 -2.39668 0
M  V30 13453 H 1277.74 -1.16687 -1.07564 0
M  V30 13454 H 1277.76 -0.655202 -3.74816 0
M  V30 13455 H 1277.27 -2.35508 -3.08476 0
M  V30 13456 H 1275.37 0.0258679 -3.72591 0
M  V30 13457 H 1275.49 -1.70145 -4.4787 0
M  V30 13458 H 1273.85 -0.813418 -2.41362 0
M  V30 13459 H 1274.63 -2.48425 -2.36939 0
M  V30 13460 N 1277.08 1.37613 -0.768148 0
M  V30 13461 C 1278.33 1.99023 -0.327543 0
M  V30 13462 C 1278.64 1.61669 1.10103 0
M  V30 13463 O 1279.85 2.16155 1.64284 0
M  V30 13464 C 1278.3 3.55906 -0.534674 0
M  V30 13465 C 1277.91 4.02201 -1.97327 0
M  V30 13466 C 1279.65 4.24208 -0.157512 0
M  V30 13467 C 1277.56 5.51781 -2.12819 0
M  V30 13468 H 1276.49 0.744595 -0.118722 0
M  V30 13469 H 1279.14 1.5719 -0.946764 0
M  V30 13470 H 1277.52 3.95701 0.153951 0
M  V30 13471 H 1278.7 3.73661 -2.69655 0
M  V30 13472 H 1277.01 3.46671 -2.30669 0
M  V30 13473 H 1279.61 5.34107 -0.251824 0
M  V30 13474 H 1279.95 4.06636 0.89177 0
M  V30 13475 H 1280.49 3.89703 -0.798546 0
M  V30 13476 H 1277.23 5.74274 -3.16053 0
M  V30 13477 H 1276.75 5.82017 -1.4497 0
M  V30 13478 H 1278.42 6.17697 -1.92508 0
M  V30 13479 N 1278.56 0.518393 1.4883 0
M  V30 13480 C 1279.97 0.0749773 1.86549 0
M  V30 13481 C 1280.32 -1.34429 1.4291 0
M  V30 13482 O 1279.44 -2.00481 0.814648 0
M  V30 13483 C 1280.04 0.129289 3.38553 0
M  V30 13484 C 1278.6 -0.258871 3.75509 0
M  V30 13485 C 1277.74 0.494185 2.72861 0
M  V30 13486 H 1280.7 0.730266 1.409 0
M  V30 13487 H 1280.72 -0.661844 3.747 0
M  V30 13488 H 1280.23 1.16237 3.70285 0
M  V30 13489 H 1278.33 -1.29453 3.49389 0
M  V30 13490 H 1278.44 0.0726769 4.79045 0
M  V30 13491 H 1276.81 -0.0581428 2.54634 0
M  V30 13492 H 1277.59 1.52767 3.07436 0
M  V30 13493 N 1280.03 -1.55556 0.252993 0
M  V30 13494 C 1281.28 -1.99385 -0.370599 0
M  V30 13495 C 1281.61 -1.14101 -1.57145 0
M  V30 13496 O 1280.89 -0.205828 -1.93408 0
M  V30 13497 C 1281.17 -3.51672 -0.774503 0
M  V30 13498 C 1281.02 -4.47719 0.432159 0
M  V30 13499 C 1282.34 -4.0923 -1.61923 0
M  V30 13500 H 1279.46 -0.724858 -0.133231 0
M  V30 13501 H 1282.1 -1.86644 0.355522 0
M  V30 13502 H 1280.25 -3.62661 -1.39318 0
M  V30 13503 H 1281.93 -4.48704 1.07063 0
M  V30 13504 H 1280.17 -4.2029 1.07419 0
M  V30 13505 H 1280.84 -5.51898 0.106123 0
M  V30 13506 H 1283.32 -4.01381 -1.09693 0
M  V30 13507 H 1282.19 -5.16039 -1.87068 0
M  V30 13508 H 1282.45 -3.58067 -2.59307 0
M  V30 13509 N 1281.51 0.0200419 -1.57587 0
M  V30 13510 C 1282.79 0.744946 -1.80859 0
M  V30 13511 C 1283.17 1.93089 -0.853218 0
M  V30 13512 O 1282.52 2.28269 0.10261 0
M  V30 13513 C 1282.73 1.16952 -3.28821 0
M  V30 13514 C 1284.08 1.5817 -3.9404 0
M  V30 13515 O 1285.1 1.26385 -3.33024 0
M  V30 13516 O 1283.96 2.17197 -5.01486 0
M  V30 13517 H 1281.05 0.360995 -0.744051 0
M  V30 13518 H 1283.6 -0.00387374 -1.697 0
M  V30 13519 H 1282.37 0.323304 -3.89962 0
M  V30 13520 H 1281.99 1.97807 -3.44903 0
M  V30 13521 N 1282.99 1.54862 0.292472 0
M  V30 13522 C 1284.22 1.7855 1.04534 0
M  V30 13523 C 1284.63 0.549161 1.80637 0
M  V30 13524 O 1283.99 -0.481268 1.7604 0
M  V30 13525 C 1284.04 2.99849 2.01923 0
M  V30 13526 O 1283.76 4.18706 1.28907 0
M  V30 13527 C 1285.26 3.35991 2.8918 0
M  V30 13528 H 1282.48 0.595279 0.309652 0
M  V30 13529 H 1285.03 2.01834 0.329159 0
M  V30 13530 H 1283.18 2.78749 2.69032 0
M  V30 13531 H 1283.6 4.87151 1.94383 0
M  V30 13532 H 1285.07 4.24085 3.53349 0
M  V30 13533 H 1285.55 2.54524 3.57931 0
M  V30 13534 H 1286.15 3.59281 2.27591 0
M  V30 13535 N 1284.47 -0.556076 1.47464 0
M  V30 13536 C 1285.69 -1.3434 1.58011 0
M  V30 13537 C 1286.12 -1.86674 0.231138 0
M  V30 13538 O 1285.48 -1.63029 -0.793174 0
M  V30 13539 C 1285.52 -2.48844 2.60977 0
M  V30 13540 O 1284.63 -3.51108 2.16326 0
M  V30 13541 H 1283.97 -0.398986 0.53076 0
M  V30 13542 H 1286.5 -0.671898 1.93253 0
M  V30 13543 H 1286.51 -2.95398 2.81432 0
M  V30 13544 H 1285.18 -2.10109 3.58925 0
M  V30 13545 H 1283.76 -3.10852 2.05975 0
M  V30 13546 N 1285.95 -1.35615 -0.802897 0
M  V30 13547 C 1286.88 -1.24695 -1.92312 0
M  V30 13548 C 1287.89 -0.169409 -1.61916 0
M  V30 13549 O 1289.08 -0.422995 -1.73416 0
M  V30 13550 C 1286.18 -0.898229 -3.2678 0
M  V30 13551 C 1285.35 -2.07489 -3.85054 0
M  V30 13552 C 1284.41 -1.70137 -4.97936 0
M  V30 13553 O 1283.44 -2.42057 -5.15167 0
M  V30 13554 N 1284.64 -0.627153 -5.77102 0
M  V30 13555 H 1287.41 -2.21208 -2.02205 0
M  V30 13556 H 1284.97 -1.28832 -0.980503 0
M  V30 13557 H 1286.96 -0.629766 -3.9977 0
M  V30 13558 H 1285.53 -0.0226571 -3.12592 0
M  V30 13559 H 1284.75 -2.50694 -3.04214 0
M  V30 13560 H 1286.04 -2.86133 -4.2072 0
M  V30 13561 H 1285.44 -0.0296879 -5.65692 0
M  V30 13562 H 1283.99 -0.41848 -6.50455 0
M  V30 13563 N 1287.43 1.02549 -1.19673 0
M  V30 13564 C 1288.67 1.75408 -0.995732 0
M  V30 13565 C 1288.99 1.89773 0.473863 0
M  V30 13566 O 1290.19 2.59638 0.793762 0
M  V30 13567 C 1288.65 3.15444 -1.73273 0
M  V30 13568 C 1288.26 3.09121 -3.24266 0
M  V30 13569 C 1290 3.92575 -1.61509 0
M  V30 13570 C 1287.91 4.44109 -3.9054 0
M  V30 13571 H 1286.84 0.657569 -0.368944 0
M  V30 13572 H 1289.49 1.14739 -1.43203 0
M  V30 13573 H 1287.87 3.76601 -1.22425 0
M  V30 13574 H 1289.05 2.57325 -3.82257 0
M  V30 13575 H 1287.36 2.45485 -3.36342 0
M  V30 13576 H 1289.96 4.92428 -2.08372 0
M  V30 13577 H 1290.3 4.12382 -0.569804 0
M  V30 13578 H 1290.83 3.38027 -2.09721 0
M  V30 13579 H 1287.57 4.29506 -4.95182 0
M  V30 13580 H 1287.09 4.95947 -3.37337 0
M  V30 13581 H 1288.77 5.12982 -3.94282 0
M  V30 13582 N 1288.9 1.00119 1.21713 0
M  V30 13583 C 1290.15 0.682733 1.90962 0
M  V30 13584 C 1290.48 -0.784131 1.77665 0
M  V30 13585 O 1289.76 -1.56799 1.15084 0
M  V30 13586 C 1290.04 1.09975 3.42896 0
M  V30 13587 C 1289.89 2.62578 3.65202 0
M  V30 13588 C 1291.21 0.659247 4.35134 0
M  V30 13589 H 1288.33 0.249501 0.693483 0
M  V30 13590 H 1290.97 1.24619 1.43423 0
M  V30 13591 H 1289.12 0.620334 3.83515 0
M  V30 13592 H 1290.8 3.18254 3.33934 0
M  V30 13593 H 1289.04 3.04268 3.09198 0
M  V30 13594 H 1289.71 2.86809 4.7164 0
M  V30 13595 H 1292.19 1.07116 4.02076 0
M  V30 13596 H 1291.06 0.979241 5.40095 0
M  V30 13597 H 1291.32 -0.439777 4.39907 0
M  V30 13598 N 1290.38 -1.37203 0.775435 0
M  V30 13599 C 1291.31 -2.32819 0.17826 0
M  V30 13600 C 1292.29 -1.55963 -0.678944 0
M  V30 13601 O 1293.48 -1.84183 -0.615648 0
M  V30 13602 C 1290.61 -3.40198 -0.698768 0
M  V30 13603 C 1289.56 -4.27961 0.057423 0
M  V30 13604 C 1288.89 -5.26385 -0.93929 0
M  V30 13605 C 1290.19 -5.07402 1.23856 0
M  V30 13606 H 1291.88 -2.8301 0.977028 0
M  V30 13607 H 1289.43 -1.3607 0.471274 0
M  V30 13608 H 1291.38 -4.06067 -1.12637 0
M  V30 13609 H 1290.1 -2.88541 -1.53009 0
M  V30 13610 H 1288.76 -3.63628 0.465848 0
M  V30 13611 H 1288.41 -4.71007 -1.76527 0
M  V30 13612 H 1288.11 -5.85966 -0.437844 0
M  V30 13613 H 1289.64 -5.9513 -1.36576 0
M  V30 13614 H 1291.05 -5.6639 0.887423 0
M  V30 13615 H 1289.45 -5.76327 1.67234 0
M  V30 13616 H 1290.52 -4.3986 2.04085 0
M  V30 13617 N 1291.86 -0.526279 -1.48553 0
M  V30 13618 C 1293.27 -0.0848694 -1.86507 0
M  V30 13619 C 1293.62 1.3367 -1.43621 0
M  V30 13620 O 1292.75 2.00046 -0.825268 0
M  V30 13621 C 1293.34 -0.147241 -3.3848 0
M  V30 13622 C 1291.9 0.238954 -3.75641 0
M  V30 13623 C 1291.05 -0.508648 -2.72595 0
M  V30 13624 H 1294 -0.737728 -1.40511 0
M  V30 13625 H 1294.02 0.641964 -3.75045 0
M  V30 13626 H 1293.53 -1.18199 -3.69663 0
M  V30 13627 H 1291.63 1.27598 -3.50071 0
M  V30 13628 H 1291.75 -0.0980808 -4.79 0
M  V30 13629 H 1290.11 0.0446382 -2.54661 0
M  V30 13630 H 1290.89 -1.54395 -3.06622 0
M  V30 13631 N 1293.34 1.5542 -0.261239 0
M  V30 13632 C 1294.75 1.85161 0.239195 0
M  V30 13633 C 1295.1 1.18319 1.56509 0
M  V30 13634 O 1294.22 0.4666 2.1131 0
M  V30 13635 C 1294.82 3.3592 0.440781 0
M  V30 13636 C 1293.38 3.65837 0.885461 0
M  V30 13637 C 1292.53 2.77285 -0.0291982 0
M  V30 13638 H 1295.48 1.51158 -0.483417 0
M  V30 13639 H 1295.5 3.58276 1.28136 0
M  V30 13640 H 1295.01 3.84541 -0.524382 0
M  V30 13641 H 1293.11 3.22705 1.86259 0
M  V30 13642 H 1293.22 4.73469 0.732394 0
M  V30 13643 H 1291.59 2.50045 0.484701 0
M  V30 13644 H 1292.37 3.28716 -0.989992 0
M  V30 13645 N 1294.82 -0.0116844 1.57596 0
M  V30 13646 C 1295.77 -1.01509 2.04157 0
M  V30 13647 C 1296.75 -1.31011 0.934076 0
M  V30 13648 O 1297.94 -1.30305 1.1979 0
M  V30 13649 C 1295.07 -2.31081 2.53883 0
M  V30 13650 C 1294.16 -2.04594 3.71486 0
M  V30 13651 N 1294.55 -1.48224 4.83594 0
M  V30 13652 C 1292.85 -2.34795 3.79193 0
M  V30 13653 C 1293.55 -1.37941 5.65108 0
M  V30 13654 N 1292.52 -1.861 5.10752 0
M  V30 13655 H 1296.32 -0.573556 2.88249 0
M  V30 13656 H 1293.84 -0.217632 1.60935 0
M  V30 13657 H 1295.84 -3.03793 2.85509 0
M  V30 13658 H 1294.5 -2.75897 1.71204 0
M  V30 13659 H 1295.51 -1.16261 5.04682 0
M  V30 13660 H 1292.18 -2.82566 3.07348 0
M  V30 13661 H 1293.57 -0.946997 6.65193 0
M  V30 13662 N 1296.29 -1.55015 -0.284256 0
M  V30 13663 C 1297.22 -1.90128 -1.3555 0
M  V30 13664 C 1298.2 -0.761914 -1.52082 0
M  V30 13665 O 1299.39 -1.01909 -1.65312 0
M  V30 13666 C 1296.52 -2.16332 -2.71695 0
M  V30 13667 C 1295.47 -3.32166 -2.69907 0
M  V30 13668 C 1294.8 -3.43824 -4.09498 0
M  V30 13669 C 1296.1 -4.6885 -2.30168 0
M  V30 13670 H 1297.79 -2.79852 -1.06411 0
M  V30 13671 H 1295.34 -1.34649 -0.510451 0
M  V30 13672 H 1297.29 -2.39482 -3.46737 0
M  V30 13673 H 1296.02 -1.23395 -3.02392 0
M  V30 13674 H 1294.68 -3.08965 -1.97322 0
M  V30 13675 H 1294.32 -2.48375 -4.374 0
M  V30 13676 H 1294.02 -4.21698 -4.092 0
M  V30 13677 H 1295.55 -3.69254 -4.86296 0
M  V30 13678 H 1296.96 -4.91619 -2.9493 0
M  V30 13679 H 1295.36 -5.49558 -2.41052 0
M  V30 13680 H 1296.43 -4.68433 -1.25294 0
M  V30 13681 N 1297.77 0.548248 -1.47757 0
M  V30 13682 C 1298.68 1.68178 -1.63565 0
M  V30 13683 C 1299.7 1.661 -0.518351 0
M  V30 13684 O 1300.87 1.85384 -0.787061 0
M  V30 13685 C 1297.94 3.04673 -1.65454 0
M  V30 13686 C 1297 3.17749 -2.88677 0
M  V30 13687 C 1296.23 4.47733 -2.90466 0
M  V30 13688 O 1296.46 5.33736 -2.01201 0
M  V30 13689 O 1295.39 4.64789 -3.82433 0
M  V30 13690 H 1299.22 1.57781 -2.59497 0
M  V30 13691 H 1296.8 0.719277 -1.30946 0
M  V30 13692 H 1298.68 3.85885 -1.69324 0
M  V30 13693 H 1297.36 3.15433 -0.726912 0
M  V30 13694 H 1296.26 2.359 -2.90348 0
M  V30 13695 H 1297.6 3.11897 -3.80763 0
M  V30 13696 N 1299.25 1.36039 0.795694 0
M  V30 13697 C 1300.67 1.16315 1.09284 0
M  V30 13698 C 1300.87 -0.017024 2.01493 0
M  V30 13699 O 1299.92 -0.684316 2.4305 0
M  V30 13700 C 1301.23 2.47113 1.71335 0
M  V30 13701 C 1302.78 2.5342 1.83705 0
M  V30 13702 C 1303.26 3.84289 2.49171 0
M  V30 13703 N 1304.75 3.856 2.56645 0
M  V30 13704 C 1305.48 4.83597 3.08094 0
M  V30 13705 N 1304.98 5.91985 3.59897 0
M  V30 13706 N 1306.77 4.71023 3.06748 0
M  V30 13707 H 1298.92 2.11611 0.182957 0
M  V30 13708 H 1301.19 0.937035 0.143771 0
M  V30 13709 H 1300.89 3.33708 1.11049 0
M  V30 13710 H 1300.77 2.62461 2.70914 0
M  V30 13711 H 1303.15 1.67247 2.43131 0
M  V30 13712 H 1303.23 2.41977 0.829495 0
M  V30 13713 H 1302.88 4.70865 1.90391 0
M  V30 13714 H 1302.81 3.93025 3.50484 0
M  V30 13715 H 1305.3 3.07291 2.19956 0
M  V30 13716 H 1305.61 6.6274 3.97487 0
M  V30 13717 H 1303.96 5.95662 3.58066 0
M  V30 13718 H 1307.15 3.8548 2.65561 0
M  V30 13719 H 1307.32 5.47555 3.46536 0
M  V30 13720 N 1300.73 -1.01913 1.20215 0
M  V30 13721 C 1301.98 -1.74878 1.00502 0
M  V30 13722 C 1302.29 -1.90022 -0.463792 0
M  V30 13723 O 1303.5 -2.60055 -0.779982 0
M  V30 13724 C 1301.95 -3.1452 1.74943 0
M  V30 13725 C 1301.56 -3.07397 3.259 0
M  V30 13726 C 1303.3 -3.91713 1.63589 0
M  V30 13727 C 1301.21 -4.42032 3.92889 0
M  V30 13728 H 1300.14 -0.655603 0.372426 0
M  V30 13729 H 1302.79 -1.13978 1.4381 0
M  V30 13730 H 1301.17 -3.75946 1.24421 0
M  V30 13731 H 1302.35 -2.55294 3.83617 0
M  V30 13732 H 1300.66 -2.43698 3.37639 0
M  V30 13733 H 1303.26 -4.91316 2.1098 0
M  V30 13734 H 1303.6 -4.12074 0.591665 0
M  V30 13735 H 1304.14 -3.3691 2.11511 0
M  V30 13736 H 1300.88 -4.26874 4.97453 0
M  V30 13737 H 1300.4 -4.94151 3.39962 0
M  V30 13738 H 1302.07 -5.10884 3.96997 0
M  V30 13739 N 1302.21 -1.00763 -1.2118 0
M  V30 13740 C 1303.62 -0.720905 -1.42391 0
M  V30 13741 C 1303.82 0.702918 -1.88842 0
M  V30 13742 O 1302.88 1.47191 -2.05161 0
M  V30 13743 C 1304.19 -1.739 -2.45315 0
M  V30 13744 C 1305.74 -1.75611 -2.59094 0
M  V30 13745 C 1306.21 -2.76323 -3.65253 0
M  V30 13746 N 1307.71 -2.75007 -3.72727 0
M  V30 13747 C 1308.44 -3.49594 -4.54502 0
M  V30 13748 N 1307.94 -4.33828 -5.40153 0
M  V30 13749 N 1309.73 -3.38232 -4.4895 0
M  V30 13750 H 1301.88 -1.92697 -0.893404 0
M  V30 13751 H 1304.14 -0.831888 -0.454606 0
M  V30 13752 H 1303.85 -2.75859 -2.18162 0
M  V30 13753 H 1303.72 -1.5438 -3.44161 0
M  V30 13754 H 1306.11 -0.743416 -2.85582 0
M  V30 13755 H 1306.19 -1.99203 -1.60474 0
M  V30 13756 H 1305.84 -3.77751 -3.39509 0
M  V30 13757 H 1305.77 -2.49996 -4.63476 0
M  V30 13758 H 1308.26 -2.13897 -3.11539 0
M  V30 13759 H 1308.57 -4.8753 -5.99612 0
M  V30 13760 H 1306.91 -4.3791 -5.39685 0
M  V30 13761 H 1310.11 -2.71855 -3.81068 0
M  V30 13762 H 1310.28 -3.96615 -5.12445 0
M  V30 13763 N 1303.68 1.3679 -0.7827 0
M  V30 13764 C 1304.59 2.33928 -0.17747 0
M  V30 13765 C 1305.61 1.60716 0.666802 0
M  V30 13766 O 1306.79 1.92742 0.584162 0
M  V30 13767 C 1303.85 3.39907 0.68294 0
M  V30 13768 C 1302.91 4.28926 -0.179053 0
M  V30 13769 C 1302.15 5.29844 0.640386 0
M  V30 13770 O 1302.37 5.38639 1.87681 0
M  V30 13771 O 1301.3 6.01884 0.0438164 0
M  V30 13772 H 1305.13 2.87439 -0.980441 0
M  V30 13773 H 1302.71 1.39142 -0.54404 0
M  V30 13774 H 1304.6 4.04722 1.17379 0
M  V30 13775 H 1303.27 2.88706 1.46391 0
M  V30 13776 H 1302.18 3.67174 -0.716512 0
M  V30 13777 H 1303.51 4.83461 -0.923377 0
M  V30 13778 N 1305.16 0.53415 1.48272 0
M  V30 13779 C 1306.11 -0.226335 2.29688 0
M  V30 13780 C 1307.08 -0.929937 1.37628 0
M  V30 13781 O 1308.26 -0.930149 1.66592 0
M  V30 13782 C 1305.4 -1.26472 3.2109 0
M  V30 13783 C 1304.52 -0.569542 4.28229 0
M  V30 13784 C 1303.65 -1.59122 5.06807 0
M  V30 13785 C 1302.69 -0.879734 6.05745 0
M  V30 13786 N 1301.83 -1.84715 6.77366 0
M  V30 13787 H 1306.67 0.474111 2.94204 0
M  V30 13788 H 1304.21 0.245643 1.45034 0
M  V30 13789 H 1306.16 -1.87911 3.72485 0
M  V30 13790 H 1304.79 -1.9335 2.58487 0
M  V30 13791 H 1303.85 0.158872 3.80068 0
M  V30 13792 H 1305.16 -0.0110904 4.98799 0
M  V30 13793 H 1304.31 -2.27977 5.62238 0
M  V30 13794 H 1303.05 -2.18357 4.36086 0
M  V30 13795 H 1302.06 -0.177134 5.49515 0
M  V30 13796 H 1303.28 -0.293439 6.78466 0
M  V30 13797 H 1301.23 -2.42851 6.09393 0
M  V30 13798 H 1301.14 -1.34025 7.44025 0
M  V30 13799 H 1302.41 -2.52756 7.37384 0
M  V30 13800 N 1306.64 -1.55279 0.269478 0
M  V30 13801 C 1307.57 -2.25278 -0.614188 0
M  V30 13802 C 1308.55 -1.24092 -1.1634 0
M  V30 13803 O 1309.74 -1.52799 -1.19858 0
M  V30 13804 C 1306.87 -2.96956 -1.80096 0
M  V30 13805 C 1305.82 -4.05021 -1.38353 0
M  V30 13806 C 1305.15 -4.64244 -2.65295 0
M  V30 13807 C 1306.45 -5.19523 -0.537886 0
M  V30 13808 H 1308.14 -2.99385 -0.0304397 0
M  V30 13809 H 1305.69 -1.43994 -0.0132004 0
M  V30 13810 H 1307.64 -3.44633 -2.42499 0
M  V30 13811 H 1306.36 -2.20374 -2.41045 0
M  V30 13812 H 1305.02 -3.58146 -0.78273 0
M  V30 13813 H 1304.67 -3.84337 -3.2449 0
M  V30 13814 H 1304.37 -5.37208 -2.38079 0
M  V30 13815 H 1305.89 -5.14668 -3.28557 0
M  V30 13816 H 1307.31 -5.63287 -1.06677 0
M  V30 13817 H 1305.71 -5.99014 -0.360845 0
M  V30 13818 H 1306.78 -4.82857 0.444672 0
M  V30 13819 N 1308.12 0.00332656 -1.576 0
M  V30 13820 C 1309.08 0.980628 -2.07163 0
M  V30 13821 C 1310.08 1.27455 -0.980402 0
M  V30 13822 O 1311.27 1.22029 -1.24317 0
M  V30 13823 C 1308.4 2.30647 -2.51028 0
M  V30 13824 H 1309.6 0.551982 -2.94776 0
M  V30 13825 H 1307.15 0.250728 -1.54276 0
M  V30 13826 H 1307.88 2.78207 -1.66647 0
M  V30 13827 H 1307.67 2.10635 -3.30719 0
M  V30 13828 H 1309.16 3.00761 -2.89711 0
M  V30 13829 N 1309.6 1.55164 0.276031 0
M  V30 13830 C 1310.51 1.90928 1.36321 0
M  V30 13831 C 1311.52 0.806183 1.54197 0
M  V30 13832 O 1312.7 1.10497 1.68382 0
M  V30 13833 C 1309.76 2.17123 2.70293 0
M  V30 13834 C 1308.82 3.40703 2.6119 0
M  V30 13835 C 1308.06 3.65638 3.88773 0
M  V30 13836 O 1308.28 2.93137 4.89313 0
M  V30 13837 O 1307.21 4.59172 3.89159 0
M  V30 13838 H 1311.04 2.8347 1.08988 0
M  V30 13839 H 1308.63 1.41672 0.474292 0
M  V30 13840 H 1310.51 2.3541 3.49514 0
M  V30 13841 H 1309.18 1.27765 2.97419 0
M  V30 13842 H 1308.09 3.27754 1.80355 0
M  V30 13843 H 1309.42 4.30271 2.39014 0
M  V30 13844 N 1311.07 -0.540404 1.48045 0
M  V30 13845 C 1312.02 -1.66695 1.62221 0
M  V30 13846 C 1313.02 -1.6219 0.488943 0
M  V30 13847 O 1314.22 -1.67173 0.66732 0
M  V30 13848 H 1310.6 -0.551868 0.510828 0
M  V30 13849 H 1312.57 -1.51879 2.56856 0
M  V30 13850 C 1311.32 -3.05002 1.6694 0
M  V30 13851 H 1310.64 -3.09157 2.53499 0
M  V30 13852 H 1312.08 -3.8347 1.80904 0
M  V30 13853 C 1310.54 -3.34445 0.40598 0
M  V30 13854 O 1311.07 -3.98753 -0.485676 0
M  V30 13855 N 1309.28 -2.8924 0.280857 0
M  V30 13856 H 1308.82 -2.37085 1.00741 0
M  V30 13857 H 1308.78 -3.09309 -0.563493 0
M  V30 13858 N 1312.55 -1.36459 -0.788468 0
M  V30 13859 C 1313.8 -1.3007 -1.54158 0
M  V30 13860 C 1314.11 0.117574 -1.95246 0
M  V30 13861 O 1315.32 0.303837 -2.69795 0
M  V30 13862 C 1313.78 -2.28216 -2.78291 0
M  V30 13863 C 1313.38 -3.75484 -2.44368 0
M  V30 13864 C 1315.13 -2.30806 -3.56271 0
M  V30 13865 C 1313.04 -4.65404 -3.64902 0
M  V30 13866 H 1311.97 -0.483345 -0.5787 0
M  V30 13867 H 1314.62 -1.61827 -0.865123 0
M  V30 13868 H 1313 -1.89454 -3.4774 0
M  V30 13869 H 1314.17 -4.22986 -1.82809 0
M  V30 13870 H 1312.49 -3.75678 -1.79597 0
M  V30 13871 H 1315.08 -2.95196 -4.45829 0
M  V30 13872 H 1315.43 -1.31687 -3.94923 0
M  V30 13873 H 1315.96 -2.68189 -2.93802 0
M  V30 13874 H 1312.7 -5.65589 -3.31344 0
M  V30 13875 H 1312.22 -4.22617 -4.25623 0
M  V30 13876 H 1313.9 -4.81721 -4.31919 0
M  V30 13877 N 1314.03 1.01274 -1.20754 0
M  V30 13878 C 1314.98 2.08285 -0.927426 0
M  V30 13879 C 1315.96 1.60494 0.114286 0
M  V30 13880 O 1317.16 1.76752 -0.0936086 0
M  V30 13881 C 1314.29 3.39849 -0.485546 0
M  V30 13882 C 1313.37 3.94331 -1.5609 0
M  V30 13883 N 1313.76 4.22274 -2.78421 0
M  V30 13884 C 1312.06 4.22522 -1.42797 0
M  V30 13885 C 1312.76 4.66262 -3.47813 0
M  V30 13886 N 1311.74 4.68771 -2.75235 0
M  V30 13887 H 1315.54 2.27804 -1.85695 0
M  V30 13888 H 1313.05 1.19278 -1.10211 0
M  V30 13889 H 1315.05 4.16049 -0.266263 0
M  V30 13890 H 1313.71 3.21742 0.437301 0
M  V30 13891 H 1314.72 4.11063 -3.15036 0
M  V30 13892 H 1311.4 4.13593 -0.569819 0
M  V30 13893 H 1312.79 4.9667 -4.52513 0
M  V30 13894 N 1315.51 1.01404 1.20644 0
M  V30 13895 C 1316.42 0.591693 2.27016 0
M  V30 13896 C 1317.44 -0.36958 1.7003 0
M  V30 13897 O 1318.61 -0.231165 2.00069 0
M  V30 13898 C 1315.68 -0.0659827 3.46637 0
M  V30 13899 C 1314.74 0.940911 4.18862 0
M  V30 13900 C 1313.97 0.314526 5.32772 0
M  V30 13901 O 1314.19 -0.886404 5.63471 0
M  V30 13902 O 1313.13 1.02998 5.93022 0
M  V30 13903 H 1316.95 1.4772 2.65353 0
M  V30 13904 H 1314.54 0.783399 1.27213 0
M  V30 13905 H 1316.42 -0.433412 4.19165 0
M  V30 13906 H 1315.1 -0.925729 3.10181 0
M  V30 13907 H 1314 1.35966 3.48517 0
M  V30 13908 H 1315.34 1.77054 4.59252 0
M  V30 13909 N 1316.99 -1.36373 0.789944 0
M  V30 13910 C 1317.92 -2.32616 0.202944 0
M  V30 13911 C 1318.9 -1.56674 -0.662364 0
M  V30 13912 O 1320.08 -1.84826 -0.596078 0
M  V30 13913 C 1317.21 -3.4092 -0.662646 0
M  V30 13914 C 1316.17 -4.27877 0.102811 0
M  V30 13915 C 1315.49 -5.27352 -0.883407 0
M  V30 13916 C 1316.79 -5.0606 1.29231 0
M  V30 13917 H 1318.49 -2.81958 1.00699 0
M  V30 13918 H 1316.03 -1.35562 0.48568 0
M  V30 13919 H 1317.99 -4.07239 -1.08324 0
M  V30 13920 H 1316.71 -2.90147 -1.4994 0
M  V30 13921 H 1315.37 -3.63114 0.504389 0
M  V30 13922 H 1315.02 -4.72853 -1.71521 0
M  V30 13923 H 1314.72 -5.86398 -0.375669 0
M  V30 13924 H 1316.24 -5.96545 -1.30256 0
M  V30 13925 H 1317.66 -5.65417 0.947446 0
M  V30 13926 H 1316.05 -5.74521 1.73338 0
M  V30 13927 H 1317.12 -4.37671 2.08739 0
M  V30 13928 N 1318.47 -0.542005 -1.47987 0
M  V30 13929 C 1319.71 -0.0205021 -2.0339 0
M  V30 13930 C 1320.07 1.30854 -1.41049 0
M  V30 13931 O 1319.36 1.83496 -0.551328 0
M  V30 13932 C 1319.55 0.146208 -3.57101 0
M  V30 13933 C 1319.38 -1.16513 -4.34344 0
M  V30 13934 C 1318.15 -1.72829 -4.74824 0
M  V30 13935 C 1320.35 -2.07869 -4.7042 0
M  V30 13936 N 1318.33 -2.98126 -5.36651 0
M  V30 13937 C 1319.7 -3.17743 -5.3239 0
M  V30 13938 C 1321.76 -2.08049 -4.5235 0
M  V30 13939 C 1320.46 -4.27876 -5.78199 0
M  V30 13940 C 1322.49 -3.17184 -4.99147 0
M  V30 13941 C 1321.85 -4.25777 -5.61153 0
M  V30 13942 H 1317.95 -0.0492957 -0.780445 0
M  V30 13943 H 1320.53 -0.725941 -1.8066 0
M  V30 13944 H 1318.7 0.820747 -3.79629 0
M  V30 13945 H 1320.44 0.668402 -3.99142 0
M  V30 13946 H 1317.19 -1.26817 -4.56305 0
M  V30 13947 H 1317.61 -3.6195 -5.7212 0
M  V30 13948 H 1322.26 -1.25382 -4.03781 0
M  V30 13949 H 1319.97 -5.11313 -6.25767 0
M  V30 13950 H 1323.56 -3.18392 -4.86947 0
M  V30 13951 H 1322.44 -5.08833 -5.96707 0
M  V30 13952 N 1319.94 1.55134 -0.277709 0
M  V30 13953 C 1321.19 1.99949 0.338831 0
M  V30 13954 C 1321.52 1.16587 1.5531 0
M  V30 13955 O 1320.8 0.236572 1.93056 0
M  V30 13956 C 1321.08 3.5286 0.718457 0
M  V30 13957 C 1320.93 4.46975 -0.503332 0
M  V30 13958 C 1322.25 4.11754 1.55392 0
M  V30 13959 H 1319.37 0.726885 0.121682 0
M  V30 13960 H 1322.01 1.86055 -0.385171 0
M  V30 13961 H 1320.16 3.64831 1.33531 0
M  V30 13962 H 1321.84 4.46944 -1.14188 0
M  V30 13963 H 1320.08 4.18528 -1.14092 0
M  V30 13964 H 1320.75 5.51659 -0.193912 0
M  V30 13965 H 1323.23 4.03075 1.03293 0
M  V30 13966 H 1322.1 5.1895 1.78835 0
M  V30 13967 H 1322.36 3.62147 2.53578 0
M  V30 13968 N 1321.42 0.00503138 1.57599 0
M  V30 13969 C 1322.35 -1.01883 2.04194 0
M  V30 13970 C 1323.33 -1.33183 0.9328 0
M  V30 13971 O 1324.52 -1.45261 1.20131 0
M  V30 13972 C 1321.64 -2.34515 2.44377 0
M  V30 13973 C 1320.69 -2.18843 3.66074 0
M  V30 13974 S 1321.52 -1.50975 5.13777 0
M  V30 13975 C 1322.68 -2.85027 5.57235 0
M  V30 13976 H 1322.91 -0.622099 2.90718 0
M  V30 13977 H 1320.44 -0.205983 1.5302 0
M  V30 13978 H 1322.4 -3.10775 2.68196 0
M  V30 13979 H 1321.06 -2.71327 1.58243 0
M  V30 13980 H 1320.26 -3.16836 3.91958 0
M  V30 13981 H 1319.86 -1.50727 3.42283 0
M  V30 13982 H 1322.15 -3.81318 5.60002 0
M  V30 13983 H 1323.09 -2.63837 6.57112 0
M  V30 13984 H 1323.5 -2.89168 4.84812 0
M  V30 13985 N 1322.9 -1.55308 -0.267798 0
M  V30 13986 C 1323.85 -1.89342 -1.35102 0
M  V30 13987 C 1324.84 -0.770277 -1.50874 0
M  V30 13988 O 1326.05 -0.954679 -1.52597 0
M  V30 13989 H 1322.42 -0.601036 -0.451952 0
M  V30 13990 H 1324.39 -2.7982 -1.03651 0
M  V30 13991 C 1323.14 -2.18644 -2.70352 0
M  V30 13992 H 1322.47 -3.04557 -2.59008 0
M  V30 13993 H 1323.91 -2.46374 -3.45073 0
M  V30 13994 C 1322.36 -0.995753 -3.21848 0
M  V30 13995 O 1322.89 -0.233037 -4.01023 0
M  V30 13996 N 1321.1 -0.792038 -2.79598 0
M  V30 13997 H 1320.65 -1.41396 -2.15325 0
M  V30 13998 H 1320.61 0.00300201 -3.144 0
M  V30 13999 N 1324.38 0.532545 -1.4833 0
M  V30 14000 C 1325.32 1.63737 -1.62661 0
M  V30 14001 C 1326.29 1.59348 -0.468758 0
M  V30 14002 O 1327.48 1.77812 -0.691921 0
M  V30 14003 C 1324.62 3.02006 -1.66993 0
M  V30 14004 C 1323.73 3.16648 -2.93867 0
M  V30 14005 C 1322.87 4.4546 -2.89376 0
M  V30 14006 C 1321.91 4.53622 -4.10966 0
M  V30 14007 N 1321.04 5.7382 -4.04567 0
M  V30 14008 H 1325.88 1.50828 -2.57012 0
M  V30 14009 H 1323.42 0.734348 -1.27459 0
M  V30 14010 H 1325.38 3.82105 -1.67486 0
M  V30 14011 H 1324.01 3.13693 -0.76135 0
M  V30 14012 H 1323.06 2.29817 -3.0313 0
M  V30 14013 H 1324.37 3.1854 -3.8384 0
M  V30 14014 H 1323.53 5.33848 -2.88256 0
M  V30 14015 H 1322.27 4.46085 -1.97127 0
M  V30 14016 H 1321.27 3.63642 -4.12364 0
M  V30 14017 H 1322.5 4.54738 -5.04371 0
M  V30 14018 H 1320.44 5.75347 -3.15137 0
M  V30 14019 H 1320.36 5.77196 -4.88243 0
M  V30 14020 H 1321.63 6.64502 -4.07502 0
M  V30 14021 N 1325.86 1.36875 0.78122 0
M  V30 14022 C 1327.1 1.30886 1.53466 0
M  V30 14023 C 1327.42 -0.107218 1.95306 0
M  V30 14024 O 1328.62 -0.289525 2.69952 0
M  V30 14025 C 1327.08 2.29688 2.77076 0
M  V30 14026 C 1326.69 3.76775 2.42373 0
M  V30 14027 C 1328.43 2.32692 3.55042 0
M  V30 14028 C 1326.34 4.67332 3.62428 0
M  V30 14029 H 1325.27 0.486408 0.576128 0
M  V30 14030 H 1327.92 1.62283 0.856529 0
M  V30 14031 H 1326.3 1.91296 3.4673 0
M  V30 14032 H 1327.48 4.2395 1.80563 0
M  V30 14033 H 1325.79 3.76625 1.77602 0
M  V30 14034 H 1328.39 2.97556 4.44257 0
M  V30 14035 H 1328.73 1.33779 3.94219 0
M  V30 14036 H 1329.26 2.69743 2.92375 0
M  V30 14037 H 1326 5.67339 3.2834 0
M  V30 14038 H 1325.52 4.24868 4.23376 0
M  V30 14039 H 1327.2 4.84005 4.29358 0
M  V30 14040 N 1327.33 -1.00632 1.21289 0
M  V30 14041 C 1328.24 -2.12829 0.986957 0
M  V30 14042 C 1329.26 -1.73895 -0.0605152 0
M  V30 14043 O 1330.44 -2.00985 0.129238 0
M  V30 14044 C 1327.5 -3.4226 0.553089 0
M  V30 14045 C 1326.56 -3.95376 1.67262 0
M  V30 14046 C 1325.79 -5.18629 1.25936 0
M  V30 14047 O 1326.02 -5.70246 0.132402 0
M  V30 14048 O 1324.95 -5.65157 2.07077 0
M  V30 14049 H 1328.78 -2.34765 1.92663 0
M  V30 14050 H 1326.36 -1.11208 0.997654 0
M  V30 14051 H 1328.24 -4.20177 0.320856 0
M  V30 14052 H 1326.92 -3.21716 -0.357881 0
M  V30 14053 H 1325.83 -3.18692 1.95924 0
M  V30 14054 H 1327.16 -4.20328 2.56097 0
M  V30 14055 N 1328.81 -1.02043 -1.20104 0
M  V30 14056 C 1329.74 -0.614421 -2.25271 0
M  V30 14057 C 1330.72 0.37242 -1.65973 0
M  V30 14058 O 1331.91 0.257005 -1.92492 0
M  V30 14059 C 1329.04 0.0442085 -3.47272 0
M  V30 14060 C 1327.99 -0.864019 -4.19188 0
M  V30 14061 C 1327.32 -0.0709551 -5.34653 0
M  V30 14062 C 1328.62 -2.17385 -4.74912 0
M  V30 14063 H 1330.31 -1.49355 -2.59487 0
M  V30 14064 H 1327.86 -0.719591 -1.24731 0
M  V30 14065 H 1329.81 0.339825 -4.20028 0
M  V30 14066 H 1328.53 0.958082 -3.12231 0
M  V30 14067 H 1327.19 -1.1437 -3.48303 0
M  V30 14068 H 1326.84 0.844688 -4.95857 0
M  V30 14069 H 1326.54 -0.67583 -5.83701 0
M  V30 14070 H 1328.07 0.218118 -6.1021 0
M  V30 14071 H 1329.48 -1.94034 -5.39466 0
M  V30 14072 H 1327.88 -2.72991 -5.34412 0
M  V30 14073 H 1328.95 -2.83427 -3.93443 0
M  V30 14074 N 1330.29 1.35952 -0.797165 0
M  V30 14075 C 1331.54 1.98639 -0.372405 0
M  V30 14076 C 1331.86 1.63571 1.06158 0
M  V30 14077 O 1331.13 0.913516 1.73297 0
M  V30 14078 H 1329.71 0.734753 -0.13471 0
M  V30 14079 H 1332.37 1.66022 -1.02092 0
M  V30 14080 H 1331.47 3.08533 -0.47049 0
M  V30 14081 N 1331.77 0.549846 1.47697 0
M  V30 14082 C 1333.01 0.031288 2.03376 0
M  V30 14083 C 1333.37 -1.30104 1.41741 0
M  V30 14084 O 1332.66 -1.83201 0.561052 0
M  V30 14085 C 1332.86 -0.127268 3.57173 0
M  V30 14086 C 1332.69 1.18815 4.3372 0
M  V30 14087 C 1331.46 1.75345 4.73901 0
M  V30 14088 C 1333.65 2.10361 4.69311 0
M  V30 14089 N 1331.64 3.00968 5.35062 0
M  V30 14090 C 1333.01 3.20562 5.30698 0
M  V30 14091 C 1335.06 2.10445 4.5124 0
M  V30 14092 C 1333.76 4.30936 5.75922 0
M  V30 14093 C 1335.79 3.19827 4.97458 0
M  V30 14094 C 1335.15 4.28747 5.58888 0
M  V30 14095 H 1331.25 0.0534339 0.780172 0
M  V30 14096 H 1333.84 0.735512 1.80273 0
M  V30 14097 H 1332.01 -0.800603 3.80059 0
M  V30 14098 H 1333.74 -0.647225 3.99491 0
M  V30 14099 H 1330.49 1.29235 4.55626 0
M  V30 14100 H 1330.92 3.64979 5.70192 0
M  V30 14101 H 1335.56 1.27522 4.0311 0
M  V30 14102 H 1333.28 5.14624 6.23047 0
M  V30 14103 H 1336.86 3.2097 4.85252 0
M  V30 14104 H 1335.74 5.1199 5.94 0
M  V30 14105 N 1333.25 -1.54984 0.285932 0
M  V30 14106 C 1334.18 -2.20365 -0.630236 0
M  V30 14107 C 1335.19 -1.19168 -1.10918 0
M  V30 14108 O 1336.38 -1.45839 -1.02923 0
M  V30 14109 C 1333.48 -2.8244 -1.87299 0
M  V30 14110 C 1332.65 -4.09429 -1.53905 0
M  V30 14111 C 1331.71 -4.55449 -2.63538 0
M  V30 14112 O 1330.74 -5.20985 -2.29267 0
M  V30 14113 N 1331.94 -4.26498 -3.93802 0
M  V30 14114 H 1334.71 -2.99617 -0.0706044 0
M  V30 14115 H 1332.27 -1.61543 0.107486 0
M  V30 14116 H 1334.26 -3.10167 -2.59959 0
M  V30 14117 H 1332.83 -2.07117 -2.34139 0
M  V30 14118 H 1332.05 -3.88875 -0.645774 0
M  V30 14119 H 1333.34 -4.92146 -1.29111 0
M  V30 14120 H 1332.73 -3.73964 -4.24461 0
M  V30 14121 H 1331.29 -4.5897 -4.62807 0
M  V30 14122 N 1334.72 -0.0133892 -1.57594 0
M  V30 14123 C 1335.95 0.67827 -1.95149 0
M  V30 14124 C 1336.36 1.67089 -0.887572 0
M  V30 14125 O 1335.71 1.8316 0.140774 0
M  V30 14126 C 1335.77 1.45441 -3.28766 0
M  V30 14127 C 1335.43 0.621889 -4.52749 0
M  V30 14128 C 1336.43 -0.0961541 -5.19811 0
M  V30 14129 C 1334.11 0.563917 -4.99124 0
M  V30 14130 C 1336.11 -0.86101 -6.31558 0
M  V30 14131 C 1333.79 -0.204654 -6.10757 0
M  V30 14132 C 1334.79 -0.915839 -6.76832 0
M  V30 14133 O 1334.48 -1.67184 -7.86323 0
M  V30 14134 H 1334.21 0.192983 -0.647869 0
M  V30 14135 H 1336.77 -0.0646816 -2.05298 0
M  V30 14136 H 1335 2.24215 -3.15063 0
M  V30 14137 H 1336.69 2.03268 -3.51336 0
M  V30 14138 H 1337.45 -0.0606029 -4.84962 0
M  V30 14139 H 1333.33 1.10702 -4.47511 0
M  V30 14140 H 1336.87 -1.41664 -6.83064 0
M  V30 14141 H 1332.77 -0.241979 -6.45046 0
M  V30 14142 H 1333.54 -1.58996 -8.02909 0
M  V30 14143 N 1336.2 1.55448 0.259558 0
M  V30 14144 C 1337.45 1.76337 0.987396 0
M  V30 14145 C 1337.77 0.57505 1.86328 0
M  V30 14146 O 1337.04 -0.409621 1.9157 0
M  V30 14147 H 1335.62 0.650312 0.367565 0
M  V30 14148 H 1338.28 1.9287 0.280551 0
M  V30 14149 H 1337.38 2.66975 1.61651 0
M  V30 14150 N 1337.68 -0.524672 1.4861 0
M  V30 14151 C 1339.09 -1.10655 1.50374 0
M  V30 14152 C 1339.44 -1.94242 0.276512 0
M  V30 14153 O 1338.57 -2.07451 -0.615887 0
M  V30 14154 C 1339.16 -2.01348 2.72478 0
M  V30 14155 C 1337.72 -2.54743 2.77097 0
M  V30 14156 C 1336.87 -1.31822 2.43964 0
M  V30 14157 H 1339.82 -0.309674 1.55649 0
M  V30 14158 H 1339.84 -2.85709 2.51297 0
M  V30 14159 H 1339.35 -1.40485 3.61781 0
M  V30 14160 H 1337.45 -3.19313 1.92016 0
M  V30 14161 H 1337.57 -2.93514 3.78664 0
M  V30 14162 H 1335.93 -1.63574 1.95233 0
M  V30 14163 H 1336.71 -0.727026 3.35513 0
M  V30 14164 N 1339.16 -1.37287 -0.77395 0
M  V30 14165 C 1340.4 -1.3257 -1.5347 0
M  V30 14166 C 1340.74 0.090346 -1.9399 0
M  V30 14167 O 1340.01 1.04719 -1.63903 0
M  V30 14168 C 1340.3 -2.26277 -2.80126 0
M  V30 14169 C 1340.15 -3.76651 -2.45874 0
M  V30 14170 C 1341.47 -2.18471 -3.82045 0
M  V30 14171 H 1338.59 -0.48289 -0.556764 0
M  V30 14172 H 1341.23 -1.6797 -0.888039 0
M  V30 14173 H 1339.38 -1.96219 -3.35306 0
M  V30 14174 H 1341.05 -4.17296 -1.96626 0
M  V30 14175 H 1339.29 -3.95327 -1.78602 0
M  V30 14176 H 1339.96 -4.3765 -3.36403 0
M  V30 14177 H 1342.44 -2.44962 -3.36352 0
M  V30 14178 H 1341.32 -2.86183 -4.68392 0
M  V30 14179 H 1341.58 -1.17692 -4.26147 0
M  V30 14180 N 1340.64 0.999871 -1.21821 0
M  V30 14181 C 1342.05 1.26228 -0.976664 0
M  V30 14182 C 1342.25 1.98714 0.333915 0
M  V30 14183 O 1341.31 2.29252 1.05829 0
M  V30 14184 C 1342.62 2.08089 -2.1707 0
M  V30 14185 C 1344.17 2.21298 -2.21351 0
M  V30 14186 C 1344.64 3.06544 -3.40287 0
M  V30 14187 N 1346.14 3.14131 -3.40405 0
M  V30 14188 C 1346.87 3.80362 -4.29083 0
M  V30 14189 N 1346.37 4.48577 -5.27968 0
M  V30 14190 N 1348.16 3.77053 -4.16878 0
M  V30 14191 H 1340.31 0.513704 -2.06094 0
M  V30 14192 H 1342.57 0.289447 -0.902732 0
M  V30 14193 H 1342.28 1.62183 -3.12073 0
M  V30 14194 H 1342.15 3.08843 -2.16554 0
M  V30 14195 H 1344.54 2.66422 -1.269 0
M  V30 14196 H 1344.62 1.19997 -2.25908 0
M  V30 14197 H 1344.27 2.62122 -4.35034 0
M  V30 14198 H 1344.2 4.0797 -3.32969 0
M  V30 14199 H 1346.69 2.65576 -2.68846 0
M  V30 14200 H 1347 4.96833 -5.91926 0
M  V30 14201 H 1345.34 4.47348 -5.31888 0
M  V30 14202 H 1348.54 3.22918 -3.38883 0
M  V30 14203 H 1348.71 4.2839 -4.86195 0
M  V30 14204 N 1342.11 1.02678 1.19562 0
M  V30 14205 C 1343.39 0.63674 1.84946 0
M  V30 14206 C 1343.77 -0.884667 1.91669 0
M  V30 14207 O 1343.12 -1.78053 1.43211 0
M  V30 14208 C 1343.33 1.29637 3.2403 0
M  V30 14209 C 1344.68 1.41828 4.00212 0
M  V30 14210 O 1345.7 1.25338 3.3342 0
M  V30 14211 O 1344.56 1.68573 5.19851 0
M  V30 14212 H 1341.65 0.221044 0.796912 0
M  V30 14213 H 1344.2 1.1248 1.27068 0
M  V30 14214 H 1342.97 2.33549 3.1396 0
M  V30 14215 H 1342.6 0.796041 3.8955 0
M  V30 14216 N 1343.59 -1.35528 0.804364 0
M  V30 14217 C 1344.87 -1.93175 0.307049 0
M  V30 14218 C 1345.25 -1.73466 -1.20303 0
M  V30 14219 O 1344.6 -1.10235 -2.00151 0
M  V30 14220 C 1344.81 -3.41576 0.716018 0
M  V30 14221 C 1346.16 -4.18719 0.704242 0
M  V30 14222 O 1347.18 -3.50081 0.657423 0
M  V30 14223 O 1346.04 -5.41181 0.760601 0
M  V30 14224 H 1343.13 -0.823142 0.0797888 0
M  V30 14225 H 1345.68 -1.44617 0.887912 0
M  V30 14226 H 1344.45 -3.49642 1.75688 0
M  V30 14227 H 1344.07 -3.97448 0.109843 0
M  V30 14228 N 1345.07 -0.557671 -1.47404 0
M  V30 14229 C 1346.02 0.202834 -2.31714 0
M  V30 14230 C 1347.01 0.908873 -1.42954 0
M  V30 14231 O 1348.22 0.830106 -1.59716 0
M  V30 14232 H 1344.59 0.0842824 -0.747262 0
M  V30 14233 H 1346.57 -0.527431 -2.93702 0
M  V30 14234 C 1345.31 1.21937 -3.25617 0
M  V30 14235 H 1344.64 0.685506 -3.93879 0
M  V30 14236 H 1346.08 1.72237 -3.87441 0
M  V30 14237 C 1344.54 2.26748 -2.49173 0
M  V30 14238 O 1345.07 3.33681 -2.23651 0
M  V30 14239 N 1343.27 2.00687 -2.10174 0
M  V30 14240 H 1342.82 1.13741 -2.3113 0
M  V30 14241 H 1342.78 2.71031 -1.59342 0
M  V30 14242 N 1346.55 1.54831 -0.294147 0
M  V30 14243 C 1347.5 2.23263 0.58499 0
M  V30 14244 C 1348.47 1.21278 1.13494 0
M  V30 14245 O 1349.65 1.49878 1.18073 0
M  V30 14246 C 1346.79 2.97185 1.75429 0
M  V30 14247 C 1345.9 4.1393 1.23638 0
M  V30 14248 C 1345.04 4.7545 2.36899 0
M  V30 14249 C 1344.08 5.84352 1.82207 0
M  V30 14250 N 1343.22 6.39855 2.89015 0
M  V30 14251 H 1348.06 2.98 -0.00519329 0
M  V30 14252 H 1345.59 1.47093 -0.0143313 0
M  V30 14253 H 1347.55 3.38271 2.4419 0
M  V30 14254 H 1346.18 2.24837 2.3162 0
M  V30 14255 H 1345.23 3.77832 0.441247 0
M  V30 14256 H 1346.54 4.92409 0.795946 0
M  V30 14257 H 1345.7 5.19353 3.1362 0
M  V30 14258 H 1344.44 3.96288 2.84266 0
M  V30 14259 H 1343.44 5.39879 1.03974 0
M  V30 14260 H 1344.67 6.65393 1.35753 0
M  V30 14261 H 1342.61 5.6358 3.35729 0
M  V30 14262 H 1342.53 7.13661 2.49447 0
M  V30 14263 H 1343.8 6.88417 3.65654 0
M  V30 14264 N 1348.03 0.0217466 1.57585 0
M  V30 14265 C 1349.44 -0.334576 1.56054 0
M  V30 14266 C 1349.64 -1.73386 1.02663 0
M  V30 14267 O 1348.7 -2.43447 0.670078 0
M  V30 14268 C 1350.01 -0.189919 3.001 0
M  V30 14269 C 1351.56 -0.263238 3.11891 0
M  V30 14270 C 1352.04 -0.147455 4.57763 0
M  V30 14271 N 1353.53 -0.204672 4.62748 0
M  V30 14272 C 1354.26 -0.138755 5.73232 0
M  V30 14273 N 1353.76 -0.0221762 6.92796 0
M  V30 14274 N 1355.55 -0.192206 5.61771 0
M  V30 14275 H 1347.7 0.936849 1.90622 0
M  V30 14276 H 1349.96 0.361119 0.876526 0
M  V30 14277 H 1349.67 0.773687 3.43084 0
M  V30 14278 H 1349.54 -0.963148 3.64696 0
M  V30 14279 H 1351.93 -1.2173 2.68823 0
M  V30 14280 H 1352.01 0.540241 2.5003 0
M  V30 14281 H 1351.66 0.803155 5.0151 0
M  V30 14282 H 1351.59 -0.969703 5.17595 0
M  V30 14283 H 1354.08 -0.29522 3.76745 0
M  V30 14284 H 1354.39 0.021631 7.72797 0
M  V30 14285 H 1352.74 0.0125033 6.94999 0
M  V30 14286 H 1355.93 -0.28163 4.67252 0
M  V30 14287 H 1356.1 -0.137372 6.47854 0
M  V30 14288 N 1349.51 -1.55583 -0.251311 0
M  V30 14289 C 1350.44 -1.86388 -1.33387 0
M  V30 14290 C 1351.45 -0.749829 -1.44504 0
M  V30 14291 O 1352.64 -1.0279 -1.45933 0
M  V30 14292 C 1349.74 -2.0311 -2.71293 0
M  V30 14293 C 1348.91 -3.33937 -2.82498 0
M  V30 14294 C 1347.97 -3.40455 -4.01219 0
M  V30 14295 O 1347 -4.13695 -3.90954 0
M  V30 14296 N 1348.2 -2.69427 -5.14188 0
M  V30 14297 H 1350.96 -2.79834 -1.07298 0
M  V30 14298 H 1348.53 -1.55766 -0.441418 0
M  V30 14299 H 1350.52 -2.04817 -3.49045 0
M  V30 14300 H 1349.09 -1.16429 -2.90109 0
M  V30 14301 H 1348.31 -3.44584 -1.91456 0
M  V30 14302 H 1349.6 -4.20176 -2.86931 0
M  V30 14303 H 1348.99 -2.09647 -5.25419 0
M  V30 14304 H 1347.55 -2.76832 -5.90091 0
M  V30 14305 N 1350.98 0.516783 -1.48886 0
M  V30 14306 C 1351.93 1.61653 -1.60786 0
M  V30 14307 C 1352.92 1.54056 -0.464271 0
M  V30 14308 O 1354.11 1.61853 -0.716412 0
M  V30 14309 C 1351.24 3.0033 -1.66304 0
M  V30 14310 C 1350.32 3.12982 -2.86187 0
M  V30 14311 N 1350.72 2.95568 -4.10455 0
M  V30 14312 C 1349.01 3.44059 -2.83795 0
M  V30 14313 C 1349.71 3.11986 -4.90958 0
M  V30 14314 N 1348.69 3.40156 -4.24022 0
M  V30 14315 H 1352.49 1.4682 -2.546 0
M  V30 14316 H 1350.01 0.722555 -1.4544 0
M  V30 14317 H 1352 3.79345 -1.72924 0
M  V30 14318 H 1350.66 3.16245 -0.736158 0
M  V30 14319 H 1351.67 2.72062 -4.40684 0
M  V30 14320 H 1348.35 3.66249 -2.0042 0
M  V30 14321 H 1349.74 3.03149 -5.99625 0
M  V30 14322 N 1352.46 1.37696 0.766659 0
M  V30 14323 C 1353.87 1.29668 1.34324 0
M  V30 14324 C 1354.22 -0.0534297 1.96127 0
M  V30 14325 O 1353.35 -0.95534 1.94171 0
M  V30 14326 C 1353.94 2.34818 2.44225 0
M  V30 14327 C 1352.5 2.3041 2.97638 0
M  V30 14328 C 1351.65 2.18378 1.70899 0
M  V30 14329 H 1354.6 1.48244 0.566526 0
M  V30 14330 H 1354.62 1.99778 3.23835 0
M  V30 14331 H 1354.13 3.3307 1.99214 0
M  V30 14332 H 1352.23 1.35698 3.47011 0
M  V30 14333 H 1352.35 3.24028 3.52906 0
M  V30 14334 H 1350.71 1.65008 1.94021 0
M  V30 14335 H 1351.49 3.18551 1.27985 0
M  V30 14336 N 1353.94 -0.993397 1.22349 0
M  V30 14337 C 1355.18 -1.74807 1.05933 0
M  V30 14338 C 1355.54 -1.87815 -0.398702 0
M  V30 14339 O 1356.74 -2.5996 -0.683703 0
M  V30 14340 C 1355.02 -3.11601 1.75042 0
M  V30 14341 S 1356.57 -4.02813 1.74032 0
M  V30 14342 H 1353.39 -0.601331 0.379371 0
M  V30 14343 H 1355.99 -1.18777 1.55282 0
M  V30 14344 H 1354.7 -2.99775 2.80291 0
M  V30 14345 H 1354.23 -3.72703 1.25922 0
M  V30 14346 H 1356.24 -4.89876 0.789658 0
M  V30 14347 N 1355.42 -1.03311 -1.19015 0
M  V30 14348 C 1356.35 -0.638279 -2.24607 0
M  V30 14349 C 1357.33 0.354795 -1.66359 0
M  V30 14350 O 1358.51 0.236574 -1.92754 0
M  V30 14351 C 1355.64 0.00737316 -3.47299 0
M  V30 14352 C 1354.6 -0.908431 -4.18248 0
M  V30 14353 C 1353.92 -0.127658 -5.34548 0
M  V30 14354 C 1355.22 -2.2241 -4.72579 0
M  V30 14355 H 1356.92 -1.52099 -2.57888 0
M  V30 14356 H 1354.46 -0.732779 -1.23961 0
M  V30 14357 H 1356.42 0.295256 -4.20364 0
M  V30 14358 H 1355.14 0.924912 -3.1323 0
M  V30 14359 H 1353.8 -1.18058 -3.47071 0
M  V30 14360 H 1353.45 0.792048 -4.96725 0
M  V30 14361 H 1353.15 -0.737702 -5.82951 0
M  V30 14362 H 1354.67 0.153385 -6.10407 0
M  V30 14363 H 1356.09 -1.99745 -5.37378 0
M  V30 14364 H 1354.48 -2.78644 -5.31486 0
M  V30 14365 H 1355.55 -2.87584 -3.90415 0
M  V30 14366 N 1356.9 1.35099 -0.81154 0
M  V30 14367 C 1358.14 1.9892 -0.394815 0
M  V30 14368 C 1358.47 1.6422 1.0366 0
M  V30 14369 O 1357.75 0.908031 1.72003 0
M  V30 14370 C 1358.03 3.55331 -0.58413 0
M  V30 14371 C 1357.89 3.99812 -2.06084 0
M  V30 14372 C 1359.2 4.40098 -0.0129096 0
M  V30 14373 H 1356.32 0.72261 -0.144926 0
M  V30 14374 H 1358.97 1.60173 -1.02199 0
M  V30 14375 H 1357.12 3.88468 -0.0502446 0
M  V30 14376 H 1358.79 3.77061 -2.65749 0
M  V30 14377 H 1357.03 3.50539 -2.55548 0
M  V30 14378 H 1357.7 5.08655 -2.14416 0
M  V30 14379 H 1360.18 4.13449 -0.468917 0
M  V30 14380 H 1359.05 5.4862 -0.175252 0
M  V30 14381 H 1359.31 4.28675 1.0812 0
M  V30 14382 N 1358.37 0.56548 1.47106 0
M  V30 14383 C 1359.28 -0.180488 2.33905 0
M  V30 14384 C 1360.3 -0.90355 1.48701 0
M  V30 14385 O 1361.48 -0.870595 1.81611 0
M  V30 14386 C 1358.54 -1.19212 3.2556 0
M  V30 14387 C 1357.6 -0.475589 4.26658 0
M  V30 14388 C 1356.83 -1.43902 5.13934 0
M  V30 14389 O 1357.06 -2.67443 5.03816 0
M  V30 14390 O 1355.99 -0.958998 5.94211 0
M  V30 14391 H 1359.82 0.531726 2.99009 0
M  V30 14392 H 1357.4 0.32602 1.45799 0
M  V30 14393 H 1359.28 -1.77586 3.82153 0
M  V30 14394 H 1357.96 -1.8861 2.63074 0
M  V30 14395 H 1356.87 0.149561 3.73801 0
M  V30 14396 H 1358.2 0.177103 4.91881 0
M  V30 14397 N 1359.85 -1.54672 0.302354 0
M  V30 14398 C 1361.1 -2.00167 -0.306524 0
M  V30 14399 C 1361.43 -1.19073 -1.53791 0
M  V30 14400 O 1360.68 -0.255328 -1.94027 0
M  V30 14401 C 1360.98 -3.5035 -0.70638 0
M  V30 14402 C 1360.65 -4.48907 0.423429 0
M  V30 14403 C 1359.31 -4.75575 0.733586 0
M  V30 14404 C 1361.66 -5.07588 1.18338 0
M  V30 14405 C 1358.99 -5.58186 1.80679 0
M  V30 14406 C 1361.34 -5.91367 2.24651 0
M  V30 14407 C 1360.01 -6.16345 2.56272 0
M  V30 14408 H 1359.28 -0.732462 -0.112165 0
M  V30 14409 H 1361.92 -1.86798 0.421732 0
M  V30 14410 H 1360.23 -3.61335 -1.51474 0
M  V30 14411 H 1361.92 -3.82977 -1.18869 0
M  V30 14412 H 1358.51 -4.28256 0.171591 0
M  V30 14413 H 1362.7 -4.86985 0.957018 0
M  V30 14414 H 1357.95 -5.75776 2.05649 0
M  V30 14415 H 1362.13 -6.35862 2.83994 0
M  V30 14416 H 1359.76 -6.80148 3.39563 0
M  V30 14417 N 1361.33 -0.0301034 -1.57571 0
M  V30 14418 C 1362.56 0.662045 -1.9655 0
M  V30 14419 C 1362.98 1.64811 -0.906581 0
M  V30 14420 O 1362.34 1.80816 0.132415 0
M  V30 14421 C 1362.39 1.34389 -3.34622 0
M  V30 14422 O 1361.49 2.45919 -3.31056 0
M  V30 14423 H 1360.83 0.173842 -0.640839 0
M  V30 14424 H 1363.36 -0.092248 -2.04392 0
M  V30 14425 H 1363.37 1.70045 -3.70875 0
M  V30 14426 H 1362.05 0.621092 -4.11236 0
M  V30 14427 H 1360.62 2.12367 -3.06521 0
M  V30 14428 N 1362.81 1.55714 0.243056 0
M  V30 14429 C 1363.76 1.90638 1.30099 0
M  V30 14430 C 1364.73 0.761049 1.47639 0
M  V30 14431 O 1365.91 1.01505 1.61559 0
M  V30 14432 C 1363.05 2.20985 2.65065 0
M  V30 14433 C 1362.16 3.48343 2.55501 0
M  V30 14434 C 1361.3 3.68241 3.82847 0
M  V30 14435 C 1360.34 4.89187 3.67916 0
M  V30 14436 N 1359.47 5.05586 4.87162 0
M  V30 14437 H 1364.31 2.80857 0.996155 0
M  V30 14438 H 1361.85 1.39027 0.480619 0
M  V30 14439 H 1363.81 2.36585 3.43632 0
M  V30 14440 H 1362.44 1.33966 2.93689 0
M  V30 14441 H 1361.49 3.41054 1.68483 0
M  V30 14442 H 1362.8 4.37057 2.4038 0
M  V30 14443 H 1361.96 3.83822 4.69857 0
M  V30 14444 H 1360.7 2.77768 4.00869 0
M  V30 14445 H 1359.7 4.7358 2.79289 0
M  V30 14446 H 1360.93 5.81124 3.51385 0
M  V30 14447 H 1358.87 4.18051 5.05538 0
M  V30 14448 H 1358.79 5.88395 4.74686 0
M  V30 14449 H 1360.06 5.25582 5.7566 0
M  V30 14450 N 1364.29 -0.50888 1.49158 0
M  V30 14451 C 1365.22 -1.62008 1.68154 0
M  V30 14452 C 1366.2 -1.61624 0.53025 0
M  V30 14453 O 1367.38 -1.78489 0.765205 0
M  V30 14454 C 1364.51 -3.00525 1.74075 0
M  V30 14455 C 1363.47 -3.15773 2.88915 0
M  V30 14456 C 1362.79 -4.55562 2.79942 0
M  V30 14457 C 1364.09 -2.96542 4.29953 0
M  V30 14458 H 1365.79 -1.46365 2.61185 0
M  V30 14459 H 1363.33 -0.702705 1.2569 0
M  V30 14460 H 1365.29 -3.78154 1.8595 0
M  V30 14461 H 1364.01 -3.17238 0.776373 0
M  V30 14462 H 1362.67 -2.40567 2.76628 0
M  V30 14463 H 1362.32 -4.6914 1.81429 0
M  V30 14464 H 1362.02 -4.66706 3.57015 0
M  V30 14465 H 1363.54 -5.35262 2.93814 0
M  V30 14466 H 1364.95 -3.63947 4.42963 0
M  V30 14467 H 1363.35 -3.19164 5.08187 0
M  V30 14468 H 1364.42 -1.92745 4.44946 0
M  V30 14469 N 1365.76 -1.381 -0.759346 0
M  V30 14470 C 1367.18 -1.30379 -1.33635 0
M  V30 14471 C 1367.53 0.0430279 -1.96153 0
M  V30 14472 O 1366.65 0.945029 -1.94675 0
M  V30 14473 C 1367.25 -2.3611 -2.42976 0
M  V30 14474 C 1365.81 -2.31985 -2.96412 0
M  V30 14475 C 1364.95 -2.19281 -1.69739 0
M  V30 14476 H 1367.9 -1.48542 -0.558656 0
M  V30 14477 H 1367.92 -2.01493 -3.22771 0
M  V30 14478 H 1367.44 -3.34122 -1.97445 0
M  V30 14479 H 1365.54 -1.37536 -3.46287 0
M  V30 14480 H 1365.65 -3.25895 -3.51183 0
M  V30 14481 H 1364.01 -1.66035 -1.93144 0
M  V30 14482 H 1364.8 -3.19225 -1.26293 0
M  V30 14483 N 1367.24 0.986894 -1.22875 0
M  V30 14484 C 1368.15 2.11232 -1.02069 0
M  V30 14485 C 1369.17 1.73969 0.0328424 0
M  V30 14486 O 1370.34 2.00754 -0.161197 0
M  V30 14487 C 1367.41 3.41337 -0.60747 0
M  V30 14488 C 1366.47 3.92665 -1.73531 0
M  V30 14489 C 1365.7 5.1656 -1.34171 0
M  V30 14490 O 1365.93 5.69964 -0.223106 0
M  V30 14491 O 1364.86 5.61791 -2.16041 0
M  V30 14492 H 1368.69 2.3167 -1.96374 0
M  V30 14493 H 1366.27 1.09607 -1.01522 0
M  V30 14494 H 1368.15 4.19613 -0.387661 0
M  V30 14495 H 1366.83 3.22244 0.306653 0
M  V30 14496 H 1365.74 3.15534 -2.0097 0
M  V30 14497 H 1367.07 4.162 -2.62751 0
M  V30 14498 N 1368.72 1.0394 1.18466 0
M  V30 14499 C 1369.65 0.587413 2.21545 0
M  V30 14500 C 1370.67 -0.34227 1.59161 0
M  V30 14501 O 1371.85 -0.136988 1.77974 0
M  V30 14502 C 1368.95 -0.161999 3.38513 0
M  V30 14503 C 1368.13 0.775243 4.30475 0
M  V30 14504 C 1367.19 0.0693526 5.26154 0
M  V30 14505 O 1366.21 0.69937 5.64887 0
M  V30 14506 N 1367.41 -1.19773 5.68009 0
M  V30 14507 H 1370.18 1.47399 2.60948 0
M  V30 14508 H 1367.74 0.919734 1.33239 0
M  V30 14509 H 1369.73 -0.644041 3.99542 0
M  V30 14510 H 1368.3 -0.950099 2.97812 0
M  V30 14511 H 1367.52 1.43717 3.67068 0
M  V30 14512 H 1368.81 1.41187 4.88819 0
M  V30 14513 H 1368.21 -1.73013 5.38593 0
M  V30 14514 H 1366.77 -1.62407 6.31243 0
M  V30 14515 N 1370.2 -1.34667 0.818693 0
M  V30 14516 C 1371.11 -2.33375 0.239429 0
M  V30 14517 C 1372.12 -1.62428 -0.623957 0
M  V30 14518 O 1373.3 -1.94223 -0.532854 0
M  V30 14519 C 1370.37 -3.41598 -0.59258 0
M  V30 14520 C 1369.43 -4.28301 0.292712 0
M  V30 14521 C 1368.66 -5.31356 -0.499682 0
M  V30 14522 O 1368.88 -5.43426 -1.73334 0
M  V30 14523 O 1367.82 -6.01789 0.115778 0
M  V30 14524 H 1371.64 -2.84738 1.05631 0
M  V30 14525 H 1369.23 -1.37651 0.58074 0
M  V30 14526 H 1371.11 -4.07692 -1.06607 0
M  V30 14527 H 1369.78 -2.92486 -1.38685 0
M  V30 14528 H 1368.69 -3.65145 0.81361 0
M  V30 14529 H 1370.02 -4.80843 1.05123 0
M  V30 14530 N 1371.68 -0.573274 -1.46804 0
M  V30 14531 C 1373.09 -0.23423 -1.57872 0
M  V30 14532 C 1373.29 1.26342 -1.56971 0
M  V30 14533 O 1372.35 2.04459 -1.48165 0
M  V30 14534 C 1373.66 -0.875097 -2.87685 0
M  V30 14535 C 1375.21 -0.847812 -3.01299 0
M  V30 14536 C 1375.68 -1.46804 -4.33835 0
M  V30 14537 N 1377.18 -1.43196 -4.4051 0
M  V30 14538 C 1377.91 -1.88133 -5.41658 0
M  V30 14539 N 1377.41 -2.41001 -6.49531 0
M  V30 14540 N 1379.2 -1.79107 -5.32801 0
M  V30 14541 H 1371.35 -1.54612 -1.45633 0
M  V30 14542 H 1373.61 -0.645703 -0.694098 0
M  V30 14543 H 1373.32 -1.92826 -2.94127 0
M  V30 14544 H 1373.19 -0.377671 -3.75305 0
M  V30 14545 H 1375.58 0.196707 -2.94444 0
M  V30 14546 H 1375.66 -1.38316 -2.1518 0
M  V30 14547 H 1375.31 -2.51171 -4.41447 0
M  V30 14548 H 1375.24 -0.908 -5.18713 0
M  V30 14549 H 1377.73 -1.04541 -3.63152 0
M  V30 14550 H 1378.04 -2.73172 -7.22908 0
M  V30 14551 H 1376.38 -2.45021 -6.50377 0
M  V30 14552 H 1379.58 -1.37569 -4.47429 0
M  V30 14553 H 1379.75 -2.14445 -6.11488 0
M  V30 14554 N 1373.15 1.5451 -0.310553 0
M  V30 14555 C 1374.1 2.25332 0.576928 0
M  V30 14556 C 1375.1 1.26272 1.12924 0
M  V30 14557 O 1376.3 1.44092 1.07878 0
M  V30 14558 H 1372.68 0.723611 0.204674 0
M  V30 14559 H 1374.65 2.98369 -0.0428167 0
M  V30 14560 C 1373.4 3.01455 1.73263 0
M  V30 14561 H 1372.72 3.7749 1.31688 0
M  V30 14562 H 1374.16 3.54276 2.32947 0
M  V30 14563 C 1372.62 2.08984 2.64248 0
M  V30 14564 O 1373.15 1.66414 3.65608 0
M  V30 14565 N 1371.36 1.74742 2.32193 0
M  V30 14566 H 1370.9 2.09558 1.49811 0
M  V30 14567 H 1370.86 1.13148 2.93334 0
M  V30 14568 N 1374.63 0.0384594 1.57553 0
M  V30 14569 C 1375.86 -0.647137 1.96203 0
M  V30 14570 C 1376.27 -1.65656 0.914042 0
M  V30 14571 O 1375.61 -1.83361 -0.111617 0
M  V30 14572 C 1375.68 -1.40193 3.31038 0
M  V30 14573 C 1375.34 -0.549782 4.53681 0
M  V30 14574 C 1376.34 0.178839 5.19592 0
M  V30 14575 C 1374.02 -0.48444 4.99958 0
M  V30 14576 C 1376.02 0.961376 6.30108 0
M  V30 14577 C 1373.7 0.301795 6.10354 0
M  V30 14578 C 1374.7 1.0234 6.75289 0
M  V30 14579 O 1374.39 1.79673 7.83564 0
M  V30 14580 H 1374.12 -0.182651 0.650857 0
M  V30 14581 H 1376.68 0.0973346 2.05169 0
M  V30 14582 H 1374.91 -2.19175 3.1859 0
M  V30 14583 H 1376.59 -1.97653 3.54525 0
M  V30 14584 H 1377.36 0.137749 4.84804 0
M  V30 14585 H 1373.24 -1.03568 4.49216 0
M  V30 14586 H 1376.78 1.52513 6.80724 0
M  V30 14587 H 1372.68 0.344569 6.4458 0
M  V30 14588 H 1373.45 1.71749 8.00278 0
M  V30 14589 N 1376.11 -1.55841 -0.234795 0
M  V30 14590 C 1377.06 -1.92165 -1.31055 0
M  V30 14591 C 1378.05 -0.802106 -1.49207 0
M  V30 14592 O 1379.26 -0.986832 -1.50538 0
M  V30 14593 H 1375.63 -0.610487 -0.439101 0
M  V30 14594 H 1377.61 -2.81955 -0.976926 0
M  V30 14595 C 1376.35 -2.24329 -2.65654 0
M  V30 14596 H 1375.68 -3.09982 -2.5249 0
M  V30 14597 H 1377.12 -2.53639 -3.3977 0
M  V30 14598 C 1375.58 -1.0638 -3.19664 0
M  V30 14599 O 1376.11 -0.318047 -4.00439 0
M  V30 14600 N 1374.31 -0.851167 -2.77855 0
M  V30 14601 H 1373.86 -1.45932 -2.12277 0
M  V30 14602 H 1373.82 -0.0636875 -3.14335 0
M  V30 14603 N 1377.59 0.500963 -1.49426 0
M  V30 14604 C 1378.52 1.61114 -1.69011 0
M  V30 14605 C 1379.5 1.61341 -0.538813 0
M  V30 14606 O 1380.69 1.78081 -0.77466 0
M  V30 14607 C 1377.82 2.99598 -1.75666 0
M  V30 14608 C 1376.77 3.14236 -2.90585 0
M  V30 14609 C 1376.1 4.54071 -2.82354 0
M  V30 14610 C 1377.4 2.94258 -4.3152 0
M  V30 14611 H 1379.09 1.44978 -2.61957 0
M  V30 14612 H 1376.64 0.69603 -1.26061 0
M  V30 14613 H 1378.59 3.77163 -1.87953 0
M  V30 14614 H 1377.31 3.16822 -0.793186 0
M  V30 14615 H 1375.97 2.39096 -2.779 0
M  V30 14616 H 1375.62 4.68172 -1.83914 0
M  V30 14617 H 1375.32 4.64806 -3.59485 0
M  V30 14618 H 1376.84 5.33696 -2.96649 0
M  V30 14619 H 1378.26 3.61592 -4.44886 0
M  V30 14620 H 1376.65 3.16464 -5.09873 0
M  V30 14621 H 1377.72 1.90383 -4.45962 0
M  V30 14622 N 1379.07 1.38501 0.752011 0
M  V30 14623 C 1380 1.31746 1.87551 0
M  V30 14624 C 1381.01 0.229386 1.61176 0
M  V30 14625 O 1382.2 0.487066 1.71726 0
M  V30 14626 C 1379.3 1.01889 3.23221 0
M  V30 14627 C 1378.47 2.21637 3.77088 0
M  V30 14628 C 1377.53 1.885 4.91278 0
M  V30 14629 O 1376.56 2.61011 5.05828 0
M  V30 14630 N 1377.76 0.840909 5.74377 0
M  V30 14631 H 1380.53 2.28561 1.93856 0
M  V30 14632 H 1378.09 1.32383 0.932013 0
M  V30 14633 H 1380.08 0.777704 3.97157 0
M  V30 14634 H 1378.65 0.138658 3.12292 0
M  V30 14635 H 1377.87 2.61812 2.947 0
M  V30 14636 H 1379.16 3.01551 4.0981 0
M  V30 14637 H 1378.56 0.23962 5.65192 0
M  V30 14638 H 1377.11 0.659604 6.48454 0
M  V30 14639 N 1380.55 -0.980364 1.23396 0
M  V30 14640 C 1381.48 -2.07099 0.958403 0
M  V30 14641 C 1382.46 -1.62272 -0.1033 0
M  V30 14642 O 1383.64 -1.88475 0.0309639 0
M  V30 14643 C 1380.77 -3.35779 0.443864 0
M  V30 14644 C 1379.81 -3.99545 1.49218 0
M  V30 14645 S 1380.65 -4.3879 3.06958 0
M  V30 14646 C 1381.8 -5.70624 2.57174 0
M  V30 14647 H 1382.04 -2.30154 1.88192 0
M  V30 14648 H 1379.57 -1.11656 1.06641 0
M  V30 14649 H 1381.53 -4.10213 0.153603 0
M  V30 14650 H 1380.19 -3.10732 -0.458738 0
M  V30 14651 H 1379.38 -4.92242 1.0823 0
M  V30 14652 H 1378.98 -3.31489 1.73179 0
M  V30 14653 H 1381.27 -6.47555 1.99197 0
M  V30 14654 H 1382.22 -6.16454 3.48411 0
M  V30 14655 H 1382.63 -5.28626 1.98028 0
M  V30 14656 N 1382.02 -1.04567 -1.17913 0
M  V30 14657 C 1383.25 -0.772146 -1.92491 0
M  V30 14658 C 1383.67 0.665297 -1.75942 0
M  V30 14659 O 1383.03 1.46144 -1.07292 0
M  V30 14660 C 1383.08 -1.14966 -3.41782 0
M  V30 14661 O 1382.18 -0.278091 -4.11461 0
M  V30 14662 H 1381.52 -0.283715 -0.600335 0
M  V30 14663 H 1384.05 -1.39685 -1.49496 0
M  V30 14664 H 1384.06 -1.11374 -3.92505 0
M  V30 14665 H 1382.74 -2.1968 -3.53148 0
M  V30 14666 H 1381.32 -0.374073 -3.71019 0
M  V30 14667 N 1383.5 1.34231 -0.825823 0
M  V30 14668 C 1384.43 2.31997 -0.264546 0
M  V30 14669 C 1385.41 1.58375 0.620592 0
M  V30 14670 O 1386.6 1.86341 0.546865 0
M  V30 14671 C 1383.73 3.42557 0.572025 0
M  V30 14672 C 1382.68 4.27454 -0.216219 0
M  V30 14673 C 1382.01 5.29509 0.743279 0
M  V30 14674 C 1383.31 5.02456 -1.42603 0
M  V30 14675 H 1385 2.79189 -1.08139 0
M  V30 14676 H 1382.55 1.34227 -0.521451 0
M  V30 14677 H 1384.5 4.09968 0.974889 0
M  V30 14678 H 1383.22 2.94021 1.42195 0
M  V30 14679 H 1381.88 3.61649 -0.600485 0
M  V30 14680 H 1381.53 4.77234 1.58924 0
M  V30 14681 H 1381.23 5.87188 0.220064 0
M  V30 14682 H 1382.76 5.99789 1.14394 0
M  V30 14683 H 1384.17 5.62706 -1.09702 0
M  V30 14684 H 1382.57 5.69723 -1.88509 0
M  V30 14685 H 1383.64 4.31983 -2.2027 0
M  V30 14686 N 1384.98 0.581051 1.46498 0
M  V30 14687 C 1385.89 -0.155669 2.34083 0
M  V30 14688 C 1386.91 -0.887728 1.49651 0
M  V30 14689 O 1388.08 -0.851284 1.82524 0
M  V30 14690 C 1385.15 -1.15752 3.26806 0
M  V30 14691 C 1384.21 -0.43031 4.27138 0
M  V30 14692 C 1383.44 -1.38443 5.15431 0
M  V30 14693 O 1383.66 -2.62084 5.06624 0
M  V30 14694 O 1382.6 -0.89592 5.95195 0
M  V30 14695 H 1386.42 0.56341 2.98428 0
M  V30 14696 H 1384.01 0.341466 1.45445 0
M  V30 14697 H 1385.89 -1.73523 3.84015 0
M  V30 14698 H 1384.57 -1.85809 2.65059 0
M  V30 14699 H 1383.47 0.1892 3.73621 0
M  V30 14700 H 1384.81 0.229263 4.91666 0
M  V30 14701 N 1386.46 -1.54343 0.318742 0
M  V30 14702 C 1387.69 -2.04894 -0.287378 0
M  V30 14703 C 1388.1 -1.19514 -1.46157 0
M  V30 14704 O 1387.46 -0.224722 -1.81111 0
M  V30 14705 C 1387.51 -3.54124 -0.726505 0
M  V30 14706 O 1387.23 -4.36261 0.400968 0
M  V30 14707 C 1388.73 -4.20748 -1.39594 0
M  V30 14708 H 1385.95 -0.668323 -0.0598724 0
M  V30 14709 H 1388.49 -1.99177 0.463531 0
M  V30 14710 H 1386.65 -3.60145 -1.4274 0
M  V30 14711 H 1387.06 -5.2447 0.0558714 0
M  V30 14712 H 1388.54 -5.26632 -1.65418 0
M  V30 14713 H 1389.01 -3.71566 -2.3417 0
M  V30 14714 H 1389.62 -4.18852 -0.737749 0
M  V30 14715 N 1387.94 -0.0468143 -1.5753 0
M  V30 14716 C 1388.87 0.927092 -2.14306 0
M  V30 14717 C 1389.85 1.32745 -1.06362 0
M  V30 14718 O 1391.03 1.40293 -1.34281 0
M  V30 14719 C 1388.16 2.20343 -2.68452 0
M  V30 14720 C 1387.12 1.94328 -3.81341 0
M  V30 14721 C 1386.44 3.28379 -4.21985 0
M  V30 14722 C 1387.74 1.26835 -5.06666 0
M  V30 14723 H 1389.44 0.454199 -2.95935 0
M  V30 14724 H 1386.98 0.217029 -1.42355 0
M  V30 14725 H 1388.93 2.8887 -3.0681 0
M  V30 14726 H 1387.66 2.6983 -1.84009 0
M  V30 14727 H 1386.32 1.28214 -3.43448 0
M  V30 14728 H 1385.97 3.75658 -3.34499 0
M  V30 14729 H 1385.67 3.11772 -4.98068 0
M  V30 14730 H 1387.19 3.98145 -4.6294 0
M  V30 14731 H 1388.6 1.85389 -5.42498 0
M  V30 14732 H 1387 1.20569 -5.87863 0
M  V30 14733 H 1388.07 0.243759 -4.84287 0
M  V30 14734 N 1389.41 1.55964 0.226527 0
M  V30 14735 C 1390.36 1.92007 1.28069 0
M  V30 14736 C 1391.33 0.776666 1.46823 0
M  V30 14737 O 1392.52 1.03213 1.60474 0
M  V30 14738 C 1389.66 2.23784 2.62707 0
M  V30 14739 C 1388.77 3.51034 2.51792 0
M  V30 14740 C 1387.9 3.72281 3.7892 0
M  V30 14741 C 1386.94 4.93062 3.62707 0
M  V30 14742 N 1386.08 5.10725 4.81772 0
M  V30 14743 H 1390.92 2.81898 0.96631 0
M  V30 14744 H 1388.46 1.39529 0.465847 0
M  V30 14745 H 1390.42 2.40217 3.41104 0
M  V30 14746 H 1389.05 1.37073 2.92251 0
M  V30 14747 H 1388.1 3.42822 1.64856 0
M  V30 14748 H 1389.41 4.39582 2.35731 0
M  V30 14749 H 1388.56 3.88783 4.6576 0
M  V30 14750 H 1387.3 2.82004 3.97901 0
M  V30 14751 H 1386.31 4.76515 2.7425 0
M  V30 14752 H 1387.53 5.84819 3.45201 0
M  V30 14753 H 1385.48 4.2339 5.01076 0
M  V30 14754 H 1385.4 5.93397 4.68419 0
M  V30 14755 H 1386.66 5.31658 5.70053 0
M  V30 14756 N 1390.89 -0.493031 1.4969 0
M  V30 14757 C 1392.12 -1.27046 1.633 0
M  V30 14758 C 1392.54 -1.86278 0.307534 0
M  V30 14759 O 1391.89 -1.68208 -0.707968 0
M  V30 14760 C 1391.94 -2.39501 2.70779 0
M  V30 14761 O 1391.66 -1.82702 3.98185 0
M  V30 14762 C 1393.17 -3.30744 2.95166 0
M  V30 14763 H 1390.39 -0.385042 0.54953 0
M  V30 14764 H 1392.93 -0.590998 1.95774 0
M  V30 14765 H 1391.08 -3.03263 2.41061 0
M  V30 14766 H 1391.5 -2.56588 4.57452 0
M  V30 14767 H 1392.97 -4.05912 3.74085 0
M  V30 14768 H 1393.45 -3.88217 2.05387 0
M  V30 14769 H 1394.06 -2.72741 3.26332 0
M  V30 14770 N 1392.37 -1.38898 -0.744656 0
M  V30 14771 C 1393.3 -1.39571 -1.87195 0
M  V30 14772 C 1394.28 -0.260372 -1.68095 0
M  V30 14773 O 1395.47 -0.464776 -1.88556 0
M  V30 14774 C 1392.6 -1.22889 -3.24832 0
M  V30 14775 C 1391.55 -2.33721 -3.58551 0
M  V30 14776 C 1390.88 -2.02136 -4.9502 0
M  V30 14777 C 1392.18 -3.7601 -3.62511 0
M  V30 14778 H 1393.87 -2.33908 -1.86889 0
M  V30 14779 H 1391.42 -1.12591 -0.897739 0
M  V30 14780 H 1393.37 -1.21983 -4.03359 0
M  V30 14781 H 1392.09 -0.250172 -3.2564 0
M  V30 14782 H 1390.75 -2.33828 -2.82348 0
M  V30 14783 H 1390.4 -1.02726 -4.92399 0
M  V30 14784 H 1390.1 -2.76371 -5.18549 0
M  V30 14785 H 1391.62 -2.02864 -5.75915 0
M  V30 14786 H 1393.04 -3.77885 -4.31133 0
M  V30 14787 H 1391.44 -4.49524 -3.97553 0
M  V30 14788 H 1392.51 -4.07682 -2.62533 0
M  V30 14789 N 1393.85 0.973806 -1.23914 0
M  V30 14790 C 1394.78 2.08526 -1.05068 0
M  V30 14791 C 1395.76 1.70065 0.0344761 0
M  V30 14792 O 1396.94 1.93755 -0.131432 0
M  V30 14793 C 1394.07 3.41198 -0.648165 0
M  V30 14794 C 1393.03 3.9359 -1.6814 0
M  V30 14795 C 1392.35 5.22534 -1.13414 0
M  V30 14796 C 1393.65 4.22116 -3.07597 0
M  V30 14797 H 1395.35 2.24551 -1.98034 0
M  V30 14798 H 1392.89 1.07905 -0.953546 0
M  V30 14799 H 1394.85 4.18383 -0.50334 0
M  V30 14800 H 1393.57 3.25056 0.317182 0
M  V30 14801 H 1392.23 3.18555 -1.81434 0
M  V30 14802 H 1391.88 5.02747 -0.159578 0
M  V30 14803 H 1391.58 5.58555 -1.82456 0
M  V30 14804 H 1393.1 6.02334 -1.0013 0
M  V30 14805 H 1394.52 4.90027 -2.97567 0
M  V30 14806 H 1392.91 4.69352 -3.73937 0
M  V30 14807 H 1393.98 3.29128 -3.56094 0
M  V30 14808 N 1395.33 1.05191 1.17357 0
M  V30 14809 C 1396.29 0.65713 2.19578 0
M  V30 14810 C 1397.29 -0.29138 1.58138 0
M  V30 14811 O 1398.48 -0.075254 1.74037 0
M  V30 14812 C 1395.61 -0.0348162 3.40882 0
M  V30 14813 H 1396.8 1.56188 2.56018 0
M  V30 14814 H 1394.36 0.845795 1.31438 0
M  V30 14815 H 1395.09 -0.952835 3.09986 0
M  V30 14816 H 1394.88 0.647076 3.86724 0
M  V30 14817 H 1396.37 -0.297135 4.16542 0
M  V30 14818 N 1396.8 -1.33791 0.83293 0
M  V30 14819 C 1397.73 -2.31853 0.276846 0
M  V30 14820 C 1398.72 -1.58702 -0.612184 0
M  V30 14821 O 1399.9 -1.86629 -0.536975 0
M  V30 14822 C 1397.03 -3.42855 -0.55385 0
M  V30 14823 C 1395.98 -4.27333 0.238884 0
M  V30 14824 C 1395.31 -5.29895 -0.715187 0
M  V30 14825 C 1396.61 -5.01692 1.45265 0
M  V30 14826 H 1398.3 -2.78611 1.09618 0
M  V30 14827 H 1395.85 -1.33949 0.528562 0
M  V30 14828 H 1397.8 -4.10479 -0.953133 0
M  V30 14829 H 1396.53 -2.94771 -1.40634 0
M  V30 14830 H 1395.19 -3.61325 0.619656 0
M  V30 14831 H 1394.83 -4.7807 -1.56391 0
M  V30 14832 H 1394.53 -5.87296 -0.188921 0
M  V30 14833 H 1396.06 -6.00387 -1.11211 0
M  V30 14834 H 1397.47 -5.62117 1.12685 0
M  V30 14835 H 1395.87 -5.68715 1.91528 0
M  V30 14836 H 1396.94 -4.30809 2.22558 0
M  V30 14837 N 1398.28 -0.588812 -1.46187 0
M  V30 14838 C 1399.53 -0.0765765 -2.01955 0
M  V30 14839 C 1399.85 1.29034 -1.46203 0
M  V30 14840 O 1399.12 1.84836 -0.649044 0
M  V30 14841 H 1397.7 -0.025318 -0.746571 0
M  V30 14842 H 1400.36 -0.765971 -1.79217 0
M  V30 14843 H 1399.46 -0.0121702 -3.12098 0
M  V30 14844 N 1399.76 1.54172 -0.326923 0
M  V30 14845 C 1401 2.02539 0.275192 0
M  V30 14846 C 1401.36 1.2099 1.49082 0
M  V30 14847 O 1402.57 1.59176 2.16602 0
M  V30 14848 C 1400.84 3.52366 0.597767 0
M  V30 14849 S 1402.4 4.22663 1.17906 0
M  V30 14850 H 1399.21 0.706135 0.0830286 0
M  V30 14851 H 1401.82 1.89991 -0.460826 0
M  V30 14852 H 1400.52 4.09338 -0.295052 0
M  V30 14853 H 1400.05 3.69001 1.36389 0
M  V30 14854 H 1402.07 4.30601 2.46571 0
M  V30 14855 N 1401.24 0.0551678 1.57503 0
M  V30 14856 C 1402.19 -0.927586 2.08278 0
M  V30 14857 C 1403.17 -1.26931 0.988802 0
M  V30 14858 O 1404.36 -1.25107 1.25209 0
M  V30 14859 C 1401.49 -2.20105 2.63456 0
M  V30 14860 C 1400.58 -1.88654 3.7983 0
M  V30 14861 N 1400.97 -1.2758 4.89446 0
M  V30 14862 C 1399.27 -2.185 3.8881 0
M  V30 14863 C 1399.97 -1.13848 5.7045 0
M  V30 14864 N 1398.95 -1.6427 5.18186 0
M  V30 14865 H 1402.75 -0.450784 2.90422 0
M  V30 14866 H 1400.26 -0.149178 1.61713 0
M  V30 14867 H 1402.26 -2.9141 2.98137 0
M  V30 14868 H 1400.92 -2.68388 1.82752 0
M  V30 14869 H 1401.93 -0.947506 5.09159 0
M  V30 14870 H 1398.61 -2.69276 3.19056 0
M  V30 14871 H 1400 -0.664014 6.68611 0
M  V30 14872 N 1402.72 -1.56081 -0.218252 0
M  V30 14873 C 1403.96 -1.79513 -0.943553 0
M  V30 14874 C 1404.3 -0.625367 -1.83855 0
M  V30 14875 O 1403.57 0.375226 -1.90846 0
M  V30 14876 C 1403.85 -3.13049 -1.77967 0
M  V30 14877 C 1403.71 -4.40479 -0.910939 0
M  V30 14878 C 1405.03 -3.43057 -2.7568 0
M  V30 14879 H 1402.14 -0.653057 -0.341593 0
M  V30 14880 H 1404.79 -1.88811 -0.212226 0
M  V30 14881 H 1402.94 -3.05254 -2.40318 0
M  V30 14882 H 1404.61 -4.60298 -0.303922 0
M  V30 14883 H 1402.85 -4.33259 -0.216513 0
M  V30 14884 H 1403.52 -5.3036 -1.53042 0
M  V30 14885 H 1406 -3.51002 -2.23465 0
M  V30 14886 H 1404.87 -4.37657 -3.31282 0
M  V30 14887 H 1405.14 -2.65389 -3.53584 0
M  V30 14888 N 1404.2 0.485086 -1.49949 0
M  V30 14889 C 1405.44 1.23571 -1.5992 0
M  V30 14890 C 1405.76 1.92754 -0.295108 0
M  V30 14891 O 1405.03 1.83474 0.686582 0
M  V30 14892 H 1403.61 0.459104 -0.589264 0
M  V30 14893 H 1406.28 0.560822 -1.86657 0
M  V30 14894 H 1405.37 1.99114 -2.40333 0
M  V30 14895 N 1405.67 1.39291 0.737279 0
M  V30 14896 C 1406.92 1.35702 1.49224 0
M  V30 14897 C 1407.24 -0.0450282 1.95548 0
M  V30 14898 O 1408.44 -0.203495 2.70736 0
M  V30 14899 C 1406.9 2.38387 2.69629 0
M  V30 14900 C 1406.51 3.84295 2.30263 0
M  V30 14901 C 1408.25 2.4387 3.47459 0
M  V30 14902 C 1406.16 4.78626 3.47377 0
M  V30 14903 H 1405.09 0.50449 0.560362 0
M  V30 14904 H 1407.74 1.64926 0.804466 0
M  V30 14905 H 1406.12 2.0223 3.40469 0
M  V30 14906 H 1407.29 4.2948 1.66984 0
M  V30 14907 H 1405.61 3.82085 1.6553 0
M  V30 14908 H 1408.21 3.11539 4.34566 0
M  V30 14909 H 1408.55 1.46253 3.89764 0
M  V30 14910 H 1409.08 2.78908 2.83646 0
M  V30 14911 H 1405.82 5.77497 3.10124 0
M  V30 14912 H 1405.34 4.38123 4.09645 0
M  V30 14913 H 1407.02 4.9742 4.13742 0
M  V30 14914 N 1407.15 -0.967221 1.24429 0
M  V30 14915 C 1408.38 -1.75053 1.11226 0
M  V30 14916 C 1408.8 -1.85162 -0.331139 0
M  V30 14917 O 1408.16 -1.32288 -1.23974 0
M  V30 14918 C 1408.21 -3.14882 1.75733 0
M  V30 14919 O 1407.31 -3.99371 1.02842 0
M  V30 14920 H 1406.65 -0.538078 0.389061 0
M  V30 14921 H 1409.18 -1.21325 1.64746 0
M  V30 14922 H 1409.19 -3.65402 1.81509 0
M  V30 14923 H 1407.87 -3.06839 2.80754 0
M  V30 14924 H 1406.44 -3.57854 1.04856 0
M  V30 14925 N 1408.63 -1.05812 -1.16797 0
M  V30 14926 C 1409.91 -0.685551 -1.83193 0
M  V30 14927 C 1410.29 0.833539 -1.93947 0
M  V30 14928 O 1409.63 1.74193 -1.47882 0
M  V30 14929 C 1409.84 -1.38183 -3.20479 0
M  V30 14930 C 1411.19 -1.52389 -3.96311 0
M  V30 14931 O 1412.22 -1.34134 -3.2998 0
M  V30 14932 O 1411.08 -1.82297 -5.15199 0
M  V30 14933 H 1408.17 -0.242095 -0.790771 0
M  V30 14934 H 1410.72 -1.15809 -1.24041 0
M  V30 14935 H 1409.49 -2.41791 -3.07657 0
M  V30 14936 H 1409.11 -0.899043 -3.87302 0
M  V30 14937 N 1410.11 1.33347 -0.840014 0
M  V30 14938 C 1411.02 2.32965 -0.276527 0
M  V30 14939 C 1412.03 1.634 0.598037 0
M  V30 14940 O 1413.21 1.95046 0.501888 0
M  V30 14941 C 1410.27 3.42498 0.53816 0
M  V30 14942 C 1409.34 4.27781 -0.360814 0
M  V30 14943 C 1408.57 5.32083 0.415085 0
M  V30 14944 O 1408.79 5.46115 1.64666 0
M  V30 14945 O 1407.73 6.01528 -0.211503 0
M  V30 14946 H 1411.55 2.83022 -1.10147 0
M  V30 14947 H 1409.14 1.3671 -0.602566 0
M  V30 14948 H 1411.02 4.09336 1.00108 0
M  V30 14949 H 1409.69 2.94655 1.34015 0
M  V30 14950 H 1408.6 3.63805 -0.871598 0
M  V30 14951 H 1409.93 4.7911 -1.1276 0
M  V30 14952 N 1411.59 0.596556 1.45873 0
M  V30 14953 C 1412.54 -0.14991 2.27507 0
M  V30 14954 C 1413.52 -0.848942 1.36681 0
M  V30 14955 O 1414.71 -0.740752 1.60754 0
M  V30 14956 C 1411.84 -1.15391 3.23326 0
M  V30 14957 C 1410.93 -0.456283 4.21638 0
M  V30 14958 N 1411.32 0.495911 5.03363 0
M  V30 14959 C 1409.62 -0.705263 4.40389 0
M  V30 14960 C 1410.32 0.904941 5.74618 0
M  V30 14961 N 1409.29 0.251069 5.4302 0
M  V30 14962 H 1413.09 0.581593 2.88088 0
M  V30 14963 H 1410.61 0.419386 1.56891 0
M  V30 14964 H 1412.61 -1.70299 3.80531 0
M  V30 14965 H 1411.27 -1.88609 2.64305 0
M  V30 14966 H 1412.28 0.872126 5.10504 0
M  V30 14967 H 1408.95 -1.42296 3.92502 0
M  V30 14968 H 1410.34 1.68965 6.50308 0
M  V30 14969 N 1413.06 -1.53996 0.335095 0
M  V30 14970 C 1414.03 -2.23385 -0.513015 0
M  V30 14971 C 1415.03 -1.23117 -1.03435 0
M  V30 14972 O 1416.22 -1.47616 -0.924944 0
M  V30 14973 C 1413.35 -2.94691 -1.71377 0
M  V30 14974 H 1414.54 -2.99753 0.0937306 0
M  V30 14975 H 1412.09 -1.56061 0.086326 0
M  V30 14976 H 1412.83 -2.22488 -2.35944 0
M  V30 14977 H 1412.61 -3.68228 -1.34723 0
M  V30 14978 H 1414.1 -3.47525 -2.31552 0
M  V30 14979 N 1414.54 -0.0635198 -1.57472 0
M  V30 14980 C 1415.45 0.921531 -2.15743 0
M  V30 14981 C 1416.47 1.33294 -1.11842 0
M  V30 14982 O 1417.64 1.40733 -1.4407 0
M  V30 14983 C 1414.71 2.17378 -2.70088 0
M  V30 14984 C 1413.77 1.81956 -3.88832 0
M  V30 14985 C 1413 3.01211 -4.40577 0
M  V30 14986 O 1413.23 4.14971 -3.9135 0
M  V30 14987 O 1412.16 2.81507 -5.32012 0
M  V30 14988 H 1415.99 0.455899 -3.00259 0
M  V30 14989 H 1413.57 0.159085 -1.48551 0
M  V30 14990 H 1415.45 2.90826 -3.04956 0
M  V30 14991 H 1414.13 2.63055 -1.88637 0
M  V30 14992 H 1413.03 1.05786 -3.58832 0
M  V30 14993 H 1414.37 1.41069 -4.71551 0
M  V30 14994 N 1416.02 1.56195 0.209972 0
M  V30 14995 C 1417.3 1.70553 0.957653 0
M  V30 14996 C 1417.68 0.614091 2.01971 0
M  V30 14997 O 1417.02 -0.377192 2.25365 0
M  V30 14998 C 1417.23 3.12314 1.55759 0
M  V30 14999 C 1418.58 3.72085 2.04543 0
M  V30 15000 O 1419.61 3.15349 1.65631 0
M  V30 15001 O 1418.47 4.71627 2.76099 0
M  V30 15002 H 1415.56 0.695077 0.448104 0
M  V30 15003 H 1418.11 1.68507 0.20084 0
M  V30 15004 H 1416.88 3.83215 0.791302 0
M  V30 15005 H 1416.5 3.18526 2.37964 0
M  V30 15006 N 1417.5 -0.477127 1.50204 0
M  V30 15007 C 1418.44 -1.57587 1.68626 0
M  V30 15008 C 1419.41 -1.57499 0.527576 0
M  V30 15009 O 1420.6 -1.75121 0.757438 0
M  V30 15010 C 1417.74 -2.956 1.78086 0
M  V30 15011 C 1416.85 -3.05523 3.05417 0
M  V30 15012 C 1415.99 -4.34414 3.05709 0
M  V30 15013 C 1415.03 -4.38057 4.27519 0
M  V30 15014 N 1414.16 -5.5841 4.25585 0
M  V30 15015 H 1419 -1.41185 2.62433 0
M  V30 15016 H 1416.54 -0.686537 1.30096 0
M  V30 15017 H 1418.5 -3.75626 1.81552 0
M  V30 15018 H 1417.13 -3.10651 0.877251 0
M  V30 15019 H 1416.18 -2.18409 3.11451 0
M  V30 15020 H 1417.49 -3.04075 3.95398 0
M  V30 15021 H 1416.65 -5.22782 3.07871 0
M  V30 15022 H 1415.39 -4.38462 2.13548 0
M  V30 15023 H 1414.39 -3.48087 4.25577 0
M  V30 15024 H 1415.62 -4.35705 5.20901 0
M  V30 15025 H 1413.56 -5.63255 3.36274 0
M  V30 15026 H 1413.48 -5.58677 5.09328 0
M  V30 15027 H 1414.75 -6.4892 4.31884 0
M  V30 15028 N 1418.98 -1.3968 -0.729882 0
M  V30 15029 C 1420.22 -1.37385 -1.49175 0
M  V30 15030 C 1420.56 0.0285839 -1.94179 0
M  V30 15031 O 1419.83 0.994516 -1.67152 0
M  V30 15032 C 1420.11 -2.35075 -2.72785 0
M  V30 15033 C 1419.97 -3.84282 -2.33767 0
M  V30 15034 C 1421.29 -2.30515 -3.74901 0
M  V30 15035 H 1418.4 -0.500359 -0.541119 0
M  V30 15036 H 1421.05 -1.7071 -0.834152 0
M  V30 15037 H 1419.2 -2.06787 -3.28894 0
M  V30 15038 H 1420.87 -4.2334 -1.8325 0
M  V30 15039 H 1419.11 -4.00809 -1.65935 0
M  V30 15040 H 1419.78 -4.48131 -3.22309 0
M  V30 15041 H 1422.26 -2.55539 -3.28389 0
M  V30 15042 H 1421.13 -3.00939 -4.5905 0
M  V30 15043 H 1421.4 -1.3119 -4.22187 0
M  V30 15044 N 1420.45 0.960609 -1.2494 0
M  V30 15045 C 1421.4 2.05634 -1.04801 0
M  V30 15046 C 1422.37 1.66049 0.0409611 0
M  V30 15047 O 1423.56 1.90453 -0.115053 0
M  V30 15048 C 1420.7 3.38604 -0.666444 0
M  V30 15049 C 1419.81 3.91341 -1.82964 0
M  V30 15050 C 1418.94 5.1261 -1.39299 0
M  V30 15051 C 1417.98 5.57562 -2.52569 0
M  V30 15052 N 1417.12 6.70046 -2.09722 0
M  V30 15053 H 1421.96 2.22194 -1.9858 0
M  V30 15054 H 1419.5 1.08892 -0.988981 0
M  V30 15055 H 1421.46 4.15017 -0.426205 0
M  V30 15056 H 1420.09 3.21948 0.23435 0
M  V30 15057 H 1419.14 3.11502 -2.18335 0
M  V30 15058 H 1420.45 4.20656 -2.68049 0
M  V30 15059 H 1419.6 5.96421 -1.11205 0
M  V30 15060 H 1418.34 4.84997 -0.512779 0
M  V30 15061 H 1417.35 4.72319 -2.81415 0
M  V30 15062 H 1418.57 5.87186 -3.41159 0
M  V30 15063 H 1416.52 6.44153 -1.24109 0
M  V30 15064 H 1416.44 6.98846 -2.88357 0
M  V30 15065 H 1417.7 7.57281 -1.84787 0
M  V30 15066 N 1421.93 1.0643 1.16234 0
M  V30 15067 C 1422.88 0.676311 2.20669 0
M  V30 15068 C 1423.85 -0.327721 1.62835 0
M  V30 15069 O 1425.03 -0.216296 1.8957 0
M  V30 15070 C 1422.17 0.0703726 3.45028 0
M  V30 15071 C 1421.29 1.12475 4.17101 0
M  V30 15072 C 1420.42 0.484806 5.28983 0
M  V30 15073 C 1419.46 1.52262 5.9286 0
M  V30 15074 N 1418.6 0.905938 6.96231 0
M  V30 15075 H 1423.44 1.57129 2.53209 0
M  V30 15076 H 1420.98 0.7856 1.24365 0
M  V30 15077 H 1422.93 -0.298488 4.16131 0
M  V30 15078 H 1421.56 -0.788002 3.13034 0
M  V30 15079 H 1420.62 1.6113 3.44589 0
M  V30 15080 H 1421.93 1.91202 4.60698 0
M  V30 15081 H 1421.08 0.0630553 6.06667 0
M  V30 15082 H 1419.82 -0.334332 4.86553 0
M  V30 15083 H 1418.83 1.95425 5.13896 0
M  V30 15084 H 1420.05 2.34388 6.37369 0
M  V30 15085 H 1418 0.107536 6.55912 0
M  V30 15086 H 1417.91 1.63058 7.38206 0
M  V30 15087 H 1419.18 0.509378 7.77834 0
M  V30 15088 N 1423.41 -1.329 0.847073 0
M  V30 15089 C 1424.34 -2.27027 0.231111 0
M  V30 15090 C 1425.32 -1.50045 -0.626524 0
M  V30 15091 O 1426.51 -1.79193 -0.58499 0
M  V30 15092 C 1423.63 -3.31911 -0.67472 0
M  V30 15093 C 1422.68 -4.26362 0.108531 0
M  V30 15094 S 1423.51 -5.14874 1.4719 0
M  V30 15095 C 1424.67 -6.23285 0.571586 0
M  V30 15096 H 1424.9 -2.78922 1.02906 0
M  V30 15097 H 1422.43 -1.40315 0.64428 0
M  V30 15098 H 1424.39 -3.92821 -1.19172 0
M  V30 15099 H 1423.05 -2.78815 -1.44641 0
M  V30 15100 H 1422.25 -5.00639 -0.581079 0
M  V30 15101 H 1421.85 -3.69831 0.556863 0
M  V30 15102 H 1424.14 -6.77119 -0.227261 0
M  V30 15103 H 1425.08 -6.96347 1.28477 0
M  V30 15104 H 1425.49 -5.64303 0.149291 0
M  V30 15105 N 1424.89 -0.604284 -1.45555 0
M  V30 15106 C 1425.84 0.116491 -2.30506 0
M  V30 15107 C 1426.81 0.863214 -1.41908 0
M  V30 15108 O 1427.99 0.849606 -1.7084 0
M  V30 15109 C 1425.13 1.11009 -3.26758 0
M  V30 15110 C 1424.24 0.36458 -4.30459 0
M  V30 15111 C 1423.38 1.34761 -5.13822 0
M  V30 15112 C 1422.42 0.589724 -6.09253 0
M  V30 15113 N 1421.55 1.52187 -6.85408 0
M  V30 15114 H 1426.39 -0.61394 -2.91607 0
M  V30 15115 H 1423.93 -0.314561 -1.43697 0
M  V30 15116 H 1425.89 1.69925 -3.81027 0
M  V30 15117 H 1424.52 1.80797 -2.67418 0
M  V30 15118 H 1423.57 -0.340026 -3.78877 0
M  V30 15119 H 1424.88 -0.226906 -4.98284 0
M  V30 15120 H 1424.04 2.00893 -5.72474 0
M  V30 15121 H 1422.78 1.97302 -4.46008 0
M  V30 15122 H 1421.78 -0.0852486 -5.49734 0
M  V30 15123 H 1423.01 -0.0306001 -6.79093 0
M  V30 15124 H 1420.95 2.13499 -6.20286 0
M  V30 15125 H 1420.87 0.983737 -7.49572 0
M  V30 15126 H 1422.14 2.17287 -7.48603 0
M  V30 15127 N 1426.37 1.53816 -0.343257 0
M  V30 15128 C 1427.3 2.27951 0.506005 0
M  V30 15129 C 1428.28 1.29502 1.10287 0
M  V30 15130 O 1429.46 1.58344 1.12432 0
M  V30 15131 C 1426.59 3.0521 1.65723 0
M  V30 15132 C 1425.55 4.11161 1.18871 0
M  V30 15133 C 1424.87 4.76373 2.42843 0
M  V30 15134 C 1426.17 5.21498 0.289403 0
M  V30 15135 H 1427.87 2.99189 -0.112435 0
M  V30 15136 H 1425.41 1.43893 -0.055516 0
M  V30 15137 H 1427.37 3.55811 2.2578 0
M  V30 15138 H 1426.09 2.31624 2.30256 0
M  V30 15139 H 1424.75 3.61473 0.610962 0
M  V30 15140 H 1424.4 3.99381 3.05784 0
M  V30 15141 H 1424.1 5.47955 2.12177 0
M  V30 15142 H 1425.62 5.29758 3.03627 0
M  V30 15143 H 1427.03 5.67736 0.796808 0
M  V30 15144 H 1425.43 6.00054 0.0746366 0
M  V30 15145 H 1426.5 4.80185 -0.674543 0
M  V30 15146 N 1427.84 0.0718701 1.57436 0
M  V30 15147 C 1429.26 -0.460784 1.80924 0
M  V30 15148 C 1429.61 -1.69637 0.985781 0
M  V30 15149 O 1428.73 -2.15395 0.208319 0
M  V30 15150 C 1429.33 -0.842738 3.28151 0
M  V30 15151 C 1427.89 -1.32026 3.52486 0
M  V30 15152 C 1427.03 -0.305466 2.75612 0
M  V30 15153 H 1429.98 0.297566 1.55885 0
M  V30 15154 H 1430 -1.70414 3.40205 0
M  V30 15155 H 1429.52 0.056733 3.88059 0
M  V30 15156 H 1427.62 -2.23822 2.97883 0
M  V30 15157 H 1427.73 -1.29813 4.61178 0
M  V30 15158 H 1426.09 -0.782758 2.42374 0
M  V30 15159 H 1426.88 0.586279 3.38257 0
M  V30 15160 N 1429.32 -1.56304 -0.201686 0
M  V30 15161 C 1430.27 -1.94021 -1.24999 0
M  V30 15162 C 1431.24 -0.799926 -1.45569 0
M  V30 15163 O 1432.42 -1.05752 -1.58811 0
M  V30 15164 C 1429.56 -2.27935 -2.59113 0
M  V30 15165 C 1428.68 -3.54995 -2.46176 0
M  V30 15166 C 1427.81 -3.78262 -3.72949 0
M  V30 15167 C 1426.85 -4.9877 -3.54817 0
M  V30 15168 N 1425.99 -5.18325 -4.73586 0
M  V30 15169 H 1430.83 -2.834 -0.92134 0
M  V30 15170 H 1428.37 -1.40252 -0.44359 0
M  V30 15171 H 1430.32 -2.45613 -3.37239 0
M  V30 15172 H 1428.95 -1.41705 -2.90034 0
M  V30 15173 H 1428.01 -3.45401 -1.59381 0
M  V30 15174 H 1429.32 -4.43277 -2.28708 0
M  V30 15175 H 1428.47 -3.96144 -4.59516 0
M  V30 15176 H 1427.21 -2.88299 -3.93364 0
M  V30 15177 H 1426.22 -4.80818 -2.66635 0
M  V30 15178 H 1427.44 -5.90237 -3.35854 0
M  V30 15179 H 1425.39 -4.31308 -4.94277 0
M  V30 15180 H 1425.3 -6.00774 -4.58919 0
M  V30 15181 H 1426.57 -5.40659 -5.61523 0
M  V30 15182 N 1430.8 0.469154 -1.50455 0
M  V30 15183 C 1431.75 1.58765 -1.6999 0
M  V30 15184 C 1432.74 1.59673 -0.56577 0
M  V30 15185 O 1433.95 1.63799 -0.74632 0
M  V30 15186 H 1430.32 0.526868 -0.536577 0
M  V30 15187 H 1432.29 1.39451 -2.6381 0
M  V30 15188 C 1431.04 2.9669 -1.81302 0
M  V30 15189 H 1430.37 2.96711 -2.67961 0
M  V30 15190 H 1431.81 3.74403 -1.98994 0
M  V30 15191 C 1430.27 3.32127 -0.565086 0
M  V30 15192 O 1430.8 4.00616 0.294873 0
M  V30 15193 N 1429 2.8757 -0.418537 0
M  V30 15194 H 1428.55 2.32008 -1.11938 0
M  V30 15195 H 1428.51 3.11645 0.415276 0
M  V30 15196 N 1432.28 1.40065 0.722464 0
M  V30 15197 C 1433.51 1.41066 1.50944 0
M  V30 15198 C 1433.92 0.00678083 1.89199 0
M  V30 15199 O 1433.26 -0.977992 1.55502 0
M  V30 15200 C 1433.32 2.23127 2.81877 0
M  V30 15201 C 1432.99 3.7162 2.65984 0
M  V30 15202 C 1433.98 4.64415 2.33698 0
M  V30 15203 C 1431.67 4.15355 2.82463 0
M  V30 15204 C 1433.66 5.98928 2.18091 0
M  V30 15205 C 1431.35 5.49941 2.66474 0
M  V30 15206 C 1432.35 6.41542 2.34335 0
M  V30 15207 O 1432.03 7.73647 2.18461 0
M  V30 15208 H 1431.77 0.483321 0.472628 0
M  V30 15209 H 1434.32 1.84664 0.899356 0
M  V30 15210 H 1432.55 1.74298 3.45192 0
M  V30 15211 H 1434.24 2.16153 3.43559 0
M  V30 15212 H 1435.01 4.31924 2.20606 0
M  V30 15213 H 1430.88 3.44381 3.06468 0
M  V30 15214 H 1434.43 6.70391 1.92928 0
M  V30 15215 H 1430.33 5.82019 2.79149 0
M  V30 15216 H 1431.09 7.84507 2.33434 0
M  V30 15217 N 1433.76 -0.95397 1.25448 0
M  V30 15218 C 1434.69 -2.05412 1.01679 0
M  V30 15219 C 1435.7 -1.62789 -0.0184932 0
M  V30 15220 O 1436.89 -1.77137 0.220136 0
M  V30 15221 C 1433.99 -3.3496 0.515292 0
M  V30 15222 C 1433.16 -4.06418 1.61688 0
M  V30 15223 C 1432.22 -5.14237 1.11564 0
M  V30 15224 O 1431.25 -5.39649 1.81017 0
M  V30 15225 N 1432.45 -5.80484 -0.0427228 0
M  V30 15226 H 1435.22 -2.26372 1.96407 0
M  V30 15227 H 1432.78 -1.12257 1.16662 0
M  V30 15228 H 1434.77 -4.04366 0.164426 0
M  V30 15229 H 1433.34 -3.10767 -0.33807 0
M  V30 15230 H 1432.56 -3.31101 2.1393 0
M  V30 15231 H 1433.85 -4.50917 2.35693 0
M  V30 15232 H 1433.25 -5.62259 -0.623038 0
M  V30 15233 H 1431.8 -6.50941 -0.334615 0
M  V30 15234 N 1435.24 -1.07045 -1.15668 0
M  V30 15235 C 1436.17 -0.709413 -2.22463 0
M  V30 15236 C 1437.15 0.30169 -1.67403 0
M  V30 15237 O 1438.33 0.175131 -1.93409 0
M  V30 15238 C 1435.46 -0.103121 -3.47147 0
M  V30 15239 C 1434.42 -1.04103 -4.15146 0
M  V30 15240 C 1433.74 -0.297656 -5.33871 0
M  V30 15241 C 1435.04 -2.37332 -4.65264 0
M  V30 15242 H 1436.74 -1.60227 -2.52918 0
M  V30 15243 H 1434.28 -0.771846 -1.21567 0
M  V30 15244 H 1436.23 0.161371 -4.21091 0
M  V30 15245 H 1434.96 0.824792 -3.16014 0
M  V30 15246 H 1433.62 -1.2904 -3.43139 0
M  V30 15247 H 1433.27 0.633618 -4.98993 0
M  V30 15248 H 1432.97 -0.922789 -5.80309 0
M  V30 15249 H 1434.49 -0.0408892 -6.10586 0
M  V30 15250 H 1435.9 -2.1674 -5.30751 0
M  V30 15251 H 1434.3 -2.95412 -5.22352 0
M  V30 15252 H 1435.37 -2.99859 -3.81068 0
M  V30 15253 N 1436.71 1.32449 -0.85411 0
M  V30 15254 C 1437.94 2.01463 -0.471188 0
M  V30 15255 C 1438.36 1.64195 0.931954 0
M  V30 15256 O 1437.71 0.862994 1.60806 0
M  V30 15257 C 1437.76 3.56486 -0.600022 0
M  V30 15258 O 1437.49 3.92414 -1.94789 0
M  V30 15259 C 1438.99 4.42773 -0.216036 0
M  V30 15260 H 1436.21 0.644914 -0.185275 0
M  V30 15261 H 1438.75 1.6904 -1.1509 0
M  V30 15262 H 1436.91 3.87387 0.0319488 0
M  V30 15263 H 1437.32 4.87133 -1.94427 0
M  V30 15264 H 1438.79 5.50843 -0.357186 0
M  V30 15265 H 1439.27 4.31025 0.843468 0
M  V30 15266 H 1439.88 4.1726 -0.823058 0
M  V30 15267 N 1438.19 0.611994 1.45232 0
M  V30 15268 C 1439.42 0.113618 2.07089 0
M  V30 15269 C 1439.84 -1.1947 1.45288 0
M  V30 15270 O 1439.2 -1.72845 0.547207 0
M  V30 15271 C 1439.25 -0.00789978 3.60599 0
M  V30 15272 O 1438.35 -1.05697 3.98625 0
M  V30 15273 H 1437.69 0.076066 0.659629 0
M  V30 15274 H 1440.22 0.843253 1.86415 0
M  V30 15275 H 1440.23 -0.204692 4.07486 0
M  V30 15276 H 1438.91 0.947386 4.04966 0
M  V30 15277 H 1437.48 -0.836291 3.63401 0
M  V30 15278 N 1439.67 -1.53632 0.351409 0
M  V30 15279 C 1440.92 -2.00643 -0.242208 0
M  V30 15280 C 1441.24 -1.24074 -1.50435 0
M  V30 15281 O 1440.51 -0.350067 -1.92747 0
M  V30 15282 H 1439.09 -0.741252 -0.0924904 0
M  V30 15283 H 1441.75 -1.89039 0.474379 0
M  V30 15284 H 1440.85 -3.084 -0.479151 0
M  V30 15285 N 1441.15 -0.0802183 -1.57396 0
M  V30 15286 C 1442.38 0.59489 -1.9785 0
M  V30 15287 C 1442.79 1.63174 -0.957641 0
M  V30 15288 O 1442.13 1.83592 0.0629632 0
M  V30 15289 C 1442.19 1.31367 -3.34639 0
M  V30 15290 C 1441.85 0.429303 -4.54979 0
M  V30 15291 C 1442.85 -0.316537 -5.18935 0
M  V30 15292 C 1440.54 0.351714 -5.01067 0
M  V30 15293 C 1442.53 -1.1281 -6.27338 0
M  V30 15294 C 1440.22 -0.463513 -6.0934 0
M  V30 15295 C 1441.22 -1.20208 -6.72338 0
M  V30 15296 O 1440.9 -2.00385 -7.78525 0
M  V30 15297 H 1440.64 0.165331 -0.655471 0
M  V30 15298 H 1443.19 -0.151697 -2.04839 0
M  V30 15299 H 1441.42 2.10651 -3.24289 0
M  V30 15300 H 1443.11 1.88184 -3.59641 0
M  V30 15301 H 1443.87 -0.266237 -4.84269 0
M  V30 15302 H 1439.75 0.916218 -4.51804 0
M  V30 15303 H 1443.3 -1.70508 -6.76441 0
M  V30 15304 H 1439.19 -0.515347 -6.4344 0
M  V30 15305 H 1439.96 -1.92907 -7.95443 0
M  V30 15306 N 1442.63 1.56409 0.193394 0
M  V30 15307 C 1443.57 1.94681 1.23968 0
M  V30 15308 C 1444.54 0.807634 1.45143 0
M  V30 15309 O 1445.73 1.06593 1.58248 0
M  V30 15310 C 1442.87 2.29306 2.57901 0
M  V30 15311 C 1441.98 3.56296 2.4429 0
M  V30 15312 C 1441.12 3.80235 3.70938 0
M  V30 15313 C 1440.15 5.00645 3.52167 0
M  V30 15314 N 1439.29 5.20829 4.70831 0
M  V30 15315 H 1444.13 2.83884 0.906298 0
M  V30 15316 H 1441.67 1.40486 0.436146 0
M  V30 15317 H 1443.63 2.47398 3.35932 0
M  V30 15318 H 1442.26 1.43241 2.89278 0
M  V30 15319 H 1441.31 3.46241 1.57547 0
M  V30 15320 H 1442.62 4.44483 2.26354 0
M  V30 15321 H 1441.77 3.98575 4.57408 0
M  V30 15322 H 1440.51 2.90381 3.91829 0
M  V30 15323 H 1439.52 4.82225 2.64081 0
M  V30 15324 H 1440.74 5.92009 3.32719 0
M  V30 15325 H 1438.69 4.33923 4.91983 0
M  V30 15326 H 1438.61 6.03199 4.55726 0
M  V30 15327 H 1439.87 5.4363 5.58648 0
M  V30 15328 N 1444.1 -0.461169 1.50702 0
M  V30 15329 C 1445.51 -1.04177 1.54932 0
M  V30 15330 C 1445.87 -1.92894 0.358648 0
M  V30 15331 O 1444.99 -2.09876 -0.527346 0
M  V30 15332 C 1445.59 -1.8961 2.80773 0
M  V30 15333 C 1444.14 -2.42761 2.87652 0
M  V30 15334 C 1443.29 -1.21356 2.49335 0
M  V30 15335 H 1446.24 -0.243379 1.56823 0
M  V30 15336 H 1446.26 -2.74794 2.63189 0
M  V30 15337 H 1445.78 -1.25014 3.67414 0
M  V30 15338 H 1443.88 -3.10881 2.05386 0
M  V30 15339 H 1443.99 -2.77189 3.90772 0
M  V30 15340 H 1442.35 -1.55146 2.01995 0
M  V30 15341 H 1443.14 -0.584069 3.38295 0
M  V30 15342 N 1445.58 -1.40446 -0.715026 0
M  V30 15343 C 1446.54 -1.40506 -1.81082 0
M  V30 15344 C 1447.54 -0.298768 -1.58 0
M  V30 15345 O 1448.73 -0.5577 -1.65031 0
M  V30 15346 C 1445.87 -1.19735 -3.19181 0
M  V30 15347 H 1447.06 -2.38034 -1.82427 0
M  V30 15348 H 1444.61 -1.26303 -0.920718 0
M  V30 15349 H 1445.35 -0.229695 -3.23486 0
M  V30 15350 H 1445.13 -1.99871 -3.37334 0
M  V30 15351 H 1446.62 -1.22566 -3.99208 0
M  V30 15352 N 1447.06 0.947303 -1.25952 0
M  V30 15353 C 1448.47 1.50755 -1.10136 0
M  V30 15354 C 1448.82 1.93566 0.320437 0
M  V30 15355 O 1447.95 1.79326 1.21125 0
M  V30 15356 C 1448.54 2.7397 -1.99313 0
M  V30 15357 C 1447.1 3.26283 -1.8766 0
M  V30 15358 C 1446.25 1.99088 -1.93027 0
M  V30 15359 H 1449.2 0.763427 -1.39131 0
M  V30 15360 H 1449.22 3.48057 -1.53742 0
M  V30 15361 H 1448.73 2.42781 -3.02785 0
M  V30 15362 H 1446.83 3.62277 -0.870992 0
M  V30 15363 H 1446.95 3.93803 -2.72866 0
M  V30 15364 H 1445.31 2.14714 -1.37003 0
M  V30 15365 H 1446.09 1.70237 -2.98118 0
M  V30 15366 N 1448.54 1.07657 1.15099 0
M  V30 15367 C 1449.47 0.643791 2.18931 0
M  V30 15368 C 1450.45 -0.340546 1.58994 0
M  V30 15369 O 1451.63 -0.24623 1.86885 0
M  V30 15370 C 1448.76 -0.0541901 3.38657 0
M  V30 15371 C 1447.81 0.889081 4.1713 0
M  V30 15372 S 1448.64 2.39173 4.79121 0
M  V30 15373 C 1449.8 1.70563 6.02212 0
M  V30 15374 H 1450.03 1.52342 2.55302 0
M  V30 15375 H 1447.56 0.890824 1.2611 0
M  V30 15376 H 1449.52 -0.45064 4.08019 0
M  V30 15377 H 1448.18 -0.910208 3.00623 0
M  V30 15378 H 1447.37 0.347484 5.02801 0
M  V30 15379 H 1446.98 1.22606 3.53332 0
M  V30 15380 H 1449.27 1.01914 6.69791 0
M  V30 15381 H 1450.21 2.54078 6.60946 0
M  V30 15382 H 1450.62 1.18228 5.51981 0
M  V30 15383 N 1450.02 -1.31994 0.861122 0
M  V30 15384 C 1451.29 -1.91699 0.388705 0
M  V30 15385 C 1451.67 -1.78412 -1.12838 0
M  V30 15386 O 1451.02 -1.18625 -1.95296 0
M  V30 15387 C 1451.23 -3.38232 0.860248 0
M  V30 15388 C 1452.58 -4.15355 0.881201 0
M  V30 15389 O 1453.6 -3.46977 0.805313 0
M  V30 15390 O 1452.46 -5.37468 0.98945 0
M  V30 15391 H 1449.56 -0.819017 0.114629 0
M  V30 15392 H 1452.1 -1.40721 0.94845 0
M  V30 15393 H 1450.87 -3.41876 1.9036 0
M  V30 15394 H 1450.5 -3.96625 0.278316 0
M  V30 15395 N 1451.49 -0.619688 -1.44906 0
M  V30 15396 C 1452.42 0.0791121 -2.33366 0
M  V30 15397 C 1453.41 0.846503 -1.47541 0
M  V30 15398 O 1454.59 0.814657 -1.76287 0
M  V30 15399 C 1451.72 1.06901 -3.30438 0
M  V30 15400 C 1450.67 0.41403 -4.25993 0
M  V30 15401 C 1450 1.51303 -5.12846 0
M  V30 15402 C 1451.3 -0.672483 -5.17953 0
M  V30 15403 H 1452.99 -0.659551 -2.92045 0
M  V30 15404 H 1450.54 -0.318623 -1.40431 0
M  V30 15405 H 1452.49 1.56653 -3.912 0
M  V30 15406 H 1451.22 1.83842 -2.69944 0
M  V30 15407 H 1449.88 -0.0627315 -3.66546 0
M  V30 15408 H 1449.52 2.27303 -4.48712 0
M  V30 15409 H 1449.22 1.08022 -5.77586 0
M  V30 15410 H 1450.75 2.01258 -5.76479 0
M  V30 15411 H 1452.16 -0.258542 -5.72717 0
M  V30 15412 H 1450.56 -1.02776 -5.91234 0
M  V30 15413 H 1451.63 -1.54425 -4.59653 0
M  V30 15414 N 1452.97 1.53444 -0.359552 0
M  V30 15415 C 1454.2 2.06058 0.235576 0
M  V30 15416 C 1454.62 1.23175 1.42161 0
M  V30 15417 O 1453.98 0.249338 1.79577 0
M  V30 15418 C 1454.03 3.55351 0.613025 0
M  V30 15419 O 1453.13 3.75229 1.71104 0
M  V30 15420 H 1452.47 0.663038 0.0357266 0
M  V30 15421 H 1455 1.97923 -0.518408 0
M  V30 15422 H 1455.01 3.9827 0.885722 0
M  V30 15423 H 1453.69 4.15122 -0.254243 0
M  V30 15424 H 1452.27 3.4421 1.43437 0
M  V30 15425 N 1454.45 0.0885642 1.57351 0
M  V30 15426 C 1455.7 -0.576675 1.94115 0
M  V30 15427 C 1456.03 -1.68595 0.969842 0
M  V30 15428 O 1455.28 -1.95697 -0.0116998 0
M  V30 15429 C 1455.58 -1.17764 3.37441 0
M  V30 15430 C 1455.25 -0.192813 4.50488 0
M  V30 15431 C 1453.91 0.0780722 4.81137 0
M  V30 15432 C 1456.26 0.479997 5.18985 0
M  V30 15433 C 1453.59 1.02857 5.77613 0
M  V30 15434 C 1455.94 1.41892 6.16481 0
M  V30 15435 C 1454.6 1.69811 6.45539 0
M  V30 15436 H 1453.87 -0.21102 0.710318 0
M  V30 15437 H 1456.52 0.163009 1.90805 0
M  V30 15438 H 1454.83 -1.99343 3.37298 0
M  V30 15439 H 1456.52 -1.69994 3.63185 0
M  V30 15440 H 1453.11 -0.41413 4.26595 0
M  V30 15441 H 1457.3 0.283854 4.95488 0
M  V30 15442 H 1452.55 1.25194 5.98445 0
M  V30 15443 H 1456.73 1.94612 6.68655 0
M  V30 15444 H 1454.35 2.43621 7.20106 0
M  V30 15445 N 1455.93 -1.56509 -0.185096 0
M  V30 15446 C 1457.18 -1.804 -0.902158 0
M  V30 15447 C 1457.49 -0.663496 -1.84003 0
M  V30 15448 O 1458.7 -0.786963 -2.59844 0
M  V30 15449 C 1457.15 -3.19608 -1.65466 0
M  V30 15450 C 1456.76 -4.41487 -0.761109 0
M  V30 15451 C 1458.5 -3.52801 -2.36076 0
M  V30 15452 C 1456.41 -5.71717 -1.51305 0
M  V30 15453 H 1455.34 -0.67268 -0.340614 0
M  V30 15454 H 1457.99 -1.82842 -0.155273 0
M  V30 15455 H 1456.37 -3.11443 -2.44579 0
M  V30 15456 H 1457.55 -4.60799 -0.00791878 0
M  V30 15457 H 1455.86 -4.16072 -0.165344 0
M  V30 15458 H 1458.46 -4.47339 -2.92902 0
M  V30 15459 H 1458.8 -2.77021 -3.10749 0
M  V30 15460 H 1459.34 -3.62457 -1.63919 0
M  V30 15461 H 1456.08 -6.5049 -0.808907 0
M  V30 15462 H 1455.6 -5.56406 -2.23992 0
M  V30 15463 H 1457.27 -6.13188 -2.0642 0
M  V30 15464 N 1457.41 0.45317 -1.50944 0
M  V30 15465 C 1458.35 1.54885 -1.71112 0
M  V30 15466 C 1459.32 1.56639 -0.552566 0
M  V30 15467 O 1460.51 1.73894 -0.785203 0
M  V30 15468 C 1457.65 2.92729 -1.82766 0
M  V30 15469 C 1456.76 3.00626 -3.10239 0
M  V30 15470 C 1455.9 4.29495 -3.12582 0
M  V30 15471 C 1454.94 4.312 -4.34434 0
M  V30 15472 N 1454.07 5.51568 -4.34415 0
M  V30 15473 H 1458.91 1.36992 -2.64645 0
M  V30 15474 H 1456.45 0.665753 -1.31172 0
M  V30 15475 H 1458.41 3.7269 -1.87505 0
M  V30 15476 H 1457.04 3.09216 -0.926561 0
M  V30 15477 H 1456.09 2.13426 -3.14886 0
M  V30 15478 H 1457.4 2.97746 -4.00186 0
M  V30 15479 H 1456.56 5.17817 -3.16149 0
M  V30 15480 H 1455.29 4.35009 -2.20496 0
M  V30 15481 H 1454.3 3.41272 -4.3106 0
M  V30 15482 H 1455.52 4.27363 -5.27767 0
M  V30 15483 H 1453.47 5.57834 -3.45192 0
M  V30 15484 H 1453.39 5.50504 -5.18152 0
M  V30 15485 H 1454.66 6.41966 -4.42153 0
M  V30 15486 N 1458.88 1.40823 0.707568 0
M  V30 15487 C 1459.81 1.44485 1.83429 0
M  V30 15488 C 1460.8 0.304848 1.67346 0
M  V30 15489 O 1461.98 0.514605 1.87258 0
M  V30 15490 C 1459.11 1.31458 3.21459 0
M  V30 15491 C 1458.06 2.43145 3.52228 0
M  V30 15492 C 1457.39 2.15189 4.89487 0
M  V30 15493 C 1458.69 3.85489 3.52414 0
M  V30 15494 H 1460.38 2.38781 1.80622 0
M  V30 15495 H 1457.93 1.14931 0.867572 0
M  V30 15496 H 1459.88 1.32635 3.99983 0
M  V30 15497 H 1458.61 0.336422 3.24863 0
M  V30 15498 H 1457.27 2.41231 2.76049 0
M  V30 15499 H 1456.91 1.15745 4.89502 0
M  V30 15500 H 1456.61 2.90022 5.11039 0
M  V30 15501 H 1458.14 2.18062 5.70334 0
M  V30 15502 H 1459.55 3.89183 4.20963 0
M  V30 15503 H 1457.95 4.59906 3.85495 0
M  V30 15504 H 1459.02 4.14499 2.51632 0
M  V30 15505 N 1460.36 -0.94061 1.26453 0
M  V30 15506 C 1461.59 -1.72123 1.1481 0
M  V30 15507 C 1462.01 -1.86456 -0.296604 0
M  V30 15508 O 1461.36 -1.37234 -1.20304 0
M  V30 15509 C 1461.41 -3.1277 1.81266 0
M  V30 15510 O 1461.13 -2.99122 3.2009 0
M  V30 15511 C 1462.64 -4.07045 1.75584 0
M  V30 15512 H 1459.86 -0.538908 0.399774 0
M  V30 15513 H 1462.4 -1.17913 1.67083 0
M  V30 15514 H 1460.55 -3.6388 1.32928 0
M  V30 15515 H 1460.97 -3.87946 3.52984 0
M  V30 15516 H 1462.44 -5.03292 2.26719 0
M  V30 15517 H 1462.92 -4.33217 0.722466 0
M  V30 15518 H 1463.53 -3.61855 2.23475 0
M  V30 15519 N 1461.84 -1.08266 -1.14527 0
M  V30 15520 C 1463.25 -0.832702 -1.67102 0
M  V30 15521 C 1463.6 0.640776 -1.85441 0
M  V30 15522 O 1462.73 1.49505 -1.56452 0
M  V30 15523 C 1463.32 -1.50502 -3.03537 0
M  V30 15524 C 1461.88 -1.30234 -3.53152 0
M  V30 15525 C 1461.03 -1.56873 -2.28661 0
M  V30 15526 H 1463.98 -1.24344 -0.986118 0
M  V30 15527 H 1464 -0.931426 -3.68924 0
M  V30 15528 H 1463.51 -2.57741 -2.90157 0
M  V30 15529 H 1461.61 -0.250582 -3.71756 0
M  V30 15530 H 1461.73 -2.02898 -4.34015 0
M  V30 15531 H 1460.09 -0.990214 -2.34663 0
M  V30 15532 H 1460.87 -2.65316 -2.17859 0
M  V30 15533 N 1463.32 1.31536 -0.86811 0
M  V30 15534 C 1464.54 2.01487 -0.491705 0
M  V30 15535 C 1464.97 1.64744 0.907803 0
M  V30 15536 O 1464.33 0.855093 1.59868 0
M  V30 15537 C 1464.38 3.54621 -0.65395 0
M  V30 15538 O 1463.48 4.11252 0.307532 0
M  V30 15539 H 1462.82 0.634469 -0.195819 0
M  V30 15540 H 1465.35 1.67775 -1.17101 0
M  V30 15541 H 1465.36 4.04323 -0.546539 0
M  V30 15542 H 1464.04 3.80704 -1.67443 0
M  V30 15543 H 1462.61 3.72577 0.155233 0
M  V30 15544 N 1464.8 0.627364 1.44575 0
M  V30 15545 C 1465.73 -0.118179 2.28895 0
M  V30 15546 C 1466.74 -0.812569 1.41071 0
M  V30 15547 O 1467.93 -0.674646 1.6526 0
M  V30 15548 C 1465.03 -1.18937 3.17344 0
M  V30 15549 C 1464.2 -0.578226 4.33561 0
M  V30 15550 C 1463.26 -1.54288 5.03072 0
M  V30 15551 O 1462.29 -1.06148 5.59215 0
M  V30 15552 N 1463.49 -2.87725 5.04177 0
M  V30 15553 H 1466.26 0.605442 2.93521 0
M  V30 15554 H 1463.82 0.468253 1.54981 0
M  V30 15555 H 1465.81 -1.83494 3.60711 0
M  V30 15556 H 1464.38 -1.81526 2.54494 0
M  V30 15557 H 1463.6 0.245883 3.93432 0
M  V30 15558 H 1464.89 -0.150502 5.08577 0
M  V30 15559 H 1464.29 -3.29421 4.5989 0
M  V30 15560 H 1462.84 -3.47653 5.51344 0
M  V30 15561 N 1466.28 -1.53251 0.367684 0
M  V30 15562 C 1467.19 -2.29518 -0.485669 0
M  V30 15563 C 1468.2 -1.35568 -1.09075 0
M  V30 15564 O 1469.38 -1.68626 -1.10124 0
M  V30 15565 C 1466.44 -3.07115 -1.60876 0
M  V30 15566 C 1465.5 -4.16736 -1.031 0
M  V30 15567 C 1464.74 -4.90624 -2.10056 0
M  V30 15568 O 1464.96 -4.64393 -3.31203 0
M  V30 15569 O 1463.89 -5.76503 -1.72996 0
M  V30 15570 H 1467.72 -3.034 0.135017 0
M  V30 15571 H 1465.3 -1.48816 0.132005 0
M  V30 15572 H 1467.19 -3.55564 -2.26168 0
M  V30 15573 H 1465.86 -2.36068 -2.21481 0
M  V30 15574 H 1464.77 -3.72534 -0.341928 0
M  V30 15575 H 1466.1 -4.89956 -0.469473 0
M  V30 15576 N 1467.75 -0.0969077 -1.57302 0
M  V30 15577 C 1468.72 0.846895 -2.1298 0
M  V30 15578 C 1469.72 1.20962 -1.05947 0
M  V30 15579 O 1470.91 1.13876 -1.31826 0
M  V30 15580 C 1468.04 2.14215 -2.65188 0
M  V30 15581 H 1469.23 0.363398 -2.9769 0
M  V30 15582 H 1466.78 0.152107 -1.55558 0
M  V30 15583 H 1467.52 2.67046 -1.84002 0
M  V30 15584 H 1467.3 1.89176 -3.43445 0
M  V30 15585 H 1468.79 2.81728 -3.08252 0
M  V30 15586 N 1469.23 1.56605 0.176793 0
M  V30 15587 C 1470.16 1.91079 1.24756 0
M  V30 15588 C 1471.14 0.772947 1.43053 0
M  V30 15589 O 1472.33 1.02573 1.58149 0
M  V30 15590 C 1469.45 2.15695 2.61139 0
M  V30 15591 C 1468.5 3.38387 2.59609 0
M  V30 15592 S 1469.33 4.92933 2.09231 0
M  V30 15593 C 1470.49 5.20637 3.47402 0
M  V30 15594 H 1470.72 2.81602 0.953291 0
M  V30 15595 H 1468.25 1.49622 0.381117 0
M  V30 15596 H 1470.21 2.30558 3.39637 0
M  V30 15597 H 1468.87 1.25889 2.87769 0
M  V30 15598 H 1468.07 3.52794 3.59934 0
M  V30 15599 H 1467.67 3.22611 1.89203 0
M  V30 15600 H 1469.96 5.12279 4.4337 0
M  V30 15601 H 1470.9 6.22292 3.37874 0
M  V30 15602 H 1471.31 4.4822 3.4316 0
M  V30 15603 N 1470.71 -0.445159 1.51182 0
M  V30 15604 C 1471.96 -1.19701 1.63705 0
M  V30 15605 C 1472.29 -1.91047 0.348511 0
M  V30 15606 O 1471.56 -1.83264 -0.651497 0
M  V30 15607 C 1471.85 -2.22021 2.83511 0
M  V30 15608 C 1471.7 -1.54809 4.2232 0
M  V30 15609 C 1473.02 -3.23083 2.9884 0
M  V30 15610 H 1470.14 -0.433818 0.595795 0
M  V30 15611 H 1472.78 -0.487276 1.83645 0
M  V30 15612 H 1470.93 -2.82551 2.66641 0
M  V30 15613 H 1472.6 -0.976774 4.5084 0
M  V30 15614 H 1470.84 -0.850596 4.25379 0
M  V30 15615 H 1471.52 -2.29289 5.02126 0
M  V30 15616 H 1473.99 -2.72601 3.14369 0
M  V30 15617 H 1472.87 -3.91978 3.84246 0
M  V30 15618 H 1473.13 -3.88732 2.1057 0
M  V30 15619 N 1472.19 -1.41197 -0.700089 0
M  V30 15620 C 1473.46 -1.30803 -1.4543 0
M  V30 15621 C 1473.84 0.0664987 -2.10995 0
M  V30 15622 O 1473.19 1.08043 -2.01343 0
M  V30 15623 C 1473.4 -2.45815 -2.47742 0
M  V30 15624 C 1474.75 -2.86771 -3.13126 0
M  V30 15625 O 1475.77 -2.45521 -2.58065 0
M  V30 15626 O 1474.63 -3.58086 -4.1284 0
M  V30 15627 H 1471.73 -0.514523 -0.647453 0
M  V30 15628 H 1474.27 -1.53151 -0.73095 0
M  V30 15629 H 1473.05 -3.37557 -1.97917 0
M  V30 15630 H 1472.67 -2.25319 -3.27593 0
M  V30 15631 N 1473.67 0.933891 -1.2695 0
M  V30 15632 C 1474.61 2.03365 -1.09139 0
M  V30 15633 C 1475.58 1.66099 0.00573029 0
M  V30 15634 O 1476.77 1.90166 -0.155425 0
M  V30 15635 C 1473.91 3.37114 -0.738117 0
M  V30 15636 C 1473.02 3.87372 -1.91224 0
M  V30 15637 C 1472.16 5.0954 -1.50141 0
M  V30 15638 C 1471.19 5.52079 -2.64339 0
M  V30 15639 N 1470.33 6.65446 -2.23887 0
M  V30 15640 H 1475.17 2.17932 -2.03248 0
M  V30 15641 H 1472.71 1.0677 -1.01186 0
M  V30 15642 H 1474.67 4.1402 -0.514141 0
M  V30 15643 H 1473.3 3.22373 0.166007 0
M  V30 15644 H 1472.35 3.06801 -2.24894 0
M  V30 15645 H 1473.66 4.14875 -2.76912 0
M  V30 15646 H 1472.81 5.93928 -1.23831 0
M  V30 15647 H 1471.55 4.838 -0.615539 0
M  V30 15648 H 1470.56 4.66244 -2.9137 0
M  V30 15649 H 1471.78 5.79817 -3.53537 0
M  V30 15650 H 1469.73 6.41376 -1.37744 0
M  V30 15651 H 1469.65 6.92573 -3.03116 0
M  V30 15652 H 1470.91 7.53191 -2.00809 0
M  V30 15653 N 1475.14 1.08871 1.13951 0
M  V30 15654 C 1476.07 0.744715 2.21306 0
M  V30 15655 C 1477.05 -0.275019 1.67862 0
M  V30 15656 O 1478.24 -0.144339 1.93663 0
M  V30 15657 C 1475.37 0.158336 3.46939 0
M  V30 15658 C 1474.32 1.10695 4.13438 0
M  V30 15659 C 1473.65 0.382552 5.3333 0
M  V30 15660 C 1474.95 2.44704 4.61429 0
M  V30 15661 H 1476.64 1.6423 2.50337 0
M  V30 15662 H 1474.19 0.791088 1.20324 0
M  V30 15663 H 1476.14 -0.0943587 4.21294 0
M  V30 15664 H 1474.87 -0.774413 3.17286 0
M  V30 15665 H 1473.53 1.34482 3.41043 0
M  V30 15666 H 1473.17 -0.554153 4.99938 0
M  V30 15667 H 1472.87 1.01499 5.78767 0
M  V30 15668 H 1474.4 0.138023 6.10444 0
M  V30 15669 H 1475.81 2.25156 5.27236 0
M  V30 15670 H 1474.21 3.03684 5.17586 0
M  V30 15671 H 1475.28 3.05883 3.76249 0
M  V30 15672 N 1476.62 -1.31073 0.875073 0
M  V30 15673 C 1477.58 -2.26672 0.339481 0
M  V30 15674 C 1478.58 -1.52416 -0.512439 0
M  V30 15675 O 1479.77 -1.71217 -0.321012 0
M  V30 15676 C 1476.91 -3.36952 -0.517311 0
M  V30 15677 H 1478.1 -2.7556 1.18349 0
M  V30 15678 H 1475.65 -1.42093 0.65109 0
M  V30 15679 H 1476.39 -2.93364 -1.38231 0
M  V30 15680 H 1476.17 -3.9199 0.092773 0
M  V30 15681 H 1477.66 -4.08133 -0.884154 0
M  V30 15682 N 1478.1 -0.635022 -1.4424 0
M  V30 15683 C 1479.01 0.0686832 -2.34499 0
M  V30 15684 C 1480.03 0.831574 -1.52843 0
M  V30 15685 O 1481.2 0.782954 -1.85558 0
M  V30 15686 C 1478.27 1.03543 -3.30877 0
M  V30 15687 C 1477.33 0.271484 -4.28441 0
M  V30 15688 C 1476.56 1.19218 -5.20214 0
M  V30 15689 O 1476.78 2.43101 -5.16002 0
M  V30 15690 O 1475.72 0.6744 -5.9811 0
M  V30 15691 H 1479.54 -0.673781 -2.96132 0
M  V30 15692 H 1477.13 -0.395211 -1.44078 0
M  V30 15693 H 1479.01 1.59151 -3.90191 0
M  V30 15694 H 1477.69 1.75844 -2.71773 0
M  V30 15695 H 1476.59 -0.327736 -3.72662 0
M  V30 15696 H 1477.93 -0.411584 -4.90476 0
M  V30 15697 N 1479.58 1.53054 -0.375806 0
M  V30 15698 C 1480.53 2.27576 0.480838 0
M  V30 15699 C 1481.52 1.30948 1.07466 0
M  V30 15700 O 1482.73 1.48538 1.01669 0
M  V30 15701 H 1479.1 0.731641 0.173799 0
M  V30 15702 H 1481.07 2.97919 -0.169327 0
M  V30 15703 C 1479.82 3.08533 1.60321 0
M  V30 15704 H 1479.14 3.82735 1.15558 0
M  V30 15705 H 1480.58 3.63837 2.17712 0
M  V30 15706 C 1479.04 2.20004 2.55147 0
M  V30 15707 O 1479.57 1.81771 3.58221 0
M  V30 15708 N 1477.78 1.84433 2.24573 0
M  V30 15709 H 1477.33 2.15723 1.40788 0
M  V30 15710 H 1477.28 1.25488 2.88271 0
M  V30 15711 N 1481.06 0.105248 1.57248 0
M  V30 15712 C 1482.02 -0.835589 2.13426 0
M  V30 15713 C 1483.02 -1.20398 1.06587 0
M  V30 15714 O 1484.21 -1.13175 1.32428 0
M  V30 15715 C 1481.34 -2.12806 2.6632 0
M  V30 15716 H 1482.53 -0.347606 2.97879 0
M  V30 15717 H 1480.09 -0.143855 1.55637 0
M  V30 15718 H 1480.82 -2.66066 1.85416 0
M  V30 15719 H 1480.61 -1.87352 3.44444 0
M  V30 15720 H 1482.1 -2.80089 3.09741 0
M  V30 15721 N 1482.53 -1.56697 -0.168486 0
M  V30 15722 C 1483.48 -1.93039 -1.21325 0
M  V30 15723 C 1484.47 -0.799039 -1.39657 0
M  V30 15724 O 1485.66 -1.06226 -1.41581 0
M  V30 15725 C 1482.79 -2.29622 -2.55203 0
M  V30 15726 C 1481.88 -3.49278 -2.40553 0
M  V30 15727 N 1482.27 -4.6644 -1.95622 0
M  V30 15728 C 1480.56 -3.53941 -2.71371 0
M  V30 15729 C 1481.27 -5.48572 -1.93502 0
M  V30 15730 N 1480.24 -4.89693 -2.36012 0
M  V30 15731 H 1484.04 -2.81109 -0.857611 0
M  V30 15732 H 1481.56 -1.5797 -0.376734 0
M  V30 15733 H 1483.55 -2.53854 -3.30702 0
M  V30 15734 H 1482.21 -1.42893 -2.91568 0
M  V30 15735 H 1483.23 -4.90604 -1.65916 0
M  V30 15736 H 1479.9 -2.77697 -3.11754 0
M  V30 15737 H 1481.29 -6.52464 -1.60438 0
M  V30 15738 N 1484.01 0.437135 -1.51416 0
M  V30 15739 C 1484.96 1.55124 -1.73319 0
M  V30 15740 C 1485.95 1.58437 -0.599511 0
M  V30 15741 O 1487.16 1.62179 -0.780896 0
M  V30 15742 H 1483.54 0.515368 -0.547632 0
M  V30 15743 H 1485.51 1.33824 -2.66709 0
M  V30 15744 C 1484.26 2.92778 -1.87554 0
M  V30 15745 H 1483.58 2.9096 -2.74194 0
M  V30 15746 H 1485.02 3.70097 -2.06891 0
M  V30 15747 C 1483.48 3.30854 -0.635408 0
M  V30 15748 O 1484.01 4.01152 0.20983 0
M  V30 15749 N 1482.21 2.86618 -0.47944 0
M  V30 15750 H 1481.76 2.29582 -1.16834 0
M  V30 15751 H 1481.72 3.12456 0.349078 0
M  V30 15752 N 1485.49 1.41566 0.692592 0
M  V30 15753 C 1486.74 1.41292 1.4548 0
M  V30 15754 C 1487.07 0.0229093 1.94186 0
M  V30 15755 O 1486.34 -0.949849 1.6973 0
M  V30 15756 C 1486.63 2.42225 2.66457 0
M  V30 15757 C 1486.48 3.90345 2.23496 0
M  V30 15758 C 1487.8 2.40374 3.68658 0
M  V30 15759 H 1484.92 0.51453 0.527663 0
M  V30 15760 H 1487.56 1.72862 0.788598 0
M  V30 15761 H 1485.71 2.15435 3.23296 0
M  V30 15762 H 1487.38 4.2805 1.71962 0
M  V30 15763 H 1485.63 4.05068 1.55249 0
M  V30 15764 H 1486.3 4.56518 3.10314 0
M  V30 15765 H 1488.77 2.64156 3.21498 0
M  V30 15766 H 1487.65 3.13004 4.5091 0
M  V30 15767 H 1487.91 1.42338 4.1856 0
M  V30 15768 N 1486.97 -0.927146 1.27443 0
M  V30 15769 C 1488.21 -1.67775 1.14991 0
M  V30 15770 C 1488.57 -1.90029 -0.301107 0
M  V30 15771 O 1487.86 -1.47997 -1.21686 0
M  V30 15772 C 1488.06 -3.0472 1.86764 0
M  V30 15773 C 1487.89 -2.95829 3.38696 0
M  V30 15774 C 1486.66 -2.9808 4.08015 0
M  V30 15775 C 1488.85 -2.74905 4.34663 0
M  V30 15776 N 1486.84 -2.79636 5.46513 0
M  V30 15777 C 1488.21 -2.65172 5.60432 0
M  V30 15778 C 1490.26 -2.59797 4.24747 0
M  V30 15779 C 1488.96 -2.41872 6.77415 0
M  V30 15780 C 1490.99 -2.37874 5.41452 0
M  V30 15781 C 1490.35 -2.28884 6.66177 0
M  V30 15782 H 1486.45 -0.620709 0.475651 0
M  V30 15783 H 1489.04 -1.09605 1.60919 0
M  V30 15784 H 1487.21 -3.61002 1.43291 0
M  V30 15785 H 1488.94 -3.68722 1.66812 0
M  V30 15786 H 1485.69 -3.08329 3.59486 0
M  V30 15787 H 1486.12 -2.73544 6.19276 0
M  V30 15788 H 1490.76 -2.65506 3.29039 0
M  V30 15789 H 1488.48 -2.34903 7.73205 0
M  V30 15790 H 1492.06 -2.27069 5.35659 0
M  V30 15791 H 1490.94 -2.12149 7.54959 0
M  V30 15792 N 1488.45 -1.09474 -1.13372 0
M  V30 15793 C 1489.41 -0.738173 -2.16988 0
M  V30 15794 C 1490.41 0.232488 -1.5911 0
M  V30 15795 O 1491.6 0.0106093 -1.74197 0
M  V30 15796 C 1488.73 -0.091724 -3.40777 0
M  V30 15797 H 1489.92 -1.65582 -2.50045 0
M  V30 15798 H 1487.48 -0.893994 -1.28209 0
M  V30 15799 H 1488.21 0.837129 -3.13309 0
M  V30 15800 H 1488 -0.790161 -3.84056 0
M  V30 15801 H 1489.49 0.142334 -4.17357 0
M  V30 15802 N 1489.92 1.30607 -0.882012 0
M  V30 15803 C 1491.34 1.48859 -0.575599 0
M  V30 15804 C 1491.54 1.80908 0.887388 0
M  V30 15805 O 1490.6 1.89492 1.6688 0
M  V30 15806 C 1491.91 2.61405 -1.48619 0
M  V30 15807 C 1493.46 2.75286 -1.48951 0
M  V30 15808 C 1493.93 3.90942 -2.38596 0
M  V30 15809 N 1495.42 3.98248 -2.36543 0
M  V30 15810 C 1496.16 4.87041 -3.0262 0
M  V30 15811 N 1495.65 5.80651 -3.77911 0
M  V30 15812 N 1497.45 4.80385 -2.91867 0
M  V30 15813 H 1489.6 1.08076 -1.82848 0
M  V30 15814 H 1491.86 0.535148 -0.782509 0
M  V30 15815 H 1491.57 2.44535 -2.52775 0
M  V30 15816 H 1491.44 3.57818 -1.19358 0
M  V30 15817 H 1493.83 2.91564 -0.455477 0
M  V30 15818 H 1493.91 1.79504 -1.82242 0
M  V30 15819 H 1493.55 3.75422 -3.42083 0
M  V30 15820 H 1493.48 4.86057 -2.02623 0
M  V30 15821 H 1495.97 3.31282 -1.81827 0
M  V30 15822 H 1496.29 6.45159 -4.25428 0
M  V30 15823 H 1494.63 5.80592 -3.82019 0
M  V30 15824 H 1497.82 4.06234 -2.32576 0
M  V30 15825 H 1498 5.49377 -3.43641 0
M  V30 15826 N 1491.4 0.642663 1.43901 0
M  V30 15827 C 1492.68 0.0821715 1.95427 0
M  V30 15828 C 1493.06 -1.3951 1.58431 0
M  V30 15829 O 1492.41 -2.11531 0.864118 0
M  V30 15830 C 1492.62 0.317229 3.47555 0
M  V30 15831 C 1493.97 0.216547 4.24047 0
M  V30 15832 O 1494.99 0.249216 3.55327 0
M  V30 15833 O 1493.85 0.131269 5.46342 0
M  V30 15834 H 1490.94 -0.0156936 0.826851 0
M  V30 15835 H 1493.49 0.715168 1.53894 0
M  V30 15836 H 1492.26 1.34184 3.67574 0
M  V30 15837 H 1491.88 -0.349348 3.96062 0
M  V30 15838 N 1492.88 -1.52852 0.383918 0
M  V30 15839 C 1494.3 -1.59565 0.0336391 0
M  V30 15840 C 1494.5 -1.39819 -1.45097 0
M  V30 15841 O 1493.55 -1.21249 -2.21484 0
M  V30 15842 C 1494.87 -2.96412 0.506001 0
M  V30 15843 C 1496.41 -3.09575 0.461794 0
M  V30 15844 C 1496.89 -4.48863 0.910259 0
M  V30 15845 N 1498.38 -4.55032 0.866053 0
M  V30 15846 C 1499.12 -5.61032 1.18453 0
M  V30 15847 N 1498.61 -6.74701 1.57321 0
M  V30 15848 N 1500.4 -5.51109 1.10613 0
M  V30 15849 H 1492.56 -1.63937 1.3505 0
M  V30 15850 H 1494.82 -0.769857 0.553194 0
M  V30 15851 H 1494.52 -3.16061 1.54268 0
M  V30 15852 H 1494.4 -3.77073 -0.0977643 0
M  V30 15853 H 1496.79 -2.89625 -0.565786 0
M  V30 15854 H 1496.87 -2.30879 1.10129 0
M  V30 15855 H 1496.51 -4.69553 1.93604 0
M  V30 15856 H 1496.44 -5.26017 0.247825 0
M  V30 15857 H 1498.93 -3.73423 0.579962 0
M  V30 15858 H 1499.24 -7.51545 1.8 0
M  V30 15859 H 1497.59 -6.76046 1.61203 0
M  V30 15860 H 1500.78 -4.61187 0.801531 0
M  V30 15861 H 1500.95 -6.33618 1.35766 0
M  V30 15862 N 1494.36 -0.113586 -1.5719 0
M  V30 15863 C 1495.61 0.545507 -1.94183 0
M  V30 15864 C 1495.92 1.68176 -0.998816 0
M  V30 15865 O 1497.13 2.40324 -1.26319 0
M  V30 15866 C 1495.58 1.02178 -3.45091 0
M  V30 15867 C 1495.19 -0.0857195 -4.47918 0
M  V30 15868 C 1496.94 1.65255 -3.91013 0
M  V30 15869 C 1494.84 0.406946 -5.89998 0
M  V30 15870 H 1493.77 0.20755 -0.724872 0
M  V30 15871 H 1496.42 -0.192567 -1.82487 0
M  V30 15872 H 1494.81 1.81411 -3.52003 0
M  V30 15873 H 1495.98 -0.861821 -4.52669 0
M  V30 15874 H 1494.29 -0.622816 -4.11716 0
M  V30 15875 H 1496.89 2.0322 -4.94576 0
M  V30 15876 H 1497.23 2.52888 -3.30687 0
M  V30 15877 H 1497.77 0.925727 -3.86879 0
M  V30 15878 H 1494.51 -0.433199 -6.54067 0
M  V30 15879 H 1494.03 1.14965 -5.88679 0
M  V30 15880 H 1495.71 0.869934 -6.41125 0
M  V30 15881 N 1495.84 1.56784 0.160173 0
M  V30 15882 C 1497.25 1.51153 0.512352 0
M  V30 15883 C 1497.45 0.819774 1.84071 0
M  V30 15884 O 1496.51 0.384789 2.49551 0
M  V30 15885 C 1497.82 2.95906 0.534817 0
M  V30 15886 C 1499.37 3.06773 0.621248 0
M  V30 15887 C 1499.85 4.53006 0.674501 0
M  V30 15888 N 1501.34 4.57298 0.737087 0
M  V30 15889 C 1502.07 5.67805 0.799054 0
M  V30 15890 N 1501.57 6.87916 0.821171 0
M  V30 15891 N 1503.36 5.55804 0.838928 0
M  V30 15892 H 1495.51 2.00157 -0.710712 0
M  V30 15893 H 1497.77 0.91233 -0.257601 0
M  V30 15894 H 1497.48 3.49719 -0.372773 0
M  V30 15895 H 1497.35 3.51152 1.3774 0
M  V30 15896 H 1499.74 2.52987 1.51926 0
M  V30 15897 H 1499.82 2.54593 -0.248224 0
M  V30 15898 H 1499.47 5.07426 -0.219301 0
M  V30 15899 H 1499.4 5.02954 1.56028 0
M  V30 15900 H 1501.89 3.70825 0.727827 0
M  V30 15901 H 1502.2 7.67888 0.869938 0
M  V30 15902 H 1500.55 6.90504 0.789264 0
M  V30 15903 H 1503.74 4.60884 0.818728 0
M  V30 15904 H 1503.91 6.41945 0.883757 0
M  V30 15905 N 1497.32 -0.429099 1.51646 0
M  V30 15906 C 1498.25 -1.53996 1.69758 0
M  V30 15907 C 1499.26 -1.52189 0.578138 0
M  V30 15908 O 1500.45 -1.56816 0.852709 0
M  V30 15909 C 1497.55 -2.9291 1.7046 0
M  V30 15910 C 1496.72 -3.19132 2.99122 0
M  V30 15911 C 1495.78 -4.37813 2.91901 0
M  V30 15912 O 1494.81 -4.36065 3.65836 0
M  V30 15913 N 1496.01 -5.41834 2.08317 0
M  V30 15914 H 1498.77 -1.38861 2.65589 0
M  V30 15915 H 1496.34 -0.618148 1.49635 0
M  V30 15916 H 1498.33 -3.7034 1.63187 0
M  V30 15917 H 1496.9 -3.01602 0.821877 0
M  V30 15918 H 1496.12 -2.29926 3.20199 0
M  V30 15919 H 1497.41 -3.33483 3.84274 0
M  V30 15920 H 1496.8 -5.46094 1.4764 0
M  V30 15921 H 1495.36 -6.18085 2.06917 0
M  V30 15922 N 1498.79 -1.41931 -0.685074 0
M  V30 15923 C 1500.04 -1.41571 -1.44229 0
M  V30 15924 C 1500.36 -0.0294445 -1.94978 0
M  V30 15925 O 1499.63 0.930414 -1.72395 0
M  V30 15926 H 1498.21 -0.521138 -0.535186 0
M  V30 15927 H 1500.87 -1.77263 -0.81017 0
M  V30 15928 H 1499.97 -2.10929 -2.30034 0
M  V30 15929 N 1500.27 0.920374 -1.27933 0
M  V30 15930 C 1501.52 1.67163 -1.1588 0
M  V30 15931 C 1501.87 1.90186 0.291025 0
M  V30 15932 O 1501.17 1.4864 1.209 0
M  V30 15933 C 1501.36 3.03725 -1.88377 0
M  V30 15934 C 1501.19 2.94029 -3.4026 0
M  V30 15935 C 1499.96 2.95912 -4.0959 0
M  V30 15936 C 1502.16 2.72596 -4.36115 0
M  V30 15937 N 1500.14 2.76734 -5.47988 0
M  V30 15938 C 1501.51 2.62196 -5.6183 0
M  V30 15939 C 1503.56 2.57541 -4.26119 0
M  V30 15940 C 1502.27 2.38276 -6.78688 0
M  V30 15941 C 1504.29 2.35 -5.42705 0
M  V30 15942 C 1503.66 2.25348 -6.67381 0
M  V30 15943 H 1499.75 0.618178 -0.478936 0
M  V30 15944 H 1502.34 1.0875 -1.61498 0
M  V30 15945 H 1500.51 3.60237 -1.45203 0
M  V30 15946 H 1502.24 3.67832 -1.68765 0
M  V30 15947 H 1499 3.06418 -3.61116 0
M  V30 15948 H 1499.42 2.70256 -6.20718 0
M  V30 15949 H 1504.06 2.63757 -3.30442 0
M  V30 15950 H 1501.78 2.30799 -7.7444 0
M  V30 15951 H 1505.37 2.24225 -5.36856 0
M  V30 15952 H 1504.25 2.08143 -7.56073 0
M  V30 15953 N 1501.75 1.10074 1.1279 0
M  V30 15954 C 1502.98 0.862906 1.88047 0
M  V30 15955 C 1503.39 -0.586346 1.79464 0
M  V30 15956 O 1502.75 -1.40402 1.16591 0
M  V30 15957 C 1502.8 1.29784 3.37399 0
M  V30 15958 O 1502.52 2.69026 3.4577 0
M  V30 15959 C 1504.02 1.09336 4.29605 0
M  V30 15960 H 1501.24 0.309981 0.595108 0
M  V30 15961 H 1503.79 1.46444 1.42738 0
M  V30 15962 H 1501.94 0.740056 3.80266 0
M  V30 15963 H 1502.36 2.87532 4.38663 0
M  V30 15964 H 1503.83 1.44687 5.327 0
M  V30 15965 H 1504.31 0.031679 4.39189 0
M  V30 15966 H 1504.91 1.63743 3.92516 0
M  V30 15967 N 1503.23 -1.30138 0.888926 0
M  V30 15968 C 1504.46 -1.99853 0.523676 0
M  V30 15969 C 1504.87 -1.66783 -0.893312 0
M  V30 15970 O 1504.21 -0.903292 -1.59957 0
M  V30 15971 C 1504.27 -3.54055 0.623332 0
M  V30 15972 C 1503.93 -4.10652 2.00534 0
M  V30 15973 C 1504.93 -4.26353 2.97522 0
M  V30 15974 C 1502.62 -4.45938 2.3118 0
M  V30 15975 C 1504.61 -4.76557 4.23288 0
M  V30 15976 C 1502.3 -4.95841 3.57191 0
M  V30 15977 C 1503.3 -5.11103 4.53059 0
M  V30 15978 O 1502.98 -5.59927 5.76833 0
M  V30 15979 H 1502.72 -0.645553 0.200591 0
M  V30 15980 H 1505.27 -1.66899 1.19724 0
M  V30 15981 H 1503.5 -3.86551 -0.107221 0
M  V30 15982 H 1505.19 -4.05009 0.26879 0
M  V30 15983 H 1505.95 -3.9939 2.75159 0
M  V30 15984 H 1501.83 -4.33324 1.57326 0
M  V30 15985 H 1505.38 -4.88385 4.98123 0
M  V30 15986 H 1501.27 -5.22239 3.7939 0
M  V30 15987 H 1502.04 -5.78263 5.79271 0
M  V30 15988 N 1504.71 -0.650285 -1.43559 0
M  V30 15989 C 1505.95 -0.162164 -2.01448 0
M  V30 15990 C 1506.27 1.22717 -1.51544 0
M  V30 15991 O 1505.54 1.81917 -0.726855 0
M  V30 15992 H 1504.12 -0.0569599 -0.744825 0
M  V30 15993 H 1506.79 -0.841294 -1.75807 0
M  V30 15994 H 1505.88 -0.144531 -3.11765 0
M  V30 15995 N 1506.18 1.52647 -0.392018 0
M  V30 15996 C 1507.43 2.00798 0.19056 0
M  V30 15997 C 1507.75 1.28265 1.47673 0
M  V30 15998 O 1508.95 1.67142 2.13953 0
M  V30 15999 C 1507.41 3.57779 0.390148 0
M  V30 16000 C 1507.02 4.39213 -0.882933 0
M  V30 16001 C 1508.76 4.14211 0.928945 0
M  V30 16002 C 1506.67 5.87801 -0.651474 0
M  V30 16003 H 1505.6 0.750262 0.0749879 0
M  V30 16004 H 1508.25 1.7613 -0.514835 0
M  V30 16005 H 1506.63 3.78707 1.15746 0
M  V30 16006 H 1507.8 4.30051 -1.65507 0
M  V30 16007 H 1506.12 3.94015 -1.34688 0
M  V30 16008 H 1508.72 5.22884 1.11787 0
M  V30 16009 H 1509.06 3.70475 1.89878 0
M  V30 16010 H 1509.59 3.97185 0.221135 0
M  V30 16011 H 1506.33 6.35864 -1.59239 0
M  V30 16012 H 1505.85 5.99744 0.0816786 0
M  V30 16013 H 1507.53 6.46363 -0.287057 0
M  V30 16014 N 1507.66 0.121921 1.57128 0
M  V30 16015 C 1508.59 -0.857725 2.12546 0
M  V30 16016 C 1509.61 -1.22797 1.06886 0
M  V30 16017 O 1510.8 -1.17641 1.34249 0
M  V30 16018 C 1507.9 -2.15869 2.61254 0
M  V30 16019 C 1507.07 -1.95969 3.91043 0
M  V30 16020 C 1506.13 -3.09822 4.2532 0
M  V30 16021 O 1505.15 -2.82608 4.94087 0
M  V30 16022 N 1506.36 -4.36333 3.82875 0
M  V30 16023 H 1509.12 -0.384239 2.97227 0
M  V30 16024 H 1506.68 -0.062416 1.6178 0
M  V30 16025 H 1508.67 -2.91035 2.81213 0
M  V30 16026 H 1507.24 -2.54557 1.81437 0
M  V30 16027 H 1506.46 -1.04979 3.79965 0
M  V30 16028 H 1507.75 -1.79981 4.75904 0
M  V30 16029 H 1507.15 -4.61318 3.27417 0
M  V30 16030 H 1505.71 -5.08362 4.07936 0
M  V30 16031 N 1509.14 -1.56867 -0.151857 0
M  V30 16032 C 1510.07 -1.94494 -1.21263 0
M  V30 16033 C 1511.09 -0.84021 -1.39443 0
M  V30 16034 O 1512.27 -1.11863 -1.391 0
M  V30 16035 C 1509.37 -2.19952 -2.57826 0
M  V30 16036 C 1508.55 -3.51227 -2.60689 0
M  V30 16037 C 1507.61 -3.65282 -3.78756 0
M  V30 16038 O 1506.63 -4.3772 -3.63854 0
M  V30 16039 N 1507.83 -3.01582 -4.96012 0
M  V30 16040 H 1510.6 -2.86092 -0.892845 0
M  V30 16041 H 1508.16 -1.58258 -0.341463 0
M  V30 16042 H 1510.15 -2.266 -3.35312 0
M  V30 16043 H 1508.72 -1.34643 -2.82117 0
M  V30 16044 H 1507.94 -3.56062 -1.69155 0
M  V30 16045 H 1509.23 -4.37574 -2.59628 0
M  V30 16046 H 1508.63 -2.42637 -5.11022 0
M  V30 16047 H 1507.19 -3.13799 -5.71291 0
M  V30 16048 N 1510.62 0.421051 -1.51871 0
M  V30 16049 C 1511.9 1.18133 -1.55897 0
M  V30 16050 C 1512.28 2.08459 -0.332876 0
M  V30 16051 O 1511.62 2.18114 0.681052 0
M  V30 16052 C 1511.83 1.96902 -2.88151 0
M  V30 16053 C 1513.18 2.53382 -3.4071 0
M  V30 16054 O 1514.21 2.07095 -2.89811 0
M  V30 16055 O 1513.06 3.37846 -4.29561 0
M  V30 16056 H 1510.16 0.538721 -0.627462 0
M  V30 16057 H 1512.7 0.428798 -1.64193 0
M  V30 16058 H 1511.48 1.30659 -3.68841 0
M  V30 16059 H 1511.1 2.79185 -2.83093 0
M  V30 16060 N 1512.1 1.42293 0.677538 0
M  V30 16061 C 1513.34 1.42827 1.43973 0
M  V30 16062 C 1513.68 0.0435041 1.94151 0
M  V30 16063 O 1512.95 -0.931794 1.70727 0
M  V30 16064 C 1513.23 2.45037 2.63873 0
M  V30 16065 C 1513.09 3.92694 2.19344 0
M  V30 16066 C 1514.41 2.4427 3.66087 0
M  V30 16067 H 1511.52 0.520097 0.522176 0
M  V30 16068 H 1514.17 1.73688 0.770219 0
M  V30 16069 H 1512.32 2.18851 3.20993 0
M  V30 16070 H 1513.99 4.2985 1.67412 0
M  V30 16071 H 1512.23 4.06692 1.50944 0
M  V30 16072 H 1512.9 4.59784 3.05455 0
M  V30 16073 H 1515.38 2.67551 3.18678 0
M  V30 16074 H 1514.25 3.17769 4.47564 0
M  V30 16075 H 1514.52 1.46769 4.17027 0
M  V30 16076 N 1513.57 -0.913576 1.28419 0
M  V30 16077 C 1514.52 -2.01603 1.12361 0
M  V30 16078 C 1515.49 -1.66087 0.0206953 0
M  V30 16079 O 1516.68 -1.89895 0.185659 0
M  V30 16080 C 1513.82 -3.35897 0.791655 0
M  V30 16081 C 1512.93 -3.84281 1.97363 0
M  V30 16082 C 1512.06 -5.07087 1.58228 0
M  V30 16083 C 1511.1 -5.47804 2.73089 0
M  V30 16084 N 1510.24 -6.618 2.34446 0
M  V30 16085 H 1515.08 -2.1467 2.0669 0
M  V30 16086 H 1512.62 -1.05147 1.02871 0
M  V30 16087 H 1514.58 -4.13149 0.579943 0
M  V30 16088 H 1513.21 -3.22596 -0.114699 0
M  V30 16089 H 1512.26 -3.03184 2.29746 0
M  V30 16090 H 1513.57 -4.10417 2.83477 0
M  V30 16091 H 1512.72 -5.91883 1.33264 0
M  V30 16092 H 1511.46 -4.82759 0.692429 0
M  V30 16093 H 1510.47 -4.61549 2.98751 0
M  V30 16094 H 1511.69 -5.74119 3.62717 0
M  V30 16095 H 1509.64 -6.39103 1.4793 0
M  V30 16096 H 1509.56 -6.87663 3.14096 0
M  V30 16097 H 1510.82 -7.49901 2.12766 0
M  V30 16098 N 1515.05 -1.1067 -1.12204 0
M  V30 16099 C 1516 -0.752659 -2.20086 0
M  V30 16100 C 1516.99 0.252284 -1.67511 0
M  V30 16101 O 1518.2 0.112398 -1.79649 0
M  V30 16102 H 1514.58 -0.225473 -0.717402 0
M  V30 16103 H 1516.55 -1.67136 -2.472 0
M  V30 16104 C 1515.3 -0.203345 -3.47105 0
M  V30 16105 H 1514.62 -0.967864 -3.87908 0
M  V30 16106 H 1516.06 0.00629123 -4.24 0
M  V30 16107 C 1514.52 1.06452 -3.1964 0
M  V30 16108 O 1515.05 2.14562 -3.39597 0
M  V30 16109 N 1513.25 0.984122 -2.73429 0
M  V30 16110 H 1512.8 0.104258 -2.57389 0
M  V30 16111 H 1512.76 1.83312 -2.55429 0
M  V30 16112 N 1516.53 1.29665 -0.895815 0
M  V30 16113 C 1517.95 1.4824 -0.591355 0
M  V30 16114 C 1518.15 1.81839 0.86815 0
M  V30 16115 O 1517.2 1.91251 1.64861 0
M  V30 16116 C 1518.52 2.59814 -1.51384 0
M  V30 16117 C 1520.06 2.73691 -1.51862 0
M  V30 16118 C 1520.54 3.8839 -2.42729 0
M  V30 16119 N 1522.03 3.95717 -2.40754 0
M  V30 16120 C 1522.76 4.83804 -3.07769 0
M  V30 16121 N 1522.26 5.7661 -3.84048 0
M  V30 16122 N 1524.05 4.77263 -2.96946 0
M  V30 16123 H 1516.2 1.06131 -1.83984 0
M  V30 16124 H 1518.47 0.526819 -0.788141 0
M  V30 16125 H 1518.17 2.4184 -2.55355 0
M  V30 16126 H 1518.05 3.56532 -1.23147 0
M  V30 16127 H 1520.43 2.91064 -0.486375 0
M  V30 16128 H 1520.52 1.77561 -1.84135 0
M  V30 16129 H 1520.16 3.71773 -3.46045 0
M  V30 16130 H 1520.09 4.8388 -2.07767 0
M  V30 16131 H 1522.58 3.29334 -1.8533 0
M  V30 16132 H 1522.89 6.40611 -4.32247 0
M  V30 16133 H 1521.24 5.76507 -3.88155 0
M  V30 16134 H 1524.43 4.03744 -2.36871 0
M  V30 16135 H 1524.6 5.45701 -3.49448 0
M  V30 16136 N 1518.01 0.657889 1.43212 0
M  V30 16137 C 1519.42 0.325876 1.56238 0
M  V30 16138 C 1519.62 -1.16975 1.6407 0
M  V30 16139 O 1518.68 -1.95473 1.59833 0
M  V30 16140 C 1519.99 1.04134 2.82093 0
M  V30 16141 C 1521.54 1.02204 2.95844 0
M  V30 16142 C 1522.02 1.71849 4.24537 0
M  V30 16143 N 1523.51 1.68635 4.31412 0
M  V30 16144 C 1524.24 2.19393 5.29768 0
M  V30 16145 N 1523.74 2.7846 6.34375 0
M  V30 16146 N 1525.53 2.09866 5.21452 0
M  V30 16147 H 1517.68 1.62839 1.36371 0
M  V30 16148 H 1519.95 0.685072 0.655271 0
M  V30 16149 H 1519.65 2.09647 2.82385 0
M  V30 16150 H 1519.53 0.595842 3.72464 0
M  V30 16151 H 1521.91 -0.0247029 2.9509 0
M  V30 16152 H 1521.99 1.50627 2.06749 0
M  V30 16153 H 1521.64 2.76482 4.26052 0
M  V30 16154 H 1521.57 1.20888 5.12536 0
M  V30 16155 H 1524.06 1.25536 3.56439 0
M  V30 16156 H 1524.37 3.14855 7.05752 0
M  V30 16157 H 1522.72 2.82523 6.34985 0
M  V30 16158 H 1525.91 1.63422 4.38647 0
M  V30 16159 H 1526.08 2.49732 5.97945 0
M  V30 16160 N 1519.49 -1.52437 0.400108 0
M  V30 16161 C 1520.43 -2.28312 -0.444572 0
M  V30 16162 C 1521.43 -1.32641 -1.0537 0
M  V30 16163 O 1522.63 -1.50136 -0.99293 0
M  V30 16164 H 1519.01 -0.734313 -0.162137 0
M  V30 16165 H 1520.98 -2.97612 0.216702 0
M  V30 16166 C 1519.73 -3.11044 -1.55393 0
M  V30 16167 H 1519.05 -3.84525 -1.09455 0
M  V30 16168 H 1520.49 -3.67255 -2.11896 0
M  V30 16169 C 1518.95 -2.24035 -2.51614 0
M  V30 16170 O 1519.48 -1.87447 -3.55284 0
M  V30 16171 N 1517.69 -1.87982 -2.2161 0
M  V30 16172 H 1517.23 -2.17936 -1.37338 0
M  V30 16173 H 1517.19 -1.30058 -2.86238 0
M  V30 16174 N 1520.96 -0.130252 -1.57061 0
M  V30 16175 C 1522.38 0.393318 -1.8251 0
M  V30 16176 C 1522.73 1.65862 -1.04806 0
M  V30 16177 O 1521.85 2.14473 -0.288118 0
M  V30 16178 C 1522.45 0.720366 -3.31053 0
M  V30 16179 C 1521.01 1.18852 -3.57143 0
M  V30 16180 C 1520.15 0.202964 -2.76556 0
M  V30 16181 H 1523.1 -0.355217 -1.54674 0
M  V30 16182 H 1523.12 1.57671 -3.46295 0
M  V30 16183 H 1522.64 -0.200719 -3.87581 0
M  V30 16184 H 1520.74 2.12612 -3.05985 0
M  V30 16185 H 1520.85 1.12607 -4.65678 0
M  V30 16186 H 1519.21 0.692264 -2.45112 0
M  V30 16187 H 1520 -0.711417 -3.35848 0
M  V30 16188 N 1522.44 1.56945 0.143535 0
M  V30 16189 C 1523.86 1.51688 0.496291 0
M  V30 16190 C 1524.06 0.839251 1.83191 0
M  V30 16191 O 1523.12 0.411235 2.49129 0
M  V30 16192 C 1524.43 2.96456 0.503402 0
M  V30 16193 C 1525.98 3.07414 0.588676 0
M  V30 16194 C 1526.45 4.53696 0.626416 0
M  V30 16195 N 1527.94 4.58054 0.688543 0
M  V30 16196 C 1528.68 5.68621 0.738786 0
M  V30 16197 N 1528.17 6.88748 0.748163 0
M  V30 16198 N 1529.97 5.56663 0.779931 0
M  V30 16199 H 1522.12 1.99392 -0.731901 0
M  V30 16200 H 1524.38 0.909546 -0.267263 0
M  V30 16201 H 1524.09 3.49304 -0.409845 0
M  V30 16202 H 1523.96 3.52593 1.34008 0
M  V30 16203 H 1526.35 2.54584 1.49234 0
M  V30 16204 H 1526.43 2.54315 -0.275213 0
M  V30 16205 H 1526.07 5.07165 -0.273108 0
M  V30 16206 H 1526 5.04581 1.50684 0
M  V30 16207 H 1528.49 3.71576 0.688455 0
M  V30 16208 H 1528.81 7.68767 0.788444 0
M  V30 16209 H 1527.15 6.91302 0.715982 0
M  V30 16210 H 1530.34 4.61727 0.769799 0
M  V30 16211 H 1530.52 6.42847 0.815621 0
M  V30 16212 N 1523.92 -0.412991 1.52093 0
M  V30 16213 C 1524.85 -1.50986 1.78117 0
M  V30 16214 C 1525.83 -1.57925 0.631963 0
M  V30 16215 O 1527.02 -1.73261 0.877168 0
M  V30 16216 C 1524.15 -2.88846 1.92835 0
M  V30 16217 C 1523.1 -2.96759 3.08412 0
M  V30 16218 C 1522.43 -4.36837 3.08347 0
M  V30 16219 C 1523.73 -2.68599 4.47942 0
M  V30 16220 H 1525.42 -1.29459 2.69964 0
M  V30 16221 H 1522.97 -0.621348 1.29905 0
M  V30 16222 H 1524.92 -3.65563 2.09623 0
M  V30 16223 H 1523.64 -3.11658 0.976553 0
M  V30 16224 H 1522.3 -2.22487 2.91368 0
M  V30 16225 H 1521.95 -4.56652 2.10897 0
M  V30 16226 H 1521.65 -4.43056 3.85973 0
M  V30 16227 H 1523.18 -5.15493 3.2726 0
M  V30 16228 H 1524.59 -3.35039 4.65212 0
M  V30 16229 H 1522.99 -2.86199 5.27456 0
M  V30 16230 H 1524.06 -1.64058 4.56304 0
M  V30 16231 N 1525.4 -1.4265 -0.669982 0
M  V30 16232 C 1526.65 -1.43589 -1.43213 0
M  V30 16233 C 1526.98 -0.0537998 -1.94125 0
M  V30 16234 O 1526.25 0.922727 -1.71219 0
M  V30 16235 C 1526.54 -2.46433 -2.62569 0
M  V30 16236 C 1526.39 -3.93851 -2.17258 0
M  V30 16237 C 1527.71 -2.46208 -3.64787 0
M  V30 16238 H 1524.83 -0.522859 -0.519411 0
M  V30 16239 H 1527.47 -1.74094 -0.760997 0
M  V30 16240 H 1525.62 -2.20551 -3.19828 0
M  V30 16241 H 1527.29 -4.30732 -1.6513 0
M  V30 16242 H 1525.53 -4.07487 -1.48786 0
M  V30 16243 H 1526.21 -4.61398 -3.03012 0
M  V30 16244 H 1528.68 -2.69237 -3.17255 0
M  V30 16245 H 1527.56 -3.20138 -4.45873 0
M  V30 16246 H 1527.82 -1.48979 -4.16242 0
M  V30 16247 N 1526.88 0.906753 -1.28902 0
M  V30 16248 C 1528.29 1.47175 -1.14876 0
M  V30 16249 C 1528.64 1.94487 0.258693 0
M  V30 16250 O 1527.76 1.83088 1.15359 0
M  V30 16251 C 1528.36 2.67491 -2.07928 0
M  V30 16252 C 1526.92 3.20148 -1.97946 0
M  V30 16253 C 1526.07 1.92846 -1.99263 0
M  V30 16254 H 1529.02 0.718777 -1.4149 0
M  V30 16255 H 1529.04 3.42989 -1.64738 0
M  V30 16256 H 1528.55 2.33025 -3.10356 0
M  V30 16257 H 1526.65 3.59322 -0.985806 0
M  V30 16258 H 1526.76 3.84923 -2.85256 0
M  V30 16259 H 1525.13 2.10247 -1.43765 0
M  V30 16260 H 1525.91 1.60666 -3.03383 0
M  V30 16261 N 1528.36 1.11264 1.11616 0
M  V30 16262 C 1529.59 0.881522 1.8685 0
M  V30 16263 C 1529.99 -0.572088 1.80344 0
M  V30 16264 O 1529.34 -1.40665 1.18148 0
M  V30 16265 C 1529.4 1.26245 3.36604 0
M  V30 16266 C 1529.06 2.72485 3.6688 0
M  V30 16267 C 1530.06 3.70708 3.64516 0
M  V30 16268 C 1527.74 3.09086 3.95943 0
M  V30 16269 C 1529.74 5.0355 3.90789 0
M  V30 16270 C 1527.43 4.42114 4.21875 0
M  V30 16271 C 1528.42 5.39155 4.19286 0
M  V30 16272 O 1528.11 6.69787 4.44568 0
M  V30 16273 H 1527.84 0.315647 0.597782 0
M  V30 16274 H 1530.4 1.48317 1.42095 0
M  V30 16275 H 1528.63 0.603938 3.81955 0
M  V30 16276 H 1530.32 1.00744 3.93199 0
M  V30 16277 H 1531.08 3.43776 3.42115 0
M  V30 16278 H 1526.96 2.34171 3.97095 0
M  V30 16279 H 1530.51 5.79285 3.88684 0
M  V30 16280 H 1526.4 4.6878 4.43751 0
M  V30 16281 H 1527.17 6.75548 4.62144 0
M  V30 16282 N 1529.83 -1.29188 0.902679 0
M  V30 16283 C 1531.06 -1.99576 0.545635 0
M  V30 16284 C 1531.48 -1.67541 -0.870372 0
M  V30 16285 O 1530.83 -0.922082 -1.57493 0
M  V30 16286 C 1530.88 -3.54013 0.731916 0
M  V30 16287 O 1530.61 -3.84914 2.09219 0
M  V30 16288 C 1532.11 -4.41666 0.38022 0
M  V30 16289 H 1529.33 -0.637593 0.209083 0
M  V30 16290 H 1531.87 -1.64652 1.21284 0
M  V30 16291 H 1530.03 -3.87239 0.111849 0
M  V30 16292 H 1530.44 -4.79581 2.12373 0
M  V30 16293 H 1531.91 -5.49138 0.561382 0
M  V30 16294 H 1532.39 -4.33858 -0.682915 0
M  V30 16295 H 1533 -4.13918 0.977354 0
M  V30 16296 N 1531.31 -0.665475 -1.42861 0
M  V30 16297 C 1532.24 0.00482845 -2.335 0
M  V30 16298 C 1533.22 0.799135 -1.50159 0
M  V30 16299 O 1534.41 0.75816 -1.78789 0
M  V30 16300 C 1531.54 0.963347 -3.33672 0
M  V30 16301 C 1530.49 0.278294 -4.27094 0
M  V30 16302 C 1529.82 1.34911 -5.174 0
M  V30 16303 C 1531.12 -0.836925 -5.15551 0
M  V30 16304 H 1532.81 -0.752129 -2.89799 0
M  V30 16305 H 1530.36 -0.363139 -1.39346 0
M  V30 16306 H 1532.31 1.44128 -3.95986 0
M  V30 16307 H 1531.03 1.75161 -2.75656 0
M  V30 16308 H 1529.69 -0.179314 -3.66161 0
M  V30 16309 H 1529.34 2.12912 -4.55716 0
M  V30 16310 H 1529.04 0.895919 -5.8073 0
M  V30 16311 H 1530.57 1.82816 -5.8259 0
M  V30 16312 H 1531.98 -0.440617 -5.71604 0
M  V30 16313 H 1530.38 -1.21533 -5.87665 0
M  V30 16314 H 1531.45 -1.6897 -4.54507 0
M  V30 16315 N 1532.79 1.52222 -0.408187 0
M  V30 16316 C 1533.72 2.29892 0.408868 0
M  V30 16317 C 1534.7 1.34063 1.04695 0
M  V30 16318 O 1535.89 1.6297 1.05615 0
M  V30 16319 C 1533.02 3.11964 1.52629 0
M  V30 16320 C 1531.97 4.15833 1.01326 0
M  V30 16321 C 1531.3 4.86244 2.2242 0
M  V30 16322 C 1532.6 5.22256 0.0679573 0
M  V30 16323 H 1534.29 2.98443 -0.23923 0
M  V30 16324 H 1531.84 1.43528 -0.116496 0
M  V30 16325 H 1533.79 3.65067 2.10486 0
M  V30 16326 H 1532.51 2.41181 2.20225 0
M  V30 16327 H 1531.17 3.63739 0.4571 0
M  V30 16328 H 1530.82 4.11991 2.88569 0
M  V30 16329 H 1530.52 5.56461 1.88746 0
M  V30 16330 H 1532.04 5.42159 2.80885 0
M  V30 16331 H 1533.46 5.70604 0.555295 0
M  V30 16332 H 1531.85 5.9983 -0.179934 0
M  V30 16333 H 1532.92 4.76892 -0.877599 0
M  V30 16334 N 1534.27 0.138579 1.5699 0
M  V30 16335 C 1535.54 -0.559239 1.87435 0
M  V30 16336 C 1535.92 -1.83527 1.04312 0
M  V30 16337 O 1535.27 -2.28144 0.127531 0
M  V30 16338 C 1535.48 -0.83282 3.38918 0
M  V30 16339 C 1536.83 -1.1773 4.07952 0
M  V30 16340 O 1537.85 -0.92245 3.44048 0
M  V30 16341 O 1536.71 -1.6565 5.2079 0
M  V30 16342 H 1533.81 -0.284318 0.77659 0
M  V30 16343 H 1536.35 0.174558 1.688 0
M  V30 16344 H 1535.13 0.0706054 3.91236 0
M  V30 16345 H 1534.75 -1.62109 3.63051 0
M  V30 16346 N 1535.75 -1.57019 -0.13521 0
M  V30 16347 C 1537.02 -1.74928 -0.875189 0
M  V30 16348 C 1537.4 -0.709755 -1.98811 0
M  V30 16349 O 1536.75 0.269237 -2.26908 0
M  V30 16350 C 1536.96 -3.1939 -1.40681 0
M  V30 16351 C 1538.31 -3.8142 -1.86557 0
M  V30 16352 O 1539.33 -3.22892 -1.50397 0
M  V30 16353 O 1538.19 -4.84263 -2.53282 0
M  V30 16354 H 1535.29 -0.715665 -0.414431 0
M  V30 16355 H 1537.83 -1.69274 -0.120215 0
M  V30 16356 H 1536.6 -3.86554 -0.607564 0
M  V30 16357 H 1536.23 -3.29517 -2.22496 0
M  V30 16358 N 1537.22 0.404919 -1.52309 0
M  V30 16359 C 1538.64 0.743846 -1.41206 0
M  V30 16360 C 1538.84 1.94678 -0.519874 0
M  V30 16361 O 1537.9 2.52497 0.0127417 0
M  V30 16362 C 1539.21 0.99384 -2.83802 0
M  V30 16363 C 1540.76 1.0963 -2.93173 0
M  V30 16364 C 1541.23 1.37902 -4.36746 0
M  V30 16365 N 1542.72 1.44758 -4.39999 0
M  V30 16366 C 1543.46 1.68269 -5.48154 0
M  V30 16367 N 1542.95 1.89356 -6.6642 0
M  V30 16368 N 1544.75 1.70318 -5.35675 0
M  V30 16369 H 1536.9 -0.386855 -2.08847 0
M  V30 16370 H 1539.16 -0.110811 -0.941501 0
M  V30 16371 H 1538.87 0.182249 -3.51227 0
M  V30 16372 H 1538.74 1.91287 -3.25099 0
M  V30 16373 H 1541.13 1.89847 -2.25925 0
M  V30 16374 H 1541.21 0.155539 -2.55327 0
M  V30 16375 H 1540.85 0.582004 -5.04554 0
M  V30 16376 H 1540.78 2.33237 -4.72132 0
M  V30 16377 H 1543.27 1.30235 -3.5475 0
M  V30 16378 H 1543.59 2.06758 -7.44628 0
M  V30 16379 H 1541.93 1.86612 -6.69478 0
M  V30 16380 H 1545.12 1.53385 -4.42256 0
M  V30 16381 H 1545.3 1.88302 -6.20037 0
M  V30 16382 N 1538.7 1.43003 0.662408 0
M  V30 16383 C 1539.93 1.47555 1.45035 0
M  V30 16384 C 1540.35 0.0906083 1.88582 0
M  V30 16385 O 1539.7 -0.897271 1.58919 0
M  V30 16386 C 1539.75 2.41345 2.69137 0
M  V30 16387 O 1539.47 3.74453 2.27413 0
M  V30 16388 C 1540.98 2.55045 3.62584 0
M  V30 16389 H 1538.2 0.501448 0.44586 0
M  V30 16390 H 1540.74 1.8765 0.812879 0
M  V30 16391 H 1538.89 2.0447 3.29045 0
M  V30 16392 H 1539.31 4.24801 3.07643 0
M  V30 16393 H 1540.78 3.24766 4.46353 0
M  V30 16394 H 1541.26 1.59235 4.09318 0
M  V30 16395 H 1541.87 2.92693 3.08563 0
M  V30 16396 N 1540.18 -0.899904 1.29381 0
M  V30 16397 C 1541.13 -2.004 1.14493 0
M  V30 16398 C 1542.1 -1.66056 0.0383099 0
M  V30 16399 O 1543.28 -1.89687 0.20579 0
M  V30 16400 C 1540.42 -3.35039 0.827237 0
M  V30 16401 C 1539.54 -3.82166 2.01427 0
M  V30 16402 C 1538.67 -5.0538 1.63598 0
M  V30 16403 C 1537.71 -5.44876 2.78884 0
M  V30 16404 N 1536.85 -6.59276 2.41452 0
M  V30 16405 H 1541.69 -2.12466 2.08955 0
M  V30 16406 H 1539.22 -1.0405 1.03981 0
M  V30 16407 H 1541.18 -4.12511 0.62373 0
M  V30 16408 H 1539.81 -3.227 -0.0804772 0
M  V30 16409 H 1538.86 -3.00731 2.32949 0
M  V30 16410 H 1540.18 -4.07387 2.87814 0
M  V30 16411 H 1539.33 -5.90436 1.39534 0
M  V30 16412 H 1538.07 -4.81998 0.743593 0
M  V30 16413 H 1537.07 -4.58355 3.0363 0
M  V30 16414 H 1538.3 -5.7024 3.68786 0
M  V30 16415 H 1536.24 -6.37498 1.54701 0
M  V30 16416 H 1536.16 -6.84293 3.21372 0
M  V30 16417 H 1537.43 -7.47602 2.20708 0
M  V30 16418 N 1541.66 -1.11854 -1.11024 0
M  V30 16419 C 1542.61 -0.780825 -2.17191 0
M  V30 16420 C 1543.58 0.249657 -1.64213 0
M  V30 16421 O 1544.76 0.125603 -1.90386 0
M  V30 16422 C 1541.9 -0.23491 -3.443 0
M  V30 16423 C 1541.01 -1.32247 -4.1126 0
M  V30 16424 C 1540.15 -0.736638 -5.26068 0
M  V30 16425 C 1539.19 -1.80375 -5.8492 0
M  V30 16426 N 1538.32 -1.23709 -6.91115 0
M  V30 16427 H 1543.16 -1.69031 -2.45423 0
M  V30 16428 H 1540.7 -0.844041 -1.20476 0
M  V30 16429 H 1542.66 0.0996064 -4.17081 0
M  V30 16430 H 1541.29 0.637752 -3.16437 0
M  V30 16431 H 1540.34 -1.77387 -3.36509 0
M  V30 16432 H 1541.65 -2.12965 -4.51051 0
M  V30 16433 H 1540.81 -0.352432 -6.05675 0
M  V30 16434 H 1539.55 0.101811 -4.87594 0
M  V30 16435 H 1538.55 -2.19721 -5.03987 0
M  V30 16436 H 1539.78 -2.64531 -6.2546 0
M  V30 16437 H 1537.72 -0.420357 -6.54652 0
M  V30 16438 H 1537.64 -1.98093 -7.29586 0
M  V30 16439 H 1538.91 -0.879912 -7.74518 0
M  V30 16440 N 1543.14 1.28707 -0.909517 0
M  V30 16441 C 1544.36 1.99821 -0.555557 0
M  V30 16442 C 1544.79 1.67549 0.854931 0
M  V30 16443 O 1544.14 0.905521 1.57067 0
M  V30 16444 C 1544.19 3.52361 -0.766438 0
M  V30 16445 O 1543.3 4.12022 0.17654 0
M  V30 16446 H 1542.64 0.627918 -0.215905 0
M  V30 16447 H 1545.17 1.63965 -1.2238 0
M  V30 16448 H 1545.18 4.02379 -0.674894 0
M  V30 16449 H 1543.85 3.75184 -1.7947 0
M  V30 16450 H 1542.43 3.72882 0.0366216 0
M  V30 16451 N 1544.61 0.673042 1.42506 0
M  V30 16452 C 1545.56 -0.0180603 2.32593 0
M  V30 16453 C 1546.56 -0.7924 1.49724 0
M  V30 16454 O 1547.76 -0.700563 1.65807 0
M  V30 16455 H 1544.14 -0.0246346 0.751596 0
M  V30 16456 H 1546.11 0.759153 2.88582 0
M  V30 16457 C 1544.86 -0.95676 3.34277 0
M  V30 16458 H 1544.18 -0.370341 3.98081 0
M  V30 16459 H 1545.62 -1.40905 3.99902 0
M  V30 16460 C 1544.08 -2.0623 2.66403 0
M  V30 16461 O 1544.61 -3.14853 2.4946 0
M  V30 16462 N 1542.82 -1.83351 2.25457 0
M  V30 16463 H 1542.36 -0.950141 2.39437 0
M  V30 16464 H 1542.32 -2.57511 1.80375 0
M  V30 16465 N 1546.09 -1.52004 0.416254 0
M  V30 16466 C 1547.04 -2.27206 -0.405723 0
M  V30 16467 C 1548.01 -1.29913 -1.03498 0
M  V30 16468 O 1549.19 -1.58786 -1.0579 0
M  V30 16469 C 1546.33 -3.10186 -1.51258 0
M  V30 16470 C 1545.45 -4.22445 -0.903539 0
M  V30 16471 C 1544.58 -4.92771 -1.98368 0
M  V30 16472 C 1543.62 -5.96983 -1.35196 0
M  V30 16473 N 1542.76 -6.60798 -2.37255 0
M  V30 16474 H 1547.6 -2.97016 0.241983 0
M  V30 16475 H 1545.14 -1.46514 0.131174 0
M  V30 16476 H 1547.09 -3.56606 -2.16537 0
M  V30 16477 H 1545.72 -2.42532 -2.13021 0
M  V30 16478 H 1544.78 -3.80144 -0.139607 0
M  V30 16479 H 1546.09 -4.97176 -0.402136 0
M  V30 16480 H 1545.24 -5.42633 -2.71357 0
M  V30 16481 H 1543.98 -4.17624 -2.51876 0
M  V30 16482 H 1542.99 -5.46434 -0.607431 0
M  V30 16483 H 1544.21 -6.74076 -0.824482 0
M  V30 16484 H 1542.16 -5.88476 -2.89882 0
M  V30 16485 H 1542.07 -7.31227 -1.91947 0
M  V30 16486 H 1543.34 -7.15296 -3.09792 0
M  V30 16487 N 1547.57 -0.146903 -1.56914 0
M  V30 16488 C 1548.85 0.549291 -1.87729 0
M  V30 16489 C 1549.23 1.82971 -1.05284 0
M  V30 16490 O 1548.58 2.28073 -0.139628 0
M  V30 16491 C 1548.79 0.814835 -3.39354 0
M  V30 16492 C 1550.13 1.15565 -4.0857 0
M  V30 16493 O 1551.16 0.904191 -3.44533 0
M  V30 16494 O 1550.02 1.62886 -5.21661 0
M  V30 16495 H 1547.11 0.280196 -0.778087 0
M  V30 16496 H 1549.66 -0.183507 -1.68705 0
M  V30 16497 H 1548.43 -0.0913527 -3.91193 0
M  V30 16498 H 1548.05 1.60182 -3.63906 0
M  V30 16499 N 1549.05 1.57088 0.126881 0
M  V30 16500 C 1550.27 1.88984 0.854389 0
M  V30 16501 C 1550.7 0.738037 1.73016 0
M  V30 16502 O 1550.06 -0.311728 1.786 0
M  V30 16503 C 1550.1 3.19584 1.67028 0
M  V30 16504 O 1549.21 3.04935 2.77648 0
M  V30 16505 H 1548.55 0.620354 0.236763 0
M  V30 16506 H 1551.08 2.04295 0.111647 0
M  V30 16507 H 1551.09 3.52109 2.06115 0
M  V30 16508 H 1549.76 4.03012 1.02732 0
M  V30 16509 H 1548.34 2.83861 2.41821 0
M  V30 16510 N 1550.53 -0.396836 1.52522 0
M  V30 16511 C 1551.46 -1.49088 1.79708 0
M  V30 16512 C 1552.44 -1.57246 0.648678 0
M  V30 16513 O 1553.62 -1.72321 0.895495 0
M  V30 16514 C 1550.75 -2.86785 1.95887 0
M  V30 16515 C 1549.71 -2.93472 3.11542 0
M  V30 16516 C 1549.03 -4.33542 3.12963 0
M  V30 16517 C 1550.33 -2.63832 4.50766 0
M  V30 16518 H 1552.03 -1.26588 2.71322 0
M  V30 16519 H 1549.57 -0.607535 1.30557 0
M  V30 16520 H 1551.53 -3.63319 2.13489 0
M  V30 16521 H 1550.25 -3.10605 1.00955 0
M  V30 16522 H 1548.91 -2.19384 2.93711 0
M  V30 16523 H 1548.56 -4.5439 2.15729 0
M  V30 16524 H 1548.26 -4.38938 3.9065 0
M  V30 16525 H 1549.78 -5.11993 3.32709 0
M  V30 16526 H 1551.19 -3.30086 4.68739 0
M  V30 16527 H 1549.59 -2.80589 5.30462 0
M  V30 16528 H 1550.66 -1.59209 4.58018 0
M  V30 16529 N 1552.01 -1.43353 -0.654814 0
M  V30 16530 C 1553.42 -1.26718 -0.970297 0
M  V30 16531 C 1553.62 -0.185747 -2.00642 0
M  V30 16532 O 1552.68 0.436357 -2.48701 0
M  V30 16533 C 1553.99 -2.63095 -1.45608 0
M  V30 16534 C 1555.54 -2.70613 -1.57281 0
M  V30 16535 C 1556.01 -4.07404 -2.0925 0
M  V30 16536 N 1557.5 -4.09461 -2.16555 0
M  V30 16537 C 1558.24 -5.12135 -2.57885 0
M  V30 16538 N 1557.74 -6.25185 -2.98523 0
M  V30 16539 N 1559.53 -4.9949 -2.57811 0
M  V30 16540 H 1551.68 -2.12378 0.0308331 0
M  V30 16541 H 1553.94 -0.946744 -0.0487843 0
M  V30 16542 H 1553.65 -3.43186 -0.769171 0
M  V30 16543 H 1553.52 -2.88381 -2.43138 0
M  V30 16544 H 1555.91 -1.90855 -2.25074 0
M  V30 16545 H 1555.99 -2.49094 -0.581879 0
M  V30 16546 H 1555.63 -4.87628 -1.4206 0
M  V30 16547 H 1555.56 -4.26287 -3.09172 0
M  V30 16548 H 1558.06 -3.27858 -1.87929 0
M  V30 16549 H 1558.37 -6.99362 -3.28804 0
M  V30 16550 H 1556.71 -6.28659 -2.96332 0
M  V30 16551 H 1559.9 -4.10238 -2.25438 0
M  V30 16552 H 1560.08 -5.79637 -2.89699 0
M  V30 16553 N 1553.48 0.89303 -1.29857 0
M  V30 16554 C 1554.39 2.03079 -1.17457 0
M  V30 16555 C 1555.41 1.73733 -0.0962941 0
M  V30 16556 O 1556.59 1.99005 -0.309667 0
M  V30 16557 C 1553.65 3.3589 -0.858991 0
M  V30 16558 C 1552.71 3.78711 -2.0218 0
M  V30 16559 C 1551.94 5.05184 -1.72118 0
M  V30 16560 O 1552.17 5.66738 -0.645276 0
M  V30 16561 O 1551.1 5.44218 -2.57119 0
M  V30 16562 H 1554.93 2.16465 -2.13017 0
M  V30 16563 H 1552.51 1.01774 -1.09373 0
M  V30 16564 H 1554.39 4.15582 -0.697852 0
M  V30 16565 H 1553.07 3.23631 0.0667756 0
M  V30 16566 H 1551.98 2.99758 -2.23822 0
M  V30 16567 H 1553.31 3.95563 -2.929 0
M  V30 16568 N 1554.96 1.12442 1.10429 0
M  V30 16569 C 1555.92 0.795443 2.14954 0
M  V30 16570 C 1556.92 -0.19022 1.59671 0
M  V30 16571 O 1558.11 0.0355797 1.74164 0
M  V30 16572 C 1555.25 0.182043 3.40414 0
M  V30 16573 H 1556.44 1.72153 2.45567 0
M  V30 16574 H 1553.99 0.927672 1.25793 0
M  V30 16575 H 1554.73 -0.753766 3.15419 0
M  V30 16576 H 1554.51 0.891708 3.81826 0
M  V30 16577 H 1556 -0.0316286 4.17588 0
M  V30 16578 N 1556.44 -1.28223 0.91633 0
M  V30 16579 C 1557.69 -1.95153 0.551639 0
M  V30 16580 C 1558.02 -1.71938 -0.902829 0
M  V30 16581 O 1557.29 -1.04184 -1.64243 0
M  V30 16582 C 1557.58 -3.49565 0.864647 0
M  V30 16583 C 1557.43 -3.82171 2.37203 0
M  V30 16584 C 1558.75 -4.38604 0.362593 0
M  V30 16585 H 1555.87 -0.708808 0.20189 0
M  V30 16586 H 1558.51 -1.51545 1.14604 0
M  V30 16587 H 1556.66 -3.8684 0.358782 0
M  V30 16588 H 1558.33 -3.54751 2.94872 0
M  V30 16589 H 1556.57 -3.29124 2.82595 0
M  V30 16590 H 1557.25 -4.90007 2.54159 0
M  V30 16591 H 1559.72 -4.08416 0.795983 0
M  V30 16592 H 1558.6 -5.45493 0.61066 0
M  V30 16593 H 1558.86 -4.35911 -0.737137 0
M  V30 16594 N 1557.92 -0.68059 -1.42147 0
M  V30 16595 C 1559.33 -0.350691 -1.55699 0
M  V30 16596 C 1559.53 1.1435 -1.6591 0
M  V30 16597 O 1558.59 1.92905 -1.62923 0
M  V30 16598 C 1559.9 -1.08608 -2.80401 0
M  V30 16599 C 1561.45 -1.06897 -2.9418 0
M  V30 16600 C 1561.93 -1.78581 -4.2175 0
M  V30 16601 N 1563.42 -1.75477 -4.28675 0
M  V30 16602 C 1564.15 -2.27794 -5.26211 0
M  V30 16603 N 1563.65 -2.88518 -6.29865 0
M  V30 16604 N 1565.44 -2.18135 -5.18048 0
M  V30 16605 H 1557.59 -1.64988 -1.33763 0
M  V30 16606 H 1559.85 -0.695411 -0.644289 0
M  V30 16607 H 1559.56 -2.14113 -2.79014 0
M  V30 16608 H 1559.43 -0.655022 -3.71469 0
M  V30 16609 H 1561.82 -0.0222464 -2.95092 0
M  V30 16610 H 1561.9 -1.53897 -2.04327 0
M  V30 16611 H 1561.55 -2.83225 -4.21599 0
M  V30 16612 H 1561.48 -1.29027 -5.10548 0
M  V30 16613 H 1563.97 -1.31191 -3.54397 0
M  V30 16614 H 1564.28 -3.26043 -7.00654 0
M  V30 16615 H 1562.63 -2.92589 -6.3041 0
M  V30 16616 H 1565.82 -1.7038 -4.35991 0
M  V30 16617 H 1565.99 -2.59213 -5.93896 0
M  V30 16618 N 1559.4 1.51781 -0.424309 0
M  V30 16619 C 1560.62 2.06387 0.145548 0
M  V30 16620 C 1561.04 1.29299 1.37576 0
M  V30 16621 O 1560.4 0.348952 1.79133 0
M  V30 16622 C 1560.45 3.58288 0.48083 0
M  V30 16623 O 1560.17 4.32463 -0.700546 0
M  V30 16624 C 1561.67 4.29364 1.10278 0
M  V30 16625 H 1558.89 0.67086 0.0136908 0
M  V30 16626 H 1561.43 1.95511 -0.599639 0
M  V30 16627 H 1559.59 3.69122 1.17591 0
M  V30 16628 H 1560 5.22839 -0.417035 0
M  V30 16629 H 1561.48 5.36776 1.28747 0
M  V30 16630 H 1561.95 3.86815 2.08017 0
M  V30 16631 H 1562.56 4.2294 0.447458 0
M  V30 16632 N 1560.87 0.155222 1.56834 0
M  V30 16633 C 1561.8 -0.777258 2.20184 0
M  V30 16634 C 1562.78 -1.25102 1.15254 0
M  V30 16635 O 1563.97 -1.3071 1.43627 0
M  V30 16636 C 1561.1 -2.01326 2.82993 0
M  V30 16637 C 1560.05 -1.67596 3.93822 0
M  V30 16638 C 1559.38 -2.98529 4.43604 0
M  V30 16639 C 1560.68 -0.916302 5.142 0
M  V30 16640 H 1562.37 -0.249257 2.98361 0
M  V30 16641 H 1559.92 -0.118448 1.43512 0
M  V30 16642 H 1561.87 -2.67048 3.2598 0
M  V30 16643 H 1560.6 -2.56513 2.0216 0
M  V30 16644 H 1559.26 -1.0425 3.51465 0
M  V30 16645 H 1558.9 -3.51723 3.59583 0
M  V30 16646 H 1558.6 -2.76721 5.18362 0
M  V30 16647 H 1560.13 -3.65308 4.89267 0
M  V30 16648 H 1561.54 -1.47577 5.5398 0
M  V30 16649 H 1559.94 -0.797856 5.94772 0
M  V30 16650 H 1561.01 0.0904351 4.84816 0
M  V30 16651 N 1562.35 -1.57153 -0.118549 0
M  V30 16652 C 1563.28 -2.03409 -1.1466 0
M  V30 16653 C 1564.26 -0.918636 -1.43161 0
M  V30 16654 O 1565.45 -1.18838 -1.53594 0
M  V30 16655 C 1562.58 -2.43879 -2.47265 0
M  V30 16656 C 1561.53 -3.58873 -2.33225 0
M  V30 16657 C 1560.86 -3.85244 -3.70798 0
M  V30 16658 C 1562.16 -4.90582 -1.79239 0
M  V30 16659 H 1563.85 -2.89545 -0.761862 0
M  V30 16660 H 1561.4 -1.39296 -0.365034 0
M  V30 16661 H 1563.35 -2.74844 -3.19435 0
M  V30 16662 H 1562.07 -1.54715 -2.8763 0
M  V30 16663 H 1560.73 -3.28119 -1.63504 0
M  V30 16664 H 1560.38 -2.93285 -4.08648 0
M  V30 16665 H 1560.08 -4.62649 -3.62257 0
M  V30 16666 H 1561.61 -4.18661 -4.44472 0
M  V30 16667 H 1563.02 -5.20079 -2.41227 0
M  V30 16668 H 1561.42 -5.71989 -1.81518 0
M  V30 16669 H 1562.49 -4.79065 -0.74999 0
M  V30 16670 N 1563.83 0.388742 -1.5273 0
M  V30 16671 C 1565.08 1.13151 -1.67455 0
M  V30 16672 C 1565.4 1.90487 -0.417095 0
M  V30 16673 O 1564.67 1.87469 0.568509 0
M  V30 16674 H 1563.25 0.4207 -0.617269 0
M  V30 16675 H 1565.91 0.44098 -1.89846 0
M  V30 16676 H 1565.01 1.83427 -2.52509 0
M  V30 16677 N 1565.31 1.43698 0.647203 0
M  V30 16678 C 1566.54 1.48869 1.43254 0
M  V30 16679 C 1566.95 0.107061 1.88897 0
M  V30 16680 O 1566.29 -0.894189 1.60468 0
M  V30 16681 C 1566.35 2.37755 2.69653 0
M  V30 16682 C 1566.01 3.85197 2.45911 0
M  V30 16683 C 1567.01 4.7615 2.08752 0
M  V30 16684 C 1564.7 4.29744 2.60049 0
M  V30 16685 C 1566.69 6.09647 1.86037 0
M  V30 16686 C 1564.38 5.63293 2.36949 0
M  V30 16687 C 1565.38 6.53061 1.99999 0
M  V30 16688 O 1565.06 7.8414 1.77144 0
M  V30 16689 H 1564.8 0.507694 0.446343 0
M  V30 16690 H 1567.35 1.89172 0.800205 0
M  V30 16691 H 1565.58 1.9235 3.35467 0
M  V30 16692 H 1567.27 2.3406 3.31618 0
M  V30 16693 H 1568.03 4.4301 1.974 0
M  V30 16694 H 1563.91 3.60142 2.87782 0
M  V30 16695 H 1567.46 6.79676 1.57121 0
M  V30 16696 H 1563.35 5.95998 2.47905 0
M  V30 16697 H 1564.12 7.95778 1.91521 0
M  V30 16698 N 1566.79 -0.886131 1.30328 0
M  V30 16699 C 1568.03 -1.6346 1.18849 0
M  V30 16700 C 1568.36 -1.93295 -0.257285 0
M  V30 16701 O 1567.63 -1.56858 -1.17356 0
M  V30 16702 H 1566.21 -0.605932 0.43687 0
M  V30 16703 H 1568.87 -1.06177 1.63439 0
M  V30 16704 H 1567.96 -2.58522 1.7485 0
M  V30 16705 N 1568.26 -1.13026 -1.09832 0
M  V30 16706 C 1569.49 -0.911137 -1.85423 0
M  V30 16707 C 1569.9 0.543325 -1.81231 0
M  V30 16708 O 1569.25 1.38768 -1.20371 0
M  V30 16709 C 1569.31 -1.31584 -3.34553 0
M  V30 16710 C 1568.97 -2.78288 -3.62498 0
M  V30 16711 C 1569.97 -3.7646 -3.58572 0
M  V30 16712 C 1567.65 -3.15346 -3.90976 0
M  V30 16713 C 1569.65 -5.09703 -3.82729 0
M  V30 16714 C 1567.33 -4.4877 -4.14788 0
M  V30 16715 C 1568.33 -5.45758 -4.10655 0
M  V30 16716 O 1568.02 -6.76775 -4.33856 0
M  V30 16717 H 1567.75 -0.325117 -0.592684 0
M  V30 16718 H 1570.31 -1.50559 -1.39718 0
M  V30 16719 H 1568.54 -0.664628 -3.80946 0
M  V30 16720 H 1570.23 -1.06986 -3.91547 0
M  V30 16721 H 1570.99 -3.49175 -3.36603 0
M  V30 16722 H 1566.87 -2.40459 -3.9332 0
M  V30 16723 H 1570.41 -5.85395 -3.79418 0
M  V30 16724 H 1566.31 -4.75781 -4.36237 0
M  V30 16725 H 1567.08 -6.82815 -4.51338 0
M  V30 16726 N 1569.74 1.27735 -0.923117 0
M  V30 16727 C 1570.69 2.28975 -0.409065 0
M  V30 16728 C 1571.68 1.61723 0.504194 0
M  V30 16729 O 1572.89 1.75848 0.384402 0
M  V30 16730 H 1569.27 0.743354 -0.113705 0
M  V30 16731 H 1571.24 2.69751 -1.27582 0
M  V30 16732 C 1569.99 3.46158 0.327099 0
M  V30 16733 H 1569.31 3.98117 -0.366444 0
M  V30 16734 H 1570.75 4.18968 0.65128 0
M  V30 16735 C 1569.21 2.99724 1.53842 0
M  V30 16736 O 1569.74 3.03001 2.6373 0
M  V30 16737 N 1567.94 2.55274 1.38865 0
M  V30 16738 H 1567.49 2.52807 0.494629 0
M  V30 16739 H 1567.45 2.24567 2.20039 0
M  V30 16740 N 1571.22 0.688118 1.41784 0
M  V30 16741 C 1572.15 0.0323199 2.33478 0
M  V30 16742 C 1573.13 -0.775145 1.51412 0
M  V30 16743 O 1574.32 -0.72962 1.79973 0
M  V30 16744 C 1571.45 -0.910141 3.35162 0
M  V30 16745 C 1570.4 -0.210312 4.27483 0
M  V30 16746 C 1569.73 -1.26662 5.19481 0
M  V30 16747 C 1571.03 0.918839 5.14154 0
M  V30 16748 H 1572.72 0.798138 2.88566 0
M  V30 16749 H 1570.27 0.385262 1.38751 0
M  V30 16750 H 1572.22 -1.3781 3.98229 0
M  V30 16751 H 1570.94 -1.70754 2.78408 0
M  V30 16752 H 1569.6 0.237544 3.6583 0
M  V30 16753 H 1569.25 -2.05635 4.59046 0
M  V30 16754 H 1568.95 -0.803416 5.82082 0
M  V30 16755 H 1570.47 -1.73524 5.85424 0
M  V30 16756 H 1571.89 0.531499 5.70831 0
M  V30 16757 H 1570.29 1.30867 5.85657 0
M  V30 16758 H 1571.36 1.7618 4.51762 0
M  V30 16759 N 1572.7 -1.51554 0.432352 0
M  V30 16760 C 1573.61 -2.31371 -0.387885 0
M  V30 16761 C 1574.62 -1.40072 -1.03227 0
M  V30 16762 O 1575.8 -1.73145 -1.02873 0
M  V30 16763 C 1572.87 -3.13662 -1.47705 0
M  V30 16764 C 1571.93 -4.20734 -0.853315 0
M  V30 16765 C 1571.16 -4.99092 -1.89058 0
M  V30 16766 O 1571.38 -4.78022 -3.11209 0
M  V30 16767 O 1570.32 -5.83322 -1.48389 0
M  V30 16768 H 1574.14 -3.02554 0.263578 0
M  V30 16769 H 1571.73 -1.48122 0.195004 0
M  V30 16770 H 1573.61 -3.64837 -2.10884 0
M  V30 16771 H 1572.28 -2.45249 -2.11269 0
M  V30 16772 H 1571.19 -3.73649 -0.183616 0
M  V30 16773 H 1572.52 -4.91506 -0.261244 0
M  V30 16774 N 1574.18 -0.163538 -1.56749 0
M  V30 16775 C 1575.14 0.755801 -2.1638 0
M  V30 16776 C 1576.14 1.16359 -1.10982 0
M  V30 16777 O 1577.33 1.08182 -1.36537 0
M  V30 16778 C 1574.46 2.02775 -2.74035 0
M  V30 16779 H 1575.65 0.23681 -2.98964 0
M  V30 16780 H 1573.21 0.0859925 -1.56063 0
M  V30 16781 H 1573.94 2.59002 -1.95163 0
M  V30 16782 H 1573.73 1.74439 -3.5116 0
M  V30 16783 H 1575.22 2.684 -3.19923 0
M  V30 16784 N 1575.65 1.57214 0.110213 0
M  V30 16785 C 1577.07 1.74402 0.666405 0
M  V30 16786 C 1577.42 0.783524 1.79876 0
M  V30 16787 O 1576.54 -0.0415306 2.1636 0
M  V30 16788 C 1577.14 3.1624 1.21564 0
M  V30 16789 C 1575.7 3.34904 1.71804 0
M  V30 16790 C 1574.84 2.70249 0.621347 0
M  V30 16791 H 1577.79 1.58277 -0.115765 0
M  V30 16792 H 1577.81 3.18276 2.0852 0
M  V30 16793 H 1577.33 3.86123 0.391273 0
M  V30 16794 H 1575.43 2.70077 2.56689 0
M  V30 16795 H 1575.54 4.43126 1.82143 0
M  V30 16796 H 1573.9 2.31727 1.05711 0
M  V30 16797 H 1574.69 3.42762 -0.192185 0
M  V30 16798 N 1577.13 -0.380637 1.52934 0
M  V30 16799 C 1578.41 -1.13958 1.58975 0
M  V30 16800 C 1578.79 -2.07503 0.388028 0
M  V30 16801 O 1578.14 -2.19844 -0.622984 0
M  V30 16802 C 1578.35 -1.89192 2.9327 0
M  V30 16803 C 1579.7 -2.44259 3.47308 0
M  V30 16804 O 1580.72 -1.99338 2.95199 0
M  V30 16805 O 1579.58 -3.26338 4.38367 0
M  V30 16806 H 1576.67 -0.521896 0.641525 0
M  V30 16807 H 1579.22 -0.385114 1.65272 0
M  V30 16808 H 1577.99 -1.20834 3.72176 0
M  V30 16809 H 1577.61 -2.71581 2.90395 0
M  V30 16810 N 1578.61 -1.44039 -0.639573 0
M  V30 16811 C 1579.54 -1.46233 -1.76489 0
M  V30 16812 C 1580.56 -0.356739 -1.58843 0
M  V30 16813 O 1581.74 -0.621988 -1.67313 0
M  V30 16814 C 1578.84 -1.27252 -3.14102 0
M  V30 16815 C 1578.02 -2.50902 -3.58283 0
M  V30 16816 C 1577.08 -2.26944 -4.74745 0
M  V30 16817 O 1576.1 -3.00381 -4.83487 0
M  V30 16818 N 1577.3 -1.29468 -5.65878 0
M  V30 16819 H 1580.07 -2.43243 -1.7508 0
M  V30 16820 H 1577.63 -1.3937 -0.823867 0
M  V30 16821 H 1579.62 -1.09085 -3.89721 0
M  V30 16822 H 1578.19 -0.386383 -3.10203 0
M  V30 16823 H 1577.41 -2.84403 -2.72963 0
M  V30 16824 H 1578.7 -3.33163 -3.84552 0
M  V30 16825 H 1578.1 -0.687994 -5.61501 0
M  V30 16826 H 1576.66 -1.17281 -6.41162 0
M  V30 16827 N 1580.09 0.879207 -1.30796 0
M  V30 16828 C 1581.37 1.61328 -1.10602 0
M  V30 16829 C 1581.75 2.08301 0.342621 0
M  V30 16830 O 1581.09 1.85436 1.33514 0
M  V30 16831 C 1581.3 2.77838 -2.11203 0
M  V30 16832 C 1582.65 3.48028 -2.43231 0
M  V30 16833 O 1583.68 2.88034 -2.09559 0
M  V30 16834 O 1582.53 4.56233 -3.00854 0
M  V30 16835 H 1579.63 0.709335 -0.425174 0
M  V30 16836 H 1582.17 0.925478 -1.42243 0
M  V30 16837 H 1580.95 2.40475 -3.08687 0
M  V30 16838 H 1580.57 3.54312 -1.80414 0
M  V30 16839 N 1581.57 1.13606 1.09231 0
M  V30 16840 C 1582.52 0.784018 2.14096 0
M  V30 16841 C 1583.5 -0.22288 1.59349 0
M  V30 16842 O 1584.69 -0.0264914 1.7698 0
M  V30 16843 C 1581.82 0.253922 3.4236 0
M  V30 16844 C 1580.91 1.28985 4.0401 0
M  V30 16845 N 1581.3 2.49138 4.40186 0
M  V30 16846 C 1579.6 1.1381 4.31235 0
M  V30 16847 C 1580.3 3.15388 4.8878 0
M  V30 16848 N 1579.27 2.42806 4.8636 0
M  V30 16849 H 1583.08 1.69816 2.39874 0
M  V30 16850 H 1580.59 1.01867 1.26478 0
M  V30 16851 H 1582.59 -0.0165402 4.16897 0
M  V30 16852 H 1581.25 -0.65452 3.18035 0
M  V30 16853 H 1582.26 2.8643 4.31484 0
M  V30 16854 H 1578.94 0.287982 4.16506 0
M  V30 16855 H 1580.33 4.17784 5.26219 0
M  V30 16856 N 1583.05 -1.27244 0.929878 0
M  V30 16857 C 1584.01 -2.25028 0.435315 0
M  V30 16858 C 1585.01 -1.54453 -0.447332 0
M  V30 16859 O 1586.2 -1.72424 -0.248105 0
M  V30 16860 C 1583.33 -3.38843 -0.373933 0
M  V30 16861 H 1584.52 -2.70293 1.2993 0
M  V30 16862 H 1582.08 -1.39204 0.710771 0
M  V30 16863 H 1582.81 -2.98963 -1.25664 0
M  V30 16864 H 1582.6 -3.91244 0.258946 0
M  V30 16865 H 1584.09 -4.11516 -0.710255 0
M  V30 16866 N 1584.52 -0.695628 -1.41417 0
M  V30 16867 C 1585.49 -0.0392949 -2.29166 0
M  V30 16868 C 1586.49 0.70789 -1.4438 0
M  V30 16869 O 1587.68 0.542771 -1.65528 0
M  V30 16870 C 1584.81 0.954719 -3.27258 0
M  V30 16871 H 1586 -0.811902 -2.88701 0
M  V30 16872 H 1583.55 -0.459128 -1.49405 0
M  V30 16873 H 1584.29 1.75509 -2.72703 0
M  V30 16874 H 1584.07 0.422079 -3.89822 0
M  V30 16875 H 1585.56 1.41174 -3.93014 0
M  V30 16876 N 1586 1.51322 -0.440383 0
M  V30 16877 C 1587.42 1.5933 -0.0928372 0
M  V30 16878 C 1587.62 1.45107 1.39807 0
M  V30 16879 O 1586.67 1.29385 2.16831 0
M  V30 16880 C 1587.99 2.9433 -0.615663 0
M  V30 16881 C 1589.53 3.07647 -0.576373 0
M  V30 16882 C 1590.01 4.45176 -1.07622 0
M  V30 16883 N 1591.5 4.51504 -1.03434 0
M  V30 16884 C 1592.24 5.56249 -1.39194 0
M  V30 16885 N 1591.73 6.68398 -1.82254 0
M  V30 16886 N 1593.52 5.46624 -1.30991 0
M  V30 16887 H 1585.68 1.58812 -1.41041 0
M  V30 16888 H 1587.94 0.748795 -0.581386 0
M  V30 16889 H 1587.64 3.10117 -1.65892 0
M  V30 16890 H 1587.52 3.77176 -0.0422513 0
M  V30 16891 H 1589.91 2.91526 0.457904 0
M  V30 16892 H 1589.99 2.26633 -1.18622 0
M  V30 16893 H 1589.63 4.62044 -2.10898 0
M  V30 16894 H 1589.56 5.24734 -0.442882 0
M  V30 16895 H 1592.05 3.71013 -0.718156 0
M  V30 16896 H 1592.36 7.44347 -2.07769 0
M  V30 16897 H 1590.71 6.69598 -1.86183 0
M  V30 16898 H 1593.9 4.57894 -0.972145 0
M  V30 16899 H 1594.07 6.28143 -1.59188 0
M  V30 16900 N 1587.48 0.171848 1.5666 0
M  V30 16901 C 1588.44 -0.744316 2.16778 0
M  V30 16902 C 1589.44 -1.15769 1.11598 0
M  V30 16903 O 1590.63 -1.07456 1.37109 0
M  V30 16904 C 1587.76 -2.01319 2.75106 0
M  V30 16905 H 1588.96 -0.220952 2.99085 0
M  V30 16906 H 1586.51 -0.0777149 1.56107 0
M  V30 16907 H 1587.25 -2.57963 1.96534 0
M  V30 16908 H 1587.03 -1.72575 3.5208 0
M  V30 16909 H 1588.52 -2.667 3.21342 0
M  V30 16910 N 1588.96 -1.5727 -0.101874 0
M  V30 16911 C 1589.87 -2.04896 -1.14257 0
M  V30 16912 C 1590.88 -0.972561 -1.44282 0
M  V30 16913 O 1592.06 -1.28526 -1.55058 0
M  V30 16914 C 1589.12 -2.45818 -2.44488 0
M  V30 16915 C 1588.19 -3.6762 -2.21707 0
M  V30 16916 C 1587.42 -4.06581 -3.45728 0
M  V30 16917 O 1587.64 -3.45702 -4.53703 0
M  V30 16918 O 1586.58 -4.99578 -3.35716 0
M  V30 16919 H 1590.4 -2.93827 -0.768085 0
M  V30 16920 H 1587.99 -1.46065 -0.313902 0
M  V30 16921 H 1589.87 -2.72796 -3.21186 0
M  V30 16922 H 1588.54 -1.60028 -2.81377 0
M  V30 16923 H 1587.45 -3.45768 -1.42812 0
M  V30 16924 H 1588.78 -4.54169 -1.89714 0
M  V30 16925 N 1590.44 0.372521 -1.53134 0
M  V30 16926 C 1591.68 1.11754 -1.6923 0
M  V30 16927 C 1592.01 1.89167 -0.439265 0
M  V30 16928 O 1591.29 1.86164 0.563317 0
M  V30 16929 C 1591.57 2.08242 -2.93781 0
M  V30 16930 C 1591.43 1.34484 -4.29225 0
M  V30 16931 C 1592.74 3.08457 -3.13914 0
M  V30 16932 H 1589.86 0.404898 -0.615814 0
M  V30 16933 H 1592.51 0.399101 -1.85761 0
M  V30 16934 H 1590.66 2.69507 -2.79818 0
M  V30 16935 H 1592.33 0.76056 -4.54987 0
M  V30 16936 H 1590.57 0.646673 -4.28953 0
M  V30 16937 H 1591.24 2.05071 -5.12494 0
M  V30 16938 H 1593.72 2.57292 -3.27017 0
M  V30 16939 H 1592.59 3.73198 -4.0251 0
M  V30 16940 H 1592.85 3.78243 -2.28878 0
M  V30 16941 N 1591.91 1.44376 0.631925 0
M  V30 16942 C 1593.15 1.48638 1.40307 0
M  V30 16943 C 1593.52 0.115559 1.91652 0
M  V30 16944 O 1594.72 0.0328551 2.6878 0
M  V30 16945 C 1592.99 2.51663 2.53773 0
M  V30 16946 S 1594.55 2.74966 3.41964 0
M  V30 16947 H 1591.37 0.525735 0.478669 0
M  V30 16948 H 1593.97 1.81294 0.731632 0
M  V30 16949 H 1592.67 3.49968 2.14361 0
M  V30 16950 H 1592.2 2.20577 3.25744 0
M  V30 16951 H 1594.22 2.06501 4.51189 0
M  V30 16952 N 1593.39 -0.872258 1.31261 0
M  V30 16953 C 1594.62 -1.6632 1.23905 0
M  V30 16954 C 1595.04 -1.87109 -0.192878 0
M  V30 16955 O 1594.4 -1.4112 -1.1382 0
M  V30 16956 C 1594.45 -3.00979 1.98606 0
M  V30 16957 O 1593.55 -3.90642 1.32183 0
M  V30 16958 H 1592.89 -0.507736 0.427902 0
M  V30 16959 H 1595.42 -1.0877 1.73292 0
M  V30 16960 H 1595.43 -3.50931 2.08113 0
M  V30 16961 H 1594.11 -2.85168 3.02741 0
M  V30 16962 H 1592.68 -3.4909 1.31112 0
M  V30 16963 N 1594.87 -1.14184 -1.08627 0
M  V30 16964 C 1596.12 -0.906869 -1.80611 0
M  V30 16965 C 1596.44 0.568182 -1.86539 0
M  V30 16966 O 1595.71 1.41301 -1.35687 0
M  V30 16967 H 1594.29 -0.332523 -0.668908 0
M  V30 16968 H 1596.95 -1.43998 -1.31341 0
M  V30 16969 H 1596.05 -1.30484 -2.83514 0
M  V30 16970 N 1596.35 1.26749 -0.936613 0
M  V30 16971 C 1597.58 1.98059 -0.598357 0
M  V30 16972 C 1597.99 1.6979 0.825646 0
M  V30 16973 O 1597.35 0.963514 1.54992 0
M  V30 16974 C 1597.4 3.51948 -0.825519 0
M  V30 16975 O 1597.12 3.79232 -2.19351 0
M  V30 16976 C 1598.62 4.40503 -0.497186 0
M  V30 16977 H 1595.84 0.631826 -0.225914 0
M  V30 16978 H 1598.39 1.61379 -1.25607 0
M  V30 16979 H 1596.54 3.86806 -0.214479 0
M  V30 16980 H 1596.95 4.73782 -2.25014 0
M  V30 16981 H 1598.43 5.47457 -0.706779 0
M  V30 16982 H 1598.91 4.35516 0.567645 0
M  V30 16983 H 1599.51 4.11181 -1.08675 0
M  V30 16984 N 1597.83 0.703118 1.41046 0
M  V30 16985 C 1599.07 0.236818 2.00708 0
M  V30 16986 C 1599.4 -1.17008 1.55994 0
M  V30 16987 O 1598.67 -1.79094 0.793871 0
M  V30 16988 H 1597.25 0.0845643 0.742198 0
M  V30 16989 H 1599.91 0.905964 1.72564 0
M  V30 16990 H 1599 0.260141 3.11014 0
M  V30 16991 N 1599.3 -1.51086 0.448402 0
M  V30 16992 C 1600.21 -2.3177 -0.363323 0
M  V30 16993 C 1601.23 -1.41159 -1.01736 0
M  V30 16994 O 1602.41 -1.74226 -1.01031 0
M  V30 16995 C 1599.47 -3.15211 -1.4437 0
M  V30 16996 C 1598.53 -4.21615 -0.808643 0
M  V30 16997 C 1597.77 -5.01069 -1.83754 0
M  V30 16998 O 1597.99 -4.81296 -3.06121 0
M  V30 16999 O 1596.92 -5.84863 -1.42193 0
M  V30 17000 H 1600.75 -3.02257 0.295653 0
M  V30 17001 H 1598.33 -1.47907 0.210703 0
M  V30 17002 H 1600.22 -3.67053 -2.07002 0
M  V30 17003 H 1598.89 -2.47476 -2.08656 0
M  V30 17004 H 1597.8 -3.73823 -0.143975 0
M  V30 17005 H 1599.13 -4.91756 -0.209098 0
M  V30 17006 N 1600.78 -0.180154 -1.56567 0
M  V30 17007 C 1602.2 0.175902 -1.58628 0
M  V30 17008 C 1602.4 1.62179 -1.19583 0
M  V30 17009 O 1601.45 2.35471 -0.911566 0
M  V30 17010 C 1602.77 -0.11292 -3.00488 0
M  V30 17011 C 1604.32 -0.051834 -3.12957 0
M  V30 17012 C 1604.79 -0.313764 -4.56924 0
M  V30 17013 N 1606.28 -0.261852 -4.62459 0
M  V30 17014 C 1607.02 -0.438573 -5.7172 0
M  V30 17015 N 1606.51 -0.674832 -6.89506 0
M  V30 17016 N 1608.31 -0.373864 -5.60855 0
M  V30 17017 H 1600.46 -1.12385 -1.80232 0
M  V30 17018 H 1602.72 -0.447459 -0.835754 0
M  V30 17019 H 1602.43 -1.11488 -3.33562 0
M  V30 17020 H 1602.3 0.591409 -3.72535 0
M  V30 17021 H 1604.69 0.940711 -2.79705 0
M  V30 17022 H 1604.77 -0.78901 -2.43327 0
M  V30 17023 H 1604.41 -1.30356 -4.90887 0
M  V30 17024 H 1604.34 0.444127 -5.24724 0
M  V30 17025 H 1606.83 -0.0852513 -3.77804 0
M  V30 17026 H 1607.15 -0.798891 -7.6866 0
M  V30 17027 H 1605.49 -0.711551 -6.91348 0
M  V30 17028 H 1608.68 -0.189815 -4.67715 0
M  V30 17029 H 1608.85 -0.515012 -6.4595 0
M  V30 17030 N 1602.26 1.57322 0.0935319 0
M  V30 17031 C 1603.51 1.86167 0.796739 0
M  V30 17032 C 1603.84 0.768893 1.78657 0
M  V30 17033 O 1603.09 -0.237358 1.94255 0
M  V30 17034 C 1603.39 3.21605 1.55901 0
M  V30 17035 C 1603.06 4.45256 0.711165 0
M  V30 17036 C 1601.72 4.78826 0.477442 0
M  V30 17037 C 1604.07 5.21058 0.121859 0
M  V30 17038 C 1601.4 5.85622 -0.355425 0
M  V30 17039 C 1603.75 6.28734 -0.69834 0
M  V30 17040 C 1602.41 6.60818 -0.94214 0
M  V30 17041 H 1601.68 0.681235 0.291547 0
M  V30 17042 H 1604.33 1.91412 0.0581736 0
M  V30 17043 H 1602.64 3.12052 2.36919 0
M  V30 17044 H 1604.33 3.41151 2.10753 0
M  V30 17045 H 1600.92 4.1897 0.903444 0
M  V30 17046 H 1605.11 4.95454 0.289588 0
M  V30 17047 H 1600.36 6.08891 -0.553277 0
M  V30 17048 H 1604.54 6.8664 -1.16183 0
M  V30 17049 H 1602.16 7.43401 -1.5893 0
M  V30 17050 N 1603.74 -0.364395 1.53329 0
M  V30 17051 C 1605.15 -0.706147 1.43128 0
M  V30 17052 C 1605.35 -1.93231 0.571307 0
M  V30 17053 O 1604.41 -2.52442 0.0542079 0
M  V30 17054 C 1605.72 -0.918245 2.86337 0
M  V30 17055 C 1607.27 -1.01818 2.95976 0
M  V30 17056 C 1607.75 -1.26274 4.40249 0
M  V30 17057 N 1609.24 -1.33042 4.43683 0
M  V30 17058 C 1609.97 -1.53677 5.52423 0
M  V30 17059 N 1609.47 -1.7162 6.71207 0
M  V30 17060 N 1611.26 -1.56056 5.40003 0
M  V30 17061 H 1603.41 0.442091 2.07748 0
M  V30 17062 H 1605.68 0.135735 0.938232 0
M  V30 17063 H 1605.38 -0.0890628 3.51587 0
M  V30 17064 H 1605.26 -1.826 3.30056 0
M  V30 17065 H 1607.64 -1.83791 2.30879 0
M  V30 17066 H 1607.72 -0.0877892 2.55649 0
M  V30 17067 H 1607.37 -0.448026 5.0592 0
M  V30 17068 H 1607.3 -2.20637 4.78149 0
M  V30 17069 H 1609.79 -1.20784 3.58078 0
M  V30 17070 H 1610.1 -1.86942 7.49848 0
M  V30 17071 H 1608.45 -1.68797 6.7419 0
M  V30 17072 H 1611.64 -1.41605 4.46168 0
M  V30 17073 H 1611.81 -1.71796 6.24812 0
M  V30 17074 N 1605.22 -1.44709 -0.62426 0
M  V30 17075 C 1606.47 -1.47131 -1.37968 0
M  V30 17076 C 1606.78 -0.110507 -1.95288 0
M  V30 17077 O 1607.98 -0.0122892 -2.71497 0
M  V30 17078 C 1606.44 -2.59059 -2.49833 0
M  V30 17079 C 1606.05 -4.01378 -1.98997 0
M  V30 17080 C 1607.79 -2.70709 -3.26981 0
M  V30 17081 C 1605.7 -5.04717 -3.08244 0
M  V30 17082 H 1604.63 -0.547424 -0.5185 0
M  V30 17083 H 1607.28 -1.70797 -0.670863 0
M  V30 17084 H 1605.66 -2.28646 -3.23322 0
M  V30 17085 H 1606.84 -4.41391 -1.32327 0
M  V30 17086 H 1605.15 -3.9403 -1.34644 0
M  V30 17087 H 1607.75 -3.45087 -4.08435 0
M  V30 17088 H 1608.09 -1.76763 -3.76909 0
M  V30 17089 H 1608.62 -3.00566 -2.60585 0
M  V30 17090 H 1605.36 -6.00315 -2.63253 0
M  V30 17091 H 1604.88 -4.6929 -3.73534 0
M  V30 17092 H 1606.56 -5.28725 -3.72906 0
M  V30 17093 N 1606.69 0.865285 -1.31722 0
M  V30 17094 C 1607.94 1.61868 -1.21675 0
M  V30 17095 C 1608.27 1.93206 0.223988 0
M  V30 17096 O 1607.52 1.5657 1.17407 0
M  V30 17097 C 1607.82 2.95462 -2.0109 0
M  V30 17098 C 1607.49 2.83598 -3.50547 0
M  V30 17099 C 1606.15 2.80069 -3.91299 0
M  V30 17100 C 1608.5 2.70295 -4.45635 0
M  V30 17101 C 1605.83 2.61102 -5.25398 0
M  V30 17102 C 1608.18 2.52864 -5.79864 0
M  V30 17103 C 1606.85 2.47722 -6.19831 0
M  V30 17104 H 1606.12 0.592319 -0.445241 0
M  V30 17105 H 1608.76 1.00456 -1.63036 0
M  V30 17106 H 1607.07 3.60935 -1.52424 0
M  V30 17107 H 1608.77 3.52756 -1.90693 0
M  V30 17108 H 1605.36 2.87164 -3.18175 0
M  V30 17109 H 1609.54 2.72073 -4.15078 0
M  V30 17110 H 1604.8 2.55549 -5.55432 0
M  V30 17111 H 1608.97 2.41548 -6.53167 0
M  V30 17112 H 1606.6 2.32784 -7.23682 0
M  V30 17113 N 1608.17 1.14759 1.0802 0
M  V30 17114 C 1609.59 0.8888 1.32561 0
M  V30 17115 C 1609.79 -0.467926 1.95992 0
M  V30 17116 O 1608.84 -1.21135 2.21546 0
M  V30 17117 C 1610.16 2.02456 2.22333 0
M  V30 17118 C 1611.71 2.05831 2.35802 0
M  V30 17119 C 1612.18 3.18711 3.28918 0
M  V30 17120 N 1613.67 3.18315 3.36496 0
M  V30 17121 C 1614.41 4.02297 4.08589 0
M  V30 17122 N 1613.9 4.96327 4.83354 0
M  V30 17123 N 1615.7 3.90344 4.0446 0
M  V30 17124 H 1607.85 2.02135 0.652307 0
M  V30 17125 H 1610.11 0.881021 0.35001 0
M  V30 17126 H 1609.82 3.00354 1.82976 0
M  V30 17127 H 1609.69 1.95108 3.2282 0
M  V30 17128 H 1612.08 1.08537 2.74415 0
M  V30 17129 H 1612.16 2.17248 1.35044 0
M  V30 17130 H 1611.8 4.16253 2.91025 0
M  V30 17131 H 1611.73 3.04531 4.29614 0
M  V30 17132 H 1614.22 2.50214 2.83199 0
M  V30 17133 H 1614.54 5.56865 5.35837 0
M  V30 17134 H 1612.88 5.00321 4.82394 0
M  V30 17135 H 1616.07 3.162 3.45159 0
M  V30 17136 H 1616.24 4.56019 4.60381 0
M  V30 17137 N 1609.65 -1.26251 0.943322 0
M  V30 17138 C 1610.61 -2.24554 0.459158 0
M  V30 17139 C 1611.61 -1.54918 -0.430926 0
M  V30 17140 O 1612.8 -1.72678 -0.229803 0
M  V30 17141 C 1609.94 -3.39221 -0.337973 0
M  V30 17142 H 1611.13 -2.689 1.32789 0
M  V30 17143 H 1608.68 -1.38442 0.725495 0
M  V30 17144 H 1609.42 -3.00279 -1.22486 0
M  V30 17145 H 1609.2 -3.90947 0.300428 0
M  V30 17146 H 1610.69 -4.12246 -0.666568 0
M  V30 17147 N 1611.13 -0.710588 -1.40671 0
M  V30 17148 C 1612.04 -0.0557164 -2.34534 0
M  V30 17149 C 1613.06 0.749387 -1.57036 0
M  V30 17150 O 1614.23 0.683493 -1.89447 0
M  V30 17151 C 1611.3 0.858583 -3.35901 0
M  V30 17152 C 1610.36 0.043995 -4.29277 0
M  V30 17153 C 1609.59 0.91475 -5.25802 0
M  V30 17154 O 1609.81 2.15407 -5.28163 0
M  V30 17155 O 1608.75 0.356407 -6.00844 0
M  V30 17156 H 1612.57 -0.829807 -2.92144 0
M  V30 17157 H 1610.16 -0.471028 -1.4178 0
M  V30 17158 H 1612.04 1.38244 -3.98079 0
M  V30 17159 H 1610.72 1.61191 -2.80712 0
M  V30 17160 H 1609.62 -0.524815 -3.704 0
M  V30 17161 H 1610.96 -0.670996 -4.87605 0
M  V30 17162 N 1612.61 1.50847 -0.456408 0
M  V30 17163 C 1613.55 2.28202 0.345341 0
M  V30 17164 C 1614.52 1.32611 1.00017 0
M  V30 17165 O 1615.71 1.61535 1.01543 0
M  V30 17166 C 1612.85 3.14087 1.42981 0
M  V30 17167 C 1611.96 4.24693 0.791217 0
M  V30 17168 C 1611.1 4.97857 1.85234 0
M  V30 17169 C 1610.14 6.00357 1.1932 0
M  V30 17170 N 1609.27 6.66856 2.19652 0
M  V30 17171 H 1614.11 2.9627 -0.320646 0
M  V30 17172 H 1611.65 1.46115 -0.169973 0
M  V30 17173 H 1613.61 3.62222 2.07006 0
M  V30 17174 H 1612.24 2.48095 2.06516 0
M  V30 17175 H 1611.29 3.8038 0.0387694 0
M  V30 17176 H 1612.6 4.98068 0.270177 0
M  V30 17177 H 1611.76 5.49636 2.56875 0
M  V30 17178 H 1610.5 4.24155 2.40715 0
M  V30 17179 H 1609.5 5.47853 0.462341 0
M  V30 17180 H 1610.73 6.76025 0.645473 0
M  V30 17181 H 1608.67 5.95955 2.74178 0
M  V30 17182 H 1608.59 7.36059 1.72492 0
M  V30 17183 H 1609.86 7.23259 2.90719 0
M  V30 17184 N 1614.09 0.188454 1.56469 0
M  V30 17185 C 1615.31 -0.457846 2.01771 0
M  V30 17186 C 1615.73 -1.55646 1.06863 0
M  V30 17187 O 1615.09 -1.82356 0.0723619 0
M  V30 17188 C 1615.14 -1.02032 3.46802 0
M  V30 17189 O 1614.86 0.0344536 4.38086 0
M  V30 17190 C 1616.36 -1.74316 4.07589 0
M  V30 17191 H 1613.58 -0.115594 0.660968 0
M  V30 17192 H 1616.12 0.295213 2.02358 0
M  V30 17193 H 1614.28 -1.7238 3.46935 0
M  V30 17194 H 1614.69 -0.383254 5.23098 0
M  V30 17195 H 1616.17 -2.08912 5.1094 0
M  V30 17196 H 1616.64 -2.64445 3.50665 0
M  V30 17197 H 1617.25 -1.0857 4.11209 0
M  V30 17198 N 1615.56 -1.5737 -0.0851874 0
M  V30 17199 C 1616.79 -1.90525 -0.798977 0
M  V30 17200 C 1617.2 -0.781347 -1.72313 0
M  V30 17201 O 1616.54 0.255036 -1.81921 0
M  V30 17202 C 1616.61 -3.19027 -1.65716 0
M  V30 17203 C 1616.27 -4.47974 -0.903795 0
M  V30 17204 C 1617.27 -5.19395 -0.229094 0
M  V30 17205 C 1614.95 -4.94621 -0.874937 0
M  V30 17206 C 1616.95 -6.35706 0.464385 0
M  V30 17207 C 1614.63 -6.10842 -0.177678 0
M  V30 17208 C 1615.63 -6.81234 0.490795 0
M  V30 17209 O 1615.32 -7.95239 1.17685 0
M  V30 17210 H 1615.05 -0.634533 -0.233119 0
M  V30 17211 H 1617.61 -2.05301 -0.0638265 0
M  V30 17212 H 1615.84 -3.00425 -2.43479 0
M  V30 17213 H 1617.52 -3.37937 -2.24841 0
M  V30 17214 H 1618.29 -4.84392 -0.242783 0
M  V30 17215 H 1614.17 -4.39712 -1.3847 0
M  V30 17216 H 1617.71 -6.90586 0.986719 0
M  V30 17217 H 1613.61 -6.45297 -0.16187 0
M  V30 17218 H 1614.38 -8.1128 1.08476 0
M  V30 17219 N 1617.04 0.356258 -1.53521 0
M  V30 17220 C 1618 1.41975 -1.79933 0
M  V30 17221 C 1619 1.46177 -0.669997 0
M  V30 17222 O 1620.19 1.46774 -0.938239 0
M  V30 17223 C 1617.33 2.81015 -1.92985 0
M  V30 17224 H 1618.52 1.19824 -2.74922 0
M  V30 17225 H 1616.07 0.589928 -1.4474 0
M  V30 17226 H 1616.81 3.08466 -1.00095 0
M  V30 17227 H 1616.59 2.79363 -2.75135 0
M  V30 17228 H 1618.08 3.58013 -2.1498 0
M  V30 17229 N 1618.52 1.45038 0.616577 0
M  V30 17230 C 1619.77 1.48805 1.37786 0
M  V30 17231 C 1620.1 0.125811 1.93792 0
M  V30 17232 O 1619.37 -0.858544 1.74526 0
M  V30 17233 C 1619.66 2.56008 2.53242 0
M  V30 17234 C 1619.51 4.01643 2.02491 0
M  V30 17235 C 1620.83 2.59578 3.55398 0
M  V30 17236 H 1617.95 0.541776 0.499647 0
M  V30 17237 H 1620.59 1.76799 0.695859 0
M  V30 17238 H 1618.74 2.32269 3.11422 0
M  V30 17239 H 1620.41 4.36564 1.4903 0
M  V30 17240 H 1618.65 4.12728 1.33559 0
M  V30 17241 H 1619.33 4.72326 2.85679 0
M  V30 17242 H 1621.8 2.80826 3.07044 0
M  V30 17243 H 1620.68 3.36466 4.33684 0
M  V30 17244 H 1620.94 1.64325 4.10426 0
M  V30 17245 N 1620 -0.858287 1.32179 0
M  V30 17246 C 1620.94 -1.96656 1.20811 0
M  V30 17247 C 1621.91 -1.6585 0.0911199 0
M  V30 17248 O 1623.1 -1.88936 0.266033 0
M  V30 17249 C 1620.24 -3.32237 0.933408 0
M  V30 17250 C 1619.35 -3.75564 2.13484 0
M  V30 17251 C 1618.49 -4.9992 1.79593 0
M  V30 17252 C 1617.53 -5.35728 2.96077 0
M  V30 17253 N 1616.66 -6.51261 2.62304 0
M  V30 17254 H 1621.5 -2.05711 2.15609 0
M  V30 17255 H 1619.04 -1.00689 1.07239 0
M  V30 17256 H 1621 -4.10318 0.754651 0
M  V30 17257 H 1619.63 -3.22792 0.0222279 0
M  V30 17258 H 1618.68 -2.93167 2.42399 0
M  V30 17259 H 1619.99 -3.98025 3.00629 0
M  V30 17260 H 1619.15 -5.85698 1.58248 0
M  V30 17261 H 1617.89 -4.79388 0.896561 0
M  V30 17262 H 1616.89 -4.48463 3.18058 0
M  V30 17263 H 1618.12 -5.58219 3.86741 0
M  V30 17264 H 1616.06 -6.32254 1.74904 0
M  V30 17265 H 1615.98 -6.73722 3.42979 0
M  V30 17266 H 1617.25 -7.40202 2.4438 0
M  V30 17267 N 1621.48 -1.1533 -1.07409 0
M  V30 17268 C 1622.44 -0.852155 -2.1277 0
M  V30 17269 C 1623.44 0.14782 -1.60119 0
M  V30 17270 O 1624.63 -0.0817436 -1.74008 0
M  V30 17271 C 1621.76 -0.272233 -3.39811 0
M  V30 17272 H 1622.95 -1.78604 -2.40917 0
M  V30 17273 H 1620.51 -0.960698 -1.23289 0
M  V30 17274 H 1621.24 0.669873 -3.17306 0
M  V30 17275 H 1621.03 -0.992629 -3.79327 0
M  V30 17276 H 1622.52 -0.0790986 -4.17525 0
M  V30 17277 N 1622.95 1.25748 -0.950004 0
M  V30 17278 C 1624.2 1.92954 -0.601104 0
M  V30 17279 C 1624.52 1.74817 0.863953 0
M  V30 17280 O 1623.79 1.10904 1.61484 0
M  V30 17281 H 1622.37 0.714077 -0.219325 0
M  V30 17282 H 1625.03 1.53009 -1.20724 0
M  V30 17283 H 1624.13 3.00959 -0.826447 0
M  V30 17284 N 1624.43 0.718038 1.40292 0
M  V30 17285 C 1625.85 0.391848 1.54715 0
M  V30 17286 C 1626.05 -1.09911 1.68884 0
M  V30 17287 O 1625.1 -1.88518 1.6798 0
M  V30 17288 C 1626.42 1.16005 2.77423 0
M  V30 17289 C 1627.96 1.14659 2.91243 0
M  V30 17290 C 1628.44 1.897 4.16867 0
M  V30 17291 N 1629.93 1.86781 4.23872 0
M  V30 17292 C 1630.67 2.41665 5.19986 0
M  V30 17293 N 1630.16 3.05116 6.21994 0
M  V30 17294 N 1631.95 2.31794 5.12082 0
M  V30 17295 H 1624.11 1.68477 1.29342 0
M  V30 17296 H 1626.37 0.712248 0.625625 0
M  V30 17297 H 1626.07 2.21435 2.73239 0
M  V30 17298 H 1625.95 0.75328 3.69602 0
M  V30 17299 H 1628.34 0.100477 2.94929 0
M  V30 17300 H 1628.42 1.5926 2.00175 0
M  V30 17301 H 1628.06 2.94303 4.13942 0
M  V30 17302 H 1627.99 1.42518 5.06948 0
M  V30 17303 H 1630.48 1.40541 3.50794 0
M  V30 17304 H 1630.79 3.44505 6.91763 0
M  V30 17305 H 1629.14 3.09201 6.22431 0
M  V30 17306 H 1632.33 1.81879 4.31321 0
M  V30 17307 H 1632.5 2.74868 5.86815 0
M  V30 17308 N 1625.91 -1.50602 0.464402 0
M  V30 17309 C 1627.16 -2.03222 -0.0851766 0
M  V30 17310 C 1627.51 -1.34062 -1.38004 0
M  V30 17311 O 1626.8 -0.455266 -1.86113 0
M  V30 17312 C 1627 -3.55859 -0.331507 0
M  V30 17313 C 1626.83 -4.3981 0.937934 0
M  V30 17314 C 1625.6 -4.83161 1.47931 0
M  V30 17315 C 1627.8 -4.80583 1.83152 0
M  V30 17316 N 1625.78 -5.51412 2.69847 0
M  V30 17317 C 1627.15 -5.48177 2.89659 0
M  V30 17318 C 1629.2 -4.62546 1.8427 0
M  V30 17319 C 1627.91 -5.99645 3.97264 0
M  V30 17320 C 1629.93 -5.1495 2.90828 0
M  V30 17321 C 1629.29 -5.82513 3.96053 0
M  V30 17322 H 1625.39 -0.781952 0.00868889 0
M  V30 17323 H 1627.98 -1.84187 0.631117 0
M  V30 17324 H 1626.15 -3.74853 -1.01684 0
M  V30 17325 H 1627.88 -3.95131 -0.874835 0
M  V30 17326 H 1624.64 -4.62277 1.02943 0
M  V30 17327 H 1625.06 -5.90149 3.31743 0
M  V30 17328 H 1629.7 -4.09749 1.04238 0
M  V30 17329 H 1627.42 -6.51483 4.78117 0
M  V30 17330 H 1631.01 -5.02829 2.92668 0
M  V30 17331 H 1629.89 -6.22332 4.7715 0
M  V30 17332 N 1627.39 -0.19675 -1.56367 0
M  V30 17333 C 1628.62 0.446491 -2.01718 0
M  V30 17334 C 1629.03 1.55621 -1.07604 0
M  V30 17335 O 1628.37 1.83553 -0.0733943 0
M  V30 17336 C 1628.43 1.06182 -3.43461 0
M  V30 17337 C 1628.1 0.0906278 -4.5691 0
M  V30 17338 C 1629.09 -0.700599 -5.15158 0
M  V30 17339 C 1626.78 -0.0209341 -5.02296 0
M  V30 17340 C 1628.77 -1.59034 -6.17241 0
M  V30 17341 C 1626.46 -0.91423 -6.04223 0
M  V30 17342 C 1627.46 -1.6975 -6.61569 0
M  V30 17343 O 1627.14 -2.57582 -7.61516 0
M  V30 17344 H 1626.88 0.116254 -0.665929 0
M  V30 17345 H 1629.43 -0.303224 -2.03149 0
M  V30 17346 H 1627.66 1.86015 -3.39021 0
M  V30 17347 H 1629.35 1.60988 -3.72609 0
M  V30 17348 H 1630.12 -0.624723 -4.8096 0
M  V30 17349 H 1625.99 0.578557 -4.57355 0
M  V30 17350 H 1629.54 -2.20215 -6.6193 0
M  V30 17351 H 1625.44 -0.991215 -6.37844 0
M  V30 17352 H 1626.2 -2.5138 -7.78942 0
M  V30 17353 N 1628.87 1.57413 0.0768405 0
M  V30 17354 C 1630.11 1.87002 0.776948 0
M  V30 17355 C 1630.44 0.787799 1.77831 0
M  V30 17356 O 1629.7 -0.216742 1.94496 0
M  V30 17357 C 1630 3.2324 1.52482 0
M  V30 17358 C 1629.66 4.45986 0.663899 0
M  V30 17359 C 1628.32 4.79305 0.426629 0
M  V30 17360 C 1630.68 5.21157 0.0665867 0
M  V30 17361 C 1628 5.85213 -0.417518 0
M  V30 17362 C 1630.36 6.27958 -0.764986 0
M  V30 17363 C 1629.02 6.59781 -1.01218 0
M  V30 17364 H 1628.29 0.684289 0.284306 0
M  V30 17365 H 1630.94 1.91463 0.0378686 0
M  V30 17366 H 1629.24 3.14547 2.33596 0
M  V30 17367 H 1630.94 3.43368 2.07123 0
M  V30 17368 H 1627.53 4.19905 0.858956 0
M  V30 17369 H 1631.71 4.95734 0.237022 0
M  V30 17370 H 1626.97 6.0827 -0.617827 0
M  V30 17371 H 1631.14 6.85369 -1.23459 0
M  V30 17372 H 1628.77 7.41674 -1.66806 0
M  V30 17373 N 1630.34 -0.348112 1.53707 0
M  V30 17374 C 1631.25 -1.45079 1.84361 0
M  V30 17375 C 1632.27 -1.5779 0.733375 0
M  V30 17376 O 1633.45 -1.73353 1.02522 0
M  V30 17377 C 1630.51 -2.80127 2.04278 0
M  V30 17378 C 1629.57 -2.76799 3.28148 0
M  V30 17379 C 1628.81 -4.05406 3.47105 0
M  V30 17380 O 1629.03 -5.02454 2.69992 0
M  V30 17381 O 1627.96 -4.10155 4.40519 0
M  V30 17382 H 1631.79 -1.22093 2.78077 0
M  V30 17383 H 1629.37 -0.539863 1.39305 0
M  V30 17384 H 1631.26 -3.60115 2.18849 0
M  V30 17385 H 1629.93 -3.03055 1.13751 0
M  V30 17386 H 1628.84 -1.95448 3.18984 0
M  V30 17387 H 1630.17 -2.58826 4.18653 0
M  V30 17388 N 1631.82 -1.45363 -0.608876 0
M  V30 17389 C 1633.07 -1.49313 -1.36792 0
M  V30 17390 C 1633.4 -0.134357 -1.94035 0
M  V30 17391 O 1632.65 0.866819 -1.75456 0
M  V30 17392 C 1632.95 -2.51893 -2.53544 0
M  V30 17393 C 1632.62 -3.96636 -2.14455 0
M  V30 17394 C 1631.28 -4.36048 -2.03508 0
M  V30 17395 C 1633.63 -4.87668 -1.83929 0
M  V30 17396 C 1630.96 -5.64389 -1.60256 0
M  V30 17397 C 1633.31 -6.16419 -1.42163 0
M  V30 17398 C 1631.98 -6.54763 -1.29774 0
M  V30 17399 H 1631.25 -0.546373 -0.500557 0
M  V30 17400 H 1633.89 -1.78702 -0.68832 0
M  V30 17401 H 1632.2 -2.16068 -3.26836 0
M  V30 17402 H 1633.89 -2.52187 -3.11773 0
M  V30 17403 H 1630.48 -3.65467 -2.23901 0
M  V30 17404 H 1634.67 -4.57956 -1.91284 0
M  V30 17405 H 1629.92 -5.92894 -1.49285 0
M  V30 17406 H 1634.1 -6.86401 -1.17588 0
M  V30 17407 H 1631.73 -7.5411 -0.960322 0
M  V30 17408 N 1633.3 0.851265 -1.32632 0
M  V30 17409 C 1634.21 1.99239 -1.23858 0
M  V30 17410 C 1635.23 1.73339 -0.151517 0
M  V30 17411 O 1636.4 1.97919 -0.372822 0
M  V30 17412 C 1633.47 3.32987 -0.965417 0
M  V30 17413 C 1632.53 3.72087 -2.14126 0
M  V30 17414 C 1631.76 4.99453 -1.88103 0
M  V30 17415 O 1631.98 5.64399 -0.825253 0
M  V30 17416 O 1630.92 5.35763 -2.74302 0
M  V30 17417 H 1634.74 2.09579 -2.19796 0
M  V30 17418 H 1632.33 0.98243 -1.12555 0
M  V30 17419 H 1634.21 4.13151 -0.829713 0
M  V30 17420 H 1632.89 3.2368 -0.036219 0
M  V30 17421 H 1631.79 2.92485 -2.33245 0
M  V30 17422 H 1633.13 3.86045 -3.05336 0
M  V30 17423 N 1634.78 1.15898 1.06796 0
M  V30 17424 C 1636.01 0.961372 1.83208 0
M  V30 17425 C 1636.42 -0.490392 1.8232 0
M  V30 17426 O 1635.78 -1.34025 1.2387 0
M  V30 17427 C 1635.83 1.47486 3.30045 0
M  V30 17428 O 1635.55 2.86976 3.31023 0
M  V30 17429 C 1637.05 1.31955 4.23205 0
M  V30 17430 H 1634.27 0.34109 0.57784 0
M  V30 17431 H 1636.82 1.53805 1.34775 0
M  V30 17432 H 1634.97 0.940586 3.75808 0
M  V30 17433 H 1635.38 3.1038 4.22805 0
M  V30 17434 H 1636.86 1.72721 5.24282 0
M  V30 17435 H 1637.34 0.264439 4.38403 0
M  V30 17436 H 1637.94 1.84319 3.83284 0
M  V30 17437 N 1636.26 -1.25243 0.956659 0
M  V30 17438 C 1637.5 -1.93299 0.613446 0
M  V30 17439 C 1637.84 -1.74723 -0.847671 0
M  V30 17440 O 1637.11 -1.09357 -1.60846 0
M  V30 17441 C 1637.39 -3.46637 0.975421 0
M  V30 17442 C 1637.25 -3.74431 2.49242 0
M  V30 17443 C 1638.57 -4.37228 0.501948 0
M  V30 17444 H 1635.68 -0.702027 0.224338 0
M  V30 17445 H 1638.33 -1.47822 1.19368 0
M  V30 17446 H 1636.48 -3.85503 0.48167 0
M  V30 17447 H 1638.15 -3.4519 3.06009 0
M  V30 17448 H 1636.39 -3.19967 2.92923 0
M  V30 17449 H 1637.06 -4.81674 2.69619 0
M  V30 17450 H 1639.54 -4.05677 0.925514 0
M  V30 17451 H 1638.41 -5.43274 0.783895 0
M  V30 17452 H 1638.68 -4.38036 -0.598082 0
M  V30 17453 N 1637.73 -0.725468 -1.3991 0
M  V30 17454 C 1638.96 -0.279202 -2.05007 0
M  V30 17455 C 1639.38 1.08257 -1.5468 0
M  V30 17456 O 1638.73 1.68224 -0.707585 0
M  V30 17457 C 1638.79 -0.261347 -3.60554 0
M  V30 17458 O 1638.51 -1.56935 -4.09027 0
M  V30 17459 C 1640.01 0.202259 -4.42838 0
M  V30 17460 H 1637.23 -0.123664 -0.659506 0
M  V30 17461 H 1639.77 -0.986447 -1.79135 0
M  V30 17462 H 1637.93 0.396936 -3.85361 0
M  V30 17463 H 1638.34 -1.47647 -5.0329 0
M  V30 17464 H 1639.81 0.163598 -5.51758 0
M  V30 17465 H 1640.29 1.24597 -4.21156 0
M  V30 17466 H 1640.9 -0.426108 -4.2316 0
M  V30 17467 N 1639.21 1.50354 -0.472382 0
M  V30 17468 C 1640.18 2.27096 0.30981 0
M  V30 17469 C 1641.18 1.3193 0.919306 0
M  V30 17470 O 1642.37 1.55344 0.788284 0
M  V30 17471 C 1639.5 3.08924 1.44149 0
M  V30 17472 H 1640.69 2.97692 -0.363228 0
M  V30 17473 H 1638.24 1.5465 -0.226483 0
M  V30 17474 H 1638.98 2.42828 2.14954 0
M  V30 17475 H 1638.76 3.78862 1.01023 0
M  V30 17476 H 1640.25 3.66961 1.99323 0
M  V30 17477 N 1640.69 0.205039 1.56261 0
M  V30 17478 C 1641.94 -0.430245 1.97467 0
M  V30 17479 C 1642.26 -1.6146 1.09342 0
M  V30 17480 O 1641.53 -1.95188 0.166836 0
M  V30 17481 H 1640.11 -0.161945 0.729234 0
M  V30 17482 H 1642.77 0.294089 1.92668 0
M  V30 17483 H 1641.87 -0.767699 3.02511 0
M  V30 17484 N 1642.17 -1.57451 -0.0684915 0
M  V30 17485 C 1643.45 -1.78483 -0.800209 0
M  V30 17486 C 1643.83 -0.793438 -1.95621 0
M  V30 17487 O 1643.17 0.172756 -2.27846 0
M  V30 17488 C 1643.38 -3.25069 -1.27008 0
M  V30 17489 C 1644.73 -3.8899 -1.70212 0
M  V30 17490 O 1645.76 -3.2898 -1.36566 0
M  V30 17491 O 1644.62 -4.94569 -2.32515 0
M  V30 17492 H 1641.71 -0.732598 -0.383704 0
M  V30 17493 H 1644.26 -1.69631 -0.0483117 0
M  V30 17494 H 1643.03 -3.88784 -0.443067 0
M  V30 17495 H 1642.65 -3.38657 -2.08319 0
M  V30 17496 N 1643.65 0.339955 -1.5389 0
M  V30 17497 C 1644.58 1.44096 -1.76951 0
M  V30 17498 C 1645.56 1.50367 -0.618758 0
M  V30 17499 O 1646.74 1.68028 -0.854329 0
M  V30 17500 C 1643.87 2.82307 -1.87137 0
M  V30 17501 C 1642.92 2.93645 -3.09314 0
M  V30 17502 S 1643.75 2.59742 -4.68288 0
M  V30 17503 C 1644.9 4.00055 -4.81359 0
M  V30 17504 H 1645.14 1.24318 -2.7006 0
M  V30 17505 H 1642.67 0.535835 -1.44804 0
M  V30 17506 H 1644.63 3.61931 -1.93692 0
M  V30 17507 H 1643.29 2.99378 -0.950349 0
M  V30 17508 H 1642.48 3.94927 -3.13127 0
M  V30 17509 H 1642.08 2.21974 -3.01004 0
M  V30 17510 H 1644.38 4.94619 -4.62989 0
M  V30 17511 H 1645.32 4.01234 -5.83452 0
M  V30 17512 H 1645.73 3.88248 -4.09785 0
M  V30 17513 N 1645.13 1.45684 0.601159 0
M  V30 17514 C 1646.54 1.30232 0.922598 0
M  V30 17515 C 1646.74 0.260086 1.99814 0
M  V30 17516 O 1645.8 -0.343753 2.50149 0
M  V30 17517 C 1647.11 2.68318 1.35743 0
M  V30 17518 C 1648.66 2.76264 1.47129 0
M  V30 17519 C 1649.13 4.1489 1.93986 0
M  V30 17520 N 1650.62 4.17216 2.01209 0
M  V30 17521 C 1651.36 5.21354 2.387 0
M  V30 17522 N 1650.86 6.35833 2.75114 0
M  V30 17523 N 1652.65 5.08714 2.39095 0
M  V30 17524 H 1644.8 2.12117 -0.109634 0
M  V30 17525 H 1647.06 0.947902 0.0136129 0
M  V30 17526 H 1646.77 3.45804 0.64127 0
M  V30 17527 H 1646.64 2.97206 2.32268 0
M  V30 17528 H 1649.03 1.99077 2.17835 0
M  V30 17529 H 1649.11 2.51082 0.489028 0
M  V30 17530 H 1648.75 4.92565 1.23864 0
M  V30 17531 H 1648.68 4.37468 2.93137 0
M  V30 17532 H 1651.18 3.34607 1.75632 0
M  V30 17533 H 1651.49 7.11084 3.02622 0
M  V30 17534 H 1649.83 6.39224 2.72795 0
M  V30 17535 H 1653.02 4.18322 2.10057 0
M  V30 17536 H 1653.2 5.89989 2.67987 0
M  V30 17537 N 1646.6 -0.84422 1.33082 0
M  V30 17538 C 1647.85 -1.60149 1.24419 0
M  V30 17539 C 1648.18 -1.93259 -0.190992 0
M  V30 17540 O 1647.46 -1.58242 -1.13092 0
M  V30 17541 C 1647.74 -2.91502 2.11421 0
M  V30 17542 C 1647.59 -2.65108 3.6337 0
M  V30 17543 C 1648.91 -3.92878 1.98331 0
M  V30 17544 H 1646.03 -0.581096 0.453317 0
M  V30 17545 H 1648.67 -0.974093 1.6313 0
M  V30 17546 H 1646.82 -3.45046 1.78537 0
M  V30 17547 H 1648.5 -2.18037 4.06519 0
M  V30 17548 H 1646.74 -1.98896 3.85516 0
M  V30 17549 H 1647.41 -3.58682 4.19584 0
M  V30 17550 H 1649.89 -3.48623 2.27159 0
M  V30 17551 H 1648.76 -4.82625 2.61466 0
M  V30 17552 H 1649.02 -4.31685 0.953972 0
M  V30 17553 N 1648.08 -1.16463 -1.0618 0
M  V30 17554 C 1649.33 -0.944975 -1.78647 0
M  V30 17555 C 1649.65 0.528486 -1.87702 0
M  V30 17556 O 1648.92 1.38391 -1.38653 0
M  V30 17557 H 1647.5 -0.346637 -0.661704 0
M  V30 17558 H 1650.16 -1.46752 -1.28257 0
M  V30 17559 H 1649.26 -1.36469 -2.80683 0
M  V30 17560 N 1649.56 1.24734 -0.963288 0
M  V30 17561 C 1650.81 1.93291 -0.63327 0
M  V30 17562 C 1651.16 1.7396 0.821935 0
M  V30 17563 O 1650.45 1.07933 1.58307 0
M  V30 17564 C 1650.65 3.44867 -0.938151 0
M  V30 17565 C 1650.48 3.78941 -2.42144 0
M  V30 17566 C 1649.25 4.00541 -3.08051 0
M  V30 17567 C 1651.44 3.85769 -3.40128 0
M  V30 17568 N 1649.43 4.21677 -4.46163 0
M  V30 17569 C 1650.8 4.11696 -4.6358 0
M  V30 17570 C 1652.85 3.68486 -3.34846 0
M  V30 17571 C 1651.56 4.22138 -5.82402 0
M  V30 17572 C 1653.58 3.80172 -4.53016 0
M  V30 17573 C 1652.94 4.0652 -5.75258 0
M  V30 17574 H 1649.04 0.729192 -0.282495 0
M  V30 17575 H 1651.63 1.50334 -1.23724 0
M  V30 17576 H 1649.8 3.867 -0.363032 0
M  V30 17577 H 1651.53 4.00706 -0.567156 0
M  V30 17578 H 1648.28 3.96769 -2.58595 0
M  V30 17579 H 1648.71 4.36234 -5.17715 0
M  V30 17580 H 1653.35 3.47126 -2.41378 0
M  V30 17581 H 1651.07 4.42311 -6.76303 0
M  V30 17582 H 1654.65 3.68175 -4.50487 0
M  V30 17583 H 1653.53 4.15354 -6.6517 0
M  V30 17584 N 1651.04 0.732878 1.39523 0
M  V30 17585 C 1652.26 0.288717 2.05381 0
M  V30 17586 C 1652.69 -1.06727 1.5489 0
M  V30 17587 O 1652.05 -1.67585 0.691726 0
M  V30 17588 C 1652.09 0.297738 3.59369 0
M  V30 17589 O 1651.2 -0.715335 4.06149 0
M  V30 17590 H 1650.54 0.131696 0.650809 0
M  V30 17591 H 1653.07 0.998206 1.78597 0
M  V30 17592 H 1653.08 0.141391 4.07755 0
M  V30 17593 H 1651.75 1.28719 3.9548 0
M  V30 17594 H 1650.33 -0.525298 3.69182 0
M  V30 17595 N 1652.52 -1.50101 0.480349 0
M  V30 17596 C 1653.93 -1.59028 0.135048 0
M  V30 17597 C 1654.13 -1.48763 -1.35911 0
M  V30 17598 O 1653.19 -1.35089 -2.13324 0
M  V30 17599 C 1654.5 -2.92594 0.693483 0
M  V30 17600 C 1656.05 -3.06011 0.657737 0
M  V30 17601 C 1656.52 -4.42166 1.19388 0
M  V30 17602 N 1658.01 -4.48603 1.15368 0
M  V30 17603 C 1658.75 -5.52363 1.53893 0
M  V30 17604 N 1658.25 -6.6333 1.99911 0
M  V30 17605 N 1660.04 -5.42959 1.45438 0
M  V30 17606 H 1652.19 -1.55017 1.45202 0
M  V30 17607 H 1654.45 -0.733118 0.601034 0
M  V30 17608 H 1654.16 -3.0561 1.74056 0
M  V30 17609 H 1654.03 -3.76932 0.142238 0
M  V30 17610 H 1656.42 -2.92637 -0.38045 0
M  V30 17611 H 1656.5 -2.23408 1.24589 0
M  V30 17612 H 1656.14 -4.5629 2.23074 0
M  V30 17613 H 1656.07 -5.23376 0.58185 0
M  V30 17614 H 1658.57 -3.68979 0.816271 0
M  V30 17615 H 1658.88 -7.38576 2.27431 0
M  V30 17616 H 1657.22 -6.64426 2.03871 0
M  V30 17617 H 1660.41 -4.55156 1.09321 0
M  V30 17618 H 1660.59 -6.23701 1.75786 0
M  V30 17619 N 1653.99 -0.213323 -1.5615 0
M  V30 17620 C 1655.4 0.29602 -1.84338 0
M  V30 17621 C 1655.76 1.60073 -1.13451 0
M  V30 17622 O 1654.88 2.12645 -0.4014 0
M  V30 17623 C 1655.48 0.54387 -3.34406 0
M  V30 17624 C 1654.03 0.997539 -3.62941 0
M  V30 17625 C 1653.18 0.0560823 -2.77243 0
M  V30 17626 H 1656.13 -0.436707 -1.52573 0
M  V30 17627 H 1656.15 1.39093 -3.54166 0
M  V30 17628 H 1655.67 -0.405885 -3.85972 0
M  V30 17629 H 1653.77 1.96094 -3.16825 0
M  V30 17630 H 1653.88 0.877642 -4.70993 0
M  V30 17631 H 1652.24 0.561362 -2.48437 0
M  V30 17632 H 1653.03 -0.888442 -3.31605 0
M  V30 17633 N 1655.47 1.57485 0.0601405 0
M  V30 17634 C 1656.72 1.87445 0.755575 0
M  V30 17635 C 1657.04 0.806915 1.77522 0
M  V30 17636 O 1656.31 -0.163139 1.9522 0
M  V30 17637 H 1654.89 0.691708 0.282044 0
M  V30 17638 H 1657.55 1.94871 0.0334616 0
M  V30 17639 H 1656.65 2.85334 1.26455 0
M  V30 17640 N 1656.95 -0.331789 1.54068 0
M  V30 17641 C 1658.19 -1.07901 1.736 0
M  V30 17642 C 1658.55 -1.85513 0.494862 0
M  V30 17643 O 1659.76 -2.62743 0.567392 0
M  V30 17644 C 1658.03 -1.9858 2.97154 0
M  V30 17645 S 1659.59 -2.80365 3.37552 0
M  V30 17646 H 1656.4 -0.364399 0.61052 0
M  V30 17647 H 1659.01 -0.355989 1.92232 0
M  V30 17648 H 1657.71 -1.40383 3.85643 0
M  V30 17649 H 1657.24 -2.753 2.81022 0
M  V30 17650 H 1659.26 -4.01036 2.92207 0
M  V30 17651 N 1658.43 -1.46001 -0.593424 0
M  V30 17652 C 1659.36 -1.51774 -1.71748 0
M  V30 17653 C 1660.37 -0.407093 -1.57628 0
M  V30 17654 O 1661.56 -0.674903 -1.65249 0
M  V30 17655 C 1658.66 -1.3718 -3.09895 0
M  V30 17656 C 1657.84 -2.62173 -3.5012 0
M  V30 17657 C 1656.89 -2.41933 -4.67285 0
M  V30 17658 O 1655.92 -3.15611 -4.73686 0
M  V30 17659 N 1657.12 -1.47405 -5.61473 0
M  V30 17660 H 1659.89 -2.48689 -1.67253 0
M  V30 17661 H 1657.45 -1.41921 -0.779111 0
M  V30 17662 H 1659.44 -1.21428 -3.86054 0
M  V30 17663 H 1658.01 -0.484876 -3.08817 0
M  V30 17664 H 1657.23 -2.92943 -2.63777 0
M  V30 17665 H 1658.52 -3.45229 -3.73758 0
M  V30 17666 H 1657.92 -0.866282 -5.59028 0
M  V30 17667 H 1656.47 -1.3762 -6.37106 0
M  V30 17668 N 1659.91 0.83715 -1.33527 0
M  V30 17669 C 1661.32 1.40878 -1.22516 0
M  V30 17670 C 1661.67 1.95585 0.155236 0
M  V30 17671 O 1660.79 1.88946 1.05491 0
M  V30 17672 C 1661.39 2.56093 -2.21815 0
M  V30 17673 C 1659.95 3.09205 -2.14638 0
M  V30 17674 C 1659.09 1.82012 -2.09205 0
M  V30 17675 H 1662.05 0.642766 -1.45101 0
M  V30 17676 H 1662.07 3.33775 -1.82687 0
M  V30 17677 H 1661.58 2.16246 -3.22272 0
M  V30 17678 H 1659.68 3.53592 -1.17489 0
M  V30 17679 H 1659.79 3.69261 -3.05259 0
M  V30 17680 H 1658.16 2.02331 -1.54707 0
M  V30 17681 H 1658.94 1.44359 -3.11473 0
M  V30 17682 N 1661.38 1.17024 1.05561 0
M  V30 17683 C 1662.66 0.86635 1.75367 0
M  V30 17684 C 1663.04 -0.634217 2.01348 0
M  V30 17685 O 1662.39 -1.58434 1.64654 0
M  V30 17686 C 1662.6 1.69719 3.04953 0
M  V30 17687 C 1663.95 1.91482 3.78972 0
M  V30 17688 O 1664.97 1.66647 3.14813 0
M  V30 17689 O 1663.83 2.33197 4.94248 0
M  V30 17690 H 1660.92 0.320412 0.762407 0
M  V30 17691 H 1663.47 1.277 1.11763 0
M  V30 17692 H 1662.24 2.71512 2.81775 0
M  V30 17693 H 1661.87 1.28408 3.76294 0
M  V30 17694 N 1662.86 -1.24221 0.969889 0
M  V30 17695 C 1663.79 -2.24544 0.459636 0
M  V30 17696 C 1664.81 -1.56941 -0.432813 0
M  V30 17697 O 1666 -1.76898 -0.238637 0
M  V30 17698 C 1663.1 -3.3703 -0.3555 0
M  V30 17699 C 1662.27 -4.34207 0.527566 0
M  V30 17700 C 1661.33 -5.25689 -0.231934 0
M  V30 17701 O 1660.35 -5.67964 0.37488 0
M  V30 17702 N 1661.56 -5.60222 -1.5209 0
M  V30 17703 H 1664.32 -2.68957 1.3222 0
M  V30 17704 H 1661.88 -1.38285 0.84196 0
M  V30 17705 H 1663.87 -3.95201 -0.871685 0
M  V30 17706 H 1662.44 -2.91885 -1.11901 0
M  V30 17707 H 1661.66 -3.74693 1.2247 0
M  V30 17708 H 1662.95 -4.96099 1.12975 0
M  V30 17709 H 1662.35 -5.27807 -2.03559 0
M  V30 17710 H 1660.91 -6.20911 -1.98273 0
M  V30 17711 N 1664.34 -0.740267 -1.39132 0
M  V30 17712 C 1665.25 -0.105452 -2.34363 0
M  V30 17713 C 1666.27 0.715908 -1.5859 0
M  V30 17714 O 1667.44 0.643155 -1.90855 0
M  V30 17715 C 1664.51 0.787141 -3.37646 0
M  V30 17716 C 1663.57 -0.047071 -4.29274 0
M  V30 17717 C 1662.8 0.803014 -5.27624 0
M  V30 17718 O 1663.02 2.04155 -5.32613 0
M  V30 17719 O 1661.96 0.228879 -6.01465 0
M  V30 17720 H 1665.78 -0.891588 -2.90318 0
M  V30 17721 H 1663.37 -0.500996 -1.40749 0
M  V30 17722 H 1665.25 1.29769 -4.00921 0
M  V30 17723 H 1663.93 1.552 -2.84068 0
M  V30 17724 H 1662.83 -0.603265 -3.69204 0
M  V30 17725 H 1664.17 -0.774273 -4.86072 0
M  V30 17726 N 1665.82 1.49844 -0.488302 0
M  V30 17727 C 1666.75 2.31737 0.286432 0
M  V30 17728 C 1667.73 1.39424 0.974418 0
M  V30 17729 O 1668.91 1.68339 0.968274 0
M  V30 17730 C 1666.04 3.19616 1.35878 0
M  V30 17731 C 1665 4.20619 0.791409 0
M  V30 17732 C 1664.32 4.9735 1.96333 0
M  V30 17733 C 1665.62 5.21882 -0.208975 0
M  V30 17734 H 1667.32 2.96755 -0.397092 0
M  V30 17735 H 1664.86 1.42709 -0.192413 0
M  V30 17736 H 1666.82 3.75711 1.90838 0
M  V30 17737 H 1665.54 2.52516 2.07131 0
M  V30 17738 H 1664.2 3.65651 0.263647 0
M  V30 17739 H 1663.85 4.26708 2.66325 0
M  V30 17740 H 1663.55 5.65684 1.58983 0
M  V30 17741 H 1665.07 5.56286 2.51751 0
M  V30 17742 H 1666.49 5.72746 0.252049 0
M  V30 17743 H 1664.88 5.98033 -0.497638 0
M  V30 17744 H 1665.95 4.7157 -1.12916 0
M  V30 17745 N 1667.3 0.221601 1.56034 0
M  V30 17746 C 1668.54 -0.409277 1.97912 0
M  V30 17747 C 1668.87 -1.60291 1.11049 0
M  V30 17748 O 1668.14 -1.95 0.187529 0
M  V30 17749 H 1666.72 -0.154201 0.730911 0
M  V30 17750 H 1669.38 0.314508 1.92346 0
M  V30 17751 H 1668.47 -0.73557 3.03308 0
M  V30 17752 N 1668.77 -1.57515 -0.0517878 0
M  V30 17753 C 1670 -1.92845 -0.763249 0
M  V30 17754 C 1670.42 -0.819745 -1.69298 0
M  V30 17755 O 1669.78 0.226161 -1.79884 0
M  V30 17756 C 1669.83 -3.27189 -1.5159 0
M  V30 17757 O 1668.93 -3.17834 -2.62783 0
M  V30 17758 H 1668.28 -0.630944 -0.206896 0
M  V30 17759 H 1670.81 -2.04595 -0.0140481 0
M  V30 17760 H 1670.82 -3.61542 -1.89081 0
M  V30 17761 H 1669.49 -4.07455 -0.833871 0
M  V30 17762 H 1668.07 -2.95075 -2.28002 0
M  V30 17763 N 1670.25 0.323614 -1.54242 0
M  V30 17764 C 1671.53 1.07979 -1.63095 0
M  V30 17765 C 1671.91 2.0592 -0.464774 0
M  V30 17766 O 1671.26 2.22004 0.540961 0
M  V30 17767 C 1671.47 1.78178 -3.0009 0
M  V30 17768 C 1672.82 2.31201 -3.56134 0
M  V30 17769 O 1673.84 1.88245 -3.02394 0
M  V30 17770 O 1672.7 3.09843 -4.50177 0
M  V30 17771 H 1669.79 0.497726 -0.660453 0
M  V30 17772 H 1672.34 0.323509 -1.66588 0
M  V30 17773 H 1671.11 1.06938 -3.76404 0
M  V30 17774 H 1670.73 2.60616 -3.00275 0
M  V30 17775 N 1671.73 1.46313 0.585673 0
M  V30 17776 C 1672.64 1.59232 1.72286 0
M  V30 17777 C 1673.66 0.475912 1.67365 0
M  V30 17778 O 1674.83 0.739627 1.87327 0
M  V30 17779 C 1671.9 1.57647 3.08785 0
M  V30 17780 C 1670.96 2.80497 3.24992 0
M  V30 17781 C 1670.19 2.78978 4.5498 0
M  V30 17782 O 1670.42 1.87553 5.38684 0
M  V30 17783 O 1669.35 3.7048 4.74371 0
M  V30 17784 H 1673.18 2.55398 1.64334 0
M  V30 17785 H 1670.76 1.29073 0.752369 0
M  V30 17786 H 1672.64 1.59448 3.90069 0
M  V30 17787 H 1671.32 0.6464 3.1718 0
M  V30 17788 H 1670.22 2.8425 2.43213 0
M  V30 17789 H 1671.56 3.72703 3.21487 0
M  V30 17790 N 1673.21 -0.830057 1.33969 0
M  V30 17791 C 1674.63 -1.12209 1.13496 0
M  V30 17792 C 1674.83 -2.01384 -0.0682972 0
M  V30 17793 O 1673.88 -2.4123 -0.745949 0
M  V30 17794 C 1675.19 -1.77568 2.42673 0
M  V30 17795 C 1676.74 -1.90095 2.48662 0
M  V30 17796 C 1677.22 -2.5887 3.77823 0
M  V30 17797 N 1678.71 -2.66375 3.78944 0
M  V30 17798 C 1679.44 -3.20301 4.75599 0
M  V30 17799 N 1678.94 -3.74846 5.82634 0
M  V30 17800 N 1680.73 -3.18636 4.63063 0
M  V30 17801 H 1672.88 -0.236752 2.11076 0
M  V30 17802 H 1675.15 -0.167572 0.933072 0
M  V30 17803 H 1674.85 -1.19505 3.30774 0
M  V30 17804 H 1674.73 -2.77505 2.55481 0
M  V30 17805 H 1677.11 -2.47308 1.61005 0
M  V30 17806 H 1677.19 -0.890808 2.39788 0
M  V30 17807 H 1676.84 -2.02313 4.65867 0
M  V30 17808 H 1676.77 -3.60373 3.83978 0
M  V30 17809 H 1679.26 -2.27705 3.01594 0
M  V30 17810 H 1679.57 -4.14224 6.52409 0
M  V30 17811 H 1677.92 -3.7311 5.86357 0
M  V30 17812 H 1681.11 -2.75286 3.78597 0
M  V30 17813 H 1681.28 -3.60359 5.38559 0
M  V30 17814 N 1674.69 -1.17582 -1.04939 0
M  V30 17815 C 1675.65 -0.897095 -2.10914 0
M  V30 17816 C 1676.65 0.113823 -1.60397 0
M  V30 17817 O 1677.84 -0.118635 -1.73796 0
M  V30 17818 C 1674.97 -0.344251 -3.39157 0
M  V30 17819 H 1676.17 -1.83674 -2.37074 0
M  V30 17820 H 1673.72 -0.986634 -1.21224 0
M  V30 17821 H 1674.45 0.602417 -3.18656 0
M  V30 17822 H 1674.24 -1.07287 -3.77137 0
M  V30 17823 H 1675.73 -0.167644 -4.17263 0
M  V30 17824 N 1676.17 1.23705 -0.976463 0
M  V30 17825 C 1677.41 1.92015 -0.643168 0
M  V30 17826 C 1677.74 1.76239 0.822796 0
M  V30 17827 O 1677 1.11469 1.60851 0
M  V30 17828 C 1677.29 3.43853 -0.974676 0
M  V30 17829 C 1676.96 3.79805 -2.43021 0
M  V30 17830 C 1675.62 3.89329 -2.82801 0
M  V30 17831 C 1677.97 3.97218 -3.37442 0
M  V30 17832 C 1675.3 4.13691 -4.16025 0
M  V30 17833 C 1677.65 4.23079 -4.70305 0
M  V30 17834 C 1676.32 4.30824 -5.0985 0
M  V30 17835 H 1675.59 0.702631 -0.235352 0
M  V30 17836 H 1678.24 1.46811 -1.22959 0
M  V30 17837 H 1676.54 3.90602 -0.306121 0
M  V30 17838 H 1678.24 3.9493 -0.695061 0
M  V30 17839 H 1674.83 3.72963 -2.11179 0
M  V30 17840 H 1679.01 3.89254 -3.07889 0
M  V30 17841 H 1674.27 4.17909 -4.46276 0
M  V30 17842 H 1678.44 4.35496 -5.4343 0
M  V30 17843 H 1676.07 4.49454 -6.13103 0
M  V30 17844 N 1677.64 0.747635 1.38738 0
M  V30 17845 C 1678.61 0.124321 2.28863 0
M  V30 17846 C 1679.61 -0.653816 1.46908 0
M  V30 17847 O 1680.8 -0.480963 1.67429 0
M  V30 17848 C 1677.93 -0.832601 3.30576 0
M  V30 17849 H 1679.12 0.918492 2.85489 0
M  V30 17850 H 1676.67 0.514262 1.47598 0
M  V30 17851 H 1677.41 -1.65267 2.79029 0
M  V30 17852 H 1677.19 -0.277109 3.9112 0
M  V30 17853 H 1678.68 -1.2649 3.97982 0
M  V30 17854 N 1679.12 -1.49583 0.496242 0
M  V30 17855 C 1680.37 -2.02438 -0.049963 0
M  V30 17856 C 1680.7 -1.37632 -1.37433 0
M  V30 17857 O 1679.95 -0.499552 -1.89217 0
M  V30 17858 C 1680.25 -3.56482 -0.255949 0
M  V30 17859 C 1679.92 -4.39901 0.989824 0
M  V30 17860 C 1678.58 -4.62417 1.33132 0
M  V30 17861 C 1680.93 -4.88461 1.81811 0
M  V30 17862 C 1678.26 -5.30737 2.50071 0
M  V30 17863 C 1680.61 -5.58067 2.97899 0
M  V30 17864 C 1679.27 -5.7883 3.32434 0
M  V30 17865 H 1678.54 -0.740774 -0.0182828 0
M  V30 17866 H 1681.19 -1.79934 0.655434 0
M  V30 17867 H 1679.5 -3.77639 -1.04383 0
M  V30 17868 H 1681.19 -3.94967 -0.692943 0
M  V30 17869 H 1677.78 -4.22614 0.713811 0
M  V30 17870 H 1681.97 -4.70898 1.56743 0
M  V30 17871 H 1677.22 -5.45015 2.77072 0
M  V30 17872 H 1681.4 -5.9467 3.6241 0
M  V30 17873 H 1679.02 -6.31544 4.23151 0
M  V30 17874 N 1680.6 -0.229873 -1.55915 0
M  V30 17875 C 1681.88 0.449007 -1.90377 0
M  V30 17876 C 1682.26 1.77133 -1.14835 0
M  V30 17877 O 1681.6 2.27012 -0.260328 0
M  V30 17878 C 1681.81 0.633805 -3.43197 0
M  V30 17879 C 1683.16 0.937453 -4.14122 0
M  V30 17880 O 1684.19 0.72029 -3.48841 0
M  V30 17881 O 1683.05 1.35005 -5.29562 0
M  V30 17882 H 1680.14 0.238557 -0.791846 0
M  V30 17883 H 1682.69 -0.272676 -1.67495 0
M  V30 17884 H 1681.46 -0.298587 -3.90159 0
M  V30 17885 H 1681.08 1.40667 -3.71885 0
M  V30 17886 N 1682.08 1.5754 0.0434337 0
M  V30 17887 C 1683.33 1.88235 0.735652 0
M  V30 17888 C 1683.65 0.825698 1.76656 0
M  V30 17889 O 1682.92 -0.142424 1.95382 0
M  V30 17890 H 1681.5 0.694661 0.274692 0
M  V30 17891 H 1684.16 1.94896 0.0127911 0
M  V30 17892 H 1683.25 2.86659 1.23421 0
M  V30 17893 N 1683.56 -0.31543 1.54411 0
M  V30 17894 C 1684.8 -1.0524 1.73005 0
M  V30 17895 C 1685.13 -1.87747 0.50808 0
M  V30 17896 O 1684.39 -1.88935 -0.51012 0
M  V30 17897 C 1684.68 -1.99884 2.96279 0
M  V30 17898 C 1684.35 -1.33468 4.30694 0
M  V30 17899 C 1683.01 -1.15087 4.67235 0
M  V30 17900 C 1685.36 -0.858688 5.14078 0
M  V30 17901 C 1682.69 -0.47767 5.84752 0
M  V30 17902 C 1685.04 -0.199278 6.32286 0
M  V30 17903 C 1683.71 -0.00338158 6.675 0
M  V30 17904 H 1682.98 -0.385102 0.63307 0
M  V30 17905 H 1685.63 -0.328714 1.88658 0
M  V30 17906 H 1683.93 -2.78732 2.75347 0
M  V30 17907 H 1685.63 -2.56951 3.07859 0
M  V30 17908 H 1682.22 -1.48779 4.01949 0
M  V30 17909 H 1686.4 -0.98846 4.86357 0
M  V30 17910 H 1681.66 -0.314772 6.10589 0
M  V30 17911 H 1685.83 0.177517 6.96174 0
M  V30 17912 H 1683.46 0.52028 7.58418 0
M  V30 17913 N 1685.03 -1.46622 -0.577906 0
M  V30 17914 C 1685.98 -1.57549 -1.68662 0
M  V30 17915 C 1686.95 -0.419536 -1.60714 0
M  V30 17916 O 1688.14 -0.636916 -1.79856 0
M  V30 17917 C 1685.28 -1.57627 -3.06998 0
M  V30 17918 C 1684.39 -2.83991 -3.25535 0
M  V30 17919 C 1683.52 -2.75541 -4.54148 0
M  V30 17920 C 1682.56 -3.96823 -4.66045 0
M  V30 17921 N 1681.7 -3.86731 -5.8599 0
M  V30 17922 H 1686.54 -2.52252 -1.58659 0
M  V30 17923 H 1684.08 -1.2514 -0.773195 0
M  V30 17924 H 1686.04 -1.55657 -3.87075 0
M  V30 17925 H 1684.67 -0.664527 -3.15886 0
M  V30 17926 H 1683.72 -2.9592 -2.3903 0
M  V30 17927 H 1685.03 -3.73864 -3.30193 0
M  V30 17928 H 1684.18 -2.71703 -5.42459 0
M  V30 17929 H 1682.92 -1.83317 -4.51936 0
M  V30 17930 H 1681.93 -4.00987 -3.76151 0
M  V30 17931 H 1683.15 -4.90149 -4.70033 0
M  V30 17932 H 1681.1 -2.97296 -5.84766 0
M  V30 17933 H 1681.02 -4.70263 -5.91937 0
M  V30 17934 H 1682.28 -3.86876 -6.76718 0
M  V30 17935 N 1686.51 0.822941 -1.34408 0
M  V30 17936 C 1687.48 1.91541 -1.25876 0
M  V30 17937 C 1688.48 1.59856 -0.17397 0
M  V30 17938 O 1689.67 1.68896 -0.426592 0
M  V30 17939 C 1686.8 3.27586 -0.943415 0
M  V30 17940 H 1687.99 2.00529 -2.22998 0
M  V30 17941 H 1685.54 1.01691 -1.18695 0
M  V30 17942 H 1686.28 3.24291 0.0246389 0
M  V30 17943 H 1686.06 3.51966 -1.72807 0
M  V30 17944 H 1687.55 4.07589 -0.908891 0
M  V30 17945 N 1687.99 1.18137 1.04314 0
M  V30 17946 C 1688.92 0.863879 2.12296 0
M  V30 17947 C 1689.94 -0.137469 1.62219 0
M  V30 17948 O 1691.12 0.0900306 1.78273 0
M  V30 17949 C 1688.22 0.269002 3.37831 0
M  V30 17950 C 1687.4 1.3154 4.17152 0
M  V30 17951 C 1686.46 0.736666 5.21018 0
M  V30 17952 O 1685.48 1.41075 5.5144 0
M  V30 17953 N 1686.68 -0.467037 5.78618 0
M  V30 17954 H 1689.45 1.7933 2.40127 0
M  V30 17955 H 1687.01 1.08142 1.20486 0
M  V30 17956 H 1689 -0.131671 4.04486 0
M  V30 17957 H 1687.57 -0.564386 3.07463 0
M  V30 17958 H 1686.79 1.89148 3.45856 0
M  V30 17959 H 1688.08 2.02093 4.66943 0
M  V30 17960 H 1687.48 -1.03247 5.56198 0
M  V30 17961 H 1686.04 -0.809663 6.46752 0
M  V30 17962 N 1689.47 -1.23186 0.98301 0
M  V30 17963 C 1690.88 -1.43814 0.69207 0
M  V30 17964 C 1691.08 -1.87387 -0.740823 0
M  V30 17965 O 1690.14 -2.02154 -1.51295 0
M  V30 17966 C 1691.45 -2.48769 1.68922 0
M  V30 17967 C 1693 -2.62579 1.70356 0
M  V30 17968 C 1693.48 -3.70746 2.68908 0
M  V30 17969 N 1694.97 -3.78192 2.67442 0
M  V30 17970 C 1695.7 -4.61453 3.40366 0
M  V30 17971 N 1695.2 -5.48784 4.22857 0
M  V30 17972 N 1696.99 -4.55673 3.29118 0
M  V30 17973 H 1689.14 -0.932046 1.90858 0
M  V30 17974 H 1691.41 -0.471274 0.82256 0
M  V30 17975 H 1691.11 -2.23675 2.71408 0
M  V30 17976 H 1690.99 -3.47201 1.47415 0
M  V30 17977 H 1693.37 -2.87022 0.685728 0
M  V30 17978 H 1693.45 -1.64454 1.9593 0
M  V30 17979 H 1693.1 -3.47051 3.70834 0
M  V30 17980 H 1693.03 -4.68418 2.40607 0
M  V30 17981 H 1695.52 -3.15785 2.07577 0
M  V30 17982 H 1695.83 -6.09312 4.75351 0
M  V30 17983 H 1694.18 -5.48398 4.26948 0
M  V30 17984 H 1697.37 -3.86468 2.64122 0
M  V30 17985 H 1697.54 -5.20332 3.8621 0
M  V30 17986 N 1690.95 -0.754982 -1.38339 0
M  V30 17987 C 1692.19 -0.321184 -2.00848 0
M  V30 17988 C 1692.55 1.08546 -1.58857 0
M  V30 17989 O 1691.84 1.7332 -0.816737 0
M  V30 17990 C 1692.03 -0.383719 -3.55334 0
M  V30 17991 C 1691.86 -1.7949 -4.12327 0
M  V30 17992 C 1690.63 -2.41176 -4.4403 0
M  V30 17993 C 1692.83 -2.75178 -4.3449 0
M  V30 17994 N 1690.81 -3.74241 -4.86638 0
M  V30 17995 C 1692.18 -3.93011 -4.79523 0
M  V30 17996 C 1694.24 -2.72683 -4.16592 0
M  V30 17997 C 1692.94 -5.0871 -5.08534 0
M  V30 17998 C 1694.97 -3.87541 -4.46728 0
M  V30 17999 C 1694.33 -5.04112 -4.91986 0
M  V30 18000 H 1690.43 -0.164217 -0.764563 0
M  V30 18001 H 1693.01 -0.985233 -1.67932 0
M  V30 18002 H 1691.18 0.250068 -3.87594 0
M  V30 18003 H 1692.92 0.0705302 -4.04639 0
M  V30 18004 H 1689.67 -1.9293 -4.32522 0
M  V30 18005 H 1690.1 -4.4261 -5.12275 0
M  V30 18006 H 1694.74 -1.8374 -3.80788 0
M  V30 18007 H 1692.46 -5.98266 -5.43234 0
M  V30 18008 H 1696.04 -3.86931 -4.34483 0
M  V30 18009 H 1694.92 -5.91514 -5.1486 0
M  V30 18010 N 1692.42 1.49318 -0.504168 0
M  V30 18011 C 1693.37 2.26124 0.291886 0
M  V30 18012 C 1694.36 1.31105 0.932753 0
M  V30 18013 O 1695.55 1.55807 0.839828 0
M  V30 18014 C 1692.68 3.15477 1.35384 0
M  V30 18015 C 1691.77 4.1796 0.719059 0
M  V30 18016 N 1692.16 5.05479 -0.180167 0
M  V30 18017 C 1690.45 4.35116 0.979276 0
M  V30 18018 C 1691.16 5.79152 -0.543837 0
M  V30 18019 N 1690.13 5.43527 0.0889959 0
M  V30 18020 H 1693.93 2.91161 -0.400301 0
M  V30 18021 H 1691.45 1.59207 -0.320454 0
M  V30 18022 H 1693.44 3.69137 1.93762 0
M  V30 18023 H 1692.1 2.51993 2.04767 0
M  V30 18024 H 1693.12 5.14959 -0.551179 0
M  V30 18025 H 1689.79 3.82836 1.66562 0
M  V30 18026 H 1691.18 6.59601 -1.27968 0
M  V30 18027 N 1693.9 0.238138 1.5579 0
M  V30 18028 C 1694.83 -0.697701 2.18323 0
M  V30 18029 C 1695.85 -1.1453 1.15701 0
M  V30 18030 O 1697.04 -1.07359 1.42605 0
M  V30 18031 C 1694.14 -1.95895 2.76547 0
M  V30 18032 C 1693.31 -1.66422 4.04503 0
M  V30 18033 C 1692.37 -2.77419 4.4713 0
M  V30 18034 O 1691.39 -2.45179 5.13689 0
M  V30 18035 N 1692.6 -4.06731 4.14187 0
M  V30 18036 H 1695.36 -0.162705 2.99258 0
M  V30 18037 H 1692.92 0.0577602 1.61797 0
M  V30 18038 H 1694.91 -2.69374 3.02026 0
M  V30 18039 H 1693.48 -2.40398 1.99819 0
M  V30 18040 H 1692.7 -0.76505 3.86705 0
M  V30 18041 H 1693.99 -1.44183 4.87943 0
M  V30 18042 H 1693.39 -4.3576 3.60735 0
M  V30 18043 H 1691.95 -4.76701 4.44521 0
M  V30 18044 N 1695.38 -1.57561 -0.0350783 0
M  V30 18045 C 1696.63 -1.88623 -0.725659 0
M  V30 18046 C 1696.95 -0.835055 -1.76215 0
M  V30 18047 O 1696.22 0.13206 -1.95454 0
M  V30 18048 H 1694.8 -0.696108 -0.271004 0
M  V30 18049 H 1697.46 -1.949 -0.00245508 0
M  V30 18050 H 1696.56 -2.8731 -1.21899 0
M  V30 18051 N 1696.86 0.307236 -1.54576 0
M  V30 18052 C 1697.81 1.39877 -1.85842 0
M  V30 18053 C 1698.8 1.52786 -0.73163 0
M  V30 18054 O 1700.01 1.54977 -0.915534 0
M  V30 18055 H 1696.38 0.467101 -0.589339 0
M  V30 18056 H 1698.35 1.10739 -2.77091 0
M  V30 18057 C 1697.1 2.75829 -2.11692 0
M  V30 18058 H 1696.42 2.66675 -2.97867 0
M  V30 18059 H 1697.86 3.51232 -2.37513 0
M  V30 18060 C 1696.32 3.24278 -0.913522 0
M  V30 18061 O 1696.85 4.01487 -0.130903 0
M  V30 18062 N 1695.06 2.81523 -0.720625 0
M  V30 18063 H 1694.61 2.18854 -1.3587 0
M  V30 18064 H 1694.56 3.1429 0.083014 0
M  V30 18065 N 1698.34 1.46926 0.570122 0
M  V30 18066 C 1699.25 1.6105 1.70587 0
M  V30 18067 C 1700.26 0.493636 1.66851 0
M  V30 18068 O 1701.44 0.759454 1.86532 0
M  V30 18069 C 1698.5 1.60913 3.07096 0
M  V30 18070 C 1697.56 2.83928 3.21999 0
M  V30 18071 C 1696.8 2.83788 4.51996 0
M  V30 18072 O 1697.02 1.93256 5.36664 0
M  V30 18073 O 1695.95 3.75491 4.70415 0
M  V30 18074 H 1699.78 2.57126 1.61616 0
M  V30 18075 H 1697.37 1.29863 0.738637 0
M  V30 18076 H 1699.25 1.63576 3.88356 0
M  V30 18077 H 1697.92 0.680005 3.16477 0
M  V30 18078 H 1696.83 2.86814 2.40185 0
M  V30 18079 H 1698.16 3.76091 3.17516 0
M  V30 18080 N 1699.82 -0.815801 1.34842 0
M  V30 18081 C 1700.77 -1.9162 1.23555 0
M  V30 18082 C 1701.75 -1.6035 0.132922 0
M  V30 18083 O 1702.94 -1.73232 0.363269 0
M  V30 18084 C 1700.07 -3.284 1.00043 0
M  V30 18085 C 1699.16 -3.65765 2.14655 0
M  V30 18086 N 1699.55 -3.74639 3.39822 0
M  V30 18087 C 1697.85 -3.9566 2.05837 0
M  V30 18088 C 1698.55 -4.07478 4.15135 0
M  V30 18089 N 1697.52 -4.21075 3.43797 0
M  V30 18090 H 1701.32 -1.96669 2.184 0
M  V30 18091 H 1698.84 -1.00987 1.27183 0
M  V30 18092 H 1700.84 -4.07059 0.900462 0
M  V30 18093 H 1699.5 -3.24643 0.0607337 0
M  V30 18094 H 1700.51 -3.57951 3.74288 0
M  V30 18095 H 1697.18 -3.99982 1.19667 0
M  V30 18096 H 1698.57 -4.21488 5.23257 0
M  V30 18097 N 1701.29 -1.18689 -1.03686 0
M  V30 18098 C 1702.52 -1.00814 -1.80333 0
M  V30 18099 C 1702.93 0.446495 -1.83856 0
M  V30 18100 O 1702.27 1.32192 -1.27558 0
M  V30 18101 C 1702.34 -1.49133 -3.27108 0
M  V30 18102 C 1702 -2.97112 -3.47237 0
M  V30 18103 C 1703 -3.94938 -3.38113 0
M  V30 18104 C 1700.68 -3.35628 -3.7371 0
M  V30 18105 C 1702.68 -5.29274 -3.55172 0
M  V30 18106 C 1700.36 -4.70126 -3.90416 0
M  V30 18107 C 1701.36 -5.66758 -3.81148 0
M  V30 18108 O 1701.05 -6.98821 -3.97371 0
M  V30 18109 H 1700.78 -0.356077 -0.574617 0
M  V30 18110 H 1703.34 -1.57754 -1.31541 0
M  V30 18111 H 1701.57 -0.865624 -3.76887 0
M  V30 18112 H 1703.25 -1.27591 -3.85325 0
M  V30 18113 H 1704.02 -3.66527 -3.17621 0
M  V30 18114 H 1699.9 -2.6097 -3.8002 0
M  V30 18115 H 1703.44 -6.04684 -3.47854 0
M  V30 18116 H 1699.34 -4.98236 -4.10404 0
M  V30 18117 H 1700.11 -7.05779 -4.14509 0
M  V30 18118 N 1702.77 1.22662 -0.989529 0
M  V30 18119 C 1704.02 1.90944 -0.662187 0
M  V30 18120 C 1704.34 1.77477 0.807899 0
M  V30 18121 O 1703.61 1.15985 1.57874 0
M  V30 18122 H 1702.19 0.706738 -0.241932 0
M  V30 18123 H 1704.85 1.49091 -1.25531 0
M  V30 18124 H 1703.95 2.98177 -0.921777 0
M  V30 18125 N 1704.25 0.762308 1.37937 0
M  V30 18126 C 1705.67 0.440871 1.5339 0
M  V30 18127 C 1705.87 -1.04483 1.72295 0
M  V30 18128 O 1704.92 -1.83078 1.73892 0
M  V30 18129 C 1706.23 1.24772 2.73592 0
M  V30 18130 C 1707.78 1.23867 2.87447 0
M  V30 18131 C 1708.26 2.02866 4.10621 0
M  V30 18132 N 1709.75 2.00171 4.17715 0
M  V30 18133 C 1710.48 2.58086 5.12034 0
M  V30 18134 N 1709.98 3.2475 6.11972 0
M  V30 18135 N 1711.77 2.47968 5.04449 0
M  V30 18136 H 1703.92 1.72506 1.23916 0
M  V30 18137 H 1706.19 0.731791 0.602649 0
M  V30 18138 H 1705.89 2.30016 2.66056 0
M  V30 18139 H 1705.77 0.870485 3.67018 0
M  V30 18140 H 1708.15 0.194255 2.9446 0
M  V30 18141 H 1708.23 1.65548 1.95007 0
M  V30 18142 H 1707.88 3.07323 4.04369 0
M  V30 18143 H 1707.81 1.58574 5.02157 0
M  V30 18144 H 1710.3 1.5163 3.46146 0
M  V30 18145 H 1710.61 3.66339 6.80453 0
M  V30 18146 H 1708.96 3.28846 6.12279 0
M  V30 18147 H 1712.15 1.95509 4.25316 0
M  V30 18148 H 1712.32 2.93398 5.77773 0
M  V30 18149 N 1705.73 -1.49049 0.51208 0
M  V30 18150 C 1706.95 -2.07382 -0.0271044 0
M  V30 18151 C 1707.38 -1.3685 -1.29049 0
M  V30 18152 O 1706.74 -0.428713 -1.76158 0
M  V30 18153 C 1706.78 -3.59715 -0.252462 0
M  V30 18154 O 1705.89 -3.90538 -1.32491 0
M  V30 18155 H 1705.23 -0.663269 0.0311507 0
M  V30 18156 H 1707.76 -1.91705 0.714873 0
M  V30 18157 H 1707.77 -4.05159 -0.480603 0
M  V30 18158 H 1706.44 -4.10459 0.670531 0
M  V30 18159 H 1705.02 -3.56892 -1.08085 0
M  V30 18160 N 1707.21 -0.246397 -1.55662 0
M  V30 18161 C 1708.45 0.372173 -1.99966 0
M  V30 18162 C 1708.81 1.55602 -1.13162 0
M  V30 18163 O 1708.1 1.90685 -0.187055 0
M  V30 18164 C 1708.29 0.832225 -3.47576 0
M  V30 18165 C 1708.12 -0.305503 -4.48661 0
M  V30 18166 C 1706.89 -0.780019 -4.99243 0
M  V30 18167 C 1709.09 -1.13233 -5.0168 0
M  V30 18168 N 1707.07 -1.89021 -5.84076 0
M  V30 18169 C 1708.44 -2.09091 -5.83679 0
M  V30 18170 C 1710.5 -1.16895 -4.83984 0
M  V30 18171 C 1709.2 -3.08321 -6.4987 0
M  V30 18172 C 1711.23 -2.14955 -5.50952 0
M  V30 18173 C 1710.59 -3.09549 -6.32739 0
M  V30 18174 H 1706.69 0.102159 -0.775298 0
M  V30 18175 H 1709.27 -0.363859 -1.9127 0
M  V30 18176 H 1707.44 1.53755 -3.56671 0
M  V30 18177 H 1709.18 1.4257 -3.78756 0
M  V30 18178 H 1705.93 -0.364252 -4.72197 0
M  V30 18179 H 1706.35 -2.44806 -6.31189 0
M  V30 18180 H 1711 -0.45148 -4.20383 0
M  V30 18181 H 1708.71 -3.81017 -7.12637 0
M  V30 18182 H 1712.3 -2.18493 -5.39214 0
M  V30 18183 H 1711.18 -3.84188 -6.83644 0
M  V30 18184 N 1708.68 1.57577 0.026722 0
M  V30 18185 C 1709.62 2.03515 1.05424 0
M  V30 18186 C 1710.63 0.948362 1.32325 0
M  V30 18187 O 1711.82 1.22563 1.29771 0
M  V30 18188 C 1708.92 2.39744 2.39533 0
M  V30 18189 C 1708.09 3.70832 2.31954 0
M  V30 18190 C 1707.15 3.94224 3.48531 0
M  V30 18191 O 1706.18 4.6525 3.27919 0
M  V30 18192 N 1707.38 3.40044 4.70479 0
M  V30 18193 H 1710.14 2.92282 0.662678 0
M  V30 18194 H 1707.7 1.60471 0.214623 0
M  V30 18195 H 1709.7 2.52529 3.16245 0
M  V30 18196 H 1708.27 1.56636 2.70525 0
M  V30 18197 H 1707.49 3.68378 1.40325 0
M  V30 18198 H 1708.77 4.56821 2.24035 0
M  V30 18199 H 1708.17 2.82478 4.90125 0
M  V30 18200 H 1706.73 3.58205 5.44548 0
M  V30 18201 N 1710.16 -0.299034 1.54737 0
M  V30 18202 C 1711.12 -1.35199 1.85078 0
M  V30 18203 C 1712.12 -1.4359 0.723788 0
M  V30 18204 O 1713.31 -1.43191 0.992067 0
M  V30 18205 C 1710.45 -2.73659 2.03282 0
M  V30 18206 H 1711.64 -1.09538 2.7918 0
M  V30 18207 H 1709.19 -0.535803 1.46829 0
M  V30 18208 H 1709.93 -3.04539 1.11475 0
M  V30 18209 H 1709.71 -2.68959 2.85313 0
M  V30 18210 H 1711.2 -3.49787 2.28119 0
M  V30 18211 N 1711.64 -1.47227 -0.562322 0
M  V30 18212 C 1712.89 -1.53286 -1.31712 0
M  V30 18213 C 1713.21 -0.194583 -1.94027 0
M  V30 18214 O 1712.48 0.780961 -1.7966 0
M  V30 18215 H 1711.06 -0.564621 -0.489094 0
M  V30 18216 H 1713.72 -1.83492 -0.657024 0
M  V30 18217 H 1712.82 -2.29665 -2.1133 0
M  V30 18218 N 1713.12 0.808639 -1.35273 0
M  V30 18219 C 1714.39 1.55238 -1.18998 0
M  V30 18220 C 1714.77 2.09824 0.231723 0
M  V30 18221 O 1714.12 1.92252 1.23497 0
M  V30 18222 C 1714.33 2.66252 -2.25634 0
M  V30 18223 C 1715.68 3.34646 -2.61338 0
M  V30 18224 O 1716.7 2.76521 -2.24532 0
M  V30 18225 O 1715.56 4.39644 -3.24615 0
M  V30 18226 H 1712.66 0.6858 -0.462176 0
M  V30 18227 H 1715.2 0.848777 -1.46949 0
M  V30 18228 H 1713.98 2.23774 -3.21 0
M  V30 18229 H 1713.6 3.4425 -1.98941 0
M  V30 18230 N 1714.6 1.19237 1.03055 0
M  V30 18231 C 1715.84 0.995444 1.76688 0
M  V30 18232 C 1716.18 -0.472805 1.88357 0
M  V30 18233 O 1715.45 -1.3511 1.39913 0
M  V30 18234 C 1715.73 1.66308 3.19396 0
M  V30 18235 C 1715.59 3.20486 3.15609 0
M  V30 18236 C 1716.91 1.38468 4.17749 0
M  V30 18237 H 1714.02 0.36304 0.641382 0
M  V30 18238 H 1716.67 1.47052 1.20315 0
M  V30 18239 H 1714.82 1.25915 3.67529 0
M  V30 18240 H 1716.49 3.70081 2.75387 0
M  V30 18241 H 1714.73 3.52118 2.53369 0
M  V30 18242 H 1715.4 3.62345 4.16426 0
M  V30 18243 H 1717.88 1.73485 3.78209 0
M  V30 18244 H 1716.75 1.87735 5.15797 0
M  V30 18245 H 1717.02 0.309505 4.41015 0
M  V30 18246 N 1716.07 -1.22136 0.99602 0
M  V30 18247 C 1717.32 -1.9125 0.674632 0
M  V30 18248 C 1717.65 -1.77331 -0.791655 0
M  V30 18249 O 1716.93 -1.14419 -1.57285 0
M  V30 18250 C 1717.21 -3.43359 1.08521 0
M  V30 18251 C 1717.06 -3.66312 2.61028 0
M  V30 18252 C 1718.38 -4.3541 0.640795 0
M  V30 18253 H 1715.5 -0.694534 0.246559 0
M  V30 18254 H 1718.14 -1.4395 1.2401 0
M  V30 18255 H 1716.29 -3.83775 0.604071 0
M  V30 18256 H 1717.97 -3.3528 3.16836 0
M  V30 18257 H 1716.21 -3.10485 3.02954 0
M  V30 18258 H 1716.88 -4.72852 2.84807 0
M  V30 18259 H 1719.36 -4.02527 1.05411 0
M  V30 18260 H 1718.23 -5.40505 0.956337 0
M  V30 18261 H 1718.49 -4.39717 -0.458421 0
M  V30 18262 N 1717.55 -0.769612 -1.37531 0
M  V30 18263 C 1718.8 -0.332309 -1.99349 0
M  V30 18264 C 1719.12 1.09432 -1.61399 0
M  V30 18265 O 1718.39 1.75102 -0.878415 0
M  V30 18266 H 1716.97 -0.119879 -0.737318 0
M  V30 18267 H 1719.63 -0.987265 -1.68045 0
M  V30 18268 H 1718.73 -0.408233 -3.09419 0
M  V30 18269 N 1719.03 1.48775 -0.519977 0
M  V30 18270 C 1720.27 2.04394 0.0158731 0
M  V30 18271 C 1720.63 1.38935 1.32518 0
M  V30 18272 O 1721.84 1.85383 1.94645 0
M  V30 18273 C 1720.11 3.57103 0.145657 0
M  V30 18274 S 1721.67 4.3421 0.633016 0
M  V30 18275 H 1718.48 0.710963 -0.0072764 0
M  V30 18276 H 1721.09 1.82605 -0.698264 0
M  V30 18277 H 1719.79 4.02282 -0.812259 0
M  V30 18278 H 1719.32 3.83328 0.884471 0
M  V30 18279 H 1721.34 4.58416 1.89918 0
M  V30 18280 N 1720.51 0.254649 1.55529 0
M  V30 18281 C 1721.44 -0.682459 2.17756 0
M  V30 18282 C 1722.42 -1.16722 1.13202 0
M  V30 18283 O 1723.6 -1.24395 1.41627 0
M  V30 18284 C 1720.73 -1.92837 2.78445 0
M  V30 18285 C 1719.78 -1.58082 3.96121 0
M  V30 18286 S 1720.61 -0.676715 5.31207 0
M  V30 18287 C 1721.77 -1.93146 5.95353 0
M  V30 18288 H 1722 -0.153664 2.96903 0
M  V30 18289 H 1719.53 0.0390444 1.54351 0
M  V30 18290 H 1721.49 -2.6436 3.14045 0
M  V30 18291 H 1720.15 -2.4283 1.9923 0
M  V30 18292 H 1719.34 -2.50738 4.37203 0
M  V30 18293 H 1718.95 -0.945965 3.61839 0
M  V30 18294 H 1721.24 -2.87783 6.13341 0
M  V30 18295 H 1722.18 -1.564 6.90612 0
M  V30 18296 H 1722.59 -2.08708 5.24501 0
M  V30 18297 N 1721.99 -1.57589 -0.0183649 0
M  V30 18298 C 1723.23 -1.90038 -0.708056 0
M  V30 18299 C 1723.57 -0.853686 -1.7443 0
M  V30 18300 O 1722.84 0.12994 -1.94065 0
M  V30 18301 C 1723.12 -3.33107 -1.3679 0
M  V30 18302 C 1722.98 -4.48479 -0.344448 0
M  V30 18303 C 1724.3 -3.75276 -2.29904 0
M  V30 18304 H 1721.41 -0.691134 -0.255934 0
M  V30 18305 H 1724.06 -1.89978 0.0291579 0
M  V30 18306 H 1722.21 -3.33289 -1.99626 0
M  V30 18307 H 1723.88 -4.60432 0.282816 0
M  V30 18308 H 1722.12 -4.32503 0.335196 0
M  V30 18309 H 1722.79 -5.45497 -0.844832 0
M  V30 18310 H 1725.27 -3.76529 -1.77103 0
M  V30 18311 H 1724.14 -4.76168 -2.73049 0
M  V30 18312 H 1724.41 -3.08124 -3.17036 0
M  V30 18313 N 1723.46 0.290824 -1.54893 0
M  V30 18314 C 1724.74 1.04495 -1.65348 0
M  V30 18315 C 1725.12 2.04888 -0.508348 0
M  V30 18316 O 1724.47 2.23102 0.493749 0
M  V30 18317 C 1724.68 1.71772 -3.03801 0
M  V30 18318 C 1726.03 2.23595 -3.60958 0
M  V30 18319 O 1727.05 1.81788 -3.06319 0
M  V30 18320 O 1725.91 3.00225 -4.56648 0
M  V30 18321 H 1723 0.483605 -0.670862 0
M  V30 18322 H 1725.55 0.288101 -1.67237 0
M  V30 18323 H 1724.32 0.989296 -3.78588 0
M  V30 18324 H 1723.95 2.54188 -3.05735 0
M  V30 18325 N 1724.94 1.47523 0.554506 0
M  V30 18326 C 1725.88 1.54756 1.67707 0
M  V30 18327 C 1726.85 0.39953 1.57615 0
M  V30 18328 O 1728.04 0.60771 1.78435 0
M  V30 18329 C 1725.16 1.45263 3.05968 0
M  V30 18330 C 1724.21 2.64602 3.34497 0
M  V30 18331 S 1725.04 4.26775 3.23455 0
M  V30 18332 C 1726.2 4.19839 4.64204 0
M  V30 18333 H 1726.43 2.49728 1.61318 0
M  V30 18334 H 1723.97 1.35754 0.735541 0
M  V30 18335 H 1725.92 1.40473 3.85717 0
M  V30 18336 H 1724.58 0.516709 3.09821 0
M  V30 18337 H 1723.78 2.5403 4.35298 0
M  V30 18338 H 1723.38 2.66528 2.62372 0
M  V30 18339 H 1725.67 3.8826 5.55212 0
M  V30 18340 H 1726.61 5.20736 4.79833 0
M  V30 18341 H 1727.02 3.5066 4.42378 0
M  V30 18342 N 1726.42 -0.801453 1.357 0
M  V30 18343 C 1727.37 -1.93495 1.29083 0
M  V30 18344 C 1728.36 -1.68389 0.184806 0
M  V30 18345 O 1729.57 -1.76543 0.351097 0
M  V30 18346 H 1725.94 -0.635809 0.40156 0
M  V30 18347 H 1727.91 -1.96195 2.24833 0
M  V30 18348 C 1726.66 -3.30342 1.08487 0
M  V30 18349 H 1725.99 -3.50221 1.92835 0
M  V30 18350 H 1727.43 -4.10041 1.079 0
M  V30 18351 C 1725.89 -3.36238 -0.211057 0
M  V30 18352 O 1726.42 -3.83198 -1.20508 0
M  V30 18353 N 1724.62 -2.89509 -0.251599 0
M  V30 18354 H 1724.17 -2.51486 0.557916 0
M  V30 18355 H 1724.13 -2.93836 -1.11839 0
M  V30 18356 N 1727.9 -1.19782 -1.02421 0
M  V30 18357 C 1728.81 -0.955253 -2.14271 0
M  V30 18358 C 1729.82 0.0863233 -1.73786 0
M  V30 18359 O 1731 -0.0993878 -2.01155 0
M  V30 18360 C 1728.07 -0.502219 -3.43043 0
M  V30 18361 C 1727.13 -1.61374 -3.97815 0
M  V30 18362 C 1726.36 -1.18223 -5.20441 0
M  V30 18363 O 1726.58 -0.0477334 -5.7038 0
M  V30 18364 O 1725.52 -1.98664 -5.68169 0
M  V30 18365 H 1729.34 -1.89157 -2.37599 0
M  V30 18366 H 1726.93 -0.981035 -1.12677 0
M  V30 18367 H 1728.81 -0.258445 -4.20607 0
M  V30 18368 H 1727.48 0.4056 -3.21149 0
M  V30 18369 H 1726.39 -1.91172 -3.21565 0
M  V30 18370 H 1727.72 -2.49829 -4.24083 0
M  V30 18371 N 1729.38 1.21606 -1.00248 0
M  V30 18372 C 1730.33 2.21711 -0.531824 0
M  V30 18373 C 1731.31 1.55714 0.405201 0
M  V30 18374 O 1732.5 1.75493 0.230462 0
M  V30 18375 C 1729.63 3.43003 0.142686 0
M  V30 18376 C 1728.72 4.16191 -0.815209 0
M  V30 18377 N 1729.11 4.65986 -1.967 0
M  V30 18378 C 1727.41 4.41484 -0.633069 0
M  V30 18379 C 1728.11 5.21897 -2.56901 0
M  V30 18380 N 1727.08 5.11121 -1.85084 0
M  V30 18381 H 1730.89 2.57862 -1.41013 0
M  V30 18382 H 1728.4 1.37385 -0.86598 0
M  V30 18383 H 1730.4 4.13923 0.497322 0
M  V30 18384 H 1729.06 3.08362 1.01701 0
M  V30 18385 H 1730.07 4.61644 -2.34746 0
M  V30 18386 H 1726.75 4.17047 0.194381 0
M  V30 18387 H 1728.14 5.70898 -3.54296 0
M  V30 18388 N 1730.86 0.776895 1.37121 0
M  V30 18389 C 1732.08 0.355097 2.0383 0
M  V30 18390 C 1732.5 -1.02441 1.58591 0
M  V30 18391 O 1731.86 -1.65482 0.769533 0
M  V30 18392 C 1731.91 0.394984 3.59336 0
M  V30 18393 O 1731.63 1.72008 4.0292 0
M  V30 18394 C 1733.13 -0.0377636 4.43284 0
M  V30 18395 H 1730.35 0.148056 0.654462 0
M  V30 18396 H 1732.89 1.05225 1.75351 0
M  V30 18397 H 1731.05 -0.253638 3.86569 0
M  V30 18398 H 1731.46 1.66225 4.97463 0
M  V30 18399 H 1732.94 0.0412956 5.51985 0
M  V30 18400 H 1733.41 -1.08881 4.2549 0
M  V30 18401 H 1734.02 0.582867 4.21287 0
M  V30 18402 N 1732.33 -1.48497 0.527859 0
M  V30 18403 C 1733.27 -2.26435 -0.283291 0
M  V30 18404 C 1734.24 -1.32198 -0.946698 0
M  V30 18405 O 1735.43 -1.61536 -0.97151 0
M  V30 18406 C 1732.56 -3.08364 -1.40104 0
M  V30 18407 C 1731.6 -4.17959 -0.849258 0
M  V30 18408 S 1732.43 -5.34761 0.281209 0
M  V30 18409 C 1733.59 -6.2025 -0.839067 0
M  V30 18410 H 1733.82 -2.94885 0.378142 0
M  V30 18411 H 1731.36 -1.51182 0.313608 0
M  V30 18412 H 1733.31 -3.56145 -2.04134 0
M  V30 18413 H 1731.98 -2.39332 -2.03419 0
M  V30 18414 H 1731.17 -4.74902 -1.68772 0
M  V30 18415 H 1730.77 -3.72907 -0.285691 0
M  V30 18416 H 1733.06 -6.54823 -1.7382 0
M  V30 18417 H 1734.01 -7.07431 -0.307661 0
M  V30 18418 H 1734.41 -5.53308 -1.11851 0
M  V30 18419 N 1733.81 -0.262893 -1.55392 0
M  V30 18420 C 1734.74 0.670902 -2.18115 0
M  V30 18421 C 1735.72 1.1612 -1.13819 0
M  V30 18422 O 1736.91 1.23642 -1.42285 0
M  V30 18423 C 1734.03 1.91358 -2.79463 0
M  V30 18424 C 1733.08 1.5598 -3.96954 0
M  V30 18425 S 1733.91 0.648534 -5.31558 0
M  V30 18426 C 1735.07 1.89986 -5.96369 0
M  V30 18427 H 1735.3 0.137916 -2.9698 0
M  V30 18428 H 1732.83 -0.0472295 -1.54328 0
M  V30 18429 H 1734.79 2.62691 -3.15442 0
M  V30 18430 H 1733.45 2.4177 -2.00515 0
M  V30 18431 H 1732.65 2.48416 -4.38527 0
M  V30 18432 H 1732.25 0.926763 -3.62336 0
M  V30 18433 H 1734.54 2.84526 -6.14859 0
M  V30 18434 H 1735.48 1.52735 -6.91431 0
M  V30 18435 H 1735.89 2.05923 -5.256 0
M  V30 18436 N 1735.29 1.57597 0.0100073 0
M  V30 18437 C 1736.54 1.90129 0.696935 0
M  V30 18438 C 1736.86 0.862514 1.7433 0
M  V30 18439 O 1736.12 -0.134054 1.9524 0
M  V30 18440 C 1736.42 3.29416 1.38635 0
M  V30 18441 C 1736.08 4.484 0.474144 0
M  V30 18442 C 1734.75 4.80683 0.222956 0
M  V30 18443 C 1737.1 5.20971 -0.154514 0
M  V30 18444 C 1734.43 5.82915 -0.665351 0
M  V30 18445 C 1736.78 6.24148 -1.03064 0
M  V30 18446 C 1735.44 6.54895 -1.2911 0
M  V30 18447 H 1734.71 0.695732 0.255027 0
M  V30 18448 H 1737.36 1.91451 -0.0433713 0
M  V30 18449 H 1735.66 3.24172 2.20045 0
M  V30 18450 H 1737.36 3.51843 1.92373 0
M  V30 18451 H 1733.95 4.2317 0.680087 0
M  V30 18452 H 1738.14 4.96293 0.0265512 0
M  V30 18453 H 1733.39 6.05103 -0.875259 0
M  V30 18454 H 1737.57 6.79516 -1.52417 0
M  V30 18455 H 1735.19 7.33931 -1.98113 0
M  V30 18456 N 1736.77 -0.282606 1.55045 0
M  V30 18457 C 1738 -1.03395 1.79212 0
M  V30 18458 C 1738.41 -1.80283 0.560652 0
M  V30 18459 O 1737.77 -1.76343 -0.470049 0
M  V30 18460 C 1737.82 -2.0001 3.01128 0
M  V30 18461 O 1737.54 -1.26238 4.19518 0
M  V30 18462 C 1739.04 -2.87035 3.37825 0
M  V30 18463 H 1736.26 -0.305855 0.597238 0
M  V30 18464 H 1738.8 -0.3163 2.02039 0
M  V30 18465 H 1736.96 -2.67251 2.80456 0
M  V30 18466 H 1737.37 -1.91277 4.88378 0
M  V30 18467 H 1738.85 -3.50642 4.26327 0
M  V30 18468 H 1739.32 -3.56303 2.56798 0
M  V30 18469 H 1739.93 -2.25298 3.60723 0
M  V30 18470 N 1738.25 -1.47815 -0.546675 0
M  V30 18471 C 1739.18 -1.63976 -1.66235 0
M  V30 18472 C 1740.16 -0.488945 -1.62921 0
M  V30 18473 O 1741.34 -0.719532 -1.80378 0
M  V30 18474 C 1738.47 -1.6637 -3.04858 0
M  V30 18475 C 1737.43 -2.80785 -3.23023 0
M  V30 18476 C 1736.75 -2.68257 -4.62539 0
M  V30 18477 C 1738.05 -4.22267 -3.07388 0
M  V30 18478 H 1739.75 -2.57375 -1.52965 0
M  V30 18479 H 1737.29 -1.23861 -0.734465 0
M  V30 18480 H 1739.24 -1.76266 -3.82764 0
M  V30 18481 H 1737.97 -0.695386 -3.19111 0
M  V30 18482 H 1736.63 -2.70417 -2.47529 0
M  V30 18483 H 1736.28 -1.69431 -4.73606 0
M  V30 18484 H 1735.98 -3.45022 -4.75641 0
M  V30 18485 H 1737.5 -2.80097 -5.42566 0
M  V30 18486 H 1738.91 -4.33557 -3.75102 0
M  V30 18487 H 1737.31 -4.999 -3.31994 0
M  V30 18488 H 1738.38 -4.39897 -2.04006 0
M  V30 18489 N 1739.72 0.794246 -1.36123 0
M  V30 18490 C 1740.67 1.92808 -1.30108 0
M  V30 18491 C 1741.67 1.68289 -0.193734 0
M  V30 18492 O 1742.87 1.76354 -0.360454 0
M  V30 18493 H 1739.25 0.633671 -0.404926 0
M  V30 18494 H 1741.22 1.95 -2.2587 0
M  V30 18495 C 1739.97 3.29762 -1.10238 0
M  V30 18496 H 1739.29 3.49193 -1.9469 0
M  V30 18497 H 1740.73 4.09463 -1.10073 0
M  V30 18498 C 1739.19 3.36345 0.193222 0
M  V30 18499 O 1739.72 3.83832 1.18474 0
M  V30 18500 N 1737.92 2.89638 0.236243 0
M  V30 18501 H 1737.47 2.51186 -0.571245 0
M  V30 18502 H 1737.43 2.94424 1.1028 0
M  V30 18503 N 1741.2 1.20323 1.01785 0
M  V30 18504 C 1742.45 1.01063 1.75016 0
M  V30 18505 C 1742.77 -0.458458 1.89534 0
M  V30 18506 O 1742.04 -1.3315 1.43694 0
M  V30 18507 H 1740.62 0.370957 0.648383 0
M  V30 18508 H 1743.28 1.51411 1.22722 0
M  V30 18509 H 1742.38 1.46792 2.75424 0
M  V30 18510 N 1742.68 -1.21073 1.00892 0
M  V30 18511 C 1743.59 -2.27265 0.582065 0
M  V30 18512 C 1744.61 -1.69872 -0.376785 0
M  V30 18513 O 1745.78 -1.99969 -0.239644 0
M  V30 18514 C 1742.85 -3.46606 -0.0806764 0
M  V30 18515 C 1741.91 -4.19257 0.923147 0
M  V30 18516 C 1741.14 -5.32901 0.291938 0
M  V30 18517 O 1741.36 -5.6309 -0.910282 0
M  V30 18518 O 1740.3 -5.93453 1.00483 0
M  V30 18519 H 1744.12 -2.65977 1.46594 0
M  V30 18520 H 1741.71 -1.27544 0.777999 0
M  V30 18521 H 1743.59 -4.18978 -0.451177 0
M  V30 18522 H 1742.27 -3.09785 -0.93887 0
M  V30 18523 H 1741.17 -3.4909 1.34488 0
M  V30 18524 H 1742.51 -4.59999 1.75106 0
M  V30 18525 N 1744.16 -0.784156 -1.36707 0
M  V30 18526 C 1745.41 -0.350748 -1.98627 0
M  V30 18527 C 1745.72 1.08208 -1.62943 0
M  V30 18528 O 1746.93 1.6175 -2.18058 0
M  V30 18529 C 1745.38 -0.576173 -3.55258 0
M  V30 18530 C 1744.99 -2.02008 -3.99871 0
M  V30 18531 C 1746.73 -0.207008 -4.23995 0
M  V30 18532 C 1744.64 -2.19244 -5.4926 0
M  V30 18533 H 1743.57 -0.127403 -0.743158 0
M  V30 18534 H 1746.22 -0.965044 -1.56074 0
M  V30 18535 H 1744.6 0.10776 -3.95853 0
M  V30 18536 H 1745.78 -2.73998 -3.70489 0
M  V30 18537 H 1744.09 -2.34699 -3.43955 0
M  V30 18538 H 1746.69 -0.314139 -5.33776 0
M  V30 18539 H 1747.03 0.844253 -4.07649 0
M  V30 18540 H 1747.57 -0.843971 -3.88744 0
M  V30 18541 H 1744.31 -3.22734 -5.70546 0
M  V30 18542 H 1743.83 -1.51752 -5.80286 0
M  V30 18543 H 1745.5 -1.99703 -6.15408 0
M  V30 18544 N 1745.64 1.48215 -0.535727 0
M  V30 18545 C 1746.57 2.3253 0.212562 0
M  V30 18546 C 1747.55 1.42454 0.929568 0
M  V30 18547 O 1748.73 1.71334 0.914228 0
M  V30 18548 C 1745.86 3.23777 1.25641 0
M  V30 18549 C 1744.82 4.22924 0.657191 0
M  V30 18550 C 1744.14 5.03345 1.80411 0
M  V30 18551 C 1745.44 5.20953 -0.374902 0
M  V30 18552 H 1747.14 2.95341 -0.491301 0
M  V30 18553 H 1744.68 1.42024 -0.237718 0
M  V30 18554 H 1746.64 3.81592 1.78789 0
M  V30 18555 H 1745.36 2.58978 1.98993 0
M  V30 18556 H 1744.02 3.66304 0.147184 0
M  V30 18557 H 1743.67 4.34965 2.52615 0
M  V30 18558 H 1743.37 5.70455 1.40906 0
M  V30 18559 H 1744.89 5.64013 2.33926 0
M  V30 18560 H 1746.3 5.73258 0.0697072 0
M  V30 18561 H 1744.7 5.96147 -0.687646 0
M  V30 18562 H 1745.77 4.67739 -1.27861 0
M  V30 18563 N 1747.11 0.27113 1.5525 0
M  V30 18564 C 1748.04 -0.61179 2.25343 0
M  V30 18565 C 1749.03 -1.16208 1.24216 0
M  V30 18566 O 1750.21 -1.19696 1.52927 0
M  V30 18567 C 1747.34 -1.7978 2.97147 0
M  V30 18568 C 1746.29 -1.37922 4.05169 0
M  V30 18569 C 1745.62 -2.64801 4.64526 0
M  V30 18570 C 1746.92 -0.532357 5.1958 0
M  V30 18571 H 1748.61 -0.0272538 2.99388 0
M  V30 18572 H 1746.16 -0.0116681 1.43995 0
M  V30 18573 H 1748.11 -2.42132 3.44891 0
M  V30 18574 H 1746.84 -2.40811 2.20631 0
M  V30 18575 H 1745.5 -0.778918 3.5823 0
M  V30 18576 H 1745.14 -3.24081 3.84682 0
M  V30 18577 H 1744.84 -2.37507 5.37461 0
M  V30 18578 H 1746.37 -3.28009 5.15017 0
M  V30 18579 H 1747.78 -1.06078 5.63401 0
M  V30 18580 H 1746.18 -0.35447 5.99052 0
M  V30 18581 H 1747.25 0.44981 4.82809 0
M  V30 18582 N 1748.59 -1.576 -0.00164943 0
M  V30 18583 C 1749.87 -1.81716 -0.723788 0
M  V30 18584 C 1750.25 -0.875694 -1.9208 0
M  V30 18585 O 1749.6 0.0759629 -2.28374 0
M  V30 18586 C 1749.81 -3.30164 -1.13106 0
M  V30 18587 C 1751.16 -3.95859 -1.5356 0
M  V30 18588 O 1752.18 -3.34477 -1.2249 0
M  V30 18589 O 1751.04 -5.03986 -2.1133 0
M  V30 18590 H 1748.13 -0.748213 -0.352287 0
M  V30 18591 H 1750.68 -1.69683 0.0236782 0
M  V30 18592 H 1749.45 -3.90313 -0.277771 0
M  V30 18593 H 1749.07 -3.47188 -1.93768 0
M  V30 18594 N 1750.07 0.274379 -1.55193 0
M  V30 18595 C 1751.35 1.02736 -1.66447 0
M  V30 18596 C 1751.73 2.04337 -0.530051 0
M  V30 18597 O 1751.08 2.23613 0.470058 0
M  V30 18598 C 1751.29 1.6854 -3.05606 0
M  V30 18599 C 1752.63 2.19754 -3.63309 0
M  V30 18600 O 1753.66 1.78529 -3.0823 0
M  V30 18601 O 1752.52 2.95364 -4.59807 0
M  V30 18602 H 1749.61 0.476462 -0.675953 0
M  V30 18603 H 1752.16 0.270347 -1.67533 0
M  V30 18604 H 1750.93 0.949086 -3.79616 0
M  V30 18605 H 1750.55 2.50931 -3.08414 0
M  V30 18606 N 1751.55 1.48103 0.538828 0
M  V30 18607 C 1752.77 1.59568 1.32487 0
M  V30 18608 C 1753.2 0.252908 1.86392 0
M  V30 18609 O 1752.56 -0.774094 1.63944 0
M  V30 18610 C 1752.6 2.63863 2.45782 0
M  V30 18611 O 1751.71 2.20409 3.48559 0
M  V30 18612 H 1751.05 0.53538 0.392765 0
M  V30 18613 H 1753.58 1.94024 0.649299 0
M  V30 18614 H 1753.59 2.8486 2.92093 0
M  V30 18615 H 1752.26 3.61352 2.05906 0
M  V30 18616 H 1750.84 2.09588 3.08427 0
M  V30 18617 N 1753.03 -0.787016 1.36542 0
M  V30 18618 C 1754.27 -1.54194 1.30647 0
M  V30 18619 C 1754.6 -1.94671 -0.113195 0
M  V30 18620 O 1753.87 -1.65131 -1.05397 0
M  V30 18621 H 1752.45 -0.571857 0.480613 0
M  V30 18622 H 1755.11 -0.93761 1.70865 0
M  V30 18623 H 1754.2 -2.4484 1.93545 0
M  V30 18624 N 1754.5 -1.20861 -1.01145 0
M  V30 18625 C 1755.73 -1.04843 -1.78949 0
M  V30 18626 C 1756.15 0.397676 -1.83848 0
M  V30 18627 O 1755.51 1.28663 -1.27733 0
M  V30 18628 C 1755.56 -1.64267 -3.21012 0
M  V30 18629 O 1754.66 -0.883773 -4.02819 0
M  V30 18630 H 1754.01 -0.36941 -0.551754 0
M  V30 18631 H 1756.54 -1.60266 -1.27185 0
M  V30 18632 H 1756.55 -1.68218 -3.71708 0
M  V30 18633 H 1755.22 -2.69509 -3.16761 0
M  V30 18634 H 1753.8 -0.918866 -3.61402 0
M  V30 18635 N 1755.98 1.20536 -1.01532 0
M  V30 18636 C 1756.89 2.26953 -0.594109 0
M  V30 18637 C 1757.91 1.70069 0.367771 0
M  V30 18638 O 1759.08 2.00093 0.229036 0
M  V30 18639 C 1756.15 3.46644 0.0622939 0
M  V30 18640 C 1755.21 4.18762 -0.945368 0
M  V30 18641 C 1754.44 5.32739 -0.320195 0
M  V30 18642 O 1754.67 5.63565 0.880407 0
M  V30 18643 O 1753.6 5.92912 -1.03629 0
M  V30 18644 H 1757.43 2.65196 -1.48003 0
M  V30 18645 H 1755.01 1.2713 -0.784752 0
M  V30 18646 H 1756.89 4.19211 0.428952 0
M  V30 18647 H 1755.57 3.10279 0.922428 0
M  V30 18648 H 1754.48 3.48372 -1.36337 0
M  V30 18649 H 1755.81 4.59064 -1.77543 0
M  V30 18650 N 1757.46 0.791395 1.36289 0
M  V30 18651 C 1758.39 0.205419 2.32595 0
M  V30 18652 C 1759.37 -0.660696 1.56744 0
M  V30 18653 O 1760.56 -0.594111 1.84889 0
M  V30 18654 C 1757.69 -0.659018 3.4099 0
M  V30 18655 C 1756.64 0.107364 4.27865 0
M  V30 18656 C 1755.97 -0.877795 5.27446 0
M  V30 18657 C 1757.27 1.29769 5.05922 0
M  V30 18658 H 1758.96 1.00999 2.8185 0
M  V30 18659 H 1756.51 0.487122 1.35511 0
M  V30 18660 H 1758.46 -1.07891 4.07354 0
M  V30 18661 H 1757.18 -1.49632 2.90307 0
M  V30 18662 H 1755.84 0.508253 3.6306 0
M  V30 18663 H 1755.49 -1.71018 4.73035 0
M  V30 18664 H 1755.19 -0.369429 5.86438 0
M  V30 18665 H 1756.71 -1.29621 5.96683 0
M  V30 18666 H 1758.13 0.953463 5.65316 0
M  V30 18667 H 1756.53 1.73949 5.74336 0
M  V30 18668 H 1757.6 2.09205 4.37449 0
M  V30 18669 N 1758.94 -1.47929 0.54358 0
M  V30 18670 C 1759.9 -2.28316 -0.201107 0
M  V30 18671 C 1760.9 -1.36165 -0.855313 0
M  V30 18672 O 1762.09 -1.58928 -0.71327 0
M  V30 18673 C 1759.22 -3.1545 -1.29245 0
M  V30 18674 H 1760.42 -2.9562 0.504848 0
M  V30 18675 H 1757.97 -1.53394 0.300011 0
M  V30 18676 H 1758.71 -2.52807 -2.03124 0
M  V30 18677 H 1758.49 -3.83251 -0.82832 0
M  V30 18678 H 1759.98 -3.76053 -1.81587 0
M  V30 18679 N 1760.42 -0.27936 -1.55104 0
M  V30 18680 C 1761.66 0.336205 -1.9969 0
M  V30 18681 C 1761.99 1.55542 -1.16777 0
M  V30 18682 O 1761.25 1.94385 -0.226497 0
M  V30 18683 C 1761.55 0.758312 -3.49263 0
M  V30 18684 C 1761.21 -0.356741 -4.49487 0
M  V30 18685 C 1759.87 -0.662905 -4.76612 0
M  V30 18686 C 1762.23 -1.10789 -5.09289 0
M  V30 18687 C 1759.55 -1.72373 -5.60807 0
M  V30 18688 C 1761.91 -2.15847 -5.94637 0
M  V30 18689 C 1760.57 -2.47094 -6.20081 0
M  V30 18690 H 1759.84 0.123026 -0.730716 0
M  V30 18691 H 1762.49 -0.393956 -1.87404 0
M  V30 18692 H 1760.79 1.56822 -3.59046 0
M  V30 18693 H 1762.49 1.24541 -3.8117 0
M  V30 18694 H 1759.08 -0.107997 -4.28464 0
M  V30 18695 H 1763.26 -0.884619 -4.88353 0
M  V30 18696 H 1758.52 -1.97079 -5.78766 0
M  V30 18697 H 1762.69 -2.74523 -6.40008 0
M  V30 18698 H 1760.32 -3.29428 -6.85114 0
M  V30 18699 N 1761.9 1.57599 -0.0067085 0
M  V30 18700 C 1762.84 2.08842 0.982532 0
M  V30 18701 C 1763.81 0.985339 1.33717 0
M  V30 18702 O 1765 1.25818 1.43438 0
M  V30 18703 C 1762.14 2.60188 2.26708 0
M  V30 18704 C 1761.25 3.84422 1.97087 0
M  V30 18705 C 1760.39 4.24244 3.19672 0
M  V30 18706 C 1759.42 5.41297 2.85769 0
M  V30 18707 N 1758.56 5.76381 4.00911 0
M  V30 18708 H 1763.4 2.93092 0.538618 0
M  V30 18709 H 1760.94 1.44885 0.254293 0
M  V30 18710 H 1762.9 2.88038 3.01811 0
M  V30 18711 H 1761.53 1.78802 2.68756 0
M  V30 18712 H 1760.58 3.63439 1.12323 0
M  V30 18713 H 1761.89 4.6962 1.68102 0
M  V30 18714 H 1761.04 4.53413 4.03115 0
M  V30 18715 H 1759.78 3.37769 3.518 0
M  V30 18716 H 1758.79 5.11846 2.00734 0
M  V30 18717 H 1760.01 6.29454 2.54881 0
M  V30 18718 H 1757.96 4.92863 4.32923 0
M  V30 18719 H 1757.88 6.56168 3.75473 0
M  V30 18720 H 1759.14 6.10144 4.85123 0
M  V30 18721 N 1763.37 -0.266145 1.55336 0
M  V30 18722 C 1764.65 -1.01852 1.6699 0
M  V30 18723 C 1765.03 -2.04053 0.54088 0
M  V30 18724 O 1764.38 -2.23859 -0.458193 0
M  V30 18725 C 1764.59 -1.66917 3.06496 0
M  V30 18726 C 1765.94 -2.17824 3.64469 0
M  V30 18727 O 1766.96 -1.76892 3.09173 0
M  V30 18728 O 1765.82 -2.92922 4.61367 0
M  V30 18729 H 1762.91 -0.472871 0.67847 0
M  V30 18730 H 1765.46 -0.261458 1.67674 0
M  V30 18731 H 1764.23 -0.928941 3.80114 0
M  V30 18732 H 1763.85 -2.49292 3.0974 0
M  V30 18733 N 1764.85 -1.48386 -0.530967 0
M  V30 18734 C 1766.1 -1.56354 -1.28685 0
M  V30 18735 C 1766.43 -0.237022 -1.9305 0
M  V30 18736 O 1765.68 0.772595 -1.79804 0
M  V30 18737 C 1765.98 -2.64979 -2.39835 0
M  V30 18738 C 1765.65 -4.07446 -1.93129 0
M  V30 18739 C 1764.31 -4.46222 -1.80108 0
M  V30 18740 C 1766.66 -4.96732 -1.5782 0
M  V30 18741 C 1763.99 -5.7209 -1.30113 0
M  V30 18742 C 1766.34 -6.23088 -1.09288 0
M  V30 18743 C 1765 -6.60722 -0.948835 0
M  V30 18744 H 1764.27 -0.572139 -0.470891 0
M  V30 18745 H 1766.92 -1.82099 -0.592626 0
M  V30 18746 H 1765.23 -2.3309 -3.14923 0
M  V30 18747 H 1766.92 -2.68359 -2.97967 0
M  V30 18748 H 1763.51 -3.76822 -2.04213 0
M  V30 18749 H 1767.7 -4.67452 -1.6674 0
M  V30 18750 H 1762.95 -5.99974 -1.17647 0
M  V30 18751 H 1767.13 -6.91669 -0.810376 0
M  V30 18752 H 1764.75 -7.5814 -0.559235 0
M  V30 18753 N 1766.33 0.779763 -1.36958 0
M  V30 18754 C 1767.61 1.52679 -1.22264 0
M  V30 18755 C 1767.99 2.10269 0.187164 0
M  V30 18756 O 1767.33 1.94828 1.19391 0
M  V30 18757 C 1767.54 2.61406 -2.31231 0
M  V30 18758 C 1768.89 3.29027 -2.68377 0
M  V30 18759 O 1769.92 2.71696 -2.30347 0
M  V30 18760 O 1768.78 4.3266 -3.33868 0
M  V30 18761 H 1765.87 0.675843 -0.476619 0
M  V30 18762 H 1768.42 0.817416 -1.48716 0
M  V30 18763 H 1767.19 2.16915 -3.25674 0
M  V30 18764 H 1766.81 3.39953 -2.06199 0
M  V30 18765 N 1767.81 1.21396 1.00503 0
M  V30 18766 C 1769.05 1.0327 1.74537 0
M  V30 18767 C 1769.39 -0.432746 1.89317 0
M  V30 18768 O 1768.66 -1.32111 1.42747 0
M  V30 18769 C 1768.94 1.73045 3.15797 0
M  V30 18770 C 1768.8 3.27108 3.0874 0
M  V30 18771 C 1770.12 1.47298 4.14718 0
M  V30 18772 H 1767.24 0.376563 0.633537 0
M  V30 18773 H 1769.88 1.49571 1.17169 0
M  V30 18774 H 1768.03 1.33682 3.64776 0
M  V30 18775 H 1769.7 3.75839 2.67475 0
M  V30 18776 H 1767.94 3.57413 2.45843 0
M  V30 18777 H 1768.61 3.71096 4.08646 0
M  V30 18778 H 1771.09 1.81468 3.74444 0
M  V30 18779 H 1769.97 1.98633 5.11699 0
M  V30 18780 H 1770.23 0.402981 4.4026 0
M  V30 18781 N 1769.29 -1.19996 1.0217 0
M  V30 18782 C 1770.53 -1.89121 0.712579 0
M  V30 18783 C 1770.85 -1.79556 -0.760561 0
M  V30 18784 O 1770.12 -1.2013 -1.54744 0
M  V30 18785 H 1768.7 -0.700075 0.260585 0
M  V30 18786 H 1771.37 -1.4571 1.2944 0
M  V30 18787 H 1770.46 -2.95629 1.00051 0
M  V30 18788 N 1770.76 -0.798611 -1.35867 0
M  V30 18789 C 1772.04 -0.298858 -1.93303 0
M  V30 18790 C 1772.42 1.21038 -1.72954 0
M  V30 18791 O 1771.77 2.00617 -1.09386 0
M  V30 18792 C 1771.98 -0.701532 -3.41876 0
M  V30 18793 C 1773.33 -0.686486 -4.19014 0
M  V30 18794 O 1774.35 -0.642577 -3.50356 0
M  V30 18795 O 1773.21 -0.737653 -5.41499 0
M  V30 18796 H 1770.3 -0.0762987 -0.823473 0
M  V30 18797 H 1772.85 -0.881773 -1.44993 0
M  V30 18798 H 1771.62 -1.74204 -3.50383 0
M  V30 18799 H 1771.24 -0.092994 -3.97491 0
M  V30 18800 N 1772.24 1.47639 -0.551417 0
M  V30 18801 C 1773.49 2.02084 -0.0251553 0
M  V30 18802 C 1773.81 1.42872 1.32713 0
M  V30 18803 O 1773.08 0.601794 1.86428 0
M  V30 18804 H 1771.66 0.746973 -0.00631005 0
M  V30 18805 H 1774.32 1.81109 -0.720113 0
M  V30 18806 H 1773.42 3.12028 0.0672608 0
M  V30 18807 N 1773.72 0.287581 1.54954 0
M  V30 18808 C 1774.97 -0.32561 1.99865 0
M  V30 18809 C 1775.3 -1.54921 1.176 0
M  V30 18810 O 1774.55 -1.94262 0.236802 0
M  V30 18811 C 1774.85 -0.739779 3.4966 0
M  V30 18812 C 1774.52 0.380573 4.49291 0
M  V30 18813 C 1773.18 0.688172 4.76254 0
M  V30 18814 C 1775.53 1.13489 5.08694 0
M  V30 18815 C 1772.86 1.75344 5.59885 0
M  V30 18816 C 1775.21 2.18998 5.93484 0
M  V30 18817 C 1773.87 2.50379 6.18762 0
M  V30 18818 H 1773.14 -0.119149 0.731358 0
M  V30 18819 H 1775.79 0.403889 1.87192 0
M  V30 18820 H 1774.1 -1.54915 3.59873 0
M  V30 18821 H 1775.79 -1.22518 3.81825 0
M  V30 18822 H 1772.38 0.130718 4.28401 0
M  V30 18823 H 1776.57 0.910505 4.87877 0
M  V30 18824 H 1771.82 2.00145 5.77713 0
M  V30 18825 H 1776 2.77913 6.38543 0
M  V30 18826 H 1773.62 3.33057 6.83357 0
M  V30 18827 N 1775.2 -1.57593 0.0150662 0
M  V30 18828 C 1776.45 -1.90392 -0.66587 0
M  V30 18829 C 1776.76 -0.891694 -1.74092 0
M  V30 18830 O 1777.97 -1.11043 -2.47753 0
M  V30 18831 C 1776.42 -3.38026 -1.23558 0
M  V30 18832 C 1776.03 -4.47577 -0.19455 0
M  V30 18833 C 1777.77 -3.79913 -1.89384 0
M  V30 18834 C 1775.68 -5.86299 -0.7751 0
M  V30 18835 H 1774.61 -0.710474 -0.252473 0
M  V30 18836 H 1777.26 -1.83334 0.0780739 0
M  V30 18837 H 1775.64 -3.3997 -2.03068 0
M  V30 18838 H 1776.82 -4.57172 0.577061 0
M  V30 18839 H 1775.13 -4.14805 0.364134 0
M  V30 18840 H 1777.73 -4.809 -2.3375 0
M  V30 18841 H 1778.07 -3.14225 -2.73072 0
M  V30 18842 H 1778.61 -3.80333 -1.16585 0
M  V30 18843 H 1775.35 -6.55496 0.0233354 0
M  V30 18844 H 1774.87 -5.80338 -1.51552 0
M  V30 18845 H 1776.54 -6.3443 -1.26915 0
M  V30 18846 N 1776.68 0.257904 -1.55475 0
M  V30 18847 C 1778.09 0.82782 -1.67344 0
M  V30 18848 C 1778.44 1.8646 -0.610494 0
M  V30 18849 O 1777.56 2.15005 0.245275 0
M  V30 18850 C 1778.16 1.5083 -3.03374 0
M  V30 18851 C 1776.72 2.02605 -3.17219 0
M  V30 18852 C 1775.86 0.873303 -2.63189 0
M  V30 18853 H 1778.82 0.0339334 -1.58664 0
M  V30 18854 H 1778.84 2.3759 -2.97205 0
M  V30 18855 H 1778.35 0.753469 -3.80716 0
M  V30 18856 H 1776.45 2.81002 -2.4468 0
M  V30 18857 H 1776.56 2.23099 -4.23985 0
M  V30 18858 H 1774.93 1.27082 -2.20731 0
M  V30 18859 H 1775.71 0.131739 -3.43047 0
M  V30 18860 N 1778.15 1.48666 0.52309 0
M  V30 18861 C 1779.4 1.57267 1.28043 0
M  V30 18862 C 1779.73 0.248801 1.926 0
M  V30 18863 O 1779.01 -0.745814 1.79633 0
M  V30 18864 C 1779.29 2.71595 2.36449 0
M  V30 18865 C 1779.14 4.13708 1.76538 0
M  V30 18866 C 1780.46 2.81654 3.3817 0
M  V30 18867 H 1777.58 0.572455 0.464181 0
M  V30 18868 H 1780.22 1.80866 0.582013 0
M  V30 18869 H 1778.37 2.51604 2.9602 0
M  V30 18870 H 1780.05 4.45158 1.20964 0
M  V30 18871 H 1778.29 4.20386 1.07041 0
M  V30 18872 H 1778.96 4.89538 2.55062 0
M  V30 18873 H 1781.44 2.99784 2.88563 0
M  V30 18874 H 1780.31 3.63366 4.11408 0
M  V30 18875 H 1780.57 1.90093 3.99145 0
M  V30 18876 N 1779.63 -0.772489 1.37369 0
M  V30 18877 C 1780.87 -1.54405 1.33935 0
M  V30 18878 C 1781.24 -1.9185 -0.0757718 0
M  V30 18879 O 1782.44 -2.67772 -0.234832 0
M  V30 18880 C 1780.71 -2.77561 2.25154 0
M  V30 18881 S 1782.27 -3.67634 2.39564 0
M  V30 18882 H 1779.09 -0.52862 0.475481 0
M  V30 18883 H 1781.69 -0.908446 1.73111 0
M  V30 18884 H 1780.39 -2.4813 3.26894 0
M  V30 18885 H 1779.92 -3.46081 1.87059 0
M  V30 18886 H 1781.94 -4.69502 1.60567 0
M  V30 18887 N 1781.11 -1.21927 -0.998575 0
M  V30 18888 C 1782.34 -1.06735 -1.77827 0
M  V30 18889 C 1782.76 0.378154 -1.8426 0
M  V30 18890 O 1782.12 1.27301 -1.2909 0
M  V30 18891 C 1782.17 -1.67662 -3.19252 0
M  V30 18892 O 1781.27 -0.926448 -4.01859 0
M  V30 18893 H 1780.61 -0.375241 -0.547805 0
M  V30 18894 H 1783.14 -1.61605 -1.25478 0
M  V30 18895 H 1783.15 -1.72151 -3.69903 0
M  V30 18896 H 1781.83 -2.72854 -3.13885 0
M  V30 18897 H 1780.4 -0.957145 -3.60407 0
M  V30 18898 N 1782.59 1.19452 -1.02805 0
M  V30 18899 C 1783.52 2.24875 -0.628752 0
M  V30 18900 C 1784.5 1.66207 0.361844 0
M  V30 18901 O 1785.68 1.92652 0.244743 0
M  V30 18902 C 1782.81 3.47293 0.0220954 0
M  V30 18903 C 1781.77 4.1863 -0.890693 0
M  V30 18904 C 1781.09 5.34597 -0.104997 0
M  V30 18905 C 1782.39 4.73518 -2.20405 0
M  V30 18906 H 1784.09 2.5853 -1.51005 0
M  V30 18907 H 1781.63 1.24271 -0.727518 0
M  V30 18908 H 1783.59 4.20235 0.313073 0
M  V30 18909 H 1782.31 3.12835 0.938182 0
M  V30 18910 H 1780.97 3.47568 -1.16585 0
M  V30 18911 H 1780.62 4.96385 0.813098 0
M  V30 18912 H 1780.32 5.83258 -0.712983 0
M  V30 18913 H 1781.84 6.10337 0.179259 0
M  V30 18914 H 1783.26 5.3822 -1.97465 0
M  V30 18915 H 1781.65 5.32663 -2.76388 0
M  V30 18916 H 1782.72 3.9163 -2.85926 0
M  V30 18917 N 1784.07 0.805805 1.35442 0
M  V30 18918 C 1785.31 0.385046 1.98398 0
M  V30 18919 C 1785.64 -1.05114 1.64244 0
M  V30 18920 O 1784.91 -1.72711 0.924532 0
M  V30 18921 H 1783.49 0.139386 0.733881 0
M  V30 18922 H 1786.15 1.03147 1.65368 0
M  V30 18923 H 1785.24 0.490126 3.08227 0
M  V30 18924 N 1785.54 -1.47344 0.559239 0
M  V30 18925 C 1786.79 -2.02768 0.0359962 0
M  V30 18926 C 1787.12 -1.43247 -1.31126 0
M  V30 18927 O 1786.4 -0.588793 -1.85374 0
M  V30 18928 C 1786.68 -3.60058 -0.0549111 0
M  V30 18929 C 1786.53 -4.30008 1.31958 0
M  V30 18930 C 1787.85 -4.33359 -0.767331 0
M  V30 18931 H 1784.97 -0.736856 0.0145552 0
M  V30 18932 H 1787.61 -1.75751 0.72192 0
M  V30 18933 H 1785.76 -3.83208 -0.639076 0
M  V30 18934 H 1787.44 -4.18193 1.94711 0
M  V30 18935 H 1785.68 -3.90283 1.89372 0
M  V30 18936 H 1786.35 -5.38605 1.20867 0
M  V30 18937 H 1788.83 -4.15215 -0.27131 0
M  V30 18938 H 1787.7 -5.4304 -0.799905 0
M  V30 18939 H 1787.96 -4.02725 -1.82387 0
M  V30 18940 N 1787.02 -0.295795 -1.54799 0
M  V30 18941 C 1787.99 0.569699 -2.22007 0
M  V30 18942 C 1788.99 1.06535 -1.20445 0
M  V30 18943 O 1790.18 0.962212 -1.45214 0
M  V30 18944 C 1787.31 1.78821 -2.90234 0
M  V30 18945 H 1788.5 -0.0174148 -2.99895 0
M  V30 18946 H 1786.05 -0.0465813 -1.56231 0
M  V30 18947 H 1786.79 2.4153 -2.16412 0
M  V30 18948 H 1786.57 1.44051 -3.6468 0
M  V30 18949 H 1788.06 2.40321 -3.41519 0
M  V30 18950 N 1788.5 1.57583 -0.0234236 0
M  V30 18951 C 1789.43 2.06766 0.988961 0
M  V30 18952 C 1790.45 0.98998 1.29241 0
M  V30 18953 O 1791.64 1.2663 1.25806 0
M  V30 18954 C 1788.74 2.47244 2.31784 0
M  V30 18955 C 1787.91 3.78023 2.20039 0
M  V30 18956 C 1786.97 4.05113 3.35812 0
M  V30 18957 O 1785.99 4.75447 3.12952 0
M  V30 18958 N 1787.2 3.5484 4.59422 0
M  V30 18959 H 1789.96 2.94242 0.569355 0
M  V30 18960 H 1787.52 1.61073 0.163461 0
M  V30 18961 H 1789.51 2.62463 3.08051 0
M  V30 18962 H 1788.08 1.65163 2.65405 0
M  V30 18963 H 1787.3 3.72656 1.28534 0
M  V30 18964 H 1788.59 4.63717 2.09389 0
M  V30 18965 H 1787.99 2.97928 4.8089 0
M  V30 18966 H 1786.55 3.75348 5.32877 0
M  V30 18967 N 1789.98 -0.249655 1.5561 0
M  V30 18968 C 1791.23 -0.979529 1.77576 0
M  V30 18969 C 1791.56 -1.85078 0.588198 0
M  V30 18970 O 1790.83 -1.90052 -0.4136 0
M  V30 18971 C 1791.12 -1.84238 3.094 0
M  V30 18972 C 1790.97 -0.9995 4.38554 0
M  V30 18973 C 1792.29 -2.82536 3.37433 0
M  V30 18974 H 1789.41 -0.354681 0.646042 0
M  V30 18975 H 1792.05 -0.250224 1.88345 0
M  V30 18976 H 1790.2 -2.46419 3.0035 0
M  V30 18977 H 1791.87 -0.396599 4.59592 0
M  V30 18978 H 1790.11 -0.30376 4.32735 0
M  V30 18979 H 1790.79 -1.63697 5.27169 0
M  V30 18980 H 1793.26 -2.30491 3.46429 0
M  V30 18981 H 1792.14 -3.40033 4.30893 0
M  V30 18982 H 1792.4 -3.58859 2.58211 0
M  V30 18983 N 1791.46 -1.48941 -0.515198 0
M  V30 18984 C 1792.71 -1.57398 -1.26768 0
M  V30 18985 C 1793.03 -0.256213 -1.93309 0
M  V30 18986 O 1792.3 0.723408 -1.82054 0
M  V30 18987 H 1790.88 -0.579895 -0.470883 0
M  V30 18988 H 1793.54 -1.85489 -0.598315 0
M  V30 18989 H 1792.63 -2.36272 -2.03916 0
M  V30 18990 N 1792.94 0.765193 -1.37777 0
M  V30 18991 C 1794.35 1.06666 -1.1872 0
M  V30 18992 C 1794.55 2.01481 -0.0278636 0
M  V30 18993 O 1793.61 2.44514 0.630006 0
M  V30 18994 C 1794.92 1.65787 -2.50868 0
M  V30 18995 C 1796.47 1.78014 -2.57449 0
M  V30 18996 C 1796.94 2.40548 -3.89744 0
M  V30 18997 N 1798.43 2.47992 -3.91221 0
M  V30 18998 C 1799.17 2.97245 -4.9034 0
M  V30 18999 N 1798.67 3.46621 -5.99855 0
M  V30 19000 N 1800.46 2.96179 -4.77739 0
M  V30 19001 H 1792.61 0.135775 -2.11966 0
M  V30 19002 H 1794.87 0.122863 -0.940005 0
M  V30 19003 H 1794.58 1.03588 -3.36099 0
M  V30 19004 H 1794.45 2.65 -2.6843 0
M  V30 19005 H 1796.84 2.39345 -1.72621 0
M  V30 19006 H 1796.92 0.775388 -2.43765 0
M  V30 19007 H 1796.56 1.79855 -4.74989 0
M  V30 19008 H 1796.49 3.41643 -4.00734 0
M  V30 19009 H 1798.99 2.13056 -3.12114 0
M  V30 19010 H 1799.3 3.82625 -6.7143 0
M  V30 19011 H 1797.64 3.44709 -6.0349 0
M  V30 19012 H 1800.83 2.56909 -3.913 0
M  V30 19013 H 1801.01 3.34253 -5.55139 0
M  V30 19014 N 1794.41 1.22455 0.992094 0
M  V30 19015 C 1795.35 0.938597 2.08004 0
M  V30 19016 C 1796.32 -0.118779 1.62166 0
M  V30 19017 O 1797.51 0.0129778 1.88496 0
M  V30 19018 C 1794.64 0.411803 3.36187 0
M  V30 19019 C 1793.68 1.45398 4.00951 0
M  V30 19020 S 1794.51 3.02757 4.417 0
M  V30 19021 C 1795.67 2.51718 5.73052 0
M  V30 19022 H 1795.9 1.85987 2.3194 0
M  V30 19023 H 1793.44 1.0557 1.12669 0
M  V30 19024 H 1795.39 0.114452 4.1034 0
M  V30 19025 H 1794.06 -0.488368 3.1028 0
M  V30 19026 H 1793.25 1.03528 4.93252 0
M  V30 19027 H 1792.85 1.70008 3.33127 0
M  V30 19028 H 1795.14 1.93009 6.49426 0
M  V30 19029 H 1796.09 3.42513 6.1975 0
M  V30 19030 H 1796.49 1.92974 5.30491 0
M  V30 19031 N 1795.89 -1.18905 1.03437 0
M  V30 19032 C 1796.84 -2.24362 0.613557 0
M  V30 19033 C 1797.83 -1.65605 -0.356541 0
M  V30 19034 O 1799.04 -1.78594 -0.22452 0
M  V30 19035 H 1795.41 -0.730098 0.18017 0
M  V30 19036 H 1797.39 -2.57168 1.51351 0
M  V30 19037 C 1796.13 -3.47697 -0.0141125 0
M  V30 19038 H 1795.46 -3.93201 0.723394 0
M  V30 19039 H 1796.9 -4.2313 -0.271424 0
M  V30 19040 C 1795.36 -3.12357 -1.26232 0
M  V30 19041 O 1795.89 -3.25515 -2.35378 0
M  V30 19042 N 1794.09 -2.6674 -1.15318 0
M  V30 19043 H 1793.64 -2.56233 -0.26501 0
M  V30 19044 H 1793.6 -2.43466 -1.98927 0
M  V30 19045 N 1797.37 -0.812977 -1.35013 0
M  V30 19046 C 1798.62 -0.396345 -1.98583 0
M  V30 19047 C 1798.94 1.0381 -1.6448 0
M  V30 19048 O 1798.2 1.73604 -0.903344 0
M  V30 19049 C 1798.5 -0.534083 -3.53387 0
M  V30 19050 C 1798.16 -1.93278 -4.07375 0
M  V30 19051 C 1796.83 -2.31543 -4.21831 0
M  V30 19052 C 1799.18 -2.84756 -4.36535 0
M  V30 19053 C 1796.51 -3.60641 -4.62769 0
M  V30 19054 C 1798.86 -4.13308 -4.78915 0
M  V30 19055 C 1797.52 -4.51563 -4.91576 0
M  V30 19056 H 1796.79 -0.145033 -0.726668 0
M  V30 19057 H 1799.44 -1.035 -1.61121 0
M  V30 19058 H 1797.74 0.188002 -3.91349 0
M  V30 19059 H 1799.44 -0.192396 -4.00538 0
M  V30 19060 H 1796.03 -1.62551 -3.96579 0
M  V30 19061 H 1800.22 -2.56441 -4.24914 0
M  V30 19062 H 1795.47 -3.9012 -4.70761 0
M  V30 19063 H 1799.65 -4.84287 -5.00439 0
M  V30 19064 H 1797.27 -5.51649 -5.23056 0
M  V30 19065 N 1798.85 1.47045 -0.567045 0
M  V30 19066 C 1800.1 2.02046 -0.0465877 0
M  V30 19067 C 1800.42 1.44271 1.3119 0
M  V30 19068 O 1799.69 0.621533 1.85779 0
M  V30 19069 H 1798.27 0.746864 -0.0142323 0
M  V30 19070 H 1800.93 1.80335 -0.739281 0
M  V30 19071 H 1800.02 3.12081 0.0341623 0
M  V30 19072 N 1800.33 0.304 1.5464 0
M  V30 19073 C 1801.27 -0.570762 2.23631 0
M  V30 19074 C 1802.24 -1.1272 1.21998 0
M  V30 19075 O 1803.43 -1.17117 1.50626 0
M  V30 19076 C 1800.57 -1.73533 2.98296 0
M  V30 19077 C 1799.68 -1.21 4.14708 0
M  V30 19078 C 1798.82 -2.33867 4.76948 0
M  V30 19079 C 1797.85 -1.78483 5.855 0
M  V30 19080 N 1796.99 -2.84935 6.41682 0
M  V30 19081 H 1801.83 0.024168 2.9799 0
M  V30 19082 H 1799.37 0.023697 1.47081 0
M  V30 19083 H 1801.33 -2.42031 3.39819 0
M  V30 19084 H 1799.96 -2.30184 2.26308 0
M  V30 19085 H 1799.01 -0.41718 3.78105 0
M  V30 19086 H 1800.32 -0.764576 4.92905 0
M  V30 19087 H 1799.47 -3.10306 5.21339 0
M  V30 19088 H 1798.21 -2.81737 3.9809 0
M  V30 19089 H 1797.22 -1.00534 5.4053 0
M  V30 19090 H 1798.44 -1.31513 6.66244 0
M  V30 19091 H 1796.39 -3.32133 5.65706 0
M  V30 19092 H 1796.31 -2.44898 7.15235 0
M  V30 19093 H 1797.57 -3.61263 6.90731 0
M  V30 19094 N 1801.8 -1.57568 0.0317802 0
M  V30 19095 C 1803.08 -1.8321 -0.685081 0
M  V30 19096 C 1803.46 -0.91624 -1.9018 0
M  V30 19097 O 1802.81 0.0275043 -2.28483 0
M  V30 19098 C 1803.02 -3.32488 -1.06078 0
M  V30 19099 C 1804.37 -3.99027 -1.45129 0
M  V30 19100 O 1805.39 -3.36999 -1.15368 0
M  V30 19101 O 1804.25 -5.08355 -2.00592 0
M  V30 19102 H 1801.34 -0.755517 -0.336337 0
M  V30 19103 H 1803.89 -1.69595 0.0596652 0
M  V30 19104 H 1802.66 -3.90814 -0.194918 0
M  V30 19105 H 1802.28 -3.5122 -1.8636 0
M  V30 19106 N 1803.28 0.241399 -1.5574 0
M  V30 19107 C 1804.53 0.970098 -1.78093 0
M  V30 19108 C 1804.86 1.84763 -0.598005 0
M  V30 19109 O 1804.14 1.90268 0.403516 0
M  V30 19110 C 1804.42 1.82594 -3.10373 0
M  V30 19111 C 1804.27 0.976228 -4.39078 0
M  V30 19112 C 1805.59 2.80743 -3.38927 0
M  V30 19113 H 1802.71 0.35125 -0.647914 0
M  V30 19114 H 1805.35 0.240232 -1.88475 0
M  V30 19115 H 1803.5 2.44823 -3.01652 0
M  V30 19116 H 1805.17 0.37222 -4.59796 0
M  V30 19117 H 1803.42 0.280807 -4.3289 0
M  V30 19118 H 1804.09 1.60899 -5.2803 0
M  V30 19119 H 1806.56 2.28651 -3.47646 0
M  V30 19120 H 1805.44 3.37743 -4.3269 0
M  V30 19121 H 1805.7 3.57484 -2.6011 0
M  V30 19122 N 1804.76 1.49212 0.507292 0
M  V30 19123 C 1805.99 1.62343 1.29072 0
M  V30 19124 C 1806.41 0.292387 1.85814 0
M  V30 19125 O 1805.77 -0.739145 1.65549 0
M  V30 19126 C 1805.82 2.69017 2.40129 0
M  V30 19127 O 1804.92 2.27753 3.43806 0
M  V30 19128 H 1804.26 0.543591 0.38132 0
M  V30 19129 H 1806.79 1.95358 0.607997 0
M  V30 19130 H 1806.8 2.90992 2.85985 0
M  V30 19131 H 1805.48 3.65638 1.98195 0
M  V30 19132 H 1804.05 2.16084 3.03912 0
M  V30 19133 N 1806.24 -0.757876 1.38181 0
M  V30 19134 C 1807.47 -1.54709 1.37378 0
M  V30 19135 C 1807.88 -1.88763 -0.0375087 0
M  V30 19136 O 1807.24 -1.52467 -1.00299 0
M  V30 19137 C 1807.29 -2.84887 2.22535 0
M  V30 19138 O 1807.01 -2.52287 3.58166 0
M  V30 19139 C 1808.51 -3.79048 2.29865 0
M  V30 19140 H 1805.73 -0.478845 0.470052 0
M  V30 19141 H 1808.28 -0.938283 1.81704 0
M  V30 19142 H 1806.43 -3.42156 1.81682 0
M  V30 19143 H 1806.84 -3.35747 4.02957 0
M  V30 19144 H 1808.32 -4.67353 2.93744 0
M  V30 19145 H 1808.8 -4.19175 1.31106 0
M  V30 19146 H 1809.4 -3.27704 2.7109 0
M  V30 19147 N 1807.72 -1.22979 -0.985586 0
M  V30 19148 C 1808.65 -1.03073 -2.09519 0
M  V30 19149 C 1809.63 0.0507025 -1.70024 0
M  V30 19150 O 1810.81 -0.112938 -1.93871 0
M  V30 19151 C 1807.94 -0.615578 -3.41801 0
M  V30 19152 C 1806.9 -1.64377 -3.95176 0
M  V30 19153 C 1806.22 -1.08422 -5.23592 0
M  V30 19154 C 1807.52 -3.03555 -4.25032 0
M  V30 19155 H 1809.22 -1.95882 -2.2643 0
M  V30 19156 H 1806.76 -0.943206 -1.0881 0
M  V30 19157 H 1808.72 -0.463394 -4.18844 0
M  V30 19158 H 1807.44 0.348185 -3.24739 0
M  V30 19159 H 1806.1 -1.78386 -3.20272 0
M  V30 19160 H 1805.75 -0.111597 -5.02876 0
M  V30 19161 H 1805.45 -1.77118 -5.6027 0
M  V30 19162 H 1806.97 -0.94378 -6.03262 0
M  V30 19163 H 1808.38 -2.92878 -4.92844 0
M  V30 19164 H 1806.78 -3.69441 -4.72899 0
M  V30 19165 H 1807.85 -3.52937 -3.32511 0
M  V30 19166 N 1809.19 1.18355 -1.04066 0
M  V30 19167 C 1810.14 2.21987 -0.631714 0
M  V30 19168 C 1811.11 1.62142 0.360462 0
M  V30 19169 O 1812.3 1.89096 0.254445 0
M  V30 19170 C 1809.44 3.451 -0.000843566 0
M  V30 19171 C 1808.55 4.19283 -1.04048 0
M  V30 19172 C 1807.68 5.29852 -0.37813 0
M  V30 19173 C 1806.72 5.95807 -1.40287 0
M  V30 19174 N 1805.86 6.97915 -0.765481 0
M  V30 19175 H 1810.7 2.56323 -1.51995 0
M  V30 19176 H 1808.24 1.25923 -0.760384 0
M  V30 19177 H 1810.2 4.15445 0.382267 0
M  V30 19178 H 1808.83 3.11383 0.850911 0
M  V30 19179 H 1807.88 3.47765 -1.54154 0
M  V30 19180 H 1809.19 4.64457 -1.81882 0
M  V30 19181 H 1808.34 6.06671 0.059186 0
M  V30 19182 H 1807.08 4.8578 0.432293 0
M  V30 19183 H 1806.09 5.17729 -1.85032 0
M  V30 19184 H 1807.31 6.41962 -2.21499 0
M  V30 19185 H 1805.26 6.55995 0.0246364 0
M  V30 19186 H 1805.18 7.41341 -1.48152 0
M  V30 19187 H 1806.44 7.78702 -0.35256 0
M  V30 19188 N 1810.67 0.820125 1.3458 0
M  V30 19189 C 1811.9 0.419155 2.02303 0
M  V30 19190 C 1812.31 -0.978742 1.61918 0
M  V30 19191 O 1811.65 -1.64433 0.818983 0
M  V30 19192 C 1811.72 0.438576 3.56815 0
M  V30 19193 C 1811.38 1.78932 4.20514 0
M  V30 19194 C 1812.38 2.74974 4.41232 0
M  V30 19195 C 1810.06 2.07704 4.57345 0
M  V30 19196 C 1812.06 3.97961 4.97901 0
M  V30 19197 C 1809.74 3.30952 5.13726 0
M  V30 19198 C 1810.74 4.25898 5.33947 0
M  V30 19199 O 1810.43 5.46969 5.89135 0
M  V30 19200 H 1810.16 0.166787 0.655102 0
M  V30 19201 H 1812.71 1.10892 1.72893 0
M  V30 19202 H 1810.94 -0.307871 3.85472 0
M  V30 19203 H 1812.63 0.0580448 4.05858 0
M  V30 19204 H 1813.4 2.54041 4.13144 0
M  V30 19205 H 1809.28 1.34605 4.40911 0
M  V30 19206 H 1812.82 4.72081 5.136 0
M  V30 19207 H 1808.72 3.5175 5.41242 0
M  V30 19208 H 1809.49 5.48451 6.07572 0
M  V30 19209 N 1812.15 -1.46743 0.574835 0
M  V30 19210 C 1813.4 -2.02419 0.0574154 0
M  V30 19211 C 1813.73 -1.44723 -1.29944 0
M  V30 19212 O 1812.98 -0.599149 -1.86303 0
M  V30 19213 C 1813.28 -3.57338 -0.0666259 0
M  V30 19214 C 1812.95 -4.34036 1.22161 0
M  V30 19215 C 1811.61 -4.5471 1.57457 0
M  V30 19216 C 1813.96 -4.78137 2.07448 0
M  V30 19217 C 1811.29 -5.16735 2.77852 0
M  V30 19218 C 1813.64 -5.41492 3.27062 0
M  V30 19219 C 1812.3 -5.60394 3.6265 0
M  V30 19220 H 1811.57 -0.740702 0.0210098 0
M  V30 19221 H 1814.22 -1.76207 0.749892 0
M  V30 19222 H 1812.53 -3.82642 -0.842183 0
M  V30 19223 H 1814.22 -3.98085 -0.482605 0
M  V30 19224 H 1810.81 -4.18236 0.936826 0
M  V30 19225 H 1815 -4.61928 1.81484 0
M  V30 19226 H 1810.25 -5.29562 3.05572 0
M  V30 19227 H 1814.43 -5.74623 3.93422 0
M  V30 19228 H 1812.05 -6.08226 4.56032 0
M  V30 19229 N 1813.63 -0.312197 -1.54477 0
M  V30 19230 C 1814.86 0.296061 -2.04771 0
M  V30 19231 C 1815.27 1.46662 -1.18894 0
M  V30 19232 O 1814.63 1.81205 -0.217043 0
M  V30 19233 C 1814.68 0.74151 -3.53813 0
M  V30 19234 O 1814.4 -0.382471 -4.36427 0
M  V30 19235 C 1815.9 1.41376 -4.20152 0
M  V30 19236 H 1813.12 0.062705 -0.668064 0
M  V30 19237 H 1815.67 -0.455083 -1.99372 0
M  V30 19238 H 1813.82 1.44265 -3.59536 0
M  V30 19239 H 1814.23 -0.0336382 -5.24489 0
M  V30 19240 H 1815.71 1.67649 -5.25926 0
M  V30 19241 H 1816.19 2.35743 -3.7057 0
M  V30 19242 H 1816.79 0.755498 -4.18536 0
M  V30 19243 N 1815.11 1.57549 -0.040136 0
M  V30 19244 C 1816.36 1.91427 0.635496 0
M  V30 19245 C 1816.67 0.919277 1.72652 0
M  V30 19246 O 1817.87 1.14971 2.45955 0
M  V30 19247 C 1816.33 3.39949 1.18164 0
M  V30 19248 C 1815.94 4.4783 0.12332 0
M  V30 19249 C 1817.68 3.82878 1.83315 0
M  V30 19250 C 1815.59 5.87458 0.681727 0
M  V30 19251 H 1814.52 0.714401 0.241138 0
M  V30 19252 H 1817.17 1.83186 -0.107231 0
M  V30 19253 H 1815.55 3.43157 1.97633 0
M  V30 19254 H 1816.73 4.56197 -0.64972 0
M  V30 19255 H 1815.04 4.14173 -0.43008 0
M  V30 19256 H 1817.64 4.84558 2.2607 0
M  V30 19257 H 1817.98 3.1853 2.68038 0
M  V30 19258 H 1818.51 3.82139 1.10519 0
M  V30 19259 H 1815.25 6.55376 -0.127616 0
M  V30 19260 H 1814.77 5.82675 1.423 0
M  V30 19261 H 1816.45 6.36369 1.16806 0
M  V30 19262 N 1816.58 -0.233136 1.55866 0
M  V30 19263 C 1817.82 -0.966418 1.8011 0
M  V30 19264 C 1818.19 -1.8199 0.61184 0
M  V30 19265 O 1819.39 -2.58603 0.733339 0
M  V30 19266 C 1817.66 -1.7928 3.09182 0
M  V30 19267 S 1819.22 -2.5833 3.54698 0
M  V30 19268 H 1816.04 -0.324835 0.632458 0
M  V30 19269 H 1818.64 -0.233016 1.94106 0
M  V30 19270 H 1817.34 -1.15574 3.9379 0
M  V30 19271 H 1816.87 -2.56871 2.97961 0
M  V30 19272 H 1818.89 -3.81641 3.17119 0
M  V30 19273 N 1818.06 -1.49479 -0.499372 0
M  V30 19274 C 1819.31 -1.58734 -1.25092 0
M  V30 19275 C 1819.63 -0.276701 -1.93027 0
M  V30 19276 O 1818.9 0.704058 -1.82811 0
M  V30 19277 H 1817.48 -0.584857 -0.464706 0
M  V30 19278 H 1820.14 -1.86113 -0.578608 0
M  V30 19279 H 1819.24 -2.38422 -2.01399 0
M  V30 19280 N 1819.54 0.750537 -1.38581 0
M  V30 19281 C 1820.47 1.87785 -1.38777 0
M  V30 19282 C 1821.45 1.68204 -0.253244 0
M  V30 19283 O 1822.64 1.88752 -0.456779 0
M  V30 19284 C 1819.77 3.2535 -1.21511 0
M  V30 19285 C 1818.72 3.59538 -2.32199 0
M  V30 19286 C 1818.05 4.95873 -2.00036 0
M  V30 19287 C 1819.35 3.64102 -3.74469 0
M  V30 19288 H 1821.04 1.87879 -2.33113 0
M  V30 19289 H 1818.59 0.902504 -1.12209 0
M  V30 19290 H 1820.54 4.03872 -1.20272 0
M  V30 19291 H 1819.26 3.25744 -0.236366 0
M  V30 19292 H 1817.92 2.83336 -2.32629 0
M  V30 19293 H 1817.57 4.9283 -1.00638 0
M  V30 19294 H 1817.27 5.19716 -2.7417 0
M  V30 19295 H 1818.8 5.7677 -2.00421 0
M  V30 19296 H 1820.21 4.32731 -3.76054 0
M  V30 19297 H 1818.61 3.99455 -4.47834 0
M  V30 19298 H 1819.68 2.64259 -4.06565 0
M  V30 19299 N 1821.02 1.235 0.979051 0
M  V30 19300 C 1821.95 0.975198 2.07419 0
M  V30 19301 C 1822.96 -0.0512875 1.62719 0
M  V30 19302 O 1824.15 0.184403 1.77545 0
M  V30 19303 C 1821.25 0.447701 3.3593 0
M  V30 19304 C 1820.43 1.53467 4.09593 0
M  V30 19305 C 1819.49 1.01181 5.16381 0
M  V30 19306 O 1818.51 1.70108 5.43187 0
M  V30 19307 N 1819.71 -0.159667 5.8028 0
M  V30 19308 H 1822.48 1.91806 2.30283 0
M  V30 19309 H 1820.04 1.14377 1.14584 0
M  V30 19310 H 1822.03 0.0829228 4.04615 0
M  V30 19311 H 1820.6 -0.400613 3.10022 0
M  V30 19312 H 1819.82 2.07215 3.35344 0
M  V30 19313 H 1821.11 2.2656 4.55574 0
M  V30 19314 H 1820.51 -0.736193 5.60889 0
M  V30 19315 H 1819.06 -0.465696 6.50134 0
M  V30 19316 N 1822.5 -1.17802 1.04693 0
M  V30 19317 C 1823.41 -2.25298 0.654072 0
M  V30 19318 C 1824.42 -1.70984 -0.32255 0
M  V30 19319 O 1825.6 -2.0063 -0.175904 0
M  V30 19320 C 1822.66 -3.46687 0.0296345 0
M  V30 19321 C 1821.73 -4.16108 1.05606 0
M  V30 19322 C 1820.96 -5.31702 0.461329 0
M  V30 19323 O 1821.18 -5.65701 -0.730679 0
M  V30 19324 O 1820.12 -5.89956 1.19312 0
M  V30 19325 H 1823.94 -2.61179 1.54982 0
M  V30 19326 H 1821.53 -1.25005 0.818182 0
M  V30 19327 H 1823.41 -4.20201 -0.317654 0
M  V30 19328 H 1822.08 -3.12615 -0.839839 0
M  V30 19329 H 1820.99 -3.44635 1.45526 0
M  V30 19330 H 1822.32 -4.54195 1.89651 0
M  V30 19331 N 1823.98 -0.827251 -1.34143 0
M  V30 19332 C 1825.22 -0.41656 -1.9776 0
M  V30 19333 C 1825.54 1.02488 -1.65895 0
M  V30 19334 O 1824.81 1.71219 -0.951891 0
M  V30 19335 H 1823.39 -0.151044 -0.73157 0
M  V30 19336 H 1826.06 -1.05765 -1.63706 0
M  V30 19337 H 1825.15 -0.539101 -3.07409 0
M  V30 19338 N 1825.45 1.46436 -0.582609 0
M  V30 19339 C 1826.68 2.06469 -0.0736587 0
M  V30 19340 C 1827.09 1.43193 1.23662 0
M  V30 19341 O 1826.43 0.531376 1.75847 0
M  V30 19342 C 1826.5 3.59114 0.166531 0
M  V30 19343 C 1826.16 4.44581 -1.05814 0
M  V30 19344 C 1827.16 4.81125 -1.97016 0
M  V30 19345 C 1824.84 4.85718 -1.27996 0
M  V30 19346 C 1826.84 5.57632 -3.08747 0
M  V30 19347 C 1824.52 5.61986 -2.40032 0
M  V30 19348 C 1825.52 5.97856 -3.30237 0
M  V30 19349 O 1825.21 6.72582 -4.40328 0
M  V30 19350 H 1824.94 0.673802 -0.0544673 0
M  V30 19351 H 1827.5 1.89053 -0.803005 0
M  V30 19352 H 1825.73 3.74837 0.950489 0
M  V30 19353 H 1827.41 4.01075 0.62398 0
M  V30 19354 H 1828.18 4.49922 -1.81094 0
M  V30 19355 H 1824.06 4.57249 -0.586917 0
M  V30 19356 H 1827.6 5.85549 -3.7918 0
M  V30 19357 H 1823.5 5.92602 -2.55917 0
M  V30 19358 H 1824.27 6.91006 -4.38694 0
M  V30 19359 N 1826.93 0.320385 1.54309 0
M  V30 19360 C 1827.84 -0.556017 2.27916 0
M  V30 19361 C 1828.86 -1.13192 1.32149 0
M  V30 19362 O 1830.03 -1.15257 1.6516 0
M  V30 19363 C 1827.1 -1.70244 3.02023 0
M  V30 19364 C 1826.16 -1.15866 4.13369 0
M  V30 19365 C 1825.39 -2.25044 4.83933 0
M  V30 19366 O 1825.62 -3.45327 4.53988 0
M  V30 19367 O 1824.55 -1.90642 5.70911 0
M  V30 19368 H 1828.38 0.0416563 3.03671 0
M  V30 19369 H 1825.96 0.0861809 1.49151 0
M  V30 19370 H 1827.84 -2.36995 3.48442 0
M  V30 19371 H 1826.52 -2.28635 2.29146 0
M  V30 19372 H 1825.42 -0.456323 3.71306 0
M  V30 19373 H 1826.76 -0.619916 4.88281 0
M  V30 19374 N 1828.41 -1.57525 0.0484906 0
M  V30 19375 C 1829.82 -1.80221 -0.487592 0
M  V30 19376 C 1830.17 -0.96049 -1.71082 0
M  V30 19377 O 1829.3 -0.17632 -2.1568 0
M  V30 19378 C 1829.89 -3.26864 -0.89136 0
M  V30 19379 C 1828.45 -3.50487 -1.37244 0
M  V30 19380 C 1827.6 -2.75129 -0.346348 0
M  V30 19381 H 1830.55 -1.5631 0.274392 0
M  V30 19382 H 1830.57 -3.37637 -1.75446 0
M  V30 19383 H 1830.08 -3.881 -0.000880924 0
M  V30 19384 H 1828.18 -2.94528 -2.2822 0
M  V30 19385 H 1828.3 -4.592 -1.36645 0
M  V30 19386 H 1826.66 -2.41185 -0.818653 0
M  V30 19387 H 1827.44 -3.3909 0.536 0
M  V30 19388 N 1829.89 0.224867 -1.55988 0
M  V30 19389 C 1831.13 0.949747 -1.78846 0
M  V30 19390 C 1831.46 1.84465 -0.616678 0
M  V30 19391 O 1830.72 1.91587 0.399098 0
M  V30 19392 C 1831.02 1.8227 -3.07429 0
M  V30 19393 C 1830.68 1.08131 -4.37743 0
M  V30 19394 C 1829.34 0.876497 -4.7315 0
M  V30 19395 C 1831.7 0.557505 -5.1821 0
M  V30 19396 C 1829.02 0.13593 -5.86543 0
M  V30 19397 C 1831.38 -0.169702 -6.32372 0
M  V30 19398 C 1830.04 -0.385796 -6.66384 0
M  V30 19399 H 1829.31 0.347537 -0.654446 0
M  V30 19400 H 1831.96 0.218162 -1.90253 0
M  V30 19401 H 1830.26 2.62204 -2.91129 0
M  V30 19402 H 1831.96 2.38564 -3.22317 0
M  V30 19403 H 1828.55 1.25091 -4.09939 0
M  V30 19404 H 1832.73 0.703218 -4.91293 0
M  V30 19405 H 1827.99 -0.0417543 -6.11386 0
M  V30 19406 H 1832.16 -0.583104 -6.93955 0
M  V30 19407 H 1829.79 -0.961574 -7.54094 0
M  V30 19408 N 1831.37 1.49742 0.491438 0
M  V30 19409 C 1832.33 1.66587 1.57421 0
M  V30 19410 C 1833.33 0.537281 1.51558 0
M  V30 19411 O 1834.52 0.803928 1.5454 0
M  V30 19412 C 1831.65 1.67217 2.97071 0
M  V30 19413 H 1832.84 2.63171 1.4381 0
M  V30 19414 H 1830.4 1.38917 0.716368 0
M  V30 19415 H 1831.13 0.722529 3.16149 0
M  V30 19416 H 1830.92 2.49187 3.02734 0
M  V30 19417 H 1832.41 1.82274 3.75721 0
M  V30 19418 N 1832.84 -0.743177 1.38977 0
M  V30 19419 C 1834.09 -1.50479 1.35956 0
M  V30 19420 C 1834.42 -1.94143 -0.0471116 0
M  V30 19421 O 1833.7 -1.66195 -1.01042 0
M  V30 19422 C 1833.98 -2.75016 2.32461 0
M  V30 19423 C 1833.83 -2.37423 3.82034 0
M  V30 19424 C 1835.15 -3.77084 2.26927 0
M  V30 19425 H 1832.27 -0.545869 0.495172 0
M  V30 19426 H 1834.91 -0.850403 1.69906 0
M  V30 19427 H 1833.06 -3.30852 2.03639 0
M  V30 19428 H 1834.74 -1.87282 4.21572 0
M  V30 19429 H 1832.98 -1.69752 3.99208 0
M  V30 19430 H 1833.65 -3.2657 4.45035 0
M  V30 19431 H 1836.13 -3.30812 2.52394 0
M  V30 19432 H 1835 -4.61901 2.96545 0
M  V30 19433 H 1835.26 -4.23419 1.27156 0
M  V30 19434 N 1834.32 -1.24018 -0.972487 0
M  V30 19435 C 1835.27 -1.02594 -2.08752 0
M  V30 19436 C 1836.26 0.0376128 -1.69358 0
M  V30 19437 O 1837.47 -0.116549 -1.79622 0
M  V30 19438 H 1833.85 -0.314713 -0.682979 0
M  V30 19439 H 1835.82 -1.97163 -2.23985 0
M  V30 19440 C 1834.57 -0.642298 -3.41716 0
M  V30 19441 H 1833.89 -1.45243 -3.72484 0
M  V30 19442 H 1835.33 -0.531964 -4.2065 0
M  V30 19443 C 1833.79 0.650173 -3.30567 0
M  V30 19444 O 1834.32 1.6972 -3.64085 0
M  V30 19445 N 1832.52 0.629085 -2.83709 0
M  V30 19446 H 1832.07 -0.223302 -2.5663 0
M  V30 19447 H 1832.03 1.49407 -2.76631 0
M  V30 19448 N 1835.8 1.17245 -1.05316 0
M  V30 19449 C 1837.03 1.91454 -0.78441 0
M  V30 19450 C 1837.44 1.76886 0.660053 0
M  V30 19451 O 1836.8 1.10686 1.45103 0
M  V30 19452 C 1836.85 3.42477 -1.15722 0
M  V30 19453 O 1836.57 3.56598 -2.54498 0
M  V30 19454 C 1838.07 4.33759 -0.914783 0
M  V30 19455 H 1835.29 0.607416 -0.285108 0
M  V30 19456 H 1837.84 1.48672 -1.40417 0
M  V30 19457 H 1835.99 3.83001 -0.582183 0
M  V30 19458 H 1836.41 4.50178 -2.69147 0
M  V30 19459 H 1837.88 5.38227 -1.22536 0
M  V30 19460 H 1838.36 4.38944 0.149953 0
M  V30 19461 H 1838.96 3.98951 -1.47372 0
M  V30 19462 N 1837.28 0.834353 1.33702 0
M  V30 19463 C 1838.23 0.252818 2.31222 0
M  V30 19464 C 1839.22 -0.612723 1.57931 0
M  V30 19465 O 1840.43 -0.502788 1.72835 0
M  V30 19466 H 1836.8 0.0630243 0.749354 0
M  V30 19467 H 1838.77 1.08992 2.77783 0
M  V30 19468 C 1837.52 -0.561132 3.43142 0
M  V30 19469 H 1836.84 0.0955723 3.99686 0
M  V30 19470 H 1838.28 -0.933951 4.13586 0
M  V30 19471 C 1836.74 -1.73817 2.88599 0
M  V30 19472 O 1837.27 -2.83674 2.84415 0
M  V30 19473 N 1835.48 -1.5586 2.45267 0
M  V30 19474 H 1835.03 -0.664959 2.4887 0
M  V30 19475 H 1834.98 -2.34764 2.09125 0
M  V30 19476 N 1838.76 -1.46125 0.590367 0
M  V30 19477 C 1840.17 -1.57588 0.252639 0
M  V30 19478 C 1840.37 -1.58435 -1.24502 0
M  V30 19479 O 1839.43 -1.50541 -2.02716 0
M  V30 19480 C 1840.74 -2.86644 0.908612 0
M  V30 19481 C 1842.29 -3.00289 0.882917 0
M  V30 19482 C 1842.76 -4.32092 1.51858 0
M  V30 19483 N 1844.26 -4.38809 1.48327 0
M  V30 19484 C 1844.99 -5.39426 1.94442 0
M  V30 19485 N 1844.49 -6.46674 2.48565 0
M  V30 19486 N 1846.28 -5.30675 1.85313 0
M  V30 19487 H 1838.43 -1.43819 1.56301 0
M  V30 19488 H 1840.69 -0.686515 0.653759 0
M  V30 19489 H 1840.4 -2.91857 1.96246 0
M  V30 19490 H 1840.27 -3.74838 0.421445 0
M  V30 19491 H 1842.66 -2.94653 -0.16233 0
M  V30 19492 H 1842.74 -2.13551 1.40818 0
M  V30 19493 H 1842.39 -4.38486 2.56306 0
M  V30 19494 H 1842.32 -5.17618 0.968474 0
M  V30 19495 H 1844.81 -3.61907 1.08772 0
M  V30 19496 H 1845.12 -7.19671 2.8159 0
M  V30 19497 H 1843.46 -6.47473 2.52595 0
M  V30 19498 H 1846.66 -4.45793 1.42782 0
M  V30 19499 H 1846.83 -6.08943 2.21567 0
M  V30 19500 N 1840.23 -0.328564 -1.54137 0
M  V30 19501 C 1841.51 0.327026 -1.92847 0
M  V30 19502 C 1841.89 1.69472 -1.25867 0
M  V30 19503 O 1841.24 2.24897 -0.404172 0
M  V30 19504 C 1841.45 0.414261 -3.46533 0
M  V30 19505 C 1842.8 0.672189 -4.19245 0
M  V30 19506 O 1843.82 0.496982 -3.52716 0
M  V30 19507 O 1842.68 1.01053 -5.37076 0
M  V30 19508 H 1839.77 0.187716 -0.805414 0
M  V30 19509 H 1842.32 -0.378645 -1.65422 0
M  V30 19510 H 1841.09 -0.54611 -3.8747 0
M  V30 19511 H 1840.72 1.16731 -3.80078 0
M  V30 19512 N 1841.71 1.57497 -0.0568439 0
M  V30 19513 C 1842.96 1.9209 0.615157 0
M  V30 19514 C 1843.27 0.937538 1.71667 0
M  V30 19515 O 1844.48 1.17573 2.44722 0
M  V30 19516 C 1842.94 3.41183 1.14552 0
M  V30 19517 C 1842.54 4.47936 0.0758146 0
M  V30 19518 C 1844.29 3.84801 1.79244 0
M  V30 19519 C 1842.2 5.88148 0.619381 0
M  V30 19520 H 1841.13 0.716918 0.233547 0
M  V30 19521 H 1843.78 1.83062 -0.126654 0
M  V30 19522 H 1842.16 3.45234 1.93983 0
M  V30 19523 H 1843.33 4.55482 -0.69807 0
M  V30 19524 H 1841.65 4.13694 -0.473984 0
M  V30 19525 H 1844.24 4.86929 2.20918 0
M  V30 19526 H 1844.59 3.21355 2.64645 0
M  V30 19527 H 1845.12 3.8329 1.0646 0
M  V30 19528 H 1841.86 6.55204 -0.19712 0
M  V30 19529 H 1841.38 5.84152 1.36112 0
M  V30 19530 H 1843.06 6.37572 1.1005 0
M  V30 19531 N 1843.19 -0.216591 1.56105 0
M  V30 19532 C 1844.42 -0.957013 1.83436 0
M  V30 19533 C 1844.83 -1.77743 0.636612 0
M  V30 19534 O 1844.19 -1.78178 -0.394833 0
M  V30 19535 C 1844.24 -1.87058 3.09341 0
M  V30 19536 O 1843.96 -1.08331 4.24495 0
M  V30 19537 C 1845.46 -2.72448 3.49695 0
M  V30 19538 H 1842.68 -0.280249 0.609673 0
M  V30 19539 H 1845.23 -0.230324 2.03199 0
M  V30 19540 H 1843.38 -2.55116 2.91539 0
M  V30 19541 H 1843.8 -1.70391 4.96052 0
M  V30 19542 H 1845.27 -3.32244 4.40815 0
M  V30 19543 H 1845.75 -3.4509 2.71679 0
M  V30 19544 H 1846.35 -2.09796 3.69954 0
M  V30 19545 N 1844.67 -1.5 -0.48349 0
M  V30 19546 C 1845.6 -1.62581 -1.60133 0
M  V30 19547 C 1846.58 -0.474276 -1.55529 0
M  V30 19548 O 1847.76 -0.692152 -1.75333 0
M  V30 19549 C 1844.89 -1.59695 -2.98689 0
M  V30 19550 C 1843.94 -2.8026 -3.21492 0
M  V30 19551 S 1844.77 -4.41722 -3.02724 0
M  V30 19552 C 1845.93 -4.41509 -4.43645 0
M  V30 19553 H 1846.16 -2.5714 -1.49219 0
M  V30 19554 H 1843.69 -1.39109 -0.669933 0
M  V30 19555 H 1845.65 -1.58716 -3.78576 0
M  V30 19556 H 1844.31 -0.66394 -3.07003 0
M  V30 19557 H 1843.5 -2.74509 -4.22683 0
M  V30 19558 H 1843.11 -2.78742 -2.49357 0
M  V30 19559 H 1845.4 -4.14307 -5.36056 0
M  V30 19560 H 1846.34 -5.43037 -4.54441 0
M  V30 19561 H 1846.75 -3.71367 -4.25143 0
M  V30 19562 N 1846.15 0.735796 -1.39369 0
M  V30 19563 C 1847.39 1.49649 -1.37756 0
M  V30 19564 C 1847.75 1.92381 0.0268551 0
M  V30 19565 O 1847.04 1.63847 0.993221 0
M  V30 19566 C 1847.23 2.7495 -2.28336 0
M  V30 19567 C 1847.06 2.4447 -3.77445 0
M  V30 19568 C 1845.83 2.36806 -4.46376 0
M  V30 19569 C 1848.03 2.10066 -4.69443 0
M  V30 19570 N 1846.01 1.98788 -5.80824 0
M  V30 19571 C 1847.38 1.82485 -5.92536 0
M  V30 19572 C 1849.44 1.96527 -4.57473 0
M  V30 19573 C 1848.14 1.4273 -7.04997 0
M  V30 19574 C 1850.17 1.58175 -5.69855 0
M  V30 19575 C 1849.53 1.31479 -6.92021 0
M  V30 19576 H 1845.63 0.546482 -0.559358 0
M  V30 19577 H 1848.21 0.855204 -1.74912 0
M  V30 19578 H 1846.38 3.3686 -1.93339 0
M  V30 19579 H 1848.12 3.41144 -2.17721 0
M  V30 19580 H 1844.87 2.53875 -3.99806 0
M  V30 19581 H 1845.3 1.82374 -6.51973 0
M  V30 19582 H 1849.94 2.15835 -3.63559 0
M  V30 19583 H 1847.66 1.22163 -7.98813 0
M  V30 19584 H 1851.24 1.48307 -5.6258 0
M  V30 19585 H 1850.12 1.02246 -7.77506 0
M  V30 19586 N 1847.63 1.24532 0.965897 0
M  V30 19587 C 1848.56 1.06393 2.07853 0
M  V30 19588 C 1849.54 -0.0236467 1.70084 0
M  V30 19589 O 1850.72 0.143767 1.93667 0
M  V30 19590 C 1847.85 0.669877 3.40778 0
M  V30 19591 C 1846.81 1.70643 3.92511 0
M  V30 19592 C 1846.13 1.16738 5.21801 0
M  V30 19593 C 1847.43 3.10278 4.20149 0
M  V30 19594 H 1849.13 1.99459 2.23285 0
M  V30 19595 H 1846.67 0.960397 1.07296 0
M  V30 19596 H 1848.62 0.52997 4.18054 0
M  V30 19597 H 1847.35 -0.296477 3.25252 0
M  V30 19598 H 1846.01 1.83458 3.17393 0
M  V30 19599 H 1845.66 0.191586 5.02635 0
M  V30 19600 H 1845.36 1.86009 5.57382 0
M  V30 19601 H 1846.88 1.03963 6.01684 0
M  V30 19602 H 1848.29 3.00681 4.88123 0
M  V30 19603 H 1846.69 3.76918 4.66962 0
M  V30 19604 H 1847.76 3.58182 3.26854 0
M  V30 19605 N 1849.1 -1.16685 1.05936 0
M  V30 19606 C 1850.33 -1.91576 0.794558 0
M  V30 19607 C 1850.75 -1.76706 -0.644718 0
M  V30 19608 O 1850.11 -1.0899 -1.44882 0
M  V30 19609 C 1850.16 -3.40417 1.18947 0
M  V30 19610 O 1849.26 -4.11109 0.326091 0
M  V30 19611 H 1848.6 -0.596983 0.290702 0
M  V30 19612 H 1851.13 -1.47856 1.4142 0
M  V30 19613 H 1851.14 -3.91178 1.15947 0
M  V30 19614 H 1849.82 -3.5056 2.23786 0
M  V30 19615 H 1848.4 -3.70557 0.417347 0
M  V30 19616 N 1850.58 -0.841432 -1.33258 0
M  V30 19617 C 1851.53 -0.274487 -2.29162 0
M  V30 19618 C 1852.5 0.611143 -1.54448 0
M  V30 19619 O 1853.68 0.548868 -1.82735 0
M  V30 19620 C 1850.82 0.542275 -3.40813 0
M  V30 19621 C 1849.94 -0.367664 -4.30433 0
M  V30 19622 C 1849.07 0.460447 -5.29201 0
M  V30 19623 C 1848.11 -0.447722 -6.1046 0
M  V30 19624 N 1847.25 0.342415 -7.01265 0
M  V30 19625 H 1852.09 -1.09762 -2.77049 0
M  V30 19626 H 1849.62 -0.552735 -1.3632 0
M  V30 19627 H 1851.58 1.03132 -4.04252 0
M  V30 19628 H 1850.21 1.33035 -2.94111 0
M  V30 19629 H 1849.26 -0.975032 -3.67692 0
M  V30 19630 H 1850.58 -1.0652 -4.87293 0
M  V30 19631 H 1849.73 1.01321 -5.9818 0
M  V30 19632 H 1848.47 1.19141 -4.72924 0
M  V30 19633 H 1847.47 -1.01248 -5.40397 0
M  V30 19634 H 1848.7 -1.17709 -6.68821 0
M  V30 19635 H 1846.65 1.05671 -6.47433 0
M  V30 19636 H 1846.56 -0.296356 -7.55419 0
M  V30 19637 H 1847.83 0.877331 -7.74547 0
M  V30 19638 N 1852.06 1.4581 -0.598108 0
M  V30 19639 C 1853.48 1.57452 -0.260993 0
M  V30 19640 C 1853.68 1.59093 1.2366 0
M  V30 19641 O 1852.73 1.51614 2.01915 0
M  V30 19642 C 1854.04 2.86158 -0.923801 0
M  V30 19643 C 1855.59 2.99817 -0.89883 0
M  V30 19644 C 1856.07 4.3128 -1.54147 0
M  V30 19645 N 1857.56 4.38016 -1.50652 0
M  V30 19646 C 1858.29 5.38387 -1.973 0
M  V30 19647 N 1857.79 6.45347 -2.51991 0
M  V30 19648 N 1859.58 5.29684 -1.88124 0
M  V30 19649 H 1851.73 1.42988 -1.57061 0
M  V30 19650 H 1854 0.683038 -0.657391 0
M  V30 19651 H 1853.7 2.90812 -1.97791 0
M  V30 19652 H 1853.58 3.74609 -0.441318 0
M  V30 19653 H 1855.96 2.94735 0.146702 0
M  V30 19654 H 1856.04 2.12801 -1.41949 0
M  V30 19655 H 1855.69 4.3712 -2.58628 0
M  V30 19656 H 1855.62 5.17097 -0.995911 0
M  V30 19657 H 1858.11 3.61326 -1.1069 0
M  V30 19658 H 1858.42 7.18168 -2.85403 0
M  V30 19659 H 1856.77 6.46124 -2.56025 0
M  V30 19660 H 1859.96 4.45029 -1.45144 0
M  V30 19661 H 1860.13 6.0776 -2.24793 0
M  V30 19662 N 1853.54 0.336733 1.53961 0
M  V30 19663 C 1854.47 -0.515664 2.27735 0
M  V30 19664 C 1855.45 -1.10835 1.29033 0
M  V30 19665 O 1856.63 -1.13102 1.57866 0
M  V30 19666 C 1853.76 -1.67015 3.04505 0
M  V30 19667 C 1852.72 -1.20613 4.10654 0
M  V30 19668 C 1852.04 -2.44861 4.75339 0
M  V30 19669 C 1853.34 -0.311507 5.2137 0
M  V30 19670 H 1855.04 0.0997513 2.99234 0
M  V30 19671 H 1852.58 0.0494157 1.43915 0
M  V30 19672 H 1854.54 -2.27286 3.54851 0
M  V30 19673 H 1853.26 -2.31236 2.30646 0
M  V30 19674 H 1851.92 -0.62628 3.61211 0
M  V30 19675 H 1851.57 -3.07474 3.98081 0
M  V30 19676 H 1851.27 -2.14498 5.47051 0
M  V30 19677 H 1852.79 -3.0587 5.28466 0
M  V30 19678 H 1854.21 -0.820868 5.67393 0
M  V30 19679 H 1852.6 -0.100073 6.00017 0
M  V30 19680 H 1853.67 0.654181 4.80467 0
M  V30 19681 N 1855.02 -1.57465 0.0651956 0
M  V30 19682 C 1856.43 -1.80728 -0.468449 0
M  V30 19683 C 1856.78 -0.978581 -1.70054 0
M  V30 19684 O 1855.9 -0.199186 -2.15481 0
M  V30 19685 C 1856.5 -3.27791 -0.856641 0
M  V30 19686 C 1855.06 -3.51923 -1.33519 0
M  V30 19687 C 1854.2 -2.7548 -0.317147 0
M  V30 19688 H 1857.15 -1.5601 0.290955 0
M  V30 19689 H 1857.18 -3.39479 -1.71855 0
M  V30 19690 H 1856.69 -3.88079 0.0402823 0
M  V30 19691 H 1854.79 -2.96932 -2.25083 0
M  V30 19692 H 1854.9 -4.60624 -1.31767 0
M  V30 19693 H 1853.27 -2.4204 -0.793026 0
M  V30 19694 H 1854.05 -3.38502 0.571935 0
M  V30 19695 N 1856.49 0.20831 -1.56217 0
M  V30 19696 C 1857.43 1.28196 -1.89996 0
M  V30 19697 C 1858.44 1.42381 -0.789394 0
M  V30 19698 O 1859.63 1.43043 -1.06776 0
M  V30 19699 C 1856.73 2.65588 -2.10514 0
M  V30 19700 C 1855.9 2.73181 -3.416 0
M  V30 19701 C 1854.96 3.91678 -3.5139 0
M  V30 19702 O 1853.99 3.79397 -4.24319 0
M  V30 19703 N 1855.19 5.06562 -2.83505 0
M  V30 19704 H 1857.95 0.995403 -2.82687 0
M  V30 19705 H 1855.51 0.398294 -1.56924 0
M  V30 19706 H 1857.51 3.43264 -2.14365 0
M  V30 19707 H 1856.08 2.86788 -1.24385 0
M  V30 19708 H 1855.3 1.81881 -3.49733 0
M  V30 19709 H 1856.58 2.75234 -4.27929 0
M  V30 19710 H 1855.98 5.19437 -2.24056 0
M  V30 19711 H 1854.54 5.82232 -2.93 0
M  V30 19712 N 1857.97 1.50255 0.475528 0
M  V30 19713 C 1859.22 1.61022 1.22793 0
M  V30 19714 C 1859.55 0.308508 1.92038 0
M  V30 19715 O 1858.8 -0.70533 1.82547 0
M  V30 19716 C 1859.1 2.73698 2.29835 0
M  V30 19717 C 1858.77 4.14333 1.77873 0
M  V30 19718 C 1857.43 4.526 1.63423 0
M  V30 19719 C 1859.78 5.02247 1.39275 0
M  V30 19720 C 1857.11 5.76525 1.08791 0
M  V30 19721 C 1859.46 6.26715 0.860869 0
M  V30 19722 C 1858.12 6.63788 0.702959 0
M  V30 19723 H 1857.39 0.589221 0.449332 0
M  V30 19724 H 1860.04 1.84173 0.524633 0
M  V30 19725 H 1858.35 2.44617 3.06055 0
M  V30 19726 H 1860.04 2.79233 2.87802 0
M  V30 19727 H 1856.63 3.84142 1.90087 0
M  V30 19728 H 1860.82 4.73319 1.49276 0
M  V30 19729 H 1856.07 6.03927 0.952987 0
M  V30 19730 H 1860.25 6.942 0.553109 0
M  V30 19731 H 1857.87 7.59693 0.277471 0
M  V30 19732 N 1859.45 -0.728395 1.39758 0
M  V30 19733 C 1860.38 -1.85554 1.41747 0
M  V30 19734 C 1861.36 -1.6778 0.279972 0
M  V30 19735 O 1862.55 -1.88001 0.48675 0
M  V30 19736 C 1859.68 -3.23375 1.26671 0
M  V30 19737 C 1858.63 -3.55799 2.37889 0
M  V30 19738 C 1857.96 -4.92628 2.07899 0
M  V30 19739 C 1859.26 -3.58098 3.80215 0
M  V30 19740 H 1860.95 -1.84146 2.36073 0
M  V30 19741 H 1858.5 -0.884539 1.13631 0
M  V30 19742 H 1860.45 -4.01907 1.26682 0
M  V30 19743 H 1859.17 -3.25326 0.288159 0
M  V30 19744 H 1857.83 -2.796 2.37107 0
M  V30 19745 H 1857.48 -4.91166 1.08466 0
M  V30 19746 H 1857.18 -5.15288 2.82404 0
M  V30 19747 H 1858.7 -5.73509 2.09571 0
M  V30 19748 H 1860.12 -4.26694 3.82891 0
M  V30 19749 H 1858.51 -3.9228 4.54133 0
M  V30 19750 H 1859.58 -2.57758 4.10718 0
M  V30 19751 N 1860.93 -1.25042 -0.959279 0
M  V30 19752 C 1861.86 -1.00807 -2.05841 0
M  V30 19753 C 1862.87 0.0253938 -1.6278 0
M  V30 19754 O 1864.06 -0.212625 -1.77229 0
M  V30 19755 C 1861.16 -0.501088 -3.35175 0
M  V30 19756 C 1860.33 -1.59964 -4.071 0
M  V30 19757 C 1859.39 -1.09383 -5.14705 0
M  V30 19758 O 1858.42 -1.78728 -5.40412 0
M  V30 19759 N 1859.62 0.0673296 -5.80461 0
M  V30 19760 H 1862.39 -1.95446 -2.27203 0
M  V30 19761 H 1859.95 -1.16185 -1.1275 0
M  V30 19762 H 1861.94 -0.147283 -4.04432 0
M  V30 19763 H 1860.51 0.351241 -3.1062 0
M  V30 19764 H 1859.73 -2.12524 -3.32005 0
M  V30 19765 H 1861.02 -2.3378 -4.51912 0
M  V30 19766 H 1860.42 0.646867 -5.61989 0
M  V30 19767 H 1858.97 0.362206 -6.50793 0
M  V30 19768 N 1862.41 1.16121 -1.06553 0
M  V30 19769 C 1863.65 1.86991 -0.784989 0
M  V30 19770 C 1863.99 1.81645 0.686919 0
M  V30 19771 O 1863.26 1.23394 1.50347 0
M  V30 19772 C 1863.54 3.36448 -1.28355 0
M  V30 19773 C 1863.4 3.5047 -2.81941 0
M  V30 19774 C 1864.72 4.30933 -0.893561 0
M  V30 19775 H 1861.83 0.678978 -0.286633 0
M  V30 19776 H 1864.48 1.36475 -1.32192 0
M  V30 19777 H 1862.63 3.796 -0.826796 0
M  V30 19778 H 1864.3 3.16237 -3.35845 0
M  V30 19779 H 1862.54 2.92294 -3.20541 0
M  V30 19780 H 1863.21 4.55443 -3.11891 0
M  V30 19781 H 1865.69 3.95696 -1.287 0
M  V30 19782 H 1864.56 5.3401 -1.26984 0
M  V30 19783 H 1864.83 4.41642 0.201274 0
M  V30 19784 N 1863.88 0.848487 1.3281 0
M  V30 19785 C 1865.3 0.504307 1.7976 0
M  V30 19786 C 1865.65 -0.977408 1.70121 0
M  V30 19787 O 1864.77 -1.7621 1.25614 0
M  V30 19788 C 1865.37 0.908628 3.26388 0
M  V30 19789 C 1863.93 0.616441 3.71318 0
M  V30 19790 C 1863.07 1.11173 2.54039 0
M  V30 19791 H 1866.02 1.03628 1.20195 0
M  V30 19792 H 1866.04 0.222518 3.79849 0
M  V30 19793 H 1865.56 1.98708 3.33372 0
M  V30 19794 H 1863.66 -0.451545 3.69854 0
M  V30 19795 H 1863.77 1.17841 4.64382 0
M  V30 19796 H 1862.13 0.532227 2.49077 0
M  V30 19797 H 1862.92 2.19716 2.6378 0
M  V30 19798 N 1865.36 -1.4549 0.605832 0
M  V30 19799 C 1866.59 -2.07135 0.104838 0
M  V30 19800 C 1867.01 -1.4478 -1.20085 0
M  V30 19801 O 1866.37 -0.539875 -1.73075 0
M  V30 19802 C 1866.42 -3.60593 -0.0231858 0
M  V30 19803 O 1865.52 -3.98173 -1.07386 0
M  V30 19804 H 1864.86 -0.659945 0.0732691 0
M  V30 19805 H 1867.39 -1.8677 0.835343 0
M  V30 19806 H 1867.4 -4.07396 -0.221964 0
M  V30 19807 H 1866.08 -4.05364 0.930211 0
M  V30 19808 H 1864.66 -3.63044 -0.851689 0
M  V30 19809 N 1866.84 -0.344893 -1.5378 0
M  V30 19810 C 1867.79 0.526591 -2.26561 0
M  V30 19811 C 1868.78 1.10083 -1.28756 0
M  V30 19812 O 1869.99 1.04641 -1.46459 0
M  V30 19813 H 1866.36 0.188505 -0.72799 0
M  V30 19814 H 1868.33 -0.109269 -2.982 0
M  V30 19815 C 1867.08 1.66505 -3.0524 0
M  V30 19816 H 1866.41 1.23246 -3.80329 0
M  V30 19817 H 1867.85 2.24998 -3.59377 0
M  V30 19818 C 1866.31 2.59527 -2.14819 0
M  V30 19819 O 1866.84 3.6181 -1.74517 0
M  V30 19820 N 1865.04 2.28243 -1.79871 0
M  V30 19821 H 1864.59 1.45106 -2.12843 0
M  V30 19822 H 1864.55 2.90741 -1.19654 0
M  V30 19823 N 1868.32 1.57428 -0.0735454 0
M  V30 19824 C 1869.27 2.09347 0.903216 0
M  V30 19825 C 1870.25 1.00355 1.25769 0
M  V30 19826 O 1871.44 1.26661 1.23637 0
M  V30 19827 C 1868.57 2.66006 2.17015 0
M  V30 19828 C 1867.66 3.82005 1.84208 0
M  V30 19829 N 1868.05 4.90901 1.21859 0
M  V30 19830 C 1866.35 3.91334 2.13948 0
M  V30 19831 C 1867.05 5.7174 1.07183 0
M  V30 19832 N 1866.03 5.20067 1.58211 0
M  V30 19833 H 1869.83 2.90929 0.41686 0
M  V30 19834 H 1867.34 1.61876 0.130295 0
M  V30 19835 H 1869.34 3.01518 2.87911 0
M  V30 19836 H 1868 1.85871 2.66237 0
M  V30 19837 H 1869.01 5.1023 0.888021 0
M  V30 19838 H 1865.69 3.22177 2.65534 0
M  V30 19839 H 1867.08 6.6934 0.585939 0
M  V30 19840 N 1869.8 -0.200022 1.56326 0
M  V30 19841 C 1870.71 -1.26847 1.9735 0
M  V30 19842 C 1871.72 -1.50081 0.880432 0
M  V30 19843 O 1872.9 -1.62792 1.18578 0
M  V30 19844 C 1869.96 -2.59382 2.30048 0
M  V30 19845 C 1869.02 -2.44262 3.53036 0
M  V30 19846 C 1868.26 -3.70476 3.84165 0
M  V30 19847 O 1868.48 -4.74433 3.16654 0
M  V30 19848 O 1867.41 -3.663 4.77606 0
M  V30 19849 H 1871.24 -0.950324 2.88449 0
M  V30 19850 H 1868.83 -0.404628 1.43816 0
M  V30 19851 H 1870.71 -3.37616 2.52177 0
M  V30 19852 H 1869.38 -2.90833 1.42119 0
M  V30 19853 H 1868.29 -1.64154 3.36161 0
M  V30 19854 H 1869.62 -2.17744 4.41416 0
M  V30 19855 N 1871.27 -1.50505 -0.467553 0
M  V30 19856 C 1872.22 -1.66014 -1.5628 0
M  V30 19857 C 1873.21 -0.51467 -1.52447 0
M  V30 19858 O 1874.4 -0.769238 -1.59411 0
M  V30 19859 C 1871.53 -1.76088 -2.947 0
M  V30 19860 C 1870.62 -2.96323 -3.03404 0
M  V30 19861 N 1871.01 -4.19951 -2.81913 0
M  V30 19862 C 1869.3 -2.94954 -3.34542 0
M  V30 19863 C 1870.01 -5.0095 -2.95676 0
M  V30 19864 N 1868.98 -4.34977 -3.26031 0
M  V30 19865 H 1872.78 -2.59289 -1.3837 0
M  V30 19866 H 1870.3 -1.47737 -0.674347 0
M  V30 19867 H 1872.29 -1.85303 -3.73455 0
M  V30 19868 H 1870.95 -0.839734 -3.13654 0
M  V30 19869 H 1871.97 -4.49391 -2.57426 0
M  V30 19870 H 1868.64 -2.12353 -3.59462 0
M  V30 19871 H 1870.03 -6.09268 -2.8327 0
M  V30 19872 N 1872.75 0.720973 -1.40142 0
M  V30 19873 C 1874 1.4763 -1.37435 0
M  V30 19874 C 1874.31 1.95587 0.0222038 0
M  V30 19875 O 1875.52 2.70955 0.171885 0
M  V30 19876 C 1873.98 2.66828 -2.41517 0
M  V30 19877 C 1873.58 2.25763 -3.86956 0
M  V30 19878 C 1875.33 3.44589 -2.47908 0
M  V30 19879 C 1873.24 3.41768 -4.82648 0
M  V30 19880 H 1872.17 0.554436 -0.510996 0
M  V30 19881 H 1874.82 0.785164 -1.65854 0
M  V30 19882 H 1873.2 3.38086 -2.0619 0
M  V30 19883 H 1874.37 1.61961 -4.31399 0
M  V30 19884 H 1872.69 1.61059 -3.83991 0
M  V30 19885 H 1875.28 4.309 -3.1659 0
M  V30 19886 H 1875.63 3.8803 -1.50792 0
M  V30 19887 H 1876.16 2.80371 -2.822 0
M  V30 19888 H 1872.9 3.03364 -5.81077 0
M  V30 19889 H 1872.42 4.04504 -4.42873 0
M  V30 19890 H 1874.1 4.07909 -5.02214 0
M  V30 19891 N 1874.23 1.25549 0.952634 0
M  V30 19892 C 1875.14 1.07855 2.08337 0
M  V30 19893 C 1876.16 0.0151456 1.73993 0
M  V30 19894 O 1877.33 0.216498 2.00233 0
M  V30 19895 C 1874.4 0.701369 3.39532 0
M  V30 19896 C 1873.46 1.84293 3.8773 0
M  V30 19897 C 1872.69 1.48365 5.12663 0
M  V30 19898 O 1872.91 0.3802 5.69131 0
M  V30 19899 O 1871.85 2.31452 5.5562 0
M  V30 19900 H 1875.67 2.02688 2.26167 0
M  V30 19901 H 1873.26 1.04506 1.06765 0
M  V30 19902 H 1875.14 0.503231 4.18384 0
M  V30 19903 H 1873.82 -0.217671 3.22967 0
M  V30 19904 H 1872.72 2.09595 3.09872 0
M  V30 19905 H 1874.06 2.74129 4.08796 0
M  V30 19906 N 1875.71 -1.15554 1.07168 0
M  V30 19907 C 1876.95 -1.86572 0.794894 0
M  V30 19908 C 1877.29 -1.82007 -0.677276 0
M  V30 19909 O 1876.56 -1.2419 -1.4969 0
M  V30 19910 C 1876.85 -3.35762 1.30137 0
M  V30 19911 C 1876.7 -3.4897 2.83796 0
M  V30 19912 C 1878.02 -4.30453 0.916402 0
M  V30 19913 H 1875.14 -0.677448 0.29023 0
M  V30 19914 H 1877.78 -1.35772 1.32914 0
M  V30 19915 H 1875.93 -3.79156 0.846915 0
M  V30 19916 H 1877.6 -3.14452 3.37517 0
M  V30 19917 H 1875.84 -2.9059 3.22087 0
M  V30 19918 H 1876.51 -4.53782 3.14302 0
M  V30 19919 H 1878.99 -3.95008 1.30797 0
M  V30 19920 H 1877.87 -5.33329 1.29814 0
M  V30 19921 H 1878.13 -4.41742 -0.17785 0
M  V30 19922 N 1877.19 -0.855519 -1.32358 0
M  V30 19923 C 1878.42 -0.473331 -2.01413 0
M  V30 19924 C 1878.83 0.930206 -1.64294 0
M  V30 19925 O 1878.19 1.60714 -0.864705 0
M  V30 19926 C 1878.24 -0.603815 -3.56422 0
M  V30 19927 O 1877.96 -1.95207 -3.92207 0
M  V30 19928 C 1879.46 -0.220748 -4.4275 0
M  V30 19929 H 1876.68 -0.185962 -0.644716 0
M  V30 19930 H 1879.22 -1.1527 -1.68918 0
M  V30 19931 H 1877.38 0.0278263 -3.8739 0
M  V30 19932 H 1877.79 -1.94946 -4.86925 0
M  V30 19933 H 1879.27 -0.363048 -5.50805 0
M  V30 19934 H 1879.74 0.838881 -4.31114 0
M  V30 19935 H 1880.35 -0.827498 -4.17172 0
M  V30 19936 N 1878.67 1.45167 -0.61354 0
M  V30 19937 C 1880.08 1.57166 -0.277678 0
M  V30 19938 C 1880.28 1.60395 1.21965 0
M  V30 19939 O 1879.34 1.53747 2.00295 0
M  V30 19940 C 1880.65 2.85162 -0.9541 0
M  V30 19941 C 1882.2 2.98847 -0.930579 0
M  V30 19942 C 1882.67 4.29621 -1.58712 0
M  V30 19943 N 1884.16 4.36394 -1.55289 0
M  V30 19944 C 1884.9 5.36264 -2.02999 0
M  V30 19945 N 1884.4 6.42638 -2.58821 0
M  V30 19946 N 1886.19 5.27659 -1.93732 0
M  V30 19947 H 1878.34 1.41314 -1.58569 0
M  V30 19948 H 1880.6 0.676027 -0.664598 0
M  V30 19949 H 1880.31 2.88698 -2.00864 0
M  V30 19950 H 1880.18 3.7412 -0.481025 0
M  V30 19951 H 1882.57 2.94874 0.115433 0
M  V30 19952 H 1882.65 2.11283 -1.44198 0
M  V30 19953 H 1882.29 4.34352 -2.6325 0
M  V30 19954 H 1882.22 5.16011 -1.0507 0
M  V30 19955 H 1884.72 3.60131 -1.14516 0
M  V30 19956 H 1885.03 7.151 -2.93004 0
M  V30 19957 H 1883.37 6.43372 -2.62863 0
M  V30 19958 H 1886.56 4.43465 -1.49856 0
M  V30 19959 H 1886.74 6.05341 -2.31227 0
M  V30 19960 N 1880.14 0.353044 1.53595 0
M  V30 19961 C 1881.39 -0.2416 2.00248 0
M  V30 19962 C 1881.71 -1.5089 1.24465 0
M  V30 19963 O 1882.91 -2.18137 1.61643 0
M  V30 19964 C 1881.37 -0.481075 3.5667 0
M  V30 19965 C 1880.98 0.77087 4.41318 0
M  V30 19966 C 1882.72 -1.03406 4.11713 0
M  V30 19967 C 1880.63 0.501671 5.89268 0
M  V30 19968 H 1879.56 -0.0940573 0.74811 0
M  V30 19969 H 1882.21 0.469845 1.77383 0
M  V30 19970 H 1880.59 -1.25346 3.75639 0
M  V30 19971 H 1881.76 1.54509 4.34124 0
M  V30 19972 H 1880.08 1.24617 3.97315 0
M  V30 19973 H 1882.68 -1.25058 5.1987 0
M  V30 19974 H 1883.02 -1.99245 3.65523 0
M  V30 19975 H 1883.55 -0.322144 3.96493 0
M  V30 19976 H 1880.29 1.43005 6.39711 0
M  V30 19977 H 1879.81 -0.234284 5.99342 0
M  V30 19978 H 1881.49 0.122468 6.46884 0
M  V30 19979 N 1881.62 -1.57387 0.0818932 0
M  V30 19980 C 1882.9 -1.85297 -0.626447 0
M  V30 19981 C 1883.28 -0.976281 -1.87168 0
M  V30 19982 O 1882.63 -0.0451999 -2.28455 0
M  V30 19983 C 1882.84 -3.35695 -0.954461 0
M  V30 19984 C 1884.18 -4.03442 -1.32361 0
M  V30 19985 O 1885.21 -3.40499 -1.04588 0
M  V30 19986 O 1884.07 -5.1448 -1.84317 0
M  V30 19987 H 1881.16 -0.765835 -0.31213 0
M  V30 19988 H 1883.71 -1.69319 0.11359 0
M  V30 19989 H 1882.48 -3.91237 -0.0704846 0
M  V30 19990 H 1882.1 -3.56971 -1.75092 0
M  V30 19991 N 1883.1 0.191729 -1.56429 0
M  V30 19992 C 1884.35 0.909797 -1.80464 0
M  V30 19993 C 1884.67 1.83652 -0.655516 0
M  V30 19994 O 1883.94 1.93169 0.325946 0
M  V30 19995 H 1882.52 0.338944 -0.665677 0
M  V30 19996 H 1885.18 0.196432 -1.93908 0
M  V30 19997 H 1884.28 1.49891 -2.7375 0
M  V30 19998 N 1884.58 1.50751 0.459565 0
M  V30 19999 C 1885.81 1.66089 1.23377 0
M  V30 20000 C 1886.22 0.348952 1.85547 0
M  V30 20001 O 1885.58 -0.670323 1.69744 0
M  V30 20002 C 1885.63 2.76047 2.3341 0
M  V30 20003 O 1885.35 4.02156 1.73787 0
M  V30 20004 C 1886.85 3.02461 3.24087 0
M  V30 20005 H 1884.07 0.557971 0.372705 0
M  V30 20006 H 1886.61 1.97042 0.547242 0
M  V30 20007 H 1884.77 2.47756 2.97818 0
M  V30 20008 H 1885.18 4.63055 2.46335 0
M  V30 20009 H 1886.66 3.83034 3.97478 0
M  V30 20010 H 1887.13 2.13984 3.83546 0
M  V30 20011 H 1887.74 3.32326 2.65404 0
M  V30 20012 N 1886.06 -0.713531 1.40522 0
M  V30 20013 C 1887.3 -1.46899 1.38216 0
M  V30 20014 C 1887.62 -1.95596 -0.011831 0
M  V30 20015 O 1888.82 -2.71043 -0.157513 0
M  V30 20016 C 1887.28 -2.65544 2.42929 0
M  V30 20017 C 1886.89 -2.23707 3.88148 0
M  V30 20018 C 1888.63 -3.4327 2.49732 0
M  V30 20019 C 1886.54 -3.39203 4.84453 0
M  V30 20020 H 1885.47 -0.551718 0.513929 0
M  V30 20021 H 1888.12 -0.776357 1.66268 0
M  V30 20022 H 1886.5 -3.36987 2.0798 0
M  V30 20023 H 1887.68 -1.5967 4.32252 0
M  V30 20024 H 1885.99 -1.59021 3.84839 0
M  V30 20025 H 1888.59 -4.29215 3.18871 0
M  V30 20026 H 1888.93 -3.87225 1.52848 0
M  V30 20027 H 1889.46 -2.78871 2.83683 0
M  V30 20028 H 1886.2 -3.00278 5.82678 0
M  V30 20029 H 1885.72 -4.02149 4.45012 0
M  V30 20030 H 1887.4 -4.0524 5.04371 0
M  V30 20031 N 1887.53 -1.26053 -0.945962 0
M  V30 20032 C 1888.81 -1.02072 -1.66855 0
M  V30 20033 C 1889.19 0.45036 -2.0624 0
M  V30 20034 O 1888.54 1.42966 -1.7825 0
M  V30 20035 C 1888.75 -1.96486 -2.88434 0
M  V30 20036 C 1890.1 -2.24825 -3.60193 0
M  V30 20037 O 1891.12 -1.94314 -2.98531 0
M  V30 20038 O 1889.98 -2.76749 -4.71245 0
M  V30 20039 H 1887.07 -0.387753 -0.730463 0
M  V30 20040 H 1889.62 -1.37243 -0.998117 0
M  V30 20041 H 1888.39 -2.95779 -2.56185 0
M  V30 20042 H 1888.01 -1.61765 -3.63205 0
M  V30 20043 N 1889.01 1.14984 -1.07779 0
M  V30 20044 C 1890.24 1.90288 -0.824935 0
M  V30 20045 C 1890.66 1.77709 0.616524 0
M  V30 20046 O 1890.02 1.11281 1.4313 0
M  V30 20047 C 1890.07 3.38482 -1.24348 0
M  V30 20048 O 1889.17 4.10538 -0.391454 0
M  V30 20049 H 1888.51 0.592283 -0.300162 0
M  V30 20050 H 1891.04 1.45588 -1.43755 0
M  V30 20051 H 1891.05 3.89284 -1.22155 0
M  V30 20052 H 1889.73 3.46956 -2.29335 0
M  V30 20053 H 1888.3 3.69846 -0.476247 0
M  V30 20054 N 1890.49 0.862526 1.31902 0
M  V30 20055 C 1891.71 0.483159 2.01694 0
M  V30 20056 C 1892.14 -0.914778 1.64358 0
M  V30 20057 O 1891.5 -1.60229 0.848308 0
M  V30 20058 C 1891.55 0.638911 3.54895 0
M  V30 20059 O 1890.65 -0.324962 4.11118 0
M  V30 20060 H 1889.99 0.193128 0.635293 0
M  V30 20061 H 1892.52 1.16389 1.6827 0
M  V30 20062 H 1892.53 0.529394 4.04551 0
M  V30 20063 H 1891.21 1.65828 3.81411 0
M  V30 20064 H 1889.78 -0.171025 3.72508 0
M  V30 20065 N 1891.97 -1.4484 0.62123 0
M  V30 20066 C 1893.38 -1.85568 0.205284 0
M  V30 20067 C 1893.73 -1.51963 -1.24104 0
M  V30 20068 O 1892.86 -0.952887 -1.94291 0
M  V30 20069 C 1893.45 -3.3682 0.365788 0
M  V30 20070 C 1892.01 -3.764 0.00442911 0
M  V30 20071 C 1891.16 -2.68736 0.683839 0
M  V30 20072 H 1894.11 -1.35447 0.827036 0
M  V30 20073 H 1894.13 -3.78411 -0.398123 0
M  V30 20074 H 1893.64 -3.61247 1.41853 0
M  V30 20075 H 1891.74 -3.57588 -1.04696 0
M  V30 20076 H 1891.85 -4.77363 0.407588 0
M  V30 20077 H 1890.22 -2.54417 0.120114 0
M  V30 20078 H 1891 -2.95997 1.73898 0
M  V30 20079 N 1893.45 -0.361184 -1.53405 0
M  V30 20080 C 1894.69 0.230007 -2.03102 0
M  V30 20081 C 1895.05 1.4635 -1.2428 0
M  V30 20082 O 1896.25 2.13003 -1.63961 0
M  V30 20083 C 1894.52 0.519128 -3.5361 0
M  V30 20084 S 1896.08 1.08462 -4.25184 0
M  V30 20085 H 1892.9 0.0672785 -0.70781 0
M  V30 20086 H 1895.5 -0.503033 -1.88918 0
M  V30 20087 H 1894.21 -0.38616 -4.08579 0
M  V30 20088 H 1893.74 1.28136 -3.71947 0
M  V30 20089 H 1895.75 2.36918 -4.35987 0
M  V30 20090 N 1894.92 1.57341 -0.0902386 0
M  V30 20091 C 1895.85 2.16782 0.86764 0
M  V30 20092 C 1896.84 1.09982 1.29761 0
M  V30 20093 O 1898.02 1.38099 1.36537 0
M  V30 20094 C 1895.15 2.74426 2.12856 0
M  V30 20095 C 1894.1 3.86555 1.83738 0
M  V30 20096 C 1893.43 4.3088 3.16617 0
M  V30 20097 C 1894.73 5.09971 1.12814 0
M  V30 20098 H 1896.42 2.97075 0.372417 0
M  V30 20099 H 1893.97 1.42899 0.177689 0
M  V30 20100 H 1895.92 3.14659 2.80299 0
M  V30 20101 H 1894.65 1.9138 2.64653 0
M  V30 20102 H 1893.31 3.46853 1.18694 0
M  V30 20103 H 1892.95 3.44732 3.66291 0
M  V30 20104 H 1892.65 5.06477 2.97918 0
M  V30 20105 H 1894.18 4.73743 3.85227 0
M  V30 20106 H 1895.59 5.47404 1.70358 0
M  V30 20107 H 1893.99 5.90965 1.04311 0
M  V30 20108 H 1895.06 4.84775 0.110114 0
M  V30 20109 N 1896.4 -0.183431 1.56529 0
M  V30 20110 C 1897.35 -1.22726 1.95466 0
M  V30 20111 C 1898.32 -1.44626 0.81686 0
M  V30 20112 O 1899.5 -1.57566 1.07599 0
M  V30 20113 C 1896.64 -2.56435 2.30944 0
M  V30 20114 C 1895.76 -2.42016 3.57844 0
M  V30 20115 C 1894.89 -3.68509 3.82589 0
M  V30 20116 C 1893.93 -3.48972 5.02877 0
M  V30 20117 N 1893.07 -4.67505 5.23817 0
M  V30 20118 H 1897.91 -0.888204 2.84456 0
M  V30 20119 H 1895.45 -0.427192 1.4076 0
M  V30 20120 H 1897.4 -3.3435 2.49532 0
M  V30 20121 H 1896.03 -2.8836 1.4508 0
M  V30 20122 H 1895.09 -1.55339 3.47237 0
M  V30 20123 H 1896.4 -2.23519 4.45915 0
M  V30 20124 H 1895.55 -4.54861 4.0148 0
M  V30 20125 H 1894.29 -3.89972 2.9287 0
M  V30 20126 H 1893.3 -2.61005 4.83897 0
M  V30 20127 H 1894.52 -3.28942 5.94116 0
M  V30 20128 H 1892.47 -4.8921 4.37047 0
M  V30 20129 H 1892.38 -4.51876 6.06089 0
M  V30 20130 H 1893.65 -5.55175 5.47176 0
M  V30 20131 N 1897.88 -1.50992 -0.451564 0
M  V30 20132 C 1899.13 -1.63197 -1.20394 0
M  V30 20133 C 1899.46 -0.340409 -1.91193 0
M  V30 20134 O 1898.73 0.65926 -1.82986 0
M  V30 20135 C 1899.02 -2.82567 -2.23221 0
M  V30 20136 C 1898.87 -4.2166 -1.56598 0
M  V30 20137 C 1900.19 -2.97468 -3.24347 0
M  V30 20138 H 1897.31 -0.59395 -0.43634 0
M  V30 20139 H 1899.95 -1.83437 -0.495056 0
M  V30 20140 H 1898.1 -2.65441 -2.83678 0
M  V30 20141 H 1899.77 -4.50422 -0.995877 0
M  V30 20142 H 1898.02 -4.25015 -0.86862 0
M  V30 20143 H 1898.69 -5.0115 -2.31415 0
M  V30 20144 H 1901.16 -3.13211 -2.73931 0
M  V30 20145 H 1900.04 -3.82581 -3.93603 0
M  V30 20146 H 1900.3 -2.08921 -3.89621 0
M  V30 20147 N 1899.36 0.706069 -1.40899 0
M  V30 20148 C 1900.59 1.49504 -1.43025 0
M  V30 20149 C 1901 1.88772 -0.0325752 0
M  V30 20150 O 1900.36 1.56085 0.945716 0
M  V30 20151 C 1900.41 2.76431 -2.32955 0
M  V30 20152 O 1900.13 2.38821 -3.67282 0
M  V30 20153 C 1901.63 3.70255 -2.43774 0
M  V30 20154 H 1898.85 0.461069 -0.4875 0
M  V30 20155 H 1901.4 0.870198 -1.85062 0
M  V30 20156 H 1899.55 3.35177 -1.94255 0
M  V30 20157 H 1899.96 3.2056 -4.1514 0
M  V30 20158 H 1901.44 4.56129 -3.10887 0
M  V30 20159 H 1901.92 4.14021 -1.46573 0
M  V30 20160 H 1902.52 3.17417 -2.83066 0
M  V30 20161 N 1900.84 1.26553 0.939264 0
M  V30 20162 C 1901.77 1.04069 2.04211 0
M  V30 20163 C 1902.78 0.000506291 1.628 0
M  V30 20164 O 1903.97 0.240794 1.76868 0
M  V30 20165 C 1901.07 0.554348 3.34335 0
M  V30 20166 C 1900.24 1.6642 4.04503 0
M  V30 20167 C 1899.3 1.17558 5.129 0
M  V30 20168 O 1898.33 1.87303 5.375 0
M  V30 20169 N 1899.53 0.0250252 5.80495 0
M  V30 20170 H 1902.3 1.99036 2.24065 0
M  V30 20171 H 1899.86 1.17964 1.10888 0
M  V30 20172 H 1901.85 0.211606 4.04146 0
M  V30 20173 H 1900.42 -0.301779 3.1114 0
M  V30 20174 H 1899.64 2.17779 3.28582 0
M  V30 20175 H 1900.93 2.4094 4.48136 0
M  V30 20176 H 1900.32 -0.557378 5.62947 0
M  V30 20177 H 1898.88 -0.258625 6.51287 0
M  V30 20178 N 1902.31 -1.14411 1.08387 0
M  V30 20179 C 1903.26 -2.19489 0.713668 0
M  V30 20180 C 1904.23 -1.63368 -0.300036 0
M  V30 20181 O 1905.42 -1.8991 -0.184088 0
M  V30 20182 C 1902.56 -3.44859 0.128925 0
M  V30 20183 C 1901.67 -4.15132 1.19538 0
M  V30 20184 C 1900.8 -5.28084 0.574521 0
M  V30 20185 C 1899.84 -5.9019 1.62303 0
M  V30 20186 N 1898.98 -6.94593 1.02398 0
M  V30 20187 H 1903.82 -2.50505 1.61404 0
M  V30 20188 H 1901.36 -1.23014 0.806595 0
M  V30 20189 H 1903.32 -4.16578 -0.227814 0
M  V30 20190 H 1901.95 -3.14327 -0.734757 0
M  V30 20191 H 1901 -3.41804 1.66955 0
M  V30 20192 H 1902.31 -4.57387 1.98994 0
M  V30 20193 H 1901.46 -6.06473 0.166017 0
M  V30 20194 H 1900.2 -4.8705 -0.251701 0
M  V30 20195 H 1899.21 -5.10505 2.0412 0
M  V30 20196 H 1900.43 -6.33299 2.45172 0
M  V30 20197 H 1898.38 -6.55635 0.218849 0
M  V30 20198 H 1898.3 -7.35332 1.75564 0
M  V30 20199 H 1899.56 -7.76857 0.641327 0
M  V30 20200 N 1903.79 -0.869509 -1.31443 0
M  V30 20201 C 1905.02 -0.493849 -2.01435 0
M  V30 20202 C 1905.44 0.906049 -1.6484 0
M  V30 20203 O 1904.8 1.59777 -0.856794 0
M  V30 20204 C 1904.85 -0.657723 -3.54551 0
M  V30 20205 O 1903.95 0.303155 -4.11284 0
M  V30 20206 H 1903.29 -0.196494 -0.63426 0
M  V30 20207 H 1905.82 -1.1728 -1.6765 0
M  V30 20208 H 1905.83 -0.550841 -4.04264 0
M  V30 20209 H 1904.51 -1.67848 -3.80526 0
M  V30 20210 H 1903.09 0.151268 -3.72593 0
M  V30 20211 N 1905.27 1.44508 -0.628902 0
M  V30 20212 C 1906.52 2.02066 -0.132502 0
M  V30 20213 C 1906.85 1.49446 1.24483 0
M  V30 20214 O 1906.1 0.667881 1.83951 0
M  V30 20215 C 1906.4 3.57339 -0.0660437 0
M  V30 20216 C 1906.07 4.29203 -1.38186 0
M  V30 20217 C 1904.73 4.48552 -1.74225 0
M  V30 20218 C 1907.08 4.70108 -2.25051 0
M  V30 20219 C 1904.41 5.06066 -2.96839 0
M  V30 20220 C 1906.76 5.2898 -3.46934 0
M  V30 20221 C 1905.42 5.46549 -3.83198 0
M  V30 20222 H 1904.69 0.739412 -0.048486 0
M  V30 20223 H 1907.34 1.73302 -0.814773 0
M  V30 20224 H 1905.65 3.85504 0.699588 0
M  V30 20225 H 1907.34 3.99602 0.334526 0
M  V30 20226 H 1903.93 4.14471 -1.09141 0
M  V30 20227 H 1908.12 4.54874 -1.98503 0
M  V30 20228 H 1903.37 5.17856 -3.25016 0
M  V30 20229 H 1907.55 5.59626 -4.14478 0
M  V30 20230 H 1905.17 5.90881 -4.78292 0
M  V30 20231 N 1906.75 0.369315 1.53212 0
M  V30 20232 C 1908 -0.218776 2.00912 0
M  V30 20233 C 1908.32 -1.48977 1.25821 0
M  V30 20234 O 1907.59 -1.92325 0.372538 0
M  V30 20235 H 1906.17 -0.0838334 0.742281 0
M  V30 20236 H 1908.83 0.496408 1.88472 0
M  V30 20237 H 1907.93 -0.443127 3.08938 0
M  V30 20238 N 1908.23 -1.57291 0.0985816 0
M  V30 20239 C 1909.45 -1.99242 -0.575966 0
M  V30 20240 C 1909.88 -0.977378 -1.60714 0
M  V30 20241 O 1909.24 0.053677 -1.81221 0
M  V30 20242 C 1909.28 -3.40148 -1.19714 0
M  V30 20243 O 1908.39 -3.41434 -2.31293 0
M  V30 20244 H 1907.73 -0.647791 -0.145816 0
M  V30 20245 H 1910.26 -2.03798 0.181023 0
M  V30 20246 H 1910.27 -3.77918 -1.5376 0
M  V30 20247 H 1908.94 -4.13548 -0.441714 0
M  V30 20248 H 1907.52 -3.15464 -1.98839 0
M  V30 20249 N 1909.71 0.175127 -1.56624 0
M  V30 20250 C 1910.64 1.24137 -1.92672 0
M  V30 20251 C 1911.65 1.40675 -0.819417 0
M  V30 20252 O 1912.84 1.40746 -1.09786 0
M  V30 20253 C 1909.94 2.61063 -2.161 0
M  V30 20254 C 1909.11 2.65874 -3.47318 0
M  V30 20255 C 1908.17 3.84136 -3.59619 0
M  V30 20256 O 1907.2 3.70311 -4.32271 0
M  V30 20257 N 1908.4 5.00435 -2.94186 0
M  V30 20258 H 1911.16 0.935217 -2.84735 0
M  V30 20259 H 1908.73 0.364919 -1.57734 0
M  V30 20260 H 1910.72 3.38639 -2.21597 0
M  V30 20261 H 1909.29 2.84085 -1.3044 0
M  V30 20262 H 1908.51 1.74422 -3.53512 0
M  V30 20263 H 1909.8 2.66096 -4.33671 0
M  V30 20264 H 1909.19 5.14568 -2.35024 0
M  V30 20265 H 1907.75 5.75886 -3.05284 0
M  V30 20266 N 1911.18 1.5123 0.44355 0
M  V30 20267 C 1912.13 1.7266 1.55857 0
M  V30 20268 C 1913.13 0.59279 1.5869 0
M  V30 20269 O 1914.33 0.774014 1.62509 0
M  V30 20270 H 1910.71 0.545442 0.517684 0
M  V30 20271 H 1912.68 2.66139 1.34954 0
M  V30 20272 C 1911.43 1.86311 2.9357 0
M  V30 20273 H 1910.75 2.72958 2.9212 0
M  V30 20274 H 1912.19 2.0532 3.70971 0
M  V30 20275 C 1910.65 0.621377 3.3112 0
M  V30 20276 O 1911.18 -0.226833 4.01059 0
M  V30 20277 N 1909.38 0.467286 2.86818 0
M  V30 20278 H 1908.93 1.15859 2.30075 0
M  V30 20279 H 1908.89 -0.36232 3.12305 0
M  V30 20280 N 1912.66 -0.698586 1.41271 0
M  V30 20281 C 1913.89 -1.49247 1.44014 0
M  V30 20282 C 1914.31 -1.88043 0.0461888 0
M  V30 20283 O 1913.67 -1.54426 -0.94986 0
M  V30 20284 C 1913.72 -2.73334 2.35204 0
M  V30 20285 O 1912.82 -3.70704 1.807 0
M  V30 20286 H 1912.16 -0.449313 0.488891 0
M  V30 20287 H 1914.69 -0.858936 1.85697 0
M  V30 20288 H 1914.7 -3.21676 2.50975 0
M  V30 20289 H 1913.38 -2.44433 3.3649 0
M  V30 20290 H 1911.95 -3.29624 1.74363 0
M  V30 20291 N 1914.14 -1.27049 -0.93254 0
M  V30 20292 C 1915.09 -1.09183 -2.05382 0
M  V30 20293 C 1916.08 -0.0162863 -1.69392 0
M  V30 20294 O 1917.29 -0.173635 -1.79161 0
M  V30 20295 H 1913.66 -0.336282 -0.67262 0
M  V30 20296 H 1915.63 -2.04189 -2.17599 0
M  V30 20297 C 1914.38 -0.750687 -3.395 0
M  V30 20298 H 1913.71 -1.57019 -3.67675 0
M  V30 20299 H 1915.15 -0.665521 -4.18744 0
M  V30 20300 C 1913.6 0.544676 -3.32468 0
M  V30 20301 O 1914.13 1.58051 -3.69301 0
M  V30 20302 N 1912.34 0.538506 -2.85567 0
M  V30 20303 H 1911.89 -0.304834 -2.5579 0
M  V30 20304 H 1911.85 1.4053 -2.81245 0
M  V30 20305 N 1915.62 1.13835 -1.08993 0
M  V30 20306 C 1916.85 1.88861 -0.844923 0
M  V30 20307 C 1917.26 1.78897 0.603444 0
M  V30 20308 O 1916.62 1.15246 1.41508 0
M  V30 20309 C 1916.67 3.38622 -1.26559 0
M  V30 20310 O 1916.39 3.48321 -2.65714 0
M  V30 20311 C 1917.89 4.30629 -1.05232 0
M  V30 20312 H 1915.11 0.598038 -0.304288 0
M  V30 20313 H 1917.65 1.44129 -1.45076 0
M  V30 20314 H 1915.81 3.80954 -0.703737 0
M  V30 20315 H 1916.22 4.41387 -2.83333 0
M  V30 20316 H 1917.7 5.34057 -1.39598 0
M  V30 20317 H 1918.17 4.39199 0.0102308 0
M  V30 20318 H 1918.78 3.9406 -1.5999 0
M  V30 20319 N 1917.1 0.876467 1.3098 0
M  V30 20320 C 1918.37 0.411051 1.91232 0
M  V30 20321 C 1918.75 -1.10748 1.79717 0
M  V30 20322 O 1918.1 -1.93898 1.20896 0
M  V30 20323 C 1918.31 0.899663 3.37205 0
M  V30 20324 C 1919.66 0.929615 4.14299 0
M  V30 20325 O 1920.68 0.845752 3.46014 0
M  V30 20326 O 1919.54 1.05211 5.36277 0
M  V30 20327 H 1916.64 0.12418 0.817624 0
M  V30 20328 H 1919.18 0.964808 1.39605 0
M  V30 20329 H 1917.95 1.94336 3.39631 0
M  V30 20330 H 1917.58 0.324585 3.96273 0
M  V30 20331 N 1918.57 -1.44173 0.636557 0
M  V30 20332 C 1919.82 -2.01209 0.140639 0
M  V30 20333 C 1920.14 -1.50704 -1.2469 0
M  V30 20334 O 1921.34 -1.99904 -1.83713 0
M  V30 20335 C 1919.8 -3.5934 0.20066 0
M  V30 20336 C 1919.41 -4.18841 1.58985 0
M  V30 20337 C 1921.15 -4.23829 -0.238514 0
M  V30 20338 C 1919.06 -5.69213 1.60469 0
M  V30 20339 H 1917.99 -0.752418 0.0488124 0
M  V30 20340 H 1920.64 -1.65329 0.796151 0
M  V30 20341 H 1919.02 -3.92544 -0.522054 0
M  V30 20342 H 1920.19 -3.97165 2.33658 0
M  V30 20343 H 1918.51 -3.66659 1.97357 0
M  V30 20344 H 1921.11 -5.34129 -0.247033 0
M  V30 20345 H 1921.45 -3.96556 -1.26685 0
M  V30 20346 H 1921.98 -3.95449 0.431887 0
M  V30 20347 H 1918.72 -6.01229 2.61158 0
M  V30 20348 H 1918.24 -5.92995 0.900975 0
M  V30 20349 H 1919.92 -6.3295 1.34104 0
M  V30 20350 N 1920.05 -0.377435 -1.53014 0
M  V30 20351 C 1920.98 0.507261 -2.22491 0
M  V30 20352 C 1921.96 1.07358 -1.22119 0
M  V30 20353 O 1923.15 1.12747 -1.51064 0
M  V30 20354 C 1920.27 1.70101 -2.92888 0
M  V30 20355 C 1919.32 1.26105 -4.07431 0
M  V30 20356 S 1920.15 0.252451 -5.34905 0
M  V30 20357 C 1921.31 1.45225 -6.08819 0
M  V30 20358 H 1921.54 -0.0827563 -2.97185 0
M  V30 20359 H 1919.07 -0.161576 -1.53552 0
M  V30 20360 H 1921.03 2.38569 -3.34059 0
M  V30 20361 H 1919.69 2.2623 -2.17896 0
M  V30 20362 H 1918.89 2.15202 -4.55745 0
M  V30 20363 H 1918.49 0.655438 -3.68212 0
M  V30 20364 H 1920.78 2.38133 -6.3427 0
M  V30 20365 H 1921.72 1.01026 -7.00856 0
M  V30 20366 H 1922.13 1.66368 -5.39427 0
M  V30 20367 N 1921.53 1.57237 -0.106922 0
M  V30 20368 C 1922.78 1.94775 0.553982 0
M  V30 20369 C 1923.11 0.989452 1.67452 0
M  V30 20370 O 1922.36 0.0111396 1.95697 0
M  V30 20371 C 1922.66 3.38792 1.13817 0
M  V30 20372 C 1922.33 4.50682 0.140226 0
M  V30 20373 C 1920.99 4.81013 -0.134218 0
M  V30 20374 C 1923.34 5.1839 -0.540532 0
M  V30 20375 C 1920.67 5.76374 -1.09591 0
M  V30 20376 C 1923.02 6.14783 -1.49077 0
M  V30 20377 C 1921.68 6.43513 -1.77333 0
M  V30 20378 H 1920.95 0.712732 0.202716 0
M  V30 20379 H 1923.6 1.90602 -0.185265 0
M  V30 20380 H 1921.91 3.39601 1.95393 0
M  V30 20381 H 1923.6 3.65144 1.65744 0
M  V30 20382 H 1920.19 4.27049 0.364316 0
M  V30 20383 H 1924.38 4.95123 -0.34166 0
M  V30 20384 H 1919.63 5.96943 -1.3217 0
M  V30 20385 H 1923.81 6.66338 -2.02402 0
M  V30 20386 H 1921.43 7.17214 -2.52008 0
M  V30 20387 N 1923.01 -0.166818 1.56715 0
M  V30 20388 C 1924.24 -0.896867 1.86118 0
M  V30 20389 C 1924.65 -1.76139 0.690784 0
M  V30 20390 O 1923.99 -1.80351 -0.349191 0
M  V30 20391 C 1924.05 -1.82064 3.09989 0
M  V30 20392 C 1923.72 -1.13527 4.42674 0
M  V30 20393 C 1924.71 -0.498585 5.17504 0
M  V30 20394 C 1922.4 -1.13069 4.89409 0
M  V30 20395 C 1924.39 0.13354 6.3726 0
M  V30 20396 C 1922.08 -0.494741 6.09094 0
M  V30 20397 C 1923.08 0.136265 6.82864 0
M  V30 20398 O 1922.76 0.762174 8.00279 0
M  V30 20399 H 1922.5 -0.265765 0.621567 0
M  V30 20400 H 1925.05 -0.170384 2.04692 0
M  V30 20401 H 1923.28 -2.58756 2.87372 0
M  V30 20402 H 1924.97 -2.42092 3.25801 0
M  V30 20403 H 1925.74 -0.494073 4.82477 0
M  V30 20404 H 1921.61 -1.61124 4.31926 0
M  V30 20405 H 1925.16 0.626661 6.9478 0
M  V30 20406 H 1921.06 -0.496852 6.43585 0
M  V30 20407 H 1921.82 0.66187 8.1582 0
M  V30 20408 N 1924.49 -1.51463 -0.435524 0
M  V30 20409 C 1925.9 -1.39679 -0.772145 0
M  V30 20410 C 1926.1 -0.480546 -1.95686 0
M  V30 20411 O 1925.16 0.063611 -2.5242 0
M  V30 20412 C 1926.47 -2.81742 -1.05082 0
M  V30 20413 C 1928.02 -2.90905 -1.15514 0
M  V30 20414 C 1928.49 -4.33879 -1.46674 0
M  V30 20415 N 1929.99 -4.36993 -1.53594 0
M  V30 20416 C 1930.72 -5.44653 -1.79279 0
M  V30 20417 N 1930.22 -6.6247 -2.02744 0
M  V30 20418 N 1932.01 -5.32135 -1.81076 0
M  V30 20419 H 1924.16 -2.09584 0.344699 0
M  V30 20420 H 1926.42 -0.943543 0.0918199 0
M  V30 20421 H 1926.13 -3.50789 -0.252975 0
M  V30 20422 H 1926 -3.21179 -1.97798 0
M  V30 20423 H 1928.39 -2.22054 -1.94361 0
M  V30 20424 H 1928.47 -2.54961 -0.20695 0
M  V30 20425 H 1928.12 -5.03279 -0.683541 0
M  V30 20426 H 1928.05 -4.67337 -2.42702 0
M  V30 20427 H 1930.54 -3.52054 -1.37356 0
M  V30 20428 H 1930.85 -7.40311 -2.21718 0
M  V30 20429 H 1929.19 -6.65582 -2.00063 0
M  V30 20430 H 1932.39 -4.39076 -1.62264 0
M  V30 20431 H 1932.56 -6.16118 -2.00756 0
M  V30 20432 N 1925.96 0.691085 -1.4164 0
M  V30 20433 C 1926.89 1.8173 -1.46616 0
M  V30 20434 C 1927.88 1.66979 -0.324357 0
M  V30 20435 O 1929.06 1.86644 -0.536424 0
M  V30 20436 C 1926.19 3.19903 -1.35201 0
M  V30 20437 C 1925.14 3.49366 -2.47239 0
M  V30 20438 C 1924.47 4.86942 -2.20887 0
M  V30 20439 C 1925.77 3.47891 -3.89575 0
M  V30 20440 H 1927.46 1.77823 -2.40872 0
M  V30 20441 H 1925.01 0.8541 -1.15936 0
M  V30 20442 H 1926.96 3.98407 -1.37293 0
M  V30 20443 H 1925.69 3.24448 -0.374312 0
M  V30 20444 H 1924.35 2.73215 -2.44436 0
M  V30 20445 H 1923.99 4.88118 -1.2145 0
M  V30 20446 H 1923.69 5.0762 -2.95966 0
M  V30 20447 H 1925.22 5.67751 -2.24703 0
M  V30 20448 H 1926.63 4.16392 -3.94069 0
M  V30 20449 H 1925.03 3.80101 -4.64374 0
M  V30 20450 H 1926.1 2.46778 -4.17407 0
M  V30 20451 N 1927.44 1.27542 0.925789 0
M  V30 20452 C 1928.67 1.16921 1.71301 0
M  V30 20453 C 1929.09 -0.270082 1.86151 0
M  V30 20454 O 1928.45 -1.19558 1.36293 0
M  V30 20455 C 1928.5 1.8599 3.08934 0
M  V30 20456 O 1927.6 1.15917 3.95774 0
M  V30 20457 H 1926.94 0.406542 0.524995 0
M  V30 20458 H 1929.47 1.68646 1.15843 0
M  V30 20459 H 1929.48 1.93424 3.59237 0
M  V30 20460 H 1928.16 2.9069 2.97443 0
M  V30 20461 H 1926.74 1.16564 3.54213 0
M  V30 20462 N 1928.92 -1.13255 1.09595 0
M  V30 20463 C 1929.85 -2.17806 0.680857 0
M  V30 20464 C 1930.83 -1.59549 -0.313511 0
M  V30 20465 O 1932.02 -1.87276 -0.214474 0
M  V30 20466 C 1929.14 -3.387 0.00329844 0
M  V30 20467 C 1928.19 -4.15561 0.959753 0
M  V30 20468 S 1929.02 -4.74992 2.4727 0
M  V30 20469 C 1930.18 -5.9923 1.8076 0
M  V30 20470 H 1930.41 -2.52679 1.56654 0
M  V30 20471 H 1927.94 -1.2458 0.9121 0
M  V30 20472 H 1929.9 -4.08725 -0.381322 0
M  V30 20473 H 1928.56 -3.02124 -0.859052 0
M  V30 20474 H 1927.76 -5.02138 0.432775 0
M  V30 20475 H 1927.36 -3.512 1.28586 0
M  V30 20476 H 1929.65 -6.67965 1.13268 0
M  V30 20477 H 1930.59 -6.56539 2.6526 0
M  V30 20478 H 1931 -5.49894 1.27579 0
M  V30 20479 N 1930.4 -0.883401 -1.30514 0
M  V30 20480 C 1931.81 -0.55179 -1.7836 0
M  V30 20481 C 1932.16 0.93196 -1.72653 0
M  V30 20482 O 1931.29 1.72818 -1.30242 0
M  V30 20483 C 1931.88 -0.994845 -3.23865 0
M  V30 20484 C 1930.44 -0.714672 -3.69553 0
M  V30 20485 C 1929.59 -1.1787 -2.51002 0
M  V30 20486 H 1932.54 -1.06778 -1.17406 0
M  V30 20487 H 1932.56 -0.32315 -3.79125 0
M  V30 20488 H 1932.07 -2.07477 -3.27986 0
M  V30 20489 H 1930.17 0.353326 -3.70921 0
M  V30 20490 H 1930.28 -1.30112 -4.61094 0
M  V30 20491 H 1928.65 -0.598079 -2.47578 0
M  V30 20492 H 1929.43 -2.26633 -2.57862 0
M  V30 20493 N 1931.88 1.43833 -0.644194 0
M  V30 20494 C 1933.13 2.01132 -0.151307 0
M  V30 20495 C 1933.44 1.51363 1.23889 0
M  V30 20496 O 1934.64 2.00876 1.8265 0
M  V30 20497 C 1933.1 3.59229 -0.219714 0
M  V30 20498 C 1932.71 4.17992 -1.61204 0
M  V30 20499 C 1934.45 4.2395 0.216034 0
M  V30 20500 C 1932.36 5.68354 -1.63486 0
M  V30 20501 H 1931.29 0.752149 -0.052802 0
M  V30 20502 H 1933.94 1.64904 -0.804907 0
M  V30 20503 H 1932.32 3.92815 0.501229 0
M  V30 20504 H 1933.5 3.95921 -2.35761 0
M  V30 20505 H 1931.81 3.65608 -1.99299 0
M  V30 20506 H 1934.41 5.34253 0.218703 0
M  V30 20507 H 1934.75 3.97222 1.24581 0
M  V30 20508 H 1935.28 3.95214 -0.452852 0
M  V30 20509 H 1932.02 5.99836 -2.64343 0
M  V30 20510 H 1931.54 5.92508 -0.93241 0
M  V30 20511 H 1933.22 6.3223 -1.37458 0
M  V30 20512 N 1933.35 0.385544 1.52811 0
M  V30 20513 C 1934.26 -0.45885 2.30069 0
M  V30 20514 C 1935.28 -1.07486 1.36831 0
M  V30 20515 O 1936.46 -1.08148 1.699 0
M  V30 20516 C 1933.52 -1.57281 3.08972 0
M  V30 20517 C 1932.58 -0.98229 4.17911 0
M  V30 20518 C 1931.82 -2.04316 4.93042 0
M  V30 20519 O 1932.04 -3.25761 4.68226 0
M  V30 20520 O 1930.97 -1.66256 5.78483 0
M  V30 20521 H 1934.8 0.170416 3.03221 0
M  V30 20522 H 1932.38 0.149363 1.48651 0
M  V30 20523 H 1934.27 -2.22003 3.5818 0
M  V30 20524 H 1932.94 -2.18711 2.38637 0
M  V30 20525 H 1931.85 -0.298428 3.72908 0
M  V30 20526 H 1933.18 -0.412261 4.9047 0
M  V30 20527 N 1934.83 -1.57178 0.115259 0
M  V30 20528 C 1936.07 -1.96951 -0.546776 0
M  V30 20529 C 1936.44 -0.996997 -1.64085 0
M  V30 20530 O 1937.64 -1.28396 -2.36152 0
M  V30 20531 C 1935.91 -3.41033 -1.06916 0
M  V30 20532 S 1937.47 -4.02816 -1.74024 0
M  V30 20533 H 1934.29 -0.688401 -0.177833 0
M  V30 20534 H 1936.89 -1.9448 0.199452 0
M  V30 20535 H 1935.59 -4.09565 -0.261661 0
M  V30 20536 H 1935.12 -3.47147 -1.85075 0
M  V30 20537 H 1937.14 -3.93268 -3.0258 0
M  V30 20538 N 1936.31 0.158505 -1.56801 0
M  V30 20539 C 1937.27 1.17986 -1.96499 0
M  V30 20540 C 1938.27 1.3649 -0.850127 0
M  V30 20541 O 1939.46 1.33678 -1.11696 0
M  V30 20542 C 1936.6 2.54245 -2.27095 0
M  V30 20543 H 1937.79 0.839577 -2.87908 0
M  V30 20544 H 1935.34 0.401431 -1.51057 0
M  V30 20545 H 1936.08 2.93266 -1.38441 0
M  V30 20546 H 1935.86 2.42179 -3.0837 0
M  V30 20547 H 1937.35 3.27829 -2.58686 0
M  V30 20548 N 1937.79 1.51692 0.427485 0
M  V30 20549 C 1938.7 1.76576 1.5446 0
M  V30 20550 C 1939.72 0.650421 1.61386 0
M  V30 20551 O 1940.89 0.933787 1.78444 0
M  V30 20552 C 1937.96 1.89451 2.90361 0
M  V30 20553 C 1937.02 3.13326 2.93471 0
M  V30 20554 C 1936.25 3.25577 4.22889 0
M  V30 20555 O 1936.47 2.43528 5.15801 0
M  V30 20556 O 1935.41 4.18618 4.32484 0
M  V30 20557 H 1939.23 2.7136 1.36373 0
M  V30 20558 H 1936.82 1.36312 0.611496 0
M  V30 20559 H 1938.7 1.99848 3.70997 0
M  V30 20560 H 1937.38 0.978556 3.08555 0
M  V30 20561 H 1936.28 3.08401 2.11754 0
M  V30 20562 H 1937.62 4.04643 2.80223 0
M  V30 20563 N 1939.27 -0.683564 1.42004 0
M  V30 20564 C 1940.51 -1.44577 1.42216 0
M  V30 20565 C 1940.85 -1.94168 0.0352735 0
M  V30 20566 O 1940.12 -1.70331 -0.939023 0
M  V30 20567 C 1940.4 -2.64909 2.43916 0
M  V30 20568 C 1940.26 -2.21006 3.9176 0
M  V30 20569 C 1941.58 -3.6712 2.42716 0
M  V30 20570 H 1938.7 -0.524376 0.517879 0
M  V30 20571 H 1941.34 -0.777575 1.7336 0
M  V30 20572 H 1939.49 -3.21918 2.17489 0
M  V30 20573 H 1941.16 -1.69233 4.29136 0
M  V30 20574 H 1939.4 -1.52667 4.06048 0
M  V30 20575 H 1940.07 -3.07401 4.58485 0
M  V30 20576 H 1942.55 -3.1981 2.66197 0
M  V30 20577 H 1941.43 -4.48907 3.15869 0
M  V30 20578 H 1941.69 -4.17645 1.45 0
M  V30 20579 N 1940.75 -1.28031 -0.919012 0
M  V30 20580 C 1941.99 -1.14878 -1.66761 0
M  V30 20581 C 1942.32 0.303688 -1.92115 0
M  V30 20582 O 1941.58 1.23781 -1.51581 0
M  V30 20583 C 1941.87 -1.887 -3.03524 0
M  V30 20584 C 1941.54 -3.3852 -2.9785 0
M  V30 20585 C 1940.2 -3.79383 -2.9601 0
M  V30 20586 C 1942.55 -4.34077 -2.88491 0
M  V30 20587 C 1939.88 -5.14152 -2.82604 0
M  V30 20588 C 1942.23 -5.68912 -2.76625 0
M  V30 20589 C 1940.9 -6.09057 -2.7314 0
M  V30 20590 H 1940.17 -0.420368 -0.610223 0
M  V30 20591 H 1942.82 -1.58743 -1.07111 0
M  V30 20592 H 1941.12 -1.37368 -3.66929 0
M  V30 20593 H 1942.82 -1.75944 -3.6034 0
M  V30 20594 H 1939.41 -3.06028 -3.00074 0
M  V30 20595 H 1943.59 -4.03473 -2.89004 0
M  V30 20596 H 1938.85 -5.4439 -2.78298 0
M  V30 20597 H 1943.02 -6.4262 -2.6835 0
M  V30 20598 H 1940.65 -7.13437 -2.62509 0
M  V30 20599 N 1942.22 1.12672 -1.10194 0
M  V30 20600 C 1943.45 1.88496 -0.865112 0
M  V30 20601 C 1943.87 1.78977 0.578691 0
M  V30 20602 O 1943.23 1.14292 1.40737 0
M  V30 20603 C 1943.28 3.35768 -1.315 0
M  V30 20604 O 1942.38 4.09615 -0.478447 0
M  V30 20605 H 1941.72 0.585782 -0.312658 0
M  V30 20606 H 1944.25 1.42506 -1.46811 0
M  V30 20607 H 1944.26 3.86605 -1.30385 0
M  V30 20608 H 1942.94 3.42013 -2.36643 0
M  V30 20609 H 1941.52 3.68753 -0.554589 0
M  V30 20610 N 1943.7 0.89031 1.30043 0
M  V30 20611 C 1944.65 0.35935 2.27985 0
M  V30 20612 C 1945.62 -0.5534 1.5661 0
M  V30 20613 O 1946.8 -0.480669 1.84646 0
M  V30 20614 C 1943.94 -0.41541 3.42591 0
M  V30 20615 C 1943.06 0.527163 4.28771 0
M  V30 20616 C 1942.19 -0.26372 5.30545 0
M  V30 20617 C 1941.23 0.673982 6.08378 0
M  V30 20618 N 1940.37 -0.081909 7.02052 0
M  V30 20619 H 1945.21 1.19969 2.72785 0
M  V30 20620 H 1942.74 0.602948 1.34175 0
M  V30 20621 H 1944.7 -0.880572 4.07801 0
M  V30 20622 H 1943.33 -1.22028 2.98846 0
M  V30 20623 H 1942.38 1.11083 3.6382 0
M  V30 20624 H 1943.7 1.24532 4.83004 0
M  V30 20625 H 1942.85 -0.7905 6.01528 0
M  V30 20626 H 1941.59 -1.01507 4.7702 0
M  V30 20627 H 1940.59 1.21234 5.36267 0
M  V30 20628 H 1941.82 1.42451 6.63991 0
M  V30 20629 H 1939.77 -0.815696 6.50909 0
M  V30 20630 H 1939.68 0.576521 7.53799 0
M  V30 20631 H 1940.95 -0.589258 7.7727 0
M  V30 20632 N 1945.18 -1.43489 0.651812 0
M  V30 20633 C 1946.41 -2.06181 0.172334 0
M  V30 20634 C 1946.82 -1.48848 -1.16145 0
M  V30 20635 O 1946.18 -0.619246 -1.71673 0
M  V30 20636 C 1946.23 -3.61425 0.0737039 0
M  V30 20637 O 1945.95 -4.16627 1.35476 0
M  V30 20638 C 1947.45 -4.4119 -0.432019 0
M  V30 20639 H 1944.67 -0.665039 0.0892394 0
M  V30 20640 H 1947.22 -1.84018 0.892063 0
M  V30 20641 H 1945.37 -3.82779 -0.596577 0
M  V30 20642 H 1945.79 -5.1028 1.21305 0
M  V30 20643 H 1947.26 -5.50163 -0.449989 0
M  V30 20644 H 1947.74 -4.14115 -1.46306 0
M  V30 20645 H 1948.34 -4.24802 0.205721 0
M  V30 20646 N 1946.66 -0.393643 -1.52605 0
M  V30 20647 C 1947.9 0.187431 -2.01932 0
M  V30 20648 C 1948.24 1.46098 -1.27942 0
M  V30 20649 O 1947.51 1.90729 -0.381154 0
M  V30 20650 C 1947.79 0.450933 -3.57265 0
M  V30 20651 C 1947.65 -0.838204 -4.41921 0
M  V30 20652 C 1948.97 1.23971 -4.22278 0
M  V30 20653 H 1946.09 0.0666471 -0.73398 0
M  V30 20654 H 1948.73 -0.524064 -1.8263 0
M  V30 20655 H 1946.88 1.05703 -3.73844 0
M  V30 20656 H 1948.55 -1.47492 -4.37086 0
M  V30 20657 H 1946.79 -1.45258 -4.08757 0
M  V30 20658 H 1947.46 -0.608424 -5.48637 0
M  V30 20659 H 1949.94 0.726733 -4.09705 0
M  V30 20660 H 1948.82 1.39283 -5.30935 0
M  V30 20661 H 1949.08 2.25611 -3.802 0
M  V30 20662 N 1948.14 1.57115 -0.123593 0
M  V30 20663 C 1949.1 2.14386 0.810624 0
M  V30 20664 C 1950.1 1.07985 1.19146 0
M  V30 20665 O 1951.29 1.33739 1.11622 0
M  V30 20666 C 1948.42 2.68785 2.09683 0
M  V30 20667 H 1949.61 2.98264 0.312818 0
M  V30 20668 H 1947.17 1.55794 0.125682 0
M  V30 20669 H 1947.9 1.88509 2.63884 0
M  V30 20670 H 1947.69 3.46607 1.8332 0
M  V30 20671 H 1949.18 3.12989 2.76455 0
M  V30 20672 N 1949.61 -0.150187 1.56883 0
M  V30 20673 C 1950.86 -0.86163 1.82812 0
M  V30 20674 C 1951.18 -1.81849 0.703977 0
M  V30 20675 O 1950.45 -1.93966 -0.274616 0
M  V30 20676 H 1949.03 -0.321175 0.67443 0
M  V30 20677 H 1951.69 -0.144952 1.9436 0
M  V30 20678 H 1950.79 -1.4258 2.77628 0
M  V30 20679 N 1951.09 -1.51916 -0.419434 0
M  V30 20680 C 1952.34 -1.65142 -1.16502 0
M  V30 20681 C 1952.66 -0.378632 -1.91289 0
M  V30 20682 O 1951.93 0.606164 -1.86286 0
M  V30 20683 H 1950.51 -0.608667 -0.433051 0
M  V30 20684 H 1953.17 -1.88919 -0.47914 0
M  V30 20685 H 1952.27 -2.48762 -1.88477 0
M  V30 20686 N 1952.57 0.676023 -1.42365 0
M  V30 20687 C 1953.5 1.80165 -1.48536 0
M  V30 20688 C 1954.48 1.66625 -0.342049 0
M  V30 20689 O 1955.67 1.86065 -0.55619 0
M  V30 20690 C 1952.8 3.18451 -1.38586 0
M  V30 20691 C 1951.75 3.46724 -2.50931 0
M  V30 20692 C 1951.08 4.84572 -2.2604 0
M  V30 20693 C 1952.38 3.4374 -3.93243 0
M  V30 20694 H 1954.07 1.75258 -2.42745 0
M  V30 20695 H 1951.62 0.841756 -1.16835 0
M  V30 20696 H 1953.57 3.96929 -1.41511 0
M  V30 20697 H 1952.29 3.24033 -0.408703 0
M  V30 20698 H 1950.95 2.70607 -2.47321 0
M  V30 20699 H 1950.6 4.86802 -1.2662 0
M  V30 20700 H 1950.3 5.04452 -3.01334 0
M  V30 20701 H 1951.82 5.65336 -2.30712 0
M  V30 20702 H 1953.24 4.12189 -3.98463 0
M  V30 20703 H 1951.64 3.75155 -4.68379 0
M  V30 20704 H 1952.71 2.42337 -4.20001 0
M  V30 20705 N 1954.05 1.28517 0.912209 0
M  V30 20706 C 1955.46 1.14251 1.4766 0
M  V30 20707 C 1955.81 -0.266935 1.94376 0
M  V30 20708 O 1954.94 -1.16134 1.82598 0
M  V30 20709 C 1955.53 2.06792 2.6837 0
M  V30 20710 C 1954.09 1.96587 3.20984 0
M  V30 20711 C 1953.24 1.98444 1.93689 0
M  V30 20712 H 1956.19 1.41184 0.724769 0
M  V30 20713 H 1956.21 1.63282 3.43685 0
M  V30 20714 H 1955.72 3.09365 2.34339 0
M  V30 20715 H 1953.82 0.970565 3.59737 0
M  V30 20716 H 1953.93 2.83622 3.86129 0
M  V30 20717 H 1952.3 1.42872 2.10855 0
M  V30 20718 H 1953.08 3.02699 1.61951 0
M  V30 20719 N 1955.53 -1.12086 1.1079 0
M  V30 20720 C 1956.77 -1.83314 0.850901 0
M  V30 20721 C 1957.1 -1.84703 -0.625275 0
M  V30 20722 O 1956.37 -1.31277 -1.45406 0
M  V30 20723 H 1954.95 -0.678817 0.311797 0
M  V30 20724 H 1957.61 -1.35707 1.39891 0
M  V30 20725 H 1956.7 -2.87393 1.21704 0
M  V30 20726 N 1957 -0.897194 -1.29569 0
M  V30 20727 C 1957.97 -0.377906 -2.26063 0
M  V30 20728 C 1958.97 0.486495 -1.53264 0
M  V30 20729 O 1960.16 0.291905 -1.71737 0
M  V30 20730 C 1957.29 0.460046 -3.37782 0
M  V30 20731 H 1958.48 -1.23009 -2.73512 0
M  V30 20732 H 1956.04 -0.675114 -1.40968 0
M  V30 20733 H 1956.77 1.33232 -2.95668 0
M  V30 20734 H 1956.56 -0.159293 -3.91776 0
M  V30 20735 H 1958.05 0.814753 -4.09575 0
M  V30 20736 N 1958.48 1.43142 -0.659413 0
M  V30 20737 C 1959.73 2.01341 -0.174987 0
M  V30 20738 C 1960.05 1.52322 1.21749 0
M  V30 20739 O 1959.32 0.738424 1.8145 0
M  V30 20740 H 1957.9 0.744447 -0.0617013 0
M  V30 20741 H 1960.56 1.75268 -0.852471 0
M  V30 20742 H 1959.66 3.11667 -0.164379 0
M  V30 20743 N 1959.96 0.40173 1.52394 0
M  V30 20744 C 1960.89 -0.41861 2.29717 0
M  V30 20745 C 1961.87 -1.05263 1.33618 0
M  V30 20746 O 1963.06 -1.06304 1.62521 0
M  V30 20747 C 1960.19 -1.5395 3.11314 0
M  V30 20748 C 1959.14 -1.03088 4.154 0
M  V30 20749 C 1958.47 -2.2448 4.85297 0
M  V30 20750 C 1959.77 -0.0900956 5.22222 0
M  V30 20751 H 1961.46 0.226577 2.98541 0
M  V30 20752 H 1959.01 0.110411 1.43576 0
M  V30 20753 H 1960.96 -2.12031 3.64171 0
M  V30 20754 H 1959.68 -2.21246 2.40246 0
M  V30 20755 H 1958.34 -0.472515 3.63542 0
M  V30 20756 H 1957.99 -2.90313 4.10764 0
M  V30 20757 H 1957.69 -1.91103 5.55656 0
M  V30 20758 H 1959.21 -2.83181 5.40963 0
M  V30 20759 H 1960.63 -0.579479 5.70364 0
M  V30 20760 H 1959.03 0.154505 5.99901 0
M  V30 20761 H 1960.1 0.857375 4.7726 0
M  V30 20762 N 1961.44 -1.57047 0.131923 0
M  V30 20763 C 1962.69 -1.95632 -0.522925 0
M  V30 20764 C 1963.01 -1.01597 -1.65856 0
M  V30 20765 O 1962.27 -0.0422719 -1.95654 0
M  V30 20766 C 1962.57 -3.4056 -1.08413 0
M  V30 20767 C 1962.23 -4.50848 -0.0685085 0
M  V30 20768 C 1960.9 -4.80738 0.210726 0
M  V30 20769 C 1963.25 -5.17464 0.622935 0
M  V30 20770 C 1960.58 -5.74557 1.18747 0
M  V30 20771 C 1962.93 -6.12334 1.58839 0
M  V30 20772 C 1961.59 -6.40611 1.87548 0
M  V30 20773 H 1960.86 -0.715867 -0.191352 0
M  V30 20774 H 1963.51 -1.90283 0.215565 0
M  V30 20775 H 1961.81 -3.42667 -1.89965 0
M  V30 20776 H 1963.51 -3.67734 -1.59914 0
M  V30 20777 H 1960.1 -4.27574 -0.29633 0
M  V30 20778 H 1964.28 -4.94516 0.420386 0
M  V30 20779 H 1959.54 -5.94765 1.4165 0
M  V30 20780 H 1963.71 -6.63034 2.12977 0
M  V30 20781 H 1961.34 -7.13114 2.63387 0
M  V30 20782 N 1962.92 0.141865 -1.5696 0
M  V30 20783 C 1964.16 0.851923 -1.83267 0
M  V30 20784 C 1964.49 1.81473 -0.713611 0
M  V30 20785 O 1963.76 1.94109 0.264326 0
M  V30 20786 H 1962.34 0.317594 -0.676124 0
M  V30 20787 H 1965 0.134643 -1.94434 0
M  V30 20788 H 1964.09 1.41106 -2.7838 0
M  V30 20789 N 1964.39 1.52136 0.411372 0
M  V30 20790 C 1965.81 1.58274 0.990272 0
M  V30 20791 C 1966.16 0.421874 1.91611 0
M  V30 20792 O 1965.28 -0.458058 2.11497 0
M  V30 20793 C 1965.88 2.86855 1.80276 0
M  V30 20794 C 1964.44 2.95478 2.33173 0
M  V30 20795 C 1963.58 2.5319 1.13093 0
M  V30 20796 H 1966.53 1.57538 0.191687 0
M  V30 20797 H 1966.55 2.72082 2.65992 0
M  V30 20798 H 1966.07 3.71326 1.12866 0
M  V30 20799 H 1964.17 2.15496 3.03961 0
M  V30 20800 H 1964.28 3.99674 2.64192 0
M  V30 20801 H 1962.64 2.06986 1.48421 0
M  V30 20802 H 1963.43 3.40032 0.472529 0
M  V30 20803 N 1965.87 -0.668464 1.42721 0
M  V30 20804 C 1966.82 -1.78184 1.46694 0
M  V30 20805 C 1967.79 -1.63023 0.318213 0
M  V30 20806 O 1968.98 -1.83486 0.523198 0
M  V30 20807 C 1966.12 -3.16254 1.3812 0
M  V30 20808 C 1965.23 -3.42657 2.63078 0
M  V30 20809 C 1964.36 -4.7049 2.46602 0
M  V30 20810 C 1963.4 -4.89948 3.66902 0
M  V30 20811 N 1962.54 -6.09027 3.49329 0
M  V30 20812 H 1967.38 -1.74123 2.41837 0
M  V30 20813 H 1964.92 -0.849937 1.2006 0
M  V30 20814 H 1966.87 -3.96051 1.31146 0
M  V30 20815 H 1965.5 -3.19423 0.46569 0
M  V30 20816 H 1964.56 -2.57068 2.80393 0
M  V30 20817 H 1965.87 -3.52926 3.52484 0
M  V30 20818 H 1965.02 -5.58388 2.37249 0
M  V30 20819 H 1963.76 -4.62515 1.54696 0
M  V30 20820 H 1962.77 -4.0049 3.7668 0
M  V30 20821 H 1963.99 -4.99764 4.59797 0
M  V30 20822 H 1961.94 -6.02213 2.60146 0
M  V30 20823 H 1961.85 -6.20186 4.32326 0
M  V30 20824 H 1963.12 -6.99587 3.438 0
M  V30 20825 N 1967.35 -1.28999 -0.905381 0
M  V30 20826 C 1968.3 -1.13515 -2.0302 0
M  V30 20827 C 1969.29 -0.0522132 -1.6932 0
M  V30 20828 O 1970.5 -0.211599 -1.78752 0
M  V30 20829 H 1966.87 -0.350474 -0.665336 0
M  V30 20830 H 1968.85 -2.08758 -2.13219 0
M  V30 20831 C 1967.59 -0.822531 -3.37831 0
M  V30 20832 H 1966.92 -1.64783 -3.64262 0
M  V30 20833 H 1968.36 -0.754193 -4.17238 0
M  V30 20834 C 1966.82 0.474033 -3.33548 0
M  V30 20835 O 1967.35 1.50182 -3.7257 0
M  V30 20836 N 1965.55 0.477812 -2.86645 0
M  V30 20837 H 1965.1 -0.359023 -2.55086 0
M  V30 20838 H 1965.06 1.34533 -2.84162 0
M  V30 20839 N 1968.83 1.11497 -1.11383 0
M  V30 20840 C 1970.11 1.79631 -0.774086 0
M  V30 20841 C 1970.49 1.97781 0.737951 0
M  V30 20842 O 1969.83 1.56202 1.66773 0
M  V30 20843 C 1970.04 3.13357 -1.53649 0
M  V30 20844 C 1971.39 3.88407 -1.71538 0
M  V30 20845 O 1972.42 3.23045 -1.50069 0
M  V30 20846 O 1971.28 5.05694 -2.07209 0
M  V30 20847 H 1968.37 0.778022 -0.280376 0
M  V30 20848 H 1970.92 1.18245 -1.21722 0
M  V30 20849 H 1969.69 2.95498 -2.56509 0
M  V30 20850 H 1969.31 3.82456 -1.08688 0
M  V30 20851 N 1970.31 0.904053 1.29092 0
M  V30 20852 C 1971.24 0.401805 2.30017 0
M  V30 20853 C 1972.22 -0.525477 1.6178 0
M  V30 20854 O 1973.4 -0.435279 1.89259 0
M  V30 20855 C 1970.53 -0.367656 3.45348 0
M  V30 20856 C 1969.49 0.469596 4.25416 0
M  V30 20857 C 1968.81 -0.427624 5.32987 0
M  V30 20858 C 1970.11 1.7218 4.93104 0
M  V30 20859 H 1971.81 1.24523 2.72276 0
M  V30 20860 H 1969.35 0.600215 1.30895 0
M  V30 20861 H 1971.31 -0.729791 4.15033 0
M  V30 20862 H 1970.03 -1.2449 3.01944 0
M  V30 20863 H 1968.69 0.814119 3.57446 0
M  V30 20864 H 1968.34 -1.30313 4.85827 0
M  V30 20865 H 1968.04 0.128909 5.87459 0
M  V30 20866 H 1969.56 -0.785855 6.05522 0
M  V30 20867 H 1970.98 1.42914 5.55201 0
M  V30 20868 H 1969.37 2.21999 5.57527 0
M  V30 20869 H 1970.44 2.45526 4.18145 0
M  V30 20870 N 1971.79 -1.4279 0.666995 0
M  V30 20871 C 1972.7 -2.34594 -0.0164305 0
M  V30 20872 C 1973.71 -1.54657 -0.797322 0
M  V30 20873 O 1974.89 -1.87256 -0.741426 0
M  V30 20874 C 1971.95 -3.33102 -0.961469 0
M  V30 20875 C 1971.01 -4.28939 -0.17598 0
M  V30 20876 C 1970.25 -5.22741 -1.076 0
M  V30 20877 O 1970.47 -5.21289 -2.31546 0
M  V30 20878 O 1969.4 -5.99464 -0.541001 0
M  V30 20879 H 1973.23 -2.94557 0.739579 0
M  V30 20880 H 1970.81 -1.43162 0.427207 0
M  V30 20881 H 1972.7 -3.93639 -1.5042 0
M  V30 20882 H 1971.37 -2.75623 -1.69746 0
M  V30 20883 H 1970.28 -3.71839 0.410667 0
M  V30 20884 H 1971.61 -4.89438 0.520737 0
M  V30 20885 N 1973.26 -0.409806 -1.52179 0
M  V30 20886 C 1974.54 0.224342 -1.94309 0
M  V30 20887 C 1974.92 1.62561 -1.34674 0
M  V30 20888 O 1974.27 2.22438 -0.522817 0
M  V30 20889 C 1974.48 0.22999 -3.48241 0
M  V30 20890 C 1975.83 0.449011 -4.22219 0
M  V30 20891 O 1976.85 0.309316 -3.54854 0
M  V30 20892 O 1975.71 0.724419 -5.41677 0
M  V30 20893 H 1972.8 0.144759 -0.814232 0
M  V30 20894 H 1975.35 -0.465799 -1.63182 0
M  V30 20895 H 1974.12 -0.750731 -3.84031 0
M  V30 20896 H 1973.74 0.964201 -3.85732 0
M  V30 20897 N 1974.74 1.56975 -0.14025 0
M  V30 20898 C 1975.97 1.99977 0.518922 0
M  V30 20899 C 1976.38 1.01924 1.59399 0
M  V30 20900 O 1975.72 0.007174 1.83699 0
M  V30 20901 C 1975.78 3.3941 1.18495 0
M  V30 20902 C 1975.45 4.56286 0.255289 0
M  V30 20903 C 1976.45 5.17349 -0.514424 0
M  V30 20904 C 1974.13 5.02045 0.160162 0
M  V30 20905 C 1976.12 6.22574 -1.36678 0
M  V30 20906 C 1973.81 6.07126 -0.695808 0
M  V30 20907 C 1974.81 6.67259 -1.45789 0
M  V30 20908 O 1974.5 7.70307 -2.29961 0
M  V30 20909 H 1974.23 0.661305 0.140186 0
M  V30 20910 H 1976.78 2.04111 -0.22979 0
M  V30 20911 H 1975.01 3.32095 1.98116 0
M  V30 20912 H 1976.7 3.66563 1.74316 0
M  V30 20913 H 1977.47 4.82899 -0.450926 0
M  V30 20914 H 1973.35 4.54972 0.743062 0
M  V30 20915 H 1976.89 6.69439 -1.96208 0
M  V30 20916 H 1972.79 6.41003 -0.760622 0
M  V30 20917 H 1973.56 7.87498 -2.23135 0
M  V30 20918 N 1976.22 -0.133539 1.57033 0
M  V30 20919 C 1977.5 -0.873327 1.75021 0
M  V30 20920 C 1977.88 -1.98735 0.71187 0
M  V30 20921 O 1977.22 -2.26937 -0.266823 0
M  V30 20922 C 1977.43 -1.40341 3.19539 0
M  V30 20923 C 1978.78 -1.86151 3.81619 0
M  V30 20924 O 1979.81 -1.50053 3.23052 0
M  V30 20925 O 1978.67 -2.52767 4.84532 0
M  V30 20926 H 1975.76 -0.413669 0.716105 0
M  V30 20927 H 1978.31 -0.118413 1.69286 0
M  V30 20928 H 1977.08 -0.60345 3.86619 0
M  V30 20929 H 1976.7 -2.22145 3.29754 0
M  V30 20930 N 1977.7 -1.52352 -0.403298 0
M  V30 20931 C 1978.66 -1.75482 -1.4744 0
M  V30 20932 C 1979.66 -0.62473 -1.48168 0
M  V30 20933 O 1980.85 -0.892662 -1.4959 0
M  V30 20934 C 1977.98 -1.84253 -2.86817 0
M  V30 20935 H 1979.18 -2.71107 -1.28222 0
M  V30 20936 H 1976.73 -1.42857 -0.634157 0
M  V30 20937 H 1977.46 -0.905623 -3.11398 0
M  V30 20938 H 1977.25 -2.66414 -2.87691 0
M  V30 20939 H 1978.74 -2.03869 -3.64454 0
M  V30 20940 N 1979.18 0.660885 -1.43074 0
M  V30 20941 C 1980.45 1.41768 -1.34764 0
M  V30 20942 C 1980.83 2.11098 0.00828719 0
M  V30 20943 O 1980.18 2.04246 1.02449 0
M  V30 20944 C 1980.39 2.40869 -2.52553 0
M  V30 20945 C 1981.74 3.05098 -2.95297 0
M  V30 20946 O 1982.76 2.51196 -2.52545 0
M  V30 20947 O 1981.62 4.02808 -3.69335 0
M  V30 20948 H 1978.72 0.633017 -0.532182 0
M  V30 20949 H 1981.26 0.688438 -1.55108 0
M  V30 20950 H 1980.03 1.88533 -3.42886 0
M  V30 20951 H 1979.66 3.21254 -2.34268 0
M  V30 20952 N 1980.65 1.29477 0.898527 0
M  V30 20953 C 1981.88 1.20529 1.68783 0
M  V30 20954 C 1982.3 -0.230536 1.86682 0
M  V30 20955 O 1981.66 -1.1664 1.38798 0
M  V30 20956 C 1981.71 1.92501 3.04919 0
M  V30 20957 O 1980.81 1.24286 3.93226 0
M  V30 20958 H 1980.16 0.417586 0.516254 0
M  V30 20959 H 1982.69 1.71066 1.1224 0
M  V30 20960 H 1982.7 2.01001 3.55053 0
M  V30 20961 H 1981.37 2.96934 2.9121 0
M  V30 20962 H 1979.95 1.24052 3.51661 0
M  V30 20963 N 1982.13 -1.10905 1.11972 0
M  V30 20964 C 1983.41 -1.79218 0.783601 0
M  V30 20965 C 1983.79 -1.9817 -0.727451 0
M  V30 20966 O 1983.14 -1.57084 -1.65942 0
M  V30 20967 C 1983.35 -3.12538 1.55309 0
M  V30 20968 C 1984.7 -3.87492 1.73595 0
M  V30 20969 O 1985.72 -3.22244 1.5178 0
M  V30 20970 O 1984.58 -5.04588 2.09887 0
M  V30 20971 H 1981.67 -0.776524 0.284498 0
M  V30 20972 H 1984.22 -1.17598 1.22347 0
M  V30 20973 H 1982.99 -2.94133 2.58072 0
M  V30 20974 H 1982.61 -3.81874 1.10714 0
M  V30 20975 N 1983.61 -0.910886 -1.2861 0
M  V30 20976 C 1984.86 -0.542557 -1.95096 0
M  V30 20977 C 1985.19 0.913233 -1.71727 0
M  V30 20978 O 1984.44 1.66424 -1.02963 0
M  V30 20979 C 1984.74 -0.794745 -3.48452 0
M  V30 20980 C 1984.41 -2.22964 -3.91916 0
M  V30 20981 C 1983.07 -2.62195 -4.03494 0
M  V30 20982 C 1985.42 -3.16353 -4.1421 0
M  V30 20983 C 1982.75 -3.93974 -4.34743 0
M  V30 20984 C 1985.1 -4.47694 -4.46938 0
M  V30 20985 C 1983.76 -4.86783 -4.56726 0
M  V30 20986 H 1983.03 -0.198536 -0.713908 0
M  V30 20987 H 1985.68 -1.15167 -1.53 0
M  V30 20988 H 1983.99 -0.102809 -3.91665 0
M  V30 20989 H 1985.68 -0.488975 -3.98008 0
M  V30 20990 H 1982.27 -1.91521 -3.83429 0
M  V30 20991 H 1986.46 -2.87253 -4.04721 0
M  V30 20992 H 1981.71 -4.23965 -4.40526 0
M  V30 20993 H 1985.89 -5.20074 -4.63137 0
M  V30 20994 H 1983.51 -5.88928 -4.80695 0
M  V30 20995 N 1985.09 1.42434 -0.674558 0
M  V30 20996 C 1986 2.346 0.00398919 0
M  V30 20997 C 1987.01 1.55078 0.789109 0
M  V30 20998 O 1988.19 1.87647 0.731485 0
M  V30 20999 C 1985.26 3.33607 0.94379 0
M  V30 21000 C 1984.32 4.29026 0.153229 0
M  V30 21001 C 1983.55 5.23304 1.04827 0
M  V30 21002 O 1983.77 5.2251 2.28779 0
M  V30 21003 O 1982.71 5.99742 0.509202 0
M  V30 21004 H 1986.53 2.94161 -0.755189 0
M  V30 21005 H 1984.12 1.42933 -0.434794 0
M  V30 21006 H 1986 3.94431 1.4833 0
M  V30 21007 H 1984.67 2.76519 1.68282 0
M  V30 21008 H 1983.58 3.71616 -0.430381 0
M  V30 21009 H 1984.91 4.89155 -0.546686 0
M  V30 21010 N 1986.57 0.417871 1.51959 0
M  V30 21011 C 1987.81 -0.155282 2.02205 0
M  V30 21012 C 1988.15 -1.44044 1.3025 0
M  V30 21013 O 1987.42 -1.90098 0.411449 0
M  V30 21014 C 1987.7 -0.394038 3.57938 0
M  V30 21015 C 1987.56 0.908404 4.40532 0
M  V30 21016 C 1988.88 -1.17238 4.24197 0
M  V30 21017 H 1985.99 -0.0549616 0.734948 0
M  V30 21018 H 1988.64 0.553053 1.81773 0
M  V30 21019 H 1986.79 -0.997422 3.75478 0
M  V30 21020 H 1988.46 1.54427 4.34684 0
M  V30 21021 H 1986.7 1.51743 4.06395 0
M  V30 21022 H 1987.37 0.69563 5.47599 0
M  V30 21023 H 1989.85 -0.661461 4.10809 0
M  V30 21024 H 1988.72 -1.30818 5.33083 0
M  V30 21025 H 1988.99 -2.19534 3.83741 0
M  V30 21026 N 1988.04 -1.56898 0.148573 0
M  V30 21027 C 1988.97 -2.19852 -0.786585 0
M  V30 21028 C 1989.96 -1.14723 -1.2559 0
M  V30 21029 O 1991.14 -1.43071 -1.31317 0
M  V30 21030 C 1988.27 -2.82137 -2.02524 0
M  V30 21031 C 1987.22 -3.93108 -1.69264 0
M  V30 21032 C 1986.55 -4.42335 -3.00407 0
M  V30 21033 C 1987.85 -5.13807 -0.938092 0
M  V30 21034 H 1989.54 -2.98252 -0.261903 0
M  V30 21035 H 1987.09 -1.43461 -0.124531 0
M  V30 21036 H 1989.04 -3.24845 -2.68428 0
M  V30 21037 H 1987.77 -2.01071 -2.57368 0
M  V30 21038 H 1986.43 -3.5102 -1.05739 0
M  V30 21039 H 1986.07 -3.58089 -3.53244 0
M  V30 21040 H 1985.77 -5.17185 -2.78915 0
M  V30 21041 H 1987.3 -4.87714 -3.67378 0
M  V30 21042 H 1988.71 -5.53349 -1.49924 0
M  V30 21043 H 1987.11 -5.94429 -0.823062 0
M  V30 21044 H 1988.18 -4.8485 0.0698825 0
M  V30 21045 N 1989.52 0.125209 -1.57102 0
M  V30 21046 C 1990.46 1.18407 -1.95077 0
M  V30 21047 C 1991.43 1.40435 -0.819562 0
M  V30 21048 O 1992.62 1.54691 -1.07717 0
M  V30 21049 C 1989.74 2.53906 -2.24164 0
M  V30 21050 C 1988.79 2.48343 -3.46739 0
M  V30 21051 S 1989.62 1.92912 -4.99545 0
M  V30 21052 C 1990.78 3.30096 -5.31777 0
M  V30 21053 H 1991.01 0.860191 -2.84584 0
M  V30 21054 H 1988.55 0.331718 -1.50795 0
M  V30 21055 H 1990.5 3.31873 -2.416 0
M  V30 21056 H 1989.16 2.83474 -1.35282 0
M  V30 21057 H 1988.36 3.4814 -3.64437 0
M  V30 21058 H 1987.96 1.78494 -3.28658 0
M  V30 21059 H 1990.25 4.26287 -5.26579 0
M  V30 21060 H 1991.19 3.17232 -6.33064 0
M  V30 21061 H 1991.6 3.28238 -4.5926 0
M  V30 21062 N 1991 1.52564 0.395213 0
M  V30 21063 C 1991.95 1.769 1.48239 0
M  V30 21064 C 1992.92 0.611965 1.54416 0
M  V30 21065 O 1994.1 0.851019 1.7077 0
M  V30 21066 C 1991.24 1.93809 2.85538 0
M  V30 21067 C 1990.36 3.2149 2.88562 0
M  V30 21068 C 1989.49 3.28751 4.17248 0
M  V30 21069 C 1988.53 4.5058 4.143 0
M  V30 21070 N 1987.67 4.55156 5.34581 0
M  V30 21071 H 1992.51 2.69683 1.26788 0
M  V30 21072 H 1990.04 1.33618 0.615189 0
M  V30 21073 H 1992 2.01597 3.6526 0
M  V30 21074 H 1990.63 1.04394 3.05453 0
M  V30 21075 H 1989.68 3.22805 2.01249 0
M  V30 21076 H 1991 4.11262 2.82251 0
M  V30 21077 H 1990.15 3.35687 5.0537 0
M  V30 21078 H 1988.89 2.36943 4.26274 0
M  V30 21079 H 1987.89 4.43775 3.24567 0
M  V30 21080 H 1989.12 5.43698 4.06902 0
M  V30 21081 H 1987.06 3.66237 5.44248 0
M  V30 21082 H 1986.98 5.38791 5.30321 0
M  V30 21083 H 1988.25 4.6634 6.24618 0
M  V30 21084 N 1992.48 -0.653289 1.43422 0
M  V30 21085 C 1993.71 -1.44093 1.48475 0
M  V30 21086 C 1994.12 -1.88521 0.102614 0
M  V30 21087 O 1993.48 -1.59487 -0.887134 0
M  V30 21088 C 1993.53 -2.67595 2.43054 0
M  V30 21089 O 1993.25 -2.25025 3.75893 0
M  V30 21090 C 1994.75 -3.60953 2.57348 0
M  V30 21091 H 1991.97 -0.442658 0.504276 0
M  V30 21092 H 1994.52 -0.800914 1.88164 0
M  V30 21093 H 1992.67 -3.27736 2.06561 0
M  V30 21094 H 1993.08 -3.04932 4.26752 0
M  V30 21095 H 1994.56 -4.44276 3.27602 0
M  V30 21096 H 1995.04 -4.08295 1.61838 0
M  V30 21097 H 1995.64 -3.06693 2.94652 0
M  V30 21098 N 1993.96 -1.29952 -0.891648 0
M  V30 21099 C 1994.92 -1.15756 -1.97821 0
M  V30 21100 C 1995.92 -0.0906975 -1.60544 0
M  V30 21101 O 1997.11 -0.338283 -1.70884 0
M  V30 21102 C 1994.24 -0.771976 -3.32044 0
M  V30 21103 H 1995.43 -2.12281 -2.11842 0
M  V30 21104 H 1992.99 -1.13253 -1.07719 0
M  V30 21105 H 1993.72 0.193059 -3.23725 0
M  V30 21106 H 1993.51 -1.54291 -3.60467 0
M  V30 21107 H 1995 -0.695941 -4.1176 0
M  V30 21108 N 1995.44 1.1031 -1.12559 0
M  V30 21109 C 1996.39 2.14835 -0.763553 0
M  V30 21110 C 1997.37 1.59129 0.238075 0
M  V30 21111 O 1998.56 1.76947 0.043378 0
M  V30 21112 C 1995.69 3.42586 -0.221241 0
M  V30 21113 C 1994.78 4.05222 -1.25124 0
M  V30 21114 N 1995.17 4.42543 -2.44927 0
M  V30 21115 C 1993.47 4.32301 -1.0969 0
M  V30 21116 C 1994.17 4.91767 -3.10709 0
M  V30 21117 N 1993.14 4.88655 -2.38154 0
M  V30 21118 H 1996.94 2.41484 -1.67519 0
M  V30 21119 H 1994.46 1.27445 -1.00656 0
M  V30 21120 H 1996.46 4.16862 0.0563207 0
M  V30 21121 H 1995.12 3.17396 0.684837 0
M  V30 21122 H 1996.13 4.34197 -2.82299 0
M  V30 21123 H 1992.8 4.16761 -0.248225 0
M  V30 21124 H 1994.19 5.30181 -4.12744 0
M  V30 21125 N 1996.91 0.917694 1.28125 0
M  V30 21126 C 1998.16 0.551804 1.94421 0
M  V30 21127 C 1998.48 -0.908163 1.72561 0
M  V30 21128 O 1997.75 -1.64255 1.06758 0
M  V30 21129 H 1996.33 0.201081 0.719427 0
M  V30 21130 H 1998.99 1.16791 1.56032 0
M  V30 21131 H 1998.09 0.749587 3.02965 0
M  V30 21132 N 1998.39 -1.42074 0.682102 0
M  V30 21133 C 1999.34 -2.27995 -0.0145854 0
M  V30 21134 C 2000.33 -1.4148 -0.766303 0
M  V30 21135 O 2001.52 -1.64868 -0.644013 0
M  V30 21136 C 1998.65 -3.29606 -0.959932 0
M  V30 21137 C 1997.73 -4.23603 -0.205172 0
M  V30 21138 N 1998.12 -4.99531 0.793859 0
M  V30 21139 C 1996.42 -4.43799 -0.442582 0
M  V30 21140 C 1997.12 -5.68232 1.24447 0
M  V30 21141 N 1996.1 -5.40572 0.572991 0
M  V30 21142 H 1999.9 -2.84127 0.751591 0
M  V30 21143 H 1997.41 -1.54125 0.511785 0
M  V30 21144 H 1999.41 -3.8997 -1.47408 0
M  V30 21145 H 1998.07 -2.75035 -1.72585 0
M  V30 21146 H 1999.08 -5.04426 1.17365 0
M  V30 21147 H 1995.76 -4.00258 -1.18744 0
M  V30 21148 H 1997.15 -6.3913 2.07273 0
M  V30 21149 N 1999.87 -0.425924 -1.51735 0
M  V30 21150 C 2000.8 0.382011 -2.30354 0
M  V30 21151 C 2001.78 1.03124 -1.35276 0
M  V30 21152 O 2002.97 1.03705 -1.64191 0
M  V30 21153 C 2000.1 1.48978 -3.13724 0
M  V30 21154 C 1999.05 0.964659 -4.16987 0
M  V30 21155 C 1998.38 2.1673 -4.88807 0
M  V30 21156 C 1999.68 0.00700314 -5.223 0
M  V30 21157 H 2001.37 -0.274043 -2.98143 0
M  V30 21158 H 1998.92 -0.133238 -1.43382 0
M  V30 21159 H 2000.87 2.06211 -3.67498 0
M  V30 21160 H 1999.59 2.17396 -2.43735 0
M  V30 21161 H 1998.25 0.414618 -3.64248 0
M  V30 21162 H 1997.9 2.83741 -4.15331 0
M  V30 21163 H 1997.6 1.82239 -5.58626 0
M  V30 21164 H 1999.12 2.74538 -5.454 0
M  V30 21165 H 2000.54 0.488665 -5.71214 0
M  V30 21166 H 1998.93 -0.249924 -5.99579 0
M  V30 21167 H 2000 -0.933195 -4.75836 0
M  V30 21168 N 2001.35 1.56817 -0.156891 0
M  V30 21169 C 2002.59 1.9673 0.492464 0
M  V30 21170 C 2002.93 1.04226 1.63862 0
M  V30 21171 O 2002.2 0.0865469 1.94307 0
M  V30 21172 C 2002.48 3.46246 0.989218 0
M  V30 21173 C 2002.34 4.49529 -0.156119 0
M  V30 21174 C 2003.66 3.98502 1.86773 0
M  V30 21175 H 2000.78 0.715297 0.177537 0
M  V30 21176 H 2003.42 1.88477 -0.240116 0
M  V30 21177 H 2001.57 3.53411 1.61348 0
M  V30 21178 H 2003.24 4.54437 -0.792781 0
M  V30 21179 H 2001.48 4.26098 -0.813797 0
M  V30 21180 H 2002.15 5.51507 0.233341 0
M  V30 21181 H 2004.63 3.93879 1.34159 0
M  V30 21182 H 2003.51 5.03564 2.18436 0
M  V30 21183 H 2003.77 3.4145 2.80828 0
M  V30 21184 N 2002.83 -0.116876 1.57166 0
M  V30 21185 C 2004.24 -0.673792 1.74118 0
M  V30 21186 C 2004.59 -1.80206 0.775892 0
M  V30 21187 O 2003.71 -2.16341 -0.0507019 0
M  V30 21188 C 2004.31 -1.22903 3.15722 0
M  V30 21189 C 2002.87 -1.73222 3.34172 0
M  V30 21190 C 2002.01 -0.632798 2.69983 0
M  V30 21191 H 2004.96 0.109055 1.58325 0
M  V30 21192 H 2004.99 -2.09867 3.1739 0
M  V30 21193 H 2004.5 -0.407637 3.85953 0
M  V30 21194 H 2002.6 -2.57832 2.68986 0
M  V30 21195 H 2002.71 -1.8402 4.4235 0
M  V30 21196 H 2001.08 -1.06693 2.31276 0
M  V30 21197 H 2001.86 0.177653 3.4284 0
M  V30 21198 N 2004.3 -1.52772 -0.387116 0
M  V30 21199 C 2005.58 -1.5849 -1.14631 0
M  V30 21200 C 2005.96 -0.379228 -2.07666 0
M  V30 21201 O 2005.31 0.632297 -2.19577 0
M  V30 21202 C 2005.52 -2.92465 -1.90434 0
M  V30 21203 C 2006.87 -3.46269 -2.45729 0
M  V30 21204 O 2007.89 -2.94352 -2.00588 0
M  V30 21205 O 2006.75 -4.3698 -3.28193 0
M  V30 21206 H 2003.84 -0.639307 -0.52461 0
M  V30 21207 H 2006.39 -1.65108 -0.392117 0
M  V30 21208 H 2005.16 -3.7166 -1.22411 0
M  V30 21209 H 2004.78 -2.89241 -2.7281 0
M  V30 21210 N 2005.78 0.645673 -1.43767 0
M  V30 21211 C 2007.2 0.962209 -1.27333 0
M  V30 21212 C 2007.4 2.0052 -0.198519 0
M  V30 21213 O 2006.45 2.48974 0.420512 0
M  V30 21214 C 2007.77 1.4393 -2.64016 0
M  V30 21215 C 2009.31 1.55555 -2.71609 0
M  V30 21216 C 2009.79 2.06652 -4.08728 0
M  V30 21217 N 2011.28 2.13944 -4.10831 0
M  V30 21218 C 2012.02 2.54619 -5.13767 0
M  V30 21219 N 2011.51 2.94536 -6.27073 0
M  V30 21220 N 2013.3 2.54625 -5.01121 0
M  V30 21221 H 2005.46 -0.0443554 -2.12354 0
M  V30 21222 H 2007.72 0.042755 -0.947035 0
M  V30 21223 H 2007.42 0.747304 -3.43669 0
M  V30 21224 H 2007.3 2.41297 -2.89923 0
M  V30 21225 H 2009.69 2.23854 -1.92285 0
M  V30 21226 H 2009.77 0.566006 -2.49459 0
M  V30 21227 H 2009.41 1.38952 -4.88523 0
M  V30 21228 H 2009.34 3.06451 -4.28247 0
M  V30 21229 H 2011.83 1.85838 -3.29048 0
M  V30 21230 H 2012.14 3.24345 -7.01442 0
M  V30 21231 H 2010.49 2.92323 -6.30533 0
M  V30 21232 H 2013.68 2.22822 -4.11665 0
M  V30 21233 H 2013.85 2.86002 -5.81469 0
M  V30 21234 N 2007.26 1.30423 0.884744 0
M  V30 21235 C 2008.51 1.19435 1.63899 0
M  V30 21236 C 2008.84 -0.25033 1.9258 0
M  V30 21237 O 2008.11 -1.17904 1.5469 0
M  V30 21238 C 2008.4 2.02357 2.97865 0
M  V30 21239 C 2008.25 3.55046 2.76156 0
M  V30 21240 C 2009.57 1.86156 3.98791 0
M  V30 21241 H 2006.69 0.435234 0.594761 0
M  V30 21242 H 2009.33 1.60058 1.0238 0
M  V30 21243 H 2007.48 1.67842 3.50373 0
M  V30 21244 H 2009.15 3.99622 2.30434 0
M  V30 21245 H 2007.39 3.79218 2.10657 0
M  V30 21246 H 2008.07 4.08356 3.71415 0
M  V30 21247 H 2010.54 2.16332 3.55443 0
M  V30 21248 H 2009.42 2.46501 4.90437 0
M  V30 21249 H 2009.68 0.820775 4.34414 0
M  V30 21250 N 2008.74 -1.09711 1.13142 0
M  V30 21251 C 2010.01 -1.78377 0.802565 0
M  V30 21252 C 2010.39 -1.9893 -0.706392 0
M  V30 21253 O 2009.74 -1.58835 -1.64267 0
M  V30 21254 C 2009.95 -3.10873 1.58615 0
M  V30 21255 C 2011.3 -3.85629 1.77695 0
M  V30 21256 O 2012.32 -3.20616 1.55189 0
M  V30 21257 O 2011.18 -5.02334 2.15228 0
M  V30 21258 H 2008.28 -0.773463 0.292718 0
M  V30 21259 H 2010.82 -1.16294 1.23587 0
M  V30 21260 H 2009.6 -2.9138 2.61177 0
M  V30 21261 H 2009.22 -3.80679 1.14758 0
M  V30 21262 N 2010.22 -0.924476 -1.27637 0
M  V30 21263 C 2011.16 -0.41967 -2.26952 0
M  V30 21264 C 2012.13 0.511683 -1.58022 0
M  V30 21265 O 2013.32 0.431544 -1.85856 0
M  V30 21266 C 2010.46 0.324433 -3.43572 0
M  V30 21267 C 2009.57 -0.640659 -4.27223 0
M  V30 21268 C 2008.71 0.122963 -5.31058 0
M  V30 21269 C 2007.75 -0.835045 -6.06377 0
M  V30 21270 N 2006.88 -0.104257 -7.02023 0
M  V30 21271 H 2011.72 -1.27159 -2.69508 0
M  V30 21272 H 2009.26 -0.63831 -1.32529 0
M  V30 21273 H 2011.22 0.772141 -4.09992 0
M  V30 21274 H 2009.85 1.14062 -3.01976 0
M  V30 21275 H 2008.9 -1.2069 -3.60747 0
M  V30 21276 H 2010.21 -1.37295 -4.79533 0
M  V30 21277 H 2009.37 0.630738 -6.03412 0
M  V30 21278 H 2008.1 0.888238 -4.79543 0
M  V30 21279 H 2007.11 -1.3541 -5.32864 0
M  V30 21280 H 2008.33 -1.60005 -6.59981 0
M  V30 21281 H 2006.28 0.642832 -6.52843 0
M  V30 21282 H 2006.2 -0.776174 -7.52005 0
M  V30 21283 H 2007.47 0.382972 -7.78559 0
M  V30 21284 N 2011.69 1.41711 -0.689627 0
M  V30 21285 C 2012.97 1.95052 -0.146379 0
M  V30 21286 C 2013.35 1.62932 1.34225 0
M  V30 21287 O 2012.7 0.933198 2.08575 0
M  V30 21288 C 2012.91 3.46324 -0.431327 0
M  V30 21289 C 2014.26 4.23106 -0.355847 0
M  V30 21290 O 2015.28 3.54316 -0.365905 0
M  V30 21291 O 2014.14 5.45615 -0.310824 0
M  V30 21292 H 2011.23 0.82692 -0.0115 0
M  V30 21293 H 2013.78 1.5146 -0.765378 0
M  V30 21294 H 2012.55 3.62963 -1.46197 0
M  V30 21295 H 2012.18 3.96997 0.218942 0
M  V30 21296 N 2013.17 0.433965 1.51507 0
M  V30 21297 C 2014.12 -0.37918 2.27664 0
M  V30 21298 C 2015.09 -1.01975 1.31112 0
M  V30 21299 O 2016.27 -1.0393 1.6001 0
M  V30 21300 C 2013.41 -1.47628 3.1193 0
M  V30 21301 C 2012.53 -0.854176 4.23471 0
M  V30 21302 C 2011.66 -1.92604 4.95053 0
M  V30 21303 C 2010.7 -1.28219 5.9852 0
M  V30 21304 N 2009.84 -2.29527 6.63522 0
M  V30 21305 H 2014.68 0.276629 2.96713 0
M  V30 21306 H 2012.22 0.148264 1.46351 0
M  V30 21307 H 2014.17 -2.1236 3.59109 0
M  V30 21308 H 2012.8 -2.10176 2.45002 0
M  V30 21309 H 2011.86 -0.0952329 3.80281 0
M  V30 21310 H 2013.17 -0.344086 4.97612 0
M  V30 21311 H 2012.32 -2.65006 5.45762 0
M  V30 21312 H 2011.06 -2.46985 4.20535 0
M  V30 21313 H 2010.07 -0.543619 5.47106 0
M  V30 21314 H 2011.29 -0.745758 6.74993 0
M  V30 21315 H 2009.24 -2.82995 5.91819 0
M  V30 21316 H 2009.15 -1.834 7.33417 0
M  V30 21317 H 2010.42 -3.01423 7.18863 0
M  V30 21318 N 2014.65 -1.56732 0.165206 0
M  V30 21319 C 2015.56 -2.2125 -0.780107 0
M  V30 21320 C 2016.58 -1.20227 -1.25784 0
M  V30 21321 O 2017.75 -1.52868 -1.31124 0
M  V30 21322 C 2014.82 -2.83579 -1.99459 0
M  V30 21323 C 2013.88 -3.99784 -1.56434 0
M  V30 21324 C 2013.11 -4.5913 -2.72094 0
M  V30 21325 O 2013.33 -4.17363 -3.88799 0
M  V30 21326 O 2012.27 -5.49101 -2.46519 0
M  V30 21327 H 2016.09 -3.02578 -0.260803 0
M  V30 21328 H 2013.68 -1.49268 -0.0627015 0
M  V30 21329 H 2015.56 -3.23123 -2.70499 0
M  V30 21330 H 2014.24 -2.05251 -2.50307 0
M  V30 21331 H 2013.14 -3.64921 -0.823629 0
M  V30 21332 H 2014.48 -4.79686 -1.10284 0
M  V30 21333 N 2016.13 0.10854 -1.57226 0
M  V30 21334 C 2017.09 1.11675 -2.00153 0
M  V30 21335 C 2018.09 1.33716 -0.89312 0
M  V30 21336 O 2019.28 1.30056 -1.15892 0
M  V30 21337 C 2016.41 2.46892 -2.35069 0
M  V30 21338 H 2017.61 0.747556 -2.90433 0
M  V30 21339 H 2015.16 0.35317 -1.52258 0
M  V30 21340 H 2015.89 2.88713 -1.47701 0
M  V30 21341 H 2015.68 2.32245 -3.15918 0
M  V30 21342 H 2017.17 3.19433 -2.68984 0
M  V30 21343 N 2017.61 1.52975 0.379009 0
M  V30 21344 C 2018.83 1.72396 1.144 0
M  V30 21345 C 2019.25 0.446816 1.83437 0
M  V30 21346 O 2018.61 -0.579403 1.73058 0
M  V30 21347 C 2018.66 2.88032 2.18449 0
M  V30 21348 O 2018.38 4.10803 1.52225 0
M  V30 21349 C 2019.88 3.19215 3.07599 0
M  V30 21350 H 2017.1 0.576943 0.342605 0
M  V30 21351 H 2019.64 1.99666 0.442025 0
M  V30 21352 H 2017.8 2.63195 2.84266 0
M  V30 21353 H 2018.21 4.75461 2.21443 0
M  V30 21354 H 2019.69 4.03565 3.76615 0
M  V30 21355 H 2020.16 2.34014 3.71664 0
M  V30 21356 H 2020.77 3.45928 2.47415 0
M  V30 21357 N 2019.08 -0.63804 1.44107 0
M  V30 21358 C 2020.03 -1.75032 1.5044 0
M  V30 21359 C 2021 -1.62312 0.352721 0
M  V30 21360 O 2022.19 -1.82335 0.562 0
M  V30 21361 C 2019.33 -3.13253 1.44798 0
M  V30 21362 C 2018.44 -3.37 2.70287 0
M  V30 21363 C 2017.57 -4.65154 2.56526 0
M  V30 21364 C 2016.61 -4.82055 3.77212 0
M  V30 21365 N 2015.75 -6.0148 3.62169 0
M  V30 21366 H 2020.59 -1.68954 2.45476 0
M  V30 21367 H 2018.13 -0.82428 1.21836 0
M  V30 21368 H 2020.09 -3.9318 1.39518 0
M  V30 21369 H 2018.72 -3.18364 0.53334 0
M  V30 21370 H 2017.77 -2.51062 2.85783 0
M  V30 21371 H 2019.08 -3.4537 3.5989 0
M  V30 21372 H 2018.23 -5.5323 2.4904 0
M  V30 21373 H 2016.97 -4.5913 1.64472 0
M  V30 21374 H 2015.98 -3.9241 3.8509 0
M  V30 21375 H 2017.2 -4.89898 4.70294 0
M  V30 21376 H 2015.15 -5.96559 2.72861 0
M  V30 21377 H 2015.07 -6.10876 4.45384 0
M  V30 21378 H 2016.33 -6.92137 3.58562 0
M  V30 21379 N 2020.56 -1.3089 -0.877815 0
M  V30 21380 C 2021.97 -1.18126 -1.44579 0
M  V30 21381 C 2022.32 0.215306 -1.95015 0
M  V30 21382 O 2021.45 1.11252 -1.85613 0
M  V30 21383 C 2022.04 -2.13835 -2.62793 0
M  V30 21384 C 2020.6 -2.05028 -3.15659 0
M  V30 21385 C 2019.75 -2.03509 -1.88359 0
M  V30 21386 H 2022.7 -1.43056 -0.687082 0
M  V30 21387 H 2022.72 -1.72337 -3.39235 0
M  V30 21388 H 2022.23 -3.1547 -2.26054 0
M  V30 21389 H 2020.34 -1.0656 -3.57037 0
M  V30 21390 H 2020.45 -2.9376 -3.78473 0
M  V30 21391 H 2018.81 -1.48412 -2.06992 0
M  V30 21392 H 2019.6 -3.06887 -1.53869 0
M  V30 21393 N 2022.04 1.0911 -1.13723 0
M  V30 21394 C 2022.95 2.19388 -0.831037 0
M  V30 21395 C 2023.97 1.73007 0.185658 0
M  V30 21396 O 2025.14 2.01394 0.015917 0
M  V30 21397 C 2022.21 3.45355 -0.305036 0
M  V30 21398 C 2021.27 4.064 -1.38338 0
M  V30 21399 C 2020.5 5.26355 -0.882388 0
M  V30 21400 O 2020.72 5.69718 0.278833 0
M  V30 21401 O 2019.66 5.78609 -1.65816 0
M  V30 21402 H 2023.48 2.48037 -1.75246 0
M  V30 21403 H 2021.07 1.18108 -0.91493 0
M  V30 21404 H 2022.95 4.21396 -0.0172636 0
M  V30 21405 H 2021.63 3.18301 0.588762 0
M  V30 21406 H 2020.53 3.31981 -1.72452 0
M  V30 21407 H 2021.87 4.37688 -2.25144 0
M  V30 21408 N 2023.52 0.931232 1.27145 0
M  V30 21409 C 2024.77 0.573527 1.94208 0
M  V30 21410 C 2025.09 -0.885797 1.73159 0
M  V30 21411 O 2024.35 -1.64765 1.05598 0
M  V30 21412 C 2024.65 0.850081 3.47143 0
M  V30 21413 C 2024.31 2.29171 3.88319 0
M  V30 21414 C 2022.98 2.68581 3.99271 0
M  V30 21415 C 2025.33 3.22903 4.09125 0
M  V30 21416 C 2022.66 4.00841 4.2842 0
M  V30 21417 C 2025.01 4.54747 4.39759 0
M  V30 21418 C 2023.67 4.93987 4.48924 0
M  V30 21419 H 2022.94 0.209868 0.710659 0
M  V30 21420 H 2025.59 1.17586 1.51148 0
M  V30 21421 H 2023.89 0.165107 3.91452 0
M  V30 21422 H 2025.59 0.552233 3.97179 0
M  V30 21423 H 2022.18 1.97597 3.80334 0
M  V30 21424 H 2026.36 2.93656 4.001 0
M  V30 21425 H 2021.62 4.3092 4.33726 0
M  V30 21426 H 2025.79 5.27377 4.54804 0
M  V30 21427 H 2023.42 5.96501 4.71265 0
M  V30 21428 N 2025 -1.41343 0.697132 0
M  V30 21429 C 2025.95 -2.3259 0.0214207 0
M  V30 21430 C 2026.94 -1.51048 -0.766873 0
M  V30 21431 O 2028.15 -1.66973 -0.672319 0
M  V30 21432 H 2024.52 -0.751906 -0.0118741 0
M  V30 21433 H 2026.49 -2.87252 0.808025 0
M  V30 21434 C 2025.24 -3.35853 -0.899884 0
M  V30 21435 H 2024.56 -3.98652 -0.302721 0
M  V30 21436 H 2026 -4.02236 -1.34097 0
M  V30 21437 C 2024.46 -2.69865 -2.01679 0
M  V30 21438 O 2024.99 -2.54768 -3.10574 0
M  V30 21439 N 2023.2 -2.28536 -1.79498 0
M  V30 21440 H 2022.75 -2.41015 -0.909364 0
M  V30 21441 H 2022.7 -1.8472 -2.54413 0
M  V30 21442 N 2026.48 -0.441993 -1.51275 0
M  V30 21443 C 2027.42 0.381441 -2.29451 0
M  V30 21444 C 2028.42 1.01672 -1.35496 0
M  V30 21445 O 2029.62 0.95115 -1.52817 0
M  V30 21446 H 2026 0.141826 -0.738505 0
M  V30 21447 H 2027.97 -0.298692 -2.96901 0
M  V30 21448 C 2026.72 1.46756 -3.15211 0
M  V30 21449 H 2026.04 0.988092 -3.87397 0
M  V30 21450 H 2027.48 2.01687 -3.72959 0
M  V30 21451 C 2025.94 2.4534 -2.30889 0
M  V30 21452 O 2026.47 3.49979 -1.97173 0
M  V30 21453 N 2024.68 2.16342 -1.94022 0
M  V30 21454 H 2024.22 1.31276 -2.2164 0
M  V30 21455 H 2024.18 2.82543 -1.37902 0
M  V30 21456 N 2027.95 1.56642 -0.173515 0
M  V30 21457 C 2028.9 2.14667 0.768251 0
M  V30 21458 C 2029.89 1.0815 1.19132 0
M  V30 21459 O 2031.08 1.34267 1.15331 0
M  V30 21460 C 2028.21 2.79269 1.99659 0
M  V30 21461 C 2027.29 3.92947 1.59541 0
M  V30 21462 N 2027.69 4.97657 0.903929 0
M  V30 21463 C 2025.98 4.04148 1.88627 0
M  V30 21464 C 2026.68 5.77399 0.706055 0
M  V30 21465 N 2025.66 5.29076 1.24817 0
M  V30 21466 H 2029.46 2.92991 0.230996 0
M  V30 21467 H 2026.98 1.62377 0.0270838 0
M  V30 21468 H 2028.97 3.19217 2.68153 0
M  V30 21469 H 2027.63 2.02427 2.53877 0
M  V30 21470 H 2028.64 5.14845 0.561736 0
M  V30 21471 H 2025.32 3.38411 2.44508 0
M  V30 21472 H 2026.71 6.71712 0.159077 0
M  V30 21473 N 2029.43 -0.1002 1.57281 0
M  V30 21474 C 2030.38 -1.12192 2.01697 0
M  V30 21475 C 2031.35 -1.40092 0.892374 0
M  V30 21476 O 2032.53 -1.51641 1.158 0
M  V30 21477 C 2029.67 -2.43833 2.44212 0
M  V30 21478 C 2028.79 -2.22707 3.70169 0
M  V30 21479 C 2027.92 -3.47711 4.01585 0
M  V30 21480 C 2026.96 -3.21825 5.20668 0
M  V30 21481 N 2026.1 -4.39081 5.47862 0
M  V30 21482 H 2030.94 -0.736171 2.88764 0
M  V30 21483 H 2028.47 -0.351977 1.42827 0
M  V30 21484 H 2030.43 -3.20652 2.66904 0
M  V30 21485 H 2029.06 -2.80264 1.60162 0
M  V30 21486 H 2028.11 -1.36715 3.54983 0
M  V30 21487 H 2029.43 -1.99568 4.57137 0
M  V30 21488 H 2028.58 -4.3294 4.25027 0
M  V30 21489 H 2027.32 -3.739 3.1313 0
M  V30 21490 H 2026.32 -2.34988 4.97052 0
M  V30 21491 H 2027.55 -2.96987 6.10717 0
M  V30 21492 H 2025.5 -4.65355 4.62364 0
M  V30 21493 H 2025.41 -4.19114 6.2919 0
M  V30 21494 H 2026.68 -5.2539 5.75835 0
M  V30 21495 N 2030.91 -1.53174 -0.370891 0
M  V30 21496 C 2032.19 -1.59697 -1.12943 0
M  V30 21497 C 2032.57 -0.401233 -2.07252 0
M  V30 21498 O 2031.91 0.608973 -2.20236 0
M  V30 21499 C 2032.12 -2.94469 -1.87321 0
M  V30 21500 C 2033.47 -3.48856 -2.42043 0
M  V30 21501 O 2034.5 -2.96463 -1.97455 0
M  V30 21502 O 2033.36 -4.40436 -3.2354 0
M  V30 21503 H 2030.45 -0.644835 -0.5178 0
M  V30 21504 H 2033 -1.65514 -0.374583 0
M  V30 21505 H 2031.77 -3.72938 -1.18462 0
M  V30 21506 H 2031.39 -2.92119 -2.69727 0
M  V30 21507 N 2032.39 0.630389 -1.44443 0
M  V30 21508 C 2033.62 1.41507 -1.5053 0
M  V30 21509 C 2034.03 1.88759 -0.129099 0
M  V30 21510 O 2033.37 1.61501 0.8754 0
M  V30 21511 C 2033.43 2.6686 -2.40886 0
M  V30 21512 C 2033.09 2.41399 -3.88041 0
M  V30 21513 C 2034.09 2.03181 -4.78554 0
M  V30 21514 C 2031.78 2.55016 -4.3275 0
M  V30 21515 C 2033.77 1.78909 -6.11776 0
M  V30 21516 C 2031.46 2.30359 -5.6602 0
M  V30 21517 C 2032.46 1.92364 -6.55351 0
M  V30 21518 O 2032.14 1.67981 -7.86154 0
M  V30 21519 H 2031.88 0.440388 -0.512869 0
M  V30 21520 H 2034.43 0.778074 -1.90093 0
M  V30 21521 H 2032.66 3.33199 -1.96252 0
M  V30 21522 H 2034.35 3.28864 -2.37915 0
M  V30 21523 H 2035.11 1.92217 -4.45284 0
M  V30 21524 H 2030.99 2.8356 -3.63476 0
M  V30 21525 H 2034.54 1.49178 -6.81463 0
M  V30 21526 H 2030.43 2.40932 -5.9885 0
M  V30 21527 H 2031.2 1.82221 -7.97959 0
M  V30 21528 N 2033.87 1.31354 0.870861 0
M  V30 21529 C 2034.83 1.18889 1.95954 0
M  V30 21530 C 2035.83 0.116227 1.60379 0
M  V30 21531 O 2037.02 0.365426 1.70324 0
M  V30 21532 C 2034.15 0.824704 3.30774 0
M  V30 21533 H 2035.34 2.15624 2.08438 0
M  V30 21534 H 2032.9 1.14952 1.05904 0
M  V30 21535 H 2033.63 -0.141533 3.23991 0
M  V30 21536 H 2033.42 1.60006 3.57967 0
M  V30 21537 H 2034.91 0.761361 4.10601 0
M  V30 21538 N 2035.34 -1.08505 1.143 0
M  V30 21539 C 2036.28 -2.15273 0.786783 0
M  V30 21540 C 2037.29 -1.61618 -0.195861 0
M  V30 21541 O 2038.48 -1.78481 0.0257031 0
M  V30 21542 C 2035.58 -3.38581 0.147036 0
M  V30 21543 C 2034.75 -4.21623 1.16415 0
M  V30 21544 C 2033.81 -5.23335 0.548355 0
M  V30 21545 O 2032.84 -5.56168 1.21104 0
M  V30 21546 N 2034.04 -5.76558 -0.67533 0
M  V30 21547 H 2036.8 -2.46436 1.70557 0
M  V30 21548 H 2034.36 -1.24306 1.03728 0
M  V30 21549 H 2036.36 -4.03748 -0.277407 0
M  V30 21550 H 2034.93 -3.05228 -0.674862 0
M  V30 21551 H 2034.15 -3.5245 1.76557 0
M  V30 21552 H 2035.43 -4.73925 1.85128 0
M  V30 21553 H 2034.83 -5.52115 -1.23232 0
M  V30 21554 H 2033.39 -6.43412 -1.0423 0
M  V30 21555 N 2036.82 -0.937962 -1.26649 0
M  V30 21556 C 2037.73 -0.451023 -2.30224 0
M  V30 21557 C 2038.75 0.473402 -1.67436 0
M  V30 21558 O 2039.92 0.353715 -1.9827 0
M  V30 21559 C 2036.99 0.278943 -3.45576 0
M  V30 21560 C 2036.05 -0.681649 -4.23854 0
M  V30 21561 C 2035.28 0.0135756 -5.33698 0
M  V30 21562 O 2035.51 1.2311 -5.56956 0
M  V30 21563 O 2034.44 -0.663486 -5.98232 0
M  V30 21564 H 2038.27 -1.31129 -2.73932 0
M  V30 21565 H 2035.85 -0.703717 -1.31788 0
M  V30 21566 H 2037.73 0.690262 -4.15708 0
M  V30 21567 H 2036.41 1.11465 -3.03903 0
M  V30 21568 H 2035.31 -1.14285 -3.56216 0
M  V30 21569 H 2036.65 -1.48488 -4.69268 0
M  V30 21570 N 2038.3 1.40971 -0.704618 0
M  V30 21571 C 2039.25 2.30756 -0.0450323 0
M  V30 21572 C 2040.22 1.47598 0.761835 0
M  V30 21573 O 2041.4 1.76365 0.728023 0
M  V30 21574 C 2038.54 3.33723 0.878802 0
M  V30 21575 C 2037.65 4.31955 0.0625832 0
M  V30 21576 C 2036.79 5.2199 0.984889 0
M  V30 21577 C 2035.83 6.11885 0.16211 0
M  V30 21578 N 2034.97 6.94374 1.0387 0
M  V30 21579 H 2039.81 2.86598 -0.816414 0
M  V30 21580 H 2037.34 1.41145 -0.414306 0
M  V30 21581 H 2039.3 3.9198 1.42856 0
M  V30 21582 H 2037.93 2.79409 1.61648 0
M  V30 21583 H 2036.98 3.75571 -0.604216 0
M  V30 21584 H 2038.29 4.95476 -0.574897 0
M  V30 21585 H 2037.45 5.85125 1.60356 0
M  V30 21586 H 2036.19 4.58717 1.65621 0
M  V30 21587 H 2035.19 5.47791 -0.469576 0
M  V30 21588 H 2036.42 6.77216 -0.505547 0
M  V30 21589 H 2034.36 6.337 1.69588 0
M  V30 21590 H 2034.28 7.54617 0.457006 0
M  V30 21591 H 2035.55 7.61969 1.6439 0
M  V30 21592 N 2039.78 0.45001 1.51039 0
M  V30 21593 C 2041.19 -0.0101397 1.86697 0
M  V30 21594 C 2041.54 -1.40804 1.36633 0
M  V30 21595 O 2040.67 -2.03986 0.722411 0
M  V30 21596 C 2041.26 -0.0251761 3.38791 0
M  V30 21597 C 2039.82 -0.429779 3.73938 0
M  V30 21598 C 2038.97 0.369286 2.7483 0
M  V30 21599 H 2041.92 0.665278 1.44082 0
M  V30 21600 H 2041.94 -0.831964 3.71293 0
M  V30 21601 H 2041.45 0.992361 3.75198 0
M  V30 21602 H 2039.55 -1.45245 3.43125 0
M  V30 21603 H 2039.66 -0.145773 4.78878 0
M  V30 21604 H 2038.03 -0.174158 2.54104 0
M  V30 21605 H 2038.81 1.38594 3.14081 0
M  V30 21606 N 2041.26 -1.56548 0.18182 0
M  V30 21607 C 2042.48 -2.02015 -0.469543 0
M  V30 21608 C 2042.91 -1.06119 -1.55307 0
M  V30 21609 O 2042.26 -0.0424595 -1.8125 0
M  V30 21610 C 2042.31 -3.46016 -1.01515 0
M  V30 21611 O 2041.42 -3.53215 -2.12869 0
M  V30 21612 H 2040.76 -0.65461 -0.111273 0
M  V30 21613 H 2043.29 -2.02552 0.288798 0
M  V30 21614 H 2043.3 -3.85537 -1.33511 0
M  V30 21615 H 2041.97 -4.15308 -0.22188 0
M  V30 21616 H 2040.55 -3.2556 -1.81838 0
M  V30 21617 N 2042.73 0.0918577 -1.57332 0
M  V30 21618 C 2044.15 0.446151 -1.53237 0
M  V30 21619 C 2044.35 1.80332 -0.899027 0
M  V30 21620 O 2043.41 2.47642 -0.492921 0
M  V30 21621 C 2044.72 0.405662 -2.97951 0
M  V30 21622 C 2046.27 0.487286 -3.09184 0
M  V30 21623 C 2046.74 0.476912 -4.5551 0
M  V30 21624 N 2048.23 0.537573 -4.6007 0
M  V30 21625 C 2048.97 0.551436 -5.70742 0
M  V30 21626 N 2048.46 0.521312 -6.90836 0
M  V30 21627 N 2050.26 0.59649 -5.58926 0
M  V30 21628 H 2042.41 -0.797061 -1.96877 0
M  V30 21629 H 2044.67 -0.297022 -0.900268 0
M  V30 21630 H 2044.38 -0.524467 -3.47768 0
M  V30 21631 H 2044.25 1.22343 -3.56808 0
M  V30 21632 H 2046.64 1.40783 -2.59353 0
M  V30 21633 H 2046.72 -0.358678 -2.53273 0
M  V30 21634 H 2046.36 -0.439705 -5.05993 0
M  V30 21635 H 2046.29 1.34013 -5.09262 0
M  V30 21636 H 2048.78 0.565916 -3.73639 0
M  V30 21637 H 2049.1 0.535263 -7.70944 0
M  V30 21638 H 2047.44 0.48831 -6.93282 0
M  V30 21639 H 2050.63 0.617576 -4.64008 0
M  V30 21640 H 2050.81 0.603826 -6.45181 0
M  V30 21641 N 2044.21 1.53368 0.362763 0
M  V30 21642 C 2045.14 1.82984 1.45048 0
M  V30 21643 C 2046.12 0.683544 1.55762 0
M  V30 21644 O 2047.31 0.933658 1.70283 0
M  V30 21645 C 2044.44 2.02227 2.8235 0
M  V30 21646 C 2043.39 3.18002 2.86459 0
M  V30 21647 C 2042.72 3.22543 4.26463 0
M  V30 21648 C 2044.02 4.56531 2.53726 0
M  V30 21649 H 2045.71 2.74075 1.20513 0
M  V30 21650 H 2043.26 1.31877 0.578302 0
M  V30 21651 H 2045.21 2.21529 3.58473 0
M  V30 21652 H 2043.94 1.07849 3.08279 0
M  V30 21653 H 2042.59 2.98525 2.12787 0
M  V30 21654 H 2042.24 2.25797 4.49472 0
M  V30 21655 H 2041.94 4.00331 4.30127 0
M  V30 21656 H 2043.47 3.44032 5.04455 0
M  V30 21657 H 2044.88 4.75975 3.19563 0
M  V30 21658 H 2043.28 5.36581 2.68703 0
M  V30 21659 H 2044.35 4.61451 1.48967 0
M  V30 21660 N 2045.69 -0.62272 1.44776 0
M  V30 21661 C 2046.64 -1.73427 1.52288 0
M  V30 21662 C 2047.61 -1.61928 0.369917 0
M  V30 21663 O 2048.79 -1.81729 0.581308 0
M  V30 21664 C 2045.93 -3.117 1.48112 0
M  V30 21665 C 2045.05 -3.34114 2.73847 0
M  V30 21666 C 2044.18 -4.62407 2.61445 0
M  V30 21667 C 2043.22 -4.78027 3.82304 0
M  V30 21668 N 2042.36 -5.97605 3.68528 0
M  V30 21669 H 2047.2 -1.66341 2.47254 0
M  V30 21670 H 2044.73 -0.811311 1.22704 0
M  V30 21671 H 2046.69 -3.91678 1.4368 0
M  V30 21672 H 2045.32 -3.1778 0.567076 0
M  V30 21673 H 2044.37 -2.48017 2.8843 0
M  V30 21674 H 2045.69 -3.41533 3.63533 0
M  V30 21675 H 2044.84 -5.50558 2.54894 0
M  V30 21676 H 2043.58 -4.5736 1.69333 0
M  V30 21677 H 2042.58 -3.88303 3.89231 0
M  V30 21678 H 2043.81 -4.84883 4.75464 0
M  V30 21679 H 2041.75 -5.93631 2.79173 0
M  V30 21680 H 2041.67 -6.06118 4.51838 0
M  V30 21681 H 2042.94 -6.88295 3.65883 0
M  V30 21682 N 2047.17 -1.31814 -0.863883 0
M  V30 21683 C 2048.1 -1.15798 -1.97796 0
M  V30 21684 C 2049.11 -0.0954225 -1.6252 0
M  V30 21685 O 2050.3 -0.343504 -1.75164 0
M  V30 21686 C 2047.4 -0.748332 -3.30535 0
M  V30 21687 C 2046.58 -1.89721 -3.94113 0
M  V30 21688 C 2045.63 -1.47262 -5.05174 0
M  V30 21689 O 2044.66 -2.18322 -5.25666 0
M  V30 21690 N 2045.86 -0.363428 -5.79361 0
M  V30 21691 H 2048.63 -2.11761 -2.12079 0
M  V30 21692 H 2046.19 -1.24229 -1.03821 0
M  V30 21693 H 2048.18 -0.446875 -4.02225 0
M  V30 21694 H 2046.75 0.119862 -3.1237 0
M  V30 21695 H 2045.97 -2.36566 -3.15326 0
M  V30 21696 H 2047.26 -2.66657 -4.33326 0
M  V30 21697 H 2046.66 0.228215 -5.65239 0
M  V30 21698 H 2045.21 -0.121534 -6.51687 0
M  V30 21699 N 2048.65 1.07897 -1.14873 0
M  V30 21700 C 2050.06 1.32467 -0.89021 0
M  V30 21701 C 2050.26 1.96041 0.46584 0
M  V30 21702 O 2049.32 2.21675 1.20899 0
M  V30 21703 C 2050.63 2.22118 -2.02692 0
M  V30 21704 C 2052.18 2.35583 -2.06082 0
M  V30 21705 C 2052.65 3.28579 -3.19061 0
M  V30 21706 N 2054.15 3.36158 -3.18673 0
M  V30 21707 C 2054.88 4.0816 -4.02731 0
M  V30 21708 N 2054.38 4.82826 -4.96841 0
M  V30 21709 N 2056.17 4.04045 -3.90774 0
M  V30 21710 H 2048.32 0.650155 -2.02205 0
M  V30 21711 H 2050.58 0.349072 -0.881393 0
M  V30 21712 H 2050.29 1.82656 -3.00549 0
M  V30 21713 H 2050.16 3.22612 -1.95452 0
M  V30 21714 H 2052.55 2.743 -1.08829 0
M  V30 21715 H 2052.63 1.34812 -2.17392 0
M  V30 21716 H 2052.28 2.90582 -4.16563 0
M  V30 21717 H 2052.21 4.2929 -3.04988 0
M  V30 21718 H 2054.7 2.82932 -2.50515 0
M  V30 21719 H 2055.01 5.35244 -5.57434 0
M  V30 21720 H 2053.35 4.81861 -5.00834 0
M  V30 21721 H 2056.55 3.44823 -3.16567 0
M  V30 21722 H 2056.72 4.59895 -4.56509 0
M  V30 21723 N 2050.12 0.944665 1.2615 0
M  V30 21724 C 2051.37 0.594093 1.93589 0
M  V30 21725 C 2051.7 -0.867382 1.74088 0
M  V30 21726 O 2050.95 -1.63636 1.07339 0
M  V30 21727 C 2051.25 0.886852 3.46222 0
M  V30 21728 C 2050.92 2.33276 3.85867 0
M  V30 21729 C 2049.58 2.72801 3.964 0
M  V30 21730 C 2051.93 3.27224 4.05677 0
M  V30 21731 C 2049.26 4.05362 4.24144 0
M  V30 21732 C 2051.61 4.59386 4.34911 0
M  V30 21733 C 2050.28 4.98721 4.4366 0
M  V30 21734 H 2049.55 0.217394 0.708393 0
M  V30 21735 H 2052.19 1.19183 1.49892 0
M  V30 21736 H 2050.5 0.206616 3.91255 0
M  V30 21737 H 2052.2 0.594328 3.96571 0
M  V30 21738 H 2048.79 2.01619 3.78216 0
M  V30 21739 H 2052.97 2.97883 3.96963 0
M  V30 21740 H 2048.23 4.35496 4.29131 0
M  V30 21741 H 2052.4 5.32171 4.49185 0
M  V30 21742 H 2050.03 6.01466 4.64911 0
M  V30 21743 N 2051.6 -1.40596 0.712085 0
M  V30 21744 C 2052.53 -2.33389 0.0719438 0
M  V30 21745 C 2053.51 -1.52706 -0.749334 0
M  V30 21746 O 2054.7 -1.81185 -0.698968 0
M  V30 21747 C 2051.83 -3.36659 -0.853122 0
M  V30 21748 C 2050.78 -4.27778 -0.137724 0
M  V30 21749 C 2050.11 -5.21556 -1.17827 0
M  V30 21750 C 2051.41 -5.12521 1.00597 0
M  V30 21751 H 2053.1 -2.87169 0.847002 0
M  V30 21752 H 2050.65 -1.38077 0.408756 0
M  V30 21753 H 2052.6 -4.00511 -1.31031 0
M  V30 21754 H 2051.33 -2.81266 -1.66004 0
M  V30 21755 H 2049.98 -3.65374 0.299603 0
M  V30 21756 H 2049.63 -4.6247 -1.97814 0
M  V30 21757 H 2049.33 -5.83361 -0.704503 0
M  V30 21758 H 2050.86 -5.88285 -1.63563 0
M  V30 21759 H 2052.27 -5.69847 0.62831 0
M  V30 21760 H 2050.67 -5.83351 1.40789 0
M  V30 21761 H 2051.74 -4.48706 1.83822 0
M  V30 21762 N 2053.08 -0.458013 -1.50798 0
M  V30 21763 C 2054.01 0.333063 -2.31112 0
M  V30 21764 C 2054.99 1.00231 -1.37433 0
M  V30 21765 O 2056.18 1.00199 -1.66354 0
M  V30 21766 C 2053.31 1.4229 -3.16814 0
M  V30 21767 C 2052.26 0.875993 -4.1894 0
M  V30 21768 C 2051.59 2.06313 -4.93294 0
M  V30 21769 C 2052.89 -0.103786 -5.22197 0
M  V30 21770 H 2054.58 -0.337222 -2.97495 0
M  V30 21771 H 2052.13 -0.163622 -1.43067 0
M  V30 21772 H 2054.08 1.98369 -3.7179 0
M  V30 21773 H 2052.8 2.12177 -2.48291 0
M  V30 21774 H 2051.46 0.337263 -3.65045 0
M  V30 21775 H 2051.11 2.74868 -4.21256 0
M  V30 21776 H 2050.81 1.70348 -5.62366 0
M  V30 21777 H 2052.33 2.62908 -5.511 0
M  V30 21778 H 2053.75 0.367392 -5.72122 0
M  V30 21779 H 2052.15 -0.377048 -5.98914 0
M  V30 21780 H 2053.22 -1.03392 -4.73749 0
M  V30 21781 N 2054.56 1.56449 -0.190119 0
M  V30 21782 C 2055.98 1.58736 0.165798 0
M  V30 21783 C 2056.18 1.20613 1.61414 0
M  V30 21784 O 2055.23 0.926541 2.34886 0
M  V30 21785 C 2056.54 3.0041 -0.132051 0
M  V30 21786 C 2058.09 3.12918 -0.0717601 0
M  V30 21787 C 2058.57 4.56715 -0.342852 0
M  V30 21788 N 2060.06 4.62283 -0.291293 0
M  V30 21789 C 2060.79 5.71429 -0.474968 0
M  V30 21790 N 2060.29 6.89062 -0.718722 0
M  V30 21791 N 2062.08 5.60606 -0.409568 0
M  V30 21792 H 2054.23 1.79512 -1.1353 0
M  V30 21793 H 2056.5 0.832888 -0.452771 0
M  V30 21794 H 2056.2 3.32845 -1.13609 0
M  V30 21795 H 2056.08 3.72904 0.567676 0
M  V30 21796 H 2058.46 2.80298 0.922882 0
M  V30 21797 H 2058.54 2.4282 -0.804488 0
M  V30 21798 H 2058.19 4.90047 -1.33479 0
M  V30 21799 H 2058.12 5.24996 0.410707 0
M  V30 21800 H 2060.61 3.77742 -0.109306 0
M  V30 21801 H 2060.92 7.68135 -0.847818 0
M  V30 21802 H 2059.27 6.90881 -0.755557 0
M  V30 21803 H 2062.46 4.67585 -0.219592 0
M  V30 21804 H 2062.63 6.45609 -0.556132 0
M  V30 21805 N 2056.04 -0.0835127 1.57379 0
M  V30 21806 C 2057.45 -0.438018 1.53472 0
M  V30 21807 C 2057.65 -1.79853 0.908578 0
M  V30 21808 O 2056.71 -2.47377 0.506047 0
M  V30 21809 C 2058.02 -0.389855 2.98162 0
M  V30 21810 C 2059.57 -0.470883 3.09438 0
M  V30 21811 C 2060.05 -0.452749 4.55757 0
M  V30 21812 N 2061.54 -0.513166 4.60349 0
M  V30 21813 C 2062.27 -0.52116 5.71027 0
M  V30 21814 N 2061.77 -0.484668 6.91103 0
M  V30 21815 N 2063.56 -0.566841 5.59235 0
M  V30 21816 H 2055.71 0.807491 1.96452 0
M  V30 21817 H 2057.97 0.301793 0.89868 0
M  V30 21818 H 2057.68 0.542902 3.47484 0
M  V30 21819 H 2057.55 -1.20449 3.57452 0
M  V30 21820 H 2059.94 -1.39406 2.60096 0
M  V30 21821 H 2060.02 0.372104 2.53079 0
M  V30 21822 H 2059.67 0.466533 5.05753 0
M  V30 21823 H 2059.6 -1.31311 5.09966 0
M  V30 21824 H 2062.09 -0.546093 3.73933 0
M  V30 21825 H 2062.4 -0.494371 7.71217 0
M  V30 21826 H 2060.75 -0.451537 6.93532 0
M  V30 21827 H 2063.94 -0.59296 4.64329 0
M  V30 21828 H 2064.11 -0.569602 6.45492 0
M  V30 21829 N 2057.52 -1.53558 -0.354624 0
M  V30 21830 C 2058.74 -1.74194 -1.11643 0
M  V30 21831 C 2059.16 -0.475943 -1.82703 0
M  V30 21832 O 2058.52 0.551798 -1.73958 0
M  V30 21833 C 2058.57 -2.91471 -2.13839 0
M  V30 21834 O 2058.29 -4.13173 -1.45671 0
M  V30 21835 C 2059.79 -3.24068 -3.02481 0
M  V30 21836 H 2057.01 -0.58232 -0.333383 0
M  V30 21837 H 2059.55 -2.00344 -0.410204 0
M  V30 21838 H 2057.71 -2.67684 -2.80043 0
M  V30 21839 H 2058.12 -4.78924 -2.13851 0
M  V30 21840 H 2059.6 -4.09506 -3.70147 0
M  V30 21841 H 2060.07 -2.39897 -3.67894 0
M  V30 21842 H 2060.68 -3.4982 -2.4188 0
M  V30 21843 N 2058.99 0.615033 -1.45104 0
M  V30 21844 C 2059.94 1.72617 -1.53206 0
M  V30 21845 C 2060.91 1.6173 -0.378499 0
M  V30 21846 O 2062.1 1.81418 -0.590937 0
M  V30 21847 C 2059.24 3.1091 -1.49763 0
M  V30 21848 C 2058.35 3.32657 -2.75615 0
M  V30 21849 C 2057.48 4.61014 -2.63894 0
M  V30 21850 C 2056.52 4.75993 -3.84834 0
M  V30 21851 N 2055.66 5.95642 -3.71692 0
M  V30 21852 H 2060.5 1.65028 -2.48133 0
M  V30 21853 H 2058.04 0.804792 -1.23132 0
M  V30 21854 H 2059.99 3.90911 -1.45755 0
M  V30 21855 H 2058.62 3.17475 -0.583921 0
M  V30 21856 H 2057.68 2.46484 -2.89741 0
M  V30 21857 H 2058.99 3.39601 -3.65339 0
M  V30 21858 H 2058.14 5.49198 -2.5781 0
M  V30 21859 H 2056.88 4.56455 -1.71756 0
M  V30 21860 H 2055.89 3.86234 -3.91284 0
M  V30 21861 H 2057.11 4.82354 -4.78028 0
M  V30 21862 H 2055.06 5.92143 -2.82318 0
M  V30 21863 H 2054.97 6.03713 -4.55046 0
M  V30 21864 H 2056.24 6.86345 -3.69528 0
M  V30 21865 N 2060.47 1.3227 0.85688 0
M  V30 21866 C 2061.88 1.20411 1.42682 0
M  V30 21867 C 2062.23 -0.184254 1.95333 0
M  V30 21868 O 2061.36 -1.08285 1.87359 0
M  V30 21869 C 2061.95 2.17989 2.59358 0
M  V30 21870 C 2060.51 2.10024 3.12357 0
M  V30 21871 C 2059.66 2.0648 1.85098 0
M  V30 21872 H 2062.61 1.4413 0.664236 0
M  V30 21873 H 2062.63 1.77712 3.3645 0
M  V30 21874 H 2062.14 3.19026 2.21007 0
M  V30 21875 H 2060.24 1.12227 3.55297 0
M  V30 21876 H 2060.36 2.99744 3.73752 0
M  V30 21877 H 2058.72 1.51687 2.04605 0
M  V30 21878 H 2059.5 3.09296 1.48967 0
M  V30 21879 N 2061.95 -1.07287 1.15444 0
M  V30 21880 C 2063.23 -1.76634 0.840221 0
M  V30 21881 C 2063.61 -2.00384 -0.664037 0
M  V30 21882 O 2062.95 -1.62284 -1.60861 0
M  V30 21883 C 2063.16 -3.07439 1.65174 0
M  V30 21884 C 2064.51 -3.81773 1.85835 0
M  V30 21885 O 2065.54 -3.17252 1.61955 0
M  V30 21886 O 2064.4 -4.97656 2.25834 0
M  V30 21887 H 2061.49 -0.76708 0.309059 0
M  V30 21888 H 2064.04 -1.13646 1.26026 0
M  V30 21889 H 2062.81 -2.85774 2.67299 0
M  V30 21890 H 2062.43 -3.78159 1.22807 0
M  V30 21891 N 2063.43 -0.951342 -1.25647 0
M  V30 21892 C 2064.66 -0.62053 -1.97061 0
M  V30 21893 C 2065.07 0.810902 -1.70942 0
M  V30 21894 O 2064.41 1.55361 -0.980235 0
M  V30 21895 C 2064.47 -0.795277 -3.50593 0
M  V30 21896 C 2064.13 -2.20325 -4.00382 0
M  V30 21897 C 2065.13 -3.17963 -4.11334 0
M  V30 21898 C 2062.82 -2.52655 -4.34132 0
M  V30 21899 C 2064.81 -4.46028 -4.55344 0
M  V30 21900 C 2062.5 -3.8095 -4.77829 0
M  V30 21901 C 2063.5 -4.77449 -4.88397 0
M  V30 21902 O 2063.18 -6.03457 -5.31126 0
M  V30 21903 H 2062.92 -0.231839 -0.635001 0
M  V30 21904 H 2065.47 -1.27722 -1.60861 0
M  V30 21905 H 2063.7 -0.0814441 -3.86614 0
M  V30 21906 H 2065.39 -0.46601 -4.03216 0
M  V30 21907 H 2066.15 -2.94311 -3.85494 0
M  V30 21908 H 2062.03 -1.78274 -4.25135 0
M  V30 21909 H 2065.58 -5.21351 -4.63508 0
M  V30 21910 H 2061.47 -4.0441 -5.03113 0
M  V30 21911 H 2062.24 -6.06786 -5.49321 0
M  V30 21912 N 2064.91 1.40216 -0.719531 0
M  V30 21913 C 2066.13 2.05647 -0.269106 0
M  V30 21914 C 2066.56 1.53865 1.082 0
M  V30 21915 O 2065.91 0.675703 1.68238 0
M  V30 21916 C 2065.96 3.59636 -0.263433 0
M  V30 21917 O 2065.07 4.05448 0.754058 0
M  V30 21918 H 2064.41 0.652036 -0.12548 0
M  V30 21919 H 2066.94 1.79542 -0.981119 0
M  V30 21920 H 2066.95 4.07871 -0.102475 0
M  V30 21921 H 2065.62 3.9669 -1.24939 0
M  V30 21922 H 2064.2 3.68664 0.560502 0
M  V30 21923 N 2066.38 0.466004 1.50553 0
M  V30 21924 C 2067.61 -0.0885768 2.0671 0
M  V30 21925 C 2068.03 -1.33958 1.33044 0
M  V30 21926 O 2067.38 -1.78102 0.398219 0
M  V30 21927 C 2067.43 -0.381842 3.59478 0
M  V30 21928 O 2067.16 0.81954 4.30366 0
M  V30 21929 C 2068.66 -0.98395 4.32242 0
M  V30 21930 H 2065.88 0.00481473 0.670983 0
M  V30 21931 H 2068.42 0.653327 1.93783 0
M  V30 21932 H 2066.58 -1.07367 3.72224 0
M  V30 21933 H 2066.99 0.56106 5.21491 0
M  V30 21934 H 2068.46 -1.13895 5.40122 0
M  V30 21935 H 2068.94 -1.97271 3.92404 0
M  V30 21936 H 2069.55 -0.330654 4.24013 0
M  V30 21937 N 2067.86 -1.56346 0.198413 0
M  V30 21938 C 2069.09 -2.02502 -0.44809 0
M  V30 21939 C 2069.51 -1.07761 -1.54173 0
M  V30 21940 O 2068.87 -0.0616812 -1.81195 0
M  V30 21941 C 2068.92 -3.47073 -0.978394 0
M  V30 21942 O 2068.02 -3.55452 -2.09111 0
M  V30 21943 H 2067.36 -0.655753 -0.104324 0
M  V30 21944 H 2069.89 -2.02234 0.310265 0
M  V30 21945 H 2069.9 -3.86931 -1.29415 0
M  V30 21946 H 2068.58 -4.1552 -0.177819 0
M  V30 21947 H 2067.15 -3.27471 -1.78375 0
M  V30 21948 N 2069.34 0.0751653 -1.57421 0
M  V30 21949 C 2070.29 1.09651 -1.99901 0
M  V30 21950 C 2071.27 1.34668 -0.880538 0
M  V30 21951 O 2072.47 1.35025 -1.14444 0
M  V30 21952 C 2069.6 2.41121 -2.44367 0
M  V30 21953 C 2068.68 2.19394 -3.62942 0
M  V30 21954 N 2069.07 1.67586 -4.7723 0
M  V30 21955 C 2067.37 2.4988 -3.69426 0
M  V30 21956 C 2068.07 1.60595 -5.59092 0
M  V30 21957 N 2067.05 2.06526 -5.0284 0
M  V30 21958 H 2070.85 0.689217 -2.85704 0
M  V30 21959 H 2068.36 0.282291 -1.59928 0
M  V30 21960 H 2070.36 3.15048 -2.73039 0
M  V30 21961 H 2069.02 2.82571 -1.5995 0
M  V30 21962 H 2070.03 1.36498 -4.99588 0
M  V30 21963 H 2066.71 2.94719 -2.95714 0
M  V30 21964 H 2068.1 1.21421 -6.60838 0
M  V30 21965 N 2070.82 1.53744 0.346476 0
M  V30 21966 C 2072.04 1.75095 1.1116 0
M  V30 21967 C 2072.47 0.487459 1.81674 0
M  V30 21968 O 2071.83 -0.55973 1.72443 0
M  V30 21969 C 2071.87 2.92927 2.103 0
M  V30 21970 O 2070.98 2.62871 3.17762 0
M  V30 21971 H 2070.32 0.580905 0.321629 0
M  V30 21972 H 2072.85 2.00696 0.397762 0
M  V30 21973 H 2072.86 3.19633 2.53572 0
M  V30 21974 H 2071.53 3.84566 1.58372 0
M  V30 21975 H 2070.11 2.47043 2.79328 0
M  V30 21976 N 2072.3 -0.607329 1.45428 0
M  V30 21977 C 2073.26 -1.69997 1.53732 0
M  V30 21978 C 2074.26 -1.55304 0.416799 0
M  V30 21979 O 2075.45 -1.60367 0.680287 0
M  V30 21980 C 2072.58 -3.09267 1.43411 0
M  V30 21981 H 2073.77 -1.64001 2.51085 0
M  V30 21982 H 2071.33 -0.82308 1.32872 0
M  V30 21983 H 2072.06 -3.2084 0.47243 0
M  V30 21984 H 2071.85 -3.2134 2.24685 0
M  V30 21985 H 2073.34 -3.88855 1.52255 0
M  V30 21986 N 2073.77 -1.32722 -0.849853 0
M  V30 21987 C 2075.19 -1.11818 -1.13882 0
M  V30 21988 C 2075.39 0.0981854 -2.01261 0
M  V30 21989 O 2074.45 0.781678 -2.40096 0
M  V30 21990 C 2075.76 -2.4001 -1.81151 0
M  V30 21991 C 2077.31 -2.45813 -1.93765 0
M  V30 21992 C 2077.78 -3.73939 -2.6445 0
M  V30 21993 N 2079.27 -3.74948 -2.71971 0
M  V30 21994 C 2080.01 -4.70792 -3.27326 0
M  V30 21995 N 2079.5 -5.77005 -3.83454 0
M  V30 21996 N 2081.3 -4.58282 -3.25475 0
M  V30 21997 H 2073.45 -2.10702 -0.26806 0
M  V30 21998 H 2075.71 -0.930482 -0.181405 0
M  V30 21999 H 2075.42 -3.28963 -1.24403 0
M  V30 22000 H 2075.29 -2.51333 -2.81267 0
M  V30 22001 H 2077.68 -1.57316 -2.49671 0
M  V30 22002 H 2077.76 -2.38439 -0.926307 0
M  V30 22003 H 2077.4 -4.62812 -2.09206 0
M  V30 22004 H 2077.33 -3.78586 -3.66034 0
M  V30 22005 H 2079.82 -2.9818 -2.32157 0
M  V30 22006 H 2080.14 -6.46188 -4.23864 0
M  V30 22007 H 2078.48 -5.80753 -3.81773 0
M  V30 22008 H 2081.67 -3.74468 -2.80876 0
M  V30 22009 H 2081.85 -5.3315 -3.68314 0
M  V30 22010 N 2075.25 1.06673 -1.16011 0
M  V30 22011 C 2076.18 2.16027 -0.886249 0
M  V30 22012 C 2077.16 1.69289 0.165907 0
M  V30 22013 O 2078.35 1.94191 0.0188181 0
M  V30 22014 C 2075.48 3.45189 -0.382329 0
M  V30 22015 C 2074.43 4.05415 -1.37195 0
M  V30 22016 C 2073.76 5.2974 -0.726594 0
M  V30 22017 C 2075.06 4.44642 -2.74027 0
M  V30 22018 H 2076.75 2.39195 -1.80073 0
M  V30 22019 H 2074.3 1.14957 -0.867232 0
M  V30 22020 H 2076.25 4.21023 -0.17824 0
M  V30 22021 H 2074.98 3.21629 0.567641 0
M  V30 22022 H 2073.63 3.31634 -1.56252 0
M  V30 22023 H 2073.28 5.02475 0.229742 0
M  V30 22024 H 2072.98 5.70993 -1.38709 0
M  V30 22025 H 2074.51 6.08274 -0.532437 0
M  V30 22026 H 2075.92 5.11574 -2.58775 0
M  V30 22027 H 2074.32 4.96868 -3.36515 0
M  V30 22028 H 2075.39 3.55684 -3.29571 0
M  V30 22029 N 2076.73 0.957992 1.25141 0
M  V30 22030 C 2077.96 0.631888 1.97015 0
M  V30 22031 C 2078.37 -0.796708 1.71167 0
M  V30 22032 O 2077.73 -1.53335 0.989683 0
M  V30 22033 C 2077.78 0.885137 3.50496 0
M  V30 22034 O 2077.5 2.25756 3.75454 0
M  V30 22035 C 2079 0.571882 4.39596 0
M  V30 22036 H 2076.22 0.236606 0.6279 0
M  V30 22037 H 2078.77 1.28328 1.59224 0
M  V30 22038 H 2076.92 0.280102 3.86386 0
M  V30 22039 H 2077.34 2.33023 4.69894 0
M  V30 22040 H 2078.81 0.799598 5.46178 0
M  V30 22041 H 2079.29 -0.493643 4.36417 0
M  V30 22042 H 2079.89 1.15639 4.09277 0
M  V30 22043 N 2078.21 -1.39832 0.726957 0
M  V30 22044 C 2079.12 -2.34453 0.0830837 0
M  V30 22045 C 2080.13 -1.579 -0.731009 0
M  V30 22046 O 2081.31 -1.90232 -0.661338 0
M  V30 22047 C 2078.38 -3.3688 -0.819324 0
M  V30 22048 C 2077.44 -4.293 0.00610659 0
M  V30 22049 C 2076.67 -5.26834 -0.853324 0
M  V30 22050 O 2076.89 -5.30641 -2.09228 0
M  V30 22051 O 2075.83 -6.01219 -0.286261 0
M  V30 22052 H 2079.65 -2.91155 0.863845 0
M  V30 22053 H 2077.24 -1.41221 0.487543 0
M  V30 22054 H 2079.12 -3.99665 -1.33589 0
M  V30 22055 H 2077.79 -2.82574 -1.57904 0
M  V30 22056 H 2076.7 -3.69763 0.568007 0
M  V30 22057 H 2078.03 -4.86789 0.727856 0
M  V30 22058 N 2079.69 -0.473982 -1.50304 0
M  V30 22059 C 2080.96 0.141727 -1.95086 0
M  V30 22060 C 2081.34 1.56703 -1.41447 0
M  V30 22061 O 2080.69 2.20021 -0.616691 0
M  V30 22062 C 2080.9 0.0820815 -3.48903 0
M  V30 22063 C 2082.25 0.26953 -4.23744 0
M  V30 22064 O 2083.27 0.158532 -3.55847 0
M  V30 22065 O 2082.13 0.494023 -5.44262 0
M  V30 22066 H 2079.23 0.110094 -0.819639 0
M  V30 22067 H 2081.77 -0.534591 -1.6106 0
M  V30 22068 H 2080.54 -0.912936 -3.80501 0
M  V30 22069 H 2080.17 0.799731 -3.89474 0
M  V30 22070 N 2081.16 1.56239 -0.206702 0
M  V30 22071 C 2082.41 1.98197 0.429627 0
M  V30 22072 C 2082.74 1.09386 1.60463 0
M  V30 22073 O 2082.02 0.148321 1.93934 0
M  V30 22074 C 2082.3 3.49218 0.878562 0
M  V30 22075 C 2082.15 4.48805 -0.299054 0
M  V30 22076 C 2083.47 4.04243 1.74 0
M  V30 22077 H 2080.59 0.720583 0.154691 0
M  V30 22078 H 2083.23 1.87617 -0.299957 0
M  V30 22079 H 2081.38 3.58365 1.50023 0
M  V30 22080 H 2083.06 4.51684 -0.936956 0
M  V30 22081 H 2081.3 4.23294 -0.948945 0
M  V30 22082 H 2081.97 5.5197 0.0577652 0
M  V30 22083 H 2084.45 3.97948 1.2156 0
M  V30 22084 H 2083.32 5.10259 2.02305 0
M  V30 22085 H 2083.58 3.50212 2.69823 0
M  V30 22086 N 2082.64 -0.0668159 1.57458 0
M  V30 22087 C 2083.57 -1.0791 2.07069 0
M  V30 22088 C 2084.55 -1.40063 0.965207 0
M  V30 22089 O 2085.74 -1.49604 1.23823 0
M  V30 22090 C 2082.87 -2.39113 2.51877 0
M  V30 22091 C 2081.82 -2.213 3.66347 0
M  V30 22092 C 2081.15 -3.57931 3.97227 0
M  V30 22093 C 2082.45 -1.63013 4.9621 0
M  V30 22094 H 2084.14 -0.666254 2.91893 0
M  V30 22095 H 2081.69 -0.319039 1.40421 0
M  V30 22096 H 2083.64 -3.10226 2.85198 0
M  V30 22097 H 2082.37 -2.82387 1.64088 0
M  V30 22098 H 2081.02 -1.52628 3.33317 0
M  V30 22099 H 2080.67 -3.98784 3.06562 0
M  V30 22100 H 2080.37 -3.4685 4.74309 0
M  V30 22101 H 2081.9 -4.30467 4.33048 0
M  V30 22102 H 2083.31 -2.23997 5.27729 0
M  V30 22103 H 2081.71 -1.62614 5.77648 0
M  V30 22104 H 2082.78 -0.592078 4.81272 0
M  V30 22105 N 2084.12 -1.53926 -0.338317 0
M  V30 22106 C 2085.08 -1.81578 -1.39865 0
M  V30 22107 C 2086.08 -0.687011 -1.45385 0
M  V30 22108 O 2087.27 -0.955305 -1.45669 0
M  V30 22109 C 2084.41 -1.96252 -2.78744 0
M  V30 22110 H 2085.6 -2.76302 -1.16608 0
M  V30 22111 H 2083.15 -1.45418 -0.572996 0
M  V30 22112 H 2083.89 -1.03688 -3.07277 0
M  V30 22113 H 2083.67 -2.78376 -2.76133 0
M  V30 22114 H 2085.16 -2.19144 -3.5548 0
M  V30 22115 N 2085.6 0.599608 -1.45748 0
M  V30 22116 C 2086.88 1.35925 -1.40655 0
M  V30 22117 C 2087.26 2.10944 -0.0812543 0
M  V30 22118 O 2086.6 2.08407 0.936945 0
M  V30 22119 C 2086.81 2.2994 -2.62542 0
M  V30 22120 C 2088.16 2.92299 -3.07971 0
M  V30 22121 O 2089.19 2.40259 -2.62971 0
M  V30 22122 O 2088.05 3.86781 -3.86087 0
M  V30 22123 H 2085.14 0.609876 -0.558552 0
M  V30 22124 H 2087.69 0.622032 -1.57889 0
M  V30 22125 H 2086.46 1.73821 -3.50574 0
M  V30 22126 H 2086.08 3.11029 -2.47683 0
M  V30 22127 N 2087.08 1.33171 0.842803 0
M  V30 22128 C 2088.35 1.15008 1.58216 0
M  V30 22129 C 2088.73 -0.285047 2.09167 0
M  V30 22130 O 2088.08 -1.28349 1.89047 0
M  V30 22131 C 2088.29 2.18785 2.71908 0
M  V30 22132 C 2089.64 2.52736 3.41188 0
M  V30 22133 O 2090.66 2.17422 2.82146 0
M  V30 22134 O 2089.52 3.13321 4.47763 0
M  V30 22135 H 2086.62 0.444573 0.69734 0
M  V30 22136 H 2089.16 1.44741 0.8859 0
M  V30 22137 H 2087.94 3.15201 2.31871 0
M  V30 22138 H 2087.56 1.90116 3.49202 0
M  V30 22139 N 2088.56 -1.06056 1.16576 0
M  V30 22140 C 2089.97 -1.31034 0.911171 0
M  V30 22141 C 2090.17 -1.96758 -0.434593 0
M  V30 22142 O 2089.23 -2.2357 -1.17357 0
M  V30 22143 C 2090.54 -2.18865 2.06201 0
M  V30 22144 C 2092.09 -2.32274 2.09804 0
M  V30 22145 C 2092.56 -3.23461 3.24248 0
M  V30 22146 N 2094.05 -3.31045 3.2398 0
M  V30 22147 C 2094.79 -4.01702 4.09174 0
M  V30 22148 N 2094.29 -4.7486 5.0446 0
M  V30 22149 N 2096.08 -3.97777 3.97153 0
M  V30 22150 H 2088.23 -0.617904 2.03213 0
M  V30 22151 H 2090.49 -0.335006 0.886834 0
M  V30 22152 H 2090.2 -1.77852 3.03417 0
M  V30 22153 H 2090.07 -3.19462 2.00559 0
M  V30 22154 H 2092.46 -2.72534 1.13179 0
M  V30 22155 H 2092.54 -1.31337 2.19509 0
M  V30 22156 H 2092.18 -2.83918 4.21133 0
M  V30 22157 H 2092.11 -4.24384 3.11779 0
M  V30 22158 H 2094.61 -2.78911 2.54984 0
M  V30 22159 H 2094.92 -5.26308 5.65879 0
M  V30 22160 H 2093.26 -4.73832 5.08437 0
M  V30 22161 H 2096.45 -3.39743 3.22013 0
M  V30 22162 H 2096.63 -4.52574 4.63768 0
M  V30 22163 N 2090.03 -0.964615 -1.24631 0
M  V30 22164 C 2091.31 -0.54181 -1.87946 0
M  V30 22165 C 2091.69 0.981047 -1.86919 0
M  V30 22166 O 2091.04 1.85109 -1.33966 0
M  V30 22167 C 2091.25 -1.12982 -3.30206 0
M  V30 22168 C 2092.6 -1.21281 -4.0691 0
M  V30 22169 O 2093.62 -1.0821 -3.39366 0
M  V30 22170 O 2092.48 -1.41904 -5.27755 0
M  V30 22171 H 2089.57 -0.180209 -0.807127 0
M  V30 22172 H 2092.12 -1.05869 -1.32627 0
M  V30 22173 H 2090.89 -2.17271 -3.25436 0
M  V30 22174 H 2090.51 -0.596798 -3.93096 0
M  V30 22175 N 2091.51 1.39445 -0.734362 0
M  V30 22176 C 2092.79 1.94487 -0.208359 0
M  V30 22177 C 2093.17 1.6712 1.28974 0
M  V30 22178 O 2092.52 0.999082 2.05501 0
M  V30 22179 C 2092.73 3.44777 -0.541289 0
M  V30 22180 C 2094.07 4.2176 -0.490275 0
M  V30 22181 O 2095.1 3.52972 -0.478443 0
M  V30 22182 O 2093.96 5.4435 -0.48425 0
M  V30 22183 H 2091.05 0.826136 -0.037802 0
M  V30 22184 H 2093.6 1.48948 -0.813177 0
M  V30 22185 H 2092.37 3.58128 -1.5767 0
M  V30 22186 H 2091.99 3.97492 0.0925302 0
M  V30 22187 N 2092.99 0.481946 1.5005 0
M  V30 22188 C 2094.22 -0.0665508 2.06493 0
M  V30 22189 C 2094.63 -1.3309 1.34476 0
M  V30 22190 O 2093.97 -1.79046 0.410882 0
M  V30 22191 C 2094.03 -0.409721 3.57158 0
M  V30 22192 C 2093.7 0.754158 4.50734 0
M  V30 22193 C 2094.69 1.63929 4.93379 0
M  V30 22194 C 2092.38 0.947563 4.93281 0
M  V30 22195 C 2094.37 2.70214 5.77289 0
M  V30 22196 C 2092.06 2.01362 5.76972 0
M  V30 22197 C 2093.06 2.88927 6.18878 0
M  V30 22198 O 2092.75 3.93695 7.00899 0
M  V30 22199 H 2092.48 0.00864043 0.675945 0
M  V30 22200 H 2095.03 0.672929 1.94064 0
M  V30 22201 H 2093.26 -1.20254 3.67527 0
M  V30 22202 H 2094.95 -0.894578 3.95919 0
M  V30 22203 H 2095.72 1.5016 4.61169 0
M  V30 22204 H 2091.6 0.275431 4.60176 0
M  V30 22205 H 2095.14 3.38592 6.09919 0
M  V30 22206 H 2091.04 2.15133 6.08595 0
M  V30 22207 H 2091.8 3.90816 7.1917 0
M  V30 22208 N 2094.47 -1.56127 0.214985 0
M  V30 22209 C 2095.74 -1.8994 -0.467153 0
M  V30 22210 C 2096.12 -1.13139 -1.78221 0
M  V30 22211 O 2095.47 -0.238654 -2.2725 0
M  V30 22212 C 2095.68 -3.42576 -0.666524 0
M  V30 22213 C 2097.03 -4.13209 -0.976927 0
M  V30 22214 O 2098.05 -3.48138 -0.753545 0
M  V30 22215 O 2096.91 -5.2825 -1.40052 0
M  V30 22216 H 2094.01 -0.789533 -0.246102 0
M  V30 22217 H 2096.55 -1.67748 0.256681 0
M  V30 22218 H 2095.33 -3.90426 0.261344 0
M  V30 22219 H 2094.95 -3.70526 -1.44209 0
M  V30 22220 N 2095.95 0.0584645 -1.57492 0
M  V30 22221 C 2097.19 0.755071 -1.87896 0
M  V30 22222 C 2097.52 1.769 -0.808499 0
M  V30 22223 O 2096.78 1.94736 0.194028 0
M  V30 22224 C 2097.07 1.48699 -3.24998 0
M  V30 22225 C 2096.74 0.611806 -4.4673 0
M  V30 22226 C 2095.4 0.370663 -4.7977 0
M  V30 22227 C 2097.75 0.00576081 -5.212 0
M  V30 22228 C 2095.08 -0.485786 -5.84685 0
M  V30 22229 C 2097.43 -0.838219 -6.27022 0
M  V30 22230 C 2096.1 -1.08911 -6.58555 0
M  V30 22231 H 2095.37 0.2763 -0.68756 0
M  V30 22232 H 2098.02 0.0155215 -1.91494 0
M  V30 22233 H 2096.32 2.2991 -3.17252 0
M  V30 22234 H 2098.02 2.03101 -3.45761 0
M  V30 22235 H 2094.61 0.809892 -4.20878 0
M  V30 22236 H 2098.79 0.179152 -4.95977 0
M  V30 22237 H 2094.05 -0.688773 -6.07508 0
M  V30 22238 H 2098.22 -1.31449 -6.83882 0
M  V30 22239 H 2095.85 -1.7545 -7.39676 0
M  V30 22240 N 2097.42 1.54103 0.330149 0
M  V30 22241 C 2098.35 1.8602 1.41134 0
M  V30 22242 C 2099.33 0.716429 1.54277 0
M  V30 22243 O 2100.52 0.969568 1.68265 0
M  V30 22244 C 2097.65 2.08171 2.77997 0
M  V30 22245 C 2096.6 3.24007 2.79649 0
M  V30 22246 C 2095.93 3.31516 4.19525 0
M  V30 22247 C 2097.23 4.6181 2.43985 0
M  V30 22248 H 2098.92 2.76569 1.14672 0
M  V30 22249 H 2096.47 1.33074 0.550199 0
M  V30 22250 H 2098.42 2.29083 3.53694 0
M  V30 22251 H 2097.15 1.14364 3.05922 0
M  V30 22252 H 2095.81 3.02971 2.06407 0
M  V30 22253 H 2095.45 2.3528 4.44581 0
M  V30 22254 H 2095.15 4.09364 4.21538 0
M  V30 22255 H 2096.68 3.54655 4.97044 0
M  V30 22256 H 2098.09 4.82647 3.09395 0
M  V30 22257 H 2096.49 5.4216 2.5726 0
M  V30 22258 H 2097.56 4.64507 1.39146 0
M  V30 22259 N 2098.9 -0.59187 1.46064 0
M  V30 22260 C 2099.84 -1.71592 1.50438 0
M  V30 22261 C 2100.81 -1.58581 0.359289 0
M  V30 22262 O 2102 -1.79924 0.562102 0
M  V30 22263 C 2099.12 -3.09566 1.37429 0
M  V30 22264 C 2098.17 -3.41123 2.56003 0
M  V30 22265 S 2099 -3.34211 4.18405 0
M  V30 22266 C 2100.16 -4.74739 4.0789 0
M  V30 22267 H 2100.39 -1.67621 2.45541 0
M  V30 22268 H 2097.93 -0.769851 1.33838 0
M  V30 22269 H 2099.88 -3.89167 1.30611 0
M  V30 22270 H 2098.54 -3.11035 0.437694 0
M  V30 22271 H 2097.74 -4.41622 2.4287 0
M  V30 22272 H 2097.34 -2.6907 2.59764 0
M  V30 22273 H 2099.63 -5.64913 3.74004 0
M  V30 22274 H 2100.57 -4.9293 5.08356 0
M  V30 22275 H 2100.98 -4.51158 3.39288 0
M  V30 22276 N 2100.38 -1.33616 -0.835729 0
M  V30 22277 C 2101.31 -1.19968 -1.95296 0
M  V30 22278 C 2102.33 -0.129874 -1.62281 0
M  V30 22279 O 2103.51 -0.380581 -1.74396 0
M  V30 22280 C 2100.61 -0.818275 -3.28873 0
M  V30 22281 C 2099.79 -1.98038 -3.9 0
M  V30 22282 C 2098.85 -1.57944 -5.01936 0
M  V30 22283 O 2097.87 -2.29423 -5.20916 0
M  V30 22284 N 2099.07 -0.486237 -5.7846 0
M  V30 22285 H 2101.84 -2.16212 -2.0754 0
M  V30 22286 H 2099.4 -1.26403 -1.01163 0
M  V30 22287 H 2101.39 -0.532092 -4.01187 0
M  V30 22288 H 2099.96 0.053577 -3.12554 0
M  V30 22289 H 2099.18 -2.43201 -3.10237 0
M  V30 22290 H 2100.47 -2.75789 -4.27572 0
M  V30 22291 H 2099.87 0.108268 -5.65596 0
M  V30 22292 H 2098.43 -0.259739 -6.51282 0
M  V30 22293 N 2101.86 1.05436 -1.17136 0
M  V30 22294 C 2103.09 1.82074 -0.982688 0
M  V30 22295 C 2103.5 1.8288 0.469081 0
M  V30 22296 O 2102.86 1.25425 1.3257 0
M  V30 22297 C 2102.91 3.28302 -1.51328 0
M  V30 22298 O 2102.63 3.27651 -2.9082 0
M  V30 22299 C 2104.13 4.21637 -1.36885 0
M  V30 22300 H 2101.35 0.57382 -0.347811 0
M  V30 22301 H 2103.9 1.32971 -1.55367 0
M  V30 22302 H 2102.05 3.74685 -0.984381 0
M  V30 22303 H 2102.46 4.19154 -3.15294 0
M  V30 22304 H 2103.94 5.2223 -1.78828 0
M  V30 22305 H 2104.42 4.38065 -0.315584 0
M  V30 22306 H 2105.02 3.81107 -1.88779 0
M  V30 22307 N 2103.34 0.971211 1.24118 0
M  V30 22308 C 2104.56 0.652357 1.96873 0
M  V30 22309 C 2104.99 -0.772193 1.71519 0
M  V30 22310 O 2104.34 -1.52463 0.981051 0
M  V30 22311 C 2104.39 0.937388 3.48203 0
M  V30 22312 O 2103.5 0.0246311 4.12393 0
M  V30 22313 H 2102.84 0.246274 0.61664 0
M  V30 22314 H 2105.37 1.30231 1.578 0
M  V30 22315 H 2105.38 0.870349 3.98609 0
M  V30 22316 H 2104.05 1.97556 3.65984 0
M  V30 22317 H 2102.63 0.145292 3.72617 0
M  V30 22318 N 2104.81 -1.39054 0.741747 0
M  V30 22319 C 2106.04 -2.04668 0.303108 0
M  V30 22320 C 2106.46 -1.55933 -1.06444 0
M  V30 22321 O 2105.81 -0.72717 -1.67387 0
M  V30 22322 C 2105.87 -3.60224 0.303407 0
M  V30 22323 O 2105.59 -4.07167 1.61698 0
M  V30 22324 C 2107.09 -4.43044 -0.150565 0
M  V30 22325 H 2104.31 -0.658018 0.131353 0
M  V30 22326 H 2106.85 -1.77972 1.00729 0
M  V30 22327 H 2105.01 -3.85798 -0.351936 0
M  V30 22328 H 2105.42 -5.01532 1.53511 0
M  V30 22329 H 2106.89 -5.51911 -0.0991946 0
M  V30 22330 H 2107.37 -4.22581 -1.19674 0
M  V30 22331 H 2107.98 -4.22634 0.475463 0
M  V30 22332 N 2106.29 -0.489897 -1.49792 0
M  V30 22333 C 2107.52 0.055599 -2.06525 0
M  V30 22334 C 2107.93 1.32375 -1.3518 0
M  V30 22335 O 2107.27 1.78826 -0.420371 0
M  V30 22336 C 2107.34 0.390775 -3.5737 0
M  V30 22337 C 2107 -0.778051 -4.50328 0
M  V30 22338 C 2108 -1.66543 -4.92503 0
M  V30 22339 C 2105.68 -0.97371 -4.92772 0
M  V30 22340 C 2107.68 -2.73272 -5.75848 0
M  V30 22341 C 2105.36 -2.04419 -5.75896 0
M  V30 22342 C 2106.36 -2.92205 -6.17337 0
M  V30 22343 O 2106.05 -3.97407 -6.98801 0
M  V30 22344 H 2105.78 -0.012225 -0.675889 0
M  V30 22345 H 2108.33 -0.683211 -1.93704 0
M  V30 22346 H 2106.56 1.18303 -3.68159 0
M  V30 22347 H 2108.25 0.873568 -3.96388 0
M  V30 22348 H 2109.02 -1.52604 -4.60366 0
M  V30 22349 H 2104.9 -0.299832 -4.60024 0
M  V30 22350 H 2108.44 -3.41821 -6.08115 0
M  V30 22351 H 2104.34 -2.18358 -6.07446 0
M  V30 22352 H 2105.11 -3.94624 -7.17087 0
M  V30 22353 N 2107.77 1.56011 -0.223262 0
M  V30 22354 C 2109 2.02446 0.412189 0
M  V30 22355 C 2109.41 1.1023 1.53772 0
M  V30 22356 O 2108.75 0.104539 1.83402 0
M  V30 22357 C 2108.81 3.45214 1.00337 0
M  V30 22358 C 2108.48 4.56998 0.0130627 0
M  V30 22359 C 2109.47 5.13895 -0.787936 0
M  V30 22360 C 2107.16 5.02188 -0.106187 0
M  V30 22361 C 2109.15 6.14453 -1.69487 0
M  V30 22362 C 2106.84 6.02584 -1.01665 0
M  V30 22363 C 2107.84 6.58593 -1.80954 0
M  V30 22364 O 2107.53 7.57034 -2.7047 0
M  V30 22365 H 2107.26 0.667806 0.104934 0
M  V30 22366 H 2109.81 2.02606 -0.337661 0
M  V30 22367 H 2108.04 3.42129 1.80234 0
M  V30 22368 H 2109.73 3.75288 1.54641 0
M  V30 22369 H 2110.5 4.7983 -0.706267 0
M  V30 22370 H 2106.38 4.58271 0.500846 0
M  V30 22371 H 2109.92 6.58097 -2.31418 0
M  V30 22372 H 2105.82 6.3607 -1.09933 0
M  V30 22373 H 2106.59 7.74563 -2.64564 0
M  V30 22374 N 2109.25 -0.0501116 1.5752 0
M  V30 22375 C 2110.48 -0.756338 1.92258 0
M  V30 22376 C 2110.89 -1.70529 0.819536 0
M  V30 22377 O 2110.23 -1.82444 -0.214449 0
M  V30 22378 C 2110.29 -1.58568 3.2264 0
M  V30 22379 C 2109.96 -0.803782 4.49876 0
M  V30 22380 C 2110.95 -0.11334 5.19776 0
M  V30 22381 C 2108.64 -0.764541 4.96447 0
M  V30 22382 C 2110.63 0.605876 6.34514 0
M  V30 22383 C 2108.32 -0.0415669 6.11086 0
M  V30 22384 C 2109.32 0.642421 6.79972 0
M  V30 22385 O 2109 1.3537 7.9242 0
M  V30 22386 H 2108.74 -0.218926 0.639568 0
M  V30 22387 H 2111.29 -0.0180791 2.05392 0
M  V30 22388 H 2109.52 -2.36726 3.05774 0
M  V30 22389 H 2111.21 -2.17257 3.42862 0
M  V30 22390 H 2111.98 -0.134822 4.84813 0
M  V30 22391 H 2107.85 -1.28641 4.42688 0
M  V30 22392 H 2111.4 1.1403 6.88217 0
M  V30 22393 H 2107.3 -0.0180871 6.45497 0
M  V30 22394 H 2108.06 1.2652 8.08662 0
M  V30 22395 N 2110.73 -1.54276 -0.321972 0
M  V30 22396 C 2111.95 -1.76841 -1.0836 0
M  V30 22397 C 2112.38 -0.5163 -1.80876 0
M  V30 22398 O 2111.73 0.532225 -1.73312 0
M  V30 22399 C 2111.78 -2.96236 -2.05613 0
M  V30 22400 O 2110.89 -2.67893 -3.1354 0
M  V30 22401 H 2110.23 -0.585948 -0.312347 0
M  V30 22402 H 2112.76 -2.01304 -0.365783 0
M  V30 22403 H 2112.77 -3.23627 -2.48455 0
M  V30 22404 H 2111.44 -3.87037 -1.52234 0
M  V30 22405 H 2110.02 -2.51456 -2.75362 0
M  V30 22406 N 2112.2 0.584116 -1.46376 0
M  V30 22407 C 2113.45 1.34437 -1.51837 0
M  V30 22408 C 2113.78 1.93464 -0.168948 0
M  V30 22409 O 2113.06 1.76395 0.819455 0
M  V30 22410 C 2113.34 2.47477 -2.61586 0
M  V30 22411 C 2113.19 1.93494 -4.06054 0
M  V30 22412 C 2114.51 3.49527 -2.6743 0
M  V30 22413 H 2111.63 0.487455 -0.552772 0
M  V30 22414 H 2114.27 0.656303 -1.78305 0
M  V30 22415 H 2112.42 3.0617 -2.39148 0
M  V30 22416 H 2114.1 1.39268 -4.39775 0
M  V30 22417 H 2112.34 1.24333 -4.15601 0
M  V30 22418 H 2113.01 2.75087 -4.78572 0
M  V30 22419 H 2115.49 3.00712 -2.87596 0
M  V30 22420 H 2114.36 4.26082 -3.46043 0
M  V30 22421 H 2114.62 4.06664 -1.73426 0
M  V30 22422 N 2113.68 1.34058 0.828631 0
M  V30 22423 C 2115.1 1.13615 1.12088 0
M  V30 22424 C 2115.3 -0.0661541 2.01391 0
M  V30 22425 O 2114.36 -0.743382 2.41309 0
M  V30 22426 C 2115.67 2.42862 1.7731 0
M  V30 22427 C 2117.22 2.48865 1.8983 0
M  V30 22428 C 2117.69 3.78099 2.58468 0
M  V30 22429 N 2119.18 3.79227 2.65972 0
M  V30 22430 C 2119.92 4.7594 3.19795 0
M  V30 22431 N 2119.41 5.83032 3.74226 0
M  V30 22432 N 2121.21 4.63402 3.18143 0
M  V30 22433 H 2113.36 2.11101 0.234506 0
M  V30 22434 H 2115.62 0.93325 0.166579 0
M  V30 22435 H 2115.33 3.30901 1.19153 0
M  V30 22436 H 2115.2 2.55776 2.77233 0
M  V30 22437 H 2117.59 1.61268 2.47137 0
M  V30 22438 H 2117.67 2.39883 0.888256 0
M  V30 22439 H 2117.31 4.66082 2.01817 0
M  V30 22440 H 2117.24 3.84361 3.59964 0
M  V30 22441 H 2119.73 3.01836 2.27384 0
M  V30 22442 H 2120.05 6.5285 4.1353 0
M  V30 22443 H 2118.39 5.86753 3.72486 0
M  V30 22444 H 2121.58 3.78889 2.74883 0
M  V30 22445 H 2121.76 5.38942 3.59786 0
M  V30 22446 N 2115.16 -1.04814 1.17694 0
M  V30 22447 C 2116.41 -1.77277 0.962076 0
M  V30 22448 C 2116.72 -1.88834 -0.509992 0
M  V30 22449 O 2117.93 -2.58075 -0.843166 0
M  V30 22450 C 2116.39 -3.18693 1.67221 0
M  V30 22451 C 2115.99 -3.15253 3.18308 0
M  V30 22452 C 2117.74 -3.95585 1.53988 0
M  V30 22453 C 2115.64 -4.51481 3.81993 0
M  V30 22454 H 2114.57 -0.66449 0.356328 0
M  V30 22455 H 2117.23 -1.17451 1.40988 0
M  V30 22456 H 2115.61 -3.78868 1.15216 0
M  V30 22457 H 2116.78 -2.64573 3.77277 0
M  V30 22458 H 2115.1 -2.51859 3.31596 0
M  V30 22459 H 2117.69 -4.96315 1.98937 0
M  V30 22460 H 2118.04 -4.13394 0.491003 0
M  V30 22461 H 2118.57 -3.41967 2.03232 0
M  V30 22462 H 2115.31 -4.38877 4.86895 0
M  V30 22463 H 2114.83 -5.02295 3.27811 0
M  V30 22464 H 2116.51 -5.20413 3.84421 0
M  V30 22465 N 2116.64 -0.977779 -1.23601 0
M  V30 22466 C 2117.89 -0.645211 -1.91946 0
M  V30 22467 C 2118.21 0.82092 -1.76327 0
M  V30 22468 O 2117.47 1.60733 -1.1164 0
M  V30 22469 C 2117.77 -0.978335 -3.43749 0
M  V30 22470 C 2117.43 -2.43425 -3.79546 0
M  V30 22471 C 2116.1 -2.83215 -3.89028 0
M  V30 22472 C 2118.45 -3.37865 -3.96859 0
M  V30 22473 C 2115.78 -4.16465 -4.13248 0
M  V30 22474 C 2118.13 -4.70755 -4.22578 0
M  V30 22475 C 2116.79 -5.10308 -4.30281 0
M  V30 22476 H 2116.06 -0.236099 -0.70238 0
M  V30 22477 H 2118.71 -1.23115 -1.4668 0
M  V30 22478 H 2117.01 -0.310278 -3.90569 0
M  V30 22479 H 2118.71 -0.699263 -3.94856 0
M  V30 22480 H 2115.3 -2.11576 -3.72738 0
M  V30 22481 H 2119.49 -3.08303 -3.88926 0
M  V30 22482 H 2114.74 -4.4672 -4.17434 0
M  V30 22483 H 2118.92 -5.43893 -4.34918 0
M  V30 22484 H 2116.54 -6.13581 -4.48801 0
M  V30 22485 N 2118.12 1.38658 -0.749111 0
M  V30 22486 C 2119.53 1.82966 -0.371524 0
M  V30 22487 C 2119.88 1.62519 1.09918 0
M  V30 22488 O 2119 1.12394 1.84923 0
M  V30 22489 C 2119.6 3.32158 -0.667553 0
M  V30 22490 C 2118.16 3.74831 -0.343297 0
M  V30 22491 C 2117.31 2.61488 -0.923014 0
M  V30 22492 H 2120.26 1.2745 -0.945625 0
M  V30 22493 H 2120.28 3.80459 0.0558088 0
M  V30 22494 H 2119.79 3.47008 -1.73801 0
M  V30 22495 H 2117.89 3.65562 0.72076 0
M  V30 22496 H 2118 4.71755 -0.83572 0
M  V30 22497 H 2116.37 2.52302 -0.348687 0
M  V30 22498 H 2117.15 2.79138 -1.99841 0
M  V30 22499 N 2119.6 0.497834 1.49531 0
M  V30 22500 C 2120.84 -0.0477142 2.02044 0
M  V30 22501 C 2121.16 -1.37777 1.37994 0
M  V30 22502 O 2120.43 -1.88476 0.534194 0
M  V30 22503 H 2119.01 -0.0206231 0.746715 0
M  V30 22504 H 2121.68 0.654353 1.83587 0
M  V30 22505 H 2120.77 -0.179706 3.11582 0
M  V30 22506 N 2121.07 -1.5589 0.231532 0
M  V30 22507 C 2122.01 -2.18025 -0.70695 0
M  V30 22508 C 2123.02 -1.15214 -1.1502 0
M  V30 22509 O 2124.21 -1.42149 -1.07963 0
M  V30 22510 C 2121.31 -2.75714 -1.97066 0
M  V30 22511 C 2120.48 -4.03794 -1.68135 0
M  V30 22512 C 2119.54 -4.4595 -2.79312 0
M  V30 22513 O 2118.57 -5.12645 -2.47354 0
M  V30 22514 N 2119.77 -4.12459 -4.08483 0
M  V30 22515 H 2122.53 -2.99186 -0.175389 0
M  V30 22516 H 2120.09 -1.6182 0.0509009 0
M  V30 22517 H 2122.09 -3.00882 -2.70652 0
M  V30 22518 H 2120.66 -1.98799 -2.41242 0
M  V30 22519 H 2119.88 -3.86377 -0.781436 0
M  V30 22520 H 2121.16 -4.87328 -1.46251 0
M  V30 22521 H 2120.56 -3.58884 -4.37286 0
M  V30 22522 H 2119.12 -4.42496 -4.78581 0
M  V30 22523 N 2122.55 0.0417572 -1.57545 0
M  V30 22524 C 2123.46 1.06351 -2.09109 0
M  V30 22525 C 2124.48 1.40464 -1.02694 0
M  V30 22526 O 2125.65 1.50038 -1.34352 0
M  V30 22527 C 2122.72 2.34925 -2.54973 0
M  V30 22528 C 2121.78 2.0751 -3.75816 0
M  V30 22529 C 2121.01 3.29954 -4.19483 0
M  V30 22530 O 2121.24 4.40174 -3.62772 0
M  V30 22531 O 2120.17 3.16399 -5.12031 0
M  V30 22532 H 2124 0.655348 -2.96545 0
M  V30 22533 H 2121.58 0.257909 -1.47157 0
M  V30 22534 H 2123.46 3.10537 -2.84859 0
M  V30 22535 H 2122.14 2.75062 -1.70653 0
M  V30 22536 H 2121.04 1.29507 -3.50968 0
M  V30 22537 H 2122.38 1.72237 -4.61081 0
M  V30 22538 N 2124.03 1.54445 0.313786 0
M  V30 22539 C 2125.44 1.64251 0.887611 0
M  V30 22540 C 2125.79 0.542877 1.8854 0
M  V30 22541 O 2124.92 -0.322627 2.13981 0
M  V30 22542 C 2125.51 2.97739 1.61668 0
M  V30 22543 C 2124.07 3.09709 2.13909 0
M  V30 22544 C 2123.22 2.5987 0.967618 0
M  V30 22545 H 2126.17 1.58438 0.091111 0
M  V30 22546 H 2126.19 2.88447 2.4815 0
M  V30 22547 H 2125.7 3.77752 0.890231 0
M  V30 22548 H 2123.8 2.34391 2.89641 0
M  V30 22549 H 2123.92 4.15667 2.38239 0
M  V30 22550 H 2122.28 2.16006 1.34957 0
M  V30 22551 H 2123.06 3.42349 0.255325 0
M  V30 22552 N 2125.51 -0.576345 1.46683 0
M  V30 22553 C 2126.47 -1.66698 1.57303 0
M  V30 22554 C 2127.47 -1.54385 0.449647 0
M  V30 22555 O 2128.66 -1.58888 0.71415 0
M  V30 22556 C 2125.79 -3.06156 1.49938 0
M  V30 22557 H 2126.99 -1.58638 2.54507 0
M  V30 22558 H 2124.54 -0.79471 1.34588 0
M  V30 22559 H 2125.27 -3.19766 0.540379 0
M  V30 22560 H 2125.06 -3.16502 2.3145 0
M  V30 22561 H 2126.55 -3.85538 1.60469 0
M  V30 22562 N 2126.99 -1.34495 -0.82151 0
M  V30 22563 C 2127.93 -1.26196 -1.9539 0
M  V30 22564 C 2128.93 -0.159788 -1.68645 0
M  V30 22565 O 2130.13 -0.32485 -1.77044 0
M  V30 22566 H 2126.51 -0.392077 -0.6417 0
M  V30 22567 H 2128.48 -2.21896 -1.99511 0
M  V30 22568 C 2127.23 -1.03571 -3.31916 0
M  V30 22569 H 2126.55 -1.87615 -3.53045 0
M  V30 22570 H 2127.99 -1.01801 -4.11597 0
M  V30 22571 C 2126.45 0.260949 -3.35888 0
M  V30 22572 O 2126.98 1.26183 -3.81367 0
M  V30 22573 N 2125.19 0.29455 -2.89103 0
M  V30 22574 H 2124.73 -0.520521 -2.52286 0
M  V30 22575 H 2124.69 1.16189 -2.92143 0
M  V30 22576 N 2128.46 1.04188 -1.18248 0
M  V30 22577 C 2129.71 1.7763 -0.978539 0
M  V30 22578 C 2130.04 1.87897 0.490757 0
M  V30 22579 O 2129.32 1.38617 1.36439 0
M  V30 22580 C 2129.6 3.20968 -1.63252 0
M  V30 22581 C 2129.45 3.18653 -3.1746 0
M  V30 22582 C 2130.77 4.19052 -1.34475 0
M  V30 22583 H 2127.89 0.644817 -0.356903 0
M  V30 22584 H 2130.53 1.21713 -1.45897 0
M  V30 22585 H 2128.68 3.68714 -1.22402 0
M  V30 22586 H 2130.36 2.78906 -3.67436 0
M  V30 22587 H 2128.6 2.56717 -3.49684 0
M  V30 22588 H 2129.27 4.19864 -3.58354 0
M  V30 22589 H 2131.75 3.79848 -1.69868 0
M  V30 22590 H 2130.62 5.17565 -1.82804 0
M  V30 22591 H 2130.88 4.41291 -0.267408 0
M  V30 22592 N 2129.94 0.98432 1.23081 0
M  V30 22593 C 2131.19 0.665987 1.92188 0
M  V30 22594 C 2131.54 -0.79229 1.7533 0
M  V30 22595 O 2130.84 -1.56452 1.10604 0
M  V30 22596 C 2131.03 0.996551 3.43225 0
M  V30 22597 C 2130.86 2.48541 3.74776 0
M  V30 22598 C 2129.63 3.14805 3.95254 0
M  V30 22599 C 2131.83 3.46626 3.7994 0
M  V30 22600 N 2129.81 4.53256 4.14044 0
M  V30 22601 C 2131.18 4.70501 4.03769 0
M  V30 22602 C 2133.24 3.41053 3.6275 0
M  V30 22603 C 2131.94 5.89483 4.12192 0
M  V30 22604 C 2133.96 4.59404 3.72428 0
M  V30 22605 C 2133.33 5.82075 3.96697 0
M  V30 22606 H 2129.43 0.294831 0.724292 0
M  V30 22607 H 2132.01 1.26258 1.48213 0
M  V30 22608 H 2130.18 0.428615 3.86028 0
M  V30 22609 H 2131.91 0.635087 3.99686 0
M  V30 22610 H 2128.67 2.65292 3.92323 0
M  V30 22611 H 2129.09 5.25045 4.27384 0
M  V30 22612 H 2133.73 2.47235 3.42979 0
M  V30 22613 H 2131.45 6.83713 4.30769 0
M  V30 22614 H 2135.04 4.56671 3.60476 0
M  V30 22615 H 2133.92 6.72124 4.04004 0
M  V30 22616 N 2131.42 -1.38259 0.756453 0
M  V30 22617 C 2132.67 -2.00349 0.314356 0
M  V30 22618 C 2133 -1.5991 -1.10192 0
M  V30 22619 O 2132.27 -0.837999 -1.75522 0
M  V30 22620 C 2132.56 -3.57396 0.440504 0
M  V30 22621 C 2132.41 -4.0779 1.8981 0
M  V30 22622 C 2133.73 -4.39793 -0.164403 0
M  V30 22623 H 2130.85 -0.727862 0.115697 0
M  V30 22624 H 2133.49 -1.6416 0.956635 0
M  V30 22625 H 2131.64 -3.88355 -0.106298 0
M  V30 22626 H 2133.31 -3.87461 2.50343 0
M  V30 22627 H 2131.56 -3.6055 2.41218 0
M  V30 22628 H 2132.23 -5.1688 1.9375 0
M  V30 22629 H 2134.7 -4.15003 0.301971 0
M  V30 22630 H 2133.58 -5.48881 -0.0459121 0
M  V30 22631 H 2133.84 -4.23971 -1.25303 0
M  V30 22632 N 2132.9 -0.505757 -1.49264 0
M  V30 22633 C 2134.15 0.0369987 -2.02066 0
M  V30 22634 C 2134.47 1.37044 -1.38723 0
M  V30 22635 O 2133.74 1.8819 -0.544182 0
M  V30 22636 H 2132.32 0.0166628 -0.746814 0
M  V30 22637 H 2134.98 -0.66408 -1.83238 0
M  V30 22638 H 2134.08 0.163179 -3.11673 0
M  V30 22639 N 2134.38 1.55765 -0.239796 0
M  V30 22640 C 2135.62 1.99807 0.380647 0
M  V30 22641 C 2135.98 1.12502 1.56081 0
M  V30 22642 O 2135.27 0.17897 1.90762 0
M  V30 22643 C 2135.46 3.4722 0.846952 0
M  V30 22644 C 2135.29 4.48787 -0.286481 0
M  V30 22645 C 2134.06 4.99569 -0.758849 0
M  V30 22646 C 2136.26 5.02156 -1.11105 0
M  V30 22647 N 2134.24 5.84872 -1.86543 0
M  V30 22648 C 2135.61 5.8456 -2.06615 0
M  V30 22649 C 2137.67 4.84475 -1.14842 0
M  V30 22650 C 2136.37 6.51171 -3.05563 0
M  V30 22651 C 2138.4 5.51859 -2.12617 0
M  V30 22652 C 2137.76 6.34046 -3.06864 0
M  V30 22653 H 2133.86 0.774858 0.105445 0
M  V30 22654 H 2136.44 1.91422 -0.355748 0
M  V30 22655 H 2134.61 3.56016 1.55266 0
M  V30 22656 H 2136.35 3.78148 1.44174 0
M  V30 22657 H 2133.1 4.72347 -0.344232 0
M  V30 22658 H 2133.53 6.32221 -2.42128 0
M  V30 22659 H 2138.17 4.2057 -0.433655 0
M  V30 22660 H 2135.89 7.14246 -3.77992 0
M  V30 22661 H 2139.47 5.40135 -2.16206 0
M  V30 22662 H 2138.35 6.85267 -3.81286 0
M  V30 22663 N 2135.85 -0.0334016 1.57565 0
M  V30 22664 C 2137.1 -0.724102 1.88254 0
M  V30 22665 C 2137.42 -1.76752 0.837737 0
M  V30 22666 O 2138.62 -2.51051 1.03372 0
M  V30 22667 C 2137.08 -1.33894 3.34067 0
M  V30 22668 C 2136.69 -0.332091 4.46767 0
M  V30 22669 C 2138.43 -2.00977 3.7391 0
M  V30 22670 C 2136.34 -0.955024 5.83638 0
M  V30 22671 H 2135.27 -0.274201 0.702375 0
M  V30 22672 H 2137.92 0.0216608 1.83487 0
M  V30 22673 H 2136.3 -2.13426 3.33565 0
M  V30 22674 H 2137.47 0.436205 4.58731 0
M  V30 22675 H 2135.79 0.236407 4.15728 0
M  V30 22676 H 2138.39 -2.48428 4.73485 0
M  V30 22677 H 2138.73 -2.82605 3.05679 0
M  V30 22678 H 2139.26 -1.28225 3.76568 0
M  V30 22679 H 2136 -0.178244 6.55258 0
M  V30 22680 H 2135.52 -1.69326 5.75403 0
M  V30 22681 H 2137.2 -1.46364 6.30227 0
M  V30 22682 N 2137.33 -1.54609 -0.305591 0
M  V30 22683 C 2138.56 -1.77658 -1.06044 0
M  V30 22684 C 2138.98 -0.533827 -1.81096 0
M  V30 22685 O 2138.33 0.496175 -1.75626 0
M  V30 22686 C 2138.38 -2.98126 -2.04458 0
M  V30 22687 O 2138.1 -4.17598 -1.32452 0
M  V30 22688 C 2139.61 -3.33527 -2.92018 0
M  V30 22689 H 2136.83 -0.592632 -0.314688 0
M  V30 22690 H 2139.37 -2.01547 -0.346258 0
M  V30 22691 H 2137.52 -2.76458 -2.71385 0
M  V30 22692 H 2137.94 -4.85485 -1.98506 0
M  V30 22693 H 2139.41 -4.21074 -3.56932 0
M  V30 22694 H 2139.89 -2.5148 -3.60076 0
M  V30 22695 H 2140.5 -3.57338 -2.30628 0
M  V30 22696 N 2138.81 0.568558 -1.46987 0
M  V30 22697 C 2140.04 1.35675 -1.56867 0
M  V30 22698 C 2140.46 1.86864 -0.215303 0
M  V30 22699 O 2139.82 1.62351 0.806967 0
M  V30 22700 C 2139.87 2.51048 -2.58858 0
M  V30 22701 O 2138.97 3.52929 -2.13342 0
M  V30 22702 H 2138.31 0.403471 -0.527358 0
M  V30 22703 H 2140.84 0.688258 -1.92676 0
M  V30 22704 H 2140.85 2.97773 -2.78918 0
M  V30 22705 H 2139.53 2.13145 -3.5713 0
M  V30 22706 H 2138.1 3.12587 -2.03332 0
M  V30 22707 N 2140.29 1.34929 0.814366 0
M  V30 22708 C 2141.57 1.18339 1.55741 0
M  V30 22709 C 2141.95 -0.240616 2.09724 0
M  V30 22710 O 2141.29 -1.2431 1.91727 0
M  V30 22711 C 2141.5 2.24503 2.67206 0
M  V30 22712 C 2142.85 2.59917 3.35751 0
M  V30 22713 O 2143.88 2.23358 2.7747 0
M  V30 22714 O 2142.73 3.22749 4.41017 0
M  V30 22715 H 2139.83 0.459265 0.687753 0
M  V30 22716 H 2142.37 1.46587 0.854999 0
M  V30 22717 H 2141.15 3.20048 2.25133 0
M  V30 22718 H 2140.77 1.9748 3.4509 0
M  V30 22719 N 2141.77 -1.0356 1.18799 0
M  V30 22720 C 2143.01 -1.76847 0.986484 0
M  V30 22721 C 2143.34 -1.88397 -0.483413 0
M  V30 22722 O 2142.6 -1.39239 -1.37517 0
M  V30 22723 C 2142.9 -3.19959 1.59252 0
M  V30 22724 C 2142.56 -3.28431 3.0894 0
M  V30 22725 C 2141.22 -3.30451 3.49794 0
M  V30 22726 C 2143.58 -3.2812 4.04953 0
M  V30 22727 C 2140.9 -3.29807 4.85226 0
M  V30 22728 C 2143.26 -3.29016 5.40306 0
M  V30 22729 C 2141.92 -3.2933 5.80601 0
M  V30 22730 H 2141.19 -0.647128 0.36098 0
M  V30 22731 H 2143.84 -1.21597 1.47941 0
M  V30 22732 H 2142.14 -3.78243 1.02172 0
M  V30 22733 H 2143.84 -3.75319 1.41197 0
M  V30 22734 H 2140.43 -3.27583 2.76382 0
M  V30 22735 H 2144.61 -3.25746 3.74437 0
M  V30 22736 H 2139.87 -3.2837 5.15736 0
M  V30 22737 H 2144.04 -3.27726 6.14466 0
M  V30 22738 H 2141.67 -3.28585 6.85519 0
M  V30 22739 N 2143.25 -0.990834 -1.22557 0
M  V30 22740 C 2144.2 -0.510644 -2.22208 0
M  V30 22741 C 2145.18 0.420042 -1.55321 0
M  V30 22742 O 2146.37 0.247197 -1.75265 0
M  V30 22743 C 2143.5 0.17541 -3.42852 0
M  V30 22744 C 2142.59 -0.775458 -4.1695 0
M  V30 22745 N 2142.98 -1.92244 -4.67842 0
M  V30 22746 C 2141.28 -0.590913 -4.42068 0
M  V30 22747 C 2141.98 -2.5191 -5.24325 0
M  V30 22748 N 2140.95 -1.80198 -5.12864 0
M  V30 22749 H 2144.75 -1.38546 -2.59195 0
M  V30 22750 H 2142.27 -0.852831 -1.38205 0
M  V30 22751 H 2144.27 0.536797 -4.1343 0
M  V30 22752 H 2142.93 1.04638 -3.07377 0
M  V30 22753 H 2143.94 -2.3033 -4.63863 0
M  V30 22754 H 2140.61 0.234168 -4.16843 0
M  V30 22755 H 2142 -3.48832 -5.74252 0
M  V30 22756 N 2144.72 1.37856 -0.763775 0
M  V30 22757 C 2145.66 2.28969 -0.102965 0
M  V30 22758 C 2146.67 1.48246 0.672832 0
M  V30 22759 O 2147.86 1.70992 0.51224 0
M  V30 22760 C 2144.96 3.27329 0.877995 0
M  V30 22761 C 2144.13 4.37116 0.157698 0
M  V30 22762 C 2143.19 5.156 1.05087 0
M  V30 22763 O 2142.22 5.66842 0.517604 0
M  V30 22764 N 2143.42 5.29559 2.37797 0
M  V30 22765 H 2146.18 2.8632 -0.885499 0
M  V30 22766 H 2143.74 1.49747 -0.615433 0
M  V30 22767 H 2145.74 3.76715 1.47877 0
M  V30 22768 H 2144.31 2.70804 1.56154 0
M  V30 22769 H 2143.53 3.89231 -0.623902 0
M  V30 22770 H 2144.81 5.07661 -0.34033 0
M  V30 22771 H 2144.21 4.89496 2.83566 0
M  V30 22772 H 2142.77 5.82282 2.929 0
M  V30 22773 N 2146.2 0.513665 1.48994 0
M  V30 22774 C 2147.43 -0.0227356 2.06587 0
M  V30 22775 C 2147.84 -1.30207 1.37269 0
M  V30 22776 O 2147.18 -1.78134 0.448768 0
M  V30 22777 C 2147.24 -0.333871 3.57946 0
M  V30 22778 C 2146.91 0.849596 4.49033 0
M  V30 22779 C 2147.91 1.74357 4.89791 0
M  V30 22780 C 2145.59 1.05198 4.9116 0
M  V30 22781 C 2147.58 2.82398 5.71428 0
M  V30 22782 C 2145.27 2.13555 5.72571 0
M  V30 22783 C 2146.27 3.01989 6.12611 0
M  V30 22784 O 2145.96 4.08474 6.9239 0
M  V30 22785 H 2145.69 0.0229763 0.675609 0
M  V30 22786 H 2148.24 0.713941 1.92593 0
M  V30 22787 H 2146.47 -1.12431 3.69995 0
M  V30 22788 H 2148.16 -0.810396 3.97728 0
M  V30 22789 H 2148.93 1.59909 4.5788 0
M  V30 22790 H 2144.81 0.372979 4.59489 0
M  V30 22791 H 2148.35 3.51453 6.026 0
M  V30 22792 H 2144.25 2.27994 6.03895 0
M  V30 22793 H 2145.02 4.05982 7.10718 0
M  V30 22794 N 2147.68 -1.55636 0.248053 0
M  V30 22795 C 2148.96 -1.90888 -0.426759 0
M  V30 22796 C 2149.34 -1.16894 -1.75781 0
M  V30 22797 O 2148.68 -0.286804 -2.26693 0
M  V30 22798 C 2148.89 -3.43913 -0.593709 0
M  V30 22799 C 2150.24 -4.15188 -0.889059 0
M  V30 22800 O 2151.27 -3.49658 -0.67953 0
M  V30 22801 O 2150.13 -5.31102 -1.28815 0
M  V30 22802 H 2147.22 -0.794576 -0.2293 0
M  V30 22803 H 2149.77 -1.67165 0.292205 0
M  V30 22804 H 2148.54 -3.89784 0.3441 0
M  V30 22805 H 2148.16 -3.73502 -1.36317 0
M  V30 22806 N 2149.16 0.0250451 -1.5758 0
M  V30 22807 C 2150.39 0.72671 -1.93718 0
M  V30 22808 C 2150.8 1.68677 -0.848148 0
M  V30 22809 O 2150.16 1.81658 0.175105 0
M  V30 22810 C 2150.21 1.4803 -3.29802 0
M  V30 22811 O 2149.93 0.55877 -4.34522 0
M  V30 22812 C 2151.43 2.27876 -3.80247 0
M  V30 22813 H 2148.65 0.203986 -0.639242 0
M  V30 22814 H 2151.19 -0.0186251 -2.04492 0
M  V30 22815 H 2149.35 2.17748 -3.20413 0
M  V30 22816 H 2149.76 1.08769 -5.13098 0
M  V30 22817 H 2151.24 2.7614 -4.77965 0
M  V30 22818 H 2151.71 3.09471 -3.11648 0
M  V30 22819 H 2152.32 1.63224 -3.92731 0
M  V30 22820 N 2150.64 1.54769 0.297388 0
M  V30 22821 C 2151.88 1.73877 1.0301 0
M  V30 22822 C 2152.2 0.529442 1.87675 0
M  V30 22823 O 2151.47 -0.456215 1.90514 0
M  V30 22824 H 2150.05 0.641155 0.383313 0
M  V30 22825 H 2152.72 1.92129 0.3275 0
M  V30 22826 H 2151.81 2.62953 1.68113 0
M  V30 22827 N 2152.11 -0.560755 1.47286 0
M  V30 22828 C 2153.36 -1.31809 1.53729 0
M  V30 22829 C 2153.69 -1.93489 0.198079 0
M  V30 22830 O 2152.94 -1.78211 -0.808664 0
M  V30 22831 C 2153.24 -2.45125 2.60093 0
M  V30 22832 C 2152.91 -2.01298 4.03472 0
M  V30 22833 C 2151.57 -1.89062 4.42503 0
M  V30 22834 C 2153.92 -1.67796 4.93451 0
M  V30 22835 C 2151.25 -1.41613 5.69353 0
M  V30 22836 C 2153.6 -1.21819 6.2076 0
M  V30 22837 C 2152.27 -1.08176 6.58676 0
M  V30 22838 H 2151.54 -0.482323 0.562535 0
M  V30 22839 H 2154.18 -0.629194 1.80868 0
M  V30 22840 H 2152.49 -3.19555 2.26697 0
M  V30 22841 H 2154.19 -3.03313 2.62302 0
M  V30 22842 H 2150.78 -2.11764 3.72631 0
M  V30 22843 H 2154.96 -1.76124 4.63998 0
M  V30 22844 H 2150.22 -1.29712 5.97482 0
M  V30 22845 H 2154.39 -0.949566 6.89896 0
M  V30 22846 H 2152.02 -0.711868 7.5686 0
M  V30 22847 N 2153.59 -1.35359 -0.807199 0
M  V30 22848 C 2154.87 -1.19163 -1.55111 0
M  V30 22849 C 2155.25 0.22949 -2.09849 0
M  V30 22850 O 2154.6 1.23292 -1.92383 0
M  V30 22851 C 2154.81 -2.25917 -2.66012 0
M  V30 22852 C 2156.15 -2.61693 -3.34368 0
M  V30 22853 O 2157.18 -2.24826 -2.76282 0
M  V30 22854 O 2156.04 -3.25083 -4.39299 0
M  V30 22855 H 2153.13 -0.462906 -0.685308 0
M  V30 22856 H 2155.68 -1.47039 -0.847213 0
M  V30 22857 H 2154.45 -3.21238 -2.23432 0
M  V30 22858 H 2154.07 -1.99307 -3.44038 0
M  V30 22859 N 2155.07 1.02928 -1.19346 0
M  V30 22860 C 2156 2.13099 -0.954528 0
M  V30 22861 C 2156.98 1.69731 0.111965 0
M  V30 22862 O 2158.17 1.94152 -0.0429718 0
M  V30 22863 C 2155.3 3.43798 -0.491955 0
M  V30 22864 C 2154.25 4.00845 -1.50024 0
M  V30 22865 C 2153.58 5.2716 -0.894759 0
M  V30 22866 C 2154.88 4.35699 -2.88035 0
M  V30 22867 H 2156.57 2.33345 -1.87592 0
M  V30 22868 H 2154.12 1.1214 -0.903366 0
M  V30 22869 H 2156.07 4.20243 -0.312095 0
M  V30 22870 H 2154.79 3.23272 0.46503 0
M  V30 22871 H 2153.45 3.26495 -1.66724 0
M  V30 22872 H 2153.1 5.02952 0.0697668 0
M  V30 22873 H 2152.8 5.66291 -1.56805 0
M  V30 22874 H 2154.32 6.06272 -0.725685 0
M  V30 22875 H 2155.74 5.03083 -2.7492 0
M  V30 22876 H 2154.13 4.8591 -3.52152 0
M  V30 22877 H 2155.2 3.45019 -3.4072 0
M  V30 22878 N 2156.55 0.997319 1.2203 0
M  V30 22879 C 2157.82 0.59145 1.86444 0
M  V30 22880 C 2158.2 -0.931144 1.89454 0
M  V30 22881 O 2157.55 -1.81492 1.38827 0
M  V30 22882 C 2157.76 1.21697 3.27095 0
M  V30 22883 C 2159.11 1.32027 4.03552 0
M  V30 22884 O 2160.13 1.1717 3.36377 0
M  V30 22885 O 2158.99 1.55846 5.23807 0
M  V30 22886 H 2156.09 0.201545 0.802065 0
M  V30 22887 H 2158.63 1.09348 1.29773 0
M  V30 22888 H 2157.41 2.25823 3.19562 0
M  V30 22889 H 2157.03 0.70081 3.91375 0
M  V30 22890 N 2158.03 -1.37449 0.771075 0
M  V30 22891 C 2159.44 -1.53106 0.450629 0
M  V30 22892 C 2159.64 -1.72957 -1.03384 0
M  V30 22893 O 2158.7 -1.75055 -1.81967 0
M  V30 22894 C 2160.01 -2.72792 1.26511 0
M  V30 22895 C 2161.56 -2.86653 1.25695 0
M  V30 22896 C 2162.03 -4.09321 2.05477 0
M  V30 22897 N 2163.53 -4.16432 2.02827 0
M  V30 22898 C 2164.26 -5.10381 2.61341 0
M  V30 22899 N 2163.76 -6.09892 3.2864 0
M  V30 22900 N 2165.55 -5.02859 2.51175 0
M  V30 22901 H 2157.7 -1.22815 1.73292 0
M  V30 22902 H 2159.96 -0.597977 0.735614 0
M  V30 22903 H 2159.67 -2.64586 2.31705 0
M  V30 22904 H 2159.54 -3.66457 0.893837 0
M  V30 22905 H 2161.93 -2.9433 0.213001 0
M  V30 22906 H 2162.01 -1.93949 1.66786 0
M  V30 22907 H 2161.66 -4.02404 3.09892 0
M  V30 22908 H 2161.59 -5.01137 1.61768 0
M  V30 22909 H 2164.08 -3.45173 1.53831 0
M  V30 22910 H 2164.39 -6.78106 3.70664 0
M  V30 22911 H 2162.73 -6.10172 3.32738 0
M  V30 22912 H 2165.93 -4.24063 1.98213 0
M  V30 22913 H 2166.1 -5.75893 2.97071 0
M  V30 22914 N 2159.5 -0.52156 -1.4872 0
M  V30 22915 C 2160.75 0.0156187 -2.02794 0
M  V30 22916 C 2161.08 1.34729 -1.39863 0
M  V30 22917 O 2160.36 1.86812 -0.541426 0
M  V30 22918 C 2160.64 0.146526 -3.59802 0
M  V30 22919 C 2160.49 -1.20972 -4.33227 0
M  V30 22920 C 2161.81 0.87737 -4.31266 0
M  V30 22921 H 2158.93 0.00420207 -0.736988 0
M  V30 22922 H 2161.57 -0.676958 -1.77531 0
M  V30 22923 H 2159.72 0.736393 -3.81457 0
M  V30 22924 H 2161.4 -1.84005 -4.23013 0
M  V30 22925 H 2159.64 -1.79378 -3.94976 0
M  V30 22926 H 2160.31 -1.07121 -5.41506 0
M  V30 22927 H 2162.79 0.376892 -4.1439 0
M  V30 22928 H 2161.66 0.937846 -5.40829 0
M  V30 22929 H 2161.92 1.92578 -3.97953 0
M  V30 22930 N 2160.98 1.55502 -0.256304 0
M  V30 22931 C 2162.4 1.59297 0.0983236 0
M  V30 22932 C 2162.6 1.27351 1.56154 0
M  V30 22933 O 2161.65 1.02533 2.30745 0
M  V30 22934 C 2162.97 2.9958 -0.259346 0
M  V30 22935 C 2164.52 3.12332 -0.204415 0
M  V30 22936 C 2164.99 4.5485 -0.536252 0
M  V30 22937 N 2166.48 4.60632 -0.487101 0
M  V30 22938 C 2167.22 5.68901 -0.716903 0
M  V30 22939 N 2166.71 6.85393 -1.01033 0
M  V30 22940 N 2168.51 5.58364 -0.646972 0
M  V30 22941 H 2160.66 1.74536 -1.21042 0
M  V30 22942 H 2162.92 0.812935 -0.487689 0
M  V30 22943 H 2162.63 3.27727 -1.27624 0
M  V30 22944 H 2162.5 3.74976 0.409004 0
M  V30 22945 H 2164.89 2.8396 0.803168 0
M  V30 22946 H 2164.97 2.3919 -0.906752 0
M  V30 22947 H 2164.61 4.83944 -1.54143 0
M  V30 22948 H 2164.54 5.26265 0.187668 0
M  V30 22949 H 2167.03 3.76938 -0.269421 0
M  V30 22950 H 2167.35 7.63848 -1.17285 0
M  V30 22951 H 2165.69 6.87055 -1.0479 0
M  V30 22952 H 2168.88 4.66233 -0.417713 0
M  V30 22953 H 2169.05 6.42669 -0.829457 0
M  V30 22954 N 2162.46 -0.0166879 1.57591 0
M  V30 22955 C 2163.69 -0.716426 1.941 0
M  V30 22956 C 2164.1 -1.68225 0.857081 0
M  V30 22957 O 2163.46 -1.81748 -0.165469 0
M  V30 22958 C 2163.51 -1.46279 3.30583 0
M  V30 22959 O 2163.23 -0.535718 4.34812 0
M  V30 22960 C 2164.73 -2.25856 3.8145 0
M  V30 22961 H 2161.95 -0.200593 0.640315 0
M  V30 22962 H 2164.5 0.0294696 2.04479 0
M  V30 22963 H 2162.65 -2.16045 3.21564 0
M  V30 22964 H 2163.07 -1.06046 5.13668 0
M  V30 22965 H 2164.54 -2.73602 4.79423 0
M  V30 22966 H 2165.02 -3.07813 3.13285 0
M  V30 22967 H 2165.62 -1.61139 3.93592 0
M  V30 22968 N 2163.94 -1.54924 -0.289176 0
M  V30 22969 C 2165.18 -1.75025 -1.0244 0
M  V30 22970 C 2165.52 -0.540906 -1.86515 0
M  V30 22971 O 2164.79 0.461833 -1.88937 0
M  V30 22972 C 2165.08 -3.04611 -1.92052 0
M  V30 22973 C 2164.93 -4.35869 -1.11079 0
M  V30 22974 C 2166.25 -3.30134 -2.91032 0
M  V30 22975 H 2163.37 -0.636806 -0.371008 0
M  V30 22976 H 2166.01 -1.87647 -0.298076 0
M  V30 22977 H 2164.16 -2.93981 -2.53983 0
M  V30 22978 H 2165.83 -4.58434 -0.513434 0
M  V30 22979 H 2164.07 -4.31822 -0.41379 0
M  V30 22980 H 2164.74 -5.22832 -1.7706 0
M  V30 22981 H 2167.22 -3.40451 -2.39233 0
M  V30 22982 H 2166.1 -4.221 -3.50889 0
M  V30 22983 H 2166.36 -2.48995 -3.65314 0
M  V30 22984 N 2165.42 0.552936 -1.47582 0
M  V30 22985 C 2166.64 1.33522 -1.58049 0
M  V30 22986 C 2167.06 1.87366 -0.232239 0
M  V30 22987 O 2166.42 1.6522 0.775159 0
M  V30 22988 C 2166.47 2.50216 -2.60911 0
M  V30 22989 O 2166.19 1.98596 -3.90502 0
M  V30 22990 C 2167.69 3.42367 -2.81602 0
M  V30 22991 H 2164.91 0.406868 -0.533572 0
M  V30 22992 H 2167.45 0.669389 -1.93234 0
M  V30 22993 H 2165.61 3.12728 -2.28648 0
M  V30 22994 H 2166.02 2.74809 -4.46744 0
M  V30 22995 H 2167.5 4.20653 -3.57429 0
M  V30 22996 H 2167.97 3.96177 -1.8958 0
M  V30 22997 H 2168.58 2.85666 -3.15079 0
M  V30 22998 N 2166.89 1.35785 0.800009 0
M  V30 22999 C 2168.14 1.29617 1.55972 0
M  V30 23000 C 2168.47 -0.12735 1.93782 0
M  V30 23001 O 2167.75 -1.07828 1.61875 0
M  V30 23002 C 2168.03 2.2089 2.84393 0
M  V30 23003 C 2167.88 3.7189 2.53018 0
M  V30 23004 C 2169.2 2.11141 3.86145 0
M  V30 23005 H 2166.32 0.472177 0.565878 0
M  V30 23006 H 2168.96 1.66245 0.919932 0
M  V30 23007 H 2167.11 1.89784 3.3899 0
M  V30 23008 H 2168.79 4.13468 2.04553 0
M  V30 23009 H 2167.03 3.91847 1.86114 0
M  V30 23010 H 2167.7 4.3115 3.44693 0
M  V30 23011 H 2170.18 2.38498 3.40966 0
M  V30 23012 H 2169.05 2.77192 4.73768 0
M  V30 23013 H 2169.31 1.09538 4.28315 0
M  V30 23014 N 2168.37 -1.02294 1.19891 0
M  V30 23015 C 2169.6 -1.79404 1.03062 0
M  V30 23016 C 2170.02 -1.84059 -0.420428 0
M  V30 23017 O 2169.37 -1.28896 -1.29198 0
M  V30 23018 C 2169.42 -3.24174 1.59979 0
M  V30 23019 O 2169.14 -3.19825 2.99405 0
M  V30 23020 C 2170.65 -4.17859 1.48016 0
M  V30 23021 H 2167.87 -0.564396 0.362902 0
M  V30 23022 H 2170.41 -1.28805 1.58838 0
M  V30 23023 H 2168.56 -3.71943 1.08338 0
M  V30 23024 H 2168.98 -4.10647 3.26296 0
M  V30 23025 H 2170.45 -5.17305 1.92611 0
M  V30 23026 H 2170.93 -4.37074 0.431619 0
M  V30 23027 H 2171.54 -3.75968 1.98817 0
M  V30 23028 N 2169.85 -1.00378 -1.21499 0
M  V30 23029 C 2170.78 -0.583318 -2.26097 0
M  V30 23030 C 2171.76 0.395257 -1.65444 0
M  V30 23031 O 2172.95 0.283508 -1.92119 0
M  V30 23032 C 2170.08 0.0920619 -3.47178 0
M  V30 23033 C 2169.03 -0.806168 -4.20339 0
M  V30 23034 C 2168.36 0.0027323 -5.347 0
M  V30 23035 C 2169.66 -2.1082 -4.77862 0
M  V30 23036 H 2171.35 -1.45765 -2.6152 0
M  V30 23037 H 2168.9 -0.702333 -1.25711 0
M  V30 23038 H 2170.85 0.397677 -4.19519 0
M  V30 23039 H 2169.57 1.00102 -3.10881 0
M  V30 23040 H 2168.23 -1.09559 -3.49846 0
M  V30 23041 H 2167.88 0.912942 -4.94646 0
M  V30 23042 H 2167.58 -0.595326 -5.84576 0
M  V30 23043 H 2169.1 0.302191 -6.09852 0
M  V30 23044 H 2170.52 -1.86581 -5.42089 0
M  V30 23045 H 2168.92 -2.656 -5.38123 0
M  V30 23046 H 2169.99 -2.77978 -3.97311 0
M  V30 23047 N 2171.33 1.37038 -0.778354 0
M  V30 23048 C 2172.58 1.99134 -0.344995 0
M  V30 23049 C 2172.9 1.62093 1.08402 0
M  V30 23050 O 2172.17 0.889547 1.74539 0
M  V30 23051 H 2170.75 0.73654 -0.124572 0
M  V30 23052 H 2173.41 1.67413 -0.997945 0
M  V30 23053 H 2172.51 3.09152 -0.427927 0
M  V30 23054 N 2172.81 0.529439 1.48441 0
M  V30 23055 C 2174.08 -0.0692247 1.95477 0
M  V30 23056 C 2174.46 -1.51345 1.47166 0
M  V30 23057 O 2173.81 -2.1758 0.697925 0
M  V30 23058 C 2174.02 0.0474683 3.48968 0
M  V30 23059 C 2175.37 -0.112074 4.24452 0
M  V30 23060 O 2176.39 -0.0263527 3.5619 0
M  V30 23061 O 2175.25 -0.291683 5.45721 0
M  V30 23062 H 2172.35 -0.079598 0.82316 0
M  V30 23063 H 2174.89 0.593999 1.58965 0
M  V30 23064 H 2173.67 1.05353 3.76851 0
M  V30 23065 H 2173.29 -0.65463 3.92174 0
M  V30 23066 N 2174.29 -1.55364 0.264547 0
M  V30 23067 C 2175.2 -2.25763 -0.637821 0
M  V30 23068 C 2176.21 -1.27983 -1.17883 0
M  V30 23069 O 2177.39 -1.60897 -1.21136 0
M  V30 23070 C 2174.45 -2.95689 -1.81021 0
M  V30 23071 C 2173.51 -4.08923 -1.30693 0
M  V30 23072 C 2172.75 -4.75505 -2.42344 0
M  V30 23073 O 2172.97 -4.41244 -3.61469 0
M  V30 23074 O 2171.9 -5.63667 -2.111 0
M  V30 23075 H 2175.73 -3.03624 -0.0678471 0
M  V30 23076 H 2173.31 -1.49365 0.0323545 0
M  V30 23077 H 2175.2 -3.39671 -2.49402 0
M  V30 23078 H 2173.87 -2.20754 -2.36747 0
M  V30 23079 H 2172.78 -3.6942 -0.589885 0
M  V30 23080 H 2174.11 -4.85728 -0.795542 0
M  V30 23081 N 2175.76 0.00833021 -1.57598 0
M  V30 23082 C 2176.71 1.00242 -2.07895 0
M  V30 23083 C 2177.68 1.34651 -0.972534 0
M  V30 23084 O 2178.87 1.44632 -1.24444 0
M  V30 23085 C 2176.01 2.2918 -2.58013 0
M  V30 23086 C 2175.12 2.00747 -3.82524 0
M  V30 23087 C 2174.25 3.23706 -4.21175 0
M  V30 23088 C 2173.29 2.90921 -5.38546 0
M  V30 23089 N 2172.43 4.06392 -5.72529 0
M  V30 23090 H 2177.27 0.566561 -2.92565 0
M  V30 23091 H 2174.81 0.268106 -1.44636 0
M  V30 23092 H 2176.76 3.04546 -2.85145 0
M  V30 23093 H 2175.39 2.7045 -1.76229 0
M  V30 23094 H 2174.45 1.15786 -3.6235 0
M  V30 23095 H 2175.76 1.72576 -4.67995 0
M  V30 23096 H 2174.91 4.07424 -4.49545 0
M  V30 23097 H 2173.65 3.55007 -3.34397 0
M  V30 23098 H 2172.66 2.05609 -5.09907 0
M  V30 23099 H 2173.88 2.60875 -6.26993 0
M  V30 23100 H 2171.83 4.37606 -4.88709 0
M  V30 23101 H 2171.74 3.81717 -6.52555 0
M  V30 23102 H 2173.01 4.90923 -6.05487 0
M  V30 23103 N 2177.24 1.55075 0.280956 0
M  V30 23104 C 2178.49 1.7496 1.0116 0
M  V30 23105 C 2178.81 0.549318 1.87103 0
M  V30 23106 O 2178.08 -0.435983 1.90987 0
M  V30 23107 H 2176.66 0.645185 0.376492 0
M  V30 23108 H 2179.32 1.92465 0.307104 0
M  V30 23109 H 2178.42 2.64721 1.65315 0
M  V30 23110 N 2178.72 -0.545102 1.47873 0
M  V30 23111 C 2179.67 -1.65111 1.61267 0
M  V30 23112 C 2180.64 -1.5974 0.455231 0
M  V30 23113 O 2181.82 -1.78392 0.676821 0
M  V30 23114 C 2178.96 -3.03411 1.64426 0
M  V30 23115 C 2178.07 -3.19128 2.91172 0
M  V30 23116 C 2177.21 -4.47898 2.85589 0
M  V30 23117 C 2176.25 -4.5709 4.07106 0
M  V30 23118 N 2175.39 -5.7723 3.99688 0
M  V30 23119 H 2180.23 -1.53001 2.55724 0
M  V30 23120 H 2177.76 -0.745128 1.26832 0
M  V30 23121 H 2179.72 -3.83511 1.6424 0
M  V30 23122 H 2178.35 -3.14327 0.734727 0
M  V30 23123 H 2177.4 -2.32379 3.01171 0
M  V30 23124 H 2178.71 -3.21783 3.81126 0
M  V30 23125 H 2177.87 -5.36272 2.8372 0
M  V30 23126 H 2176.61 -4.47741 1.93338 0
M  V30 23127 H 2175.61 -3.67125 4.09267 0
M  V30 23128 H 2176.84 -4.58998 5.00498 0
M  V30 23129 H 2174.78 -5.77998 3.10248 0
M  V30 23130 H 2174.7 -5.81315 4.83332 0
M  V30 23131 H 2175.97 -6.67932 4.01854 0
M  V30 23132 N 2180.2 -1.36208 -0.792797 0
M  V30 23133 C 2181.44 -1.30442 -1.55282 0
M  V30 23134 C 2181.78 0.117071 -1.93847 0
M  V30 23135 O 2181.05 1.06968 -1.62444 0
M  V30 23136 C 2181.33 -2.22396 -2.83218 0
M  V30 23137 C 2181.19 -3.73227 -2.51042 0
M  V30 23138 C 2182.51 -2.13185 -3.85019 0
M  V30 23139 H 2179.63 -0.475171 -0.563366 0
M  V30 23140 H 2182.27 -1.6673 -0.911103 0
M  V30 23141 H 2180.42 -1.9158 -3.37979 0
M  V30 23142 H 2182.09 -4.14547 -2.02358 0
M  V30 23143 H 2180.33 -3.92829 -1.84033 0
M  V30 23144 H 2181 -4.32972 -3.42402 0
M  V30 23145 H 2183.48 -2.40303 -3.39696 0
M  V30 23146 H 2182.36 -2.797 -4.72291 0
M  V30 23147 H 2182.62 -1.11808 -4.27728 0
M  V30 23148 N 2181.68 1.01656 -1.20431 0
M  V30 23149 C 2182.63 2.08579 -0.920808 0
M  V30 23150 C 2183.61 1.60457 0.119381 0
M  V30 23151 O 2184.8 1.76781 -0.0879963 0
M  V30 23152 C 2181.93 3.40001 -0.474754 0
M  V30 23153 C 2181.02 3.94824 -1.54837 0
M  V30 23154 N 2181.41 4.23156 -2.77079 0
M  V30 23155 C 2179.71 4.22974 -1.41454 0
M  V30 23156 C 2180.41 4.67364 -3.46331 0
M  V30 23157 N 2179.38 4.69643 -2.73745 0
M  V30 23158 H 2183.18 2.28393 -1.8497 0
M  V30 23159 H 2180.7 1.19627 -1.09832 0
M  V30 23160 H 2182.7 4.16131 -0.253053 0
M  V30 23161 H 2181.36 3.21601 0.447514 0
M  V30 23162 H 2182.37 4.12061 -3.13729 0
M  V30 23163 H 2179.04 4.13772 -0.556685 0
M  V30 23164 H 2180.43 4.98104 -4.50934 0
M  V30 23165 N 2183.15 1.01021 1.20965 0
M  V30 23166 C 2184.06 0.584483 2.27202 0
M  V30 23167 C 2185.08 -0.374977 1.69912 0
M  V30 23168 O 2186.26 -0.237516 1.99995 0
M  V30 23169 C 2183.32 -0.0769879 3.46615 0
M  V30 23170 C 2182.38 0.927608 4.19159 0
M  V30 23171 C 2181.61 0.297609 5.3287 0
M  V30 23172 O 2181.84 -0.904289 5.63186 0
M  V30 23173 O 2180.77 1.01114 5.93346 0
M  V30 23174 H 2184.6 1.46877 2.65821 0
M  V30 23175 H 2182.18 0.779356 1.27461 0
M  V30 23176 H 2184.06 -0.446718 4.19026 0
M  V30 23177 H 2182.74 -0.935572 3.09885 0
M  V30 23178 H 2181.65 1.34859 3.48947 0
M  V30 23179 H 2182.98 1.75595 4.59812 0
M  V30 23180 N 2184.63 -1.36623 0.78561 0
M  V30 23181 C 2185.86 -2.04129 0.366917 0
M  V30 23182 C 2186.28 -1.58852 -1.00736 0
M  V30 23183 O 2185.64 -0.755202 -1.64822 0
M  V30 23184 C 2185.69 -3.5797 0.43472 0
M  V30 23185 O 2184.79 -4.08584 -0.559755 0
M  V30 23186 H 2184.13 -0.645306 0.156447 0
M  V30 23187 H 2186.66 -1.74656 1.06566 0
M  V30 23188 H 2186.67 -4.06918 0.296959 0
M  V30 23189 H 2185.35 -3.90277 1.43724 0
M  V30 23190 H 2183.92 -3.70918 -0.38397 0
M  V30 23191 N 2186.11 -0.537304 -1.48158 0
M  V30 23192 C 2187.36 -0.00384223 -2.017 0
M  V30 23193 C 2187.67 1.34625 -1.419 0
M  V30 23194 O 2188.88 1.96849 -1.86983 0
M  V30 23195 C 2187.33 0.0435291 -3.59874 0
M  V30 23196 C 2186.94 -1.30211 -4.2866 0
M  V30 23197 C 2188.69 0.525433 -4.21236 0
M  V30 23198 C 2186.59 -1.21492 -5.78786 0
M  V30 23199 H 2185.52 0.00233368 -0.753996 0
M  V30 23200 H 2188.17 -0.682181 -1.70348 0
M  V30 23201 H 2186.56 0.7871 -3.88099 0
M  V30 23202 H 2187.73 -2.06182 -4.12099 0
M  V30 23203 H 2186.04 -1.72034 -3.79201 0
M  V30 23204 H 2188.64 0.608744 -5.31223 0
M  V30 23205 H 2188.98 1.5329 -3.8705 0
M  V30 23206 H 2189.52 -0.162674 -3.97467 0
M  V30 23207 H 2186.26 -2.19778 -6.17558 0
M  V30 23208 H 2185.78 -0.496694 -5.9774 0
M  V30 23209 H 2187.46 -0.908641 -6.40588 0
M  V30 23210 N 2187.59 1.55221 -0.272782 0
M  V30 23211 C 2188.54 2.22436 0.615702 0
M  V30 23212 C 2189.51 1.19702 1.15155 0
M  V30 23213 O 2190.69 1.48236 1.20128 0
M  V30 23214 C 2187.83 2.94739 1.79507 0
M  V30 23215 C 2186.94 4.12186 1.2933 0
M  V30 23216 C 2186.08 4.7214 2.43429 0
M  V30 23217 C 2185.12 5.81785 1.90243 0
M  V30 23218 N 2184.25 6.35811 2.97806 0
M  V30 23219 H 2189.09 2.97978 0.0358746 0
M  V30 23220 H 2186.63 1.47099 0.00594098 0
M  V30 23221 H 2188.59 3.34874 2.48828 0
M  V30 23222 H 2187.22 2.21624 2.34697 0
M  V30 23223 H 2186.27 3.77188 0.493274 0
M  V30 23224 H 2187.58 4.91265 0.86373 0
M  V30 23225 H 2186.74 5.14982 3.20747 0
M  V30 23226 H 2185.48 3.92333 2.897 0
M  V30 23227 H 2184.48 5.38395 1.11404 0
M  V30 23228 H 2185.71 6.63459 1.4491 0
M  V30 23229 H 2183.65 5.589 3.43464 0
M  V30 23230 H 2183.57 7.10156 2.59258 0
M  V30 23231 H 2184.84 6.83312 3.75106 0
M  V30 23232 N 2189.07 2.77022e-05 1.576 0
M  V30 23233 C 2190.48 -0.35605 1.55578 0
M  V30 23234 C 2190.68 -1.74784 1.00264 0
M  V30 23235 O 2189.74 -2.44347 0.636465 0
M  V30 23236 C 2191.05 -0.231258 2.99809 0
M  V30 23237 C 2192.6 -0.306194 3.11499 0
M  V30 23238 C 2193.07 -0.210525 4.57516 0
M  V30 23239 N 2194.57 -0.268424 4.62422 0
M  V30 23240 C 2195.3 -0.217739 5.72986 0
M  V30 23241 N 2194.8 -0.117649 6.927 0
M  V30 23242 N 2196.59 -0.269606 5.61453 0
M  V30 23243 H 2188.74 0.91049 1.91895 0
M  V30 23244 H 2191 0.349005 0.881419 0
M  V30 23245 H 2190.71 0.726333 3.44118 0
M  V30 23246 H 2190.58 -1.01332 3.63334 0
M  V30 23247 H 2192.97 -1.25423 2.6712 0
M  V30 23248 H 2193.05 0.505733 2.50751 0
M  V30 23249 H 2192.7 0.733965 5.02569 0
M  V30 23250 H 2192.63 -1.04094 5.16209 0
M  V30 23251 H 2195.12 -0.347112 3.76302 0
M  V30 23252 H 2195.43 -0.0848705 7.72753 0
M  V30 23253 H 2193.77 -0.0832758 6.9495 0
M  V30 23254 H 2196.97 -0.345996 4.6682 0
M  V30 23255 H 2197.14 -0.22664 6.47604 0
M  V30 23256 N 2190.54 -1.55222 -0.272728 0
M  V30 23257 C 2191.77 -1.80199 -1.02679 0
M  V30 23258 C 2192.19 -0.573583 -1.79141 0
M  V30 23259 O 2191.55 0.476818 -1.74918 0
M  V30 23260 C 2191.6 -3.02627 -1.96084 0
M  V30 23261 O 2190.7 -2.77732 -3.04858 0
M  V30 23262 H 2190.05 -0.595589 -0.293547 0
M  V30 23263 H 2192.58 -2.02366 -0.301554 0
M  V30 23264 H 2192.59 -3.31367 -2.38033 0
M  V30 23265 H 2191.26 -3.91684 -1.39844 0
M  V30 23266 H 2189.84 -2.60089 -2.67223 0
M  V30 23267 N 2192.02 0.537252 -1.4816 0
M  V30 23268 C 2192.97 1.66349 -1.62575 0
M  V30 23269 C 2193.96 1.62086 -0.492394 0
M  V30 23270 O 2195.17 1.67031 -0.670876 0
M  V30 23271 H 2191.55 0.55078 -0.512001 0
M  V30 23272 H 2193.52 1.51332 -2.57179 0
M  V30 23273 C 2192.27 3.04646 -1.67589 0
M  V30 23274 H 2191.59 3.08617 -2.54156 0
M  V30 23275 H 2193.03 3.83085 -1.8172 0
M  V30 23276 C 2191.49 3.34358 -0.413097 0
M  V30 23277 O 2192.02 3.98856 0.477189 0
M  V30 23278 N 2190.22 2.89179 -0.287012 0
M  V30 23279 H 2189.77 2.3687 -1.01245 0
M  V30 23280 H 2189.73 3.09428 0.556909 0
M  V30 23281 N 2193.5 1.36626 0.785562 0
M  V30 23282 C 2194.74 1.32455 1.55676 0
M  V30 23283 C 2195.1 -0.0940752 1.91769 0
M  V30 23284 O 2196.31 -0.260373 2.67536 0
M  V30 23285 C 2194.58 2.22495 2.79697 0
M  V30 23286 S 2196.14 2.36045 3.69903 0
M  V30 23287 H 2192.95 0.470415 0.533133 0
M  V30 23288 H 2195.56 1.72237 0.924923 0
M  V30 23289 H 2194.26 3.24511 2.51238 0
M  V30 23290 H 2193.79 1.83748 3.47851 0
M  V30 23291 H 2195.81 1.5608 4.71013 0
M  V30 23292 N 2194.98 -1.01016 1.20969 0
M  V30 23293 C 2196.21 -1.78043 1.04806 0
M  V30 23294 C 2196.62 -1.84805 -0.405429 0
M  V30 23295 O 2195.96 -1.30471 -1.29318 0
M  V30 23296 C 2196.02 -3.23705 1.56383 0
M  V30 23297 C 2195.69 -3.40533 3.04773 0
M  V30 23298 C 2196.68 -3.29231 4.02371 0
M  V30 23299 C 2194.37 -3.66141 3.43869 0
M  V30 23300 C 2196.36 -3.43294 5.37055 0
M  V30 23301 C 2194.05 -3.79847 4.78706 0
M  V30 23302 C 2195.05 -3.68429 5.75108 0
M  V30 23303 O 2194.73 -3.81706 7.075 0
M  V30 23304 H 2194.47 -0.566543 0.368788 0
M  V30 23305 H 2197.02 -1.27994 1.60645 0
M  V30 23306 H 2195.25 -3.74865 0.949363 0
M  V30 23307 H 2196.94 -3.82387 1.36142 0
M  V30 23308 H 2197.71 -3.09377 3.73511 0
M  V30 23309 H 2193.58 -3.74113 2.69371 0
M  V30 23310 H 2197.13 -3.34299 6.12283 0
M  V30 23311 H 2193.03 -3.99204 5.07254 0
M  V30 23312 H 2193.79 -3.98685 7.14837 0
M  V30 23313 N 2196.46 -1.01661 -1.20428 0
M  V30 23314 C 2197.39 -0.53156 -2.21923 0
M  V30 23315 C 2198.37 0.421005 -1.57055 0
M  V30 23316 O 2199.55 0.341002 -1.8539 0
M  V30 23317 C 2196.68 0.226436 -3.37942 0
M  V30 23318 C 2195.72 -0.675684 -4.21114 0
M  V30 23319 S 2196.56 -2.14484 -4.9067 0
M  V30 23320 C 2197.71 -1.39701 -6.1011 0
M  V30 23321 H 2197.95 -1.39155 -2.62723 0
M  V30 23322 H 2195.48 -0.825502 -1.30479 0
M  V30 23323 H 2197.44 0.657666 -4.05197 0
M  V30 23324 H 2196.1 1.06199 -2.95602 0
M  V30 23325 H 2195.29 -0.0911965 -5.03917 0
M  V30 23326 H 2194.89 -1.04469 -3.59113 0
M  V30 23327 H 2197.19 -0.677015 -6.74109 0
M  V30 23328 H 2198.13 -2.20118 -6.73018 0
M  V30 23329 H 2198.54 -0.899884 -5.57281 0
M  V30 23330 N 2197.93 1.36205 -0.792844 0
M  V30 23331 C 2199.18 1.99445 -0.367365 0
M  V30 23332 C 2199.51 1.62776 1.05914 0
M  V30 23333 O 2198.79 0.884241 1.73238 0
M  V30 23334 C 2199.07 3.56102 -0.535107 0
M  V30 23335 C 2198.92 4.02614 -2.00555 0
M  V30 23336 C 2200.24 4.40074 0.0477417 0
M  V30 23337 H 2197.36 0.724539 -0.134954 0
M  V30 23338 H 2200 1.61566 -0.999822 0
M  V30 23339 H 2198.15 3.885 0.003295 0
M  V30 23340 H 2199.83 3.80688 -2.60527 0
M  V30 23341 H 2198.07 3.54028 -2.50693 0
M  V30 23342 H 2198.74 5.11561 -2.07386 0
M  V30 23343 H 2201.22 4.14056 -0.411895 0
M  V30 23344 H 2200.09 5.4881 -0.0996301 0
M  V30 23345 H 2200.35 4.27144 1.14018 0
M  V30 23346 N 2199.41 0.545154 1.47871 0
M  V30 23347 C 2200.65 0.0188213 2.04391 0
M  V30 23348 C 2201.02 -1.30141 1.41164 0
M  V30 23349 O 2202.22 -1.9147 1.8866 0
M  V30 23350 C 2200.49 -0.0850239 3.57299 0
M  V30 23351 S 2202.05 -0.559225 4.35222 0
M  V30 23352 H 2198.87 0.0193426 0.710737 0
M  V30 23353 H 2201.47 0.729157 1.81393 0
M  V30 23354 H 2200.17 0.880421 4.00845 0
M  V30 23355 H 2199.7 -0.81928 3.84774 0
M  V30 23356 H 2201.72 -1.8211 4.61574 0
M  V30 23357 N 2200.89 -1.55074 0.28101 0
M  V30 23358 C 2201.85 -2.21453 -0.590858 0
M  V30 23359 C 2202.85 -1.19423 -1.07679 0
M  V30 23360 O 2204.04 -1.44289 -0.976025 0
M  V30 23361 C 2201.18 -2.88515 -1.81582 0
M  V30 23362 H 2202.37 -2.99898 -0.0112027 0
M  V30 23363 H 2199.92 -1.56268 0.0316713 0
M  V30 23364 H 2200.66 -2.14097 -2.43584 0
M  V30 23365 H 2200.44 -3.63289 -1.47524 0
M  V30 23366 H 2201.93 -3.39211 -2.43569 0
M  V30 23367 N 2202.37 -0.00838561 -1.57598 0
M  V30 23368 C 2203.62 0.673366 -1.90552 0
M  V30 23369 C 2203.94 1.73845 -0.883332 0
M  V30 23370 O 2203.21 1.95744 0.0781097 0
M  V30 23371 H 2201.79 0.251704 -0.703316 0
M  V30 23372 H 2204.45 -0.0512934 -1.94832 0
M  V30 23373 H 2203.55 1.1393 -2.90562 0
M  V30 23374 N 2203.85 1.55365 0.264492 0
M  V30 23375 C 2204.76 1.91936 1.34899 0
M  V30 23376 C 2205.77 0.81762 1.53594 0
M  V30 23377 O 2206.95 1.11745 1.67556 0
M  V30 23378 C 2204.01 2.19126 2.68672 0
M  V30 23379 C 2203.08 3.42634 2.58651 0
M  V30 23380 C 2202.31 3.68517 3.86045 0
M  V30 23381 O 2202.53 2.96765 4.87121 0
M  V30 23382 O 2201.47 4.62051 3.85736 0
M  V30 23383 H 2205.29 2.84272 1.06878 0
M  V30 23384 H 2202.88 1.4202 0.46375 0
M  V30 23385 H 2204.76 2.38001 3.47755 0
M  V30 23386 H 2203.43 1.29971 2.96461 0
M  V30 23387 H 2202.34 3.29086 1.77914 0
M  V30 23388 H 2203.67 4.32035 2.3581 0
M  V30 23389 N 2205.33 -0.529387 1.48443 0
M  V30 23390 C 2206.55 -1.31468 1.60409 0
M  V30 23391 C 2206.98 -1.86227 0.264771 0
M  V30 23392 O 2206.33 -1.64433 -0.763639 0
M  V30 23393 C 2206.38 -2.44096 2.65423 0
M  V30 23394 O 2205.49 -3.47149 2.22624 0
M  V30 23395 H 2204.83 -0.389348 0.53787 0
M  V30 23396 H 2207.36 -0.636931 1.94433 0
M  V30 23397 H 2207.37 -2.90274 2.86715 0
M  V30 23398 H 2206.04 -2.03601 3.62656 0
M  V30 23399 H 2204.62 -3.07086 2.11548 0
M  V30 23400 N 2206.8 -1.37041 -0.778305 0
M  V30 23401 C 2207.74 -1.26636 -1.89838 0
M  V30 23402 C 2208.71 -0.148225 -1.61923 0
M  V30 23403 O 2209.9 -0.321298 -1.85742 0
M  V30 23404 C 2207.03 -0.95646 -3.24915 0
M  V30 23405 C 2206.07 -2.09058 -3.71749 0
M  V30 23406 S 2206.9 -3.70964 -3.86194 0
M  V30 23407 C 2208.06 -3.4211 -5.24129 0
M  V30 23408 H 2208.29 -2.21439 -1.98373 0
M  V30 23409 H 2205.83 -1.22587 -0.938717 0
M  V30 23410 H 2207.78 -0.78448 -4.02934 0
M  V30 23411 H 2206.45 -0.0260265 -3.14089 0
M  V30 23412 H 2205.64 -1.82858 -4.69658 0
M  V30 23413 H 2205.24 -2.22235 -3.00811 0
M  V30 23414 H 2207.53 -2.96692 -6.09081 0
M  V30 23415 H 2208.48 -4.39324 -5.55338 0
M  V30 23416 H 2208.88 -2.77194 -4.91756 0
M  V30 23417 N 2208.28 1.00373 -1.21503 0
M  V30 23418 C 2209.51 1.78278 -1.0598 0
M  V30 23419 C 2209.93 1.84098 0.385962 0
M  V30 23420 O 2209.29 1.28549 1.27847 0
M  V30 23421 C 2209.34 3.1996 -1.66307 0
M  V30 23422 O 2208.44 4.02248 -0.909404 0
M  V30 23423 H 2207.78 0.54939 -0.372916 0
M  V30 23424 H 2210.31 1.26162 -1.61072 0
M  V30 23425 H 2210.32 3.70629 -1.70581 0
M  V30 23426 H 2209 3.15038 -2.71521 0
M  V30 23427 H 2207.57 3.60809 -0.941859 0
M  V30 23428 N 2209.76 1.02298 1.19887 0
M  V30 23429 C 2211.17 0.746598 1.71122 0
M  V30 23430 C 2211.52 -0.734303 1.81941 0
M  V30 23431 O 2210.65 -1.57272 1.48642 0
M  V30 23432 C 2211.24 1.34862 3.10802 0
M  V30 23433 C 2209.8 1.12096 3.59321 0
M  V30 23434 C 2208.95 1.45035 2.36347 0
M  V30 23435 H 2211.9 1.19165 1.04811 0
M  V30 23436 H 2211.92 0.742503 3.73185 0
M  V30 23437 H 2211.43 2.42643 3.02896 0
M  V30 23438 H 2209.53 0.0610992 3.7255 0
M  V30 23439 H 2209.65 1.80551 4.43777 0
M  V30 23440 H 2208.01 0.869529 2.39398 0
M  V30 23441 H 2208.79 2.53887 2.31076 0
M  V30 23442 N 2211.24 -1.35782 0.800057 0
M  V30 23443 C 2212.49 -1.9856 0.376632 0
M  V30 23444 C 2212.81 -1.63797 -1.0581 0
M  V30 23445 O 2212.08 -0.917202 -1.73102 0
M  V30 23446 H 2210.66 -0.734465 0.136274 0
M  V30 23447 H 2213.32 -1.65804 1.02445 0
M  V30 23448 H 2212.41 -3.08432 0.477056 0
M  V30 23449 N 2212.72 -0.552988 -1.4758 0
M  V30 23450 C 2213.65 0.234493 -2.27997 0
M  V30 23451 C 2214.66 0.883297 -1.36754 0
M  V30 23452 O 2215.85 0.75786 -1.61613 0
M  V30 23453 C 2212.95 1.3493 -3.10881 0
M  V30 23454 C 2212.12 0.798083 -4.30057 0
M  V30 23455 C 2211.18 1.79686 -4.9457 0
M  V30 23456 O 2210.21 1.34465 -5.53089 0
M  V30 23457 N 2211.41 3.13006 -4.88884 0
M  V30 23458 H 2214.17 -0.455307 -2.96221 0
M  V30 23459 H 2211.74 -0.388789 -1.57162 0
M  V30 23460 H 2213.73 2.0161 -3.50907 0
M  V30 23461 H 2212.3 1.9424 -2.44928 0
M  V30 23462 H 2211.52 -0.0453772 -3.94174 0
M  V30 23463 H 2212.81 0.409084 -5.07153 0
M  V30 23464 H 2212.2 3.52394 -4.42532 0
M  V30 23465 H 2210.76 3.75256 -5.32941 0
M  V30 23466 N 2214.19 1.54923 -0.28923 0
M  V30 23467 C 2215.44 1.99505 0.322844 0
M  V30 23468 C 2215.76 1.17913 1.55311 0
M  V30 23469 O 2215.03 0.272131 1.94001 0
M  V30 23470 H 2213.61 0.736924 0.122278 0
M  V30 23471 H 2216.27 1.90796 -0.397836 0
M  V30 23472 H 2215.37 3.06219 0.603007 0
M  V30 23473 N 2215.67 0.0167433 1.57591 0
M  V30 23474 C 2217.09 -0.339529 1.55947 0
M  V30 23475 C 2217.29 -1.73711 1.02112 0
M  V30 23476 O 2216.34 -2.43658 0.662345 0
M  V30 23477 C 2217.66 -0.199446 3.00038 0
M  V30 23478 C 2219.2 -0.273139 3.11806 0
M  V30 23479 C 2219.68 -0.161988 4.57713 0
M  V30 23480 N 2221.17 -0.219363 4.6268 0
M  V30 23481 C 2221.91 -0.156954 5.73185 0
M  V30 23482 N 2221.4 -0.0441718 6.92786 0
M  V30 23483 N 2223.19 -0.210041 5.61707 0
M  V30 23484 H 2215.35 0.930792 1.90919 0
M  V30 23485 H 2217.61 0.358334 0.877668 0
M  V30 23486 H 2217.31 0.76279 3.43328 0
M  V30 23487 H 2217.19 -0.974722 3.64389 0
M  V30 23488 H 2219.58 -1.22583 2.68435 0
M  V30 23489 H 2219.66 0.5323 2.502 0
M  V30 23490 H 2219.3 0.787228 5.01762 0
M  V30 23491 H 2219.23 -0.986131 5.17284 0
M  V30 23492 H 2221.72 -0.30718 3.76649 0
M  V30 23493 H 2222.03 -0.00290485 7.728 0
M  V30 23494 H 2220.38 -0.00956241 6.94999 0
M  V30 23495 H 2223.57 -0.296464 4.6716 0
M  V30 23496 H 2223.74 -0.15794 6.47807 0
M  V30 23497 N 2217.15 -1.55503 -0.256249 0
M  V30 23498 C 2218.1 -1.90341 -1.33691 0
M  V30 23499 C 2219.09 -0.781468 -1.50298 0
M  V30 23500 O 2220.3 -0.965992 -1.51883 0
M  V30 23501 H 2216.67 -0.604378 -0.447473 0
M  V30 23502 H 2218.64 -2.80582 -1.01569 0
M  V30 23503 C 2217.39 -2.20647 -2.6872 0
M  V30 23504 H 2216.72 -3.06473 -2.56738 0
M  V30 23505 H 2218.16 -2.48932 -3.43233 0
M  V30 23506 C 2216.62 -1.01964 -3.21099 0
M  V30 23507 O 2217.15 -0.262832 -4.00839 0
M  V30 23508 N 2215.35 -0.812795 -2.79002 0
M  V30 23509 H 2214.9 -1.42992 -2.14268 0
M  V30 23510 H 2214.86 -0.0203628 -3.14393 0
M  V30 23511 N 2218.63 0.521507 -1.48721 0
M  V30 23512 C 2219.58 1.64615 -1.64331 0
M  V30 23513 C 2220.57 1.61555 -0.509558 0
M  V30 23514 O 2221.78 1.6631 -0.688554 0
M  V30 23515 H 2218.15 0.545319 -0.517814 0
M  V30 23516 H 2220.12 1.48596 -2.5877 0
M  V30 23517 C 2218.87 3.02852 -1.7081 0
M  V30 23518 H 2218.19 3.05904 -2.57415 0
M  V30 23519 H 2219.63 3.81136 -1.85773 0
M  V30 23520 C 2218.09 3.33901 -0.448537 0
M  V30 23521 O 2218.62 3.99339 0.434858 0
M  V30 23522 N 2216.83 2.88859 -0.317667 0
M  V30 23523 H 2216.38 2.35782 -1.03752 0
M  V30 23524 H 2216.33 3.10002 0.524058 0
M  V30 23525 N 2220.11 1.37452 0.771027 0
M  V30 23526 C 2221.05 1.33361 1.90572 0
M  V30 23527 C 2222.05 0.22227 1.67935 0
M  V30 23528 O 2223.25 0.390335 1.75717 0
M  V30 23529 H 2219.63 0.415623 0.626707 0
M  V30 23530 H 2221.6 2.29148 1.91138 0
M  V30 23531 C 2220.35 1.15819 3.27843 0
M  V30 23532 H 2219.67 2.00589 3.45838 0
M  V30 23533 H 2221.11 1.17007 4.07536 0
M  V30 23534 C 2219.57 -0.136106 3.36625 0
M  V30 23535 O 2220.1 -1.11942 3.85787 0
M  V30 23536 N 2218.31 -0.187048 2.89997 0
M  V30 23537 H 2217.85 0.613797 2.50181 0
M  V30 23538 H 2217.81 -1.05266 2.96254 0
M  V30 23539 N 2221.58 -0.997276 1.22033 0
M  V30 23540 C 2222.83 -1.73276 1.04019 0
M  V30 23541 C 2223.15 -1.90285 -0.426222 0
M  V30 23542 O 2222.42 -1.45933 -1.30691 0
M  V30 23543 H 2221 -0.641993 0.381908 0
M  V30 23544 H 2223.67 -1.20135 1.53472 0
M  V30 23545 H 2222.76 -2.72893 1.51446 0
M  V30 23546 N 2223.06 -1.02932 -1.19343 0
M  V30 23547 C 2223.99 -0.631145 -2.24808 0
M  V30 23548 C 2224.97 0.360075 -1.66245 0
M  V30 23549 O 2226.16 0.242692 -1.92678 0
M  V30 23550 C 2223.29 0.0183996 -3.47295 0
M  V30 23551 C 2222.24 -0.895147 -4.18534 0
M  V30 23552 C 2221.57 -0.110686 -5.34585 0
M  V30 23553 C 2222.87 -2.20909 -4.73283 0
M  V30 23554 H 2224.56 -1.5128 -2.5837 0
M  V30 23555 H 2222.11 -0.72884 -1.24193 0
M  V30 23556 H 2224.06 0.308601 -4.20269 0
M  V30 23557 H 2222.79 0.934852 -3.12935 0
M  V30 23558 H 2221.44 -1.16955 -3.47444 0
M  V30 23559 H 2221.09 0.807815 -4.96471 0
M  V30 23560 H 2220.79 -0.71919 -5.83182 0
M  V30 23561 H 2222.32 0.172764 -6.10356 0
M  V30 23562 H 2223.73 -1.98038 -5.38009 0
M  V30 23563 H 2222.13 -2.76955 -5.32368 0
M  V30 23564 H 2223.2 -2.86343 -3.91326 0
M  V30 23565 N 2224.54 1.35356 -0.807246 0
M  V30 23566 C 2225.45 2.3357 -0.219635 0
M  V30 23567 C 2226.47 1.61893 0.637705 0
M  V30 23568 O 2227.64 1.93764 0.549302 0
M  V30 23569 C 2224.71 3.41084 0.62152 0
M  V30 23570 C 2223.77 4.28534 -0.25639 0
M  V30 23571 C 2223 5.30913 0.544713 0
M  V30 23572 O 2223.22 5.41937 1.77935 0
M  V30 23573 O 2222.16 6.01865 -0.0647536 0
M  V30 23574 H 2225.98 2.85624 -1.03213 0
M  V30 23575 H 2223.57 1.38138 -0.569049 0
M  V30 23576 H 2225.45 4.06774 1.1006 0
M  V30 23577 H 2224.13 2.913 1.4116 0
M  V30 23578 H 2223.03 3.65822 -0.782623 0
M  V30 23579 H 2224.37 4.81717 -1.01043 0
M  V30 23580 N 2226.02 0.560807 1.47284 0
M  V30 23581 C 2227.27 0.0359304 2.01668 0
M  V30 23582 C 2227.58 -1.3235 1.44024 0
M  V30 23583 O 2228.79 -1.93849 1.90091 0
M  V30 23584 C 2227.24 0.0137292 3.59897 0
M  V30 23585 C 2226.85 1.37014 4.26534 0
M  V30 23586 C 2228.59 -0.458351 4.22018 0
M  V30 23587 C 2226.5 1.30685 5.7678 0
M  V30 23588 H 2225.43 0.00966204 0.753938 0
M  V30 23589 H 2228.08 0.709195 1.69241 0
M  V30 23590 H 2226.46 -0.725257 3.89302 0
M  V30 23591 H 2227.64 2.12712 4.08767 0
M  V30 23592 H 2225.95 1.78045 3.76416 0
M  V30 23593 H 2228.55 -0.524154 5.32125 0
M  V30 23594 H 2228.89 -1.47113 3.8944 0
M  V30 23595 H 2229.43 0.225887 3.97158 0
M  V30 23596 H 2226.17 2.29575 6.13984 0
M  V30 23597 H 2225.69 0.591727 5.96874 0
M  V30 23598 H 2227.36 1.01044 6.39061 0
M  V30 23599 N 2227.5 -1.54768 0.297442 0
M  V30 23600 C 2228.74 -1.99673 -0.31226 0
M  V30 23601 C 2229.07 -1.18735 -1.54684 0
M  V30 23602 O 2228.34 -0.282416 -1.93854 0
M  V30 23603 H 2226.92 -0.737562 -0.118368 0
M  V30 23604 H 2229.58 -1.90583 0.407949 0
M  V30 23605 H 2228.67 -3.06535 -0.586759 0
M  V30 23606 N 2228.97 -0.0251005 -1.5758 0
M  V30 23607 C 2230.21 0.658616 -1.93498 0
M  V30 23608 C 2230.58 1.69523 -0.901439 0
M  V30 23609 O 2231.78 2.43114 -1.14669 0
M  V30 23610 C 2230.05 1.26262 -3.34354 0
M  V30 23611 S 2231.61 1.96796 -3.92195 0
M  V30 23612 H 2228.43 0.216946 -0.677093 0
M  V30 23613 H 2231.03 -0.0878035 -1.95303 0
M  V30 23614 H 2229.73 0.495669 -4.07396 0
M  V30 23615 H 2229.26 2.04642 -3.35984 0
M  V30 23616 H 2231.28 3.24595 -3.75304 0
M  V30 23617 N 2230.45 1.55637 0.247999 0
M  V30 23618 C 2231.7 1.7768 0.977639 0
M  V30 23619 C 2232.03 0.590167 1.85015 0
M  V30 23620 O 2231.31 -0.411578 1.90095 0
M  V30 23621 C 2231.59 3.09596 1.83908 0
M  V30 23622 C 2231.44 4.38661 0.994833 0
M  V30 23623 C 2232.76 3.37734 2.82177 0
M  V30 23624 H 2229.88 0.646419 0.353994 0
M  V30 23625 H 2232.52 1.88372 0.248219 0
M  V30 23626 H 2230.67 3.00612 2.46099 0
M  V30 23627 H 2232.34 4.59634 0.391708 0
M  V30 23628 H 2230.59 4.32767 0.299155 0
M  V30 23629 H 2231.26 5.27343 1.63136 0
M  V30 23630 H 2233.73 3.46674 2.30123 0
M  V30 23631 H 2232.61 4.31255 3.39574 0
M  V30 23632 H 2232.87 2.58593 3.58584 0
M  V30 23633 N 2231.93 -0.513613 1.48996 0
M  V30 23634 C 2233.18 -1.27039 1.58079 0
M  V30 23635 C 2233.51 -1.92437 0.261059 0
M  V30 23636 O 2232.79 -1.80104 -0.734361 0
M  V30 23637 C 2233.07 -2.34714 2.73096 0
M  V30 23638 C 2232.92 -1.739 4.14824 0
M  V30 23639 C 2234.24 -3.3637 2.83802 0
M  V30 23640 H 2231.36 -0.460526 0.575399 0
M  V30 23641 H 2234 -0.570484 1.81233 0
M  V30 23642 H 2232.15 -2.94412 2.53484 0
M  V30 23643 H 2233.82 -1.18128 4.45919 0
M  V30 23644 H 2232.07 -1.04362 4.21059 0
M  V30 23645 H 2232.74 -2.5194 4.91152 0
M  V30 23646 H 2235.21 -2.86648 3.01616 0
M  V30 23647 H 2234.09 -4.09086 3.65978 0
M  V30 23648 H 2234.35 -3.97927 1.92631 0
M  V30 23649 N 2233.41 -1.37859 -0.763727 0
M  V30 23650 C 2234.69 -1.24037 -1.51242 0
M  V30 23651 C 2235.07 0.162612 -2.10473 0
M  V30 23652 O 2234.41 1.17109 -1.96208 0
M  V30 23653 C 2234.62 -2.34266 -2.5869 0
M  V30 23654 C 2235.97 -2.72199 -3.25873 0
M  V30 23655 O 2237 -2.33502 -2.68989 0
M  V30 23656 O 2235.86 -3.38894 -4.28734 0
M  V30 23657 H 2232.95 -0.484474 -0.670234 0
M  V30 23658 H 2235.5 -1.4966 -0.800005 0
M  V30 23659 H 2234.27 -3.28184 -2.13099 0
M  V30 23660 H 2233.89 -2.10152 -3.37523 0
M  V30 23661 N 2234.89 0.990791 -1.22561 0
M  V30 23662 C 2235.85 2.06288 -0.998899 0
M  V30 23663 C 2236.85 1.60761 0.0354551 0
M  V30 23664 O 2238.04 1.7301 -0.203261 0
M  V30 23665 C 2235.17 3.37075 -0.509263 0
M  V30 23666 H 2236.37 2.27833 -1.95018 0
M  V30 23667 H 2233.92 1.16267 -1.04459 0
M  V30 23668 H 2234.65 3.21215 0.446279 0
M  V30 23669 H 2234.44 3.71455 -1.25554 0
M  V30 23670 H 2235.93 4.15949 -0.370961 0
M  V30 23671 N 2236.37 1.03564 1.18795 0
M  V30 23672 C 2237.33 0.626808 2.20463 0
M  V30 23673 C 2238.33 -0.313146 1.57721 0
M  V30 23674 O 2239.52 -0.099231 1.73917 0
M  V30 23675 C 2236.65 -0.0817899 3.40802 0
M  V30 23676 H 2237.84 1.52645 2.58147 0
M  V30 23677 H 2235.4 0.827601 1.32591 0
M  V30 23678 H 2236.13 -0.995464 3.08644 0
M  V30 23679 H 2235.92 0.59372 3.87579 0
M  V30 23680 H 2237.41 -0.35451 4.16093 0
M  V30 23681 N 2237.84 -1.34926 0.814413 0
M  V30 23682 C 2239.07 -2.03304 0.410133 0
M  V30 23683 C 2239.49 -1.60953 -0.973436 0
M  V30 23684 O 2238.85 -0.789993 -1.63183 0
M  V30 23685 C 2238.9 -3.56967 0.510553 0
M  V30 23686 O 2238 -4.09679 -0.472963 0
M  V30 23687 H 2237.34 -0.641843 0.170099 0
M  V30 23688 H 2239.87 -1.72356 1.10247 0
M  V30 23689 H 2239.88 -4.06196 0.383206 0
M  V30 23690 H 2238.56 -3.87141 1.5197 0
M  V30 23691 H 2237.14 -3.71649 -0.305206 0
M  V30 23692 N 2239.32 -0.56861 -1.46985 0
M  V30 23693 C 2240.57 -0.0487377 -2.02041 0
M  V30 23694 C 2240.89 1.31037 -1.44411 0
M  V30 23695 O 2240.16 1.85713 -0.62351 0
M  V30 23696 H 2238.74 -0.0150271 -0.746849 0
M  V30 23697 H 2241.4 -0.7412 -1.80256 0
M  V30 23698 H 2240.5 0.0308412 -3.12085 0
M  V30 23699 N 2240.8 1.54608 -0.305646 0
M  V30 23700 C 2241.73 2.2665 0.561442 0
M  V30 23701 C 2242.71 1.26774 1.13412 0
M  V30 23702 O 2243.9 1.55555 1.1626 0
M  V30 23703 C 2241.03 3.01078 1.73116 0
M  V30 23704 C 2239.98 4.0814 1.28863 0
M  V30 23705 C 2239.31 4.70309 2.54388 0
M  V30 23706 C 2240.61 5.20637 0.416487 0
M  V30 23707 H 2242.3 2.99374 -0.0394428 0
M  V30 23708 H 2239.85 1.43986 -0.0204103 0
M  V30 23709 H 2241.8 3.50199 2.34389 0
M  V30 23710 H 2240.52 2.2594 2.35836 0
M  V30 23711 H 2239.18 3.59876 0.698928 0
M  V30 23712 H 2238.83 3.91806 3.15432 0
M  V30 23713 H 2238.53 5.42618 2.25476 0
M  V30 23714 H 2240.05 5.22196 3.16455 0
M  V30 23715 H 2241.47 5.65624 0.935017 0
M  V30 23716 H 2239.86 5.99693 0.220941 0
M  V30 23717 H 2240.93 4.81687 -0.557246 0
M  V30 23718 N 2242.28 0.033457 1.57564 0
M  V30 23719 C 2243.21 -0.945228 2.13513 0
M  V30 23720 C 2244.19 -1.33642 1.05233 0
M  V30 23721 O 2245.37 -1.41427 1.33087 0
M  V30 23722 C 2242.5 -2.22611 2.66574 0
M  V30 23723 C 2241.46 -1.97554 3.79679 0
M  V30 23724 C 2240.78 -3.31945 4.19186 0
M  V30 23725 C 2242.08 -1.31126 5.05572 0
M  V30 23726 H 2243.78 -0.479273 2.95539 0
M  V30 23727 H 2241.32 -0.22909 1.42166 0
M  V30 23728 H 2243.28 -2.91461 3.04349 0
M  V30 23729 H 2242 -2.7138 1.81715 0
M  V30 23730 H 2240.66 -1.31121 3.42349 0
M  V30 23731 H 2240.31 -3.78481 3.31302 0
M  V30 23732 H 2240.01 -3.15983 4.95407 0
M  V30 23733 H 2241.53 -4.02055 4.59548 0
M  V30 23734 H 2242.95 -1.89982 5.40906 0
M  V30 23735 H 2241.34 -1.25548 5.8682 0
M  V30 23736 H 2242.41 -0.284809 4.84063 0
M  V30 23737 N 2243.76 -1.55766 -0.239741 0
M  V30 23738 C 2244.98 -1.81995 -0.984138 0
M  V30 23739 C 2245.4 -0.610156 -1.78669 0
M  V30 23740 O 2244.76 0.42124 -1.77572 0
M  V30 23741 C 2244.81 -3.0653 -1.91629 0
M  V30 23742 O 2244.53 -4.2284 -1.14621 0
M  V30 23743 C 2246.03 -3.45612 -2.77609 0
M  V30 23744 H 2243.25 -0.605446 -0.289269 0
M  V30 23745 H 2245.79 -2.02835 -0.260464 0
M  V30 23746 H 2243.95 -2.87719 -2.59415 0
M  V30 23747 H 2244.36 -4.93467 -1.77736 0
M  V30 23748 H 2245.84 -4.35834 -3.38751 0
M  V30 23749 H 2246.31 -2.66526 -3.49086 0
M  V30 23750 H 2246.92 -3.66798 -2.15265 0
M  V30 23751 N 2245.23 0.505704 -1.49266 0
M  V30 23752 C 2246.48 1.26012 -1.58515 0
M  V30 23753 C 2246.81 1.9262 -0.269754 0
M  V30 23754 O 2246.06 1.81089 0.741965 0
M  V30 23755 C 2246.36 2.35303 -2.69012 0
M  V30 23756 C 2246.03 1.86185 -4.10665 0
M  V30 23757 C 2244.69 1.72508 -4.49215 0
M  V30 23758 C 2247.04 1.49366 -4.99339 0
M  V30 23759 C 2244.37 1.20384 -5.74216 0
M  V30 23760 C 2246.72 0.986962 -6.24853 0
M  V30 23761 C 2245.39 0.836553 -6.62237 0
M  V30 23762 H 2244.66 0.461112 -0.580049 0
M  V30 23763 H 2247.3 0.561633 -1.83079 0
M  V30 23764 H 2245.61 3.10921 -2.38401 0
M  V30 23765 H 2247.31 2.93369 -2.73378 0
M  V30 23766 H 2243.9 1.97788 -3.80234 0
M  V30 23767 H 2248.08 1.58782 -4.70215 0
M  V30 23768 H 2243.34 1.07447 -6.01885 0
M  V30 23769 H 2247.51 0.692861 -6.92945 0
M  V30 23770 H 2245.14 0.430474 -7.5898 0
M  V30 23771 N 2246.71 1.38262 0.756405 0
M  V30 23772 C 2247.96 1.33633 1.5108 0
M  V30 23773 C 2248.27 -0.0719725 1.95468 0
M  V30 23774 O 2249.48 -0.240786 2.7043 0
M  V30 23775 C 2247.94 2.34648 2.72888 0
M  V30 23776 C 2247.54 3.81085 2.35537 0
M  V30 23777 C 2249.29 2.39058 3.50787 0
M  V30 23778 C 2247.2 4.73794 3.5394 0
M  V30 23779 H 2246.13 0.49672 0.567261 0
M  V30 23780 H 2248.78 1.63802 0.827118 0
M  V30 23781 H 2247.16 1.97519 3.43223 0
M  V30 23782 H 2248.33 4.27138 1.72887 0
M  V30 23783 H 2246.65 3.79767 1.7078 0
M  V30 23784 H 2249.24 3.05521 4.38818 0
M  V30 23785 H 2249.59 1.40868 3.91742 0
M  V30 23786 H 2250.12 2.74973 2.87462 0
M  V30 23787 H 2246.86 5.73169 3.18053 0
M  V30 23788 H 2246.38 4.32436 4.15643 0
M  V30 23789 H 2248.06 4.91671 4.20558 0
M  V30 23790 N 2248.19 -0.984277 1.23084 0
M  V30 23791 C 2249.15 -2.05755 1.00983 0
M  V30 23792 C 2250.15 -1.60777 -0.0269291 0
M  V30 23793 O 2251.34 -1.729 0.212433 0
M  V30 23794 C 2248.48 -3.368 0.527131 0
M  V30 23795 H 2249.67 -2.26796 1.96224 0
M  V30 23796 H 2247.22 -1.15712 1.05074 0
M  V30 23797 H 2247.96 -3.21447 -0.429238 0
M  V30 23798 H 2247.74 -3.70784 1.27522 0
M  V30 23799 H 2249.23 -4.15746 0.393015 0
M  V30 23800 N 2249.67 -1.04192 -1.18244 0
M  V30 23801 C 2250.62 -0.627831 -2.23967 0
M  V30 23802 C 2251.61 0.345989 -1.65829 0
M  V30 23803 O 2252.82 0.213143 -1.78734 0
M  V30 23804 H 2249.19 -0.184815 -0.728936 0
M  V30 23805 H 2251.16 -1.52985 -2.56199 0
M  V30 23806 C 2249.91 -0.00802703 -3.47699 0
M  V30 23807 H 2249.23 -0.748416 -3.92732 0
M  V30 23808 H 2250.67 0.244476 -4.23295 0
M  V30 23809 C 2249.13 1.2424 -3.13155 0
M  V30 23810 O 2249.66 2.33301 -3.27007 0
M  V30 23811 N 2247.87 1.13618 -2.67469 0
M  V30 23812 H 2247.42 0.248689 -2.56397 0
M  V30 23813 H 2247.37 1.97372 -2.44727 0
M  V30 23814 N 2251.15 1.34492 -0.821557 0
M  V30 23815 C 2252.39 1.97935 -0.408173 0
M  V30 23816 C 2252.72 1.65459 1.0319 0
M  V30 23817 O 2251.99 0.944625 1.71621 0
M  V30 23818 H 2250.57 0.732204 -0.147941 0
M  V30 23819 H 2253.23 1.64153 -1.0507 0
M  V30 23820 H 2252.32 3.07634 -0.526065 0
M  V30 23821 N 2252.62 0.576397 1.46681 0
M  V30 23822 C 2253.57 -0.160458 2.30242 0
M  V30 23823 C 2254.54 -0.890137 1.40235 0
M  V30 23824 O 2255.73 -0.882054 1.69188 0
M  V30 23825 C 2252.87 -1.17224 3.2458 0
M  V30 23826 C 2251.98 -0.44666 4.29685 0
M  V30 23827 C 2251.11 -1.44542 5.11157 0
M  V30 23828 C 2250.15 -0.705883 6.08016 0
M  V30 23829 N 2249.29 -1.65239 6.82378 0
M  V30 23830 H 2254.13 0.558179 2.92726 0
M  V30 23831 H 2251.67 0.287081 1.44271 0
M  V30 23832 H 2253.63 -1.77165 3.77715 0
M  V30 23833 H 2252.26 -1.85867 2.63919 0
M  V30 23834 H 2251.31 0.267661 3.79457 0
M  V30 23835 H 2252.62 0.131774 4.98626 0
M  V30 23836 H 2251.77 -2.11781 5.68536 0
M  V30 23837 H 2250.51 -2.05778 4.42162 0
M  V30 23838 H 2249.52 -0.0196759 5.49796 0
M  V30 23839 H 2250.74 -0.0990007 6.79028 0
M  V30 23840 H 2248.69 -2.25298 6.16098 0
M  V30 23841 H 2248.61 -1.1266 7.47558 0
M  V30 23842 H 2249.87 -2.31533 7.4432 0
M  V30 23843 N 2254.1 -1.54444 0.313841 0
M  V30 23844 C 2255.01 -2.27678 -0.565674 0
M  V30 23845 C 2256.03 -1.31668 -1.13752 0
M  V30 23846 O 2257.2 -1.6467 -1.15956 0
M  V30 23847 C 2254.27 -3.01299 -1.71522 0
M  V30 23848 C 2253.33 -4.12874 -1.17617 0
M  V30 23849 C 2252.56 -4.82974 -2.27093 0
M  V30 23850 O 2252.79 -4.5252 -3.47248 0
M  V30 23851 O 2251.72 -5.70098 -1.9306 0
M  V30 23852 H 2255.55 -3.03686 0.028783 0
M  V30 23853 H 2253.13 -1.49186 0.0798574 0
M  V30 23854 H 2255.01 -3.47434 -2.3847 0
M  V30 23855 H 2253.69 -2.28174 -2.29604 0
M  V30 23856 H 2252.6 -3.7111 -0.472059 0
M  V30 23857 H 2253.93 -4.88013 -0.640609 0
M  V30 23858 N 2255.58 -0.0418125 -1.57545 0
M  V30 23859 C 2256.51 0.933891 -2.14011 0
M  V30 23860 C 2257.49 1.33082 -1.0594 0
M  V30 23861 O 2258.68 1.40719 -1.33835 0
M  V30 23862 C 2255.81 2.21194 -2.67751 0
M  V30 23863 C 2254.76 1.95538 -3.80722 0
M  V30 23864 C 2254.09 3.29717 -4.20941 0
M  V30 23865 C 2255.39 1.28443 -5.06261 0
M  V30 23866 H 2257.08 0.463593 -2.95789 0
M  V30 23867 H 2254.63 0.221548 -1.42286 0
M  V30 23868 H 2256.58 2.89843 -3.05891 0
M  V30 23869 H 2255.3 2.70413 -1.83151 0
M  V30 23870 H 2253.96 1.29304 -3.4304 0
M  V30 23871 H 2253.61 3.76719 -3.33305 0
M  V30 23872 H 2253.31 3.13352 -4.97076 0
M  V30 23873 H 2254.83 3.99612 -4.61673 0
M  V30 23874 H 2256.25 1.87111 -5.41906 0
M  V30 23875 H 2254.65 1.22434 -5.87477 0
M  V30 23876 H 2255.72 0.259134 -4.84207 0
M  V30 23877 N 2257.06 1.55891 0.231477 0
M  V30 23878 C 2258.28 1.82858 0.978657 0
M  V30 23879 C 2258.71 0.620877 1.77558 0
M  V30 23880 O 2258.07 -0.430274 1.7612 0
M  V30 23881 C 2258.11 3.0772 1.87992 0
M  V30 23882 O 2257.22 2.85717 2.97388 0
M  V30 23883 H 2256.56 0.603162 0.277653 0
M  V30 23884 H 2259.09 2.03094 0.247795 0
M  V30 23885 H 2259.1 3.37562 2.29164 0
M  V30 23886 H 2257.77 3.95254 1.2941 0
M  V30 23887 H 2256.35 2.67083 2.60233 0
M  V30 23888 N 2258.54 -0.497781 1.49532 0
M  V30 23889 C 2259.76 -1.27564 1.62896 0
M  V30 23890 C 2260.18 -1.86375 0.301618 0
M  V30 23891 O 2259.54 -1.67983 -0.713305 0
M  V30 23892 C 2259.59 -2.4036 2.70018 0
M  V30 23893 O 2259.31 -1.83965 3.97603 0
M  V30 23894 C 2260.81 -3.3168 2.94115 0
M  V30 23895 H 2258.03 -0.386785 0.548305 0
M  V30 23896 H 2260.57 -0.597211 1.95585 0
M  V30 23897 H 2258.73 -3.04027 2.40097 0
M  V30 23898 H 2259.14 -2.58039 4.56635 0
M  V30 23899 H 2260.62 -4.07097 3.72795 0
M  V30 23900 H 2261.09 -3.88868 2.04153 0
M  V30 23901 H 2261.7 -2.73775 3.25464 0
M  V30 23902 N 2260.01 -1.38661 -0.749062 0
M  V30 23903 C 2261.24 -1.3816 -1.53608 0
M  V30 23904 C 2261.65 0.0293263 -1.89177 0
M  V30 23905 O 2261 1.00749 -1.53608 0
M  V30 23906 C 2261.06 -2.17707 -2.86083 0
M  V30 23907 C 2260.72 -3.66477 -2.73027 0
M  V30 23908 C 2261.72 -4.5987 -2.42518 0
M  V30 23909 C 2259.4 -4.09889 -2.90338 0
M  V30 23910 C 2261.4 -5.94657 -2.29481 0
M  V30 23911 C 2259.08 -5.44755 -2.76921 0
M  V30 23912 C 2260.08 -6.36953 -2.46536 0
M  V30 23913 O 2259.77 -7.69337 -2.33185 0
M  V30 23914 H 2259.5 -0.474214 -0.481765 0
M  V30 23915 H 2262.06 -1.82914 -0.934433 0
M  V30 23916 H 2260.29 -1.67678 -3.48455 0
M  V30 23917 H 2261.98 -2.09557 -3.47621 0
M  V30 23918 H 2262.74 -4.27635 -2.28808 0
M  V30 23919 H 2258.62 -3.3847 -3.12984 0
M  V30 23920 H 2262.16 -6.66587 -2.05686 0
M  V30 23921 H 2258.06 -5.76586 -2.90205 0
M  V30 23922 H 2258.83 -7.79909 -2.48363 0
M  V30 23923 N 2261.49 0.977736 -1.23605 0
M  V30 23924 C 2262.72 1.75201 -1.0949 0
M  V30 23925 C 2263.13 1.85815 0.356289 0
M  V30 23926 O 2262.47 1.33853 1.25813 0
M  V30 23927 C 2262.54 3.19445 -1.6491 0
M  V30 23928 C 2262.2 3.32333 -3.13694 0
M  V30 23929 C 2263.2 3.18448 -4.10959 0
M  V30 23930 C 2260.88 3.56896 -3.53456 0
M  V30 23931 C 2262.88 3.28934 -5.45968 0
M  V30 23932 C 2260.56 3.67022 -4.88609 0
M  V30 23933 C 2261.56 3.53052 -5.84674 0
M  V30 23934 O 2261.25 3.62814 -7.17371 0
M  V30 23935 H 2260.98 0.556566 -0.38368 0
M  V30 23936 H 2263.54 1.2369 -1.63982 0
M  V30 23937 H 2261.77 3.72216 -1.04842 0
M  V30 23938 H 2263.45 3.78643 -1.46233 0
M  V30 23939 H 2264.22 2.99366 -3.81583 0
M  V30 23940 H 2260.1 3.6684 -2.79195 0
M  V30 23941 H 2263.64 3.17947 -6.20931 0
M  V30 23942 H 2259.54 3.85614 -5.1766 0
M  V30 23943 H 2260.31 3.79592 -7.25157 0
M  V30 23944 N 2262.97 1.04818 1.1769 0
M  V30 23945 C 2263.9 0.603861 2.21102 0
M  V30 23946 C 2264.92 -0.330432 1.59411 0
M  V30 23947 O 2266.11 -0.123758 1.7807 0
M  V30 23948 C 2263.21 -0.136838 3.38624 0
M  V30 23949 C 2262.38 0.807213 4.29887 0
M  V30 23950 C 2261.44 0.108452 5.26088 0
M  V30 23951 O 2260.46 0.741331 5.64352 0
M  V30 23952 N 2261.67 -1.15548 5.68884 0
M  V30 23953 H 2264.43 1.49334 2.59845 0
M  V30 23954 H 2261.99 0.92961 1.32551 0
M  V30 23955 H 2263.98 -0.614331 4.0001 0
M  V30 23956 H 2262.55 -0.927941 2.9851 0
M  V30 23957 H 2261.77 1.46441 3.6599 0
M  V30 23958 H 2263.06 1.44816 4.87756 0
M  V30 23959 H 2262.46 -1.69006 5.39864 0
M  V30 23960 H 2261.02 -1.57711 6.32432 0
M  V30 23961 N 2264.45 -1.34055 0.828678 0
M  V30 23962 C 2265.7 -1.98401 0.420115 0
M  V30 23963 C 2266.03 -1.65527 -1.01561 0
M  V30 23964 O 2265.3 -0.929861 -1.70833 0
M  V30 23965 C 2265.59 -3.54558 0.629333 0
M  V30 23966 C 2265.44 -3.97155 2.11159 0
M  V30 23967 C 2266.76 -4.40046 0.0689529 0
M  V30 23968 H 2263.88 -0.720706 0.154117 0
M  V30 23969 H 2266.52 -1.58858 1.04231 0
M  V30 23970 H 2264.67 -3.88372 0.09971 0
M  V30 23971 H 2266.34 -3.73647 2.70529 0
M  V30 23972 H 2264.58 -3.47257 2.59991 0
M  V30 23973 H 2265.26 -5.05883 2.20877 0
M  V30 23974 H 2267.73 -4.12819 0.52153 0
M  V30 23975 H 2266.61 -5.48352 0.245102 0
M  V30 23976 H 2266.87 -4.30017 -1.02653 0
M  V30 23977 N 2265.93 -0.584167 -1.46374 0
M  V30 23978 C 2266.84 0.150686 -2.34116 0
M  V30 23979 C 2267.85 0.884541 -1.4984 0
M  V30 23980 O 2269.03 0.847397 -1.82705 0
M  V30 23981 C 2266.09 1.15056 -3.27052 0
M  V30 23982 C 2265.16 0.421218 -4.27229 0
M  V30 23983 C 2264.39 1.37346 -5.15725 0
M  V30 23984 O 2264.61 2.61006 -5.07181 0
M  V30 23985 O 2263.55 0.88325 -5.95384 0
M  V30 23986 H 2267.37 -0.56976 -2.98308 0
M  V30 23987 H 2264.96 -0.34456 -1.45372 0
M  V30 23988 H 2266.84 1.72705 -3.84384 0
M  V30 23989 H 2265.51 1.85245 -2.65454 0
M  V30 23990 H 2264.42 -0.197151 -3.7358 0
M  V30 23991 H 2265.75 -0.239727 -4.91616 0
M  V30 23992 N 2267.41 1.54275 -0.322027 0
M  V30 23993 C 2268.82 1.85957 0.166351 0
M  V30 23994 C 2269.17 1.2437 1.51745 0
M  V30 23995 O 2268.29 0.549161 2.09316 0
M  V30 23996 C 2268.89 3.37391 0.308622 0
M  V30 23997 C 2267.45 3.6903 0.741221 0
M  V30 23998 C 2266.59 2.76956 -0.137985 0
M  V30 23999 H 2269.54 1.49145 -0.542361 0
M  V30 24000 H 2269.57 3.63028 1.13978 0
M  V30 24001 H 2269.08 3.82187 -0.674876 0
M  V30 24002 H 2267.18 3.29765 1.73452 0
M  V30 24003 H 2267.29 4.75978 0.546035 0
M  V30 24004 H 2265.66 2.51755 0.386207 0
M  V30 24005 H 2266.44 3.24578 -1.11822 0
M  V30 24006 N 2268.88 0.0501669 1.5752 0
M  V30 24007 C 2270.11 -0.636962 1.97377 0
M  V30 24008 C 2270.53 -1.63643 0.927495 0
M  V30 24009 O 2269.89 -1.8097 -0.109378 0
M  V30 24010 C 2269.94 -1.30117 3.36306 0
M  V30 24011 O 2269.04 -2.41683 3.3416 0
M  V30 24012 H 2268.38 -0.165667 0.643001 0
M  V30 24013 H 2270.91 0.118269 2.04258 0
M  V30 24014 H 2270.92 -1.65309 3.73011 0
M  V30 24015 H 2269.6 -0.568673 4.11994 0
M  V30 24016 H 2268.18 -2.08446 3.092 0
M  V30 24017 N 2270.36 -1.56011 -0.223207 0
M  V30 24018 C 2271.59 -1.83029 -0.96478 0
M  V30 24019 C 2272 -0.629072 -1.78012 0
M  V30 24020 O 2271.36 0.402382 -1.78009 0
M  V30 24021 C 2271.41 -3.08545 -1.88368 0
M  V30 24022 O 2271.13 -4.24032 -1.1013 0
M  V30 24023 C 2272.63 -3.48537 -2.73928 0
M  V30 24024 H 2269.85 -0.60848 -0.282831 0
M  V30 24025 H 2272.4 -2.03099 -0.238936 0
M  V30 24026 H 2270.55 -2.90455 -2.56349 0
M  V30 24027 H 2270.97 -4.95325 -1.72492 0
M  V30 24028 H 2272.44 -4.39403 -3.3411 0
M  V30 24029 H 2272.92 -2.70213 -3.46239 0
M  V30 24030 H 2273.52 -3.69061 -2.11362 0
M  V30 24031 N 2271.84 0.489844 -1.49794 0
M  V30 24032 C 2272.79 1.59011 -1.67284 0
M  V30 24033 C 2273.76 1.5794 -0.514204 0
M  V30 24034 O 2274.94 1.75757 -0.742564 0
M  V30 24035 C 2272.08 2.97099 -1.75574 0
M  V30 24036 C 2271.19 3.08102 -3.02816 0
M  V30 24037 C 2270.33 4.3699 -3.02016 0
M  V30 24038 C 2269.37 4.41666 -4.2379 0
M  V30 24039 N 2268.51 5.61998 -4.20836 0
M  V30 24040 H 2273.35 1.43405 -2.61226 0
M  V30 24041 H 2270.88 0.697542 -1.2951 0
M  V30 24042 H 2272.84 3.77152 -1.78361 0
M  V30 24043 H 2271.47 3.11384 -0.850882 0
M  V30 24044 H 2270.52 2.21041 -3.09588 0
M  V30 24045 H 2271.83 3.07416 -3.92806 0
M  V30 24046 H 2270.99 5.25373 -3.03427 0
M  V30 24047 H 2269.73 4.40256 -2.09823 0
M  V30 24048 H 2268.73 3.51683 -4.2261 0
M  V30 24049 H 2269.96 4.40106 -5.17188 0
M  V30 24050 H 2267.9 5.66086 -3.31486 0
M  V30 24051 H 2267.82 5.62976 -5.04574 0
M  V30 24052 H 2269.09 6.52558 -4.26367 0
M  V30 24053 N 2273.32 1.39056 0.741698 0
M  V30 24054 C 2274.25 1.39969 1.86898 0
M  V30 24055 C 2275.23 0.263949 1.6804 0
M  V30 24056 O 2276.41 0.468788 1.88457 0
M  V30 24057 C 2273.54 1.2358 3.24569 0
M  V30 24058 C 2272.5 2.34484 3.58052 0
M  V30 24059 C 2271.82 2.03189 4.94589 0
M  V30 24060 C 2273.12 3.7678 3.6171 0
M  V30 24061 H 2274.82 2.34305 1.86391 0
M  V30 24062 H 2272.36 1.12781 0.895341 0
M  V30 24063 H 2274.32 1.22841 4.03098 0
M  V30 24064 H 2273.04 0.257103 3.25586 0
M  V30 24065 H 2271.7 2.34428 2.81849 0
M  V30 24066 H 2271.35 1.03774 4.92179 0
M  V30 24067 H 2271.05 2.77474 5.17959 0
M  V30 24068 H 2272.57 2.04089 5.75482 0
M  V30 24069 H 2273.99 3.78802 4.30328 0
M  V30 24070 H 2272.38 4.50369 3.96595 0
M  V30 24071 H 2273.45 4.08239 2.61665 0
M  V30 24072 N 2274.8 -0.971167 1.24121 0
M  V30 24073 C 2276.04 -1.71369 1.07884 0
M  V30 24074 C 2276.37 -1.90694 -0.382868 0
M  V30 24075 O 2275.63 -1.46333 -1.29943 0
M  V30 24076 C 2275.92 -3.11067 1.75988 0
M  V30 24077 C 2275.59 -3.11593 3.25915 0
M  V30 24078 C 2274.25 -3.11444 3.66819 0
M  V30 24079 C 2276.6 -3.06193 4.21776 0
M  V30 24080 C 2273.93 -3.03623 5.02026 0
M  V30 24081 C 2276.28 -2.99913 5.56987 0
M  V30 24082 C 2274.95 -2.98091 5.97242 0
M  V30 24083 H 2274.22 -0.627083 0.394775 0
M  V30 24084 H 2276.87 -1.13584 1.54178 0
M  V30 24085 H 2275.17 -3.72296 1.22078 0
M  V30 24086 H 2276.87 -3.67307 1.60893 0
M  V30 24087 H 2273.46 -3.12472 2.93358 0
M  V30 24088 H 2277.64 -3.0544 3.91178 0
M  V30 24089 H 2272.9 -3.0057 5.32417 0
M  V30 24090 H 2277.07 -2.94693 6.30975 0
M  V30 24091 H 2274.7 -2.91786 7.01972 0
M  V30 24092 N 2276.27 -1.05441 -1.17133 0
M  V30 24093 C 2277.69 -0.791706 -1.69083 0
M  V30 24094 C 2278.04 0.685806 -1.83824 0
M  V30 24095 O 2277.16 1.53276 -1.5276 0
M  V30 24096 C 2277.76 -1.43055 -3.07117 0
M  V30 24097 C 2276.32 -1.21583 -3.56222 0
M  V30 24098 C 2275.46 -1.51251 -2.32419 0
M  V30 24099 H 2278.41 -1.21902 -1.01615 0
M  V30 24100 H 2278.43 -0.841185 -3.71085 0
M  V30 24101 H 2277.95 -2.50589 -2.96356 0
M  V30 24102 H 2276.05 -0.159853 -3.72257 0
M  V30 24103 H 2276.16 -1.92254 -4.38834 0
M  V30 24104 H 2274.52 -0.932695 -2.37008 0
M  V30 24105 H 2275.31 -2.59924 -2.24264 0
M  V30 24106 N 2277.75 1.33613 -0.835776 0
M  V30 24107 C 2278.72 2.2758 -0.27204 0
M  V30 24108 C 2279.72 1.50828 0.55746 0
M  V30 24109 O 2280.91 1.70188 0.3717 0
M  V30 24110 C 2278.04 3.35268 0.617114 0
M  V30 24111 H 2279.23 2.78952 -1.10116 0
M  V30 24112 H 2276.78 1.43964 -0.60862 0
M  V30 24113 H 2277.52 2.89131 1.46879 0
M  V30 24114 H 2277.3 3.92093 0.0236377 0
M  V30 24115 H 2278.79 4.05328 1.00493 0
M  V30 24116 N 2279.23 0.591922 1.46062 0
M  V30 24117 C 2280.48 0.0811547 2.02638 0
M  V30 24118 C 2280.81 -1.27902 1.46132 0
M  V30 24119 O 2280.08 -1.84016 0.62994 0
M  V30 24120 C 2280.37 0.0253069 3.60091 0
M  V30 24121 C 2280.22 1.41504 4.26962 0
M  V30 24122 C 2281.54 -0.670608 4.34961 0
M  V30 24123 H 2278.66 0.0309654 0.736349 0
M  V30 24124 H 2281.3 0.76089 1.74099 0
M  V30 24125 H 2279.45 -0.553557 3.84536 0
M  V30 24126 H 2281.12 2.03978 4.13752 0
M  V30 24127 H 2279.37 1.98018 3.85968 0
M  V30 24128 H 2280.04 1.32835 5.35779 0
M  V30 24129 H 2282.51 -0.178752 4.15716 0
M  V30 24130 H 2281.39 -0.678742 5.44687 0
M  V30 24131 H 2281.65 -1.73371 4.06688 0
M  V30 24132 N 2280.71 -1.54102 0.330204 0
M  V30 24133 C 2281.96 -2.00687 -0.27037 0
M  V30 24134 C 2282.28 -1.21828 -1.51619 0
M  V30 24135 O 2281.54 -0.290284 -1.93535 0
M  V30 24136 C 2281.84 -3.51567 -0.643072 0
M  V30 24137 C 2281.5 -4.48071 0.50433 0
M  V30 24138 C 2280.17 -4.74175 0.819247 0
M  V30 24139 C 2282.52 -5.05371 1.27474 0
M  V30 24140 C 2279.85 -5.54837 1.90718 0
M  V30 24141 C 2282.2 -5.87219 2.35281 0
M  V30 24142 C 2280.86 -6.11622 2.67347 0
M  V30 24143 H 2280.13 -0.734366 -0.0989353 0
M  V30 24144 H 2282.78 -1.86007 0.455357 0
M  V30 24145 H 2281.08 -3.64008 -1.44932 0
M  V30 24146 H 2282.78 -3.85058 -1.11942 0
M  V30 24147 H 2279.37 -4.27877 0.248809 0
M  V30 24148 H 2283.55 -4.8518 1.0447 0
M  V30 24149 H 2278.81 -5.71973 2.16001 0
M  V30 24150 H 2282.98 -6.30636 2.95417 0
M  V30 24151 H 2280.61 -6.73913 3.51775 0
M  V30 24152 N 2282.19 -0.0585199 -1.57491 0
M  V30 24153 C 2283.15 0.89858 -2.10851 0
M  V30 24154 C 2284.15 1.2351 -1.02966 0
M  V30 24155 O 2285.34 1.17056 -1.29009 0
M  V30 24156 C 2282.47 2.20618 -2.59885 0
M  V30 24157 H 2283.66 0.435883 -2.96715 0
M  V30 24158 H 2281.22 0.189995 -1.55141 0
M  V30 24159 H 2281.95 2.71454 -1.77436 0
M  V30 24160 H 2281.74 1.97495 -3.3873 0
M  V30 24161 H 2283.23 2.89161 -3.0129 0
M  V30 24162 N 2283.66 1.56128 0.21493 0
M  V30 24163 C 2284.6 1.89451 1.29 0
M  V30 24164 C 2285.61 0.783351 1.42715 0
M  V30 24165 O 2286.8 1.06168 1.43494 0
M  V30 24166 C 2283.9 2.09386 2.66478 0
M  V30 24167 C 2283.07 3.40439 2.74627 0
M  V30 24168 C 2282.13 3.49726 3.93164 0
M  V30 24169 O 2281.16 4.22707 3.81193 0
M  V30 24170 N 2282.36 2.81355 5.0776 0
M  V30 24171 H 2285.12 2.82262 1.00738 0
M  V30 24172 H 2282.68 1.56754 0.404943 0
M  V30 24173 H 2284.68 2.12908 3.44169 0
M  V30 24174 H 2283.25 1.23168 2.87312 0
M  V30 24175 H 2282.47 3.48959 1.83362 0
M  V30 24176 H 2283.75 4.26759 2.77046 0
M  V30 24177 H 2283.15 2.21853 5.20383 0
M  V30 24178 H 2281.71 2.90529 5.83469 0
M  V30 24179 N 2285.14 -0.481893 1.50052 0
M  V30 24180 C 2286.11 -1.56357 1.67586 0
M  V30 24181 C 2287.11 -1.51213 0.54692 0
M  V30 24182 O 2288.3 -1.54025 0.813752 0
M  V30 24183 C 2285.43 -2.96 1.69105 0
M  V30 24184 H 2286.62 -1.42131 2.64081 0
M  V30 24185 H 2284.17 -0.707509 1.3937 0
M  V30 24186 H 2284.91 -3.15682 0.742644 0
M  V30 24187 H 2284.69 -3.01141 2.5111 0
M  V30 24188 H 2286.18 -3.74552 1.84662 0
M  V30 24189 N 2286.62 -1.39448 -0.734313 0
M  V30 24190 C 2287.85 -1.39984 -1.52355 0
M  V30 24191 C 2288.26 0.00546432 -1.88799 0
M  V30 24192 O 2287.62 0.976971 -1.54148 0
M  V30 24193 C 2287.67 -2.27338 -2.81068 0
M  V30 24194 O 2287.39 -3.62396 -2.46172 0
M  V30 24195 C 2288.89 -2.36265 -3.75092 0
M  V30 24196 H 2286.11 -0.478112 -0.470798 0
M  V30 24197 H 2288.66 -1.83271 -0.907307 0
M  V30 24198 H 2286.81 -1.87463 -3.39023 0
M  V30 24199 H 2287.23 -4.08597 -3.28859 0
M  V30 24200 H 2288.7 -3.01634 -4.623 0
M  V30 24201 H 2289.18 -1.38202 -4.1689 0
M  V30 24202 H 2289.78 -2.76613 -3.23056 0
M  V30 24203 N 2288.1 0.964571 -1.24635 0
M  V30 24204 C 2289.32 1.74816 -1.11599 0
M  V30 24205 C 2289.75 1.85232 0.327197 0
M  V30 24206 O 2289.11 1.32552 1.23692 0
M  V30 24207 C 2289.15 3.14507 -1.76402 0
M  V30 24208 O 2288.26 3.99151 -1.03692 0
M  V30 24209 H 2287.6 0.537248 -0.390205 0
M  V30 24210 H 2290.13 1.20974 -1.65004 0
M  V30 24211 H 2290.14 3.65015 -1.82286 0
M  V30 24212 H 2288.81 3.06241 -2.81406 0
M  V30 24213 H 2287.39 3.5763 -1.05617 0
M  V30 24214 N 2289.58 1.0606 1.16572 0
M  V30 24215 C 2290.99 0.800661 1.6866 0
M  V30 24216 C 2291.34 -0.676048 1.84185 0
M  V30 24217 O 2290.46 -1.52464 1.5357 0
M  V30 24218 C 2291.06 1.44682 3.06354 0
M  V30 24219 C 2289.62 1.23471 3.55573 0
M  V30 24220 C 2288.76 1.52481 2.31613 0
M  V30 24221 H 2291.72 1.22439 1.00967 0
M  V30 24222 H 2291.74 0.860853 3.70634 0
M  V30 24223 H 2291.25 2.52157 2.95023 0
M  V30 24224 H 2289.35 0.179592 3.72167 0
M  V30 24225 H 2289.46 1.94578 4.37808 0
M  V30 24226 H 2287.83 0.945251 2.3651 0
M  V30 24227 H 2288.61 2.6111 2.22882 0
M  V30 24228 N 2291.06 -1.33168 0.84285 0
M  V30 24229 C 2292 -2.31056 0.267536 0
M  V30 24230 C 2293 -1.58318 -0.602654 0
M  V30 24231 O 2294.2 -1.73152 -0.491773 0
M  V30 24232 H 2290.58 -0.748938 0.0677944 0
M  V30 24233 H 2292.55 -2.77083 1.10759 0
M  V30 24234 C 2291.3 -3.43493 -0.539271 0
M  V30 24235 H 2290.62 -3.99617 0.12102 0
M  V30 24236 H 2292.06 -4.14172 -0.907597 0
M  V30 24237 C 2290.52 -2.897 -1.71976 0
M  V30 24238 O 2291.05 -2.86216 -2.81857 0
M  V30 24239 N 2289.26 -2.46255 -1.54295 0
M  V30 24240 H 2288.8 -2.49288 -0.649099 0
M  V30 24241 H 2288.76 -2.10616 -2.33427 0
M  V30 24242 N 2292.53 -0.599659 -1.45746 0
M  V30 24243 C 2293.78 -0.0918999 -2.02592 0
M  V30 24244 C 2294.11 1.27126 -1.46808 0
M  V30 24245 O 2293.39 1.8368 -0.63969 0
M  V30 24246 C 2293.67 -0.044403 -3.60073 0
M  V30 24247 C 2293.52 -1.43766 -4.26206 0
M  V30 24248 C 2294.84 0.647532 -4.3531 0
M  V30 24249 H 2291.96 -0.03487 -0.736175 0
M  V30 24250 H 2294.6 -0.770112 -1.73693 0
M  V30 24251 H 2292.75 0.533156 -3.84824 0
M  V30 24252 H 2294.43 -2.06169 -4.12665 0
M  V30 24253 H 2292.67 -2.00062 -3.84912 0
M  V30 24254 H 2293.34 -1.35674 -5.35067 0
M  V30 24255 H 2295.82 0.156703 -4.15805 0
M  V30 24256 H 2294.69 0.649846 -5.4504 0
M  V30 24257 H 2294.95 1.71212 -4.07601 0
M  V30 24258 N 2294.01 1.53925 -0.338371 0
M  V30 24259 C 2295.26 2.00828 0.259723 0
M  V30 24260 C 2295.59 1.2263 1.5097 0
M  V30 24261 O 2294.84 0.300543 1.93378 0
M  V30 24262 C 2295.14 3.51903 0.624418 0
M  V30 24263 C 2294.81 4.47797 -0.528085 0
M  V30 24264 C 2293.47 4.73734 -0.844382 0
M  V30 24265 C 2295.82 5.04688 -1.30152 0
M  V30 24266 C 2293.15 5.53817 -1.93657 0
M  V30 24267 C 2295.5 5.85963 -2.38392 0
M  V30 24268 C 2294.16 6.10196 -2.70587 0
M  V30 24269 H 2293.43 0.73488 0.0950394 0
M  V30 24270 H 2296.08 1.85763 -0.465215 0
M  V30 24271 H 2294.39 3.64772 1.43 0
M  V30 24272 H 2296.08 3.85647 1.09898 0
M  V30 24273 H 2292.67 4.27739 -0.271496 0
M  V30 24274 H 2296.86 4.84619 -1.07042 0
M  V30 24275 H 2292.11 5.7082 -2.19031 0
M  V30 24276 H 2296.29 6.29061 -2.98757 0
M  V30 24277 H 2293.91 6.72038 -3.55344 0
M  V30 24278 N 2295.49 0.0668712 1.57458 0
M  V30 24279 C 2296.42 -0.931565 2.09415 0
M  V30 24280 C 2297.43 -1.26462 1.02524 0
M  V30 24281 O 2298.62 -1.22266 1.30051 0
M  V30 24282 C 2295.72 -2.24878 2.53541 0
M  V30 24283 C 2294.9 -2.0953 3.83948 0
M  V30 24284 C 2293.96 -3.24513 4.1422 0
M  V30 24285 O 2292.98 -2.99721 4.83896 0
M  V30 24286 N 2294.18 -4.49462 3.67375 0
M  V30 24287 H 2296.95 -0.487996 2.957 0
M  V30 24288 H 2294.51 -0.11898 1.61462 0
M  V30 24289 H 2296.5 -3.00696 2.70858 0
M  V30 24290 H 2295.07 -2.6075 1.72419 0
M  V30 24291 H 2294.29 -1.18209 3.76059 0
M  V30 24292 H 2295.58 -1.96521 4.69315 0
M  V30 24293 H 2294.98 -4.72491 3.11076 0
M  V30 24294 H 2293.53 -5.22323 3.899 0
M  V30 24295 N 2296.97 -1.56239 -0.206647 0
M  V30 24296 C 2298.21 -1.79943 -0.92881 0
M  V30 24297 C 2298.54 -0.638163 -1.83733 0
M  V30 24298 O 2297.8 0.376712 -1.9204 0
M  V30 24299 C 2298.1 -3.09535 -1.78669 0
M  V30 24300 C 2297.76 -4.38975 -1.03015 0
M  V30 24301 C 2296.42 -4.74141 -0.821218 0
M  V30 24302 C 2298.78 -5.18825 -0.49699 0
M  V30 24303 C 2296.1 -5.86661 -0.0674687 0
M  V30 24304 C 2298.46 -6.32131 0.243491 0
M  V30 24305 C 2297.12 -6.65889 0.463539 0
M  V30 24306 H 2296.39 -0.658457 -0.339876 0
M  V30 24307 H 2299.04 -1.90495 -0.195944 0
M  V30 24308 H 2297.34 -2.9417 -2.58788 0
M  V30 24309 H 2299.04 -3.25079 -2.34787 0
M  V30 24310 H 2295.63 -4.11371 -1.20298 0
M  V30 24311 H 2299.81 -4.9208 -0.645834 0
M  V30 24312 H 2295.07 -6.11295 0.113103 0
M  V30 24313 H 2299.24 -6.93227 0.664052 0
M  V30 24314 H 2296.87 -7.5292 1.04951 0
M  V30 24315 N 2298.45 0.473929 -1.50305 0
M  V30 24316 C 2299.36 1.59817 -1.71743 0
M  V30 24317 C 2300.37 1.6331 -0.600486 0
M  V30 24318 O 2301.55 1.81231 -0.878473 0
M  V30 24319 C 2298.61 2.96049 -1.80433 0
M  V30 24320 C 2297.67 3.02967 -3.04154 0
M  V30 24321 C 2296.91 4.32701 -3.12419 0
M  V30 24322 O 2297.13 5.23045 -2.27551 0
M  V30 24323 O 2296.06 4.45152 -4.05121 0
M  V30 24324 H 2299.89 1.44653 -2.67038 0
M  V30 24325 H 2297.47 0.653124 -1.34368 0
M  V30 24326 H 2299.36 3.76967 -1.88345 0
M  V30 24327 H 2298.03 3.11418 -0.883211 0
M  V30 24328 H 2296.94 2.21137 -3.01744 0
M  V30 24329 H 2298.27 2.92534 -3.95834 0
M  V30 24330 N 2299.92 1.39835 0.726907 0
M  V30 24331 C 2300.85 1.41944 1.85403 0
M  V30 24332 C 2301.83 0.281757 1.6775 0
M  V30 24333 O 2303.02 0.48875 1.87949 0
M  V30 24334 C 2300.15 1.27015 3.2324 0
M  V30 24335 C 2299.1 2.38268 3.55545 0
M  V30 24336 C 2298.43 2.08423 4.92406 0
M  V30 24337 C 2299.73 3.80595 3.57693 0
M  V30 24338 H 2301.42 2.36269 1.83895 0
M  V30 24339 H 2298.97 1.13725 0.883329 0
M  V30 24340 H 2300.92 1.2711 4.01772 0
M  V30 24341 H 2299.65 0.291621 3.25295 0
M  V30 24342 H 2298.31 2.37404 2.79347 0
M  V30 24343 H 2297.95 1.08988 4.9105 0
M  V30 24344 H 2297.65 2.82952 5.14987 0
M  V30 24345 H 2299.18 2.10181 5.73285 0
M  V30 24346 H 2300.59 3.83344 4.26286 0
M  V30 24347 H 2298.99 4.5455 3.91796 0
M  V30 24348 H 2300.06 4.10992 2.5732 0
M  V30 24349 N 2301.4 -0.957948 1.25144 0
M  V30 24350 C 2302.65 -1.69879 1.09479 0
M  V30 24351 C 2302.97 -1.91545 -0.365468 0
M  V30 24352 O 2302.24 -1.50017 -1.25983 0
M  V30 24353 H 2300.82 -0.629518 0.40214 0
M  V30 24354 H 2303.48 -1.15191 1.57216 0
M  V30 24355 H 2302.58 -2.67937 1.60051 0
M  V30 24356 N 2302.88 -1.06677 -1.16008 0
M  V30 24357 C 2304.3 -0.790972 -1.38621 0
M  V30 24358 C 2304.5 0.607931 -1.9211 0
M  V30 24359 O 2303.55 1.36784 -2.12242 0
M  V30 24360 C 2304.86 -1.8591 -2.36343 0
M  V30 24361 C 2306.41 -1.88306 -2.5002 0
M  V30 24362 C 2306.89 -2.94183 -3.51028 0
M  V30 24363 N 2308.38 -2.93241 -3.58558 0
M  V30 24364 C 2309.11 -3.7181 -4.36514 0
M  V30 24365 N 2308.61 -4.60209 -5.17861 0
M  V30 24366 N 2310.4 -3.60186 -4.31535 0
M  V30 24367 H 2302.55 -1.9691 -0.79626 0
M  V30 24368 H 2304.82 -0.853511 -0.412582 0
M  V30 24369 H 2304.52 -2.86389 -2.04142 0
M  V30 24370 H 2304.4 -1.7134 -3.36039 0
M  V30 24371 H 2306.78 -0.884819 -2.81523 0
M  V30 24372 H 2306.86 -2.06953 -1.50346 0
M  V30 24373 H 2306.51 -3.94202 -3.20261 0
M  V30 24374 H 2306.44 -2.72784 -4.50441 0
M  V30 24375 H 2308.93 -2.29157 -3.00492 0
M  V30 24376 H 2309.24 -5.16807 -5.74569 0
M  V30 24377 H 2307.59 -4.64262 -5.1719 0
M  V30 24378 H 2310.78 -2.90508 -3.67046 0
M  V30 24379 H 2310.95 -4.21661 -4.92042 0
M  V30 24380 N 2304.36 1.32719 -0.8499 0
M  V30 24381 C 2305.61 1.9668 -0.447209 0
M  V30 24382 C 2305.92 1.68027 1.00132 0
M  V30 24383 O 2307.13 2.25688 1.50922 0
M  V30 24384 C 2305.58 3.52025 -0.748762 0
M  V30 24385 C 2305.19 3.89542 -2.21271 0
M  V30 24386 C 2306.93 4.22481 -0.413562 0
M  V30 24387 C 2304.84 5.37912 -2.45773 0
M  V30 24388 H 2303.77 0.73606 -0.163499 0
M  V30 24389 H 2306.42 1.51181 -1.04002 0
M  V30 24390 H 2304.8 3.95908 -0.0854423 0
M  V30 24391 H 2305.98 3.56684 -2.91742 0
M  V30 24392 H 2304.29 3.32099 -2.51196 0
M  V30 24393 H 2306.89 5.31609 -0.574111 0
M  V30 24394 H 2307.23 4.11282 0.64442 0
M  V30 24395 H 2307.77 3.84165 -1.03257 0
M  V30 24396 H 2304.5 5.54126 -3.50177 0
M  V30 24397 H 2304.02 5.72193 -1.79874 0
M  V30 24398 H 2305.7 6.04936 -2.29482 0
M  V30 24399 N 2305.84 0.60738 1.45426 0
M  V30 24400 C 2306.78 -0.111584 2.3053 0
M  V30 24401 C 2307.75 -0.860191 1.42091 0
M  V30 24402 O 2308.94 -0.845968 1.71021 0
M  V30 24403 C 2306.08 -1.10313 3.26994 0
M  V30 24404 C 2305.19 -0.355417 4.30535 0
M  V30 24405 C 2304.33 -1.33667 5.14108 0
M  V30 24406 C 2303.37 -0.576755 6.09377 0
M  V30 24407 N 2302.5 -1.50728 6.8573 0
M  V30 24408 H 2307.34 0.620145 2.91476 0
M  V30 24409 H 2304.88 0.317619 1.4363 0
M  V30 24410 H 2306.84 -1.69114 3.81388 0
M  V30 24411 H 2305.47 -1.80227 2.67802 0
M  V30 24412 H 2304.52 0.348089 3.78804 0
M  V30 24413 H 2305.83 0.23751 4.98234 0
M  V30 24414 H 2304.99 -1.99674 5.72901 0
M  V30 24415 H 2303.72 -1.96353 4.46427 0
M  V30 24416 H 2302.73 0.0969486 5.49715 0
M  V30 24417 H 2303.95 0.0450534 6.79085 0
M  V30 24418 H 2301.9 -2.12179 6.20738 0
M  V30 24419 H 2301.82 -0.967781 7.4978 0
M  V30 24420 H 2303.09 -2.15693 7.49064 0
M  V30 24421 N 2307.31 -1.53743 0.34653 0
M  V30 24422 C 2308.26 -2.26617 -0.52418 0
M  V30 24423 C 2309.26 -1.28873 -1.09946 0
M  V30 24424 O 2310.46 -1.4657 -1.04485 0
M  V30 24425 H 2306.84 -0.728191 -0.18773 0
M  V30 24426 H 2308.81 -2.98188 0.112442 0
M  V30 24427 C 2307.56 -3.05417 -1.6618 0
M  V30 24428 H 2306.88 -3.8046 -1.22841 0
M  V30 24429 H 2308.32 -3.59616 -2.24615 0
M  V30 24430 C 2306.78 -2.15095 -2.59299 0
M  V30 24431 O 2307.31 -1.74902 -3.61624 0
M  V30 24432 N 2305.52 -1.80114 -2.28051 0
M  V30 24433 H 2305.06 -2.12997 -1.44879 0
M  V30 24434 H 2305.02 -1.19964 -2.90613 0
M  V30 24435 N 2308.79 -0.0752207 -1.5742 0
M  V30 24436 C 2310.04 0.593991 -1.93906 0
M  V30 24437 C 2310.37 1.69055 -0.955731 0
M  V30 24438 O 2309.65 1.94495 0.0145031 0
M  V30 24439 C 2309.93 1.16774 -3.4064 0
M  V30 24440 C 2309.78 0.0776002 -4.49733 0
M  V30 24441 C 2311.1 2.07221 -3.88262 0
M  V30 24442 H 2308.22 0.214454 -0.705109 0
M  V30 24443 H 2310.86 -0.141887 -1.89469 0
M  V30 24444 H 2309.01 1.79488 -3.44552 0
M  V30 24445 H 2310.68 -0.555653 -4.57941 0
M  V30 24446 H 2308.93 -0.591361 -4.2975 0
M  V30 24447 H 2309.6 0.519507 -5.4955 0
M  V30 24448 H 2312.07 1.54438 -3.86378 0
M  V30 24449 H 2310.95 2.44299 -4.91537 0
M  V30 24450 H 2311.21 2.98185 -3.26402 0
M  V30 24451 N 2310.27 1.56347 0.198358 0
M  V30 24452 C 2311.2 1.89341 1.27378 0
M  V30 24453 C 2312.18 0.753159 1.44105 0
M  V30 24454 O 2313.37 1.00384 1.59547 0
M  V30 24455 C 2310.49 2.12075 2.64087 0
M  V30 24456 C 2309.54 3.34777 2.64247 0
M  V30 24457 S 2310.37 4.90002 2.16005 0
M  V30 24458 C 2311.53 5.158 3.54544 0
M  V30 24459 H 2311.76 2.80261 0.992008 0
M  V30 24460 H 2309.29 1.49083 0.4017 0
M  V30 24461 H 2311.25 2.25856 3.42782 0
M  V30 24462 H 2309.91 1.21911 2.89476 0
M  V30 24463 H 2309.11 3.478 3.64761 0
M  V30 24464 H 2308.71 3.19973 1.93631 0
M  V30 24465 H 2311 5.0612 4.50387 0
M  V30 24466 H 2311.94 6.17576 3.46418 0
M  V30 24467 H 2312.35 4.43448 3.49305 0
M  V30 24468 N 2311.75 -0.465951 1.50554 0
M  V30 24469 C 2313.16 -1.04669 1.54601 0
M  V30 24470 C 2313.51 -1.93007 0.352522 0
M  V30 24471 O 2312.64 -2.09708 -0.534007 0
M  V30 24472 C 2313.23 -1.905 2.8017 0
M  V30 24473 C 2311.79 -2.43673 2.8688 0
M  V30 24474 C 2310.94 -1.22147 2.48949 0
M  V30 24475 H 2313.89 -0.248357 1.56745 0
M  V30 24476 H 2313.91 -2.75628 2.62315 0
M  V30 24477 H 2313.42 -1.2618 3.67015 0
M  V30 24478 H 2311.52 -3.11532 2.04398 0
M  V30 24479 H 2311.63 -2.78429 3.8989 0
M  V30 24480 H 2310 -1.55786 2.01501 0
M  V30 24481 H 2310.78 -0.594807 3.38108 0
M  V30 24482 N 2313.23 -1.40218 -0.719481 0
M  V30 24483 C 2314.16 -1.42925 -1.84647 0
M  V30 24484 C 2315.14 -0.290649 -1.67598 0
M  V30 24485 O 2316.32 -0.49871 -1.87687 0
M  V30 24486 C 2313.45 -1.28728 -3.22562 0
M  V30 24487 C 2312.41 -2.4015 -3.54277 0
M  V30 24488 C 2311.73 -2.11032 -4.91294 0
M  V30 24489 C 2313.03 -3.82487 -3.5567 0
M  V30 24490 H 2314.73 -2.37241 -1.8264 0
M  V30 24491 H 2312.27 -1.14192 -0.877285 0
M  V30 24492 H 2314.23 -1.29239 -4.01093 0
M  V30 24493 H 2312.95 -0.308868 -3.25136 0
M  V30 24494 H 2311.61 -2.38882 -2.78084 0
M  V30 24495 H 2311.26 -1.11591 -4.90466 0
M  V30 24496 H 2310.96 -2.85679 -5.1348 0
M  V30 24497 H 2312.48 -2.13219 -5.72163 0
M  V30 24498 H 2313.89 -3.856 -4.24247 0
M  V30 24499 H 2312.29 -4.56621 -3.8938 0
M  V30 24500 H 2313.36 -4.12351 -2.55137 0
M  V30 24501 N 2314.7 0.951297 -1.25651 0
M  V30 24502 C 2315.93 1.73622 -1.13446 0
M  V30 24503 C 2316.35 1.85569 0.307532 0
M  V30 24504 O 2315.71 1.33856 1.22279 0
M  V30 24505 C 2315.76 3.12618 -1.79728 0
M  V30 24506 O 2314.86 3.98029 -1.07919 0
M  V30 24507 H 2314.21 0.533079 -0.395882 0
M  V30 24508 H 2316.74 1.19217 -1.66278 0
M  V30 24509 H 2316.75 3.63061 -1.86147 0
M  V30 24510 H 2315.42 3.03239 -2.84638 0
M  V30 24511 H 2314 3.5649 -1.09404 0
M  V30 24512 N 2316.18 1.07291 1.1544 0
M  V30 24513 C 2317.15 0.696629 2.18357 0
M  V30 24514 C 2318.15 -0.262809 1.58638 0
M  V30 24515 O 2319.34 -0.0438503 1.74145 0
M  V30 24516 C 2316.47 0.026675 3.4089 0
M  V30 24517 H 2317.66 1.6078 2.5316 0
M  V30 24518 H 2315.21 0.869365 1.29891 0
M  V30 24519 H 2315.95 -0.896767 3.11655 0
M  V30 24520 H 2315.73 0.716725 3.85494 0
M  V30 24521 H 2317.22 -0.221954 4.1701 0
M  V30 24522 N 2317.66 -1.32267 0.856927 0
M  V30 24523 C 2318.91 -1.96783 0.460509 0
M  V30 24524 C 2319.23 -1.68137 -0.987672 0
M  V30 24525 O 2318.5 -0.989795 -1.69056 0
M  V30 24526 H 2317.08 -0.728024 0.167302 0
M  V30 24527 H 2319.74 -1.6131 1.09385 0
M  V30 24528 H 2318.84 -3.06132 0.607443 0
M  V30 24529 N 2319.14 -0.615084 -1.45102 0
M  V30 24530 C 2320.07 0.0865209 -2.3334 0
M  V30 24531 C 2321.05 0.851183 -1.47271 0
M  V30 24532 O 2322.23 0.82025 -1.76027 0
M  V30 24533 C 2319.36 1.0795 -3.30097 0
M  V30 24534 C 2318.32 0.427553 -4.25859 0
M  V30 24535 C 2317.64 1.52931 -5.12363 0
M  V30 24536 C 2318.94 -0.656035 -5.18164 0
M  V30 24537 H 2320.64 -0.650275 -2.92253 0
M  V30 24538 H 2318.18 -0.314163 -1.40531 0
M  V30 24539 H 2320.14 1.57894 -3.90701 0
M  V30 24540 H 2318.86 1.84699 -2.69359 0
M  V30 24541 H 2317.52 -0.0510936 -3.66564 0
M  V30 24542 H 2317.17 2.28726 -4.47988 0
M  V30 24543 H 2316.87 1.09855 -5.7724 0
M  V30 24544 H 2318.39 2.03087 -5.75837 0
M  V30 24545 H 2319.81 -0.240358 -5.72796 0
M  V30 24546 H 2318.2 -1.00898 -5.91557 0
M  V30 24547 H 2319.27 -1.52965 -4.60141 0
M  V30 24548 N 2320.62 1.53557 -0.354678 0
M  V30 24549 C 2321.86 2.01092 0.238408 0
M  V30 24550 C 2322.19 1.24225 1.49661 0
M  V30 24551 O 2321.45 0.321037 1.93049 0
M  V30 24552 C 2321.75 3.52546 0.587059 0
M  V30 24553 C 2321.41 4.47212 -0.57555 0
M  V30 24554 C 2320.07 4.72811 -0.89458 0
M  V30 24555 C 2322.43 5.03279 -1.35498 0
M  V30 24556 C 2319.75 5.51732 -1.99521 0
M  V30 24557 C 2322.11 5.83401 -2.44593 0
M  V30 24558 C 2320.77 6.07292 -2.77044 0
M  V30 24559 H 2320.04 0.735847 0.0872397 0
M  V30 24560 H 2322.69 1.85259 -0.484892 0
M  V30 24561 H 2320.99 3.66268 1.39123 0
M  V30 24562 H 2322.69 3.86791 1.05802 0
M  V30 24563 H 2319.28 4.27427 -0.316849 0
M  V30 24564 H 2323.46 4.83457 -1.12176 0
M  V30 24565 H 2318.72 5.68465 -2.25073 0
M  V30 24566 H 2322.89 6.25857 -3.05412 0
M  V30 24567 H 2320.52 6.68231 -3.62452 0
M  V30 24568 N 2322.1 0.083568 1.57378 0
M  V30 24569 C 2323.04 -0.879502 2.13386 0
M  V30 24570 C 2324.01 -1.28752 1.04939 0
M  V30 24571 O 2325.2 -1.3713 1.32665 0
M  V30 24572 C 2322.34 -2.13747 2.70936 0
M  V30 24573 C 2321.45 -1.78103 3.93578 0
M  V30 24574 C 2320.59 -2.98599 4.39331 0
M  V30 24575 C 2319.62 -2.59027 5.54591 0
M  V30 24576 N 2318.76 -3.72321 5.95249 0
M  V30 24577 H 2323.6 -0.395024 2.9537 0
M  V30 24578 H 2321.14 -0.183323 1.45953 0
M  V30 24579 H 2323.1 -2.87403 3.02416 0
M  V30 24580 H 2321.73 -2.59715 1.91698 0
M  V30 24581 H 2320.78 -0.944625 3.68485 0
M  V30 24582 H 2322.09 -1.44997 4.7726 0
M  V30 24583 H 2321.24 -3.80521 4.72535 0
M  V30 24584 H 2319.98 -3.34907 3.54526 0
M  V30 24585 H 2318.99 -1.7553 5.21027 0
M  V30 24586 H 2320.21 -2.23876 6.41137 0
M  V30 24587 H 2318.16 -4.08369 5.13392 0
M  V30 24588 H 2318.08 -3.43022 6.737 0
M  V30 24589 H 2319.34 -4.54786 6.3308 0
M  V30 24590 N 2323.57 -1.5645 -0.190064 0
M  V30 24591 C 2324.8 -1.85389 -0.929831 0
M  V30 24592 C 2325.22 -0.667735 -1.75849 0
M  V30 24593 O 2324.58 0.383428 -1.77199 0
M  V30 24594 C 2324.63 -3.12596 -1.79767 0
M  V30 24595 O 2323.73 -2.93502 -2.89708 0
M  V30 24596 H 2323.07 -0.610312 -0.261563 0
M  V30 24597 H 2325.6 -2.0368 -0.193861 0
M  V30 24598 H 2325.61 -3.43519 -2.20133 0
M  V30 24599 H 2324.29 -3.98546 -1.18885 0
M  V30 24600 H 2322.87 -2.73888 -2.5306 0
M  V30 24601 N 2325.05 0.45796 -1.50799 0
M  V30 24602 C 2325.96 1.57986 -1.73429 0
M  V30 24603 C 2326.98 1.62664 -0.617773 0
M  V30 24604 O 2328.15 1.80289 -0.897646 0
M  V30 24605 C 2325.22 2.94119 -1.83562 0
M  V30 24606 C 2324.28 2.99724 -3.0735 0
M  V30 24607 C 2323.51 4.29363 -3.16991 0
M  V30 24608 O 2323.74 5.20603 -2.33086 0
M  V30 24609 O 2322.67 4.4083 -4.0982 0
M  V30 24610 H 2326.5 1.41812 -2.68557 0
M  V30 24611 H 2324.08 0.638836 -1.35053 0
M  V30 24612 H 2325.96 3.74948 -1.92332 0
M  V30 24613 H 2324.64 3.10464 -0.916191 0
M  V30 24614 H 2323.54 2.17924 -3.04072 0
M  V30 24615 H 2324.88 2.88319 -3.98915 0
M  V30 24616 N 2326.53 1.40598 0.712035 0
M  V30 24617 C 2327.48 1.37622 1.81781 0
M  V30 24618 C 2328.46 0.25319 1.58895 0
M  V30 24619 O 2329.66 0.492577 1.70008 0
M  V30 24620 C 2326.78 1.24468 3.19942 0
M  V30 24621 C 2325.87 2.41566 3.48578 0
M  V30 24622 N 2326.26 3.67047 3.48009 0
M  V30 24623 C 2324.56 2.35023 3.79052 0
M  V30 24624 C 2325.26 4.44616 3.75089 0
M  V30 24625 N 2324.24 3.74504 3.94015 0
M  V30 24626 H 2328.04 2.32578 1.79679 0
M  V30 24627 H 2325.55 1.3442 0.911316 0
M  V30 24628 H 2327.55 1.20418 3.99131 0
M  V30 24629 H 2326.21 0.304819 3.23266 0
M  V30 24630 H 2327.22 4.00159 3.28775 0
M  V30 24631 H 2323.9 1.49422 3.89845 0
M  V30 24632 H 2325.29 5.53486 3.80924 0
M  V30 24633 N 2328.01 -0.94462 1.26153 0
M  V30 24634 C 2328.95 -2.04283 1.07411 0
M  V30 24635 C 2329.92 -1.66088 -0.0198121 0
M  V30 24636 O 2331.11 -1.90291 0.139297 0
M  V30 24637 C 2328.25 -3.37728 0.709509 0
M  V30 24638 C 2327.36 -3.8898 1.87933 0
M  V30 24639 C 2326.5 -5.10795 1.45816 0
M  V30 24640 C 2325.54 -5.543 2.59649 0
M  V30 24641 N 2324.67 -6.67321 2.18238 0
M  V30 24642 H 2329.51 -2.19647 2.01393 0
M  V30 24643 H 2327.05 -1.07624 1.00277 0
M  V30 24644 H 2329.01 -4.14441 0.479021 0
M  V30 24645 H 2327.64 -3.22221 -0.193332 0
M  V30 24646 H 2326.69 -3.08697 2.22285 0
M  V30 24647 H 2328 -4.17208 2.73384 0
M  V30 24648 H 2327.16 -5.94957 1.18791 0
M  V30 24649 H 2325.9 -4.84304 0.5745 0
M  V30 24650 H 2324.9 -4.68697 2.87407 0
M  V30 24651 H 2326.13 -5.82794 3.48609 0
M  V30 24652 H 2324.07 -6.4252 1.32301 0
M  V30 24653 H 2323.99 -6.95118 2.97233 0
M  V30 24654 H 2325.26 -7.54866 1.94416 0
M  V30 24655 N 2329.49 -1.07901 -1.1487 0
M  V30 24656 C 2330.43 -0.698766 -2.21856 0
M  V30 24657 C 2331.43 0.293057 -1.66846 0
M  V30 24658 O 2332.63 0.156173 -1.79321 0
M  V30 24659 H 2329.01 -0.207912 -0.722687 0
M  V30 24660 H 2330.98 -1.61058 -2.51203 0
M  V30 24661 C 2329.73 -0.118641 -3.47498 0
M  V30 24662 H 2329.05 -0.872982 -3.90153 0
M  V30 24663 H 2330.49 0.109684 -4.23858 0
M  V30 24664 C 2328.95 1.14215 -3.16949 0
M  V30 24665 O 2329.48 2.22779 -3.34264 0
M  V30 24666 N 2327.69 1.05051 -2.70948 0
M  V30 24667 H 2327.23 0.166993 -2.57058 0
M  V30 24668 H 2327.19 1.89487 -2.50883 0
M  V30 24669 N 2330.96 1.31811 -0.863929 0
M  V30 24670 C 2332.37 1.79159 -0.525252 0
M  V30 24671 C 2332.73 1.7125 0.957488 0
M  V30 24672 O 2331.85 1.27662 1.74732 0
M  V30 24673 C 2332.45 3.25306 -0.946657 0
M  V30 24674 C 2331 3.70573 -0.659733 0
M  V30 24675 C 2330.15 2.52724 -1.14131 0
M  V30 24676 H 2333.1 1.18978 -1.05024 0
M  V30 24677 H 2333.12 3.79563 -0.266833 0
M  V30 24678 H 2332.64 3.3103 -2.02585 0
M  V30 24679 H 2330.74 3.70356 0.40835 0
M  V30 24680 H 2330.85 4.62975 -1.23253 0
M  V30 24681 H 2329.21 2.48439 -0.561259 0
M  V30 24682 H 2330 2.61198 -2.2278 0
M  V30 24683 N 2332.44 0.62277 1.44773 0
M  V30 24684 C 2333.69 0.124119 2.0242 0
M  V30 24685 C 2334.02 -1.24774 1.48812 0
M  V30 24686 O 2333.3 -1.82639 0.668831 0
M  V30 24687 C 2333.58 0.101682 3.59956 0
M  V30 24688 C 2333.43 1.50529 4.23865 0
M  V30 24689 C 2334.75 -0.578196 4.36285 0
M  V30 24690 H 2331.87 0.0465775 0.735527 0
M  V30 24691 H 2334.51 0.797647 1.72446 0
M  V30 24692 H 2332.66 -0.471866 3.85624 0
M  V30 24693 H 2334.33 2.12708 4.09332 0
M  V30 24694 H 2332.58 2.06161 3.81681 0
M  V30 24695 H 2333.25 1.44169 5.32841 0
M  V30 24696 H 2335.72 -0.0905326 4.16002 0
M  V30 24697 H 2334.6 -0.563053 5.46005 0
M  V30 24698 H 2334.86 -1.64706 4.10274 0
M  V30 24699 N 2333.92 -1.53367 0.362817 0
M  V30 24700 C 2335.33 -1.86333 -0.116989 0
M  V30 24701 C 2335.68 -1.28349 -1.48394 0
M  V30 24702 O 2334.81 -0.604464 -2.07786 0
M  V30 24703 C 2335.4 -3.38091 -0.21906 0
M  V30 24704 C 2333.96 -3.70865 -0.643118 0
M  V30 24705 C 2333.11 -2.76493 0.211367 0
M  V30 24706 H 2336.06 -1.47654 0.581713 0
M  V30 24707 H 2336.08 -3.65922 -1.04313 0
M  V30 24708 H 2335.59 -3.80264 0.775969 0
M  V30 24709 H 2333.69 -3.34248 -1.64648 0
M  V30 24710 H 2333.81 -4.77259 -0.419646 0
M  V30 24711 H 2332.17 -2.5269 -0.319323 0
M  V30 24712 H 2332.95 -3.21499 1.20388 0
M  V30 24713 N 2335.4 -0.091913 -1.57332 0
M  V30 24714 C 2336.33 0.898131 -2.1087 0
M  V30 24715 C 2337.34 1.24815 -1.04523 0
M  V30 24716 O 2338.53 1.20182 -1.31979 0
M  V30 24717 C 2335.63 2.20816 -2.57087 0
M  V30 24718 C 2334.81 2.03396 -3.87232 0
M  V30 24719 C 2333.86 3.17882 -4.1933 0
M  V30 24720 O 2332.89 2.91985 -4.88603 0
M  V30 24721 N 2334.09 4.43561 -3.74479 0
M  V30 24722 H 2336.86 0.440891 -2.96439 0
M  V30 24723 H 2334.42 0.093278 -1.61631 0
M  V30 24724 H 2336.41 2.96349 -2.75607 0
M  V30 24725 H 2334.98 2.57973 -1.76546 0
M  V30 24726 H 2334.2 1.12211 -3.77892 0
M  V30 24727 H 2335.49 1.8903 -4.72382 0
M  V30 24728 H 2334.89 4.67483 -3.18554 0
M  V30 24729 H 2333.44 5.16054 -3.9816 0
M  V30 24730 N 2336.88 1.56548 0.181765 0
M  V30 24731 C 2338.12 1.8319 0.906679 0
M  V30 24732 C 2338.48 0.671344 1.7988 0
M  V30 24733 O 2339.68 0.817965 2.56052 0
M  V30 24734 C 2337.95 3.14909 1.69018 0
M  V30 24735 S 2339.51 3.63 2.46529 0
M  V30 24736 H 2336.33 0.642796 0.303865 0
M  V30 24737 H 2338.93 1.94768 0.169072 0
M  V30 24738 H 2337.64 3.97377 1.02564 0
M  V30 24739 H 2337.17 3.06246 2.46936 0
M  V30 24740 H 2339.18 3.29496 3.71008 0
M  V30 24741 N 2338.35 -0.449957 1.5104 0
M  V30 24742 C 2339.77 -1.03023 1.55702 0
M  V30 24743 C 2340.12 -1.92622 0.372973 0
M  V30 24744 O 2339.24 -2.10262 -0.511734 0
M  V30 24745 C 2339.84 -1.87518 2.82174 0
M  V30 24746 C 2338.4 -2.40617 2.89449 0
M  V30 24747 C 2337.54 -1.195 2.5023 0
M  V30 24748 H 2340.49 -0.231718 1.56999 0
M  V30 24749 H 2340.51 -2.7283 2.65224 0
M  V30 24750 H 2340.03 -1.2228 3.68333 0
M  V30 24751 H 2338.13 -3.09347 2.07691 0
M  V30 24752 H 2338.24 -2.74278 3.92821 0
M  V30 24753 H 2336.6 -1.5364 2.03142 0
M  V30 24754 H 2337.39 -0.558913 3.3872 0
M  V30 24755 N 2339.83 -1.40974 -0.704569 0
M  V30 24756 C 2341.24 -1.35523 -1.28415 0
M  V30 24757 C 2341.59 -0.0339779 -1.96171 0
M  V30 24758 O 2340.72 0.867909 -1.98233 0
M  V30 24759 C 2341.31 -2.45463 -2.33524 0
M  V30 24760 C 2339.87 -2.43438 -2.8708 0
M  V30 24761 C 2339.02 -2.25773 -1.61003 0
M  V30 24762 H 2341.97 -1.5062 -0.499936 0
M  V30 24763 H 2341.99 -2.14004 -3.14615 0
M  V30 24764 H 2341.5 -3.41612 -1.84181 0
M  V30 24765 H 2339.61 -1.51019 -3.40623 0
M  V30 24766 H 2339.72 -3.39425 -3.38124 0
M  V30 24767 H 2338.08 -1.73486 -1.86479 0
M  V30 24768 H 2338.87 -3.23935 -1.13669 0
M  V30 24769 N 2341.31 0.937917 -1.26653 0
M  V30 24770 C 2342.73 1.21203 -1.03836 0
M  V30 24771 C 2342.93 2.00131 0.234467 0
M  V30 24772 O 2341.98 2.34241 0.942726 0
M  V30 24773 C 2343.3 1.97013 -2.27171 0
M  V30 24774 C 2344.84 2.09992 -2.32105 0
M  V30 24775 C 2345.32 2.89204 -3.55141 0
M  V30 24776 N 2346.81 2.96776 -3.55638 0
M  V30 24777 C 2347.54 3.58505 -4.47506 0
M  V30 24778 N 2347.04 4.21707 -5.49668 0
M  V30 24779 N 2348.83 3.55809 -4.35151 0
M  V30 24780 H 2340.98 0.410354 -2.08398 0
M  V30 24781 H 2343.25 0.244098 -0.916035 0
M  V30 24782 H 2342.95 1.46428 -3.19768 0
M  V30 24783 H 2342.83 2.97667 -2.31677 0
M  V30 24784 H 2345.21 2.59766 -1.4002 0
M  V30 24785 H 2345.3 1.0859 -2.31607 0
M  V30 24786 H 2344.94 2.40115 -4.47557 0
M  V30 24787 H 2344.87 3.90869 -3.52887 0
M  V30 24788 H 2347.36 2.51847 -2.81747 0
M  V30 24789 H 2347.67 4.66716 -6.15951 0
M  V30 24790 H 2346.02 4.20284 -5.53522 0
M  V30 24791 H 2349.21 3.05628 -3.54555 0
M  V30 24792 H 2349.38 4.03627 -5.06941 0
M  V30 24793 N 2342.79 1.08509 1.14296 0
M  V30 24794 C 2343.72 0.737685 2.21541 0
M  V30 24795 C 2344.7 -0.280347 1.67774 0
M  V30 24796 O 2345.88 -0.150487 1.93616 0
M  V30 24797 C 2343.01 0.14732 3.46987 0
M  V30 24798 C 2341.97 1.09382 4.13787 0
M  V30 24799 C 2341.29 0.365618 5.33449 0
M  V30 24800 C 2342.59 2.43238 4.62204 0
M  V30 24801 H 2344.29 1.63435 2.50858 0
M  V30 24802 H 2341.83 0.787264 1.20574 0
M  V30 24803 H 2343.79 -0.107734 4.21262 0
M  V30 24804 H 2342.51 -0.784483 3.17039 0
M  V30 24805 H 2341.17 1.33399 3.41468 0
M  V30 24806 H 2340.82 -0.570022 4.9976 0
M  V30 24807 H 2340.52 0.996614 5.79087 0
M  V30 24808 H 2342.04 0.118641 6.10485 0
M  V30 24809 H 2343.46 2.23481 5.27948 0
M  V30 24810 H 2341.85 3.0204 5.18548 0
M  V30 24811 H 2342.92 3.04687 3.77218 0
M  V30 24812 N 2344.27 -1.31351 0.870907 0
M  V30 24813 C 2345.22 -2.26032 0.298929 0
M  V30 24814 C 2346.2 -1.5067 -0.564568 0
M  V30 24815 O 2347.39 -1.72155 -0.411292 0
M  V30 24816 C 2344.52 -3.39672 -0.497782 0
M  V30 24817 C 2343.61 -4.22403 0.379011 0
M  V30 24818 N 2344 -4.83879 1.47292 0
M  V30 24819 C 2342.3 -4.4567 0.171613 0
M  V30 24820 C 2343 -5.45734 2.01368 0
M  V30 24821 N 2341.97 -5.27565 1.31056 0
M  V30 24822 H 2345.78 -2.711 1.13499 0
M  V30 24823 H 2343.29 -1.45628 0.71877 0
M  V30 24824 H 2345.29 -4.0653 -0.924083 0
M  V30 24825 H 2343.95 -2.96146 -1.33144 0
M  V30 24826 H 2344.96 -4.83507 1.85584 0
M  V30 24827 H 2341.63 -4.1278 -0.626018 0
M  V30 24828 H 2343.02 -6.04575 2.93153 0
M  V30 24829 N 2345.74 -0.630439 -1.44441 0
M  V30 24830 C 2346.99 -0.134852 -2.02351 0
M  V30 24831 C 2347.32 1.23983 -1.49472 0
M  V30 24832 O 2346.6 1.82281 -0.678507 0
M  V30 24833 C 2346.88 -0.12077 -3.59897 0
M  V30 24834 C 2346.73 -1.52774 -4.2306 0
M  V30 24835 C 2348.05 0.55505 -4.36586 0
M  V30 24836 H 2345.17 -0.0504775 -0.735269 0
M  V30 24837 H 2347.81 -0.806781 -1.7202 0
M  V30 24838 H 2345.96 0.451409 -3.85869 0
M  V30 24839 H 2347.64 -2.14876 -4.08199 0
M  V30 24840 H 2345.88 -2.08182 -3.80582 0
M  V30 24841 H 2346.55 -1.46993 -5.32069 0
M  V30 24842 H 2349.03 0.0684697 -4.16044 0
M  V30 24843 H 2347.9 0.534089 -5.46295 0
M  V30 24844 H 2348.16 1.62528 -4.11141 0
M  V30 24845 N 2347.22 1.53172 -0.370945 0
M  V30 24846 C 2348.15 2.23504 0.507783 0
M  V30 24847 C 2349.17 1.25102 1.0418 0
M  V30 24848 O 2350.36 1.51292 0.947259 0
M  V30 24849 C 2347.46 2.92337 1.71442 0
M  V30 24850 C 2346.63 4.17291 1.31098 0
M  V30 24851 C 2345.69 4.69286 2.38027 0
M  V30 24852 O 2344.71 5.32833 2.00195 0
M  V30 24853 N 2345.92 4.47561 3.69689 0
M  V30 24854 H 2348.68 2.9955 -0.0946908 0
M  V30 24855 H 2346.24 1.60704 -0.196386 0
M  V30 24856 H 2348.23 3.24027 2.42463 0
M  V30 24857 H 2346.8 2.19711 2.22364 0
M  V30 24858 H 2346.02 3.91843 0.430393 0
M  V30 24859 H 2347.31 4.98516 1.01781 0
M  V30 24860 H 2346.71 3.96797 4.03198 0
M  V30 24861 H 2345.27 4.83788 4.36798 0
M  V30 24862 N 2348.7 0.100255 1.57281 0
M  V30 24863 C 2349.95 -0.562234 1.94538 0
M  V30 24864 C 2350.28 -1.6787 0.982344 0
M  V30 24865 O 2349.53 -1.957 0.00284375 0
M  V30 24866 C 2349.83 -1.15253 3.38307 0
M  V30 24867 C 2349.5 -0.159329 4.50618 0
M  V30 24868 C 2348.16 0.113826 4.81065 0
M  V30 24869 C 2350.51 0.518552 5.18614 0
M  V30 24870 C 2347.84 1.07147 5.76833 0
M  V30 24871 C 2350.19 1.4647 6.1541 0
M  V30 24872 C 2348.85 1.74603 6.44259 0
M  V30 24873 H 2348.12 -0.205736 0.711866 0
M  V30 24874 H 2350.77 0.177184 1.90679 0
M  V30 24875 H 2349.08 -1.9683 3.3877 0
M  V30 24876 H 2350.77 -1.6729 3.64438 0
M  V30 24877 H 2347.36 -0.382416 4.26891 0
M  V30 24878 H 2351.55 0.320668 4.95263 0
M  V30 24879 H 2346.8 1.29638 5.97498 0
M  V30 24880 H 2350.98 1.99575 6.6719 0
M  V30 24881 H 2348.6 2.48966 7.18276 0
M  V30 24882 N 2350.18 -1.56643 -0.17346 0
M  V30 24883 C 2351.11 -1.99273 -1.21706 0
M  V30 24884 C 2352.09 -0.867985 -1.46287 0
M  V30 24885 O 2353.28 -1.13391 -1.57658 0
M  V30 24886 C 2350.41 -2.35079 -2.55647 0
M  V30 24887 C 2349.36 -3.50494 -2.45639 0
M  V30 24888 C 2348.69 -3.72035 -3.84049 0
M  V30 24889 C 2349.99 -4.84011 -1.96293 0
M  V30 24890 H 2351.68 -2.86702 -0.8627 0
M  V30 24891 H 2349.23 -1.37934 -0.413547 0
M  V30 24892 H 2351.18 -2.63499 -3.28856 0
M  V30 24893 H 2349.9 -1.44557 -2.92867 0
M  V30 24894 H 2348.56 -3.22197 -1.74884 0
M  V30 24895 H 2348.21 -2.78808 -4.18659 0
M  V30 24896 H 2347.91 -4.49691 -3.78222 0
M  V30 24897 H 2349.43 -4.02854 -4.58847 0
M  V30 24898 H 2350.85 -5.11321 -2.59275 0
M  V30 24899 H 2349.24 -5.65288 -2.01419 0
M  V30 24900 H 2350.31 -4.76148 -0.917143 0
M  V30 24901 N 2351.66 0.44194 -1.51277 0
M  V30 24902 C 2352.88 1.21892 -1.67801 0
M  V30 24903 C 2353.31 1.84367 -0.372896 0
M  V30 24904 O 2352.67 1.68606 0.666471 0
M  V30 24905 C 2352.71 2.28206 -2.79203 0
M  V30 24906 O 2351.82 3.33579 -2.42485 0
M  V30 24907 H 2351.16 0.357326 -0.559655 0
M  V30 24908 H 2353.69 0.522487 -1.97816 0
M  V30 24909 H 2353.7 2.73064 -3.03151 0
M  V30 24910 H 2352.37 1.82111 -3.7391 0
M  V30 24911 H 2350.95 2.9423 -2.29092 0
M  V30 24912 N 2353.14 1.41345 0.697083 0
M  V30 24913 C 2354.09 1.39542 1.80311 0
M  V30 24914 C 2355.07 0.270029 1.58618 0
M  V30 24915 O 2356.26 0.510581 1.69476 0
M  V30 24916 C 2353.39 1.27854 3.18604 0
M  V30 24917 C 2352.48 2.4525 3.45996 0
M  V30 24918 N 2352.87 3.70717 3.44097 0
M  V30 24919 C 2351.17 2.3903 3.76538 0
M  V30 24920 C 2351.87 4.48569 3.70352 0
M  V30 24921 N 2350.84 3.78662 3.90021 0
M  V30 24922 H 2354.64 2.34471 1.77202 0
M  V30 24923 H 2352.16 1.35379 0.897008 0
M  V30 24924 H 2354.16 1.24644 3.97831 0
M  V30 24925 H 2352.82 0.339089 3.22925 0
M  V30 24926 H 2353.83 4.03624 3.24513 0
M  V30 24927 H 2350.5 1.53549 3.88238 0
M  V30 24928 H 2351.89 5.57495 3.75032 0
M  V30 24929 N 2354.61 -0.931187 1.27148 0
M  V30 24930 C 2355.86 -1.68099 1.13449 0
M  V30 24931 C 2356.19 -1.91552 -0.319594 0
M  V30 24932 O 2355.47 -1.50338 -1.23404 0
M  V30 24933 C 2355.75 -3.04967 1.91487 0
M  V30 24934 C 2355.6 -2.88776 3.4486 0
M  V30 24935 C 2356.92 -4.05243 1.71658 0
M  V30 24936 H 2354.04 -0.610065 0.413509 0
M  V30 24937 H 2356.68 -1.08083 1.56263 0
M  V30 24938 H 2354.83 -3.56196 1.55101 0
M  V30 24939 H 2356.51 -2.44691 3.91055 0
M  V30 24940 H 2354.75 -2.24191 3.71377 0
M  V30 24941 H 2355.42 -3.85895 3.94701 0
M  V30 24942 H 2357.9 -3.63011 2.03377 0
M  V30 24943 H 2356.77 -4.99005 2.2866 0
M  V30 24944 H 2357.03 -4.37091 0.663631 0
M  V30 24945 N 2356.09 -1.09114 -1.13719 0
M  V30 24946 C 2357.02 -0.749423 -2.21147 0
M  V30 24947 C 2358 0.271446 -1.6792 0
M  V30 24948 O 2359.19 0.140217 -1.93693 0
M  V30 24949 C 2356.32 -0.16572 -3.46904 0
M  V30 24950 C 2355.27 -1.11574 -4.13201 0
M  V30 24951 C 2354.6 -0.393903 -5.33247 0
M  V30 24952 C 2355.9 -2.45686 -4.60908 0
M  V30 24953 H 2357.59 -1.64763 -2.49987 0
M  V30 24954 H 2355.14 -0.793647 -1.20155 0
M  V30 24955 H 2357.09 0.0853919 -4.21313 0
M  V30 24956 H 2355.81 0.767658 -3.1745 0
M  V30 24957 H 2354.47 -1.35208 -3.40756 0
M  V30 24958 H 2354.12 0.543511 -5.00055 0
M  V30 24959 H 2353.82 -1.02731 -5.7855 0
M  V30 24960 H 2355.35 -0.151015 -6.10413 0
M  V30 24961 H 2356.76 -2.26278 -5.26755 0
M  V30 24962 H 2355.16 -3.04785 -5.16939 0
M  V30 24963 H 2356.23 -3.06684 -3.75597 0
M  V30 24964 N 2357.57 1.30887 -0.877861 0
M  V30 24965 C 2358.82 1.97087 -0.502808 0
M  V30 24966 C 2359.17 1.68084 0.936244 0
M  V30 24967 O 2358.46 0.971225 1.6516 0
M  V30 24968 C 2358.66 3.50361 -0.705809 0
M  V30 24969 C 2358.49 3.94262 -2.16304 0
M  V30 24970 C 2357.26 4.20214 -2.80621 0
M  V30 24971 C 2359.45 4.07617 -3.13613 0
M  V30 24972 N 2357.44 4.50524 -4.17014 0
M  V30 24973 C 2358.81 4.41728 -4.35059 0
M  V30 24974 C 2360.86 3.9002 -3.09498 0
M  V30 24975 C 2359.57 4.60079 -5.52919 0
M  V30 24976 C 2361.59 4.09569 -4.26623 0
M  V30 24977 C 2360.95 4.44019 -5.46833 0
M  V30 24978 H 2357.05 0.746425 -0.233181 0
M  V30 24979 H 2359.64 1.58259 -1.13411 0
M  V30 24980 H 2357.81 3.88261 -0.104044 0
M  V30 24981 H 2359.54 4.03599 -0.298362 0
M  V30 24982 H 2356.29 4.13149 -2.31528 0
M  V30 24983 H 2356.72 4.69826 -4.87435 0
M  V30 24984 H 2361.36 3.62467 -2.17664 0
M  V30 24985 H 2359.08 4.86477 -6.45264 0
M  V30 24986 H 2362.66 3.9743 -4.249 0
M  V30 24987 H 2361.54 4.58837 -6.35955 0
M  V30 24988 N 2359.05 0.638091 1.44105 0
M  V30 24989 C 2360.27 0.150952 2.0685 0
M  V30 24990 C 2360.7 -1.1683 1.47419 0
M  V30 24991 O 2360.06 -1.7183 0.578295 0
M  V30 24992 C 2360.1 0.0571434 3.60555 0
M  V30 24993 O 2359.21 -0.984902 4.00467 0
M  V30 24994 H 2358.55 0.0879514 0.658149 0
M  V30 24995 H 2361.08 0.87674 1.84863 0
M  V30 24996 H 2361.09 -0.13116 4.07789 0
M  V30 24997 H 2359.76 1.02028 4.03191 0
M  V30 24998 H 2358.34 -0.770608 3.64851 0
M  V30 24999 N 2360.53 -1.52973 0.379063 0
M  V30 25000 C 2361.94 -1.59574 0.0285728 0
M  V30 25001 C 2362.14 -1.39357 -1.4554 0
M  V30 25002 O 2361.2 -1.20545 -2.21867 0
M  V30 25003 C 2362.51 -2.96571 0.496587 0
M  V30 25004 C 2364.06 -3.0972 0.451963 0
M  V30 25005 C 2364.53 -4.4915 0.896003 0
M  V30 25006 N 2366.02 -4.55304 0.851602 0
M  V30 25007 C 2366.76 -5.61405 1.16671 0
M  V30 25008 N 2366.26 -6.75197 1.55178 0
M  V30 25009 N 2368.05 -5.51457 1.08863 0
M  V30 25010 H 2360.2 -1.64365 1.34528 0
M  V30 25011 H 2362.46 -0.77161 0.550747 0
M  V30 25012 H 2362.17 -3.16549 1.53264 0
M  V30 25013 H 2362.04 -3.7704 -0.109736 0
M  V30 25014 H 2364.43 -2.89444 -0.574978 0
M  V30 25015 H 2364.51 -2.31228 1.09396 0
M  V30 25016 H 2364.15 -4.70165 1.92113 0
M  V30 25017 H 2364.08 -5.26093 0.231123 0
M  V30 25018 H 2366.58 -3.73605 0.568103 0
M  V30 25019 H 2366.89 -7.52113 1.77613 0
M  V30 25020 H 2365.23 -6.76555 1.59056 0
M  V30 25021 H 2368.42 -4.61439 0.786884 0
M  V30 25022 H 2368.6 -6.34046 1.33753 0
M  V30 25023 N 2362 -0.108595 -1.57225 0
M  V30 25024 C 2362.94 0.882427 -2.10448 0
M  V30 25025 C 2363.91 1.26764 -1.01831 0
M  V30 25026 O 2365.1 1.37052 -1.29418 0
M  V30 25027 C 2362.23 2.17948 -2.59261 0
M  V30 25028 C 2361.27 1.94311 -3.79665 0
M  V30 25029 S 2362.1 1.16883 -5.22588 0
M  V30 25030 C 2363.26 2.47789 -5.74762 0
M  V30 25031 H 2363.49 0.429693 -2.94178 0
M  V30 25032 H 2361.03 0.104973 -1.54043 0
M  V30 25033 H 2362.98 2.92477 -2.88041 0
M  V30 25034 H 2361.65 2.6034 -1.75732 0
M  V30 25035 H 2360.84 2.90392 -4.11933 0
M  V30 25036 H 2360.44 1.27906 -3.51448 0
M  V30 25037 H 2362.73 3.43691 -5.83852 0
M  V30 25038 H 2363.68 2.20081 -6.7303 0
M  V30 25039 H 2364.08 2.5668 -5.02768 0
M  V30 25040 N 2363.48 1.56732 0.16515 0
M  V30 25041 C 2364.89 1.71963 0.727016 0
M  V30 25042 C 2365.24 0.72011 1.82507 0
M  V30 25043 O 2364.37 -0.117204 2.16082 0
M  V30 25044 C 2364.96 3.11793 1.32554 0
M  V30 25045 C 2363.52 3.28688 1.83416 0
M  V30 25046 C 2362.67 2.6791 0.71552 0
M  V30 25047 H 2365.62 1.58585 -0.0603175 0
M  V30 25048 H 2365.64 3.10786 2.19528 0
M  V30 25049 H 2365.15 3.84517 0.526127 0
M  V30 25050 H 2363.25 2.6093 2.65981 0
M  V30 25051 H 2363.37 4.36482 1.97536 0
M  V30 25052 H 2361.73 2.27886 1.13754 0
M  V30 25053 H 2362.51 3.43224 -0.0721439 0
M  V30 25054 N 2364.96 -0.433911 1.51509 0
M  V30 25055 C 2365.91 -1.54754 1.73649 0
M  V30 25056 C 2366.9 -1.58309 0.602882 0
M  V30 25057 O 2368.11 -1.62012 0.784346 0
M  V30 25058 H 2364.48 -0.514201 0.548727 0
M  V30 25059 H 2366.45 -1.33256 2.66993 0
M  V30 25060 C 2365.2 -2.92378 1.88177 0
M  V30 25061 H 2364.53 -2.90376 2.74813 0
M  V30 25062 H 2365.97 -3.69656 2.07678 0
M  V30 25063 C 2364.43 -3.30718 0.642448 0
M  V30 25064 O 2364.95 -4.01195 -0.201292 0
M  V30 25065 N 2363.16 -2.86515 0.485539 0
M  V30 25066 H 2362.71 -2.29332 1.17322 0
M  V30 25067 H 2362.67 -3.1253 -0.342427 0
M  V30 25068 N 2366.44 -1.41713 -0.689577 0
M  V30 25069 C 2367.37 -1.39969 -1.81497 0
M  V30 25070 C 2368.38 -0.300946 -1.59994 0
M  V30 25071 O 2369.57 -0.563069 -1.69386 0
M  V30 25072 C 2366.67 -1.16184 -3.18362 0
M  V30 25073 C 2365.85 -2.38213 -3.66842 0
M  V30 25074 C 2364.9 -2.10195 -4.82395 0
M  V30 25075 O 2363.93 -2.83281 -4.93701 0
M  V30 25076 N 2365.13 -1.0959 -5.70062 0
M  V30 25077 H 2367.9 -2.36968 -1.83484 0
M  V30 25078 H 2365.46 -1.36402 -0.872125 0
M  V30 25079 H 2367.45 -0.953825 -3.93299 0
M  V30 25080 H 2366.02 -0.277614 -3.11365 0
M  V30 25081 H 2365.24 -2.74678 -2.82746 0
M  V30 25082 H 2366.53 -3.19505 -3.95973 0
M  V30 25083 H 2365.93 -0.491118 -5.63564 0
M  V30 25084 H 2364.48 -0.94777 -6.44873 0
M  V30 25085 N 2367.92 0.924431 -1.2764 0
M  V30 25086 C 2369.16 1.67247 -1.1417 0
M  V30 25087 C 2369.49 1.91984 0.311829 0
M  V30 25088 O 2368.75 1.51055 1.24422 0
M  V30 25089 C 2369.05 3.04321 -1.87412 0
M  V30 25090 C 2368.71 2.99283 -3.37255 0
M  V30 25091 C 2367.37 2.97616 -3.78125 0
M  V30 25092 C 2369.73 2.90328 -4.3285 0
M  V30 25093 C 2367.05 2.84781 -5.12949 0
M  V30 25094 C 2369.41 2.79035 -5.67735 0
M  V30 25095 C 2368.07 2.75719 -6.07894 0
M  V30 25096 H 2367.34 0.611999 -0.417777 0
M  V30 25097 H 2369.99 1.07783 -1.58288 0
M  V30 25098 H 2368.29 3.67508 -1.35812 0
M  V30 25099 H 2369.99 3.61082 -1.74415 0
M  V30 25100 H 2366.58 3.01369 -3.04753 0
M  V30 25101 H 2370.76 2.90712 -4.02244 0
M  V30 25102 H 2366.02 2.80603 -5.43205 0
M  V30 25103 H 2370.19 2.71072 -6.41477 0
M  V30 25104 H 2367.82 2.65531 -7.12318 0
M  V30 25105 N 2369.39 1.09715 1.13139 0
M  V30 25106 C 2370.32 0.761141 2.20746 0
M  V30 25107 C 2371.31 -0.262537 1.68062 0
M  V30 25108 O 2372.49 -0.129943 1.93765 0
M  V30 25109 C 2369.62 0.184115 3.46812 0
M  V30 25110 C 2368.57 1.13764 4.12604 0
M  V30 25111 C 2367.9 0.422176 5.33031 0
M  V30 25112 C 2369.2 2.48127 4.59598 0
M  V30 25113 H 2370.89 1.66086 2.4911 0
M  V30 25114 H 2368.44 0.800008 1.19732 0
M  V30 25115 H 2370.39 -0.0630474 4.21353 0
M  V30 25116 H 2369.12 -0.750812 3.17853 0
M  V30 25117 H 2367.78 1.37013 3.40034 0
M  V30 25118 H 2367.42 -0.516984 5.00336 0
M  V30 25119 H 2367.12 1.05798 5.77997 0
M  V30 25120 H 2368.65 0.183385 6.10325 0
M  V30 25121 H 2370.06 2.29068 5.25548 0
M  V30 25122 H 2368.46 3.07523 5.15315 0
M  V30 25123 H 2369.53 3.08671 3.73965 0
M  V30 25124 N 2370.87 -1.30419 0.88479 0
M  V30 25125 C 2371.82 -2.28136 0.349682 0
M  V30 25126 C 2372.79 -1.56374 -0.560034 0
M  V30 25127 O 2373.97 -1.84441 -0.488492 0
M  V30 25128 C 2371.11 -3.42411 -0.429929 0
M  V30 25129 C 2370.23 -4.28991 0.508983 0
M  V30 25130 C 2369.36 -5.30428 -0.286208 0
M  V30 25131 C 2368.4 -6.08658 0.648186 0
M  V30 25132 N 2367.54 -7.02011 -0.111669 0
M  V30 25133 H 2372.38 -2.73291 1.18811 0
M  V30 25134 H 2369.92 -1.34429 0.597255 0
M  V30 25135 H 2371.87 -4.07424 -0.897851 0
M  V30 25136 H 2370.5 -2.98326 -1.23294 0
M  V30 25137 H 2369.56 -3.64287 1.09539 0
M  V30 25138 H 2370.87 -4.83528 1.22484 0
M  V30 25139 H 2370.02 -6.01188 -0.815992 0
M  V30 25140 H 2368.76 -4.76585 -1.03528 0
M  V30 25141 H 2367.77 -5.36776 1.1896 0
M  V30 25142 H 2368.99 -6.64589 1.39635 0
M  V30 25143 H 2366.94 -6.50557 -0.843281 0
M  V30 25144 H 2366.85 -7.54036 0.544561 0
M  V30 25145 H 2368.12 -7.77013 -0.622202 0
M  V30 25146 N 2372.35 -0.645724 -1.43764 0
M  V30 25147 C 2373.6 -0.156306 -2.02197 0
M  V30 25148 C 2373.93 1.22391 -1.50779 0
M  V30 25149 O 2373.2 1.81552 -0.697803 0
M  V30 25150 C 2373.49 -0.158935 -3.59749 0
M  V30 25151 C 2373.34 -1.57253 -4.21416 0
M  V30 25152 C 2374.66 0.508713 -4.3715 0
M  V30 25153 H 2371.78 -0.0582732 -0.734693 0
M  V30 25154 H 2374.42 -0.824981 -1.71155 0
M  V30 25155 H 2372.57 0.410457 -3.86326 0
M  V30 25156 H 2374.24 -2.19193 -4.05897 0
M  V30 25157 H 2372.49 -2.12207 -3.78353 0
M  V30 25158 H 2373.16 -1.52628 -5.3048 0
M  V30 25159 H 2375.63 0.0243389 -4.16093 0
M  V30 25160 H 2374.51 0.476117 -5.46831 0
M  V30 25161 H 2374.77 1.58158 -4.12842 0
M  V30 25162 N 2373.83 1.5277 -0.38717 0
M  V30 25163 C 2375.11 1.93955 0.253163 0
M  V30 25164 C 2375.49 1.32246 1.64543 0
M  V30 25165 O 2374.83 0.489738 2.2319 0
M  V30 25166 C 2375.04 3.47862 0.281661 0
M  V30 25167 C 2376.39 4.21506 0.511641 0
M  V30 25168 O 2377.42 3.54356 0.361961 0
M  V30 25169 O 2376.27 5.40542 0.804752 0
M  V30 25170 H 2373.37 0.811993 0.15683 0
M  V30 25171 H 2375.91 1.63856 -0.441523 0
M  V30 25172 H 2374.69 3.85103 -0.693639 0
M  V30 25173 H 2374.31 3.84258 1.02136 0
M  V30 25174 N 2375.31 0.116931 1.57166 0
M  V30 25175 C 2376.55 -0.542371 1.95413 0
M  V30 25176 C 2376.89 -1.66461 1.00022 0
M  V30 25177 O 2376.16 -1.94465 0.0370688 0
M  V30 25178 C 2376.44 -1.07702 3.43617 0
M  V30 25179 C 2376.3 0.0416659 4.49781 0
M  V30 25180 C 2377.62 -1.96854 3.9362 0
M  V30 25181 H 2374.73 -0.195684 0.710547 0
M  V30 25182 H 2377.38 0.192072 1.89027 0
M  V30 25183 H 2375.53 -1.7029 3.4919 0
M  V30 25184 H 2377.2 0.676873 4.56307 0
M  V30 25185 H 2375.44 0.705094 4.28031 0
M  V30 25186 H 2376.11 -0.373621 5.50734 0
M  V30 25187 H 2378.59 -1.44139 3.90337 0
M  V30 25188 H 2377.46 -2.31181 4.97842 0
M  V30 25189 H 2377.73 -2.89426 3.34193 0
M  V30 25190 N 2376.78 -1.56818 -0.156836 0
M  V30 25191 C 2378.01 -1.87319 -0.890298 0
M  V30 25192 C 2378.43 -0.704885 -1.74393 0
M  V30 25193 O 2377.79 0.345755 -1.77973 0
M  V30 25194 C 2377.84 -3.16339 -1.73096 0
M  V30 25195 O 2376.94 -2.99581 -2.83417 0
M  V30 25196 H 2376.29 -0.615723 -0.248559 0
M  V30 25197 H 2378.82 -2.04045 -0.150614 0
M  V30 25198 H 2378.83 -3.48111 -2.12797 0
M  V30 25199 H 2377.5 -4.00978 -1.10405 0
M  V30 25200 H 2376.08 -2.79194 -2.47194 0
M  V30 25201 N 2378.26 0.425871 -1.51737 0
M  V30 25202 C 2379.68 0.763235 -1.40167 0
M  V30 25203 C 2379.88 1.95376 -0.492996 0
M  V30 25204 O 2378.93 2.52455 0.0475371 0
M  V30 25205 C 2380.25 1.03286 -2.82405 0
M  V30 25206 C 2381.8 1.13659 -2.91634 0
M  V30 25207 C 2382.27 1.43908 -4.34804 0
M  V30 25208 N 2383.76 1.50808 -4.37962 0
M  V30 25209 C 2384.5 1.75807 -5.45783 0
M  V30 25210 N 2383.99 1.98522 -6.63748 0
M  V30 25211 N 2385.79 1.77684 -5.33277 0
M  V30 25212 H 2377.94 -0.358037 -2.09361 0
M  V30 25213 H 2380.2 -0.097826 -0.942939 0
M  V30 25214 H 2379.91 0.230634 -3.50943 0
M  V30 25215 H 2379.78 1.95749 -3.22432 0
M  V30 25216 H 2382.17 1.92943 -2.23287 0
M  V30 25217 H 2382.25 0.190711 -2.55088 0
M  V30 25218 H 2381.89 0.651482 -5.03704 0
M  V30 25219 H 2381.82 2.39721 -4.68872 0
M  V30 25220 H 2384.31 1.35111 -3.52921 0
M  V30 25221 H 2384.63 2.17 -7.41708 0
M  V30 25222 H 2382.97 1.95821 -6.66843 0
M  V30 25223 H 2386.16 1.59465 -4.401 0
M  V30 25224 H 2386.33 1.96829 -6.17384 0
M  V30 25225 N 2379.74 1.42077 0.682052 0
M  V30 25226 C 2380.99 1.41454 1.43784 0
M  V30 25227 C 2381.3 0.0317418 1.95574 0
M  V30 25228 O 2382.51 -0.0970985 2.71326 0
M  V30 25229 C 2380.96 2.48784 2.60067 0
M  V30 25230 C 2380.57 3.93035 2.15006 0
M  V30 25231 C 2382.32 2.57317 3.37622 0
M  V30 25232 C 2380.22 4.91889 3.28328 0
M  V30 25233 H 2379.15 0.526091 0.540134 0
M  V30 25234 H 2381.8 1.67956 0.739128 0
M  V30 25235 H 2380.19 2.15435 3.32271 0
M  V30 25236 H 2381.36 4.35702 1.50002 0
M  V30 25237 H 2379.68 3.88286 1.50409 0
M  V30 25238 H 2382.27 3.28352 4.22006 0
M  V30 25239 H 2382.62 1.61435 3.83724 0
M  V30 25240 H 2383.15 2.89824 2.72483 0
M  V30 25241 H 2379.89 5.89222 2.87224 0
M  V30 25242 H 2379.41 4.5386 3.92137 0
M  V30 25243 H 2381.09 5.13272 3.93904 0
M  V30 25244 N 2381.22 -0.917649 1.28129 0
M  V30 25245 C 2382.44 -1.70553 1.1801 0
M  V30 25246 C 2382.87 -1.86319 -0.258224 0
M  V30 25247 O 2382.23 -1.37051 -1.18687 0
M  V30 25248 C 2382.28 -3.07743 1.87954 0
M  V30 25249 O 2381.38 -3.95028 1.18434 0
M  V30 25250 H 2380.72 -0.522396 0.409876 0
M  V30 25251 H 2383.25 -1.14767 1.69381 0
M  V30 25252 H 2383.26 -3.57998 1.95708 0
M  V30 25253 H 2381.94 -2.95586 2.92578 0
M  V30 25254 H 2380.51 -3.53464 1.18818 0
M  V30 25255 N 2382.7 -1.10314 -1.12555 0
M  V30 25256 C 2383.61 -0.763181 -2.21839 0
M  V30 25257 C 2384.62 0.23877 -1.72354 0
M  V30 25258 O 2385.8 0.0778393 -2.0125 0
M  V30 25259 C 2382.86 -0.198693 -3.4613 0
M  V30 25260 C 2381.93 -1.25776 -4.10462 0
M  V30 25261 C 2381.16 -0.720113 -5.28819 0
M  V30 25262 O 2381.38 0.453893 -5.68591 0
M  V30 25263 O 2380.32 -1.47945 -5.83435 0
M  V30 25264 H 2384.14 -1.67536 -2.53309 0
M  V30 25265 H 2381.73 -0.878179 -1.20865 0
M  V30 25266 H 2383.61 0.112326 -4.2125 0
M  V30 25267 H 2382.28 0.686363 -3.1634 0
M  V30 25268 H 2381.19 -1.62162 -3.37127 0
M  V30 25269 H 2382.52 -2.11579 -4.44404 0
M  V30 25270 N 2384.18 1.29948 -0.891694 0
M  V30 25271 C 2385.59 1.48427 -0.586646 0
M  V30 25272 C 2385.79 1.81562 0.873919 0
M  V30 25273 O 2384.85 1.90727 1.65468 0
M  V30 25274 C 2386.16 2.60294 -1.50558 0
M  V30 25275 C 2387.71 2.74172 -1.50993 0
M  V30 25276 C 2388.18 3.89158 -2.41495 0
M  V30 25277 N 2389.67 3.96479 -2.39496 0
M  V30 25278 C 2390.41 4.84778 -3.06231 0
M  V30 25279 N 2389.91 5.77826 -3.82216 0
M  V30 25280 N 2391.7 4.78203 -2.95429 0
M  V30 25281 H 2383.85 1.06715 -1.83646 0
M  V30 25282 H 2386.11 0.529318 -0.786464 0
M  V30 25283 H 2385.82 2.4265 -2.54586 0
M  V30 25284 H 2385.69 3.56921 -1.22014 0
M  V30 25285 H 2388.08 2.91217 -0.477132 0
M  V30 25286 H 2388.16 1.78145 -1.83571 0
M  V30 25287 H 2387.8 3.7287 -3.44863 0
M  V30 25288 H 2387.73 4.84538 -2.0623 0
M  V30 25289 H 2390.23 3.29921 -1.84283 0
M  V30 25290 H 2390.54 6.4198 -4.30211 0
M  V30 25291 H 2388.88 5.77737 -3.86323 0
M  V30 25292 H 2392.07 4.04494 -2.35588 0
M  V30 25293 H 2392.25 5.46808 -3.47714 0
M  V30 25294 N 2385.65 0.653339 1.4342 0
M  V30 25295 C 2386.59 -0.0768731 2.29071 0
M  V30 25296 C 2387.6 -0.786992 1.42514 0
M  V30 25297 O 2388.79 -0.644728 1.6645 0
M  V30 25298 C 2385.89 -1.13193 3.19438 0
M  V30 25299 C 2385.06 -0.49993 4.34534 0
M  V30 25300 C 2384.12 -1.45189 5.05773 0
M  V30 25301 O 2383.15 -0.960439 5.61039 0
M  V30 25302 N 2384.35 -2.78585 5.09285 0
M  V30 25303 H 2387.11 0.658286 2.92381 0
M  V30 25304 H 2384.67 0.496131 1.54111 0
M  V30 25305 H 2386.67 -1.76958 3.63962 0
M  V30 25306 H 2385.24 -1.76906 2.57727 0
M  V30 25307 H 2384.46 0.316807 3.92925 0
M  V30 25308 H 2385.74 -0.058745 5.08766 0
M  V30 25309 H 2385.14 -3.21072 4.65757 0
M  V30 25310 H 2383.7 -3.37652 5.57525 0
M  V30 25311 N 2387.13 -1.52563 0.395266 0
M  V30 25312 C 2388.38 -2.01255 -0.184643 0
M  V30 25313 C 2388.7 -1.28332 -1.4682 0
M  V30 25314 O 2387.97 -0.405128 -1.91665 0
M  V30 25315 H 2386.55 -0.743597 -0.0712225 0
M  V30 25316 H 2389.21 -1.87603 0.528326 0
M  V30 25317 H 2388.31 -3.09646 -0.390626 0
M  V30 25318 N 2388.61 -0.125265 -1.57101 0
M  V30 25319 C 2389.86 0.525719 -1.96489 0
M  V30 25320 C 2390.21 1.63889 -1.00788 0
M  V30 25321 O 2389.5 1.9156 -0.0390127 0
M  V30 25322 C 2389.7 1.09856 -3.40098 0
M  V30 25323 C 2389.53 0.0424214 -4.4968 0
M  V30 25324 C 2388.3 -0.391551 -5.03781 0
M  V30 25325 C 2390.49 -0.740919 -5.08935 0
M  V30 25326 N 2388.48 -1.43281 -5.96945 0
M  V30 25327 C 2389.85 -1.63321 -5.98102 0
M  V30 25328 C 2391.9 -0.791115 -4.91575 0
M  V30 25329 C 2390.61 -2.57134 -6.7177 0
M  V30 25330 C 2392.63 -1.71698 -5.65927 0
M  V30 25331 C 2391.99 -2.59684 -6.54785 0
M  V30 25332 H 2388.09 0.161817 -0.765075 0
M  V30 25333 H 2390.68 -0.214835 -1.93511 0
M  V30 25334 H 2388.85 1.80881 -3.4371 0
M  V30 25335 H 2390.58 1.71437 -3.66594 0
M  V30 25336 H 2387.33 0.0020526 -4.736 0
M  V30 25337 H 2387.76 -1.95254 -6.48232 0
M  V30 25338 H 2392.4 -0.124989 -4.22615 0
M  V30 25339 H 2390.12 -3.24757 -7.39972 0
M  V30 25340 H 2393.7 -1.76134 -5.54498 0
M  V30 25341 H 2392.58 -3.30162 -7.11311 0
M  V30 25342 N 2390.09 1.56899 0.148518 0
M  V30 25343 C 2391.02 2.01184 1.18521 0
M  V30 25344 C 2392 0.891148 1.44888 0
M  V30 25345 O 2393.18 1.15885 1.55834 0
M  V30 25346 C 2390.31 2.39116 2.51874 0
M  V30 25347 C 2389.27 3.54357 2.40031 0
M  V30 25348 C 2388.59 3.78098 3.78082 0
M  V30 25349 C 2389.89 4.87072 1.88568 0
M  V30 25350 H 2391.59 2.88038 0.816979 0
M  V30 25351 H 2389.13 1.38574 0.39155 0
M  V30 25352 H 2391.09 2.68698 3.24622 0
M  V30 25353 H 2389.81 1.49198 2.9053 0
M  V30 25354 H 2388.47 3.24939 1.69736 0
M  V30 25355 H 2388.12 2.85433 4.1417 0
M  V30 25356 H 2387.82 4.55651 3.7102 0
M  V30 25357 H 2389.34 4.10103 4.5238 0
M  V30 25358 H 2390.76 5.15381 2.51108 0
M  V30 25359 H 2389.15 5.68421 1.924 0
M  V30 25360 H 2390.22 4.77546 0.841276 0
M  V30 25361 N 2391.57 -0.417818 1.51961 0
M  V30 25362 C 2392.81 -1.16729 1.65838 0
M  V30 25363 C 2393.14 -1.90388 0.382914 0
M  V30 25364 O 2392.42 -1.8441 -0.618335 0
M  V30 25365 C 2392.7 -2.16871 2.8747 0
M  V30 25366 C 2392.56 -1.47167 4.25043 0
M  V30 25367 C 2393.87 -3.1764 3.04619 0
M  V30 25368 H 2390.99 -0.423001 0.603522 0
M  V30 25369 H 2393.64 -0.454072 1.84494 0
M  V30 25370 H 2391.79 -2.77695 2.71694 0
M  V30 25371 H 2393.46 -0.895297 4.52529 0
M  V30 25372 H 2391.7 -0.773731 4.26844 0
M  V30 25373 H 2392.37 -2.20195 5.0618 0
M  V30 25374 H 2394.85 -2.66886 3.19235 0
M  V30 25375 H 2393.72 -3.84983 3.91253 0
M  V30 25376 H 2393.98 -3.84871 2.17548 0
M  V30 25377 N 2393.04 -1.42436 -0.674508 0
M  V30 25378 C 2393.98 -1.41886 -1.80003 0
M  V30 25379 C 2394.99 -0.317898 -1.59666 0
M  V30 25380 O 2396.18 -0.581003 -1.6878 0
M  V30 25381 C 2393.28 -1.19554 -3.17112 0
M  V30 25382 C 2392.45 -2.4209 -3.64295 0
M  V30 25383 C 2391.51 -2.15299 -4.80138 0
M  V30 25384 O 2390.54 -2.88502 -4.90668 0
M  V30 25385 N 2391.74 -1.1563 -5.68867 0
M  V30 25386 H 2394.5 -2.38901 -1.8096 0
M  V30 25387 H 2392.06 -1.3732 -0.857608 0
M  V30 25388 H 2394.06 -0.995486 -3.92265 0
M  V30 25389 H 2392.63 -0.310623 -3.11053 0
M  V30 25390 H 2391.85 -2.77662 -2.79817 0
M  V30 25391 H 2393.13 -3.23686 -3.92562 0
M  V30 25392 H 2392.53 -0.550864 -5.63012 0
M  V30 25393 H 2391.09 -1.01611 -6.43831 0
M  V30 25394 N 2394.52 0.910841 -1.28614 0
M  V30 25395 C 2395.76 1.67467 -1.17193 0
M  V30 25396 C 2396.13 1.90029 0.274408 0
M  V30 25397 O 2397.33 2.63891 0.511379 0
M  V30 25398 C 2395.6 2.99423 -1.95142 0
M  V30 25399 S 2397.16 3.90505 -2.00129 0
M  V30 25400 H 2393.97 0.575098 -0.41807 0
M  V30 25401 H 2396.58 1.08315 -1.62752 0
M  V30 25402 H 2395.28 2.80706 -2.99386 0
M  V30 25403 H 2394.81 3.63621 -1.50144 0
M  V30 25404 H 2396.83 4.83628 -1.1099 0
M  V30 25405 N 2396 1.10909 1.11969 0
M  V30 25406 C 2396.93 0.784511 2.19927 0
M  V30 25407 C 2397.91 -0.244697 1.68331 0
M  V30 25408 O 2399.1 -0.109384 1.93892 0
M  V30 25409 C 2396.23 0.220888 3.46597 0
M  V30 25410 C 2395.18 1.18134 4.11374 0
M  V30 25411 C 2394.51 0.478688 5.32553 0
M  V30 25412 C 2395.81 2.52987 4.56941 0
M  V30 25413 H 2397.5 1.68719 2.47334 0
M  V30 25414 H 2395.05 0.812663 1.18877 0
M  V30 25415 H 2397 -0.0183538 4.21396 0
M  V30 25416 H 2395.72 -0.717057 3.18631 0
M  V30 25417 H 2394.38 1.40612 3.38561 0
M  V30 25418 H 2394.03 -0.463888 5.00856 0
M  V30 25419 H 2393.73 1.11922 5.76842 0
M  V30 25420 H 2395.25 0.248107 6.10096 0
M  V30 25421 H 2396.67 2.3463 5.23089 0
M  V30 25422 H 2395.07 3.12971 5.12025 0
M  V30 25423 H 2396.14 3.1262 3.70671 0
M  V30 25424 N 2397.48 -1.29474 0.898573 0
M  V30 25425 C 2398.76 -1.90507 0.44345 0
M  V30 25426 C 2399.14 -1.81571 -1.07682 0
M  V30 25427 O 2398.48 -1.2417 -1.91818 0
M  V30 25428 C 2398.69 -3.35629 0.956767 0
M  V30 25429 C 2400.04 -4.12661 0.9998 0
M  V30 25430 O 2401.07 -3.44528 0.904359 0
M  V30 25431 O 2399.92 -5.34414 1.14298 0
M  V30 25432 H 2397.02 -0.815398 0.138039 0
M  V30 25433 H 2399.56 -1.37947 0.988364 0
M  V30 25434 H 2398.34 -3.36283 2.00073 0
M  V30 25435 H 2397.96 -3.95665 0.391798 0
M  V30 25436 N 2398.96 -0.660936 -1.43071 0
M  V30 25437 C 2400.37 -0.25638 -1.84931 0
M  V30 25438 C 2400.72 1.19866 -1.55328 0
M  V30 25439 O 2399.84 1.91589 -1.0061 0
M  V30 25440 C 2400.44 -0.458534 -3.35683 0
M  V30 25441 C 2399 -0.108227 -3.76244 0
M  V30 25442 C 2398.14 -0.757688 -2.66748 0
M  V30 25443 H 2401.1 -0.864074 -1.33114 0
M  V30 25444 H 2401.12 0.293617 -3.79365 0
M  V30 25445 H 2400.63 -1.51761 -3.57198 0
M  V30 25446 H 2398.73 0.94795 -3.6034 0
M  V30 25447 H 2398.84 -0.539076 -4.76058 0
M  V30 25448 H 2397.21 -0.190229 -2.53989 0
M  V30 25449 H 2397.99 -1.81995 -2.91089 0
M  V30 25450 N 2400.43 1.52351 -0.403352 0
M  V30 25451 C 2401.36 2.29761 0.416165 0
M  V30 25452 C 2402.35 1.3373 1.0512 0
M  V30 25453 O 2403.53 1.62634 1.06131 0
M  V30 25454 C 2400.66 3.11478 1.53619 0
M  V30 25455 C 2399.61 4.15509 1.02645 0
M  V30 25456 C 2398.94 4.85535 2.23963 0
M  V30 25457 C 2400.24 5.22232 0.0845382 0
M  V30 25458 H 2401.93 2.98517 -0.229754 0
M  V30 25459 H 2399.48 1.43564 -0.111938 0
M  V30 25460 H 2401.43 3.64397 2.11644 0
M  V30 25461 H 2400.16 2.40481 2.2099 0
M  V30 25462 H 2398.82 3.63592 0.468646 0
M  V30 25463 H 2398.46 4.11073 2.89876 0
M  V30 25464 H 2398.16 5.55859 1.90511 0
M  V30 25465 H 2399.69 5.41264 2.82605 0
M  V30 25466 H 2401.1 5.70425 0.573409 0
M  V30 25467 H 2399.5 5.99884 -0.160889 0
M  V30 25468 H 2400.57 4.77168 -0.862454 0
M  V30 25469 N 2401.91 0.133594 1.57033 0
M  V30 25470 C 2402.84 -0.841906 2.13177 0
M  V30 25471 C 2403.86 -1.22 1.07796 0
M  V30 25472 O 2405.05 -1.1664 1.35119 0
M  V30 25473 C 2402.15 -2.13922 2.62851 0
M  V30 25474 C 2401.32 -1.93057 3.92489 0
M  V30 25475 C 2400.38 -3.06652 4.27611 0
M  V30 25476 O 2399.4 -2.78928 4.96173 0
M  V30 25477 N 2400.61 -4.33476 3.86107 0
M  V30 25478 H 2403.37 -0.36214 2.97504 0
M  V30 25479 H 2400.93 -0.0503915 1.61822 0
M  V30 25480 H 2402.92 -2.88937 2.83368 0
M  V30 25481 H 2401.49 -2.53202 1.83324 0
M  V30 25482 H 2400.71 -1.02152 3.80734 0
M  V30 25483 H 2402 -1.76439 4.77228 0
M  V30 25484 H 2401.4 -4.58872 3.30836 0
M  V30 25485 H 2399.96 -5.05316 4.11703 0
M  V30 25486 N 2403.39 -1.56975 -0.140195 0
M  V30 25487 C 2404.64 -1.8372 -0.851655 0
M  V30 25488 C 2404.97 -0.715516 -1.80861 0
M  V30 25489 O 2404.22 0.294922 -1.93465 0
M  V30 25490 C 2404.52 -3.16835 -1.6538 0
M  V30 25491 C 2404.19 -4.42949 -0.843034 0
M  V30 25492 C 2402.85 -4.77197 -0.61938 0
M  V30 25493 C 2405.2 -5.20466 -0.276491 0
M  V30 25494 C 2402.53 -5.86419 0.181415 0
M  V30 25495 C 2404.88 -6.3053 0.51138 0
M  V30 25496 C 2403.54 -6.63323 0.745548 0
M  V30 25497 H 2402.81 -0.67228 -0.311643 0
M  V30 25498 H 2405.46 -1.91155 -0.114972 0
M  V30 25499 H 2403.77 -3.04881 -2.46079 0
M  V30 25500 H 2405.46 -3.34744 -2.20788 0
M  V30 25501 H 2402.05 -4.16103 -1.02742 0
M  V30 25502 H 2406.24 -4.94376 -0.436545 0
M  V30 25503 H 2401.49 -6.10266 0.372272 0
M  V30 25504 H 2405.67 -6.89786 0.957475 0
M  V30 25505 H 2403.29 -7.47792 1.36791 0
M  V30 25506 N 2404.87 0.409753 -1.5218 0
M  V30 25507 C 2405.8 1.52013 -1.70198 0
M  V30 25508 C 2406.78 1.53031 -0.549569 0
M  V30 25509 O 2407.96 1.71748 -0.776845 0
M  V30 25510 C 2405.09 2.90544 -1.74074 0
M  V30 25511 C 2404.14 3.07439 -2.95607 0
M  V30 25512 S 2404.97 2.80819 -4.55961 0
M  V30 25513 C 2406.13 4.21582 -4.62622 0
M  V30 25514 H 2406.36 1.365 -2.64112 0
M  V30 25515 H 2403.89 0.601287 -1.42211 0
M  V30 25516 H 2405.85 3.70384 -1.76991 0
M  V30 25517 H 2404.51 3.03399 -0.812888 0
M  V30 25518 H 2403.7 4.08791 -2.94799 0
M  V30 25519 H 2403.31 2.35464 -2.90573 0
M  V30 25520 H 2405.6 5.1521 -4.3996 0
M  V30 25521 H 2406.54 4.27414 -5.64555 0
M  V30 25522 H 2406.95 4.06524 -3.91661 0
M  V30 25523 N 2406.35 1.42792 0.666944 0
M  V30 25524 C 2407.57 1.47303 1.46002 0
M  V30 25525 C 2408 0.0880648 1.87894 0
M  V30 25526 O 2407.35 -0.915225 1.56503 0
M  V30 25527 C 2407.4 2.41234 2.68027 0
M  V30 25528 O 2406.51 1.88913 3.66587 0
M  V30 25529 H 2405.85 0.498778 0.438311 0
M  V30 25530 H 2408.38 1.87564 0.817358 0
M  V30 25531 H 2408.39 2.58079 3.16006 0
M  V30 25532 H 2407.06 3.41851 2.36877 0
M  V30 25533 H 2405.64 1.81662 3.25658 0
M  V30 25534 N 2407.82 -0.904008 1.29095 0
M  V30 25535 C 2408.75 -2.02416 1.16405 0
M  V30 25536 C 2409.74 -1.69996 0.0593384 0
M  V30 25537 O 2410.92 -1.92735 0.238055 0
M  V30 25538 C 2408.05 -3.37106 0.835292 0
M  V30 25539 C 2407 -3.83721 1.89585 0
M  V30 25540 C 2406.33 -5.15486 1.4205 0
M  V30 25541 C 2407.63 -4.04515 3.30401 0
M  V30 25542 H 2409.32 -2.13291 2.10113 0
M  V30 25543 H 2406.87 -1.02484 1.01159 0
M  V30 25544 H 2408.82 -4.14972 0.733241 0
M  V30 25545 H 2407.55 -3.2631 -0.137486 0
M  V30 25546 H 2406.21 -3.08068 1.98721 0
M  V30 25547 H 2405.85 -5.01102 0.436514 0
M  V30 25548 H 2405.55 -5.47646 2.12974 0
M  V30 25549 H 2407.08 -5.95897 1.33186 0
M  V30 25550 H 2408.49 -4.72876 3.24131 0
M  V30 25551 H 2406.89 -4.48022 3.99245 0
M  V30 25552 H 2407.96 -3.08995 3.73698 0
M  V30 25553 N 2409.3 -1.11501 -1.11379 0
M  V30 25554 C 2410.25 -0.743018 -2.15553 0
M  V30 25555 C 2411.24 0.253248 -1.58894 0
M  V30 25556 O 2412.43 0.0602607 -1.76897 0
M  V30 25557 C 2409.56 -0.188541 -3.42782 0
M  V30 25558 C 2408.64 -1.21251 -4.06398 0
M  V30 25559 N 2409.03 -2.40693 -4.4486 0
M  V30 25560 C 2407.33 -1.05559 -4.33328 0
M  V30 25561 C 2408.03 -3.06003 -4.94709 0
M  V30 25562 N 2407.01 -2.33481 -4.90905 0
M  V30 25563 H 2410.81 -1.65207 -2.43072 0
M  V30 25564 H 2408.33 -0.994351 -1.28399 0
M  V30 25565 H 2410.32 0.096096 -4.16789 0
M  V30 25566 H 2408.98 0.715093 -3.16728 0
M  V30 25567 H 2409.99 -2.78143 -4.36871 0
M  V30 25568 H 2406.67 -0.208445 -4.16979 0
M  V30 25569 H 2408.06 -4.07666 -5.34096 0
M  V30 25570 N 2410.78 1.28995 -0.905426 0
M  V30 25571 C 2412.03 1.94606 -0.530225 0
M  V30 25572 C 2412.34 1.72122 0.929155 0
M  V30 25573 O 2413.55 2.31886 1.41214 0
M  V30 25574 C 2412.01 3.48532 -0.897394 0
M  V30 25575 C 2411.61 3.79807 -2.37593 0
M  V30 25576 C 2413.36 4.20346 -0.592378 0
M  V30 25577 C 2411.26 5.27004 -2.68366 0
M  V30 25578 H 2410.19 0.728463 -0.19457 0
M  V30 25579 H 2412.85 1.46634 -1.10321 0
M  V30 25580 H 2411.23 3.95189 -0.253283 0
M  V30 25581 H 2412.4 3.43989 -3.06608 0
M  V30 25582 H 2410.72 3.21146 -2.65055 0
M  V30 25583 H 2413.31 5.28696 -0.799068 0
M  V30 25584 H 2413.66 4.13645 0.469401 0
M  V30 25585 H 2414.19 3.7944 -1.19458 0
M  V30 25586 H 2410.93 5.38775 -3.73365 0
M  V30 25587 H 2410.45 5.64049 -2.03981 0
M  V30 25588 H 2412.13 5.94658 -2.54933 0
M  V30 25589 N 2412.26 0.668514 1.42719 0
M  V30 25590 C 2413.67 0.266184 1.84793 0
M  V30 25591 C 2414.02 -1.1904 1.55961 0
M  V30 25592 O 2413.15 -1.91053 1.01625 0
M  V30 25593 C 2413.74 0.47633 3.35435 0
M  V30 25594 C 2412.3 0.128179 3.76182 0
M  V30 25595 C 2411.45 0.771824 2.66342 0
M  V30 25596 H 2414.4 0.871121 1.32654 0
M  V30 25597 H 2414.42 -0.273494 3.79516 0
M  V30 25598 H 2413.93 1.53653 3.56388 0
M  V30 25599 H 2412.03 -0.928827 3.60837 0
M  V30 25600 H 2412.15 0.564315 4.75765 0
M  V30 25601 H 2410.51 0.203696 2.53884 0
M  V30 25602 H 2411.29 1.83536 2.9012 0
M  V30 25603 N 2413.74 -1.52135 0.411426 0
M  V30 25604 C 2414.65 -2.30815 -0.419734 0
M  V30 25605 C 2415.66 -1.38636 -1.05148 0
M  V30 25606 O 2416.84 -1.71711 -1.05249 0
M  V30 25607 C 2413.9 -3.11597 -1.52014 0
M  V30 25608 C 2412.97 -4.19518 -0.911216 0
M  V30 25609 C 2412.2 -4.96439 -1.95918 0
M  V30 25610 O 2412.42 -4.73688 -3.17767 0
M  V30 25611 O 2411.36 -5.81222 -1.56413 0
M  V30 25612 H 2415.18 -3.02889 0.221858 0
M  V30 25613 H 2412.77 -1.48377 0.174573 0
M  V30 25614 H 2414.65 -3.61896 -2.15891 0
M  V30 25615 H 2413.32 -2.42314 -2.14629 0
M  V30 25616 H 2412.23 -3.73361 -0.235091 0
M  V30 25617 H 2413.56 -4.911 -0.328954 0
M  V30 25618 N 2415.22 -0.14192 -1.5696 0
M  V30 25619 C 2416.13 0.812866 -2.20067 0
M  V30 25620 C 2417.14 1.27554 -1.18346 0
M  V30 25621 O 2418.32 1.33379 -1.50904 0
M  V30 25622 C 2415.38 2.03647 -2.80586 0
M  V30 25623 C 2414.44 1.62352 -3.97417 0
M  V30 25624 C 2413.68 2.78879 -4.55041 0
M  V30 25625 O 2413.9 3.94952 -4.11545 0
M  V30 25626 O 2412.83 2.54644 -5.45381 0
M  V30 25627 H 2416.66 0.305693 -3.02158 0
M  V30 25628 H 2414.24 0.0848537 -1.49159 0
M  V30 25629 H 2416.13 2.75266 -3.19071 0
M  V30 25630 H 2414.8 2.53327 -2.01512 0
M  V30 25631 H 2413.71 0.877711 -3.63658 0
M  V30 25632 H 2415.04 1.17393 -4.77996 0
M  V30 25633 N 2416.69 1.57047 0.131868 0
M  V30 25634 C 2417.64 2.00362 1.18143 0
M  V30 25635 C 2418.64 0.898431 1.43613 0
M  V30 25636 O 2419.84 1.08363 1.43727 0
M  V30 25637 H 2416.22 0.638025 0.398031 0
M  V30 25638 H 2418.19 2.87766 0.789513 0
M  V30 25639 C 2416.94 2.41303 2.50336 0
M  V30 25640 H 2416.26 3.25906 2.31572 0
M  V30 25641 H 2417.7 2.7542 3.22366 0
M  V30 25642 C 2416.16 1.27158 3.11981 0
M  V30 25643 O 2416.69 0.580529 3.97483 0
M  V30 25644 N 2414.89 1.03193 2.71661 0
M  V30 25645 H 2414.44 1.59567 2.02228 0
M  V30 25646 H 2414.4 0.270132 3.13237 0
M  V30 25647 N 2418.17 -0.401677 1.52395 0
M  V30 25648 C 2419.59 -0.740839 1.41364 0
M  V30 25649 C 2419.79 -1.94567 0.524017 0
M  V30 25650 O 2418.84 -2.52499 -0.00736765 0
M  V30 25651 C 2420.16 -0.987797 2.84012 0
M  V30 25652 C 2421.7 -1.09005 2.93406 0
M  V30 25653 C 2422.18 -1.36972 4.37038 0
M  V30 25654 N 2423.67 -1.43821 4.40306 0
M  V30 25655 C 2424.41 -1.67102 5.48511 0
M  V30 25656 N 2423.9 -1.87937 6.66822 0
M  V30 25657 N 2425.69 -1.69178 5.36037 0
M  V30 25658 H 2417.85 0.391299 2.08764 0
M  V30 25659 H 2420.11 0.112815 0.941263 0
M  V30 25660 H 2419.81 -0.174773 3.51265 0
M  V30 25661 H 2419.69 -1.90594 3.25505 0
M  V30 25662 H 2422.08 -1.89366 2.26328 0
M  V30 25663 H 2422.16 -0.150105 2.55359 0
M  V30 25664 H 2421.8 -0.571264 5.04677 0
M  V30 25665 H 2421.73 -2.32231 4.72627 0
M  V30 25666 H 2424.22 -1.2948 3.55026 0
M  V30 25667 H 2424.53 -2.05172 7.45067 0
M  V30 25668 H 2422.88 -1.85187 6.69874 0
M  V30 25669 H 2426.07 -1.52443 4.42582 0
M  V30 25670 H 2426.24 -1.86982 6.20437 0
M  V30 25671 N 2419.65 -1.43144 -0.659362 0
M  V30 25672 C 2420.87 -1.48075 -1.45219 0
M  V30 25673 C 2421.3 -0.098028 -1.87844 0
M  V30 25674 O 2420.66 0.906913 -1.56987 0
M  V30 25675 C 2420.71 -2.42652 -2.66744 0
M  V30 25676 O 2419.81 -1.90854 -3.6558 0
M  V30 25677 H 2419.15 -0.501095 -0.43566 0
M  V30 25678 H 2421.68 -1.87995 -0.807399 0
M  V30 25679 H 2421.69 -2.59751 -3.14632 0
M  V30 25680 H 2420.37 -3.43103 -2.35061 0
M  V30 25681 H 2418.94 -1.83387 -3.2469 0
M  V30 25682 N 2421.13 0.897149 -1.29572 0
M  V30 25683 C 2422.37 1.65032 -1.17866 0
M  V30 25684 C 2422.71 1.92332 0.268695 0
M  V30 25685 O 2421.98 1.53557 1.19375 0
M  V30 25686 C 2422.26 2.99783 -1.99505 0
M  V30 25687 C 2422.12 2.79532 -3.52395 0
M  V30 25688 C 2423.44 4.00549 -1.82342 0
M  V30 25689 H 2420.56 0.598887 -0.429538 0
M  V30 25690 H 2423.2 1.03902 -1.59073 0
M  V30 25691 H 2421.35 3.51959 -1.64491 0
M  V30 25692 H 2423.02 2.34237 -3.97405 0
M  V30 25693 H 2421.26 2.14266 -3.7719 0
M  V30 25694 H 2421.93 3.75295 -4.04794 0
M  V30 25695 H 2424.41 3.57491 -2.1293 0
M  V30 25696 H 2423.29 4.92767 -2.4181 0
M  V30 25697 H 2423.55 4.35178 -0.779285 0
M  V30 25698 N 2422.61 1.1209 1.10786 0
M  V30 25699 C 2423.88 0.785508 1.79134 0
M  V30 25700 C 2424.26 -0.725342 1.98247 0
M  V30 25701 O 2423.61 -1.65775 1.57261 0
M  V30 25702 C 2423.82 1.55641 3.12373 0
M  V30 25703 C 2425.17 1.74007 3.87307 0
M  V30 25704 O 2426.19 1.52123 3.22082 0
M  V30 25705 O 2425.05 2.10424 5.04365 0
M  V30 25706 H 2422.15 0.285325 0.776221 0
M  V30 25707 H 2424.69 1.22472 1.17468 0
M  V30 25708 H 2423.46 2.58385 2.93859 0
M  V30 25709 H 2423.09 1.11121 3.81756 0
M  V30 25710 N 2424.08 -1.28513 0.912254 0
M  V30 25711 C 2425.33 -1.94322 0.540538 0
M  V30 25712 C 2425.65 -1.72613 -0.920014 0
M  V30 25713 O 2426.85 -2.32631 -1.39982 0
M  V30 25714 C 2425.31 -3.48052 0.915865 0
M  V30 25715 C 2424.92 -3.78542 2.39604 0
M  V30 25716 C 2426.66 -4.20026 0.614662 0
M  V30 25717 C 2424.57 -5.25574 2.71157 0
M  V30 25718 H 2423.5 -0.727421 0.198431 0
M  V30 25719 H 2426.15 -1.46047 1.11097 0
M  V30 25720 H 2424.53 -3.95049 0.274238 0
M  V30 25721 H 2425.7 -3.42358 3.08428 0
M  V30 25722 H 2424.02 -3.19736 2.66755 0
M  V30 25723 H 2426.62 -5.28264 0.827094 0
M  V30 25724 H 2426.96 -4.13888 -0.447458 0
M  V30 25725 H 2427.49 -3.78801 1.21469 0
M  V30 25726 H 2424.23 -5.36788 3.76217 0
M  V30 25727 H 2423.75 -5.6296 2.0697 0
M  V30 25728 H 2425.43 -5.93298 2.58083 0
M  V30 25729 N 2425.56 -0.676073 -1.42362 0
M  V30 25730 C 2426.49 -0.0125243 -2.33497 0
M  V30 25731 C 2427.47 0.787954 -1.50749 0
M  V30 25732 O 2428.66 0.744852 -1.79348 0
M  V30 25733 C 2425.79 0.938523 -3.34379 0
M  V30 25734 C 2424.74 0.246547 -4.27289 0
M  V30 25735 C 2424.07 1.31062 -5.18389 0
M  V30 25736 C 2425.37 -0.875215 -5.14915 0
M  V30 25737 H 2427.06 -0.773644 -2.89232 0
M  V30 25738 H 2424.61 -0.373484 -1.39072 0
M  V30 25739 H 2426.56 1.41181 -3.97046 0
M  V30 25740 H 2425.29 1.73108 -2.7695 0
M  V30 25741 H 2423.94 -0.20652 -3.66018 0
M  V30 25742 H 2423.59 2.0952 -4.57286 0
M  V30 25743 H 2423.29 0.852737 -5.8138 0
M  V30 25744 H 2424.82 1.78481 -5.83932 0
M  V30 25745 H 2426.23 -0.483084 -5.71261 0
M  V30 25746 H 2424.63 -1.25897 -5.86745 0
M  V30 25747 H 2425.7 -1.72343 -4.53239 0
M  V30 25748 N 2427.04 1.51915 -0.419488 0
M  V30 25749 C 2427.95 2.31034 0.407487 0
M  V30 25750 C 2428.97 1.39192 1.04411 0
M  V30 25751 O 2430.14 1.72266 1.04337 0
M  V30 25752 C 2427.21 3.12399 1.50359 0
M  V30 25753 C 2426.27 4.19995 0.888955 0
M  V30 25754 C 2425.5 4.97471 1.93283 0
M  V30 25755 O 2425.72 4.75367 3.1525 0
M  V30 25756 O 2424.66 5.82043 1.53329 0
M  V30 25757 H 2428.48 3.02767 -0.237918 0
M  V30 25758 H 2426.07 1.48282 -0.182439 0
M  V30 25759 H 2427.95 3.63036 2.13969 0
M  V30 25760 H 2426.63 2.43449 2.13341 0
M  V30 25761 H 2425.53 3.7348 0.215287 0
M  V30 25762 H 2426.87 4.91267 0.302905 0
M  V30 25763 N 2428.52 0.150242 1.56882 0
M  V30 25764 C 2429.45 -0.784245 2.19936 0
M  V30 25765 C 2430.43 -1.25467 1.14856 0
M  V30 25766 O 2431.61 -1.31165 1.43211 0
M  V30 25767 C 2428.74 -2.02224 2.82352 0
M  V30 25768 C 2427.7 -1.68846 3.93287 0
M  V30 25769 C 2427.02 -2.99936 4.42654 0
M  V30 25770 C 2428.32 -0.932623 5.13906 0
M  V30 25771 H 2430.02 -0.258729 2.9828 0
M  V30 25772 H 2427.56 -0.123004 1.43474 0
M  V30 25773 H 2429.52 -2.68082 3.25131 0
M  V30 25774 H 2428.24 -2.57154 2.01345 0
M  V30 25775 H 2426.9 -1.05365 3.51132 0
M  V30 25776 H 2426.55 -3.52863 3.58464 0
M  V30 25777 H 2426.25 -2.78365 5.17481 0
M  V30 25778 H 2427.77 -3.66859 4.88105 0
M  V30 25779 H 2429.19 -1.49336 5.53509 0
M  V30 25780 H 2427.58 -0.816735 5.94516 0
M  V30 25781 H 2428.65 0.0750421 4.84842 0
M  V30 25782 N 2430 -1.57115 -0.123538 0
M  V30 25783 C 2431.22 -1.88794 -0.846427 0
M  V30 25784 C 2431.64 -0.741007 -1.73651 0
M  V30 25785 O 2431 0.288361 -1.80207 0
M  V30 25786 C 2431.05 -3.199 -1.68364 0
M  V30 25787 O 2430.77 -4.30177 -0.829401 0
M  V30 25788 C 2432.27 -3.65253 -2.51208 0
M  V30 25789 H 2429.49 -0.625235 -0.243562 0
M  V30 25790 H 2432.03 -2.04208 -0.109288 0
M  V30 25791 H 2430.19 -3.06169 -2.37358 0
M  V30 25792 H 2430.6 -5.05292 -1.40642 0
M  V30 25793 H 2432.08 -4.59761 -3.05489 0
M  V30 25794 H 2432.55 -2.91686 -3.28354 0
M  V30 25795 H 2433.16 -3.81756 -1.87464 0
M  V30 25796 N 2431.47 0.393589 -1.52606 0
M  V30 25797 C 2432.38 1.50489 -1.79973 0
M  V30 25798 C 2433.4 1.59897 -0.686209 0
M  V30 25799 O 2434.58 1.7632 -0.973305 0
M  V30 25800 C 2431.64 2.86068 -1.95872 0
M  V30 25801 C 2430.7 2.86419 -3.19786 0
M  V30 25802 C 2429.94 4.15532 -3.34916 0
M  V30 25803 O 2430.16 5.10248 -2.54957 0
M  V30 25804 O 2429.09 4.23052 -4.28148 0
M  V30 25805 H 2432.92 1.30294 -2.7433 0
M  V30 25806 H 2430.5 0.58098 -1.37641 0
M  V30 25807 H 2432.39 3.66453 -2.08062 0
M  V30 25808 H 2431.06 3.06298 -1.04704 0
M  V30 25809 H 2429.97 2.04831 -3.13041 0
M  V30 25810 H 2431.3 2.7114 -4.10784 0
M  V30 25811 N 2432.95 1.43492 0.651762 0
M  V30 25812 C 2433.88 1.44732 1.77723 0
M  V30 25813 C 2434.9 0.343259 1.5914 0
M  V30 25814 O 2436.09 0.607781 1.67834 0
M  V30 25815 C 2433.19 1.24584 3.1517 0
M  V30 25816 C 2432.36 2.47855 3.60398 0
M  V30 25817 C 2431.42 2.22911 4.76652 0
M  V30 25818 O 2430.44 2.96271 4.86016 0
M  V30 25819 N 2431.65 1.24666 5.66956 0
M  V30 25820 H 2434.41 2.41749 1.77136 0
M  V30 25821 H 2431.97 1.38667 0.835654 0
M  V30 25822 H 2433.96 1.05777 3.90632 0
M  V30 25823 H 2432.53 0.36007 3.10519 0
M  V30 25824 H 2431.75 2.82078 2.75364 0
M  V30 25825 H 2433.04 3.29891 3.87362 0
M  V30 25826 H 2432.44 0.640364 5.62064 0
M  V30 25827 H 2431 1.11841 6.42133 0
M  V30 25828 N 2434.43 -0.890264 1.30046 0
M  V30 25829 C 2435.34 -2.02829 1.17889 0
M  V30 25830 C 2436.36 -1.73712 0.0999915 0
M  V30 25831 O 2437.53 -1.98939 0.313902 0
M  V30 25832 C 2434.6 -3.35707 0.866138 0
M  V30 25833 C 2433.66 -3.7828 2.02985 0
M  V30 25834 C 2432.89 -5.04817 1.73193 0
M  V30 25835 O 2433.11 -5.666 0.657337 0
M  V30 25836 O 2432.05 -5.4367 2.58276 0
M  V30 25837 H 2435.87 -2.16012 2.13478 0
M  V30 25838 H 2433.46 -1.01541 1.09589 0
M  V30 25839 H 2435.34 -4.15432 0.706696 0
M  V30 25840 H 2434.02 -3.23645 -0.0598874 0
M  V30 25841 H 2432.92 -2.99281 2.24459 0
M  V30 25842 H 2434.26 -3.94939 2.93741 0
M  V30 25843 N 2435.91 -1.12676 -1.1019 0
M  V30 25844 C 2436.82 -0.810065 -2.20171 0
M  V30 25845 C 2437.83 0.202158 -1.72822 0
M  V30 25846 O 2439.01 0.0351337 -2.01369 0
M  V30 25847 C 2436.08 -0.272068 -3.45631 0
M  V30 25848 C 2435.14 -1.34454 -4.07702 0
M  V30 25849 C 2434.37 -0.832122 -5.27173 0
M  V30 25850 O 2434.59 0.333184 -5.69426 0
M  V30 25851 O 2433.53 -1.60287 -5.80165 0
M  V30 25852 H 2437.35 -1.72871 -2.49698 0
M  V30 25853 H 2434.94 -0.903618 -1.18975 0
M  V30 25854 H 2436.82 0.0229478 -4.21394 0
M  V30 25855 H 2435.49 0.619108 -3.17724 0
M  V30 25856 H 2434.4 -1.69276 -3.33611 0
M  V30 25857 H 2435.73 -2.20958 -4.39817 0
M  V30 25858 N 2437.39 1.28028 -0.919057 0
M  V30 25859 C 2438.32 2.29532 -0.428622 0
M  V30 25860 C 2439.3 1.62382 0.506561 0
M  V30 25861 O 2440.48 1.89754 0.413162 0
M  V30 25862 C 2437.61 3.45754 0.327328 0
M  V30 25863 C 2436.57 4.24839 -0.519212 0
M  V30 25864 C 2435.89 5.3345 0.365393 0
M  V30 25865 C 2437.19 4.91061 -1.77923 0
M  V30 25866 H 2438.89 2.70805 -1.27692 0
M  V30 25867 H 2436.43 1.30185 -0.615451 0
M  V30 25868 H 2438.39 4.15856 0.681305 0
M  V30 25869 H 2437.11 3.03376 1.20957 0
M  V30 25870 H 2435.77 3.56472 -0.855779 0
M  V30 25871 H 2435.42 4.87314 1.24634 0
M  V30 25872 H 2435.12 5.87268 -0.197459 0
M  V30 25873 H 2436.64 6.06398 0.715134 0
M  V30 25874 H 2438.05 5.53496 -1.49384 0
M  V30 25875 H 2436.45 5.54898 -2.2849 0
M  V30 25876 H 2437.52 4.15251 -2.50389 0
M  V30 25877 N 2438.86 0.683613 1.42002 0
M  V30 25878 C 2439.79 0.024907 2.33487 0
M  V30 25879 C 2440.78 -0.779948 1.51165 0
M  V30 25880 O 2441.96 -0.735331 1.7974 0
M  V30 25881 C 2439.09 -0.920777 3.34872 0
M  V30 25882 C 2438.04 -0.223883 4.27414 0
M  V30 25883 C 2437.37 -1.28311 5.19076 0
M  V30 25884 C 2438.67 0.90251 5.14443 0
M  V30 25885 H 2440.36 0.788972 2.88818 0
M  V30 25886 H 2437.91 0.380854 1.38872 0
M  V30 25887 H 2439.86 -1.39074 3.97789 0
M  V30 25888 H 2438.59 -1.71637 2.77864 0
M  V30 25889 H 2437.25 0.225928 3.65903 0
M  V30 25890 H 2436.89 -2.07092 4.58391 0
M  V30 25891 H 2436.59 -0.821893 5.81824 0
M  V30 25892 H 2438.12 -1.75382 5.8487 0
M  V30 25893 H 2439.53 0.513372 5.70997 0
M  V30 25894 H 2437.93 1.29007 5.86069 0
M  V30 25895 H 2439 1.74745 4.52319 0
M  V30 25896 N 2440.34 -1.5169 0.427538 0
M  V30 25897 C 2441.29 -2.27501 -0.388827 0
M  V30 25898 C 2442.26 -1.30679 -1.0253 0
M  V30 25899 O 2443.45 -1.59568 -1.04607 0
M  V30 25900 C 2440.59 -3.11301 -1.48949 0
M  V30 25901 C 2439.7 -4.23105 -0.87212 0
M  V30 25902 C 2438.83 -4.94232 -1.94701 0
M  V30 25903 C 2437.87 -5.97971 -1.30755 0
M  V30 25904 N 2437.01 -6.62543 -2.32338 0
M  V30 25905 H 2441.85 -2.96828 0.264049 0
M  V30 25906 H 2439.39 -1.46412 0.142058 0
M  V30 25907 H 2441.34 -3.58205 -2.13881 0
M  V30 25908 H 2439.97 -2.44108 -2.11213 0
M  V30 25909 H 2439.03 -3.80237 -0.111352 0
M  V30 25910 H 2440.34 -4.97461 -0.365177 0
M  V30 25911 H 2439.49 -5.44634 -2.67317 0
M  V30 25912 H 2438.23 -4.19484 -2.48766 0
M  V30 25913 H 2437.24 -5.46871 -0.566806 0
M  V30 25914 H 2438.46 -6.74671 -0.774365 0
M  V30 25915 H 2436.41 -5.90614 -2.85501 0
M  V30 25916 H 2436.32 -7.32633 -1.86507 0
M  V30 25917 H 2437.59 -7.17579 -3.04468 0
M  V30 25918 N 2441.82 -0.15856 -1.568 0
M  V30 25919 C 2443.07 0.489645 -1.96491 0
M  V30 25920 C 2443.4 1.64108 -1.04397 0
M  V30 25921 O 2442.65 1.95554 -0.0754745 0
M  V30 25922 C 2442.95 1.02617 -3.42351 0
M  V30 25923 C 2442.62 -0.00802452 -4.50899 0
M  V30 25924 C 2441.28 -0.292292 -4.80311 0
M  V30 25925 C 2443.63 -0.710675 -5.16332 0
M  V30 25926 C 2440.96 -1.28482 -5.72459 0
M  V30 25927 C 2443.31 -1.6921 -6.0955 0
M  V30 25928 C 2441.97 -1.98394 -6.37335 0
M  V30 25929 H 2441.24 0.179174 -0.719012 0
M  V30 25930 H 2443.89 -0.247831 -1.8989 0
M  V30 25931 H 2442.2 1.84122 -3.45842 0
M  V30 25932 H 2443.89 1.53649 -3.70396 0
M  V30 25933 H 2440.48 0.223715 -4.28016 0
M  V30 25934 H 2444.67 -0.504261 -4.93732 0
M  V30 25935 H 2439.92 -1.51725 -5.92275 0
M  V30 25936 H 2444.1 -2.242 -6.59323 0
M  V30 25937 H 2441.72 -2.75453 -7.08541 0
M  V30 25938 N 2443.3 1.57178 0.115204 0
M  V30 25939 C 2444.25 1.97046 1.14703 0
M  V30 25940 C 2445.23 0.845981 1.36865 0
M  V30 25941 O 2446.43 1.1097 1.37893 0
M  V30 25942 C 2443.55 2.38152 2.47262 0
M  V30 25943 C 2442.64 3.57241 2.28559 0
M  V30 25944 N 2443.03 4.7281 1.79677 0
M  V30 25945 C 2441.33 3.62947 2.59201 0
M  V30 25946 C 2442.03 5.54824 1.74772 0
M  V30 25947 N 2441.01 4.97421 2.19256 0
M  V30 25948 H 2444.81 2.83858 0.761704 0
M  V30 25949 H 2442.32 1.59158 0.3229 0
M  V30 25950 H 2444.32 2.64932 3.21895 0
M  V30 25951 H 2442.98 1.52707 2.8655 0
M  V30 25952 H 2443.99 4.95953 1.49168 0
M  V30 25953 H 2440.67 2.88118 3.02149 0
M  V30 25954 H 2442.06 6.57534 1.382 0
M  V30 25955 N 2444.78 -0.38549 1.52813 0
M  V30 25956 C 2446.01 -1.14963 1.7166 0
M  V30 25957 C 2446.42 -1.84101 0.436285 0
M  V30 25958 O 2445.76 -1.7365 -0.599282 0
M  V30 25959 C 2445.82 -2.23838 2.81313 0
M  V30 25960 C 2445.48 -1.74637 4.22316 0
M  V30 25961 C 2446.48 -1.2212 5.05354 0
M  V30 25962 C 2444.17 -1.80753 4.68651 0
M  V30 25963 C 2446.16 -0.763727 6.32808 0
M  V30 25964 C 2443.85 -1.34617 5.96089 0
M  V30 25965 C 2444.85 -0.825145 6.77997 0
M  V30 25966 O 2444.53 -0.370528 8.03046 0
M  V30 25967 H 2444.27 -0.350513 0.578028 0
M  V30 25968 H 2446.82 -0.456474 2.00264 0
M  V30 25969 H 2445.05 -2.96588 2.48138 0
M  V30 25970 H 2446.74 -2.85492 2.88529 0
M  V30 25971 H 2447.5 -1.16749 4.70738 0
M  V30 25972 H 2443.38 -2.20249 4.04983 0
M  V30 25973 H 2446.93 -0.356372 6.96689 0
M  V30 25974 H 2442.82 -1.39675 6.30207 0
M  V30 25975 H 2443.59 -0.491685 8.17022 0
M  V30 25976 N 2446.26 -1.43835 -0.644143 0
M  V30 25977 C 2447.21 -1.46138 -1.75007 0
M  V30 25978 C 2448.19 -0.328713 -1.57506 0
M  V30 25979 O 2449.38 -0.573129 -1.67464 0
M  V30 25980 C 2446.51 -1.39591 -3.13639 0
M  V30 25981 C 2445.6 -2.57922 -3.36656 0
M  V30 25982 N 2445.99 -3.83233 -3.30101 0
M  V30 25983 C 2444.29 -2.5284 -3.67407 0
M  V30 25984 C 2444.99 -4.62006 -3.53448 0
M  V30 25985 N 2443.96 -3.92876 -3.75698 0
M  V30 25986 H 2447.76 -2.40886 -1.68378 0
M  V30 25987 H 2445.28 -1.38615 -0.846145 0
M  V30 25988 H 2447.28 -1.39324 -3.92931 0
M  V30 25989 H 2445.94 -0.458706 -3.21444 0
M  V30 25990 H 2446.95 -4.1539 -3.09309 0
M  V30 25991 H 2443.62 -1.67852 -3.82272 0
M  V30 25992 H 2445.01 -5.7103 -3.54083 0
M  V30 25993 N 2447.73 0.883355 -1.30517 0
M  V30 25994 C 2448.96 1.66839 -1.22362 0
M  V30 25995 C 2449.38 1.87592 0.213263 0
M  V30 25996 O 2448.73 1.42456 1.14072 0
M  V30 25997 C 2448.78 3.04386 -1.95017 0
M  V30 25998 O 2448.51 2.84569 -3.33095 0
M  V30 25999 C 2450.01 3.9882 -1.93539 0
M  V30 26000 H 2447.23 0.520567 -0.42338 0
M  V30 26001 H 2449.77 1.10354 -1.72169 0
M  V30 26002 H 2447.93 3.57598 -1.49004 0
M  V30 26003 H 2448.34 3.71839 -3.69913 0
M  V30 26004 H 2449.81 4.92694 -2.48911 0
M  V30 26005 H 2450.29 4.29569 -0.914702 0
M  V30 26006 H 2450.9 3.51542 -2.3937 0
M  V30 26007 N 2449.21 1.13259 1.09591 0
M  V30 26008 C 2450.14 0.830984 2.18213 0
M  V30 26009 C 2451.12 -0.208936 1.68812 0
M  V30 26010 O 2452.31 -0.0682324 1.9408 0
M  V30 26011 C 2449.44 0.294357 3.4605 0
M  V30 26012 C 2448.39 1.26833 4.08775 0
M  V30 26013 C 2447.72 0.591542 5.31418 0
M  V30 26014 C 2449.02 2.62623 4.51472 0
M  V30 26015 H 2450.71 1.73927 2.437 0
M  V30 26016 H 2448.26 0.837695 1.17127 0
M  V30 26017 H 2450.21 0.0710347 4.2134 0
M  V30 26018 H 2448.93 -0.64931 3.20081 0
M  V30 26019 H 2447.59 1.47762 3.35503 0
M  V30 26020 H 2447.24 -0.357544 5.01728 0
M  V30 26021 H 2446.94 1.24133 5.74339 0
M  V30 26022 H 2448.47 0.377462 6.09432 0
M  V30 26023 H 2449.88 2.45672 5.17994 0
M  V30 26024 H 2448.28 3.23761 5.05271 0
M  V30 26025 H 2449.35 3.20412 3.63956 0
M  V30 26026 N 2450.69 -1.27539 0.925834 0
M  V30 26027 C 2452.11 -1.4682 0.625793 0
M  V30 26028 C 2452.31 -1.83816 -0.825474 0
M  V30 26029 O 2451.36 -1.95047 -1.60353 0
M  V30 26030 C 2452.67 -2.5621 1.57406 0
M  V30 26031 C 2454.22 -2.70072 1.58209 0
M  V30 26032 C 2454.7 -3.82619 2.51728 0
M  V30 26033 N 2456.19 -3.8999 2.49924 0
M  V30 26034 C 2456.92 -4.76489 3.18976 0
M  V30 26035 N 2456.42 -5.67489 3.97401 0
M  V30 26036 N 2458.21 -4.70202 3.08004 0
M  V30 26037 H 2450.36 -1.01808 1.86411 0
M  V30 26038 H 2452.63 -0.50828 0.800222 0
M  V30 26039 H 2452.33 -2.35815 2.6093 0
M  V30 26040 H 2452.21 -3.5356 1.31434 0
M  V30 26041 H 2454.59 -2.8985 0.554175 0
M  V30 26042 H 2454.67 -1.73215 1.88229 0
M  V30 26043 H 2454.32 -3.63595 3.54628 0
M  V30 26044 H 2454.25 -4.78899 2.19004 0
M  V30 26045 H 2456.74 -3.24919 1.92966 0
M  V30 26046 H 2457.05 -6.30348 4.47081 0
M  V30 26047 H 2455.4 -5.67291 4.01505 0
M  V30 26048 H 2458.59 -3.98106 2.4623 0
M  V30 26049 H 2458.76 -5.37397 3.62089 0
M  V30 26050 N 2452.17 -0.691135 -1.41637 0
M  V30 26051 C 2453.1 -0.037289 -2.3347 0
M  V30 26052 C 2454.08 0.771921 -1.51576 0
M  V30 26053 O 2455.26 0.725788 -1.80128 0
M  V30 26054 C 2452.39 0.903005 -3.35355 0
M  V30 26055 C 2451.35 0.201213 -4.27527 0
M  V30 26056 C 2450.67 1.25556 -5.1975 0
M  V30 26057 C 2451.97 -0.92978 -5.13958 0
M  V30 26058 H 2453.67 -0.804278 -2.88395 0
M  V30 26059 H 2451.21 -0.388214 -1.38668 0
M  V30 26060 H 2453.17 1.36962 -3.98521 0
M  V30 26061 H 2451.89 1.70161 -2.7877 0
M  V30 26062 H 2450.55 -0.24533 -3.65778 0
M  V30 26063 H 2450.2 2.04658 -4.59483 0
M  V30 26064 H 2449.9 0.791026 -5.82251 0
M  V30 26065 H 2451.42 1.72278 -5.85792 0
M  V30 26066 H 2452.84 -0.543647 -5.70717 0
M  V30 26067 H 2451.23 -1.32113 -5.85377 0
M  V30 26068 H 2452.3 -1.77141 -4.51386 0
M  V30 26069 N 2453.65 1.51461 -0.435577 0
M  V30 26070 C 2454.88 2.0619 0.130017 0
M  V30 26071 C 2455.28 1.3032 1.37162 0
M  V30 26072 O 2454.63 0.35563 1.80225 0
M  V30 26073 C 2454.69 3.55729 0.519356 0
M  V30 26074 C 2454.35 4.5284 -0.615198 0
M  V30 26075 C 2455.35 4.98187 -1.4868 0
M  V30 26076 C 2453.03 4.95962 -0.795428 0
M  V30 26077 C 2455.03 5.85326 -2.52334 0
M  V30 26078 C 2452.72 5.82891 -1.83525 0
M  V30 26079 C 2453.71 6.2747 -2.69759 0
M  V30 26080 O 2453.4 7.12674 -3.71956 0
M  V30 26081 H 2453.13 0.675891 0.0121494 0
M  V30 26082 H 2455.69 1.96042 -0.612935 0
M  V30 26083 H 2453.92 3.63655 1.31499 0
M  V30 26084 H 2455.61 3.92981 1.0159 0
M  V30 26085 H 2456.37 4.65568 -1.35908 0
M  V30 26086 H 2452.25 4.60806 -0.133794 0
M  V30 26087 H 2455.8 6.20043 -3.19676 0
M  V30 26088 H 2451.69 6.14923 -1.96317 0
M  V30 26089 H 2452.46 7.30848 -3.68516 0
M  V30 26090 N 2455.12 0.166873 1.56714 0
M  V30 26091 C 2456.35 -0.488798 2.01558 0
M  V30 26092 C 2456.77 -1.56313 1.04633 0
M  V30 26093 O 2456.13 -1.81283 0.0251623 0
M  V30 26094 C 2456.18 -1.04812 3.45032 0
M  V30 26095 O 2455.28 -2.1623 3.51167 0
M  V30 26096 H 2454.63 -0.117515 0.653518 0
M  V30 26097 H 2457.16 0.269457 2.02818 0
M  V30 26098 H 2457.17 -1.37184 3.84245 0
M  V30 26099 H 2455.84 -0.261499 4.15077 0
M  V30 26100 H 2454.42 -1.84936 3.2381 0
M  V30 26101 N 2456.6 -1.57237 -0.106866 0
M  V30 26102 C 2457.57 -2.00272 -1.11462 0
M  V30 26103 C 2458.57 -0.894542 -1.33621 0
M  V30 26104 O 2459.76 -1.1603 -1.29933 0
M  V30 26105 C 2456.89 -2.35331 -2.46642 0
M  V30 26106 H 2458.08 -2.90513 -0.744465 0
M  V30 26107 H 2455.63 -1.52295 -0.35155 0
M  V30 26108 H 2456.37 -1.48008 -2.88555 0
M  V30 26109 H 2456.15 -3.16165 -2.31909 0
M  V30 26110 H 2457.64 -2.69324 -3.19146 0
M  V30 26111 N 2458.08 0.377381 -1.53015 0
M  V30 26112 C 2459.33 1.12291 -1.68874 0
M  V30 26113 C 2459.66 1.89305 -0.433257 0
M  V30 26114 O 2458.93 1.85984 0.569225 0
M  V30 26115 C 2459.22 2.09173 -2.93119 0
M  V30 26116 C 2459.07 1.35846 -4.28796 0
M  V30 26117 C 2460.39 3.09452 -3.12934 0
M  V30 26118 H 2457.51 0.406851 -0.614525 0
M  V30 26119 H 2460.15 0.404997 -1.85633 0
M  V30 26120 H 2458.3 2.70394 -2.78961 0
M  V30 26121 H 2459.97 0.775002 -4.54743 0
M  V30 26122 H 2458.22 0.660289 -4.28745 0
M  V30 26123 H 2458.89 2.06697 -5.1184 0
M  V30 26124 H 2461.36 2.58328 -3.26199 0
M  V30 26125 H 2460.24 3.74474 -4.01323 0
M  V30 26126 H 2460.5 3.78967 -2.27676 0
M  V30 26127 N 2459.56 1.44175 0.636506 0
M  V30 26128 C 2460.8 1.48192 1.40778 0
M  V30 26129 C 2461.16 0.109473 1.91688 0
M  V30 26130 O 2462.36 0.0243213 2.68789 0
M  V30 26131 C 2460.63 2.50856 2.54571 0
M  V30 26132 S 2462.19 2.73879 3.42835 0
M  V30 26133 H 2459.01 0.524212 0.480336 0
M  V30 26134 H 2461.61 1.8106 0.737384 0
M  V30 26135 H 2460.32 3.49285 2.15472 0
M  V30 26136 H 2459.85 2.19542 3.26443 0
M  V30 26137 H 2461.86 2.05067 4.51843 0
M  V30 26138 N 2461.04 -0.876421 1.30983 0
M  V30 26139 C 2462 -1.96457 1.18057 0
M  V30 26140 C 2463 -1.60427 0.109428 0
M  V30 26141 O 2464.19 -1.70477 0.358203 0
M  V30 26142 C 2461.32 -3.31121 0.810675 0
M  V30 26143 H 2462.51 -2.0935 2.14739 0
M  V30 26144 H 2460.07 -1.0639 1.14502 0
M  V30 26145 H 2460.8 -3.23928 -0.155265 0
M  V30 26146 H 2460.59 -3.58642 1.58487 0
M  V30 26147 H 2462.08 -4.1092 0.743948 0
M  V30 26148 N 2462.51 -1.13839 -1.08989 0
M  V30 26149 C 2463.44 -0.842545 -2.17769 0
M  V30 26150 C 2464.43 0.199981 -1.6892 0
M  V30 26151 O 2465.61 0.0579389 -1.94114 0
M  V30 26152 C 2462.74 -0.312705 -3.45889 0
M  V30 26153 C 2461.69 -1.28999 -4.08097 0
M  V30 26154 C 2461.02 -0.619716 -5.31097 0
M  V30 26155 C 2462.32 -2.65013 -4.50073 0
M  V30 26156 H 2464.01 -1.75217 -2.42774 0
M  V30 26157 H 2461.56 -0.843895 -1.16681 0
M  V30 26158 H 2463.51 -0.0933784 -4.21297 0
M  V30 26159 H 2462.24 0.632326 -3.2042 0
M  V30 26160 H 2460.9 -1.49539 -3.34714 0
M  V30 26161 H 2460.54 0.330931 -5.0191 0
M  V30 26162 H 2460.24 -1.27177 -5.73672 0
M  V30 26163 H 2461.77 -0.409776 -6.09223 0
M  V30 26164 H 2463.18 -2.48416 -5.16684 0
M  V30 26165 H 2461.58 -3.26436 -5.03547 0
M  V30 26166 H 2462.65 -3.22338 -3.62252 0
M  V30 26167 N 2463.99 1.27046 -0.932584 0
M  V30 26168 C 2465.24 1.93764 -0.574456 0
M  V30 26169 C 2465.56 1.73609 0.887963 0
M  V30 26170 O 2464.83 1.08668 1.62997 0
M  V30 26171 H 2463.41 0.717031 -0.209463 0
M  V30 26172 H 2466.07 1.54658 -1.18604 0
M  V30 26173 H 2465.17 3.02069 -0.784894 0
M  V30 26174 N 2465.47 0.698636 1.41269 0
M  V30 26175 C 2466.42 0.0238959 2.32588 0
M  V30 26176 C 2467.41 -0.765265 1.51129 0
M  V30 26177 O 2468.62 -0.670542 1.67044 0
M  V30 26178 H 2464.99 -0.0110739 0.751918 0
M  V30 26179 H 2466.96 0.811082 2.87166 0
M  V30 26180 C 2465.71 -0.89631 3.35949 0
M  V30 26181 H 2465.04 -0.298478 3.98684 0
M  V30 26182 H 2466.48 -1.33669 4.02379 0
M  V30 26183 C 2464.94 -2.01391 2.7008 0
M  V30 26184 O 2465.47 -3.10302 2.55099 0
M  V30 26185 N 2463.67 -1.79255 2.28727 0
M  V30 26186 H 2463.22 -0.906799 2.41112 0
M  V30 26187 H 2463.18 -2.54216 1.84991 0
M  V30 26188 N 2466.95 -1.51228 0.443603 0
M  V30 26189 C 2467.9 -2.24764 -0.382747 0
M  V30 26190 C 2468.88 -1.27241 -0.984814 0
M  V30 26191 O 2470.07 -1.52297 -0.901916 0
M  V30 26192 C 2467.2 -3.09767 -1.47984 0
M  V30 26193 C 2466.29 -4.14724 -0.886858 0
M  V30 26194 N 2466.68 -5.05794 -0.0236214 0
M  V30 26195 C 2464.98 -4.30818 -1.15378 0
M  V30 26196 C 2465.68 -5.80873 0.310073 0
M  V30 26197 N 2464.66 -5.42727 -0.307894 0
M  V30 26198 H 2468.46 -2.92537 0.282676 0
M  V30 26199 H 2465.97 -1.60369 0.256055 0
M  V30 26200 H 2467.97 -3.61031 -2.08476 0
M  V30 26201 H 2466.63 -2.43539 -2.14753 0
M  V30 26202 H 2467.64 -5.16761 0.343271 0
M  V30 26203 H 2464.32 -3.75815 -1.8185 0
M  V30 26204 H 2465.71 -6.64221 1.01291 0
M  V30 26205 N 2468.43 -0.175182 -1.56623 0
M  V30 26206 C 2469.84 0.180938 -1.58571 0
M  V30 26207 C 2470.04 1.62558 -1.19068 0
M  V30 26208 O 2469.1 2.3576 -0.904086 0
M  V30 26209 C 2470.41 -0.103379 -3.00522 0
M  V30 26210 C 2471.96 -0.0418976 -3.12972 0
M  V30 26211 C 2472.43 -0.299255 -4.57021 0
M  V30 26212 N 2473.93 -0.247167 -4.6254 0
M  V30 26213 C 2474.66 -0.420419 -5.71857 0
M  V30 26214 N 2474.16 -0.652937 -6.89716 0
M  V30 26215 N 2475.95 -0.356055 -5.60971 0
M  V30 26216 H 2468.1 -1.11812 -1.80588 0
M  V30 26217 H 2470.36 -0.444803 -0.83717 0
M  V30 26218 H 2470.07 -1.10428 -3.33914 0
M  V30 26219 H 2469.94 0.603234 -3.72345 0
M  V30 26220 H 2472.33 0.949587 -2.79404 0
M  V30 26221 H 2472.41 -0.781281 -2.43577 0
M  V30 26222 H 2472.06 -1.28797 -4.91298 0
M  V30 26223 H 2471.99 0.460784 -5.2458 0
M  V30 26224 H 2474.48 -0.0732559 -3.77829 0
M  V30 26225 H 2474.79 -0.774482 -7.68909 0
M  V30 26226 H 2473.13 -0.689598 -6.9157 0
M  V30 26227 H 2476.33 -0.174964 -4.67773 0
M  V30 26228 H 2476.5 -0.494501 -6.4611 0
M  V30 26229 N 2469.91 1.57292 0.0985263 0
M  V30 26230 C 2471.15 1.86189 0.803834 0
M  V30 26231 C 2471.48 0.763826 1.78548 0
M  V30 26232 O 2470.76 -0.228516 1.93153 0
M  V30 26233 C 2471.04 3.25716 1.53562 0
M  V30 26234 C 2470.9 4.46146 0.572199 0
M  V30 26235 C 2472.21 3.63092 2.48702 0
M  V30 26236 H 2469.33 0.677216 0.290769 0
M  V30 26237 H 2471.98 1.8988 0.067545 0
M  V30 26238 H 2470.13 3.227 2.16326 0
M  V30 26239 H 2471.8 4.61275 -0.0481705 0
M  V30 26240 H 2470.04 4.33648 -0.114694 0
M  V30 26241 H 2470.71 5.40491 1.1213 0
M  V30 26242 H 2473.19 3.67029 1.96032 0
M  V30 26243 H 2472.06 4.61658 2.96923 0
M  V30 26244 H 2472.32 2.91593 3.32304 0
M  V30 26245 N 2471.38 -0.369261 1.53213 0
M  V30 26246 C 2472.35 -1.43495 1.78723 0
M  V30 26247 C 2473.35 -1.4674 0.65758 0
M  V30 26248 O 2474.54 -1.47565 0.925762 0
M  V30 26249 C 2471.67 -2.82641 1.90596 0
M  V30 26250 H 2472.86 -1.22151 2.73896 0
M  V30 26251 H 2470.41 -0.602178 1.44234 0
M  V30 26252 H 2471.15 -3.09304 0.974764 0
M  V30 26253 H 2470.93 -2.81685 2.72756 0
M  V30 26254 H 2472.42 -3.59823 2.11937 0
M  V30 26255 N 2472.86 -1.4451 -0.628851 0
M  V30 26256 C 2473.81 -1.47986 -1.73448 0
M  V30 26257 C 2474.8 -0.3454 -1.57149 0
M  V30 26258 O 2475.99 -0.590859 -1.66847 0
M  V30 26259 C 2473.12 -1.42909 -3.12141 0
M  V30 26260 C 2472.2 -2.61478 -3.33901 0
M  V30 26261 N 2472.59 -3.86712 -3.26017 0
M  V30 26262 C 2470.89 -2.56723 -3.64705 0
M  V30 26263 C 2471.59 -4.65728 -3.48528 0
M  V30 26264 N 2470.57 -3.96839 -3.7151 0
M  V30 26265 H 2474.37 -2.42658 -1.65814 0
M  V30 26266 H 2471.88 -1.39505 -0.831395 0
M  V30 26267 H 2473.88 -1.43483 -3.91431 0
M  V30 26268 H 2472.54 -0.492774 -3.20939 0
M  V30 26269 H 2473.55 -4.18647 -3.04886 0
M  V30 26270 H 2470.23 -1.71897 -3.8047 0
M  V30 26271 H 2471.62 -5.74753 -3.48006 0
M  V30 26272 N 2474.34 0.869463 -1.31446 0
M  V30 26273 C 2475.3 1.95828 -1.19097 0
M  V30 26274 C 2476.3 1.60367 -0.117934 0
M  V30 26275 O 2477.49 1.70285 -0.367238 0
M  V30 26276 C 2474.62 3.30686 -0.828223 0
M  V30 26277 H 2475.82 2.08208 -2.15846 0
M  V30 26278 H 2473.37 1.05782 -1.15065 0
M  V30 26279 H 2474.11 3.24006 0.138085 0
M  V30 26280 H 2473.89 3.57797 -1.60387 0
M  V30 26281 H 2475.38 4.1052 -0.76573 0
M  V30 26282 N 2475.82 1.14415 1.08383 0
M  V30 26283 C 2476.75 0.854082 2.17319 0
M  V30 26284 C 2477.73 -0.19102 1.69024 0
M  V30 26285 O 2478.91 -0.0476438 1.94142 0
M  V30 26286 C 2476.04 0.331044 3.45719 0
M  V30 26287 C 2475 1.31162 4.07407 0
M  V30 26288 C 2474.32 0.647873 5.3076 0
M  V30 26289 C 2475.62 2.67396 4.48661 0
M  V30 26290 H 2477.32 1.76502 2.41842 0
M  V30 26291 H 2474.86 0.850071 1.16232 0
M  V30 26292 H 2476.82 0.115719 4.21241 0
M  V30 26293 H 2475.54 -0.615324 3.20751 0
M  V30 26294 H 2474.2 1.51312 3.33917 0
M  V30 26295 H 2473.85 -0.304309 5.02079 0
M  V30 26296 H 2473.55 1.30217 5.7299 0
M  V30 26297 H 2475.07 0.442079 6.08998 0
M  V30 26298 H 2476.49 2.51153 5.15359 0
M  V30 26299 H 2474.88 3.29102 5.01809 0
M  V30 26300 H 2475.95 3.24254 3.60537 0
M  V30 26301 N 2477.3 -1.26549 0.939309 0
M  V30 26302 C 2478.54 -1.95599 0.593334 0
M  V30 26303 C 2478.9 -1.72086 -0.851485 0
M  V30 26304 O 2480.1 -2.34924 -1.3063 0
M  V30 26305 C 2478.37 -3.45248 0.924056 0
M  V30 26306 S 2479.93 -4.33367 0.688345 0
M  V30 26307 H 2476.75 -0.67656 0.218603 0
M  V30 26308 H 2479.35 -1.53538 1.21022 0
M  V30 26309 H 2478.05 -3.5986 1.97304 0
M  V30 26310 H 2477.59 -3.92279 0.296815 0
M  V30 26311 H 2479.6 -4.9417 -0.448347 0
M  V30 26312 N 2478.77 -0.706118 -1.40896 0
M  V30 26313 C 2480 -0.249471 -2.05894 0
M  V30 26314 C 2480.42 1.09663 -1.52825 0
M  V30 26315 O 2479.78 1.68875 -0.659618 0
M  V30 26316 C 2479.83 -0.229104 -3.59871 0
M  V30 26317 O 2478.93 0.792713 -4.0471 0
M  V30 26318 H 2478.27 -0.119252 -0.653204 0
M  V30 26319 H 2480.8 -0.963942 -1.8047 0
M  V30 26320 H 2480.81 -0.0635509 -4.07951 0
M  V30 26321 H 2479.49 -1.21148 -3.97864 0
M  V30 26322 H 2478.07 0.595655 -3.68112 0
M  V30 26323 N 2480.25 1.50991 -0.451617 0
M  V30 26324 C 2481.2 2.24964 0.370822 0
M  V30 26325 C 2482.19 1.27761 0.978052 0
M  V30 26326 O 2483.38 1.52773 0.893827 0
M  V30 26327 C 2480.51 3.10548 1.46339 0
M  V30 26328 C 2479.59 4.15188 0.864852 0
M  V30 26329 N 2479.98 5.058 -0.00320245 0
M  V30 26330 C 2478.28 4.31424 1.13091 0
M  V30 26331 C 2478.98 5.807 -0.340874 0
M  V30 26332 N 2477.96 5.42883 0.279107 0
M  V30 26333 H 2481.76 2.92383 -0.298186 0
M  V30 26334 H 2479.27 1.60231 -0.264556 0
M  V30 26335 H 2481.27 3.62132 2.06558 0
M  V30 26336 H 2479.93 2.44674 2.13459 0
M  V30 26337 H 2480.94 5.16572 -0.370671 0
M  V30 26338 H 2477.62 3.76774 1.79854 0
M  V30 26339 H 2479.01 6.63675 -1.04812 0
M  V30 26340 N 2481.73 0.183486 1.56528 0
M  V30 26341 C 2482.98 -0.459002 1.97537 0
M  V30 26342 C 2483.31 -1.62069 1.06992 0
M  V30 26343 O 2482.58 -1.94132 0.119515 0
M  V30 26344 C 2482.87 -0.930307 3.47875 0
M  V30 26345 C 2482.72 0.232396 4.49199 0
M  V30 26346 C 2484.04 -1.79982 4.01615 0
M  V30 26347 H 2481.16 -0.165371 0.718207 0
M  V30 26348 H 2483.8 0.272072 1.88042 0
M  V30 26349 H 2481.95 -1.55327 3.56098 0
M  V30 26350 H 2483.62 0.869799 4.53026 0
M  V30 26351 H 2481.86 0.886002 4.24656 0
M  V30 26352 H 2482.54 -0.139699 5.51823 0
M  V30 26353 H 2485.01 -1.27454 3.96099 0
M  V30 26354 H 2483.89 -2.09858 5.07199 0
M  V30 26355 H 2484.15 -2.74992 3.46167 0
M  V30 26356 N 2483.21 -1.57342 -0.0901833 0
M  V30 26357 C 2484.48 -1.77363 -0.82473 0
M  V30 26358 C 2484.86 -0.766404 -1.96696 0
M  V30 26359 O 2484.21 0.204139 -2.27586 0
M  V30 26360 C 2484.42 -3.23288 -1.31476 0
M  V30 26361 C 2485.77 -3.86607 -1.75556 0
M  V30 26362 O 2486.79 -3.27067 -1.41087 0
M  V30 26363 O 2485.65 -4.91318 -2.39309 0
M  V30 26364 H 2482.75 -0.727241 -0.393764 0
M  V30 26365 H 2485.29 -1.69549 -0.071684 0
M  V30 26366 H 2484.07 -3.88136 -0.496603 0
M  V30 26367 H 2483.69 -3.35754 -2.12967 0
M  V30 26368 N 2484.69 0.36113 -1.53407 0
M  V30 26369 C 2485.6 1.46637 -1.83125 0
M  V30 26370 C 2486.61 1.58406 -0.719971 0
M  V30 26371 O 2487.79 1.74216 -1.01049 0
M  V30 26372 C 2484.85 2.81849 -2.01896 0
M  V30 26373 C 2483.91 2.79571 -3.25789 0
M  V30 26374 C 2483.15 4.08334 -3.43655 0
M  V30 26375 O 2483.37 5.04725 -2.65723 0
M  V30 26376 O 2482.3 4.13875 -4.37025 0
M  V30 26377 H 2486.13 1.24446 -2.77032 0
M  V30 26378 H 2483.72 0.551654 -1.38842 0
M  V30 26379 H 2485.6 3.61958 -2.15788 0
M  V30 26380 H 2484.27 3.04008 -1.11178 0
M  V30 26381 H 2483.18 1.98145 -3.17316 0
M  V30 26382 H 2484.51 2.62366 -4.16443 0
M  V30 26383 N 2486.16 1.44842 0.621179 0
M  V30 26384 C 2487.58 1.42779 1.20296 0
M  V30 26385 C 2487.93 0.148293 1.95639 0
M  V30 26386 O 2487.05 -0.750857 2.02956 0
M  V30 26387 C 2487.65 2.58661 2.18815 0
M  V30 26388 C 2486.21 2.59761 2.72399 0
M  V30 26389 C 2485.35 2.34776 1.47566 0
M  V30 26390 H 2488.3 1.53278 0.41127 0
M  V30 26391 H 2488.32 2.31983 3.01603 0
M  V30 26392 H 2487.84 3.51769 1.63951 0
M  V30 26393 H 2485.94 1.70621 3.31239 0
M  V30 26394 H 2486.05 3.58561 3.17759 0
M  V30 26395 H 2484.41 1.84064 1.76047 0
M  V30 26396 H 2485.2 3.30012 0.945896 0
M  V30 26397 N 2487.64 -0.862479 1.31905 0
M  V30 26398 C 2488.57 -1.97673 1.16009 0
M  V30 26399 C 2489.59 -1.6251 0.0971519 0
M  V30 26400 O 2490.78 -1.75127 0.345367 0
M  V30 26401 C 2487.88 -3.30455 0.751849 0
M  V30 26402 C 2487.05 -3.93911 1.9014 0
M  V30 26403 C 2486.11 -5.05017 1.47799 0
M  V30 26404 O 2485.13 -5.25433 2.18881 0
M  V30 26405 N 2486.34 -5.79322 0.369593 0
M  V30 26406 H 2489.1 -2.11854 2.11986 0
M  V30 26407 H 2486.66 -1.03689 1.24339 0
M  V30 26408 H 2488.65 -4.02177 0.451155 0
M  V30 26409 H 2487.22 -3.12383 -0.116538 0
M  V30 26410 H 2486.44 -3.15074 2.36901 0
M  V30 26411 H 2487.73 -4.33042 2.67118 0
M  V30 26412 H 2487.13 -5.65263 -0.2222 0
M  V30 26413 H 2485.69 -6.51673 0.128469 0
M  V30 26414 N 2489.12 -1.14988 -1.07775 0
M  V30 26415 C 2490.05 -0.865595 -2.16863 0
M  V30 26416 C 2491.03 0.182053 -1.69123 0
M  V30 26417 O 2492.22 0.0373473 -1.94164 0
M  V30 26418 C 2489.35 -0.349373 -3.45538 0
M  V30 26419 C 2488.3 -1.3332 -4.06706 0
M  V30 26420 C 2487.63 -0.676011 -5.30409 0
M  V30 26421 C 2488.93 -2.69772 -4.47236 0
M  V30 26422 H 2490.62 -1.77782 -2.40902 0
M  V30 26423 H 2488.17 -0.856223 -1.15779 0
M  V30 26424 H 2490.12 -0.138057 -4.21174 0
M  V30 26425 H 2488.84 0.598306 -3.21073 0
M  V30 26426 H 2487.5 -1.53081 -3.33109 0
M  V30 26427 H 2487.15 0.277679 -5.02233 0
M  V30 26428 H 2486.85 -1.33254 -5.72291 0
M  V30 26429 H 2488.37 -0.474369 -6.08755 0
M  V30 26430 H 2489.79 -2.53882 -5.1402 0
M  V30 26431 H 2488.19 -3.31759 -5.00056 0
M  V30 26432 H 2489.26 -3.26162 -3.58812 0
M  V30 26433 N 2490.6 1.26049 -0.946007 0
M  V30 26434 C 2491.53 2.28572 -0.477212 0
M  V30 26435 C 2492.51 1.6342 0.472003 0
M  V30 26436 O 2493.69 1.90588 0.372819 0
M  V30 26437 C 2490.82 3.46371 0.253914 0
M  V30 26438 C 2489.78 4.23642 -0.60921 0
M  V30 26439 C 2489.1 5.34105 0.252158 0
M  V30 26440 C 2490.4 4.87176 -1.88299 0
M  V30 26441 H 2492.1 2.68035 -1.33407 0
M  V30 26442 H 2489.64 1.28851 -0.642926 0
M  V30 26443 H 2491.6 4.17208 0.592942 0
M  V30 26444 H 2490.32 3.05873 1.14495 0
M  V30 26445 H 2488.98 3.54576 -0.9312 0
M  V30 26446 H 2488.63 4.89848 1.14269 0
M  V30 26447 H 2488.33 5.86717 -0.321983 0
M  V30 26448 H 2489.85 6.07778 0.586347 0
M  V30 26449 H 2491.27 5.50202 -1.61091 0
M  V30 26450 H 2489.66 5.49927 -2.40209 0
M  V30 26451 H 2490.73 4.09846 -2.59141 0
M  V30 26452 N 2492.08 0.71358 1.4052 0
M  V30 26453 C 2493.31 0.261431 2.04939 0
M  V30 26454 C 2493.71 -1.10104 1.53863 0
M  V30 26455 O 2493.06 -1.70275 0.689351 0
M  V30 26456 C 2493.12 0.16129 3.59138 0
M  V30 26457 C 2492.78 1.45872 4.33094 0
M  V30 26458 C 2493.78 2.40024 4.61177 0
M  V30 26459 C 2491.47 1.71709 4.7204 0
M  V30 26460 C 2493.46 3.5826 5.27189 0
M  V30 26461 C 2491.15 2.90227 5.37784 0
M  V30 26462 C 2492.14 3.83325 5.65288 0
M  V30 26463 O 2491.83 4.99765 6.29675 0
M  V30 26464 H 2491.56 0.11562 0.666039 0
M  V30 26465 H 2494.12 0.971881 1.80952 0
M  V30 26466 H 2492.35 -0.605086 3.81937 0
M  V30 26467 H 2494.04 -0.256034 4.05092 0
M  V30 26468 H 2494.8 2.21326 4.31555 0
M  V30 26469 H 2490.68 1.001 4.50001 0
M  V30 26470 H 2494.23 4.30943 5.48574 0
M  V30 26471 H 2490.12 3.08835 5.66826 0
M  V30 26472 H 2490.89 4.99816 6.48171 0
M  V30 26473 N 2493.55 -1.50749 0.459618 0
M  V30 26474 C 2494.52 -2.26826 -0.329053 0
M  V30 26475 C 2495.52 -1.31145 -0.930458 0
M  V30 26476 O 2496.71 -1.5467 -0.801426 0
M  V30 26477 C 2493.84 -3.07691 -1.46763 0
M  V30 26478 H 2495.03 -2.97989 0.337977 0
M  V30 26479 H 2492.59 -1.54837 0.213363 0
M  V30 26480 H 2493.32 -2.40996 -2.17005 0
M  V30 26481 H 2493.11 -3.77992 -1.04231 0
M  V30 26482 H 2494.6 -3.65258 -2.02427 0
M  V30 26483 N 2495.03 -0.191784 -1.56429 0
M  V30 26484 C 2496.28 0.448053 -1.96661 0
M  V30 26485 C 2496.59 1.62989 -1.08139 0
M  V30 26486 O 2497.8 2.3373 -1.38139 0
M  V30 26487 C 2496.26 0.848524 -3.49754 0
M  V30 26488 C 2495.86 -0.308842 -4.46934 0
M  V30 26489 C 2497.61 1.45563 -3.98763 0
M  V30 26490 C 2495.52 0.112402 -5.91293 0
M  V30 26491 H 2494.45 0.171166 -0.734315 0
M  V30 26492 H 2497.1 -0.283274 -1.813 0
M  V30 26493 H 2495.48 1.63642 -3.60607 0
M  V30 26494 H 2496.65 -1.08635 -4.47811 0
M  V30 26495 H 2494.97 -0.827229 -4.081 0
M  V30 26496 H 2497.56 1.78319 -5.0409 0
M  V30 26497 H 2497.91 2.36093 -3.42879 0
M  V30 26498 H 2498.44 0.731768 -3.91012 0
M  V30 26499 H 2495.18 -0.758629 -6.51095 0
M  V30 26500 H 2494.7 0.854837 -5.93677 0
M  V30 26501 H 2496.38 0.549335 -6.44664 0
M  V30 26502 N 2496.51 1.57387 0.0818378 0
M  V30 26503 C 2497.42 2.06335 1.11639 0
M  V30 26504 C 2498.44 0.990856 1.43032 0
M  V30 26505 O 2499.61 1.3049 1.53409 0
M  V30 26506 C 2496.68 2.48911 2.41338 0
M  V30 26507 C 2495.74 3.70414 2.17007 0
M  V30 26508 C 2494.97 4.1095 3.40522 0
M  V30 26509 O 2495.19 3.51452 4.49263 0
M  V30 26510 O 2494.13 5.03813 3.29327 0
M  V30 26511 H 2497.95 2.94781 0.730605 0
M  V30 26512 H 2495.54 1.46453 0.295276 0
M  V30 26513 H 2497.42 2.76864 3.17686 0
M  V30 26514 H 2496.1 1.63598 2.79316 0
M  V30 26515 H 2495 3.47559 1.38397 0
M  V30 26516 H 2496.34 4.56548 1.83915 0
M  V30 26517 N 2497.99 -0.35299 1.53596 0
M  V30 26518 C 2498.94 -1.45332 1.81608 0
M  V30 26519 C 2499.93 -1.54891 0.685951 0
M  V30 26520 O 2501.14 -1.57627 0.869123 0
M  V30 26521 H 2497.51 -0.484391 0.575212 0
M  V30 26522 H 2499.48 -1.18916 2.73681 0
M  V30 26523 C 2498.23 -2.81992 2.03411 0
M  V30 26524 H 2497.55 -2.754 2.89818 0
M  V30 26525 H 2498.99 -3.58128 2.26981 0
M  V30 26526 C 2497.45 -3.26847 0.816851 0
M  V30 26527 O 2497.98 -4.01698 0.0116562 0
M  V30 26528 N 2496.19 -2.83538 0.636732 0
M  V30 26529 H 2495.74 -2.22791 1.29313 0
M  V30 26530 H 2495.69 -3.13905 -0.17628 0
M  V30 26531 N 2499.47 -1.45169 -0.613489 0
M  V30 26532 C 2500.41 -1.5339 -1.72454 0
M  V30 26533 C 2501.38 -0.38022 -1.6169 0
M  V30 26534 O 2502.57 -0.592868 -1.81355 0
M  V30 26535 C 2499.71 -1.50094 -3.10751 0
M  V30 26536 C 2498.82 -2.75968 -3.32363 0
M  V30 26537 C 2497.96 -2.64384 -4.60732 0
M  V30 26538 C 2497 -3.8534 -4.75583 0
M  V30 26539 N 2496.13 -3.72326 -5.95246 0
M  V30 26540 H 2500.97 -2.48308 -1.64764 0
M  V30 26541 H 2498.51 -1.23218 -0.803481 0
M  V30 26542 H 2500.47 -1.46171 -3.90755 0
M  V30 26543 H 2499.1 -0.587299 -3.17412 0
M  V30 26544 H 2498.15 -2.90003 -2.46175 0
M  V30 26545 H 2499.46 -3.65701 -3.39212 0
M  V30 26546 H 2498.62 -2.58394 -5.48924 0
M  V30 26547 H 2497.36 -1.72241 -4.56272 0
M  V30 26548 H 2496.36 -3.91695 -3.85817 0
M  V30 26549 H 2497.59 -4.78541 -4.81845 0
M  V30 26550 H 2495.53 -2.82948 -5.91842 0
M  V30 26551 H 2495.45 -4.55688 -6.03228 0
M  V30 26552 H 2496.72 -3.70258 -6.85951 0
M  V30 26553 N 2500.95 0.855472 -1.32361 0
M  V30 26554 C 2502.18 1.63968 -1.25691 0
M  V30 26555 C 2502.58 1.88365 0.177559 0
M  V30 26556 O 2501.93 1.45236 1.12482 0
M  V30 26557 C 2501.99 3.02272 -1.94607 0
M  V30 26558 C 2501.65 3.0092 -3.43942 0
M  V30 26559 C 2502.65 2.77828 -4.3944 0
M  V30 26560 C 2500.33 3.21581 -3.85864 0
M  V30 26561 C 2502.33 2.75399 -5.74834 0
M  V30 26562 C 2500.02 3.18779 -5.21366 0
M  V30 26563 C 2501.01 2.95717 -6.15663 0
M  V30 26564 O 2500.7 2.92787 -7.48686 0
M  V30 26565 H 2500.43 0.517462 -0.434981 0
M  V30 26566 H 2502.99 1.07497 -1.75025 0
M  V30 26567 H 2501.22 3.60529 -1.39842 0
M  V30 26568 H 2502.91 3.62981 -1.81657 0
M  V30 26569 H 2503.67 2.61633 -4.08379 0
M  V30 26570 H 2499.55 3.38558 -3.12889 0
M  V30 26571 H 2503.1 2.57317 -6.48409 0
M  V30 26572 H 2498.99 3.34519 -5.52058 0
M  V30 26573 H 2499.76 3.08746 -7.58036 0
M  V30 26574 N 2502.42 1.15558 1.07164 0
M  V30 26575 C 2503.36 0.79763 2.13806 0
M  V30 26576 C 2504.33 -0.226783 1.61011 0
M  V30 26577 O 2505.52 -0.112899 1.88162 0
M  V30 26578 C 2502.65 0.18643 3.38187 0
M  V30 26579 C 2501.69 1.18304 4.09764 0
M  V30 26580 S 2502.52 2.72592 4.60927 0
M  V30 26581 C 2503.68 2.12897 5.8858 0
M  V30 26582 H 2503.91 1.70087 2.4384 0
M  V30 26583 H 2501.45 0.978127 1.19466 0
M  V30 26584 H 2503.4 -0.159764 4.10189 0
M  V30 26585 H 2502.07 -0.694435 3.06327 0
M  V30 26586 H 2501.26 0.70365 4.99064 0
M  V30 26587 H 2500.86 1.47387 3.43734 0
M  V30 26588 H 2503.15 1.49219 6.60863 0
M  V30 26589 H 2504.1 3.00371 6.41235 0
M  V30 26590 H 2504.5 1.57126 5.42192 0
M  V30 26591 N 2503.9 -1.25546 0.952678 0
M  V30 26592 C 2505.31 -1.75115 0.647423 0
M  V30 26593 C 2505.66 -1.77439 -0.837243 0
M  V30 26594 O 2504.79 -1.39396 -1.65523 0
M  V30 26595 C 2505.38 -3.18012 1.1685 0
M  V30 26596 C 2503.94 -3.65148 0.913446 0
M  V30 26597 C 2503.09 -2.44262 1.31269 0
M  V30 26598 H 2506.04 -1.1146 1.1297 0
M  V30 26599 H 2506.06 -3.76823 0.527672 0
M  V30 26600 H 2505.57 -3.16288 2.24908 0
M  V30 26601 H 2503.67 -3.72289 -0.15225 0
M  V30 26602 H 2503.79 -4.53384 1.54853 0
M  V30 26603 H 2502.15 -2.43982 0.731071 0
M  V30 26604 H 2502.93 -2.4523 2.40244 0
M  V30 26605 N 2505.38 -0.721022 -1.40139 0
M  V30 26606 C 2506.63 -0.262358 -2.0039 0
M  V30 26607 C 2506.95 1.15012 -1.57471 0
M  V30 26608 O 2506.22 1.78068 -0.816614 0
M  V30 26609 H 2504.8 -0.094009 -0.741061 0
M  V30 26610 H 2507.46 -0.927866 -1.71396 0
M  V30 26611 H 2506.56 -0.299726 -3.10657 0
M  V30 26612 N 2506.86 1.50503 -0.467606 0
M  V30 26613 C 2507.79 2.3132 0.318341 0
M  V30 26614 C 2508.77 1.38068 0.99354 0
M  V30 26615 O 2509.95 1.66989 0.991381 0
M  V30 26616 C 2507.08 3.17713 1.40269 0
M  V30 26617 C 2506.04 4.19489 0.849299 0
M  V30 26618 C 2505.36 4.94598 2.03168 0
M  V30 26619 C 2506.66 5.2212 -0.137034 0
M  V30 26620 H 2508.36 2.97274 -0.356158 0
M  V30 26621 H 2505.9 1.4296 -0.172728 0
M  V30 26622 H 2507.86 3.73045 1.95998 0
M  V30 26623 H 2506.58 2.49637 2.10591 0
M  V30 26624 H 2505.24 3.65253 0.314012 0
M  V30 26625 H 2504.89 4.22998 2.7218 0
M  V30 26626 H 2504.59 5.63439 1.66764 0
M  V30 26627 H 2506.11 5.52763 2.59394 0
M  V30 26628 H 2507.53 5.72344 0.330956 0
M  V30 26629 H 2505.92 5.98662 -0.415175 0
M  V30 26630 H 2506.99 4.73081 -1.06406 0
M  V30 26631 N 2508.34 0.200077 1.56325 0
M  V30 26632 C 2509.27 -0.713877 2.2232 0
M  V30 26633 C 2510.25 -1.2175 1.1879 0
M  V30 26634 O 2511.43 -1.26543 1.47311 0
M  V30 26635 C 2508.56 -1.93139 2.88643 0
M  V30 26636 C 2507.52 -1.56248 3.9846 0
M  V30 26637 C 2506.84 -2.85701 4.51972 0
M  V30 26638 C 2508.14 -0.768656 5.16613 0
M  V30 26639 H 2509.84 -0.163702 2.98952 0
M  V30 26640 H 2507.38 -0.0772966 1.43792 0
M  V30 26641 H 2509.33 -2.57602 3.33495 0
M  V30 26642 H 2508.06 -2.50618 2.09424 0
M  V30 26643 H 2506.72 -0.941409 3.54306 0
M  V30 26644 H 2506.37 -3.4128 3.69509 0
M  V30 26645 H 2506.07 -2.61761 5.26075 0
M  V30 26646 H 2507.59 -3.51145 4.99529 0
M  V30 26647 H 2509 -1.3165 5.57979 0
M  V30 26648 H 2507.4 -0.627181 5.96814 0
M  V30 26649 H 2508.47 0.229253 4.84358 0
M  V30 26650 N 2509.81 -1.57429 -0.0734901 0
M  V30 26651 C 2511.23 -1.53747 -0.428237 0
M  V30 26652 C 2511.43 -0.920011 -1.79271 0
M  V30 26653 O 2510.49 -0.521788 -2.4705 0
M  V30 26654 C 2511.8 -2.98404 -0.370862 0
M  V30 26655 C 2513.35 -3.09731 -0.45117 0
M  V30 26656 C 2513.82 -4.56036 -0.42372 0
M  V30 26657 N 2515.31 -4.60666 -0.483844 0
M  V30 26658 C 2516.05 -5.71347 -0.48479 0
M  V30 26659 N 2515.54 -6.91397 -0.440653 0
M  V30 26660 N 2517.34 -5.59584 -0.531221 0
M  V30 26661 H 2509.49 -1.95934 0.819983 0
M  V30 26662 H 2511.75 -0.89674 0.307509 0
M  V30 26663 H 2511.46 -3.47132 0.565017 0
M  V30 26664 H 2511.33 -3.58212 -1.1817 0
M  V30 26665 H 2513.72 -2.60978 -1.37747 0
M  V30 26666 H 2513.8 -2.52837 0.388211 0
M  V30 26667 H 2513.44 -5.05445 0.498727 0
M  V30 26668 H 2513.37 -5.10791 -1.28061 0
M  V30 26669 H 2515.86 -3.74274 -0.522272 0
M  V30 26670 H 2516.18 -7.71516 -0.445254 0
M  V30 26671 H 2514.52 -6.93805 -0.407368 0
M  V30 26672 H 2517.71 -4.64697 -0.563383 0
M  V30 26673 H 2517.89 -6.45841 -0.528489 0
M  V30 26674 N 2511.29 0.344839 -1.53781 0
M  V30 26675 C 2512.25 1.40633 -1.80983 0
M  V30 26676 C 2513.25 1.45675 -0.680842 0
M  V30 26677 O 2514.44 1.46073 -0.949121 0
M  V30 26678 C 2511.58 2.79573 -1.95068 0
M  V30 26679 H 2512.77 1.17778 -2.75805 0
M  V30 26680 H 2510.32 0.579155 -1.45174 0
M  V30 26681 H 2511.06 3.07714 -1.02385 0
M  V30 26682 H 2510.84 2.7731 -2.77203 0
M  V30 26683 H 2512.33 3.56405 -2.17635 0
M  V30 26684 N 2512.77 1.45492 0.605781 0
M  V30 26685 C 2514.02 1.49308 1.36204 0
M  V30 26686 C 2514.34 0.136897 1.94519 0
M  V30 26687 O 2513.61 -0.833952 1.77263 0
M  V30 26688 H 2512.19 0.549852 0.50564 0
M  V30 26689 H 2514.85 1.8146 0.711208 0
M  V30 26690 H 2513.95 2.2329 2.18055 0
M  V30 26691 N 2514.25 -0.848441 1.32813 0
M  V30 26692 C 2515.48 -1.63299 1.26559 0
M  V30 26693 C 2515.89 -1.88457 -0.167567 0
M  V30 26694 O 2515.23 -1.4583 -1.1171 0
M  V30 26695 C 2515.29 -3.01236 1.96207 0
M  V30 26696 C 2514.96 -2.99092 3.45533 0
M  V30 26697 C 2515.95 -2.75493 4.40908 0
M  V30 26698 C 2513.64 -3.19531 3.87564 0
M  V30 26699 C 2515.63 -2.72346 5.76287 0
M  V30 26700 C 2513.32 -3.1601 5.2305 0
M  V30 26701 C 2514.32 -2.92447 6.17222 0
M  V30 26702 O 2514 -2.88812 7.50229 0
M  V30 26703 H 2513.74 -0.515148 0.437719 0
M  V30 26704 H 2516.29 -1.06567 1.75592 0
M  V30 26705 H 2514.52 -3.59782 1.41752 0
M  V30 26706 H 2516.21 -3.62013 1.8358 0
M  V30 26707 H 2516.98 -2.59463 4.09761 0
M  V30 26708 H 2512.85 -3.36894 3.1468 0
M  V30 26709 H 2516.4 -2.53874 6.49764 0
M  V30 26710 H 2512.3 -3.31586 5.53824 0
M  V30 26711 H 2513.06 -3.04722 7.59662 0
M  V30 26712 N 2515.73 -1.16125 -1.06549 0
M  V30 26713 C 2516.96 -0.96387 -1.82738 0
M  V30 26714 C 2517.36 0.491196 -1.82713 0
M  V30 26715 O 2516.71 1.35263 -1.24296 0
M  V30 26716 C 2516.77 -1.41112 -3.30647 0
M  V30 26717 C 2516.43 -2.88556 -3.54379 0
M  V30 26718 C 2517.43 -3.86575 -3.47643 0
M  V30 26719 C 2515.12 -3.26415 -3.81784 0
M  V30 26720 C 2517.11 -5.20456 -3.67973 0
M  V30 26721 C 2514.8 -4.60466 -4.01764 0
M  V30 26722 C 2515.79 -5.57295 -3.94856 0
M  V30 26723 O 2515.48 -6.88923 -4.14294 0
M  V30 26724 H 2515.21 -0.341959 -0.58313 0
M  V30 26725 H 2517.77 -1.54499 -1.35348 0
M  V30 26726 H 2516 -0.773461 -3.78886 0
M  V30 26727 H 2517.69 -1.18157 -3.88322 0
M  V30 26728 H 2518.45 -3.58673 -3.26464 0
M  V30 26729 H 2514.33 -2.51626 -3.86271 0
M  V30 26730 H 2517.88 -5.96022 -3.62497 0
M  V30 26731 H 2513.77 -4.8808 -4.22432 0
M  V30 26732 H 2514.54 -6.95461 -4.31597 0
M  V30 26733 N 2517.2 1.25039 -0.959323 0
M  V30 26734 C 2518.48 1.88174 -0.533838 0
M  V30 26735 C 2518.86 1.86501 0.988962 0
M  V30 26736 O 2518.21 1.3318 1.85675 0
M  V30 26737 C 2518.42 3.30682 -1.11581 0
M  V30 26738 C 2519.77 4.07421 -1.19555 0
M  V30 26739 O 2520.79 3.39821 -1.06771 0
M  V30 26740 O 2519.65 5.28352 -1.39665 0
M  V30 26741 H 2516.74 0.807883 -0.176786 0
M  V30 26742 H 2519.29 1.33075 -1.05306 0
M  V30 26743 H 2518.06 3.26355 -2.1589 0
M  V30 26744 H 2517.69 3.93345 -0.580128 0
M  V30 26745 N 2518.68 0.728444 1.39755 0
M  V30 26746 C 2519.61 0.0991764 2.33289 0
M  V30 26747 C 2520.59 -0.731462 1.5357 0
M  V30 26748 O 2521.78 -0.677775 1.81989 0
M  V30 26749 C 2518.91 -0.813774 3.37631 0
M  V30 26750 C 2517.86 -0.0877911 4.2791 0
M  V30 26751 C 2517.19 -1.11732 5.22896 0
M  V30 26752 C 2518.49 1.06572 5.11312 0
M  V30 26753 H 2520.18 0.880458 2.86161 0
M  V30 26754 H 2517.73 0.424843 1.3759 0
M  V30 26755 H 2519.68 -1.26348 4.02013 0
M  V30 26756 H 2518.41 -1.6271 2.83184 0
M  V30 26757 H 2517.06 0.342223 3.64999 0
M  V30 26758 H 2516.71 -1.92403 4.64747 0
M  V30 26759 H 2516.41 -0.636374 5.84144 0
M  V30 26760 H 2517.94 -1.56686 5.90154 0
M  V30 26761 H 2519.35 0.694771 5.69075 0
M  V30 26762 H 2517.75 1.47587 5.81668 0
M  V30 26763 H 2518.82 1.89046 4.46531 0
M  V30 26764 N 2520.16 -1.50253 0.475581 0
M  V30 26765 C 2521.09 -2.31485 -0.306069 0
M  V30 26766 C 2522.07 -1.38593 -0.986204 0
M  V30 26767 O 2523.26 -1.67512 -0.982511 0
M  V30 26768 C 2520.39 -3.18453 -1.38583 0
M  V30 26769 C 2519.34 -4.19933 -0.827041 0
M  V30 26770 C 2518.67 -4.95668 -2.00542 0
M  V30 26771 C 2519.97 -5.2204 0.164722 0
M  V30 26772 H 2521.66 -2.97081 0.371918 0
M  V30 26773 H 2519.21 -1.42867 0.180307 0
M  V30 26774 H 2521.16 -3.74079 -1.94017 0
M  V30 26775 H 2519.88 -2.50751 -2.09265 0
M  V30 26776 H 2518.54 -3.65414 -0.294637 0
M  V30 26777 H 2518.19 -4.24435 -2.69933 0
M  V30 26778 H 2517.89 -5.64315 -1.63774 0
M  V30 26779 H 2519.41 -5.54131 -2.56459 0
M  V30 26780 H 2520.83 -5.72511 -0.300598 0
M  V30 26781 H 2519.23 -5.98433 0.446918 0
M  V30 26782 H 2520.3 -4.7251 1.08913 0
M  V30 26783 N 2521.64 -0.208365 -1.56217 0
M  V30 26784 C 2522.89 0.42717 -1.97125 0
M  V30 26785 C 2523.2 1.61833 -1.09861 0
M  V30 26786 O 2524.41 2.32252 -1.4061 0
M  V30 26787 C 2522.86 0.81138 -3.50635 0
M  V30 26788 C 2522.47 -0.356228 -4.46581 0
M  V30 26789 C 2524.21 1.41325 -4.00284 0
M  V30 26790 C 2522.12 0.0496813 -5.91379 0
M  V30 26791 H 2521.05 0.163368 -0.736089 0
M  V30 26792 H 2523.7 -0.302488 -1.8099 0
M  V30 26793 H 2522.08 1.59808 -3.62322 0
M  V30 26794 H 2523.26 -1.13378 -4.46634 0
M  V30 26795 H 2521.57 -0.870467 -4.072 0
M  V30 26796 H 2524.17 1.72963 -5.05953 0
M  V30 26797 H 2524.51 2.32443 -3.45364 0
M  V30 26798 H 2525.05 0.690255 -3.91766 0
M  V30 26799 H 2521.79 -0.827643 -6.50254 0
M  V30 26800 H 2521.31 0.791821 -5.9455 0
M  V30 26801 H 2522.98 0.480929 -6.4521 0
M  V30 26802 N 2523.12 1.57465 0.0651402 0
M  V30 26803 C 2524.39 1.78652 0.796408 0
M  V30 26804 C 2524.77 0.7976 1.95452 0
M  V30 26805 O 2524.12 -0.167906 2.27882 0
M  V30 26806 C 2524.33 3.25339 1.26316 0
M  V30 26807 C 2525.68 3.89351 1.69384 0
M  V30 26808 O 2526.7 3.2927 1.35866 0
M  V30 26809 O 2525.56 4.95063 2.31462 0
M  V30 26810 H 2522.66 0.733413 0.382144 0
M  V30 26811 H 2525.2 1.69641 0.0447013 0
M  V30 26812 H 2523.97 3.88877 0.434791 0
M  V30 26813 H 2523.6 3.391 2.07598 0
M  V30 26814 N 2524.59 -0.336679 1.53962 0
M  V30 26815 C 2525.84 -1.0736 1.70753 0
M  V30 26816 C 2526.16 -1.89591 0.481094 0
M  V30 26817 O 2527.36 -2.66275 0.530093 0
M  V30 26818 C 2525.82 -1.95813 3.01969 0
M  V30 26819 C 2525.43 -1.18756 4.31973 0
M  V30 26820 C 2527.17 -2.69321 3.28126 0
M  V30 26821 C 2525.08 -2.06279 5.54259 0
M  V30 26822 H 2524.01 -0.404523 0.636299 0
M  V30 26823 H 2526.66 -0.332649 1.8046 0
M  V30 26824 H 2525.04 -2.73755 2.86136 0
M  V30 26825 H 2526.21 -0.456768 4.58531 0
M  V30 26826 H 2524.53 -0.569873 4.12482 0
M  V30 26827 H 2527.13 -3.35087 4.16678 0
M  V30 26828 H 2527.47 -3.36257 2.45432 0
M  V30 26829 H 2528 -1.98448 3.44765 0
M  V30 26830 H 2524.74 -1.43873 6.39516 0
M  V30 26831 H 2524.26 -2.77128 5.3194 0
M  V30 26832 H 2525.94 -2.65172 5.90163 0
M  V30 26833 N 2526.07 -1.45812 -0.598057 0
M  V30 26834 C 2527.02 -1.51632 -1.7027 0
M  V30 26835 C 2528.01 -0.378656 -1.56381 0
M  V30 26836 O 2529.2 -0.626116 -1.65556 0
M  V30 26837 C 2526.33 -1.49498 -3.09039 0
M  V30 26838 C 2525.41 -2.68502 -3.2828 0
M  V30 26839 N 2525.8 -3.93541 -3.17741 0
M  V30 26840 C 2524.1 -2.64401 -3.59177 0
M  V30 26841 C 2524.8 -4.73016 -3.38571 0
M  V30 26842 N 2523.78 -4.0463 -3.63009 0
M  V30 26843 H 2527.58 -2.46121 -1.60629 0
M  V30 26844 H 2525.1 -1.41237 -0.801617 0
M  V30 26845 H 2527.09 -1.51754 -3.88299 0
M  V30 26846 H 2525.75 -0.560739 -3.19822 0
M  V30 26847 H 2526.76 -4.2502 -2.95937 0
M  V30 26848 H 2523.44 -1.79929 -3.76738 0
M  V30 26849 H 2524.83 -5.82006 -3.35736 0
M  V30 26850 N 2527.55 0.841385 -1.33261 0
M  V30 26851 C 2528.48 1.96632 -1.2593 0
M  V30 26852 C 2529.46 1.6952 -0.140378 0
M  V30 26853 O 2530.65 1.9138 -0.32974 0
M  V30 26854 C 2527.78 3.32736 -0.995178 0
M  V30 26855 C 2526.73 3.74239 -2.07676 0
M  V30 26856 C 2526.06 5.08122 -1.66483 0
M  V30 26857 C 2527.36 3.8829 -3.49325 0
M  V30 26858 H 2529.05 2.03023 -2.2005 0
M  V30 26859 H 2526.6 0.975406 -1.05933 0
M  V30 26860 H 2528.55 4.11001 -0.930395 0
M  V30 26861 H 2527.27 3.26595 -0.0183578 0
M  V30 26862 H 2525.93 2.98236 -2.13193 0
M  V30 26863 H 2525.58 4.98449 -0.6751 0
M  V30 26864 H 2525.28 5.36861 -2.3886 0
M  V30 26865 H 2526.8 5.88864 -1.61466 0
M  V30 26866 H 2528.22 4.56873 -3.46324 0
M  V30 26867 H 2526.62 4.28463 -4.20166 0
M  V30 26868 H 2527.69 2.90814 -3.88015 0
M  V30 26869 N 2529.03 1.16688 1.05932 0
M  V30 26870 C 2530.25 0.975487 1.83027 0
M  V30 26871 C 2530.68 -0.47142 1.82097 0
M  V30 26872 O 2530.04 -1.33704 1.22446 0
M  V30 26873 C 2530.09 1.51201 3.27369 0
M  V30 26874 O 2529.19 0.720772 4.06053 0
M  V30 26875 H 2528.53 0.346882 0.566188 0
M  V30 26876 H 2531.06 1.55011 1.33539 0
M  V30 26877 H 2531.07 1.53106 3.78183 0
M  V30 26878 H 2529.75 2.56529 3.27362 0
M  V30 26879 H 2528.32 0.772522 3.6481 0
M  V30 26880 N 2530.51 -1.24529 0.96594 0
M  V30 26881 C 2531.73 -1.97148 0.644006 0
M  V30 26882 C 2532.16 -1.7119 -0.779457 0
M  V30 26883 O 2531.52 -0.97458 -1.52878 0
M  V30 26884 C 2531.56 -3.48597 0.922618 0
M  V30 26885 O 2530.67 -4.12399 0.00714921 0
M  V30 26886 H 2530.01 -0.617678 0.243658 0
M  V30 26887 H 2532.54 -1.58351 1.29561 0
M  V30 26888 H 2532.55 -3.98974 0.853443 0
M  V30 26889 H 2531.22 -3.66819 1.96002 0
M  V30 26890 H 2529.8 -3.72675 0.129495 0
M  V30 26891 N 2531.99 -0.735845 -1.39367 0
M  V30 26892 C 2533.22 -0.294002 -2.04497 0
M  V30 26893 C 2533.62 1.07642 -1.55595 0
M  V30 26894 O 2532.97 1.69157 -0.716353 0
M  V30 26895 C 2533.03 -0.218405 -3.58836 0
M  V30 26896 C 2532.69 -1.52744 -4.30718 0
M  V30 26897 C 2533.69 -2.4733 -4.57301 0
M  V30 26898 C 2531.37 -1.79197 -4.69248 0
M  V30 26899 C 2533.37 -3.66602 -5.21423 0
M  V30 26900 C 2531.06 -2.98746 -5.33098 0
M  V30 26901 C 2532.05 -3.9227 -5.59118 0
M  V30 26902 O 2531.74 -5.09719 -6.21644 0
M  V30 26903 H 2531.47 -0.126201 -0.664115 0
M  V30 26904 H 2534.03 -1.00055 -1.79383 0
M  V30 26905 H 2532.26 0.544247 -3.82851 0
M  V30 26906 H 2533.95 0.191555 -4.05448 0
M  V30 26907 H 2534.71 -2.28164 -4.27979 0
M  V30 26908 H 2530.59 -1.07246 -4.48352 0
M  V30 26909 H 2534.14 -4.39616 -5.41649 0
M  V30 26910 H 2530.03 -3.17813 -5.61841 0
M  V30 26911 H 2530.8 -5.10065 -6.40138 0
M  V30 26912 N 2533.46 1.49999 -0.483543 0
M  V30 26913 C 2534.43 2.2732 0.292925 0
M  V30 26914 C 2535.43 1.32609 0.909476 0
M  V30 26915 O 2536.62 1.55925 0.776718 0
M  V30 26916 C 2533.75 3.09987 1.41849 0
M  V30 26917 H 2534.94 2.97414 -0.385342 0
M  V30 26918 H 2532.49 1.54478 -0.23797 0
M  V30 26919 H 2533.23 2.44418 2.13144 0
M  V30 26920 H 2533.01 3.79603 0.982048 0
M  V30 26921 H 2534.5 3.68432 1.9659 0
M  V30 26922 N 2534.94 0.216646 1.56104 0
M  V30 26923 C 2536.17 -0.421378 2.02564 0
M  V30 26924 C 2536.58 -1.53693 1.09653 0
M  V30 26925 O 2535.94 -1.82196 0.105242 0
M  V30 26926 C 2535.99 -0.957604 3.48586 0
M  V30 26927 O 2535.71 0.113466 4.37953 0
M  V30 26928 C 2537.21 -1.66936 4.10667 0
M  V30 26929 H 2534.43 -0.103654 0.662946 0
M  V30 26930 H 2536.98 0.331664 2.01793 0
M  V30 26931 H 2535.13 -1.66094 3.49988 0
M  V30 26932 H 2535.55 -0.28884 5.23704 0
M  V30 26933 H 2537.02 -1.99662 5.14625 0
M  V30 26934 H 2537.5 -2.58077 3.55377 0
M  V30 26935 H 2538.1 -1.01135 4.131 0
M  V30 26936 N 2536.42 -1.57498 -0.0567885 0
M  V30 26937 C 2537.38 -2.03717 -1.05034 0
M  V30 26938 C 2538.38 -0.9366 -1.30707 0
M  V30 26939 O 2539.57 -1.20105 -1.26176 0
M  V30 26940 C 2536.7 -2.43059 -2.3903 0
M  V30 26941 H 2537.9 -2.92734 -0.651664 0
M  V30 26942 H 2535.45 -1.53337 -0.30292 0
M  V30 26943 H 2536.19 -1.57113 -2.83701 0
M  V30 26944 H 2535.97 -3.23383 -2.21733 0
M  V30 26945 H 2537.46 -2.79341 -3.10416 0
M  V30 26946 N 2537.9 0.328509 -1.54138 0
M  V30 26947 C 2539.31 0.672549 -1.44737 0
M  V30 26948 C 2539.51 1.91845 -0.61625 0
M  V30 26949 O 2538.57 2.52247 -0.113111 0
M  V30 26950 C 2539.88 0.851166 -2.88402 0
M  V30 26951 C 2541.43 0.948825 -2.98272 0
M  V30 26952 C 2541.91 1.15965 -4.43076 0
M  V30 26953 N 2543.4 1.2265 -4.46667 0
M  V30 26954 C 2544.13 1.40742 -5.55859 0
M  V30 26955 N 2543.63 1.55908 -6.75029 0
M  V30 26956 N 2545.42 1.4341 -5.43498 0
M  V30 26957 H 2537.57 -0.490458 -2.0666 0
M  V30 26958 H 2539.83 -0.157595 -0.934809 0
M  V30 26959 H 2539.54 0.00698054 -3.51699 0
M  V30 26960 H 2539.41 1.74847 -3.34228 0
M  V30 26961 H 2541.8 1.78352 -2.35106 0
M  V30 26962 H 2541.88 0.0280986 -2.55785 0
M  V30 26963 H 2541.53 0.329826 -5.06828 0
M  V30 26964 H 2541.46 2.09417 -4.83169 0
M  V30 26965 H 2543.95 1.12393 -3.60799 0
M  V30 26966 H 2544.26 1.6939 -7.54007 0
M  V30 26967 H 2542.61 1.53015 -6.77946 0
M  V30 26968 H 2545.8 1.31154 -4.49351 0
M  V30 26969 H 2545.97 1.57167 -6.28651 0
M  V30 26970 N 2539.38 1.46127 0.590316 0
M  V30 26971 C 2540.31 1.58969 1.71029 0
M  V30 26972 C 2541.29 0.440364 1.64301 0
M  V30 26973 O 2542.47 0.665666 1.82435 0
M  V30 26974 C 2539.6 1.57246 3.09662 0
M  V30 26975 C 2538.56 2.71072 3.31216 0
M  V30 26976 C 2537.88 2.54408 4.70299 0
M  V30 26977 C 2539.18 4.12956 3.19789 0
M  V30 26978 H 2540.88 2.52721 1.60538 0
M  V30 26979 H 2538.42 1.21626 0.770912 0
M  V30 26980 H 2540.37 1.64826 3.87828 0
M  V30 26981 H 2539.1 0.600345 3.21035 0
M  V30 26982 H 2537.76 2.62949 2.55447 0
M  V30 26983 H 2537.41 1.55296 4.78427 0
M  V30 26984 H 2537.11 3.30749 4.85674 0
M  V30 26985 H 2538.63 2.63867 5.50642 0
M  V30 26986 H 2540.04 4.2223 3.87807 0
M  V30 26987 H 2538.44 4.89824 3.46688 0
M  V30 26988 H 2539.51 4.33647 2.16976 0
M  V30 26989 N 2540.85 -0.834306 1.33705 0
M  V30 26990 C 2541.79 -1.94912 1.18678 0
M  V30 26991 C 2542.76 -1.62397 0.081143 0
M  V30 26992 O 2543.95 -1.86911 0.244219 0
M  V30 26993 C 2541.08 -3.28592 0.821289 0
M  V30 26994 C 2540.12 -3.80075 1.93507 0
M  V30 26995 S 2540.95 -4.01203 3.54678 0
M  V30 26996 C 2542.11 -5.37827 3.20145 0
M  V30 26997 H 2542.34 -2.0736 2.13047 0
M  V30 26998 H 2539.88 -0.988603 1.186 0
M  V30 26999 H 2541.83 -4.05834 0.617194 0
M  V30 27000 H 2540.5 -3.13928 -0.103872 0
M  V30 27001 H 2539.69 -4.76818 1.63282 0
M  V30 27002 H 2539.29 -3.09743 2.09607 0
M  V30 27003 H 2541.58 -6.20829 2.71253 0
M  V30 27004 H 2542.53 -5.73029 4.15985 0
M  V30 27005 H 2542.93 -5.02797 2.56622 0
M  V30 27006 N 2542.33 -1.17248 -1.05312 0
M  V30 27007 C 2543.26 -0.831544 -2.1251 0
M  V30 27008 C 2544.24 0.201139 -1.61351 0
M  V30 27009 O 2545.43 0.08295 -1.88317 0
M  V30 27010 C 2542.55 -0.240209 -3.37847 0
M  V30 27011 C 2541.6 -1.24808 -4.0783 0
M  V30 27012 S 2542.43 -2.7989 -4.56532 0
M  V30 27013 C 2543.59 -2.22233 -5.85118 0
M  V30 27014 H 2543.82 -1.73945 -2.41103 0
M  V30 27015 H 2541.35 -0.997009 -1.17894 0
M  V30 27016 H 2543.31 0.0944867 -4.10391 0
M  V30 27017 H 2541.97 0.645614 -3.07393 0
M  V30 27018 H 2541.17 -0.782958 -4.97881 0
M  V30 27019 H 2540.77 -1.52837 -3.41346 0
M  V30 27020 H 2543.06 -1.59714 -6.58405 0
M  V30 27021 H 2544 -3.10535 -6.36376 0
M  V30 27022 H 2544.41 -1.65732 -5.39623 0
M  V30 27023 N 2543.81 1.24015 -0.972531 0
M  V30 27024 C 2544.76 2.27193 -0.498602 0
M  V30 27025 C 2545.75 1.63577 0.440343 0
M  V30 27026 O 2546.96 1.77221 0.315102 0
M  V30 27027 H 2543.33 0.73832 -0.142787 0
M  V30 27028 H 2545.3 2.64536 -1.38069 0
M  V30 27029 C 2544.05 3.47175 0.191011 0
M  V30 27030 H 2543.38 3.96372 -0.522387 0
M  V30 27031 H 2544.82 4.21201 0.486371 0
M  V30 27032 C 2543.28 3.0553 1.41962 0
M  V30 27033 O 2543.81 3.13117 2.51636 0
M  V30 27034 N 2542.01 2.60526 1.28741 0
M  V30 27035 H 2541.56 2.54553 0.395044 0
M  V30 27036 H 2541.52 2.33028 2.11057 0
M  V30 27037 N 2545.29 0.743226 1.38974 0
M  V30 27038 C 2546.24 0.0978798 2.32394 0
M  V30 27039 C 2547.23 -0.716797 1.53487 0
M  V30 27040 O 2548.44 -0.617059 1.69093 0
M  V30 27041 H 2544.81 0.0128534 0.75189 0
M  V30 27042 H 2546.78 0.902031 2.8444 0
M  V30 27043 C 2545.53 -0.788977 3.3863 0
M  V30 27044 H 2544.85 -0.171489 3.99432 0
M  V30 27045 H 2546.29 -1.208 4.06428 0
M  V30 27046 C 2544.75 -1.92697 2.7635 0
M  V30 27047 O 2545.28 -3.0203 2.64841 0
M  V30 27048 N 2543.49 -1.71887 2.34314 0
M  V30 27049 H 2543.04 -0.829632 2.43875 0
M  V30 27050 H 2542.99 -2.48202 1.92985 0
M  V30 27051 N 2546.77 -1.4974 0.491491 0
M  V30 27052 C 2547.68 -2.32715 -0.296794 0
M  V30 27053 C 2548.69 -1.44015 -0.97651 0
M  V30 27054 O 2549.87 -1.77048 -0.959992 0
M  V30 27055 C 2546.93 -3.19217 -1.35283 0
M  V30 27056 C 2545.99 -4.23758 -0.687557 0
M  V30 27057 C 2545.23 -5.06126 -1.69328 0
M  V30 27058 O 2545.45 -4.89866 -2.92211 0
M  V30 27059 O 2544.38 -5.88696 -1.25384 0
M  V30 27060 H 2548.21 -3.01287 0.382101 0
M  V30 27061 H 2545.8 -1.47243 0.252979 0
M  V30 27062 H 2547.68 -3.72831 -1.96404 0
M  V30 27063 H 2546.35 -2.53351 -2.01482 0
M  V30 27064 H 2545.26 -3.74082 -0.0368502 0
M  V30 27065 H 2546.59 -4.92153 -0.0681701 0
M  V30 27066 N 2548.24 -0.224922 -1.55987 0
M  V30 27067 C 2549.47 0.410034 -2.0249 0
M  V30 27068 C 2549.88 1.53655 -1.10394 0
M  V30 27069 O 2549.23 1.83391 -0.10649 0
M  V30 27070 C 2549.29 0.999696 -3.45321 0
M  V30 27071 C 2548.95 0.00819943 -4.56999 0
M  V30 27072 C 2549.95 -0.793405 -5.1381 0
M  V30 27073 C 2547.63 -0.111531 -5.02176 0
M  V30 27074 C 2549.63 -1.70141 -6.14273 0
M  V30 27075 C 2547.31 -1.02307 -6.02475 0
M  V30 27076 C 2548.31 -1.81655 -6.584 0
M  V30 27077 O 2548 -2.71275 -7.56746 0
M  V30 27078 H 2547.73 0.104223 -0.667917 0
M  V30 27079 H 2550.29 -0.339817 -2.0257 0
M  V30 27080 H 2548.52 1.7987 -3.42321 0
M  V30 27081 H 2550.21 1.54241 -3.75452 0
M  V30 27082 H 2550.97 -0.711372 -4.79755 0
M  V30 27083 H 2546.85 0.495969 -4.58324 0
M  V30 27084 H 2550.39 -2.32118 -6.5785 0
M  V30 27085 H 2546.29 -1.1061 -6.35953 0
M  V30 27086 H 2547.06 -2.65389 -7.74281 0
M  V30 27087 N 2549.72 1.57526 0.0484352 0
M  V30 27088 C 2550.97 1.87555 0.742032 0
M  V30 27089 C 2551.28 0.820833 1.77543 0
M  V30 27090 O 2552.49 1.00972 2.52026 0
M  V30 27091 C 2550.95 3.32774 1.37075 0
M  V30 27092 C 2550.55 4.4643 0.374707 0
M  V30 27093 C 2552.3 3.71975 2.04535 0
M  V30 27094 C 2550.21 5.827 1.01067 0
M  V30 27095 H 2549.14 0.699726 0.28089 0
M  V30 27096 H 2551.79 1.835 -0.00415102 0
M  V30 27097 H 2550.17 3.31513 2.16599 0
M  V30 27098 H 2551.34 4.59126 -0.392412 0
M  V30 27099 H 2549.66 4.15935 -0.196726 0
M  V30 27100 H 2552.25 4.71093 2.52934 0
M  V30 27101 H 2552.6 3.02969 2.85509 0
M  V30 27102 H 2553.13 3.75327 1.31812 0
M  V30 27103 H 2549.87 6.55058 0.240763 0
M  V30 27104 H 2549.39 5.73761 1.74809 0
M  V30 27105 H 2551.07 6.28802 1.52372 0
M  V30 27106 N 2551.2 -0.32033 1.5431 0
M  V30 27107 C 2552.45 -1.05946 1.72926 0
M  V30 27108 C 2552.78 -1.87567 0.503218 0
M  V30 27109 O 2552.05 -1.87969 -0.499806 0
M  V30 27110 C 2552.34 -1.9815 3.0068 0
M  V30 27111 C 2552.19 -1.19838 4.33542 0
M  V30 27112 C 2553.51 -2.97625 3.24203 0
M  V30 27113 H 2550.63 -0.383763 0.629202 0
M  V30 27114 H 2553.27 -0.335821 1.87009 0
M  V30 27115 H 2551.42 -2.59854 2.88804 0
M  V30 27116 H 2553.09 -0.605693 4.57306 0
M  V30 27117 H 2551.34 -0.500708 4.30901 0
M  V30 27118 H 2552.01 -1.87558 5.19159 0
M  V30 27119 H 2554.48 -2.46044 3.35562 0
M  V30 27120 H 2553.36 -3.59322 4.14945 0
M  V30 27121 H 2553.62 -3.70256 2.41584 0
M  V30 27122 N 2552.68 -1.46438 -0.582558 0
M  V30 27123 C 2554.09 -1.45918 -1.16468 0
M  V30 27124 C 2554.44 -0.200111 -1.95177 0
M  V30 27125 O 2553.57 0.696783 -2.04875 0
M  V30 27126 C 2554.16 -2.64371 -2.11881 0
M  V30 27127 C 2552.72 -2.66892 -2.65416 0
M  V30 27128 C 2551.87 -2.38605 -1.4129 0
M  V30 27129 H 2554.82 -1.54315 -0.370487 0
M  V30 27130 H 2554.84 -2.39898 -2.95346 0
M  V30 27131 H 2554.35 -3.55993 -1.54567 0
M  V30 27132 H 2552.45 -1.79343 -3.26599 0
M  V30 27133 H 2552.56 -3.6686 -3.08141 0
M  V30 27134 H 2550.93 -1.88666 -1.71105 0
M  V30 27135 H 2551.71 -3.32404 -0.858067 0
M  V30 27136 N 2554.16 0.827204 -1.34146 0
M  V30 27137 C 2555.09 1.9428 -1.1971 0
M  V30 27138 C 2556.07 1.62352 -0.0897542 0
M  V30 27139 O 2557.25 1.86779 -0.254128 0
M  V30 27140 C 2554.38 3.28152 -0.838704 0
M  V30 27141 C 2553.42 3.79044 -1.9552 0
M  V30 27142 S 2554.26 3.99317 -3.568 0
M  V30 27143 C 2555.41 5.36122 -3.22993 0
M  V30 27144 H 2555.65 2.06227 -2.14144 0
M  V30 27145 H 2553.18 0.9823 -1.19123 0
M  V30 27146 H 2555.14 4.05501 -0.638708 0
M  V30 27147 H 2553.8 3.13979 0.0872224 0
M  V30 27148 H 2552.99 4.75945 -1.65808 0
M  V30 27149 H 2552.59 3.08627 -2.11246 0
M  V30 27150 H 2554.89 6.19381 -2.74541 0
M  V30 27151 H 2555.83 5.70815 -4.19018 0
M  V30 27152 H 2556.24 5.01429 -2.59285 0
M  V30 27153 N 2555.63 1.17805 1.04688 0
M  V30 27154 C 2556.86 0.994262 1.81444 0
M  V30 27155 C 2557.28 -0.457427 1.83175 0
M  V30 27156 O 2556.63 -1.31768 1.26267 0
M  V30 27157 C 2556.69 1.53416 3.27332 0
M  V30 27158 O 2556.41 2.929 3.25793 0
M  V30 27159 C 2557.91 1.39567 4.20756 0
M  V30 27160 H 2555.13 0.351457 0.571593 0
M  V30 27161 H 2557.67 1.56211 1.31979 0
M  V30 27162 H 2555.83 1.00822 3.7405 0
M  V30 27163 H 2556.24 3.17956 4.17138 0
M  V30 27164 H 2557.71 1.8215 5.21081 0
M  V30 27165 H 2558.19 0.343471 4.37855 0
M  V30 27166 H 2558.8 1.91202 3.79897 0
M  V30 27167 N 2557.11 -1.23497 0.979094 0
M  V30 27168 C 2558.02 -2.28616 0.526472 0
M  V30 27169 C 2559.04 -1.68902 -0.418097 0
M  V30 27170 O 2560.21 -1.99325 -0.288337 0
M  V30 27171 C 2557.28 -3.46306 -0.165174 0
M  V30 27172 C 2556.34 -4.21384 0.820634 0
M  V30 27173 C 2555.57 -5.33454 0.1619 0
M  V30 27174 O 2555.8 -5.60702 -1.04732 0
M  V30 27175 O 2554.73 -5.95727 0.859813 0
M  V30 27176 H 2558.56 -2.69473 1.40065 0
M  V30 27177 H 2556.14 -1.29404 0.746665 0
M  V30 27178 H 2558.02 -4.17753 -0.553213 0
M  V30 27179 H 2556.7 -3.07404 -1.01413 0
M  V30 27180 H 2555.61 -3.52266 1.25935 0
M  V30 27181 H 2556.94 -4.64132 1.63836 0
M  V30 27182 N 2558.59 -0.750586 -1.38578 0
M  V30 27183 C 2559.5 -0.122866 -2.34278 0
M  V30 27184 C 2560.52 0.704103 -1.59118 0
M  V30 27185 O 2561.69 0.628954 -1.91327 0
M  V30 27186 C 2558.76 0.762027 -3.38222 0
M  V30 27187 C 2557.82 -0.0789714 -4.29227 0
M  V30 27188 C 2557.05 0.763781 -5.28206 0
M  V30 27189 O 2557.28 2.00192 -5.34116 0
M  V30 27190 O 2556.21 0.184174 -6.01618 0
M  V30 27191 H 2560.04 -0.913139 -2.89647 0
M  V30 27192 H 2557.62 -0.511442 -1.40373 0
M  V30 27193 H 2559.5 1.26786 -4.01875 0
M  V30 27194 H 2558.18 1.53085 -2.85214 0
M  V30 27195 H 2557.08 -0.630686 -3.68745 0
M  V30 27196 H 2558.42 -0.810375 -4.85483 0
M  V30 27197 N 2560.07 1.49477 -0.499425 0
M  V30 27198 C 2561.3 2.06856 0.0425093 0
M  V30 27199 C 2561.71 1.35995 1.30962 0
M  V30 27200 O 2561.07 0.437793 1.77171 0
M  V30 27201 C 2561.12 3.60239 0.301672 0
M  V30 27202 O 2560.84 4.28434 -0.915203 0
M  V30 27203 C 2562.34 4.34327 0.887422 0
M  V30 27204 H 2559.56 0.670709 -0.0197599 0
M  V30 27205 H 2562.11 1.9228 -0.69633 0
M  V30 27206 H 2560.26 3.74524 0.99049 0
M  V30 27207 H 2560.68 5.20111 -0.677085 0
M  V30 27208 H 2562.15 5.42525 1.01835 0
M  V30 27209 H 2562.63 3.96701 1.88481 0
M  V30 27210 H 2563.23 4.24644 0.236121 0
M  V30 27211 N 2561.55 0.233191 1.55865 0
M  V30 27212 C 2562.49 -0.672112 2.20797 0
M  V30 27213 C 2563.46 -1.18164 1.16733 0
M  V30 27214 O 2564.65 -1.23861 1.45131 0
M  V30 27215 C 2561.79 -1.8695 2.90075 0
M  V30 27216 C 2560.9 -1.39779 4.08762 0
M  V30 27217 C 2560.04 -2.55366 4.65792 0
M  V30 27218 C 2559.08 -2.04988 5.76755 0
M  V30 27219 N 2558.21 -3.1389 6.28027 0
M  V30 27220 H 2563.05 -0.111697 2.97791 0
M  V30 27221 H 2560.59 -0.0433749 1.47036 0
M  V30 27222 H 2562.55 -2.5727 3.28433 0
M  V30 27223 H 2561.18 -2.40261 2.15579 0
M  V30 27224 H 2560.23 -0.589107 3.75811 0
M  V30 27225 H 2561.54 -0.988474 4.88908 0
M  V30 27226 H 2560.7 -3.33749 5.06652 0
M  V30 27227 H 2559.44 -2.99591 3.84833 0
M  V30 27228 H 2558.44 -1.2507 5.35386 0
M  V30 27229 H 2559.67 -1.61748 6.59556 0
M  V30 27230 H 2557.61 -3.57576 5.49978 0
M  V30 27231 H 2557.53 -2.77247 7.03328 0
M  V30 27232 H 2558.8 -3.92374 6.73545 0
M  V30 27233 N 2563.03 -1.57549 -0.0400806 0
M  V30 27234 C 2564.25 -1.93407 -0.748897 0
M  V30 27235 C 2564.68 -0.832304 -1.68684 0
M  V30 27236 O 2564.03 0.212787 -1.80047 0
M  V30 27237 C 2564.08 -3.28307 -1.49154 0
M  V30 27238 O 2563.19 -3.19778 -2.60414 0
M  V30 27239 H 2562.53 -0.632464 -0.202201 0
M  V30 27240 H 2565.06 -2.046 0.00115682 0
M  V30 27241 H 2565.07 -3.62937 -1.86389 0
M  V30 27242 H 2563.74 -4.08063 -0.803568 0
M  V30 27243 H 2562.32 -2.96762 -2.25803 0
M  V30 27244 N 2564.5 0.312142 -1.54478 0
M  V30 27245 C 2565.75 1.0463 -1.7244 0
M  V30 27246 C 2566.07 1.88802 -0.511196 0
M  V30 27247 O 2567.27 2.65398 -0.572388 0
M  V30 27248 C 2565.73 1.90984 -3.05046 0
M  V30 27249 C 2565.34 1.11869 -4.33808 0
M  V30 27250 C 2567.08 2.64067 -3.32369 0
M  V30 27251 C 2564.99 1.97435 -5.5747 0
M  V30 27252 H 2563.92 0.394349 -0.642654 0
M  V30 27253 H 2566.57 0.303898 -1.80966 0
M  V30 27254 H 2564.95 2.69168 -2.90455 0
M  V30 27255 H 2566.12 0.383762 -4.59199 0
M  V30 27256 H 2564.44 0.504179 -4.13336 0
M  V30 27257 H 2567.04 3.28415 -4.21957 0
M  V30 27258 H 2567.38 3.3231 -2.5075 0
M  V30 27259 H 2567.91 1.92938 -3.47879 0
M  V30 27260 H 2564.65 1.33681 -6.41724 0
M  V30 27261 H 2564.17 2.68631 -5.36281 0
M  V30 27262 H 2565.85 2.55749 -5.94307 0
M  V30 27263 N 2565.98 1.46745 0.574784 0
M  V30 27264 C 2567.21 1.56049 1.35854 0
M  V30 27265 C 2567.62 0.204398 1.8769 0
M  V30 27266 O 2566.98 -0.799601 1.64051 0
M  V30 27267 C 2567.03 2.57168 2.54061 0
M  V30 27268 O 2566.75 3.8751 2.04371 0
M  V30 27269 C 2568.25 2.76489 3.4651 0
M  V30 27270 H 2565.47 0.527473 0.414744 0
M  V30 27271 H 2568.02 1.92219 0.698001 0
M  V30 27272 H 2566.17 2.2398 3.16088 0
M  V30 27273 H 2566.59 4.42615 2.81411 0
M  V30 27274 H 2568.06 3.51145 4.25912 0
M  V30 27275 H 2568.54 1.83678 3.98947 0
M  V30 27276 H 2569.14 3.10804 2.90312 0
M  V30 27277 N 2567.46 -0.820078 1.34583 0
M  V30 27278 C 2568.39 -1.94603 1.29042 0
M  V30 27279 C 2569.37 -1.69275 0.16733 0
M  V30 27280 O 2570.56 -1.90831 0.360146 0
M  V30 27281 C 2567.69 -3.31111 1.04799 0
M  V30 27282 C 2566.64 -3.70887 2.13604 0
M  V30 27283 C 2565.97 -5.05409 1.74545 0
M  V30 27284 C 2567.27 -3.82684 3.55458 0
M  V30 27285 H 2568.96 -1.99497 2.23252 0
M  V30 27286 H 2566.51 -0.95843 1.07472 0
M  V30 27287 H 2568.46 -4.09469 0.995664 0
M  V30 27288 H 2567.18 -3.26524 0.0703139 0
M  V30 27289 H 2565.84 -2.94806 2.1791 0
M  V30 27290 H 2565.49 -4.97312 0.754313 0
M  V30 27291 H 2565.19 -5.32993 2.47371 0
M  V30 27292 H 2566.71 -5.86221 1.70814 0
M  V30 27293 H 2568.13 -4.51305 3.53548 0
M  V30 27294 H 2566.52 -4.21725 4.26929 0
M  V30 27295 H 2567.59 -2.84604 3.92592 0
M  V30 27296 N 2568.94 -1.18359 -1.04062 0
M  V30 27297 C 2570.18 -0.978978 -1.77263 0
M  V30 27298 C 2570.51 0.491395 -1.8819 0
M  V30 27299 O 2569.77 1.38106 -1.38655 0
M  V30 27300 C 2570.07 -1.57894 -3.20631 0
M  V30 27301 C 2569.73 -3.07545 -3.29738 0
M  V30 27302 C 2568.39 -3.4839 -3.31931 0
M  V30 27303 C 2570.75 -4.03558 -3.29834 0
M  V30 27304 C 2568.07 -4.83823 -3.31861 0
M  V30 27305 C 2570.43 -5.38907 -3.31304 0
M  V30 27306 C 2569.09 -5.792 -3.31789 0
M  V30 27307 H 2568.36 -0.358233 -0.648652 0
M  V30 27308 H 2571.01 -1.47424 -1.22223 0
M  V30 27309 H 2569.31 -1.00568 -3.78673 0
M  V30 27310 H 2571.01 -1.39604 -3.75914 0
M  V30 27311 H 2567.6 -2.74991 -3.28752 0
M  V30 27312 H 2571.78 -3.73053 -3.27331 0
M  V30 27313 H 2567.04 -5.14339 -3.30553 0
M  V30 27314 H 2571.21 -6.13072 -3.30327 0
M  V30 27315 H 2568.84 -6.8412 -3.31488 0
M  V30 27316 N 2570.42 1.22976 -0.98563 0
M  V30 27317 C 2571.83 1.73337 -0.693624 0
M  V30 27318 C 2572.18 1.79597 0.789903 0
M  V30 27319 O 2571.3 1.43736 1.61769 0
M  V30 27320 C 2571.9 3.14802 -1.25241 0
M  V30 27321 C 2570.46 3.62598 -1.00994 0
M  V30 27322 C 2569.6 2.40695 -1.37699 0
M  V30 27323 H 2572.55 1.08426 -1.15886 0
M  V30 27324 H 2572.58 3.75292 -0.627395 0
M  V30 27325 H 2572.09 3.10214 -2.33214 0
M  V30 27326 H 2570.19 3.72562 0.053491 0
M  V30 27327 H 2570.3 4.49119 -1.6682 0
M  V30 27328 H 2568.67 2.41958 -0.795501 0
M  V30 27329 H 2569.45 2.38774 -2.46661 0
M  V30 27330 N 2571.89 0.757924 1.38178 0
M  V30 27331 C 2573.17 0.24134 1.94105 0
M  V30 27332 C 2573.55 -1.26119 1.69285 0
M  V30 27333 O 2572.9 -2.03775 1.03382 0
M  V30 27334 C 2573.11 0.59973 3.43808 0
M  V30 27335 C 2574.46 0.561791 4.20867 0
M  V30 27336 O 2575.48 0.538284 3.52109 0
M  V30 27337 O 2574.34 0.576574 5.4345 0
M  V30 27338 H 2571.43 0.0518187 0.825375 0
M  V30 27339 H 2573.98 0.838341 1.47546 0
M  V30 27340 H 2572.75 1.63726 3.55401 0
M  V30 27341 H 2572.37 -0.0250498 3.97592 0
M  V30 27342 N 2573.37 -1.4921 0.507345 0
M  V30 27343 C 2574.28 -2.33017 -0.272095 0
M  V30 27344 C 2575.3 -1.45042 -0.961181 0
M  V30 27345 O 2576.47 -1.78057 -0.941159 0
M  V30 27346 C 2573.54 -3.20634 -1.3189 0
M  V30 27347 C 2572.6 -4.24464 -0.642574 0
M  V30 27348 C 2571.83 -5.07894 -1.6395 0
M  V30 27349 O 2572.06 -4.92938 -2.86999 0
M  V30 27350 O 2570.99 -5.89992 -1.19133 0
M  V30 27351 H 2574.82 -3.00864 0.414035 0
M  V30 27352 H 2572.4 -1.46966 0.268581 0
M  V30 27353 H 2574.28 -3.74894 -1.92439 0
M  V30 27354 H 2572.96 -2.55473 -1.98784 0
M  V30 27355 H 2571.87 -3.741 0.00282828 0
M  V30 27356 H 2573.2 -4.92197 -0.0159668 0
M  V30 27357 N 2574.85 -0.241454 -1.55739 0
M  V30 27358 C 2575.8 0.676679 -2.22539 0
M  V30 27359 C 2576.79 1.18434 -1.21119 0
M  V30 27360 O 2578 1.14186 -1.39146 0
M  V30 27361 H 2574.37 0.236688 -0.713781 0
M  V30 27362 H 2576.34 0.0900663 -2.98264 0
M  V30 27363 C 2575.09 1.86513 -2.93442 0
M  V30 27364 H 2574.42 1.48364 -3.71252 0
M  V30 27365 H 2575.86 2.48489 -3.43553 0
M  V30 27366 C 2574.32 2.73291 -1.97012 0
M  V30 27367 O 2574.85 3.72655 -1.49971 0
M  V30 27368 N 2573.05 2.39743 -1.64231 0
M  V30 27369 H 2572.6 1.58992 -2.0268 0
M  V30 27370 H 2572.56 2.98081 -0.999761 0
M  V30 27371 N 2576.33 1.57568 0.0317248 0
M  V30 27372 C 2577.28 2.06384 1.03317 0
M  V30 27373 C 2578.25 0.952438 1.3608 0
M  V30 27374 O 2579.43 1.22283 1.46463 0
M  V30 27375 C 2576.57 2.54582 2.32985 0
M  V30 27376 C 2575.68 3.79502 2.06403 0
M  V30 27377 C 2574.82 4.16323 3.29922 0
M  V30 27378 C 2573.86 5.34168 2.98883 0
M  V30 27379 N 2572.99 5.66433 4.14847 0
M  V30 27380 H 2577.83 2.91691 0.609931 0
M  V30 27381 H 2575.37 1.44222 0.289548 0
M  V30 27382 H 2577.33 2.80593 3.08745 0
M  V30 27383 H 2575.96 1.72195 2.73036 0
M  V30 27384 H 2575.01 3.60592 1.21152 0
M  V30 27385 H 2576.32 4.65381 1.79504 0
M  V30 27386 H 2575.48 4.43447 4.14052 0
M  V30 27387 H 2574.22 3.2909 3.59932 0
M  V30 27388 H 2573.22 5.06799 2.13156 0
M  V30 27389 H 2574.45 6.23052 2.70154 0
M  V30 27390 H 2572.39 4.82159 4.44813 0
M  V30 27391 H 2572.31 6.46816 3.91362 0
M  V30 27392 H 2573.58 5.98133 4.99857 0
M  V30 27393 N 2577.81 -0.303946 1.54641 0
M  V30 27394 C 2578.75 -1.37476 1.85389 0
M  V30 27395 C 2579.72 -1.5051 0.702554 0
M  V30 27396 O 2580.91 -1.65416 0.950896 0
M  V30 27397 C 2578.05 -2.73529 2.10418 0
M  V30 27398 C 2577.16 -2.68968 3.38054 0
M  V30 27399 C 2576.3 -3.96996 3.52941 0
M  V30 27400 C 2575.34 -3.86821 4.7438 0
M  V30 27401 N 2574.47 -5.06618 4.86089 0
M  V30 27402 H 2579.31 -1.10555 2.76734 0
M  V30 27403 H 2576.85 -0.534781 1.37035 0
M  V30 27404 H 2578.81 -3.52648 2.22925 0
M  V30 27405 H 2577.44 -2.98717 1.22343 0
M  V30 27406 H 2576.49 -1.81731 3.34183 0
M  V30 27407 H 2577.8 -2.57338 4.27292 0
M  V30 27408 H 2576.96 -4.84551 3.65097 0
M  V30 27409 H 2575.69 -4.11456 2.61831 0
M  V30 27410 H 2574.7 -2.9765 4.62261 0
M  V30 27411 H 2575.92 -3.73908 5.66895 0
M  V30 27412 H 2573.87 -5.21547 3.97901 0
M  V30 27413 H 2573.79 -4.974 5.69324 0
M  V30 27414 H 2575.06 -5.95832 5.02598 0
M  V30 27415 N 2579.28 -1.47047 -0.566994 0
M  V30 27416 C 2580.23 -1.5521 -1.67015 0
M  V30 27417 C 2581.22 -0.411742 -1.55543 0
M  V30 27418 O 2582.41 -0.661092 -1.64191 0
M  V30 27419 C 2579.54 -1.5602 -3.05799 0
M  V30 27420 C 2578.63 -2.75405 -3.2251 0
M  V30 27421 N 2579.02 -4.00192 -3.09322 0
M  V30 27422 C 2577.31 -2.7196 -3.53488 0
M  V30 27423 C 2578.02 -4.80092 -3.28461 0
M  V30 27424 N 2576.99 -4.12239 -3.54345 0
M  V30 27425 H 2580.79 -2.49473 -1.55373 0
M  V30 27426 H 2578.31 -1.42905 -0.771478 0
M  V30 27427 H 2580.3 -1.59956 -3.84993 0
M  V30 27428 H 2578.96 -0.628452 -3.1856 0
M  V30 27429 H 2579.98 -4.31201 -2.86855 0
M  V30 27430 H 2576.65 -1.8788 -3.72837 0
M  V30 27431 H 2578.04 -5.88996 -3.23316 0
M  V30 27432 N 2580.76 0.812929 -1.35016 0
M  V30 27433 C 2582.01 1.56659 -1.27681 0
M  V30 27434 C 2582.33 1.9442 0.150324 0
M  V30 27435 O 2581.6 1.6309 1.08529 0
M  V30 27436 H 2580.18 0.580925 -0.469612 0
M  V30 27437 H 2582.84 0.970047 -1.69045 0
M  V30 27438 H 2581.94 2.48489 -1.88837 0
M  V30 27439 N 2582.24 1.18909 1.03433 0
M  V30 27440 C 2583.17 0.945486 2.13501 0
M  V30 27441 C 2584.15 -0.119159 1.69682 0
M  V30 27442 O 2585.34 0.0347411 1.94169 0
M  V30 27443 C 2582.47 0.477377 3.44003 0
M  V30 27444 C 2581.42 1.48323 4.01478 0
M  V30 27445 C 2580.75 0.872404 5.27535 0
M  V30 27446 C 2582.05 2.86185 4.36916 0
M  V30 27447 H 2583.74 1.86601 2.34138 0
M  V30 27448 H 2581.29 0.898604 1.12522 0
M  V30 27449 H 2583.24 0.294278 4.20371 0
M  V30 27450 H 2581.96 -0.478729 3.23072 0
M  V30 27451 H 2580.62 1.65338 3.27198 0
M  V30 27452 H 2580.27 -0.0910868 5.02918 0
M  V30 27453 H 2579.97 1.54403 5.66951 0
M  V30 27454 H 2581.49 0.699978 6.06575 0
M  V30 27455 H 2582.91 2.72785 5.04243 0
M  V30 27456 H 2581.31 3.50089 4.87399 0
M  V30 27457 H 2582.38 3.39254 3.4646 0
M  V30 27458 N 2583.72 -1.22452 0.992137 0
M  V30 27459 C 2585.13 -1.72967 0.702807 0
M  V30 27460 C 2585.48 -1.80013 -0.780368 0
M  V30 27461 O 2584.61 -1.44591 -1.61004 0
M  V30 27462 C 2585.2 -3.14133 1.26909 0
M  V30 27463 C 2583.76 -3.62057 1.02915 0
M  V30 27464 C 2582.91 -2.39962 1.38974 0
M  V30 27465 H 2585.86 -1.0781 1.16459 0
M  V30 27466 H 2585.88 -3.74954 0.647289 0
M  V30 27467 H 2585.39 -3.08973 2.34856 0
M  V30 27468 H 2583.49 -3.72585 -0.0337324 0
M  V30 27469 H 2583.6 -4.48228 1.69199 0
M  V30 27470 H 2581.97 -2.41533 0.808322 0
M  V30 27471 H 2582.75 -2.37463 2.47924 0
M  V30 27472 N 2585.2 -0.765242 -1.37774 0
M  V30 27473 C 2586.44 -0.325978 -1.99454 0
M  V30 27474 C 2586.77 1.09944 -1.61051 0
M  V30 27475 O 2586.04 1.7538 -0.872851 0
M  V30 27476 H 2584.62 -0.117538 -0.737695 0
M  V30 27477 H 2587.28 -0.981924 -1.68358 0
M  V30 27478 H 2586.37 -0.398407 -3.09547 0
M  V30 27479 N 2586.67 1.48939 -0.515251 0
M  V30 27480 C 2587.92 2.01683 0.0261007 0
M  V30 27481 C 2588.24 1.39886 1.36716 0
M  V30 27482 O 2589.44 1.84041 1.99603 0
M  V30 27483 C 2587.9 3.59769 0.0969479 0
M  V30 27484 C 2587.51 4.30545 -1.23833 0
M  V30 27485 C 2589.25 4.20409 0.587908 0
M  V30 27486 C 2587.16 5.80526 -1.12887 0
M  V30 27487 H 2586.09 0.753879 0.0135266 0
M  V30 27488 H 2588.74 1.71342 -0.656817 0
M  V30 27489 H 2587.12 3.86888 0.844626 0
M  V30 27490 H 2588.29 4.15114 -2.00042 0
M  V30 27491 H 2586.61 3.81713 -1.66385 0
M  V30 27492 H 2589.21 5.30261 0.687537 0
M  V30 27493 H 2589.55 3.84732 1.59019 0
M  V30 27494 H 2590.08 3.97665 -0.103652 0
M  V30 27495 H 2586.82 6.20753 -2.10586 0
M  V30 27496 H 2586.34 5.98411 -0.407905 0
M  V30 27497 H 2588.02 6.41866 -0.813445 0
M  V30 27498 N 2588.15 0.249709 1.55609 0
M  V30 27499 C 2589.4 -0.373513 1.98618 0
M  V30 27500 C 2589.72 -1.58262 1.13922 0
M  V30 27501 O 2588.99 -1.9463 0.222671 0
M  V30 27502 H 2587.57 -0.140993 0.733573 0
M  V30 27503 H 2590.23 0.34915 1.91747 0
M  V30 27504 H 2589.33 -0.680743 3.04585 0
M  V30 27505 N 2589.63 -1.57583 -0.0233682 0
M  V30 27506 C 2590.56 -2.09966 -1.02159 0
M  V30 27507 C 2591.54 -1.00347 -1.37348 0
M  V30 27508 O 2592.73 -1.27902 -1.46133 0
M  V30 27509 C 2589.86 -2.58375 -2.32077 0
M  V30 27510 C 2588.81 -3.72311 -2.11113 0
M  V30 27511 C 2588.14 -4.06947 -3.46841 0
M  V30 27512 C 2589.44 -5.00516 -1.49267 0
M  V30 27513 H 2591.13 -2.93619 -0.585506 0
M  V30 27514 H 2588.68 -1.41248 -0.280194 0
M  V30 27515 H 2590.63 -2.93644 -3.02243 0
M  V30 27516 H 2589.35 -1.71813 -2.77755 0
M  V30 27517 H 2588.01 -3.37399 -1.43378 0
M  V30 27518 H 2587.66 -3.17442 -3.90179 0
M  V30 27519 H 2587.36 -4.83694 -3.33638 0
M  V30 27520 H 2588.89 -4.44755 -4.18361 0
M  V30 27521 H 2590.3 -5.33706 -2.09359 0
M  V30 27522 H 2588.7 -5.81912 -1.46622 0
M  V30 27523 H 2589.77 -4.82721 -0.459132 0
M  V30 27524 N 2591.11 0.29574 -1.548 0
M  V30 27525 C 2592.33 1.05343 -1.78655 0
M  V30 27526 C 2592.76 1.79973 -0.546926 0
M  V30 27527 O 2592.12 1.7419 0.502732 0
M  V30 27528 C 2592.17 2.00555 -2.99683 0
M  V30 27529 O 2591.27 3.08948 -2.73176 0
M  V30 27530 H 2590.61 0.302356 -0.591166 0
M  V30 27531 H 2593.14 0.331562 -2.01896 0
M  V30 27532 H 2593.15 2.42926 -3.27797 0
M  V30 27533 H 2591.83 1.45643 -3.89565 0
M  V30 27534 H 2590.4 2.71055 -2.56093 0
M  V30 27535 N 2592.59 1.47346 0.559187 0
M  V30 27536 C 2593.82 1.57481 1.34191 0
M  V30 27537 C 2594.23 0.224294 1.87463 0
M  V30 27538 O 2593.59 -0.782156 1.6489 0
M  V30 27539 C 2593.64 2.59848 2.51319 0
M  V30 27540 O 2593.36 3.89656 2.00249 0
M  V30 27541 C 2594.86 2.80148 3.43558 0
M  V30 27542 H 2592.08 0.531843 0.409126 0
M  V30 27543 H 2594.62 1.92949 0.677575 0
M  V30 27544 H 2592.78 2.2732 3.13695 0
M  V30 27545 H 2593.19 4.45575 2.76701 0
M  V30 27546 H 2594.67 3.55642 4.22164 0
M  V30 27547 H 2595.14 1.87899 3.96977 0
M  V30 27548 H 2595.75 3.13865 2.86999 0
M  V30 27549 N 2594.07 -0.805758 1.35445 0
M  V30 27550 C 2595.29 -1.59938 1.3204 0
M  V30 27551 C 2595.72 -1.87837 -0.0993885 0
M  V30 27552 O 2595.07 -1.46617 -1.06645 0
M  V30 27553 C 2595.12 -2.90707 2.13359 0
M  V30 27554 O 2594.23 -3.83569 1.51487 0
M  V30 27555 H 2593.57 -0.485779 0.452675 0
M  V30 27556 H 2596.1 -0.999987 1.78498 0
M  V30 27557 H 2596.11 -3.40124 2.25344 0
M  V30 27558 H 2594.78 -2.69726 3.16577 0
M  V30 27559 H 2593.36 -3.42122 1.48346 0
M  V30 27560 N 2595.54 -1.19456 -1.02801 0
M  V30 27561 C 2596.47 -0.956795 -2.12997 0
M  V30 27562 C 2597.45 0.110159 -1.69743 0
M  V30 27563 O 2598.64 -0.0450379 -1.94148 0
M  V30 27564 C 2595.77 -0.495614 -3.43745 0
M  V30 27565 C 2594.72 -1.5045 -4.00685 0
M  V30 27566 C 2594.05 -0.900368 -5.27065 0
M  V30 27567 C 2595.35 -2.88498 -4.35392 0
M  V30 27568 H 2597.04 -1.8784 -2.33145 0
M  V30 27569 H 2594.59 -0.904559 -1.12043 0
M  V30 27570 H 2596.54 -0.316567 -4.20209 0
M  V30 27571 H 2595.27 0.461589 -3.23322 0
M  V30 27572 H 2593.93 -1.67071 -3.26317 0
M  V30 27573 H 2593.57 0.0644145 -5.02959 0
M  V30 27574 H 2593.27 -1.57407 -5.66124 0
M  V30 27575 H 2594.8 -0.732136 -6.06195 0
M  V30 27576 H 2596.21 -2.75455 -5.0279 0
M  V30 27577 H 2594.61 -3.52669 -4.85535 0
M  V30 27578 H 2595.68 -3.41087 -3.44656 0
M  V30 27579 N 2597.02 1.21924 -0.998617 0
M  V30 27580 C 2598.44 1.42921 -0.710328 0
M  V30 27581 C 2598.64 1.88316 0.7169 0
M  V30 27582 O 2597.69 2.04064 1.48708 0
M  V30 27583 C 2599.01 2.46597 -1.72076 0
M  V30 27584 C 2600.55 2.60389 -1.73686 0
M  V30 27585 C 2601.03 3.67291 -2.73607 0
M  V30 27586 N 2602.52 3.74755 -2.72236 0
M  V30 27587 C 2603.26 4.57081 -3.46214 0
M  V30 27588 N 2602.75 5.43354 -4.29812 0
M  V30 27589 N 2604.54 4.51445 -3.34894 0
M  V30 27590 H 2596.7 0.907666 -1.92029 0
M  V30 27591 H 2598.96 0.460761 -0.828495 0
M  V30 27592 H 2598.66 2.20201 -2.74234 0
M  V30 27593 H 2598.54 3.45296 -1.51824 0
M  V30 27594 H 2600.93 2.86126 -0.722223 0
M  V30 27595 H 2601.01 1.61946 -1.98008 0
M  V30 27596 H 2600.65 3.42301 -3.75223 0
M  V30 27597 H 2600.58 4.65316 -2.46553 0
M  V30 27598 H 2603.07 3.13116 -2.11581 0
M  V30 27599 H 2603.38 6.0321 -4.83071 0
M  V30 27600 H 2601.73 5.42917 -4.33897 0
M  V30 27601 H 2604.92 3.83073 -2.69022 0
M  V30 27602 H 2605.09 5.15372 -3.92805 0
M  V30 27603 N 2598.5 0.772537 1.37367 0
M  V30 27604 C 2599.91 0.402525 1.82309 0
M  V30 27605 C 2600.26 -1.07144 1.64362 0
M  V30 27606 O 2599.39 -1.82988 1.15517 0
M  V30 27607 C 2599.98 0.723835 3.30977 0
M  V30 27608 C 2598.54 0.406868 3.74195 0
M  V30 27609 C 2597.69 0.967264 2.59883 0
M  V30 27610 H 2600.64 0.967121 1.25827 0
M  V30 27611 H 2600.66 0.0087752 3.80499 0
M  V30 27612 H 2600.17 1.79666 3.44008 0
M  V30 27613 H 2598.27 -0.658608 3.66733 0
M  V30 27614 H 2598.39 0.915671 4.70268 0
M  V30 27615 H 2596.75 0.39146 2.51674 0
M  V30 27616 H 2597.53 2.04551 2.75706 0
M  V30 27617 N 2599.98 -1.48664 0.523142 0
M  V30 27618 C 2601.39 -1.58576 0.180539 0
M  V30 27619 C 2601.59 -1.52595 -1.31595 0
M  V30 27620 O 2600.65 -1.41143 -2.09368 0
M  V30 27621 C 2601.96 -2.90488 0.777 0
M  V30 27622 C 2603.51 -3.04002 0.745111 0
M  V30 27623 C 2603.99 -4.38565 1.32003 0
M  V30 27624 N 2605.48 -4.45114 1.28169 0
M  V30 27625 C 2606.21 -5.47728 1.6965 0
M  V30 27626 N 2605.71 -6.57333 2.18828 0
M  V30 27627 N 2607.5 -5.38571 1.60929 0
M  V30 27628 H 2599.65 -1.50794 1.49582 0
M  V30 27629 H 2601.91 -0.715603 0.621785 0
M  V30 27630 H 2601.62 -3.005 1.82737 0
M  V30 27631 H 2601.49 -3.7637 0.250136 0
M  V30 27632 H 2603.88 -2.93607 -0.29648 0
M  V30 27633 H 2603.96 -2.19748 1.30937 0
M  V30 27634 H 2603.61 -4.49714 2.36051 0
M  V30 27635 H 2603.54 -5.21494 0.73151 0
M  V30 27636 H 2606.03 -3.6649 0.921615 0
M  V30 27637 H 2606.34 -7.31759 2.48491 0
M  V30 27638 H 2604.69 -6.58314 2.22817 0
M  V30 27639 H 2607.88 -4.51838 1.22312 0
M  V30 27640 H 2608.05 -6.18411 1.93578 0
M  V30 27641 N 2601.46 -0.257958 -1.55475 0
M  V30 27642 C 2602.39 0.677823 -2.17901 0
M  V30 27643 C 2603.37 1.16481 -1.1345 0
M  V30 27644 O 2604.55 1.24093 -1.41892 0
M  V30 27645 C 2601.68 1.92244 -2.78855 0
M  V30 27646 C 2600.72 1.57239 -3.96457 0
M  V30 27647 S 2601.56 0.665408 -5.3135 0
M  V30 27648 C 2602.71 1.91878 -5.95763 0
M  V30 27649 H 2602.95 0.147344 -2.96935 0
M  V30 27650 H 2600.48 -0.0423295 -1.54342 0
M  V30 27651 H 2602.44 2.63691 -3.14606 0
M  V30 27652 H 2601.1 2.42405 -1.99746 0
M  V30 27653 H 2600.29 2.49807 -4.37736 0
M  V30 27654 H 2599.89 0.938262 -3.6204 0
M  V30 27655 H 2602.18 2.86477 -6.13952 0
M  V30 27656 H 2603.13 1.5493 -6.90943 0
M  V30 27657 H 2603.54 2.07591 -5.24944 0
M  V30 27658 N 2602.93 1.57593 0.0150108 0
M  V30 27659 C 2603.87 2.04293 1.03909 0
M  V30 27660 C 2604.88 0.958169 1.31617 0
M  V30 27661 O 2606.07 1.23524 1.28857 0
M  V30 27662 C 2603.17 2.41518 2.37744 0
M  V30 27663 C 2602.34 3.72545 2.29192 0
M  V30 27664 C 2601.4 3.96804 3.45591 0
M  V30 27665 O 2600.43 4.67674 3.24453 0
M  V30 27666 N 2601.63 3.43531 4.67939 0
M  V30 27667 H 2604.39 2.92766 0.640939 0
M  V30 27668 H 2601.95 1.60626 0.202691 0
M  V30 27669 H 2603.95 2.54872 3.1436 0
M  V30 27670 H 2602.52 1.58642 2.69354 0
M  V30 27671 H 2601.74 3.69411 1.37584 0
M  V30 27672 H 2603.02 4.58473 2.20634 0
M  V30 27673 H 2602.42 2.86113 4.88012 0
M  V30 27674 H 2600.98 3.62241 5.41871 0
M  V30 27675 N 2604.41 -0.287527 1.54955 0
M  V30 27676 C 2605.66 -1.02103 1.74875 0
M  V30 27677 C 2605.99 -1.868 0.541862 0
M  V30 27678 O 2605.24 -1.89824 -0.475959 0
M  V30 27679 C 2605.54 -1.94507 2.99836 0
M  V30 27680 C 2605.21 -1.25678 4.33031 0
M  V30 27681 C 2603.87 -1.0664 4.69235 0
M  V30 27682 C 2606.22 -0.765823 5.15543 0
M  V30 27683 C 2603.55 -0.37212 5.85519 0
M  V30 27684 C 2605.9 -0.0851989 6.32543 0
M  V30 27685 C 2604.57 0.117017 6.67397 0
M  V30 27686 H 2603.84 -0.373621 0.639913 0
M  V30 27687 H 2606.48 -0.294632 1.8922 0
M  V30 27688 H 2604.79 -2.7372 2.8033 0
M  V30 27689 H 2606.48 -2.51356 3.12444 0
M  V30 27690 H 2603.07 -1.41505 4.04567 0
M  V30 27691 H 2607.26 -0.900574 4.88061 0
M  V30 27692 H 2602.51 -0.204588 6.11058 0
M  V30 27693 H 2606.69 0.303058 6.9574 0
M  V30 27694 H 2604.32 0.656992 7.57356 0
M  V30 27695 N 2605.89 -1.47641 -0.551365 0
M  V30 27696 C 2607.12 -1.58439 -1.33835 0
M  V30 27697 C 2607.54 -0.237096 -1.866 0
M  V30 27698 O 2606.9 0.787965 -1.63281 0
M  V30 27699 C 2606.95 -2.6177 -2.4801 0
M  V30 27700 O 2606.05 -2.17446 -3.50415 0
M  V30 27701 H 2605.39 -0.532031 -0.397289 0
M  V30 27702 H 2607.92 -1.93466 -0.665725 0
M  V30 27703 H 2607.93 -2.82374 -2.94498 0
M  V30 27704 H 2606.61 -3.59594 -2.08962 0
M  V30 27705 H 2605.18 -2.06966 -3.10193 0
M  V30 27706 N 2607.37 0.798563 -1.3587 0
M  V30 27707 C 2608.59 1.59236 -1.32886 0
M  V30 27708 C 2609.02 1.87887 0.0894257 0
M  V30 27709 O 2608.38 1.4718 1.05866 0
M  V30 27710 C 2608.42 2.89571 -2.14897 0
M  V30 27711 O 2607.53 3.82761 -1.53519 0
M  V30 27712 H 2606.87 0.483372 -0.455245 0
M  V30 27713 H 2609.4 0.990507 -1.79025 0
M  V30 27714 H 2609.41 3.38924 -2.27145 0
M  V30 27715 H 2608.08 2.68043 -3.18003 0
M  V30 27716 H 2606.66 3.41331 -1.50159 0
M  V30 27717 N 2608.85 1.19999 1.02166 0
M  V30 27718 C 2610.26 1.00827 1.57133 0
M  V30 27719 C 2610.61 -0.436784 1.91276 0
M  V30 27720 O 2609.73 -1.31737 1.71681 0
M  V30 27721 C 2610.33 1.82398 2.85511 0
M  V30 27722 C 2608.89 1.67607 3.37024 0
M  V30 27723 C 2608.03 1.80648 2.10385 0
M  V30 27724 H 2610.99 1.34265 0.846082 0
M  V30 27725 H 2611.01 1.32435 3.56709 0
M  V30 27726 H 2610.52 2.87566 2.60629 0
M  V30 27727 H 2608.62 0.65055 3.66877 0
M  V30 27728 H 2608.73 2.48578 4.09568 0
M  V30 27729 H 2607.1 1.23782 2.22599 0
M  V30 27730 H 2607.88 2.87289 1.87935 0
M  V30 27731 N 2610.32 -1.21392 1.00507 0
M  V30 27732 C 2611.55 -1.94999 0.706401 0
M  V30 27733 C 2611.97 -1.73583 -0.7246 0
M  V30 27734 O 2611.33 -1.02272 -1.497 0
M  V30 27735 C 2611.38 -3.45486 1.03306 0
M  V30 27736 O 2610.48 -4.12168 0.138347 0
M  V30 27737 H 2609.83 -0.609614 0.263186 0
M  V30 27738 H 2612.36 -1.54149 1.34533 0
M  V30 27739 H 2612.37 -3.96057 0.979942 0
M  V30 27740 H 2611.04 -3.60397 2.07573 0
M  V30 27741 H 2609.62 -3.72074 0.247994 0
M  V30 27742 N 2611.8 -0.779811 -1.36955 0
M  V30 27743 C 2613.05 -0.347801 -1.99491 0
M  V30 27744 C 2613.38 1.0779 -1.619 0
M  V30 27745 O 2612.63 1.75755 -0.860741 0
M  V30 27746 C 2612.93 -0.447749 -3.54584 0
M  V30 27747 C 2612.6 -1.83287 -4.11967 0
M  V30 27748 C 2611.26 -2.21187 -4.27352 0
M  V30 27749 C 2613.61 -2.74027 -4.4335 0
M  V30 27750 C 2610.94 -3.49249 -4.71426 0
M  V30 27751 C 2613.29 -4.01506 -4.88851 0
M  V30 27752 C 2611.96 -4.39441 -5.02442 0
M  V30 27753 H 2611.23 -0.127269 -0.729989 0
M  V30 27754 H 2613.87 -0.995405 -1.63597 0
M  V30 27755 H 2612.18 0.283378 -3.90774 0
M  V30 27756 H 2613.87 -0.0946653 -4.00888 0
M  V30 27757 H 2610.46 -1.52832 -4.00425 0
M  V30 27758 H 2614.65 -2.46002 -4.31041 0
M  V30 27759 H 2609.9 -3.78524 -4.80135 0
M  V30 27760 H 2614.08 -4.7194 -5.121 0
M  V30 27761 H 2611.71 -5.3873 -5.36353 0
M  V30 27762 N 2613.28 1.48384 -0.531019 0
M  V30 27763 C 2614.53 2.028 0.00270571 0
M  V30 27764 C 2614.86 1.40718 1.33836 0
M  V30 27765 O 2614.13 0.55331 1.86464 0
M  V30 27766 C 2614.42 3.59888 0.123613 0
M  V30 27767 C 2614.27 4.32448 -1.23728 0
M  V30 27768 C 2615.59 4.31816 0.849892 0
M  V30 27769 H 2612.71 0.737 -0.000490713 0
M  V30 27770 H 2615.35 1.77096 -0.688249 0
M  V30 27771 H 2613.5 3.81918 0.71209 0
M  V30 27772 H 2615.17 4.21833 -1.86694 0
M  V30 27773 H 2613.42 3.93826 -1.81889 0
M  V30 27774 H 2614.09 5.40813 -1.10567 0
M  V30 27775 H 2616.56 4.14621 0.350499 0
M  V30 27776 H 2615.44 5.41415 0.90339 0
M  V30 27777 H 2615.7 3.99171 1.9004 0
M  V30 27778 N 2614.76 0.2662 1.55336 0
M  V30 27779 C 2615.98 -0.359625 2.04258 0
M  V30 27780 C 2616.41 -1.49342 1.14362 0
M  V30 27781 O 2615.77 -1.80756 0.1404 0
M  V30 27782 C 2615.81 -0.826573 3.50999 0
M  V30 27783 O 2614.92 -1.93459 3.64208 0
M  V30 27784 H 2614.26 -0.0757154 0.659669 0
M  V30 27785 H 2616.79 0.397896 2.00694 0
M  V30 27786 H 2616.8 -1.1247 3.92192 0
M  V30 27787 H 2615.47 0.00300343 4.159 0
M  V30 27788 H 2614.05 -1.63969 3.34916 0
M  V30 27789 N 2616.24 -1.57599 -0.0066531 0
M  V30 27790 C 2617.49 -1.89456 -0.692045 0
M  V30 27791 C 2617.8 -0.867617 -1.75305 0
M  V30 27792 O 2619 -1.07618 -2.4926 0
M  V30 27793 C 2617.46 -3.36291 -1.28204 0
M  V30 27794 C 2617.07 -4.47267 -0.256213 0
M  V30 27795 C 2618.81 -3.77267 -1.94601 0
M  V30 27796 C 2616.72 -5.85175 -0.855825 0
M  V30 27797 H 2615.65 -0.706927 -0.26224 0
M  V30 27798 H 2618.3 -1.83424 0.0528012 0
M  V30 27799 H 2616.68 -3.37139 -2.07734 0
M  V30 27800 H 2617.86 -4.57924 0.514003 0
M  V30 27801 H 2616.17 -4.15267 0.306935 0
M  V30 27802 H 2618.77 -4.77633 -2.40355 0
M  V30 27803 H 2619.11 -3.10432 -2.77376 0
M  V30 27804 H 2619.64 -3.7869 -1.21815 0
M  V30 27805 H 2616.38 -6.55466 -0.0670009 0
M  V30 27806 H 2615.9 -5.78194 -1.59535 0
M  V30 27807 H 2617.58 -6.32621 -1.35646 0
M  V30 27808 N 2617.72 0.279305 -1.55105 0
M  V30 27809 C 2618.94 1.03442 -1.79762 0
M  V30 27810 C 2619.37 1.79383 -0.565984 0
M  V30 27811 O 2618.72 1.74714 0.484229 0
M  V30 27812 C 2618.77 1.97366 -3.01793 0
M  V30 27813 O 2617.88 3.06033 -2.76437 0
M  V30 27814 H 2617.22 0.296069 -0.594339 0
M  V30 27815 H 2619.75 0.31013 -2.02236 0
M  V30 27816 H 2619.76 2.39436 -3.30355 0
M  V30 27817 H 2618.43 1.41503 -3.91088 0
M  V30 27818 H 2617.01 2.68323 -2.58954 0
M  V30 27819 N 2619.19 1.47931 0.543528 0
M  V30 27820 C 2620.14 1.61869 1.67037 0
M  V30 27821 C 2621.14 0.485519 1.62293 0
M  V30 27822 O 2622.34 0.663789 1.67314 0
M  V30 27823 H 2618.72 0.509662 0.552945 0
M  V30 27824 H 2620.69 2.56535 1.52421 0
M  V30 27825 C 2619.44 1.66296 3.05354 0
M  V30 27826 H 2618.76 2.52846 3.09692 0
M  V30 27827 H 2620.2 1.80095 3.83851 0
M  V30 27828 C 2618.66 0.39892 3.3453 0
M  V30 27829 O 2619.19 -0.494092 3.9865 0
M  V30 27830 N 2617.39 0.274751 2.89298 0
M  V30 27831 H 2616.94 1.0024 2.37297 0
M  V30 27832 H 2616.9 -0.570021 3.09189 0
M  V30 27833 N 2620.67 -0.791347 1.36292 0
M  V30 27834 C 2621.58 -1.93525 1.32609 0
M  V30 27835 C 2622.6 -1.72492 0.228572 0
M  V30 27836 O 2623.77 -1.96062 0.460605 0
M  V30 27837 C 2620.84 -3.28357 1.11277 0
M  V30 27838 C 2619.9 -3.62181 2.30486 0
M  V30 27839 C 2619.13 -4.90579 2.10162 0
M  V30 27840 O 2619.36 -5.60163 1.07582 0
M  V30 27841 O 2618.29 -5.23014 2.97893 0
M  V30 27842 H 2622.12 -1.99581 2.28913 0
M  V30 27843 H 2619.7 -0.931323 1.16819 0
M  V30 27844 H 2621.58 -4.09045 1.01291 0
M  V30 27845 H 2620.26 -3.23197 0.180349 0
M  V30 27846 H 2619.16 -2.81806 2.46041 0
M  V30 27847 H 2620.5 -3.72062 3.22228 0
M  V30 27848 N 2622.15 -1.2054 -1.01528 0
M  V30 27849 C 2623.39 -1.02766 -1.76688 0
M  V30 27850 C 2623.75 0.43248 -1.87066 0
M  V30 27851 O 2624.95 0.730435 -2.58685 0
M  V30 27852 C 2623.23 -1.69399 -3.14704 0
M  V30 27853 S 2624.78 -1.66746 -4.05883 0
M  V30 27854 H 2621.6 -0.368474 -0.608069 0
M  V30 27855 H 2624.2 -1.53116 -1.21555 0
M  V30 27856 H 2622.91 -2.74843 -3.04777 0
M  V30 27857 H 2622.44 -1.19186 -3.74911 0
M  V30 27858 H 2624.45 -0.701257 -4.9122 0
M  V30 27859 N 2623.63 1.20858 -1.01149 0
M  V30 27860 C 2624.86 1.938 -0.715906 0
M  V30 27861 C 2625.27 1.74693 0.726561 0
M  V30 27862 O 2624.61 1.05484 1.50395 0
M  V30 27863 C 2624.67 3.46297 -0.96533 0
M  V30 27864 C 2624.33 3.8916 -2.39591 0
M  V30 27865 C 2625.33 3.95336 -3.37647 0
M  V30 27866 C 2623.02 4.21292 -2.73529 0
M  V30 27867 C 2625.01 4.33047 -4.67706 0
M  V30 27868 C 2622.7 4.5868 -4.03802 0
M  V30 27869 C 2623.7 4.64529 -5.00702 0
M  V30 27870 O 2623.38 5.01061 -6.28644 0
M  V30 27871 H 2623.12 0.622938 -0.262535 0
M  V30 27872 H 2625.67 1.5444 -1.35415 0
M  V30 27873 H 2623.9 3.85757 -0.269915 0
M  V30 27874 H 2625.59 4.00463 -0.662121 0
M  V30 27875 H 2626.35 3.70681 -3.12763 0
M  V30 27876 H 2622.23 4.15933 -1.98797 0
M  V30 27877 H 2625.78 4.37528 -5.43337 0
M  V30 27878 H 2621.67 4.8279 -4.28468 0
M  V30 27879 H 2622.44 5.19072 -6.32856 0
M  V30 27880 N 2625.11 0.787064 1.3654 0
M  V30 27881 C 2626.04 0.141813 2.28761 0
M  V30 27882 C 2627.05 -0.647573 1.49366 0
M  V30 27883 O 2628.24 -0.483143 1.71837 0
M  V30 27884 C 2625.34 -0.82231 3.28772 0
M  V30 27885 C 2624.51 -0.0834825 4.3732 0
M  V30 27886 C 2623.57 -0.963205 5.17309 0
M  V30 27887 O 2622.6 -0.421319 5.67639 0
M  V30 27888 N 2623.8 -2.28774 5.33519 0
M  V30 27889 H 2626.56 0.933969 2.84776 0
M  V30 27890 H 2624.13 0.640761 1.4868 0
M  V30 27891 H 2626.12 -1.41462 3.79171 0
M  V30 27892 H 2624.69 -1.51536 2.73415 0
M  V30 27893 H 2623.91 0.689877 3.88116 0
M  V30 27894 H 2625.2 0.426447 5.0701 0
M  V30 27895 H 2624.59 -2.75217 4.94239 0
M  V30 27896 H 2623.15 -2.82975 5.8717 0
M  V30 27897 N 2626.58 -1.48101 0.53888 0
M  V30 27898 C 2627.81 -2.06596 0.0123321 0
M  V30 27899 C 2628.22 -1.39459 -1.27859 0
M  V30 27900 O 2627.56 -0.478938 -1.77347 0
M  V30 27901 C 2627.63 -3.58461 -0.273068 0
M  V30 27902 C 2627.29 -4.47527 0.925689 0
M  V30 27903 C 2628.29 -4.86761 1.82646 0
M  V30 27904 C 2625.97 -4.89304 1.1352 0
M  V30 27905 C 2627.97 -5.66552 2.92057 0
M  V30 27906 C 2625.65 -5.68864 2.23243 0
M  V30 27907 C 2626.65 -6.07397 3.12343 0
M  V30 27908 O 2626.34 -6.85357 4.20167 0
M  V30 27909 H 2626.07 -0.675122 0.0344402 0
M  V30 27910 H 2628.63 -1.91353 0.746527 0
M  V30 27911 H 2626.86 -3.7185 -1.06135 0
M  V30 27912 H 2628.54 -3.99046 -0.742772 0
M  V30 27913 H 2629.31 -4.551 1.67657 0
M  V30 27914 H 2625.19 -4.58789 0.450915 0
M  V30 27915 H 2628.73 -5.96548 3.6163 0
M  V30 27916 H 2624.63 -5.99938 2.38211 0
M  V30 27917 H 2625.4 -7.03725 4.17987 0
M  V30 27918 N 2628.06 -0.274434 -1.55192 0
M  V30 27919 C 2629.29 0.348788 -2.04446 0
M  V30 27920 C 2629.71 1.48733 -1.15152 0
M  V30 27921 O 2629.07 1.80679 -0.149984 0
M  V30 27922 C 2629.12 0.807947 -3.51432 0
M  V30 27923 O 2628.22 1.91525 -3.65229 0
M  V30 27924 H 2627.56 0.072216 -0.660061 0
M  V30 27925 H 2630.09 -0.408533 -2.0048 0
M  V30 27926 H 2630.1 1.10388 -3.92783 0
M  V30 27927 H 2628.78 -0.0250596 -4.15892 0
M  V30 27928 H 2627.35 1.6219 -3.35781 0
M  V30 27929 N 2629.54 1.576 -0.00170483 0
M  V30 27930 C 2630.95 1.78694 0.540879 0
M  V30 27931 C 2631.3 0.909278 1.73858 0
M  V30 27932 O 2630.43 0.112214 2.16109 0
M  V30 27933 C 2631.02 3.24074 0.988003 0
M  V30 27934 C 2629.58 3.46258 1.47588 0
M  V30 27935 C 2628.73 2.73979 0.427872 0
M  V30 27936 H 2631.68 1.57056 -0.227867 0
M  V30 27937 H 2631.7 3.3228 1.85392 0
M  V30 27938 H 2631.21 3.87926 0.116095 0
M  V30 27939 H 2629.31 2.87623 2.36863 0
M  V30 27940 H 2629.43 4.54941 1.50217 0
M  V30 27941 H 2627.79 2.38648 0.889892 0
M  V30 27942 H 2628.57 3.40532 -0.435098 0
M  V30 27943 N 2631.02 -0.271076 1.55251 0
M  V30 27944 C 2631.93 -1.35711 1.91363 0
M  V30 27945 C 2632.94 -1.53939 0.811102 0
M  V30 27946 O 2634.12 -1.68028 1.11034 0
M  V30 27947 C 2631.18 -2.69599 2.17985 0
M  V30 27948 C 2630.25 -2.60101 3.41535 0
M  V30 27949 C 2629.48 -3.87604 3.66878 0
M  V30 27950 O 2629.7 -4.88374 2.94698 0
M  V30 27951 O 2628.64 -3.87691 4.60412 0
M  V30 27952 H 2632.46 -1.08083 2.83817 0
M  V30 27953 H 2630.05 -0.469767 1.41822 0
M  V30 27954 H 2631.93 -3.48761 2.36524 0
M  V30 27955 H 2630.6 -2.97009 1.28713 0
M  V30 27956 H 2629.51 -1.79308 3.28328 0
M  V30 27957 H 2630.84 -2.3764 4.31032 0
M  V30 27958 N 2632.5 -1.48217 -0.535675 0
M  V30 27959 C 2633.74 -1.55944 -1.29181 0
M  V30 27960 C 2634.07 -0.230891 -1.93125 0
M  V30 27961 O 2633.33 0.7783 -1.79558 0
M  V30 27962 C 2633.63 -2.64216 -2.40675 0
M  V30 27963 C 2633.29 -4.06831 -1.94421 0
M  V30 27964 C 2631.95 -4.45648 -1.81524 0
M  V30 27965 C 2634.31 -4.96228 -1.59396 0
M  V30 27966 C 2631.63 -5.71674 -1.31929 0
M  V30 27967 C 2633.99 -6.22738 -1.11265 0
M  V30 27968 C 2632.65 -6.60417 -0.969808 0
M  V30 27969 H 2631.92 -0.570641 -0.472705 0
M  V30 27970 H 2634.57 -1.8191 -0.598405 0
M  V30 27971 H 2632.87 -2.32088 -3.15661 0
M  V30 27972 H 2634.57 -2.67412 -2.98817 0
M  V30 27973 H 2631.16 -3.76172 -2.05409 0
M  V30 27974 H 2635.34 -4.6692 -1.68223 0
M  V30 27975 H 2630.6 -5.99598 -1.19552 0
M  V30 27976 H 2634.77 -6.91408 -0.832332 0
M  V30 27977 H 2632.4 -7.57959 -0.583302 0
M  V30 27978 N 2633.97 0.784108 -1.3671 0
M  V30 27979 C 2635.39 1.35962 -1.2795 0
M  V30 27980 C 2635.74 1.96043 0.0783668 0
M  V30 27981 O 2634.86 1.9294 0.979955 0
M  V30 27982 C 2635.46 2.47191 -2.31693 0
M  V30 27983 C 2634.02 3.00544 -2.26606 0
M  V30 27984 C 2633.16 1.73662 -2.16187 0
M  V30 27985 H 2636.11 0.585332 -1.47511 0
M  V30 27986 H 2636.13 3.26349 -1.95644 0
M  V30 27987 H 2635.65 2.03433 -3.30509 0
M  V30 27988 H 2633.75 3.48709 -1.31274 0
M  V30 27989 H 2633.86 3.56998 -3.19514 0
M  V30 27990 H 2632.22 1.96104 -1.62528 0
M  V30 27991 H 2633.01 1.32025 -3.16898 0
M  V30 27992 N 2635.45 1.21076 1.00888 0
M  V30 27993 C 2636.38 0.99056 2.11448 0
M  V30 27994 C 2637.36 -0.08314 1.69897 0
M  V30 27995 O 2638.55 0.0759194 1.94052 0
M  V30 27996 C 2635.68 0.550238 3.42914 0
M  V30 27997 C 2634.63 1.56806 3.98241 0
M  V30 27998 C 2633.96 0.984105 5.25566 0
M  V30 27999 C 2635.26 2.95388 4.30747 0
M  V30 28000 H 2636.95 1.91525 2.30127 0
M  V30 28001 H 2634.5 0.922269 1.1059 0
M  V30 28002 H 2636.45 0.383379 4.19652 0
M  V30 28003 H 2635.18 -0.410093 3.24015 0
M  V30 28004 H 2633.83 1.72241 3.23618 0
M  V30 28005 H 2633.48 0.01561 5.02998 0
M  V30 28006 H 2633.18 1.66394 5.63548 0
M  V30 28007 H 2634.71 0.828484 6.04953 0
M  V30 28008 H 2636.12 2.83419 4.98344 0
M  V30 28009 H 2634.52 3.60349 4.79863 0
M  V30 28010 H 2635.59 3.46527 3.39186 0
M  V30 28011 N 2636.93 -1.2032 1.01789 0
M  V30 28012 C 2638.21 -1.85413 0.62301 0
M  V30 28013 C 2638.59 -1.91007 -0.898853 0
M  V30 28014 O 2637.94 -1.41887 -1.79109 0
M  V30 28015 C 2638.15 -3.24982 1.27231 0
M  V30 28016 C 2639.49 -4.01253 1.38857 0
M  V30 28017 O 2640.52 -3.3434 1.22863 0
M  V30 28018 O 2639.38 -5.21087 1.64715 0
M  V30 28019 H 2636.47 -0.798529 0.21513 0
M  V30 28020 H 2639.02 -1.27899 1.11535 0
M  V30 28021 H 2637.79 -3.15683 2.31215 0
M  V30 28022 H 2637.41 -3.90129 0.767138 0
M  V30 28023 N 2638.41 -0.794293 -1.3612 0
M  V30 28024 C 2639.66 -0.365499 -1.98361 0
M  V30 28025 C 2639.97 1.06994 -1.63742 0
M  V30 28026 O 2641.18 1.60125 -2.19254 0
M  V30 28027 C 2639.63 -0.602558 -3.5482 0
M  V30 28028 C 2639.24 -2.04974 -3.98359 0
M  V30 28029 C 2640.98 -0.238511 -4.23829 0
M  V30 28030 C 2638.89 -2.2332 -5.47615 0
M  V30 28031 H 2637.82 -0.132923 -0.742191 0
M  V30 28032 H 2640.47 -0.976617 -1.55353 0
M  V30 28033 H 2638.85 0.0783394 -3.95923 0
M  V30 28034 H 2640.03 -2.76743 -3.68442 0
M  V30 28035 H 2638.34 -2.37249 -3.42202 0
M  V30 28036 H 2640.94 -0.353798 -5.33528 0
M  V30 28037 H 2641.28 0.813935 -4.08266 0
M  V30 28038 H 2641.82 -0.872838 -3.88106 0
M  V30 28039 H 2638.56 -3.26965 -5.68132 0
M  V30 28040 H 2638.08 -1.5606 -5.79142 0
M  V30 28041 H 2639.75 -2.04271 -6.13907 0
M  V30 28042 N 2639.89 1.47813 -0.546727 0
M  V30 28043 C 2640.82 2.32682 0.195276 0
M  V30 28044 C 2641.8 1.43141 0.918956 0
M  V30 28045 O 2642.98 1.72009 0.90147 0
M  V30 28046 C 2640.11 3.24702 1.23231 0
M  V30 28047 C 2639.07 4.23401 0.625743 0
M  V30 28048 C 2638.39 5.04672 1.76665 0
M  V30 28049 C 2639.69 5.2066 -0.413606 0
M  V30 28050 H 2641.39 2.94968 -0.513236 0
M  V30 28051 H 2638.93 1.41844 -0.248266 0
M  V30 28052 H 2640.89 3.8291 1.75948 0
M  V30 28053 H 2639.61 2.60449 1.97063 0
M  V30 28054 H 2638.27 3.66404 0.119958 0
M  V30 28055 H 2637.92 4.36831 2.49375 0
M  V30 28056 H 2637.62 5.71487 1.36663 0
M  V30 28057 H 2639.14 5.65736 2.29728 0
M  V30 28058 H 2640.55 5.73294 0.0271035 0
M  V30 28059 H 2638.95 5.9562 -0.731929 0
M  V30 28060 H 2640.02 4.66776 -1.31334 0
M  V30 28061 N 2641.36 0.28266 1.55044 0
M  V30 28062 C 2642.31 -0.601526 2.22823 0
M  V30 28063 C 2643.28 -1.1439 1.20433 0
M  V30 28064 O 2644.47 -1.19181 1.48998 0
M  V30 28065 C 2641.61 -1.77627 2.95876 0
M  V30 28066 C 2640.72 -1.26703 4.13002 0
M  V30 28067 C 2639.85 -2.40418 4.7368 0
M  V30 28068 C 2638.89 -1.86535 5.82985 0
M  V30 28069 N 2638.03 -2.93751 6.37695 0
M  V30 28070 H 2642.87 -0.0169004 2.97995 0
M  V30 28071 H 2640.41 0.0034255 1.471 0
M  V30 28072 H 2642.37 -2.46691 3.36451 0
M  V30 28073 H 2641 -2.33281 2.23114 0
M  V30 28074 H 2640.05 -0.469247 3.77495 0
M  V30 28075 H 2641.36 -0.832431 4.91805 0
M  V30 28076 H 2640.51 -3.17461 5.17014 0
M  V30 28077 H 2639.25 -2.87196 3.94169 0
M  V30 28078 H 2638.26 -1.07973 5.39094 0
M  V30 28079 H 2639.48 -1.40683 6.64368 0
M  V30 28080 H 2637.43 -3.39898 5.61075 0
M  V30 28081 H 2637.35 -2.54731 7.11792 0
M  V30 28082 H 2638.61 -3.70748 6.85687 0
M  V30 28083 N 2642.84 -1.57597 0.0100627 0
M  V30 28084 C 2644.07 -1.95692 -0.686987 0
M  V30 28085 C 2644.49 -0.885548 -1.65951 0
M  V30 28086 O 2643.85 0.155398 -1.80633 0
M  V30 28087 C 2643.9 -3.32886 -1.38634 0
M  V30 28088 O 2643 -3.27901 -2.50109 0
M  V30 28089 H 2642.34 -0.638577 -0.181978 0
M  V30 28090 H 2644.87 -2.04493 0.0662482 0
M  V30 28091 H 2644.88 -3.68683 -1.74748 0
M  V30 28092 H 2643.56 -4.10413 -0.673339 0
M  V30 28093 H 2642.14 -3.03795 -2.16247 0
M  V30 28094 N 2644.32 0.262839 -1.55393 0
M  V30 28095 C 2645.27 1.32513 -1.88968 0
M  V30 28096 C 2646.24 1.48595 -0.742213 0
M  V30 28097 O 2647.42 1.62837 -0.994419 0
M  V30 28098 C 2644.56 2.67854 -2.17596 0
M  V30 28099 C 2643.68 2.59911 -3.45066 0
M  V30 28100 C 2642.81 3.87499 -3.63343 0
M  V30 28101 C 2641.85 3.74107 -4.84469 0
M  V30 28102 N 2640.99 4.93552 -4.9935 0
M  V30 28103 H 2645.83 1.03179 -2.79568 0
M  V30 28104 H 2643.36 0.498261 -1.38404 0
M  V30 28105 H 2645.32 3.46613 -2.32196 0
M  V30 28106 H 2643.95 2.95369 -1.3022 0
M  V30 28107 H 2643 1.72806 -3.38884 0
M  V30 28108 H 2644.32 2.45919 -4.33965 0
M  V30 28109 H 2643.47 4.747 -3.77815 0
M  V30 28110 H 2642.21 4.04369 -2.72648 0
M  V30 28111 H 2641.21 2.85289 -4.6999 0
M  V30 28112 H 2642.44 3.58746 -5.76609 0
M  V30 28113 H 2640.38 5.10814 -4.11589 0
M  V30 28114 H 2640.3 4.8213 -5.82311 0
M  V30 28115 H 2641.57 5.82297 -5.18218 0
M  V30 28116 N 2645.8 1.48499 0.527807 0
M  V30 28117 C 2647.03 1.60292 1.3082 0
M  V30 28118 C 2647.44 0.264007 1.86945 0
M  V30 28119 O 2646.8 -0.747005 1.66512 0
M  V30 28120 C 2646.85 2.6512 2.45751 0
M  V30 28121 O 2646.57 3.93816 1.91939 0
M  V30 28122 C 2648.07 2.87373 3.37538 0
M  V30 28123 H 2645.29 0.540401 0.397753 0
M  V30 28124 H 2647.84 1.94342 0.636495 0
M  V30 28125 H 2645.99 2.33923 3.08802 0
M  V30 28126 H 2646.4 4.51344 2.67187 0
M  V30 28127 H 2647.88 3.64517 4.14525 0
M  V30 28128 H 2648.36 1.96277 3.92902 0
M  V30 28129 H 2648.96 3.19883 2.80277 0
M  V30 28130 N 2647.28 -0.776847 1.37123 0
M  V30 28131 C 2648.53 -1.53047 1.31375 0
M  V30 28132 C 2648.84 -1.95339 -0.100982 0
M  V30 28133 O 2650.05 -2.70043 -0.280905 0
M  V30 28134 C 2648.5 -2.76342 2.30572 0
M  V30 28135 C 2648.11 -2.41169 3.77547 0
M  V30 28136 C 2649.85 -3.54297 2.33824 0
M  V30 28137 C 2647.76 -3.60935 4.68487 0
M  V30 28138 H 2646.69 -0.574572 0.488244 0
M  V30 28139 H 2649.34 -0.851343 1.62556 0
M  V30 28140 H 2647.72 -3.46118 1.92402 0
M  V30 28141 H 2648.9 -1.79209 4.24524 0
M  V30 28142 H 2647.21 -1.76398 3.7719 0
M  V30 28143 H 2649.81 -4.43305 2.98973 0
M  V30 28144 H 2650.15 -3.9379 1.35037 0
M  V30 28145 H 2650.69 -2.91513 2.70675 0
M  V30 28146 H 2647.42 -3.26527 5.68384 0
M  V30 28147 H 2646.94 -4.22017 4.26218 0
M  V30 28148 H 2648.62 -4.2781 4.85373 0
M  V30 28149 N 2648.76 -1.2161 -1.00244 0
M  V30 28150 C 2649.69 -0.935438 -2.09242 0
M  V30 28151 C 2650.7 0.0823308 -1.62592 0
M  V30 28152 O 2651.89 -0.150487 -1.77865 0
M  V30 28153 C 2648.99 -0.383512 -3.36723 0
M  V30 28154 C 2648.16 -1.45623 -4.12447 0
M  V30 28155 C 2647.22 -0.913082 -5.18217 0
M  V30 28156 O 2646.25 -1.59711 -5.46334 0
M  V30 28157 N 2647.45 0.270377 -5.7987 0
M  V30 28158 H 2650.21 -1.87377 -2.33902 0
M  V30 28159 H 2647.78 -1.12169 -1.16746 0
M  V30 28160 H 2649.77 -0.0056927 -4.047 0
M  V30 28161 H 2648.34 0.459704 -3.09201 0
M  V30 28162 H 2647.56 -2.00778 -3.39237 0
M  V30 28163 H 2648.85 -2.17825 -4.59815 0
M  V30 28164 H 2648.24 0.843097 -5.59382 0
M  V30 28165 H 2646.8 0.58968 -6.49127 0
M  V30 28166 N 2650.23 1.19778 -1.02425 0
M  V30 28167 C 2651.17 2.2158 -0.54568 0
M  V30 28168 C 2652.14 1.5732 0.410996 0
M  V30 28169 O 2653.33 1.85603 0.329191 0
M  V30 28170 C 2650.46 3.3808 0.204914 0
M  V30 28171 C 2649.5 4.20675 -0.702484 0
M  V30 28172 S 2650.33 4.89294 -2.17604 0
M  V30 28173 C 2651.49 6.09208 -1.43583 0
M  V30 28174 H 2651.72 2.61831 -1.40825 0
M  V30 28175 H 2649.26 1.29951 -0.833794 0
M  V30 28176 H 2651.21 4.05608 0.631853 0
M  V30 28177 H 2649.88 2.96272 1.04315 0
M  V30 28178 H 2649.07 5.03849 -0.123281 0
M  V30 28179 H 2648.67 3.58441 -1.06754 0
M  V30 28180 H 2650.96 6.73664 -0.719925 0
M  V30 28181 H 2651.91 6.71603 -2.24399 0
M  V30 28182 H 2652.31 5.56697 -0.93535 0
M  V30 28183 N 2651.71 0.801501 1.35697 0
M  V30 28184 C 2652.64 0.222699 2.32436 0
M  V30 28185 C 2653.62 -0.649029 1.57231 0
M  V30 28186 O 2654.81 -0.580354 1.85325 0
M  V30 28187 C 2651.94 -0.633659 3.4147 0
M  V30 28188 C 2650.89 0.139158 4.27774 0
M  V30 28189 C 2650.22 -0.838573 5.28083 0
M  V30 28190 C 2651.52 1.33526 5.04944 0
M  V30 28191 H 2653.21 1.03091 2.81092 0
M  V30 28192 H 2650.76 0.497179 1.35145 0
M  V30 28193 H 2652.71 -1.0486 4.08145 0
M  V30 28194 H 2651.43 -1.4747 2.91411 0
M  V30 28195 H 2650.09 0.53522 3.62672 0
M  V30 28196 H 2649.74 -1.67498 4.74293 0
M  V30 28197 H 2649.44 -0.325837 5.86696 0
M  V30 28198 H 2650.97 -1.25183 5.9763 0
M  V30 28199 H 2652.38 0.995448 5.64592 0
M  V30 28200 H 2650.78 1.78212 5.73027 0
M  V30 28201 H 2651.85 2.1245 4.35882 0
M  V30 28202 N 2653.19 -1.47521 0.554558 0
M  V30 28203 C 2654.42 -2.06872 0.0342934 0
M  V30 28204 C 2654.83 -1.40761 -1.25824 0
M  V30 28205 O 2654.19 -0.503247 -1.75424 0
M  V30 28206 C 2654.24 -3.61111 -0.167764 0
M  V30 28207 O 2653.96 -4.24742 1.07358 0
M  V30 28208 C 2655.46 -4.37321 -0.725613 0
M  V30 28209 H 2652.68 -0.669514 0.0446393 0
M  V30 28210 H 2655.23 -1.89563 0.767214 0
M  V30 28211 H 2653.38 -3.77942 -0.850806 0
M  V30 28212 H 2653.8 -5.1724 0.869654 0
M  V30 28213 H 2655.27 -5.45931 -0.816298 0
M  V30 28214 H 2655.75 -4.03423 -1.73628 0
M  V30 28215 H 2656.35 -4.25228 -0.0783544 0
M  V30 28216 N 2654.67 -0.290879 -1.54892 0
M  V30 28217 C 2655.58 0.59941 -2.26813 0
M  V30 28218 C 2656.59 1.15694 -1.29965 0
M  V30 28219 O 2657.77 1.18388 -1.6293 0
M  V30 28220 C 2654.83 1.75976 -2.98719 0
M  V30 28221 C 2653.9 1.23733 -4.11082 0
M  V30 28222 C 2653.13 2.34238 -4.7955 0
M  V30 28223 O 2653.35 3.53928 -4.47316 0
M  V30 28224 O 2652.29 2.01502 -5.67169 0
M  V30 28225 H 2656.11 0.0163027 -3.03696 0
M  V30 28226 H 2653.7 -0.0577018 -1.49289 0
M  V30 28227 H 2655.58 2.43601 -3.43855 0
M  V30 28228 H 2654.25 2.32966 -2.24741 0
M  V30 28229 H 2653.16 0.527098 -3.70368 0
M  V30 28230 H 2654.49 0.712984 -4.87009 0
M  V30 28231 N 2656.15 1.57589 -0.0184203 0
M  V30 28232 C 2657.11 2.08496 0.951949 0
M  V30 28233 C 2658.11 0.997896 1.2609 0
M  V30 28234 O 2659.3 1.25989 1.20302 0
M  V30 28235 C 2656.43 2.54186 2.27161 0
M  V30 28236 H 2657.62 2.9551 0.511255 0
M  V30 28237 H 2655.18 1.54607 0.229416 0
M  V30 28238 H 2655.91 1.7047 2.75881 0
M  V30 28239 H 2655.7 3.33594 2.06052 0
M  V30 28240 H 2657.19 2.93833 2.96735 0
M  V30 28241 N 2657.62 -0.254594 1.5553 0
M  V30 28242 C 2658.87 -0.985162 1.77264 0
M  V30 28243 C 2659.2 -1.85264 0.582319 0
M  V30 28244 O 2658.48 -1.89919 -0.419632 0
M  V30 28245 C 2658.76 -1.85219 3.08814 0
M  V30 28246 C 2658.61 -1.01342 4.38235 0
M  V30 28247 C 2659.93 -2.83606 3.36535 0
M  V30 28248 H 2657.05 -0.356731 0.644913 0
M  V30 28249 H 2659.69 -0.256202 1.88265 0
M  V30 28250 H 2657.84 -2.47371 2.99566 0
M  V30 28251 H 2659.52 -0.411189 4.59464 0
M  V30 28252 H 2657.76 -0.317498 4.32637 0
M  V30 28253 H 2658.43 -1.6537 5.26647 0
M  V30 28254 H 2660.91 -2.3159 3.45695 0
M  V30 28255 H 2659.78 -3.41399 4.29811 0
M  V30 28256 H 2660.04 -3.59677 2.5707 0
M  V30 28257 N 2659.1 -1.48777 -0.519925 0
M  V30 28258 C 2660.05 -1.64047 -1.6235 0
M  V30 28259 C 2661.02 -0.482279 -1.58944 0
M  V30 28260 O 2662.2 -0.707003 -1.77218 0
M  V30 28261 C 2659.34 -1.69552 -3.00576 0
M  V30 28262 C 2658.46 -2.96547 -3.1414 0
M  V30 28263 C 2657.59 -2.9315 -4.42986 0
M  V30 28264 C 2656.63 -4.14805 -4.50114 0
M  V30 28265 N 2655.77 -4.09428 -5.70363 0
M  V30 28266 H 2660.61 -2.58284 -1.48639 0
M  V30 28267 H 2658.14 -1.28078 -0.723493 0
M  V30 28268 H 2660.1 -1.70726 -3.80668 0
M  V30 28269 H 2658.73 -0.787973 -3.13035 0
M  V30 28270 H 2657.78 -3.05072 -2.27234 0
M  V30 28271 H 2659.1 -3.86533 -3.15268 0
M  V30 28272 H 2658.25 -2.92781 -5.3138 0
M  V30 28273 H 2656.99 -2.0091 -4.44395 0
M  V30 28274 H 2655.99 -4.15439 -3.60126 0
M  V30 28275 H 2657.22 -5.08216 -4.50436 0
M  V30 28276 H 2655.17 -3.20014 -5.72649 0
M  V30 28277 H 2655.08 -4.93129 -5.73027 0
M  V30 28278 H 2656.35 -4.13133 -6.61016 0
M  V30 28279 N 2660.58 0.769564 -1.37534 0
M  V30 28280 C 2661.49 1.91391 -1.35671 0
M  V30 28281 C 2662.51 1.72107 -0.255985 0
M  V30 28282 O 2663.68 1.95305 -0.491739 0
M  V30 28283 C 2660.75 3.26545 -1.16487 0
M  V30 28284 C 2659.81 3.58468 -2.36219 0
M  V30 28285 C 2659.04 4.87173 -2.1794 0
M  V30 28286 O 2659.26 5.5838 -1.1648 0
M  V30 28287 O 2658.2 5.18208 -3.06176 0
M  V30 28288 H 2662.02 1.95914 -2.32059 0
M  V30 28289 H 2659.61 0.912621 -1.18286 0
M  V30 28290 H 2661.49 4.07382 -1.07785 0
M  V30 28291 H 2660.17 3.22869 -0.231744 0
M  V30 28292 H 2659.07 2.77856 -2.50493 0
M  V30 28293 H 2660.41 3.66889 -3.28106 0
M  V30 28294 N 2662.06 1.22139 0.995977 0
M  V30 28295 C 2663.31 1.04203 1.73165 0
M  V30 28296 C 2663.63 -0.424197 1.9033 0
M  V30 28297 O 2662.9 -1.30536 1.46072 0
M  V30 28298 H 2661.48 0.382591 0.641586 0
M  V30 28299 H 2664.14 1.536 1.19971 0
M  V30 28300 H 2663.24 1.51736 2.72732 0
M  V30 28301 N 2663.54 -1.19233 1.03059 0
M  V30 28302 C 2664.76 -1.93457 0.747604 0
M  V30 28303 C 2665.19 -1.75081 -0.687617 0
M  V30 28304 O 2664.54 -1.05425 -1.47497 0
M  V30 28305 C 2664.59 -3.43217 1.10611 0
M  V30 28306 O 2663.7 -4.11782 0.225743 0
M  V30 28307 H 2663.04 -0.603894 0.276057 0
M  V30 28308 H 2665.57 -1.51261 1.37773 0
M  V30 28309 H 2665.58 -3.93889 1.06373 0
M  V30 28310 H 2664.25 -3.55913 2.15171 0
M  V30 28311 H 2662.83 -3.71465 0.32686 0
M  V30 28312 N 2665.01 -0.808686 -1.3527 0
M  V30 28313 C 2665.94 -0.235022 -2.32314 0
M  V30 28314 C 2666.93 0.640682 -1.57573 0
M  V30 28315 O 2668.11 0.570518 -1.85631 0
M  V30 28316 C 2665.24 0.615541 -3.41802 0
M  V30 28317 C 2664.19 -0.161842 -4.27694 0
M  V30 28318 C 2663.52 0.810556 -5.28521 0
M  V30 28319 C 2664.82 -1.36202 -5.04229 0
M  V30 28320 H 2666.51 -1.0458 -2.80541 0
M  V30 28321 H 2664.06 -0.504339 -1.34879 0
M  V30 28322 H 2666.01 1.02695 -4.08695 0
M  V30 28323 H 2664.74 1.45923 -2.92189 0
M  V30 28324 H 2663.4 -0.554446 -3.62383 0
M  V30 28325 H 2663.04 1.6498 -4.75174 0
M  V30 28326 H 2662.74 0.294719 -5.8686 0
M  V30 28327 H 2664.27 1.22012 -5.98285 0
M  V30 28328 H 2665.68 -1.02538 -5.64056 0
M  V30 28329 H 2664.08 -1.81249 -5.72074 0
M  V30 28330 H 2665.15 -2.14759 -4.34749 0
M  V30 28331 N 2666.49 1.47225 -0.562374 0
M  V30 28332 C 2667.44 2.27095 0.202927 0
M  V30 28333 C 2668.43 1.34664 0.880587 0
M  V30 28334 O 2669.62 1.58983 0.778041 0
M  V30 28335 C 2666.75 3.20547 1.229 0
M  V30 28336 C 2665.83 4.20459 0.554493 0
M  V30 28337 N 2666.22 5.04383 -0.378384 0
M  V30 28338 C 2664.52 4.38624 0.807777 0
M  V30 28339 C 2665.22 5.76572 -0.770684 0
M  V30 28340 N 2664.2 5.43458 -0.124359 0
M  V30 28341 H 2668 2.89366 -0.514247 0
M  V30 28342 H 2665.52 1.57827 -0.382682 0
M  V30 28343 H 2667.51 3.76456 1.79127 0
M  V30 28344 H 2666.17 2.59834 1.94721 0
M  V30 28345 H 2667.18 5.12399 -0.75283 0
M  V30 28346 H 2663.86 3.89077 1.51411 0
M  V30 28347 H 2665.25 6.54072 -1.53753 0
M  V30 28348 N 2667.97 0.299089 1.54736 0
M  V30 28349 C 2668.93 -0.564973 2.22128 0
M  V30 28350 C 2669.93 -1.06278 1.20671 0
M  V30 28351 O 2671.12 -0.959119 1.45419 0
M  V30 28352 C 2668.26 -1.78203 2.90614 0
M  V30 28353 H 2669.45 0.0237975 2.99891 0
M  V30 28354 H 2667 0.0499063 1.5622 0
M  V30 28355 H 2667.74 -2.41068 2.16925 0
M  V30 28356 H 2667.52 -1.43274 3.64986 0
M  V30 28357 H 2669.01 -2.39594 3.4203 0
M  V30 28358 N 2669.45 -1.57577 0.0267774 0
M  V30 28359 C 2670.86 -1.5616 -0.329593 0
M  V30 28360 C 2671.06 -1.03216 -1.73057 0
M  V30 28361 O 2670.12 -0.677847 -2.43231 0
M  V30 28362 C 2671.43 -3.00159 -0.180337 0
M  V30 28363 C 2672.98 -3.11974 -0.253279 0
M  V30 28364 C 2673.46 -4.57807 -0.13284 0
M  V30 28365 N 2674.95 -4.62811 -0.189898 0
M  V30 28366 C 2675.68 -5.73273 -0.120454 0
M  V30 28367 N 2675.18 -6.928 -5.85384e-05 0
M  V30 28368 N 2676.97 -5.6183 -0.174271 0
M  V30 28369 H 2669.12 -1.90322 0.94293 0
M  V30 28370 H 2671.39 -0.875368 0.363916 0
M  V30 28371 H 2671.09 -3.42836 0.784636 0
M  V30 28372 H 2670.97 -3.65002 -0.951501 0
M  V30 28373 H 2673.35 -2.6921 -1.20871 0
M  V30 28374 H 2673.43 -2.49856 0.54822 0
M  V30 28375 H 2673.08 -5.01251 0.819161 0
M  V30 28376 H 2673.01 -5.17902 -0.953173 0
M  V30 28377 H 2675.5 -3.76837 -0.283191 0
M  V30 28378 H 2675.81 -7.72786 0.0463024 0
M  V30 28379 H 2674.16 -6.94991 0.0346911 0
M  V30 28380 H 2677.35 -4.6734 -0.266712 0
M  V30 28381 H 2677.52 -6.47895 -0.116688 0
M  V30 28382 N 2670.93 0.246342 -1.55663 0
M  V30 28383 C 2672.2 0.997169 -1.68273 0
M  V30 28384 C 2672.58 2.03348 -0.566821 0
M  V30 28385 O 2671.93 2.24424 0.429648 0
M  V30 28386 C 2672.14 1.63001 -3.08597 0
M  V30 28387 C 2673.49 2.13165 -3.67214 0
M  V30 28388 O 2674.51 1.7294 -3.114 0
M  V30 28389 O 2673.37 2.87023 -4.65059 0
M  V30 28390 H 2670.47 0.464193 -0.684437 0
M  V30 28391 H 2673.01 0.240085 -1.67993 0
M  V30 28392 H 2671.78 0.88046 -3.81266 0
M  V30 28393 H 2671.41 2.45328 -3.1289 0
M  V30 28394 N 2672.4 1.4905 0.512027 0
M  V30 28395 C 2673.82 1.51309 1.09373 0
M  V30 28396 C 2674.17 0.293005 1.94 0
M  V30 28397 O 2673.29 -0.59824 2.07966 0
M  V30 28398 C 2673.89 2.74179 1.99026 0
M  V30 28399 C 2672.45 2.79251 2.5238 0
M  V30 28400 C 2671.59 2.45075 1.29744 0
M  V30 28401 H 2674.54 1.55907 0.296439 0
M  V30 28402 H 2674.56 2.53716 2.83564 0
M  V30 28403 H 2674.08 3.62962 1.37406 0
M  V30 28404 H 2672.18 1.94722 3.1767 0
M  V30 28405 H 2672.29 3.81144 2.90286 0
M  V30 28406 H 2670.65 1.96615 1.61909 0
M  V30 28407 H 2671.44 3.36119 0.698496 0
M  V30 28408 N 2673.88 -0.762259 1.3794 0
M  V30 28409 C 2675.13 -1.52338 1.33869 0
M  V30 28410 C 2675.46 -1.94059 -0.073862 0
M  V30 28411 O 2674.74 -1.64787 -1.03323 0
M  V30 28412 C 2675.02 -2.78193 2.28649 0
M  V30 28413 C 2674.87 -2.42666 3.78726 0
M  V30 28414 C 2676.19 -3.80175 2.21709 0
M  V30 28415 H 2673.31 -0.552641 0.487603 0
M  V30 28416 H 2675.95 -0.873737 1.68718 0
M  V30 28417 H 2674.1 -3.33627 1.99061 0
M  V30 28418 H 2675.77 -1.93073 4.18951 0
M  V30 28419 H 2674.02 -1.75237 3.9683 0
M  V30 28420 H 2674.69 -3.32672 4.40492 0
M  V30 28421 H 2677.16 -3.34259 2.47811 0
M  V30 28422 H 2676.04 -4.65943 2.90152 0
M  V30 28423 H 2676.3 -4.25131 1.21308 0
M  V30 28424 N 2675.36 -1.22666 -0.989486 0
M  V30 28425 C 2676.61 -1.0512 -1.7261 0
M  V30 28426 C 2676.93 0.414097 -1.90552 0
M  V30 28427 O 2676.2 1.2976 -1.46763 0
M  V30 28428 H 2674.78 -0.385988 -0.639548 0
M  V30 28429 H 2677.44 -1.54234 -1.19155 0
M  V30 28430 H 2676.54 -1.5318 -2.71923 0
M  V30 28431 N 2676.84 1.18685 -1.0369 0
M  V30 28432 C 2678.09 1.88198 -0.736605 0
M  V30 28433 C 2678.41 1.8051 0.737633 0
M  V30 28434 O 2677.68 1.22091 1.53201 0
M  V30 28435 H 2676.26 0.6967 -0.269479 0
M  V30 28436 H 2678.92 1.4405 -1.31285 0
M  V30 28437 H 2678.02 2.9433 -1.03807 0
M  V30 28438 N 2678.32 0.815849 1.34839 0
M  V30 28439 C 2679.55 0.41333 2.02729 0
M  V30 28440 C 2679.96 -0.97857 1.6146 0
M  V30 28441 O 2679.32 -1.63211 0.816613 0
M  V30 28442 C 2679.37 0.497739 3.58057 0
M  V30 28443 O 2679.09 1.83477 3.97829 0
M  V30 28444 C 2680.59 0.0892118 4.4321 0
M  V30 28445 H 2677.81 0.16674 0.649953 0
M  V30 28446 H 2680.35 1.10204 1.72265 0
M  V30 28447 H 2678.51 -0.142818 3.87137 0
M  V30 28448 H 2678.92 1.80404 4.92498 0
M  V30 28449 H 2680.4 0.199371 5.5164 0
M  V30 28450 H 2680.87 -0.966496 4.28434 0
M  V30 28451 H 2681.48 0.703288 4.19445 0
M  V30 28452 N 2679.8 -1.46924 0.570174 0
M  V30 28453 C 2681.02 -2.06824 0.056233 0
M  V30 28454 C 2681.44 -1.42088 -1.24324 0
M  V30 28455 O 2680.8 -0.521825 -1.74881 0
M  V30 28456 C 2680.85 -3.61268 -0.129454 0
M  V30 28457 O 2680.57 -4.23579 1.11857 0
M  V30 28458 C 2682.07 -4.38066 -0.679189 0
M  V30 28459 H 2679.29 -0.669002 0.0517378 0
M  V30 28460 H 2681.83 -1.88738 0.787277 0
M  V30 28461 H 2679.99 -3.78823 -0.810672 0
M  V30 28462 H 2680.4 -5.16289 0.924466 0
M  V30 28463 H 2681.88 -5.46766 -0.758348 0
M  V30 28464 H 2682.35 -4.05242 -1.69339 0
M  V30 28465 H 2682.96 -4.25287 -0.0332489 0
M  V30 28466 N 2681.27 -0.307291 -1.54575 0
M  V30 28467 C 2682.18 0.57532 -2.27436 0
M  V30 28468 C 2683.2 1.14309 -1.31185 0
M  V30 28469 O 2684.38 1.16653 -1.64177 0
M  V30 28470 C 2681.44 1.72798 -3.00569 0
M  V30 28471 C 2680.5 1.19366 -4.12371 0
M  V30 28472 C 2679.73 2.29139 -4.82007 0
M  V30 28473 O 2679.96 3.49164 -4.51044 0
M  V30 28474 O 2678.89 1.95475 -5.69274 0
M  V30 28475 H 2682.72 -0.0159092 -3.03696 0
M  V30 28476 H 2680.3 -0.0735326 -1.49219 0
M  V30 28477 H 2682.18 2.3994 -3.4642 0
M  V30 28478 H 2680.86 2.3057 -2.27199 0
M  V30 28479 H 2679.77 0.487786 -3.70906 0
M  V30 28480 H 2681.1 0.66129 -4.87737 0
M  V30 28481 N 2682.75 1.57561 -0.0351337 0
M  V30 28482 C 2684 1.92047 0.642195 0
M  V30 28483 C 2684.33 0.91209 1.71788 0
M  V30 28484 O 2683.58 -0.0780809 1.95544 0
M  V30 28485 C 2683.88 3.33252 1.29143 0
M  V30 28486 C 2683.55 4.49574 0.345525 0
M  V30 28487 C 2682.21 4.81125 0.0851929 0
M  V30 28488 C 2684.56 5.20315 -0.303661 0
M  V30 28489 C 2681.89 5.8077 -0.832029 0
M  V30 28490 C 2684.24 6.2094 -1.20897 0
M  V30 28491 C 2682.9 6.50928 -1.47814 0
M  V30 28492 H 2682.17 0.70275 0.234996 0
M  V30 28493 H 2684.82 1.91248 -0.0981865 0
M  V30 28494 H 2683.13 3.30341 2.1067 0
M  V30 28495 H 2684.82 3.57209 1.82217 0
M  V30 28496 H 2681.41 4.24944 0.558609 0
M  V30 28497 H 2685.6 4.96165 -0.115602 0
M  V30 28498 H 2680.85 6.02348 -1.04821 0
M  V30 28499 H 2685.03 6.74872 -1.71816 0
M  V30 28500 H 2682.65 7.27956 -2.19052 0
M  V30 28501 N 2684.23 -0.238084 1.55791 0
M  V30 28502 C 2685.16 -1.29842 1.9407 0
M  V30 28503 C 2686.14 -1.49752 0.806752 0
M  V30 28504 O 2687.33 -1.62212 1.06775 0
M  V30 28505 C 2684.46 -2.65149 2.24307 0
M  V30 28506 C 2683.41 -2.59921 3.40037 0
M  V30 28507 C 2682.74 -3.99105 3.55836 0
M  V30 28508 C 2684.04 -2.16139 4.7548 0
M  V30 28509 H 2685.73 -0.980514 2.82889 0
M  V30 28510 H 2683.28 -0.470229 1.36106 0
M  V30 28511 H 2685.23 -3.3947 2.49676 0
M  V30 28512 H 2683.95 -2.98594 1.32323 0
M  V30 28513 H 2682.61 -1.88057 3.1469 0
M  V30 28514 H 2682.26 -4.2983 2.61258 0
M  V30 28515 H 2681.96 -3.96493 4.33667 0
M  V30 28516 H 2683.48 -4.75113 3.83536 0
M  V30 28517 H 2684.9 -2.80197 5.00163 0
M  V30 28518 H 2683.29 -2.24621 5.56476 0
M  V30 28519 H 2684.36 -1.11325 4.71948 0
M  V30 28520 N 2685.71 -1.4932 -0.504115 0
M  V30 28521 C 2686.95 -1.58649 -1.25844 0
M  V30 28522 C 2687.28 -0.271804 -1.92591 0
M  V30 28523 O 2686.54 0.740038 -1.81168 0
M  V30 28524 C 2686.84 -2.69262 -2.35017 0
M  V30 28525 C 2686.5 -4.10863 -1.85748 0
M  V30 28526 C 2685.16 -4.49398 -1.7203 0
M  V30 28527 C 2687.52 -4.99497 -1.48835 0
M  V30 28528 C 2684.84 -5.74344 -1.19773 0
M  V30 28529 C 2687.2 -6.24958 -0.980312 0
M  V30 28530 C 2685.86 -6.62326 -0.829505 0
M  V30 28531 H 2685.13 -0.580539 -0.460495 0
M  V30 28532 H 2687.78 -1.83139 -0.559684 0
M  V30 28533 H 2686.08 -2.38732 -3.10668 0
M  V30 28534 H 2687.78 -2.7369 -2.93078 0
M  V30 28535 H 2684.37 -3.80444 -1.97383 0
M  V30 28536 H 2688.55 -4.70384 -1.58281 0
M  V30 28537 H 2683.81 -6.01999 -1.06806 0
M  V30 28538 H 2687.98 -6.93018 -0.685487 0
M  V30 28539 H 2685.61 -7.59026 -0.422397 0
M  V30 28540 N 2687.19 0.754933 -1.38342 0
M  V30 28541 C 2688.43 1.51626 -1.34675 0
M  V30 28542 C 2688.76 1.94096 0.0635695 0
M  V30 28543 O 2688.04 1.65332 1.02447 0
M  V30 28544 C 2688.32 2.76977 -2.30121 0
M  V30 28545 C 2688.18 2.40654 -3.80008 0
M  V30 28546 C 2689.49 3.78994 -2.23722 0
M  V30 28547 H 2686.61 0.550048 -0.490527 0
M  V30 28548 H 2689.26 0.864777 -1.69179 0
M  V30 28549 H 2687.41 3.32567 -2.00827 0
M  V30 28550 H 2689.08 1.90849 -4.19969 0
M  V30 28551 H 2687.32 1.7313 -3.97754 0
M  V30 28552 H 2687.99 3.30332 -4.4225 0
M  V30 28553 H 2690.47 3.3294 -2.4958 0
M  V30 28554 H 2689.34 4.64398 -2.92618 0
M  V30 28555 H 2689.6 4.24482 -1.23561 0
M  V30 28556 N 2688.66 1.23189 0.982967 0
M  V30 28557 C 2690.07 1.05775 1.53846 0
M  V30 28558 C 2690.43 -0.37571 1.92569 0
M  V30 28559 O 2689.55 -1.26208 1.75785 0
M  V30 28560 C 2690.15 1.91389 2.79563 0
M  V30 28561 C 2688.7 1.78244 3.31521 0
M  V30 28562 C 2687.85 1.87249 2.04531 0
M  V30 28563 H 2690.8 1.36889 0.802938 0
M  V30 28564 H 2690.82 1.43717 3.52315 0
M  V30 28565 H 2690.34 2.95712 2.51348 0
M  V30 28566 H 2688.44 0.76694 3.64621 0
M  V30 28567 H 2688.55 2.61482 4.01452 0
M  V30 28568 H 2686.91 1.30801 2.18548 0
M  V30 28569 H 2687.7 2.93123 1.787 0
M  V30 28570 N 2690.14 -1.18133 1.04318 0
M  V30 28571 C 2691.07 -2.24057 0.657338 0
M  V30 28572 C 2692.05 -1.66654 -0.340649 0
M  V30 28573 O 2693.24 -1.92948 -0.22019 0
M  V30 28574 C 2690.37 -3.47293 0.0221325 0
M  V30 28575 C 2689.32 -4.17461 0.943931 0
M  V30 28576 C 2688.65 -5.3442 0.173067 0
M  V30 28577 C 2689.95 -4.70673 2.26417 0
M  V30 28578 H 2691.64 -2.56586 1.54285 0
M  V30 28579 H 2689.19 -1.23334 0.743284 0
M  V30 28580 H 2691.14 -4.206 -0.259533 0
M  V30 28581 H 2689.86 -3.14004 -0.898268 0
M  V30 28582 H 2688.52 -3.46055 1.21002 0
M  V30 28583 H 2688.17 -4.9738 -0.74982 0
M  V30 28584 H 2687.87 -5.82303 0.7872 0
M  V30 28585 H 2689.4 -6.10516 -0.101521 0
M  V30 28586 H 2690.81 -5.35661 2.04303 0
M  V30 28587 H 2689.21 -5.291 2.83149 0
M  V30 28588 H 2690.28 -3.87957 2.9089 0
M  V30 28589 N 2691.62 -0.822988 -1.34405 0
M  V30 28590 C 2692.87 -0.407492 -1.97541 0
M  V30 28591 C 2693.18 1.03497 -1.65975 0
M  V30 28592 O 2694.39 1.55438 -2.22601 0
M  V30 28593 C 2692.84 -0.677685 -3.53462 0
M  V30 28594 C 2692.45 -2.13377 -3.93921 0
M  V30 28595 C 2694.2 -0.328358 -4.23228 0
M  V30 28596 C 2692.1 -2.34885 -5.42755 0
M  V30 28597 H 2691.03 -0.148636 -0.739205 0
M  V30 28598 H 2693.68 -1.00935 -1.53246 0
M  V30 28599 H 2692.07 -0.00565926 -3.96 0
M  V30 28600 H 2693.24 -2.84496 -3.62489 0
M  V30 28601 H 2691.56 -2.44454 -3.37092 0
M  V30 28602 H 2694.15 -0.466888 -5.32658 0
M  V30 28603 H 2694.5 0.727152 -4.099 0
M  V30 28604 H 2695.03 -0.954964 -3.86167 0
M  V30 28605 H 2691.77 -3.38942 -5.61069 0
M  V30 28606 H 2691.29 -1.6831 -5.75701 0
M  V30 28607 H 2692.97 -2.17247 -6.09436 0
M  V30 28608 N 2693.1 1.4662 -0.577957 0
M  V30 28609 C 2694.05 2.30258 0.158008 0
M  V30 28610 C 2695.02 1.40329 0.888645 0
M  V30 28611 O 2696.2 1.69281 0.880253 0
M  V30 28612 C 2693.34 3.24705 1.16879 0
M  V30 28613 C 2692.45 4.29732 0.442088 0
M  V30 28614 C 2691.59 5.1131 1.43998 0
M  V30 28615 C 2690.63 6.08091 0.699413 0
M  V30 28616 N 2689.76 6.82554 1.64513 0
M  V30 28617 H 2694.6 2.92666 -0.561294 0
M  V30 28618 H 2692.14 1.44241 -0.288616 0
M  V30 28619 H 2694.1 3.77903 1.76763 0
M  V30 28620 H 2692.73 2.64117 1.85586 0
M  V30 28621 H 2691.78 3.79428 -0.271699 0
M  V30 28622 H 2693.09 4.98612 -0.13708 0
M  V30 28623 H 2692.25 5.68762 2.11176 0
M  V30 28624 H 2690.99 4.4238 2.05307 0
M  V30 28625 H 2689.99 5.49798 0.0138251 0
M  V30 28626 H 2691.22 6.79038 0.0917746 0
M  V30 28627 H 2689.16 6.16338 2.24642 0
M  V30 28628 H 2689.08 7.47678 1.11865 0
M  V30 28629 H 2690.35 7.44566 2.30741 0
M  V30 28630 N 2694.58 0.315484 1.5441 0
M  V30 28631 C 2695.51 -0.546999 2.27003 0
M  V30 28632 C 2696.49 -1.12603 1.27494 0
M  V30 28633 O 2697.67 -1.15267 1.56292 0
M  V30 28634 C 2694.8 -1.71196 3.02174 0
M  V30 28635 C 2693.76 -1.26261 4.08952 0
M  V30 28636 C 2693.08 -2.51388 4.7192 0
M  V30 28637 C 2694.38 -0.383327 5.20891 0
M  V30 28638 H 2696.08 0.0585043 2.99343 0
M  V30 28639 H 2693.62 0.0295781 1.4397 0
M  V30 28640 H 2695.58 -2.32155 3.51685 0
M  V30 28641 H 2694.3 -2.34393 2.27437 0
M  V30 28642 H 2692.96 -0.675999 3.60313 0
M  V30 28643 H 2692.61 -3.12931 3.93806 0
M  V30 28644 H 2692.31 -2.22017 5.44043 0
M  V30 28645 H 2693.83 -3.13124 5.242 0
M  V30 28646 H 2695.24 -0.898983 5.66208 0
M  V30 28647 H 2693.64 -0.182752 5.99822 0
M  V30 28648 H 2694.71 0.587906 4.81323 0
M  V30 28649 N 2696.05 -1.5754 0.0434891 0
M  V30 28650 C 2697.3 -1.92385 -0.632001 0
M  V30 28651 C 2697.63 -0.921187 -1.71302 0
M  V30 28652 O 2696.88 0.0677096 -1.95583 0
M  V30 28653 C 2697.18 -3.33932 -1.27374 0
M  V30 28654 C 2696.85 -4.49751 -0.321678 0
M  V30 28655 C 2695.51 -4.81163 -0.0596765 0
M  V30 28656 C 2697.86 -5.20146 0.33125 0
M  V30 28657 C 2695.19 -5.80321 0.862817 0
M  V30 28658 C 2697.54 -6.2029 1.24189 0
M  V30 28659 C 2696.21 -6.50135 1.51264 0
M  V30 28660 H 2695.48 -0.703987 -0.231266 0
M  V30 28661 H 2698.12 -1.91193 0.108327 0
M  V30 28662 H 2696.43 -3.31454 -2.08915 0
M  V30 28663 H 2698.13 -3.5817 -1.8032 0
M  V30 28664 H 2694.72 -4.25234 -0.536065 0
M  V30 28665 H 2698.9 -4.96097 0.141913 0
M  V30 28666 H 2694.16 -6.01783 1.08014 0
M  V30 28667 H 2698.33 -6.73951 1.75393 0
M  V30 28668 H 2695.96 -7.26784 2.22909 0
M  V30 28669 N 2697.53 0.229818 -1.55915 0
M  V30 28670 C 2698.76 0.97112 -1.82354 0
M  V30 28671 C 2699.17 1.78779 -0.619262 0
M  V30 28672 O 2698.51 1.78797 0.421565 0
M  V30 28673 C 2698.58 1.94405 -3.02402 0
M  V30 28674 C 2698.24 1.31269 -4.37741 0
M  V30 28675 C 2699.24 0.706666 -5.15075 0
M  V30 28676 C 2696.92 1.32694 -4.84456 0
M  V30 28677 C 2698.92 0.123301 -6.37281 0
M  V30 28678 C 2696.6 0.739724 -6.06606 0
M  V30 28679 C 2697.6 0.138951 -6.82859 0
M  V30 28680 O 2697.29 -0.439148 -8.027 0
M  V30 28681 H 2697.02 0.29059 -0.610355 0
M  V30 28682 H 2699.57 0.25271 -2.03839 0
M  V30 28683 H 2697.8 2.70123 -2.76714 0
M  V30 28684 H 2699.49 2.5502 -3.15784 0
M  V30 28685 H 2700.26 0.688047 -4.80095 0
M  V30 28686 H 2696.14 1.78394 -4.25084 0
M  V30 28687 H 2699.68 -0.346247 -6.9674 0
M  V30 28688 H 2695.58 0.755729 -6.41061 0
M  V30 28689 H 2696.35 -0.332665 -8.17824 0
M  V30 28690 N 2699.01 1.49585 0.49619 0
M  V30 28691 C 2700.24 1.63031 1.27391 0
M  V30 28692 C 2700.65 0.303601 1.86343 0
M  V30 28693 O 2700.01 -0.711517 1.68059 0
M  V30 28694 C 2700.06 2.70273 2.40072 0
M  V30 28695 O 2699.78 3.97799 1.83542 0
M  V30 28696 C 2701.28 2.94468 3.31366 0
M  V30 28697 H 2698.5 0.548716 0.386201 0
M  V30 28698 H 2701.05 1.95649 0.595129 0
M  V30 28699 H 2699.2 2.4042 3.03771 0
M  V30 28700 H 2699.62 4.5691 2.57553 0
M  V30 28701 H 2701.09 3.73228 4.067 0
M  V30 28702 H 2701.57 2.04567 3.8865 0
M  V30 28703 H 2702.17 3.25756 2.73429 0
M  V30 28704 N 2700.49 -0.747586 1.3874 0
M  V30 28705 C 2701.42 -1.87489 1.39176 0
M  V30 28706 C 2702.4 -1.6815 0.256823 0
M  V30 28707 O 2703.58 -1.88654 0.460795 0
M  V30 28708 C 2700.71 -3.2509 1.22203 0
M  V30 28709 C 2699.67 -3.59043 2.32964 0
M  V30 28710 C 2698.99 -4.95446 2.01091 0
M  V30 28711 C 2700.29 -3.63304 3.75244 0
M  V30 28712 H 2701.99 -1.87382 2.33513 0
M  V30 28713 H 2699.53 -0.900114 1.12401 0
M  V30 28714 H 2701.49 -4.03615 1.21131 0
M  V30 28715 H 2700.21 -3.25693 0.243298 0
M  V30 28716 H 2698.87 -2.82841 2.33231 0
M  V30 28717 H 2698.52 -4.92614 1.01687 0
M  V30 28718 H 2698.22 -5.19131 2.75276 0
M  V30 28719 H 2699.74 -5.76342 2.01648 0
M  V30 28720 H 2701.16 -4.3193 3.76974 0
M  V30 28721 H 2699.55 -3.98501 4.48684 0
M  V30 28722 H 2700.62 -2.63393 4.07127 0
M  V30 28723 N 2701.97 -1.23709 -0.97642 0
M  V30 28724 C 2702.9 -1.04627 -2.08747 0
M  V30 28725 C 2703.88 0.0380657 -1.70057 0
M  V30 28726 O 2705.06 -0.127342 -1.93782 0
M  V30 28727 C 2702.19 -0.640962 -3.41334 0
M  V30 28728 C 2701.15 -1.67309 -3.93944 0
M  V30 28729 C 2700.47 -1.1231 -5.22772 0
M  V30 28730 C 2701.77 -3.06705 -4.22764 0
M  V30 28731 H 2703.47 -1.97559 -2.24968 0
M  V30 28732 H 2701.01 -0.951266 -1.08106 0
M  V30 28733 H 2702.97 -0.494507 -4.18488 0
M  V30 28734 H 2701.69 0.324042 -3.24989 0
M  V30 28735 H 2700.35 -1.80761 -3.18937 0
M  V30 28736 H 2700 -0.148965 -5.02779 0
M  V30 28737 H 2699.7 -1.81277 -5.58939 0
M  V30 28738 H 2701.22 -0.988585 -6.02544 0
M  V30 28739 H 2702.63 -2.96532 -4.90654 0
M  V30 28740 H 2701.03 -3.72945 -4.7014 0
M  V30 28741 H 2702.1 -3.55398 -3.29879 0
M  V30 28742 N 2703.44 1.17579 -1.04943 0
M  V30 28743 C 2704.69 1.87111 -0.753156 0
M  V30 28744 C 2705.01 1.81768 0.722475 0
M  V30 28745 O 2706.21 2.46748 1.1326 0
M  V30 28746 C 2704.67 3.35717 -1.29701 0
M  V30 28747 C 2704.28 3.49567 -2.8019 0
M  V30 28748 C 2706.02 4.10593 -1.07767 0
M  V30 28749 C 2703.93 4.92182 -3.27889 0
M  V30 28750 H 2702.86 0.700861 -0.278046 0
M  V30 28751 H 2705.51 1.32795 -1.2664 0
M  V30 28752 H 2703.89 3.89554 -0.711591 0
M  V30 28753 H 2705.06 3.05959 -3.44566 0
M  V30 28754 H 2703.38 2.88108 -3.00637 0
M  V30 28755 H 2705.98 5.158 -1.40908 0
M  V30 28756 H 2706.32 4.16297 -0.0153033 0
M  V30 28757 H 2706.85 3.62954 -1.62816 0
M  V30 28758 H 2703.59 4.9165 -4.33544 0
M  V30 28759 H 2703.11 5.3647 -2.68254 0
M  V30 28760 H 2704.79 5.60939 -3.22422 0
M  V30 28761 N 2704.92 0.830104 1.33967 0
M  V30 28762 C 2705.86 0.202222 2.27302 0
M  V30 28763 C 2706.83 -0.645554 1.49236 0
M  V30 28764 O 2708.02 -0.607731 1.78435 0
M  V30 28765 C 2705.14 -0.716874 3.31027 0
M  V30 28766 C 2704.19 0.0543021 4.26465 0
M  V30 28767 S 2705.02 1.40631 5.16704 0
M  V30 28768 C 2706.18 0.492277 6.23961 0
M  V30 28769 H 2706.41 0.99351 2.80208 0
M  V30 28770 H 2703.95 0.626384 1.41123 0
M  V30 28771 H 2705.9 -1.24158 3.91274 0
M  V30 28772 H 2704.56 -1.48175 2.76953 0
M  V30 28773 H 2703.76 -0.644698 4.9986 0
M  V30 28774 H 2703.36 0.509787 3.70509 0
M  V30 28775 H 2705.65 -0.313351 6.76775 0
M  V30 28776 H 2706.59 1.19611 6.97925 0
M  V30 28777 H 2707 0.0775168 5.64447 0
M  V30 28778 N 2706.4 -1.46311 0.585725 0
M  V30 28779 C 2707.65 -2.01971 0.0723135 0
M  V30 28780 C 2707.97 -1.4593 -1.29342 0
M  V30 28781 O 2707.24 -0.645141 -1.84972 0
M  V30 28782 H 2705.82 -0.746623 0.0237422 0
M  V30 28783 H 2708.48 -1.79379 0.762186 0
M  V30 28784 H 2707.58 -3.121 0.00558253 0
M  V30 28785 N 2707.88 -0.323668 -1.54241 0
M  V30 28786 C 2709.13 0.279771 -1.9975 0
M  V30 28787 C 2709.44 1.53238 -1.21563 0
M  V30 28788 O 2710.65 2.21182 -1.57451 0
M  V30 28789 C 2709.1 0.549052 -3.55687 0
M  V30 28790 C 2708.71 -0.68651 -4.42709 0
M  V30 28791 C 2710.46 1.11244 -4.09665 0
M  V30 28792 C 2708.36 -0.389126 -5.90118 0
M  V30 28793 H 2707.29 0.108317 -0.746179 0
M  V30 28794 H 2709.94 -0.435908 -1.78247 0
M  V30 28795 H 2708.33 1.32492 -3.73178 0
M  V30 28796 H 2709.5 -1.46196 -4.36994 0
M  V30 28797 H 2707.81 -1.17012 -3.99621 0
M  V30 28798 H 2710.41 1.34956 -5.17389 0
M  V30 28799 H 2710.75 2.06184 -3.61654 0
M  V30 28800 H 2711.29 0.397751 -3.95806 0
M  V30 28801 H 2708.03 -1.30771 -6.42323 0
M  V30 28802 H 2707.55 0.348617 -5.98786 0
M  V30 28803 H 2709.23 0.00100267 -6.47 0
M  V30 28804 N 2709.36 1.57515 -0.0518432 0
M  V30 28805 C 2710.6 1.92717 0.62179 0
M  V30 28806 C 2710.93 0.930259 1.70811 0
M  V30 28807 O 2710.19 -0.0573364 1.95616 0
M  V30 28808 C 2710.49 3.34603 1.25601 0
M  V30 28809 C 2710.15 4.49915 0.297822 0
M  V30 28810 C 2708.81 4.81188 0.0341584 0
M  V30 28811 C 2711.17 5.19963 -0.35883 0
M  V30 28812 C 2708.49 5.79855 -0.893581 0
M  V30 28813 C 2710.85 6.19623 -1.27476 0
M  V30 28814 C 2709.51 6.49324 -1.54709 0
M  V30 28815 H 2708.78 0.705203 0.227529 0
M  V30 28816 H 2711.43 1.91133 -0.118465 0
M  V30 28817 H 2709.73 3.32557 2.07155 0
M  V30 28818 H 2711.43 3.59121 1.78418 0
M  V30 28819 H 2708.02 4.25513 0.513506 0
M  V30 28820 H 2712.2 4.96015 -0.16822 0
M  V30 28821 H 2707.46 6.01202 -1.11203 0
M  V30 28822 H 2711.63 6.73012 -1.78965 0
M  V30 28823 H 2709.26 7.25592 -2.26761 0
M  V30 28824 N 2710.84 -0.221546 1.56035 0
M  V30 28825 C 2711.79 -1.27804 1.88812 0
M  V30 28826 C 2712.77 -1.42288 0.751202 0
M  V30 28827 O 2713.96 -1.45103 1.01362 0
M  V30 28828 C 2711.09 -2.62846 2.20833 0
M  V30 28829 C 2710.18 -2.52263 3.40916 0
M  V30 28830 N 2710.57 -2.11332 4.59535 0
M  V30 28831 C 2708.87 -2.83222 3.44531 0
M  V30 28832 C 2709.57 -2.12001 5.41692 0
M  V30 28833 N 2708.54 -2.52489 4.81405 0
M  V30 28834 H 2712.34 -0.95248 2.78038 0
M  V30 28835 H 2709.86 -0.430107 1.56601 0
M  V30 28836 H 2711.86 -3.39123 2.42489 0
M  V30 28837 H 2710.52 -2.96247 1.3292 0
M  V30 28838 H 2711.53 -1.82463 4.84693 0
M  V30 28839 H 2708.2 -3.20995 2.66961 0
M  V30 28840 H 2709.59 -1.8248 6.46646 0
M  V30 28841 N 2712.31 -1.49846 -0.48825 0
M  V30 28842 C 2713.26 -1.67957 -1.60914 0
M  V30 28843 C 2714.26 -0.545418 -1.60379 0
M  V30 28844 O 2715.46 -0.725429 -1.64735 0
M  V30 28845 H 2711.84 -0.529833 -0.533649 0
M  V30 28846 H 2713.81 -2.62016 -1.42795 0
M  V30 28847 C 2712.56 -1.77514 -2.98972 0
M  V30 28848 H 2711.88 -2.64166 -3.00094 0
M  V30 28849 H 2713.32 -1.94217 -3.76903 0
M  V30 28850 C 2711.78 -0.522804 -3.32819 0
M  V30 28851 O 2712.31 0.345795 -4.00209 0
M  V30 28852 N 2710.51 -0.381933 -2.88079 0
M  V30 28853 H 2710.06 -1.08978 -2.33413 0
M  V30 28854 H 2710.02 0.454874 -3.11092 0
M  V30 28855 N 2713.79 0.740218 -1.39135 0
M  V30 28856 C 2714.7 1.8847 -1.397 0
M  V30 28857 C 2715.72 1.71525 -0.292434 0
M  V30 28858 O 2716.89 1.94218 -0.533055 0
M  V30 28859 C 2713.96 3.24001 -1.23387 0
M  V30 28860 C 2713.02 3.53377 -2.43769 0
M  V30 28861 C 2712.25 4.82441 -2.28225 0
M  V30 28862 O 2712.48 5.55784 -1.28298 0
M  V30 28863 O 2711.41 5.11597 -3.17099 0
M  V30 28864 H 2715.24 1.90948 -2.36162 0
M  V30 28865 H 2712.82 0.887325 -1.20195 0
M  V30 28866 H 2714.7 4.05004 -1.16402 0
M  V30 28867 H 2713.38 3.22305 -0.300177 0
M  V30 28868 H 2712.28 2.72481 -2.5633 0
M  V30 28869 H 2713.62 3.59846 -3.35815 0
M  V30 28870 N 2715.27 1.24225 0.969846 0
M  V30 28871 C 2716.55 0.988693 1.68773 0
M  V30 28872 C 2716.93 -0.489636 2.05343 0
M  V30 28873 O 2716.27 -1.46342 1.75489 0
M  V30 28874 C 2716.48 1.90946 2.92131 0
M  V30 28875 C 2717.83 2.1791 3.64418 0
M  V30 28876 O 2718.86 1.88581 3.02185 0
M  V30 28877 O 2717.72 2.67706 4.76441 0
M  V30 28878 H 2714.81 0.373743 0.73773 0
M  V30 28879 H 2717.36 1.35314 1.02413 0
M  V30 28880 H 2716.13 2.90836 2.61783 0
M  V30 28881 H 2715.75 1.54805 3.66226 0
M  V30 28882 N 2716.75 -1.1702 1.05565 0
M  V30 28883 C 2717.68 -2.23347 0.681065 0
M  V30 28884 C 2718.66 -1.67006 -0.322954 0
M  V30 28885 O 2719.84 -1.9317 -0.199712 0
M  V30 28886 C 2716.97 -3.4725 0.0589663 0
M  V30 28887 C 2715.93 -4.16437 0.988155 0
M  V30 28888 C 2715.25 -5.34206 0.22974 0
M  V30 28889 C 2716.55 -4.68245 2.31396 0
M  V30 28890 H 2718.25 -2.54936 1.56997 0
M  V30 28891 H 2715.79 -1.22539 0.756324 0
M  V30 28892 H 2717.75 -4.20852 -0.214908 0
M  V30 28893 H 2716.47 -3.14939 -0.864913 0
M  V30 28894 H 2715.13 -3.44752 1.24666 0
M  V30 28895 H 2714.78 -4.98147 -0.697024 0
M  V30 28896 H 2714.48 -5.81435 0.848917 0
M  V30 28897 H 2716 -6.10589 -0.0367621 0
M  V30 28898 H 2717.42 -5.33464 2.09973 0
M  V30 28899 H 2715.81 -5.26067 2.88745 0
M  V30 28900 H 2716.88 -3.8485 2.94989 0
M  V30 28901 N 2718.23 -0.837197 -1.33524 0
M  V30 28902 C 2719.17 -0.26721 -2.29248 0
M  V30 28903 C 2720.14 0.616044 -1.54253 0
M  V30 28904 O 2721.33 0.554667 -1.8256 0
M  V30 28905 C 2718.47 0.553092 -3.40639 0
M  V30 28906 C 2717.58 -0.353997 -4.30547 0
M  V30 28907 C 2716.72 0.477246 -5.29052 0
M  V30 28908 C 2715.75 -0.428338 -6.10599 0
M  V30 28909 N 2714.89 0.364678 -7.01152 0
M  V30 28910 H 2719.73 -1.08882 -2.77396 0
M  V30 28911 H 2717.27 -0.548404 -1.36495 0
M  V30 28912 H 2719.23 1.04415 -4.03923 0
M  V30 28913 H 2717.86 1.33968 -2.93687 0
M  V30 28914 H 2716.91 -0.963353 -3.68 0
M  V30 28915 H 2718.22 -1.04973 -4.87629 0
M  V30 28916 H 2717.37 1.0322 -5.97855 0
M  V30 28917 H 2716.11 1.20642 -4.72543 0
M  V30 28918 H 2715.12 -0.995314 -5.40716 0
M  V30 28919 H 2716.34 -1.15585 -6.69191 0
M  V30 28920 H 2714.29 1.07726 -6.47094 0
M  V30 28921 H 2714.21 -0.27237 -7.55509 0
M  V30 28922 H 2715.47 0.901918 -7.74265 0
M  V30 28923 N 2719.7 1.45999 -0.593476 0
M  V30 28924 C 2720.65 2.27474 0.154711 0
M  V30 28925 C 2721.64 1.36502 0.851825 0
M  V30 28926 O 2722.83 1.60597 0.744143 0
M  V30 28927 C 2719.96 3.23082 1.16073 0
M  V30 28928 C 2719.04 4.21541 0.465182 0
M  V30 28929 N 2719.44 5.03467 -0.485286 0
M  V30 28930 C 2717.73 4.40239 0.714557 0
M  V30 28931 C 2718.43 5.74808 -0.89281 0
M  V30 28932 N 2717.41 5.43072 -0.239606 0
M  V30 28933 H 2721.21 2.8821 -0.57551 0
M  V30 28934 H 2718.73 1.5698 -0.416074 0
M  V30 28935 H 2720.72 3.80171 1.71102 0
M  V30 28936 H 2719.38 2.63906 1.89166 0
M  V30 28937 H 2720.39 5.10687 -0.861348 0
M  V30 28938 H 2717.07 3.92201 1.43124 0
M  V30 28939 H 2718.46 6.50663 -1.67592 0
M  V30 28940 N 2721.18 0.331843 1.54067 0
M  V30 28941 C 2722.43 -0.269173 1.99896 0
M  V30 28942 C 2722.74 -1.52591 1.22374 0
M  V30 28943 O 2723.95 -2.20344 1.58621 0
M  V30 28944 C 2722.41 -0.530182 3.55973 0
M  V30 28945 C 2722.01 0.709978 4.42338 0
M  V30 28946 C 2723.76 -1.0907 4.10249 0
M  V30 28947 C 2721.67 0.420416 5.89904 0
M  V30 28948 H 2720.6 -0.104358 0.746743 0
M  V30 28949 H 2723.25 0.445355 1.78014 0
M  V30 28950 H 2721.63 -1.30511 3.73875 0
M  V30 28951 H 2722.8 1.48512 4.36212 0
M  V30 28952 H 2721.12 1.1913 3.98995 0
M  V30 28953 H 2723.71 -1.3221 5.18097 0
M  V30 28954 H 2724.06 -2.04263 3.62743 0
M  V30 28955 H 2724.59 -0.376755 3.96012 0
M  V30 28956 H 2721.33 1.34175 6.41621 0
M  V30 28957 H 2720.85 -0.316857 5.98962 0
M  V30 28958 H 2722.53 0.0333093 6.46991 0
M  V30 28959 N 2722.66 -1.57485 0.0601958 0
M  V30 28960 C 2723.59 -2.15086 -0.908852 0
M  V30 28961 C 2724.57 -1.07486 -1.31836 0
M  V30 28962 O 2725.76 -1.35468 -1.39147 0
M  V30 28963 C 2722.89 -2.70314 -2.18054 0
M  V30 28964 C 2721.84 -3.82978 -1.91081 0
M  V30 28965 C 2721.17 -4.2476 -3.24782 0
M  V30 28966 C 2722.47 -5.07725 -1.22526 0
M  V30 28967 H 2724.16 -2.9631 -0.429041 0
M  V30 28968 H 2721.71 -1.42534 -0.204927 0
M  V30 28969 H 2723.66 -3.09253 -2.86253 0
M  V30 28970 H 2722.38 -1.86295 -2.68257 0
M  V30 28971 H 2721.04 -3.44525 -1.25291 0
M  V30 28972 H 2720.69 -3.37679 -3.72803 0
M  V30 28973 H 2720.39 -5.00699 -3.07529 0
M  V30 28974 H 2721.91 -4.66306 -3.94197 0
M  V30 28975 H 2723.33 -5.44053 -1.80774 0
M  V30 28976 H 2721.73 -5.88866 -1.1557 0
M  V30 28977 H 2722.8 -4.84477 -0.202607 0
M  V30 28978 N 2724.14 0.213268 -1.5615 0
M  V30 28979 C 2725.07 1.28799 -1.89588 0
M  V30 28980 C 2726.08 1.42631 -0.784869 0
M  V30 28981 O 2727.27 1.43381 -1.06321 0
M  V30 28982 C 2724.37 2.66255 -2.0967 0
M  V30 28983 C 2723.55 2.74264 -3.40731 0
M  V30 28984 C 2722.6 3.92792 -3.50144 0
M  V30 28985 O 2721.63 3.80743 -4.23112 0
M  V30 28986 N 2722.83 5.0746 -2.81895 0
M  V30 28987 H 2725.6 1.00437 -2.82369 0
M  V30 28988 H 2723.16 0.403274 -1.56797 0
M  V30 28989 H 2725.15 3.43942 -2.13274 0
M  V30 28990 H 2723.72 2.87181 -1.23474 0
M  V30 28991 H 2722.94 1.8299 -3.49153 0
M  V30 28992 H 2724.23 2.76592 -4.27053 0
M  V30 28993 H 2723.63 5.20146 -2.22406 0
M  V30 28994 H 2722.18 5.8316 -2.9115 0
M  V30 28995 N 2725.62 1.50103 0.480296 0
M  V30 28996 C 2726.55 1.71218 1.58766 0
M  V30 28997 C 2727.53 0.561025 1.60582 0
M  V30 28998 O 2728.71 0.799158 1.76995 0
M  V30 28999 C 2725.84 1.79783 2.97145 0
M  V30 29000 C 2724.8 2.94894 3.10196 0
M  V30 29001 C 2724.12 2.88592 4.50132 0
M  V30 29002 C 2725.42 4.35539 2.88276 0
M  V30 29003 H 2727.12 2.63933 1.4135 0
M  V30 29004 H 2724.66 1.2701 0.678569 0
M  V30 29005 H 2726.62 1.9314 3.74533 0
M  V30 29006 H 2725.34 0.836827 3.15697 0
M  V30 29007 H 2724 2.81173 2.35239 0
M  V30 29008 H 2723.65 1.90357 4.65589 0
M  V30 29009 H 2723.35 3.65864 4.59801 0
M  V30 29010 H 2724.87 3.03985 5.29552 0
M  V30 29011 H 2726.28 4.49834 3.55419 0
M  V30 29012 H 2724.68 5.14191 3.09399 0
M  V30 29013 H 2725.75 4.48547 1.84211 0
M  V30 29014 N 2727.09 -0.732829 1.39526 0
M  V30 29015 C 2728.34 -1.4879 1.36178 0
M  V30 29016 C 2728.66 -1.95562 -0.0387851 0
M  V30 29017 O 2729.86 -2.708 -0.194851 0
M  V30 29018 C 2728.32 -2.68866 2.39246 0
M  V30 29019 C 2727.93 -2.29035 3.85028 0
M  V30 29020 C 2729.67 -3.46679 2.44978 0
M  V30 29021 C 2727.58 -3.45847 4.79733 0
M  V30 29022 H 2726.51 -0.558748 0.506277 0
M  V30 29023 H 2729.16 -0.799197 1.65182 0
M  V30 29024 H 2727.54 -3.39822 2.03316 0
M  V30 29025 H 2728.71 -1.65612 4.30011 0
M  V30 29026 H 2727.03 -1.64309 3.82611 0
M  V30 29027 H 2729.63 -4.33569 3.12925 0
M  V30 29028 H 2729.97 -3.89295 1.47497 0
M  V30 29029 H 2730.5 -2.82754 2.79813 0
M  V30 29030 H 2727.24 -3.08279 5.78484 0
M  V30 29031 H 2726.76 -4.08244 4.39428 0
M  V30 29032 H 2728.44 -4.12152 4.98738 0
M  V30 29033 N 2728.57 -1.24737 -0.963244 0
M  V30 29034 C 2729.48 -1.06085 -2.09244 0
M  V30 29035 C 2730.5 -0.000393686 -1.74 0
M  V30 29036 O 2731.67 -0.199514 -2.00409 0
M  V30 29037 C 2728.74 -0.672558 -3.40114 0
M  V30 29038 C 2727.8 -1.81 -3.89278 0
M  V30 29039 C 2727.03 -1.44013 -5.13903 0
M  V30 29040 O 2727.26 -0.331935 -5.69433 0
M  V30 29041 O 2726.19 -2.26733 -5.57562 0
M  V30 29042 H 2730.02 -2.00763 -2.27877 0
M  V30 29043 H 2727.6 -1.03597 -1.07648 0
M  V30 29044 H 2729.48 -0.467742 -4.18796 0
M  V30 29045 H 2728.16 0.245045 -3.22771 0
M  V30 29046 H 2727.07 -2.0696 -3.11638 0
M  V30 29047 H 2728.4 -2.70653 -4.11105 0
M  V30 29048 N 2730.05 1.16459 -1.06184 0
M  V30 29049 C 2731.46 1.68575 -0.802456 0
M  V30 29050 C 2731.81 1.84257 0.674088 0
M  V30 29051 O 2730.94 1.53732 1.523 0
M  V30 29052 C 2731.53 3.062 -1.45008 0
M  V30 29053 C 2730.09 3.55441 -1.23849 0
M  V30 29054 C 2729.24 2.31451 -1.52728 0
M  V30 29055 H 2732.19 1.00836 -1.22547 0
M  V30 29056 H 2732.21 3.70542 -0.864796 0
M  V30 29057 H 2731.72 2.94754 -2.52471 0
M  V30 29058 H 2729.82 3.72148 -0.183553 0
M  V30 29059 H 2729.94 4.37601 -1.95044 0
M  V30 29060 H 2728.3 2.3641 -0.947767 0
M  V30 29061 H 2729.08 2.22604 -2.61347 0
M  V30 29062 N 2731.53 0.844266 1.33079 0
M  V30 29063 C 2732.75 0.455318 2.0234 0
M  V30 29064 C 2733.18 -0.937342 1.63081 0
M  V30 29065 O 2732.54 -1.61383 0.826147 0
M  V30 29066 C 2732.58 0.589942 3.55742 0
M  V30 29067 O 2731.69 -0.381588 4.10631 0
M  V30 29068 H 2731.03 0.184354 0.637895 0
M  V30 29069 H 2733.56 1.14059 1.69858 0
M  V30 29070 H 2733.57 0.473593 4.05242 0
M  V30 29071 H 2732.24 1.60556 3.8366 0
M  V30 29072 H 2730.82 -0.222344 3.72237 0
M  V30 29073 N 2733.01 -1.45682 0.60121 0
M  V30 29074 C 2734.25 -2.02582 0.0940558 0
M  V30 29075 C 2734.59 -1.46944 -1.26969 0
M  V30 29076 O 2733.86 -0.641644 -1.83611 0
M  V30 29077 C 2734.14 -3.60068 0.0482348 0
M  V30 29078 C 2734 -4.26052 1.4422 0
M  V30 29079 C 2735.32 -4.35379 -0.642899 0
M  V30 29080 H 2732.43 -0.736137 0.0356534 0
M  V30 29081 H 2735.08 -1.73611 0.77196 0
M  V30 29082 H 2733.23 -3.84881 -0.52906 0
M  V30 29083 H 2734.9 -4.12445 2.06608 0
M  V30 29084 H 2733.14 -3.84699 2.00472 0
M  V30 29085 H 2733.81 -5.34922 1.36244 0
M  V30 29086 H 2736.29 -4.15821 -0.152278 0
M  V30 29087 H 2735.16 -5.45108 -0.644046 0
M  V30 29088 H 2735.43 -4.07783 -1.70778 0
M  V30 29089 N 2734.48 -0.340009 -1.53889 0
M  V30 29090 C 2735.73 0.257586 -2.00855 0
M  V30 29091 C 2736.06 1.5084 -1.22791 0
M  V30 29092 O 2735.31 1.93346 -0.302601 0
M  V30 29093 C 2735.61 0.620673 -3.51969 0
M  V30 29094 C 2735.28 -0.53285 -4.4774 0
M  V30 29095 C 2733.94 -0.849423 -4.73644 0
M  V30 29096 C 2736.29 -1.30689 -5.04549 0
M  V30 29097 C 2733.62 -1.94247 -5.53611 0
M  V30 29098 C 2735.97 -2.39015 -5.85708 0
M  V30 29099 C 2734.64 -2.71236 -6.09908 0
M  V30 29100 H 2733.91 0.0942573 -0.734981 0
M  V30 29101 H 2736.55 -0.467192 -1.85714 0
M  V30 29102 H 2734.86 1.42611 -3.64924 0
M  V30 29103 H 2736.56 1.09488 -3.85763 0
M  V30 29104 H 2733.15 -0.276048 -4.2771 0
M  V30 29105 H 2737.33 -1.07557 -4.84505 0
M  V30 29106 H 2732.59 -2.19638 -5.70587 0
M  V30 29107 H 2736.76 -2.99426 -6.28742 0
M  V30 29108 H 2734.39 -3.56059 -6.71659 0
M  V30 29109 N 2735.96 1.57451 -0.0685468 0
M  V30 29110 C 2736.91 2.12537 0.899824 0
M  V30 29111 C 2737.88 1.03705 1.29748 0
M  V30 29112 O 2739.07 1.3135 1.3839 0
M  V30 29113 C 2736.21 2.68884 2.16323 0
M  V30 29114 C 2735.32 3.9186 1.8185 0
M  V30 29115 C 2734.45 4.36462 3.02778 0
M  V30 29116 C 2733.49 5.52094 2.64307 0
M  V30 29117 N 2732.63 5.91669 3.77984 0
M  V30 29118 H 2737.47 2.9498 0.423191 0
M  V30 29119 H 2735.01 1.45772 0.197242 0
M  V30 29120 H 2736.96 2.9966 2.90275 0
M  V30 29121 H 2735.59 1.89211 2.61532 0
M  V30 29122 H 2734.65 3.67567 0.979743 0
M  V30 29123 H 2735.96 4.75855 1.49545 0
M  V30 29124 H 2735.11 4.68882 3.85012 0
M  V30 29125 H 2733.85 3.51314 3.38275 0
M  V30 29126 H 2732.86 5.19329 1.80494 0
M  V30 29127 H 2734.08 6.38971 2.29984 0
M  V30 29128 H 2732.03 5.09472 4.13249 0
M  V30 29129 H 2731.94 6.70396 3.49435 0
M  V30 29130 H 2733.21 6.28711 4.60807 0
M  V30 29131 N 2737.44 -0.204984 1.56261 0
M  V30 29132 C 2738.35 -1.27473 1.96946 0
M  V30 29133 C 2739.37 -1.5036 0.875662 0
M  V30 29134 O 2740.54 -1.63167 1.18061 0
M  V30 29135 C 2737.61 -2.60111 2.29223 0
M  V30 29136 C 2736.67 -2.45381 3.52259 0
M  V30 29137 C 2735.9 -3.71694 3.82987 0
M  V30 29138 O 2736.13 -4.75436 3.15146 0
M  V30 29139 O 2735.06 -3.67815 4.76441 0
M  V30 29140 H 2738.89 -0.959477 2.88145 0
M  V30 29141 H 2736.47 -0.409192 1.43687 0
M  V30 29142 H 2738.35 -3.38415 2.51104 0
M  V30 29143 H 2737.03 -2.91283 1.41195 0
M  V30 29144 H 2735.93 -1.65221 3.35638 0
M  V30 29145 H 2737.27 -2.19144 4.40723 0
M  V30 29146 N 2738.92 -1.50356 -0.472329 0
M  V30 29147 C 2739.88 -1.68579 -1.55287 0
M  V30 29148 C 2740.88 -0.556538 -1.50862 0
M  V30 29149 O 2742.07 -0.823543 -1.53504 0
M  V30 29150 C 2739.2 -1.70986 -2.94918 0
M  V30 29151 H 2740.4 -2.64981 -1.40447 0
M  V30 29152 H 2737.95 -1.39818 -0.69862 0
M  V30 29153 H 2738.69 -0.76273 -3.15203 0
M  V30 29154 H 2738.47 -2.53022 -2.99536 0
M  V30 29155 H 2739.96 -1.87044 -3.73369 0
M  V30 29156 N 2740.4 0.725419 -1.39912 0
M  V30 29157 C 2741.36 1.82119 -1.3916 0
M  V30 29158 C 2742.36 1.58217 -0.287046 0
M  V30 29159 O 2743.55 1.6544 -0.54545 0
M  V30 29160 C 2740.68 3.2006 -1.17366 0
M  V30 29161 H 2741.88 1.84187 -2.36675 0
M  V30 29162 H 2739.43 0.930057 -1.25617 0
M  V30 29163 H 2740.16 3.23647 -0.205705 0
M  V30 29164 H 2739.95 3.38806 -1.97364 0
M  V30 29165 H 2741.44 4.00106 -1.19603 0
M  V30 29166 N 2741.88 1.25246 0.956615 0
M  V30 29167 C 2743.1 1.12611 1.73569 0
M  V30 29168 C 2743.52 -0.320292 1.86063 0
M  V30 29169 O 2742.88 -1.22039 1.35693 0
M  V30 29170 C 2742.93 1.77274 3.1505 0
M  V30 29171 O 2742.65 3.1626 3.03169 0
M  V30 29172 C 2744.15 1.70393 4.09245 0
M  V30 29173 H 2741.37 0.392888 0.543948 0
M  V30 29174 H 2743.91 1.6557 1.20028 0
M  V30 29175 H 2742.07 1.2829 3.65541 0
M  V30 29176 H 2742.48 3.48022 3.92404 0
M  V30 29177 H 2743.96 2.203 5.06134 0
M  V30 29178 H 2744.43 0.667315 4.34101 0
M  V30 29179 H 2745.04 2.18855 3.64668 0
M  V30 29180 N 2743.35 -1.15894 1.068 0
M  V30 29181 C 2744.76 -1.68147 0.811384 0
M  V30 29182 C 2745.12 -1.84612 -0.664307 0
M  V30 29183 O 2744.24 -1.54538 -1.51483 0
M  V30 29184 C 2744.84 -3.05426 1.46629 0
M  V30 29185 C 2743.39 -3.54779 1.25732 0
M  V30 29186 C 2742.54 -2.30638 1.53953 0
M  V30 29187 H 2745.49 -1.00185 1.2308 0
M  V30 29188 H 2745.51 -3.70078 0.884435 0
M  V30 29189 H 2745.03 -2.93411 2.5403 0
M  V30 29190 H 2743.13 -3.72045 0.203286 0
M  V30 29191 H 2743.24 -4.3656 1.97362 0
M  V30 29192 H 2741.6 -2.35904 0.960291 0
M  V30 29193 H 2742.39 -2.21215 2.62524 0
M  V30 29194 N 2744.83 -0.851312 -1.32629 0
M  V30 29195 C 2745.74 -0.296309 -2.32721 0
M  V30 29196 C 2746.76 0.584134 -1.63902 0
M  V30 29197 O 2747.93 0.485299 -1.95466 0
M  V30 29198 C 2745 0.509043 -3.42943 0
M  V30 29199 C 2744.06 -0.397144 -4.27459 0
M  V30 29200 C 2743.29 0.369866 -5.32417 0
M  V30 29201 O 2743.52 1.60021 -5.47494 0
M  V30 29202 O 2742.45 -0.262599 -6.01327 0
M  V30 29203 H 2746.28 -1.12548 -2.82076 0
M  V30 29204 H 2743.86 -0.614159 -1.36193 0
M  V30 29205 H 2745.74 0.966268 -4.10172 0
M  V30 29206 H 2744.42 1.31507 -2.95783 0
M  V30 29207 H 2743.32 -0.902474 -3.63051 0
M  V30 29208 H 2744.66 -1.16826 -4.78134 0
M  V30 29209 N 2746.31 1.45361 -0.608928 0
M  V30 29210 C 2747.22 2.34338 0.110928 0
M  V30 29211 C 2748.24 1.51319 0.858981 0
M  V30 29212 O 2749.41 1.84117 0.816264 0
M  V30 29213 C 2746.48 3.28958 1.09488 0
M  V30 29214 C 2745.54 4.27882 0.348643 0
M  V30 29215 C 2744.77 5.17981 1.28573 0
M  V30 29216 O 2744.99 5.11538 2.5236 0
M  V30 29217 O 2743.93 5.96798 0.782067 0
M  V30 29218 H 2747.75 2.97298 -0.62031 0
M  V30 29219 H 2745.34 1.44767 -0.369185 0
M  V30 29220 H 2747.22 3.8726 1.66156 0
M  V30 29221 H 2745.9 2.6856 1.80713 0
M  V30 29222 H 2744.8 3.73192 -0.260531 0
M  V30 29223 H 2746.14 4.91138 -0.323135 0
M  V30 29224 N 2747.79 0.348166 1.53706 0
M  V30 29225 C 2748.7 -0.514817 2.28882 0
M  V30 29226 C 2749.71 -1.1079 1.3417 0
M  V30 29227 O 2750.89 -1.12259 1.67212 0
M  V30 29228 C 2747.95 -1.64768 3.05045 0
M  V30 29229 C 2747.02 -1.08391 4.15391 0
M  V30 29230 C 2746.25 -2.16278 4.87913 0
M  V30 29231 O 2746.47 -3.37082 4.60143 0
M  V30 29232 O 2745.41 -1.80313 5.74257 0
M  V30 29233 H 2749.23 0.0964232 3.03547 0
M  V30 29234 H 2746.82 0.113069 1.48972 0
M  V30 29235 H 2748.7 -2.30671 3.5266 0
M  V30 29236 H 2747.37 -2.24465 2.33232 0
M  V30 29237 H 2746.28 -0.389275 3.72069 0
M  V30 29238 H 2747.61 -0.531743 4.89319 0
M  V30 29239 N 2749.27 -1.57412 0.0768958 0
M  V30 29240 C 2750.49 -1.98429 -0.603369 0
M  V30 29241 C 2750.92 -0.955137 -1.62046 0
M  V30 29242 O 2750.27 0.0786459 -1.81129 0
M  V30 29243 C 2750.32 -3.38466 -1.2439 0
M  V30 29244 O 2749.43 -3.38214 -2.35976 0
M  V30 29245 H 2748.77 -0.64572 -0.15473 0
M  V30 29246 H 2751.3 -2.04028 0.152921 0
M  V30 29247 H 2751.31 -3.75763 -1.58954 0
M  V30 29248 H 2749.98 -4.129 -0.498663 0
M  V30 29249 H 2748.56 -3.12693 -2.03168 0
M  V30 29250 N 2750.74 0.196695 -1.56368 0
M  V30 29251 C 2752.02 0.943129 -1.71361 0
M  V30 29252 C 2752.4 2.01442 -0.631228 0
M  V30 29253 O 2751.75 2.25678 0.358032 0
M  V30 29254 C 2751.96 1.531 -3.13626 0
M  V30 29255 C 2753.31 2.01374 -3.7381 0
M  V30 29256 O 2754.33 1.62946 -3.16744 0
M  V30 29257 O 2753.19 2.72082 -4.73955 0
M  V30 29258 H 2750.28 0.442183 -0.698859 0
M  V30 29259 H 2752.83 0.186517 -1.68672 0
M  V30 29260 H 2751.6 0.758717 -3.83874 0
M  V30 29261 H 2751.23 2.35249 -3.20536 0
M  V30 29262 N 2752.22 1.50604 0.464349 0
M  V30 29263 C 2753.45 1.65697 1.23904 0
M  V30 29264 C 2753.87 0.343059 1.85657 0
M  V30 29265 O 2753.22 -0.675709 1.6953 0
M  V30 29266 C 2753.27 2.75305 2.34285 0
M  V30 29267 O 2752.99 4.01602 1.75063 0
M  V30 29268 C 2754.5 3.0143 3.25046 0
M  V30 29269 H 2751.72 0.556785 0.374475 0
M  V30 29270 H 2754.26 1.96867 0.553495 0
M  V30 29271 H 2752.41 2.4681 2.98603 0
M  V30 29272 H 2752.83 4.6227 2.47804 0
M  V30 29273 H 2754.3 3.8177 3.98692 0
M  V30 29274 H 2754.78 2.12765 3.84224 0
M  V30 29275 H 2755.39 3.31482 2.66458 0
M  V30 29276 N 2753.7 -0.717989 1.40295 0
M  V30 29277 C 2754.63 -1.84495 1.43122 0
M  V30 29278 C 2755.61 -1.67567 0.292433 0
M  V30 29279 O 2756.8 -1.87634 0.500707 0
M  V30 29280 C 2753.93 -3.22425 1.29071 0
M  V30 29281 C 2752.88 -3.54021 2.40527 0
M  V30 29282 C 2752.21 -4.91069 2.11555 0
M  V30 29283 C 2753.51 -3.55262 3.82865 0
M  V30 29284 H 2755.2 -1.82387 2.37435 0
M  V30 29285 H 2752.75 -0.87607 1.14285 0
M  V30 29286 H 2754.7 -4.00955 1.29665 0
M  V30 29287 H 2753.42 -3.25103 0.312328 0
M  V30 29288 H 2752.08 -2.7783 2.39178 0
M  V30 29289 H 2751.73 -4.90347 1.12113 0
M  V30 29290 H 2751.43 -5.13175 2.86225 0
M  V30 29291 H 2752.95 -5.71935 2.13827 0
M  V30 29292 H 2754.37 -4.23837 3.86051 0
M  V30 29293 H 2752.77 -3.88894 4.57035 0
M  V30 29294 H 2753.84 -2.54698 4.12622 0
M  V30 29295 N 2755.18 -1.25752 -0.94996 0
M  V30 29296 C 2756.09 -1.08299 -2.08107 0
M  V30 29297 C 2757.1 -0.0188487 -1.7399 0
M  V30 29298 O 2758.28 -0.220759 -2.00186 0
M  V30 29299 C 2755.35 -0.708594 -3.39382 0
M  V30 29300 C 2754.41 -1.85118 -3.87337 0
M  V30 29301 C 2753.64 -1.49456 -5.12346 0
M  V30 29302 O 2753.86 -0.392312 -5.69049 0
M  V30 29303 O 2752.8 -2.32634 -5.55126 0
M  V30 29304 H 2756.62 -2.03169 -2.25735 0
M  V30 29305 H 2754.21 -1.04733 -1.06543 0
M  V30 29306 H 2756.09 -0.512134 -4.18276 0
M  V30 29307 H 2754.76 0.210797 -3.23013 0
M  V30 29308 H 2753.67 -2.10254 -3.09426 0
M  V30 29309 H 2755 -2.74998 -4.08212 0
M  V30 29310 N 2756.66 1.15326 -1.07413 0
M  V30 29311 C 2757.6 2.20086 -0.695034 0
M  V30 29312 C 2758.57 1.63107 0.313875 0
M  V30 29313 O 2759.76 1.89747 0.200182 0
M  V30 29314 C 2756.9 3.44956 -0.0996825 0
M  V30 29315 C 2756.01 4.16131 -1.16014 0
M  V30 29316 C 2755.15 5.28552 -0.529729 0
M  V30 29317 C 2754.19 5.91545 -1.57293 0
M  V30 29318 N 2753.32 6.95436 -0.965055 0
M  V30 29319 H 2758.16 2.51864 -1.59274 0
M  V30 29320 H 2755.7 1.23693 -0.796137 0
M  V30 29321 H 2757.66 4.16369 0.263124 0
M  V30 29322 H 2756.29 3.13692 0.761379 0
M  V30 29323 H 2755.34 3.43207 -1.64051 0
M  V30 29324 H 2756.65 4.59057 -1.95109 0
M  V30 29325 H 2755.81 6.06592 -0.114593 0
M  V30 29326 H 2754.54 4.86819 0.292984 0
M  V30 29327 H 2753.55 5.12217 -1.99784 0
M  V30 29328 H 2754.77 6.35355 -2.39794 0
M  V30 29329 H 2752.72 6.55797 -0.163256 0
M  V30 29330 H 2752.64 7.36794 -1.69324 0
M  V30 29331 H 2753.91 7.77373 -0.575442 0
M  V30 29332 N 2758.13 0.858334 1.32176 0
M  V30 29333 C 2759.04 0.308647 2.32561 0
M  V30 29334 C 2760.06 -0.575433 1.6421 0
M  V30 29335 O 2761.24 -0.474926 1.9572 0
M  V30 29336 C 2758.3 -0.490848 3.43208 0
M  V30 29337 C 2757.36 0.419808 4.27242 0
M  V30 29338 C 2756.6 -0.341625 5.32605 0
M  V30 29339 O 2756.82 -1.57115 5.48335 0
M  V30 29340 O 2755.75 0.294485 6.01179 0
M  V30 29341 H 2759.58 1.14042 2.81475 0
M  V30 29342 H 2757.16 0.621373 1.35865 0
M  V30 29343 H 2759.05 -0.944502 4.10679 0
M  V30 29344 H 2757.72 -1.29936 2.96476 0
M  V30 29345 H 2756.63 0.921715 3.62568 0
M  V30 29346 H 2757.96 1.1936 4.77508 0
M  V30 29347 N 2759.61 -1.45036 0.616628 0
M  V30 29348 C 2760.54 -2.33349 -0.0840377 0
M  V30 29349 C 2761.52 -1.47362 -0.849615 0
M  V30 29350 O 2762.71 -1.76114 -0.818376 0
M  V30 29351 C 2759.84 -3.30212 -1.07599 0
M  V30 29352 C 2758.79 -4.25904 -0.423021 0
M  V30 29353 C 2758.12 -5.12526 -1.52385 0
M  V30 29354 C 2759.42 -5.18093 0.661549 0
M  V30 29355 H 2761.11 -2.92184 0.653385 0
M  V30 29356 H 2758.66 -1.40498 0.315658 0
M  V30 29357 H 2760.61 -3.90869 -1.57479 0
M  V30 29358 H 2759.34 -2.69555 -1.84412 0
M  V30 29359 H 2757.99 -3.66559 0.0549944 0
M  V30 29360 H 2757.64 -4.48231 -2.28249 0
M  V30 29361 H 2757.34 -5.77356 -1.09241 0
M  V30 29362 H 2758.87 -5.76052 -2.02474 0
M  V30 29363 H 2760.28 -5.7277 0.246453 0
M  V30 29364 H 2758.68 -5.91449 1.01527 0
M  V30 29365 H 2759.75 -4.59978 1.53454 0
M  V30 29366 N 2761.09 -0.356312 -1.53519 0
M  V30 29367 C 2762.32 0.239925 -2.06008 0
M  V30 29368 C 2762.74 1.4242 -1.22874 0
M  V30 29369 O 2762.1 1.79629 -0.245547 0
M  V30 29370 C 2762.15 0.620524 -3.55221 0
M  V30 29371 O 2761.25 1.71896 -3.74867 0
M  V30 29372 H 2760.59 0.0371261 -0.662961 0
M  V30 29373 H 2763.12 -0.514229 -1.98032 0
M  V30 29374 H 2763.13 0.894127 -3.98082 0
M  V30 29375 H 2761.81 -0.24548 -4.15175 0
M  V30 29376 H 2760.38 1.44163 -3.43906 0
M  V30 29377 N 2762.57 1.57369 -0.0852427 0
M  V30 29378 C 2763.81 1.9428 0.581632 0
M  V30 29379 C 2764.15 0.966476 1.68443 0
M  V30 29380 O 2763.42 -0.00211859 1.945 0
M  V30 29381 C 2763.71 3.41377 1.14603 0
M  V30 29382 C 2763.56 4.49773 0.0489623 0
M  V30 29383 C 2764.88 3.89574 2.04744 0
M  V30 29384 H 2762 0.70646 0.20996 0
M  V30 29385 H 2764.64 1.89375 -0.153948 0
M  V30 29386 H 2762.79 3.45688 1.77291 0
M  V30 29387 H 2764.46 4.57578 -0.584801 0
M  V30 29388 H 2762.7 4.29365 -0.618713 0
M  V30 29389 H 2763.37 5.4987 0.484504 0
M  V30 29390 H 2765.85 3.87354 1.51974 0
M  V30 29391 H 2764.73 4.93083 2.41164 0
M  V30 29392 H 2764.99 3.28294 2.96101 0
M  V30 29393 N 2764.05 -0.188399 1.5647 0
M  V30 29394 C 2765.32 -0.934028 1.71858 0
M  V30 29395 C 2765.7 -2.01104 0.641902 0
M  V30 29396 O 2765.05 -2.25864 -0.346058 0
M  V30 29397 C 2765.26 -1.51435 3.14434 0
M  V30 29398 C 2766.61 -1.99389 3.74872 0
M  V30 29399 O 2767.63 -1.61264 3.17604 0
M  V30 29400 O 2766.49 -2.69565 4.75392 0
M  V30 29401 H 2763.59 -0.43847 0.701194 0
M  V30 29402 H 2766.13 -0.17757 1.68768 0
M  V30 29403 H 2764.9 -0.738349 3.84271 0
M  V30 29404 H 2764.53 -2.33546 3.21779 0
M  V30 29405 N 2765.53 -1.50848 -0.456355 0
M  V30 29406 C 2766.8 -1.531 -1.21736 0
M  V30 29407 C 2767.18 -0.284169 -2.09179 0
M  V30 29408 O 2766.53 0.731735 -2.16467 0
M  V30 29409 C 2766.74 -2.8348 -2.03568 0
M  V30 29410 C 2768.09 -3.34708 -2.61259 0
M  V30 29411 O 2769.11 -2.84902 -2.13797 0
M  V30 29412 O 2767.97 -4.21565 -3.47772 0
M  V30 29413 H 2765.07 -0.614728 -0.553208 0
M  V30 29414 H 2767.61 -1.63149 -0.466974 0
M  V30 29415 H 2766.38 -3.65694 -1.39226 0
M  V30 29416 H 2766.01 -2.76504 -2.85711 0
M  V30 29417 N 2767 0.710538 -1.40674 0
M  V30 29418 C 2767.97 1.80633 -1.41083 0
M  V30 29419 C 2768.97 1.57904 -0.303811 0
M  V30 29420 O 2770.16 1.64852 -0.562966 0
M  V30 29421 C 2767.29 3.18797 -1.20754 0
M  V30 29422 H 2768.48 1.81666 -2.38615 0
M  V30 29423 H 2766.03 0.916682 -1.26596 0
M  V30 29424 H 2766.77 3.23411 -0.240021 0
M  V30 29425 H 2766.55 3.36694 -2.00947 0
M  V30 29426 H 2768.04 3.98815 -1.2384 0
M  V30 29427 N 2768.48 1.26254 0.943277 0
M  V30 29428 C 2769.43 1.07629 2.04168 0
M  V30 29429 C 2770.4 -0.0180446 1.6609 0
M  V30 29430 O 2771.58 0.141322 1.90276 0
M  V30 29431 C 2768.72 0.713103 3.37652 0
M  V30 29432 C 2767.84 1.88347 3.88779 0
M  V30 29433 C 2766.97 1.46359 5.10639 0
M  V30 29434 C 2766.01 2.60239 5.54024 0
M  V30 29435 N 2765.15 2.18948 6.67088 0
M  V30 29436 H 2769.99 2.01627 2.19432 0
M  V30 29437 H 2767.52 1.00391 1.07517 0
M  V30 29438 H 2769.48 0.483431 4.1439 0
M  V30 29439 H 2768.11 -0.189903 3.22241 0
M  V30 29440 H 2767.16 2.22613 3.0846 0
M  V30 29441 H 2768.48 2.73828 4.16917 0
M  V30 29442 H 2767.63 1.19424 5.9483 0
M  V30 29443 H 2766.37 0.579653 4.84243 0
M  V30 29444 H 2765.37 2.87906 4.68391 0
M  V30 29445 H 2766.6 3.49229 5.82422 0
M  V30 29446 H 2764.55 1.32985 6.42379 0
M  V30 29447 H 2764.46 2.97973 6.94801 0
M  V30 29448 H 2765.73 1.95219 7.54659 0
M  V30 29449 N 2769.96 -1.14755 1.08024 0
M  V30 29450 C 2770.89 -2.21852 0.728287 0
M  V30 29451 C 2771.87 -1.67654 -0.287457 0
M  V30 29452 O 2773.06 -1.93551 -0.158693 0
M  V30 29453 C 2770.19 -3.47047 0.13261 0
M  V30 29454 C 2769.14 -4.14247 1.07627 0
M  V30 29455 C 2768.47 -5.33599 0.343001 0
M  V30 29456 C 2769.77 -4.63231 2.41276 0
M  V30 29457 H 2771.46 -2.51548 1.6237 0
M  V30 29458 H 2769.01 -1.20907 0.782146 0
M  V30 29459 H 2770.96 -4.21213 -0.125591 0
M  V30 29460 H 2769.68 -3.16703 -0.797915 0
M  V30 29461 H 2768.34 -3.4203 1.3195 0
M  V30 29462 H 2767.99 -4.99514 -0.591203 0
M  V30 29463 H 2767.69 -5.79504 0.972057 0
M  V30 29464 H 2769.21 -6.1053 0.0927611 0
M  V30 29465 H 2770.63 -5.28891 2.21241 0
M  V30 29466 H 2769.02 -5.19824 2.99839 0
M  V30 29467 H 2770.09 -3.78506 3.03086 0
M  V30 29468 N 2771.44 -0.865331 -1.31719 0
M  V30 29469 C 2772.37 -0.274946 -2.27545 0
M  V30 29470 C 2773.38 0.559386 -1.52888 0
M  V30 29471 O 2774.57 0.382135 -1.74362 0
M  V30 29472 C 2771.67 0.629228 -3.33007 0
M  V30 29473 C 2770.84 -0.17163 -4.37063 0
M  V30 29474 C 2769.9 0.659961 -5.22045 0
M  V30 29475 O 2768.93 0.0896526 -5.69129 0
M  V30 29476 N 2770.13 1.9728 -5.4595 0
M  V30 29477 H 2772.9 -1.09841 -2.78846 0
M  V30 29478 H 2770.46 -0.726356 -1.44692 0
M  V30 29479 H 2772.45 1.19114 -3.86774 0
M  V30 29480 H 2771.02 1.35337 -2.81785 0
M  V30 29481 H 2770.24 -0.914987 -3.83434 0
M  V30 29482 H 2771.53 -0.721323 -5.03661 0
M  V30 29483 H 2770.93 2.45933 -5.09444 0
M  V30 29484 H 2769.48 2.4826 -6.02669 0
M  V30 29485 N 2772.92 1.44707 -0.624311 0
M  V30 29486 C 2774.16 2.01708 -0.125837 0
M  V30 29487 C 2774.48 1.49308 1.25428 0
M  V30 29488 O 2773.75 0.693956 1.83197 0
M  V30 29489 H 2772.33 0.745731 -0.0435292 0
M  V30 29490 H 2775 1.77295 -0.809477 0
M  V30 29491 H 2774.09 3.11975 -0.0883282 0
M  V30 29492 N 2774.39 0.364449 1.53328 0
M  V30 29493 C 2775.36 -0.470252 2.24324 0
M  V30 29494 C 2776.36 -1.01065 1.2507 0
M  V30 29495 O 2777.55 -0.896579 1.49356 0
M  V30 29496 C 2774.68 -1.65717 2.97911 0
M  V30 29497 H 2775.87 0.15097 2.9952 0
M  V30 29498 H 2773.42 0.11612 1.55868 0
M  V30 29499 H 2774.16 -2.31651 2.26954 0
M  V30 29500 H 2773.94 -1.27665 3.70735 0
M  V30 29501 H 2775.43 -2.24872 3.51884 0
M  V30 29502 N 2775.87 -1.57322 0.0935872 0
M  V30 29503 C 2777.12 -1.93914 -0.569348 0
M  V30 29504 C 2777.44 -0.976039 -1.68815 0
M  V30 29505 O 2776.71 -0.0278443 -1.9588 0
M  V30 29506 H 2775.29 -0.715897 -0.213307 0
M  V30 29507 H 2777.95 -1.9427 0.156565 0
M  V30 29508 H 2777.05 -2.96297 -0.980525 0
M  V30 29509 N 2777.35 0.180099 -1.56568 0
M  V30 29510 C 2778.26 1.24323 -1.9895 0
M  V30 29511 C 2779.28 1.48948 -0.899473 0
M  V30 29512 O 2780.45 1.61269 -1.20642 0
M  V30 29513 C 2777.52 2.56431 -2.33332 0
M  V30 29514 C 2776.58 2.39746 -3.56118 0
M  V30 29515 C 2775.81 3.65554 -3.88852 0
M  V30 29516 O 2776.03 4.70362 -3.2267 0
M  V30 29517 O 2774.97 3.60188 -4.82232 0
M  V30 29518 H 2778.79 0.913514 -2.89635 0
M  V30 29519 H 2776.38 0.386281 -1.4432 0
M  V30 29520 H 2778.26 3.34378 -2.56456 0
M  V30 29521 H 2776.94 2.89 -1.45811 0
M  V30 29522 H 2775.84 1.5986 -3.38224 0
M  V30 29523 H 2777.18 2.12105 -4.44153 0
M  V30 29524 N 2778.83 1.51088 0.448349 0
M  V30 29525 C 2779.74 1.74431 1.56879 0
M  V30 29526 C 2780.75 0.628118 1.62267 0
M  V30 29527 O 2781.93 0.909107 1.79714 0
M  V30 29528 C 2778.99 1.85431 2.92944 0
M  V30 29529 C 2778.06 3.09252 2.97761 0
M  V30 29530 C 2777.29 3.19718 4.27336 0
M  V30 29531 O 2777.51 2.36396 5.19108 0
M  V30 29532 O 2776.45 4.12618 4.38212 0
M  V30 29533 H 2780.27 2.69455 1.40099 0
M  V30 29534 H 2777.86 1.35457 0.630223 0
M  V30 29535 H 2779.74 1.94716 3.73716 0
M  V30 29536 H 2778.41 0.935941 3.09874 0
M  V30 29537 H 2777.32 3.05454 2.15984 0
M  V30 29538 H 2778.65 4.00743 2.85773 0
M  V30 29539 N 2780.31 -0.703068 1.41049 0
M  V30 29540 C 2781.22 -1.847 1.44648 0
M  V30 29541 C 2782.23 -1.70689 0.337808 0
M  V30 29542 O 2783.41 -1.92736 0.584361 0
M  V30 29543 C 2780.47 -3.20615 1.31934 0
M  V30 29544 C 2779.53 -3.46789 2.53053 0
M  V30 29545 C 2778.77 -4.7622 2.40936 0
M  V30 29546 O 2778.99 -5.52187 1.42988 0
M  V30 29547 O 2777.92 -5.0301 3.30552 0
M  V30 29548 H 2781.75 -1.84619 2.41142 0
M  V30 29549 H 2779.34 -0.855145 1.22506 0
M  V30 29550 H 2781.22 -4.01776 1.27099 0
M  V30 29551 H 2779.89 -3.21396 0.385525 0
M  V30 29552 H 2778.8 -2.65589 2.63464 0
M  V30 29553 H 2780.13 -3.50816 3.45237 0
M  V30 29554 N 2781.78 -1.26752 -0.936569 0
M  V30 29555 C 2782.75 -1.08764 -2.0175 0
M  V30 29556 C 2783.75 -0.0344718 -1.60763 0
M  V30 29557 O 2784.94 -0.278288 -1.71963 0
M  V30 29558 C 2782.07 -0.65533 -3.34542 0
M  V30 29559 H 2783.26 -2.04739 -2.19139 0
M  V30 29560 H 2780.82 -1.09415 -1.11616 0
M  V30 29561 H 2781.55 0.306203 -3.22851 0
M  V30 29562 H 2781.34 -1.41584 -3.65645 0
M  V30 29563 H 2782.83 -0.551451 -4.13943 0
M  V30 29564 N 2783.26 1.1418 -1.08631 0
M  V30 29565 C 2784.21 2.19337 -0.718338 0
M  V30 29566 C 2785.18 1.63431 0.296558 0
M  V30 29567 O 2786.36 1.89949 0.180046 0
M  V30 29568 C 2783.5 3.44831 -0.136264 0
M  V30 29569 C 2782.62 4.14877 -1.20421 0
M  V30 29570 C 2781.75 5.27961 -0.585759 0
M  V30 29571 C 2780.79 5.89843 -1.63559 0
M  V30 29572 N 2779.93 6.94373 -1.03876 0
M  V30 29573 H 2784.77 2.50161 -1.61937 0
M  V30 29574 H 2782.31 1.22842 -0.809211 0
M  V30 29575 H 2784.26 4.16625 0.218948 0
M  V30 29576 H 2782.89 3.14482 0.728065 0
M  V30 29577 H 2781.95 3.41448 -1.67682 0
M  V30 29578 H 2783.26 4.56962 -1.99967 0
M  V30 29579 H 2782.41 6.06436 -0.178924 0
M  V30 29580 H 2781.15 4.87103 0.241334 0
M  V30 29581 H 2780.16 5.10069 -2.05206 0
M  V30 29582 H 2781.38 6.32775 -2.4652 0
M  V30 29583 H 2779.33 6.55587 -0.232803 0
M  V30 29584 H 2779.24 7.34957 -1.77129 0
M  V30 29585 H 2780.51 7.76719 -0.65786 0
M  V30 29586 N 2784.74 0.872304 1.31258 0
M  V30 29587 C 2785.99 0.483443 1.96233 0
M  V30 29588 C 2786.31 -0.967982 1.69278 0
M  V30 29589 O 2785.58 -1.67889 1.00946 0
M  V30 29590 H 2784.16 0.175787 0.726022 0
M  V30 29591 H 2786.82 1.1126 1.60022 0
M  V30 29592 H 2785.92 0.643129 3.05402 0
M  V30 29593 N 2786.22 -1.44374 0.631976 0
M  V30 29594 C 2787.47 -2.01638 0.136532 0
M  V30 29595 C 2787.79 -1.49971 -1.24634 0
M  V30 29596 O 2787.06 -0.703662 -1.82826 0
M  V30 29597 H 2785.64 -0.745489 0.0474834 0
M  V30 29598 H 2788.3 -1.76863 0.818868 0
M  V30 29599 H 2787.4 -3.11924 0.104872 0
M  V30 29600 N 2787.7 -0.372575 -1.53133 0
M  V30 29601 C 2788.64 0.470591 -2.25952 0
M  V30 29602 C 2789.61 1.07174 -1.26897 0
M  V30 29603 O 2790.8 1.10292 -1.55693 0
M  V30 29604 C 2787.94 1.60074 -3.05729 0
M  V30 29605 C 2787.05 1.02409 -4.19686 0
M  V30 29606 C 2786.19 2.12392 -4.86891 0
M  V30 29607 C 2785.23 1.52228 -5.92869 0
M  V30 29608 N 2784.36 2.56072 -6.53737 0
M  V30 29609 H 2789.2 -0.156868 -2.97587 0
M  V30 29610 H 2786.74 -0.089183 -1.46829 0
M  V30 29611 H 2788.7 2.26655 -3.50262 0
M  V30 29612 H 2787.33 2.19876 -2.36335 0
M  V30 29613 H 2786.38 0.248359 -3.79588 0
M  V30 29614 H 2787.69 0.544279 -4.95822 0
M  V30 29615 H 2786.85 2.86778 -5.34643 0
M  V30 29616 H 2785.58 2.63727 -4.10243 0
M  V30 29617 H 2784.59 0.763589 -5.44472 0
M  V30 29618 H 2785.81 1.01709 -6.7144 0
M  V30 29619 H 2783.76 3.06607 -5.79938 0
M  V30 29620 H 2783.68 2.12798 -7.25433 0
M  V30 29621 H 2784.95 3.30139 -7.06136 0
M  V30 29622 N 2789.17 1.5727 -0.101929 0
M  V30 29623 C 2790.59 1.57554 0.254712 0
M  V30 29624 C 2790.79 1.11355 1.67935 0
M  V30 29625 O 2789.85 0.793124 2.3972 0
M  V30 29626 C 2791.16 3.00677 0.0369221 0
M  V30 29627 C 2792.71 3.12827 0.104144 0
M  V30 29628 C 2793.18 4.5792 -0.085737 0
M  V30 29629 N 2794.67 4.6319 -0.0311313 0
M  V30 29630 C 2795.41 5.73195 -0.1532 0
M  V30 29631 N 2794.9 6.92011 -0.330485 0
M  V30 29632 N 2796.7 5.62021 -0.0939841 0
M  V30 29633 H 2788.85 1.85607 -1.03266 0
M  V30 29634 H 2791.11 0.857008 -0.405266 0
M  V30 29635 H 2790.82 3.38702 -0.947314 0
M  V30 29636 H 2790.69 3.69126 0.77627 0
M  V30 29637 H 2793.08 2.74671 1.07889 0
M  V30 29638 H 2793.16 2.46956 -0.666806 0
M  V30 29639 H 2792.8 4.96771 -1.05738 0
M  V30 29640 H 2792.73 5.2186 0.70499 0
M  V30 29641 H 2795.22 3.77759 0.103075 0
M  V30 29642 H 2795.54 7.71685 -0.414956 0
M  V30 29643 H 2793.88 6.94034 -0.366241 0
M  V30 29644 H 2797.07 4.6808 0.0434346 0
M  V30 29645 H 2797.25 6.47714 -0.192563 0
M  V30 29646 N 2790.65 -0.171793 1.56661 0
M  V30 29647 C 2792.06 -0.734299 1.71654 0
M  V30 29648 C 2792.41 -1.82811 0.712367 0
M  V30 29649 O 2791.54 -2.16031 -0.126363 0
M  V30 29650 C 2792.13 -1.33874 3.11228 0
M  V30 29651 C 2790.69 -1.84808 3.27907 0
M  V30 29652 C 2789.84 -0.72687 2.67604 0
M  V30 29653 H 2792.79 0.0535944 1.58609 0
M  V30 29654 H 2792.81 -2.20843 3.09853 0
M  V30 29655 H 2792.32 -0.542423 3.84291 0
M  V30 29656 H 2790.43 -2.67085 2.59801 0
M  V30 29657 H 2790.54 -1.99384 4.35641 0
M  V30 29658 H 2788.9 -1.14719 2.27402 0
M  V30 29659 H 2789.69 0.0575937 3.43252 0
M  V30 29660 N 2792.13 -1.51324 -0.44033 0
M  V30 29661 C 2793.08 -1.72422 -1.53426 0
M  V30 29662 C 2794.05 -0.565854 -1.56164 0
M  V30 29663 O 2795.23 -0.799948 -1.73221 0
M  V30 29664 C 2792.37 -1.85247 -2.91166 0
M  V30 29665 C 2791.49 -3.12782 -2.97979 0
M  V30 29666 C 2790.62 -3.1622 -4.26824 0
M  V30 29667 C 2789.66 -4.38082 -4.27494 0
M  V30 29668 N 2788.8 -4.39086 -5.47858 0
M  V30 29669 H 2793.64 -2.658 -1.34739 0
M  V30 29670 H 2791.17 -1.31733 -0.654585 0
M  V30 29671 H 2793.13 -1.90664 -3.71084 0
M  V30 29672 H 2791.76 -0.952798 -3.08418 0
M  V30 29673 H 2790.81 -3.16688 -2.10743 0
M  V30 29674 H 2792.13 -4.02701 -2.94335 0
M  V30 29675 H 2791.28 -3.20537 -5.15113 0
M  V30 29676 H 2790.02 -2.24184 -4.3312 0
M  V30 29677 H 2789.02 -4.33944 -3.37598 0
M  V30 29678 H 2790.25 -5.31378 -4.22864 0
M  V30 29679 H 2788.19 -3.49919 -5.54881 0
M  V30 29680 H 2788.11 -5.2281 -5.46082 0
M  V30 29681 H 2789.38 -4.47591 -6.38187 0
M  V30 29682 N 2793.61 0.695578 -1.41419 0
M  V30 29683 C 2794.52 1.8393 -1.45626 0
M  V30 29684 C 2795.53 1.70508 -0.346855 0
M  V30 29685 O 2796.71 1.92423 -0.594574 0
M  V30 29686 C 2793.78 3.19911 -1.33633 0
M  V30 29687 C 2792.84 3.45442 -2.54888 0
M  V30 29688 C 2792.07 4.74936 -2.43458 0
M  V30 29689 O 2792.29 5.51421 -1.45914 0
M  V30 29690 O 2791.23 5.0125 -3.33215 0
M  V30 29691 H 2795.05 1.83338 -2.42118 0
M  V30 29692 H 2792.64 0.848637 -1.22957 0
M  V30 29693 H 2794.52 4.01096 -1.29228 0
M  V30 29694 H 2793.19 3.21187 -0.402564 0
M  V30 29695 H 2792.1 2.64188 -2.64869 0
M  V30 29696 H 2793.43 3.48981 -3.47093 0
M  V30 29697 N 2795.09 1.27247 0.929833 0
M  V30 29698 C 2796.34 1.13236 1.67398 0
M  V30 29699 C 2796.66 -0.32271 1.92311 0
M  V30 29700 O 2795.93 -1.2261 1.52786 0
M  V30 29701 H 2794.51 0.416063 0.620404 0
M  V30 29702 H 2797.17 1.59743 1.1166 0
M  V30 29703 H 2796.26 1.6598 2.64305 0
M  V30 29704 N 2796.57 -1.13603 1.09235 0
M  V30 29705 C 2797.5 -2.21067 0.751776 0
M  V30 29706 C 2798.48 -1.67949 -0.269659 0
M  V30 29707 O 2799.66 -1.93708 -0.138156 0
M  V30 29708 C 2796.79 -3.46887 0.169411 0
M  V30 29709 C 2795.75 -4.13082 1.12014 0
M  V30 29710 C 2795.07 -5.33205 0.399577 0
M  V30 29711 C 2796.37 -4.60646 2.46176 0
M  V30 29712 H 2798.07 -2.49812 1.65029 0
M  V30 29713 H 2795.61 -1.20071 0.794926 0
M  V30 29714 H 2797.56 -4.21322 -0.0809084 0
M  V30 29715 H 2796.29 -3.17532 -0.76428 0
M  V30 29716 H 2794.95 -3.40612 1.3557 0
M  V30 29717 H 2794.6 -5.00113 -0.538189 0
M  V30 29718 H 2794.3 -5.7844 1.03347 0
M  V30 29719 H 2795.82 -6.10397 0.157511 0
M  V30 29720 H 2797.23 -5.26514 2.26838 0
M  V30 29721 H 2795.63 -5.16614 3.05335 0
M  V30 29722 H 2796.7 -3.75271 3.07083 0
M  V30 29723 N 2798.04 -0.879253 -1.30793 0
M  V30 29724 C 2798.97 -0.357836 -2.30742 0
M  V30 29725 C 2799.95 0.556255 -1.60748 0
M  V30 29726 O 2801.14 0.471317 -1.88394 0
M  V30 29727 C 2798.27 0.433494 -3.44584 0
M  V30 29728 C 2797.22 -0.388326 -4.26235 0
M  V30 29729 C 2796.55 0.529259 -5.32074 0
M  V30 29730 C 2797.85 -1.62738 -4.963 0
M  V30 29731 H 2799.54 -1.19304 -2.74603 0
M  V30 29732 H 2797.09 -0.575127 -1.32016 0
M  V30 29733 H 2799.04 0.808861 -4.13564 0
M  V30 29734 H 2797.77 1.30229 -2.99513 0
M  V30 29735 H 2796.43 -0.745758 -3.58935 0
M  V30 29736 H 2796.07 1.3956 -4.83251 0
M  V30 29737 H 2795.77 -0.0167774 -5.87598 0
M  V30 29738 H 2797.3 0.901267 -6.03912 0
M  V30 29739 H 2798.71 -1.32293 -5.57827 0
M  V30 29740 H 2797.11 -2.11318 -5.61662 0
M  V30 29741 H 2798.18 -2.37502 -4.22754 0
M  V30 29742 N 2799.52 1.44037 -0.639624 0
M  V30 29743 C 2800.45 2.28987 0.0987281 0
M  V30 29744 C 2801.47 1.41757 0.800555 0
M  V30 29745 O 2802.66 1.65827 0.660582 0
M  V30 29746 C 2799.76 3.18343 1.16236 0
M  V30 29747 C 2798.93 4.34037 0.541371 0
M  V30 29748 C 2797.99 5.04365 1.50008 0
M  V30 29749 O 2797.01 5.60096 1.01393 0
M  V30 29750 N 2798.22 5.06603 2.83432 0
M  V30 29751 H 2800.98 2.92996 -0.630356 0
M  V30 29752 H 2798.54 1.54577 -0.481403 0
M  V30 29753 H 2800.53 3.62256 1.80423 0
M  V30 29754 H 2799.1 2.56027 1.79357 0
M  V30 29755 H 2798.32 3.93209 -0.279299 0
M  V30 29756 H 2799.61 5.08687 0.10729 0
M  V30 29757 H 2799.01 4.62672 3.25502 0
M  V30 29758 H 2797.57 5.54278 3.42957 0
M  V30 29759 N 2801 0.380691 1.52933 0
M  V30 29760 C 2801.93 -0.502524 2.22598 0
M  V30 29761 C 2802.91 -1.07098 1.22347 0
M  V30 29762 O 2804.09 -1.12425 1.51304 0
M  V30 29763 C 2801.22 -1.69477 2.93249 0
M  V30 29764 C 2800.27 -1.25237 4.07698 0
M  V30 29765 S 2801.1 -0.241065 5.34957 0
M  V30 29766 C 2802.26 -1.43929 6.09127 0
M  V30 29767 H 2802.49 0.0890812 2.97167 0
M  V30 29768 H 2800.02 0.164844 1.53518 0
M  V30 29769 H 2801.98 -2.37857 3.34566 0
M  V30 29770 H 2800.64 -2.25766 2.18377 0
M  V30 29771 H 2799.83 -2.14232 4.56202 0
M  V30 29772 H 2799.44 -0.647599 3.68351 0
M  V30 29773 H 2801.73 -2.36783 6.34776 0
M  V30 29774 H 2802.67 -0.995341 7.0107 0
M  V30 29775 H 2803.08 -1.6522 5.3978 0
M  V30 29776 N 2802.48 -1.57214 0.110268 0
M  V30 29777 C 2803.42 -2.14848 -0.843157 0
M  V30 29778 C 2804.39 -1.07109 -1.26952 0
M  V30 29779 O 2805.58 -1.34973 -1.34859 0
M  V30 29780 C 2802.72 -2.74525 -2.09118 0
M  V30 29781 C 2801.83 -3.96544 -1.71397 0
M  V30 29782 C 2800.97 -4.44336 -2.911 0
M  V30 29783 C 2800.01 -5.58908 -2.49577 0
M  V30 29784 N 2799.14 -6.01483 -3.62164 0
M  V30 29785 H 2803.98 -2.95998 -0.344834 0
M  V30 29786 H 2801.52 -1.46243 -0.158524 0
M  V30 29787 H 2803.48 -3.07251 -2.82228 0
M  V30 29788 H 2802.11 -1.96078 -2.56424 0
M  V30 29789 H 2801.16 -3.70035 -0.881945 0
M  V30 29790 H 2802.47 -4.79653 -1.36876 0
M  V30 29791 H 2801.63 -4.78925 -3.72445 0
M  V30 29792 H 2800.37 -3.60159 -3.28841 0
M  V30 29793 H 2799.37 -5.23931 -1.66661 0
M  V30 29794 H 2800.6 -6.44844 -2.12962 0
M  V30 29795 H 2798.54 -5.20249 -3.99596 0
M  V30 29796 H 2798.46 -6.79425 -3.31538 0
M  V30 29797 H 2799.73 -6.40707 -4.43975 0
M  V30 29798 N 2803.96 0.163482 -1.5675 0
M  V30 29799 C 2804.89 1.20435 -2.00044 0
M  V30 29800 C 2805.87 1.45732 -0.877282 0
M  V30 29801 O 2807.05 1.56933 -1.14393 0
M  V30 29802 C 2804.18 2.54145 -2.36702 0
M  V30 29803 C 2803.14 2.43402 -3.52051 0
M  V30 29804 C 2802.46 3.81673 -3.74473 0
M  V30 29805 C 2803.76 1.93208 -4.85251 0
M  V30 29806 H 2805.46 0.844427 -2.87245 0
M  V30 29807 H 2803 0.404755 -1.38195 0
M  V30 29808 H 2804.95 3.27171 -2.65588 0
M  V30 29809 H 2803.68 2.9194 -1.46419 0
M  V30 29810 H 2802.34 1.72829 -3.23304 0
M  V30 29811 H 2801.99 4.16875 -2.81468 0
M  V30 29812 H 2801.69 3.75351 -4.5209 0
M  V30 29813 H 2803.21 4.56273 -4.05768 0
M  V30 29814 H 2804.62 2.56014 -5.12962 0
M  V30 29815 H 2803.02 1.97815 -5.66559 0
M  V30 29816 H 2804.09 0.886806 -4.76722 0
M  V30 29817 N 2805.43 1.51555 0.432299 0
M  V30 29818 C 2806.84 1.56894 1.01199 0
M  V30 29819 C 2807.2 0.395428 1.92174 0
M  V30 29820 O 2806.32 -0.487161 2.10845 0
M  V30 29821 C 2806.92 2.84344 1.84212 0
M  V30 29822 C 2805.47 2.92237 2.37223 0
M  V30 29823 C 2804.62 2.51608 1.16571 0
M  V30 29824 H 2807.57 1.57259 0.21338 0
M  V30 29825 H 2807.59 2.6839 2.69717 0
M  V30 29826 H 2807.11 3.69735 1.17973 0
M  V30 29827 H 2805.21 2.11287 3.06902 0
M  V30 29828 H 2805.32 3.95995 2.69675 0
M  V30 29829 H 2803.68 2.04921 1.51259 0
M  V30 29830 H 2804.47 3.39349 0.519344 0
M  V30 29831 N 2806.91 -0.688069 1.41786 0
M  V30 29832 C 2807.82 -1.83155 1.46599 0
M  V30 29833 C 2808.84 -1.70321 0.355892 0
M  V30 29834 O 2810.01 -1.92105 0.60477 0
M  V30 29835 C 2807.08 -3.19198 1.35327 0
M  V30 29836 C 2806.14 -3.44086 2.56717 0
M  V30 29837 C 2805.37 -4.73638 2.45973 0
M  V30 29838 O 2805.6 -5.50639 1.48837 0
M  V30 29839 O 2804.53 -4.99476 3.35868 0
M  V30 29840 H 2808.36 -1.82051 2.43086 0
M  V30 29841 H 2805.94 -0.842104 1.23406 0
M  V30 29842 H 2807.82 -4.00405 1.31354 0
M  V30 29843 H 2806.5 -3.20969 0.419592 0
M  V30 29844 H 2805.4 -2.62779 2.66266 0
M  V30 29845 H 2806.74 -3.47135 3.48939 0
M  V30 29846 N 2808.39 -1.27739 -0.923072 0
M  V30 29847 C 2809.8 -1.12995 -1.48624 0
M  V30 29848 C 2810.15 0.283405 -1.94142 0
M  V30 29849 O 2809.28 1.17678 -1.81607 0
M  V30 29850 C 2809.87 -2.0451 -2.70113 0
M  V30 29851 C 2808.43 -1.93858 -3.22639 0
M  V30 29852 C 2807.58 -1.96795 -1.95364 0
M  V30 29853 H 2810.53 -1.40564 -0.736712 0
M  V30 29854 H 2810.55 -1.60362 -3.45057 0
M  V30 29855 H 2810.06 -3.07368 -2.36953 0
M  V30 29856 H 2808.16 -0.940032 -3.60547 0
M  V30 29857 H 2808.28 -2.80338 -3.8852 0
M  V30 29858 H 2806.64 -1.41079 -2.12058 0
M  V30 29859 H 2807.42 -3.01315 -1.64512 0
M  V30 29860 N 2809.87 1.13022 -1.09836 0
M  V30 29861 C 2811.11 1.84666 -0.838222 0
M  V30 29862 C 2811.45 1.83538 0.634613 0
M  V30 29863 O 2810.72 1.27649 1.46751 0
M  V30 29864 C 2811.01 3.32633 -1.37938 0
M  V30 29865 C 2810.86 3.42251 -2.91863 0
M  V30 29866 C 2812.18 4.28197 -1.01662 0
M  V30 29867 H 2809.3 0.67049 -0.305962 0
M  V30 29868 H 2811.94 1.32633 -1.36046 0
M  V30 29869 H 2810.09 3.77077 -0.935177 0
M  V30 29870 H 2811.76 3.06489 -3.44764 0
M  V30 29871 H 2810 2.82994 -3.28781 0
M  V30 29872 H 2810.67 4.46323 -3.24807 0
M  V30 29873 H 2813.15 3.91848 -1.3998 0
M  V30 29874 H 2812.03 5.30154 -1.42226 0
M  V30 29875 H 2812.29 4.42037 0.0747017 0
M  V30 29876 N 2811.35 0.886177 1.30325 0
M  V30 29877 C 2812.29 0.352109 2.28098 0
M  V30 29878 C 2813.26 -0.558369 1.56434 0
M  V30 29879 O 2814.45 -0.486529 1.84493 0
M  V30 29880 C 2811.59 -0.426285 3.42457 0
M  V30 29881 C 2810.7 0.513547 4.28937 0
M  V30 29882 C 2809.84 -0.280563 5.30459 0
M  V30 29883 C 2808.88 0.654663 6.08589 0
M  V30 29884 N 2808.01 -0.104198 7.02023 0
M  V30 29885 H 2812.85 1.19102 2.73164 0
M  V30 29886 H 2810.39 0.598685 1.34366 0
M  V30 29887 H 2812.35 -0.893515 4.0752 0
M  V30 29888 H 2810.98 -1.22976 2.98457 0
M  V30 29889 H 2810.03 1.09927 3.64171 0
M  V30 29890 H 2811.34 1.22998 4.83397 0
M  V30 29891 H 2810.5 -0.809594 6.01274 0
M  V30 29892 H 2809.23 -1.03021 4.76695 0
M  V30 29893 H 2808.24 1.19531 5.36649 0
M  V30 29894 H 2809.46 1.40342 6.6444 0
M  V30 29895 H 2807.41 -0.836358 6.50647 0
M  V30 29896 H 2807.33 0.552585 7.53978 0
M  V30 29897 H 2808.6 -0.613933 7.77079 0
M  V30 29898 N 2812.82 -1.43695 0.647253 0
M  V30 29899 C 2813.75 -2.33474 -0.0345221 0
M  V30 29900 C 2814.74 -1.49131 -0.818166 0
M  V30 29901 O 2815.92 -1.77811 -0.780835 0
M  V30 29902 C 2813.05 -3.3242 -1.0057 0
M  V30 29903 C 2812 -4.26706 -0.332585 0
M  V30 29904 C 2811.33 -5.15643 -1.4148 0
M  V30 29905 C 2812.63 -5.16574 0.771295 0
M  V30 29906 H 2814.32 -2.90732 0.715214 0
M  V30 29907 H 2811.87 -1.39797 0.345389 0
M  V30 29908 H 2813.82 -3.94121 -1.49152 0
M  V30 29909 H 2812.55 -2.73406 -1.78653 0
M  V30 29910 H 2811.21 -3.6636 0.132735 0
M  V30 29911 H 2810.85 -4.52972 -2.1869 0
M  V30 29912 H 2810.55 -5.79543 -0.969697 0
M  V30 29913 H 2812.08 -5.80218 -1.9021 0
M  V30 29914 H 2813.49 -5.72118 0.367891 0
M  V30 29915 H 2811.89 -5.89163 1.1405 0
M  V30 29916 H 2812.96 -4.5662 1.63177 0
M  V30 29917 N 2814.3 -0.388796 -1.52729 0
M  V30 29918 C 2815.23 0.481665 -2.24082 0
M  V30 29919 C 2816.25 1.02713 -1.26309 0
M  V30 29920 O 2817.44 0.929538 -1.52387 0
M  V30 29921 C 2814.54 1.68019 -2.94318 0
M  V30 29922 C 2813.71 1.26219 -4.18793 0
M  V30 29923 C 2812.77 2.32534 -4.72032 0
M  V30 29924 O 2811.79 1.93963 -5.35133 0
M  V30 29925 N 2813 3.6444 -4.51845 0
M  V30 29926 H 2815.76 -0.129643 -2.99419 0
M  V30 29927 H 2813.32 -0.215128 -1.60464 0
M  V30 29928 H 2815.31 2.38665 -3.26835 0
M  V30 29929 H 2813.88 2.19785 -2.22291 0
M  V30 29930 H 2813.1 0.384634 -3.92319 0
M  V30 29931 H 2814.39 0.959559 -4.9967 0
M  V30 29932 H 2813.79 3.9854 -4.01475 0
M  V30 29933 H 2812.35 4.31123 -4.88852 0
M  V30 29934 N 2815.78 1.57153 -0.118604 0
M  V30 29935 C 2816.71 2.11006 0.869009 0
M  V30 29936 C 2817.69 1.02636 1.26113 0
M  V30 29937 O 2818.88 1.30288 1.36225 0
M  V30 29938 C 2816 2.60644 2.16292 0
M  V30 29939 C 2815.05 3.80894 1.9189 0
M  V30 29940 S 2815.88 5.23322 1.13553 0
M  V30 29941 C 2817.04 5.76328 2.44125 0
M  V30 29942 H 2817.27 2.94446 0.410953 0
M  V30 29943 H 2814.8 1.54106 0.095162 0
M  V30 29944 H 2816.76 2.89897 2.90637 0
M  V30 29945 H 2815.42 1.77386 2.59216 0
M  V30 29946 H 2814.62 4.13773 2.87763 0
M  V30 29947 H 2814.22 3.52256 1.25666 0
M  V30 29948 H 2816.51 5.86028 3.39966 0
M  V30 29949 H 2817.45 6.74418 2.15791 0
M  V30 29950 H 2817.86 5.04392 2.53474 0
M  V30 29951 N 2817.26 -0.155167 1.56834 0
M  V30 29952 C 2818.5 -0.875455 1.84703 0
M  V30 29953 C 2818.86 -1.78715 0.701778 0
M  V30 29954 O 2820.06 -2.54627 0.861308 0
M  V30 29955 C 2818.33 -1.63649 3.17732 0
M  V30 29956 S 2819.89 -2.40332 3.67132 0
M  V30 29957 H 2816.71 -0.292911 0.647861 0
M  V30 29958 H 2819.31 -0.13599 1.95026 0
M  V30 29959 H 2818.02 -0.958047 3.99061 0
M  V30 29960 H 2817.55 -2.41702 3.10393 0
M  V30 29961 H 2819.56 -3.65362 3.35745 0
M  V30 29962 N 2818.74 -1.51782 -0.424256 0
M  V30 29963 C 2819.67 -1.76992 -1.52302 0
M  V30 29964 C 2820.65 -0.620237 -1.58389 0
M  V30 29965 O 2821.83 -0.864298 -1.73907 0
M  V30 29966 C 2818.96 -1.90688 -2.90268 0
M  V30 29967 C 2817.92 -3.06203 -2.99038 0
M  V30 29968 C 2817.24 -3.051 -4.39111 0
M  V30 29969 C 2818.54 -4.45938 -2.71912 0
M  V30 29970 H 2820.24 -2.68997 -1.31457 0
M  V30 29971 H 2817.78 -1.29441 -0.630962 0
M  V30 29972 H 2819.74 -2.06907 -3.67107 0
M  V30 29973 H 2818.46 -0.95342 -3.12374 0
M  V30 29974 H 2817.12 -2.8971 -2.24641 0
M  V30 29975 H 2816.77 -2.07506 -4.58203 0
M  V30 29976 H 2816.47 -3.82677 -4.45906 0
M  V30 29977 H 2817.99 -3.23429 -5.17905 0
M  V30 29978 H 2819.4 -4.62715 -3.38479 0
M  V30 29979 H 2817.8 -5.2532 -2.90102 0
M  V30 29980 H 2818.87 -4.55075 -1.67437 0
M  V30 29981 N 2820.21 0.68054 -1.42149 0
M  V30 29982 C 2821.14 1.80636 -1.47963 0
M  V30 29983 C 2822.13 1.66733 -0.336757 0
M  V30 29984 O 2823.31 1.86241 -0.550279 0
M  V30 29985 C 2820.44 3.1889 -1.37574 0
M  V30 29986 C 2819.39 3.47519 -2.49829 0
M  V30 29987 C 2818.72 4.85287 -2.245 0
M  V30 29988 C 2820.02 3.44987 -3.9215 0
M  V30 29989 H 2821.71 1.76028 -2.42187 0
M  V30 29990 H 2819.26 0.845461 -1.16567 0
M  V30 29991 H 2821.21 3.97376 -1.4025 0
M  V30 29992 H 2819.94 3.24161 -0.398413 0
M  V30 29993 H 2818.6 2.71391 -2.4646 0
M  V30 29994 H 2818.24 4.87202 -1.25074 0
M  V30 29995 H 2817.94 5.05406 -2.99731 0
M  V30 29996 H 2819.47 5.66065 -2.28916 0
M  V30 29997 H 2820.88 4.13452 -3.97153 0
M  V30 29998 H 2819.28 3.7664 -4.67186 0
M  V30 29999 H 2820.35 2.43669 -4.1923 0
M  V30 30000 N 2821.69 1.28226 0.916285 0
M  V30 30001 C 2822.62 1.14468 2.03518 0
M  V30 30002 C 2823.6 0.0431143 1.70045 0
M  V30 30003 O 2824.79 0.219653 1.92954 0
M  V30 30004 C 2821.92 0.803087 3.37887 0
M  V30 30005 C 2820.87 1.85914 3.85512 0
M  V30 30006 C 2820.2 1.37125 5.16818 0
M  V30 30007 C 2821.5 3.26526 4.07649 0
M  V30 30008 H 2823.19 2.08068 2.15286 0
M  V30 30009 H 2820.74 1.00176 1.03444 0
M  V30 30010 H 2822.69 0.693611 4.15653 0
M  V30 30011 H 2821.42 -0.168617 3.26164 0
M  V30 30012 H 2820.07 1.95772 3.0995 0
M  V30 30013 H 2819.72 0.388678 5.01496 0
M  V30 30014 H 2819.42 2.07738 5.49653 0
M  V30 30015 H 2820.95 1.27494 5.97141 0
M  V30 30016 H 2822.36 3.19604 4.75948 0
M  V30 30017 H 2820.76 3.94951 4.51811 0
M  V30 30018 H 2821.83 3.70732 3.12547 0
M  V30 30019 N 2823.17 -1.12438 1.10433 0
M  V30 30020 C 2824.1 -2.17894 0.710983 0
M  V30 30021 C 2825.12 -1.60833 -0.252287 0
M  V30 30022 O 2826.3 -1.78462 -0.0367587 0
M  V30 30023 C 2823.4 -3.38888 0.0284858 0
M  V30 30024 C 2822.58 -4.25438 1.01593 0
M  V30 30025 C 2821.64 -5.24933 0.364918 0
M  V30 30026 O 2820.66 -5.60064 1.01571 0
M  V30 30027 N 2821.86 -5.73843 -0.87664 0
M  V30 30028 H 2824.63 -2.52252 1.6183 0
M  V30 30029 H 2822.19 -1.27859 0.993155 0
M  V30 30030 H 2824.18 -4.0253 -0.418498 0
M  V30 30031 H 2822.75 -3.0268 -0.781241 0
M  V30 30032 H 2821.97 -3.58412 1.64117 0
M  V30 30033 H 2823.26 -4.80112 1.68433 0
M  V30 30034 H 2822.66 -5.47465 -1.42473 0
M  V30 30035 H 2821.22 -6.39372 -1.26677 0
M  V30 30036 N 2824.65 -0.893076 -1.29853 0
M  V30 30037 C 2825.88 -0.530054 -1.99685 0
M  V30 30038 C 2826.29 0.887983 -1.67067 0
M  V30 30039 O 2825.63 1.59668 -0.908394 0
M  V30 30040 C 2825.69 -0.634632 -3.53854 0
M  V30 30041 C 2825.36 -2.01844 -4.1001 0
M  V30 30042 C 2826.35 -2.98882 -4.25401 0
M  V30 30043 C 2824.04 -2.32603 -4.45198 0
M  V30 30044 C 2826.03 -4.24807 -4.75203 0
M  V30 30045 C 2823.72 -3.58772 -4.94698 0
M  V30 30046 C 2824.72 -4.54689 -5.09654 0
M  V30 30047 O 2824.41 -5.78618 -5.58083 0
M  V30 30048 H 2824.14 -0.202651 -0.64491 0
M  V30 30049 H 2826.69 -1.20256 -1.66516 0
M  V30 30050 H 2824.92 0.0948798 -3.86584 0
M  V30 30051 H 2826.61 -0.281719 -4.04921 0
M  V30 30052 H 2827.38 -2.76432 -3.9851 0
M  V30 30053 H 2823.26 -1.58709 -4.32819 0
M  V30 30054 H 2826.8 -4.99679 -4.86792 0
M  V30 30055 H 2822.7 -3.81055 -5.21025 0
M  V30 30056 H 2823.46 -5.81114 -5.7641 0
M  V30 30057 N 2826.13 1.4335 -0.654865 0
M  V30 30058 C 2827.06 2.3349 0.0221399 0
M  V30 30059 C 2828.04 1.49563 0.810246 0
M  V30 30060 O 2829.22 1.78222 0.771395 0
M  V30 30061 C 2826.35 3.32948 0.988059 0
M  V30 30062 C 2825.31 4.26876 0.309951 0
M  V30 30063 C 2824.63 5.16386 1.38743 0
M  V30 30064 C 2825.93 5.16157 -0.798679 0
M  V30 30065 H 2827.63 2.90349 -0.730622 0
M  V30 30066 H 2825.17 1.39611 -0.352798 0
M  V30 30067 H 2827.13 3.94907 1.4706 0
M  V30 30068 H 2825.85 2.7435 1.772 0
M  V30 30069 H 2824.51 3.66284 -0.152162 0
M  V30 30070 H 2824.16 4.54125 2.16285 0
M  V30 30071 H 2823.86 5.8005 0.938949 0
M  V30 30072 H 2825.38 5.81218 1.8713 0
M  V30 30073 H 2826.8 5.71915 -0.398226 0
M  V30 30074 H 2825.19 5.8855 -1.17173 0
M  V30 30075 H 2826.26 4.55748 -1.65596 0
M  V30 30076 N 2827.61 0.39689 1.52521 0
M  V30 30077 C 2828.85 -0.182542 2.03583 0
M  V30 30078 C 2829.21 -1.4341 1.27662 0
M  V30 30079 O 2830.41 -2.09118 1.68888 0
M  V30 30080 C 2828.68 -0.436457 3.54725 0
M  V30 30081 S 2830.24 -0.985087 4.276 0
M  V30 30082 H 2827.06 -0.0507404 0.709187 0
M  V30 30083 H 2829.66 0.546988 1.87692 0
M  V30 30084 H 2828.36 0.481415 4.07567 0
M  V30 30085 H 2827.9 -1.1942 3.74837 0
M  V30 30086 H 2829.91 -2.26678 4.41397 0
M  V30 30087 N 2829.08 -1.57088 0.126936 0
M  V30 30088 C 2830.36 -1.87015 -0.57312 0
M  V30 30089 C 2830.74 -1.02949 -1.84295 0
M  V30 30090 O 2830.09 -0.110613 -2.28232 0
M  V30 30091 C 2830.3 -3.38291 -0.857924 0
M  V30 30092 C 2831.65 -4.07068 -1.20752 0
M  V30 30093 O 2832.67 -3.43355 -0.947932 0
M  V30 30094 O 2831.53 -5.19548 -1.69507 0
M  V30 30095 H 2828.62 -0.774461 -0.290068 0
M  V30 30096 H 2831.17 -1.68925 0.162038 0
M  V30 30097 H 2829.94 -3.91278 0.0415974 0
M  V30 30098 H 2829.56 -3.6184 -1.64796 0
M  V30 30099 N 2830.56 0.146848 -1.56914 0
M  V30 30100 C 2831.8 0.865648 -1.85165 0
M  V30 30101 C 2832.17 1.7834 -0.711246 0
M  V30 30102 O 2833.37 2.54167 -0.874799 0
M  V30 30103 C 2831.64 1.61961 -3.18596 0
M  V30 30104 S 2833.2 2.38382 -3.68401 0
M  V30 30105 H 2830.01 0.289472 -0.649405 0
M  V30 30106 H 2832.62 0.125645 -1.95096 0
M  V30 30107 H 2831.32 0.93687 -3.99563 0
M  V30 30108 H 2830.85 2.40053 -3.1167 0
M  V30 30109 H 2832.87 3.63577 -3.37678 0
M  V30 30110 N 2832.04 1.52005 0.4162 0
M  V30 30111 C 2832.97 1.7106 1.52549 0
M  V30 30112 C 2833.98 0.591046 1.51692 0
M  V30 30113 O 2835.17 0.866001 1.56085 0
M  V30 30114 C 2832.27 1.72942 2.91452 0
M  V30 30115 C 2831.45 3.01822 3.16579 0
M  V30 30116 C 2830.51 2.9561 4.35317 0
M  V30 30117 O 2829.53 3.69528 4.32941 0
M  V30 30118 N 2830.73 2.12913 5.40045 0
M  V30 30119 H 2833.5 2.6676 1.36599 0
M  V30 30120 H 2831.06 1.50154 0.605413 0
M  V30 30121 H 2833.05 1.66328 3.68941 0
M  V30 30122 H 2831.62 0.847471 3.00893 0
M  V30 30123 H 2830.84 3.22141 2.27198 0
M  V30 30124 H 2832.13 3.87093 3.30206 0
M  V30 30125 H 2831.53 1.52274 5.4482 0
M  V30 30126 H 2830.08 2.1216 6.16304 0
M  V30 30127 N 2833.52 -0.672992 1.42508 0
M  V30 30128 C 2834.76 -1.43516 1.43286 0
M  V30 30129 C 2835.1 -1.94136 0.0497021 0
M  V30 30130 O 2834.37 -1.71024 -0.926339 0
M  V30 30131 C 2834.65 -2.63089 2.45878 0
M  V30 30132 C 2834.51 -2.18089 3.93392 0
M  V30 30133 C 2835.83 -3.65306 2.45438 0
M  V30 30134 H 2832.95 -0.520513 0.521762 0
M  V30 30135 H 2835.59 -0.76467 1.73933 0
M  V30 30136 H 2833.74 -3.20292 2.19875 0
M  V30 30137 H 2835.41 -1.66039 4.30382 0
M  V30 30138 H 2833.65 -1.49645 4.07172 0
M  V30 30139 H 2834.32 -3.03985 4.60757 0
M  V30 30140 H 2836.8 -3.17823 2.68567 0
M  V30 30141 H 2835.68 -4.46548 3.19196 0
M  V30 30142 H 2835.94 -4.16556 1.481 0
M  V30 30143 N 2835 -1.2871 -0.909472 0
M  V30 30144 C 2836.41 -1.0651 -1.1886 0
M  V30 30145 C 2836.61 0.189828 -2.00604 0
M  V30 30146 O 2835.67 0.890314 -2.36283 0
M  V30 30147 C 2836.98 -2.31503 -1.91903 0
M  V30 30148 C 2838.53 -2.36725 -2.04769 0
M  V30 30149 C 2839 -3.61495 -2.81221 0
M  V30 30150 N 2840.49 -3.6216 -2.88781 0
M  V30 30151 C 2841.23 -4.55381 -3.48447 0
M  V30 30152 N 2840.73 -5.58925 -4.09359 0
M  V30 30153 N 2842.52 -4.42969 -3.46027 0
M  V30 30154 H 2834.67 -2.09261 -0.363831 0
M  V30 30155 H 2836.93 -0.921245 -0.223633 0
M  V30 30156 H 2836.64 -3.2295 -1.39269 0
M  V30 30157 H 2836.51 -2.3825 -2.92432 0
M  V30 30158 H 2838.9 -1.45771 -2.56583 0
M  V30 30159 H 2838.98 -2.33969 -1.03404 0
M  V30 30160 H 2838.62 -4.52794 -2.30086 0
M  V30 30161 H 2838.55 -3.61506 -3.82911 0
M  V30 30162 H 2841.05 -2.87287 -2.45508 0
M  V30 30163 H 2841.36 -6.26195 -4.5288 0
M  V30 30164 H 2839.7 -5.62746 -4.0785 0
M  V30 30165 H 2842.89 -3.61275 -2.97654 0
M  V30 30166 H 2843.07 -5.15806 -3.92235 0
M  V30 30167 N 2836.47 1.1185 -1.11028 0
M  V30 30168 C 2837.42 2.15866 -0.733874 0
M  V30 30169 C 2838.41 1.58786 0.259982 0
M  V30 30170 O 2839.6 1.7687 0.067759 0
M  V30 30171 C 2836.73 3.42859 -0.174008 0
M  V30 30172 C 2835.81 4.06908 -1.19527 0
M  V30 30173 N 2836.21 4.45877 -2.38805 0
M  V30 30174 C 2834.5 4.33772 -1.03722 0
M  V30 30175 C 2835.2 4.96002 -3.03903 0
M  V30 30176 N 2834.18 4.9189 -2.31397 0
M  V30 30177 H 2837.98 2.4377 -1.64175 0
M  V30 30178 H 2835.5 1.2882 -0.988899 0
M  V30 30179 H 2837.49 4.16745 0.113763 0
M  V30 30180 H 2836.15 3.16422 0.728513 0
M  V30 30181 H 2837.16 4.38047 -2.76289 0
M  V30 30182 H 2833.84 4.17064 -0.190767 0
M  V30 30183 H 2835.23 5.35819 -4.05398 0
M  V30 30184 N 2837.95 0.89995 1.29378 0
M  V30 30185 C 2839.37 0.596085 1.48051 0
M  V30 30186 C 2839.57 -0.86234 1.82115 0
M  V30 30187 O 2838.62 -1.6425 1.91777 0
M  V30 30188 C 2839.94 1.52212 2.5933 0
M  V30 30189 C 2841.48 1.52735 2.73205 0
M  V30 30190 C 2841.96 2.43968 3.87613 0
M  V30 30191 N 2843.45 2.42016 3.94946 0
M  V30 30192 C 2844.19 3.09312 4.82819 0
M  V30 30193 N 2843.68 3.85887 5.75381 0
M  V30 30194 N 2845.47 2.98468 4.76312 0
M  V30 30195 H 2837.63 1.84321 1.05543 0
M  V30 30196 H 2839.89 0.789819 0.5243 0
M  V30 30197 H 2839.59 2.56126 2.41024 0
M  V30 30198 H 2839.47 1.24284 3.56137 0
M  V30 30199 H 2841.86 0.495665 2.90907 0
M  V30 30200 H 2841.94 1.84701 1.76972 0
M  V30 30201 H 2841.58 3.47231 3.70666 0
M  V30 30202 H 2841.51 2.09311 4.83215 0
M  V30 30203 H 2844 1.8638 3.28741 0
M  V30 30204 H 2844.31 4.3429 6.39228 0
M  V30 30205 H 2842.66 3.89994 5.75265 0
M  V30 30206 H 2845.85 2.38159 4.02986 0
M  V30 30207 H 2846.02 3.51189 5.44583 0
M  V30 30208 N 2839.43 -1.43001 0.662458 0
M  V30 30209 C 2840.68 -2.00923 0.176908 0
M  V30 30210 C 2840.99 -1.52929 -1.21952 0
M  V30 30211 O 2842.2 -2.03185 -1.80078 0
M  V30 30212 C 2840.65 -3.5892 0.265442 0
M  V30 30213 C 2840.26 -4.15905 1.66514 0
M  V30 30214 C 2842.01 -4.24191 -0.162029 0
M  V30 30215 C 2839.91 -5.66226 1.7071 0
M  V30 30216 H 2838.84 -0.751415 0.062376 0
M  V30 30217 H 2841.49 -1.63866 0.825842 0
M  V30 30218 H 2839.88 -3.93422 -0.451166 0
M  V30 30219 H 2841.05 -3.92886 2.40784 0
M  V30 30220 H 2839.37 -3.6304 2.03939 0
M  V30 30221 H 2841.96 -5.34488 -0.150651 0
M  V30 30222 H 2842.31 -3.98776 -1.19512 0
M  V30 30223 H 2842.84 -3.94605 0.503144 0
M  V30 30224 H 2839.58 -5.96421 2.7196 0
M  V30 30225 H 2839.1 -5.91273 1.00779 0
M  V30 30226 H 2840.78 -6.30428 1.45498 0
M  V30 30227 N 2840.91 -0.404973 -1.52308 0
M  V30 30228 C 2841.82 0.429514 -2.30635 0
M  V30 30229 C 2842.83 1.05734 -1.38189 0
M  V30 30230 O 2844.01 1.05976 -1.71263 0
M  V30 30231 C 2841.08 1.53333 -3.1095 0
M  V30 30232 C 2840.14 0.928991 -4.19128 0
M  V30 30233 C 2839.37 1.98021 -4.95604 0
M  V30 30234 O 2839.59 3.19772 -4.72337 0
M  V30 30235 O 2838.53 1.58876 -5.80553 0
M  V30 30236 H 2842.35 -0.209016 -3.0298 0
M  V30 30237 H 2839.94 -0.168281 -1.48449 0
M  V30 30238 H 2841.82 2.17423 -3.60978 0
M  V30 30239 H 2840.49 2.15654 -2.41402 0
M  V30 30240 H 2839.4 0.250916 -3.73258 0
M  V30 30241 H 2840.73 0.349769 -4.90956 0
M  V30 30242 N 2842.39 1.57018 -0.135265 0
M  V30 30243 C 2843.35 2.14983 0.794669 0
M  V30 30244 C 2844.35 1.08868 1.1834 0
M  V30 30245 O 2845.54 1.34565 1.10625 0
M  V30 30246 C 2842.67 2.70336 2.0768 0
M  V30 30247 H 2843.86 2.98488 0.290644 0
M  V30 30248 H 2841.42 1.55883 0.114101 0
M  V30 30249 H 2842.15 1.90464 2.62476 0
M  V30 30250 H 2841.94 3.4796 1.80739 0
M  V30 30251 H 2843.43 3.15035 2.74122 0
M  V30 30252 N 2843.86 -0.138524 1.5699 0
M  V30 30253 C 2845.11 -0.848173 1.83 0
M  V30 30254 C 2845.43 -1.81951 0.717861 0
M  V30 30255 O 2846.63 -2.57392 0.863801 0
M  V30 30256 C 2845.09 -1.55899 3.24382 0
M  V30 30257 C 2844.7 -0.629632 4.43553 0
M  V30 30258 C 2846.44 -2.25492 3.59658 0
M  V30 30259 C 2844.35 -1.34256 5.7596 0
M  V30 30260 H 2843.28 -0.320483 0.6825 0
M  V30 30261 H 2845.93 -0.100892 1.83222 0
M  V30 30262 H 2844.31 -2.3522 3.18571 0
M  V30 30263 H 2845.48 0.128963 4.6062 0
M  V30 30264 H 2843.8 -0.0416794 4.16379 0
M  V30 30265 H 2846.4 -2.79485 4.55842 0
M  V30 30266 H 2846.74 -3.02383 2.86129 0
M  V30 30267 H 2847.27 -1.5308 3.67167 0
M  V30 30268 H 2844.01 -0.615326 6.52606 0
M  V30 30269 H 2843.53 -2.07365 5.62814 0
M  V30 30270 H 2845.21 -1.88115 6.19049 0
M  V30 30271 N 2845.34 -1.52224 -0.408133 0
M  V30 30272 C 2846.59 -1.66578 -1.15671 0
M  V30 30273 C 2846.92 -0.395029 -1.9014 0
M  V30 30274 O 2846.2 0.606581 -1.84799 0
M  V30 30275 C 2846.48 -2.88845 -2.15037 0
M  V30 30276 C 2846.33 -4.25972 -1.44457 0
M  V30 30277 C 2847.65 -3.06635 -3.15694 0
M  V30 30278 H 2844.77 -0.606204 -0.419149 0
M  V30 30279 H 2847.41 -1.8478 -0.442315 0
M  V30 30280 H 2845.56 -2.73457 -2.75959 0
M  V30 30281 H 2847.23 -4.53089 -0.866464 0
M  V30 30282 H 2845.48 -4.27328 -0.746537 0
M  V30 30283 H 2846.15 -5.07572 -2.16967 0
M  V30 30284 H 2848.62 -3.20928 -2.64848 0
M  V30 30285 H 2847.5 -3.93697 -3.82484 0
M  V30 30286 H 2847.76 -2.19994 -3.83478 0
M  V30 30287 N 2846.82 0.665425 -1.42863 0
M  V30 30288 C 2847.78 1.76053 -1.46759 0
M  V30 30289 C 2848.78 1.56857 -0.353893 0
M  V30 30290 O 2849.97 1.62978 -0.615128 0
M  V30 30291 C 2847.11 3.14794 -1.30835 0
M  V30 30292 H 2848.3 1.73983 -2.44274 0
M  V30 30293 H 2845.85 0.875942 -1.29449 0
M  V30 30294 H 2846.59 3.22483 -0.34279 0
M  V30 30295 H 2846.37 3.30131 -2.11556 0
M  V30 30296 H 2847.86 3.94673 -1.36465 0
M  V30 30297 N 2848.3 1.29191 0.902633 0
M  V30 30298 C 2849.55 1.16992 1.65285 0
M  V30 30299 C 2849.87 -0.279198 1.92486 0
M  V30 30300 O 2849.13 -1.2184 1.53145 0
M  V30 30301 C 2849.43 1.9255 3.01097 0
M  V30 30302 C 2849.09 3.42286 2.93515 0
M  V30 30303 C 2847.76 3.83122 2.91155 0
M  V30 30304 C 2850.11 4.37715 2.82939 0
M  V30 30305 C 2847.44 5.17709 2.76034 0
M  V30 30306 C 2849.79 5.72389 2.69358 0
M  V30 30307 C 2848.45 6.12486 2.65362 0
M  V30 30308 H 2847.72 0.428104 0.60482 0
M  V30 30309 H 2850.37 1.60094 1.05081 0
M  V30 30310 H 2848.67 1.4203 3.6515 0
M  V30 30311 H 2850.37 1.80518 3.5807 0
M  V30 30312 H 2846.96 3.09825 2.96153 0
M  V30 30313 H 2851.14 4.07121 2.83842 0
M  V30 30314 H 2846.4 5.4789 2.71343 0
M  V30 30315 H 2850.57 6.45986 2.60145 0
M  V30 30316 H 2848.2 7.16722 2.53403 0
M  V30 30317 N 2849.78 -1.1126 1.1162 0
M  V30 30318 C 2851 -1.87379 0.889046 0
M  V30 30319 C 2851.43 -1.79699 -0.555852 0
M  V30 30320 O 2850.78 -1.16075 -1.3927 0
M  V30 30321 C 2850.83 -3.34066 1.35765 0
M  V30 30322 O 2849.94 -4.08973 0.530571 0
M  V30 30323 H 2849.28 -0.581753 0.320092 0
M  V30 30324 H 2851.81 -1.40624 1.48613 0
M  V30 30325 H 2851.82 -3.84914 1.35298 0
M  V30 30326 H 2850.49 -3.38972 2.40979 0
M  V30 30327 H 2849.07 -3.68017 0.601503 0
M  V30 30328 N 2851.25 -0.906798 -1.28899 0
M  V30 30329 C 2852.53 -0.455571 -1.90221 0
M  V30 30330 C 2852.91 1.06523 -1.82252 0
M  V30 30331 O 2852.26 1.91023 -1.25389 0
M  V30 30332 C 2852.47 -0.978119 -3.35013 0
M  V30 30333 C 2853.82 -1.02606 -4.12016 0
M  V30 30334 O 2854.84 -0.926279 -3.43946 0
M  V30 30335 O 2853.7 -1.17698 -5.33675 0
M  V30 30336 H 2850.79 -0.143229 -0.814503 0
M  V30 30337 H 2853.34 -0.997128 -1.37315 0
M  V30 30338 H 2852.11 -2.0221 -3.35003 0
M  V30 30339 H 2851.74 -0.416983 -3.95407 0
M  V30 30340 N 2852.73 1.42648 -0.670032 0
M  V30 30341 C 2854.01 1.95235 -0.119485 0
M  V30 30342 C 2854.39 1.61066 1.36458 0
M  V30 30343 O 2853.74 0.904366 2.09842 0
M  V30 30344 C 2853.95 3.46886 -0.383559 0
M  V30 30345 C 2855.3 4.23556 -0.297505 0
M  V30 30346 O 2856.32 3.54786 -0.317042 0
M  V30 30347 O 2855.18 5.45992 -0.235603 0
M  V30 30348 H 2852.27 0.827 -0.000103084 0
M  V30 30349 H 2854.82 1.525 -0.744433 0
M  V30 30350 H 2853.59 3.64943 -1.41181 0
M  V30 30351 H 2853.21 3.96657 0.273632 0
M  V30 30352 N 2854.21 0.413044 1.52091 0
M  V30 30353 C 2855.46 -0.161462 2.01855 0
M  V30 30354 C 2855.79 -1.4481 1.29848 0
M  V30 30355 O 2855.04 -1.91682 0.394505 0
M  V30 30356 C 2855.34 -0.452037 3.5453 0
M  V30 30357 C 2855.01 0.745866 4.44688 0
M  V30 30358 C 2853.67 1.07444 4.69051 0
M  V30 30359 C 2856.02 1.54613 4.97739 0
M  V30 30360 C 2853.35 2.20439 5.43713 0
M  V30 30361 C 2855.7 2.66688 5.73638 0
M  V30 30362 C 2854.36 3.00027 5.96272 0
M  V30 30363 H 2853.63 -0.0590831 0.738641 0
M  V30 30364 H 2856.28 0.555266 1.83273 0
M  V30 30365 H 2854.59 -1.25038 3.71312 0
M  V30 30366 H 2856.28 -0.909578 3.90548 0
M  V30 30367 H 2852.87 0.4798 4.25906 0
M  V30 30368 H 2857.06 1.30551 4.78822 0
M  V30 30369 H 2852.31 2.46612 5.59457 0
M  V30 30370 H 2856.49 3.29083 6.1374 0
M  V30 30371 H 2854.11 3.877 6.53906 0
M  V30 30372 N 2855.69 -1.56945 0.143591 0
M  V30 30373 C 2856.94 -1.96305 -0.509125 0
M  V30 30374 C 2857.27 -1.02833 -1.64739 0
M  V30 30375 O 2856.54 -0.0700702 -1.94374 0
M  V30 30376 C 2856.83 -3.45395 -1.01854 0
M  V30 30377 C 2856.68 -4.49645 0.118002 0
M  V30 30378 C 2858 -3.96904 -1.90144 0
M  V30 30379 H 2855.12 -0.713766 -0.183595 0
M  V30 30380 H 2857.76 -1.88673 0.224128 0
M  V30 30381 H 2855.91 -3.5203 -1.64339 0
M  V30 30382 H 2857.58 -4.55092 0.754225 0
M  V30 30383 H 2855.82 -4.26773 0.777643 0
M  V30 30384 H 2856.5 -5.51289 -0.28009 0
M  V30 30385 H 2858.97 -3.92727 -1.37493 0
M  V30 30386 H 2857.85 -5.01694 -2.22698 0
M  V30 30387 H 2858.11 -3.39057 -2.83712 0
M  V30 30388 N 2857.17 0.130197 -1.57061 0
M  V30 30389 C 2858.13 1.14423 -1.98595 0
M  V30 30390 C 2859.13 1.34934 -0.874608 0
M  V30 30391 O 2860.32 1.31641 -1.14089 0
M  V30 30392 C 2857.45 2.50108 -2.31644 0
M  V30 30393 H 2858.65 0.78751 -2.89376 0
M  V30 30394 H 2856.2 0.374119 -1.51757 0
M  V30 30395 H 2856.93 2.90721 -1.43708 0
M  V30 30396 H 2856.72 2.36577 -3.12688 0
M  V30 30397 H 2858.21 3.23109 -2.64557 0
M  V30 30398 N 2858.65 1.52438 0.400055 0
M  V30 30399 C 2859.59 1.76429 1.488 0
M  V30 30400 C 2860.56 0.607059 1.54609 0
M  V30 30401 O 2861.75 0.845593 1.71039 0
M  V30 30402 C 2858.89 1.92901 2.86152 0
M  V30 30403 C 2858 3.20572 2.89581 0
M  V30 30404 C 2857.14 3.27425 4.1829 0
M  V30 30405 C 2856.17 4.49262 4.15728 0
M  V30 30406 N 2855.31 4.53457 5.36024 0
M  V30 30407 H 2860.15 2.69279 1.27644 0
M  V30 30408 H 2857.69 1.33422 0.619428 0
M  V30 30409 H 2859.65 2.00436 3.65898 0
M  V30 30410 H 2858.28 1.03423 3.05783 0
M  V30 30411 H 2857.33 3.22164 2.02273 0
M  V30 30412 H 2858.64 4.10363 2.83555 0
M  V30 30413 H 2857.79 3.34081 5.06433 0
M  V30 30414 H 2856.53 2.35588 4.27024 0
M  V30 30415 H 2855.54 4.42743 3.25974 0
M  V30 30416 H 2856.76 5.42403 4.08627 0
M  V30 30417 H 2854.71 3.64507 5.45408 0
M  V30 30418 H 2854.63 5.37105 5.32028 0
M  V30 30419 H 2855.89 4.64354 6.26095 0
M  V30 30420 N 2860.12 -0.657839 1.43214 0
M  V30 30421 C 2861.05 -1.78259 1.50818 0
M  V30 30422 C 2862.03 -1.66176 0.363241 0
M  V30 30423 O 2863.22 -1.85342 0.579839 0
M  V30 30424 C 2860.35 -3.16661 1.4263 0
M  V30 30425 C 2859.3 -3.43501 2.55326 0
M  V30 30426 C 2858.63 -4.81654 2.32192 0
M  V30 30427 C 2859.93 -3.38704 3.97589 0
M  V30 30428 H 2861.62 -1.72152 2.44957 0
M  V30 30429 H 2859.17 -0.826809 1.17898 0
M  V30 30430 H 2861.12 -3.95095 1.46555 0
M  V30 30431 H 2859.85 -3.23486 0.449934 0
M  V30 30432 H 2858.51 -2.67435 2.50747 0
M  V30 30433 H 2858.15 -4.8515 1.32809 0
M  V30 30434 H 2857.85 -5.00574 3.07733 0
M  V30 30435 H 2859.38 -5.62352 2.37893 0
M  V30 30436 H 2860.79 -4.07082 4.0368 0
M  V30 30437 H 2859.19 -3.6916 4.73118 0
M  V30 30438 H 2860.26 -2.36968 4.23053 0
M  V30 30439 N 2861.6 -1.29668 -0.895769 0
M  V30 30440 C 2862.53 -1.10941 -2.00561 0
M  V30 30441 C 2863.55 -0.0557626 -1.62704 0
M  V30 30442 O 2864.74 -0.300687 -1.75949 0
M  V30 30443 C 2861.84 -0.667506 -3.32261 0
M  V30 30444 C 2861.01 -1.80054 -3.98622 0
M  V30 30445 C 2860.07 -1.34899 -5.08615 0
M  V30 30446 O 2859.09 -2.05438 -5.30833 0
M  V30 30447 N 2860.3 -0.222039 -5.80075 0
M  V30 30448 H 2863.06 -2.06526 -2.1718 0
M  V30 30449 H 2860.62 -1.2166 -1.0682 0
M  V30 30450 H 2862.61 -0.348657 -4.03195 0
M  V30 30451 H 2861.18 0.196 -3.11985 0
M  V30 30452 H 2860.4 -2.28806 -3.21001 0
M  V30 30453 H 2861.69 -2.56011 -4.397 0
M  V30 30454 H 2861.09 0.365984 -5.64515 0
M  V30 30455 H 2859.65 0.0374201 -6.51789 0
M  V30 30456 N 2863.08 1.10667 -1.12208 0
M  V30 30457 C 2864.36 1.79051 -0.787414 0
M  V30 30458 C 2864.74 1.98324 0.723232 0
M  V30 30459 O 2864.08 1.57437 1.65607 0
M  V30 30460 C 2864.29 3.12207 -1.55974 0
M  V30 30461 C 2865.64 3.87121 -1.74419 0
M  V30 30462 O 2866.67 3.2192 -1.52465 0
M  V30 30463 O 2865.53 5.04141 -2.10961 0
M  V30 30464 H 2862.62 0.775917 -0.28615 0
M  V30 30465 H 2865.17 1.17337 -1.22597 0
M  V30 30466 H 2863.94 2.93583 -2.58698 0
M  V30 30467 H 2863.56 3.81638 -1.11527 0
M  V30 30468 N 2864.56 0.913621 1.28416 0
M  V30 30469 C 2865.51 0.392077 2.29272 0
M  V30 30470 C 2866.5 -0.51617 1.61344 0
M  V30 30471 O 2867.71 -0.397429 1.75558 0
M  V30 30472 H 2864.08 0.108191 0.744177 0
M  V30 30473 H 2866.05 1.25579 2.70689 0
M  V30 30474 C 2864.8 -0.352754 3.45906 0
M  V30 30475 H 2864.12 0.336918 3.98378 0
M  V30 30476 H 2865.56 -0.682325 4.18474 0
M  V30 30477 C 2864.02 -1.5606 2.98575 0
M  V30 30478 O 2864.55 -2.65969 3.01037 0
M  V30 30479 N 2862.76 -1.40754 2.54237 0
M  V30 30480 H 2862.31 -0.513359 2.52433 0
M  V30 30481 H 2862.26 -2.21698 2.22929 0
M  V30 30482 N 2866.04 -1.4229 0.677588 0
M  V30 30483 C 2866.97 -2.29169 -0.0379815 0
M  V30 30484 C 2867.98 -1.43829 -0.762689 0
M  V30 30485 O 2869.17 -1.6752 -0.616383 0
M  V30 30486 C 2866.27 -3.21313 -1.07755 0
M  V30 30487 C 2865.44 -4.3532 -0.426103 0
M  V30 30488 C 2864.5 -5.08165 -1.36583 0
M  V30 30489 O 2863.53 -5.62588 -0.865075 0
M  V30 30490 N 2864.73 -5.1394 -2.699 0
M  V30 30491 H 2867.49 -2.91222 0.707817 0
M  V30 30492 H 2865.06 -1.53247 0.522217 0
M  V30 30493 H 2867.05 -3.66913 -1.70755 0
M  V30 30494 H 2865.62 -2.60692 -1.72506 0
M  V30 30495 H 2864.84 -3.92331 0.383454 0
M  V30 30496 H 2866.13 -5.08793 0.0276171 0
M  V30 30497 H 2865.52 -4.71139 -3.1312 0
M  V30 30498 H 2864.08 -5.63176 -3.2814 0
M  V30 30499 N 2867.51 -0.421104 -1.5187 0
M  V30 30500 C 2868.93 -0.0725678 -1.59435 0
M  V30 30501 C 2869.13 1.41641 -1.43318 0
M  V30 30502 O 2868.19 2.18459 -1.26618 0
M  V30 30503 C 2869.5 -0.578184 -2.95089 0
M  V30 30504 C 2871.05 -0.537203 -3.08356 0
M  V30 30505 C 2871.52 -1.01952 -4.46508 0
M  V30 30506 N 2873.01 -0.976837 -4.52783 0
M  V30 30507 C 2873.75 -1.32109 -5.57974 0
M  V30 30508 N 2873.24 -1.73739 -6.70661 0
M  V30 30509 N 2875.04 -1.24029 -5.48246 0
M  V30 30510 H 2867.19 -1.3901 -1.60593 0
M  V30 30511 H 2869.45 -0.571816 -0.756128 0
M  V30 30512 H 2869.16 -1.61935 -3.12202 0
M  V30 30513 H 2869.03 0.00571743 -3.772 0
M  V30 30514 H 2871.42 0.49494 -2.9092 0
M  V30 30515 H 2871.5 -1.15731 -2.28123 0
M  V30 30516 H 2871.14 -2.05005 -4.64688 0
M  V30 30517 H 2871.07 -0.376116 -5.25255 0
M  V30 30518 H 2873.56 -0.670916 -3.71897 0
M  V30 30519 H 2873.88 -1.98287 -7.46929 0
M  V30 30520 H 2872.22 -1.77653 -6.71911 0
M  V30 30521 H 2875.41 -0.913836 -4.59093 0
M  V30 30522 H 2875.59 -1.51187 -6.30116 0
M  V30 30523 N 2868.99 1.56866 -0.151912 0
M  V30 30524 C 2870.24 1.96282 0.49797 0
M  V30 30525 C 2870.57 1.03701 1.64549 0
M  V30 30526 O 2869.82 0.0671841 1.95585 0
M  V30 30527 C 2870.12 3.41913 1.04068 0
M  V30 30528 C 2869.79 4.50899 0.0110896 0
M  V30 30529 C 2868.45 4.80431 -0.271928 0
M  V30 30530 C 2870.8 5.16629 -0.688781 0
M  V30 30531 C 2868.13 5.72999 -1.26054 0
M  V30 30532 C 2870.48 6.10262 -1.66624 0
M  V30 30533 C 2869.15 6.3817 -1.95691 0
M  V30 30534 H 2868.42 0.718246 0.18222 0
M  V30 30535 H 2871.06 1.89993 -0.239779 0
M  V30 30536 H 2869.37 3.45058 1.85586 0
M  V30 30537 H 2871.06 3.69741 1.55218 0
M  V30 30538 H 2867.65 4.27917 0.241857 0
M  V30 30539 H 2871.84 4.93941 -0.483327 0
M  V30 30540 H 2867.09 5.92913 -1.49213 0
M  V30 30541 H 2871.27 6.60268 -2.21403 0
M  V30 30542 H 2868.9 7.09702 -2.72447 0
M  V30 30543 N 2870.47 -0.121866 1.57128 0
M  V30 30544 C 2871.89 -0.475313 1.52358 0
M  V30 30545 C 2872.09 -1.82015 0.864449 0
M  V30 30546 O 2871.14 -2.48538 0.445572 0
M  V30 30547 C 2872.46 -0.462448 2.97123 0
M  V30 30548 C 2874 -0.546201 3.08197 0
M  V30 30549 C 2874.48 -0.563753 4.54517 0
M  V30 30550 N 2875.97 -0.625272 4.5896 0
M  V30 30551 C 2876.7 -0.660254 5.69586 0
M  V30 30552 N 2876.2 -0.653054 6.89715 0
M  V30 30553 N 2877.99 -0.703045 5.57686 0
M  V30 30554 H 2870.14 0.759344 1.98363 0
M  V30 30555 H 2872.41 0.279788 0.905772 0
M  V30 30556 H 2872.11 0.458005 3.48705 0
M  V30 30557 H 2871.99 -1.2913 3.54409 0
M  V30 30558 H 2874.37 -1.45707 2.56619 0
M  V30 30559 H 2874.46 0.310279 2.53911 0
M  V30 30560 H 2874.1 0.343063 5.0674 0
M  V30 30561 H 2874.03 -1.43708 5.06612 0
M  V30 30562 H 2876.52 -0.637117 3.72491 0
M  V30 30563 H 2876.83 -0.68229 7.69782 0
M  V30 30564 H 2875.18 -0.620524 6.92224 0
M  V30 30565 H 2878.37 -0.706013 4.62745 0
M  V30 30566 H 2878.54 -0.726839 6.43911 0
M  V30 30567 N 2871.95 -1.52648 -0.391965 0
M  V30 30568 C 2873.18 -1.71171 -1.15689 0
M  V30 30569 C 2873.59 -0.428477 -1.84284 0
M  V30 30570 O 2872.93 0.606638 -1.73394 0
M  V30 30571 C 2872.99 -2.80361 -2.25028 0
M  V30 30572 C 2872.66 -4.21572 -1.76425 0
M  V30 30573 C 2873.65 -5.04832 -1.24262 0
M  V30 30574 C 2871.34 -4.6788 -1.82738 0
M  V30 30575 C 2873.33 -6.32479 -0.790545 0
M  V30 30576 C 2871.02 -5.95513 -1.37142 0
M  V30 30577 C 2872.02 -6.77641 -0.853878 0
M  V30 30578 O 2871.7 -8.02881 -0.404567 0
M  V30 30579 H 2871.44 -0.576537 -0.35296 0
M  V30 30580 H 2873.99 -2.00068 -0.464959 0
M  V30 30581 H 2872.22 -2.46879 -2.97637 0
M  V30 30582 H 2873.91 -2.87316 -2.86713 0
M  V30 30583 H 2874.68 -4.70239 -1.18744 0
M  V30 30584 H 2870.55 -4.04046 -2.21964 0
M  V30 30585 H 2874.1 -6.96532 -0.385902 0
M  V30 30586 H 2870 -6.29609 -1.42345 0
M  V30 30587 H 2870.76 -8.16806 -0.526315 0
M  V30 30588 N 2873.43 0.650235 -1.43561 0
M  V30 30589 C 2874.37 1.78425 -1.49223 0
M  V30 30590 C 2875.37 1.65409 -0.365557 0
M  V30 30591 O 2876.57 1.71719 -0.539679 0
M  V30 30592 H 2872.95 0.58873 -0.467869 0
M  V30 30593 H 2874.92 1.7077 -2.44704 0
M  V30 30594 C 2873.67 3.16696 -1.43524 0
M  V30 30595 H 2872.99 3.2735 -2.29526 0
M  V30 30596 H 2874.43 3.95992 -1.51547 0
M  V30 30597 C 2872.89 3.36551 -0.153256 0
M  V30 30598 O 2873.42 3.9397 0.784247 0
M  V30 30599 N 2871.63 2.90533 -0.0624913 0
M  V30 30600 H 2871.17 2.43991 -0.826215 0
M  V30 30601 H 2871.13 3.04194 0.794563 0
M  V30 30602 N 2874.9 1.30141 0.88888 0
M  V30 30603 C 2875.81 1.18104 2.02703 0
M  V30 30604 C 2876.83 0.10184 1.73702 0
M  V30 30605 O 2878.01 0.316019 1.98905 0
M  V30 30606 C 2875.07 0.86971 3.35614 0
M  V30 30607 C 2874.13 2.03388 3.78063 0
M  V30 30608 C 2873.37 1.7373 5.04632 0
M  V30 30609 O 2873.59 0.663366 5.66529 0
M  V30 30610 O 2872.52 2.58855 5.43395 0
M  V30 30611 H 2876.35 2.13707 2.15784 0
M  V30 30612 H 2873.93 1.09697 1.01424 0
M  V30 30613 H 2875.82 0.711116 4.15357 0
M  V30 30614 H 2874.49 -0.0564433 3.23651 0
M  V30 30615 H 2873.4 2.24777 2.99042 0
M  V30 30616 H 2874.73 2.94162 3.94626 0
M  V30 30617 N 2876.38 -1.1007 1.12794 0
M  V30 30618 C 2877.63 -1.82379 0.886889 0
M  V30 30619 C 2877.96 -1.85156 -0.585728 0
M  V30 30620 O 2877.24 -1.31495 -1.43315 0
M  V30 30621 C 2877.52 -3.28859 1.46709 0
M  V30 30622 C 2877.37 -3.34393 3.00835 0
M  V30 30623 C 2878.69 -4.25351 1.12979 0
M  V30 30624 H 2875.81 -0.662142 0.323631 0
M  V30 30625 H 2878.45 -1.28979 1.39515 0
M  V30 30626 H 2876.6 -3.74464 1.03482 0
M  V30 30627 H 2878.27 -2.9724 3.52769 0
M  V30 30628 H 2876.52 -2.74177 3.36169 0
M  V30 30629 H 2877.19 -4.37554 3.36527 0
M  V30 30630 H 2879.66 -3.87999 1.5032 0
M  V30 30631 H 2878.54 -5.26196 1.56232 0
M  V30 30632 H 2878.8 -4.4208 0.0425229 0
M  V30 30633 N 2877.86 -0.920419 -1.2793 0
M  V30 30634 C 2878.79 -0.358325 -2.25369 0
M  V30 30635 C 2879.77 0.541215 -1.53328 0
M  V30 30636 O 2880.96 0.483367 -1.82197 0
M  V30 30637 C 2878.08 0.487134 -3.35179 0
M  V30 30638 C 2877.13 -0.347956 -4.25078 0
M  V30 30639 S 2877.96 -1.75891 -5.05789 0
M  V30 30640 C 2879.12 -0.920941 -6.19088 0
M  V30 30641 H 2879.35 -1.18418 -2.72699 0
M  V30 30642 H 2876.88 -0.722112 -1.36473 0
M  V30 30643 H 2878.84 0.96909 -3.98897 0
M  V30 30644 H 2877.5 1.28744 -2.86503 0
M  V30 30645 H 2876.7 0.298823 -5.03113 0
M  V30 30646 H 2876.3 -0.763812 -3.66117 0
M  V30 30647 H 2878.59 -0.153609 -6.77326 0
M  V30 30648 H 2879.53 -1.67406 -6.88027 0
M  V30 30649 H 2879.94 -0.466168 -5.62572 0
M  V30 30650 N 2879.34 1.41929 -0.685124 0
M  V30 30651 C 2880.27 2.29185 0.0258276 0
M  V30 30652 C 2881.28 1.44232 0.755051 0
M  V30 30653 O 2882.47 1.67845 0.607491 0
M  V30 30654 C 2879.57 3.2188 1.0605 0
M  V30 30655 C 2878.75 4.35539 0.403011 0
M  V30 30656 C 2877.8 5.08882 1.33886 0
M  V30 30657 O 2876.83 5.63039 0.835227 0
M  V30 30658 N 2878.03 5.15364 2.67171 0
M  V30 30659 H 2880.8 2.90842 -0.723252 0
M  V30 30660 H 2878.36 1.52967 -0.530337 0
M  V30 30661 H 2880.35 3.67813 1.68806 0
M  V30 30662 H 2878.92 2.61603 1.71121 0
M  V30 30663 H 2878.14 3.92122 -0.404254 0
M  V30 30664 H 2879.43 5.08771 -0.0545992 0
M  V30 30665 H 2878.83 4.72793 3.10617 0
M  V30 30666 H 2877.38 5.64908 3.25149 0
M  V30 30667 N 2880.82 0.429152 1.51644 0
M  V30 30668 C 2881.78 -0.374686 2.26117 0
M  V30 30669 C 2882.78 -0.956691 1.29244 0
M  V30 30670 O 2883.97 -0.832425 1.53024 0
M  V30 30671 C 2881.1 -1.52932 3.04671 0
M  V30 30672 H 2882.29 0.277871 2.9861 0
M  V30 30673 H 2879.85 0.182124 1.55235 0
M  V30 30674 H 2880.58 -2.21817 2.36575 0
M  V30 30675 H 2880.37 -1.11826 3.75816 0
M  V30 30676 H 2881.86 -2.09745 3.61105 0
M  V30 30677 N 2882.29 -1.56783 0.160229 0
M  V30 30678 C 2883.22 -2.20431 -0.770225 0
M  V30 30679 C 2884.21 -1.15653 -1.24734 0
M  V30 30680 O 2885.39 -1.44043 -1.30251 0
M  V30 30681 C 2882.52 -2.83634 -2.00422 0
M  V30 30682 C 2881.47 -3.94355 -1.66338 0
M  V30 30683 C 2880.8 -4.44555 -2.97111 0
M  V30 30684 C 2882.1 -5.14489 -0.899882 0
M  V30 30685 H 2883.79 -2.98439 -0.239731 0
M  V30 30686 H 2881.34 -1.43549 -0.113866 0
M  V30 30687 H 2883.29 -3.26831 -2.66006 0
M  V30 30688 H 2882.02 -2.02978 -2.55866 0
M  V30 30689 H 2880.68 -3.51796 -1.03127 0
M  V30 30690 H 2880.32 -3.60704 -3.50573 0
M  V30 30691 H 2880.02 -5.19243 -2.75064 0
M  V30 30692 H 2881.55 -4.90431 -3.63744 0
M  V30 30693 H 2882.96 -5.54448 -1.45808 0
M  V30 30694 H 2881.36 -5.95024 -0.778864 0
M  V30 30695 H 2882.43 -4.84784 0.105912 0
M  V30 30696 N 2883.77 0.113531 -1.57191 0
M  V30 30697 C 2884.72 1.15796 -2.01728 0
M  V30 30698 C 2885.72 1.42554 -0.91513 0
M  V30 30699 O 2886.92 1.42452 -1.10033 0
M  V30 30700 H 2883.3 0.390557 -0.642627 0
M  V30 30701 H 2885.27 0.755876 -2.88668 0
M  V30 30702 C 2884.02 2.47503 -2.44208 0
M  V30 30703 H 2883.34 2.27753 -3.28586 0
M  V30 30704 H 2884.78 3.1913 -2.79163 0
M  V30 30705 C 2883.24 3.10476 -1.3079 0
M  V30 30706 O 2883.77 3.96778 -0.626877 0
M  V30 30707 N 2881.97 2.70438 -1.06357 0
M  V30 30708 H 2881.52 2.00352 -1.61916 0
M  V30 30709 H 2881.48 3.12901 -0.306669 0
M  V30 30710 N 2885.25 1.52854 0.383864 0
M  V30 30711 C 2886.18 1.72754 1.49102 0
M  V30 30712 C 2887.16 0.575464 1.52076 0
M  V30 30713 O 2888.35 0.805884 1.70405 0
M  V30 30714 C 2885.47 1.7898 2.87548 0
M  V30 30715 C 2884.52 3.00782 3.02378 0
M  V30 30716 S 2885.35 4.60662 2.7304 0
M  V30 30717 C 2886.51 4.69711 4.1367 0
M  V30 30718 H 2886.74 2.66391 1.31997 0
M  V30 30719 H 2884.27 1.43211 0.577063 0
M  V30 30720 H 2886.23 1.83253 3.67326 0
M  V30 30721 H 2884.89 0.864268 3.01976 0
M  V30 30722 H 2884.09 3.01695 4.03728 0
M  V30 30723 H 2883.69 2.94527 2.30499 0
M  V30 30724 H 2885.98 4.48641 5.07668 0
M  V30 30725 H 2886.92 5.71729 4.1777 0
M  V30 30726 H 2887.33 3.98504 3.99818 0
M  V30 30727 N 2886.73 -0.642612 1.43904 0
M  V30 30728 C 2887.95 -1.43481 1.4976 0
M  V30 30729 C 2888.38 -1.87717 0.119944 0
M  V30 30730 O 2887.74 -1.58034 -0.88853 0
M  V30 30731 C 2887.79 -2.63894 2.45749 0
M  V30 30732 O 2886.89 -3.63327 1.95108 0
M  V30 30733 H 2886.23 -0.429782 0.506146 0
M  V30 30734 H 2888.76 -0.785404 1.88925 0
M  V30 30735 H 2888.77 -3.1158 2.63405 0
M  V30 30736 H 2887.45 -2.3104 3.45822 0
M  V30 30737 H 2886.02 -3.22528 1.87163 0
M  V30 30738 N 2888.21 -1.30611 -0.881966 0
M  V30 30739 C 2889.17 -1.17223 -1.96955 0
M  V30 30740 C 2890.17 -0.102626 -1.60472 0
M  V30 30741 O 2891.36 -0.350973 -1.70628 0
M  V30 30742 C 2888.49 -0.796631 -3.31461 0
M  V30 30743 H 2889.69 -2.13849 -2.10258 0
M  V30 30744 H 2887.24 -1.1405 -1.06875 0
M  V30 30745 H 2887.97 0.168996 -3.23859 0
M  V30 30746 H 2887.76 -1.56965 -3.59311 0
M  V30 30747 H 2889.25 -0.726522 -4.11232 0
M  V30 30748 N 2889.69 1.0947 -1.13376 0
M  V30 30749 C 2890.65 2.14271 -0.813677 0
M  V30 30750 C 2891.65 1.59827 0.176648 0
M  V30 30751 O 2892.84 1.74127 -0.0503747 0
M  V30 30752 C 2889.97 3.40247 -0.210957 0
M  V30 30753 H 2891.16 2.44096 -1.74233 0
M  V30 30754 H 2888.72 1.25001 -0.938326 0
M  V30 30755 H 2889.45 3.16048 0.726942 0
M  V30 30756 H 2889.24 3.81054 -0.924115 0
M  V30 30757 H 2890.73 4.176 -0.00384943 0
M  V30 30758 N 2891.16 0.92719 1.2744 0
M  V30 30759 C 2892.09 0.443228 2.29255 0
M  V30 30760 C 2893.07 -0.496211 1.62701 0
M  V30 30761 O 2894.26 -0.401071 1.90013 0
M  V30 30762 C 2891.39 -0.305305 3.45955 0
M  V30 30763 C 2890.34 0.546252 4.245 0
M  V30 30764 C 2889.67 -0.331418 5.33672 0
M  V30 30765 C 2890.97 1.81046 4.89918 0
M  V30 30766 H 2892.66 1.29413 2.69986 0
M  V30 30767 H 2890.21 0.623727 1.29791 0
M  V30 30768 H 2892.16 -0.654812 4.16281 0
M  V30 30769 H 2890.89 -1.19023 3.0414 0
M  V30 30770 H 2889.55 0.87846 3.55919 0
M  V30 30771 H 2889.19 -1.21528 4.88098 0
M  V30 30772 H 2888.89 0.234849 5.8713 0
M  V30 30773 H 2890.42 -0.676508 6.06841 0
M  V30 30774 H 2891.83 1.52905 5.52533 0
M  V30 30775 H 2890.23 2.32019 5.53432 0
M  V30 30776 H 2891.3 2.53028 4.13648 0
M  V30 30777 N 2892.64 -1.41564 0.692641 0
M  V30 30778 C 2893.87 -2.05603 0.231315 0
M  V30 30779 C 2894.28 -1.52113 -1.11835 0
M  V30 30780 O 2893.64 -0.66816 -1.69829 0
M  V30 30781 C 2893.69 -3.61065 0.177189 0
M  V30 30782 O 2893.41 -4.12576 1.47353 0
M  V30 30783 C 2894.91 -4.42246 -0.305482 0
M  V30 30784 H 2892.13 -0.662211 0.10825 0
M  V30 30785 H 2894.68 -1.81387 0.944401 0
M  V30 30786 H 2892.83 -3.84331 -0.486701 0
M  V30 30787 H 2893.25 -5.06596 1.3587 0
M  V30 30788 H 2894.72 -5.51226 -0.292233 0
M  V30 30789 H 2895.2 -4.18135 -1.34386 0
M  V30 30790 H 2895.8 -4.24039 0.327304 0
M  V30 30791 N 2894.12 -0.437188 -1.51415 0
M  V30 30792 C 2895.08 0.362689 -2.26312 0
M  V30 30793 C 2896.08 0.949824 -1.2975 0
M  V30 30794 O 2897.27 0.824298 -1.53463 0
M  V30 30795 C 2894.4 1.51314 -3.05478 0
M  V30 30796 H 2895.6 -0.293703 -2.98458 0
M  V30 30797 H 2893.15 -0.190354 -1.55137 0
M  V30 30798 H 2893.89 2.20559 -2.37748 0
M  V30 30799 H 2893.67 1.09831 -3.76403 0
M  V30 30800 H 2895.16 2.07827 -3.62212 0
M  V30 30801 N 2895.6 1.56696 -0.168541 0
M  V30 30802 C 2897.01 1.58493 0.187658 0
M  V30 30803 C 2897.21 1.18378 1.63061 0
M  V30 30804 O 2896.27 0.894083 2.36141 0
M  V30 30805 C 2897.58 3.00563 -0.0906386 0
M  V30 30806 C 2899.13 3.12987 -0.02863 0
M  V30 30807 C 2899.61 4.57144 -0.279879 0
M  V30 30808 N 2901.1 4.62641 -0.227558 0
M  V30 30809 C 2901.83 5.7203 -0.396174 0
M  V30 30810 N 2901.33 6.89987 -0.623694 0
M  V30 30811 N 2903.12 5.61117 -0.332272 0
M  V30 30812 H 2895.27 1.8106 -1.11045 0
M  V30 30813 H 2897.53 0.839048 -0.44125 0
M  V30 30814 H 2897.24 3.34379 -1.09012 0
M  V30 30815 H 2897.11 3.72086 0.619012 0
M  V30 30816 H 2899.5 2.78999 0.961422 0
M  V30 30817 H 2899.58 2.43906 -0.770948 0
M  V30 30818 H 2899.23 4.9184 -1.26713 0
M  V30 30819 H 2899.16 5.2438 0.483017 0
M  V30 30820 H 2901.65 3.77857 -0.0572387 0
M  V30 30821 H 2901.96 7.69231 -0.741881 0
M  V30 30822 H 2900.31 6.91856 -0.660275 0
M  V30 30823 H 2903.5 4.67843 -0.155133 0
M  V30 30824 H 2903.67 6.46314 -0.467108 0
M  V30 30825 N 2897.08 -0.105193 1.57249 0
M  V30 30826 C 2898.02 -1.12832 2.0134 0
M  V30 30827 C 2898.99 -1.40375 0.887922 0
M  V30 30828 O 2900.18 -1.52008 1.15318 0
M  V30 30829 C 2897.32 -2.44607 2.43437 0
M  V30 30830 C 2896.43 -2.23881 3.69461 0
M  V30 30831 C 2895.57 -3.48984 4.00479 0
M  V30 30832 C 2894.6 -3.23476 5.19644 0
M  V30 30833 N 2893.74 -4.40818 5.46465 0
M  V30 30834 H 2898.58 -0.745336 2.88529 0
M  V30 30835 H 2896.12 -0.35651 1.42714 0
M  V30 30836 H 2898.08 -3.21498 2.65885 0
M  V30 30837 H 2896.71 -2.80771 1.59271 0
M  V30 30838 H 2895.76 -1.37841 3.54548 0
M  V30 30839 H 2897.07 -2.01018 4.56501 0
M  V30 30840 H 2896.22 -4.34288 4.2365 0
M  V30 30841 H 2894.96 -3.74892 3.11941 0
M  V30 30842 H 2893.97 -2.36565 4.96303 0
M  V30 30843 H 2895.19 -2.98925 6.09771 0
M  V30 30844 H 2893.14 -4.66821 4.60885 0
M  V30 30845 H 2893.06 -4.21109 6.27856 0
M  V30 30846 H 2894.32 -5.27215 5.74164 0
M  V30 30847 N 2898.55 -1.53055 -0.375752 0
M  V30 30848 C 2899.78 -1.72639 -1.14033 0
M  V30 30849 C 2900.2 -0.450719 -1.83341 0
M  V30 30850 O 2899.55 0.575719 -1.73181 0
M  V30 30851 C 2899.61 -2.88496 -2.17836 0
M  V30 30852 O 2899.33 -4.11126 -1.51351 0
M  V30 30853 C 2900.83 -3.19869 -3.06919 0
M  V30 30854 H 2898.05 -0.577671 -0.341376 0
M  V30 30855 H 2900.59 -1.99759 -0.437774 0
M  V30 30856 H 2898.75 -2.63799 -2.83705 0
M  V30 30857 H 2899.16 -4.75931 -2.2043 0
M  V30 30858 H 2900.63 -4.04366 -3.75755 0
M  V30 30859 H 2901.11 -2.34804 -3.71165 0
M  V30 30860 H 2901.72 -3.46454 -2.46678 0
M  V30 30861 N 2900.03 0.634971 -1.44242 0
M  V30 30862 C 2900.98 1.74712 -1.50813 0
M  V30 30863 C 2901.95 1.62236 -0.356175 0
M  V30 30864 O 2903.13 1.82215 -0.56588 0
M  V30 30865 C 2900.27 3.12945 -1.45464 0
M  V30 30866 C 2899.39 3.36424 -2.71004 0
M  V30 30867 C 2898.52 4.64607 -2.57516 0
M  V30 30868 C 2897.56 4.81251 -3.78237 0
M  V30 30869 N 2896.7 6.00708 -3.63448 0
M  V30 30870 H 2901.54 1.68432 -2.45835 0
M  V30 30871 H 2899.08 0.821685 -1.22011 0
M  V30 30872 H 2901.03 3.92882 -1.40354 0
M  V30 30873 H 2899.66 3.18249 -0.540114 0
M  V30 30874 H 2898.72 2.50453 -2.86317 0
M  V30 30875 H 2900.03 3.44603 -3.60625 0
M  V30 30876 H 2899.18 5.52699 -2.50217 0
M  V30 30877 H 2897.92 4.58779 -1.65449 0
M  V30 30878 H 2896.93 3.91589 -3.85925 0
M  V30 30879 H 2898.15 4.88896 -4.71336 0
M  V30 30880 H 2896.1 5.95977 -2.7413 0
M  V30 30881 H 2896.01 6.09927 -4.46683 0
M  V30 30882 H 2897.28 6.91372 -3.60035 0
M  V30 30883 N 2901.51 1.31076 0.875027 0
M  V30 30884 C 2902.42 1.20248 2.01439 0
M  V30 30885 C 2903.44 0.120258 1.73584 0
M  V30 30886 O 2904.61 0.337098 1.98559 0
M  V30 30887 C 2901.68 0.905258 3.34673 0
M  V30 30888 C 2900.74 2.07386 3.75885 0
M  V30 30889 C 2899.97 1.79073 5.02761 0
M  V30 30890 O 2900.19 0.723417 5.65794 0
M  V30 30891 O 2899.13 2.64604 5.40619 0
M  V30 30892 H 2902.95 2.15984 2.13506 0
M  V30 30893 H 2900.54 1.10767 1.00255 0
M  V30 30894 H 2902.42 0.75513 4.14579 0
M  V30 30895 H 2901.1 -0.0221126 3.23692 0
M  V30 30896 H 2900 2.27937 2.96641 0
M  V30 30897 H 2901.34 2.9833 3.91484 0
M  V30 30898 N 2902.99 -1.08867 1.13955 0
M  V30 30899 C 2904.24 -1.8116 0.904842 0
M  V30 30900 C 2904.56 -1.85997 -0.568791 0
M  V30 30901 O 2903.82 -1.32826 -1.43721 0
M  V30 30902 C 2904.12 -3.26886 1.44501 0
M  V30 30903 C 2903.78 -3.42173 2.93647 0
M  V30 30904 C 2902.45 -3.46053 3.34367 0
M  V30 30905 C 2904.8 -3.46239 3.89574 0
M  V30 30906 C 2902.13 -3.51583 4.69687 0
M  V30 30907 C 2904.48 -3.53304 5.24746 0
M  V30 30908 C 2903.14 -3.55455 5.64985 0
M  V30 30909 H 2902.41 -0.662911 0.331105 0
M  V30 30910 H 2905.06 -1.28214 1.42244 0
M  V30 30911 H 2903.36 -3.82508 0.848236 0
M  V30 30912 H 2905.06 -3.81366 1.23941 0
M  V30 30913 H 2901.65 -3.39842 2.61162 0
M  V30 30914 H 2905.83 -3.42477 3.59198 0
M  V30 30915 H 2901.09 -3.51539 5.00231 0
M  V30 30916 H 2905.26 -3.55395 5.98888 0
M  V30 30917 H 2902.89 -3.59493 6.69827 0
M  V30 30918 N 2904.47 -0.933936 -1.26946 0
M  V30 30919 C 2905.88 -0.635128 -1.46418 0
M  V30 30920 C 2906.08 0.813753 -1.84338 0
M  V30 30921 O 2905.14 1.59107 -1.96064 0
M  V30 30922 C 2906.45 -1.59034 -2.55203 0
M  V30 30923 C 2908 -1.59925 -2.69059 0
M  V30 30924 C 2908.47 -2.54159 -3.81008 0
M  V30 30925 N 2909.97 -2.52402 -3.88391 0
M  V30 30926 C 2910.7 -3.22004 -4.74448 0
M  V30 30927 N 2910.2 -4.01007 -5.64947 0
M  V30 30928 N 2911.99 -3.10992 -4.68231 0
M  V30 30929 H 2904.14 -1.87055 -1.00619 0
M  V30 30930 H 2906.4 -0.803442 -0.503175 0
M  V30 30931 H 2906.11 -2.62426 -2.34149 0
M  V30 30932 H 2905.98 -1.33683 -3.52716 0
M  V30 30933 H 2908.37 -0.57262 -2.89491 0
M  V30 30934 H 2908.45 -1.89328 -1.72013 0
M  V30 30935 H 2908.1 -3.56936 -3.6133 0
M  V30 30936 H 2908.03 -2.22049 -4.77495 0
M  V30 30937 H 2910.52 -1.95031 -3.23684 0
M  V30 30938 H 2910.83 -4.51085 -6.27488 0
M  V30 30939 H 2909.17 -4.05109 -5.64723 0
M  V30 30940 H 2912.37 -2.4876 -3.9653 0
M  V30 30941 H 2912.54 -3.65504 -5.3508 0
M  V30 30942 N 2905.94 1.41194 -0.700139 0
M  V30 30943 C 2907.17 2.05998 -0.240741 0
M  V30 30944 C 2907.59 1.52359 1.1031 0
M  V30 30945 O 2906.95 0.652454 1.69153 0
M  V30 30946 C 2907 3.59965 -0.213846 0
M  V30 30947 O 2906.1 4.0437 0.809862 0
M  V30 30948 H 2905.45 0.653703 -0.116482 0
M  V30 30949 H 2907.98 1.80877 -0.956283 0
M  V30 30950 H 2907.99 4.07974 -0.0462569 0
M  V30 30951 H 2906.66 3.98374 -1.19461 0
M  V30 30952 H 2905.24 3.67856 0.611255 0
M  V30 30953 N 2907.42 0.445212 1.51181 0
M  V30 30954 C 2908.83 -0.0160671 1.86693 0
M  V30 30955 C 2909.18 -1.41237 1.36185 0
M  V30 30956 O 2908.31 -2.04214 0.715931 0
M  V30 30957 C 2908.9 -0.0359323 3.38781 0
M  V30 30958 C 2907.46 -0.441649 3.738 0
M  V30 30959 C 2906.61 0.360559 2.74946 0
M  V30 30960 H 2909.56 0.6607 1.44293 0
M  V30 30961 H 2909.58 -0.843748 3.71027 0
M  V30 30962 H 2909.09 0.980444 3.75512 0
M  V30 30963 H 2907.2 -1.46334 3.42662 0
M  V30 30964 H 2907.31 -0.160976 4.78829 0
M  V30 30965 H 2905.67 -0.182225 2.54047 0
M  V30 30966 H 2906.46 1.37596 3.14519 0
M  V30 30967 N 2908.9 -1.56605 0.176849 0
M  V30 30968 C 2910.31 -1.83598 -0.33893 0
M  V30 30969 C 2910.66 -1.09687 -1.62675 0
M  V30 30970 O 2909.79 -0.351699 -2.13523 0
M  V30 30971 C 2910.38 -3.33047 -0.621711 0
M  V30 30972 C 2908.94 -3.60516 -1.08191 0
M  V30 30973 C 2908.09 -2.77037 -0.120725 0
M  V30 30974 H 2911.04 -1.5355 0.401005 0
M  V30 30975 H 2911.06 -3.50826 -1.47314 0
M  V30 30976 H 2910.57 -3.86813 0.315759 0
M  V30 30977 H 2908.67 -3.12165 -2.03429 0
M  V30 30978 H 2908.79 -4.68818 -0.987247 0
M  V30 30979 H 2907.15 -2.4706 -0.619149 0
M  V30 30980 H 2907.93 -3.33586 0.810865 0
M  V30 30981 N 2910.38 0.0968524 -1.57302 0
M  V30 30982 C 2911.31 1.14381 -1.9862 0
M  V30 30983 C 2912.32 1.36416 -0.888507 0
M  V30 30984 O 2913.51 1.35099 -1.16664 0
M  V30 30985 C 2910.61 2.49969 -2.28842 0
M  V30 30986 C 2909.79 2.48234 -3.60137 0
M  V30 30987 C 2908.84 3.65737 -3.78316 0
M  V30 30988 O 2907.87 3.48308 -4.50189 0
M  V30 30989 N 2909.07 4.85152 -3.1876 0
M  V30 30990 H 2911.84 0.792151 -2.89042 0
M  V30 30991 H 2909.4 0.285855 -1.59356 0
M  V30 30992 H 2911.39 3.27175 -2.38199 0
M  V30 30993 H 2909.96 2.77231 -1.44436 0
M  V30 30994 H 2909.18 1.56587 -3.61765 0
M  V30 30995 H 2910.47 2.44152 -4.46394 0
M  V30 30996 H 2909.87 5.02216 -2.60377 0
M  V30 30997 H 2908.42 5.59956 -3.33605 0
M  V30 30998 N 2911.86 1.53252 0.36763 0
M  V30 30999 C 2912.77 1.82502 1.47412 0
M  V30 31000 C 2913.78 0.71325 1.5871 0
M  V30 31001 O 2914.96 1.00309 1.74643 0
M  V30 31002 C 2912.02 2.00699 2.82703 0
M  V30 31003 C 2911.08 3.24601 2.8095 0
M  V30 31004 C 2910.32 3.41921 4.09787 0
M  V30 31005 O 2910.54 2.63581 5.05847 0
M  V30 31006 O 2909.47 4.35267 4.15724 0
M  V30 31007 H 2913.3 2.76502 1.25619 0
M  V30 31008 H 2910.89 1.38607 0.557535 0
M  V30 31009 H 2912.77 2.14252 3.62869 0
M  V30 31010 H 2911.44 1.09888 3.04477 0
M  V30 31011 H 2910.35 3.16473 1.99489 0
M  V30 31012 H 2911.68 4.15327 2.64129 0
M  V30 31013 N 2913.34 -0.627313 1.44577 0
M  V30 31014 C 2914.27 -1.7524 1.47728 0
M  V30 31015 C 2915.28 -1.58535 0.370221 0
M  V30 31016 O 2916.47 -1.66778 0.63618 0
M  V30 31017 C 2913.57 -3.1301 1.29916 0
M  V30 31018 C 2912.74 -3.56139 2.53937 0
M  V30 31019 C 2911.8 -4.728 2.30969 0
M  V30 31020 O 2910.83 -4.80918 3.04478 0
M  V30 31021 N 2912.03 -5.64758 1.34271 0
M  V30 31022 H 2914.79 -1.73008 2.44721 0
M  V30 31023 H 2912.36 -0.811997 1.40065 0
M  V30 31024 H 2914.35 -3.8878 1.12392 0
M  V30 31025 H 2912.92 -3.09863 0.412723 0
M  V30 31026 H 2912.14 -2.70537 2.86711 0
M  V30 31027 H 2913.43 -3.81707 3.36418 0
M  V30 31028 H 2912.82 -5.60896 0.735672 0
M  V30 31029 H 2911.38 -6.40142 1.22724 0
M  V30 31030 N 2914.81 -1.31539 -0.868063 0
M  V30 31031 C 2916.06 -1.20692 -1.61605 0
M  V30 31032 C 2916.38 0.23324 -1.94204 0
M  V30 31033 O 2917.58 0.463418 -2.67516 0
M  V30 31034 C 2916.04 -2.11297 -2.91344 0
M  V30 31035 C 2915.65 -3.6032 -2.66221 0
M  V30 31036 C 2917.39 -2.09255 -3.69341 0
M  V30 31037 C 2915.3 -4.42927 -3.91879 0
M  V30 31038 H 2914.23 -0.448149 -0.606365 0
M  V30 31039 H 2916.88 -1.56407 -0.959638 0
M  V30 31040 H 2915.26 -1.68483 -3.58371 0
M  V30 31041 H 2916.43 -4.11392 -2.0759 0
M  V30 31042 H 2914.75 -3.64357 -2.01576 0
M  V30 31043 H 2917.35 -2.68217 -4.62562 0
M  V30 31044 H 2917.69 -1.08017 -4.02042 0
M  V30 31045 H 2918.22 -2.5028 -3.092 0
M  V30 31046 H 2914.96 -5.44928 -3.64327 0
M  V30 31047 H 2914.48 -3.96612 -4.49954 0
M  V30 31048 H 2916.16 -4.55239 -4.59746 0
M  V30 31049 N 2916.29 1.08262 -1.1453 0
M  V30 31050 C 2917.24 2.17316 -0.829239 0
M  V30 31051 C 2918.23 1.68291 0.193492 0
M  V30 31052 O 2919.44 1.79932 0.0494428 0
M  V30 31053 H 2915.81 0.70907 -0.250448 0
M  V30 31054 H 2917.79 2.41198 -1.75687 0
M  V30 31055 C 2916.53 3.4618 -0.324724 0
M  V30 31056 H 2915.86 3.84282 -1.10306 0
M  V30 31057 H 2917.3 4.23762 -0.142134 0
M  V30 31058 C 2915.76 3.2317 0.951976 0
M  V30 31059 O 2916.29 3.469 2.02543 0
M  V30 31060 N 2914.49 2.76706 0.887806 0
M  V30 31061 H 2914.04 2.57596 0.0140949 0
M  V30 31062 H 2914 2.61689 1.74259 0
M  V30 31063 N 2917.77 0.940655 1.26449 0
M  V30 31064 C 2918.7 0.394134 2.24771 0
M  V30 31065 C 2919.68 -0.516754 1.5417 0
M  V30 31066 O 2920.86 -0.45432 1.82943 0
M  V30 31067 C 2917.99 -0.433748 3.35911 0
M  V30 31068 C 2917.04 0.415538 4.24471 0
M  V30 31069 S 2917.87 1.83916 5.02927 0
M  V30 31070 C 2919.03 1.01932 6.17544 0
M  V30 31071 H 2919.26 1.22741 2.7078 0
M  V30 31072 H 2916.79 0.743733 1.35307 0
M  V30 31073 H 2918.75 -0.905506 4.00388 0
M  V30 31074 H 2917.41 -1.2417 2.88515 0
M  V30 31075 H 2916.6 -0.218745 5.03525 0
M  V30 31076 H 2916.21 0.821962 3.64856 0
M  V30 31077 H 2918.5 0.261346 6.76996 0
M  V30 31078 H 2919.44 1.7833 6.85277 0
M  V30 31079 H 2919.85 0.555609 5.61759 0
M  V30 31080 N 2919.25 -1.40821 0.707617 0
M  V30 31081 C 2920.18 -2.33411 0.0645335 0
M  V30 31082 C 2921.16 -1.52467 -0.754179 0
M  V30 31083 O 2922.34 -1.80962 -0.704717 0
M  V30 31084 C 2919.47 -3.36386 -0.863806 0
M  V30 31085 C 2918.43 -4.27732 -0.151305 0
M  V30 31086 C 2917.75 -5.2118 -1.19482 0
M  V30 31087 C 2919.05 -5.12837 0.989697 0
M  V30 31088 H 2920.75 -2.87437 0.83788 0
M  V30 31089 H 2918.29 -1.38206 0.404371 0
M  V30 31090 H 2920.25 -4.00093 -1.32302 0
M  V30 31091 H 2918.97 -2.80737 -1.66896 0
M  V30 31092 H 2917.63 -3.65467 0.288001 0
M  V30 31093 H 2917.28 -4.6184 -1.99281 0
M  V30 31094 H 2916.98 -5.83135 -0.723021 0
M  V30 31095 H 2918.5 -5.87763 -1.6543 0
M  V30 31096 H 2919.92 -5.70043 0.610215 0
M  V30 31097 H 2918.31 -5.83795 1.38936 0
M  V30 31098 H 2919.38 -4.49288 1.82397 0
M  V30 31099 N 2920.73 -0.453223 -1.50943 0
M  V30 31100 C 2921.66 0.340399 -2.31005 0
M  V30 31101 C 2922.64 1.00667 -1.37114 0
M  V30 31102 O 2923.82 1.00727 -1.66035 0
M  V30 31103 C 2920.95 1.43295 -3.1636 0
M  V30 31104 C 2919.91 0.889289 -4.18659 0
M  V30 31105 C 2919.23 2.07879 -4.92636 0
M  V30 31106 C 2920.53 -0.087206 -5.22227 0
M  V30 31107 H 2922.23 -0.327775 -2.976 0
M  V30 31108 H 2919.77 -0.159079 -1.43119 0
M  V30 31109 H 2921.72 1.99549 -3.71158 0
M  V30 31110 H 2920.45 2.12964 -2.47617 0
M  V30 31111 H 2919.11 0.348851 -3.64936 0
M  V30 31112 H 2918.76 2.76204 -4.20381 0
M  V30 31113 H 2918.46 1.72133 -5.61822 0
M  V30 31114 H 2919.98 2.64656 -5.50263 0
M  V30 31115 H 2921.39 0.385555 -5.72002 0
M  V30 31116 H 2919.79 -0.358031 -5.99031 0
M  V30 31117 H 2920.86 -1.01887 -4.74075 0
M  V30 31118 N 2922.2 1.56509 -0.185151 0
M  V30 31119 C 2923.15 2.19955 0.756466 0
M  V30 31120 C 2924.15 1.16771 1.22723 0
M  V30 31121 O 2925.35 1.34939 1.19128 0
M  V30 31122 H 2921.73 0.704784 0.262267 0
M  V30 31123 H 2923.7 2.97745 0.197535 0
M  V30 31124 C 2922.45 2.86527 1.9697 0
M  V30 31125 H 2921.77 3.65662 1.61651 0
M  V30 31126 H 2923.21 3.34372 2.60713 0
M  V30 31127 C 2921.67 1.87032 2.80215 0
M  V30 31128 O 2922.2 1.36439 3.77819 0
M  V30 31129 N 2920.4 1.55481 2.45507 0
M  V30 31130 H 2919.95 1.96816 1.66196 0
M  V30 31131 H 2919.91 0.89165 3.01491 0
M  V30 31132 N 2923.68 -0.0885089 1.57351 0
M  V30 31133 C 2924.93 -0.790791 1.86421 0
M  V30 31134 C 2925.26 -1.78411 0.774593 0
M  V30 31135 O 2924.51 -1.9433 -0.231156 0
M  V30 31136 C 2924.81 -1.54874 3.22101 0
M  V30 31137 C 2924.48 -0.696946 4.45481 0
M  V30 31138 C 2923.14 -0.462153 4.78976 0
M  V30 31139 C 2925.49 -0.105223 5.21094 0
M  V30 31140 C 2922.82 0.374119 5.85506 0
M  V30 31141 C 2925.17 0.718409 6.28507 0
M  V30 31142 C 2923.83 0.963232 6.60514 0
M  V30 31143 H 2923.1 -0.289371 0.682162 0
M  V30 31144 H 2925.75 -0.0520625 1.91429 0
M  V30 31145 H 2924.06 -2.35922 3.12807 0
M  V30 31146 H 2925.75 -2.09663 3.41822 0
M  V30 31147 H 2922.34 -0.890064 4.19256 0
M  V30 31148 H 2926.53 -0.273769 4.95544 0
M  V30 31149 H 2921.78 0.572713 6.08712 0
M  V30 31150 H 2925.96 1.18374 6.86266 0
M  V30 31151 H 2923.58 1.61303 7.4289 0
M  V30 31152 N 2925.16 -1.53445 -0.359498 0
M  V30 31153 C 2926.11 -1.80312 -1.4407 0
M  V30 31154 C 2927.08 -0.647837 -1.52945 0
M  V30 31155 O 2928.26 -0.890644 -1.68737 0
M  V30 31156 C 2925.4 -2.0042 -2.80937 0
M  V30 31157 C 2924.51 -3.28137 -2.8098 0
M  V30 31158 C 2923.65 -3.384 -4.09462 0
M  V30 31159 C 2922.69 -4.60126 -4.03671 0
M  V30 31160 N 2921.83 -4.67509 -5.23813 0
M  V30 31161 H 2926.67 -2.72568 -1.2046 0
M  V30 31162 H 2924.2 -1.35018 -0.583836 0
M  V30 31163 H 2926.16 -2.10067 -3.60455 0
M  V30 31164 H 2924.79 -1.11494 -3.02934 0
M  V30 31165 H 2923.84 -3.27414 -1.9366 0
M  V30 31166 H 2925.15 -4.17737 -2.72575 0
M  V30 31167 H 2924.31 -3.47391 -4.97398 0
M  V30 31168 H 2923.05 -2.46827 -4.20628 0
M  V30 31169 H 2922.05 -4.5123 -3.14121 0
M  V30 31170 H 2923.28 -5.53046 -3.94102 0
M  V30 31171 H 2921.22 -3.7884 -5.35552 0
M  V30 31172 H 2921.14 -5.51022 -5.17601 0
M  V30 31173 H 2922.41 -4.80791 -6.13564 0
M  V30 31174 N 2926.64 0.619637 -1.44908 0
M  V30 31175 C 2927.91 1.3785 -1.38769 0
M  V30 31176 C 2928.29 2.11036 -0.0521764 0
M  V30 31177 O 2927.64 2.07096 0.965577 0
M  V30 31178 C 2927.85 2.33537 -2.59348 0
M  V30 31179 C 2929.2 2.96516 -3.03914 0
M  V30 31180 O 2930.22 2.4386 -2.59635 0
M  V30 31181 O 2929.08 3.92065 -3.8072 0
M  V30 31182 H 2926.18 0.617516 -0.550094 0
M  V30 31183 H 2928.72 0.643731 -1.57017 0
M  V30 31184 H 2927.5 1.78635 -3.48145 0
M  V30 31185 H 2927.12 3.14413 -2.43373 0
M  V30 31186 N 2928.12 1.31997 0.861075 0
M  V30 31187 C 2929.39 1.12817 1.59786 0
M  V30 31188 C 2929.77 -0.313846 2.08754 0
M  V30 31189 O 2929.12 -1.30942 1.8726 0
M  V30 31190 C 2929.33 2.15017 2.74898 0
M  V30 31191 C 2930.68 2.4801 3.44639 0
M  V30 31192 O 2931.7 2.13513 2.85115 0
M  V30 31193 O 2930.56 3.07121 4.52039 0
M  V30 31194 H 2927.66 0.434921 0.703401 0
M  V30 31195 H 2930.2 1.43506 0.905763 0
M  V30 31196 H 2928.97 3.11976 2.36193 0
M  V30 31197 H 2928.6 1.85285 3.51788 0
M  V30 31198 N 2929.59 -1.07653 1.15103 0
M  V30 31199 C 2930.54 -2.14775 0.844995 0
M  V30 31200 C 2931.51 -1.64882 -0.200769 0
M  V30 31201 O 2932.7 -1.90675 -0.0689943 0
M  V30 31202 C 2929.84 -3.4345 0.337079 0
M  V30 31203 C 2928.95 -4.0715 1.44405 0
M  V30 31204 C 2928.08 -5.23647 0.892579 0
M  V30 31205 C 2927.12 -5.79304 1.9767 0
M  V30 31206 N 2926.26 -6.87136 1.44183 0
M  V30 31207 H 2931.1 -2.40294 1.76246 0
M  V30 31208 H 2928.64 -1.17915 0.879455 0
M  V30 31209 H 2930.6 -4.17193 0.0243293 0
M  V30 31210 H 2929.23 -3.18192 -0.543475 0
M  V30 31211 H 2928.28 -3.31091 1.87305 0
M  V30 31212 H 2929.59 -4.44526 2.26269 0
M  V30 31213 H 2928.74 -6.04361 0.532189 0
M  V30 31214 H 2927.48 -4.87681 0.0430712 0
M  V30 31215 H 2926.49 -4.97238 2.34595 0
M  V30 31216 H 2927.71 -6.17326 2.82993 0
M  V30 31217 H 2925.66 -6.53114 0.614632 0
M  V30 31218 H 2925.58 -7.23379 2.19678 0
M  V30 31219 H 2926.84 -7.71562 1.10959 0
M  V30 31220 N 2931.07 -0.947348 -1.25949 0
M  V30 31221 C 2932.3 -0.614668 -1.98082 0
M  V30 31222 C 2932.72 0.804785 -1.70014 0
M  V30 31223 O 2932.08 1.54308 -0.951777 0
M  V30 31224 C 2932.13 -0.870767 -3.49929 0
M  V30 31225 O 2931.23 0.0540726 -4.12365 0
M  V30 31226 H 2930.57 -0.234462 -0.621228 0
M  V30 31227 H 2933.1 -1.27196 -1.60257 0
M  V30 31228 H 2933.11 -0.794121 -4.00197 0
M  V30 31229 H 2931.79 -1.90535 -3.69688 0
M  V30 31230 H 2930.37 -0.0741572 -3.72826 0
M  V30 31231 N 2932.55 1.40444 -0.715075 0
M  V30 31232 C 2933.46 2.34515 -0.0632036 0
M  V30 31233 C 2934.48 1.57274 0.744369 0
M  V30 31234 O 2935.65 1.89665 0.677442 0
M  V30 31235 C 2932.72 3.36173 0.847855 0
M  V30 31236 C 2931.78 4.29289 0.0302901 0
M  V30 31237 C 2931.01 5.26092 0.897959 0
M  V30 31238 O 2931.23 5.28848 2.1372 0
M  V30 31239 O 2930.17 6.00955 0.337223 0
M  V30 31240 H 2933.99 2.91877 -0.839129 0
M  V30 31241 H 2931.58 1.41629 -0.475552 0
M  V30 31242 H 2933.46 3.98518 1.36973 0
M  V30 31243 H 2932.14 2.81225 1.60294 0
M  V30 31244 H 2931.04 3.70231 -0.536638 0
M  V30 31245 H 2932.38 4.87388 -0.68656 0
M  V30 31246 N 2934.03 0.461222 1.507 0
M  V30 31247 C 2935.27 -0.0960314 2.04174 0
M  V30 31248 C 2935.63 -1.37866 1.3363 0
M  V30 31249 O 2936.83 -2.01767 1.77605 0
M  V30 31250 C 2935.1 -0.285613 3.56257 0
M  V30 31251 S 2936.66 -0.802841 4.31393 0
M  V30 31252 H 2933.48 -0.0206157 0.710701 0
M  V30 31253 H 2936.08 0.626102 1.85203 0
M  V30 31254 H 2934.79 0.653844 4.05158 0
M  V30 31255 H 2934.32 -1.03415 3.79564 0
M  V30 31256 H 2936.33 -2.07753 4.50614 0
M  V30 31257 N 2935.51 -1.56408 0.193449 0
M  V30 31258 C 2936.92 -1.83947 -0.319438 0
M  V30 31259 C 2937.27 -1.11406 -1.61503 0
M  V30 31260 O 2936.39 -0.374326 -2.13138 0
M  V30 31261 C 2936.99 -3.33688 -0.586352 0
M  V30 31262 C 2935.55 -3.61643 -1.04361 0
M  V30 31263 C 2934.69 -2.7715 -0.0913347 0
M  V30 31264 H 2937.65 -1.53116 0.417269 0
M  V30 31265 H 2937.67 -3.52368 -1.43585 0
M  V30 31266 H 2937.18 -3.86457 0.356768 0
M  V30 31267 H 2935.28 -3.14305 -2.00107 0
M  V30 31268 H 2935.39 -4.69839 -0.937467 0
M  V30 31269 H 2933.76 -2.47703 -0.59291 0
M  V30 31270 H 2934.54 -3.32708 0.8462 0
M  V30 31271 N 2936.98 0.0801629 -1.57396 0
M  V30 31272 C 2938.22 0.786334 -1.88669 0
M  V30 31273 C 2938.59 1.75163 -0.786246 0
M  V30 31274 O 2939.79 2.50228 -0.981813 0
M  V30 31275 C 2938.06 1.48303 -3.25178 0
M  V30 31276 S 2939.62 2.22542 -3.78181 0
M  V30 31277 H 2936.44 0.261668 -0.661098 0
M  V30 31278 H 2939.04 0.0427852 -1.95453 0
M  V30 31279 H 2937.74 0.766559 -4.03177 0
M  V30 31280 H 2937.27 2.26618 -3.21571 0
M  V30 31281 H 2939.29 3.48927 -3.52795 0
M  V30 31282 N 2938.46 1.53634 0.351355 0
M  V30 31283 C 2939.87 1.62038 0.9274 0
M  V30 31284 C 2940.22 0.496739 1.89808 0
M  V30 31285 O 2939.35 -0.374712 2.13131 0
M  V30 31286 C 2939.94 2.93709 1.68881 0
M  V30 31287 C 2938.5 3.04401 2.21398 0
M  V30 31288 C 2937.65 2.57433 1.0307 0
M  V30 31289 H 2940.6 1.58169 0.12972 0
M  V30 31290 H 2940.62 2.8231 2.55111 0
M  V30 31291 H 2940.13 3.75469 0.982083 0
M  V30 31292 H 2938.24 2.27258 2.9527 0
M  V30 31293 H 2938.35 4.09734 2.48305 0
M  V30 31294 H 2936.71 2.12651 1.40184 0
M  V30 31295 H 2937.5 3.41625 0.338733 0
M  V30 31296 N 2939.94 -0.611943 1.45234 0
M  V30 31297 C 2940.85 -1.75127 1.56102 0
M  V30 31298 C 2941.87 -1.68196 0.445676 0
M  V30 31299 O 2943.04 -1.8863 0.705751 0
M  V30 31300 C 2940.11 -3.11576 1.52057 0
M  V30 31301 C 2939.17 -3.29994 2.74595 0
M  V30 31302 C 2938.4 -4.59934 2.70734 0
M  V30 31303 O 2938.62 -5.41976 1.77816 0
M  V30 31304 O 2937.56 -4.8097 3.61872 0
M  V30 31305 H 2941.38 -1.6891 2.52395 0
M  V30 31306 H 2938.97 -0.775505 1.27696 0
M  V30 31307 H 2940.85 -3.92879 1.52393 0
M  V30 31308 H 2939.53 -3.18294 0.589141 0
M  V30 31309 H 2938.43 -2.48296 2.79822 0
M  V30 31310 H 2939.77 -3.2815 3.66849 0
M  V30 31311 N 2941.42 -1.32452 -0.854063 0
M  V30 31312 C 2942.33 -1.23437 -1.995 0
M  V30 31313 C 2943.34 -0.147858 -1.73371 0
M  V30 31314 O 2944.52 -0.368644 -1.97997 0
M  V30 31315 C 2941.59 -0.958387 -3.3319 0
M  V30 31316 C 2940.65 -2.1334 -3.72538 0
M  V30 31317 C 2939.88 -1.87049 -4.99848 0
M  V30 31318 O 2940.1 -0.813338 -5.64571 0
M  V30 31319 O 2939.04 -2.73171 -5.36341 0
M  V30 31320 H 2942.86 -2.19353 -2.10042 0
M  V30 31321 H 2940.45 -1.12348 -0.984804 0
M  V30 31322 H 2942.33 -0.820991 -4.13325 0
M  V30 31323 H 2941 -0.0293868 -3.23687 0
M  V30 31324 H 2939.91 -2.32627 -2.92977 0
M  V30 31325 H 2941.24 -3.04521 -3.86688 0
M  V30 31326 N 2942.9 1.07041 -1.15672 0
M  V30 31327 C 2944.15 1.7908 -0.92807 0
M  V30 31328 C 2944.46 1.87827 0.545935 0
M  V30 31329 O 2945.67 2.56419 0.892262 0
M  V30 31330 C 2944.12 3.21826 -1.61109 0
M  V30 31331 C 2943.73 3.2127 -3.12233 0
M  V30 31332 C 2945.47 3.98452 -1.46411 0
M  V30 31333 C 2943.38 4.58688 -3.73308 0
M  V30 31334 H 2942.31 0.671169 -0.343582 0
M  V30 31335 H 2944.96 1.2012 -1.38721 0
M  V30 31336 H 2943.34 3.80998 -1.07965 0
M  V30 31337 H 2944.52 2.71724 -3.72159 0
M  V30 31338 H 2942.83 2.58141 -3.26729 0
M  V30 31339 H 2945.43 5.00021 -1.89429 0
M  V30 31340 H 2945.77 4.14256 -0.412023 0
M  V30 31341 H 2946.31 3.45783 -1.96669 0
M  V30 31342 H 2943.04 4.48089 -4.78431 0
M  V30 31343 H 2942.56 5.08459 -3.18166 0
M  V30 31344 H 2944.24 5.27654 -3.74419 0
M  V30 31345 N 2944.38 0.954014 1.25445 0
M  V30 31346 C 2945.79 0.658342 1.45389 0
M  V30 31347 C 2945.99 -0.784323 1.85609 0
M  V30 31348 O 2945.05 -1.55968 1.9857 0
M  V30 31349 C 2946.36 1.63074 2.52641 0
M  V30 31350 C 2947.91 1.64185 2.66481 0
M  V30 31351 C 2948.38 2.60188 3.76917 0
M  V30 31352 N 2949.87 2.58549 3.84326 0
M  V30 31353 C 2950.61 3.29511 4.69265 0
M  V30 31354 N 2950.11 4.09944 5.58496 0
M  V30 31355 N 2951.9 3.18401 4.63225 0
M  V30 31356 H 2944.05 1.88632 0.976304 0
M  V30 31357 H 2946.31 0.811345 0.490329 0
M  V30 31358 H 2946.02 2.66118 2.29944 0
M  V30 31359 H 2945.89 1.39277 3.50545 0
M  V30 31360 H 2948.28 0.618603 2.88543 0
M  V30 31361 H 2948.36 1.92041 1.68979 0
M  V30 31362 H 2948 3.62639 3.55605 0
M  V30 31363 H 2947.93 2.29618 4.73902 0
M  V30 31364 H 2950.43 2.00156 3.2054 0
M  V30 31365 H 2950.74 4.61011 6.20233 0
M  V30 31366 H 2949.08 4.14042 5.58206 0
M  V30 31367 H 2952.27 2.55037 3.92522 0
M  V30 31368 H 2952.45 3.7397 5.29198 0
M  V30 31369 N 2945.85 -1.40063 0.722513 0
M  V30 31370 C 2947.13 -1.94657 0.191863 0
M  V30 31371 C 2947.51 -1.6602 -1.30386 0
M  V30 31372 O 2946.86 -0.981624 -2.0634 0
M  V30 31373 C 2947.07 -3.45223 0.512039 0
M  V30 31374 C 2948.42 -4.2216 0.454501 0
M  V30 31375 O 2949.44 -3.53365 0.4485 0
M  V30 31376 O 2948.3 -5.44741 0.438082 0
M  V30 31377 H 2945.39 -0.826426 0.0307966 0
M  V30 31378 H 2947.94 -1.49632 0.800519 0
M  V30 31379 H 2946.71 -3.59452 1.54628 0
M  V30 31380 H 2946.33 -3.974 -0.126227 0
M  V30 31381 N 2947.33 -0.469207 -1.50453 0
M  V30 31382 C 2948.26 0.362207 -2.2632 0
M  V30 31383 C 2949.28 0.958728 -1.31576 0
M  V30 31384 O 2950.47 0.847454 -1.571 0
M  V30 31385 C 2947.57 1.52181 -3.0281 0
M  V30 31386 C 2946.74 1.03842 -4.24895 0
M  V30 31387 C 2945.8 2.07186 -4.83695 0
M  V30 31388 O 2944.82 1.65324 -5.44662 0
M  V30 31389 N 2946.03 3.39977 -4.70528 0
M  V30 31390 H 2948.79 -0.288177 -2.98311 0
M  V30 31391 H 2946.35 -0.299884 -1.59098 0
M  V30 31392 H 2948.34 2.21005 -3.39026 0
M  V30 31393 H 2946.91 2.07693 -2.33629 0
M  V30 31394 H 2946.13 0.176134 -3.93806 0
M  V30 31395 H 2947.42 0.693346 -5.04054 0
M  V30 31396 H 2946.82 3.76698 -4.22037 0
M  V30 31397 H 2945.38 4.04603 -5.11018 0
M  V30 31398 N 2948.81 1.56303 -0.201741 0
M  V30 31399 C 2949.74 2.22396 0.711511 0
M  V30 31400 C 2950.72 1.18919 1.21623 0
M  V30 31401 O 2951.91 1.47446 1.26386 0
M  V30 31402 C 2949.04 2.88848 1.92831 0
M  V30 31403 C 2947.99 3.98626 1.55824 0
M  V30 31404 C 2947.32 4.52276 2.8522 0
M  V30 31405 C 2948.62 5.16694 0.763158 0
M  V30 31406 H 2950.31 2.98969 0.160521 0
M  V30 31407 H 2947.86 1.43801 0.0757663 0
M  V30 31408 H 2949.81 3.33769 2.57247 0
M  V30 31409 H 2948.53 2.0969 2.50395 0
M  V30 31410 H 2947.19 3.54406 0.937638 0
M  V30 31411 H 2946.84 3.69872 3.40887 0
M  V30 31412 H 2946.54 5.26353 2.61201 0
M  V30 31413 H 2948.06 4.99903 3.50613 0
M  V30 31414 H 2949.48 5.58119 1.31057 0
M  V30 31415 H 2947.87 5.9688 0.62083 0
M  V30 31416 H 2948.94 4.84333 -0.234407 0
M  V30 31417 N 2950.29 -0.0718147 1.57436 0
M  V30 31418 C 2951.22 -1.08567 2.06726 0
M  V30 31419 C 2952.2 -1.40369 0.960756 0
M  V30 31420 O 2953.38 -1.49997 1.23348 0
M  V30 31421 C 2950.51 -2.39912 2.51117 0
M  V30 31422 C 2949.47 -2.22462 3.65643 0
M  V30 31423 C 2948.79 -3.59191 3.96089 0
M  V30 31424 C 2950.09 -1.64587 4.9569 0
M  V30 31425 H 2951.79 -0.675518 2.9168 0
M  V30 31426 H 2949.33 -0.323496 1.40319 0
M  V30 31427 H 2951.29 -3.1113 2.84211 0
M  V30 31428 H 2950.01 -2.82907 1.63191 0
M  V30 31429 H 2948.67 -1.53685 3.32831 0
M  V30 31430 H 2948.32 -3.99756 3.05294 0
M  V30 31431 H 2948.02 -3.48354 4.73205 0
M  V30 31432 H 2949.54 -4.31839 4.31679 0
M  V30 31433 H 2950.96 -2.25671 5.27015 0
M  V30 31434 H 2949.35 -1.64447 5.77128 0
M  V30 31435 H 2950.42 -0.607355 4.81081 0
M  V30 31436 N 2951.77 -1.53818 -0.343203 0
M  V30 31437 C 2953.04 -1.61708 -1.10045 0
M  V30 31438 C 2953.42 -0.43855 -2.06494 0
M  V30 31439 O 2952.77 0.569149 -2.21298 0
M  V30 31440 C 2952.98 -2.97799 -1.81979 0
M  V30 31441 C 2954.33 -3.53165 -2.35711 0
M  V30 31442 O 2955.35 -2.99976 -1.92075 0
M  V30 31443 O 2954.21 -4.462 -3.15543 0
M  V30 31444 H 2951.31 -0.65407 -0.506085 0
M  V30 31445 H 2953.85 -1.66163 -0.344668 0
M  V30 31446 H 2952.62 -3.75014 -1.11716 0
M  V30 31447 H 2952.25 -2.96936 -2.64414 0
M  V30 31448 N 2953.24 0.604233 -1.45557 0
M  V30 31449 C 2954.49 1.36314 -1.49749 0
M  V30 31450 C 2954.82 1.93992 -0.14055 0
M  V30 31451 O 2954.07 1.75732 0.861213 0
M  V30 31452 C 2954.37 2.52738 -2.52702 0
M  V30 31453 C 2954.04 2.13188 -3.97318 0
M  V30 31454 C 2952.7 2.02115 -4.36695 0
M  V30 31455 C 2955.05 1.82371 -4.88252 0
M  V30 31456 C 2952.38 1.58453 -5.64898 0
M  V30 31457 C 2954.73 1.40194 -6.1687 0
M  V30 31458 C 2953.4 1.27683 -6.55174 0
M  V30 31459 H 2952.67 0.49881 -0.547969 0
M  V30 31460 H 2955.31 0.682611 -1.78921 0
M  V30 31461 H 2953.62 3.26144 -2.17111 0
M  V30 31462 H 2955.32 3.10966 -2.53182 0
M  V30 31463 H 2951.91 2.22733 -3.6618 0
M  V30 31464 H 2956.09 1.89821 -4.58565 0
M  V30 31465 H 2951.35 1.47392 -5.93368 0
M  V30 31466 H 2955.52 1.15396 -6.86773 0
M  V30 31467 H 2953.15 0.936242 -7.54413 0
M  V30 31468 N 2954.72 1.32903 0.847027 0
M  V30 31469 C 2955.67 1.19053 1.94449 0
M  V30 31470 C 2956.66 0.0954892 1.60616 0
M  V30 31471 O 2957.85 0.32277 1.74032 0
M  V30 31472 C 2954.98 0.923567 3.30644 0
M  V30 31473 C 2954.06 2.06066 3.70672 0
M  V30 31474 N 2954.45 3.30993 3.82462 0
M  V30 31475 C 2952.75 1.96554 4.00353 0
M  V30 31476 C 2953.45 4.05519 4.17049 0
M  V30 31477 N 2952.43 3.33883 4.28979 0
M  V30 31478 H 2956.23 2.13754 2.01709 0
M  V30 31479 H 2953.74 1.24793 1.03926 0
M  V30 31480 H 2955.74 0.805284 4.09049 0
M  V30 31481 H 2954.4 -0.0149952 3.24697 0
M  V30 31482 H 2955.41 3.65838 3.66583 0
M  V30 31483 H 2952.09 1.10307 4.02665 0
M  V30 31484 H 2953.48 5.13285 4.33576 0
M  V30 31485 N 2956.2 -1.06426 1.16238 0
M  V30 31486 C 2957.11 -2.17388 0.882014 0
M  V30 31487 C 2958.13 -1.73393 -0.145228 0
M  V30 31488 O 2959.3 -2.01376 0.0310912 0
M  V30 31489 C 2956.37 -3.44549 0.385557 0
M  V30 31490 C 2955.43 -4.03061 1.47786 0
M  V30 31491 C 2954.66 -5.24152 1.005 0
M  V30 31492 O 2954.88 -5.70214 -0.145789 0
M  V30 31493 O 2953.82 -5.74582 1.79275 0
M  V30 31494 H 2957.64 -2.43879 1.80988 0
M  V30 31495 H 2955.23 -1.1594 0.942246 0
M  V30 31496 H 2957.11 -4.21241 0.11561 0
M  V30 31497 H 2955.79 -3.19588 -0.514313 0
M  V30 31498 H 2954.69 -3.27865 1.80153 0
M  V30 31499 H 2956.03 -4.32314 2.35298 0
M  V30 31500 N 2957.68 -0.960653 -1.24937 0
M  V30 31501 C 2958.96 -0.53584 -1.88117 0
M  V30 31502 C 2959.34 0.986976 -1.86607 0
M  V30 31503 O 2958.68 1.85533 -1.33378 0
M  V30 31504 C 2958.89 -1.11933 -3.30563 0
M  V30 31505 C 2960.24 -1.19988 -4.07293 0
M  V30 31506 O 2961.27 -1.07132 -3.39707 0
M  V30 31507 O 2960.12 -1.40228 -5.28203 0
M  V30 31508 H 2957.22 -0.177646 -0.807695 0
M  V30 31509 H 2959.76 -1.05447 -1.32962 0
M  V30 31510 H 2958.54 -2.16237 -3.26125 0
M  V30 31511 H 2958.16 -0.584314 -3.93283 0
M  V30 31512 N 2959.16 1.39677 -0.729931 0
M  V30 31513 C 2960.09 2.33279 -0.101659 0
M  V30 31514 C 2961.07 1.53647 0.729827 0
M  V30 31515 O 2962.25 1.82061 0.675838 0
M  V30 31516 C 2959.38 3.37718 0.810181 0
M  V30 31517 C 2958.34 4.27919 0.0832374 0
M  V30 31518 C 2957.66 5.23014 1.11175 0
M  V30 31519 C 2958.96 5.11198 -1.07116 0
M  V30 31520 H 2960.66 2.86067 -0.883503 0
M  V30 31521 H 2958.2 1.37545 -0.426307 0
M  V30 31522 H 2960.16 4.02147 1.2592 0
M  V30 31523 H 2958.88 2.83357 1.62408 0
M  V30 31524 H 2957.54 3.64963 -0.346107 0
M  V30 31525 H 2957.19 4.64952 1.91909 0
M  V30 31526 H 2956.89 5.84211 0.630157 0
M  V30 31527 H 2958.41 5.9032 1.56058 0
M  V30 31528 H 2959.82 5.69 -0.700826 0
M  V30 31529 H 2958.22 5.81511 -1.48206 0
M  V30 31530 H 2959.29 4.46329 -1.89521 0
M  V30 31531 N 2960.63 0.47718 1.50202 0
M  V30 31532 C 2961.57 -0.359943 2.25343 0
M  V30 31533 C 2962.55 -0.990999 1.28911 0
M  V30 31534 O 2963.73 -1.02575 1.58147 0
M  V30 31535 C 2960.86 -1.50484 3.03434 0
M  V30 31536 C 2959.9 -0.990557 4.14838 0
M  V30 31537 S 2960.74 0.0996354 5.35407 0
M  V30 31538 C 2961.89 -1.049 6.17047 0
M  V30 31539 H 2962.12 0.277888 2.95998 0
M  V30 31540 H 2959.66 0.262141 1.52158 0
M  V30 31541 H 2961.62 -2.16098 3.49015 0
M  V30 31542 H 2960.28 -2.11421 2.32293 0
M  V30 31543 H 2959.47 -1.84786 4.68903 0
M  V30 31544 H 2959.07 -0.412031 3.71723 0
M  V30 31545 H 2961.36 -1.95934 6.48549 0
M  V30 31546 H 2962.31 -0.547472 7.0598 0
M  V30 31547 H 2962.71 -1.30557 5.49195 0
M  V30 31548 N 2962.11 -1.56194 0.210027 0
M  V30 31549 C 2963.34 -2.02383 -0.429961 0
M  V30 31550 C 2963.76 -1.09001 -1.54157 0
M  V30 31551 O 2963.11 -0.0975176 -1.82239 0
M  V30 31552 C 2963.16 -3.48177 -0.972372 0
M  V30 31553 O 2962.88 -4.37997 0.0949001 0
M  V30 31554 C 2964.39 -4.09955 -1.68676 0
M  V30 31555 H 2961.61 -0.6625 -0.106463 0
M  V30 31556 H 2964.15 -2.01931 0.323107 0
M  V30 31557 H 2962.3 -3.49281 -1.67576 0
M  V30 31558 H 2962.72 -5.23577 -0.311038 0
M  V30 31559 H 2964.19 -5.13774 -2.01842 0
M  V30 31560 H 2964.67 -3.5428 -2.59581 0
M  V30 31561 H 2965.28 -4.12668 -1.02885 0
M  V30 31562 N 2963.59 0.0634645 -1.57472 0
M  V30 31563 C 2964.54 1.08163 -2.00711 0
M  V30 31564 C 2965.52 1.34009 -0.890522 0
M  V30 31565 O 2966.72 1.3417 -1.15444 0
M  V30 31566 C 2963.85 2.39299 -2.46153 0
M  V30 31567 C 2962.93 2.1669 -3.64563 0
M  V30 31568 N 2963.32 1.64035 -4.78462 0
M  V30 31569 C 2961.62 2.47128 -3.71273 0
M  V30 31570 C 2962.32 1.56436 -5.6027 0
M  V30 31571 N 2961.3 2.02783 -5.04361 0
M  V30 31572 H 2965.1 0.667966 -2.86209 0
M  V30 31573 H 2962.61 0.270398 -1.60133 0
M  V30 31574 H 2964.61 3.13011 -2.75372 0
M  V30 31575 H 2963.27 2.81374 -1.62045 0
M  V30 31576 H 2964.28 1.32782 -5.00589 0
M  V30 31577 H 2960.96 2.92513 -2.97897 0
M  V30 31578 H 2962.35 1.16507 -6.61722 0
M  V30 31579 N 2965.07 1.53998 0.33504 0
M  V30 31580 C 2966.31 1.73372 1.08267 0
M  V30 31581 C 2966.67 0.490945 1.85617 0
M  V30 31582 O 2967.87 0.561845 2.62863 0
M  V30 31583 C 2966.14 2.96735 1.99207 0
M  V30 31584 S 2967.7 3.36959 2.81077 0
M  V30 31585 H 2964.52 0.609749 0.365687 0
M  V30 31586 H 2967.12 1.92156 0.360046 0
M  V30 31587 H 2965.83 3.85346 1.41197 0
M  V30 31588 H 2965.36 2.8044 2.75893 0
M  V30 31589 H 2967.37 2.91359 4.01652 0
M  V30 31590 N 2966.55 -0.596505 1.45875 0
M  V30 31591 C 2967.79 -1.35251 1.50172 0
M  V30 31592 C 2968.12 -1.94428 0.14928 0
M  V30 31593 O 2967.39 -1.7779 -0.822648 0
M  V30 31594 H 2965.97 -0.502129 0.55306 0
M  V30 31595 H 2968.63 -0.699639 1.81909 0
M  V30 31596 H 2967.72 -2.16628 2.24674 0
M  V30 31597 N 2968.02 -1.3335 -0.839967 0
M  V30 31598 C 2969.27 -1.24093 -1.59009 0
M  V30 31599 C 2969.59 0.191994 -1.94655 0
M  V30 31600 O 2970.79 0.40657 -2.68439 0
M  V30 31601 C 2969.25 -2.1743 -2.86797 0
M  V30 31602 C 2968.86 -3.65886 -2.58518 0
M  V30 31603 C 2970.6 -2.17043 -3.64819 0
M  V30 31604 C 2968.51 -4.5114 -3.82396 0
M  V30 31605 H 2967.44 -0.46091 -0.596723 0
M  V30 31606 H 2970.09 -1.58407 -0.926246 0
M  V30 31607 H 2968.47 -1.76047 -3.54716 0
M  V30 31608 H 2969.64 -4.15702 -1.98817 0
M  V30 31609 H 2967.96 -3.68551 -1.93802 0
M  V30 31610 H 2970.56 -2.77968 -4.56769 0
M  V30 31611 H 2970.9 -1.1652 -3.99661 0
M  V30 31612 H 2971.43 -2.56782 -3.03822 0
M  V30 31613 H 2968.17 -5.52533 -3.52686 0
M  V30 31614 H 2967.69 -4.06067 -4.4144 0
M  V30 31615 H 2969.37 -4.64888 -4.49987 0
M  V30 31616 N 2969.5 1.05808 -1.16801 0
M  V30 31617 C 2970.41 2.16917 -0.893531 0
M  V30 31618 C 2971.43 1.73467 0.136031 0
M  V30 31619 O 2972.6 2.01357 -0.0417702 0
M  V30 31620 C 2969.67 3.4434 -0.403824 0
M  V30 31621 C 2968.73 4.02271 -1.49921 0
M  V30 31622 C 2967.96 5.23612 -1.03278 0
M  V30 31623 O 2968.19 5.70283 0.115547 0
M  V30 31624 O 2967.12 5.73623 -1.8232 0
M  V30 31625 H 2970.95 2.42916 -1.82278 0
M  V30 31626 H 2968.53 1.15439 -0.948382 0
M  V30 31627 H 2970.41 4.21174 -0.137948 0
M  V30 31628 H 2969.09 3.19856 0.497357 0
M  V30 31629 H 2968 3.26905 -1.81889 0
M  V30 31630 H 2969.33 4.3106 -2.37588 0
M  V30 31631 N 2970.98 0.967265 1.24426 0
M  V30 31632 C 2971.91 0.515939 2.27729 0
M  V30 31633 C 2972.89 -0.444198 1.64198 0
M  V30 31634 O 2974.08 -0.340417 1.91193 0
M  V30 31635 C 2971.21 -0.195088 3.46752 0
M  V30 31636 C 2970.16 0.681027 4.22547 0
M  V30 31637 C 2969.49 -0.161467 5.34456 0
M  V30 31638 C 2970.79 1.96541 4.8391 0
M  V30 31639 H 2972.48 1.37937 2.65732 0
M  V30 31640 H 2970.03 0.664704 1.27741 0
M  V30 31641 H 2971.98 -0.522044 4.18154 0
M  V30 31642 H 2970.7 -1.09287 3.07773 0
M  V30 31643 H 2969.36 0.991248 3.52945 0
M  V30 31644 H 2969.01 -1.05938 4.91717 0
M  V30 31645 H 2968.71 0.421521 5.86086 0
M  V30 31646 H 2970.23 -0.483104 6.08686 0
M  V30 31647 H 2971.65 1.70406 5.47389 0
M  V30 31648 H 2970.05 2.49508 5.45771 0
M  V30 31649 H 2971.12 2.6606 4.05389 0
M  V30 31650 N 2972.46 -1.39288 0.737328 0
M  V30 31651 C 2973.74 -1.94442 0.212498 0
M  V30 31652 C 2974.12 -1.67394 -1.28618 0
M  V30 31653 O 2973.46 -1.00345 -2.05288 0
M  V30 31654 C 2973.67 -3.44661 0.548626 0
M  V30 31655 C 2975.02 -4.21655 0.499251 0
M  V30 31656 O 2976.05 -3.5287 0.485954 0
M  V30 31657 O 2974.91 -5.44246 0.495835 0
M  V30 31658 H 2972 -0.826053 0.0395602 0
M  V30 31659 H 2974.55 -1.48775 0.816345 0
M  V30 31660 H 2973.32 -3.57792 1.58432 0
M  V30 31661 H 2972.94 -3.97511 -0.08407 0
M  V30 31662 N 2973.94 -0.485139 -1.49947 0
M  V30 31663 C 2974.85 0.306656 -2.32587 0
M  V30 31664 C 2975.86 0.982607 -1.436 0
M  V30 31665 O 2977.04 0.967488 -1.7664 0
M  V30 31666 C 2974.1 1.36635 -3.18641 0
M  V30 31667 C 2973.17 0.705515 -4.23463 0
M  V30 31668 C 2972.4 1.71472 -5.05404 0
M  V30 31669 O 2972.62 2.94285 -4.88623 0
M  V30 31670 O 2971.56 1.27878 -5.88159 0
M  V30 31671 H 2975.38 -0.369325 -3.01446 0
M  V30 31672 H 2972.97 -0.246735 -1.47349 0
M  V30 31673 H 2974.85 1.97983 -3.71995 0
M  V30 31674 H 2973.52 2.02555 -2.52494 0
M  V30 31675 H 2972.43 0.0527075 -3.74063 0
M  V30 31676 H 2973.76 0.0890322 -4.92119 0
M  V30 31677 N 2975.42 1.56081 -0.218307 0
M  V30 31678 C 2976.69 1.90039 0.463109 0
M  V30 31679 C 2977.07 1.13518 1.7798 0
M  V30 31680 O 2976.42 0.24349 2.27199 0
M  V30 31681 C 2976.63 3.42717 0.659232 0
M  V30 31682 C 2977.98 4.13416 0.96813 0
M  V30 31683 O 2979 3.48298 0.746133 0
M  V30 31684 O 2977.86 5.28547 1.38927 0
M  V30 31685 H 2974.96 0.790055 0.244422 0
M  V30 31686 H 2977.5 1.67693 -0.26025 0
M  V30 31687 H 2976.27 3.9037 -0.269653 0
M  V30 31688 H 2975.9 3.70832 1.4342 0
M  V30 31689 N 2976.89 -0.0551124 1.57504 0
M  V30 31690 C 2978.14 -0.749587 1.87685 0
M  V30 31691 C 2978.46 -1.77263 0.812578 0
M  V30 31692 O 2977.73 -1.95271 -0.156906 0
M  V30 31693 H 2976.31 -0.279834 0.692605 0
M  V30 31694 H 2978.97 -0.0272402 1.94881 0
M  V30 31695 H 2978.07 -1.25543 2.85736 0
M  V30 31696 N 2978.37 -1.54173 -0.326869 0
M  V30 31697 C 2979.6 -1.76496 -1.08921 0
M  V30 31698 C 2980.02 -0.510555 -1.81039 0
M  V30 31699 O 2979.38 0.537725 -1.73142 0
M  V30 31700 C 2979.43 -2.95581 -2.06553 0
M  V30 31701 O 2978.53 -2.66896 -3.14389 0
M  V30 31702 H 2977.87 -0.584954 -0.314205 0
M  V30 31703 H 2980.4 -2.01187 -0.372172 0
M  V30 31704 H 2980.41 -3.22836 -2.49481 0
M  V30 31705 H 2979.09 -3.86552 -1.53462 0
M  V30 31706 H 2977.66 -2.5058 -2.76159 0
M  V30 31707 N 2979.85 0.58876 -1.4619 0
M  V30 31708 C 2980.78 1.7086 -1.59151 0
M  V30 31709 C 2981.76 1.64254 -0.442112 0
M  V30 31710 O 2982.95 1.82364 -0.667608 0
M  V30 31711 C 2980.08 3.09495 -1.57576 0
M  V30 31712 C 2979.03 3.30928 -2.71424 0
M  V30 31713 C 2978.36 4.70028 -2.54908 0
M  V30 31714 C 2979.66 3.19349 -4.13296 0
M  V30 31715 H 2981.35 1.60269 -2.52892 0
M  V30 31716 H 2978.9 0.769617 -1.21708 0
M  V30 31717 H 2980.85 3.87652 -1.65238 0
M  V30 31718 H 2979.57 3.20971 -0.603761 0
M  V30 31719 H 2978.23 2.55167 -2.63221 0
M  V30 31720 H 2977.88 4.78261 -1.55805 0
M  V30 31721 H 2977.58 4.85321 -3.31266 0
M  V30 31722 H 2979.1 5.50361 -2.64452 0
M  V30 31723 H 2980.52 3.87358 -4.22643 0
M  V30 31724 H 2978.91 3.46166 -4.90193 0
M  V30 31725 H 2979.98 2.16514 -4.33877 0
M  V30 31726 N 2981.33 1.33794 0.832883 0
M  V30 31727 C 2982.6 1.16181 1.57357 0
M  V30 31728 C 2982.98 -0.269495 2.09373 0
M  V30 31729 O 2982.33 -1.26941 1.89995 0
M  V30 31730 C 2982.54 2.208 2.70275 0
M  V30 31731 C 2983.89 2.55265 3.39301 0
M  V30 31732 O 2984.91 2.19513 2.80522 0
M  V30 31733 O 2983.77 3.1664 4.45422 0
M  V30 31734 H 2980.87 0.449743 0.694017 0
M  V30 31735 H 2983.41 1.45395 0.875119 0
M  V30 31736 H 2982.19 3.16915 2.29522 0
M  V30 31737 H 2981.81 1.92706 3.47779 0
M  V30 31738 N 2982.81 -1.05187 1.1736 0
M  V30 31739 C 2984.05 -1.77837 0.960118 0
M  V30 31740 C 2984.37 -1.88144 -0.512521 0
M  V30 31741 O 2983.64 -1.39824 -1.37208 0
M  V30 31742 H 2982.22 -0.658735 0.352246 0
M  V30 31743 H 2984.89 -1.27006 1.47836 0
M  V30 31744 H 2983.98 -2.79513 1.38848 0
M  V30 31745 N 2984.28 -0.97385 -1.23911 0
M  V30 31746 C 2985.23 -0.501019 -2.2714 0
M  V30 31747 C 2986.23 0.438602 -1.63623 0
M  V30 31748 O 2987.43 0.313216 -1.77254 0
M  V30 31749 H 2983.81 -0.143573 -0.738167 0
M  V30 31750 H 2985.78 -1.38351 -2.64389 0
M  V30 31751 C 2984.53 0.187316 -3.47195 0
M  V30 31752 H 2983.85 -0.526605 -3.96317 0
M  V30 31753 H 2985.29 0.481888 -4.21253 0
M  V30 31754 C 2983.75 1.41637 -3.05681 0
M  V30 31755 O 2984.28 2.51303 -3.13384 0
M  V30 31756 N 2982.48 1.28464 -2.60663 0
M  V30 31757 H 2982.03 0.392335 -2.54595 0
M  V30 31758 H 2981.99 2.10809 -2.33253 0
M  V30 31759 N 2985.76 1.38895 -0.744705 0
M  V30 31760 C 2986.99 2.05128 -0.306155 0
M  V30 31761 C 2987.41 1.55791 1.05407 0
M  V30 31762 O 2986.77 0.705938 1.66992 0
M  V30 31763 C 2986.82 3.59103 -0.328258 0
M  V30 31764 O 2985.92 4.06742 0.680804 0
M  V30 31765 H 2985.26 0.649666 -0.13722 0
M  V30 31766 H 2987.79 1.77743 -1.01334 0
M  V30 31767 H 2987.8 4.0762 -0.176027 0
M  V30 31768 H 2986.48 3.94372 -1.32074 0
M  V30 31769 H 2985.05 3.69615 0.493915 0
M  V30 31770 N 2987.24 0.493084 1.49688 0
M  V30 31771 C 2988.52 -0.116872 1.95251 0
M  V30 31772 C 2988.9 -1.54889 1.43431 0
M  V30 31773 O 2988.25 -2.19218 0.644659 0
M  V30 31774 C 2988.46 -0.0376436 3.4898 0
M  V30 31775 C 2989.8 -0.215546 4.24053 0
M  V30 31776 O 2990.83 -0.113204 3.5602 0
M  V30 31777 O 2989.69 -0.424674 5.44847 0
M  V30 31778 H 2986.78 -0.0996476 0.820975 0
M  V30 31779 H 2989.33 0.555057 1.60366 0
M  V30 31780 H 2988.1 0.961317 3.79308 0
M  V30 31781 H 2987.72 -0.750069 3.90461 0
M  V30 31782 N 2988.72 -1.55963 0.226582 0
M  V30 31783 C 2989.65 -2.23499 -0.67604 0
M  V30 31784 C 2990.63 -1.20839 -1.19716 0
M  V30 31785 O 2991.81 -1.49438 -1.24024 0
M  V30 31786 C 2988.94 -2.91879 -1.88212 0
M  V30 31787 C 2987.9 -4.01055 -1.49463 0
M  V30 31788 C 2987.22 -4.56756 -2.77989 0
M  V30 31789 C 2988.52 -5.17843 -0.68086 0
M  V30 31790 H 2990.22 -2.99187 -0.112937 0
M  V30 31791 H 2987.76 -1.43903 -0.0528793 0
M  V30 31792 H 2989.72 -3.37819 -2.51905 0
M  V30 31793 H 2988.44 -2.13647 -2.47027 0
M  V30 31794 H 2987.1 -3.55853 -0.881136 0
M  V30 31795 H 2986.75 -3.75248 -3.34959 0
M  V30 31796 H 2986.45 -5.30442 -2.52794 0
M  V30 31797 H 2987.97 -5.05417 -3.42616 0
M  V30 31798 H 2989.39 -5.60134 -1.22161 0
M  V30 31799 H 2987.78 -5.97792 -0.525793 0
M  V30 31800 H 2988.85 -4.83899 0.311431 0
M  V30 31801 N 2990.2 0.0467589 -1.57531 0
M  V30 31802 C 2991.42 0.753337 -1.92698 0
M  V30 31803 C 2991.84 1.6983 -0.824822 0
M  V30 31804 O 2991.2 1.81399 0.200123 0
M  V30 31805 C 2991.25 1.52561 -3.27731 0
M  V30 31806 O 2990.97 0.618598 -4.33711 0
M  V30 31807 C 2992.47 2.33094 -3.7707 0
M  V30 31808 H 2989.69 0.212776 -0.63637 0
M  V30 31809 H 2992.23 0.00955767 -2.04498 0
M  V30 31810 H 2990.39 2.22143 -3.17382 0
M  V30 31811 H 2990.8 1.1583 -5.1155 0
M  V30 31812 H 2992.28 2.82701 -4.74114 0
M  V30 31813 H 2992.75 3.13736 -3.07354 0
M  V30 31814 H 2993.36 1.68621 -3.90445 0
M  V30 31815 N 2991.67 1.54344 0.318688 0
M  V30 31816 C 2992.92 1.71995 1.0536 0
M  V30 31817 C 2993.24 0.503188 1.89017 0
M  V30 31818 O 2994.44 0.561132 2.65638 0
M  V30 31819 C 2992.9 3.04234 1.92276 0
M  V30 31820 C 2992.51 4.3333 1.13707 0
M  V30 31821 C 2994.25 3.31246 2.65473 0
M  V30 31822 C 2992.16 5.56629 1.99797 0
M  V30 31823 H 2991.09 0.640977 0.39707 0
M  V30 31824 H 2993.74 1.80836 0.311566 0
M  V30 31825 H 2992.12 2.89312 2.70397 0
M  V30 31826 H 2993.29 4.59032 0.403224 0
M  V30 31827 H 2991.61 4.13119 0.521696 0
M  V30 31828 H 2994.21 4.20561 3.30201 0
M  V30 31829 H 2994.55 2.49339 3.3337 0
M  V30 31830 H 2995.08 3.47058 1.94411 0
M  V30 31831 H 2991.82 6.41152 1.364 0
M  V30 31832 H 2991.34 5.35138 2.70902 0
M  V30 31833 H 2993.02 5.93218 2.58267 0
M  V30 31834 N 2993.15 -0.580999 1.465 0
M  V30 31835 C 2994.57 -0.90454 1.31492 0
M  V30 31836 C 2994.77 -1.99437 0.287633 0
M  V30 31837 O 2993.82 -2.506 -0.309203 0
M  V30 31838 C 2995.14 -1.32028 2.70165 0
M  V30 31839 C 2996.69 -1.43303 2.78268 0
M  V30 31840 C 2997.16 -1.88242 4.17527 0
M  V30 31841 N 2998.65 -1.95433 4.19953 0
M  V30 31842 C 2999.39 -2.31483 5.24598 0
M  V30 31843 N 2998.88 -2.66314 6.39569 0
M  V30 31844 N 3000.68 -2.32053 5.11965 0
M  V30 31845 H 2992.83 0.138893 2.11945 0
M  V30 31846 H 2995.09 -0.000531864 0.948 0
M  V30 31847 H 2994.8 -0.593493 3.46656 0
M  V30 31848 H 2994.67 -2.28144 3.00383 0
M  V30 31849 H 2997.06 -2.15068 2.02064 0
M  V30 31850 H 2997.14 -0.454336 2.51733 0
M  V30 31851 H 2996.78 -1.17056 4.94227 0
M  V30 31852 H 2996.71 -2.87073 4.41471 0
M  V30 31853 H 2999.2 -1.70998 3.36999 0
M  V30 31854 H 2999.52 -2.92781 7.15192 0
M  V30 31855 H 2997.86 -2.63949 6.42928 0
M  V30 31856 H 3001.05 -2.04265 4.21181 0
M  V30 31857 H 3001.22 -2.5982 5.93631 0
M  V30 31858 N 2994.63 -1.34234 -0.825776 0
M  V30 31859 C 2995.88 -1.2618 -1.5787 0
M  V30 31860 C 2996.2 0.16887 -1.94267 0
M  V30 31861 O 2995.47 1.10081 -1.62046 0
M  V30 31862 H 2994.05 -0.464047 -0.585379 0
M  V30 31863 H 2996.71 -1.68111 -0.986133 0
M  V30 31864 H 2995.81 -1.86458 -2.5028 0
M  V30 31865 N 2996.11 1.04563 -1.17917 0
M  V30 31866 C 2997.52 1.29863 -0.927784 0
M  V30 31867 C 2997.72 1.97295 0.409501 0
M  V30 31868 O 2996.78 2.25046 1.14501 0
M  V30 31869 C 2998.09 2.16221 -2.08971 0
M  V30 31870 C 2999.64 2.29584 -2.12745 0
M  V30 31871 C 3000.12 3.19306 -3.28341 0
M  V30 31872 N 3001.61 3.26893 -3.2817 0
M  V30 31873 C 3002.34 3.96458 -4.14256 0
M  V30 31874 N 3001.84 4.68398 -5.10466 0
M  V30 31875 N 3003.63 3.92687 -4.02186 0
M  V30 31876 H 2995.78 0.591975 -2.03984 0
M  V30 31877 H 2998.05 0.323685 -0.891029 0
M  V30 31878 H 2997.75 1.73973 -3.05657 0
M  V30 31879 H 2997.63 3.16882 -2.04611 0
M  V30 31880 H 3000.01 2.7107 -1.1664 0
M  V30 31881 H 3000.09 1.28531 -2.21164 0
M  V30 31882 H 2999.74 2.78532 -4.24715 0
M  V30 31883 H 2999.67 4.20379 -3.17158 0
M  V30 31884 H 3002.16 2.75641 -2.58516 0
M  V30 31885 H 3002.47 5.1906 -5.72536 0
M  V30 31886 H 3000.82 4.67319 -5.1443 0
M  V30 31887 H 3004.01 3.35614 -3.26314 0
M  V30 31888 H 3004.18 4.46632 -4.69494 0
M  V30 31889 N 2997.59 0.980408 1.23393 0
M  V30 31890 C 2998.52 0.540064 2.27169 0
M  V30 31891 C 2999.5 -0.426758 1.6466 0
M  V30 31892 O 3000.68 -0.320119 1.91543 0
M  V30 31893 C 2997.81 -0.158299 3.46939 0
M  V30 31894 C 2996.77 0.725806 4.21801 0
M  V30 31895 C 2996.09 -0.104772 5.34597 0
M  V30 31896 C 2997.39 2.01662 4.81798 0
M  V30 31897 H 2999.09 1.40748 2.64254 0
M  V30 31898 H 2996.63 0.678215 1.27029 0
M  V30 31899 H 2998.59 -0.477664 4.18684 0
M  V30 31900 H 2997.31 -1.06017 3.08914 0
M  V30 31901 H 2995.97 1.02863 3.51873 0
M  V30 31902 H 2995.62 -1.00717 4.92813 0
M  V30 31903 H 2995.32 0.48366 5.85606 0
M  V30 31904 H 2996.84 -0.418517 6.09164 0
M  V30 31905 H 2998.25 1.76202 5.45551 0
M  V30 31906 H 2996.65 2.55283 5.43094 0
M  V30 31907 H 2997.72 2.70345 4.02544 0
M  V30 31908 N 2999.06 -1.38498 0.75206 0
M  V30 31909 C 2999.99 -2.33087 0.138759 0
M  V30 31910 C 3000.98 -1.54789 -0.705291 0
M  V30 31911 O 3002.16 -1.83113 -0.646789 0
M  V30 31912 C 2999.29 -3.38964 -0.75635 0
M  V30 31913 C 2998.24 -4.27997 -0.0151486 0
M  V30 31914 C 2997.57 -5.24717 -1.02841 0
M  V30 31915 C 2998.87 -5.09429 1.15235 0
M  V30 31916 H 3000.56 -2.84626 0.928902 0
M  V30 31917 H 2998.11 -1.36849 0.448135 0
M  V30 31918 H 3000.06 -4.04099 -1.19506 0
M  V30 31919 H 2998.79 -2.85905 -1.5788 0
M  V30 31920 H 2997.45 -3.64366 0.404126 0
M  V30 31921 H 2997.09 -4.67946 -1.84488 0
M  V30 31922 H 2996.79 -5.8514 -0.537135 0
M  V30 31923 H 2998.32 -5.92728 -1.46647 0
M  V30 31924 H 2999.73 -5.67813 0.791261 0
M  V30 31925 H 2998.13 -5.7908 1.57438 0
M  V30 31926 H 2999.2 -4.43257 1.96598 0
M  V30 31927 N 3000.54 -0.501015 -1.49424 0
M  V30 31928 C 3001.77 0.0424789 -2.07356 0
M  V30 31929 C 3002.19 1.3006 -1.35889 0
M  V30 31930 O 3001.55 1.76471 -0.415641 0
M  V30 31931 C 3001.6 0.279124 -3.59518 0
M  V30 31932 O 3000.7 1.35383 -3.89545 0
M  V30 31933 H 3000.04 -0.0262324 -0.663482 0
M  V30 31934 H 3002.57 -0.70064 -1.9223 0
M  V30 31935 H 3002.58 0.510628 -4.04792 0
M  V30 31936 H 3001.26 -0.640082 -4.10945 0
M  V30 31937 H 2999.84 1.10728 -3.56081 0
M  V30 31938 N 3002.02 1.5584 -0.234849 0
M  V30 31939 C 3002.95 2.23855 0.664177 0
M  V30 31940 C 3003.93 1.21472 1.19074 0
M  V30 31941 O 3005.12 1.50094 1.2323 0
M  V30 31942 C 3002.25 2.92874 1.86661 0
M  V30 31943 C 3001.2 4.01842 1.47334 0
M  V30 31944 C 3000.53 4.58224 2.75563 0
M  V30 31945 C 3001.83 5.18197 0.653388 0
M  V30 31946 H 3003.52 2.99243 0.0970687 0
M  V30 31947 H 3001.07 1.43929 0.0452471 0
M  V30 31948 H 3003.02 3.39151 2.5011 0
M  V30 31949 H 3001.74 2.14954 2.45891 0
M  V30 31950 H 3000.4 3.56316 0.862252 0
M  V30 31951 H 3000.05 3.7702 3.32964 0
M  V30 31952 H 2999.75 5.31775 2.49977 0
M  V30 31953 H 3001.28 5.07227 3.39931 0
M  V30 31954 H 3002.69 5.60774 1.19189 0
M  V30 31955 H 3001.09 5.98063 0.494083 0
M  V30 31956 H 3002.16 4.83727 -0.337089 0
M  V30 31957 N 3003.5 -0.038404 1.57553 0
M  V30 31958 C 3004.75 -0.732166 1.89122 0
M  V30 31959 C 3005.08 -1.75502 0.831434 0
M  V30 31960 O 3004.35 -1.93885 -0.154608 0
M  V30 31961 C 3004.64 -1.41015 3.31341 0
M  V30 31962 C 3004.49 -0.401453 4.48005 0
M  V30 31963 C 3005.81 -2.34658 3.72322 0
M  V30 31964 H 3002.93 -0.264703 0.687824 0
M  V30 31965 H 3005.57 0.00499619 1.89999 0
M  V30 31966 H 3003.72 -2.03849 3.30723 0
M  V30 31967 H 3005.39 0.22424 4.60755 0
M  V30 31968 H 3003.63 0.280168 4.32894 0
M  V30 31969 H 3004.31 -0.914134 5.44378 0
M  V30 31970 H 3006.78 -1.81877 3.74246 0
M  V30 31971 H 3005.66 -2.79082 4.72657 0
M  V30 31972 H 3005.92 -3.20929 3.04067 0
M  V30 31973 N 3004.98 -1.54511 -0.310498 0
M  V30 31974 C 3005.89 -1.87847 -1.40537 0
M  V30 31975 C 3006.9 -0.771662 -1.55953 0
M  V30 31976 O 3008.08 -1.06722 -1.70799 0
M  V30 31977 C 3005.14 -2.11053 -2.75059 0
M  V30 31978 C 3004.21 -3.34805 -2.68709 0
M  V30 31979 C 3003.44 -3.56894 -3.96815 0
M  V30 31980 O 3003.66 -2.82173 -4.95716 0
M  V30 31981 O 3002.6 -4.50396 -3.99283 0
M  V30 31982 H 3006.42 -2.80974 -1.15271 0
M  V30 31983 H 3004.01 -1.40581 -0.505707 0
M  V30 31984 H 3005.89 -2.27572 -3.54667 0
M  V30 31985 H 3004.56 -1.21113 -3.00189 0
M  V30 31986 H 3003.47 -3.23659 -1.87605 0
M  V30 31987 H 3004.8 -4.24844 -2.48532 0
M  V30 31988 N 3006.46 0.573222 -1.46806 0
M  V30 31989 C 3007.4 1.68158 -1.58087 0
M  V30 31990 C 3008.37 1.6058 -0.424664 0
M  V30 31991 O 3009.56 1.79651 -0.642654 0
M  V30 31992 C 3006.7 3.06493 -1.58606 0
M  V30 31993 C 3005.81 3.24627 -2.85029 0
M  V30 31994 C 3004.95 4.53266 -2.76989 0
M  V30 31995 C 3003.98 4.64776 -3.98309 0
M  V30 31996 N 3003.12 5.84752 -3.88599 0
M  V30 31997 H 3007.96 1.57853 -2.52757 0
M  V30 31998 H 3005.5 0.769196 -1.25387 0
M  V30 31999 H 3007.46 3.86576 -1.56891 0
M  V30 32000 H 3006.09 3.15672 -0.674609 0
M  V30 32001 H 3005.14 2.38084 -2.96682 0
M  V30 32002 H 3006.45 3.28998 -3.74916 0
M  V30 32003 H 3005.6 5.41589 -2.73434 0
M  V30 32004 H 3004.34 4.51349 -1.84758 0
M  V30 32005 H 3003.35 3.74869 -4.02186 0
M  V30 32006 H 3004.57 4.68465 -4.91647 0
M  V30 32007 H 3002.52 5.83814 -2.99161 0
M  V30 32008 H 3002.44 5.90432 -4.7215 0
M  V30 32009 H 3003.7 6.7548 -3.89034 0
M  V30 32010 N 3007.93 1.3467 0.818645 0
M  V30 32011 C 3009.18 1.27455 1.57743 0
M  V30 32012 C 3009.51 -0.154043 1.93588 0
M  V30 32013 O 3008.79 -1.10048 1.60373 0
M  V30 32014 C 3009.07 2.1695 2.8741 0
M  V30 32015 C 3008.92 3.68368 2.58119 0
M  V30 32016 C 3010.24 2.05799 3.89018 0
M  V30 32017 H 3007.36 0.464334 0.572331 0
M  V30 32018 H 3010 1.64961 0.942755 0
M  V30 32019 H 3008.15 1.85095 3.41573 0
M  V30 32020 H 3009.83 4.1061 2.10232 0
M  V30 32021 H 3008.07 3.89245 1.91496 0
M  V30 32022 H 3008.74 4.26359 3.50602 0
M  V30 32023 H 3011.22 2.33777 3.4422 0
M  V30 32024 H 3010.09 2.70637 4.77543 0
M  V30 32025 H 3010.35 1.03625 4.29784 0
M  V30 32026 N 3009.41 -1.03936 1.1847 0
M  V30 32027 C 3010.64 -1.80808 1.00579 0
M  V30 32028 C 3011.05 -1.83462 -0.445754 0
M  V30 32029 O 3010.41 -1.27103 -1.30962 0
M  V30 32030 C 3010.46 -3.26348 1.55497 0
M  V30 32031 O 3010.18 -3.23921 2.94969 0
M  V30 32032 C 3011.68 -4.19859 1.42243 0
M  V30 32033 H 3008.9 -0.569344 0.35509 0
M  V30 32034 H 3011.45 -1.30982 1.57048 0
M  V30 32035 H 3009.6 -3.73401 1.03202 0
M  V30 32036 H 3010.02 -4.15105 3.20606 0
M  V30 32037 H 3011.49 -5.19911 1.85464 0
M  V30 32038 H 3011.97 -4.37627 0.371344 0
M  V30 32039 H 3012.57 -3.78672 1.93617 0
M  V30 32040 N 3010.89 -0.986938 -1.22871 0
M  V30 32041 C 3012.12 -0.676715 -1.95203 0
M  V30 32042 C 3012.53 0.76161 -1.73194 0
M  V30 32043 O 3011.87 1.5249 -1.02433 0
M  V30 32044 C 3011.93 -0.895364 -3.48172 0
M  V30 32045 C 3011.6 -2.31702 -3.93908 0
M  V30 32046 C 3012.59 -3.29614 -4.02058 0
M  V30 32047 C 3010.28 -2.64986 -4.26718 0
M  V30 32048 C 3012.27 -4.58886 -4.42383 0
M  V30 32049 C 3009.96 -3.94479 -4.66722 0
M  V30 32050 C 3010.96 -4.91241 -4.74522 0
M  V30 32051 O 3010.65 -6.18421 -5.13625 0
M  V30 32052 H 3010.38 -0.249931 -0.628101 0
M  V30 32053 H 3012.93 -1.32276 -1.57137 0
M  V30 32054 H 3011.16 -0.19214 -3.86222 0
M  V30 32055 H 3012.85 -0.581303 -4.01716 0
M  V30 32056 H 3013.62 -3.05231 -3.76907 0
M  V30 32057 H 3009.5 -1.90377 -4.19854 0
M  V30 32058 H 3013.04 -5.34412 -4.48386 0
M  V30 32059 H 3008.94 -4.18654 -4.91324 0
M  V30 32060 H 3009.7 -6.2227 -5.31717 0
M  V30 32061 N 3012.37 1.38098 -0.759394 0
M  V30 32062 C 3013.3 2.3301 -0.151118 0
M  V30 32063 C 3014.28 1.55161 0.697072 0
M  V30 32064 O 3015.46 1.83453 0.637069 0
M  V30 32065 C 3012.59 3.3936 0.738364 0
M  V30 32066 C 3011.55 4.27999 -0.00754933 0
M  V30 32067 C 3010.87 5.25255 1.00057 0
M  V30 32068 C 3012.17 5.08811 -1.17935 0
M  V30 32069 H 3013.87 2.84129 -0.943983 0
M  V30 32070 H 3011.41 1.3661 -0.455386 0
M  V30 32071 H 3013.37 4.04727 1.17362 0
M  V30 32072 H 3012.09 2.86738 1.56361 0
M  V30 32073 H 3010.75 3.64146 -0.423443 0
M  V30 32074 H 3010.4 4.68918 1.82003 0
M  V30 32075 H 3010.1 5.85416 0.506096 0
M  V30 32076 H 3011.62 5.93498 1.43501 0
M  V30 32077 H 3013.04 5.67386 -0.821362 0
M  V30 32078 H 3011.43 5.78236 -1.60507 0
M  V30 32079 H 3012.5 4.42209 -1.98946 0
M  V30 32080 N 3013.85 0.508932 1.49156 0
M  V30 32081 C 3014.79 -0.265248 2.29271 0
M  V30 32082 C 3015.76 -0.953138 1.36031 0
M  V30 32083 O 3016.95 -0.958262 1.64991 0
M  V30 32084 C 3014.09 -1.31898 3.18899 0
M  V30 32085 C 3013.2 -0.642069 4.27202 0
M  V30 32086 C 3012.34 -1.67693 5.04036 0
M  V30 32087 C 3011.37 -0.982315 6.04166 0
M  V30 32088 N 3010.51 -1.96174 6.74137 0
M  V30 32089 H 3015.35 0.424159 2.94966 0
M  V30 32090 H 3012.89 0.221016 1.4543 0
M  V30 32091 H 3014.85 -1.94199 3.69246 0
M  V30 32092 H 3013.48 -1.97705 2.55172 0
M  V30 32093 H 3012.53 0.0944063 3.80283 0
M  V30 32094 H 3013.84 -0.095663 4.98708 0
M  V30 32095 H 3012.99 -2.37478 5.58291 0
M  V30 32096 H 3011.73 -2.2572 4.32321 0
M  V30 32097 H 3010.74 -0.270282 5.49135 0
M  V30 32098 H 3011.96 -0.408434 6.77871 0
M  V30 32099 H 3009.91 -2.53148 6.05188 0
M  V30 32100 H 3009.83 -1.46621 7.41646 0
M  V30 32101 H 3011.09 -2.65223 7.32992 0
M  V30 32102 N 3015.32 -1.55714 0.243111 0
M  V30 32103 C 3016.27 -2.2122 -0.658039 0
M  V30 32104 C 3017.24 -1.17483 -1.17418 0
M  V30 32105 O 3018.43 -1.45917 -1.22935 0
M  V30 32106 C 3015.57 -2.9126 -1.85099 0
M  V30 32107 C 3014.68 -4.09643 -1.37173 0
M  V30 32108 C 3013.81 -4.67408 -2.52395 0
M  V30 32109 C 3012.85 -5.78049 -2.01311 0
M  V30 32110 N 3011.99 -6.30012 -3.09885 0
M  V30 32111 H 3016.83 -2.97856 -0.092733 0
M  V30 32112 H 3014.37 -1.47061 -0.0340116 0
M  V30 32113 H 3016.32 -3.30064 -2.55173 0
M  V30 32114 H 3014.95 -2.17105 -2.38884 0
M  V30 32115 H 3014.01 -3.76178 -0.565166 0
M  V30 32116 H 3015.32 -4.89527 -0.957323 0
M  V30 32117 H 3014.47 -5.08767 -3.30516 0
M  V30 32118 H 3013.21 -3.86733 -2.97135 0
M  V30 32119 H 3012.22 -5.36171 -1.21658 0
M  V30 32120 H 3013.44 -6.60573 -1.57545 0
M  V30 32121 H 3011.39 -5.52243 -3.54067 0
M  V30 32122 H 3011.3 -7.05079 -2.72763 0
M  V30 32123 H 3012.57 -6.76029 -3.88078 0
M  V30 32124 N 3016.8 0.030048 -1.57571 0
M  V30 32125 C 3017.75 1.03097 -2.06494 0
M  V30 32126 C 3018.72 1.35979 -0.953886 0
M  V30 32127 O 3019.9 1.46333 -1.22439 0
M  V30 32128 C 3017.04 2.32714 -2.5483 0
M  V30 32129 C 3016.16 2.05999 -3.79721 0
M  V30 32130 C 3015.29 3.29479 -4.16674 0
M  V30 32131 C 3014.33 2.98315 -5.34485 0
M  V30 32132 N 3013.47 4.14244 -5.66874 0
M  V30 32133 H 3018.31 0.606826 -2.91756 0
M  V30 32134 H 3015.85 0.288013 -1.44253 0
M  V30 32135 H 3017.8 3.08446 -2.80921 0
M  V30 32136 H 3016.43 2.72853 -1.72486 0
M  V30 32137 H 3015.49 1.20768 -3.6072 0
M  V30 32138 H 3016.8 1.79009 -4.65572 0
M  V30 32139 H 3015.95 4.1358 -4.43888 0
M  V30 32140 H 3014.69 3.59582 -3.29472 0
M  V30 32141 H 3013.7 2.12616 -5.07025 0
M  V30 32142 H 3014.92 2.69491 -6.23339 0
M  V30 32143 H 3012.87 4.44299 -4.82632 0
M  V30 32144 H 3012.78 3.90674 -6.47233 0
M  V30 32145 H 3014.05 4.99221 -5.98664 0
M  V30 32146 N 3018.28 1.54674 0.3023 0
M  V30 32147 C 3019.21 1.81905 1.39439 0
M  V30 32148 C 3020.23 0.701939 1.4689 0
M  V30 32149 O 3021.41 0.979395 1.49232 0
M  V30 32150 C 3018.51 1.94085 2.7782 0
M  V30 32151 C 3017.69 3.24474 2.93318 0
M  V30 32152 C 3016.75 3.27087 4.1219 0
M  V30 32153 O 3015.77 4.00624 4.04337 0
M  V30 32154 N 3016.97 2.52385 5.22764 0
M  V30 32155 H 3019.74 2.76157 1.16436 0
M  V30 32156 H 3017.3 1.54232 0.492365 0
M  V30 32157 H 3019.29 1.93237 3.55586 0
M  V30 32158 H 3017.86 1.06833 2.93778 0
M  V30 32159 H 3017.08 3.38107 2.02676 0
M  V30 32160 H 3018.37 4.10521 3.00583 0
M  V30 32161 H 3017.77 1.92268 5.32024 0
M  V30 32162 H 3016.33 2.57292 5.98869 0
M  V30 32163 N 3019.76 -0.565428 1.47108 0
M  V30 32164 C 3020.72 -1.65525 1.58538 0
M  V30 32165 C 3021.72 -1.54047 0.461108 0
M  V30 32166 O 3022.91 -1.58353 0.725938 0
M  V30 32167 C 3020.04 -3.05033 1.52209 0
M  V30 32168 H 3021.24 -1.56742 2.55679 0
M  V30 32169 H 3018.79 -0.784687 1.35175 0
M  V30 32170 H 3019.52 -3.19356 0.564128 0
M  V30 32171 H 3019.31 -3.14773 2.33796 0
M  V30 32172 H 3020.8 -3.84335 1.63329 0
M  V30 32173 N 3021.24 -1.35102 -0.811492 0
M  V30 32174 C 3022.15 -1.29722 -1.95472 0
M  V30 32175 C 3023.16 -0.20294 -1.72812 0
M  V30 32176 O 3024.34 -0.431449 -1.96724 0
M  V30 32177 C 3021.4 -1.0639 -3.29973 0
M  V30 32178 C 3020.46 -2.25084 -3.65562 0
M  V30 32179 C 3019.7 -2.02856 -4.93645 0
M  V30 32180 O 3019.92 -0.992541 -5.61698 0
M  V30 32181 O 3018.85 -2.90096 -5.27378 0
M  V30 32182 H 3022.68 -2.25925 -2.02958 0
M  V30 32183 H 3020.27 -1.15424 -0.948563 0
M  V30 32184 H 3022.15 -0.952071 -4.10504 0
M  V30 32185 H 3020.82 -0.13235 -3.23429 0
M  V30 32186 H 3019.73 -2.4183 -2.85428 0
M  V30 32187 H 3021.06 -3.16669 -3.76804 0
M  V30 32188 N 3022.71 1.03306 -1.19019 0
M  V30 32189 C 3023.66 2.11491 -0.924126 0
M  V30 32190 C 3024.63 1.65514 0.139435 0
M  V30 32191 O 3025.82 1.908 -0.00182114 0
M  V30 32192 C 3022.96 3.41962 -0.464315 0
M  V30 32193 C 3022.07 4.0151 -1.59417 0
M  V30 32194 C 3021.2 5.19974 -1.08631 0
M  V30 32195 C 3020.24 5.71568 -2.19034 0
M  V30 32196 N 3019.38 6.81311 -1.69587 0
M  V30 32197 H 3024.22 2.33587 -1.85043 0
M  V30 32198 H 3021.76 1.1457 -0.922613 0
M  V30 32199 H 3023.72 4.16815 -0.179151 0
M  V30 32200 H 3022.35 3.1999 0.425005 0
M  V30 32201 H 3021.4 3.23911 -1.99464 0
M  V30 32202 H 3022.71 4.35822 -2.42612 0
M  V30 32203 H 3021.86 6.0197 -0.756128 0
M  V30 32204 H 3020.6 4.87185 -0.224041 0
M  V30 32205 H 3019.61 4.88188 -2.52888 0
M  V30 32206 H 3020.83 6.06398 -3.0571 0
M  V30 32207 H 3018.78 6.50383 -0.856608 0
M  V30 32208 H 3018.7 7.14728 -2.46374 0
M  V30 32209 H 3019.96 7.66913 -1.39519 0
M  V30 32210 N 3024.19 0.99344 1.22346 0
M  V30 32211 C 3025.6 0.704647 1.72892 0
M  V30 32212 C 3025.95 -0.778452 1.80096 0
M  V30 32213 O 3025.08 -1.6085 1.44763 0
M  V30 32214 C 3025.67 1.27243 3.13998 0
M  V30 32215 C 3024.23 1.033 3.61947 0
M  V30 32216 C 3023.38 1.39229 2.39814 0
M  V30 32217 H 3026.33 1.16574 1.07686 0
M  V30 32218 H 3026.35 0.651278 3.74885 0
M  V30 32219 H 3025.86 2.35185 3.08723 0
M  V30 32220 H 3023.97 -0.0297674 3.72588 0
M  V30 32221 H 3024.08 1.69676 4.48048 0
M  V30 32222 H 3022.44 0.810891 2.41447 0
M  V30 32223 H 3023.23 2.48176 2.37199 0
M  V30 32224 N 3025.67 -1.37693 0.766707 0
M  V30 32225 C 3026.92 -2.0011 0.329236 0
M  V30 32226 C 3027.25 -1.60725 -1.09001 0
M  V30 32227 O 3026.52 -0.851019 -1.74894 0
M  V30 32228 C 3026.81 -3.57058 0.467052 0
M  V30 32229 C 3026.66 -4.06368 1.92835 0
M  V30 32230 C 3027.98 -4.39903 -0.131715 0
M  V30 32231 H 3025.1 -0.726982 0.121103 0
M  V30 32232 H 3027.74 -1.63445 0.968808 0
M  V30 32233 H 3025.89 -3.88423 -0.0774341 0
M  V30 32234 H 3027.56 -3.8559 2.53215 0
M  V30 32235 H 3025.81 -3.58747 2.43891 0
M  V30 32236 H 3026.48 -5.15426 1.97586 0
M  V30 32237 H 3028.95 -4.14767 0.332803 0
M  V30 32238 H 3027.83 -5.489 -0.00512051 0
M  V30 32239 H 3028.09 -4.24891 -1.22148 0
M  V30 32240 N 3027.15 -0.516835 -1.48884 0
M  V30 32241 C 3028.06 0.257252 -2.33185 0
M  V30 32242 C 3029.07 0.951926 -1.45652 0
M  V30 32243 O 3030.25 0.929803 -1.78652 0
M  V30 32244 C 3027.32 1.29845 -3.21467 0
M  V30 32245 C 3026.38 0.615533 -4.24864 0
M  V30 32246 C 3025.61 1.60713 -5.08927 0
M  V30 32247 O 3025.83 2.83854 -4.94755 0
M  V30 32248 O 3024.77 1.15374 -5.90739 0
M  V30 32249 H 3028.59 -0.433183 -3.00595 0
M  V30 32250 H 3026.18 -0.277934 -1.46792 0
M  V30 32251 H 3028.06 1.90048 -3.76111 0
M  V30 32252 H 3026.73 1.97153 -2.56734 0
M  V30 32253 H 3025.64 -0.0266486 -3.74091 0
M  V30 32254 H 3026.97 -0.0153736 -4.92198 0
M  V30 32255 N 3028.63 1.55583 -0.251365 0
M  V30 32256 C 3029.85 2.03906 0.3791 0
M  V30 32257 C 3030.28 1.12931 1.50426 0
M  V30 32258 O 3029.63 0.123146 1.80881 0
M  V30 32259 C 3029.68 3.50194 0.860028 0
M  V30 32260 O 3028.79 3.62345 1.96926 0
M  V30 32261 H 3028.13 0.658916 0.0820067 0
M  V30 32262 H 3030.66 2.01064 -0.378727 0
M  V30 32263 H 3030.67 3.91101 1.16207 0
M  V30 32264 H 3029.34 4.15884 0.0366828 0
M  V30 32265 H 3027.92 3.33336 1.67157 0
M  V30 32266 N 3030.1 -0.0216912 1.57585 0
M  V30 32267 C 3031.38 -0.746838 1.80781 0
M  V30 32268 C 3031.76 -1.93178 0.851197 0
M  V30 32269 O 3031.11 -2.28259 -0.104999 0
M  V30 32270 C 3031.32 -1.17296 3.28698 0
M  V30 32271 C 3032.67 -1.58582 3.93874 0
M  V30 32272 O 3033.69 -1.26734 3.32892 0
M  V30 32273 O 3032.55 -2.17722 5.01258 0
M  V30 32274 H 3029.64 -0.361773 0.743673 0
M  V30 32275 H 3032.19 0.00209768 1.697 0
M  V30 32276 H 3030.96 -0.327385 3.89928 0
M  V30 32277 H 3030.59 -1.98168 3.44696 0
M  V30 32278 N 3031.58 -1.54832 -0.294093 0
M  V30 32279 C 3032.81 -1.78767 -1.05153 0
M  V30 32280 C 3033.23 -0.548841 -1.79915 0
M  V30 32281 O 3032.59 0.500878 -1.74244 0
M  V30 32282 C 3032.64 -2.99896 -2.00236 0
M  V30 32283 O 3031.74 -2.73504 -3.08657 0
M  V30 32284 H 3031.08 -0.591487 -0.301727 0
M  V30 32285 H 3033.61 -2.01931 -0.329414 0
M  V30 32286 H 3033.62 -3.28056 -2.42577 0
M  V30 32287 H 3032.3 -3.8972 -1.45229 0
M  V30 32288 H 3030.88 -2.56382 -2.70782 0
M  V30 32289 N 3033.06 0.557619 -1.47405 0
M  V30 32290 C 3034.01 1.66472 -1.59862 0
M  V30 32291 C 3034.98 1.6012 -0.441672 0
M  V30 32292 O 3036.16 1.7896 -0.661673 0
M  V30 32293 C 3033.3 3.04794 -1.61848 0
M  V30 32294 C 3032.42 3.21585 -2.88456 0
M  V30 32295 C 3031.55 4.50303 -2.81781 0
M  V30 32296 C 3030.59 4.60525 -4.03216 0
M  V30 32297 N 3029.73 5.80598 -3.9478 0
M  V30 32298 H 3034.57 1.55164 -2.54417 0
M  V30 32299 H 3032.1 0.755854 -1.26195 0
M  V30 32300 H 3034.06 3.8489 -1.60983 0
M  V30 32301 H 3032.69 3.14939 -0.708052 0
M  V30 32302 H 3031.74 2.34924 -2.9919 0
M  V30 32303 H 3033.06 3.25003 -3.78384 0
M  V30 32304 H 3032.21 5.38659 -2.79163 0
M  V30 32305 H 3030.95 4.49364 -1.89535 0
M  V30 32306 H 3029.95 3.70582 -4.06139 0
M  V30 32307 H 3031.18 4.63224 -4.96588 0
M  V30 32308 H 3029.13 5.80608 -3.05336 0
M  V30 32309 H 3029.04 5.85391 -4.78386 0
M  V30 32310 H 3030.31 6.71315 -3.96177 0
M  V30 32311 N 3034.54 1.35531 0.804316 0
M  V30 32312 C 3035.49 1.28638 1.91627 0
M  V30 32313 C 3036.46 0.157891 1.65348 0
M  V30 32314 O 3037.64 0.341967 1.8771 0
M  V30 32315 C 3034.78 1.06656 3.28205 0
M  V30 32316 C 3033.89 2.28447 3.66655 0
M  V30 32317 C 3033.03 1.99596 4.92275 0
M  V30 32318 C 3032.07 3.17429 5.23359 0
M  V30 32319 N 3031.21 2.8834 6.4016 0
M  V30 32320 H 3036.05 2.23724 1.96854 0
M  V30 32321 H 3033.58 1.1121 0.962852 0
M  V30 32322 H 3035.54 0.919415 4.06943 0
M  V30 32323 H 3034.17 0.15231 3.2244 0
M  V30 32324 H 3033.22 2.54018 2.83159 0
M  V30 32325 H 3034.53 3.16427 3.85585 0
M  V30 32326 H 3033.69 1.81726 5.78844 0
M  V30 32327 H 3032.43 1.08905 4.75385 0
M  V30 32328 H 3031.43 3.35875 4.35279 0
M  V30 32329 H 3032.66 4.08926 5.42178 0
M  V30 32330 H 3030.6 2.00244 6.24691 0
M  V30 32331 H 3030.52 3.69854 6.59351 0
M  V30 32332 H 3031.79 2.74015 7.29751 0
M  V30 32333 N 3036.02 -1.02674 1.19565 0
M  V30 32334 C 3037.24 -1.80268 1.02559 0
M  V30 32335 C 3037.67 -1.83328 -0.421024 0
M  V30 32336 O 3037.03 -1.26086 -1.30277 0
M  V30 32337 C 3037.07 -3.23075 1.60171 0
M  V30 32338 O 3036.18 -4.0391 0.832475 0
M  V30 32339 H 3035.52 -0.556407 0.362363 0
M  V30 32340 H 3038.05 -1.29213 1.58635 0
M  V30 32341 H 3038.06 -3.73817 1.63477 0
M  V30 32342 H 3036.73 -3.20163 2.65459 0
M  V30 32343 H 3035.31 -3.62541 0.872832 0
M  V30 32344 N 3037.5 -0.999914 -1.21817 0
M  V30 32345 C 3038.72 -0.698128 -1.95297 0
M  V30 32346 C 3039.15 0.731952 -1.73275 0
M  V30 32347 O 3038.5 1.50132 -1.01637 0
M  V30 32348 C 3038.55 -1.0184 -3.4592 0
M  V30 32349 O 3037.66 -0.120874 -4.12223 0
M  V30 32350 H 3037 -0.260599 -0.610724 0
M  V30 32351 H 3039.53 -1.33879 -1.54718 0
M  V30 32352 H 3039.54 -0.963144 -3.96469 0
M  V30 32353 H 3038.21 -2.06044 -3.61274 0
M  V30 32354 H 3036.79 -0.232219 -3.72176 0
M  V30 32355 N 3038.97 1.37284 -0.773999 0
M  V30 32356 C 3040.2 2.03905 -0.350794 0
M  V30 32357 C 3040.62 1.58375 1.02776 0
M  V30 32358 O 3039.97 0.766039 1.65644 0
M  V30 32359 C 3040.02 3.59418 -0.387399 0
M  V30 32360 O 3039.75 4.03283 -1.71157 0
M  V30 32361 C 3041.25 4.43275 0.0471201 0
M  V30 32362 H 3038.47 0.654773 -0.146675 0
M  V30 32363 H 3041.01 1.75573 -1.04855 0
M  V30 32364 H 3039.17 3.86514 0.261797 0
M  V30 32365 H 3039.58 4.97813 -1.65175 0
M  V30 32366 H 3041.05 5.51992 -0.0296445 0
M  V30 32367 H 3041.53 4.25259 1.09778 0
M  V30 32368 H 3042.14 4.21409 -0.573974 0
M  V30 32369 N 3040.45 0.524724 1.48608 0
M  V30 32370 C 3041.38 -0.229796 2.32366 0
M  V30 32371 C 3042.36 -0.940104 1.41761 0
M  V30 32372 O 3043.55 -0.926906 1.70652 0
M  V30 32373 C 3040.68 -1.28038 3.22837 0
M  V30 32374 C 3039.63 -0.688529 4.22425 0
M  V30 32375 C 3038.96 -1.84137 5.01994 0
M  V30 32376 C 3040.26 0.336268 5.21216 0
M  V30 32377 H 3041.95 0.469391 2.95698 0
M  V30 32378 H 3039.5 0.227181 1.42197 0
M  V30 32379 H 3041.45 -1.81613 3.80256 0
M  V30 32380 H 3040.17 -2.00907 2.57495 0
M  V30 32381 H 3038.83 -0.174338 3.66185 0
M  V30 32382 H 3038.48 -2.55832 4.33081 0
M  V30 32383 H 3038.18 -1.45132 5.69395 0
M  V30 32384 H 3039.71 -2.38101 5.62263 0
M  V30 32385 H 3041.12 -0.112206 5.7319 0
M  V30 32386 H 3039.52 0.643429 5.96641 0
M  V30 32387 H 3040.59 1.2439 4.68674 0
M  V30 32388 N 3041.93 -1.55447 0.259613 0
M  V30 32389 C 3042.86 -2.19265 -0.667509 0
M  V30 32390 C 3043.87 -1.1727 -1.12923 0
M  V30 32391 O 3045.06 -1.44073 -1.05381 0
M  V30 32392 C 3042.16 -2.79224 -1.92061 0
M  V30 32393 C 3041.34 -4.06761 -1.60825 0
M  V30 32394 C 3040.4 -4.50915 -2.71223 0
M  V30 32395 O 3039.42 -5.17023 -2.38067 0
M  V30 32396 N 3040.62 -4.19759 -4.00977 0
M  V30 32397 H 3043.39 -2.99454 -0.121396 0
M  V30 32398 H 3040.95 -1.61702 0.0800804 0
M  V30 32399 H 3042.94 -3.05714 -2.65181 0
M  V30 32400 H 3041.51 -2.03118 -2.37617 0
M  V30 32401 H 3040.73 -3.87724 -0.711617 0
M  V30 32402 H 3042.02 -4.89886 -1.37437 0
M  V30 32403 H 3041.42 -3.66713 -4.30741 0
M  V30 32404 H 3039.97 -4.51057 -4.70522 0
M  V30 32405 N 3043.41 0.0133338 -1.57594 0
M  V30 32406 C 3044.34 1.03691 -2.04403 0
M  V30 32407 C 3045.35 1.31515 -0.959569 0
M  V30 32408 O 3046.54 1.28725 -1.23661 0
M  V30 32409 C 3043.64 2.37487 -2.41771 0
M  V30 32410 C 3042.81 2.28795 -3.72789 0
M  V30 32411 C 3041.87 3.45169 -3.97171 0
M  V30 32412 O 3040.9 3.23955 -4.68019 0
M  V30 32413 N 3042.1 4.67573 -3.44029 0
M  V30 32414 H 3044.87 0.637823 -2.92834 0
M  V30 32415 H 3042.43 0.200982 -1.60648 0
M  V30 32416 H 3044.42 3.14088 -2.55207 0
M  V30 32417 H 3042.99 2.69185 -1.58929 0
M  V30 32418 H 3042.21 1.3719 -3.69557 0
M  V30 32419 H 3043.5 2.20146 -4.58708 0
M  V30 32420 H 3042.9 4.87708 -2.86632 0
M  V30 32421 H 3041.45 5.41485 -3.62818 0
M  V30 32422 N 3044.89 1.54985 0.285878 0
M  V30 32423 C 3045.82 1.89986 1.35749 0
M  V30 32424 C 3046.8 0.760321 1.52162 0
M  V30 32425 O 3047.98 1.01736 1.65419 0
M  V30 32426 C 3045.11 2.16047 2.71921 0
M  V30 32427 C 3044.07 3.31883 2.70255 0
M  V30 32428 C 3043.39 3.43395 4.09858 0
M  V30 32429 C 3044.69 4.68609 2.30659 0
M  V30 32430 H 3046.39 2.7974 1.06704 0
M  V30 32431 H 3043.93 1.34596 0.51186 0
M  V30 32432 H 3045.88 2.39119 3.46987 0
M  V30 32433 H 3044.61 1.23079 3.02521 0
M  V30 32434 H 3043.27 3.08759 1.97645 0
M  V30 32435 H 3042.92 2.47917 4.3766 0
M  V30 32436 H 3042.62 4.21269 4.09641 0
M  V30 32437 H 3044.14 3.68745 4.86682 0
M  V30 32438 H 3045.55 4.9131 2.95444 0
M  V30 32439 H 3043.95 5.49305 2.41627 0
M  V30 32440 H 3045.02 4.68301 1.25785 0
M  V30 32441 N 3046.36 -0.549794 1.47699 0
M  V30 32442 C 3047.61 -1.30301 1.53963 0
M  V30 32443 C 3047.93 -1.94472 0.209765 0
M  V30 32444 O 3049.13 -2.71083 0.150465 0
M  V30 32445 C 3047.59 -2.36323 2.7144 0
M  V30 32446 C 3047.2 -1.78309 4.10986 0
M  V30 32447 C 3048.94 -3.12778 2.87002 0
M  V30 32448 C 3046.85 -2.82155 5.19752 0
M  V30 32449 H 3045.78 -0.489964 0.573106 0
M  V30 32450 H 3048.43 -0.583058 1.7399 0
M  V30 32451 H 3046.81 -3.11265 2.44806 0
M  V30 32452 H 3047.98 -1.09689 4.47554 0
M  V30 32453 H 3046.3 -1.14413 4.00373 0
M  V30 32454 H 3048.9 -3.90341 3.65429 0
M  V30 32455 H 3049.24 -3.67423 1.95719 0
M  V30 32456 H 3049.77 -2.44949 3.13441 0
M  V30 32457 H 3046.51 -2.32356 6.12936 0
M  V30 32458 H 3046.03 -3.49163 4.87694 0
M  V30 32459 H 3047.71 -3.45511 5.4702 0
M  V30 32460 N 3047.84 -1.35955 -0.797117 0
M  V30 32461 C 3049.07 -1.33055 -1.59094 0
M  V30 32462 C 3049.49 0.0874262 -1.87897 0
M  V30 32463 O 3048.85 1.0571 -1.47293 0
M  V30 32464 C 3048.9 -2.15205 -2.89342 0
M  V30 32465 O 3048 -1.53926 -3.82597 0
M  V30 32466 H 3047.34 -0.455759 -0.482887 0
M  V30 32467 H 3049.87 -1.79131 -0.988601 0
M  V30 32468 H 3049.88 -2.27505 -3.38682 0
M  V30 32469 H 3048.56 -3.18288 -2.67705 0
M  V30 32470 H 3047.14 -1.50522 -3.41171 0
M  V30 32471 N 3049.32 1.02038 -1.20108 0
M  V30 32472 C 3050.23 2.13965 -0.962089 0
M  V30 32473 C 3051.25 1.73812 0.0807748 0
M  V30 32474 O 3052.42 2.01122 -0.105809 0
M  V30 32475 C 3049.49 3.42881 -0.513169 0
M  V30 32476 C 3048.55 3.97298 -1.62643 0
M  V30 32477 C 3047.78 5.20061 -1.19884 0
M  V30 32478 O 3048 5.70362 -0.0659426 0
M  V30 32479 O 3046.94 5.67532 -2.00477 0
M  V30 32480 H 3050.76 2.36994 -1.89914 0
M  V30 32481 H 3048.35 1.12363 -0.984628 0
M  V30 32482 H 3050.23 4.20522 -0.271871 0
M  V30 32483 H 3048.91 3.21277 0.395345 0
M  V30 32484 H 3047.81 3.20953 -1.92197 0
M  V30 32485 H 3049.15 4.23283 -2.51181 0
M  V30 32486 N 3050.8 1.00636 1.21285 0
M  V30 32487 C 3052.03 0.708712 1.94383 0
M  V30 32488 C 3052.44 -0.728927 1.74161 0
M  V30 32489 O 3051.8 -1.49333 1.04909 0
M  V30 32490 C 3051.85 1.02199 3.46753 0
M  V30 32491 O 3051.57 2.40315 3.66306 0
M  V30 32492 C 3053.07 0.743944 4.37013 0
M  V30 32493 H 3050.29 0.261063 0.618132 0
M  V30 32494 H 3052.84 1.34477 1.54065 0
M  V30 32495 H 3050.99 0.431508 3.84989 0
M  V30 32496 H 3051.4 2.51283 4.60388 0
M  V30 32497 H 3052.88 1.01331 5.4262 0
M  V30 32498 H 3053.36 -0.322007 4.38018 0
M  V30 32499 H 3053.96 1.3161 4.04424 0
M  V30 32500 N 3052.28 -1.36872 0.781268 0
M  V30 32501 C 3053.21 -2.27884 0.120146 0
M  V30 32502 C 3054.19 -1.46812 -0.698936 0
M  V30 32503 O 3055.37 -1.76128 -0.671663 0
M  V30 32504 C 3052.5 -3.28227 -0.835746 0
M  V30 32505 C 3051.54 -4.26384 -0.0994778 0
M  V30 32506 S 3052.38 -5.21438 1.21912 0
M  V30 32507 C 3053.53 -6.2533 0.267013 0
M  V30 32508 H 3053.77 -2.83608 0.891846 0
M  V30 32509 H 3051.3 -1.4329 0.5751 0
M  V30 32510 H 3053.26 -3.86543 -1.38183 0
M  V30 32511 H 3051.92 -2.71431 -1.58063 0
M  V30 32512 H 3051.11 -4.97211 -0.824482 0
M  V30 32513 H 3050.71 -3.72106 0.375884 0
M  V30 32514 H 3053.01 -6.75205 -0.557131 0
M  V30 32515 H 3053.95 -7.01783 0.943727 0
M  V30 32516 H 3054.36 -5.64359 -0.126022 0
M  V30 32517 N 3053.75 -0.532597 -1.48328 0
M  V30 32518 C 3055 0.000547572 -2.028 0
M  V30 32519 C 3055.33 1.33686 -1.40861 0
M  V30 32520 O 3054.61 1.86405 -0.555294 0
M  V30 32521 C 3054.89 0.119783 -3.59901 0
M  V30 32522 C 3054.74 -1.24188 -4.32316 0
M  V30 32523 C 3056.06 0.845296 -4.31906 0
M  V30 32524 H 3053.18 -0.00127501 -0.736999 0
M  V30 32525 H 3055.82 -0.690133 -1.77023 0
M  V30 32526 H 3053.97 0.708025 -3.81994 0
M  V30 32527 H 3055.65 -1.87143 -4.21634 0
M  V30 32528 H 3053.89 -1.82308 -3.93632 0
M  V30 32529 H 3054.56 -1.11142 -5.40695 0
M  V30 32530 H 3057.04 0.346086 -4.14658 0
M  V30 32531 H 3055.91 0.897628 -5.41511 0
M  V30 32532 H 3056.17 1.89615 -3.99373 0
M  V30 32533 N 3055.23 1.55307 -0.267853 0
M  V30 32534 C 3056.65 1.59366 0.0864827 0
M  V30 32535 C 3056.85 1.28508 1.55203 0
M  V30 32536 O 3055.9 1.04245 2.29977 0
M  V30 32537 C 3057.22 2.99379 -0.281602 0
M  V30 32538 C 3058.77 3.12171 -0.22762 0
M  V30 32539 C 3059.24 4.54439 -0.570039 0
M  V30 32540 N 3060.73 4.60257 -0.521319 0
M  V30 32541 C 3061.47 5.68352 -0.759161 0
M  V30 32542 N 3060.96 6.84624 -1.06124 0
M  V30 32543 N 3062.76 5.57868 -0.688449 0
M  V30 32544 H 3054.91 1.73631 -1.22335 0
M  V30 32545 H 3057.17 0.809288 -0.493717 0
M  V30 32546 H 3056.88 3.26769 -1.30056 0
M  V30 32547 H 3056.75 3.7527 0.381126 0
M  V30 32548 H 3059.14 2.84549 0.782043 0
M  V30 32549 H 3059.22 2.38509 -0.924503 0
M  V30 32550 H 3058.86 4.82786 -1.57735 0
M  V30 32551 H 3058.79 5.2639 0.148554 0
M  V30 32552 H 3061.28 3.76728 -0.297426 0
M  V30 32553 H 3061.6 7.62956 -1.22958 0
M  V30 32554 H 3059.94 6.86257 -1.09893 0
M  V30 32555 H 3063.13 4.65909 -0.45235 0
M  V30 32556 H 3063.3 6.42035 -0.877194 0
M  V30 32557 N 3056.71 -0.00497598 1.57599 0
M  V30 32558 C 3057.96 -0.686279 1.91473 0
M  V30 32559 C 3058.31 -1.71656 0.869018 0
M  V30 32560 O 3057.6 -1.91228 -0.119406 0
M  V30 32561 C 3057.8 -1.37582 3.29857 0
M  V30 32562 C 3057.63 -0.413845 4.47792 0
M  V30 32563 C 3056.4 -0.02606 5.05293 0
M  V30 32564 C 3058.6 0.317854 5.13317 0
M  V30 32565 N 3056.58 0.934652 6.06743 0
M  V30 32566 C 3057.95 1.13341 6.09552 0
M  V30 32567 C 3060 0.382223 4.96431 0
M  V30 32568 C 3058.71 2.00747 6.90719 0
M  V30 32569 C 3060.73 1.24349 5.78179 0
M  V30 32570 C 3060.09 2.04691 6.74004 0
M  V30 32571 H 3056.19 -0.224482 0.749087 0
M  V30 32572 H 3058.78 0.0542026 1.94625 0
M  V30 32573 H 3056.95 -2.08663 3.27589 0
M  V30 32574 H 3058.68 -2.01143 3.51175 0
M  V30 32575 H 3055.44 -0.393379 4.71963 0
M  V30 32576 H 3055.86 1.41023 6.62149 0
M  V30 32577 H 3060.5 -0.224643 4.22203 0
M  V30 32578 H 3058.22 2.62503 7.64276 0
M  V30 32579 H 3061.81 1.29714 5.67156 0
M  V30 32580 H 3060.69 2.70257 7.36159 0
M  V30 32581 N 3058.19 -1.55135 -0.277654 0
M  V30 32582 C 3059.15 -1.86926 -1.32632 0
M  V30 32583 C 3060.15 -0.743532 -1.42577 0
M  V30 32584 O 3061.34 -1.01173 -1.41808 0
M  V30 32585 C 3058.47 -2.07039 -2.70828 0
M  V30 32586 H 3059.67 -2.80665 -1.05675 0
M  V30 32587 H 3057.22 -1.47555 -0.515491 0
M  V30 32588 H 3057.95 -1.15666 -3.02972 0
M  V30 32589 H 3057.74 -2.88997 -2.64996 0
M  V30 32590 H 3059.23 -2.32924 -3.46606 0
M  V30 32591 N 3059.67 0.541953 -1.47989 0
M  V30 32592 C 3060.6 1.66329 -1.57693 0
M  V30 32593 C 3061.61 1.56106 -0.462022 0
M  V30 32594 O 3062.8 1.62785 -0.732334 0
M  V30 32595 C 3059.9 3.04903 -1.47944 0
M  V30 32596 C 3059.07 3.40728 -2.74269 0
M  V30 32597 C 3058.13 4.5853 -2.58142 0
M  V30 32598 O 3057.16 4.62348 -3.31999 0
M  V30 32599 N 3058.36 5.55969 -1.66969 0
M  V30 32600 H 3061.13 1.58445 -2.54392 0
M  V30 32601 H 3058.69 0.728954 -1.44561 0
M  V30 32602 H 3060.68 3.81566 -1.34867 0
M  V30 32603 H 3059.25 3.0693 -0.59268 0
M  V30 32604 H 3058.47 2.53361 -3.01997 0
M  V30 32605 H 3059.76 3.61444 -3.581 0
M  V30 32606 H 3059.15 5.55653 -1.06144 0
M  V30 32607 H 3057.71 6.31898 -1.59838 0
M  V30 32608 N 3061.15 1.36376 0.789896 0
M  V30 32609 C 3062.06 1.32815 1.93384 0
M  V30 32610 C 3063.07 0.230407 1.72468 0
M  V30 32611 O 3064.25 0.462691 1.96013 0
M  V30 32612 C 3061.31 1.11626 3.28238 0
M  V30 32613 C 3060.37 2.30871 3.61935 0
M  V30 32614 C 3059.61 2.10684 4.90355 0
M  V30 32615 O 3059.83 1.08178 5.60048 0
M  V30 32616 O 3058.76 2.98449 5.22697 0
M  V30 32617 H 3062.59 2.29125 1.99338 0
M  V30 32618 H 3060.17 1.16918 0.93008 0
M  V30 32619 H 3062.06 1.01726 4.08937 0
M  V30 32620 H 3060.73 0.183788 3.23178 0
M  V30 32621 H 3059.64 2.4634 2.81544 0
M  V30 32622 H 3060.97 3.22624 3.71719 0
M  V30 32623 N 3062.62 -1.014 1.20647 0
M  V30 32624 C 3063.85 -1.7917 1.04465 0
M  V30 32625 C 3064.27 -1.83764 -0.401556 0
M  V30 32626 O 3063.63 -1.27461 -1.28932 0
M  V30 32627 C 3063.68 -3.21358 1.63589 0
M  V30 32628 O 3062.78 -4.03005 0.875268 0
M  V30 32629 H 3062.12 -0.552532 0.368245 0
M  V30 32630 H 3064.65 -1.27523 1.59997 0
M  V30 32631 H 3064.66 -3.72062 1.67433 0
M  V30 32632 H 3063.34 -3.17329 2.6884 0
M  V30 32633 H 3061.92 -3.61595 0.911235 0
M  V30 32634 N 3064.1 -1.01278 -1.2075 0
M  V30 32635 C 3065.35 -0.700958 -1.90301 0
M  V30 32636 C 3065.68 0.767111 -1.78407 0
M  V30 32637 O 3064.96 1.55691 -1.16578 0
M  V30 32638 C 3065.24 -1.13248 -3.41829 0
M  V30 32639 C 3065.09 -2.66058 -3.62675 0
M  V30 32640 C 3066.41 -0.700814 -4.34484 0
M  V30 32641 H 3063.53 -0.256119 -0.691066 0
M  V30 32642 H 3066.17 -1.25984 -1.42225 0
M  V30 32643 H 3064.32 -0.656969 -3.82905 0
M  V30 32644 H 3065.99 -3.21432 -3.30876 0
M  V30 32645 H 3064.24 -3.0721 -3.06276 0
M  V30 32646 H 3064.91 -2.91304 -4.68877 0
M  V30 32647 H 3067.38 -1.10955 -4.01034 0
M  V30 32648 H 3066.26 -1.03083 -5.39134 0
M  V30 32649 H 3066.52 0.397703 -4.40308 0
M  V30 32650 N 3065.58 1.36456 -0.788516 0
M  V30 32651 C 3066.83 1.98514 -0.357087 0
M  V30 32652 C 3067.14 1.63287 1.07688 0
M  V30 32653 O 3068.35 2.18573 1.61053 0
M  V30 32654 C 3066.8 3.55072 -0.587512 0
M  V30 32655 C 3066.41 3.99224 -2.03283 0
M  V30 32656 C 3068.16 4.23927 -0.220543 0
M  V30 32657 C 3066.06 5.48557 -2.20996 0
M  V30 32658 H 3064.99 0.742748 -0.129775 0
M  V30 32659 H 3067.64 1.55765 -0.970022 0
M  V30 32660 H 3066.03 3.95886 0.0951222 0
M  V30 32661 H 3067.2 3.69612 -2.75179 0
M  V30 32662 H 3065.51 3.43204 -2.35796 0
M  V30 32663 H 3068.11 5.33673 -0.331179 0
M  V30 32664 H 3068.45 4.07917 0.831234 0
M  V30 32665 H 3068.99 3.88473 -0.856378 0
M  V30 32666 H 3065.73 5.69513 -3.24553 0
M  V30 32667 H 3065.25 5.79798 -1.53604 0
M  V30 32668 H 3066.93 6.14768 -2.01667 0
M  V30 32669 N 3067.06 0.540456 1.48043 0
M  V30 32670 C 3067.97 -0.220122 2.33565 0
M  V30 32671 C 3068.98 -0.928634 1.47148 0
M  V30 32672 O 3070.16 -0.901263 1.80109 0
M  V30 32673 C 3067.22 -1.24715 3.23492 0
M  V30 32674 C 3066.29 -0.547863 4.2579 0
M  V30 32675 C 3065.52 -1.52596 5.1142 0
M  V30 32676 O 3065.74 -2.75947 4.99209 0
M  V30 32677 O 3064.68 -1.05961 5.925 0
M  V30 32678 H 3068.5 0.480951 2.99868 0
M  V30 32679 H 3066.09 0.301252 1.46331 0
M  V30 32680 H 3067.97 -1.8404 3.79087 0
M  V30 32681 H 3066.64 -1.93044 2.59838 0
M  V30 32682 H 3065.55 0.0861598 3.74001 0
M  V30 32683 H 3066.88 0.0936761 4.92111 0
M  V30 32684 N 3068.54 -1.55163 0.276085 0
M  V30 32685 C 3069.81 -1.91626 -0.392259 0
M  V30 32686 C 3070.19 -1.20046 -1.73644 0
M  V30 32687 O 3069.54 -0.327646 -2.26139 0
M  V30 32688 C 3069.75 -3.44928 -0.53158 0
M  V30 32689 C 3071.1 -4.16724 -0.814027 0
M  V30 32690 O 3072.12 -3.50827 -0.616351 0
M  V30 32691 O 3070.98 -5.33339 -1.19215 0
M  V30 32692 H 3068.08 -0.798582 -0.214931 0
M  V30 32693 H 3070.62 -1.66611 0.322309 0
M  V30 32694 H 3069.39 -3.891 0.41435 0
M  V30 32695 H 3069.02 -3.759 -1.29558 0
M  V30 32696 N 3070.01 -0.00338196 -1.576 0
M  V30 32697 C 3071.42 0.538977 -1.78751 0
M  V30 32698 C 3071.78 1.73761 -0.911127 0
M  V30 32699 O 3070.9 2.16097 -0.114514 0
M  V30 32700 C 3071.5 0.984554 -3.24179 0
M  V30 32701 C 3070.05 1.4722 -3.46415 0
M  V30 32702 C 3069.2 0.424956 -2.74024 0
M  V30 32703 H 3072.15 -0.229539 -1.57031 0
M  V30 32704 H 3072.17 1.85038 -3.32477 0
M  V30 32705 H 3071.69 0.111967 -3.87938 0
M  V30 32706 H 3069.79 2.36557 -2.87875 0
M  V30 32707 H 3069.9 1.49733 -4.55101 0
M  V30 32708 H 3068.26 0.887352 -2.38743 0
M  V30 32709 H 3069.05 -0.438722 -3.40485 0
M  V30 32710 N 3071.49 1.5528 0.269423 0
M  V30 32711 C 3072.4 1.91507 1.35507 0
M  V30 32712 C 3073.42 0.812739 1.53852 0
M  V30 32713 O 3074.59 1.11213 1.6791 0
M  V30 32714 C 3071.66 2.18272 2.69367 0
M  V30 32715 C 3070.72 3.41811 2.59737 0
M  V30 32716 C 3069.95 3.6729 3.87213 0
M  V30 32717 O 3070.18 2.95217 4.8806 0
M  V30 32718 O 3069.11 4.60824 3.87201 0
M  V30 32719 H 3072.94 2.83931 1.0778 0
M  V30 32720 H 3070.52 1.41872 0.468257 0
M  V30 32721 H 3072.4 2.36895 3.48509 0
M  V30 32722 H 3071.08 1.29029 2.96872 0
M  V30 32723 H 3069.98 3.28519 1.78958 0
M  V30 32724 H 3071.32 4.31284 2.37181 0
M  V30 32725 N 3072.97 -0.534097 1.48274 0
M  V30 32726 C 3073.9 -1.64836 1.65383 0
M  V30 32727 C 3074.88 -1.625 0.502769 0
M  V30 32728 O 3076.07 -1.79761 0.734831 0
M  V30 32729 C 3073.2 -3.03433 1.68954 0
M  V30 32730 C 3072.15 -3.20626 2.83519 0
M  V30 32731 C 3071.48 -4.60243 2.72177 0
M  V30 32732 C 3072.78 -3.0379 4.24864 0
M  V30 32733 H 3074.47 -1.50773 2.58666 0
M  V30 32734 H 3072.02 -0.723916 1.24481 0
M  V30 32735 H 3073.97 -3.81252 1.79512 0
M  V30 32736 H 3072.69 -3.18509 0.722471 0
M  V30 32737 H 3071.35 -2.45222 2.7251 0
M  V30 32738 H 3071 -4.72149 1.73448 0
M  V30 32739 H 3070.7 -4.72692 3.4905 0
M  V30 32740 H 3072.22 -5.40167 2.84696 0
M  V30 32741 H 3073.64 -3.71405 4.36728 0
M  V30 32742 H 3072.03 -3.27735 5.02703 0
M  V30 32743 H 3073.1 -2.00262 4.41614 0
M  V30 32744 N 3074.45 -1.36793 -0.782652 0
M  V30 32745 C 3075.69 -1.31593 -1.54309 0
M  V30 32746 C 3076.03 0.102662 -1.93928 0
M  V30 32747 O 3075.3 1.05758 -1.63235 0
M  V30 32748 C 3075.58 -2.24494 -2.81557 0
M  V30 32749 C 3075.44 -3.75082 -2.48261 0
M  V30 32750 C 3076.76 -2.16041 -3.83425 0
M  V30 32751 H 3073.88 -0.479345 -0.559819 0
M  V30 32752 H 3076.52 -1.67403 -0.898687 0
M  V30 32753 H 3074.67 -1.94086 -3.36546 0
M  V30 32754 H 3076.34 -4.16039 -1.99272 0
M  V30 32755 H 3074.58 -3.94185 -1.81109 0
M  V30 32756 H 3075.25 -4.35505 -3.39175 0
M  V30 32757 H 3077.73 -2.42821 -3.37901 0
M  V30 32758 H 3076.61 -2.83203 -4.70199 0
M  V30 32759 H 3076.87 -1.14984 -4.26885 0
M  V30 32760 N 3075.93 1.00759 -1.21184 0
M  V30 32761 C 3077.34 1.26845 -0.968629 0
M  V30 32762 C 3077.54 1.98498 0.346526 0
M  V30 32763 O 3076.6 2.28575 1.07283 0
M  V30 32764 C 3077.91 2.09464 -2.15744 0
M  V30 32765 C 3079.46 2.22699 -2.19941 0
M  V30 32766 C 3079.93 3.08698 -3.38333 0
M  V30 32767 N 3081.43 3.16287 -3.38404 0
M  V30 32768 C 3082.16 3.83078 -4.2666 0
M  V30 32769 N 3081.66 4.51921 -5.25109 0
M  V30 32770 N 3083.45 3.79693 -4.14475 0
M  V30 32771 H 3075.6 0.52678 -2.05764 0
M  V30 32772 H 3077.86 0.295174 -0.900875 0
M  V30 32773 H 3077.57 1.64161 -3.11037 0
M  V30 32774 H 3077.44 3.10212 -2.14589 0
M  V30 32775 H 3079.83 2.67222 -1.25205 0
M  V30 32776 H 3079.91 1.2143 -2.25141 0
M  V30 32777 H 3079.56 2.64879 -4.33361 0
M  V30 32778 H 3079.49 4.10076 -3.30372 0
M  V30 32779 H 3081.98 2.67277 -2.67154 0
M  V30 32780 H 3082.29 5.00582 -5.88759 0
M  V30 32781 H 3080.63 4.50716 -5.29037 0
M  V30 32782 H 3083.83 3.25063 -3.36826 0
M  V30 32783 H 3084 4.31469 -4.83465 0
M  V30 32784 N 3077.4 1.01917 1.20211 0
M  V30 32785 C 3078.37 0.596366 2.21305 0
M  V30 32786 C 3079.37 -0.334851 1.57275 0
M  V30 32787 O 3080.56 -0.123189 1.73764 0
M  V30 32788 C 3077.69 -0.128748 3.40657 0
M  V30 32789 H 3078.88 1.49073 2.60226 0
M  V30 32790 H 3076.44 0.80925 1.33719 0
M  V30 32791 H 3077.17 -1.0379 3.07243 0
M  V30 32792 H 3076.96 0.540252 3.8836 0
M  V30 32793 H 3078.45 -0.411819 4.15564 0
M  V30 32794 N 3078.88 -1.36036 0.795742 0
M  V30 32795 C 3079.82 -2.27743 0.144309 0
M  V30 32796 C 3080.79 -1.47545 -0.683325 0
M  V30 32797 O 3081.98 -1.7683 -0.652945 0
M  V30 32798 C 3079.1 -3.29095 -0.800886 0
M  V30 32799 C 3078.15 -4.26465 -0.0542485 0
M  V30 32800 S 3078.98 -5.20116 1.27435 0
M  V30 32801 C 3080.14 -6.25012 0.333323 0
M  V30 32802 H 3080.37 -2.82646 0.921876 0
M  V30 32803 H 3077.91 -1.42672 0.590266 0
M  V30 32804 H 3079.86 -3.87987 -1.34075 0
M  V30 32805 H 3078.52 -2.73092 -1.55175 0
M  V30 32806 H 3077.72 -4.98057 -0.7717 0
M  V30 32807 H 3077.32 -3.71687 0.41533 0
M  V30 32808 H 3079.61 -6.75758 -0.485485 0
M  V30 32809 H 3080.55 -7.00743 1.01811 0
M  V30 32810 H 3080.96 -5.64461 -0.0661567 0
M  V30 32811 N 3080.36 -0.5483 -1.47755 0
M  V30 32812 C 3081.61 -0.0209311 -2.02489 0
M  V30 32813 C 3081.94 1.32531 -1.42358 0
M  V30 32814 O 3081.19 1.87352 -0.565481 0
M  V30 32815 C 3081.49 0.131006 -3.5716 0
M  V30 32816 C 3081.16 -1.14321 -4.36167 0
M  V30 32817 C 3079.82 -1.49238 -4.57473 0
M  V30 32818 C 3082.17 -1.98798 -4.81797 0
M  V30 32819 C 3079.5 -2.68496 -5.21658 0
M  V30 32820 C 3081.85 -3.17252 -5.47297 0
M  V30 32821 C 3080.51 -3.52493 -5.66838 0
M  V30 32822 H 3079.78 -0.00765923 -0.74096 0
M  V30 32823 H 3082.43 -0.718018 -1.7753 0
M  V30 32824 H 3080.74 0.910996 -3.81062 0
M  V30 32825 H 3082.43 0.55426 -3.97151 0
M  V30 32826 H 3079.02 -0.861309 -4.19856 0
M  V30 32827 H 3083.21 -1.73131 -4.65123 0
M  V30 32828 H 3078.46 -2.9598 -5.34982 0
M  V30 32829 H 3082.64 -3.83004 -5.81619 0
M  V30 32830 H 3080.26 -4.44998 -6.16344 0
M  V30 32831 N 3081.84 1.55014 -0.28431 0
M  V30 32832 C 3083.08 2.00092 0.330317 0
M  V30 32833 C 3083.42 1.17247 1.54812 0
M  V30 32834 O 3082.69 0.244787 1.92953 0
M  V30 32835 C 3082.98 3.53163 0.70343 0
M  V30 32836 C 3082.83 4.46757 -0.522354 0
M  V30 32837 C 3084.15 4.12412 1.53638 0
M  V30 32838 H 3081.27 0.727397 0.118587 0
M  V30 32839 H 3083.91 1.85889 -0.393087 0
M  V30 32840 H 3082.06 3.65396 1.31977 0
M  V30 32841 H 3083.73 4.46454 -1.1609 0
M  V30 32842 H 3081.97 4.18038 -1.15872 0
M  V30 32843 H 3082.64 5.51572 -0.217392 0
M  V30 32844 H 3085.12 4.03511 1.01576 0
M  V30 32845 H 3084 5.19707 1.76624 0
M  V30 32846 H 3084.26 3.63224 2.52034 0
M  V30 32847 N 3083.32 0.0117398 1.57596 0
M  V30 32848 C 3084.25 -0.974562 2.1219 0
M  V30 32849 C 3085.23 -1.35079 1.03381 0
M  V30 32850 O 3086.41 -1.43247 1.31125 0
M  V30 32851 C 3083.54 -2.26264 2.63481 0
M  V30 32852 C 3082.5 -2.02768 3.76921 0
M  V30 32853 C 3081.82 -3.3769 4.14572 0
M  V30 32854 C 3083.12 -1.38081 5.03717 0
M  V30 32855 H 3084.82 -0.519955 2.94851 0
M  V30 32856 H 3082.36 -0.248661 1.41837 0
M  V30 32857 H 3084.32 -2.95627 3.00304 0
M  V30 32858 H 3083.04 -2.73859 1.77958 0
M  V30 32859 H 3081.7 -1.35827 3.4051 0
M  V30 32860 H 3081.35 -3.83011 3.26055 0
M  V30 32861 H 3081.05 -3.22781 4.91005 0
M  V30 32862 H 3082.57 -4.0835 4.53963 0
M  V30 32863 H 3083.98 -1.97418 5.38237 0
M  V30 32864 H 3082.38 -1.33623 5.85034 0
M  V30 32865 H 3083.45 -0.35149 4.83624 0
M  V30 32866 N 3084.79 -1.55421 -0.261185 0
M  V30 32867 C 3085.72 -1.92121 -1.32709 0
M  V30 32868 C 3086.71 -0.784433 -1.50933 0
M  V30 32869 O 3087.89 -1.04355 -1.63779 0
M  V30 32870 C 3085.02 -2.20346 -2.68449 0
M  V30 32871 C 3083.97 -3.36141 -2.64941 0
M  V30 32872 C 3083.3 -3.49872 -4.04343 0
M  V30 32873 C 3084.6 -4.72219 -2.23174 0
M  V30 32874 H 3086.29 -2.81402 -1.0224 0
M  V30 32875 H 3083.84 -1.35393 -0.490382 0
M  V30 32876 H 3085.79 -2.44609 -3.43139 0
M  V30 32877 H 3084.52 -1.27876 -3.00525 0
M  V30 32878 H 3083.18 -3.11864 -1.92708 0
M  V30 32879 H 3082.82 -2.54848 -4.33661 0
M  V30 32880 H 3082.52 -4.27733 -4.02887 0
M  V30 32881 H 3084.05 -3.76441 -4.80754 0
M  V30 32882 H 3085.46 -4.95948 -2.87591 0
M  V30 32883 H 3083.86 -5.5308 -2.32858 0
M  V30 32884 H 3084.93 -4.70243 -1.18318 0
M  V30 32885 N 3086.27 0.526227 -1.48555 0
M  V30 32886 C 3087.22 1.62671 -1.59756 0
M  V30 32887 C 3088.21 1.54348 -0.454479 0
M  V30 32888 O 3089.4 1.62305 -0.70612 0
M  V30 32889 C 3086.53 3.0138 -1.64393 0
M  V30 32890 C 3085.61 3.14793 -2.84194 0
M  V30 32891 N 3086 2.98168 -4.0857 0
M  V30 32892 C 3084.3 3.45854 -2.81605 0
M  V30 32893 C 3085 3.15097 -4.88967 0
M  V30 32894 N 3083.98 3.42841 -4.21854 0
M  V30 32895 H 3087.78 1.48434 -2.53662 0
M  V30 32896 H 3085.3 0.731776 -1.44979 0
M  V30 32897 H 3087.29 3.80436 -1.70512 0
M  V30 32898 H 3085.95 3.16706 -0.716062 0
M  V30 32899 H 3086.96 2.74855 -4.38948 0
M  V30 32900 H 3083.64 3.67514 -1.9809 0
M  V30 32901 H 3085.03 3.0695 -5.97688 0
M  V30 32902 N 3087.75 1.37206 0.775387 0
M  V30 32903 C 3089.17 1.17926 1.07543 0
M  V30 32904 C 3089.37 0.0129251 2.01496 0
M  V30 32905 O 3088.42 -0.648117 2.4404 0
M  V30 32906 C 3089.74 2.49632 1.67643 0
M  V30 32907 C 3091.28 2.56122 1.79918 0
M  V30 32908 C 3091.76 3.8795 2.43431 0
M  V30 32909 N 3093.25 3.89372 2.50886 0
M  V30 32910 C 3093.98 4.88122 3.00872 0
M  V30 32911 N 3093.48 5.97268 3.51059 0
M  V30 32912 N 3095.27 4.7553 2.99713 0
M  V30 32913 H 3087.42 2.11859 0.151486 0
M  V30 32914 H 3089.69 0.939068 0.129829 0
M  V30 32915 H 3089.39 3.35322 1.06077 0
M  V30 32916 H 3089.27 2.66458 2.66983 0
M  V30 32917 H 3091.65 1.70842 2.40618 0
M  V30 32918 H 3091.74 2.43183 0.793439 0
M  V30 32919 H 3091.38 4.73643 1.83372 0
M  V30 32920 H 3091.31 3.9819 3.44604 0
M  V30 32921 H 3093.8 3.10526 2.15364 0
M  V30 32922 H 3094.11 6.68574 3.87593 0
M  V30 32923 H 3092.46 6.00918 3.49174 0
M  V30 32924 H 3095.65 3.89384 2.59803 0
M  V30 32925 H 3095.82 5.52645 3.3836 0
M  V30 32926 N 3089.23 -1.00115 1.21716 0
M  V30 32927 C 3090.16 -2.09142 0.937664 0
M  V30 32928 C 3091.17 -1.626 -0.0806005 0
M  V30 32929 O 3092.36 -1.77848 0.15238 0
M  V30 32930 C 3089.46 -3.36682 0.387095 0
M  V30 32931 C 3088.64 -4.12292 1.46061 0
M  V30 32932 C 3087.69 -5.1812 0.918597 0
M  V30 32933 O 3086.72 -5.46164 1.60292 0
M  V30 32934 N 3087.92 -5.79898 -0.264206 0
M  V30 32935 H 3090.69 -2.33702 1.87626 0
M  V30 32936 H 3088.25 -1.16627 1.12293 0
M  V30 32937 H 3090.24 -4.04699 0.00999939 0
M  V30 32938 H 3088.81 -3.0925 -0.456413 0
M  V30 32939 H 3088.03 -3.39023 2.01139 0
M  V30 32940 H 3089.32 -4.59583 2.18314 0
M  V30 32941 H 3088.72 -5.59472 -0.837144 0
M  V30 32942 H 3087.27 -6.4919 -0.582772 0
M  V30 32943 N 3090.71 -1.02553 -1.19669 0
M  V30 32944 C 3091.94 -0.738474 -1.92951 0
M  V30 32945 C 3092.35 0.706124 -1.75529 0
M  V30 32946 O 3091.69 1.49154 -1.07232 0
M  V30 32947 C 3091.75 -1.00568 -3.45147 0
M  V30 32948 C 3091.41 -2.44116 -3.86337 0
M  V30 32949 C 3092.41 -3.42238 -3.91368 0
M  V30 32950 C 3090.1 -2.78427 -4.18071 0
M  V30 32951 C 3092.09 -4.72728 -4.2756 0
M  V30 32952 C 3089.78 -4.09128 -4.53936 0
M  V30 32953 C 3090.78 -5.06089 -4.58654 0
M  V30 32954 O 3090.46 -6.34449 -4.9369 0
M  V30 32955 H 3090.2 -0.269787 -0.619832 0
M  V30 32956 H 3092.75 -1.37209 -1.52849 0
M  V30 32957 H 3090.98 -0.314916 -3.85416 0
M  V30 32958 H 3092.67 -0.708812 -3.99663 0
M  V30 32959 H 3093.43 -3.17068 -3.67005 0
M  V30 32960 H 3089.31 -2.03638 -4.13585 0
M  V30 32961 H 3092.86 -5.48406 -4.31157 0
M  V30 32962 H 3088.75 -4.34073 -4.77756 0
M  V30 32963 H 3089.52 -6.38871 -5.1165 0
M  V30 32964 N 3092.19 1.35612 -0.802945 0
M  V30 32965 C 3093.46 1.93207 -0.305027 0
M  V30 32966 C 3093.84 1.7334 1.20485 0
M  V30 32967 O 3093.19 1.10026 2.00266 0
M  V30 32968 C 3093.4 3.41651 -0.712443 0
M  V30 32969 C 3094.75 4.18792 -0.699859 0
M  V30 32970 O 3095.77 3.50149 -0.653759 0
M  V30 32971 O 3094.63 5.41261 -0.754937 0
M  V30 32972 H 3091.73 0.823225 -0.0789272 0
M  V30 32973 H 3094.27 1.4471 -0.886398 0
M  V30 32974 H 3093.04 3.49825 -1.75322 0
M  V30 32975 H 3092.67 3.9746 -0.105683 0
M  V30 32976 N 3093.66 0.556128 1.47462 0
M  V30 32977 C 3094.91 0.0316067 2.02075 0
M  V30 32978 C 3095.23 -1.32256 1.43295 0
M  V30 32979 O 3094.5 -1.86235 0.607743 0
M  V30 32980 H 3093.08 0.00869473 0.746949 0
M  V30 32981 H 3095.74 0.725891 1.80878 0
M  V30 32982 H 3094.84 -0.057299 3.12047 0
M  V30 32983 N 3095.14 -1.54861 0.292527 0
M  V30 32984 C 3096.39 -1.99146 -0.319959 0
M  V30 32985 C 3096.7 -1.18451 -1.55656 0
M  V30 32986 O 3097.91 -1.52962 -2.24309 0
M  V30 32987 C 3096.37 -3.54509 -0.620603 0
M  V30 32988 C 3095.97 -4.44002 0.597176 0
M  V30 32989 C 3097.72 -4.0734 -1.19475 0
M  V30 32990 C 3095.62 -5.90783 0.270153 0
M  V30 32991 H 3094.55 -0.743845 -0.123328 0
M  V30 32992 H 3097.21 -1.79089 0.399907 0
M  V30 32993 H 3095.59 -3.70433 -1.39984 0
M  V30 32994 H 3096.76 -4.3985 1.37362 0
M  V30 32995 H 3095.08 -4.01898 1.08937 0
M  V30 32996 H 3097.67 -5.14565 -1.45353 0
M  V30 32997 H 3098.02 -3.57427 -2.13429 0
M  V30 32998 H 3098.55 -3.94925 -0.477415 0
M  V30 32999 H 3095.29 -6.44828 1.17803 0
M  V30 33000 H 3094.81 -5.97962 -0.469187 0
M  V30 33001 H 3096.49 -6.46867 -0.131357 0
M  V30 33002 N 3096.62 -0.0200973 -1.57587 0
M  V30 33003 C 3097.87 0.659187 -1.91047 0
M  V30 33004 C 3098.19 1.73184 -0.896227 0
M  V30 33005 O 3097.46 1.95797 0.0635608 0
M  V30 33006 H 3096.04 0.24647 -0.705168 0
M  V30 33007 H 3098.7 -0.065771 -1.94789 0
M  V30 33008 H 3097.8 1.11767 -2.91401 0
M  V30 33009 N 3098.1 1.55557 0.252939 0
M  V30 33010 C 3099.35 1.76756 0.979881 0
M  V30 33011 C 3099.67 0.582977 1.86082 0
M  V30 33012 O 3098.94 -0.401463 1.91742 0
M  V30 33013 H 3097.52 0.65187 0.364793 0
M  V30 33014 H 3100.18 1.92988 0.272339 0
M  V30 33015 H 3099.27 2.6766 1.60513 0
M  V30 33016 N 3099.58 -0.518341 1.48832 0
M  V30 33017 C 3100.51 -1.63072 1.67122 0
M  V30 33018 C 3101.49 -1.61958 0.519976 0
M  V30 33019 O 3102.67 -1.78971 0.753855 0
M  V30 33020 C 3099.8 -3.01624 1.72163 0
M  V30 33021 C 3098.76 -3.17601 2.86904 0
M  V30 33022 C 3098.08 -4.5733 2.77043 0
M  V30 33023 C 3099.38 -2.99266 4.28062 0
M  V30 33024 H 3101.08 -1.48021 2.6025 0
M  V30 33025 H 3098.62 -0.710672 1.25242 0
M  V30 33026 H 3100.57 -3.79327 1.83545 0
M  V30 33027 H 3099.3 -3.17725 0.756213 0
M  V30 33028 H 3097.96 -2.42318 2.75095 0
M  V30 33029 H 3097.61 -4.70283 1.78446 0
M  V30 33030 H 3097.31 -4.68963 3.54044 0
M  V30 33031 H 3098.83 -5.37117 2.9041 0
M  V30 33032 H 3100.24 -3.66752 4.40643 0
M  V30 33033 H 3098.64 -3.22384 5.06151 0
M  V30 33034 H 3099.71 -1.95567 4.43714 0
M  V30 33035 N 3101.05 -1.37615 -0.7681 0
M  V30 33036 C 3102.3 -1.33222 -1.52904 0
M  V30 33037 C 3102.63 0.0820876 -1.94026 0
M  V30 33038 O 3101.91 1.0402 -1.64347 0
M  V30 33039 C 3102.19 -2.27468 -2.7916 0
M  V30 33040 C 3102.04 -3.77694 -2.44269 0
M  V30 33041 C 3103.36 -2.20095 -3.81112 0
M  V30 33042 H 3100.48 -0.485256 -0.554703 0
M  V30 33043 H 3103.12 -1.68346 -0.880882 0
M  V30 33044 H 3101.27 -1.97645 -3.34468 0
M  V30 33045 H 3102.95 -4.18129 -1.94848 0
M  V30 33046 H 3101.19 -3.96084 -1.76918 0
M  V30 33047 H 3101.86 -4.39078 -3.34537 0
M  V30 33048 H 3104.34 -2.46391 -3.35307 0
M  V30 33049 H 3103.21 -2.88174 -4.67169 0
M  V30 33050 H 3103.47 -1.19505 -4.25642 0
M  V30 33051 N 3102.53 0.994677 -1.22245 0
M  V30 33052 C 3103.95 1.25811 -0.982028 0
M  V30 33053 C 3104.15 1.98854 0.325453 0
M  V30 33054 O 3103.2 2.297 1.04853 0
M  V30 33055 C 3104.52 2.07164 -2.17954 0
M  V30 33056 C 3106.06 2.20354 -2.22291 0
M  V30 33057 C 3106.54 3.05092 -3.41588 0
M  V30 33058 N 3108.03 3.1268 -3.41739 0
M  V30 33059 C 3108.77 3.78532 -4.30699 0
M  V30 33060 N 3108.26 4.46326 -5.29873 0
M  V30 33061 N 3110.05 3.75275 -4.18479 0
M  V30 33062 H 3102.21 0.504926 -2.06311 0
M  V30 33063 H 3104.47 0.285602 -0.903955 0
M  V30 33064 H 3104.17 1.60853 -3.12761 0
M  V30 33065 H 3104.05 3.07918 -2.17867 0
M  V30 33066 H 3106.44 2.65879 -1.28032 0
M  V30 33067 H 3106.52 1.19035 -2.26416 0
M  V30 33068 H 3106.16 2.60268 -4.36146 0
M  V30 33069 H 3106.09 4.06549 -3.34702 0
M  V30 33070 H 3108.58 2.64429 -2.69974 0
M  V30 33071 H 3108.89 4.94309 -5.94035 0
M  V30 33072 H 3107.24 4.4508 -5.33787 0
M  V30 33073 H 3110.43 3.21472 -3.40255 0
M  V30 33074 H 3110.6 4.26317 -4.88014 0
M  V30 33075 N 3104.01 1.03186 1.19123 0
M  V30 33076 C 3104.97 0.619805 2.2066 0
M  V30 33077 C 3105.97 -0.318151 1.57621 0
M  V30 33078 O 3107.16 -0.104752 1.73885 0
M  V30 33079 C 3104.29 -0.0926097 3.40774 0
M  V30 33080 H 3105.49 1.51824 2.5863 0
M  V30 33081 H 3103.04 0.823387 1.32853 0
M  V30 33082 H 3103.78 -1.00526 3.08326 0
M  V30 33083 H 3103.56 0.581412 3.87765 0
M  V30 33084 H 3105.05 -0.367719 4.15978 0
M  V30 33085 N 3105.49 -1.35184 0.810125 0
M  V30 33086 C 3106.42 -2.32289 0.237494 0
M  V30 33087 C 3107.4 -1.57641 -0.639005 0
M  V30 33088 O 3108.58 -1.85691 -0.568542 0
M  V30 33089 C 3105.71 -3.41867 -0.611903 0
M  V30 33090 C 3104.67 -4.27676 0.166393 0
M  V30 33091 C 3103.99 -5.28607 -0.804931 0
M  V30 33092 C 3105.29 -5.04083 1.36738 0
M  V30 33093 H 3106.99 -2.8043 1.04879 0
M  V30 33094 H 3104.53 -1.34826 0.505774 0
M  V30 33095 H 3106.49 -4.08804 -1.0226 0
M  V30 33096 H 3105.21 -2.92344 -1.45612 0
M  V30 33097 H 3103.87 -3.62324 0.558302 0
M  V30 33098 H 3103.52 -4.7535 -1.64474 0
M  V30 33099 H 3103.22 -5.86891 -0.288474 0
M  V30 33100 H 3104.74 -5.98415 -1.21375 0
M  V30 33101 H 3106.16 -5.63946 1.03138 0
M  V30 33102 H 3104.55 -5.71881 1.81858 0
M  V30 33103 H 3105.62 -4.3452 2.15221 0
M  V30 33104 N 3106.97 -0.56394 -1.47165 0
M  V30 33105 C 3108.38 -0.13234 -1.8623 0
M  V30 33106 C 3108.73 1.29969 -1.46978 0
M  V30 33107 O 3107.85 1.97879 -0.875946 0
M  V30 33108 C 3108.45 -0.233394 -3.37995 0
M  V30 33109 C 3107.01 0.143212 -3.76127 0
M  V30 33110 C 3106.15 -0.577905 -2.71211 0
M  V30 33111 H 3109.11 -0.773273 -1.38586 0
M  V30 33112 H 3109.13 0.546243 -3.76559 0
M  V30 33113 H 3108.64 -1.27574 -3.66533 0
M  V30 33114 H 3106.74 1.18641 -3.53207 0
M  V30 33115 H 3106.85 -0.220036 -4.78594 0
M  V30 33116 H 3105.22 -0.0202308 -2.54692 0
M  V30 33117 H 3106 -1.62154 -3.0259 0
M  V30 33118 N 3108.44 1.54704 -0.300735 0
M  V30 33119 C 3109.39 2.2351 0.575481 0
M  V30 33120 C 3110.36 1.2176 1.12977 0
M  V30 33121 O 3111.55 1.50379 1.17434 0
M  V30 33122 C 3108.69 2.97929 1.74162 0
M  V30 33123 C 3107.8 4.14452 1.21875 0
M  V30 33124 C 3106.93 4.76454 2.34873 0
M  V30 33125 C 3105.97 5.85122 1.79718 0
M  V30 33126 N 3105.11 6.4108 2.86289 0
M  V30 33127 H 3109.95 2.97995 -0.0178781 0
M  V30 33128 H 3107.49 1.47086 -0.0205924 0
M  V30 33129 H 3109.45 3.39307 2.42748 0
M  V30 33130 H 3108.08 2.25821 2.30661 0
M  V30 33131 H 3107.13 3.78017 0.42516 0
M  V30 33132 H 3108.44 4.92743 0.774979 0
M  V30 33133 H 3107.59 5.20683 3.11406 0
M  V30 33134 H 3106.33 3.97494 2.82577 0
M  V30 33135 H 3105.34 5.40317 1.01674 0
M  V30 33136 H 3106.56 6.65965 1.32919 0
M  V30 33137 H 3104.51 5.65004 3.33327 0
M  V30 33138 H 3104.43 7.14716 2.46407 0
M  V30 33139 H 3105.69 6.89967 3.6272 0
M  V30 33140 N 3109.92 0.0284543 1.57574 0
M  V30 33141 C 3111.15 -0.660541 1.96073 0
M  V30 33142 C 3111.57 -1.65701 0.90491 0
M  V30 33143 O 3110.92 -1.82148 -0.113347 0
M  V30 33144 C 3110.97 -1.3675 3.34636 0
M  V30 33145 O 3110.69 -0.410965 4.36168 0
M  V30 33146 C 3112.2 -2.14838 3.87762 0
M  V30 33147 H 3109.42 -0.182172 0.645797 0
M  V30 33148 H 3111.96 0.0880217 2.0431 0
M  V30 33149 H 3110.11 -2.06747 3.27619 0
M  V30 33150 H 3110.53 -0.912909 5.16494 0
M  V30 33151 H 3112 -2.59758 4.87062 0
M  V30 33152 H 3112.48 -2.98714 3.21973 0
M  V30 33153 H 3113.09 -1.498 3.98045 0
M  V30 33154 N 3111.4 -1.55689 -0.244686 0
M  V30 33155 C 3112.63 -1.81419 -0.988476 0
M  V30 33156 C 3113.04 -0.602175 -1.79361 0
M  V30 33157 O 3112.38 0.438607 -1.78387 0
M  V30 33158 C 3112.44 -3.00533 -1.97282 0
M  V30 33159 C 3112.11 -4.36469 -1.3544 0
M  V30 33160 C 3113.1 -5.14377 -0.755784 0
M  V30 33161 C 3110.79 -4.83168 -1.3731 0
M  V30 33162 C 3112.78 -6.37134 -0.184106 0
M  V30 33163 C 3110.47 -6.05873 -0.797574 0
M  V30 33164 C 3111.47 -6.82695 -0.204104 0
M  V30 33165 O 3111.16 -8.03082 0.362533 0
M  V30 33166 H 3110.89 -0.607554 -0.296401 0
M  V30 33167 H 3113.44 -2.03589 -0.272149 0
M  V30 33168 H 3111.67 -2.74124 -2.72751 0
M  V30 33169 H 3113.36 -3.13336 -2.58022 0
M  V30 33170 H 3114.13 -4.79416 -0.733827 0
M  V30 33171 H 3110.01 -4.23363 -1.82442 0
M  V30 33172 H 3113.55 -6.97039 0.279747 0
M  V30 33173 H 3109.45 -6.40311 -0.816866 0
M  V30 33174 H 3110.22 -8.18104 0.254611 0
M  V30 33175 N 3112.88 0.510441 -1.49105 0
M  V30 33176 C 3114.11 1.28941 -1.61808 0
M  V30 33177 C 3114.52 1.86624 -0.285806 0
M  V30 33178 O 3113.88 1.67372 0.727521 0
M  V30 33179 C 3113.93 2.4264 -2.6797 0
M  V30 33180 O 3113.65 1.8733 -3.96029 0
M  V30 33181 C 3115.15 3.34161 -2.91292 0
M  V30 33182 H 3112.37 0.391419 -0.545006 0
M  V30 33183 H 3114.92 0.613771 -1.95072 0
M  V30 33184 H 3113.07 3.06051 -2.37511 0
M  V30 33185 H 3113.48 2.61901 -4.54431 0
M  V30 33186 H 3114.96 4.10243 -3.6933 0
M  V30 33187 H 3115.44 3.90584 -2.00849 0
M  V30 33188 H 3116.04 2.76525 -3.23132 0
M  V30 33189 N 3114.36 1.38021 0.760791 0
M  V30 33190 C 3115.61 1.33153 1.51503 0
M  V30 33191 C 3115.92 -0.078178 1.95444 0
M  V30 33192 O 3117.12 -0.249371 2.70352 0
M  V30 33193 C 3115.58 2.33781 2.73632 0
M  V30 33194 C 3115.19 3.80336 2.36746 0
M  V30 33195 C 3116.93 2.37943 3.51544 0
M  V30 33196 C 3114.84 4.72667 3.55443 0
M  V30 33197 H 3113.77 0.494917 0.568835 0
M  V30 33198 H 3116.42 1.63538 0.832314 0
M  V30 33199 H 3114.8 1.96428 3.43849 0
M  V30 33200 H 3115.98 4.26587 1.74242 0
M  V30 33201 H 3114.29 3.79223 1.71984 0
M  V30 33202 H 3116.89 3.04126 4.39785 0
M  V30 33203 H 3117.23 1.39624 3.92187 0
M  V30 33204 H 3117.76 2.74059 2.88334 0
M  V30 33205 H 3114.5 5.72156 3.19872 0
M  V30 33206 H 3114.02 4.31114 4.17014 0
M  V30 33207 H 3115.7 4.90333 4.22117 0
M  V30 33208 N 3115.83 -0.98818 1.22771 0
M  V30 33209 C 3116.78 -2.1004 0.999308 0
M  V30 33210 C 3117.78 -1.69297 -0.0591469 0
M  V30 33211 O 3118.98 -1.79756 0.0936969 0
M  V30 33212 H 3115.36 -0.686926 0.306002 0
M  V30 33213 H 3117.33 -2.26475 1.94298 0
M  V30 33214 C 3116.08 -3.42505 0.59879 0
M  V30 33215 H 3115.4 -3.74301 1.40494 0
M  V30 33216 H 3116.84 -4.21292 0.478427 0
M  V30 33217 C 3115.3 -3.29713 -0.692158 0
M  V30 33218 O 3115.83 -3.61898 -1.74336 0
M  V30 33219 N 3114.04 -2.82886 -0.665113 0
M  V30 33220 H 3113.58 -2.56894 0.190649 0
M  V30 33221 H 3113.54 -2.74709 -1.52913 0
M  V30 33222 N 3117.31 -1.03816 -1.18575 0
M  V30 33223 C 3118.56 -0.738607 -1.8812 0
M  V30 33224 C 3118.88 0.735712 -1.80589 0
M  V30 33225 O 3118.15 1.53071 -1.22254 0
M  V30 33226 H 3116.73 -0.27022 -0.696412 0
M  V30 33227 H 3119.39 -1.31438 -1.4391 0
M  V30 33228 H 3118.49 -1.04121 -2.9422 0
M  V30 33229 N 3118.79 1.34753 -0.817283 0
M  V30 33230 C 3120.04 1.9875 -0.403279 0
M  V30 33231 C 3120.37 1.6466 1.0296 0
M  V30 33232 O 3119.64 0.915344 1.71615 0
M  V30 33233 C 3119.93 3.55079 -0.59925 0
M  V30 33234 C 3119.78 3.98931 -2.07784 0
M  V30 33235 C 3121.1 4.40089 -0.0316429 0
M  V30 33236 H 3118.22 0.721987 -0.148001 0
M  V30 33237 H 3120.86 1.59736 -1.0288 0
M  V30 33238 H 3119.01 3.88443 -0.0667799 0
M  V30 33239 H 3120.68 3.75927 -2.67352 0
M  V30 33240 H 3118.93 3.49448 -2.57037 0
M  V30 33241 H 3119.6 5.07737 -2.1658 0
M  V30 33242 H 3122.07 4.13246 -0.486512 0
M  V30 33243 H 3120.95 5.48541 -0.198604 0
M  V30 33244 H 3121.21 4.29132 1.06295 0
M  V30 33245 N 3120.27 0.571737 1.46864 0
M  V30 33246 C 3121.49 0.0565019 2.07323 0
M  V30 33247 C 3121.92 -1.23429 1.4194 0
M  V30 33248 O 3121.28 -1.74287 0.499364 0
M  V30 33249 C 3121.33 -0.107276 3.6044 0
M  V30 33250 O 3120.43 -1.16643 3.95561 0
M  V30 33251 H 3119.77 0.0578581 0.661474 0
M  V30 33252 H 3122.3 0.791558 1.88668 0
M  V30 33253 H 3122.31 -0.316915 4.06767 0
M  V30 33254 H 3120.99 0.83542 4.07423 0
M  V30 33255 H 3119.56 -0.936125 3.60959 0
M  V30 33256 N 3121.75 -1.54542 0.308935 0
M  V30 33257 C 3122.99 -2.00592 -0.298442 0
M  V30 33258 C 3123.33 -1.19695 -1.52927 0
M  V30 33259 O 3122.6 -0.275453 -1.9254 0
M  V30 33260 C 3122.88 -3.54237 -0.647156 0
M  V30 33261 C 3122.74 -4.45869 0.593363 0
M  V30 33262 C 3124.06 -4.14804 -1.47057 0
M  V30 33263 H 3121.18 -0.729191 -0.106999 0
M  V30 33264 H 3123.82 -1.8524 0.42261 0
M  V30 33265 H 3121.97 -3.6745 -1.26147 0
M  V30 33266 H 3123.64 -4.4455 1.23178 0
M  V30 33267 H 3121.88 -4.16142 1.22508 0
M  V30 33268 H 3122.55 -5.51156 0.305115 0
M  V30 33269 H 3125.03 -4.05076 -0.951439 0
M  V30 33270 H 3123.91 -5.22451 -1.68334 0
M  V30 33271 H 3124.17 -3.67187 -2.46223 0
M  V30 33272 N 3123.23 -0.0368104 -1.57557 0
M  V30 33273 C 3124.14 0.957979 -2.14149 0
M  V30 33274 C 3125.15 1.35171 -1.09566 0
M  V30 33275 O 3126.33 1.43156 -1.41663 0
M  V30 33276 C 3123.39 2.21926 -2.66364 0
M  V30 33277 C 3122.45 1.88523 -3.85691 0
M  V30 33278 C 3121.69 3.08638 -4.35406 0
M  V30 33279 O 3121.91 4.21547 -3.84258 0
M  V30 33280 O 3120.84 2.90488 -5.27163 0
M  V30 33281 H 3124.67 0.506744 -2.99442 0
M  V30 33282 H 3122.25 0.184249 -1.4826 0
M  V30 33283 H 3124.14 2.95955 -2.99981 0
M  V30 33284 H 3122.81 2.66215 -1.8415 0
M  V30 33285 H 3121.72 1.11855 -3.56986 0
M  V30 33286 H 3123.05 1.49044 -4.69091 0
M  V30 33287 N 3124.7 1.55817 0.236426 0
M  V30 33288 C 3125.98 1.68905 0.986434 0
M  V30 33289 C 3126.36 0.579758 2.02983 0
M  V30 33290 O 3125.71 -0.415349 2.24693 0
M  V30 33291 C 3125.92 3.09628 1.61032 0
M  V30 33292 C 3127.27 3.68564 2.10822 0
M  V30 33293 O 3128.29 3.12495 1.70954 0
M  V30 33294 O 3127.15 4.66878 2.84056 0
M  V30 33295 H 3124.24 0.687379 0.459825 0
M  V30 33296 H 3126.79 1.68143 0.229383 0
M  V30 33297 H 3125.56 3.81819 0.856165 0
M  V30 33298 H 3125.18 3.14446 2.4333 0
M  V30 33299 N 3126.18 -0.502526 1.49373 0
M  V30 33300 C 3127.41 -1.28081 1.6249 0
M  V30 33301 C 3127.82 -1.8647 0.295699 0
M  V30 33302 O 3127.18 -1.67755 -0.718635 0
M  V30 33303 C 3127.23 -2.41216 2.69253 0
M  V30 33304 O 3126.95 -1.85227 3.97017 0
M  V30 33305 C 3128.45 -3.32612 2.9306 0
M  V30 33306 H 3125.67 -0.388524 0.547074 0
M  V30 33307 H 3128.22 -0.603417 1.95395 0
M  V30 33308 H 3126.37 -3.04787 2.3913 0
M  V30 33309 H 3126.79 -2.59488 4.55814 0
M  V30 33310 H 3128.26 -4.08279 3.715 0
M  V30 33311 H 3128.74 -3.89514 2.02918 0
M  V30 33312 H 3129.34 -2.74807 3.24594 0
M  V30 33313 N 3127.66 -1.38422 -0.75346 0
M  V30 33314 C 3128.91 -1.33954 -1.50795 0
M  V30 33315 C 3129.22 0.0678121 -1.95482 0
M  V30 33316 O 3130.43 0.23503 -2.70481 0
M  V30 33317 C 3128.88 -2.35229 -2.72388 0
M  V30 33318 C 3128.49 -3.81586 -2.34726 0
M  V30 33319 C 3130.24 -2.39804 -3.50277 0
M  V30 33320 C 3128.14 -4.74546 -3.52931 0
M  V30 33321 H 3127.07 -0.497926 -0.566203 0
M  V30 33322 H 3129.72 -1.63977 -0.82363 0
M  V30 33323 H 3128.11 -1.98249 -3.42802 0
M  V30 33324 H 3129.28 -4.27505 -1.71977 0
M  V30 33325 H 3127.59 -3.8013 -1.69971 0
M  V30 33326 H 3130.19 -3.06454 -4.38166 0
M  V30 33327 H 3130.53 -1.41701 -3.91441 0
M  V30 33328 H 3131.07 -2.75584 -2.86877 0
M  V30 33329 H 3127.81 -5.73844 -3.16833 0
M  V30 33330 H 3127.33 -4.33319 -4.14722 0
M  V30 33331 H 3129.01 -4.92565 -4.1951 0
M  V30 33332 N 3129.14 0.981655 -1.23294 0
M  V30 33333 C 3130.09 2.09507 -1.01043 0
M  V30 33334 C 3131.08 1.69326 0.0501679 0
M  V30 33335 O 3132.29 1.79704 -0.103228 0
M  V30 33336 H 3128.66 0.685293 -0.309641 0
M  V30 33337 H 3130.63 2.25441 -1.95497 0
M  V30 33338 C 3129.38 3.42183 -0.616945 0
M  V30 33339 H 3128.7 3.73551 -1.42477 0
M  V30 33340 H 3130.14 4.21033 -0.500762 0
M  V30 33341 C 3128.6 3.30076 0.674663 0
M  V30 33342 O 3129.13 3.62817 1.72414 0
M  V30 33343 N 3127.34 2.83235 0.650102 0
M  V30 33344 H 3126.89 2.56789 -0.20427 0
M  V30 33345 H 3126.84 2.75516 1.51454 0
M  V30 33346 N 3130.62 1.04444 1.18022 0
M  V30 33347 C 3131.55 0.659722 2.23986 0
M  V30 33348 C 3132.53 -0.338875 1.6669 0
M  V30 33349 O 3133.71 -0.218136 1.92971 0
M  V30 33350 C 3130.84 0.0258283 3.4729 0
M  V30 33351 C 3129.8 0.948373 4.17361 0
M  V30 33352 C 3129.12 0.178754 5.34401 0
M  V30 33353 C 3130.42 2.26918 4.70431 0
M  V30 33354 H 3132.12 1.54558 2.56422 0
M  V30 33355 H 3129.66 0.744596 1.23255 0
M  V30 33356 H 3131.61 -0.255057 4.20627 0
M  V30 33357 H 3130.34 -0.894926 3.141 0
M  V30 33358 H 3129 1.2137 3.45926 0
M  V30 33359 H 3128.65 -0.744526 4.97459 0
M  V30 33360 H 3128.35 0.793397 5.82219 0
M  V30 33361 H 3129.87 -0.0950242 6.10526 0
M  V30 33362 H 3131.28 2.04873 5.35444 0
M  V30 33363 H 3129.68 2.83712 5.28798 0
M  V30 33364 H 3130.75 2.91303 3.87648 0
M  V30 33365 N 3132.09 -1.34317 0.824418 0
M  V30 33366 C 3133.02 -2.32024 0.262118 0
M  V30 33367 C 3134 -1.5831 -0.622249 0
M  V30 33368 O 3135.19 -1.86284 -0.548815 0
M  V30 33369 C 3132.32 -3.42497 -0.575609 0
M  V30 33370 C 3131.27 -4.27476 0.211745 0
M  V30 33371 C 3130.6 -5.29431 -0.74882 0
M  V30 33372 C 3131.9 -5.02605 1.42077 0
M  V30 33373 H 3133.59 -2.79302 1.07847 0
M  V30 33374 H 3131.14 -1.34282 0.520046 0
M  V30 33375 H 3133.09 -4.09866 -0.979179 0
M  V30 33376 H 3131.82 -2.93872 -1.42503 0
M  V30 33377 H 3130.48 -3.61711 0.5967 0
M  V30 33378 H 3130.12 -4.77067 -1.59423 0
M  V30 33379 H 3129.82 -5.87164 -0.22621 0
M  V30 33380 H 3131.35 -5.99669 -1.15021 0
M  V30 33381 H 3132.76 -5.62821 1.09113 0
M  V30 33382 H 3131.16 -5.6992 1.87913 0
M  V30 33383 H 3132.23 -4.32213 2.19818 0
M  V30 33384 N 3133.57 -0.579517 -1.46558 0
M  V30 33385 C 3134.53 0.145331 -2.28739 0
M  V30 33386 C 3135.53 0.82183 -1.38212 0
M  V30 33387 O 3136.72 0.674274 -1.60621 0
M  V30 33388 C 3133.86 1.21509 -3.1851 0
M  V30 33389 H 3135.05 -0.576838 -2.943 0
M  V30 33390 H 3132.6 -0.337354 -1.52616 0
M  V30 33391 H 3133.34 1.96894 -2.57688 0
M  V30 33392 H 3133.12 0.734548 -3.85158 0
M  V30 33393 H 3134.61 1.72356 -3.80372 0
M  V30 33394 N 3135.05 1.54376 -0.317127 0
M  V30 33395 C 3136.28 2.0533 0.292275 0
M  V30 33396 C 3136.7 1.1921 1.45501 0
M  V30 33397 O 3136.06 0.199753 1.80196 0
M  V30 33398 C 3136.11 3.53527 0.710725 0
M  V30 33399 O 3135.21 3.70371 1.8138 0
M  V30 33400 H 3134.55 0.661802 0.053986 0
M  V30 33401 H 3137.08 1.99277 -0.463664 0
M  V30 33402 H 3137.09 3.95678 0.995147 0
M  V30 33403 H 3135.77 4.15665 -0.139741 0
M  V30 33404 H 3134.34 3.40126 1.52869 0
M  V30 33405 N 3136.53 0.0451655 1.57535 0
M  V30 33406 C 3137.46 -0.929334 2.14209 0
M  V30 33407 C 3138.44 -1.32856 1.06223 0
M  V30 33408 O 3139.62 -1.40434 1.34134 0
M  V30 33409 C 3136.75 -2.20624 2.68221 0
M  V30 33410 C 3135.71 -1.94727 3.81137 0
M  V30 33411 C 3135.03 -3.2882 4.21641 0
M  V30 33412 C 3136.33 -1.27365 5.06533 0
M  V30 33413 H 3138.03 -0.457296 2.95887 0
M  V30 33414 H 3135.57 -0.218519 1.42332 0
M  V30 33415 H 3137.53 -2.89191 3.06507 0
M  V30 33416 H 3136.25 -2.70022 1.83727 0
M  V30 33417 H 3134.91 -1.28573 3.43314 0
M  V30 33418 H 3134.56 -3.76008 3.34106 0
M  V30 33419 H 3134.26 -3.12293 4.97742 0
M  V30 33420 H 3135.78 -3.98629 4.62523 0
M  V30 33421 H 3137.2 -1.85957 5.42303 0
M  V30 33422 H 3135.59 -1.21184 5.87737 0
M  V30 33423 H 3136.66 -0.248827 4.84261 0
M  V30 33424 N 3138.01 -1.5594 -0.228159 0
M  V30 33425 C 3139.25 -1.78293 -0.951637 0
M  V30 33426 C 3139.58 -0.612507 -1.85131 0
M  V30 33427 O 3138.85 0.370908 -1.92357 0
M  V30 33428 H 3137.43 -0.657591 -0.354376 0
M  V30 33429 H 3140.09 -1.93397 -0.241601 0
M  V30 33430 H 3139.18 -2.7018 -1.56234 0
M  V30 33431 N 3139.48 0.494597 -1.49638 0
M  V30 33432 C 3140.42 1.61228 -1.62905 0
M  V30 33433 C 3141.43 1.54557 -0.511452 0
M  V30 33434 O 3142.62 1.60373 -0.783753 0
M  V30 33435 C 3139.72 3.00042 -1.57569 0
M  V30 33436 C 3138.89 3.3183 -2.8497 0
M  V30 33437 C 3137.95 4.50085 -2.72599 0
M  V30 33438 O 3136.98 4.51552 -3.4654 0
M  V30 33439 N 3138.18 5.50376 -1.84573 0
M  V30 33440 H 3140.94 1.50272 -2.59304 0
M  V30 33441 H 3138.5 0.682594 -1.46807 0
M  V30 33442 H 3140.5 3.77082 -1.46938 0
M  V30 33443 H 3139.07 3.04889 -0.690027 0
M  V30 33444 H 3138.29 2.43625 -3.09904 0
M  V30 33445 H 3139.57 3.49868 -3.69418 0
M  V30 33446 H 3138.97 5.51995 -1.23768 0
M  V30 33447 H 3137.53 6.26493 -1.7986 0
M  V30 33448 N 3140.96 1.3882 0.746109 0
M  V30 33449 C 3142.21 1.34752 1.50083 0
M  V30 33450 C 3142.52 -0.0574442 1.95516 0
M  V30 33451 O 3143.73 -0.220682 2.70602 0
M  V30 33452 C 3142.19 2.3667 2.71137 0
M  V30 33453 C 3141.79 3.82825 2.32699 0
M  V30 33454 C 3143.54 2.41659 3.49001 0
M  V30 33455 C 3141.45 4.76411 3.50409 0
M  V30 33456 H 3140.38 0.500922 0.563554 0
M  V30 33457 H 3143.03 1.64412 0.814922 0
M  V30 33458 H 3141.41 2.00064 3.41746 0
M  V30 33459 H 3142.58 4.28411 1.69708 0
M  V30 33460 H 3140.9 3.81026 1.67953 0
M  V30 33461 H 3143.49 3.08774 4.36535 0
M  V30 33462 H 3143.84 1.43775 3.90684 0
M  V30 33463 H 3144.37 2.77102 2.85411 0
M  V30 33464 H 3141.11 5.75516 3.13785 0
M  V30 33465 H 3140.63 4.35513 4.12418 0
M  V30 33466 H 3142.31 4.94783 4.16892 0
M  V30 33467 N 3142.44 -0.975103 1.23812 0
M  V30 33468 C 3143.86 -1.24233 1.00192 0
M  V30 33469 C 3144.06 -1.99347 -0.293776 0
M  V30 33470 O 3143.11 -2.31339 -1.01185 0
M  V30 33471 C 3144.43 -2.0367 2.21222 0
M  V30 33472 C 3145.97 -2.16789 2.25768 0
M  V30 33473 C 3146.45 -2.99619 3.46399 0
M  V30 33474 N 3147.94 -3.07203 3.4667 0
M  V30 33475 C 3148.67 -3.71632 4.36666 0
M  V30 33476 N 3148.17 -4.37839 5.36906 0
M  V30 33477 N 3149.96 -3.6857 4.24396 0
M  V30 33478 H 3142.11 -0.47204 2.07088 0
M  V30 33479 H 3144.38 -0.271185 0.908385 0
M  V30 33480 H 3144.08 -1.55857 3.1528 0
M  V30 33481 H 3143.96 -3.04413 2.22738 0
M  V30 33482 H 3146.34 -2.63809 1.32246 0
M  V30 33483 H 3146.43 -1.15418 2.28281 0
M  V30 33484 H 3146.07 -2.53296 4.40231 0
M  V30 33485 H 3146 -4.01172 3.41128 0
M  V30 33486 H 3148.49 -2.601 2.74146 0
M  V30 33487 H 3148.8 -4.84796 6.01824 0
M  V30 33488 H 3147.15 -4.36531 5.40801 0
M  V30 33489 H 3150.34 -3.16019 3.45326 0
M  V30 33490 H 3150.51 -4.18499 4.94735 0
M  V30 33491 N 3143.92 -1.05068 -1.17467 0
M  V30 33492 C 3145.14 -0.780332 -1.9216 0
M  V30 33493 C 3145.57 0.657801 -1.76223 0
M  V30 33494 O 3144.93 1.45686 -1.07913 0
M  V30 33495 C 3144.97 -1.1642 -3.4129 0
M  V30 33496 O 3144.08 -0.295603 -4.11339 0
M  V30 33497 H 3143.42 -0.286268 -0.599122 0
M  V30 33498 H 3145.95 -1.4032 -1.48901 0
M  V30 33499 H 3145.96 -1.13043 -3.92027 0
M  V30 33500 H 3144.63 -2.21181 -3.5221 0
M  V30 33501 H 3143.21 -0.389863 -3.70856 0
M  V30 33502 N 3145.4 1.33878 -0.831529 0
M  V30 33503 C 3146.33 2.31882 -0.274419 0
M  V30 33504 C 3147.31 1.58638 0.613844 0
M  V30 33505 O 3148.49 1.86572 0.538928 0
M  V30 33506 C 3145.62 3.42797 0.557438 0
M  V30 33507 C 3144.58 4.27358 -0.234412 0
M  V30 33508 C 3143.9 5.2982 0.720732 0
M  V30 33509 C 3145.2 5.01844 -1.4474 0
M  V30 33510 H 3146.9 2.78726 -1.09327 0
M  V30 33511 H 3144.44 1.34004 -0.52716 0
M  V30 33512 H 3146.4 4.10379 0.957429 0
M  V30 33513 H 3145.12 2.94623 1.40942 0
M  V30 33514 H 3143.78 3.6139 -0.615874 0
M  V30 33515 H 3143.43 4.77906 1.56891 0
M  V30 33516 H 3143.13 5.87276 0.195068 0
M  V30 33517 H 3144.65 6.0027 1.1184 0
M  V30 33518 H 3146.06 5.62234 -1.12097 0
M  V30 33519 H 3144.46 5.68915 -1.90933 0
M  V30 33520 H 3145.53 4.31041 -2.22107 0
M  V30 33521 N 3146.87 0.587281 1.46249 0
M  V30 33522 C 3147.8 -0.131035 2.33132 0
M  V30 33523 C 3148.79 -0.879133 1.4562 0
M  V30 33524 O 3149.97 -0.853692 1.7443 0
M  V30 33525 C 3147.1 -1.1423 3.27977 0
M  V30 33526 C 3146.05 -0.508744 4.24966 0
M  V30 33527 C 3145.38 -1.62681 5.09352 0
M  V30 33528 C 3146.68 0.557031 5.19321 0
M  V30 33529 H 3148.37 0.594384 2.93441 0
M  V30 33530 H 3145.92 0.287287 1.41105 0
M  V30 33531 H 3147.87 -1.65322 3.87617 0
M  V30 33532 H 3146.6 -1.89805 2.65785 0
M  V30 33533 H 3145.26 -0.0188693 3.66595 0
M  V30 33534 H 3144.9 -2.37234 4.43542 0
M  V30 33535 H 3144.6 -1.20851 5.75038 0
M  V30 33536 H 3146.13 -2.14039 5.71856 0
M  V30 33537 H 3147.54 0.131004 5.7315 0
M  V30 33538 H 3145.94 0.895905 5.93375 0
M  V30 33539 H 3147.01 1.44156 4.62976 0
M  V30 33540 N 3148.35 -1.54206 0.325309 0
M  V30 33541 C 3149.58 -2.05482 -0.281382 0
M  V30 33542 C 3150 -1.1998 -1.44867 0
M  V30 33543 O 3149.36 -0.209306 -1.80088 0
M  V30 33544 C 3149.41 -3.53899 -0.691967 0
M  V30 33545 O 3148.51 -3.71328 -1.79414 0
M  V30 33546 H 3147.85 -0.662079 -0.0504756 0
M  V30 33547 H 3150.38 -1.99028 0.474226 0
M  V30 33548 H 3150.39 -3.962 -0.974149 0
M  V30 33549 H 3149.07 -4.15585 0.161783 0
M  V30 33550 H 3147.65 -3.40932 -1.51063 0
M  V30 33551 N 3149.83 -0.0535194 -1.57509 0
M  V30 33552 C 3151.08 0.620657 -1.93069 0
M  V30 33553 C 3151.41 1.70356 -0.932343 0
M  V30 33554 O 3150.69 1.94456 0.0413051 0
M  V30 33555 C 3150.97 1.21457 -3.38999 0
M  V30 33556 C 3150.82 0.139571 -4.49583 0
M  V30 33557 C 3152.14 2.12552 -3.8537 0
M  V30 33558 H 3149.26 0.22415 -0.702087 0
M  V30 33559 H 3151.9 -0.115763 -1.89647 0
M  V30 33560 H 3150.05 1.8422 -3.42046 0
M  V30 33561 H 3151.72 -0.492492 -4.58664 0
M  V30 33562 H 3149.97 -0.532081 -4.30524 0
M  V30 33563 H 3150.64 0.595191 -5.48782 0
M  V30 33564 H 3153.11 1.59748 -3.84213 0
M  V30 33565 H 3151.99 2.5105 -4.88124 0
M  V30 33566 H 3152.25 3.02655 -3.22261 0
M  V30 33567 N 3151.31 1.56059 0.219886 0
M  V30 33568 C 3152.73 1.49087 0.569658 0
M  V30 33569 C 3152.93 0.748936 1.87065 0
M  V30 33570 O 3151.98 0.289279 2.50837 0
M  V30 33571 C 3153.29 2.93649 0.647346 0
M  V30 33572 C 3154.84 3.04179 0.737861 0
M  V30 33573 C 3155.32 4.50102 0.846878 0
M  V30 33574 N 3156.81 4.54152 0.911056 0
M  V30 33575 C 3157.54 5.64342 1.01515 0
M  V30 33576 N 3157.04 6.84281 1.08308 0
M  V30 33577 N 3158.83 5.52198 1.05041 0
M  V30 33578 H 3150.98 2.02723 -0.633814 0
M  V30 33579 H 3153.25 0.921495 -0.222599 0
M  V30 33580 H 3152.95 3.50887 -0.239048 0
M  V30 33581 H 3152.83 3.4564 1.51039 0
M  V30 33582 H 3155.21 2.47005 1.6147 0
M  V30 33583 H 3155.29 2.55355 -0.15089 0
M  V30 33584 H 3154.94 5.07894 -0.0255059 0
M  V30 33585 H 3154.87 4.96634 1.75107 0
M  V30 33586 H 3157.36 3.67777 0.868804 0
M  V30 33587 H 3157.67 7.64009 1.16233 0
M  V30 33588 H 3156.02 6.86989 1.05219 0
M  V30 33589 H 3159.21 4.57424 0.994006 0
M  V30 33590 H 3159.38 6.38105 1.12808 0
M  V30 33591 N 3152.79 -0.486655 1.49898 0
M  V30 33592 C 3153.72 -1.60476 1.62243 0
M  V30 33593 C 3154.7 -1.55629 0.470992 0
M  V30 33594 O 3155.88 -1.75478 0.688449 0
M  V30 33595 C 3153.01 -2.99025 1.59065 0
M  V30 33596 C 3152.06 -3.22082 2.7958 0
M  V30 33597 S 3152.89 -3.03656 4.41082 0
M  V30 33598 C 3154.04 -4.44576 4.40572 0
M  V30 33599 H 3154.28 -1.49762 2.56824 0
M  V30 33600 H 3151.81 -0.672868 1.38967 0
M  V30 33601 H 3153.77 -3.7891 1.57916 0
M  V30 33602 H 3152.43 -3.07142 0.657459 0
M  V30 33603 H 3151.62 -4.23261 2.73617 0
M  V30 33604 H 3151.22 -2.49944 2.78215 0
M  V30 33605 H 3153.52 -5.36929 4.13175 0
M  V30 33606 H 3154.46 -4.55586 5.42076 0
M  V30 33607 H 3154.87 -4.25926 3.70469 0
M  V30 33608 N 3154.27 -1.39214 -0.738737 0
M  V30 33609 C 3155.51 -1.35964 -1.49526 0
M  V30 33610 C 3155.83 0.0449809 -1.94948 0
M  V30 33611 O 3155.1 0.995523 -1.68719 0
M  V30 33612 H 3153.68 -0.500336 -0.554683 0
M  V30 33613 H 3156.35 -1.74042 -0.877224 0
M  V30 33614 H 3155.44 -2.01997 -2.37915 0
M  V30 33615 N 3155.74 0.968523 -1.24328 0
M  V30 33616 C 3156.69 2.06295 -1.03493 0
M  V30 33617 C 3157.66 1.6602 0.0515041 0
M  V30 33618 O 3158.85 1.90522 -0.102957 0
M  V30 33619 C 3155.99 3.3902 -0.644929 0
M  V30 33620 C 3155.1 3.92495 -1.80476 0
M  V30 33621 C 3154.23 5.13484 -1.36041 0
M  V30 33622 C 3153.27 5.59154 -2.49024 0
M  V30 33623 N 3152.41 6.71364 -2.05463 0
M  V30 33624 H 3157.25 2.2345 -1.97165 0
M  V30 33625 H 3154.79 1.09518 -0.982047 0
M  V30 33626 H 3156.74 4.1528 -0.399844 0
M  V30 33627 H 3155.37 3.21793 0.254788 0
M  V30 33628 H 3154.43 3.12883 -2.16353 0
M  V30 33629 H 3155.74 4.22349 -2.65373 0
M  V30 33630 H 3154.89 5.97115 -1.07416 0
M  V30 33631 H 3153.63 4.85313 -0.481972 0
M  V30 33632 H 3152.64 4.74097 -2.7841 0
M  V30 33633 H 3153.86 5.8934 -3.37424 0
M  V30 33634 H 3151.81 6.44928 -1.20016 0
M  V30 33635 H 3151.72 7.00663 -2.83914 0
M  V30 33636 H 3152.99 7.58439 -1.79975 0
M  V30 33637 N 3157.22 1.0569 1.16908 0
M  V30 33638 C 3158.13 0.673189 2.24734 0
M  V30 33639 C 3159.15 -0.308013 1.71252 0
M  V30 33640 O 3160.32 -0.158853 2.00773 0
M  V30 33641 C 3157.39 0.0590869 3.4665 0
M  V30 33642 C 3156.45 1.09138 4.15196 0
M  V30 33643 C 3155.68 0.506484 5.31291 0
M  V30 33644 O 3155.91 -0.682592 5.66301 0
M  V30 33645 O 3154.84 1.2432 5.88921 0
M  V30 33646 H 3158.67 1.57195 2.59853 0
M  V30 33647 H 3156.25 0.828773 1.24305 0
M  V30 33648 H 3158.13 -0.281944 4.20456 0
M  V30 33649 H 3156.81 -0.813249 3.13318 0
M  V30 33650 H 3155.71 1.48448 3.43386 0
M  V30 33651 H 3157.05 1.93503 4.52567 0
M  V30 33652 N 3158.7 -1.33435 0.838617 0
M  V30 33653 C 3159.61 -2.32993 0.274089 0
M  V30 33654 C 3160.63 -1.63337 -0.599747 0
M  V30 33655 O 3161.8 -1.94994 -0.503929 0
M  V30 33656 C 3158.87 -3.42441 -0.541744 0
M  V30 33657 C 3157.93 -4.27819 0.356337 0
M  V30 33658 C 3157.16 -5.3204 -0.420654 0
M  V30 33659 O 3157.38 -5.45942 -1.65238 0
M  V30 33660 O 3156.32 -6.0155 0.205207 0
M  V30 33661 H 3160.14 -2.83137 1.09851 0
M  V30 33662 H 3157.73 -1.36773 0.601135 0
M  V30 33663 H 3159.61 -4.09231 -1.00536 0
M  V30 33664 H 3158.29 -2.94515 -1.34323 0
M  V30 33665 H 3157.19 -3.63896 0.86779 0
M  V30 33666 H 3158.53 -4.79227 1.12258 0
M  V30 33667 N 3160.18 -0.595029 -1.45935 0
M  V30 33668 C 3161.09 0.133284 -2.34221 0
M  V30 33669 C 3162.1 0.873381 -1.50493 0
M  V30 33670 O 3163.28 0.833796 -1.8333 0
M  V30 33671 C 3160.34 1.12622 -3.27898 0
M  V30 33672 C 3159.41 0.389457 -4.2753 0
M  V30 33673 C 3158.64 1.3351 -5.16731 0
M  V30 33674 O 3158.86 2.57229 -5.09106 0
M  V30 33675 O 3157.8 0.838979 -5.96024 0
M  V30 33676 H 3161.62 -0.591913 -2.97876 0
M  V30 33677 H 3159.21 -0.355354 -1.45112 0
M  V30 33678 H 3161.09 1.69844 -3.85657 0
M  V30 33679 H 3159.76 1.83267 -2.66824 0
M  V30 33680 H 3158.67 -0.224908 -3.73423 0
M  V30 33681 H 3160 -0.276255 -4.91424 0
M  V30 33682 N 3161.66 1.54031 -0.333483 0
M  V30 33683 C 3162.6 2.24681 0.527942 0
M  V30 33684 C 3163.57 1.24129 1.10369 0
M  V30 33685 O 3164.76 1.52836 1.14218 0
M  V30 33686 C 3161.9 3.01556 1.67803 0
M  V30 33687 C 3161.01 4.16944 1.13056 0
M  V30 33688 C 3160.15 4.81328 2.24714 0
M  V30 33689 C 3159.18 5.88802 1.67267 0
M  V30 33690 N 3158.32 6.47008 2.72626 0
M  V30 33691 H 3163.16 2.9789 -0.0810831 0
M  V30 33692 H 3160.7 1.47009 -0.0517868 0
M  V30 33693 H 3162.66 3.4438 2.35496 0
M  V30 33694 H 3161.29 2.30663 2.25819 0
M  V30 33695 H 3160.34 3.78833 0.344882 0
M  V30 33696 H 3161.65 4.94276 0.670286 0
M  V30 33697 H 3160.8 5.27172 3.00292 0
M  V30 33698 H 3159.54 4.03399 2.74082 0
M  V30 33699 H 3158.55 5.42352 0.901907 0
M  V30 33700 H 3159.77 6.68634 1.18763 0
M  V30 33701 H 3157.72 5.71947 3.21267 0
M  V30 33702 H 3157.64 7.19782 2.31191 0
M  V30 33703 H 3158.9 6.97506 3.48003 0
M  V30 33704 N 3163.13 0.0618717 1.57479 0
M  V30 33705 C 3164.06 -0.906562 2.15183 0
M  V30 33706 C 3165.04 -1.31722 1.07626 0
M  V30 33707 O 3166.23 -1.39003 1.35616 0
M  V30 33708 C 3163.36 -2.17767 2.70546 0
M  V30 33709 C 3162.31 -1.90673 3.83181 0
M  V30 33710 C 3161.64 -3.2433 4.25105 0
M  V30 33711 C 3162.94 -1.21985 5.07855 0
M  V30 33712 H 3164.63 -0.425888 2.96355 0
M  V30 33713 H 3162.18 -0.20341 1.42556 0
M  V30 33714 H 3164.13 -2.85924 3.09557 0
M  V30 33715 H 3162.86 -2.68059 1.8658 0
M  V30 33716 H 3161.52 -1.24925 3.44658 0
M  V30 33717 H 3161.16 -3.72443 3.38075 0
M  V30 33718 H 3160.86 -3.06996 5.01026 0
M  V30 33719 H 3162.39 -3.93701 4.66725 0
M  V30 33720 H 3163.8 -1.80195 5.44245 0
M  V30 33721 H 3162.2 -1.14943 5.88989 0
M  V30 33722 H 3163.27 -0.197451 4.84498 0
M  V30 33723 N 3164.61 -1.56173 -0.211607 0
M  V30 33724 C 3165.55 -1.88255 -1.28978 0
M  V30 33725 C 3166.52 -0.740915 -1.44738 0
M  V30 33726 O 3167.71 -0.990277 -1.60393 0
M  V30 33727 C 3164.83 -2.09829 -2.65875 0
M  V30 33728 C 3163.88 -3.32525 -2.67076 0
M  V30 33729 S 3164.71 -4.88153 -2.20151 0
M  V30 33730 C 3165.87 -5.12776 -3.58904 0
M  V30 33731 H 3166.1 -2.7941 -1.01573 0
M  V30 33732 H 3163.64 -1.48737 -0.414325 0
M  V30 33733 H 3165.59 -2.22941 -3.44684 0
M  V30 33734 H 3164.25 -1.19452 -2.90499 0
M  V30 33735 H 3163.45 -3.44695 -3.67697 0
M  V30 33736 H 3163.05 -3.1832 -1.96337 0
M  V30 33737 H 3165.34 -5.02284 -4.54662 0
M  V30 33738 H 3166.28 -6.14617 -3.51641 0
M  V30 33739 H 3166.69 -4.40471 -3.53052 0
M  V30 33740 N 3166.09 0.478699 -1.50154 0
M  V30 33741 C 3167.34 1.22806 -1.60005 0
M  V30 33742 C 3167.65 1.9325 -0.302311 0
M  V30 33743 O 3168.86 2.70056 -0.279631 0
M  V30 33744 C 3167.31 2.23103 -2.82406 0
M  V30 33745 C 3166.92 1.58497 -4.19026 0
M  V30 33746 C 3168.67 2.98729 -3.01598 0
M  V30 33747 C 3166.57 2.57035 -5.32622 0
M  V30 33748 H 3165.5 0.462063 -0.59583 0
M  V30 33749 H 3168.15 0.499381 -1.76574 0
M  V30 33750 H 3166.54 2.9923 -2.59379 0
M  V30 33751 H 3167.71 0.882108 -4.52278 0
M  V30 33752 H 3166.03 0.951806 -4.05376 0
M  V30 33753 H 3168.62 3.72461 -3.83637 0
M  V30 33754 H 3168.97 3.57667 -2.13026 0
M  V30 33755 H 3169.5 2.29715 -3.2477 0
M  V30 33756 H 3166.24 2.02847 -6.23324 0
M  V30 33757 H 3165.76 3.25496 -5.03798 0
M  V30 33758 H 3167.44 3.19018 -5.62882 0
M  V30 33759 N 3167.57 1.39603 0.731343 0
M  V30 33760 C 3168.98 1.21288 1.03737 0
M  V30 33761 C 3169.18 0.0770229 2.01353 0
M  V30 33762 O 3168.24 -0.570149 2.45979 0
M  V30 33763 C 3169.55 2.5484 1.59616 0
M  V30 33764 C 3171.1 2.61716 1.71679 0
M  V30 33765 C 3171.58 3.95498 2.30966 0
M  V30 33766 N 3173.07 3.97157 2.38371 0
M  V30 33767 C 3173.8 4.97447 2.85191 0
M  V30 33768 N 3173.3 6.08135 3.3188 0
M  V30 33769 N 3175.09 4.84824 2.84433 0
M  V30 33770 H 3167.24 2.12234 0.0840083 0
M  V30 33771 H 3169.51 0.942723 0.0998872 0
M  V30 33772 H 3169.21 3.38527 0.953549 0
M  V30 33773 H 3169.09 2.74817 2.58371 0
M  V30 33774 H 3171.47 1.78411 2.35061 0
M  V30 33775 H 3171.55 2.45585 0.715671 0
M  V30 33776 H 3171.2 4.79237 1.6821 0
M  V30 33777 H 3171.13 4.08952 3.31762 0
M  V30 33778 H 3173.62 3.17221 2.05376 0
M  V30 33779 H 3173.93 6.80567 3.66126 0
M  V30 33780 H 3172.28 6.11723 3.29879 0
M  V30 33781 H 3175.47 3.97453 2.47283 0
M  V30 33782 H 3175.64 5.6313 3.20607 0
M  V30 33783 N 3169.05 -0.961916 1.2484 0
M  V30 33784 C 3170.29 -1.70226 1.08939 0
M  V30 33785 C 3170.62 -1.91428 -0.371548 0
M  V30 33786 O 3169.89 -1.49617 -1.26458 0
M  V30 33787 H 3168.47 -0.630792 0.400139 0
M  V30 33788 H 3171.13 -1.1569 1.5685 0
M  V30 33789 H 3170.22 -2.68444 1.59199 0
M  V30 33790 N 3170.52 -1.06308 -1.16346 0
M  V30 33791 C 3171.45 -0.695273 -2.22909 0
M  V30 33792 C 3172.44 0.312313 -1.67208 0
M  V30 33793 O 3173.62 0.187408 -1.93294 0
M  V30 33794 C 3170.75 -0.0810759 -3.47205 0
M  V30 33795 C 3169.7 -1.01465 -4.15799 0
M  V30 33796 C 3169.03 -0.26375 -5.34049 0
M  V30 33797 C 3170.33 -2.34373 -4.66762 0
M  V30 33798 H 3172.02 -1.58618 -2.53931 0
M  V30 33799 H 3169.57 -0.764111 -1.22055 0
M  V30 33800 H 3171.52 0.188106 -4.2098 0
M  V30 33801 H 3170.25 0.844842 -3.15484 0
M  V30 33802 H 3168.91 -1.26858 -3.43951 0
M  V30 33803 H 3168.55 0.665291 -4.98581 0
M  V30 33804 H 3168.25 -0.885922 -5.80883 0
M  V30 33805 H 3169.78 -0.00211727 -6.106 0
M  V30 33806 H 3171.19 -2.13366 -5.32117 0
M  V30 33807 H 3169.59 -2.92089 -5.24218 0
M  V30 33808 H 3170.66 -2.97433 -3.82964 0
M  V30 33809 N 3172 1.32989 -0.845682 0
M  V30 33810 C 3173.25 1.97167 -0.443809 0
M  V30 33811 C 3173.57 1.67294 1.00189 0
M  V30 33812 O 3172.84 0.975427 1.69889 0
M  V30 33813 H 3171.42 0.729416 -0.161124 0
M  V30 33814 H 3174.08 1.62231 -1.08014 0
M  V30 33815 H 3173.18 3.06636 -0.581467 0
M  V30 33816 N 3173.48 0.60276 1.45618 0
M  V30 33817 C 3174.76 0.0282816 1.9558 0
M  V30 33818 C 3175.14 -1.43823 1.54526 0
M  V30 33819 O 3174.49 -2.13832 0.805493 0
M  V30 33820 C 3174.7 0.221325 3.48298 0
M  V30 33821 C 3176.04 0.0995995 4.24483 0
M  V30 33822 O 3177.07 0.151195 3.55879 0
M  V30 33823 O 3175.93 -0.0193493 5.46497 0
M  V30 33824 H 3173.02 -0.0384752 0.826105 0
M  V30 33825 H 3175.57 0.672484 1.55807 0
M  V30 33826 H 3174.34 1.24003 3.71132 0
M  V30 33827 H 3173.96 -0.458368 3.94949 0
M  V30 33828 N 3174.96 -1.53852 0.341647 0
M  V30 33829 C 3176.21 -2.00063 -0.25644 0
M  V30 33830 C 3176.52 -1.23343 -1.51808 0
M  V30 33831 O 3177.73 -1.60021 -2.1933 0
M  V30 33832 C 3176.18 -3.56304 -0.507505 0
M  V30 33833 C 3175.79 -4.41877 0.738129 0
M  V30 33834 C 3177.53 -4.10935 -1.06455 0
M  V30 33835 C 3175.44 -5.89624 0.457969 0
M  V30 33836 H 3174.37 -0.747393 -0.0996012 0
M  V30 33837 H 3177.02 -1.77726 0.456681 0
M  V30 33838 H 3175.4 -3.74699 -1.28128 0
M  V30 33839 H 3176.58 -4.35258 1.51286 0
M  V30 33840 H 3174.89 -3.98228 1.21668 0
M  V30 33841 H 3177.49 -5.18928 -1.28908 0
M  V30 33842 H 3177.83 -3.64036 -2.0195 0
M  V30 33843 H 3178.37 -3.96244 -0.351531 0
M  V30 33844 H 3175.11 -6.40753 1.38258 0
M  V30 33845 H 3174.63 -5.99152 -0.278712 0
M  V30 33846 H 3176.3 -6.46957 0.0745051 0
M  V30 33847 N 3176.44 -0.0702223 -1.57443 0
M  V30 33848 C 3177.37 0.933484 -2.08234 0
M  V30 33849 C 3178.35 1.2921 -0.987096 0
M  V30 33850 O 3179.53 1.40167 -1.26037 0
M  V30 33851 C 3176.66 2.24205 -2.5387 0
M  V30 33852 C 3175.7 2.03512 -3.74814 0
M  V30 33853 S 3176.54 1.29592 -5.19583 0
M  V30 33854 C 3177.69 2.61732 -5.68549 0
M  V30 33855 H 3177.93 0.501303 -2.93043 0
M  V30 33856 H 3175.46 0.142506 -1.53741 0
M  V30 33857 H 3177.42 2.99414 -2.80823 0
M  V30 33858 H 3176.08 2.64548 -1.69331 0
M  V30 33859 H 3175.27 3.00351 -4.04729 0
M  V30 33860 H 3174.87 1.36439 -3.48225 0
M  V30 33861 H 3177.17 3.57826 -5.75297 0
M  V30 33862 H 3178.11 2.36428 -6.67463 0
M  V30 33863 H 3178.52 2.68864 -4.96359 0
M  V30 33864 N 3177.91 1.56283 0.203321 0
M  V30 33865 C 3178.86 1.94769 1.27153 0
M  V30 33866 C 3179.86 0.832031 1.47559 0
M  V30 33867 O 3181.06 1.01699 1.48517 0
M  V30 33868 H 3177.44 0.619217 0.426701 0
M  V30 33869 H 3179.41 2.83868 0.919871 0
M  V30 33870 C 3178.16 2.2964 2.61076 0
M  V30 33871 H 3177.48 3.15011 2.46188 0
M  V30 33872 H 3178.92 2.60438 3.34586 0
M  V30 33873 C 3177.38 1.12804 3.17454 0
M  V30 33874 O 3177.91 0.398731 3.99716 0
M  V30 33875 N 3176.12 0.907024 2.76082 0
M  V30 33876 H 3175.66 1.50183 2.09292 0
M  V30 33877 H 3175.62 0.127061 3.14143 0
M  V30 33878 N 3179.39 -0.470729 1.50406 0
M  V30 33879 C 3180.34 -1.58943 1.69823 0
M  V30 33880 C 3181.34 -1.59732 0.564098 0
M  V30 33881 O 3182.54 -1.63877 0.744605 0
M  V30 33882 H 3178.92 -0.527429 0.536025 0
M  V30 33883 H 3180.89 -1.39727 2.63664 0
M  V30 33884 C 3179.64 -2.9688 1.80991 0
M  V30 33885 H 3178.96 -2.96991 2.6765 0
M  V30 33886 H 3180.4 -3.74611 1.98602 0
M  V30 33887 C 3178.86 -3.32186 0.561609 0
M  V30 33888 O 3179.39 -4.00585 -0.299066 0
M  V30 33889 N 3177.59 -2.87614 0.415527 0
M  V30 33890 H 3177.14 -2.32125 1.11695 0
M  V30 33891 H 3177.1 -3.11602 -0.418537 0
M  V30 33892 N 3180.87 -1.39989 -0.72393 0
M  V30 33893 C 3181.82 -1.39592 -1.83801 0
M  V30 33894 C 3182.79 -0.254025 -1.64146 0
M  V30 33895 O 3183.97 -0.450825 -1.85397 0
M  V30 33896 C 3181.11 -1.25609 -3.21428 0
M  V30 33897 C 3180.23 -2.49436 -3.52712 0
M  V30 33898 C 3179.36 -2.27958 -4.79801 0
M  V30 33899 C 3178.4 -3.47403 -5.03962 0
M  V30 33900 N 3177.54 -3.25172 -6.2226 0
M  V30 33901 H 3182.38 -2.34821 -1.83475 0
M  V30 33902 H 3179.91 -1.16634 -0.896375 0
M  V30 33903 H 3181.87 -1.15511 -4.0089 0
M  V30 33904 H 3180.5 -0.340043 -3.21004 0
M  V30 33905 H 3179.55 -2.70094 -2.67868 0
M  V30 33906 H 3180.87 -3.38369 -3.6648 0
M  V30 33907 H 3180.02 -2.15165 -5.67264 0
M  V30 33908 H 3178.76 -1.36436 -4.68227 0
M  V30 33909 H 3177.76 -3.60681 -4.14957 0
M  V30 33910 H 3178.99 -4.3984 -5.17414 0
M  V30 33911 H 3176.94 -2.36325 -6.11953 0
M  V30 33912 H 3176.85 -4.07667 -6.36666 0
M  V30 33913 H 3178.12 -3.16096 -7.12533 0
M  V30 33914 N 3182.35 0.955282 -1.25348 0
M  V30 33915 C 3183.6 1.70233 -1.10221 0
M  V30 33916 C 3183.93 1.90907 0.356091 0
M  V30 33917 O 3183.2 1.47956 1.26251 0
M  V30 33918 C 3183.49 3.08565 -1.85632 0
M  V30 33919 C 3183.34 2.95305 -3.39286 0
M  V30 33920 C 3184.66 4.08445 -1.63893 0
M  V30 33921 H 3181.78 0.617845 -0.401791 0
M  V30 33922 H 3184.42 1.11046 -1.54172 0
M  V30 33923 H 3182.57 3.59091 -1.48276 0
M  V30 33924 H 3184.24 2.5211 -3.86314 0
M  V30 33925 H 3182.48 2.31238 -3.67031 0
M  V30 33926 H 3183.16 3.93357 -3.87265 0
M  V30 33927 H 3185.63 3.66826 -1.96412 0
M  V30 33928 H 3184.51 5.03278 -2.19095 0
M  V30 33929 H 3184.77 4.38278 -0.580098 0
M  V30 33930 N 3183.83 1.06924 1.1578 0
M  V30 33931 C 3185.07 0.789784 1.86464 0
M  V30 33932 C 3185.4 -0.68399 1.82076 0
M  V30 33933 O 3184.66 -1.51746 1.23578 0
M  V30 33934 C 3184.96 1.23776 3.35282 0
M  V30 33935 C 3184.62 2.71675 3.59866 0
M  V30 33936 C 3183.28 3.12072 3.66285 0
M  V30 33937 C 3185.64 3.6716 3.69923 0
M  V30 33938 C 3182.96 4.46782 3.80267 0
M  V30 33939 C 3185.32 5.01626 3.85428 0
M  V30 33940 C 3183.98 5.41651 3.9009 0
M  V30 33941 H 3183.25 0.289003 0.682318 0
M  V30 33942 H 3185.9 1.33948 1.36859 0
M  V30 33943 H 3184.2 0.607377 3.87064 0
M  V30 33944 H 3185.9 0.998499 3.8837 0
M  V30 33945 H 3182.49 2.39399 3.55508 0
M  V30 33946 H 3186.67 3.37079 3.64268 0
M  V30 33947 H 3181.93 4.77268 3.82132 0
M  V30 33948 H 3186.1 5.75492 3.92151 0
M  V30 33949 H 3183.73 6.46036 4.00677 0
M  V30 33950 N 3185.31 -1.32538 0.852723 0
M  V30 33951 C 3186.54 -2.0122 0.468399 0
M  V30 33952 C 3186.94 -1.64258 -0.938937 0
M  V30 33953 O 3186.29 -0.858866 -1.62386 0
M  V30 33954 C 3186.35 -3.55638 0.525519 0
M  V30 33955 C 3186.01 -4.16023 1.89141 0
M  V30 33956 C 3187.01 -4.3439 2.85659 0
M  V30 33957 C 3184.69 -4.5214 2.18803 0
M  V30 33958 C 3186.69 -4.88041 4.09993 0
M  V30 33959 C 3184.38 -5.05496 3.4339 0
M  V30 33960 C 3185.37 -5.23395 4.38801 0
M  V30 33961 O 3185.06 -5.75612 5.61183 0
M  V30 33962 H 3184.79 -0.650836 0.182724 0
M  V30 33963 H 3187.35 -1.70136 1.15079 0
M  V30 33964 H 3185.58 -3.86109 -0.213712 0
M  V30 33965 H 3187.27 -4.05596 0.15707 0
M  V30 33966 H 3188.03 -4.06822 2.64047 0
M  V30 33967 H 3183.91 -4.37495 1.45324 0
M  V30 33968 H 3187.46 -5.01927 4.84474 0
M  V30 33969 H 3183.35 -5.32497 3.64853 0
M  V30 33970 H 3184.12 -5.94007 5.63114 0
M  V30 33971 N 3186.78 -0.610474 -1.45296 0
M  V30 33972 C 3187.72 0.144843 -2.28742 0
M  V30 33973 C 3188.73 0.828953 -1.40115 0
M  V30 33974 O 3189.92 0.693858 -1.64462 0
M  V30 33975 C 3187.02 1.22626 -3.15937 0
M  V30 33976 C 3186.19 0.628709 -4.32858 0
M  V30 33977 C 3185.25 1.6014 -5.0124 0
M  V30 33978 O 3184.28 1.12657 -5.5794 0
M  V30 33979 N 3185.48 2.93581 -5.0079 0
M  V30 33980 H 3188.24 -0.571197 -2.94206 0
M  V30 33981 H 3185.8 -0.450162 -1.55516 0
M  V30 33982 H 3187.8 1.87685 -3.58548 0
M  V30 33983 H 3186.37 1.84479 -2.52361 0
M  V30 33984 H 3185.59 -0.200021 -3.93692 0
M  V30 33985 H 3186.87 0.209756 -5.08367 0
M  V30 33986 H 3186.27 3.34757 -4.5602 0
M  V30 33987 H 3184.83 3.54054 -5.47256 0
M  V30 33988 N 3188.26 1.53669 -0.349801 0
M  V30 33989 C 3189.21 2.21987 0.520191 0
M  V30 33990 C 3190.2 1.20946 1.06117 0
M  V30 33991 O 3191.39 1.46465 0.993831 0
M  V30 33992 C 3188.52 3.00084 1.66746 0
M  V30 33993 C 3187.6 4.08488 1.14012 0
M  V30 33994 N 3187.99 5.04693 0.334499 0
M  V30 33995 C 3186.29 4.22911 1.41643 0
M  V30 33996 C 3186.99 5.81681 0.0475883 0
M  V30 33997 N 3185.97 5.39808 0.640938 0
M  V30 33998 H 3189.77 2.93722 -0.102312 0
M  V30 33999 H 3187.28 1.61639 -0.156989 0
M  V30 34000 H 3189.28 3.47533 2.30275 0
M  V30 34001 H 3187.94 2.29877 2.29318 0
M  V30 34002 H 3188.95 5.17894 -0.0249575 0
M  V30 34003 H 3185.63 3.63925 2.04608 0
M  V30 34004 H 3187.02 6.69192 -0.602683 0
M  V30 34005 N 3189.74 0.0785709 1.57404 0
M  V30 34006 C 3191.15 -0.453078 1.81119 0
M  V30 34007 C 3191.5 -1.69216 0.992993 0
M  V30 34008 O 3190.63 -2.15304 0.217486 0
M  V30 34009 C 3191.22 -0.828762 3.28507 0
M  V30 34010 C 3189.78 -1.30524 3.53045 0
M  V30 34011 C 3188.93 -0.293732 2.7574 0
M  V30 34012 H 3191.88 0.304199 1.55757 0
M  V30 34013 H 3191.9 -1.68965 3.40927 0
M  V30 34014 H 3191.41 0.0732508 3.88031 0
M  V30 34015 H 3189.51 -2.22552 2.98833 0
M  V30 34016 H 3189.63 -1.27849 4.61727 0
M  V30 34017 H 3187.99 -0.772434 2.42705 0
M  V30 34018 H 3188.77 0.600672 3.38004 0
M  V30 34019 N 3191.22 -1.56389 -0.19503 0
M  V30 34020 C 3192.17 -1.9544 -1.26119 0
M  V30 34021 C 3193.16 -0.839844 -1.47116 0
M  V30 34022 O 3194.37 -1.02485 -1.47976 0
M  V30 34023 H 3190.74 -0.621471 -0.423411 0
M  V30 34024 H 3192.71 -2.84352 -0.904804 0
M  V30 34025 C 3191.46 -2.31022 -2.59854 0
M  V30 34026 H 3190.78 -3.16312 -2.44514 0
M  V30 34027 H 3192.22 -2.62209 -3.332 0
M  V30 34028 C 3190.68 -1.14486 -3.16851 0
M  V30 34029 O 3191.21 -0.419924 -3.99499 0
M  V30 34030 N 3189.42 -0.921652 -2.75597 0
M  V30 34031 H 3188.97 -1.5129 -2.08492 0
M  V30 34032 H 3188.92 -0.143719 -3.14071 0
M  V30 34033 N 3192.7 0.462746 -1.50653 0
M  V30 34034 C 3193.63 1.56757 -1.73059 0
M  V30 34035 C 3194.61 1.59916 -0.579727 0
M  V30 34036 O 3195.79 1.7605 -0.81976 0
M  V30 34037 C 3192.92 2.95027 -1.83239 0
M  V30 34038 C 3191.88 3.06734 -2.98494 0
M  V30 34039 C 3191.2 4.46733 -2.93826 0
M  V30 34040 C 3192.5 2.83173 -4.38874 0
M  V30 34041 H 3194.2 1.3826 -2.65565 0
M  V30 34042 H 3191.74 0.6637 -1.27793 0
M  V30 34043 H 3193.69 3.72254 -1.97497 0
M  V30 34044 H 3192.42 3.14699 -0.873613 0
M  V30 34045 H 3191.08 2.31941 -2.83899 0
M  V30 34046 H 3190.73 4.63336 -1.95777 0
M  V30 34047 H 3190.43 4.555 -3.71205 0
M  V30 34048 H 3191.95 5.25968 -3.10144 0
M  V30 34049 H 3193.36 3.50145 -4.53951 0
M  V30 34050 H 3191.76 3.03377 -5.17767 0
M  V30 34051 H 3192.83 1.78964 -4.50666 0
M  V30 34052 N 3194.17 1.40371 0.716495 0
M  V30 34053 C 3195.11 1.34966 1.84009 0
M  V30 34054 C 3196.09 0.220198 1.61102 0
M  V30 34055 O 3197.27 0.403708 1.84126 0
M  V30 34056 C 3194.4 1.10023 3.20332 0
M  V30 34057 C 3193.44 2.25408 3.62068 0
M  V30 34058 S 3194.28 3.87797 3.69288 0
M  V30 34059 C 3195.43 3.65115 5.08371 0
M  V30 34060 H 3195.66 2.30055 1.88314 0
M  V30 34061 H 3193.2 1.26646 0.883185 0
M  V30 34062 H 3195.16 0.963167 3.99041 0
M  V30 34063 H 3193.82 0.165895 3.13662 0
M  V30 34064 H 3193.01 2.03595 4.61048 0
M  V30 34065 H 3192.61 2.35413 2.90614 0
M  V30 34066 H 3194.9 3.23526 5.95262 0
M  V30 34067 H 3195.85 4.63622 5.35219 0
M  V30 34068 H 3196.25 2.98821 4.78922 0
M  V30 34069 N 3195.65 -0.948621 1.25853 0
M  V30 34070 C 3197.07 -1.22079 1.02805 0
M  V30 34071 C 3197.27 -1.99925 -0.251426 0
M  V30 34072 O 3196.32 -2.33434 -0.962551 0
M  V30 34073 C 3197.64 -1.98932 2.25492 0
M  V30 34074 C 3199.19 -2.11952 2.30316 0
M  V30 34075 C 3199.66 -2.92204 3.52676 0
M  V30 34076 N 3201.15 -2.99781 3.53109 0
M  V30 34077 C 3201.89 -3.62286 4.44451 0
M  V30 34078 N 3201.38 -4.26352 5.46073 0
M  V30 34079 N 3203.18 -3.59485 4.32119 0
M  V30 34080 H 3195.33 -0.428007 2.08043 0
M  V30 34081 H 3197.59 -0.251856 0.913933 0
M  V30 34082 H 3197.3 -1.49134 3.18515 0
M  V30 34083 H 3197.17 -2.9962 2.29145 0
M  V30 34084 H 3199.56 -2.60944 1.37812 0
M  V30 34085 H 3199.64 -1.10549 2.30678 0
M  V30 34086 H 3199.28 -2.43901 4.45505 0
M  V30 34087 H 3199.21 -3.93846 3.49561 0
M  V30 34088 H 3201.7 -2.54227 2.79602 0
M  V30 34089 H 3202.02 -4.71921 6.11972 0
M  V30 34090 H 3200.36 -4.24962 5.49939 0
M  V30 34091 H 3203.55 -3.08623 3.51951 0
M  V30 34092 H 3203.72 -4.07911 5.035 0
M  V30 34093 N 3197.13 -1.07536 -1.15212 0
M  V30 34094 C 3198.09 -0.701275 -2.18208 0
M  V30 34095 C 3199.09 0.259432 -1.58693 0
M  V30 34096 O 3200.28 0.0401438 -1.74154 0
M  V30 34097 C 3197.42 -0.0339302 -3.40883 0
M  V30 34098 H 3198.61 -1.61319 -2.52817 0
M  V30 34099 H 3196.16 -0.872127 -1.29706 0
M  V30 34100 H 3196.9 0.890132 -3.11845 0
M  V30 34101 H 3196.68 -0.724928 -3.8534 0
M  V30 34102 H 3198.17 0.213079 -4.17056 0
M  V30 34103 N 3198.61 1.32084 -0.85974 0
M  V30 34104 C 3199.54 2.31248 -0.323543 0
M  V30 34105 C 3200.52 1.59904 0.580057 0
M  V30 34106 O 3201.7 1.87673 0.499232 0
M  V30 34107 C 3198.83 3.43902 0.4846 0
M  V30 34108 C 3197.79 4.26764 -0.325008 0
M  V30 34109 C 3197.11 5.3123 0.608187 0
M  V30 34110 C 3198.41 4.98661 -1.55353 0
M  V30 34111 H 3200.11 2.76344 -1.15214 0
M  V30 34112 H 3197.65 1.32855 -0.555465 0
M  V30 34113 H 3199.61 4.12318 0.870166 0
M  V30 34114 H 3198.33 2.97547 1.34661 0
M  V30 34115 H 3196.99 3.60002 -0.692391 0
M  V30 34116 H 3196.64 4.81126 1.46719 0
M  V30 34117 H 3196.34 5.87558 0.0704538 0
M  V30 34118 H 3197.86 6.02507 0.990819 0
M  V30 34119 H 3199.28 5.5973 -1.23997 0
M  V30 34120 H 3197.67 5.64737 -2.02957 0
M  V30 34121 H 3198.74 4.26233 -2.312 0
M  V30 34122 N 3200.09 0.618171 1.4497 0
M  V30 34123 C 3201.33 0.117285 2.01759 0
M  V30 34124 C 3201.66 -1.2606 1.48775 0
M  V30 34125 O 3200.93 -1.83489 0.686184 0
M  V30 34126 H 3199.51 0.0403676 0.745908 0
M  V30 34127 H 3202.17 0.801954 1.77636 0
M  V30 34128 H 3201.26 0.0751026 3.1201 0
M  V30 34129 N 3201.56 -1.53481 0.357946 0
M  V30 34130 C 3202.5 -2.21828 -0.535514 0
M  V30 34131 C 3203.48 -1.20744 -1.08902 0
M  V30 34132 O 3204.66 -1.49618 -1.14659 0
M  V30 34133 C 3201.79 -2.90701 -1.73812 0
M  V30 34134 C 3200.83 -4.05794 -1.31276 0
M  V30 34135 S 3201.67 -5.3454 -0.320454 0
M  V30 34136 C 3202.82 -6.06923 -1.52956 0
M  V30 34137 H 3203.05 -2.97266 0.0449568 0
M  V30 34138 H 3200.59 -1.53745 0.142036 0
M  V30 34139 H 3202.55 -3.30998 -2.42797 0
M  V30 34140 H 3201.21 -2.15002 -2.28983 0
M  V30 34141 H 3200.4 -4.52972 -2.20981 0
M  V30 34142 H 3200 -3.67349 -0.70221 0
M  V30 34143 H 3202.29 -6.31191 -2.4618 0
M  V30 34144 H 3203.24 -6.99515 -1.09931 0
M  V30 34145 H 3203.64 -5.37268 -1.73215 0
M  V30 34146 N 3203.04 -0.0869173 -1.5736 0
M  V30 34147 C 3203.99 0.885398 -2.10106 0
M  V30 34148 C 3204.98 1.24911 -1.0142 0
M  V30 34149 O 3206.17 1.22556 -1.27707 0
M  V30 34150 C 3203.3 2.14747 -2.6784 0
M  V30 34151 C 3202.38 1.80956 -3.83557 0
M  V30 34152 N 3202.77 1.17684 -4.91919 0
M  V30 34153 C 3201.07 2.10616 -3.93137 0
M  V30 34154 C 3201.77 1.02322 -5.7263 0
M  V30 34155 N 3200.75 1.53787 -5.21393 0
M  V30 34156 H 3204.55 0.392128 -2.91272 0
M  V30 34157 H 3202.07 0.116538 -1.61981 0
M  V30 34158 H 3204.06 2.85339 -3.03953 0
M  V30 34159 H 3202.72 2.64648 -1.88127 0
M  V30 34160 H 3203.73 0.844641 -5.10966 0
M  V30 34161 H 3200.41 2.62788 -3.24421 0
M  V30 34162 H 3201.8 0.529053 -6.69814 0
M  V30 34163 N 3204.52 1.5649 0.186734 0
M  V30 34164 C 3205.43 1.98421 1.25165 0
M  V30 34165 C 3206.45 0.89315 1.49328 0
M  V30 34166 O 3207.62 1.19957 1.61779 0
M  V30 34167 C 3204.69 2.32243 2.57418 0
M  V30 34168 C 3203.75 3.55099 2.41254 0
M  V30 34169 C 3202.98 3.87299 3.67199 0
M  V30 34170 O 3203.2 3.20673 4.71726 0
M  V30 34171 O 3202.14 4.80701 3.62229 0
M  V30 34172 H 3205.96 2.89245 0.925784 0
M  V30 34173 H 3203.55 1.44155 0.392395 0
M  V30 34174 H 3205.43 2.55036 3.35462 0
M  V30 34175 H 3204.11 1.44585 2.89615 0
M  V30 34176 H 3203.01 3.37543 1.61293 0
M  V30 34177 H 3204.35 4.4325 2.13986 0
M  V30 34178 N 3206 -0.45475 1.50897 0
M  V30 34179 C 3207.23 -1.22846 1.66482 0
M  V30 34180 C 3207.64 -1.85435 0.354874 0
M  V30 34181 O 3207 -1.69957 -0.664901 0
M  V30 34182 C 3207.05 -2.32527 2.76791 0
M  V30 34183 O 3206.77 -1.72502 4.02709 0
M  V30 34184 C 3208.27 -3.2312 3.03494 0
M  V30 34185 H 3205.49 -0.370922 0.559158 0
M  V30 34186 H 3208.04 -0.540949 1.97216 0
M  V30 34187 H 3206.19 -2.97025 2.48706 0
M  V30 34188 H 3206.6 -2.44855 4.63839 0
M  V30 34189 H 3208.08 -3.96253 3.84301 0
M  V30 34190 H 3208.56 -3.82861 2.15207 0
M  V30 34191 H 3209.16 -2.64342 3.33172 0
M  V30 34192 N 3207.48 -1.40749 -0.709041 0
M  V30 34193 C 3208.72 -1.39587 -1.47116 0
M  V30 34194 C 3209.06 -0.000279458 -1.942 0
M  V30 34195 O 3208.33 0.969563 -1.68611 0
M  V30 34196 C 3208.61 -2.39103 -2.69261 0
M  V30 34197 C 3208.47 -3.87714 -2.2803 0
M  V30 34198 C 3209.79 -2.36062 -3.71434 0
M  V30 34199 H 3206.9 -0.508346 -0.533623 0
M  V30 34200 H 3209.55 -1.71931 -0.808687 0
M  V30 34201 H 3207.7 -2.11653 -3.25784 0
M  V30 34202 H 3209.37 -4.26017 -1.76938 0
M  V30 34203 H 3207.61 -4.03231 -1.59959 0
M  V30 34204 H 3208.28 -4.52871 -3.15613 0
M  V30 34205 H 3210.76 -2.60391 -3.24555 0
M  V30 34206 H 3209.63 -3.07729 -4.54526 0
M  V30 34207 H 3209.9 -1.37451 -4.2019 0
M  V30 34208 N 3208.96 0.941933 -1.26354 0
M  V30 34209 C 3209.89 2.04052 -1.02167 0
M  V30 34210 C 3210.87 1.62513 0.0533229 0
M  V30 34211 O 3212.05 1.8829 -0.0889394 0
M  V30 34212 C 3209.18 3.34254 -0.546966 0
M  V30 34213 C 3208.22 3.94765 -1.6144 0
M  V30 34214 S 3209.06 4.29138 -3.20313 0
M  V30 34215 C 3210.21 5.62441 -2.7461 0
M  V30 34216 H 3210.45 2.24255 -1.95184 0
M  V30 34217 H 3207.98 1.08322 -1.10026 0
M  V30 34218 H 3209.94 4.09546 -0.279745 0
M  V30 34219 H 3208.6 3.11996 0.362915 0
M  V30 34220 H 3207.79 4.88679 -1.23324 0
M  V30 34221 H 3207.39 3.26004 -1.83296 0
M  V30 34222 H 3209.68 6.41119 -2.19026 0
M  V30 34223 H 3210.63 6.05442 -3.67213 0
M  V30 34224 H 3211.04 5.22283 -2.14199 0
M  V30 34225 N 3210.43 1.08146 1.1464 0
M  V30 34226 C 3211.34 0.720707 2.23255 0
M  V30 34227 C 3212.36 -0.271618 1.71867 0
M  V30 34228 O 3213.54 -0.116231 2.01064 0
M  V30 34229 C 3210.6 0.132603 3.46446 0
M  V30 34230 C 3209.66 1.1792 4.12787 0
M  V30 34231 C 3208.89 0.619065 5.30097 0
M  V30 34232 O 3209.12 -0.562318 5.67621 0
M  V30 34233 O 3208.05 1.36784 5.86152 0
M  V30 34234 H 3211.88 1.62672 2.5646 0
M  V30 34235 H 3209.46 0.854953 1.22519 0
M  V30 34236 H 3211.34 -0.192696 4.20959 0
M  V30 34237 H 3210.02 -0.746607 3.14972 0
M  V30 34238 H 3208.93 1.55699 3.4016 0
M  V30 34239 H 3210.26 2.03059 4.48361 0
M  V30 34240 N 3211.91 -1.31626 0.866732 0
M  V30 34241 C 3213.16 -1.97116 0.476766 0
M  V30 34242 C 3213.49 -1.68367 -0.967783 0
M  V30 34243 O 3212.77 -0.978407 -1.681 0
M  V30 34244 C 3213.05 -3.5261 0.730623 0
M  V30 34245 C 3212.9 -3.90944 2.22447 0
M  V30 34246 C 3214.22 -4.39668 0.194957 0
M  V30 34247 H 3211.34 -0.715996 0.174695 0
M  V30 34248 H 3213.98 -1.55808 1.08738 0
M  V30 34249 H 3212.13 -3.87927 0.210902 0
M  V30 34250 H 3213.8 -3.65745 2.8112 0
M  V30 34251 H 3212.05 -3.39668 2.6983 0
M  V30 34252 H 3212.72 -4.99349 2.35275 0
M  V30 34253 H 3215.19 -4.11156 0.639551 0
M  V30 34254 H 3214.07 -5.47426 0.402054 0
M  V30 34255 H 3214.33 -4.32781 -0.902944 0
M  V30 34256 N 3213.39 -0.62585 -1.4464 0
M  V30 34257 C 3214.32 0.131441 -2.27821 0
M  V30 34258 C 3215.3 0.8563 -1.38225 0
M  V30 34259 O 3216.48 0.861464 -1.67663 0
M  V30 34260 C 3213.61 1.19198 -3.17032 0
M  V30 34261 C 3212.66 0.568241 -4.22698 0
M  V30 34262 S 3213.49 -0.637705 -5.31689 0
M  V30 34263 C 3214.65 0.422979 -6.24469 0
M  V30 34264 H 3214.88 -0.574228 -2.91702 0
M  V30 34265 H 3212.41 -0.41387 -1.4875 0
M  V30 34266 H 3214.37 1.79894 -3.68983 0
M  V30 34267 H 3213.03 1.86982 -2.52382 0
M  V30 34268 H 3212.22 1.36681 -4.85113 0
M  V30 34269 H 3211.83 0.0360186 -3.73983 0
M  V30 34270 H 3214.12 1.29702 -6.64969 0
M  V30 34271 H 3215.06 -0.165462 -7.07907 0
M  V30 34272 H 3215.47 0.746508 -5.59542 0
M  V30 34273 N 3214.87 1.53289 -0.36608 0
M  V30 34274 C 3216.11 2.01561 0.223788 0
M  V30 34275 C 3216.45 1.25288 1.48379 0
M  V30 34276 O 3215.72 0.346723 1.91385 0
M  V30 34277 C 3216 3.56395 0.515237 0
M  V30 34278 C 3215.86 4.4336 -0.758435 0
M  V30 34279 C 3217.18 4.19976 1.3156 0
M  V30 34280 H 3214.3 0.73266 0.0798623 0
M  V30 34281 H 3216.94 1.83544 -0.49107 0
M  V30 34282 H 3215.09 3.71878 1.12422 0
M  V30 34283 H 3216.76 4.39672 -1.39592 0
M  V30 34284 H 3215 4.11308 -1.37869 0
M  V30 34285 H 3215.67 5.49644 -0.509463 0
M  V30 34286 H 3218.15 4.08328 0.800442 0
M  V30 34287 H 3217.03 5.28339 1.48827 0
M  V30 34288 H 3217.29 3.76073 2.32426 0
M  V30 34289 N 3216.35 0.0952613 1.57312 0
M  V30 34290 C 3217.29 -0.881129 2.15265 0
M  V30 34291 C 3218.29 -1.29206 1.09555 0
M  V30 34292 O 3219.49 -1.26657 1.27899 0
M  V30 34293 H 3215.87 -0.302179 0.688616 0
M  V30 34294 H 3217.84 -0.367642 2.96127 0
M  V30 34295 C 3216.59 -2.13048 2.74783 0
M  V30 34296 H 3215.91 -1.82317 3.5581 0
M  V30 34297 H 3217.35 -2.79425 3.189 0
M  V30 34298 C 3215.81 -2.90462 1.70686 0
M  V30 34299 O 3216.34 -3.85009 1.14589 0
M  V30 34300 N 3214.55 -2.54005 1.41173 0
M  V30 34301 H 3214.09 -1.77189 1.86981 0
M  V30 34302 H 3214.05 -3.06101 0.717613 0
M  V30 34303 N 3217.82 -1.56587 -0.178432 0
M  V30 34304 C 3219.07 -1.81858 -0.897531 0
M  V30 34305 C 3219.4 -0.671987 -1.82203 0
M  V30 34306 O 3218.68 0.326501 -1.9174 0
M  V30 34307 C 3218.96 -3.1748 -1.69937 0
M  V30 34308 C 3218.81 -4.42656 -0.798467 0
M  V30 34309 C 3220.13 -3.49967 -2.66854 0
M  V30 34310 H 3217.25 -0.661544 -0.324851 0
M  V30 34311 H 3219.89 -1.8929 -0.164073 0
M  V30 34312 H 3218.04 -3.11275 -2.32466 0
M  V30 34313 H 3219.72 -4.60922 -0.186599 0
M  V30 34314 H 3217.96 -4.3367 -0.106105 0
M  V30 34315 H 3218.63 -5.34086 -1.39486 0
M  V30 34316 H 3221.11 -3.56579 -2.14453 0
M  V30 34317 H 3219.98 -4.45951 -3.20029 0
M  V30 34318 H 3220.24 -2.74307 -3.4671 0
M  V30 34319 N 3219.3 0.446741 -1.51136 0
M  V30 34320 C 3220.23 1.54913 -1.74712 0
M  V30 34321 C 3221.21 1.59292 -0.596656 0
M  V30 34322 O 3222.4 1.75171 -0.838386 0
M  V30 34323 C 3219.53 2.93067 -1.86358 0
M  V30 34324 C 3218.48 3.0355 -3.0173 0
M  V30 34325 C 3217.81 4.43591 -2.98548 0
M  V30 34326 C 3219.11 2.78502 -4.41853 0
M  V30 34327 H 3220.8 1.35435 -2.67016 0
M  V30 34328 H 3218.35 0.650108 -1.2849 0
M  V30 34329 H 3220.3 3.70138 -2.01435 0
M  V30 34330 H 3219.02 3.13755 -0.906942 0
M  V30 34331 H 3217.68 2.28917 -2.86343 0
M  V30 34332 H 3217.33 4.61233 -2.00681 0
M  V30 34333 H 3217.03 4.51537 -3.76015 0
M  V30 34334 H 3218.56 5.22649 -3.15705 0
M  V30 34335 H 3219.97 3.45311 -4.57639 0
M  V30 34336 H 3218.37 2.97868 -5.20955 0
M  V30 34337 H 3219.44 1.74174 -4.52539 0
M  V30 34338 N 3220.78 1.41123 0.701567 0
M  V30 34339 C 3222.03 1.39881 1.45869 0
M  V30 34340 C 3222.35 0.00672197 1.94999 0
M  V30 34341 O 3221.62 -0.95044 1.71299 0
M  V30 34342 H 3220.2 0.514866 0.541222 0
M  V30 34343 H 3222.86 1.76307 0.830772 0
M  V30 34344 H 3221.96 2.08234 2.32476 0
M  V30 34345 N 3222.26 -0.935219 1.26852 0
M  V30 34346 C 3223.51 -1.67876 1.12525 0
M  V30 34347 C 3223.83 -1.92173 -0.33086 0
M  V30 34348 O 3223.1 -1.52265 -1.23256 0
M  V30 34349 H 3221.68 -0.622162 0.413429 0
M  V30 34350 H 3224.34 -1.12337 1.59269 0
M  V30 34351 H 3223.43 -2.65006 1.64858 0
M  V30 34352 N 3223.74 -1.08752 -1.14065 0
M  V30 34353 C 3224.98 -0.817731 -1.84818 0
M  V30 34354 C 3225.31 0.658456 -1.83547 0
M  V30 34355 O 3224.58 1.47748 -1.28636 0
M  V30 34356 H 3223.16 -0.299514 -0.684325 0
M  V30 34357 H 3225.82 -1.37423 -1.38206 0
M  V30 34358 H 3224.91 -1.16506 -2.89539 0
M  V30 34359 N 3225.21 1.31165 -0.873701 0
M  V30 34360 C 3226.12 2.32185 -0.335766 0
M  V30 34361 C 3227.14 1.6487 0.55623 0
M  V30 34362 O 3228.32 1.96261 0.452053 0
M  V30 34363 C 3225.38 3.43757 0.450761 0
M  V30 34364 C 3224.44 4.26723 -0.46964 0
M  V30 34365 C 3223.68 5.32968 0.279445 0
M  V30 34366 O 3223.9 5.50131 1.50705 0
M  V30 34367 O 3222.83 6.00795 -0.364625 0
M  V30 34368 H 3226.66 2.80125 -1.17319 0
M  V30 34369 H 3224.24 1.35131 -0.637186 0
M  V30 34370 H 3226.13 4.11753 0.896509 0
M  V30 34371 H 3224.8 2.97973 1.26467 0
M  V30 34372 H 3223.71 3.61467 -0.963966 0
M  V30 34373 H 3225.04 4.76083 -1.24925 0
M  V30 34374 N 3226.69 0.633512 1.44307 0
M  V30 34375 C 3227.92 0.144384 2.06897 0
M  V30 34376 C 3228.34 -1.17297 1.47047 0
M  V30 34377 O 3227.7 -1.72012 0.572836 0
M  V30 34378 C 3227.75 0.0456957 3.60571 0
M  V30 34379 O 3226.85 -0.997612 4.00152 0
M  V30 34380 H 3226.19 0.0858614 0.658425 0
M  V30 34381 H 3228.72 0.870866 1.85141 0
M  V30 34382 H 3228.73 -0.144106 4.07745 0
M  V30 34383 H 3227.41 1.00747 4.03513 0
M  V30 34384 H 3225.99 -0.782188 3.64604 0
M  V30 34385 N 3228.17 -1.53093 0.374204 0
M  V30 34386 C 3229.12 -2.26001 -0.468186 0
M  V30 34387 C 3230.09 -1.27011 -1.07039 0
M  V30 34388 O 3231.27 -1.55811 -1.10126 0
M  V30 34389 C 3228.41 -3.05899 -1.59749 0
M  V30 34390 C 3227.53 -4.19795 -1.01962 0
M  V30 34391 C 3226.66 -4.87117 -2.11873 0
M  V30 34392 C 3225.7 -5.9303 -1.51597 0
M  V30 34393 N 3224.84 -6.54009 -2.55376 0
M  V30 34394 H 3229.68 -2.9757 0.160035 0
M  V30 34395 H 3227.21 -1.4682 0.0907454 0
M  V30 34396 H 3229.17 -3.50503 -2.26282 0
M  V30 34397 H 3227.8 -2.36569 -2.19624 0
M  V30 34398 H 3226.85 -3.79615 -0.244319 0
M  V30 34399 H 3228.17 -4.95879 -0.539002 0
M  V30 34400 H 3227.32 -5.34948 -2.86209 0
M  V30 34401 H 3226.06 -4.10524 -2.6329 0
M  V30 34402 H 3225.06 -5.44553 -0.757795 0
M  V30 34403 H 3226.29 -6.71548 -1.00994 0
M  V30 34404 H 3224.23 -5.80264 -3.0599 0
M  V30 34405 H 3224.15 -7.25659 -2.12026 0
M  V30 34406 H 3225.42 -7.06487 -3.29388 0
M  V30 34407 N 3229.65 -0.103603 -1.57259 0
M  V30 34408 C 3230.56 0.866289 -2.1802 0
M  V30 34409 C 3231.57 1.30402 -1.15201 0
M  V30 34410 O 3232.75 1.37019 -1.47607 0
M  V30 34411 C 3229.82 2.10429 -2.75537 0
M  V30 34412 C 3228.88 1.71995 -3.9334 0
M  V30 34413 C 3228.11 2.89893 -4.48105 0
M  V30 34414 O 3228.33 4.0487 -4.01791 0
M  V30 34415 O 3227.27 2.67867 -5.39009 0
M  V30 34416 H 3231.09 0.379285 -3.01322 0
M  V30 34417 H 3228.68 0.121202 -1.48908 0
M  V30 34418 H 3230.56 2.82965 -3.12264 0
M  V30 34419 H 3229.23 2.58165 -1.95275 0
M  V30 34420 H 3228.14 0.96613 -3.61409 0
M  V30 34421 H 3229.47 1.29014 -4.74991 0
M  V30 34422 N 3231.13 1.56679 0.170126 0
M  V30 34423 C 3232.38 1.81254 0.884871 0
M  V30 34424 C 3232.69 0.681056 1.8336 0
M  V30 34425 O 3233.89 0.811767 2.5908 0
M  V30 34426 C 3232.35 3.21175 1.62403 0
M  V30 34427 C 3231.96 4.42195 0.718869 0
M  V30 34428 C 3233.7 3.55042 2.32692 0
M  V30 34429 C 3231.61 5.73138 1.45832 0
M  V30 34430 H 3230.54 0.675905 0.334168 0
M  V30 34431 H 3233.19 1.82982 0.137786 0
M  V30 34432 H 3231.57 3.13767 2.41591 0
M  V30 34433 H 3232.75 4.60786 -0.0361331 0
M  V30 34434 H 3231.06 4.16211 0.125561 0
M  V30 34435 H 3233.66 4.50119 2.88613 0
M  V30 34436 H 3234 2.79979 3.08087 0
M  V30 34437 H 3234.53 3.64008 1.60447 0
M  V30 34438 H 3231.27 6.51233 0.746685 0
M  V30 34439 H 3230.79 5.58522 2.18662 0
M  V30 34440 H 3232.47 6.15133 2.00549 0
M  V30 34441 N 3232.6 -0.43872 1.5137 0
M  V30 34442 C 3233.83 -1.21074 1.67776 0
M  V30 34443 C 3234.25 -1.85048 0.374522 0
M  V30 34444 O 3233.6 -1.70652 -0.646837 0
M  V30 34445 C 3233.66 -2.29579 2.79242 0
M  V30 34446 O 3233.38 -1.68221 4.04516 0
M  V30 34447 C 3234.88 -3.19883 3.06904 0
M  V30 34448 H 3232.1 -0.364971 0.563061 0
M  V30 34449 H 3234.64 -0.520001 1.97778 0
M  V30 34450 H 3232.8 -2.94371 2.51842 0
M  V30 34451 H 3233.21 -2.39922 4.6641 0
M  V30 34452 H 3234.68 -3.92155 3.88483 0
M  V30 34453 H 3235.16 -3.80557 2.19256 0
M  V30 34454 H 3235.77 -2.60793 3.35957 0
M  V30 34455 N 3234.08 -1.41493 -0.694073 0
M  V30 34456 C 3235.33 -1.40931 -1.45412 0
M  V30 34457 C 3235.66 -0.0189643 -1.94491 0
M  V30 34458 O 3234.91 0.96942 -1.70002 0
M  V30 34459 C 3235.21 -2.36402 -2.68046 0
M  V30 34460 C 3234.88 -3.83209 -2.37616 0
M  V30 34461 C 3233.54 -4.23202 -2.29028 0
M  V30 34462 C 3235.89 -4.75892 -2.12547 0
M  V30 34463 C 3233.22 -5.53883 -1.93468 0
M  V30 34464 C 3235.57 -6.06896 -1.78495 0
M  V30 34465 C 3234.24 -6.45908 -1.68403 0
M  V30 34466 H 3233.51 -0.515703 -0.532101 0
M  V30 34467 H 3236.15 -1.74302 -0.793162 0
M  V30 34468 H 3234.46 -1.96291 -3.39083 0
M  V30 34469 H 3236.15 -2.3324 -3.2619 0
M  V30 34470 H 3232.74 -3.51535 -2.45196 0
M  V30 34471 H 3236.93 -4.45797 -2.18126 0
M  V30 34472 H 3232.18 -5.8299 -1.84209 0
M  V30 34473 H 3236.36 -6.78212 -1.58117 0
M  V30 34474 H 3233.99 -7.47081 -1.40618 0
M  V30 34475 N 3235.56 0.928479 -1.27346 0
M  V30 34476 C 3236.97 1.49101 -1.12364 0
M  V30 34477 C 3237.32 1.9402 0.291632 0
M  V30 34478 O 3236.45 1.81106 1.18446 0
M  V30 34479 C 3237.04 2.70978 -2.03363 0
M  V30 34480 C 3235.6 3.23458 -1.92489 0
M  V30 34481 C 3234.75 1.96197 -1.95965 0
M  V30 34482 H 3237.7 0.742665 -1.4025 0
M  V30 34483 H 3237.72 3.45733 -1.58898 0
M  V30 34484 H 3237.23 2.38254 -3.0636 0
M  V30 34485 H 3235.33 3.60942 -0.924739 0
M  V30 34486 H 3235.45 3.89704 -2.78688 0
M  V30 34487 H 3233.81 2.12654 -1.40179 0
M  V30 34488 H 3234.59 1.65787 -3.00615 0
M  V30 34489 N 3237.04 1.09355 1.13486 0
M  V30 34490 C 3237.99 0.732289 2.18875 0
M  V30 34491 C 3238.96 -0.286146 1.63617 0
M  V30 34492 O 3240.14 -0.167948 1.90059 0
M  V30 34493 C 3237.28 0.158218 3.44737 0
M  V30 34494 C 3236.39 1.23061 4.14102 0
M  V30 34495 C 3235.53 0.619365 5.27577 0
M  V30 34496 C 3234.57 1.67311 5.8879 0
M  V30 34497 N 3233.7 1.08295 6.93698 0
M  V30 34498 H 3238.54 1.63526 2.49125 0
M  V30 34499 H 3236.08 0.817017 1.22324 0
M  V30 34500 H 3238.04 -0.192415 4.16756 0
M  V30 34501 H 3236.67 -0.708026 3.14939 0
M  V30 34502 H 3235.72 1.69853 3.40373 0
M  V30 34503 H 3237.03 2.02873 4.5568 0
M  V30 34504 H 3236.19 0.217535 6.0631 0
M  V30 34505 H 3234.93 -0.210313 4.87246 0
M  V30 34506 H 3233.93 2.08449 5.08752 0
M  V30 34507 H 3235.16 2.50544 6.31193 0
M  V30 34508 H 3233.1 0.274542 6.55425 0
M  V30 34509 H 3233.02 1.81805 7.33814 0
M  V30 34510 H 3234.29 0.707304 7.76284 0
M  V30 34511 N 3238.52 -1.307 0.880644 0
M  V30 34512 C 3239.45 -2.26364 0.288853 0
M  V30 34513 C 3240.43 -1.51592 -0.588109 0
M  V30 34514 O 3241.61 -1.80625 -0.539165 0
M  V30 34515 C 3238.74 -3.33522 -0.589973 0
M  V30 34516 C 3237.79 -4.25947 0.217077 0
M  V30 34517 S 3238.62 -5.10959 1.60255 0
M  V30 34518 C 3239.77 -6.21627 0.730132 0
M  V30 34519 H 3240.01 -2.76211 1.09976 0
M  V30 34520 H 3237.54 -1.38629 0.679805 0
M  V30 34521 H 3239.5 -3.95728 -1.09129 0
M  V30 34522 H 3238.16 -2.82408 -1.37493 0
M  V30 34523 H 3237.35 -5.01957 -0.453392 0
M  V30 34524 H 3236.95 -3.68293 0.650868 0
M  V30 34525 H 3239.25 -6.77478 -0.0547453 0
M  V30 34526 H 3240.19 -6.92849 1.46169 0
M  V30 34527 H 3240.6 -5.63739 0.292953 0
M  V30 34528 N 3240 -0.641156 -1.43969 0
M  V30 34529 C 3241.24 -0.149886 -2.02245 0
M  V30 34530 C 3241.57 1.22869 -1.50389 0
M  V30 34531 O 3240.85 1.81772 -0.692035 0
M  V30 34532 C 3241.13 -0.147512 -3.59798 0
M  V30 34533 C 3240.99 -1.55914 -4.21913 0
M  V30 34534 C 3242.3 0.52259 -4.36986 0
M  V30 34535 H 3239.42 -0.0559403 -0.734874 0
M  V30 34536 H 3242.07 -0.819543 -1.71416 0
M  V30 34537 H 3240.22 0.422721 -3.86193 0
M  V30 34538 H 3241.89 -2.17903 -4.0659 0
M  V30 34539 H 3240.13 -2.11004 -3.79024 0
M  V30 34540 H 3240.8 -1.50943 -5.30962 0
M  V30 34541 H 3243.28 0.0375494 -4.16083 0
M  V30 34542 H 3242.15 0.493476 -5.46677 0
M  V30 34543 H 3242.41 1.59468 -4.12338 0
M  V30 34544 N 3241.47 1.52892 -0.382318 0
M  V30 34545 C 3242.44 2.24858 0.444041 0
M  V30 34546 C 3243.44 1.26241 0.995982 0
M  V30 34547 O 3244.63 1.50392 0.879087 0
M  V30 34548 C 3241.76 2.99824 1.62229 0
M  V30 34549 H 3242.95 2.99323 -0.185915 0
M  V30 34550 H 3240.5 1.55722 -0.134302 0
M  V30 34551 H 3241.24 2.29642 2.28987 0
M  V30 34552 H 3241.02 3.72199 1.2333 0
M  V30 34553 H 3242.51 3.54485 2.2075 0
M  V30 34554 N 3242.95 0.111941 1.57202 0
M  V30 34555 C 3243.9 -0.858248 2.16187 0
M  V30 34556 C 3244.89 -1.28037 1.10919 0
M  V30 34557 O 3246.1 -1.25293 1.29235 0
M  V30 34558 H 3242.47 -0.294858 0.691782 0
M  V30 34559 H 3244.45 -0.336213 2.965 0
M  V30 34560 C 3243.19 -2.10122 2.77027 0
M  V30 34561 H 3242.52 -1.78533 3.57723 0
M  V30 34562 H 3243.96 -2.76027 3.21846 0
M  V30 34563 C 3242.42 -2.88635 1.73757 0
M  V30 34564 O 3242.95 -3.83772 1.18666 0
M  V30 34565 N 3241.15 -2.52493 1.4386 0
M  V30 34566 H 3240.7 -1.75196 1.88849 0
M  V30 34567 H 3240.66 -3.05322 0.750039 0
M  V30 34568 N 3244.43 -1.56767 -0.161814 0
M  V30 34569 C 3245.67 -1.8433 -0.883277 0
M  V30 34570 C 3246.03 -0.694196 -1.79011 0
M  V30 34571 O 3247.23 -0.850506 -2.5499 0
M  V30 34572 C 3245.51 -3.17036 -1.64994 0
M  V30 34573 S 3247.06 -3.6611 -2.41886 0
M  V30 34574 H 3243.88 -0.646614 -0.295655 0
M  V30 34575 H 3246.48 -1.94967 -0.144256 0
M  V30 34576 H 3245.19 -3.98651 -0.974955 0
M  V30 34577 H 3244.72 -3.09365 -2.43016 0
M  V30 34578 H 3246.73 -3.34193 -3.66782 0
M  V30 34579 N 3245.91 0.430686 -1.51601 0
M  V30 34580 C 3247.15 1.18896 -1.66262 0
M  V30 34581 C 3247.51 1.88324 -0.37391 0
M  V30 34582 O 3248.71 2.65862 -0.396366 0
M  V30 34583 C 3246.98 2.17373 -2.83697 0
M  V30 34584 S 3248.54 3.01598 -3.18723 0
M  V30 34585 H 3245.36 0.403102 -0.585688 0
M  V30 34586 H 3247.96 0.479504 -1.89528 0
M  V30 34587 H 3246.67 1.65018 -3.75762 0
M  V30 34588 H 3246.2 2.9289 -2.62639 0
M  V30 34589 H 3248.21 4.19086 -2.65672 0
M  V30 34590 N 3247.39 1.4186 0.686559 0
M  V30 34591 C 3248.8 1.24527 0.998261 0
M  V30 34592 C 3249 0.141043 2.01006 0
M  V30 34593 O 3248.06 -0.491604 2.47668 0
M  V30 34594 C 3249.37 2.59789 1.51428 0
M  V30 34595 C 3250.92 2.67046 1.63265 0
M  V30 34596 C 3251.39 4.02646 2.18266 0
M  V30 34597 N 3252.88 4.04539 2.25615 0
M  V30 34598 C 3253.62 5.06269 2.69221 0
M  V30 34599 N 3253.12 6.18385 3.12364 0
M  V30 34600 N 3254.91 4.93628 2.68865 0
M  V30 34601 H 3247.06 2.12394 0.0164452 0
M  V30 34602 H 3249.32 0.945424 0.0698447 0
M  V30 34603 H 3249.03 3.41389 0.845366 0
M  V30 34604 H 3248.9 2.82898 2.49497 0
M  V30 34605 H 3251.29 1.85799 2.29266 0
M  V30 34606 H 3251.37 2.47737 0.637177 0
M  V30 34607 H 3251.01 4.84345 1.52879 0
M  V30 34608 H 3250.94 4.193 3.18583 0
M  V30 34609 H 3253.44 3.23594 1.9518 0
M  V30 34610 H 3253.75 6.9187 3.44289 0
M  V30 34611 H 3252.09 6.21908 3.10251 0
M  V30 34612 H 3255.28 4.05119 2.34514 0
M  V30 34613 H 3255.46 5.73045 3.02529 0
M  V30 34614 N 3248.86 -0.921712 1.27837 0
M  V30 34615 C 3250.11 -1.67003 1.14526 0
M  V30 34616 C 3250.44 -1.9205 -0.307742 0
M  V30 34617 O 3249.69 -1.5132 -1.241 0
M  V30 34618 C 3249.99 -3.03922 1.88059 0
M  V30 34619 C 3249.66 -2.98564 3.37891 0
M  V30 34620 C 3248.32 -2.9681 3.78757 0
M  V30 34621 C 3250.67 -2.89406 4.33467 0
M  V30 34622 C 3248 -2.83689 5.13554 0
M  V30 34623 C 3250.35 -2.77826 5.68327 0
M  V30 34624 C 3249.02 -2.74425 6.08479 0
M  V30 34625 H 3248.29 -0.611109 0.419079 0
M  V30 34626 H 3250.93 -1.07446 1.58517 0
M  V30 34627 H 3249.24 -3.67218 1.36594 0
M  V30 34628 H 3250.94 -3.6071 1.75183 0
M  V30 34629 H 3247.53 -3.0072 3.05394 0
M  V30 34630 H 3251.71 -2.89855 4.02862 0
M  V30 34631 H 3246.97 -2.79446 5.43801 0
M  V30 34632 H 3251.14 -2.69706 6.42053 0
M  V30 34633 H 3248.77 -2.64015 7.12882 0
M  V30 34634 N 3250.34 -1.09956 -1.12905 0
M  V30 34635 C 3251.27 -0.765837 -2.20584 0
M  V30 34636 C 3252.25 0.258959 -1.68117 0
M  V30 34637 O 3253.44 0.125819 -1.93792 0
M  V30 34638 C 3250.57 -0.191496 -3.46772 0
M  V30 34639 C 3249.52 -1.14642 -4.12361 0
M  V30 34640 C 3248.85 -0.43352 -5.3294 0
M  V30 34641 C 3250.15 -2.49104 -4.59069 0
M  V30 34642 H 3251.84 -1.66616 -2.48756 0
M  V30 34643 H 3249.39 -0.802555 -1.19562 0
M  V30 34644 H 3251.34 0.0540795 -4.21365 0
M  V30 34645 H 3250.06 0.744046 -3.18012 0
M  V30 34646 H 3248.72 -1.37737 -3.39741 0
M  V30 34647 H 3248.37 0.506334 -5.00445 0
M  V30 34648 H 3248.07 -1.07028 -5.77771 0
M  V30 34649 H 3249.6 -0.196374 -6.10284 0
M  V30 34650 H 3251.01 -2.30186 -5.25059 0
M  V30 34651 H 3249.41 -3.08619 -5.1466 0
M  V30 34652 H 3250.48 -3.09466 -3.73308 0
M  V30 34653 N 3251.82 1.30231 -0.887563 0
M  V30 34654 C 3253.06 1.9783 -0.514052 0
M  V30 34655 C 3253.42 1.68516 0.920122 0
M  V30 34656 O 3254.62 2.2947 1.39989 0
M  V30 34657 C 3252.9 3.4869 -0.784217 0
M  V30 34658 S 3254.45 4.35789 -0.513196 0
M  V30 34659 H 3251.27 0.684818 -0.191169 0
M  V30 34660 H 3253.87 1.58289 -1.14739 0
M  V30 34661 H 3252.58 3.67517 -1.82646 0
M  V30 34662 H 3252.11 3.93156 -0.138537 0
M  V30 34663 H 3254.12 4.91963 0.647069 0
M  V30 34664 N 3253.3 0.648782 1.43627 0
M  V30 34665 C 3254.53 0.167738 2.05918 0
M  V30 34666 C 3254.94 -1.17004 1.48684 0
M  V30 34667 O 3254.28 -1.73241 0.611014 0
M  V30 34668 C 3254.34 -0.00259195 3.595 0
M  V30 34669 C 3254.01 1.25978 4.39293 0
M  V30 34670 C 3255 2.18751 4.7164 0
M  V30 34671 C 3252.69 1.50012 4.79376 0
M  V30 34672 C 3254.68 3.33856 5.42973 0
M  V30 34673 C 3252.37 2.65411 5.50455 0
M  V30 34674 C 3253.37 3.57158 5.82175 0
M  V30 34675 O 3253.05 4.70542 6.51802 0
M  V30 34676 H 3252.79 0.0851379 0.670617 0
M  V30 34677 H 3255.34 0.888383 1.85194 0
M  V30 34678 H 3253.57 -0.778564 3.78781 0
M  V30 34679 H 3255.26 -0.44043 4.03503 0
M  V30 34680 H 3256.03 2.01423 4.41196 0
M  V30 34681 H 3251.9 0.794825 4.54096 0
M  V30 34682 H 3255.45 4.05489 5.67648 0
M  V30 34683 H 3251.35 2.82675 5.80315 0
M  V30 34684 H 3252.11 4.6975 6.70282 0
M  V30 34685 N 3254.78 -1.52688 0.390421 0
M  V30 34686 C 3256.02 -2.01593 -0.19141 0
M  V30 34687 C 3256.35 -1.27684 -1.46721 0
M  V30 34688 O 3255.61 -0.366006 -1.92247 0
M  V30 34689 C 3255.91 -3.5382 -0.504618 0
M  V30 34690 C 3255.57 -4.45747 0.679769 0
M  V30 34691 C 3254.23 -4.70595 1.00469 0
M  V30 34692 C 3256.59 -4.9998 1.47207 0
M  V30 34693 C 3253.91 -5.46925 2.12343 0
M  V30 34694 C 3256.27 -5.77534 2.58143 0
M  V30 34695 C 3254.93 -6.0066 2.91142 0
M  V30 34696 H 3254.2 -0.737682 -0.0700418 0
M  V30 34697 H 3256.85 -1.84077 0.527998 0
M  V30 34698 H 3255.15 -3.69415 -1.30536 0
M  V30 34699 H 3256.85 -3.89155 -0.967455 0
M  V30 34700 H 3253.44 -4.26571 0.416521 0
M  V30 34701 H 3257.62 -4.80707 1.23429 0
M  V30 34702 H 3252.88 -5.63057 2.38279 0
M  V30 34703 H 3257.05 -6.18558 3.19936 0
M  V30 34704 H 3254.68 -6.59589 3.77949 0
M  V30 34705 N 3256.25 -0.120276 -1.5714 0
M  V30 34706 C 3257.49 0.540486 -1.97125 0
M  V30 34707 C 3257.86 1.63766 -1.00223 0
M  V30 34708 O 3259.06 2.35741 -1.2915 0
M  V30 34709 C 3257.33 1.05827 -3.41373 0
M  V30 34710 S 3258.89 1.72737 -4.0337 0
M  V30 34711 H 3255.71 0.175634 -0.688966 0
M  V30 34712 H 3258.31 -0.205659 -1.94415 0
M  V30 34713 H 3257.01 0.248584 -4.09646 0
M  V30 34714 H 3256.54 1.83966 -3.47736 0
M  V30 34715 H 3258.56 3.01323 -3.94232 0
M  V30 34716 N 3257.73 1.56851 0.153498 0
M  V30 34717 C 3259.15 1.51369 0.505913 0
M  V30 34718 C 3259.35 0.827602 1.8372 0
M  V30 34719 O 3258.4 0.395408 2.49385 0
M  V30 34720 C 3259.72 2.96131 0.522217 0
M  V30 34721 C 3261.27 3.07034 0.608184 0
M  V30 34722 C 3261.74 4.53289 0.655212 0
M  V30 34723 N 3263.23 4.57607 0.717615 0
M  V30 34724 C 3263.97 5.6814 0.774877 0
M  V30 34725 N 3263.46 6.88259 0.791882 0
M  V30 34726 N 3265.26 5.56156 0.815262 0
M  V30 34727 H 3257.41 1.99852 -0.719225 0
M  V30 34728 H 3259.67 0.911225 -0.261482 0
M  V30 34729 H 3259.38 3.49557 -0.387656 0
M  V30 34730 H 3259.25 3.51735 1.36244 0
M  V30 34731 H 3261.64 2.53631 1.50848 0
M  V30 34732 H 3261.72 2.54485 -0.259059 0
M  V30 34733 H 3261.36 5.07328 -0.240898 0
M  V30 34734 H 3261.29 5.03614 1.53885 0
M  V30 34735 H 3263.78 3.71131 0.712035 0
M  V30 34736 H 3264.1 7.68251 0.837243 0
M  V30 34737 H 3262.44 6.90834 0.759864 0
M  V30 34738 H 3265.63 4.61229 0.799102 0
M  V30 34739 H 3265.8 6.42316 0.856424 0
M  V30 34740 N 3259.21 -0.42264 1.51827 0
M  V30 34741 C 3260.46 -1.16783 1.64452 0
M  V30 34742 C 3260.77 -1.91995 0.373826 0
M  V30 34743 O 3261.98 -2.68832 0.379668 0
M  V30 34744 C 3260.43 -2.12468 2.90492 0
M  V30 34745 C 3260.04 -1.42836 4.2462 0
M  V30 34746 C 3261.79 -2.87329 3.12477 0
M  V30 34747 C 3259.69 -2.3709 5.41795 0
M  V30 34748 H 3258.62 -0.439631 0.612569 0
M  V30 34749 H 3261.27 -0.433503 1.78306 0
M  V30 34750 H 3259.66 -2.89397 2.70306 0
M  V30 34751 H 3260.83 -0.71364 4.5524 0
M  V30 34752 H 3259.15 -0.800698 4.08629 0
M  V30 34753 H 3261.74 -3.57966 3.97196 0
M  V30 34754 H 3262.09 -3.49514 2.26154 0
M  V30 34755 H 3262.62 -2.17503 3.33072 0
M  V30 34756 H 3259.36 -1.79573 6.30424 0
M  V30 34757 H 3258.88 -3.06574 5.15531 0
M  V30 34758 H 3260.56 -2.97907 5.74335 0
M  V30 34759 N 3260.69 -1.42222 -0.679027 0
M  V30 34760 C 3261.91 -1.4606 -1.47245 0
M  V30 34761 C 3262.34 -0.0721318 -1.87962 0
M  V30 34762 O 3261.7 0.928461 -1.55722 0
M  V30 34763 C 3261.74 -2.38953 -2.70063 0
M  V30 34764 O 3260.85 -1.85798 -3.68175 0
M  V30 34765 H 3260.19 -0.495044 -0.442524 0
M  V30 34766 H 3262.72 -1.86865 -0.83323 0
M  V30 34767 H 3262.73 -2.5539 -3.18182 0
M  V30 34768 H 3261.4 -3.39831 -2.39767 0
M  V30 34769 H 3259.98 -1.78895 -3.27187 0
M  V30 34770 N 3262.17 0.91492 -1.28324 0
M  V30 34771 C 3263.58 1.19311 -1.06005 0
M  V30 34772 C 3263.78 2.00522 0.198331 0
M  V30 34773 O 3262.84 2.35903 0.900322 0
M  V30 34774 C 3264.15 1.92883 -2.30687 0
M  V30 34775 C 3265.7 2.05771 -2.35854 0
M  V30 34776 C 3266.17 2.82751 -3.603 0
M  V30 34777 N 3267.67 2.90313 -3.60933 0
M  V30 34778 C 3268.4 3.50375 -4.539 0
M  V30 34779 N 3267.9 4.11724 -5.57185 0
M  V30 34780 N 3269.69 3.47902 -4.41498 0
M  V30 34781 H 3261.84 0.372698 -2.09105 0
M  V30 34782 H 3264.1 0.227536 -0.920289 0
M  V30 34783 H 3263.81 1.40637 -3.22357 0
M  V30 34784 H 3263.68 2.9344 -2.37009 0
M  V30 34785 H 3266.07 2.57198 -1.44682 0
M  V30 34786 H 3266.15 1.04395 -2.33528 0
M  V30 34787 H 3265.8 2.32003 -4.51815 0
M  V30 34788 H 3265.73 3.8444 -3.5988 0
M  V30 34789 H 3268.22 2.46724 -2.86244 0
M  V30 34790 H 3268.53 4.5553 -6.24269 0
M  V30 34791 H 3266.87 4.10232 -5.61012 0
M  V30 34792 H 3270.07 2.99183 -3.6001 0
M  V30 34793 H 3270.24 3.94418 -5.14139 0
M  V30 34794 N 3263.64 1.10553 1.1232 0
M  V30 34795 C 3264.58 0.713301 2.17818 0
M  V30 34796 C 3265.59 -0.250575 1.6086 0
M  V30 34797 O 3266.78 -0.0348595 1.78466 0
M  V30 34798 C 3263.88 0.0320921 3.38885 0
M  V30 34799 C 3263.05 1.02045 4.2533 0
M  V30 34800 C 3262.11 0.370504 5.24894 0
M  V30 34801 O 3261.14 1.02167 5.59956 0
M  V30 34802 N 3262.34 -0.870532 5.73936 0
M  V30 34803 H 3265.1 1.62098 2.5208 0
M  V30 34804 H 3262.66 0.994515 1.27754 0
M  V30 34805 H 3264.66 -0.414214 4.02575 0
M  V30 34806 H 3263.23 -0.778019 3.02763 0
M  V30 34807 H 3262.45 1.64499 3.58237 0
M  V30 34808 H 3263.73 1.68944 4.79933 0
M  V30 34809 H 3263.13 -1.41891 5.47616 0
M  V30 34810 H 3261.69 -1.25997 6.39506 0
M  V30 34811 N 3265.12 -1.29758 0.894457 0
M  V30 34812 C 3266.07 -2.29828 0.357999 0
M  V30 34813 C 3267.06 -1.6056 -0.540065 0
M  V30 34814 O 3268.27 -1.74948 -0.423447 0
M  V30 34815 H 3264.65 -0.745701 0.0971314 0
M  V30 34816 H 3266.62 -2.72523 1.21547 0
M  V30 34817 C 3265.37 -3.45344 -0.404065 0
M  V30 34818 H 3264.69 -3.98834 0.277741 0
M  V30 34819 H 3266.13 -4.17415 -0.744372 0
M  V30 34820 C 3264.59 -2.96225 -1.60475 0
M  V30 34821 O 3265.12 -2.97056 -2.70408 0
M  V30 34822 N 3263.32 -2.5212 -1.44513 0
M  V30 34823 H 3262.87 -2.51643 -0.550776 0
M  V30 34824 H 3262.83 -2.19614 -2.24983 0
M  V30 34825 N 3266.6 -0.65639 -1.4328 0
M  V30 34826 C 3267.53 0.0719976 -2.29087 0
M  V30 34827 C 3268.55 0.783957 -1.42681 0
M  V30 34828 O 3269.73 0.641184 -1.66587 0
M  V30 34829 C 3266.83 1.12513 -3.19678 0
M  V30 34830 C 3266.01 0.49068 -4.34639 0
M  V30 34831 C 3265.07 1.44112 -5.06081 0
M  V30 34832 O 3264.09 0.948496 -5.61242 0
M  V30 34833 N 3265.29 2.775 -5.09876 0
M  V30 34834 H 3268.06 -0.664507 -2.9224 0
M  V30 34835 H 3265.62 -0.49941 -1.54005 0
M  V30 34836 H 3267.61 1.76183 -3.64337 0
M  V30 34837 H 3266.18 1.76357 -2.58103 0
M  V30 34838 H 3265.4 -0.325169 -3.92857 0
M  V30 34839 H 3266.69 0.0479166 -5.08777 0
M  V30 34840 H 3266.09 3.2008 -4.66439 0
M  V30 34841 H 3264.65 3.36464 -5.58243 0
M  V30 34842 N 3268.08 1.52478 -0.398513 0
M  V30 34843 C 3269.03 2.26718 0.432172 0
M  V30 34844 C 3270 1.28698 1.05005 0
M  V30 34845 O 3271.18 1.57543 1.07633 0
M  V30 34846 C 3268.32 3.08402 1.54862 0
M  V30 34847 C 3267.43 4.21364 0.952705 0
M  V30 34848 C 3266.57 4.90426 2.04097 0
M  V30 34849 C 3265.61 5.95367 1.42143 0
M  V30 34850 N 3264.75 6.57989 2.44939 0
M  V30 34851 H 3269.59 2.97278 -0.207355 0
M  V30 34852 H 3267.12 1.46657 -0.114092 0
M  V30 34853 H 3269.08 3.54058 2.20677 0
M  V30 34854 H 3267.71 2.40033 2.15833 0
M  V30 34855 H 3266.76 3.79955 0.183895 0
M  V30 34856 H 3268.07 4.96674 0.460044 0
M  V30 34857 H 3267.23 5.39434 2.77662 0
M  V30 34858 H 3265.97 4.1466 2.56725 0
M  V30 34859 H 3264.97 5.45689 0.671065 0
M  V30 34860 H 3266.2 6.7307 0.902975 0
M  V30 34861 H 3264.14 5.85058 2.9672 0
M  V30 34862 H 3264.06 7.2894 2.00455 0
M  V30 34863 H 3265.33 7.11638 3.18106 0
M  V30 34864 N 3269.56 0.128608 1.57074 0
M  V30 34865 C 3270.52 -0.803776 2.14644 0
M  V30 34866 C 3271.52 -1.18801 1.08365 0
M  V30 34867 O 3272.71 -1.11194 1.34095 0
M  V30 34868 C 3269.84 -2.08824 2.69454 0
M  V30 34869 H 3271.04 -0.303294 2.98362 0
M  V30 34870 H 3268.59 -0.120708 1.55833 0
M  V30 34871 H 3269.32 -2.63281 1.8935 0
M  V30 34872 H 3269.11 -1.82212 3.4719 0
M  V30 34873 H 3270.6 -2.75455 3.1387 0
M  V30 34874 N 3271.04 -1.5693 -0.145178 0
M  V30 34875 C 3271.97 -1.93556 -1.20878 0
M  V30 34876 C 3272.95 -0.801636 -1.41466 0
M  V30 34877 O 3274.13 -1.05741 -1.56048 0
M  V30 34878 C 3271.26 -2.20917 -2.56736 0
M  V30 34879 C 3270.3 -3.43553 -2.52732 0
M  V30 34880 S 3271.14 -4.97051 -1.99249 0
M  V30 34881 C 3272.29 -5.27537 -3.36832 0
M  V30 34882 H 3272.53 -2.83467 -0.896312 0
M  V30 34883 H 3270.06 -1.5036 -0.350868 0
M  V30 34884 H 3272.02 -2.3736 -3.34919 0
M  V30 34885 H 3270.68 -1.31666 -2.85172 0
M  V30 34886 H 3269.87 -3.5998 -3.52746 0
M  V30 34887 H 3269.47 -3.26361 -1.82659 0
M  V30 34888 H 3271.76 -5.21115 -4.32949 0
M  V30 34889 H 3272.71 -6.28978 -3.25257 0
M  V30 34890 H 3273.12 -4.55049 -3.34052 0
M  V30 34891 N 3272.51 0.414582 -1.52049 0
M  V30 34892 C 3273.76 1.16203 -1.6584 0
M  V30 34893 C 3274.09 1.90638 -0.385657 0
M  V30 34894 O 3273.34 1.85242 0.631182 0
M  V30 34895 C 3273.64 2.18617 -2.82739 0
M  V30 34896 C 3273.31 1.61029 -4.21165 0
M  V30 34897 C 3271.97 1.45048 -4.58819 0
M  V30 34898 C 3274.32 1.1892 -5.07452 0
M  V30 34899 C 3271.65 0.854659 -5.80442 0
M  V30 34900 C 3274 0.607575 -6.29676 0
M  V30 34901 C 3272.67 0.434851 -6.66082 0
M  V30 34902 H 3271.94 0.425219 -0.606853 0
M  V30 34903 H 3274.58 0.449976 -1.86138 0
M  V30 34904 H 3272.89 2.95947 -2.56754 0
M  V30 34905 H 3274.59 2.76313 -2.90606 0
M  V30 34906 H 3271.18 1.7445 -3.91491 0
M  V30 34907 H 3275.36 1.30078 -4.7895 0
M  V30 34908 H 3270.62 0.708803 -6.07277 0
M  V30 34909 H 3274.79 0.272866 -6.95865 0
M  V30 34910 H 3272.42 -0.0289452 -7.60194 0
M  V30 34911 N 3273.99 1.4258 0.671475 0
M  V30 34912 C 3275.27 1.33709 1.42763 0
M  V30 34913 C 3275.65 -0.0239377 2.11086 0
M  V30 34914 O 3275 -1.03961 2.03481 0
M  V30 34915 C 3275.21 2.50761 2.42735 0
M  V30 34916 C 3276.55 2.93027 3.07279 0
M  V30 34917 O 3277.58 2.50675 2.53062 0
M  V30 34918 O 3276.44 3.66338 4.05535 0
M  V30 34919 H 3273.53 0.527474 0.636946 0
M  V30 34920 H 3276.08 1.54594 0.699919 0
M  V30 34921 H 3274.85 3.41479 1.9107 0
M  V30 34922 H 3274.47 2.3188 3.22982 0
M  V30 34923 N 3275.47 -0.908102 1.28807 0
M  V30 34924 C 3276.42 -1.99791 1.09852 0
M  V30 34925 C 3277.4 -1.60887 0.0204604 0
M  V30 34926 O 3278.6 -1.75348 0.241235 0
M  V30 34927 C 3275.72 -3.34592 0.768322 0
M  V30 34928 C 3274.81 -3.79881 1.88551 0
M  V30 34929 N 3275.2 -3.97486 3.12791 0
M  V30 34930 C 3273.5 -4.09086 1.77664 0
M  V30 34931 C 3274.2 -4.35511 3.85622 0
M  V30 34932 N 3273.18 -4.44087 3.13509 0
M  V30 34933 H 3276.98 -2.11461 2.04112 0
M  V30 34934 H 3274.49 -1.09634 1.19809 0
M  V30 34935 H 3276.49 -4.1236 0.613593 0
M  V30 34936 H 3275.15 -3.24273 -0.166444 0
M  V30 34937 H 3276.16 -3.83249 3.48339 0
M  V30 34938 H 3272.84 -4.07372 0.914028 0
M  V30 34939 H 3274.23 -4.57048 4.925 0
M  V30 34940 N 3276.95 -1.11147 -1.11732 0
M  V30 34941 C 3277.88 -0.78919 -2.19759 0
M  V30 34942 C 3278.86 0.241113 -1.68382 0
M  V30 34943 O 3280.04 0.105257 -1.93915 0
M  V30 34944 C 3277.17 -0.228265 -3.46549 0
M  V30 34945 C 3276.13 -1.19009 -4.11121 0
M  V30 34946 C 3275.45 -0.490021 -5.3245 0
M  V30 34947 C 3276.75 -2.53959 -4.56401 0
M  V30 34948 H 3278.45 -1.69245 -2.46975 0
M  V30 34949 H 3275.99 -0.815191 -1.18704 0
M  V30 34950 H 3277.95 0.00938501 -4.21399 0
M  V30 34951 H 3276.67 0.710274 -3.18783 0
M  V30 34952 H 3275.33 -1.41332 -3.38261 0
M  V30 34953 H 3274.98 0.453227 -5.00954 0
M  V30 34954 H 3274.68 -1.1315 -5.76603 0
M  V30 34955 H 3276.2 -0.261092 -6.10042 0
M  V30 34956 H 3277.62 -2.35742 -5.22588 0
M  V30 34957 H 3276.01 -3.1406 -5.11357 0
M  V30 34958 H 3277.08 -3.13408 -3.70004 0
M  V30 34959 N 3278.43 1.29282 -0.901326 0
M  V30 34960 C 3279.65 2.00169 -0.542858 0
M  V30 34961 C 3280.08 1.67002 0.865553 0
M  V30 34962 O 3279.43 0.895529 1.57639 0
M  V30 34963 C 3279.48 3.5284 -0.744049 0
M  V30 34964 O 3278.59 4.11902 0.202699 0
M  V30 34965 H 3277.93 0.629276 -0.211914 0
M  V30 34966 H 3280.46 1.64738 -1.21336 0
M  V30 34967 H 3280.47 4.028 -0.64933 0
M  V30 34968 H 3279.14 3.76316 -1.77084 0
M  V30 34969 H 3277.72 3.72851 0.0602982 0
M  V30 34970 N 3279.9 0.663979 1.4293 0
M  V30 34971 C 3281.13 0.189569 2.05728 0
M  V30 34972 C 3281.54 -1.1542 1.49916 0
M  V30 34973 O 3280.88 -1.72583 0.629354 0
M  V30 34974 C 3280.95 0.035538 3.59482 0
M  V30 34975 C 3280.61 1.3063 4.37932 0
M  V30 34976 C 3281.61 2.23741 4.69293 0
M  V30 34977 C 3279.29 1.55088 4.77758 0
M  V30 34978 C 3281.29 3.39596 5.39401 0
M  V30 34979 C 3278.97 2.71234 5.47609 0
M  V30 34980 C 3279.97 3.63312 5.78354 0
M  V30 34981 O 3279.66 4.77428 6.46775 0
M  V30 34982 H 3279.39 0.0922459 0.669677 0
M  V30 34983 H 3281.95 0.907976 1.84242 0
M  V30 34984 H 3280.18 -0.738345 3.79586 0
M  V30 34985 H 3281.86 -0.397608 4.03948 0
M  V30 34986 H 3282.63 2.06091 4.39035 0
M  V30 34987 H 3278.51 0.842943 4.53228 0
M  V30 34988 H 3282.05 4.11486 5.63316 0
M  V30 34989 H 3277.95 2.88814 5.77284 0
M  V30 34990 H 3278.72 4.76833 6.65262 0
M  V30 34991 N 3281.38 -1.52265 0.406593 0
M  V30 34992 C 3282.31 -2.29849 -0.411274 0
M  V30 34993 C 3283.29 -1.33953 -1.04836 0
M  V30 34994 O 3284.48 -1.62859 -1.05785 0
M  V30 34995 C 3281.61 -3.11804 -1.52955 0
M  V30 34996 C 3280.56 -4.15727 -1.01761 0
M  V30 34997 C 3279.89 -4.86011 -2.22929 0
M  V30 34998 C 3281.19 -5.22248 -0.0734232 0
M  V30 34999 H 3282.88 -2.98468 0.236107 0
M  V30 35000 H 3280.43 -1.4354 0.114994 0
M  V30 35001 H 3282.38 -3.64846 -2.10868 0
M  V30 35002 H 3281.1 -2.40951 -2.20478 0
M  V30 35003 H 3279.76 -3.63691 -0.460906 0
M  V30 35004 H 3279.41 -4.11689 -2.89 0
M  V30 35005 H 3279.11 -5.56263 -1.89328 0
M  V30 35006 H 3280.64 -5.41864 -2.81452 0
M  V30 35007 H 3282.05 -5.70546 -0.561267 0
M  V30 35008 H 3280.45 -5.99849 0.173656 0
M  V30 35009 H 3281.52 -4.76984 0.872607 0
M  V30 35010 N 3282.86 -0.136936 -1.57004 0
M  V30 35011 C 3283.79 0.802863 -2.19263 0
M  V30 35012 C 3284.77 1.26437 -1.13788 0
M  V30 35013 O 3285.96 1.32375 -1.42094 0
M  V30 35014 C 3283.09 2.0461 -2.80628 0
M  V30 35015 C 3282.04 1.72174 -3.91842 0
M  V30 35016 C 3281.37 3.03678 -4.40095 0
M  V30 35017 C 3282.67 0.976159 -5.13097 0
M  V30 35018 H 3284.36 0.284008 -2.9805 0
M  V30 35019 H 3281.91 0.135163 -1.43364 0
M  V30 35020 H 3283.86 2.70829 -3.22846 0
M  V30 35021 H 3282.58 2.58851 -1.99157 0
M  V30 35022 H 3281.24 1.08338 -3.50226 0
M  V30 35023 H 3280.89 3.55889 -3.5546 0
M  V30 35024 H 3280.59 2.82742 -5.15103 0
M  V30 35025 H 3282.11 3.70984 -4.84977 0
M  V30 35026 H 3283.53 1.54023 -5.52223 0
M  V30 35027 H 3281.93 0.86711 -5.93802 0
M  V30 35028 H 3283 -0.033934 -4.84888 0
M  V30 35029 N 3284.34 1.57005 0.136853 0
M  V30 35030 C 3285.25 2.02302 1.18789 0
M  V30 35031 C 3286.26 0.940206 1.46411 0
M  V30 35032 O 3287.44 1.25043 1.5788 0
M  V30 35033 C 3284.51 2.40315 2.49899 0
M  V30 35034 C 3283.57 3.62594 2.29834 0
M  V30 35035 C 3282.8 3.98785 3.54692 0
M  V30 35036 O 3283.02 3.35518 4.61285 0
M  V30 35037 O 3281.96 4.91982 3.46753 0
M  V30 35038 H 3285.78 2.92044 0.833294 0
M  V30 35039 H 3283.37 1.4533 0.346335 0
M  V30 35040 H 3285.25 2.65579 3.27178 0
M  V30 35041 H 3283.92 1.53725 2.84869 0
M  V30 35042 H 3282.83 3.42504 1.50472 0
M  V30 35043 H 3284.16 4.49834 1.99776 0
M  V30 35044 N 3285.82 -0.406513 1.52267 0
M  V30 35045 C 3286.76 -1.51597 1.76412 0
M  V30 35046 C 3287.76 -1.57196 0.631338 0
M  V30 35047 O 3288.96 -1.60571 0.813441 0
M  V30 35048 H 3285.34 -0.50422 0.557913 0
M  V30 35049 H 3287.31 -1.28419 2.69353 0
M  V30 35050 C 3286.06 -2.88936 1.9342 0
M  V30 35051 H 3285.38 -2.85372 2.80005 0
M  V30 35052 H 3286.82 -3.6585 2.14312 0
M  V30 35053 C 3285.28 -3.29505 0.701996 0
M  V30 35054 O 3285.81 -4.01493 -0.128895 0
M  V30 35055 N 3284.02 -2.85593 0.53714 0
M  V30 35056 H 3283.56 -2.27179 1.21439 0
M  V30 35057 H 3283.52 -3.13096 -0.286 0
M  V30 35058 N 3287.29 -1.42934 -0.663904 0
M  V30 35059 C 3288.52 -1.47614 -1.45688 0
M  V30 35060 C 3288.94 -0.0920636 -1.87875 0
M  V30 35061 O 3288.3 0.911892 -1.56698 0
M  V30 35062 C 3288.35 -2.41804 -2.67513 0
M  V30 35063 O 3287.45 -1.89692 -3.66184 0
M  V30 35064 H 3286.8 -0.49971 -0.437248 0
M  V30 35065 H 3289.33 -1.87738 -0.813364 0
M  V30 35066 H 3289.34 -2.5875 -3.15456 0
M  V30 35067 H 3288.01 -3.42354 -2.36149 0
M  V30 35068 H 3286.59 -1.82355 -3.25271 0
M  V30 35069 N 3288.77 0.901258 -1.29287 0
M  V30 35070 C 3290 1.69037 -1.20172 0
M  V30 35071 C 3290.42 1.86633 0.234476 0
M  V30 35072 O 3289.78 1.38551 1.16933 0
M  V30 35073 C 3289.83 3.05325 -1.91857 0
M  V30 35074 O 3288.93 3.93488 -1.23455 0
M  V30 35075 H 3288.27 0.517134 -0.416495 0
M  V30 35076 H 3290.8 1.126 -1.70828 0
M  V30 35077 H 3290.81 3.55477 -2.00251 0
M  V30 35078 H 3289.49 2.91836 -2.96319 0
M  V30 35079 H 3288.07 3.51922 -1.23309 0
M  V30 35080 N 3290.25 1.11738 1.11141 0
M  V30 35081 C 3291.5 0.869445 1.83217 0
M  V30 35082 C 3291.83 -0.603369 1.84589 0
M  V30 35083 O 3291.1 -1.44563 1.30122 0
M  V30 35084 C 3291.39 1.43564 3.30244 0
M  V30 35085 C 3291.24 2.9763 3.37248 0
M  V30 35086 C 3292.56 1.08915 4.2641 0
M  V30 35087 H 3289.68 0.317298 0.6652 0
M  V30 35088 H 3292.32 1.38278 1.30304 0
M  V30 35089 H 3290.47 0.999044 3.75435 0
M  V30 35090 H 3292.14 3.49916 3.00593 0
M  V30 35091 H 3290.39 3.33537 2.77373 0
M  V30 35092 H 3291.06 3.32336 4.40746 0
M  V30 35093 H 3293.53 1.46611 3.89416 0
M  V30 35094 H 3292.41 1.51204 5.27663 0
M  V30 35095 H 3292.67 0.000336719 4.421 0
M  V30 35096 N 3291.73 -1.28802 0.90817 0
M  V30 35097 C 3292.98 -1.94825 0.537374 0
M  V30 35098 C 3293.3 -1.71883 -0.920932 0
M  V30 35099 O 3292.57 -1.05537 -1.65042 0
M  V30 35100 H 3291.15 -0.720898 0.195742 0
M  V30 35101 H 3293.81 -1.56893 1.15631 0
M  V30 35102 H 3292.91 -3.03512 0.727105 0
M  V30 35103 N 3293.21 -0.67155 -1.42576 0
M  V30 35104 C 3294.14 -0.00511088 -2.33499 0
M  V30 35105 C 3295.12 0.792736 -1.50498 0
M  V30 35106 O 3296.3 0.750543 -1.7911 0
M  V30 35107 C 3293.43 0.949135 -3.34079 0
M  V30 35108 C 3292.39 0.260111 -4.27209 0
M  V30 35109 C 3291.71 1.32707 -5.1797 0
M  V30 35110 C 3293.01 -0.858863 -5.1519 0
M  V30 35111 H 3294.71 -0.764457 -2.89476 0
M  V30 35112 H 3292.25 -0.369067 -1.3919 0
M  V30 35113 H 3294.21 1.42441 -3.96596 0
M  V30 35114 H 3292.93 1.73986 -2.76399 0
M  V30 35115 H 3291.59 -0.194898 -3.66082 0
M  V30 35116 H 3291.24 2.1097 -4.56619 0
M  V30 35117 H 3290.94 0.871191 -5.81106 0
M  V30 35118 H 3292.46 1.80334 -5.83363 0
M  V30 35119 H 3293.87 -0.464944 -5.71412 0
M  V30 35120 H 3292.27 -1.24034 -5.87142 0
M  V30 35121 H 3293.34 -1.70903 -4.53784 0
M  V30 35122 N 3294.68 1.52047 -0.414663 0
M  V30 35123 C 3295.65 2.25749 0.396245 0
M  V30 35124 C 3296.65 1.28325 0.968981 0
M  V30 35125 O 3297.84 1.52223 0.846989 0
M  V30 35126 C 3294.97 3.03198 1.55832 0
M  V30 35127 H 3296.16 2.98861 -0.249364 0
M  V30 35128 H 3293.72 1.55402 -0.167303 0
M  V30 35129 H 3294.45 2.34448 2.24064 0
M  V30 35130 H 3294.24 3.74731 1.15407 0
M  V30 35131 H 3295.73 3.59087 2.13181 0
M  V30 35132 N 3296.16 0.145261 1.56929 0
M  V30 35133 C 3297.39 -0.516528 2.00865 0
M  V30 35134 C 3297.81 -1.5774 1.02469 0
M  V30 35135 O 3297.17 -1.813 0.000177307 0
M  V30 35136 C 3297.22 -1.09557 3.43554 0
M  V30 35137 O 3296.32 -2.21049 3.48154 0
M  V30 35138 H 3295.66 -0.12651 0.651837 0
M  V30 35139 H 3298.19 0.241481 2.0317 0
M  V30 35140 H 3298.2 -1.42466 3.82318 0
M  V30 35141 H 3296.88 -0.318677 4.14677 0
M  V30 35142 H 3295.46 -1.89381 3.21231 0
M  V30 35143 N 3297.64 -1.57075 -0.128525 0
M  V30 35144 C 3299.05 -1.73613 -0.686683 0
M  V30 35145 C 3299.4 -0.76251 -1.80777 0
M  V30 35146 O 3298.53 0.0667399 -2.16297 0
M  V30 35147 C 3299.12 -3.14802 -1.25241 0
M  V30 35148 C 3297.68 -3.32879 -1.75695 0
M  V30 35149 C 3296.83 -2.69507 -0.652797 0
M  V30 35150 H 3299.78 -1.58401 0.0973137 0
M  V30 35151 H 3299.8 -3.15825 -2.12214 0
M  V30 35152 H 3299.31 -3.8564 -0.43624 0
M  V30 35153 H 3297.41 -2.67067 -2.59819 0
M  V30 35154 H 3297.53 -4.40973 -1.87295 0
M  V30 35155 H 3295.89 -2.30479 -1.08404 0
M  V30 35156 H 3296.67 -3.42962 0.15223 0
M  V30 35157 N 3299.12 0.398432 -1.5248 0
M  V30 35158 C 3300.08 1.46879 -1.75952 0
M  V30 35159 C 3301.08 1.47968 -0.629457 0
M  V30 35160 O 3302.27 1.49304 -0.897433 0
M  V30 35161 C 3299.4 2.86227 -1.85167 0
M  V30 35162 H 3300.6 1.27355 -2.71515 0
M  V30 35163 H 3298.15 0.629593 -1.43059 0
M  V30 35164 H 3298.89 3.11108 -0.91556 0
M  V30 35165 H 3298.67 2.86839 -2.67331 0
M  V30 35166 H 3300.16 3.63802 -2.05032 0
M  V30 35167 N 3300.6 1.43284 0.656314 0
M  V30 35168 C 3301.53 1.42649 1.78119 0
M  V30 35169 C 3302.51 0.288329 1.60023 0
M  V30 35170 O 3303.69 0.481439 1.82248 0
M  V30 35171 C 3300.82 1.2351 3.15377 0
M  V30 35172 C 3299.87 2.40562 3.52182 0
M  V30 35173 S 3300.7 4.03111 3.52508 0
M  V30 35174 C 3301.85 3.86349 4.92428 0
M  V30 35175 H 3302.09 2.37835 1.78387 0
M  V30 35176 H 3299.62 1.30278 0.828676 0
M  V30 35177 H 3301.58 1.13155 3.94596 0
M  V30 35178 H 3300.24 0.298781 3.12676 0
M  V30 35179 H 3299.43 2.22967 4.51998 0
M  V30 35180 H 3299.03 2.47527 2.80368 0
M  V30 35181 H 3301.33 3.48482 5.81005 0
M  V30 35182 H 3302.27 4.85906 5.15074 0
M  V30 35183 H 3302.68 3.18865 4.65817 0
M  V30 35184 N 3302.08 -0.894389 1.29763 0
M  V30 35185 C 3303.49 -1.17609 1.0789 0
M  V30 35186 C 3303.69 -2.00812 -0.166404 0
M  V30 35187 O 3302.75 -2.37306 -0.862678 0
M  V30 35188 C 3304.06 -1.89189 2.33727 0
M  V30 35189 C 3305.61 -2.01993 2.39098 0
M  V30 35190 C 3306.08 -2.76983 3.64752 0
M  V30 35191 N 3307.57 -2.84535 3.65506 0
M  V30 35192 C 3308.31 -3.43109 4.59417 0
M  V30 35193 N 3307.81 -4.02808 5.63664 0
M  V30 35194 N 3309.6 -3.40834 4.46977 0
M  V30 35195 H 3301.75 -0.339384 2.09671 0
M  V30 35196 H 3304.01 -0.212866 0.923792 0
M  V30 35197 H 3303.72 -1.35491 3.24554 0
M  V30 35198 H 3303.59 -2.89632 2.41647 0
M  V30 35199 H 3305.98 -2.54864 1.48756 0
M  V30 35200 H 3306.06 -1.00666 2.35159 0
M  V30 35201 H 3305.7 -2.24786 4.55449 0
M  V30 35202 H 3305.63 -3.78666 3.6595 0
M  V30 35203 H 3308.13 -2.42139 2.90133 0
M  V30 35204 H 3308.44 -4.45541 6.31437 0
M  V30 35205 H 3306.78 -4.01255 5.67468 0
M  V30 35206 H 3309.97 -2.93417 3.64724 0
M  V30 35207 H 3310.15 -3.86189 5.20348 0
M  V30 35208 N 3303.55 -1.12326 -1.10547 0
M  V30 35209 C 3304.8 -0.876115 -1.82123 0
M  V30 35210 C 3305.12 0.599729 -1.85549 0
M  V30 35211 O 3304.39 1.43581 -1.33271 0
M  V30 35212 H 3302.97 -0.321134 -0.67445 0
M  V30 35213 H 3305.63 -1.41751 -1.33764 0
M  V30 35214 H 3304.73 -1.25658 -2.85686 0
M  V30 35215 N 3305.03 1.28319 -0.914988 0
M  V30 35216 C 3306.26 1.99582 -0.564058 0
M  V30 35217 C 3306.68 1.67911 0.847792 0
M  V30 35218 O 3306.04 0.912199 1.5668 0
M  V30 35219 C 3306.09 3.52031 -0.78143 0
M  V30 35220 O 3305.19 4.12093 0.159 0
M  V30 35221 H 3304.53 0.626993 -0.218576 0
M  V30 35222 H 3307.06 1.63442 -1.23076 0
M  V30 35223 H 3307.07 4.02088 -0.692016 0
M  V30 35224 H 3305.75 3.74417 -1.81065 0
M  V30 35225 H 3304.32 3.72894 0.0207489 0
M  V30 35226 N 3306.51 0.679102 1.42218 0
M  V30 35227 C 3307.74 0.211685 2.05814 0
M  V30 35228 C 3308.15 -1.13281 1.51039 0
M  V30 35229 O 3307.51 -1.70459 0.651924 0
M  V30 35230 C 3307.56 0.142727 3.61218 0
M  V30 35231 O 3307.28 1.4341 4.13963 0
M  V30 35232 C 3308.78 -0.347668 4.41935 0
M  V30 35233 H 3306 0.101926 0.663213 0
M  V30 35234 H 3308.55 0.92705 1.8228 0
M  V30 35235 H 3306.7 -0.523353 3.83849 0
M  V30 35236 H 3307.12 1.31029 5.0787 0
M  V30 35237 H 3308.59 -0.344819 5.50922 0
M  V30 35238 H 3309.07 -1.38369 4.16834 0
M  V30 35239 H 3309.67 0.286826 4.24332 0
M  V30 35240 N 3307.99 -1.51825 0.42272 0
M  V30 35241 C 3309.4 -1.86649 -0.0437801 0
M  V30 35242 C 3309.75 -1.34074 -1.43243 0
M  V30 35243 O 3308.87 -0.685537 -2.05254 0
M  V30 35244 C 3309.47 -3.3869 -0.0862207 0
M  V30 35245 C 3308.03 -3.73103 -0.497091 0
M  V30 35246 C 3307.18 -2.75451 0.319703 0
M  V30 35247 H 3310.13 -1.45258 0.639207 0
M  V30 35248 H 3310.15 -3.69734 -0.898735 0
M  V30 35249 H 3309.66 -3.76926 0.924591 0
M  V30 35250 H 3307.76 -3.40452 -1.51405 0
M  V30 35251 H 3307.87 -4.78538 -0.232041 0
M  V30 35252 H 3306.24 -2.53749 -0.219918 0
M  V30 35253 H 3307.02 -3.16527 1.32912 0
M  V30 35254 N 3309.47 -0.153581 -1.5685 0
M  V30 35255 C 3310.4 0.779562 -2.20102 0
M  V30 35256 C 3311.38 1.25223 -1.15123 0
M  V30 35257 O 3312.56 1.3086 -1.4349 0
M  V30 35258 C 3309.69 2.01623 -2.82782 0
M  V30 35259 C 3308.65 1.68009 -3.93646 0
M  V30 35260 C 3307.97 2.98993 -4.43291 0
M  V30 35261 C 3309.27 0.921684 -5.14103 0
M  V30 35262 H 3310.97 0.25238 -2.98334 0
M  V30 35263 H 3308.51 0.11995 -1.435 0
M  V30 35264 H 3310.46 2.67389 -3.25701 0
M  V30 35265 H 3309.19 2.56724 -2.01891 0
M  V30 35266 H 3307.85 1.04618 -3.51356 0
M  V30 35267 H 3307.5 3.52099 -3.59215 0
M  V30 35268 H 3307.2 2.77263 -5.18072 0
M  V30 35269 H 3308.72 3.6582 -4.88885 0
M  V30 35270 H 3310.13 1.48157 -5.53825 0
M  V30 35271 H 3308.53 0.80408 -5.94689 0
M  V30 35272 H 3309.6 -0.085361 -4.84825 0
M  V30 35273 N 3310.94 1.57141 0.120193 0
M  V30 35274 C 3312.22 1.75757 0.858427 0
M  V30 35275 C 3312.6 0.728728 1.98123 0
M  V30 35276 O 3311.95 -0.247533 2.27155 0
M  V30 35277 C 3312.16 3.2072 1.37621 0
M  V30 35278 C 3313.51 3.83187 1.82902 0
M  V30 35279 O 3314.53 3.24315 1.47303 0
M  V30 35280 O 3313.39 4.86662 2.48641 0
M  V30 35281 H 3310.48 0.719594 0.40757 0
M  V30 35282 H 3313.03 1.69381 0.104027 0
M  V30 35283 H 3311.8 3.87118 0.570583 0
M  V30 35284 H 3311.42 3.31629 2.19335 0
M  V30 35285 N 3312.42 -0.39034 1.5269 0
M  V30 35286 C 3313.67 -1.13719 1.67916 0
M  V30 35287 C 3314 -1.89666 0.417192 0
M  V30 35288 O 3313.28 -1.85495 -0.584972 0
M  V30 35289 C 3313.56 -2.11651 2.91335 0
M  V30 35290 C 3313.41 -1.39476 4.27629 0
M  V30 35291 C 3314.73 -3.12094 3.10299 0
M  V30 35292 H 3311.85 -0.412046 0.611054 0
M  V30 35293 H 3314.49 -0.420721 1.85283 0
M  V30 35294 H 3312.64 -2.72749 2.76659 0
M  V30 35295 H 3314.31 -0.813528 4.5407 0
M  V30 35296 H 3312.56 -0.696615 4.2817 0
M  V30 35297 H 3313.23 -2.11029 5.10069 0
M  V30 35298 H 3315.7 -2.61085 3.23997 0
M  V30 35299 H 3314.58 -3.77863 3.98134 0
M  V30 35300 H 3314.84 -3.80884 2.24454 0
M  V30 35301 N 3313.9 -1.4363 -0.648706 0
M  V30 35302 C 3314.86 -1.48803 -1.74328 0
M  V30 35303 C 3315.86 -0.372175 -1.56434 0
M  V30 35304 O 3317.05 -0.634106 -1.62249 0
M  V30 35305 C 3314.19 -1.345 -3.13245 0
M  V30 35306 H 3315.38 -2.46288 -1.7112 0
M  V30 35307 H 3312.93 -1.30462 -0.860775 0
M  V30 35308 H 3313.67 -0.380402 -3.22061 0
M  V30 35309 H 3313.45 -2.15395 -3.27639 0
M  V30 35310 H 3314.94 -1.41062 -3.93054 0
M  V30 35311 N 3315.38 0.887495 -1.30236 0
M  V30 35312 C 3316.34 1.9745 -1.16387 0
M  V30 35313 C 3317.34 1.60514 -0.0958224 0
M  V30 35314 O 3318.53 1.70775 -0.343736 0
M  V30 35315 C 3315.66 3.31796 -0.782573 0
M  V30 35316 H 3316.86 2.11163 -2.12956 0
M  V30 35317 H 3314.41 1.07357 -1.13596 0
M  V30 35318 H 3315.14 3.23785 0.182723 0
M  V30 35319 H 3314.93 3.59973 -1.55441 0
M  V30 35320 H 3316.42 4.11536 -0.709083 0
M  V30 35321 N 3316.86 1.12911 1.0995 0
M  V30 35322 C 3317.82 0.804586 2.14614 0
M  V30 35323 C 3318.82 -0.183422 1.5975 0
M  V30 35324 O 3320.01 0.0429929 1.74147 0
M  V30 35325 C 3317.14 0.196531 3.40333 0
M  V30 35326 H 3318.33 1.73197 2.44832 0
M  V30 35327 H 3315.89 0.933019 1.25397 0
M  V30 35328 H 3316.62 -0.740333 3.15737 0
M  V30 35329 H 3316.41 0.907953 3.81443 0
M  V30 35330 H 3317.9 -0.013853 4.17598 0
M  V30 35331 N 3318.33 -1.27832 0.92178 0
M  V30 35332 C 3319.56 -1.9928 0.574635 0
M  V30 35333 C 3319.98 -1.68358 -0.838875 0
M  V30 35334 O 3319.34 -0.920495 -1.56194 0
M  V30 35335 C 3319.39 -3.51612 0.800088 0
M  V30 35336 O 3318.49 -4.12172 -0.137143 0
M  V30 35337 H 3317.84 -0.625825 0.221898 0
M  V30 35338 H 3320.37 -1.62787 1.23941 0
M  V30 35339 H 3320.38 -4.01716 0.71333 0
M  V30 35340 H 3319.05 -3.73452 1.83048 0
M  V30 35341 H 3317.63 -3.729 -0.000973171 0
M  V30 35342 N 3319.81 -0.686634 -1.41856 0
M  V30 35343 C 3321.06 -0.214153 -2.01666 0
M  V30 35344 C 3321.39 1.18022 -1.54222 0
M  V30 35345 O 3320.67 1.79479 -0.749514 0
M  V30 35346 C 3320.95 -0.261905 -3.59146 0
M  V30 35347 C 3320.8 -1.69258 -4.16739 0
M  V30 35348 C 3322.12 0.383301 -4.38428 0
M  V30 35349 H 3319.24 -0.0792914 -0.732722 0
M  V30 35350 H 3321.88 -0.873663 -1.68722 0
M  V30 35351 H 3320.03 0.299642 -3.87343 0
M  V30 35352 H 3321.7 -2.30729 -3.99452 0
M  V30 35353 H 3319.95 -2.22956 -3.7212 0
M  V30 35354 H 3320.62 -1.67759 -5.25891 0
M  V30 35355 H 3323.09 -0.0948432 -4.15992 0
M  V30 35356 H 3321.97 0.319305 -5.4797 0
M  V30 35357 H 3322.23 1.46269 -4.17202 0
M  V30 35358 N 3321.29 1.51599 -0.430766 0
M  V30 35359 C 3322.22 2.2413 0.429067 0
M  V30 35360 C 3323.2 1.25802 1.03017 0
M  V30 35361 O 3324.39 1.54918 1.0739 0
M  V30 35362 C 3321.51 2.98663 1.59744 0
M  V30 35363 C 3320.56 4.11595 1.11765 0
M  V30 35364 S 3321.39 5.3546 0.0650527 0
M  V30 35365 C 3322.55 6.13529 1.23825 0
M  V30 35366 H 3322.78 2.96713 -0.186735 0
M  V30 35367 H 3320.31 1.52893 -0.215228 0
M  V30 35368 H 3322.27 3.42205 2.26729 0
M  V30 35369 H 3320.93 2.25682 2.18464 0
M  V30 35370 H 3320.13 4.62999 1.99117 0
M  V30 35371 H 3319.73 3.70281 0.526144 0
M  V30 35372 H 3322.02 6.42217 2.15785 0
M  V30 35373 H 3322.96 7.03963 0.764306 0
M  V30 35374 H 3323.37 5.4492 1.47384 0
M  V30 35375 N 3322.77 0.161897 1.56766 0
M  V30 35376 C 3324.05 -0.531319 1.88245 0
M  V30 35377 C 3324.43 -1.81956 1.07028 0
M  V30 35378 O 3323.77 -2.27929 0.161425 0
M  V30 35379 C 3323.98 -0.782356 3.40118 0
M  V30 35380 C 3325.33 -1.11654 4.09657 0
M  V30 35381 O 3326.36 -0.871213 3.45381 0
M  V30 35382 O 3325.21 -1.57891 5.23195 0
M  V30 35383 H 3322.31 -0.272745 0.78073 0
M  V30 35384 H 3324.85 0.199627 1.68522 0
M  V30 35385 H 3323.63 0.128746 3.91088 0
M  V30 35386 H 3323.25 -1.56695 3.65421 0
M  V30 35387 N 3324.25 -1.57203 -0.111858 0
M  V30 35388 C 3325.19 -2.01851 -1.15582 0
M  V30 35389 C 3326.19 -0.916646 -1.42457 0
M  V30 35390 O 3327.39 -1.10185 -1.42335 0
M  V30 35391 H 3323.77 -0.643042 -0.389873 0
M  V30 35392 H 3325.74 -2.88748 -0.752803 0
M  V30 35393 C 3324.49 -2.44471 -2.47243 0
M  V30 35394 H 3323.81 -3.28828 -2.27403 0
M  V30 35395 H 3325.25 -2.79503 -3.18833 0
M  V30 35396 C 3323.71 -1.31121 -3.10337 0
M  V30 35397 O 3324.24 -0.631099 -3.96712 0
M  V30 35398 N 3322.45 -1.06644 -2.70324 0
M  V30 35399 H 3321.99 -1.62129 -2.00179 0
M  V30 35400 H 3321.95 -0.309999 -3.12868 0
M  V30 35401 N 3325.72 0.382237 -1.52894 0
M  V30 35402 C 3326.67 1.48771 -1.78801 0
M  V30 35403 C 3327.67 1.56171 -0.656267 0
M  V30 35404 O 3328.87 1.59257 -0.838884 0
M  V30 35405 H 3325.25 0.49528 -0.565864 0
M  V30 35406 H 3327.22 1.24117 -2.71362 0
M  V30 35407 C 3325.97 2.85822 -1.97992 0
M  V30 35408 H 3325.29 2.80881 -2.8451 0
M  V30 35409 H 3326.73 3.62394 -2.20105 0
M  V30 35410 C 3325.19 3.28347 -0.754328 0
M  V30 35411 O 3325.72 4.01647 0.0650043 0
M  V30 35412 N 3323.93 2.84702 -0.582507 0
M  V30 35413 H 3323.47 2.25218 -1.25038 0
M  V30 35414 H 3323.43 3.13512 0.236153 0
M  V30 35415 N 3327.2 1.43972 0.64108 0
M  V30 35416 C 3328.11 1.52541 1.78237 0
M  V30 35417 C 3329.13 0.411698 1.69059 0
M  V30 35418 O 3330.31 0.667604 1.90013 0
M  V30 35419 C 3327.37 1.45749 3.14576 0
M  V30 35420 C 3326.43 2.67891 3.3546 0
M  V30 35421 C 3325.66 2.61412 4.65295 0
M  V30 35422 O 3325.89 1.6686 5.45448 0
M  V30 35423 O 3324.82 3.52108 4.88163 0
M  V30 35424 H 3328.65 2.4894 1.73961 0
M  V30 35425 H 3326.23 1.26108 0.801076 0
M  V30 35426 H 3328.11 1.44447 3.9587 0
M  V30 35427 H 3326.79 0.524893 3.19416 0
M  V30 35428 H 3325.7 2.74762 2.53883 0
M  V30 35429 H 3327.03 3.60163 3.35475 0
M  V30 35430 N 3328.68 -0.880575 1.30704 0
M  V30 35431 C 3329.61 -2.00283 1.20037 0
M  V30 35432 C 3330.59 -1.69862 0.0899913 0
M  V30 35433 O 3331.78 -1.92275 0.27278 0
M  V30 35434 C 3328.91 -3.35544 0.89596 0
M  V30 35435 C 3327.86 -3.80239 1.96475 0
M  V30 35436 C 3327.19 -5.1284 1.51325 0
M  V30 35437 C 3328.49 -3.9849 3.37644 0
M  V30 35438 H 3330.18 -2.09466 2.13926 0
M  V30 35439 H 3327.73 -1.00642 1.02991 0
M  V30 35440 H 3329.68 -4.13582 0.807971 0
M  V30 35441 H 3328.4 -3.26505 -0.0786062 0
M  V30 35442 H 3327.06 -3.04433 2.04245 0
M  V30 35443 H 3326.71 -5.00233 0.526828 0
M  V30 35444 H 3326.41 -5.43715 2.22817 0
M  V30 35445 H 3327.94 -5.93398 1.43913 0
M  V30 35446 H 3329.35 -4.66953 3.32608 0
M  V30 35447 H 3327.75 -4.40748 4.07261 0
M  V30 35448 H 3328.82 -3.02204 3.7921 0
M  V30 35449 N 3330.16 -1.13492 -1.09349 0
M  V30 35450 C 3331.12 -0.815956 -2.14184 0
M  V30 35451 C 3332.12 0.174948 -1.59845 0
M  V30 35452 O 3333.31 -0.0522277 -1.74122 0
M  V30 35453 C 3330.44 -0.214577 -3.40224 0
M  V30 35454 H 3331.64 -1.74493 -2.4391 0
M  V30 35455 H 3329.19 -0.939656 -1.24901 0
M  V30 35456 H 3329.93 0.723578 -3.16125 0
M  V30 35457 H 3329.71 -0.928169 -3.80956 0
M  V30 35458 H 3331.2 -0.00829339 -4.17599 0
M  V30 35459 N 3331.64 1.27341 -0.928546 0
M  V30 35460 C 3332.57 2.29207 -0.445668 0
M  V30 35461 C 3333.55 1.62754 0.49448 0
M  V30 35462 O 3334.73 1.90056 0.399049 0
M  V30 35463 C 3331.86 3.45988 0.301624 0
M  V30 35464 C 3330.82 4.24441 -0.550769 0
M  V30 35465 C 3330.14 5.33707 0.325739 0
M  V30 35466 C 3331.44 4.89725 -1.81567 0
M  V30 35467 H 3333.14 2.69848 -1.29701 0
M  V30 35468 H 3330.68 1.29724 -0.625108 0
M  V30 35469 H 3332.64 4.16351 0.650382 0
M  V30 35470 H 3331.36 3.04266 1.18699 0
M  V30 35471 H 3330.02 3.55826 -0.882247 0
M  V30 35472 H 3329.67 4.88227 1.21009 0
M  V30 35473 H 3329.37 5.87105 -0.241097 0
M  V30 35474 H 3330.89 6.06912 0.67005 0
M  V30 35475 H 3332.31 5.5237 -1.53493 0
M  V30 35476 H 3330.7 5.53185 -2.32607 0
M  V30 35477 H 3331.77 4.13378 -2.53469 0
M  V30 35478 N 3333.12 0.694147 1.4149 0
M  V30 35479 C 3334.08 0.0368964 2.2917 0
M  V30 35480 C 3335.08 -0.7094 1.44306 0
M  V30 35481 O 3336.27 -0.544504 1.65471 0
M  V30 35482 C 3333.4 -0.958143 3.27158 0
M  V30 35483 H 3334.59 0.80888 2.88786 0
M  V30 35484 H 3332.15 0.457564 1.49452 0
M  V30 35485 H 3332.88 -1.75794 2.7252 0
M  V30 35486 H 3332.67 -0.426159 3.89777 0
M  V30 35487 H 3334.16 -1.41585 3.92866 0
M  V30 35488 N 3334.59 -1.51368 0.438799 0
M  V30 35489 C 3335.52 -2.3067 -0.362427 0
M  V30 35490 C 3336.5 -1.36147 -1.01971 0
M  V30 35491 O 3337.69 -1.65067 -1.02307 0
M  V30 35492 C 3334.82 -3.14979 -1.46307 0
M  V30 35493 C 3333.77 -4.17792 -0.929198 0
M  V30 35494 C 3333.1 -4.9063 -2.1257 0
M  V30 35495 C 3334.4 -5.22287 0.03737 0
M  V30 35496 H 3336.09 -2.979 0.299363 0
M  V30 35497 H 3333.64 -1.43264 0.145415 0
M  V30 35498 H 3335.59 -3.69237 -2.03081 0
M  V30 35499 H 3334.32 -2.45573 -2.15317 0
M  V30 35500 H 3332.98 -3.64587 -0.383658 0
M  V30 35501 H 3332.62 -4.17727 -2.80203 0
M  V30 35502 H 3332.32 -5.60154 -1.77486 0
M  V30 35503 H 3333.85 -5.47713 -2.69895 0
M  V30 35504 H 3335.26 -5.71608 -0.440119 0
M  V30 35505 H 3333.66 -5.99345 0.300854 0
M  V30 35506 H 3334.73 -4.75026 0.973586 0
M  V30 35507 N 3336.07 -0.170208 -1.56678 0
M  V30 35508 C 3337.49 0.185971 -1.58513 0
M  V30 35509 C 3337.69 1.62935 -1.18551 0
M  V30 35510 O 3336.74 2.36045 -0.896596 0
M  V30 35511 C 3338.06 -0.0938371 -3.00554 0
M  V30 35512 C 3339.6 -0.0319607 -3.12984 0
M  V30 35513 C 3340.08 -0.284744 -4.57114 0
M  V30 35514 N 3341.57 -0.232481 -4.62616 0
M  V30 35515 C 3342.31 -0.402261 -5.71987 0
M  V30 35516 N 3341.8 -0.631036 -6.8992 0
M  V30 35517 N 3343.59 -0.338243 -5.61081 0
M  V30 35518 H 3335.75 -1.11238 -1.80942 0
M  V30 35519 H 3338.01 -0.442143 -0.838578 0
M  V30 35520 H 3337.71 -1.09367 -3.34263 0
M  V30 35521 H 3337.59 0.615052 -3.72152 0
M  V30 35522 H 3339.98 0.958453 -2.79102 0
M  V30 35523 H 3340.06 -0.773543 -2.43824 0
M  V30 35524 H 3339.7 -1.27236 -4.91705 0
M  V30 35525 H 3339.63 0.477437 -5.24431 0
M  V30 35526 H 3342.12 -0.0612597 -3.7785 0
M  V30 35527 H 3342.43 -0.750066 -7.69151 0
M  V30 35528 H 3340.78 -0.667637 -6.91786 0
M  V30 35529 H 3343.97 -0.160112 -4.67826 0
M  V30 35530 H 3344.14 -0.473985 -6.46264 0
M  V30 35531 N 3337.55 1.5726 0.10352 0
M  V30 35532 C 3338.46 2.04777 1.14472 0
M  V30 35533 C 3339.48 0.97105 1.44384 0
M  V30 35534 O 3340.65 1.28364 1.55192 0
M  V30 35535 C 3337.72 2.45562 2.44745 0
M  V30 35536 C 3336.78 3.67388 2.22091 0
M  V30 35537 C 3336.01 4.06219 3.46153 0
M  V30 35538 O 3336.23 3.45227 4.54064 0
M  V30 35539 O 3335.17 4.99226 3.36239 0
M  V30 35540 H 3338.99 2.93746 0.771159 0
M  V30 35541 H 3336.58 1.46032 0.31543 0
M  V30 35542 H 3338.46 2.7246 3.21471 0
M  V30 35543 H 3337.14 1.59733 2.81544 0
M  V30 35544 H 3336.04 3.45619 1.43173 0
M  V30 35545 H 3337.38 4.5397 1.90189 0
M  V30 35546 N 3339.03 -0.374123 1.53095 0
M  V30 35547 C 3340.44 -0.951353 1.60643 0
M  V30 35548 C 3340.79 -1.90524 0.468507 0
M  V30 35549 O 3339.91 -2.12551 -0.40631 0
M  V30 35550 C 3340.51 -1.73222 2.91169 0
M  V30 35551 C 3339.07 -2.25893 3.0108 0
M  V30 35552 C 3338.22 -1.0688 2.55875 0
M  V30 35553 H 3341.17 -0.153186 1.57959 0
M  V30 35554 H 3341.19 -2.59273 2.78492 0
M  V30 35555 H 3340.7 -1.03771 3.73969 0
M  V30 35556 H 3338.8 -2.98611 2.2285 0
M  V30 35557 H 3338.91 -2.5436 4.06002 0
M  V30 35558 H 3337.28 -1.43326 2.10547 0
M  V30 35559 H 3338.06 -0.38941 3.41084 0
M  V30 35560 N 3340.51 -1.4431 -0.633436 0
M  V30 35561 C 3341.78 -1.37447 -1.39168 0
M  V30 35562 C 3342.16 -0.0320365 -2.11076 0
M  V30 35563 O 3341.51 0.985294 -2.06165 0
M  V30 35564 C 3341.72 -2.57108 -2.36001 0
M  V30 35565 C 3343.07 -3.01071 -2.99402 0
M  V30 35566 O 3344.09 -2.57297 -2.46327 0
M  V30 35567 O 3342.95 -3.76961 -3.9568 0
M  V30 35568 H 3340.05 -0.544177 -0.622737 0
M  V30 35569 H 3342.59 -1.56395 -0.658685 0
M  V30 35570 H 3341.36 -3.46425 -1.81949 0
M  V30 35571 H 3340.99 -2.40361 -3.16721 0
M  V30 35572 N 3341.98 0.873632 -1.3117 0
M  V30 35573 C 3342.91 1.99644 -1.21097 0
M  V30 35574 C 3343.9 1.69812 -0.0989982 0
M  V30 35575 O 3345.08 1.92127 -0.282973 0
M  V30 35576 C 3342.21 3.35064 -0.913743 0
M  V30 35577 C 3341.16 3.79192 -1.98489 0
M  V30 35578 C 3340.49 5.1203 -1.54042 0
M  V30 35579 C 3341.79 3.96693 -3.39752 0
M  V30 35580 H 3343.48 2.08329 -2.15033 0
M  V30 35581 H 3341.03 1.00095 -1.03523 0
M  V30 35582 H 3342.98 4.13147 -0.829893 0
M  V30 35583 H 3341.71 3.26542 0.0612897 0
M  V30 35584 H 3340.37 3.03346 -2.05857 0
M  V30 35585 H 3340.01 4.99947 -0.553349 0
M  V30 35586 H 3339.71 5.42526 -2.25697 0
M  V30 35587 H 3341.24 5.92627 -1.47058 0
M  V30 35588 H 3342.65 4.65182 -3.3508 0
M  V30 35589 H 3341.05 4.38582 -4.09592 0
M  V30 35590 H 3342.12 3.00189 -3.80808 0
M  V30 35591 N 3343.46 1.1407 1.08746 0
M  V30 35592 C 3344.37 0.838037 2.19121 0
M  V30 35593 C 3345.39 -0.180133 1.73065 0
M  V30 35594 O 3346.56 -0.00948744 2.01398 0
M  V30 35595 C 3343.63 0.31606 3.45256 0
M  V30 35596 C 3342.69 1.39635 4.05956 0
M  V30 35597 C 3341.92 0.899187 5.26071 0
M  V30 35598 O 3342.15 -0.260643 5.69804 0
M  V30 35599 O 3341.08 1.67662 5.78077 0
M  V30 35600 H 3344.91 1.76037 2.47476 0
M  V30 35601 H 3342.49 0.918696 1.17815 0
M  V30 35602 H 3344.37 0.0307166 4.21389 0
M  V30 35603 H 3343.05 -0.578598 3.18487 0
M  V30 35604 H 3341.96 1.73511 3.31428 0
M  V30 35605 H 3343.29 2.2654 4.36967 0
M  V30 35606 N 3344.94 -1.26847 0.935286 0
M  V30 35607 C 3345.89 -2.26588 0.438936 0
M  V30 35608 C 3346.86 -1.58451 -0.498239 0
M  V30 35609 O 3348.04 -1.86216 -0.415739 0
M  V30 35610 C 3345.18 -3.43835 -0.295232 0
M  V30 35611 C 3344.3 -4.26663 0.676932 0
M  V30 35612 C 3343.43 -5.31143 -0.0778416 0
M  V30 35613 C 3342.47 -6.05646 0.886531 0
M  V30 35614 N 3341.61 -7.01909 0.163894 0
M  V30 35615 H 3346.45 -2.68418 1.29444 0
M  V30 35616 H 3343.98 -1.31982 0.649547 0
M  V30 35617 H 3345.94 -4.10634 -0.737282 0
M  V30 35618 H 3344.57 -3.02935 -1.11492 0
M  V30 35619 H 3343.62 -3.59708 1.2375 0
M  V30 35620 H 3344.94 -4.78349 1.41364 0
M  V30 35621 H 3344.09 -6.03927 -0.579451 0
M  V30 35622 H 3342.83 -4.8028 -0.847466 0
M  V30 35623 H 3341.83 -5.31695 1.39932 0
M  V30 35624 H 3343.06 -6.58598 1.65606 0
M  V30 35625 H 3341 -6.53365 -0.587346 0
M  V30 35626 H 3340.92 -7.51318 0.840034 0
M  V30 35627 H 3342.19 -7.78856 -0.316814 0
M  V30 35628 N 3346.42 -0.701641 -1.4112 0
M  V30 35629 C 3347.66 -0.23553 -2.01428 0
M  V30 35630 C 3348 1.1638 -1.55465 0
M  V30 35631 O 3347.27 1.78673 -0.768508 0
M  V30 35632 C 3347.56 -0.299982 -3.58848 0
M  V30 35633 C 3347.41 -1.73669 -4.14921 0
M  V30 35634 C 3348.73 0.336779 -4.3881 0
M  V30 35635 H 3345.85 -0.0870584 -0.73184 0
M  V30 35636 H 3348.49 -0.891509 -1.67786 0
M  V30 35637 H 3346.64 0.258542 -3.87639 0
M  V30 35638 H 3348.31 -2.34952 -3.96983 0
M  V30 35639 H 3346.55 -2.2689 -3.69734 0
M  V30 35640 H 3347.22 -1.73327 -5.24082 0
M  V30 35641 H 3349.7 -0.138959 -4.15868 0
M  V30 35642 H 3348.58 0.261167 -5.48278 0
M  V30 35643 H 3348.84 1.41836 -4.1873 0
M  V30 35644 N 3347.9 1.51133 -0.446821 0
M  V30 35645 C 3349.14 2.02464 0.11663 0
M  V30 35646 C 3349.48 1.32978 1.4153 0
M  V30 35647 O 3348.75 0.447685 1.89278 0
M  V30 35648 C 3349.03 3.58625 0.325596 0
M  V30 35649 C 3348.89 4.38716 -0.992384 0
M  V30 35650 C 3350.21 4.26359 1.09113 0
M  V30 35651 H 3347.32 0.735864 0.0409133 0
M  V30 35652 H 3349.97 1.80683 -0.587672 0
M  V30 35653 H 3348.12 3.77315 0.925519 0
M  V30 35654 H 3349.79 4.31655 -1.62702 0
M  V30 35655 H 3348.03 4.03422 -1.59477 0
M  V30 35656 H 3348.7 5.46171 -0.800101 0
M  V30 35657 H 3351.18 4.11997 0.582871 0
M  V30 35658 H 3350.05 5.35485 1.20612 0
M  V30 35659 H 3350.32 3.87864 2.12164 0
M  V30 35660 N 3349.37 0.178515 1.56586 0
M  V30 35661 C 3350.79 -0.177562 1.58609 0
M  V30 35662 C 3350.99 -1.62304 1.19413 0
M  V30 35663 O 3350.05 -2.35567 0.909101 0
M  V30 35664 C 3351.36 0.109775 3.005 0
M  V30 35665 C 3352.91 0.0485586 3.12962 0
M  V30 35666 C 3353.38 0.308982 4.56957 0
M  V30 35667 N 3354.87 0.257011 4.62486 0
M  V30 35668 C 3355.61 0.432589 5.71766 0
M  V30 35669 N 3355.1 0.667615 6.89576 0
M  V30 35670 N 3356.9 0.367994 5.60894 0
M  V30 35671 H 3349.05 1.12196 1.80349 0
M  V30 35672 H 3351.31 0.446584 0.836222 0
M  V30 35673 H 3351.02 1.11139 3.33678 0
M  V30 35674 H 3350.89 -0.595308 3.72473 0
M  V30 35675 H 3353.28 -0.943638 2.79606 0
M  V30 35676 H 3353.36 0.786463 2.4341 0
M  V30 35677 H 3353 1.29842 4.91023 0
M  V30 35678 H 3352.93 -0.449618 5.24677 0
M  V30 35679 H 3355.42 0.0812972 3.77813 0
M  V30 35680 H 3355.74 0.790845 7.68743 0
M  V30 35681 H 3354.08 0.704315 6.91422 0
M  V30 35682 H 3357.27 0.184919 4.67735 0
M  V30 35683 H 3357.45 0.508252 6.46004 0
M  V30 35684 N 3350.85 -1.57312 -0.0951784 0
M  V30 35685 C 3352.08 -1.90014 -0.811059 0
M  V30 35686 C 3352.49 -0.770389 -1.72805 0
M  V30 35687 O 3351.83 0.266583 -1.81755 0
M  V30 35688 C 3351.9 -3.17969 -1.67738 0
M  V30 35689 C 3351.56 -4.47391 -0.932222 0
M  V30 35690 C 3352.56 -5.19239 -0.26207 0
M  V30 35691 C 3350.24 -4.94056 -0.906327 0
M  V30 35692 C 3352.24 -6.35988 0.424009 0
M  V30 35693 C 3349.92 -6.10717 -0.216462 0
M  V30 35694 C 3350.92 -6.81532 0.447528 0
M  V30 35695 O 3350.61 -7.9597 1.12633 0
M  V30 35696 H 3350.34 -0.63304 -0.237143 0
M  V30 35697 H 3352.89 -2.05256 -0.0768615 0
M  V30 35698 H 3351.12 -2.98873 -2.45381 0
M  V30 35699 H 3352.81 -3.36502 -2.26982 0
M  V30 35700 H 3353.58 -4.84228 -0.273536 0
M  V30 35701 H 3349.46 -4.38824 -1.41259 0
M  V30 35702 H 3353 -6.91199 0.942848 0
M  V30 35703 H 3348.9 -6.45181 -0.202842 0
M  V30 35704 H 3349.67 -8.11952 1.03322 0
M  V30 35705 N 3352.33 0.365999 -1.53291 0
M  V30 35706 C 3353.26 1.45434 -1.82678 0
M  V30 35707 C 3354.24 1.55906 -0.680255 0
M  V30 35708 O 3355.43 1.7048 -0.930062 0
M  V30 35709 C 3352.56 2.82776 -2.01631 0
M  V30 35710 C 3351.51 2.8713 -3.17397 0
M  V30 35711 C 3350.84 4.27142 -3.21642 0
M  V30 35712 C 3352.14 2.54689 -4.55994 0
M  V30 35713 H 3353.83 1.21091 -2.7382 0
M  V30 35714 H 3351.38 0.581085 -1.31755 0
M  V30 35715 H 3353.33 3.5894 -2.20772 0
M  V30 35716 H 3352.05 3.08506 -1.07198 0
M  V30 35717 H 3350.71 2.13417 -2.98075 0
M  V30 35718 H 3350.36 4.49947 -2.24848 0
M  V30 35719 H 3350.06 4.30971 -3.99422 0
M  V30 35720 H 3351.58 5.0518 -3.42966 0
M  V30 35721 H 3353 3.20567 -4.753 0
M  V30 35722 H 3351.4 2.69835 -5.36012 0
M  V30 35723 H 3352.47 1.49941 -4.61135 0
M  V30 35724 N 3353.81 1.44644 0.625774 0
M  V30 35725 C 3354.77 1.51558 1.71939 0
M  V30 35726 C 3355.77 0.397015 1.55822 0
M  V30 35727 O 3356.96 0.659838 1.6122 0
M  V30 35728 C 3354.09 1.39466 3.11066 0
M  V30 35729 H 3355.29 2.48979 1.67181 0
M  V30 35730 H 3352.84 1.31815 0.839911 0
M  V30 35731 H 3353.57 0.431591 3.21415 0
M  V30 35732 H 3353.36 2.2058 3.24171 0
M  V30 35733 H 3354.85 1.47297 3.9076 0
M  V30 35734 N 3355.29 -0.866663 1.31631 0
M  V30 35735 C 3356.53 -1.61676 1.21266 0
M  V30 35736 C 3356.86 -1.93656 -0.228528 0
M  V30 35737 O 3356.13 -1.58585 -1.15012 0
M  V30 35738 H 3354.71 -0.599372 0.445827 0
M  V30 35739 H 3357.37 -1.03736 1.64999 0
M  V30 35740 H 3356.46 -2.55895 1.78673 0
M  V30 35741 N 3356.77 -1.14645 -1.0814 0
M  V30 35742 C 3358.01 -0.926779 -1.82182 0
M  V30 35743 C 3358.37 0.536887 -1.84341 0
M  V30 35744 O 3359.57 0.874606 -2.54173 0
M  V30 35745 C 3357.84 -1.51452 -3.23724 0
M  V30 35746 S 3359.4 -1.4368 -4.1461 0
M  V30 35747 H 3356.22 -0.333732 -0.627809 0
M  V30 35748 H 3358.82 -1.46046 -1.29965 0
M  V30 35749 H 3357.52 -2.57288 -3.19736 0
M  V30 35750 H 3357.06 -0.979356 -3.81015 0
M  V30 35751 H 3359.07 -0.424192 -4.94384 0
M  V30 35752 N 3358.24 1.26349 -0.942 0
M  V30 35753 C 3359.49 1.93332 -0.58884 0
M  V30 35754 C 3359.81 1.74264 0.875036 0
M  V30 35755 O 3359.08 1.09876 1.62185 0
M  V30 35756 H 3357.66 0.715455 -0.214786 0
M  V30 35757 H 3360.32 1.53772 -1.1975 0
M  V30 35758 H 3359.42 3.01478 -0.80732 0
M  V30 35759 N 3359.72 0.709115 1.40746 0
M  V30 35760 C 3360.65 0.0670173 2.33404 0
M  V30 35761 C 3361.63 -0.752556 1.52547 0
M  V30 35762 O 3362.82 -0.702791 1.81037 0
M  V30 35763 C 3359.95 -0.860226 3.36478 0
M  V30 35764 C 3358.9 -0.146753 4.27748 0
M  V30 35765 C 3358.23 -1.18927 5.21306 0
M  V30 35766 C 3359.53 0.995154 5.12732 0
M  V30 35767 H 3361.22 0.840938 2.87348 0
M  V30 35768 H 3358.77 0.405841 1.38163 0
M  V30 35769 H 3360.72 -1.31876 4.00233 0
M  V30 35770 H 3359.44 -1.66597 2.80915 0
M  V30 35771 H 3358.1 0.29189 3.65436 0
M  V30 35772 H 3357.75 -1.9879 4.62051 0
M  V30 35773 H 3357.45 -0.716815 5.83211 0
M  V30 35774 H 3358.98 -1.64804 5.87939 0
M  V30 35775 H 3360.39 0.616281 5.69978 0
M  V30 35776 H 3358.79 1.39557 5.83647 0
M  V30 35777 H 3359.86 1.82875 4.49093 0
M  V30 35778 N 3361.2 -1.50894 0.454829 0
M  V30 35779 C 3362.13 -2.25964 -0.383786 0
M  V30 35780 C 3363.14 -1.30655 -0.97124 0
M  V30 35781 O 3364.33 -1.56284 -0.862406 0
M  V30 35782 C 3361.43 -3.01344 -1.55064 0
M  V30 35783 C 3360.61 -4.23885 -1.07892 0
M  V30 35784 C 3359.67 -4.81696 -2.11792 0
M  V30 35785 O 3358.69 -5.4306 -1.70513 0
M  V30 35786 N 3359.89 -4.67262 -3.44451 0
M  V30 35787 H 3362.66 -2.98573 0.259698 0
M  V30 35788 H 3360.22 -1.59377 0.284689 0
M  V30 35789 H 3362.21 -3.36902 -2.2423 0
M  V30 35790 H 3360.78 -2.31636 -2.09913 0
M  V30 35791 H 3360 -3.9362 -0.213703 0
M  V30 35792 H 3361.29 -5.03369 -0.741412 0
M  V30 35793 H 3360.69 -4.18423 -3.80708 0
M  V30 35794 H 3359.24 -5.07134 -4.09461 0
M  V30 35795 N 3362.68 -0.186817 -1.56489 0
M  V30 35796 C 3363.9 0.463091 -2.02164 0
M  V30 35797 C 3364.33 1.54967 -1.06615 0
M  V30 35798 O 3363.69 1.81236 -0.0482457 0
M  V30 35799 C 3363.73 1.0041 -3.46338 0
M  V30 35800 O 3362.84 2.1174 -3.53892 0
M  V30 35801 H 3362.18 0.109183 -0.654962 0
M  V30 35802 H 3364.71 -0.295263 -2.02458 0
M  V30 35803 H 3364.72 1.3228 -3.85961 0
M  V30 35804 H 3363.39 0.20862 -4.15376 0
M  V30 35805 H 3361.97 1.80797 -3.26139 0
M  V30 35806 N 3364.16 1.57361 0.0868344 0
M  V30 35807 C 3365.4 1.88334 0.794325 0
M  V30 35808 C 3365.76 0.778814 1.75495 0
M  V30 35809 O 3366.96 0.971196 2.50642 0
M  V30 35810 C 3365.23 3.24547 1.4968 0
M  V30 35811 S 3366.79 3.77234 2.24143 0
M  V30 35812 H 3363.61 0.659983 0.264468 0
M  V30 35813 H 3366.21 1.95433 0.0510703 0
M  V30 35814 H 3364.91 4.02849 0.783643 0
M  V30 35815 H 3364.45 3.20608 2.27979 0
M  V30 35816 H 3366.46 3.51313 3.5042 0
M  V30 35817 N 3365.63 -0.357865 1.53483 0
M  V30 35818 C 3366.57 -1.45907 1.76759 0
M  V30 35819 C 3367.58 -1.49325 0.648528 0
M  V30 35820 O 3368.77 -1.52665 0.924959 0
M  V30 35821 C 3365.87 -2.84637 1.83943 0
M  V30 35822 C 3365.04 -3.04825 3.13688 0
M  V30 35823 C 3364.1 -4.23714 3.12014 0
M  V30 35824 O 3363.13 -4.18517 3.85787 0
M  V30 35825 N 3364.33 -5.31523 2.33375 0
M  V30 35826 H 3367.09 -1.26316 2.7178 0
M  V30 35827 H 3364.65 -0.547646 1.52356 0
M  V30 35828 H 3366.65 -3.62322 1.80292 0
M  V30 35829 H 3365.22 -2.97438 0.961727 0
M  V30 35830 H 3364.44 -2.14733 3.3058 0
M  V30 35831 H 3365.72 -3.15187 3.99418 0
M  V30 35832 H 3365.12 -5.3861 1.72963 0
M  V30 35833 H 3363.68 -6.07755 2.35535 0
M  V30 35834 N 3367.11 -1.44974 -0.618094 0
M  V30 35835 C 3368.04 -1.47321 -1.74275 0
M  V30 35836 C 3369.02 -0.330655 -1.59202 0
M  V30 35837 O 3370.21 -0.529589 -1.80908 0
M  V30 35838 C 3367.33 -1.31828 -3.11992 0
M  V30 35839 C 3366.38 -2.49815 -3.4568 0
M  V30 35840 S 3367.21 -4.12315 -3.41696 0
M  V30 35841 C 3368.37 -3.99269 -4.82012 0
M  V30 35842 H 3368.6 -2.42481 -1.72018 0
M  V30 35843 H 3366.13 -1.32429 -0.793843 0
M  V30 35844 H 3368.09 -1.23577 -3.91458 0
M  V30 35845 H 3366.75 -0.381576 -3.11774 0
M  V30 35846 H 3365.95 -2.34872 -4.45927 0
M  V30 35847 H 3365.55 -2.54874 -2.73707 0
M  V30 35848 H 3367.84 -3.63764 -5.71561 0
M  V30 35849 H 3368.78 -4.99391 -5.0201 0
M  V30 35850 H 3369.19 -3.31103 -4.57199 0
M  V30 35851 N 3368.59 0.85967 -1.32089 0
M  V30 35852 C 3369.52 1.98348 -1.23208 0
M  V30 35853 C 3370.5 1.69697 -0.117003 0
M  V30 35854 O 3371.69 1.91816 -0.303335 0
M  V30 35855 C 3368.82 3.34076 -0.949229 0
M  V30 35856 C 3367.77 3.77065 -2.02499 0
M  V30 35857 C 3367.1 5.10368 -1.59464 0
M  V30 35858 C 3368.4 3.93068 -3.43941 0
M  V30 35859 H 3370.09 2.06037 -2.17231 0
M  V30 35860 H 3367.64 0.989912 -1.04579 0
M  V30 35861 H 3369.59 4.12244 -0.873666 0
M  V30 35862 H 3368.31 3.26589 0.0266521 0
M  V30 35863 H 3366.97 3.01145 -2.09062 0
M  V30 35864 H 3366.62 4.99332 -0.606344 0
M  V30 35865 H 3366.32 5.40102 -2.31439 0
M  V30 35866 H 3367.84 5.91034 -1.53335 0
M  V30 35867 H 3369.26 4.61602 -3.39995 0
M  V30 35868 H 3367.65 4.34213 -4.14221 0
M  V30 35869 H 3368.72 2.96133 -3.8397 0
M  V30 35870 N 3370.07 1.15217 1.0753 0
M  V30 35871 C 3371.31 0.927294 1.80358 0
M  V30 35872 C 3371.65 -0.544338 1.86415 0
M  V30 35873 O 3370.92 -1.4035 1.34655 0
M  V30 35874 C 3371.2 1.53998 3.2551 0
M  V30 35875 C 3371.06 3.08209 3.27609 0
M  V30 35876 C 3372.38 1.22426 4.22729 0
M  V30 35877 H 3369.5 0.3383 0.654769 0
M  V30 35878 H 3372.14 1.42353 1.25839 0
M  V30 35879 H 3370.29 1.11798 3.72066 0
M  V30 35880 H 3371.96 3.59302 2.89309 0
M  V30 35881 H 3370.2 3.42193 2.66621 0
M  V30 35882 H 3370.87 3.4619 4.2995 0
M  V30 35883 H 3373.35 1.58926 3.84554 0
M  V30 35884 H 3372.23 1.67915 5.22586 0
M  V30 35885 H 3372.49 0.140987 4.41875 0
M  V30 35886 N 3371.55 -1.25848 0.948687 0
M  V30 35887 C 3372.77 -1.98017 0.616776 0
M  V30 35888 C 3373.2 -1.701 -0.802975 0
M  V30 35889 O 3372.55 -0.953419 -1.54206 0
M  V30 35890 C 3372.6 -3.49836 0.874491 0
M  V30 35891 O 3371.71 -4.1237 -0.0496843 0
M  V30 35892 H 3371.05 -0.620978 0.235123 0
M  V30 35893 H 3373.58 -1.60122 1.27367 0
M  V30 35894 H 3373.59 -4.00112 0.79838 0
M  V30 35895 H 3372.26 -3.69485 1.90929 0
M  V30 35896 H 3370.84 -3.72818 0.0781247 0
M  V30 35897 N 3373.02 -0.716569 -1.40368 0
M  V30 35898 C 3373.97 -0.064635 -2.30709 0
M  V30 35899 C 3374.94 0.749268 -1.4824 0
M  V30 35900 O 3376.13 0.713014 -1.76977 0
M  V30 35901 C 3373.27 0.850419 -3.34458 0
M  V30 35902 C 3372.38 0.0258834 -4.31992 0
M  V30 35903 C 3371.51 0.940507 -5.22808 0
M  V30 35904 C 3370.55 0.11012 -6.12001 0
M  V30 35905 N 3369.69 0.979674 -6.95231 0
M  V30 35906 H 3374.53 -0.840733 -2.85895 0
M  V30 35907 H 3372.07 -0.426283 -1.40788 0
M  V30 35908 H 3374.03 1.39521 -3.93179 0
M  V30 35909 H 3372.66 1.59269 -2.80773 0
M  V30 35910 H 3371.71 -0.636102 -3.75044 0
M  V30 35911 H 3373.02 -0.61697 -4.9497 0
M  V30 35912 H 3372.17 1.55379 -5.86466 0
M  V30 35913 H 3370.91 1.61718 -4.60107 0
M  V30 35914 H 3369.92 -0.516097 -5.47372 0
M  V30 35915 H 3371.14 -0.563063 -6.76762 0
M  V30 35916 H 3369.09 1.64198 -6.35118 0
M  V30 35917 H 3369.01 0.392879 -7.54978 0
M  V30 35918 H 3370.27 1.57911 -7.63338 0
M  V30 35919 N 3374.5 1.50651 -0.462825 0
M  V30 35920 C 3375.75 2.01877 0.0948213 0
M  V30 35921 C 3376.07 1.34744 1.40958 0
M  V30 35922 O 3375.34 0.490093 1.89671 0
M  V30 35923 H 3373.92 0.746031 0.0380322 0
M  V30 35924 H 3376.58 1.85063 -0.61136 0
M  V30 35925 H 3375.68 3.11078 0.252323 0
M  V30 35926 N 3375.98 0.195113 1.56388 0
M  V30 35927 C 3377.21 -0.448602 2.01671 0
M  V30 35928 C 3377.62 -1.55734 1.07441 0
M  V30 35929 O 3376.96 -1.83561 0.0714732 0
M  V30 35930 C 3377.02 -1.06541 3.4335 0
M  V30 35931 C 3376.69 -0.0954097 4.569 0
M  V30 35932 C 3377.68 0.695207 5.15231 0
M  V30 35933 C 3375.37 0.0156772 5.02298 0
M  V30 35934 C 3377.36 1.58388 6.17408 0
M  V30 35935 C 3375.05 0.907905 6.04318 0
M  V30 35936 C 3376.05 1.69057 6.61747 0
M  V30 35937 O 3375.74 2.56785 7.61785 0
M  V30 35938 H 3375.47 -0.116951 0.665807 0
M  V30 35939 H 3378.02 0.301098 2.03181 0
M  V30 35940 H 3376.25 -1.8637 3.38826 0
M  V30 35941 H 3377.94 -1.61378 3.7244 0
M  V30 35942 H 3378.71 0.619689 4.81025 0
M  V30 35943 H 3374.59 -0.583344 4.57294 0
M  V30 35944 H 3378.13 2.19522 6.6216 0
M  V30 35945 H 3374.03 0.984539 6.37948 0
M  V30 35946 H 3374.8 2.50564 7.79205 0
M  V30 35947 N 3377.46 -1.57404 -0.0784879 0
M  V30 35948 C 3378.87 -1.7571 -0.631101 0
M  V30 35949 C 3379.22 -0.819637 -1.78259 0
M  V30 35950 O 3378.35 -0.00210716 -2.164 0
M  V30 35951 C 3378.94 -3.18627 -1.15162 0
M  V30 35952 C 3377.5 -3.383 -1.65015 0
M  V30 35953 C 3376.65 -2.71447 -0.566725 0
M  V30 35954 H 3379.6 -1.58012 0.147659 0
M  V30 35955 H 3379.62 -3.22416 -2.02059 0
M  V30 35956 H 3379.13 -3.86833 -0.313331 0
M  V30 35957 H 3377.23 -2.75198 -2.51191 0
M  V30 35958 H 3377.34 -4.46709 -1.73171 0
M  V30 35959 H 3375.71 -2.33811 -1.01017 0
M  V30 35960 H 3376.49 -3.42304 0.261264 0
M  V30 35961 N 3378.94 0.34972 -1.53671 0
M  V30 35962 C 3380.21 1.10729 -1.6124 0
M  V30 35963 C 3380.59 2.06678 -0.429792 0
M  V30 35964 O 3379.94 2.21055 0.578525 0
M  V30 35965 C 3380.15 1.8324 -2.97025 0
M  V30 35966 C 3381.5 2.37206 -3.52163 0
M  V30 35967 O 3382.52 1.93345 -2.99159 0
M  V30 35968 O 3381.38 3.17432 -4.44859 0
M  V30 35969 H 3378.48 0.508853 -0.651918 0
M  V30 35970 H 3381.02 0.351709 -1.66015 0
M  V30 35971 H 3379.79 1.13305 -3.74537 0
M  V30 35972 H 3379.42 2.6567 -2.95813 0
M  V30 35973 N 3380.41 1.45299 0.610397 0
M  V30 35974 C 3381.66 1.48444 1.36556 0
M  V30 35975 C 3381.98 0.129171 1.95173 0
M  V30 35976 O 3383.18 0.0382433 2.71473 0
M  V30 35977 C 3381.64 2.61436 2.47345 0
M  V30 35978 C 3381.25 4.03262 1.95151 0
M  V30 35979 C 3382.99 2.73823 3.24378 0
M  V30 35980 C 3380.9 5.07641 3.03405 0
M  V30 35981 H 3379.83 0.552356 0.513243 0
M  V30 35982 H 3382.48 1.71431 0.654505 0
M  V30 35983 H 3380.86 2.31726 3.21121 0
M  V30 35984 H 3382.03 4.42636 1.28102 0
M  V30 35985 H 3380.35 3.953 1.30871 0
M  V30 35986 H 3382.95 3.48976 4.05117 0
M  V30 35987 H 3383.29 1.80358 3.75202 0
M  V30 35988 H 3383.82 3.03044 2.577 0
M  V30 35989 H 3380.56 6.02804 2.57502 0
M  V30 35990 H 3380.08 4.72839 3.6903 0
M  V30 35991 H 3381.76 5.32266 3.67835 0
M  V30 35992 N 3381.89 -0.852653 1.32543 0
M  V30 35993 C 3383.14 -1.6038 1.22974 0
M  V30 35994 C 3383.46 -1.93888 -0.207975 0
M  V30 35995 O 3382.73 -1.59796 -1.13323 0
M  V30 35996 H 3381.31 -0.59461 0.452159 0
M  V30 35997 H 3383.97 -1.0198 1.6609 0
M  V30 35998 H 3383.07 -2.53986 1.81377 0
M  V30 35999 N 3383.37 -1.15786 -1.06918 0
M  V30 36000 C 3384.62 -0.946826 -1.80019 0
M  V30 36001 C 3384.97 0.520236 -1.85233 0
M  V30 36002 O 3384.26 1.38085 -1.32828 0
M  V30 36003 C 3384.46 -1.50028 -3.24386 0
M  V30 36004 C 3384.29 -3.01963 -3.33239 0
M  V30 36005 C 3383.06 -3.70549 -3.43543 0
M  V30 36006 C 3385.26 -3.99712 -3.23627 0
M  V30 36007 N 3383.24 -5.10252 -3.41345 0
M  V30 36008 C 3384.61 -5.2576 -3.28598 0
M  V30 36009 C 3386.66 -3.91622 -3.07468 0
M  V30 36010 C 3385.37 -6.44659 -3.19072 0
M  V30 36011 C 3387.39 -5.10085 -2.99277 0
M  V30 36012 C 3386.75 -6.35009 -3.04865 0
M  V30 36013 H 3382.85 -0.400174 -0.671852 0
M  V30 36014 H 3385.44 -1.47068 -1.27589 0
M  V30 36015 H 3383.61 -1.003 -3.75226 0
M  V30 36016 H 3385.34 -1.22763 -3.85631 0
M  V30 36017 H 3382.1 -3.21157 -3.48074 0
M  V30 36018 H 3382.52 -5.8323 -3.43762 0
M  V30 36019 H 3387.16 -2.959 -3.01998 0
M  V30 36020 H 3384.88 -7.4061 -3.233 0
M  V30 36021 H 3388.47 -5.0559 -2.87871 0
M  V30 36022 H 3387.35 -7.25135 -2.98577 0
M  V30 36023 N 3384.85 1.25343 -0.955348 0
M  V30 36024 C 3385.8 2.27859 -0.467245 0
M  V30 36025 C 3386.79 1.62954 0.462844 0
M  V30 36026 O 3388 1.76769 0.339495 0
M  V30 36027 H 3384.37 0.740217 -0.132599 0
M  V30 36028 H 3386.34 2.66414 -1.34411 0
M  V30 36029 C 3385.09 3.46879 0.238837 0
M  V30 36030 H 3384.41 3.97055 -0.467713 0
M  V30 36031 H 3385.85 4.20491 0.54437 0
M  V30 36032 C 3384.31 3.03544 1.46159 0
M  V30 36033 O 3384.84 3.09619 2.55928 0
M  V30 36034 N 3383.05 2.58728 1.32319 0
M  V30 36035 H 3382.6 2.53984 0.430087 0
M  V30 36036 H 3382.55 2.30098 2.14248 0
M  V30 36037 N 3386.33 0.724003 1.39986 0
M  V30 36038 C 3387.74 0.338494 1.83606 0
M  V30 36039 C 3388.09 -1.12829 1.60512 0
M  V30 36040 O 3387.21 -1.86918 1.09044 0
M  V30 36041 C 3387.81 0.607591 3.33307 0
M  V30 36042 C 3386.37 0.275698 3.75389 0
M  V30 36043 C 3385.52 0.875745 2.63108 0
M  V30 36044 H 3388.47 0.922505 1.29134 0
M  V30 36045 H 3388.49 -0.124357 3.80297 0
M  V30 36046 H 3388 1.6752 3.50084 0
M  V30 36047 H 3386.1 -0.786515 3.64204 0
M  V30 36048 H 3386.21 0.750576 4.73184 0
M  V30 36049 H 3384.58 0.303166 2.52889 0
M  V30 36050 H 3385.36 1.94779 2.82694 0
M  V30 36051 N 3387.81 -1.50403 0.470808 0
M  V30 36052 C 3389.05 -2.02624 -0.0844053 0
M  V30 36053 C 3389.38 -1.35212 -1.39396 0
M  V30 36054 O 3388.66 -0.477741 -1.88541 0
M  V30 36055 C 3388.94 -3.59098 -0.2685 0
M  V30 36056 C 3388.8 -4.37082 1.06205 0
M  V30 36057 C 3390.11 -4.28041 -1.02317 0
M  V30 36058 H 3387.23 -0.736421 -0.0292011 0
M  V30 36059 H 3389.88 -1.79725 0.616343 0
M  V30 36060 H 3388.03 -3.78739 -0.865374 0
M  V30 36061 H 3389.7 -4.29012 1.69549 0
M  V30 36062 H 3387.94 -4.00834 1.65875 0
M  V30 36063 H 3388.61 -5.44829 0.886891 0
M  V30 36064 H 3391.09 -4.12873 -0.517252 0
M  V30 36065 H 3389.96 -5.37336 -1.12078 0
M  V30 36066 H 3390.22 -3.91191 -2.05967 0
M  V30 36067 N 3389.28 -0.203404 -1.56282 0
M  V30 36068 C 3390.19 0.725883 -2.23088 0
M  V30 36069 C 3391.21 1.22812 -1.23261 0
M  V30 36070 O 3392.39 1.27354 -1.56022 0
M  V30 36071 C 3389.45 1.9248 -2.88362 0
M  V30 36072 C 3388.51 1.46631 -4.03482 0
M  V30 36073 C 3387.74 2.60808 -4.65634 0
M  V30 36074 O 3387.97 3.78498 -4.26726 0
M  V30 36075 O 3386.9 2.33046 -5.54953 0
M  V30 36076 H 3390.73 0.186887 -3.03124 0
M  V30 36077 H 3388.31 0.0262567 -1.49377 0
M  V30 36078 H 3390.19 2.62533 -3.29627 0
M  V30 36079 H 3388.87 2.45224 -2.11298 0
M  V30 36080 H 3387.78 0.734331 -3.66822 0
M  V30 36081 H 3389.11 0.98545 -4.82234 0
M  V30 36082 N 3390.76 1.57444 0.0701393 0
M  V30 36083 C 3392.01 1.86961 0.767462 0
M  V30 36084 C 3392.33 0.795626 1.7803 0
M  V30 36085 O 3391.6 -0.175532 1.95112 0
M  V30 36086 H 3390.18 0.689903 0.286431 0
M  V30 36087 H 3392.84 1.94846 0.0458349 0
M  V30 36088 H 3391.94 2.84525 1.28264 0
M  V30 36089 N 3392.24 -0.341566 1.53854 0
M  V30 36090 C 3393.15 -1.44293 1.84977 0
M  V30 36091 C 3394.17 -1.57476 0.740085 0
M  V30 36092 O 3395.34 -1.72915 1.03259 0
M  V30 36093 C 3392.41 -2.79255 2.05469 0
M  V30 36094 C 3391.47 -2.754 3.29323 0
M  V30 36095 C 3390.7 -4.03925 3.48827 0
M  V30 36096 O 3390.92 -5.01301 2.72128 0
M  V30 36097 O 3389.86 -4.08276 4.4226 0
M  V30 36098 H 3393.68 -1.20908 2.78595 0
M  V30 36099 H 3391.27 -0.533928 1.39533 0
M  V30 36100 H 3393.15 -3.5918 2.2038 0
M  V30 36101 H 3391.83 -3.02568 1.1504 0
M  V30 36102 H 3390.73 -1.94088 3.19813 0
M  V30 36103 H 3392.07 -2.57041 4.19751 0
M  V30 36104 N 3393.72 -1.45621 -0.602683 0
M  V30 36105 C 3395.13 -1.30135 -0.92396 0
M  V30 36106 C 3395.33 -0.257995 -1.99842 0
M  V30 36107 O 3394.39 0.346371 -2.50113 0
M  V30 36108 C 3395.7 -2.68175 -1.36024 0
M  V30 36109 C 3397.25 -2.7611 -1.47418 0
M  V30 36110 C 3397.73 -4.14687 -1.9442 0
M  V30 36111 N 3399.22 -4.17005 -2.01646 0
M  V30 36112 C 3399.95 -5.21104 -2.39246 0
M  V30 36113 N 3399.45 -6.35545 -2.7578 0
M  V30 36114 N 3401.24 -5.08464 -2.39627 0
M  V30 36115 H 3393.39 -2.12128 0.107414 0
M  V30 36116 H 3395.65 -0.947887 -0.0146049 0
M  V30 36117 H 3395.36 -3.45737 -0.644889 0
M  V30 36118 H 3395.23 -2.96963 -2.32579 0
M  V30 36119 H 3397.62 -1.98849 -2.18043 0
M  V30 36120 H 3397.7 -2.51031 -0.491656 0
M  V30 36121 H 3397.35 -4.92435 -1.2438 0
M  V30 36122 H 3397.28 -4.37161 -2.93595 0
M  V30 36123 H 3399.77 -3.34423 -1.75982 0
M  V30 36124 H 3400.08 -7.10767 -3.03366 0
M  V30 36125 H 3398.43 -6.38939 -2.73464 0
M  V30 36126 H 3401.62 -4.18102 -2.10495 0
M  V30 36127 H 3401.79 -5.89708 -2.68604 0
M  V30 36128 N 3395.2 0.845612 -1.32993 0
M  V30 36129 C 3396.43 1.63029 -1.26906 0
M  V30 36130 C 3396.83 1.88492 0.163556 0
M  V30 36131 O 3396.18 1.46068 1.114 0
M  V30 36132 C 3396.24 3.00817 -1.96848 0
M  V30 36133 C 3395.9 2.98356 -3.46169 0
M  V30 36134 C 3396.9 2.74554 -4.41493 0
M  V30 36135 C 3394.58 3.18705 -3.88243 0
M  V30 36136 C 3396.58 2.71119 -5.76865 0
M  V30 36137 C 3394.27 3.14896 -5.23721 0
M  V30 36138 C 3395.26 2.91133 -6.17843 0
M  V30 36139 O 3394.95 2.87215 -7.50842 0
M  V30 36140 H 3394.68 0.514215 -0.438815 0
M  V30 36141 H 3397.24 1.06193 -1.75819 0
M  V30 36142 H 3395.47 3.5948 -1.42517 0
M  V30 36143 H 3397.16 3.61621 -1.8435 0
M  V30 36144 H 3397.92 2.5859 -4.10312 0
M  V30 36145 H 3393.8 3.36224 -3.15396 0
M  V30 36146 H 3397.35 2.52491 -6.50303 0
M  V30 36147 H 3393.24 3.30407 -5.54528 0
M  V30 36148 H 3394.01 3.03105 -7.60309 0
M  V30 36149 N 3396.67 1.16351 1.06302 0
M  V30 36150 C 3397.6 0.893141 2.15743 0
M  V30 36151 C 3398.58 -0.160501 1.69341 0
M  V30 36152 O 3399.77 -0.0126184 1.94196 0
M  V30 36153 C 3396.9 0.393348 3.45065 0
M  V30 36154 C 3395.85 1.38489 4.04975 0
M  V30 36155 C 3395.18 0.743502 5.29506 0
M  V30 36156 C 3396.48 2.75445 4.43765 0
M  V30 36157 H 3398.17 1.80836 2.38619 0
M  V30 36158 H 3395.72 0.870898 1.14679 0
M  V30 36159 H 3397.67 0.191681 4.20964 0
M  V30 36160 H 3396.4 -0.55737 3.21809 0
M  V30 36161 H 3395.06 1.5731 3.31133 0
M  V30 36162 H 3394.7 -0.213699 5.02546 0
M  V30 36163 H 3394.4 1.40531 5.70548 0
M  V30 36164 H 3395.93 0.551853 6.08101 0
M  V30 36165 H 3397.34 2.60407 5.10745 0
M  V30 36166 H 3395.74 3.381 4.95791 0
M  V30 36167 H 3396.81 3.30705 3.5463 0
M  V30 36168 N 3398.15 -1.24835 0.961982 0
M  V30 36169 C 3399.43 -1.8806 0.537842 0
M  V30 36170 C 3399.81 -1.86711 -0.98499 0
M  V30 36171 O 3399.16 -1.33575 -1.85391 0
M  V30 36172 C 3399.37 -3.30444 1.12285 0
M  V30 36173 C 3400.71 -4.07166 1.20422 0
M  V30 36174 O 3401.74 -3.39593 1.07494 0
M  V30 36175 O 3400.6 -5.28054 1.4079 0
M  V30 36176 H 3397.69 -0.807505 0.178505 0
M  V30 36177 H 3400.24 -1.3285 1.05589 0
M  V30 36178 H 3399.01 -3.25894 2.16584 0
M  V30 36179 H 3398.63 -3.93221 0.588499 0
M  V30 36180 N 3399.63 -0.731417 -1.396 0
M  V30 36181 C 3400.88 -0.277792 -2.00586 0
M  V30 36182 C 3401.2 1.13389 -1.58029 0
M  V30 36183 O 3400.46 1.78659 -0.798722 0
M  V30 36184 C 3400.76 -0.323415 -3.55934 0
M  V30 36185 C 3400.42 -1.68761 -4.18128 0
M  V30 36186 C 3399.09 -2.061 -4.34829 0
M  V30 36187 C 3401.44 -2.58347 -4.52666 0
M  V30 36188 C 3398.77 -3.32541 -4.83356 0
M  V30 36189 C 3401.12 -3.84157 -5.026 0
M  V30 36190 C 3399.78 -4.21593 -5.17509 0
M  V30 36191 H 3399.05 -0.101651 -0.733995 0
M  V30 36192 H 3401.7 -0.937557 -1.66979 0
M  V30 36193 H 3400 0.419926 -3.89543 0
M  V30 36194 H 3401.7 0.045653 -4.00974 0
M  V30 36195 H 3398.29 -1.38729 -4.05527 0
M  V30 36196 H 3402.48 -2.30771 -4.39384 0
M  V30 36197 H 3397.73 -3.61494 -4.93084 0
M  V30 36198 H 3401.91 -4.53734 -5.28298 0
M  V30 36199 H 3399.53 -5.19635 -5.54873 0
M  V30 36200 N 3401.11 1.50152 -0.478778 0
M  V30 36201 C 3402.04 2.3155 0.301141 0
M  V30 36202 C 3403.02 1.38803 0.983252 0
M  V30 36203 O 3404.2 1.67721 0.978944 0
M  V30 36204 C 3401.33 3.18747 1.37904 0
M  V30 36205 C 3400.29 4.20108 0.818101 0
M  V30 36206 C 3399.61 4.96094 1.99487 0
M  V30 36207 C 3400.91 5.22004 -0.175832 0
M  V30 36208 H 3402.61 2.97001 -0.37824 0
M  V30 36209 H 3400.15 1.42828 -0.183348 0
M  V30 36210 H 3402.11 3.74492 1.9322 0
M  V30 36211 H 3400.83 2.51196 2.0873 0
M  V30 36212 H 3399.49 3.65476 0.28686 0
M  V30 36213 H 3399.14 4.25009 2.69029 0
M  V30 36214 H 3398.84 5.64663 1.62572 0
M  V30 36215 H 3400.36 5.54676 2.55279 0
M  V30 36216 H 3401.78 5.72574 0.288413 0
M  V30 36217 H 3400.17 5.98337 -0.459654 0
M  V30 36218 H 3401.24 4.72277 -1.09919 0
M  V30 36219 N 3402.59 0.211689 1.56172 0
M  V30 36220 C 3404 -0.143879 1.5895 0
M  V30 36221 C 3404.2 -1.59735 1.22829 0
M  V30 36222 O 3403.26 -2.33585 0.958864 0
M  V30 36223 C 3404.57 0.173491 3.00199 0
M  V30 36224 C 3406.12 0.114932 3.12789 0
M  V30 36225 C 3406.59 0.405839 4.56198 0
M  V30 36226 N 3408.09 0.355054 4.61837 0
M  V30 36227 C 3408.82 0.553772 5.7072 0
M  V30 36228 N 3408.32 0.813734 6.88005 0
M  V30 36229 N 3410.11 0.486885 5.59987 0
M  V30 36230 H 3402.26 1.15996 1.77929 0
M  V30 36231 H 3404.52 0.464221 0.826561 0
M  V30 36232 H 3404.23 1.18191 3.31246 0
M  V30 36233 H 3404.1 -0.516167 3.73652 0
M  V30 36234 H 3406.49 -0.884117 2.81545 0
M  V30 36235 H 3406.57 0.837917 2.41687 0
M  V30 36236 H 3406.22 1.40228 4.88158 0
M  V30 36237 H 3406.15 -0.338225 5.25513 0
M  V30 36238 H 3408.64 0.161419 3.77555 0
M  V30 36239 H 3408.95 0.953729 7.66892 0
M  V30 36240 H 3407.29 0.850817 6.89772 0
M  V30 36241 H 3410.49 0.284091 4.67237 0
M  V30 36242 H 3410.66 0.645164 6.4478 0
M  V30 36243 N 3404.06 -1.57479 -0.0617887 0
M  V30 36244 C 3405.31 -1.87736 -0.759036 0
M  V30 36245 C 3405.64 -0.804763 -1.7707 0
M  V30 36246 O 3404.89 0.198138 -1.94694 0
M  V30 36247 C 3405.19 -3.24683 -1.49385 0
M  V30 36248 C 3404.86 -4.466 -0.621234 0
M  V30 36249 C 3403.52 -4.79691 -0.380789 0
M  V30 36250 C 3405.87 -5.21197 -0.0167621 0
M  V30 36251 C 3403.2 -5.84787 0.473444 0
M  V30 36252 C 3405.55 -6.27198 0.824983 0
M  V30 36253 C 3404.22 -6.58783 1.0752 0
M  V30 36254 H 3403.49 -0.686976 -0.277751 0
M  V30 36255 H 3406.13 -1.9149 -0.0195634 0
M  V30 36256 H 3404.44 -3.16766 -2.30579 0
M  V30 36257 H 3406.14 -3.45332 -2.03831 0
M  V30 36258 H 3402.73 -4.20707 -0.818774 0
M  V30 36259 H 3406.91 -4.95938 -0.18962 0
M  V30 36260 H 3402.17 -6.07652 0.675948 0
M  V30 36261 H 3406.34 -6.84158 1.30006 0
M  V30 36262 H 3403.97 -7.40045 1.73889 0
M  V30 36263 N 3405.54 0.333401 -1.54033 0
M  V30 36264 C 3406.51 1.39285 -1.82023 0
M  V30 36265 C 3407.51 1.45165 -0.691649 0
M  V30 36266 O 3408.7 1.45364 -0.95995 0
M  V30 36267 C 3405.83 2.78116 -1.97141 0
M  V30 36268 H 3407.02 1.15725 -2.76673 0
M  V30 36269 H 3404.57 0.568351 -1.456 0
M  V30 36270 H 3405.31 3.06945 -1.04669 0
M  V30 36271 H 3405.09 2.75242 -2.79256 0
M  V30 36272 H 3406.58 3.54778 -2.20277 0
M  V30 36273 N 3407.02 1.45939 0.594952 0
M  V30 36274 C 3408.27 1.50837 1.35559 0
M  V30 36275 C 3408.6 0.1546 1.93584 0
M  V30 36276 O 3407.87 -0.83251 1.75783 0
M  V30 36277 C 3408.16 2.59744 2.49409 0
M  V30 36278 C 3408.01 4.04609 1.96499 0
M  V30 36279 C 3409.33 2.64831 3.515 0
M  V30 36280 H 3406.45 0.549143 0.49154 0
M  V30 36281 H 3409.09 1.77813 0.669505 0
M  V30 36282 H 3407.24 2.36872 3.07935 0
M  V30 36283 H 3408.91 4.3873 1.42525 0
M  V30 36284 H 3407.16 4.14667 1.2741 0
M  V30 36285 H 3407.83 4.7652 2.78627 0
M  V30 36286 H 3410.3 2.85359 3.02836 0
M  V30 36287 H 3409.18 3.42875 4.28635 0
M  V30 36288 H 3409.44 1.70406 4.07939 0
M  V30 36289 N 3408.5 -0.838547 1.3344 0
M  V30 36290 C 3409.75 -1.59382 1.24915 0
M  V30 36291 C 3410.07 -1.93618 -0.184983 0
M  V30 36292 O 3409.33 -1.58906 -1.14226 0
M  V30 36293 C 3409.63 -2.91347 2.07007 0
M  V30 36294 C 3409.29 -2.76471 3.56194 0
M  V30 36295 C 3407.96 -2.72122 3.96867 0
M  V30 36296 C 3410.31 -2.61253 4.50995 0
M  V30 36297 C 3407.64 -2.50454 5.30556 0
M  V30 36298 C 3409.99 -2.4112 5.84845 0
M  V30 36299 C 3408.65 -2.35172 6.247 0
M  V30 36300 H 3407.92 -0.58322 0.457095 0
M  V30 36301 H 3410.57 -0.971477 1.65029 0
M  V30 36302 H 3408.87 -3.57788 1.59671 0
M  V30 36303 H 3410.57 -3.48839 1.97768 0
M  V30 36304 H 3407.16 -2.80689 3.23901 0
M  V30 36305 H 3411.34 -2.63648 4.2048 0
M  V30 36306 H 3406.6 -2.44297 5.60472 0
M  V30 36307 H 3410.77 -2.28328 6.57905 0
M  V30 36308 H 3408.4 -2.18144 7.28229 0
M  V30 36309 N 3409.98 -1.16914 -1.05683 0
M  V30 36310 C 3411.22 -0.965214 -1.80175 0
M  V30 36311 C 3411.58 0.497665 -1.85438 0
M  V30 36312 O 3412.78 0.820495 -2.55971 0
M  V30 36313 C 3411.05 -1.58284 -3.20438 0
M  V30 36314 S 3412.61 -1.52443 -4.11469 0
M  V30 36315 H 3409.43 -0.346973 -0.620589 0
M  V30 36316 H 3412.03 -1.48769 -1.26838 0
M  V30 36317 H 3410.74 -2.64012 -3.14207 0
M  V30 36318 H 3410.27 -1.05995 -3.78852 0
M  V30 36319 H 3412.28 -0.528962 -4.93373 0
M  V30 36320 N 3411.45 1.24323 -0.968589 0
M  V30 36321 C 3412.4 2.2735 -0.491386 0
M  V30 36322 C 3413.4 1.63436 0.445535 0
M  V30 36323 O 3414.6 1.7712 0.320727 0
M  V30 36324 H 3410.98 0.738769 -0.140443 0
M  V30 36325 H 3412.95 2.64973 -1.37229 0
M  V30 36326 C 3411.7 3.47113 0.202032 0
M  V30 36327 H 3411.02 3.96536 -0.5098 0
M  V30 36328 H 3412.46 4.21045 0.499741 0
M  V30 36329 C 3410.92 3.05077 1.42931 0
M  V30 36330 O 3411.45 3.12316 2.52629 0
M  V30 36331 N 3409.66 2.60116 1.29568 0
M  V30 36332 H 3409.2 2.54426 0.403124 0
M  V30 36333 H 3409.16 2.32357 2.11796 0
M  V30 36334 N 3412.93 0.73881 1.3921 0
M  V30 36335 C 3414.18 0.287855 2.0004 0
M  V30 36336 C 3414.5 -1.12997 1.58923 0
M  V30 36337 O 3413.77 -1.77014 0.839224 0
M  V30 36338 H 3412.35 0.103438 0.739804 0
M  V30 36339 H 3415.01 0.949617 1.70201 0
M  V30 36340 H 3414.11 0.339262 3.10251 0
M  V30 36341 N 3414.41 -1.49895 0.486734 0
M  V30 36342 C 3415.32 -2.3262 -0.304181 0
M  V30 36343 C 3416.34 -1.43704 -0.981078 0
M  V30 36344 O 3417.51 -1.76743 -0.965608 0
M  V30 36345 C 3414.58 -3.18786 -1.36296 0
M  V30 36346 C 3413.64 -4.23538 -0.701008 0
M  V30 36347 C 3412.87 -5.05586 -1.70934 0
M  V30 36348 O 3413.09 -4.88936 -2.93765 0
M  V30 36349 O 3412.03 -5.88295 -1.27252 0
M  V30 36350 H 3415.85 -3.01407 0.372533 0
M  V30 36351 H 3413.44 -1.47322 0.248302 0
M  V30 36352 H 3415.32 -3.72206 -1.97587 0
M  V30 36353 H 3414 -2.5271 -2.02286 0
M  V30 36354 H 3412.9 -3.74068 -0.0487268 0
M  V30 36355 H 3414.24 -4.92129 -0.0837952 0
M  V30 36356 N 3415.89 -0.219968 -1.56057 0
M  V30 36357 C 3417.11 0.420105 -2.03101 0
M  V30 36358 C 3417.54 1.52671 -1.09878 0
M  V30 36359 O 3416.9 1.81093 -0.0866777 0
M  V30 36360 C 3416.95 0.930409 -3.4839 0
M  V30 36361 O 3416.05 2.04186 -3.58304 0
M  V30 36362 H 3415.39 0.0952656 -0.65713 0
M  V30 36363 H 3417.92 -0.338141 -2.01786 0
M  V30 36364 H 3417.93 1.24063 -3.8868 0
M  V30 36365 H 3416.61 0.120466 -4.15725 0
M  V30 36366 H 3415.18 1.73839 -3.29901 0
M  V30 36367 N 3417.37 1.57509 0.0534363 0
M  V30 36368 C 3418.61 1.88415 0.750179 0
M  V30 36369 C 3418.95 0.81465 1.76287 0
M  V30 36370 O 3418.22 -0.173102 1.93728 0
M  V30 36371 C 3418.5 3.2998 1.44171 0
M  V30 36372 C 3418.36 4.47601 0.444185 0
M  V30 36373 C 3419.68 3.70066 2.382 0
M  V30 36374 H 3416.8 0.685267 0.271254 0
M  V30 36375 H 3419.44 1.89995 0.0131342 0
M  V30 36376 H 3417.59 3.28763 2.06995 0
M  V30 36377 H 3419.26 4.60948 -0.180263 0
M  V30 36378 H 3417.5 4.33142 -0.238847 0
M  V30 36379 H 3418.17 5.43481 0.966038 0
M  V30 36380 H 3420.65 3.72493 1.8544 0
M  V30 36381 H 3419.53 4.69972 2.83579 0
M  V30 36382 H 3419.79 3.00991 3.23816 0
M  V30 36383 N 3418.85 -0.325228 1.54208 0
M  V30 36384 C 3419.76 -1.42323 1.86497 0
M  V30 36385 C 3420.77 -1.56682 0.756746 0
M  V30 36386 O 3421.95 -1.7181 1.05087 0
M  V30 36387 C 3419.01 -2.7706 2.08419 0
M  V30 36388 C 3418.07 -2.71891 3.32225 0
M  V30 36389 C 3417.31 -4.00202 3.53092 0
M  V30 36390 O 3417.53 -4.98386 2.7743 0
M  V30 36391 O 3416.46 -4.03562 4.46566 0
M  V30 36392 H 3420.29 -1.17946 2.79861 0
M  V30 36393 H 3417.87 -0.519099 1.40092 0
M  V30 36394 H 3419.76 -3.56823 2.24177 0
M  V30 36395 H 3418.43 -3.01331 1.18243 0
M  V30 36396 H 3417.34 -1.90685 3.21854 0
M  V30 36397 H 3418.67 -2.52575 4.22453 0
M  V30 36398 N 3420.32 -1.46252 -0.587204 0
M  V30 36399 C 3421.23 -1.59052 -1.72452 0
M  V30 36400 C 3422.25 -0.47416 -1.67415 0
M  V30 36401 O 3423.43 -0.737666 -1.87405 0
M  V30 36402 C 3420.49 -1.57324 -3.0895 0
M  V30 36403 C 3419.55 -2.80156 -3.25286 0
M  V30 36404 C 3418.78 -2.78501 -4.55272 0
M  V30 36405 O 3419.01 -1.86989 -5.3888 0
M  V30 36406 O 3417.94 -3.69983 -4.74759 0
M  V30 36407 H 3421.77 -2.55225 -1.64602 0
M  V30 36408 H 3419.35 -1.28994 -0.75372 0
M  V30 36409 H 3421.23 -1.5904 -3.90236 0
M  V30 36410 H 3419.91 -0.643081 -3.17248 0
M  V30 36411 H 3418.82 -2.83996 -2.4351 0
M  V30 36412 H 3420.15 -3.72366 -3.21877 0
M  V30 36413 N 3421.8 0.831459 -1.33883 0
M  V30 36414 C 3422.75 1.9632 -1.24744 0
M  V30 36415 C 3423.74 1.68759 -0.147281 0
M  V30 36416 O 3424.95 1.7728 -0.311715 0
M  V30 36417 H 3421.32 0.64459 -0.387309 0
M  V30 36418 H 3423.3 2.01151 -2.20411 0
M  V30 36419 C 3422.04 3.32675 -1.01108 0
M  V30 36420 H 3421.37 3.54426 -1.84992 0
M  V30 36421 H 3422.81 4.12341 -0.987471 0
M  V30 36422 C 3421.27 3.35685 0.285844 0
M  V30 36423 O 3421.8 3.80421 1.29007 0
M  V30 36424 N 3420 2.88877 0.315975 0
M  V30 36425 H 3419.55 2.52665 -0.501802 0
M  V30 36426 H 3419.51 2.91273 1.18352 0
M  V30 36427 N 3423.28 1.17472 1.05062 0
M  V30 36428 C 3424.24 0.894887 2.11008 0
M  V30 36429 C 3425.24 -0.115501 1.60385 0
M  V30 36430 O 3426.43 0.116816 1.73808 0
M  V30 36431 C 3423.56 0.340701 3.39193 0
M  V30 36432 H 3424.76 1.83425 2.37266 0
M  V30 36433 H 3422.31 0.985364 1.21327 0
M  V30 36434 H 3423.05 -0.605752 3.18592 0
M  V30 36435 H 3422.83 1.06892 3.77249 0
M  V30 36436 H 3424.32 0.163277 4.17281 0
M  V30 36437 N 3424.76 -1.23807 0.975168 0
M  V30 36438 C 3425.71 -2.27087 0.503436 0
M  V30 36439 C 3426.7 -1.6367 -0.436861 0
M  V30 36440 O 3427.91 -1.77287 -0.311329 0
M  V30 36441 H 3424.28 -0.738014 0.144359 0
M  V30 36442 H 3426.25 -2.64242 1.38632 0
M  V30 36443 C 3425 -3.47215 -0.183621 0
M  V30 36444 H 3424.32 -3.9626 0.530822 0
M  V30 36445 H 3425.76 -4.21304 -0.477405 0
M  V30 36446 C 3424.22 -3.05831 -1.41311 0
M  V30 36447 O 3424.75 -3.13651 -2.50969 0
M  V30 36448 N 3422.96 -2.608 -1.28186 0
M  V30 36449 H 3422.51 -2.54636 -0.389625 0
M  V30 36450 H 3422.46 -2.33477 -2.10561 0
M  V30 36451 N 3426.24 -0.746182 -1.38816 0
M  V30 36452 C 3427.48 -0.299494 -2.00576 0
M  V30 36453 C 3427.81 1.11375 -1.59089 0
M  V30 36454 O 3427.09 1.76138 -0.824963 0
M  V30 36455 C 3427.37 -0.413995 -3.57712 0
M  V30 36456 C 3427.23 -1.86781 -4.09186 0
M  V30 36457 C 3428.54 0.197004 -4.39659 0
M  V30 36458 H 3425.66 -0.110297 -0.7287 0
M  V30 36459 H 3428.31 -0.944437 -1.64865 0
M  V30 36460 H 3426.46 0.135087 -3.88265 0
M  V30 36461 H 3428.13 -2.47463 -3.89307 0
M  V30 36462 H 3426.37 -2.38538 -3.62328 0
M  V30 36463 H 3427.04 -1.89913 -5.18302 0
M  V30 36464 H 3429.52 -0.271194 -4.15215 0
M  V30 36465 H 3428.39 0.0866046 -5.48832 0
M  V30 36466 H 3428.65 1.28442 -4.23031 0
M  V30 36467 N 3427.71 1.49635 -0.494676 0
M  V30 36468 C 3428.96 2.02733 0.0521588 0
M  V30 36469 C 3429.29 1.37413 1.37227 0
M  V30 36470 O 3428.57 0.507675 1.87758 0
M  V30 36471 C 3428.85 3.59479 0.211337 0
M  V30 36472 C 3428.7 4.35337 -1.13146 0
M  V30 36473 C 3430.02 4.29615 0.95494 0
M  V30 36474 H 3427.14 0.736793 0.0174816 0
M  V30 36475 H 3429.78 1.78722 -0.644858 0
M  V30 36476 H 3427.93 3.80068 0.805011 0
M  V30 36477 H 3429.61 4.2626 -1.76352 0
M  V30 36478 H 3427.85 3.98144 -1.72231 0
M  V30 36479 H 3428.52 5.43349 -0.973456 0
M  V30 36480 H 3431 4.13643 0.451502 0
M  V30 36481 H 3429.87 5.39051 1.03515 0
M  V30 36482 H 3430.13 3.94418 1.99717 0
M  V30 36483 N 3429.19 0.228241 1.55939 0
M  V30 36484 C 3430.44 -0.402237 1.98771 0
M  V30 36485 C 3430.77 -1.58938 1.1159 0
M  V30 36486 O 3430.05 -1.93711 0.175067 0
M  V30 36487 C 3430.33 -0.830291 3.50397 0
M  V30 36488 C 3430.18 0.360954 4.48349 0
M  V30 36489 C 3431.5 -1.68405 4.06605 0
M  V30 36490 H 3428.62 -0.144733 0.722649 0
M  V30 36491 H 3431.26 0.325817 1.87186 0
M  V30 36492 H 3429.41 -1.45064 3.60401 0
M  V30 36493 H 3431.08 0.999193 4.50349 0
M  V30 36494 H 3429.33 1.00726 4.21944 0
M  V30 36495 H 3430 0.0184045 5.51997 0
M  V30 36496 H 3432.47 -1.16057 3.99587 0
M  V30 36497 H 3431.35 -1.95245 5.13001 0
M  V30 36498 H 3431.61 -2.64964 3.53901 0
M  V30 36499 N 3430.67 -1.57536 -0.0450825 0
M  V30 36500 C 3432.09 -1.54495 -0.400436 0
M  V30 36501 C 3432.29 -0.952197 -1.77582 0
M  V30 36502 O 3431.34 -0.566264 -2.46068 0
M  V30 36503 C 3432.66 -2.99025 -0.316978 0
M  V30 36504 C 3434.2 -3.10495 -0.39523 0
M  V30 36505 C 3434.68 -4.56726 -0.341395 0
M  V30 36506 N 3436.17 -4.61464 -0.400674 0
M  V30 36507 C 3436.9 -5.72128 -0.381657 0
M  V30 36508 N 3436.4 -6.9208 -0.315873 0
M  V30 36509 N 3438.19 -5.60451 -0.430201 0
M  V30 36510 H 3430.34 -1.94423 0.855191 0
M  V30 36511 H 3432.61 -0.891047 0.323633 0
M  V30 36512 H 3432.31 -3.46056 0.627538 0
M  V30 36513 H 3432.19 -3.60285 -1.1169 0
M  V30 36514 H 3434.57 -2.63421 -1.33017 0
M  V30 36515 H 3434.66 -2.52096 0.433753 0
M  V30 36516 H 3434.3 -5.04464 0.589813 0
M  V30 36517 H 3434.23 -5.13018 -1.18827 0
M  V30 36518 H 3436.72 -3.75155 -0.454679 0
M  V30 36519 H 3437.03 -7.72194 -0.306022 0
M  V30 36520 H 3435.38 -6.94427 -0.282159 0
M  V30 36521 H 3438.57 -4.65638 -0.479473 0
M  V30 36522 H 3438.74 -6.46689 -0.411912 0
M  V30 36523 N 3432.15 0.317045 -1.54378 0
M  V30 36524 C 3433.08 1.39549 -1.87212 0
M  V30 36525 C 3434.06 1.53662 -0.72951 0
M  V30 36526 O 3435.24 1.67435 -0.983828 0
M  V30 36527 C 3432.37 2.76218 -2.10525 0
M  V30 36528 C 3431.33 2.76887 -3.26371 0
M  V30 36529 C 3430.65 4.16693 -3.35068 0
M  V30 36530 C 3431.95 2.40053 -4.63866 0
M  V30 36531 H 3433.65 1.12318 -2.77534 0
M  V30 36532 H 3431.19 0.538874 -1.33537 0
M  V30 36533 H 3433.15 3.51735 -2.32079 0
M  V30 36534 H 3431.87 3.0494 -1.16959 0
M  V30 36535 H 3430.53 2.03826 -3.04714 0
M  V30 36536 H 3430.18 4.42566 -2.39049 0
M  V30 36537 H 3429.88 4.18045 -4.12931 0
M  V30 36538 H 3431.4 4.94013 -3.58864 0
M  V30 36539 H 3432.82 3.05283 -4.85258 0
M  V30 36540 H 3431.21 2.52645 -5.44326 0
M  V30 36541 H 3432.28 1.35194 -4.65672 0
M  V30 36542 N 3433.63 1.46561 0.57944 0
M  V30 36543 C 3434.56 1.60236 1.69843 0
M  V30 36544 C 3435.54 0.452562 1.63969 0
M  V30 36545 O 3436.72 0.679206 1.81935 0
M  V30 36546 C 3433.85 1.59543 3.08485 0
M  V30 36547 C 3432.81 2.73526 3.29193 0
M  V30 36548 C 3432.13 2.57896 4.68395 0
M  V30 36549 C 3433.43 4.15321 3.16711 0
M  V30 36550 H 3435.13 2.53907 1.58656 0
M  V30 36551 H 3432.67 1.22196 0.761852 0
M  V30 36552 H 3434.63 1.67703 3.86592 0
M  V30 36553 H 3433.35 0.624186 3.2058 0
M  V30 36554 H 3432.01 2.6484 2.53486 0
M  V30 36555 H 3431.66 1.58847 4.77259 0
M  V30 36556 H 3431.36 3.34349 4.83202 0
M  V30 36557 H 3432.88 2.67951 5.48666 0
M  V30 36558 H 3434.29 4.251 3.84659 0
M  V30 36559 H 3432.69 4.92387 3.43038 0
M  V30 36560 H 3433.76 4.35247 2.13747 0
M  V30 36561 N 3435.1 -0.824347 1.34322 0
M  V30 36562 C 3436.35 -1.5755 1.2594 0
M  V30 36563 C 3436.67 -1.94866 -0.169264 0
M  V30 36564 O 3437.87 -2.68895 -0.375214 0
M  V30 36565 C 3436.33 -2.8424 2.20762 0
M  V30 36566 C 3435.94 -2.5423 3.68878 0
M  V30 36567 C 3437.68 -3.62261 2.21285 0
M  V30 36568 C 3435.59 -3.77105 4.55572 0
M  V30 36569 H 3434.52 -0.591303 0.467843 0
M  V30 36570 H 3437.17 -0.907696 1.59478 0
M  V30 36571 H 3435.55 -3.52638 1.80174 0
M  V30 36572 H 3436.72 -1.93952 4.17994 0
M  V30 36573 H 3435.04 -1.89487 3.70788 0
M  V30 36574 H 3437.64 -4.53494 2.8328 0
M  V30 36575 H 3437.98 -3.98274 1.21177 0
M  V30 36576 H 3438.51 -3.00805 2.6031 0
M  V30 36577 H 3435.25 -3.46214 5.56612 0
M  V30 36578 H 3434.77 -4.36671 4.11192 0
M  V30 36579 H 3436.45 -4.4453 4.70108 0
M  V30 36580 N 3436.58 -1.18028 -1.04437 0
M  V30 36581 C 3438 -0.929165 -1.29764 0
M  V30 36582 C 3438.2 0.407402 -1.97339 0
M  V30 36583 O 3437.25 1.14261 -2.25168 0
M  V30 36584 C 3438.57 -2.09201 -2.15999 0
M  V30 36585 C 3440.12 -2.12989 -2.29357 0
M  V30 36586 C 3440.59 -3.28681 -3.18956 0
M  V30 36587 N 3442.08 -3.28518 -3.26543 0
M  V30 36588 C 3442.82 -4.14678 -3.96017 0
M  V30 36589 N 3442.31 -5.10964 -4.67854 0
M  V30 36590 N 3444.11 -4.02604 -3.92259 0
M  V30 36591 H 3436.26 -2.04047 -0.589804 0
M  V30 36592 H 3438.52 -0.891373 -0.322737 0
M  V30 36593 H 3438.23 -3.05842 -1.73648 0
M  V30 36594 H 3438.1 -2.04948 -3.16664 0
M  V30 36595 H 3440.49 -1.16929 -2.70946 0
M  V30 36596 H 3440.57 -2.21301 -1.28295 0
M  V30 36597 H 3440.21 -4.25011 -2.7808 0
M  V30 36598 H 3440.14 -3.17605 -4.20041 0
M  V30 36599 H 3442.63 -2.58809 -2.75366 0
M  V30 36600 H 3442.95 -5.73088 -5.1845 0
M  V30 36601 H 3441.29 -5.14927 -4.66771 0
M  V30 36602 H 3444.48 -3.26671 -3.35267 0
M  V30 36603 H 3444.65 -4.69969 -4.46132 0
M  V30 36604 N 3438.06 1.23288 -0.98172 0
M  V30 36605 C 3439.48 1.43887 -0.690565 0
M  V30 36606 C 3439.68 1.8731 0.742783 0
M  V30 36607 O 3438.73 2.01995 1.51506 0
M  V30 36608 C 3440.05 2.48945 -1.68662 0
M  V30 36609 C 3441.59 2.62758 -1.70081 0
M  V30 36610 C 3442.07 3.71027 -2.6852 0
M  V30 36611 N 3443.56 3.78471 -2.67046 0
M  V30 36612 C 3444.29 4.61809 -3.39883 0
M  V30 36613 N 3443.79 5.49226 -4.22283 0
M  V30 36614 N 3445.58 4.56017 -3.28641 0
M  V30 36615 H 3437.73 0.934043 -1.9076 0
M  V30 36616 H 3440 0.472134 -0.822066 0
M  V30 36617 H 3439.7 2.23959 -2.71174 0
M  V30 36618 H 3439.58 3.47355 -1.47051 0
M  V30 36619 H 3441.96 2.87094 -0.682723 0
M  V30 36620 H 3442.05 1.64659 -1.95757 0
M  V30 36621 H 3441.69 3.47439 -3.70471 0
M  V30 36622 H 3441.62 4.6867 -2.40117 0
M  V30 36623 H 3444.11 3.16002 -2.07246 0
M  V30 36624 H 3444.42 6.0981 -4.74713 0
M  V30 36625 H 3442.77 5.48845 -4.26373 0
M  V30 36626 H 3445.96 3.86744 -2.63717 0
M  V30 36627 H 3446.13 5.20736 -3.85666 0
M  V30 36628 N 3439.54 0.753533 1.38418 0
M  V30 36629 C 3440.95 0.377363 1.82847 0
M  V30 36630 C 3441.3 -1.09398 1.62869 0
M  V30 36631 O 3440.43 -1.84563 1.12984 0
M  V30 36632 C 3441.02 0.678154 3.31944 0
M  V30 36633 C 3439.58 0.355262 3.7472 0
M  V30 36634 C 3438.73 0.931357 2.61192 0
M  V30 36635 H 3441.68 0.949689 1.27148 0
M  V30 36636 H 3441.7 -0.0436623 3.80475 0
M  V30 36637 H 3441.21 1.74908 3.46452 0
M  V30 36638 H 3439.31 -0.709085 3.65791 0
M  V30 36639 H 3439.42 0.850776 4.71486 0
M  V30 36640 H 3437.79 0.35674 2.52189 0
M  V30 36641 H 3438.57 2.00732 2.78499 0
M  V30 36642 N 3441.02 -1.49371 0.502605 0
M  V30 36643 C 3441.93 -2.32929 -0.279491 0
M  V30 36644 C 3442.94 -1.44737 -0.965781 0
M  V30 36645 O 3444.12 -1.77757 -0.946808 0
M  V30 36646 C 3441.18 -3.20213 -1.32907 0
M  V30 36647 C 3440.24 -4.24258 -0.656047 0
M  V30 36648 C 3439.48 -5.07371 -1.65562 0
M  V30 36649 O 3439.7 -4.92024 -2.88562 0
M  V30 36650 O 3438.63 -5.89611 -1.21006 0
M  V30 36651 H 3442.46 -3.00994 0.40448 0
M  V30 36652 H 3440.05 -1.47051 0.263914 0
M  V30 36653 H 3441.93 -3.74281 -1.93628 0
M  V30 36654 H 3440.6 -2.54841 -1.99594 0
M  V30 36655 H 3439.51 -3.74099 -0.00904913 0
M  V30 36656 H 3440.84 -4.9219 -0.0315937 0
M  V30 36657 N 3442.49 -0.236508 -1.55815 0
M  V30 36658 C 3443.73 0.392775 -2.00591 0
M  V30 36659 C 3444.1 1.55881 -1.12095 0
M  V30 36660 O 3445.3 2.25511 -1.46281 0
M  V30 36661 C 3443.57 0.802129 -3.48282 0
M  V30 36662 S 3445.13 1.42341 -4.15072 0
M  V30 36663 H 3441.95 0.124045 -0.700096 0
M  V30 36664 H 3444.55 -0.349305 -1.92354 0
M  V30 36665 H 3443.25 -0.0559662 -4.10362 0
M  V30 36666 H 3442.78 1.57665 -3.60424 0
M  V30 36667 H 3444.8 2.71249 -4.15497 0
M  V30 36668 N 3443.97 1.57557 0.0367273 0
M  V30 36669 C 3445.22 1.8892 0.729072 0
M  V30 36670 C 3445.55 0.832832 1.75767 0
M  V30 36671 O 3444.8 -0.167139 1.94985 0
M  V30 36672 C 3445.1 3.27018 1.442 0
M  V30 36673 C 3444.77 4.47532 0.550105 0
M  V30 36674 C 3443.43 4.80236 0.304426 0
M  V30 36675 C 3445.78 5.21158 -0.066158 0
M  V30 36676 C 3443.11 5.83959 -0.566419 0
M  V30 36677 C 3445.46 6.25806 -0.92466 0
M  V30 36678 C 3444.13 6.5699 -1.17987 0
M  V30 36679 H 3443.4 0.691307 0.266787 0
M  V30 36680 H 3446.04 1.91497 -0.0109035 0
M  V30 36681 H 3444.35 3.20394 2.2551 0
M  V30 36682 H 3446.04 3.48531 1.98311 0
M  V30 36683 H 3442.63 4.21956 0.75174 0
M  V30 36684 H 3446.82 4.96177 0.110697 0
M  V30 36685 H 3442.07 6.065 -0.772535 0
M  V30 36686 H 3446.25 6.82003 -1.40873 0
M  V30 36687 H 3443.88 7.37185 -1.8564 0
M  V30 36688 N 3445.45 -0.308854 1.54544 0
M  V30 36689 C 3446.7 -1.04297 1.73109 0
M  V30 36690 C 3447.02 -1.88062 0.515514 0
M  V30 36691 O 3446.29 -1.9017 -0.470327 0
M  V30 36692 H 3444.87 -0.388056 0.638296 0
M  V30 36693 H 3447.53 -0.341735 1.91881 0
M  V30 36694 H 3446.63 -1.70058 2.617 0
M  V30 36695 N 3446.93 -1.46867 -0.571659 0
M  V30 36696 C 3448.34 -1.4678 -1.1538 0
M  V30 36697 C 3448.69 -0.21461 -1.95023 0
M  V30 36698 O 3447.82 0.681538 -2.05387 0
M  V30 36699 C 3448.41 -2.65938 -2.0991 0
M  V30 36700 C 3446.97 -2.68857 -2.63425 0
M  V30 36701 C 3446.12 -2.39649 -1.39512 0
M  V30 36702 H 3449.07 -1.54586 -0.359008 0
M  V30 36703 H 3449.09 -2.42086 -2.93555 0
M  V30 36704 H 3448.6 -3.57131 -1.51917 0
M  V30 36705 H 3446.7 -1.81766 -3.25257 0
M  V30 36706 H 3446.82 -3.6914 -3.05406 0
M  V30 36707 H 3445.18 -1.89933 -1.69699 0
M  V30 36708 H 3445.96 -3.33032 -0.833341 0
M  V30 36709 N 3448.41 0.817212 -1.34757 0
M  V30 36710 C 3449.37 1.91003 -1.2669 0
M  V30 36711 C 3450.37 1.59781 -0.180773 0
M  V30 36712 O 3451.56 1.68713 -0.433777 0
M  V30 36713 C 3448.69 3.27181 -0.95735 0
M  V30 36714 H 3449.89 1.99578 -2.2385 0
M  V30 36715 H 3447.44 1.01185 -1.19127 0
M  V30 36716 H 3448.17 3.24298 0.0108347 0
M  V30 36717 H 3447.96 3.51227 -1.74304 0
M  V30 36718 H 3449.45 4.07199 -0.926233 0
M  V30 36719 N 3449.89 1.1858 1.0381 0
M  V30 36720 C 3450.82 0.938703 2.138 0
M  V30 36721 C 3451.8 -0.124546 1.69643 0
M  V30 36722 O 3452.98 0.0285762 1.94179 0
M  V30 36723 C 3450.11 0.466453 3.44153 0
M  V30 36724 C 3449.07 1.47048 4.01946 0
M  V30 36725 C 3448.39 0.855651 5.27809 0
M  V30 36726 C 3449.69 2.84796 4.37822 0
M  V30 36727 H 3451.39 1.85856 2.34729 0
M  V30 36728 H 3448.93 0.895027 1.12806 0
M  V30 36729 H 3450.88 0.28093 4.20463 0
M  V30 36730 H 3449.61 -0.488984 3.22919 0
M  V30 36731 H 3448.27 1.64299 3.27722 0
M  V30 36732 H 3447.92 -0.107054 5.02886 0
M  V30 36733 H 3447.62 1.52602 5.67438 0
M  V30 36734 H 3449.14 0.680716 6.06794 0
M  V30 36735 H 3450.55 2.71182 5.05107 0
M  V30 36736 H 3448.95 3.4854 4.88508 0
M  V30 36737 H 3450.02 3.38153 3.47535 0
M  V30 36738 N 3451.36 -1.22766 0.988245 0
M  V30 36739 C 3452.78 -1.43518 0.698186 0
M  V30 36740 C 3452.98 -1.87701 -0.732839 0
M  V30 36741 O 3452.04 -2.02796 -1.50433 0
M  V30 36742 C 3453.35 -2.48047 1.69979 0
M  V30 36743 C 3454.9 -2.61852 1.71472 0
M  V30 36744 C 3455.37 -3.69598 2.70484 0
M  V30 36745 N 3456.86 -3.7705 2.69049 0
M  V30 36746 C 3457.6 -4.6 3.42327 0
M  V30 36747 N 3457.09 -5.46979 4.2519 0
M  V30 36748 N 3458.89 -4.54268 3.31055 0
M  V30 36749 H 3451.04 -0.923914 1.91253 0
M  V30 36750 H 3453.3 -0.467768 0.824559 0
M  V30 36751 H 3453.01 -2.22518 2.72358 0
M  V30 36752 H 3452.88 -3.46571 1.48891 0
M  V30 36753 H 3455.27 -2.86728 0.697939 0
M  V30 36754 H 3455.35 -1.63619 1.96628 0
M  V30 36755 H 3454.99 -3.4547 3.72308 0
M  V30 36756 H 3454.92 -4.6739 2.42599 0
M  V30 36757 H 3457.41 -3.14899 2.08919 0
M  V30 36758 H 3457.73 -6.07283 4.7794 0
M  V30 36759 H 3456.07 -5.46576 4.29278 0
M  V30 36760 H 3459.26 -3.8534 2.65764 0
M  V30 36761 H 3459.44 -5.18683 3.88422 0
M  V30 36762 N 3452.84 -0.760864 -1.38017 0
M  V30 36763 C 3454.09 -0.319644 -1.99556 0
M  V30 36764 C 3454.41 1.10455 -1.60701 0
M  V30 36765 O 3453.68 1.75656 -0.867279 0
M  V30 36766 H 3452.26 -0.115195 -0.738064 0
M  V30 36767 H 3454.92 -0.976574 -1.68668 0
M  V30 36768 H 3454.02 -0.388577 -3.09672 0
M  V30 36769 N 3454.32 1.49102 -0.510519 0
M  V30 36770 C 3455.23 2.33074 0.267135 0
M  V30 36771 C 3456.25 1.45247 0.958092 0
M  V30 36772 O 3457.42 1.78257 0.937368 0
M  V30 36773 C 3454.49 3.20914 1.31207 0
M  V30 36774 C 3453.55 4.246 0.633538 0
M  V30 36775 C 3452.78 5.08242 1.62869 0
M  V30 36776 O 3453 4.93548 2.85949 0
M  V30 36777 O 3451.94 5.90245 1.17877 0
M  V30 36778 H 3455.76 3.00776 -0.420437 0
M  V30 36779 H 3453.35 1.46908 -0.271709 0
M  V30 36780 H 3455.23 3.75302 1.91641 0
M  V30 36781 H 3453.91 2.55896 1.9824 0
M  V30 36782 H 3452.81 3.74098 -0.0107904 0
M  V30 36783 H 3454.15 4.922 0.00549118 0
M  V30 36784 N 3455.8 0.244768 1.55688 0
M  V30 36785 C 3457.05 -0.379817 1.98499 0
M  V30 36786 C 3457.37 -1.58623 1.13419 0
M  V30 36787 O 3456.64 -1.947 0.216491 0
M  V30 36788 H 3455.22 -0.143321 0.733122 0
M  V30 36789 H 3457.88 0.343061 1.91857 0
M  V30 36790 H 3456.97 -0.690409 3.04368 0
M  V30 36791 N 3457.28 -1.57574 -0.0283712 0
M  V30 36792 C 3458.52 -1.8893 -0.717623 0
M  V30 36793 C 3458.84 -0.842548 -1.75858 0
M  V30 36794 O 3458.11 0.123739 -1.95509 0
M  V30 36795 H 3456.69 -0.697255 -0.268038 0
M  V30 36796 H 3459.36 -1.94899 0.00584117 0
M  V30 36797 H 3458.45 -2.87826 -1.20675 0
M  V30 36798 N 3458.75 0.300654 -1.54706 0
M  V30 36799 C 3459.7 1.39084 -1.86436 0
M  V30 36800 C 3460.7 1.52473 -0.738127 0
M  V30 36801 O 3461.9 1.54586 -0.922123 0
M  V30 36802 H 3458.28 0.464588 -0.591322 0
M  V30 36803 H 3460.25 1.09559 -2.7756 0
M  V30 36804 C 3459 2.74925 -2.12865 0
M  V30 36805 H 3458.32 2.65405 -2.98999 0
M  V30 36806 H 3459.76 3.50217 -2.39006 0
M  V30 36807 C 3458.22 3.23886 -0.927317 0
M  V30 36808 O 3458.75 4.01427 -0.147992 0
M  V30 36809 N 3456.95 2.81214 -0.732602 0
M  V30 36810 H 3456.5 2.18273 -1.36801 0
M  V30 36811 H 3456.46 3.14323 0.069635 0
M  V30 36812 N 3460.23 1.47168 0.563863 0
M  V30 36813 C 3461.48 1.53148 1.31872 0
M  V30 36814 C 3461.8 0.192552 1.94047 0
M  V30 36815 O 3461.07 -0.782841 1.79578 0
M  V30 36816 H 3459.65 0.564108 0.489684 0
M  V30 36817 H 3462.31 1.83423 0.658944 0
M  V30 36818 H 3461.41 2.29444 2.1157 0
M  V30 36819 N 3461.71 -0.810054 1.35188 0
M  V30 36820 C 3462.64 -1.93639 1.30484 0
M  V30 36821 C 3463.62 -1.69146 0.179905 0
M  V30 36822 O 3464.81 -1.90558 0.374317 0
M  V30 36823 C 3461.94 -3.30323 1.07257 0
M  V30 36824 C 3460.89 -3.6929 2.16354 0
M  V30 36825 C 3460.22 -5.04098 1.78297 0
M  V30 36826 C 3461.52 -3.80032 3.58292 0
M  V30 36827 H 3463.21 -1.97832 2.24728 0
M  V30 36828 H 3460.76 -0.950416 1.08181 0
M  V30 36829 H 3462.71 -4.08717 1.02607 0
M  V30 36830 H 3461.43 -3.26463 0.0945777 0
M  V30 36831 H 3460.09 -2.93179 2.20095 0
M  V30 36832 H 3459.74 -4.96738 0.79125 0
M  V30 36833 H 3459.44 -5.3114 2.51325 0
M  V30 36834 H 3460.96 -5.84935 1.75165 0
M  V30 36835 H 3462.38 -4.48665 3.56892 0
M  V30 36836 H 3460.78 -4.1854 4.30051 0
M  V30 36837 H 3461.85 -2.81678 3.94696 0
M  V30 36838 N 3463.19 -1.19129 -1.0318 0
M  V30 36839 C 3464.12 -0.950028 -2.133 0
M  V30 36840 C 3465.1 0.115547 -1.69707 0
M  V30 36841 O 3466.28 -0.0388736 -1.94161 0
M  V30 36842 C 3463.41 -0.484697 -3.43901 0
M  V30 36843 C 3462.37 -1.49177 -4.01161 0
M  V30 36844 C 3461.69 -0.883629 -5.27348 0
M  V30 36845 C 3462.99 -2.87114 -4.36306 0
M  V30 36846 H 3464.69 -1.87099 -2.3374 0
M  V30 36847 H 3462.23 -0.900997 -1.1233 0
M  V30 36848 H 3464.19 -0.303224 -4.20308 0
M  V30 36849 H 3462.91 0.471852 -3.23174 0
M  V30 36850 H 3461.57 -1.66034 -3.26846 0
M  V30 36851 H 3461.22 0.0803828 -5.02936 0
M  V30 36852 H 3460.92 -1.55609 -5.66621 0
M  V30 36853 H 3462.44 -0.712886 -6.06424 0
M  V30 36854 H 3463.86 -2.73857 -5.03662 0
M  V30 36855 H 3462.25 -3.51126 -4.86652 0
M  V30 36856 H 3463.32 -3.39991 -3.45737 0
M  V30 36857 N 3464.67 1.2224 -0.994741 0
M  V30 36858 C 3465.63 2.22462 -0.551658 0
M  V30 36859 C 3466.63 1.56568 0.36647 0
M  V30 36860 O 3467.82 1.7348 0.158173 0
M  V30 36861 C 3464.95 3.40328 0.197356 0
M  V30 36862 H 3466.14 2.63176 -1.43799 0
M  V30 36863 H 3463.7 1.35323 -0.782144 0
M  V30 36864 H 3464.43 3.05089 1.09959 0
M  V30 36865 H 3464.22 3.8937 -0.461897 0
M  V30 36866 H 3465.71 4.1465 0.495461 0
M  V30 36867 N 3466.14 0.768172 1.37611 0
M  V30 36868 C 3467.11 0.158323 2.28653 0
M  V30 36869 C 3468.11 -0.63191 1.47863 0
M  V30 36870 O 3469.3 -0.456025 1.68125 0
M  V30 36871 C 3466.43 -0.783377 3.31777 0
M  V30 36872 H 3467.62 0.960822 2.84092 0
M  V30 36873 H 3465.18 0.536142 1.46817 0
M  V30 36874 H 3465.91 -1.61101 2.81455 0
M  V30 36875 H 3465.7 -0.218947 3.91488 0
M  V30 36876 H 3467.19 -1.20561 3.99818 0
M  V30 36877 N 3467.62 -1.48829 0.518419 0
M  V30 36878 C 3468.56 -2.2625 -0.297663 0
M  V30 36879 C 3469.53 -1.31595 -0.955073 0
M  V30 36880 O 3470.72 -1.60916 -0.981748 0
M  V30 36881 C 3467.84 -3.07468 -1.42059 0
M  V30 36882 C 3466.89 -4.17411 -0.87578 0
M  V30 36883 S 3467.72 -5.34929 0.247247 0
M  V30 36884 C 3468.88 -6.19705 -0.878435 0
M  V30 36885 H 3469.11 -2.9512 0.35941 0
M  V30 36886 H 3466.65 -1.51378 0.304002 0
M  V30 36887 H 3468.6 -3.54842 -2.06391 0
M  V30 36888 H 3467.26 -2.38035 -2.04934 0
M  V30 36889 H 3466.46 -4.73821 -1.71784 0
M  V30 36890 H 3466.06 -3.72718 -0.309364 0
M  V30 36891 H 3468.35 -6.53706 -1.77975 0
M  V30 36892 H 3469.29 -7.07222 -0.352576 0
M  V30 36893 H 3469.7 -5.52586 -1.15363 0
M  V30 36894 N 3469.1 -0.253021 -1.55556 0
M  V30 36895 C 3470.01 0.654542 -2.25284 0
M  V30 36896 C 3471.03 1.18829 -1.27105 0
M  V30 36897 O 3472.2 1.22326 -1.59995 0
M  V30 36898 C 3469.27 1.83208 -2.94339 0
M  V30 36899 C 3468.33 1.33721 -4.07943 0
M  V30 36900 C 3467.56 2.45862 -4.73695 0
M  V30 36901 O 3467.78 3.64731 -4.38552 0
M  V30 36902 O 3466.72 2.15273 -5.62086 0
M  V30 36903 H 3470.54 0.0903558 -3.03566 0
M  V30 36904 H 3468.13 -0.0212797 -1.49385 0
M  V30 36905 H 3470.01 2.51914 -3.37813 0
M  V30 36906 H 3468.69 2.38378 -2.18993 0
M  V30 36907 H 3467.59 0.617258 -3.68973 0
M  V30 36908 H 3468.93 0.831532 -4.85125 0
M  V30 36909 N 3470.58 1.57587 0.0200142 0
M  V30 36910 C 3471.49 2.10556 1.03456 0
M  V30 36911 C 3472.5 1.04622 1.39033 0
M  V30 36912 O 3473.68 1.3641 1.4817 0
M  V30 36913 C 3470.75 2.5819 2.31384 0
M  V30 36914 C 3469.81 3.78644 2.02305 0
M  V30 36915 C 3469.04 4.23996 3.24134 0
M  V30 36916 O 3469.26 3.68811 4.35126 0
M  V30 36917 O 3468.2 5.16348 3.09303 0
M  V30 36918 H 3472.02 2.97421 0.614367 0
M  V30 36919 H 3469.61 1.47499 0.237579 0
M  V30 36920 H 3471.49 2.89117 3.06577 0
M  V30 36921 H 3470.16 1.74433 2.72681 0
M  V30 36922 H 3469.07 3.52722 1.24652 0
M  V30 36923 H 3470.4 4.63413 1.65858 0
M  V30 36924 N 3472.06 -0.292445 1.54863 0
M  V30 36925 C 3473.02 -1.3441 1.85652 0
M  V30 36926 C 3474.02 -1.4328 0.729894 0
M  V30 36927 O 3475.21 -1.42767 0.998153 0
M  V30 36928 C 3472.34 -2.72791 2.04445 0
M  V30 36929 H 3473.53 -1.08349 2.79644 0
M  V30 36930 H 3471.09 -0.529548 1.47056 0
M  V30 36931 H 3471.82 -3.04062 1.1277 0
M  V30 36932 H 3471.61 -2.67742 2.86456 0
M  V30 36933 H 3473.1 -3.48813 2.29606 0
M  V30 36934 N 3473.53 -1.47465 -0.55605 0
M  V30 36935 C 3474.78 -1.53409 -1.30952 0
M  V30 36936 C 3475.1 -0.201519 -1.94559 0
M  V30 36937 O 3476.3 -0.138972 -2.71144 0
M  V30 36938 C 3474.76 -2.70436 -2.37471 0
M  V30 36939 C 3474.37 -4.10227 -1.8005 0
M  V30 36940 C 3476.11 -2.85673 -3.13992 0
M  V30 36941 C 3474.02 -5.18552 -2.84356 0
M  V30 36942 H 3472.95 -0.571024 -0.49239 0
M  V30 36943 H 3475.6 -1.73742 -0.590428 0
M  V30 36944 H 3473.98 -2.43485 -3.123 0
M  V30 36945 H 3475.15 -4.47085 -1.11585 0
M  V30 36946 H 3473.47 -3.99884 -1.16109 0
M  V30 36947 H 3476.07 -3.63771 -3.91886 0
M  V30 36948 H 3476.41 -1.9416 -3.6825 0
M  V30 36949 H 3476.94 -3.12399 -2.46275 0
M  V30 36950 H 3473.68 -6.11946 -2.34952 0
M  V30 36951 H 3473.2 -4.8621 -3.51227 0
M  V30 36952 H 3474.88 -5.45551 -3.47827 0
M  V30 36953 N 3475.01 0.802873 -1.35616 0
M  V30 36954 C 3475.96 1.9149 -1.28842 0
M  V30 36955 C 3476.93 1.65331 -0.15965 0
M  V30 36956 O 3478.12 1.87674 -0.343964 0
M  V30 36957 C 3475.26 3.28091 -1.07005 0
M  V30 36958 C 3474.37 3.66412 -2.28837 0
M  V30 36959 C 3473.5 4.92062 -2.0012 0
M  V30 36960 C 3472.54 5.23021 -3.17986 0
M  V30 36961 N 3471.68 6.39853 -2.89021 0
M  V30 36962 H 3476.52 1.96616 -2.23934 0
M  V30 36963 H 3474.06 0.961668 -1.11312 0
M  V30 36964 H 3476.01 4.06845 -0.923745 0
M  V30 36965 H 3474.64 3.22424 -0.155741 0
M  V30 36966 H 3473.7 2.82889 -2.54319 0
M  V30 36967 H 3475.01 3.85248 -3.16837 0
M  V30 36968 H 3474.16 5.78651 -1.82342 0
M  V30 36969 H 3472.9 4.75269 -1.09411 0
M  V30 36970 H 3471.91 4.34922 -3.36338 0
M  V30 36971 H 3473.13 5.41742 -4.09502 0
M  V30 36972 H 3471.08 6.24477 -2.00909 0
M  V30 36973 H 3470.99 6.58957 -3.70556 0
M  V30 36974 H 3472.26 7.29459 -2.74792 0
M  V30 36975 N 3476.49 1.19674 1.02547 0
M  V30 36976 C 3477.74 0.995762 1.75407 0
M  V30 36977 C 3478.05 -0.473829 1.89774 0
M  V30 36978 O 3479.26 -0.793717 2.59639 0
M  V30 36979 C 3477.72 1.73278 3.1544 0
M  V30 36980 C 3477.32 3.24271 3.09115 0
M  V30 36981 C 3479.07 1.61516 3.92572 0
M  V30 36982 C 3476.97 3.90548 4.44102 0
M  V30 36983 H 3475.9 0.368955 0.657562 0
M  V30 36984 H 3478.56 1.43205 1.14737 0
M  V30 36985 H 3476.94 1.22432 3.76598 0
M  V30 36986 H 3478.11 3.82262 2.57318 0
M  V30 36987 H 3476.43 3.36346 2.45479 0
M  V30 36988 H 3479.02 2.08381 4.92424 0
M  V30 36989 H 3479.37 0.569876 4.12381 0
M  V30 36990 H 3479.9 2.09727 3.38023 0
M  V30 36991 H 3476.64 4.95189 4.29497 0
M  V30 36992 H 3476.16 3.37346 4.95942 0
M  V30 36993 H 3477.84 3.94291 5.12975 0
M  V30 36994 N 3477.97 -1.21711 1.00121 0
M  V30 36995 C 3478.93 -2.22166 0.563448 0
M  V30 36996 C 3479.93 -1.5676 -0.358162 0
M  V30 36997 O 3481.12 -1.73562 -0.148971 0
M  V30 36998 C 3478.25 -3.40428 -0.179305 0
M  V30 36999 H 3479.45 -2.6241 1.45193 0
M  V30 37000 H 3477 -1.34906 0.78931 0
M  V30 37001 H 3477.74 -3.05668 -1.0834 0
M  V30 37002 H 3477.52 -3.89119 0.48254 0
M  V30 37003 H 3479.01 -4.14907 -0.473464 0
M  V30 37004 N 3479.45 -0.775459 -1.37202 0
M  V30 37005 C 3480.36 -0.165103 -2.34018 0
M  V30 37006 C 3481.37 0.675288 -1.60362 0
M  V30 37007 O 3482.55 0.594342 -1.92431 0
M  V30 37008 C 3479.61 0.700897 -3.39541 0
M  V30 37009 C 3478.68 -0.156379 -4.29015 0
M  V30 37010 C 3477.91 0.668383 -5.29498 0
M  V30 37011 O 3478.13 1.90525 -5.3764 0
M  V30 37012 O 3477.07 0.0756293 -6.01852 0
M  V30 37013 H 3480.89 -0.965234 -2.87953 0
M  V30 37014 H 3478.48 -0.536678 -1.39428 0
M  V30 37015 H 3480.36 1.19517 -4.04096 0
M  V30 37016 H 3479.03 1.47915 -2.87928 0
M  V30 37017 H 3477.94 -0.697094 -3.67548 0
M  V30 37018 H 3479.27 -0.89781 -4.83942 0
M  V30 37019 N 3480.93 1.48552 -0.526305 0
M  V30 37020 C 3482.2 1.95462 0.0733506 0
M  V30 37021 C 3482.58 1.46846 1.51656 0
M  V30 37022 O 3481.93 0.693331 2.17727 0
M  V30 37023 C 3482.14 3.48977 -0.0401023 0
M  V30 37024 C 3483.49 4.24427 0.121033 0
M  V30 37025 O 3484.51 3.56184 0.0338709 0
M  V30 37026 O 3483.37 5.45658 0.303201 0
M  V30 37027 H 3480.47 0.822991 0.0813353 0
M  V30 37028 H 3483.01 1.5909 -0.590642 0
M  V30 37029 H 3481.78 3.77072 -1.04557 0
M  V30 37030 H 3481.41 3.92035 0.662906 0
M  V30 37031 N 3482.4 0.261267 1.55419 0
M  V30 37032 C 3483.81 -0.239162 1.85162 0
M  V30 37033 C 3484.17 -1.56507 1.18322 0
M  V30 37034 O 3483.29 -2.11309 0.466637 0
M  V30 37035 C 3483.89 -0.440721 3.35921 0
M  V30 37036 C 3482.44 -0.885397 3.65838 0
M  V30 37037 C 3481.59 0.0292469 2.77285 0
M  V30 37038 H 3484.54 0.483444 1.51157 0
M  V30 37039 H 3484.56 -1.2813 3.58278 0
M  V30 37040 H 3484.08 0.524449 3.8454 0
M  V30 37041 H 3482.18 -1.86253 3.22708 0
M  V30 37042 H 3482.29 -0.73231 4.7347 0
M  V30 37043 H 3480.65 -0.484657 2.50046 0
M  V30 37044 H 3481.44 0.99005 3.28714 0
M  V30 37045 N 3483.88 -1.57596 -0.0116567 0
M  V30 37046 C 3485.11 -1.94726 -0.71389 0
M  V30 37047 C 3485.53 -0.862594 -1.67155 0
M  V30 37048 O 3484.89 0.180277 -1.80401 0
M  V30 37049 C 3484.94 -3.30944 -1.43208 0
M  V30 37050 O 3484.04 -3.24424 -2.54604 0
M  V30 37051 H 3483.38 -0.636008 -0.190761 0
M  V30 37052 H 3485.91 -2.04565 0.0380607 0
M  V30 37053 H 3485.92 -3.6624 -1.79812 0
M  V30 37054 H 3484.6 -4.09446 -0.729834 0
M  V30 37055 H 3483.17 -3.00786 -2.20414 0
M  V30 37056 N 3485.36 0.284228 -1.55016 0
M  V30 37057 C 3486.78 0.630819 -1.46604 0
M  V30 37058 C 3486.98 1.90002 -0.670943 0
M  V30 37059 O 3486.03 2.51819 -0.18531 0
M  V30 37060 C 3487.34 0.768217 -2.90721 0
M  V30 37061 C 3488.89 0.863008 -3.00867 0
M  V30 37062 C 3489.37 1.03227 -4.46215 0
M  V30 37063 N 3490.86 1.09807 -4.49996 0
M  V30 37064 C 3491.59 1.24764 -5.59662 0
M  V30 37065 N 3491.09 1.36511 -6.79218 0
M  V30 37066 N 3492.88 1.27785 -5.47382 0
M  V30 37067 H 3485.03 -0.549445 -2.0517 0
M  V30 37068 H 3487.3 -0.184304 -0.929912 0
M  V30 37069 H 3487 -0.0937517 -3.51575 0
M  V30 37070 H 3486.88 1.65203 -3.39099 0
M  V30 37071 H 3489.26 1.71545 -2.40117 0
M  V30 37072 H 3489.34 -0.0451716 -2.5576 0
M  V30 37073 H 3488.99 0.184531 -5.07565 0
M  V30 37074 H 3488.92 1.95493 -4.88968 0
M  V30 37075 H 3491.41 1.02014 -3.6387 0
M  V30 37076 H 3491.72 1.47726 -7.58549 0
M  V30 37077 H 3490.07 1.33536 -6.82051 0
M  V30 37078 H 3493.26 1.1823 -4.52923 0
M  V30 37079 H 3493.43 1.39097 -6.32895 0
M  V30 37080 N 3486.84 1.47758 0.548222 0
M  V30 37081 C 3488.11 1.45327 1.30918 0
M  V30 37082 C 3488.49 0.155045 2.1053 0
M  V30 37083 O 3487.84 -0.863418 2.11559 0
M  V30 37084 C 3488.05 2.7043 2.20609 0
M  V30 37085 C 3489.4 3.18014 2.8134 0
M  V30 37086 O 3490.42 2.71221 2.30907 0
M  V30 37087 O 3489.28 3.99389 3.73029 0
M  V30 37088 H 3486.38 0.579558 0.58995 0
M  V30 37089 H 3488.92 1.59969 0.566382 0
M  V30 37090 H 3487.7 3.56444 1.61442 0
M  V30 37091 H 3487.32 2.58418 3.02168 0
M  V30 37092 N 3488.32 -0.79567 1.3604 0
M  V30 37093 C 3489.56 -1.5502 1.29665 0
M  V30 37094 C 3489.88 -1.94595 -0.125554 0
M  V30 37095 O 3489.15 -1.64458 -1.06444 0
M  V30 37096 H 3487.73 -0.574897 0.476972 0
M  V30 37097 H 3490.4 -0.948441 1.70266 0
M  V30 37098 H 3489.49 -2.46064 1.91987 0
M  V30 37099 N 3489.79 -1.20217 -1.0191 0
M  V30 37100 C 3491.21 -1.01162 -1.56918 0
M  V30 37101 C 3491.56 0.432712 -1.91369 0
M  V30 37102 O 3490.68 1.31371 -1.71961 0
M  V30 37103 C 3491.28 -1.83006 -2.85122 0
M  V30 37104 C 3489.84 -1.68324 -3.36666 0
M  V30 37105 C 3488.98 -1.81095 -2.1 0
M  V30 37106 H 3491.93 -1.34445 -0.843223 0
M  V30 37107 H 3491.95 -1.33194 -3.56426 0
M  V30 37108 H 3491.47 -2.8812 -2.60016 0
M  V30 37109 H 3489.57 -0.658357 -3.66738 0
M  V30 37110 H 3489.68 -2.49449 -4.09038 0
M  V30 37111 H 3488.04 -1.24255 -2.22335 0
M  V30 37112 H 3488.83 -2.87689 -1.87324 0
M  V30 37113 N 3491.27 1.21178 -1.00765 0
M  V30 37114 C 3492.5 1.94849 -0.71055 0
M  V30 37115 C 3492.92 1.73737 0.720904 0
M  V30 37116 O 3492.28 1.02591 1.49482 0
M  V30 37117 C 3492.33 3.45265 -1.04041 0
M  V30 37118 O 3491.43 4.12138 -0.147119 0
M  V30 37119 H 3490.77 0.609052 -0.264483 0
M  V30 37120 H 3493.3 1.53862 -1.34861 0
M  V30 37121 H 3493.31 3.95848 -0.988369 0
M  V30 37122 H 3491.99 3.59955 -2.0834 0
M  V30 37123 H 3490.57 3.72021 -0.255912 0
M  V30 37124 N 3492.75 0.782725 1.36789 0
M  V30 37125 C 3494.16 0.416062 1.82005 0
M  V30 37126 C 3494.51 -1.05919 1.65153 0
M  V30 37127 O 3493.64 -1.82125 1.16874 0
M  V30 37128 C 3494.23 0.748411 3.3043 0
M  V30 37129 C 3492.79 0.434665 3.73882 0
M  V30 37130 C 3491.94 0.98655 2.59157 0
M  V30 37131 H 3494.89 0.976445 1.25105 0
M  V30 37132 H 3494.91 0.0370519 3.80482 0
M  V30 37133 H 3494.42 1.82218 3.42664 0
M  V30 37134 H 3492.52 -0.631336 3.67212 0
M  V30 37135 H 3492.64 0.950594 4.69575 0
M  V30 37136 H 3491 0.410153 2.51376 0
M  V30 37137 H 3491.78 2.06594 2.74179 0
M  V30 37138 N 3494.23 -1.48271 0.534176 0
M  V30 37139 C 3495.18 -2.31362 -0.239631 0
M  V30 37140 C 3496.17 -1.41492 -0.931476 0
M  V30 37141 O 3497.38 -1.58377 -0.855383 0
M  V30 37142 H 3493.75 -0.745828 -0.0961469 0
M  V30 37143 H 3495.72 -2.94503 0.48069 0
M  V30 37144 C 3494.47 -3.23639 -1.27096 0
M  V30 37145 H 3493.79 -3.9274 -0.748013 0
M  V30 37146 H 3495.23 -3.84655 -1.78373 0
M  V30 37147 C 3493.69 -2.45538 -2.30679 0
M  V30 37148 O 3494.22 -2.1832 -3.37193 0
M  V30 37149 N 3492.43 -2.06958 -2.04002 0
M  V30 37150 H 3491.98 -2.29293 -1.17399 0
M  V30 37151 H 3491.93 -1.55014 -2.73529 0
M  V30 37152 N 3495.71 -0.269505 -1.55279 0
M  V30 37153 C 3496.93 0.355277 -2.04334 0
M  V30 37154 C 3497.36 1.49098 -1.14679 0
M  V30 37155 O 3496.71 1.80725 -0.144247 0
M  V30 37156 C 3496.76 0.819101 -3.51174 0
M  V30 37157 O 3495.87 1.92684 -3.64619 0
M  V30 37158 H 3495.21 0.0743113 -0.659829 0
M  V30 37159 H 3497.74 -0.402166 -2.00609 0
M  V30 37160 H 3497.75 1.11635 -3.9243 0
M  V30 37161 H 3496.42 -0.0118552 -4.15898 0
M  V30 37162 H 3495 1.63255 -3.35264 0
M  V30 37163 N 3497.18 1.576 0.00329885 0
M  V30 37164 C 3498.43 1.90048 0.687475 0
M  V30 37165 C 3498.75 0.870419 1.74496 0
M  V30 37166 O 3498.02 -0.09262 1.95681 0
M  V30 37167 H 3496.6 0.701431 0.256912 0
M  V30 37168 H 3499.27 1.94865 -0.0368472 0
M  V30 37169 H 3498.36 2.8971 1.16081 0
M  V30 37170 N 3498.66 -0.276003 1.55164 0
M  V30 37171 C 3499.89 -1.0306 1.79982 0
M  V30 37172 C 3500.31 -1.79262 0.5698 0
M  V30 37173 O 3499.67 -1.74816 -0.480509 0
M  V30 37174 C 3499.72 -1.96723 3.02213 0
M  V30 37175 O 3498.82 -3.05444 2.77088 0
M  V30 37176 H 3498.16 -0.294803 0.594968 0
M  V30 37177 H 3500.69 -0.305825 2.02301 0
M  V30 37178 H 3500.7 -2.38732 3.30864 0
M  V30 37179 H 3499.38 -1.4067 3.91388 0
M  V30 37180 H 3497.96 -2.67771 2.59524 0
M  V30 37181 N 3500.14 -1.48046 -0.540378 0
M  V30 37182 C 3501.37 -1.5943 -1.32653 0
M  V30 37183 C 3501.79 -0.250957 -1.86418 0
M  V30 37184 O 3501.15 0.775809 -1.63862 0
M  V30 37185 C 3501.2 -2.63606 -2.46058 0
M  V30 37186 O 3500.3 -2.20044 -3.4879 0
M  V30 37187 H 3499.64 -0.534969 -0.393325 0
M  V30 37188 H 3502.17 -1.93956 -0.651329 0
M  V30 37189 H 3502.18 -2.84555 -2.92391 0
M  V30 37190 H 3500.86 -3.61136 -2.06284 0
M  V30 37191 H 3499.43 -2.09266 -3.08646 0
M  V30 37192 N 3501.62 0.788444 -1.3646 0
M  V30 37193 C 3502.57 1.90112 -1.30866 0
M  V30 37194 C 3503.54 1.65152 -0.177177 0
M  V30 37195 O 3504.72 1.87299 -0.36385 0
M  V30 37196 C 3501.86 3.26938 -1.10479 0
M  V30 37197 C 3500.97 3.63964 -2.32711 0
M  V30 37198 C 3500.11 4.89912 -2.05328 0
M  V30 37199 C 3499.15 5.19619 -3.23515 0
M  V30 37200 N 3498.28 6.36751 -2.95791 0
M  V30 37201 H 3503.12 1.94229 -2.26007 0
M  V30 37202 H 3500.66 0.949807 -1.12326 0
M  V30 37203 H 3502.62 4.05842 -0.966844 0
M  V30 37204 H 3501.25 3.22241 -0.189929 0
M  V30 37205 H 3500.3 2.80176 -2.57305 0
M  V30 37206 H 3501.61 3.81865 -3.20905 0
M  V30 37207 H 3500.77 5.76684 -1.88469 0
M  V30 37208 H 3499.51 4.74082 -1.14445 0
M  V30 37209 H 3498.51 4.3133 -3.40932 0
M  V30 37210 H 3499.74 5.37368 -4.15225 0
M  V30 37211 H 3497.68 6.22311 -2.07521 0
M  V30 37212 H 3497.6 6.5499 -3.77524 0
M  V30 37213 H 3498.87 7.26503 -2.82513 0
M  V30 37214 N 3503.1 1.20755 1.01271 0
M  V30 37215 C 3504.32 1.04582 1.78522 0
M  V30 37216 C 3504.74 -0.404776 1.8441 0
M  V30 37217 O 3504.1 -1.28098 1.29989 0
M  V30 37218 C 3504.15 1.62728 3.22803 0
M  V30 37219 O 3503.87 3.02111 3.1727 0
M  V30 37220 C 3505.37 1.5156 4.16587 0
M  V30 37221 H 3502.59 0.367684 0.561293 0
M  V30 37222 H 3505.13 1.59927 1.27451 0
M  V30 37223 H 3503.29 1.11494 3.71009 0
M  V30 37224 H 3503.7 3.29773 4.0786 0
M  V30 37225 H 3505.18 1.96999 5.1565 0
M  V30 37226 H 3505.65 0.468735 4.36692 0
M  V30 37227 H 3506.26 2.02004 3.74265 0
M  V30 37228 N 3504.58 -1.20642 1.01406 0
M  V30 37229 C 3505.51 -2.25593 0.602505 0
M  V30 37230 C 3506.49 -1.65774 -0.381187 0
M  V30 37231 O 3507.67 -1.92353 -0.267175 0
M  V30 37232 C 3504.8 -3.47244 -0.0625635 0
M  V30 37233 C 3503.76 -4.19639 0.84185 0
M  V30 37234 C 3503.08 -5.34683 0.0426942 0
M  V30 37235 C 3504.38 -4.76054 2.14872 0
M  V30 37236 H 3506.08 -2.60272 1.47982 0
M  V30 37237 H 3503.62 -1.2511 0.712988 0
M  V30 37238 H 3505.57 -4.19842 -0.362021 0
M  V30 37239 H 3504.3 -3.1172 -0.974572 0
M  V30 37240 H 3502.96 -3.48903 1.12527 0
M  V30 37241 H 3502.61 -4.95403 -0.870886 0
M  V30 37242 H 3502.31 -5.8405 0.644968 0
M  V30 37243 H 3503.83 -6.10086 -0.250369 0
M  V30 37244 H 3505.24 -5.40484 1.9118 0
M  V30 37245 H 3503.64 -5.35847 2.70163 0
M  V30 37246 H 3504.71 -3.94935 2.81343 0
M  V30 37247 N 3506.05 -0.789968 -1.36372 0
M  V30 37248 C 3507.33 -0.286577 -1.93489 0
M  V30 37249 C 3507.71 1.22133 -1.72182 0
M  V30 37250 O 3507.06 2.01307 -1.0811 0
M  V30 37251 C 3507.27 -0.679809 -3.42315 0
M  V30 37252 C 3508.62 -0.659865 -4.19441 0
M  V30 37253 O 3509.64 -0.620317 -3.50757 0
M  V30 37254 O 3508.5 -0.703254 -5.41956 0
M  V30 37255 H 3505.59 -0.0710682 -0.823941 0
M  V30 37256 H 3508.14 -0.872549 -1.4555 0
M  V30 37257 H 3506.91 -1.71976 -3.51482 0
M  V30 37258 H 3506.53 -0.0677522 -3.97542 0
M  V30 37259 N 3507.53 1.47986 -0.542031 0
M  V30 37260 C 3508.76 2.06893 -0.0167534 0
M  V30 37261 C 3509.17 1.3969 1.27013 0
M  V30 37262 O 3508.53 0.488357 1.75845 0
M  V30 37263 C 3508.58 3.60955 0.198373 0
M  V30 37264 O 3508.3 4.25637 -1.03753 0
M  V30 37265 C 3509.8 4.3669 0.762664 0
M  V30 37266 H 3507.02 0.669868 -0.0389614 0
M  V30 37267 H 3509.57 1.90206 -0.751115 0
M  V30 37268 H 3507.72 3.77207 0.882817 0
M  V30 37269 H 3508.14 5.17959 -0.825771 0
M  V30 37270 H 3509.61 5.45219 0.862553 0
M  V30 37271 H 3510.09 4.01936 1.77042 0
M  V30 37272 H 3510.69 4.25146 0.114403 0
M  V30 37273 N 3509.01 0.277736 1.55133 0
M  V30 37274 C 3509.92 -0.618618 2.26297 0
M  V30 37275 C 3510.94 -1.16791 1.2898 0
M  V30 37276 O 3512.11 -1.19765 1.61921 0
M  V30 37277 C 3509.18 -1.78503 2.97217 0
M  V30 37278 C 3508.24 -1.27214 4.10018 0
M  V30 37279 C 3507.47 -2.38295 4.77547 0
M  V30 37280 O 3507.69 -3.57707 4.44299 0
M  V30 37281 O 3506.63 -2.06303 5.6544 0
M  V30 37282 H 3510.45 -0.0420497 3.03671 0
M  V30 37283 H 3508.04 0.0450429 1.49332 0
M  V30 37284 H 3509.92 -2.46507 3.41778 0
M  V30 37285 H 3508.6 -2.34863 2.22757 0
M  V30 37286 H 3507.5 -0.558479 3.69908 0
M  V30 37287 H 3508.84 -0.754248 4.86387 0
M  V30 37288 N 3510.49 -1.57599 0.00505908 0
M  V30 37289 C 3511.4 -2.12176 -1.00093 0
M  V30 37290 C 3512.41 -1.06821 -1.37351 0
M  V30 37291 O 3513.59 -1.3875 -1.45981 0
M  V30 37292 C 3510.65 -2.61839 -2.27248 0
M  V30 37293 C 3509.72 -3.81815 -1.96255 0
M  V30 37294 C 3508.95 -4.29099 -3.17347 0
M  V30 37295 O 3509.17 -3.75687 -4.29203 0
M  V30 37296 O 3508.11 -5.21203 -3.0105 0
M  V30 37297 H 3511.93 -2.98361 -0.566972 0
M  V30 37298 H 3509.52 -1.47858 -0.214083 0
M  V30 37299 H 3511.4 -2.93958 -3.01938 0
M  V30 37300 H 3510.07 -1.78749 -2.69871 0
M  V30 37301 H 3508.98 -3.5466 -1.19024 0
M  V30 37302 H 3510.31 -4.65993 -1.58464 0
M  V30 37303 N 3511.97 0.267771 -1.55309 0
M  V30 37304 C 3512.88 1.35303 -1.91651 0
M  V30 37305 C 3513.89 1.53766 -0.814376 0
M  V30 37306 O 3515.07 1.67791 -1.11391 0
M  V30 37307 C 3512.13 2.69134 -2.18558 0
M  V30 37308 C 3511.19 2.59374 -3.42088 0
M  V30 37309 C 3510.43 3.86822 -3.67702 0
M  V30 37310 O 3510.65 4.87746 -2.95736 0
M  V30 37311 O 3509.58 3.8671 -4.61236 0
M  V30 37312 H 3513.41 1.07478 -2.84046 0
M  V30 37313 H 3510.99 0.466747 -1.41922 0
M  V30 37314 H 3512.88 3.48257 -2.37266 0
M  V30 37315 H 3511.55 2.96735 -1.29345 0
M  V30 37316 H 3510.46 1.78609 -3.28709 0
M  V30 37317 H 3511.79 2.36722 -4.31536 0
M  V30 37318 N 3513.44 1.48331 0.532519 0
M  V30 37319 C 3514.35 1.65342 1.6643 0
M  V30 37320 C 3515.37 0.535968 1.6554 0
M  V30 37321 O 3516.55 0.806711 1.84538 0
M  V30 37322 C 3513.61 1.68682 3.02898 0
M  V30 37323 C 3512.67 2.92036 3.14664 0
M  V30 37324 C 3511.9 2.95207 4.44622 0
M  V30 37325 O 3512.13 2.0686 5.31568 0
M  V30 37326 O 3511.06 3.87349 4.607 0
M  V30 37327 H 3514.89 2.61159 1.55016 0
M  V30 37328 H 3512.47 1.31702 0.705325 0
M  V30 37329 H 3514.35 1.73414 3.84065 0
M  V30 37330 H 3513.03 0.760382 3.14642 0
M  V30 37331 H 3511.94 2.92838 2.32802 0
M  V30 37332 H 3513.27 3.84056 3.07835 0
M  V30 37333 N 3514.92 -0.781196 1.36876 0
M  V30 37334 C 3516.2 -1.52807 1.22104 0
M  V30 37335 C 3516.58 -2.10249 -0.189365 0
M  V30 37336 O 3515.93 -1.94703 -1.19595 0
M  V30 37337 C 3516.14 -2.61648 2.30957 0
M  V30 37338 C 3517.48 -3.29308 2.68033 0
M  V30 37339 O 3518.51 -2.71937 2.30062 0
M  V30 37340 O 3517.37 -4.33009 3.33415 0
M  V30 37341 H 3514.46 -0.676341 0.475911 0
M  V30 37342 H 3517.01 -0.818972 1.4863 0
M  V30 37343 H 3515.78 -2.17255 3.25447 0
M  V30 37344 H 3515.4 -3.40168 2.05843 0
M  V30 37345 N 3516.4 -1.21291 -1.0063 0
M  V30 37346 C 3517.68 -0.938154 -1.71633 0
M  V30 37347 C 3518.06 0.550381 -2.03799 0
M  V30 37348 O 3517.4 1.51487 -1.71067 0
M  V30 37349 C 3517.61 -1.82189 -2.97671 0
M  V30 37350 C 3518.96 -2.06995 -3.70726 0
M  V30 37351 O 3519.99 -1.79527 -3.0765 0
M  V30 37352 O 3518.85 -2.53443 -4.84178 0
M  V30 37353 H 3515.94 -0.351677 -0.7485 0
M  V30 37354 H 3518.49 -1.32214 -1.06385 0
M  V30 37355 H 3517.26 -2.82936 -2.70301 0
M  V30 37356 H 3516.88 -1.43864 -3.7066 0
M  V30 37357 N 3517.88 1.20103 -1.02045 0
M  V30 37358 C 3519.11 1.93543 -0.731349 0
M  V30 37359 C 3519.52 1.75 0.708552 0
M  V30 37360 O 3518.88 1.06645 1.48098 0
M  V30 37361 C 3518.93 3.45537 -1.06239 0
M  V30 37362 O 3518.65 3.63476 -2.44574 0
M  V30 37363 C 3520.15 4.36115 -0.794894 0
M  V30 37364 H 3517.37 0.615043 -0.268259 0
M  V30 37365 H 3519.91 1.52485 -1.36266 0
M  V30 37366 H 3518.07 3.84459 -0.476409 0
M  V30 37367 H 3518.48 4.57424 -2.56638 0
M  V30 37368 H 3519.96 5.414 -1.07657 0
M  V30 37369 H 3520.43 4.38364 0.270867 0
M  V30 37370 H 3521.04 4.02861 -1.36321 0
M  V30 37371 N 3519.36 0.797189 1.35951 0
M  V30 37372 C 3520.61 0.36972 1.98283 0
M  V30 37373 C 3520.92 -1.06646 1.6397 0
M  V30 37374 O 3522.12 -1.59658 2.19594 0
M  V30 37375 C 3520.58 0.610109 3.54691 0
M  V30 37376 C 3520.19 2.05821 3.97922 0
M  V30 37377 C 3521.93 0.247531 4.23778 0
M  V30 37378 C 3519.84 2.24485 5.47139 0
M  V30 37379 H 3518.77 0.134502 0.741906 0
M  V30 37380 H 3521.42 0.979921 1.55144 0
M  V30 37381 H 3519.8 -0.0699127 3.95938 0
M  V30 37382 H 3520.98 2.77527 3.67852 0
M  V30 37383 H 3519.29 2.37977 3.41696 0
M  V30 37384 H 3521.89 0.365153 5.33452 0
M  V30 37385 H 3522.23 -0.805244 4.08438 0
M  V30 37386 H 3522.76 0.881096 3.8792 0
M  V30 37387 H 3519.5 3.28173 5.67435 0
M  V30 37388 H 3519.02 1.57293 5.78808 0
M  V30 37389 H 3520.7 2.05577 6.13471 0
M  V30 37390 N 3520.83 -1.47696 0.549872 0
M  V30 37391 C 3521.78 -2.26915 -0.222173 0
M  V30 37392 C 3522.77 -1.33913 -0.891973 0
M  V30 37393 O 3523.96 -1.58317 -0.791492 0
M  V30 37394 C 3521.09 -3.19494 -1.25613 0
M  V30 37395 C 3520.18 -4.19974 -0.59012 0
M  V30 37396 N 3520.57 -5.04685 0.335608 0
M  V30 37397 C 3518.86 -4.37923 -0.844935 0
M  V30 37398 C 3519.57 -5.77205 0.721774 0
M  V30 37399 N 3518.54 -5.43544 0.0782795 0
M  V30 37400 H 3522.34 -2.89792 0.489696 0
M  V30 37401 H 3519.86 -1.58146 0.369288 0
M  V30 37402 H 3521.85 -3.74924 -1.82312 0
M  V30 37403 H 3520.51 -2.58174 -1.96917 0
M  V30 37404 H 3521.53 -5.13019 0.709361 0
M  V30 37405 H 3518.2 -3.8778 -1.54704 0
M  V30 37406 H 3519.59 -6.55352 1.48202 0
M  V30 37407 N 3522.31 -0.285959 -1.54984 0
M  V30 37408 C 3523.25 0.63841 -2.19088 0
M  V30 37409 C 3524.22 1.14416 -1.15532 0
M  V30 37410 O 3525.41 1.21513 -1.44107 0
M  V30 37411 C 3522.53 1.87183 -2.82277 0
M  V30 37412 C 3521.58 1.50063 -3.99229 0
M  V30 37413 S 3522.41 0.569459 -5.32464 0
M  V30 37414 C 3523.57 1.81101 -5.99127 0
M  V30 37415 H 3523.8 0.0937617 -2.97152 0
M  V30 37416 H 3521.34 -0.0701615 -1.54241 0
M  V30 37417 H 3523.29 2.57974 -3.19312 0
M  V30 37418 H 3521.95 2.38763 -2.04086 0
M  V30 37419 H 3521.15 2.41871 -4.4217 0
M  V30 37420 H 3520.75 0.872808 -3.63673 0
M  V30 37421 H 3523.04 2.75356 -6.1902 0
M  V30 37422 H 3523.98 1.42442 -6.93625 0
M  V30 37423 H 3524.39 1.98089 -5.28603 0
M  V30 37424 N 3523.79 1.57594 -0.0134169 0
M  V30 37425 C 3525.04 1.90766 0.667279 0
M  V30 37426 C 3525.36 0.888877 1.73563 0
M  V30 37427 O 3524.63 -0.0718602 1.95768 0
M  V30 37428 H 3523.21 0.704116 0.249458 0
M  V30 37429 H 3525.87 1.94815 -0.0575132 0
M  V30 37430 H 3524.97 2.90924 1.13002 0
M  V30 37431 N 3525.27 -0.259531 1.55448 0
M  V30 37432 C 3526.22 -1.34092 1.90058 0
M  V30 37433 C 3527.21 -1.50462 0.778293 0
M  V30 37434 O 3528.42 -1.52087 0.962784 0
M  V30 37435 H 3524.79 -0.448747 0.603432 0
M  V30 37436 H 3526.76 -1.02161 2.80367 0
M  V30 37437 C 3525.51 -2.69185 2.20079 0
M  V30 37438 H 3524.83 -2.57384 3.05931 0
M  V30 37439 H 3526.27 -3.43758 2.48207 0
M  V30 37440 C 3524.73 -3.21314 1.01286 0
M  V30 37441 O 3525.26 -4.00894 0.254371 0
M  V30 37442 N 3523.47 -2.79173 0.806904 0
M  V30 37443 H 3523.02 -2.1457 1.4254 0
M  V30 37444 H 3522.97 -3.14397 0.0137267 0
M  V30 37445 N 3526.75 -1.48611 -0.524645 0
M  V30 37446 C 3527.71 -1.63042 -1.6109 0
M  V30 37447 C 3528.71 -0.503414 -1.52717 0
M  V30 37448 O 3529.9 -0.769331 -1.56291 0
M  V30 37449 C 3527.03 -1.60563 -3.00719 0
M  V30 37450 H 3528.22 -2.59904 -1.49632 0
M  V30 37451 H 3525.78 -1.37288 -0.747111 0
M  V30 37452 H 3526.51 -0.651982 -3.17679 0
M  V30 37453 H 3526.3 -2.42388 -3.08206 0
M  V30 37454 H 3527.79 -1.73866 -3.79685 0
M  V30 37455 N 3528.22 0.773926 -1.37289 0
M  V30 37456 C 3529.47 1.52767 -1.31701 0
M  V30 37457 C 3529.79 1.9536 0.0968242 0
M  V30 37458 O 3530.99 2.70102 0.275157 0
M  V30 37459 C 3529.45 2.7585 -2.31159 0
M  V30 37460 C 3529.06 2.40365 -3.78059 0
M  V30 37461 C 3530.8 3.53799 -2.34578 0
M  V30 37462 C 3528.71 3.59937 -4.69254 0
M  V30 37463 H 3527.64 0.573532 -0.489466 0
M  V30 37464 H 3530.29 0.847882 -1.62737 0
M  V30 37465 H 3528.67 3.45708 -1.93138 0
M  V30 37466 H 3529.84 1.78305 -4.24905 0
M  V30 37467 H 3528.16 1.75595 -3.77565 0
M  V30 37468 H 3530.76 4.42667 -2.99916 0
M  V30 37469 H 3531.1 3.93502 -1.35875 0
M  V30 37470 H 3531.63 2.90936 -2.71295 0
M  V30 37471 H 3528.37 3.25317 -5.69078 0
M  V30 37472 H 3527.89 4.21109 -4.27115 0
M  V30 37473 H 3529.57 4.26776 -4.86283 0
M  V30 37474 N 3529.7 1.21823 0.99985 0
M  V30 37475 C 3530.64 0.92537 2.08596 0
M  V30 37476 C 3531.61 -0.129074 1.62087 0
M  V30 37477 O 3532.8 0.00100845 1.885 0
M  V30 37478 C 3529.92 0.390447 3.36442 0
M  V30 37479 C 3528.97 1.42849 4.01866 0
M  V30 37480 S 3529.8 2.99946 4.43613 0
M  V30 37481 C 3530.96 2.48074 5.74639 0
M  V30 37482 H 3531.19 1.84511 2.33116 0
M  V30 37483 H 3528.73 1.04853 1.13337 0
M  V30 37484 H 3530.68 0.0883943 4.10405 0
M  V30 37485 H 3529.34 -0.508061 3.09964 0
M  V30 37486 H 3528.54 1.00394 4.939 0
M  V30 37487 H 3528.14 1.67889 3.34199 0
M  V30 37488 H 3530.43 1.88881 6.50638 0
M  V30 37489 H 3531.37 3.3857 6.21913 0
M  V30 37490 H 3531.78 1.89602 5.31706 0
M  V30 37491 N 3531.18 -1.1956 1.0268 0
M  V30 37492 C 3532.41 -1.93152 0.741603 0
M  V30 37493 C 3532.82 -1.75373 -0.699261 0
M  V30 37494 O 3532.18 -1.07429 -1.47531 0
M  V30 37495 C 3532.23 -3.44968 1.0807 0
M  V30 37496 O 3531.95 -3.62174 2.46498 0
M  V30 37497 C 3533.45 -4.35687 0.818011 0
M  V30 37498 H 3530.67 -0.613612 0.271517 0
M  V30 37499 H 3533.22 -1.5176 1.37073 0
M  V30 37500 H 3531.37 -3.84201 0.496791 0
M  V30 37501 H 3531.79 -4.56057 2.59061 0
M  V30 37502 H 3533.26 -5.40822 1.10526 0
M  V30 37503 H 3533.74 -4.38501 -0.247616 0
M  V30 37504 H 3534.34 -4.02132 1.38456 0
M  V30 37505 N 3532.66 -0.804387 -1.35526 0
M  V30 37506 C 3533.91 -0.383727 -1.98831 0
M  V30 37507 C 3534.23 1.04852 -1.63818 0
M  V30 37508 O 3533.49 1.74174 -0.892302 0
M  V30 37509 C 3533.79 -0.511633 -3.53719 0
M  V30 37510 C 3533.45 -1.90687 -4.08594 0
M  V30 37511 C 3532.12 -2.28859 -4.23293 0
M  V30 37512 C 3534.47 -2.81979 -4.38335 0
M  V30 37513 C 3531.8 -3.57695 -4.6505 0
M  V30 37514 C 3534.15 -4.10258 -4.8153 0
M  V30 37515 C 3532.81 -4.48432 -4.94434 0
M  V30 37516 H 3532.08 -0.140416 -0.727574 0
M  V30 37517 H 3534.73 -1.02475 -1.61775 0
M  V30 37518 H 3533.03 0.212848 -3.91221 0
M  V30 37519 H 3534.73 -0.166959 -4.00652 0
M  V30 37520 H 3531.32 -1.6003 -3.97603 0
M  V30 37521 H 3535.5 -2.53737 -4.26534 0
M  V30 37522 H 3530.76 -3.87123 -4.73229 0
M  V30 37523 H 3534.93 -4.811 -5.03504 0
M  V30 37524 H 3532.56 -5.48317 -5.26548 0
M  V30 37525 N 3534.14 1.47403 -0.557697 0
M  V30 37526 C 3535.37 2.06564 -0.0386401 0
M  V30 37527 C 3535.78 1.41076 1.26072 0
M  V30 37528 O 3535.12 0.501484 1.76722 0
M  V30 37529 C 3535.18 3.5878 0.227397 0
M  V30 37530 C 3534.84 4.46311 -0.982604 0
M  V30 37531 C 3535.84 4.84396 -1.8883 0
M  V30 37532 C 3533.53 4.87819 -1.19741 0
M  V30 37533 C 3535.52 5.62787 -2.99248 0
M  V30 37534 C 3533.21 5.65975 -2.30469 0
M  V30 37535 C 3534.21 6.0337 -3.20053 0
M  V30 37536 O 3533.89 6.79951 -4.28861 0
M  V30 37537 H 3533.63 0.674629 -0.0430348 0
M  V30 37538 H 3536.18 1.90387 -0.770835 0
M  V30 37539 H 3534.41 3.73171 1.01391 0
M  V30 37540 H 3536.1 3.9996 0.691895 0
M  V30 37541 H 3536.86 4.52928 -1.73439 0
M  V30 37542 H 3532.74 4.58178 -0.509304 0
M  V30 37543 H 3536.29 5.91894 -3.69197 0
M  V30 37544 H 3532.18 5.96856 -2.45832 0
M  V30 37545 H 3532.95 6.98345 -4.26915 0
M  V30 37546 N 3535.62 0.294175 1.5483 0
M  V30 37547 C 3536.84 -0.322724 2.04874 0
M  V30 37548 C 3537.27 -1.47255 1.17037 0
M  V30 37549 O 3536.62 -1.80473 0.172981 0
M  V30 37550 C 3536.67 -0.763128 3.52433 0
M  V30 37551 O 3535.78 -1.86858 3.67638 0
M  V30 37552 H 3535.12 -0.0638046 0.660927 0
M  V30 37553 H 3537.65 0.43403 1.99943 0
M  V30 37554 H 3537.66 -1.05378 3.94157 0
M  V30 37555 H 3536.33 0.0780195 4.15827 0
M  V30 37556 H 3534.91 -1.57901 3.37819 0
M  V30 37557 N 3537.09 -1.57585 0.0217743 0
M  V30 37558 C 3538.06 -2.08698 -0.94751 0
M  V30 37559 C 3539.06 -1.00058 -1.25877 0
M  V30 37560 O 3540.25 -1.26244 -1.20033 0
M  V30 37561 C 3537.38 -2.54669 -2.26619 0
M  V30 37562 H 3538.57 -2.95618 -0.504964 0
M  V30 37563 H 3536.12 -1.54656 -0.226125 0
M  V30 37564 H 3536.86 -1.71057 -2.75518 0
M  V30 37565 H 3536.64 -3.34032 -2.05341 0
M  V30 37566 H 3538.13 -2.94464 -2.96109 0
M  V30 37567 N 3538.57 0.251283 -1.55584 0
M  V30 37568 C 3539.5 1.31483 -1.92962 0
M  V30 37569 C 3540.48 1.5043 -0.794027 0
M  V30 37570 O 3541.67 1.63112 -1.05396 0
M  V30 37571 C 3538.8 2.67041 -2.22051 0
M  V30 37572 C 3537.75 2.62795 -3.37821 0
M  V30 37573 C 3537.08 4.02107 -3.5244 0
M  V30 37574 C 3538.38 2.20163 -4.7363 0
M  V30 37575 H 3540.07 1.00446 -2.82048 0
M  V30 37576 H 3537.62 0.481751 -1.35702 0
M  V30 37577 H 3539.57 3.41575 -2.46789 0
M  V30 37578 H 3538.29 2.99705 -1.29787 0
M  V30 37579 H 3536.95 1.90718 -3.13085 0
M  V30 37580 H 3536.6 4.32029 -2.57604 0
M  V30 37581 H 3536.3 4.00155 -4.3029 0
M  V30 37582 H 3537.83 4.78348 -3.79494 0
M  V30 37583 H 3539.24 2.84427 -4.97769 0
M  V30 37584 H 3537.64 2.29331 -5.54551 0
M  V30 37585 H 3538.71 1.15322 -4.70987 0
M  V30 37586 N 3540.05 1.48887 0.516757 0
M  V30 37587 C 3541.3 1.56827 1.26839 0
M  V30 37588 C 3541.61 0.253032 1.93956 0
M  V30 37589 O 3542.82 0.210813 2.7068 0
M  V30 37590 C 3541.27 2.76637 2.30218 0
M  V30 37591 C 3540.88 4.14856 1.6911 0
M  V30 37592 C 3542.63 2.93898 3.06307 0
M  V30 37593 C 3540.53 5.25909 2.70507 0
M  V30 37594 H 3539.46 0.583878 0.477077 0
M  V30 37595 H 3542.11 1.75246 0.544156 0
M  V30 37596 H 3540.5 2.51679 3.05734 0
M  V30 37597 H 3541.67 4.49887 0.996924 0
M  V30 37598 H 3539.98 4.02822 1.05466 0
M  V30 37599 H 3542.58 3.74033 3.82104 0
M  V30 37600 H 3542.92 2.03855 3.62972 0
M  V30 37601 H 3543.46 3.18819 2.37906 0
M  V30 37602 H 3540.2 6.1796 2.18644 0
M  V30 37603 H 3539.72 4.95351 3.38212 0
M  V30 37604 H 3541.4 5.54581 3.3324 0
M  V30 37605 N 3541.53 -0.766635 1.37697 0
M  V30 37606 C 3542.8 -1.51503 1.23718 0
M  V30 37607 C 3543.18 -2.10438 -0.167054 0
M  V30 37608 O 3542.53 -1.95961 -1.17523 0
M  V30 37609 C 3542.74 -2.59184 2.33719 0
M  V30 37610 C 3544.09 -3.26447 2.7151 0
M  V30 37611 O 3545.11 -2.69482 2.32934 0
M  V30 37612 O 3543.97 -4.29448 3.37989 0
M  V30 37613 H 3541.07 -0.671255 0.483058 0
M  V30 37614 H 3543.61 -0.803162 1.4949 0
M  V30 37615 H 3542.39 -2.13791 3.27733 0
M  V30 37616 H 3542.01 -3.37966 2.09439 0
M  V30 37617 N 3543.01 -1.22351 -0.993375 0
M  V30 37618 C 3543.94 -1.01741 -2.10169 0
M  V30 37619 C 3544.92 0.0614977 -1.69989 0
M  V30 37620 O 3546.1 -0.100625 -1.93939 0
M  V30 37621 C 3543.23 -0.593862 -3.42185 0
M  V30 37622 C 3542.19 -1.61865 -3.96212 0
M  V30 37623 C 3541.51 -1.05095 -5.2427 0
M  V30 37624 C 3542.81 -3.0085 -4.26951 0
M  V30 37625 H 3544.51 -1.9444 -2.27669 0
M  V30 37626 H 3542.05 -0.936278 -1.09407 0
M  V30 37627 H 3544 -0.436788 -4.1913 0
M  V30 37628 H 3542.73 0.368798 -3.24511 0
M  V30 37629 H 3541.39 -1.76349 -3.21398 0
M  V30 37630 H 3541.04 -0.0796631 -5.02937 0
M  V30 37631 H 3540.74 -1.73557 -5.61384 0
M  V30 37632 H 3542.26 -0.905455 -6.03849 0
M  V30 37633 H 3543.67 -2.89742 -4.94694 0
M  V30 37634 H 3542.07 -3.66431 -4.75235 0
M  V30 37635 H 3543.14 -3.50818 -3.34746 0
M  V30 37636 N 3544.48 1.19014 -1.03313 0
M  V30 37637 C 3545.41 2.24606 -0.638319 0
M  V30 37638 C 3546.39 1.66359 0.354766 0
M  V30 37639 O 3547.58 1.92754 0.23654 0
M  V30 37640 C 3544.71 3.47299 0.00731211 0
M  V30 37641 C 3543.66 4.18247 -0.908504 0
M  V30 37642 C 3542.99 5.34547 -0.127752 0
M  V30 37643 C 3544.29 4.72575 -2.22418 0
M  V30 37644 H 3545.98 2.57885 -1.52104 0
M  V30 37645 H 3543.53 1.2396 -0.732801 0
M  V30 37646 H 3545.48 4.20365 0.295182 0
M  V30 37647 H 3544.21 3.13231 0.924857 0
M  V30 37648 H 3542.87 3.47068 -1.18064 0
M  V30 37649 H 3542.51 4.96726 0.791961 0
M  V30 37650 H 3542.21 5.8295 -0.737804 0
M  V30 37651 H 3543.74 6.10408 0.153278 0
M  V30 37652 H 3545.15 5.37374 -1.99754 0
M  V30 37653 H 3543.55 5.31481 -2.78653 0
M  V30 37654 H 3544.62 3.9041 -2.87591 0
M  V30 37655 N 3545.96 0.811563 1.35098 0
M  V30 37656 C 3547.21 0.393487 1.98232 0
M  V30 37657 C 3547.53 -1.04414 1.6469 0
M  V30 37658 O 3546.8 -1.72316 0.931875 0
M  V30 37659 H 3545.38 0.142508 0.733281 0
M  V30 37660 H 3548.04 1.0385 1.64928 0
M  V30 37661 H 3547.14 0.503242 3.08016 0
M  V30 37662 N 3547.44 -1.47105 0.565506 0
M  V30 37663 C 3548.86 -1.57993 0.225883 0
M  V30 37664 C 3549.06 -1.56301 -1.2717 0
M  V30 37665 O 3548.11 -1.47082 -2.05239 0
M  V30 37666 C 3549.42 -2.88143 0.859879 0
M  V30 37667 C 3550.97 -3.01743 0.831874 0
M  V30 37668 C 3551.45 -4.34604 1.44509 0
M  V30 37669 N 3552.94 -4.41261 1.40865 0
M  V30 37670 C 3553.67 -5.42645 1.85268 0
M  V30 37671 N 3553.17 -6.50796 2.37564 0
M  V30 37672 N 3554.96 -5.33741 1.76288 0
M  V30 37673 H 3547.11 -1.46448 1.5384 0
M  V30 37674 H 3549.38 -0.697501 0.642025 0
M  V30 37675 H 3549.08 -2.95143 1.91269 0
M  V30 37676 H 3548.96 -3.75499 0.357828 0
M  V30 37677 H 3551.34 -2.94336 -0.212267 0
M  V30 37678 H 3551.42 -2.15908 1.37177 0
M  V30 37679 H 3551.07 -4.42768 2.48834 0
M  V30 37680 H 3551 -5.19185 0.88057 0
M  V30 37681 H 3553.49 -3.637 1.0262 0
M  V30 37682 H 3553.8 -7.24342 2.69348 0
M  V30 37683 H 3552.15 -6.51663 2.4158 0
M  V30 37684 H 3555.34 -4.48149 1.35203 0
M  V30 37685 H 3555.51 -6.12613 2.1121 0
M  V30 37686 N 3548.92 -0.302382 -1.54672 0
M  V30 37687 C 3550.16 0.307344 -2.02076 0
M  V30 37688 C 3550.52 1.50986 -1.18605 0
M  V30 37689 O 3551.72 2.19104 -1.55714 0
M  V30 37690 C 3549.99 0.653688 -3.51371 0
M  V30 37691 S 3551.55 1.24608 -4.20735 0
M  V30 37692 H 3548.37 0.0942397 -0.704727 0
M  V30 37693 H 3550.97 -0.430575 -1.907 0
M  V30 37694 H 3549.68 -0.229964 -4.09755 0
M  V30 37695 H 3549.21 1.42236 -3.66787 0
M  V30 37696 H 3551.22 2.53383 -4.26628 0
M  V30 37697 N 3550.4 1.57571 -0.0301311 0
M  V30 37698 C 3551.36 2.09198 0.936428 0
M  V30 37699 C 3552.36 1.00724 1.25345 0
M  V30 37700 O 3553.55 1.26879 1.19362 0
M  V30 37701 C 3550.68 2.55868 2.25266 0
M  V30 37702 H 3551.87 2.95882 0.48928 0
M  V30 37703 H 3549.43 1.54773 0.21792 0
M  V30 37704 H 3550.16 1.72515 2.74607 0
M  V30 37705 H 3549.95 3.35116 2.03567 0
M  V30 37706 H 3551.44 2.9603 2.94543 0
M  V30 37707 N 3551.87 -0.243029 1.55715 0
M  V30 37708 C 3553.29 -0.811784 1.68128 0
M  V30 37709 C 3553.64 -1.85868 0.628292 0
M  V30 37710 O 3552.76 -2.1523 -0.22471 0
M  V30 37711 C 3553.36 -1.47922 3.04802 0
M  V30 37712 C 3551.92 -1.99563 3.19142 0
M  V30 37713 C 3551.06 -0.848103 2.64012 0
M  V30 37714 H 3554.01 -0.0187639 1.58689 0
M  V30 37715 H 3554.03 -2.34738 2.99463 0
M  V30 37716 H 3553.55 -0.717039 3.81419 0
M  V30 37717 H 3551.65 -2.7865 2.47355 0
M  V30 37718 H 3551.76 -2.19036 4.26099 0
M  V30 37719 H 3550.12 -1.24966 2.21936 0
M  V30 37720 H 3550.91 -0.0989384 3.43157 0
M  V30 37721 N 3553.35 -1.49159 -0.508854 0
M  V30 37722 C 3554.26 -1.67969 -1.63779 0
M  V30 37723 C 3555.28 -0.562236 -1.64666 0
M  V30 37724 O 3556.45 -0.835968 -1.83231 0
M  V30 37725 C 3553.52 -1.73479 -3.00176 0
M  V30 37726 C 3552.58 -2.97005 -3.09978 0
M  V30 37727 C 3551.81 -3.02243 -4.39869 0
M  V30 37728 O 3552.04 -2.15291 -5.2821 0
M  V30 37729 O 3550.97 -3.94629 -4.54479 0
M  V30 37730 H 3554.8 -2.63592 -1.50841 0
M  V30 37731 H 3552.38 -1.32808 -0.684283 0
M  V30 37732 H 3554.26 -1.79502 -3.81257 0
M  V30 37733 H 3552.94 -0.810343 -3.13393 0
M  V30 37734 H 3551.85 -2.96504 -2.28114 0
M  V30 37735 H 3553.18 -3.88904 -3.01686 0
M  V30 37736 N 3554.83 0.759322 -1.38102 0
M  V30 37737 C 3555.76 1.88072 -1.29244 0
M  V30 37738 C 3556.74 1.61703 -0.170554 0
M  V30 37739 O 3557.93 1.85281 -0.346897 0
M  V30 37740 C 3555.05 3.23564 -1.0012 0
M  V30 37741 C 3554.1 3.68828 -2.14168 0
M  V30 37742 S 3554.93 3.81039 -3.76258 0
M  V30 37743 C 3556.09 5.19359 -3.4931 0
M  V30 37744 H 3556.32 1.95299 -2.24155 0
M  V30 37745 H 3553.85 0.921712 -1.2387 0
M  V30 37746 H 3555.81 4.01814 -0.840004 0
M  V30 37747 H 3554.47 3.14023 -0.069364 0
M  V30 37748 H 3553.67 4.6709 -1.89322 0
M  V30 37749 H 3553.27 2.97716 -2.26365 0
M  V30 37750 H 3555.56 6.04929 -3.05069 0
M  V30 37751 H 3556.5 5.49223 -4.46945 0
M  V30 37752 H 3556.91 4.87884 -2.83953 0
M  V30 37753 N 3556.31 1.22876 0.986873 0
M  V30 37754 C 3557.26 0.971434 2.0627 0
M  V30 37755 C 3558.24 -0.0801891 1.607 0
M  V30 37756 O 3559.43 0.13111 1.76514 0
M  V30 37757 C 3556.56 0.557584 3.38742 0
M  V30 37758 C 3555.65 1.64426 3.90928 0
M  V30 37759 N 3556.04 2.87323 4.16268 0
M  V30 37760 C 3554.34 1.51734 4.19396 0
M  V30 37761 C 3555.04 3.57633 4.58774 0
M  V30 37762 N 3554.02 2.85125 4.62823 0
M  V30 37763 H 3557.82 1.90489 2.23811 0
M  V30 37764 H 3555.33 1.12719 1.16911 0
M  V30 37765 H 3557.33 0.354526 4.1539 0
M  V30 37766 H 3555.99 -0.3689 3.22598 0
M  V30 37767 H 3557 3.23692 4.04282 0
M  V30 37768 H 3553.68 0.657492 4.1229 0
M  V30 37769 H 3555.07 4.62955 4.86952 0
M  V30 37770 N 3557.79 -1.18464 1.03942 0
M  V30 37771 C 3558.72 -2.24264 0.650221 0
M  V30 37772 C 3559.7 -1.66545 -0.345938 0
M  V30 37773 O 3560.88 -1.92877 -0.226314 0
M  V30 37774 C 3558.01 -3.47298 0.0111061 0
M  V30 37775 C 3556.97 -4.17759 0.930672 0
M  V30 37776 C 3556.29 -5.34472 0.156099 0
M  V30 37777 C 3557.59 -4.71389 2.24921 0
M  V30 37778 H 3559.29 -2.57075 1.53469 0
M  V30 37779 H 3556.83 -1.23569 0.739365 0
M  V30 37780 H 3558.79 -4.20516 -0.272885 0
M  V30 37781 H 3557.51 -3.13718 -0.908233 0
M  V30 37782 H 3556.17 -3.46437 1.19903 0
M  V30 37783 H 3555.82 -4.97139 -0.765607 0
M  V30 37784 H 3555.52 -5.8255 0.768709 0
M  V30 37785 H 3557.04 -6.1048 -0.120904 0
M  V30 37786 H 3558.45 -5.36307 2.02601 0
M  V30 37787 H 3556.85 -5.29996 2.81468 0
M  V30 37788 H 3557.92 -3.88879 2.89657 0
M  V30 37789 N 3559.26 -0.818716 -1.34665 0
M  V30 37790 C 3560.51 -0.401218 -1.97669 0
M  V30 37791 C 3560.83 1.04024 -1.65646 0
M  V30 37792 O 3562.03 1.56144 -2.22107 0
M  V30 37793 C 3560.49 -0.66646 -3.53675 0
M  V30 37794 C 3560.1 -2.12126 -3.94597 0
M  V30 37795 C 3561.84 -0.314919 -4.2333 0
M  V30 37796 C 3559.75 -2.33161 -5.43498 0
M  V30 37797 H 3558.68 -0.146288 -0.739673 0
M  V30 37798 H 3561.33 -1.00448 -1.53566 0
M  V30 37799 H 3559.71 0.00691346 -3.95999 0
M  V30 37800 H 3560.88 -2.83344 -3.63391 0
M  V30 37801 H 3559.2 -2.43383 -3.37867 0
M  V30 37802 H 3561.8 -0.449974 -5.32803 0
M  V30 37803 H 3562.14 0.740163 -4.09667 0
M  V30 37804 H 3562.67 -0.942699 -3.86469 0
M  V30 37805 H 3559.41 -3.37159 -5.62142 0
M  V30 37806 H 3558.93 -1.66481 -5.76233 0
M  V30 37807 H 3560.61 -2.15311 -6.10123 0
M  V30 37808 N 3560.74 1.46803 -0.573299 0
M  V30 37809 C 3561.69 2.2724 0.186045 0
M  V30 37810 C 3562.68 1.35315 0.870555 0
M  V30 37811 O 3563.87 1.59557 0.766204 0
M  V30 37812 C 3561 3.21452 1.20515 0
M  V30 37813 C 3560.08 4.2086 0.523231 0
M  V30 37814 N 3560.47 5.04088 -0.415857 0
M  V30 37815 C 3558.77 4.39212 0.775159 0
M  V30 37816 C 3559.47 5.75983 -0.813511 0
M  V30 37817 N 3558.45 5.4335 -0.164743 0
M  V30 37818 H 3562.25 2.88976 -0.535737 0
M  V30 37819 H 3559.77 1.57538 -0.394401 0
M  V30 37820 H 3561.76 3.77777 1.76325 0
M  V30 37821 H 3560.42 2.61274 1.92785 0
M  V30 37822 H 3561.43 5.11826 -0.790888 0
M  V30 37823 H 3558.11 3.90192 1.48515 0
M  V30 37824 H 3559.5 6.52911 -1.5861 0
M  V30 37825 N 3562.22 0.31058 1.54509 0
M  V30 37826 C 3563.18 -0.54845 2.22541 0
M  V30 37827 C 3564.18 -1.05379 1.21458 0
M  V30 37828 O 3565.37 -0.948286 1.46127 0
M  V30 37829 C 3562.51 -1.76038 2.9193 0
M  V30 37830 H 3563.7 0.0460833 2.99865 0
M  V30 37831 H 3561.25 0.0615145 1.56179 0
M  V30 37832 H 3561.99 -2.3945 2.18711 0
M  V30 37833 H 3561.77 -1.40558 3.66041 0
M  V30 37834 H 3563.26 -2.37045 3.43801 0
M  V30 37835 N 3563.7 -1.57553 0.0384871 0
M  V30 37836 C 3564.95 -1.91804 -0.636846 0
M  V30 37837 C 3565.27 -0.916377 -1.72126 0
M  V30 37838 O 3564.54 0.0407061 -1.95858 0
M  V30 37839 H 3563.12 -0.707996 -0.238224 0
M  V30 37840 H 3565.78 -1.94699 0.0884993 0
M  V30 37841 H 3564.88 -2.92685 -1.08359 0
M  V30 37842 N 3565.18 0.234767 -1.55842 0
M  V30 37843 C 3566.12 1.29082 -1.91328 0
M  V30 37844 C 3567.09 1.47232 -0.768894 0
M  V30 37845 O 3568.28 1.61017 -1.02363 0
M  V30 37846 C 3565.42 2.63886 -2.22392 0
M  V30 37847 C 3564.53 2.53644 -3.49698 0
M  V30 37848 C 3563.67 3.80882 -3.70273 0
M  V30 37849 C 3562.71 3.65308 -4.91138 0
M  V30 37850 N 3561.84 4.84465 -5.08171 0
M  V30 37851 H 3566.68 0.981197 -2.81383 0
M  V30 37852 H 3564.22 0.473215 -1.39281 0
M  V30 37853 H 3566.18 3.42369 -2.3841 0
M  V30 37854 H 3564.81 2.92972 -1.35526 0
M  V30 37855 H 3563.86 1.66666 -3.41945 0
M  V30 37856 H 3565.17 2.38051 -4.3833 0
M  V30 37857 H 3564.33 4.67808 -3.86316 0
M  V30 37858 H 3563.07 3.99386 -2.79897 0
M  V30 37859 H 3562.07 2.76765 -4.75059 0
M  V30 37860 H 3563.3 3.48288 -5.82986 0
M  V30 37861 H 3561.24 5.03307 -4.20735 0
M  V30 37862 H 3561.16 4.71549 -5.90913 0
M  V30 37863 H 3562.43 5.72855 -5.28637 0
M  V30 37864 N 3566.66 1.49427 0.500936 0
M  V30 37865 C 3567.9 1.58603 1.25258 0
M  V30 37866 C 3568.22 0.274681 1.93056 0
M  V30 37867 O 3567.49 -0.705971 1.82737 0
M  V30 37868 H 3566.07 0.58437 0.465318 0
M  V30 37869 H 3568.74 1.86053 0.580555 0
M  V30 37870 H 3567.83 2.38211 2.01648 0
M  V30 37871 N 3568.13 -0.751987 1.38502 0
M  V30 37872 C 3569.04 -1.89648 1.38097 0
M  V30 37873 C 3570.06 -1.71767 0.277881 0
M  V30 37874 O 3571.24 -1.94663 0.51657 0
M  V30 37875 C 3568.3 -3.25035 1.20636 0
M  V30 37876 C 3567.36 -3.55431 2.40764 0
M  V30 37877 C 3566.59 -4.84358 2.24126 0
M  V30 37878 O 3566.82 -5.56852 1.23581 0
M  V30 37879 O 3565.75 -5.14267 3.1275 0
M  V30 37880 H 3569.58 -1.92943 2.34535 0
M  V30 37881 H 3567.16 -0.897483 1.19439 0
M  V30 37882 H 3569.04 -4.05977 1.12964 0
M  V30 37883 H 3567.72 -3.22548 0.272841 0
M  V30 37884 H 3566.63 -2.74644 2.54011 0
M  V30 37885 H 3567.96 -3.6268 3.32752 0
M  V30 37886 N 3569.61 -1.23398 -0.980343 0
M  V30 37887 C 3570.57 -1.01639 -2.05432 0
M  V30 37888 C 3571.57 0.0217961 -1.60785 0
M  V30 37889 O 3572.76 -0.217952 -1.72831 0
M  V30 37890 C 3569.9 -0.537881 -3.3663 0
M  V30 37891 H 3571.09 -1.96947 -2.26168 0
M  V30 37892 H 3568.64 -1.05443 -1.15376 0
M  V30 37893 H 3569.38 0.418973 -3.21582 0
M  V30 37894 H 3569.16 -1.28705 -3.70375 0
M  V30 37895 H 3570.65 -0.406286 -4.15619 0
M  V30 37896 N 3571.09 1.17911 -1.04569 0
M  V30 37897 C 3572.34 1.87349 -0.747212 0
M  V30 37898 C 3572.65 1.81538 0.728242 0
M  V30 37899 O 3573.86 2.46387 1.14043 0
M  V30 37900 C 3572.31 3.36127 -1.28635 0
M  V30 37901 C 3571.92 3.50455 -2.79079 0
M  V30 37902 C 3573.67 4.10933 -1.06462 0
M  V30 37903 C 3571.57 4.9322 -3.26325 0
M  V30 37904 H 3570.5 0.70174 -0.275819 0
M  V30 37905 H 3573.15 1.33197 -1.26218 0
M  V30 37906 H 3571.54 3.89778 -0.699219 0
M  V30 37907 H 3572.71 3.07051 -3.43593 0
M  V30 37908 H 3571.02 2.89061 -2.99721 0
M  V30 37909 H 3573.62 5.16244 -1.39269 0
M  V30 37910 H 3573.96 4.163 -0.00208615 0
M  V30 37911 H 3574.5 3.6347 -1.61662 0
M  V30 37912 H 3571.24 4.93024 -4.31981 0
M  V30 37913 H 3570.76 5.37319 -2.66549 0
M  V30 37914 H 3572.44 5.6196 -3.20639 0
M  V30 37915 N 3572.57 0.825847 1.34229 0
M  V30 37916 C 3573.98 0.511972 1.51166 0
M  V30 37917 C 3574.18 -0.963287 1.76983 0
M  V30 37918 O 3573.24 -1.74764 1.82246 0
M  V30 37919 C 3574.55 1.37403 2.67471 0
M  V30 37920 C 3576.1 1.37146 2.81354 0
M  V30 37921 C 3576.58 2.21807 4.00706 0
M  V30 37922 N 3578.07 2.19446 4.07918 0
M  V30 37923 C 3578.8 2.81699 4.99433 0
M  V30 37924 N 3578.3 3.52954 5.9615 0
M  V30 37925 N 3580.09 2.71238 4.92327 0
M  V30 37926 H 3572.24 1.78101 1.15731 0
M  V30 37927 H 3574.5 0.759117 0.567842 0
M  V30 37928 H 3574.21 2.42181 2.55032 0
M  V30 37929 H 3574.08 1.04081 3.62556 0
M  V30 37930 H 3576.47 0.331456 2.93233 0
M  V30 37931 H 3576.55 1.74468 1.87069 0
M  V30 37932 H 3576.2 3.25859 3.89587 0
M  V30 37933 H 3576.13 1.81834 4.9421 0
M  V30 37934 H 3578.62 1.67618 3.38692 0
M  V30 37935 H 3578.93 3.97694 6.62616 0
M  V30 37936 H 3577.28 3.57061 5.96266 0
M  V30 37937 H 3580.47 2.15144 4.15729 0
M  V30 37938 H 3580.64 3.20041 5.63452 0
M  V30 37939 N 3574.05 -1.46497 0.581077 0
M  V30 37940 C 3575.29 -2.01599 0.0637544 0
M  V30 37941 C 3575.61 -1.45836 -1.3035 0
M  V30 37942 O 3576.81 -1.92748 -1.91208 0
M  V30 37943 C 3575.27 -3.59844 0.0633887 0
M  V30 37944 C 3574.88 -4.24603 1.42886 0
M  V30 37945 C 3576.62 -4.22611 -0.400075 0
M  V30 37946 C 3574.53 -5.74922 1.38631 0
M  V30 37947 H 3573.46 -0.753733 0.0200644 0
M  V30 37948 H 3576.11 -1.68247 0.732481 0
M  V30 37949 H 3574.49 -3.90266 -0.671469 0
M  V30 37950 H 3575.67 -4.05793 2.18332 0
M  V30 37951 H 3573.98 -3.73924 1.83222 0
M  V30 37952 H 3576.58 -5.32797 -0.450678 0
M  V30 37953 H 3576.92 -3.91433 -1.41726 0
M  V30 37954 H 3577.45 -3.96809 0.280668 0
M  V30 37955 H 3574.19 -6.10757 2.38025 0
M  V30 37956 H 3573.71 -5.96001 0.674031 0
M  V30 37957 H 3575.39 -6.37606 1.09852 0
M  V30 37958 N 3575.52 -0.31877 -1.54343 0
M  V30 37959 C 3576.94 0.0340399 -1.59564 0
M  V30 37960 C 3577.14 1.50894 -1.33541 0
M  V30 37961 O 3576.2 2.26425 -1.1175 0
M  V30 37962 C 3577.51 -0.379879 -2.98291 0
M  V30 37963 C 3579.06 -0.330132 -3.11254 0
M  V30 37964 C 3579.53 -0.719141 -4.52319 0
M  V30 37965 N 3581.02 -0.67236 -4.58294 0
M  V30 37966 C 3581.76 -0.945613 -5.65549 0
M  V30 37967 N 3581.25 -1.28575 -6.80764 0
M  V30 37968 N 3583.05 -0.871492 -5.55303 0
M  V30 37969 H 3575.2 -1.27978 -1.69515 0
M  V30 37970 H 3577.46 -0.520058 -0.792618 0
M  V30 37971 H 3577.17 -1.40729 -3.22317 0
M  V30 37972 H 3577.04 0.25754 -3.7632 0
M  V30 37973 H 3579.43 0.688066 -2.86966 0
M  V30 37974 H 3579.51 -1.00242 -2.35341 0
M  V30 37975 H 3579.15 -1.73523 -4.77339 0
M  V30 37976 H 3579.08 -0.0245926 -5.26594 0
M  V30 37977 H 3581.57 -0.421125 -3.75546 0
M  V30 37978 H 3581.89 -1.47976 -7.585 0
M  V30 37979 H 3580.23 -1.32397 -6.82273 0
M  V30 37980 H 3583.42 -0.605286 -4.6417 0
M  V30 37981 H 3583.6 -1.08781 -6.38804 0
M  V30 37982 N 3577 1.5753 -0.0468419 0
M  V30 37983 C 3578.23 1.97242 0.641127 0
M  V30 37984 C 3578.65 0.924039 1.63839 0
M  V30 37985 O 3578.01 -0.113198 1.80946 0
M  V30 37986 C 3578.06 3.36031 1.30827 0
M  V30 37987 O 3577.16 3.3365 2.42388 0
M  V30 37988 H 3576.5 0.64265 0.167024 0
M  V30 37989 H 3579.03 2.04282 -0.113957 0
M  V30 37990 H 3579.04 3.72661 1.66096 0
M  V30 37991 H 3577.72 4.11873 0.577368 0
M  V30 37992 H 3576.29 3.08759 2.09098 0
M  V30 37993 N 3578.48 -0.226499 1.55964 0
M  V30 37994 C 3579.73 -0.949639 1.77946 0
M  V30 37995 C 3580.04 -1.85696 0.614511 0
M  V30 37996 O 3581.25 -2.61838 0.717839 0
M  V30 37997 C 3579.7 -1.73876 3.15111 0
M  V30 37998 C 3579.31 -0.877817 4.39316 0
M  V30 37999 C 3581.06 -2.45341 3.46422 0
M  V30 38000 C 3578.96 -1.664 5.67508 0
M  V30 38001 H 3577.89 -0.358318 0.663419 0
M  V30 38002 H 3580.54 -0.203663 1.82366 0
M  V30 38003 H 3578.93 -2.52745 3.04854 0
M  V30 38004 H 3580.1 -0.130008 4.60617 0
M  V30 38005 H 3578.42 -0.275527 4.15487 0
M  V30 38006 H 3581.01 -3.04652 4.39421 0
M  V30 38007 H 3581.36 -3.1798 2.6869 0
M  V30 38008 H 3581.89 -1.73465 3.57987 0
M  V30 38009 H 3578.63 -0.980975 6.48118 0
M  V30 38010 H 3578.15 -2.38655 5.50276 0
M  V30 38011 H 3579.83 -2.22595 6.07504 0
M  V30 38012 N 3579.96 -1.4969 -0.493005 0
M  V30 38013 C 3580.89 -1.69866 -1.60212 0
M  V30 38014 C 3581.87 -0.547391 -1.61052 0
M  V30 38015 O 3583.05 -0.784124 -1.77666 0
M  V30 38016 C 3580.18 -1.77258 -2.98659 0
M  V30 38017 C 3579.14 -2.92253 -3.12685 0
M  V30 38018 C 3578.46 -2.84766 -4.52562 0
M  V30 38019 C 3579.76 -4.3308 -2.91958 0
M  V30 38020 H 3581.46 -2.62725 -1.43582 0
M  V30 38021 H 3579 -1.2643 -0.689312 0
M  V30 38022 H 3580.96 -1.89957 -3.76157 0
M  V30 38023 H 3579.68 -0.810032 -3.16395 0
M  V30 38024 H 3578.34 -2.79169 -2.37614 0
M  V30 38025 H 3577.99 -1.86403 -4.67186 0
M  V30 38026 H 3577.69 -3.61953 -4.62887 0
M  V30 38027 H 3579.21 -2.99484 -5.3211 0
M  V30 38028 H 3580.63 -4.46804 -3.5922 0
M  V30 38029 H 3579.02 -5.11549 -3.13747 0
M  V30 38030 H 3580.09 -4.46969 -1.88007 0
M  V30 38031 N 3581.44 0.744631 -1.38899 0
M  V30 38032 C 3582.85 1.0489 -1.20292 0
M  V30 38033 C 3583.05 2.01417 -0.0578059 0
M  V30 38034 O 3582.11 2.45424 0.593595 0
M  V30 38035 C 3583.42 1.62041 -2.53305 0
M  V30 38036 C 3584.97 1.74168 -2.60066 0
M  V30 38037 C 3585.44 2.34729 -3.93276 0
M  V30 38038 N 3586.94 2.4215 -3.94864 0
M  V30 38039 C 3587.67 2.89925 -4.94703 0
M  V30 38040 N 3587.17 3.37668 -6.0494 0
M  V30 38041 N 3588.96 2.89046 -4.82088 0
M  V30 38042 H 3581.11 0.104256 -2.12144 0
M  V30 38043 H 3583.37 0.108878 -0.941727 0
M  V30 38044 H 3583.08 0.985808 -3.37601 0
M  V30 38045 H 3582.95 2.60981 -2.72339 0
M  V30 38046 H 3585.34 2.36753 -1.76159 0
M  V30 38047 H 3585.42 0.739072 -2.44891 0
M  V30 38048 H 3585.07 1.72776 -4.7761 0
M  V30 38049 H 3585 3.35649 -4.05768 0
M  V30 38050 H 3587.49 2.08394 -3.15247 0
M  V30 38051 H 3587.8 3.72604 -6.77042 0
M  V30 38052 H 3586.14 3.35701 -6.08547 0
M  V30 38053 H 3589.34 2.51065 -3.95075 0
M  V30 38054 H 3589.51 3.25965 -5.60045 0
M  V30 38055 N 3582.91 1.23916 0.973785 0
M  V30 38056 C 3584.14 1.10299 1.75638 0
M  V30 38057 C 3584.56 -0.340921 1.84985 0
M  V30 38058 O 3583.92 -1.24672 1.31631 0
M  V30 38059 C 3583.97 1.74066 3.15806 0
M  V30 38060 O 3583.07 1.00729 3.99909 0
M  V30 38061 H 3582.42 0.386212 0.540127 0
M  V30 38062 H 3584.95 1.64103 1.22194 0
M  V30 38063 H 3584.96 1.79575 3.66356 0
M  V30 38064 H 3583.63 2.79128 3.08319 0
M  V30 38065 H 3582.21 1.02963 3.58404 0
M  V30 38066 N 3584.39 -1.17355 1.05193 0
M  V30 38067 C 3585.32 -2.23562 0.673971 0
M  V30 38068 C 3586.3 -1.66903 -0.328254 0
M  V30 38069 O 3587.49 -1.93106 -0.205844 0
M  V30 38070 C 3584.62 -3.47267 0.0479411 0
M  V30 38071 C 3583.57 -4.16748 0.974929 0
M  V30 38072 C 3582.9 -5.34276 0.212778 0
M  V30 38073 C 3584.2 -4.68977 2.29908 0
M  V30 38074 H 3585.89 -2.55433 1.56187 0
M  V30 38075 H 3583.44 -1.22778 0.752429 0
M  V30 38076 H 3585.39 -4.20781 -0.228269 0
M  V30 38077 H 3584.12 -3.14663 -0.874908 0
M  V30 38078 H 3582.77 -3.45146 1.2357 0
M  V30 38079 H 3582.42 -4.97923 -0.712836 0
M  V30 38080 H 3582.12 -5.81702 0.830453 0
M  V30 38081 H 3583.65 -6.10574 -0.0561476 0
M  V30 38082 H 3585.06 -5.34128 2.08278 0
M  V30 38083 H 3583.46 -5.26981 2.87073 0
M  V30 38084 H 3584.53 -3.85785 2.93765 0
M  V30 38085 N 3585.87 -0.832954 -1.3379 0
M  V30 38086 C 3587.12 -0.422161 -1.97233 0
M  V30 38087 C 3587.43 1.02261 -1.6674 0
M  V30 38088 O 3588.64 1.53779 -2.2375 0
M  V30 38089 C 3587.09 -0.703934 -3.52949 0
M  V30 38090 C 3586.7 -2.16299 -3.92325 0
M  V30 38091 C 3588.45 -0.359802 -4.22972 0
M  V30 38092 C 3586.35 -2.38912 -5.40994 0
M  V30 38093 H 3585.28 -0.154125 -0.73808 0
M  V30 38094 H 3587.93 -1.02071 -1.52492 0
M  V30 38095 H 3586.32 -0.035088 -3.95984 0
M  V30 38096 H 3587.49 -2.87182 -3.60365 0
M  V30 38097 H 3585.81 -2.46952 -3.35266 0
M  V30 38098 H 3588.4 -0.50646 -5.32296 0
M  V30 38099 H 3588.75 0.69667 -4.10429 0
M  V30 38100 H 3589.28 -0.983636 -3.85447 0
M  V30 38101 H 3586.02 -3.43102 -5.58535 0
M  V30 38102 H 3585.54 -1.72583 -5.74435 0
M  V30 38103 H 3587.22 -2.2177 -6.07805 0
M  V30 38104 N 3587.35 1.46186 -0.588837 0
M  V30 38105 C 3588.76 1.85979 -0.16393 0
M  V30 38106 C 3589.11 1.49163 1.27455 0
M  V30 38107 O 3588.24 0.909406 1.96364 0
M  V30 38108 C 3588.83 3.3755 -0.290729 0
M  V30 38109 C 3587.39 3.76316 0.0793504 0
M  V30 38110 C 3586.54 2.70191 -0.623855 0
M  V30 38111 H 3589.49 1.37254 -0.796684 0
M  V30 38112 H 3589.51 3.77432 0.48225 0
M  V30 38113 H 3589.02 3.64315 -1.33777 0
M  V30 38114 H 3587.12 3.5517 1.12629 0
M  V30 38115 H 3587.23 4.78152 -0.301237 0
M  V30 38116 H 3585.6 2.54621 -0.0634571 0
M  V30 38117 H 3586.38 2.99795 -1.67267 0
M  V30 38118 N 3588.83 0.32695 1.54171 0
M  V30 38119 C 3589.76 -0.530114 2.27403 0
M  V30 38120 C 3590.74 -1.11652 1.28327 0
M  V30 38121 O 3591.92 -1.14102 1.57144 0
M  V30 38122 C 3589.05 -1.68945 3.03438 0
M  V30 38123 C 3588.01 -1.23218 4.0988 0
M  V30 38124 C 3587.33 -2.47874 4.73775 0
M  V30 38125 C 3588.63 -0.344607 5.21162 0
M  V30 38126 H 3590.33 0.0807485 2.99291 0
M  V30 38127 H 3587.87 0.0402764 1.43944 0
M  V30 38128 H 3589.83 -2.29535 3.534 0
M  V30 38129 H 3588.55 -2.32696 2.29173 0
M  V30 38130 H 3587.21 -0.649204 3.60806 0
M  V30 38131 H 3586.86 -3.09995 3.96121 0
M  V30 38132 H 3586.56 -2.17967 5.45678 0
M  V30 38133 H 3588.08 -3.09219 5.26513 0
M  V30 38134 H 3589.49 -0.85688 5.6686 0
M  V30 38135 H 3587.89 -0.138171 5.99941 0
M  V30 38136 H 3588.96 0.623659 4.80873 0
M  V30 38137 N 3590.3 -1.57503 0.0551955 0
M  V30 38138 C 3591.55 -1.92468 -0.616466 0
M  V30 38139 C 3591.87 -0.934582 -1.71145 0
M  V30 38140 O 3591.14 0.0199305 -1.9589 0
M  V30 38141 H 3589.72 -0.710483 -0.230701 0
M  V30 38142 H 3592.39 -1.94594 0.109145 0
M  V30 38143 H 3591.48 -2.93818 -1.05249 0
M  V30 38144 N 3591.78 0.218225 -1.56082 0
M  V30 38145 C 3593.06 0.966655 -1.70045 0
M  V30 38146 C 3593.44 2.02292 -0.603407 0
M  V30 38147 O 3592.79 2.25163 0.389098 0
M  V30 38148 C 3593 1.57408 -3.11486 0
M  V30 38149 C 3594.35 2.06507 -3.70999 0
M  V30 38150 O 3595.37 1.67296 -3.14469 0
M  V30 38151 O 3594.23 2.78588 -4.70161 0
M  V30 38152 H 3591.32 0.451772 -0.692699 0
M  V30 38153 H 3593.87 0.209744 -1.68399 0
M  V30 38154 H 3592.64 0.811547 -3.82792 0
M  V30 38155 H 3592.26 2.39644 -3.17264 0
M  V30 38156 N 3593.26 1.4995 0.485059 0
M  V30 38157 C 3594.19 1.70713 1.59309 0
M  V30 38158 C 3595.17 0.555924 1.60759 0
M  V30 38159 O 3596.36 0.793535 1.77247 0
M  V30 38160 C 3593.49 1.78839 2.97714 0
M  V30 38161 C 3592.44 2.93907 3.11131 0
M  V30 38162 C 3591.77 2.87162 4.51046 0
M  V30 38163 C 3593.07 4.34622 2.89657 0
M  V30 38164 H 3594.76 2.63483 1.42187 0
M  V30 38165 H 3592.31 1.26794 0.682598 0
M  V30 38166 H 3594.26 1.9195 3.75144 0
M  V30 38167 H 3592.98 0.8268 3.15961 0
M  V30 38168 H 3591.64 2.80425 2.3613 0
M  V30 38169 H 3591.29 1.88878 4.66191 0
M  V30 38170 H 3590.99 3.64402 4.60961 0
M  V30 38171 H 3592.52 3.02302 5.30515 0
M  V30 38172 H 3593.93 4.48703 3.56845 0
M  V30 38173 H 3592.33 5.13206 3.1103 0
M  V30 38174 H 3593.4 4.4796 1.85634 0
M  V30 38175 N 3594.74 -0.737255 1.39292 0
M  V30 38176 C 3595.99 -1.49899 1.36595 0
M  V30 38177 C 3596.32 -1.94161 -0.0388471 0
M  V30 38178 O 3595.59 -1.66624 -1.00334 0
M  V30 38179 C 3595.88 -2.74024 2.3363 0
M  V30 38180 C 3595.73 -2.35795 3.83041 0
M  V30 38181 C 3597.05 -3.76114 2.2853 0
M  V30 38182 H 3594.17 -0.543757 0.497491 0
M  V30 38183 H 3596.81 -0.843163 1.70267 0
M  V30 38184 H 3594.96 -3.29982 2.05046 0
M  V30 38185 H 3596.63 -1.85485 4.22366 0
M  V30 38186 H 3594.87 -1.68051 3.99927 0
M  V30 38187 H 3595.55 -3.24673 4.46421 0
M  V30 38188 H 3598.02 -3.29735 2.53799 0
M  V30 38189 H 3596.9 -4.60634 2.98509 0
M  V30 38190 H 3597.16 -4.22874 1.28957 0
M  V30 38191 N 3596.22 -1.24431 -0.967199 0
M  V30 38192 C 3597.47 -1.08216 -1.70686 0
M  V30 38193 C 3597.79 0.379659 -1.91268 0
M  V30 38194 O 3597.06 1.27091 -1.49079 0
M  V30 38195 H 3595.64 -0.397461 -0.632482 0
M  V30 38196 H 3598.3 -1.56358 -1.16354 0
M  V30 38197 H 3597.39 -1.5806 -2.69116 0
M  V30 38198 N 3597.7 1.16795 -1.05814 0
M  V30 38199 C 3598.94 1.87486 -0.773099 0
M  V30 38200 C 3599.27 1.81206 0.69844 0
M  V30 38201 O 3598.55 1.22437 1.51127 0
M  V30 38202 C 3598.83 3.37256 -1.26216 0
M  V30 38203 C 3598.69 3.52253 -2.7971 0
M  V30 38204 C 3600 4.31492 -0.86618 0
M  V30 38205 H 3597.12 0.680784 -0.282316 0
M  V30 38206 H 3599.77 1.37311 -1.31322 0
M  V30 38207 H 3597.92 3.80118 -0.802675 0
M  V30 38208 H 3599.59 3.18364 -3.3383 0
M  V30 38209 H 3597.83 2.94324 -3.18679 0
M  V30 38210 H 3598.5 4.57414 -3.08993 0
M  V30 38211 H 3600.98 3.96505 -1.26185 0
M  V30 38212 H 3599.85 5.34805 -1.23591 0
M  V30 38213 H 3600.11 4.41505 0.229313 0
M  V30 38214 N 3599.17 0.840037 1.33346 0
M  V30 38215 C 3600.42 0.432615 1.97006 0
M  V30 38216 C 3600.74 -1.01375 1.6728 0
M  V30 38217 O 3601.94 -1.52591 2.24563 0
M  V30 38218 C 3600.4 0.722642 3.5257 0
M  V30 38219 C 3600.01 2.18376 3.91172 0
M  V30 38220 C 3601.75 0.382228 4.22776 0
M  V30 38221 C 3599.66 2.41778 5.3972 0
M  V30 38222 H 3598.59 0.158037 0.737252 0
M  V30 38223 H 3601.24 1.02878 1.51948 0
M  V30 38224 H 3599.62 0.0560875 3.9596 0
M  V30 38225 H 3600.79 2.89089 3.58837 0
M  V30 38226 H 3599.11 2.48727 3.33952 0
M  V30 38227 H 3601.71 0.534682 5.3202 0
M  V30 38228 H 3602.05 -0.674895 4.10793 0
M  V30 38229 H 3602.58 1.00406 3.8492 0
M  V30 38230 H 3599.32 3.4606 5.56707 0
M  V30 38231 H 3598.84 1.75627 5.73511 0
M  V30 38232 H 3600.52 2.2499 6.0662 0
M  V30 38233 N 3600.65 -1.45872 0.596582 0
M  V30 38234 C 3601.88 -2.07197 0.091683 0
M  V30 38235 C 3602.3 -1.44015 -1.21002 0
M  V30 38236 O 3601.66 -0.528875 -1.73415 0
M  V30 38237 C 3601.71 -3.60571 -0.0460823 0
M  V30 38238 O 3600.81 -3.97483 -1.09912 0
M  V30 38239 H 3600.15 -0.660397 0.0690771 0
M  V30 38240 H 3602.68 -1.87297 0.823467 0
M  V30 38241 H 3602.69 -4.07247 -0.247828 0
M  V30 38242 H 3601.37 -4.05946 0.904452 0
M  V30 38243 H 3599.94 -3.62495 -0.874724 0
M  V30 38244 N 3602.13 -0.335122 -1.53996 0
M  V30 38245 C 3603.38 0.264918 -1.99953 0
M  V30 38246 C 3603.69 1.5233 -1.22699 0
M  V30 38247 O 3604.9 2.20006 -1.5909 0
M  V30 38248 C 3603.35 0.522604 -3.56085 0
M  V30 38249 C 3602.96 -0.719391 -4.42186 0
M  V30 38250 C 3604.71 1.08196 -4.1048 0
M  V30 38251 C 3602.61 -0.43297 -5.89813 0
M  V30 38252 H 3601.54 0.102769 -0.746964 0
M  V30 38253 H 3604.19 -0.449143 -1.77918 0
M  V30 38254 H 3602.58 1.29715 -3.74152 0
M  V30 38255 H 3603.75 -1.4944 -4.35895 0
M  V30 38256 H 3602.06 -1.19979 -3.98741 0
M  V30 38257 H 3604.66 1.31107 -5.18377 0
M  V30 38258 H 3605 2.03491 -3.63176 0
M  V30 38259 H 3605.54 0.368325 -3.96091 0
M  V30 38260 H 3602.28 -1.3554 -6.41334 0
M  V30 38261 H 3601.8 0.304108 -5.99029 0
M  V30 38262 H 3603.48 -0.0470794 -6.46983 0
M  V30 38263 N 3603.61 1.57472 -0.0635475 0
M  V30 38264 C 3604.57 2.11137 0.891844 0
M  V30 38265 C 3605.57 1.0336 1.2318 0
M  V30 38266 O 3606.76 1.29383 1.16644 0
M  V30 38267 C 3603.89 2.60588 2.19788 0
M  V30 38268 H 3605.09 2.96853 0.426408 0
M  V30 38269 H 3602.64 1.55201 0.185042 0
M  V30 38270 H 3603.37 1.78301 2.70886 0
M  V30 38271 H 3603.16 3.39359 1.96413 0
M  V30 38272 H 3604.65 3.02212 2.88198 0
M  V30 38273 N 3605.09 -0.209945 1.56195 0
M  V30 38274 C 3606.33 -0.932607 1.79746 0
M  V30 38275 C 3606.66 -1.83867 0.634284 0
M  V30 38276 O 3605.92 -1.9196 -0.380765 0
M  V30 38277 C 3606.21 -1.79322 3.09157 0
M  V30 38278 C 3605.88 -1.03941 4.38756 0
M  V30 38279 C 3604.54 -0.831224 4.73966 0
M  V30 38280 C 3606.89 -0.50794 5.18719 0
M  V30 38281 C 3604.22 -0.0798516 5.86646 0
M  V30 38282 C 3606.57 0.230148 6.32181 0
M  V30 38283 C 3605.24 0.449483 6.65985 0
M  V30 38284 H 3604.51 -0.341265 0.657738 0
M  V30 38285 H 3607.16 -0.199964 1.90453 0
M  V30 38286 H 3605.46 -2.59409 2.93623 0
M  V30 38287 H 3607.16 -2.35472 3.24583 0
M  V30 38288 H 3603.75 -1.21166 4.11116 0
M  V30 38289 H 3607.93 -0.65622 4.91943 0
M  V30 38290 H 3603.19 0.1002 6.11318 0
M  V30 38291 H 3607.36 0.649418 6.93365 0
M  V30 38292 H 3604.99 1.03362 7.5314 0
M  V30 38293 N 3606.56 -1.50205 -0.4771 0
M  V30 38294 C 3607.5 -1.64776 -1.59316 0
M  V30 38295 C 3608.51 -0.529454 -1.5395 0
M  V30 38296 O 3609.7 -0.802416 -1.59448 0
M  V30 38297 C 3606.8 -1.6106 -2.98182 0
M  V30 38298 C 3605.97 -2.88823 -3.28481 0
M  V30 38299 C 3605.03 -2.77833 -4.46873 0
M  V30 38300 O 3604.06 -3.51786 -4.47476 0
M  V30 38301 N 3605.26 -1.90983 -5.48184 0
M  V30 38302 H 3608.02 -2.6104 -1.47235 0
M  V30 38303 H 3605.58 -1.47594 -0.665414 0
M  V30 38304 H 3607.58 -1.51329 -3.75342 0
M  V30 38305 H 3606.15 -0.725562 -3.04063 0
M  V30 38306 H 3605.37 -3.12726 -2.39991 0
M  V30 38307 H 3606.65 -3.73476 -3.45533 0
M  V30 38308 H 3606.05 -1.30201 -5.50513 0
M  V30 38309 H 3604.61 -1.87159 -6.24351 0
M  V30 38310 N 3608.04 0.729857 -1.39681 0
M  V30 38311 C 3608.98 1.85289 -1.33204 0
M  V30 38312 C 3609.95 1.61305 -0.204815 0
M  V30 38313 O 3611.14 1.84503 -0.38612 0
M  V30 38314 C 3608.26 3.21367 -1.06961 0
M  V30 38315 C 3607.31 3.64203 -2.21943 0
M  V30 38316 S 3608.14 3.72972 -3.84255 0
M  V30 38317 C 3609.3 5.11832 -3.60248 0
M  V30 38318 H 3609.53 1.905 -2.28248 0
M  V30 38319 H 3607.07 0.89523 -1.25797 0
M  V30 38320 H 3609.02 3.99941 -0.925046 0
M  V30 38321 H 3607.68 3.13806 -0.135957 0
M  V30 38322 H 3606.88 4.62969 -1.99187 0
M  V30 38323 H 3606.48 2.92848 -2.32629 0
M  V30 38324 H 3608.77 5.98322 -3.17831 0
M  V30 38325 H 3609.71 5.39619 -4.58494 0
M  V30 38326 H 3610.12 4.81752 -2.94238 0
M  V30 38327 N 3609.52 1.24942 0.960587 0
M  V30 38328 C 3610.93 1.08533 1.51913 0
M  V30 38329 C 3611.28 -0.340915 1.93215 0
M  V30 38330 O 3610.41 -1.23017 1.78033 0
M  V30 38331 C 3611 1.96401 2.76066 0
M  V30 38332 C 3609.56 1.84195 3.28252 0
M  V30 38333 C 3608.71 1.90908 2.0112 0
M  V30 38334 H 3611.66 1.38315 0.778117 0
M  V30 38335 H 3611.68 1.50048 3.49665 0
M  V30 38336 H 3611.19 3.00198 2.45973 0
M  V30 38337 H 3609.29 0.832582 3.63179 0
M  V30 38338 H 3609.41 2.6868 3.96671 0
M  V30 38339 H 3607.77 1.34722 2.16153 0
M  V30 38340 H 3608.55 2.96299 1.73384 0
M  V30 38341 N 3611 -1.16233 1.06432 0
M  V30 38342 C 3612.23 -1.90695 0.802677 0
M  V30 38343 C 3612.64 -1.77509 -0.643113 0
M  V30 38344 O 3612 -1.12068 -1.44038 0
M  V30 38345 C 3612.05 -3.41355 1.1899 0
M  V30 38346 O 3611.77 -3.54149 2.57896 0
M  V30 38347 C 3613.27 -4.32864 0.956208 0
M  V30 38348 H 3610.49 -0.604663 0.290901 0
M  V30 38349 H 3613.04 -1.47323 1.41832 0
M  V30 38350 H 3611.19 -3.82426 0.61877 0
M  V30 38351 H 3611.6 -4.47584 2.73439 0
M  V30 38352 H 3613.08 -5.37031 1.27676 0
M  V30 38353 H 3613.56 -4.39067 -0.107984 0
M  V30 38354 H 3614.16 -3.97524 1.51179 0
M  V30 38355 N 3612.48 -0.847097 -1.32899 0
M  V30 38356 C 3613.73 -0.443057 -1.96774 0
M  V30 38357 C 3614.04 1.00487 -1.67815 0
M  V30 38358 O 3615.24 1.51398 -2.25369 0
M  V30 38359 C 3613.7 -0.74133 -3.52182 0
M  V30 38360 C 3613.31 -2.20448 -3.90009 0
M  V30 38361 C 3615.05 -0.404643 -4.22567 0
M  V30 38362 C 3612.96 -2.44637 -5.3843 0
M  V30 38363 H 3611.89 -0.161945 -0.736403 0
M  V30 38364 H 3614.54 -1.03683 -1.51401 0
M  V30 38365 H 3612.92 -0.0770854 -3.95925 0
M  V30 38366 H 3614.1 -2.90988 -3.57299 0
M  V30 38367 H 3612.41 -2.50494 -3.32628 0
M  V30 38368 H 3615.01 -0.562888 -5.31729 0
M  V30 38369 H 3615.35 0.6531 -4.11145 0
M  V30 38370 H 3615.88 -1.02446 -3.84382 0
M  V30 38371 H 3612.62 -3.49007 -5.54864 0
M  V30 38372 H 3612.14 -1.78666 -5.72572 0
M  V30 38373 H 3613.82 -2.28204 -6.05419 0
M  V30 38374 N 3613.95 1.45554 -0.604309 0
M  V30 38375 C 3614.92 2.28953 0.106486 0
M  V30 38376 C 3615.92 1.39587 0.798253 0
M  V30 38377 O 3617.11 1.61743 0.646914 0
M  V30 38378 C 3614.24 3.20526 1.16085 0
M  V30 38379 H 3615.43 2.93279 -0.626707 0
M  V30 38380 H 3612.99 1.52021 -0.363209 0
M  V30 38381 H 3613.72 2.60993 1.92492 0
M  V30 38382 H 3613.51 3.86349 0.669069 0
M  V30 38383 H 3615 3.83243 1.65876 0
M  V30 38384 N 3615.43 0.343284 1.53816 0
M  V30 38385 C 3616.38 -0.513625 2.25012 0
M  V30 38386 C 3617.35 -1.09576 1.24829 0
M  V30 38387 O 3618.53 -1.13243 1.5356 0
M  V30 38388 C 3615.67 -1.6588 3.02618 0
M  V30 38389 C 3614.79 -1.10399 4.17655 0
M  V30 38390 C 3613.92 -2.21645 4.8275 0
M  V30 38391 C 3612.96 -1.63514 5.89856 0
M  V30 38392 N 3612.1 -2.68501 6.48731 0
M  V30 38393 H 3616.94 0.100049 2.97832 0
M  V30 38394 H 3614.48 0.0611464 1.46973 0
M  V30 38395 H 3616.43 -2.33298 3.45873 0
M  V30 38396 H 3615.06 -2.24346 2.32096 0
M  V30 38397 H 3614.12 -0.320753 3.79045 0
M  V30 38398 H 3615.43 -0.6388 4.94693 0
M  V30 38399 H 3614.58 -2.96929 5.29073 0
M  V30 38400 H 3613.32 -2.71507 4.05136 0
M  V30 38401 H 3612.33 -0.867355 5.42915 0
M  V30 38402 H 3613.55 -1.14504 6.69377 0
M  V30 38403 H 3611.5 -3.17619 5.73981 0
M  V30 38404 H 3611.41 -2.26603 7.2124 0
M  V30 38405 H 3612.68 -3.43555 6.99707 0
M  V30 38406 N 3616.91 -1.57436 0.0718977 0
M  V30 38407 C 3618.19 -1.84896 -0.6382 0
M  V30 38408 C 3618.57 -0.964376 -1.87784 0
M  V30 38409 O 3617.92 -0.0306925 -2.28479 0
M  V30 38410 C 3618.13 -3.35082 -0.975758 0
M  V30 38411 C 3619.47 -4.02594 -1.3492 0
M  V30 38412 O 3620.5 -3.39828 -1.06748 0
M  V30 38413 O 3619.36 -5.13299 -1.8758 0
M  V30 38414 H 3616.45 -0.763838 -0.316987 0
M  V30 38415 H 3619 -1.69388 0.102837 0
M  V30 38416 H 3617.77 -3.91184 -0.095326 0
M  V30 38417 H 3617.39 -3.55852 -1.77355 0
M  V30 38418 N 3618.39 0.201658 -1.56305 0
M  V30 38419 C 3619.64 0.921238 -1.79882 0
M  V30 38420 C 3619.96 1.84064 -0.643841 0
M  V30 38421 O 3619.23 1.92958 0.338205 0
M  V30 38422 H 3617.81 0.343164 -0.663512 0
M  V30 38423 H 3620.47 0.208741 -1.93779 0
M  V30 38424 H 3619.57 1.51626 -2.72793 0
M  V30 38425 N 3619.87 1.50456 0.469128 0
M  V30 38426 C 3620.81 1.69992 1.58762 0
M  V30 38427 C 3621.81 0.565798 1.59672 0
M  V30 38428 O 3623.01 0.746349 1.63798 0
M  V30 38429 H 3619.39 0.536586 0.526858 0
M  V30 38430 H 3621.36 2.63813 1.39447 0
M  V30 38431 C 3620.11 1.81307 2.96687 0
M  V30 38432 H 3619.43 2.67966 2.96706 0
M  V30 38433 H 3620.87 1.99001 3.74399 0
M  V30 38434 C 3619.33 0.565144 3.32126 0
M  V30 38435 O 3619.86 -0.294803 4.00617 0
M  V30 38436 N 3618.07 0.418587 2.87569 0
M  V30 38437 H 3617.61 1.11942 2.32006 0
M  V30 38438 H 3617.57 -0.415221 3.11646 0
M  V30 38439 N 3621.34 -0.722439 1.40066 0
M  V30 38440 C 3622.59 -1.48442 1.38177 0
M  V30 38441 C 3622.92 -1.94191 -0.0182515 0
M  V30 38442 O 3622.2 -1.67678 -0.985608 0
M  V30 38443 C 3622.48 -2.71531 2.36523 0
M  V30 38444 C 3622.33 -2.31719 3.85521 0
M  V30 38445 C 3623.65 -3.73669 2.32506 0
M  V30 38446 H 3620.77 -0.538449 0.503231 0
M  V30 38447 H 3623.41 -0.825057 1.71151 0
M  V30 38448 H 3621.56 -3.27789 2.08534 0
M  V30 38449 H 3623.24 -1.80995 4.24309 0
M  V30 38450 H 3621.48 -1.638 4.01687 0
M  V30 38451 H 3622.15 -3.1992 4.49839 0
M  V30 38452 H 3624.63 -3.27024 2.57282 0
M  V30 38453 H 3623.5 -4.57442 3.03377 0
M  V30 38454 H 3623.76 -4.21483 1.33435 0
M  V30 38455 N 3622.82 -1.2545 -0.953947 0
M  V30 38456 C 3624.07 -1.10402 -1.70116 0
M  V30 38457 C 3624.4 0.354059 -1.90945 0
M  V30 38458 O 3623.68 1.26093 -1.4809 0
M  V30 38459 C 3623.96 -1.85961 -3.08368 0
M  V30 38460 C 3623.81 -3.396 -2.94944 0
M  V30 38461 C 3625.13 -1.64328 -4.0827 0
M  V30 38462 H 3622.25 -0.402449 -0.617417 0
M  V30 38463 H 3624.89 -1.5429 -1.10881 0
M  V30 38464 H 3623.04 -1.48658 -3.58933 0
M  V30 38465 H 3624.72 -3.86582 -2.51698 0
M  V30 38466 H 3622.96 -3.67277 -2.30847 0
M  V30 38467 H 3623.63 -3.87683 -3.92945 0
M  V30 38468 H 3626.11 -1.96803 -3.66617 0
M  V30 38469 H 3624.98 -2.19631 -5.03044 0
M  V30 38470 H 3625.24 -0.584762 -4.38216 0
M  V30 38471 N 3624.3 1.15667 -1.07047 0
M  V30 38472 C 3625.21 2.23933 -0.699371 0
M  V30 38473 C 3626.23 1.716 0.288006 0
M  V30 38474 O 3627.4 2.00944 0.135411 0
M  V30 38475 C 3624.47 3.46557 -0.0995384 0
M  V30 38476 C 3623.53 4.13894 -1.13976 0
M  V30 38477 C 3622.76 5.30664 -0.568453 0
M  V30 38478 O 3622.99 5.67059 0.616456 0
M  V30 38479 O 3621.92 5.8743 -1.31185 0
M  V30 38480 H 3625.75 2.58 -1.60217 0
M  V30 38481 H 3623.33 1.23329 -0.843223 0
M  V30 38482 H 3625.21 4.20756 0.232856 0
M  V30 38483 H 3623.89 3.14245 0.776628 0
M  V30 38484 H 3622.79 3.4163 -1.52446 0
M  V30 38485 H 3624.13 4.50278 -1.98772 0
M  V30 38486 N 3625.78 0.854133 1.32447 0
M  V30 38487 C 3627.19 0.511954 1.79544 0
M  V30 38488 C 3627.54 -0.970158 1.70536 0
M  V30 38489 O 3626.67 -1.75674 1.26363 0
M  V30 38490 C 3627.26 0.922513 3.25999 0
M  V30 38491 C 3625.82 0.632241 3.71052 0
M  V30 38492 C 3624.97 1.12254 2.53563 0
M  V30 38493 H 3627.92 1.04139 1.19753 0
M  V30 38494 H 3627.94 0.238685 3.79751 0
M  V30 38495 H 3627.45 2.00125 3.32523 0
M  V30 38496 H 3625.55 -0.435797 3.70043 0
M  V30 38497 H 3625.67 1.19817 4.63876 0
M  V30 38498 H 3624.03 0.542825 2.48848 0
M  V30 38499 H 3624.81 2.20837 2.62842 0
M  V30 38500 N 3627.26 -1.45231 0.61202 0
M  V30 38501 C 3628.53 -1.95558 0.0407344 0
M  V30 38502 C 3628.91 -1.55438 -1.42836 0
M  V30 38503 O 3628.26 -0.819093 -2.13315 0
M  V30 38504 C 3628.47 -3.4815 0.243498 0
M  V30 38505 C 3629.82 -4.24411 0.126626 0
M  V30 38506 O 3630.84 -3.55775 0.173852 0
M  V30 38507 O 3629.7 -5.46498 0.0154487 0
M  V30 38508 H 3626.8 -0.826333 -0.0332143 0
M  V30 38509 H 3629.34 -1.55375 0.682391 0
M  V30 38510 H 3628.12 -3.70335 1.26364 0
M  V30 38511 H 3627.74 -3.95233 -0.433211 0
M  V30 38512 N 3628.74 -0.351436 -1.53632 0
M  V30 38513 C 3629.67 0.544913 -2.21599 0
M  V30 38514 C 3630.65 1.09413 -1.20281 0
M  V30 38515 O 3631.83 1.15292 -1.49131 0
M  V30 38516 C 3628.96 1.75042 -2.89962 0
M  V30 38517 C 3628 1.32995 -4.05234 0
M  V30 38518 S 3628.84 0.34311 -5.344 0
M  V30 38519 C 3629.99 1.55527 -6.06269 0
M  V30 38520 H 3630.23 -0.032355 -2.97282 0
M  V30 38521 H 3627.76 -0.135517 -1.53804 0
M  V30 38522 H 3629.72 2.44198 -3.29966 0
M  V30 38523 H 3628.38 2.29892 -2.14029 0
M  V30 38524 H 3627.57 2.22899 -4.52031 0
M  V30 38525 H 3627.17 0.717776 -3.67048 0
M  V30 38526 H 3629.46 2.48854 -6.30141 0
M  V30 38527 H 3630.41 1.12895 -6.99042 0
M  V30 38528 H 3630.82 1.75491 -5.36529 0
M  V30 38529 N 3630.21 1.57396 -0.0802459 0
M  V30 38530 C 3631.44 1.98557 0.599145 0
M  V30 38531 C 3631.86 0.958583 1.61842 0
M  V30 38532 O 3631.22 -0.0747907 1.81146 0
M  V30 38533 C 3631.27 3.3873 1.23669 0
M  V30 38534 O 3630.37 3.38716 2.35256 0
M  V30 38535 H 3629.71 0.646048 0.153355 0
M  V30 38536 H 3632.24 2.03995 -0.157263 0
M  V30 38537 H 3632.25 3.761 1.58154 0
M  V30 38538 H 3630.93 4.13005 0.489874 0
M  V30 38539 H 3629.51 3.13125 2.02502 0
M  V30 38540 N 3631.69 -0.193366 1.56409 0
M  V30 38541 C 3632.65 -1.22331 1.93824 0
M  V30 38542 C 3633.65 -1.38348 0.819537 0
M  V30 38543 O 3634.84 -1.36131 1.08693 0
M  V30 38544 C 3631.98 -2.59237 2.2138 0
M  V30 38545 H 3633.17 -0.903451 2.85968 0
M  V30 38546 H 3630.72 -0.434954 1.50126 0
M  V30 38547 H 3631.46 -2.96274 1.31879 0
M  V30 38548 H 3631.24 -2.48982 3.02903 0
M  V30 38549 H 3632.73 -3.33505 2.51325 0
M  V30 38550 N 3633.17 -1.50702 -0.461142 0
M  V30 38551 C 3634.42 -1.61868 -1.21009 0
M  V30 38552 C 3634.74 -0.32577 -1.9226 0
M  V30 38553 O 3634.01 0.657273 -1.84545 0
M  V30 38554 H 3632.59 -0.596502 -0.449661 0
M  V30 38555 H 3635.25 -1.87526 -0.531023 0
M  V30 38556 H 3634.35 -2.43474 -1.95261 0
M  V30 38557 N 3634.65 0.715001 -1.40447 0
M  V30 38558 C 3635.89 1.47488 -1.38757 0
M  V30 38559 C 3636.22 1.94497 0.00991011 0
M  V30 38560 O 3635.48 1.68544 0.99455 0
M  V30 38561 C 3635.78 2.71526 -2.32397 0
M  V30 38562 C 3635.44 2.43279 -3.7964 0
M  V30 38563 C 3634.1 2.35285 -4.19755 0
M  V30 38564 C 3636.46 2.19588 -4.72684 0
M  V30 38565 C 3633.78 2.01669 -5.5095 0
M  V30 38566 C 3636.14 1.87485 -6.04179 0
M  V30 38567 C 3634.8 1.77973 -6.43336 0
M  V30 38568 H 3634.07 0.539698 -0.507748 0
M  V30 38569 H 3636.72 0.81895 -1.73105 0
M  V30 38570 H 3635.02 3.4196 -1.91235 0
M  V30 38571 H 3636.72 3.29617 -2.28372 0
M  V30 38572 H 3633.31 2.50387 -3.47857 0
M  V30 38573 H 3637.49 2.24719 -4.4251 0
M  V30 38574 H 3632.75 1.92843 -5.80191 0
M  V30 38575 H 3636.92 1.68167 -6.7579 0
M  V30 38576 H 3634.55 1.51693 -7.44912 0
M  V30 38577 N 3636.13 1.25954 0.947281 0
M  V30 38578 C 3637.37 1.12351 1.70753 0
M  V30 38579 C 3637.73 -0.328688 1.89166 0
M  V30 38580 O 3638.93 -0.586703 2.62319 0
M  V30 38581 C 3637.2 1.86492 3.04886 0
M  V30 38582 S 3638.76 1.8887 3.96073 0
M  V30 38583 H 3635.58 0.401438 0.586829 0
M  V30 38584 H 3638.18 1.59585 1.12929 0
M  V30 38585 H 3636.88 2.91229 2.89161 0
M  V30 38586 H 3636.42 1.39674 3.6777 0
M  V30 38587 H 3638.43 0.971014 4.86606 0
M  V30 38588 N 3637.6 -1.15097 1.07659 0
M  V30 38589 C 3639.02 -1.67539 0.823858 0
M  V30 38590 C 3639.37 -1.851 -0.650569 0
M  V30 38591 O 3638.49 -1.55659 -1.5033 0
M  V30 38592 C 3639.09 -3.04328 1.48895 0
M  V30 38593 C 3637.65 -3.53835 1.28365 0
M  V30 38594 C 3636.79 -2.29487 1.55663 0
M  V30 38595 H 3639.74 -0.992677 1.23821 0
M  V30 38596 H 3639.76 -3.69411 0.911913 0
M  V30 38597 H 3639.28 -2.91515 2.56204 0
M  V30 38598 H 3637.38 -3.71884 0.230929 0
M  V30 38599 H 3637.49 -4.35082 2.00601 0
M  V30 38600 H 3635.85 -2.35183 0.977796 0
M  V30 38601 H 3636.64 -2.19258 2.6416 0
M  V30 38602 N 3639.08 -0.861145 -1.31993 0
M  V30 38603 C 3640.36 -0.388739 -1.91698 0
M  V30 38604 C 3640.74 1.12835 -1.78414 0
M  V30 38605 O 3640.09 1.95293 -1.18629 0
M  V30 38606 C 3640.3 -0.860307 -3.3823 0
M  V30 38607 C 3641.65 -0.881274 -4.15354 0
M  V30 38608 O 3642.67 -0.805374 -3.46976 0
M  V30 38609 O 3641.53 -0.989545 -5.37467 0
M  V30 38610 H 3638.62 -0.114644 -0.819015 0
M  V30 38611 H 3641.17 -0.948475 -1.4072 0
M  V30 38612 H 3639.94 -1.90366 -3.41872 0
M  V30 38613 H 3639.56 -0.278385 -3.96624 0
M  V30 38614 N 3640.56 1.44905 -0.619713 0
M  V30 38615 C 3641.51 2.27717 0.113656 0
M  V30 38616 C 3642.49 1.38016 0.827065 0
M  V30 38617 O 3643.69 1.61913 0.715055 0
M  V30 38618 C 3640.82 3.25123 1.10227 0
M  V30 38619 C 3639.9 4.22312 0.389072 0
M  V30 38620 N 3640.29 5.02509 -0.576018 0
M  V30 38621 C 3638.59 4.41456 0.635034 0
M  V30 38622 C 3639.29 5.73104 -0.996344 0
M  V30 38623 N 3638.27 5.42551 -0.337522 0
M  V30 38624 H 3642.07 2.87125 -0.627402 0
M  V30 38625 H 3639.58 1.56204 -0.444321 0
M  V30 38626 H 3641.58 3.83195 1.64217 0
M  V30 38627 H 3640.24 2.67275 1.84375 0
M  V30 38628 H 3641.25 5.0905 -0.953321 0
M  V30 38629 H 3637.93 3.94719 1.36026 0
M  V30 38630 H 3639.32 6.47534 -1.79301 0
M  V30 38631 N 3642.04 0.359579 1.53443 0
M  V30 38632 C 3642.99 -0.48973 2.25544 0
M  V30 38633 C 3643.96 -1.08246 1.25984 0
M  V30 38634 O 3645.14 -1.11608 1.54753 0
M  V30 38635 C 3642.28 -1.62661 3.04361 0
M  V30 38636 C 3641.39 -1.05963 4.18803 0
M  V30 38637 C 3640.53 -2.16512 4.85073 0
M  V30 38638 C 3639.57 -1.57249 5.91557 0
M  V30 38639 N 3638.7 -2.61605 6.51542 0
M  V30 38640 H 3643.54 0.131633 2.97709 0
M  V30 38641 H 3641.08 0.0767314 1.469 0
M  V30 38642 H 3643.04 -2.29617 3.48328 0
M  V30 38643 H 3641.67 -2.21872 2.34463 0
M  V30 38644 H 3640.72 -0.280532 3.79364 0
M  V30 38645 H 3642.03 -0.586296 4.95342 0
M  V30 38646 H 3641.19 -2.91301 5.32193 0
M  V30 38647 H 3639.93 -2.67195 4.07993 0
M  V30 38648 H 3638.93 -0.809723 5.43805 0
M  V30 38649 H 3640.16 -1.07397 6.70554 0
M  V30 38650 H 3638.1 -3.11513 5.77318 0
M  V30 38651 H 3638.02 -2.18941 7.23603 0
M  V30 38652 H 3639.29 -3.36114 7.03312 0
M  V30 38653 N 3643.52 -1.57351 0.0885919 0
M  V30 38654 C 3644.48 -2.12529 -0.858141 0
M  V30 38655 C 3645.48 -1.05307 -1.2152 0
M  V30 38656 O 3646.67 -1.31222 -1.14571 0
M  V30 38657 C 3643.8 -2.64052 -2.15614 0
M  V30 38658 H 3644.99 -2.97494 -0.379128 0
M  V30 38659 H 3642.55 -1.55476 -0.160327 0
M  V30 38660 H 3643.28 -1.82588 -2.68015 0
M  V30 38661 H 3643.07 -3.42441 -1.90989 0
M  V30 38662 H 3644.56 -3.06758 -2.83353 0
M  V30 38663 N 3644.99 0.185069 -1.5651 0
M  V30 38664 C 3645.96 1.21301 -1.9447 0
M  V30 38665 C 3646.96 1.37912 -0.826862 0
M  V30 38666 O 3648.15 1.35552 -1.09413 0
M  V30 38667 C 3645.28 2.58059 -2.22751 0
M  V30 38668 H 3646.47 0.888273 -2.86443 0
M  V30 38669 H 3644.03 0.426986 -1.50355 0
M  V30 38670 H 3644.76 2.95571 -1.33448 0
M  V30 38671 H 3644.55 2.47372 -3.04219 0
M  V30 38672 H 3646.04 3.32168 -2.5309 0
M  V30 38673 N 3646.47 1.50945 0.453144 0
M  V30 38674 C 3647.41 1.65777 1.56822 0
M  V30 38675 C 3648.38 0.505542 1.54541 0
M  V30 38676 O 3649.57 0.727367 1.73901 0
M  V30 38677 C 3646.69 1.65686 2.95408 0
M  V30 38678 C 3645.74 2.86686 3.15775 0
M  V30 38679 S 3646.57 4.47736 2.93755 0
M  V30 38680 C 3647.73 4.50365 4.34651 0
M  V30 38681 H 3647.96 2.60097 1.44004 0
M  V30 38682 H 3645.5 1.40431 0.641746 0
M  V30 38683 H 3647.45 1.66317 3.75298 0
M  V30 38684 H 3646.11 0.725713 3.05601 0
M  V30 38685 H 3645.31 2.82977 4.17061 0
M  V30 38686 H 3644.91 2.83714 2.43685 0
M  V30 38687 H 3647.2 4.25033 5.27592 0
M  V30 38688 H 3648.14 5.5209 4.43398 0
M  V30 38689 H 3648.55 3.79864 4.17568 0
M  V30 38690 N 3647.95 -0.707543 1.40825 0
M  V30 38691 C 3649.2 -1.46968 1.39744 0
M  V30 38692 C 3649.53 -1.942 0.00234607 0
M  V30 38693 O 3648.8 -1.68714 -0.967768 0
M  V30 38694 C 3649.09 -2.69007 2.3939 0
M  V30 38695 C 3648.94 -2.27617 3.87957 0
M  V30 38696 C 3650.26 -3.71182 2.36457 0
M  V30 38697 H 3647.38 -0.533082 0.508913 0
M  V30 38698 H 3650.02 -0.806857 1.72017 0
M  V30 38699 H 3648.17 -3.25559 2.11999 0
M  V30 38700 H 3649.84 -1.76485 4.26205 0
M  V30 38701 H 3648.09 -1.5953 4.03401 0
M  V30 38702 H 3648.76 -3.15131 4.53207 0
M  V30 38703 H 3651.23 -3.24277 2.60736 0
M  V30 38704 H 3650.11 -4.54199 3.08212 0
M  V30 38705 H 3650.37 -4.20044 1.37898 0
M  V30 38706 N 3649.43 -1.26454 -0.940588 0
M  V30 38707 C 3650.36 -1.10563 -2.05665 0
M  V30 38708 C 3651.34 -0.0106557 -1.70097 0
M  V30 38709 O 3652.52 -0.18279 -1.93338 0
M  V30 38710 C 3649.65 -0.738459 -3.39358 0
M  V30 38711 C 3648.61 -1.78524 -3.8899 0
M  V30 38712 C 3647.93 -1.27237 -5.19341 0
M  V30 38713 C 3649.23 -3.18687 -4.13806 0
M  V30 38714 H 3650.93 -2.03921 -2.19218 0
M  V30 38715 H 3648.47 -0.981838 -1.05337 0
M  V30 38716 H 3650.43 -0.614163 -4.169 0
M  V30 38717 H 3649.15 0.23083 -3.25783 0
M  V30 38718 H 3647.81 -1.89821 -3.13629 0
M  V30 38719 H 3647.46 -0.292904 -5.02146 0
M  V30 38720 H 3647.16 -1.97211 -5.53517 0
M  V30 38721 H 3648.68 -1.16075 -5.99465 0
M  V30 38722 H 3650.1 -3.10463 -4.8196 0
M  V30 38723 H 3648.49 -3.86257 -4.59266 0
M  V30 38724 H 3649.56 -3.647 -3.19565 0
M  V30 38725 N 3650.91 1.14525 -1.08268 0
M  V30 38726 C 3652.15 1.85529 -0.811492 0
M  V30 38727 C 3652.48 1.82862 0.662694 0
M  V30 38728 O 3651.74 1.25341 1.50293 0
M  V30 38729 C 3652.04 3.33815 -1.27681 0
M  V30 38730 C 3651.7 3.56671 -2.75856 0
M  V30 38731 C 3650.36 3.62618 -3.16325 0
M  V30 38732 C 3652.72 3.65613 -3.71452 0
M  V30 38733 C 3650.04 3.75027 -4.51189 0
M  V30 38734 C 3652.4 3.79547 -5.0609 0
M  V30 38735 C 3651.06 3.83742 -5.46167 0
M  V30 38736 H 3650.33 0.678899 -0.296946 0
M  V30 38737 H 3652.98 1.35286 -1.35536 0
M  V30 38738 H 3651.28 3.86328 -0.652508 0
M  V30 38739 H 3652.98 3.87178 -1.04376 0
M  V30 38740 H 3649.57 3.5269 -2.43532 0
M  V30 38741 H 3653.75 3.6031 -3.41307 0
M  V30 38742 H 3649.01 3.76536 -4.81695 0
M  V30 38743 H 3653.18 3.85408 -5.80029 0
M  V30 38744 H 3650.81 3.9311 -6.50668 0
M  V30 38745 N 3652.39 0.868133 1.31534 0
M  V30 38746 C 3653.32 0.338261 2.31037 0
M  V30 38747 C 3654.3 -0.569863 1.6027 0
M  V30 38748 O 3655.48 -0.487272 1.87987 0
M  V30 38749 C 3652.61 -0.462693 3.44204 0
M  V30 38750 C 3651.57 0.352175 4.26549 0
M  V30 38751 C 3650.89 -0.57435 5.31606 0
M  V30 38752 C 3652.19 1.58525 4.97662 0
M  V30 38753 H 3653.89 1.16971 2.75605 0
M  V30 38754 H 3651.43 0.563914 1.32499 0
M  V30 38755 H 3653.38 -0.843894 4.12864 0
M  V30 38756 H 3652.11 -1.32764 2.98398 0
M  V30 38757 H 3650.77 0.7153 3.59554 0
M  V30 38758 H 3650.42 -1.43652 4.82051 0
M  V30 38759 H 3650.12 -0.0330403 5.87591 0
M  V30 38760 H 3651.64 -0.952435 6.03126 0
M  V30 38761 H 3653.05 1.27559 5.58929 0
M  V30 38762 H 3651.45 2.06549 5.63434 0
M  V30 38763 H 3652.52 2.33909 4.24752 0
M  V30 38764 N 3653.86 -1.44574 0.627389 0
M  V30 38765 C 3655.14 -1.95503 0.0614736 0
M  V30 38766 C 3655.52 -1.56944 -1.41179 0
M  V30 38767 O 3654.87 -0.841671 -2.12434 0
M  V30 38768 C 3655.08 -3.47872 0.28041 0
M  V30 38769 C 3656.43 -4.24253 0.171633 0
M  V30 38770 O 3657.45 -3.55571 0.211577 0
M  V30 38771 O 3656.31 -5.46451 0.0734112 0
M  V30 38772 H 3653.4 -0.826639 -0.024448 0
M  V30 38773 H 3655.95 -1.54643 0.698832 0
M  V30 38774 H 3654.72 -3.68974 1.30284 0
M  V30 38775 H 3654.34 -3.9567 -0.391267 0
M  V30 38776 N 3655.34 -0.367711 -1.5325 0
M  V30 38777 C 3656.76 -0.0167413 -1.59591 0
M  V30 38778 C 3656.96 1.46569 -1.38274 0
M  V30 38779 O 3656.01 2.22755 -1.18897 0
M  V30 38780 C 3657.33 -0.474586 -2.96931 0
M  V30 38781 C 3658.87 -0.428988 -3.10046 0
M  V30 38782 C 3659.35 -0.862679 -4.49802 0
M  V30 38783 N 3660.84 -0.817823 -4.55923 0
M  V30 38784 C 3661.58 -1.12506 -5.62254 0
M  V30 38785 N 3661.07 -1.50168 -6.76329 0
M  V30 38786 N 3662.86 -1.04772 -5.52249 0
M  V30 38787 H 3655.02 -1.33306 -1.65358 0
M  V30 38788 H 3657.28 -0.545011 -0.775672 0
M  V30 38789 H 3656.98 -1.50912 -3.17676 0
M  V30 38790 H 3656.86 0.137686 -3.76949 0
M  V30 38791 H 3659.25 0.596422 -2.8901 0
M  V30 38792 H 3659.33 -1.07678 -2.32032 0
M  V30 38793 H 3658.97 -1.88621 -4.71576 0
M  V30 38794 H 3658.9 -0.192112 -5.26249 0
M  V30 38795 H 3661.39 -0.540389 -3.74016 0
M  V30 38796 H 3661.7 -1.72032 -7.53409 0
M  V30 38797 H 3660.05 -1.54036 -6.77715 0
M  V30 38798 H 3663.24 -0.752652 -4.62009 0
M  V30 38799 H 3663.41 -1.29049 -6.3502 0
M  V30 38800 N 3656.82 1.57302 -0.0969353 0
M  V30 38801 C 3658.07 1.94707 0.567178 0
M  V30 38802 C 3658.4 0.978967 1.6772 0
M  V30 38803 O 3657.67 0.0123358 1.94496 0
M  V30 38804 C 3657.96 3.42219 1.12063 0
M  V30 38805 C 3657.81 4.49797 0.0155359 0
M  V30 38806 C 3659.13 3.91085 2.01843 0
M  V30 38807 H 3656.25 0.708001 0.204704 0
M  V30 38808 H 3658.89 1.89256 -0.168018 0
M  V30 38809 H 3657.04 3.46996 1.74717 0
M  V30 38810 H 3658.71 4.57131 -0.61879 0
M  V30 38811 H 3656.95 4.28893 -0.650605 0
M  V30 38812 H 3657.63 5.50214 0.443627 0
M  V30 38813 H 3660.1 3.88473 1.49092 0
M  V30 38814 H 3658.98 4.94862 2.37493 0
M  V30 38815 H 3659.24 3.30485 2.93653 0
M  V30 38816 N 3658.3 -0.176766 1.56606 0
M  V30 38817 C 3659.53 -0.908667 1.85545 0
M  V30 38818 C 3659.94 -1.76574 0.679585 0
M  V30 38819 O 3659.28 -1.80125 -0.360636 0
M  V30 38820 C 3659.34 -1.84029 3.08826 0
M  V30 38821 C 3659 -1.16336 4.41944 0
M  V30 38822 C 3660 -0.531435 5.17177 0
M  V30 38823 C 3657.69 -1.16174 4.88681 0
M  V30 38824 C 3659.68 0.0930721 6.37332 0
M  V30 38825 C 3657.37 -0.533407 6.08768 0
M  V30 38826 C 3658.37 0.0929012 6.82937 0
M  V30 38827 O 3658.05 0.711343 8.00747 0
M  V30 38828 H 3657.79 -0.269706 0.619866 0
M  V30 38829 H 3660.34 -0.183378 2.0458 0
M  V30 38830 H 3658.57 -2.60575 2.85723 0
M  V30 38831 H 3660.26 -2.44155 3.24258 0
M  V30 38832 H 3661.02 -0.5247 4.82153 0
M  V30 38833 H 3656.9 -1.63863 4.30894 0
M  V30 38834 H 3660.45 0.582531 6.95164 0
M  V30 38835 H 3656.34 -0.537708 6.43257 0
M  V30 38836 H 3657.11 0.610054 8.16223 0
M  V30 38837 N 3659.78 -1.51183 -0.445132 0
M  V30 38838 C 3661.02 -1.63143 -1.19285 0
M  V30 38839 C 3661.34 -0.346143 -1.91903 0
M  V30 38840 O 3660.61 0.637663 -1.85231 0
M  V30 38841 H 3659.19 -0.601237 -0.443309 0
M  V30 38842 H 3661.86 -1.88079 -0.511103 0
M  V30 38843 H 3660.95 -2.45531 -1.92668 0
M  V30 38844 N 3661.25 0.700065 -1.41198 0
M  V30 38845 C 3662.5 1.45571 -1.39614 0
M  V30 38846 C 3662.82 1.95599 -0.00686817 0
M  V30 38847 O 3664.02 2.71181 0.131595 0
M  V30 38848 C 3662.48 2.63209 -2.45456 0
M  V30 38849 C 3662.09 2.19987 -3.90269 0
M  V30 38850 C 3663.83 3.40867 -2.53002 0
M  V30 38851 C 3661.74 3.34556 -4.87674 0
M  V30 38852 H 3660.67 0.54678 -0.51918 0
M  V30 38853 H 3663.32 0.760427 -1.67002 0
M  V30 38854 H 3661.7 3.34984 -2.11192 0
M  V30 38855 H 3662.87 1.55531 -4.33759 0
M  V30 38856 H 3661.19 1.55334 -3.86342 0
M  V30 38857 H 3663.79 4.26147 -3.22959 0
M  V30 38858 H 3664.13 3.85746 -1.56543 0
M  V30 38859 H 3664.66 2.76146 -2.86336 0
M  V30 38860 H 3661.4 2.94694 -5.85522 0
M  V30 38861 H 3660.92 3.97877 -4.48837 0
M  V30 38862 H 3662.6 4.004 -5.08222 0
M  V30 38863 N 3662.73 1.26951 0.933869 0
M  V30 38864 C 3663.64 1.1094 2.06711 0
M  V30 38865 C 3664.66 0.0410039 1.73952 0
M  V30 38866 O 3665.83 0.246234 1.99889 0
M  V30 38867 C 3662.9 0.751755 3.38452 0
M  V30 38868 C 3661.96 1.90036 3.84948 0
M  V30 38869 C 3661.19 1.55968 5.10401 0
M  V30 38870 O 3661.42 0.464746 5.68504 0
M  V30 38871 O 3660.35 2.39684 5.52119 0
M  V30 38872 H 3664.18 2.06027 2.23129 0
M  V30 38873 H 3661.76 1.06081 1.052 0
M  V30 38874 H 3663.64 0.565358 4.1759 0
M  V30 38875 H 3662.32 -0.169646 3.23255 0
M  V30 38876 H 3661.22 2.14177 3.06723 0
M  V30 38877 H 3662.56 2.80174 4.04677 0
M  V30 38878 N 3664.21 -1.13949 1.08873 0
M  V30 38879 C 3665.46 -1.8537 0.822536 0
M  V30 38880 C 3665.79 -1.82994 -0.650151 0
M  V30 38881 O 3665.06 -1.26401 -1.47828 0
M  V30 38882 C 3665.35 -3.33791 1.35113 0
M  V30 38883 C 3665.2 -3.44714 2.88951 0
M  V30 38884 C 3666.52 -4.29044 0.980278 0
M  V30 38885 H 3663.64 -0.673059 0.300266 0
M  V30 38886 H 3666.28 -1.33781 1.34917 0
M  V30 38887 H 3664.43 -3.77856 0.903174 0
M  V30 38888 H 3666.1 -3.09401 3.42153 0
M  V30 38889 H 3664.34 -2.85771 3.2637 0
M  V30 38890 H 3665.02 -4.49061 3.21012 0
M  V30 38891 H 3667.49 -3.93021 1.36653 0
M  V30 38892 H 3666.37 -5.3134 1.37727 0
M  V30 38893 H 3666.63 -4.41958 -0.112175 0
M  V30 38894 N 3665.69 -0.875096 -1.31072 0
M  V30 38895 C 3666.62 -0.291849 -2.27334 0
M  V30 38896 C 3667.63 0.548009 -1.53299 0
M  V30 38897 O 3668.82 0.369167 -1.74641 0
M  V30 38898 C 3665.92 0.604463 -3.33466 0
M  V30 38899 C 3665.09 -0.204106 -4.36924 0
M  V30 38900 C 3664.15 0.621146 -5.22521 0
M  V30 38901 O 3663.18 0.0473551 -5.6918 0
M  V30 38902 N 3664.38 1.93217 -5.47401 0
M  V30 38903 H 3667.15 -1.1191 -2.78022 0
M  V30 38904 H 3664.71 -0.737089 -1.44148 0
M  V30 38905 H 3666.7 1.16237 -3.87648 0
M  V30 38906 H 3665.27 1.33239 -2.82783 0
M  V30 38907 H 3664.49 -0.943456 -3.82743 0
M  V30 38908 H 3665.78 -0.758733 -5.03111 0
M  V30 38909 H 3665.18 2.42141 -5.11258 0
M  V30 38910 H 3663.73 2.43774 -6.04498 0
M  V30 38911 N 3667.17 1.44239 -0.635047 0
M  V30 38912 C 3668.44 1.95468 -0.0718407 0
M  V30 38913 C 3668.82 1.57691 1.40345 0
M  V30 38914 O 3668.17 0.852926 2.11985 0
M  V30 38915 C 3668.38 3.47718 -0.298854 0
M  V30 38916 C 3669.73 4.24156 -0.19413 0
M  V30 38917 O 3670.75 3.55454 -0.230431 0
M  V30 38918 O 3669.61 5.46404 -0.10239 0
M  V30 38919 H 3666.71 0.826757 0.0200638 0
M  V30 38920 H 3669.25 1.5427 -0.707024 0
M  V30 38921 H 3668.02 3.68278 -1.32239 0
M  V30 38922 H 3667.65 3.95872 0.370278 0
M  V30 38923 N 3668.64 0.375833 1.53053 0
M  V30 38924 C 3669.89 -0.210638 2.01402 0
M  V30 38925 C 3670.22 -1.47933 1.26278 0
M  V30 38926 O 3669.47 -1.92587 0.347644 0
M  V30 38927 C 3669.77 -0.538357 3.53322 0
M  V30 38928 C 3669.44 0.637204 4.46375 0
M  V30 38929 C 3668.1 0.959736 4.71532 0
M  V30 38930 C 3670.45 1.42429 5.01361 0
M  V30 38931 C 3667.78 2.07115 5.48927 0
M  V30 38932 C 3670.13 2.5262 5.7997 0
M  V30 38933 C 3668.8 2.85397 6.03411 0
M  V30 38934 H 3668.07 -0.0770777 0.73698 0
M  V30 38935 H 3670.71 0.510409 1.84573 0
M  V30 38936 H 3669.02 -1.34055 3.68153 0
M  V30 38937 H 3670.72 -1.00455 3.88214 0
M  V30 38938 H 3667.31 0.375797 4.26949 0
M  V30 38939 H 3671.49 1.18836 4.81863 0
M  V30 38940 H 3666.75 2.32896 5.65305 0
M  V30 38941 H 3670.92 3.14019 6.21583 0
M  V30 38942 H 3668.55 3.71638 6.63166 0
M  V30 38943 N 3670.12 -1.57248 0.105276 0
M  V30 38944 C 3671.05 -2.17601 -0.846877 0
M  V30 38945 C 3672.03 -1.11218 -1.28704 0
M  V30 38946 O 3673.22 -1.39398 -1.3521 0
M  V30 38947 C 3670.35 -2.76448 -2.10223 0
M  V30 38948 C 3669.3 -3.88293 -1.80034 0
M  V30 38949 C 3668.63 -4.33888 -3.12483 0
M  V30 38950 C 3669.93 -5.11026 -1.07934 0
M  V30 38951 H 3671.62 -2.97417 -0.344 0
M  V30 38952 H 3669.17 -1.43063 -0.16402 0
M  V30 38953 H 3671.12 -3.17324 -2.77278 0
M  V30 38954 H 3669.85 -1.93901 -2.62811 0
M  V30 38955 H 3668.5 -3.47972 -1.15373 0
M  V30 38956 H 3668.15 -3.48218 -3.62979 0
M  V30 38957 H 3667.85 -5.09301 -2.93063 0
M  V30 38958 H 3669.38 -4.77404 -3.8068 0
M  V30 38959 H 3670.79 -5.49007 -1.65118 0
M  V30 38960 H 3669.19 -5.91935 -0.98657 0
M  V30 38961 H 3670.26 -4.84858 -0.0637659 0
M  V30 38962 N 3671.6 0.168458 -1.56697 0
M  V30 38963 C 3672.53 1.21069 -1.99661 0
M  V30 38964 C 3673.51 1.4601 -0.872651 0
M  V30 38965 O 3674.7 1.57295 -1.13894 0
M  V30 38966 C 3671.83 2.54895 -2.35894 0
M  V30 38967 C 3670.78 2.44518 -3.51276 0
M  V30 38968 C 3670.11 3.8286 -3.73259 0
M  V30 38969 C 3671.41 1.94747 -4.84635 0
M  V30 38970 H 3673.1 0.853542 -2.86976 0
M  V30 38971 H 3670.65 0.409141 -1.38065 0
M  V30 38972 H 3672.6 3.28013 -2.64548 0
M  V30 38973 H 3671.32 2.92404 -1.45491 0
M  V30 38974 H 3669.98 1.73854 -3.22754 0
M  V30 38975 H 3669.63 4.17767 -2.80143 0
M  V30 38976 H 3669.33 3.76784 -4.50896 0
M  V30 38977 H 3670.85 4.57559 -4.04317 0
M  V30 38978 H 3672.27 2.57641 -5.12146 0
M  V30 38979 H 3670.67 1.99613 -5.65928 0
M  V30 38980 H 3671.74 0.901937 -4.76438 0
M  V30 38981 N 3673.08 1.51417 0.437109 0
M  V30 38982 C 3674.03 1.69132 1.529 0
M  V30 38983 C 3675.01 0.545306 1.51378 0
M  V30 38984 O 3676.2 0.801227 1.57827 0
M  V30 38985 C 3673.33 1.81995 2.91089 0
M  V30 38986 C 3672.42 3.02381 2.97366 0
M  V30 38987 N 3672.81 4.2555 2.73388 0
M  V30 38988 C 3671.11 3.0164 3.28526 0
M  V30 38989 C 3671.81 5.0681 2.85514 0
M  V30 38990 N 3670.79 4.41463 3.17193 0
M  V30 38991 H 3674.59 2.62027 1.33113 0
M  V30 38992 H 3672.1 1.49067 0.644418 0
M  V30 38993 H 3674.1 1.92796 3.69642 0
M  V30 38994 H 3672.76 0.902812 3.11896 0
M  V30 38995 H 3673.77 4.54491 2.48312 0
M  V30 38996 H 3670.45 2.19558 3.55106 0
M  V30 38997 H 3671.84 6.14856 2.70927 0
M  V30 38998 N 3674.56 -0.692567 1.41567 0
M  V30 38999 C 3675.49 -1.81884 1.46426 0
M  V30 39000 C 3676.47 -1.67013 0.32261 0
M  V30 39001 O 3677.65 -1.867 0.53447 0
M  V30 39002 C 3674.78 -3.20045 1.34866 0
M  V30 39003 C 3673.74 -3.49625 2.46873 0
M  V30 39004 C 3673.06 -4.87173 2.20378 0
M  V30 39005 C 3674.36 -3.48299 3.89211 0
M  V30 39006 H 3676.06 -1.78075 2.40686 0
M  V30 39007 H 3673.6 -0.855313 1.15846 0
M  V30 39008 H 3675.56 -3.98551 1.36876 0
M  V30 39009 H 3674.28 -3.24487 0.370917 0
M  V30 39010 H 3672.94 -2.73471 2.4415 0
M  V30 39011 H 3672.59 -4.88245 1.20939 0
M  V30 39012 H 3672.29 -5.07929 2.95435 0
M  V30 39013 H 3673.81 -5.67986 2.24109 0
M  V30 39014 H 3675.22 -4.16804 3.93633 0
M  V30 39015 H 3673.62 -3.80587 4.63976 0
M  V30 39016 H 3674.69 -2.47214 4.17149 0
M  V30 39017 N 3676.03 -1.27445 -0.927123 0
M  V30 39018 C 3676.96 -1.12738 -2.04481 0
M  V30 39019 C 3677.95 -0.0286961 -1.70076 0
M  V30 39020 O 3679.13 -0.203286 -1.93133 0
M  V30 39021 C 3676.26 -0.774411 -3.38556 0
M  V30 39022 C 3675.21 -1.82639 -3.87075 0
M  V30 39023 C 3674.54 -1.32738 -5.17962 0
M  V30 39024 C 3675.84 -3.23058 -4.10403 0
M  V30 39025 H 3677.53 -2.06235 -2.17043 0
M  V30 39026 H 3675.08 -0.992956 -1.0429 0
M  V30 39027 H 3677.03 -0.658346 -4.16226 0
M  V30 39028 H 3675.76 0.196263 -3.2601 0
M  V30 39029 H 3674.42 -1.93137 -3.11598 0
M  V30 39030 H 3674.06 -0.346147 -5.01808 0
M  V30 39031 H 3673.76 -2.03071 -5.51395 0
M  V30 39032 H 3675.29 -1.22427 -5.98201 0
M  V30 39033 H 3676.7 -3.15558 -4.7864 0
M  V30 39034 H 3675.1 -3.91107 -4.55143 0
M  V30 39035 H 3676.17 -3.68069 -3.15679 0
M  V30 39036 N 3677.51 1.1337 -1.09476 0
M  V30 39037 C 3678.42 2.22399 -0.746713 0
M  V30 39038 C 3679.44 1.72172 0.251542 0
M  V30 39039 O 3680.61 2.01186 0.0927577 0
M  V30 39040 C 3677.68 3.46268 -0.173026 0
M  V30 39041 C 3676.74 4.11383 -1.22729 0
M  V30 39042 C 3675.97 5.29339 -0.680887 0
M  V30 39043 O 3676.2 5.68239 0.496036 0
M  V30 39044 O 3675.13 5.84515 -1.43615 0
M  V30 39045 H 3678.96 2.54544 -1.65654 0
M  V30 39046 H 3676.54 1.21513 -0.869194 0
M  V30 39047 H 3678.42 4.21155 0.143555 0
M  V30 39048 H 3677.1 3.15822 0.709798 0
M  V30 39049 H 3676.01 3.3832 -1.59658 0
M  V30 39050 H 3677.34 4.45961 -2.08278 0
M  V30 39051 N 3678.99 0.882035 1.30606 0
M  V30 39052 C 3680.24 0.499738 1.96546 0
M  V30 39053 C 3680.57 -0.948068 1.69485 0
M  V30 39054 O 3679.84 -1.66946 0.997958 0
M  V30 39055 C 3680.13 0.771724 3.51733 0
M  V30 39056 C 3679.98 2.26994 3.88322 0
M  V30 39057 C 3681.3 0.246255 4.39411 0
M  V30 39058 H 3678.42 0.183039 0.713909 0
M  V30 39059 H 3681.06 1.10549 1.54528 0
M  V30 39060 H 3679.21 0.25616 3.87655 0
M  V30 39061 H 3680.88 2.85369 3.62439 0
M  V30 39062 H 3679.13 2.73776 3.36496 0
M  V30 39063 H 3679.8 2.41086 4.9657 0
M  V30 39064 H 3682.27 0.687491 4.10381 0
M  V30 39065 H 3681.15 0.465914 5.46919 0
M  V30 39066 H 3681.41 -0.852375 4.33805 0
M  V30 39067 N 3680.47 -1.439 0.642688 0
M  V30 39068 C 3681.72 -2.01531 0.151513 0
M  V30 39069 C 3682.04 -1.50893 -1.23516 0
M  V30 39070 O 3681.31 -0.717229 -1.82298 0
M  V30 39071 H 3679.89 -0.745116 0.0530222 0
M  V30 39072 H 3682.55 -1.7625 0.831989 0
M  V30 39073 H 3681.65 -3.11837 0.12805 0
M  V30 39074 N 3681.95 -0.383945 -1.52852 0
M  V30 39075 C 3683.19 0.199954 -2.0151 0
M  V30 39076 C 3683.52 1.47261 -1.27061 0
M  V30 39077 O 3682.78 1.924 -0.357853 0
M  V30 39078 C 3683.08 0.519612 -3.53603 0
M  V30 39079 C 3682.74 -0.660868 -4.46031 0
M  V30 39080 C 3681.4 -0.984729 -4.71016 0
M  V30 39081 C 3683.76 -1.45086 -5.00599 0
M  V30 39082 C 3681.08 -2.10023 -5.47821 0
M  V30 39083 C 3683.44 -2.55692 -5.78623 0
M  V30 39084 C 3682.1 -2.88593 -6.01889 0
M  V30 39085 H 3681.37 0.0731683 -0.737379 0
M  V30 39086 H 3684.02 -0.52019 -1.84299 0
M  V30 39087 H 3682.32 1.32101 -3.68858 0
M  V30 39088 H 3684.02 0.983943 -3.88741 0
M  V30 39089 H 3680.61 -0.398434 -4.26744 0
M  V30 39090 H 3684.79 -1.2139 -4.81226 0
M  V30 39091 H 3680.05 -2.3589 -5.64062 0
M  V30 39092 H 3684.22 -3.17311 -6.19909 0
M  V30 39093 H 3681.85 -3.7515 -6.61186 0
M  V30 39094 N 3683.43 1.5719 -0.113614 0
M  V30 39095 C 3684.36 2.18047 0.835325 0
M  V30 39096 C 3685.34 1.11899 1.28112 0
M  V30 39097 O 3686.52 1.40113 1.34469 0
M  V30 39098 C 3683.65 2.77559 2.08754 0
M  V30 39099 C 3682.61 3.89243 1.77972 0
M  V30 39100 C 3681.93 4.35539 3.10178 0
M  V30 39101 C 3683.23 5.11591 1.05222 0
M  V30 39102 H 3684.93 2.97595 0.328222 0
M  V30 39103 H 3682.47 1.43148 0.156431 0
M  V30 39104 H 3684.42 3.1879 2.75592 0
M  V30 39105 H 3683.15 1.95293 2.61779 0
M  V30 39106 H 3681.81 3.48579 1.13526 0
M  V30 39107 H 3681.46 3.50138 3.61127 0
M  V30 39108 H 3681.16 5.10848 2.90358 0
M  V30 39109 H 3682.68 4.79417 3.78143 0
M  V30 39110 H 3684.09 5.49875 1.62204 0
M  V30 39111 H 3682.49 5.9245 0.955165 0
M  V30 39112 H 3683.56 4.84885 0.0380518 0
M  V30 39113 N 3684.9 -0.160146 1.56784 0
M  V30 39114 C 3686.31 -0.721522 1.72195 0
M  V30 39115 C 3686.67 -1.82276 0.725933 0
M  V30 39116 O 3685.79 -2.16119 -0.110305 0
M  V30 39117 C 3686.39 -1.31558 3.12215 0
M  V30 39118 C 3684.94 -1.82366 3.29272 0
M  V30 39119 C 3684.09 -0.706963 2.68137 0
M  V30 39120 H 3687.04 0.06538 1.58565 0
M  V30 39121 H 3687.06 -2.18534 3.11485 0
M  V30 39122 H 3686.58 -0.513849 3.84683 0
M  V30 39123 H 3684.68 -2.65147 2.61778 0
M  V30 39124 H 3684.79 -1.96141 4.3711 0
M  V30 39125 H 3683.15 -1.13026 2.28248 0
M  V30 39126 H 3683.94 0.083101 3.43199 0
M  V30 39127 N 3686.38 -1.51647 -0.429072 0
M  V30 39128 C 3687.66 -1.55271 -1.18955 0
M  V30 39129 C 3688.04 -0.321853 -2.08632 0
M  V30 39130 O 3687.39 0.692571 -2.17751 0
M  V30 39131 C 3687.6 -2.87106 -1.98422 0
M  V30 39132 C 3688.94 -3.39365 -2.55179 0
M  V30 39133 O 3689.97 -2.88712 -2.08624 0
M  V30 39134 O 3688.83 -4.27769 -3.40111 0
M  V30 39135 H 3685.92 -0.624606 -0.54203 0
M  V30 39136 H 3688.47 -1.63964 -0.437471 0
M  V30 39137 H 3687.24 -3.68145 -1.32607 0
M  V30 39138 H 3686.86 -2.81613 -2.80678 0
M  V30 39139 N 3687.86 0.685049 -1.41932 0
M  V30 39140 C 3688.79 1.81105 -1.47389 0
M  V30 39141 C 3689.77 1.66839 -0.331462 0
M  V30 39142 O 3690.96 1.86414 -0.544364 0
M  V30 39143 C 3688.09 3.19325 -1.36561 0
M  V30 39144 C 3687.04 3.48311 -2.48724 0
M  V30 39145 C 3686.37 4.85998 -2.22958 0
M  V30 39146 C 3687.67 3.4623 -3.91053 0
M  V30 39147 H 3689.36 1.76796 -2.41627 0
M  V30 39148 H 3686.91 0.849158 -1.16298 0
M  V30 39149 H 3688.86 3.97819 -1.38988 0
M  V30 39150 H 3687.58 3.24286 -0.38812 0
M  V30 39151 H 3686.24 2.72172 -2.45597 0
M  V30 39152 H 3685.89 4.87596 -1.23527 0
M  V30 39153 H 3685.59 5.06355 -2.98124 0
M  V30 39154 H 3687.11 5.66789 -2.27118 0
M  V30 39155 H 3688.53 4.14711 -3.95838 0
M  V30 39156 H 3686.92 3.78121 -4.65987 0
M  V30 39157 H 3687.99 2.44999 -4.18454 0
M  V30 39158 N 3689.34 1.27935 0.920351 0
M  V30 39159 C 3690.75 1.05498 1.19759 0
M  V30 39160 C 3690.95 -0.206829 2.00436 0
M  V30 39161 O 3690.01 -0.910314 2.3552 0
M  V30 39162 C 3691.32 2.29867 1.93859 0
M  V30 39163 C 3692.87 2.3498 2.06769 0
M  V30 39164 C 3693.35 3.59098 2.84276 0
M  V30 39165 N 3694.84 3.59699 2.91841 0
M  V30 39166 C 3695.57 4.52411 3.52296 0
M  V30 39167 N 3695.07 5.55434 4.14083 0
M  V30 39168 N 3696.86 4.40019 3.4977 0
M  V30 39169 H 3689.01 2.08945 0.381559 0
M  V30 39170 H 3691.27 0.919316 0.231435 0
M  V30 39171 H 3690.98 3.21758 1.42002 0
M  V30 39172 H 3690.85 2.35763 2.94442 0
M  V30 39173 H 3693.24 1.43591 2.5781 0
M  V30 39174 H 3693.32 2.33084 1.05384 0
M  V30 39175 H 3692.97 4.50827 2.33917 0
M  V30 39176 H 3692.9 3.58247 3.85962 0
M  V30 39177 H 3695.39 2.85196 2.47935 0
M  V30 39178 H 3695.7 6.22333 4.58172 0
M  V30 39179 H 3694.05 5.59268 4.12606 0
M  V30 39180 H 3697.24 3.58739 3.00706 0
M  V30 39181 H 3697.41 5.12462 3.96594 0
M  V30 39182 N 3690.82 -1.12788 1.10076 0
M  V30 39183 C 3691.78 -2.16592 0.749708 0
M  V30 39184 C 3692.78 -1.59232 -0.224018 0
M  V30 39185 O 3693.97 -1.742 -0.00134042 0
M  V30 39186 C 3691.1 -3.40723 0.109855 0
M  V30 39187 H 3692.29 -2.49161 1.6691 0
M  V30 39188 H 3689.85 -1.27731 0.900804 0
M  V30 39189 H 3690.58 -3.1375 -0.820446 0
M  V30 39190 H 3690.37 -3.8363 0.810584 0
M  V30 39191 H 3691.86 -4.17427 -0.120125 0
M  V30 39192 N 3692.29 -0.888949 -1.30136 0
M  V30 39193 C 3693.26 -0.363544 -2.26298 0
M  V30 39194 C 3694.26 0.496217 -1.52952 0
M  V30 39195 O 3695.45 0.302804 -1.71548 0
M  V30 39196 C 3692.58 0.481485 -3.37483 0
M  V30 39197 H 3693.77 -1.2127 -2.74288 0
M  V30 39198 H 3691.32 -0.666149 -1.41394 0
M  V30 39199 H 3692.06 1.35107 -2.94816 0
M  V30 39200 H 3691.84 -0.134412 -3.9187 0
M  V30 39201 H 3693.33 0.840744 -4.09049 0
M  V30 39202 N 3693.77 1.43557 -0.65031 0
M  V30 39203 C 3694.73 2.29175 0.0335922 0
M  V30 39204 C 3695.73 1.42056 0.75344 0
M  V30 39205 O 3696.92 1.63719 0.595129 0
M  V30 39206 C 3694.06 3.24057 1.05829 0
M  V30 39207 H 3695.25 2.91136 -0.719694 0
M  V30 39208 H 3692.8 1.50789 -0.41139 0
M  V30 39209 H 3693.54 2.66985 1.84091 0
M  V30 39210 H 3693.32 3.88282 0.545816 0
M  V30 39211 H 3694.81 3.88326 1.53599 0
M  V30 39212 N 3695.25 0.392045 1.52646 0
M  V30 39213 C 3696.47 -0.191779 2.06511 0
M  V30 39214 C 3696.9 -1.39514 1.26165 0
M  V30 39215 O 3696.26 -1.79007 0.287404 0
M  V30 39216 C 3696.31 -0.537449 3.56572 0
M  V30 39217 O 3695.41 -1.631 3.78777 0
M  V30 39218 H 3694.75 -0.0216429 0.663647 0
M  V30 39219 H 3697.28 0.560308 1.96778 0
M  V30 39220 H 3697.29 -0.800974 4.00061 0
M  V30 39221 H 3695.97 0.342312 4.14489 0
M  V30 39222 H 3694.54 -1.36097 3.47177 0
M  V30 39223 N 3696.73 -1.57127 0.121948 0
M  V30 39224 C 3697.66 -2.18487 -0.823749 0
M  V30 39225 C 3698.64 -1.12577 -1.27517 0
M  V30 39226 O 3699.82 -1.40824 -1.33724 0
M  V30 39227 C 3696.95 -2.78662 -2.07279 0
M  V30 39228 C 3695.91 -3.90181 -1.75905 0
M  V30 39229 C 3695.23 -4.37177 -3.07864 0
M  V30 39230 C 3696.53 -5.12142 -1.02508 0
M  V30 39231 H 3698.23 -2.97765 -0.312435 0
M  V30 39232 H 3695.77 -1.43229 -0.148837 0
M  V30 39233 H 3697.73 -3.20247 -2.73897 0
M  V30 39234 H 3696.45 -1.96678 -2.6074 0
M  V30 39235 H 3695.11 -3.49176 -1.11675 0
M  V30 39236 H 3694.76 -3.52048 -3.59265 0
M  V30 39237 H 3694.46 -5.12381 -2.87644 0
M  V30 39238 H 3695.98 -4.81415 -3.75595 0
M  V30 39239 H 3697.4 -5.50728 -1.59285 0
M  V30 39240 H 3695.79 -5.92948 -0.923732 0
M  V30 39241 H 3696.86 -4.84898 -0.0123366 0
M  V30 39242 N 3698.21 0.151829 -1.56867 0
M  V30 39243 C 3699.48 0.893663 -1.73991 0
M  V30 39244 C 3699.86 1.99551 -0.688663 0
M  V30 39245 O 3699.21 2.2661 0.293249 0
M  V30 39246 C 3699.42 1.44055 -3.17882 0
M  V30 39247 C 3700.77 1.90585 -3.79424 0
M  V30 39248 O 3701.79 1.53807 -3.21281 0
M  V30 39249 O 3700.65 2.58396 -4.81554 0
M  V30 39250 H 3697.75 0.421986 -0.711236 0
M  V30 39251 H 3700.29 0.138132 -1.69137 0
M  V30 39252 H 3699.06 0.648461 -3.85889 0
M  V30 39253 H 3698.69 2.25972 -3.27143 0
M  V30 39254 N 3699.68 1.51872 0.421024 0
M  V30 39255 C 3700.91 1.69177 1.19108 0
M  V30 39256 C 3701.33 0.396092 1.84598 0
M  V30 39257 O 3700.68 -0.626877 1.71396 0
M  V30 39258 C 3700.74 2.81902 2.26304 0
M  V30 39259 O 3700.46 4.06452 1.63489 0
M  V30 39260 C 3701.96 3.10616 3.16279 0
M  V30 39261 H 3699.18 0.567282 0.358375 0
M  V30 39262 H 3701.72 1.98372 0.496884 0
M  V30 39263 H 3699.88 2.55261 2.91412 0
M  V30 39264 H 3700.29 4.69178 2.34462 0
M  V30 39265 H 3701.76 3.93033 3.87594 0
M  V30 39266 H 3702.24 2.23682 3.77972 0
M  V30 39267 H 3702.85 3.38978 2.56854 0
M  V30 39268 N 3701.16 -0.677513 1.42294 0
M  V30 39269 C 3702.13 -1.77291 1.45261 0
M  V30 39270 C 3703.13 -1.57152 0.340582 0
M  V30 39271 O 3704.32 -1.63494 0.601288 0
M  V30 39272 C 3701.45 -3.15892 1.28161 0
M  V30 39273 H 3702.64 -1.76048 2.4279 0
M  V30 39274 H 3700.19 -0.886885 1.28701 0
M  V30 39275 H 3700.93 -3.22762 0.315437 0
M  V30 39276 H 3700.71 -3.31912 2.0875 0
M  V30 39277 H 3702.2 -3.95816 1.33114 0
M  V30 39278 N 3702.64 -1.28421 -0.913554 0
M  V30 39279 C 3703.6 -1.12385 -1.99755 0
M  V30 39280 C 3704.6 -0.0634633 -1.60675 0
M  V30 39281 O 3705.79 -0.30926 -1.71433 0
M  V30 39282 C 3702.93 -0.715565 -3.33305 0
M  V30 39283 H 3704.12 -2.08658 -2.1541 0
M  V30 39284 H 3701.67 -1.1141 -1.09624 0
M  V30 39285 H 3702.41 0.24792 -3.23351 0
M  V30 39286 H 3702.19 -1.48157 -3.63032 0
M  V30 39287 H 3703.68 -0.626025 -4.12881 0
M  V30 39288 N 3704.12 1.12202 -1.10672 0
M  V30 39289 C 3705.05 2.20092 -0.779867 0
M  V30 39290 C 3706.03 1.68279 0.248249 0
M  V30 39291 O 3707.21 1.93868 0.113477 0
M  V30 39292 C 3704.34 3.46643 -0.213572 0
M  V30 39293 C 3703.3 4.11622 -1.17265 0
M  V30 39294 C 3702.62 5.32653 -0.467446 0
M  V30 39295 C 3703.92 4.57474 -2.52022 0
M  V30 39296 H 3705.62 2.4769 -1.68196 0
M  V30 39297 H 3703.16 1.19048 -0.810152 0
M  V30 39298 H 3705.12 4.21391 0.0272484 0
M  V30 39299 H 3703.84 3.18479 0.723781 0
M  V30 39300 H 3702.5 3.38857 -1.39897 0
M  V30 39301 H 3702.15 5.00757 0.474459 0
M  V30 39302 H 3701.85 5.77077 -1.10704 0
M  V30 39303 H 3703.37 6.10147 -0.235229 0
M  V30 39304 H 3704.79 5.23583 -2.33525 0
M  V30 39305 H 3703.18 5.12684 -3.11889 0
M  V30 39306 H 3704.25 3.7133 -3.11837 0
M  V30 39307 N 3705.6 0.895838 1.29663 0
M  V30 39308 C 3706.82 0.534368 2.00398 0
M  V30 39309 C 3707.25 -0.872625 1.66634 0
M  V30 39310 O 3706.6 -1.58017 0.888839 0
M  V30 39311 C 3706.65 0.729085 3.53153 0
M  V30 39312 O 3705.76 -0.220158 4.11812 0
M  V30 39313 H 3705.1 0.209244 0.630169 0
M  V30 39314 H 3707.63 1.20637 1.65251 0
M  V30 39315 H 3707.64 0.63225 4.03071 0
M  V30 39316 H 3706.31 1.75487 3.77064 0
M  V30 39317 H 3704.89 -0.0761031 3.72822 0
M  V30 39318 N 3707.07 -1.43211 0.657914 0
M  V30 39319 C 3708.04 -2.2919 -0.021438 0
M  V30 39320 C 3709.04 -1.42454 -0.745896 0
M  V30 39321 O 3710.23 -1.64032 -0.586439 0
M  V30 39322 C 3707.36 -3.24614 -1.04109 0
M  V30 39323 H 3708.55 -2.90751 0.735124 0
M  V30 39324 H 3706.11 -1.50569 0.419381 0
M  V30 39325 H 3706.84 -2.67957 -1.82673 0
M  V30 39326 H 3706.63 -3.88566 -0.525217 0
M  V30 39327 H 3708.12 -3.89135 -1.51537 0
M  V30 39328 N 3708.55 -0.400135 -1.52436 0
M  V30 39329 C 3709.78 0.178327 -2.0613 0
M  V30 39330 C 3710.2 1.39614 -1.27096 0
M  V30 39331 O 3709.55 1.79665 -0.320441 0
M  V30 39332 C 3709.6 0.537707 -3.57479 0
M  V30 39333 O 3709.32 -0.631733 -4.33521 0
M  V30 39334 C 3710.83 1.17087 -4.27558 0
M  V30 39335 H 3708.05 0.0243501 -0.670558 0
M  V30 39336 H 3710.59 -0.568493 -1.96439 0
M  V30 39337 H 3708.74 1.23442 -3.67207 0
M  V30 39338 H 3709.16 -0.333895 -5.23436 0
M  V30 39339 H 3710.63 1.37261 -5.34662 0
M  V30 39340 H 3711.11 2.14138 -3.8346 0
M  V30 39341 H 3711.72 0.514613 -4.22175 0
M  V30 39342 N 3710.03 1.57061 -0.13028 0
M  V30 39343 C 3711.31 1.87137 0.569138 0
M  V30 39344 C 3711.69 1.03341 1.84076 0
M  V30 39345 O 3711.04 0.11547 2.28208 0
M  V30 39346 C 3711.25 3.38473 0.850722 0
M  V30 39347 C 3712.59 4.07324 1.19885 0
M  V30 39348 O 3713.62 3.43556 0.940622 0
M  V30 39349 O 3712.48 5.19907 1.684 0
M  V30 39350 H 3709.57 0.775076 0.288419 0
M  V30 39351 H 3712.12 1.6889 -0.165633 0
M  V30 39352 H 3710.89 3.91268 -0.049925 0
M  V30 39353 H 3710.51 3.62189 1.64026 0
M  V30 39354 N 3711.51 -0.143508 1.56945 0
M  V30 39355 C 3712.44 -1.20672 1.93684 0
M  V30 39356 C 3713.42 -1.4138 0.803141 0
M  V30 39357 O 3714.6 -1.55935 1.05907 0
M  V30 39358 C 3711.73 -2.56501 2.2119 0
M  V30 39359 C 3710.78 -2.52366 3.43822 0
M  V30 39360 S 3711.61 -1.9872 4.97263 0
M  V30 39361 C 3712.77 -3.36271 5.27895 0
M  V30 39362 H 3713 -0.893295 2.83562 0
M  V30 39363 H 3710.53 -0.349268 1.50398 0
M  V30 39364 H 3712.49 -3.34666 2.37716 0
M  V30 39365 H 3711.15 -2.85031 1.31969 0
M  V30 39366 H 3710.34 -3.52363 3.60356 0
M  V30 39367 H 3709.95 -1.82312 3.26555 0
M  V30 39368 H 3712.24 -4.32394 5.21576 0
M  V30 39369 H 3713.18 -3.24587 6.29324 0
M  V30 39370 H 3713.59 -3.33568 4.55404 0
M  V30 39371 N 3712.99 -1.52093 -0.412964 0
M  V30 39372 C 3713.95 -1.74542 -1.48552 0
M  V30 39373 C 3714.95 -0.615309 -1.48562 0
M  V30 39374 O 3716.14 -0.883145 -1.50154 0
M  V30 39375 C 3713.27 -1.82428 -2.87981 0
M  V30 39376 H 3714.47 -2.70288 -1.2994 0
M  V30 39377 H 3712.02 -1.42451 -0.643216 0
M  V30 39378 H 3712.75 -0.885832 -3.11967 0
M  V30 39379 H 3712.54 -2.64582 -2.89377 0
M  V30 39380 H 3714.03 -2.01551 -3.65742 0
M  V30 39381 N 3714.47 0.669957 -1.42651 0
M  V30 39382 C 3715.4 1.79531 -1.49301 0
M  V30 39383 C 3716.38 1.66478 -0.349139 0
M  V30 39384 O 3717.56 1.85827 -0.564105 0
M  V30 39385 C 3714.69 3.17858 -1.3994 0
M  V30 39386 C 3713.65 3.45653 -2.52404 0
M  V30 39387 C 3712.97 4.83606 -2.281 0
M  V30 39388 C 3714.27 3.42063 -3.94703 0
M  V30 39389 H 3715.97 1.74223 -2.43489 0
M  V30 39390 H 3713.51 0.836775 -1.17192 0
M  V30 39391 H 3715.46 3.96323 -1.432 0
M  V30 39392 H 3714.19 3.23856 -0.422493 0
M  V30 39393 H 3712.85 2.69552 -2.4847 0
M  V30 39394 H 3712.5 4.86259 -1.28691 0
M  V30 39395 H 3712.2 5.03165 -3.03478 0
M  V30 39396 H 3713.72 5.64348 -2.33117 0
M  V30 39397 H 3715.13 4.10489 -4.00214 0
M  V30 39398 H 3713.53 3.73158 -4.69972 0
M  V30 39399 H 3714.6 2.40547 -4.21029 0
M  V30 39400 N 3715.94 1.28904 0.90673 0
M  V30 39401 C 3716.91 1.13443 1.99156 0
M  V30 39402 C 3717.91 0.0719834 1.60639 0
M  V30 39403 O 3719.1 0.318347 1.71266 0
M  V30 39404 C 3716.23 0.733231 3.32921 0
M  V30 39405 H 3717.42 2.09798 2.14301 0
M  V30 39406 H 3714.97 1.1199 1.09032 0
M  V30 39407 H 3715.71 -0.230769 3.23478 0
M  V30 39408 H 3715.49 1.5008 3.62241 0
M  V30 39409 H 3716.98 0.647912 4.12543 0
M  V30 39410 N 3717.42 -1.11614 1.11266 0
M  V30 39411 C 3718.35 -2.19675 0.791528 0
M  V30 39412 C 3719.33 -1.68408 -0.239321 0
M  V30 39413 O 3720.52 -1.93926 -0.103194 0
M  V30 39414 C 3717.65 -3.46525 0.231952 0
M  V30 39415 C 3716.6 -4.10995 1.19447 0
M  V30 39416 C 3715.93 -5.32397 0.495687 0
M  V30 39417 C 3717.23 -4.56131 2.54445 0
M  V30 39418 H 3718.92 -2.46795 1.69508 0
M  V30 39419 H 3716.47 -1.18617 0.816454 0
M  V30 39420 H 3718.42 -4.214 -0.00490061 0
M  V30 39421 H 3717.14 -3.18859 -0.706882 0
M  V30 39422 H 3715.8 -3.38111 1.41692 0
M  V30 39423 H 3715.45 -5.01002 -0.447896 0
M  V30 39424 H 3715.15 -5.76482 1.13763 0
M  V30 39425 H 3716.68 -6.10013 0.267583 0
M  V30 39426 H 3718.09 -5.22337 2.36298 0
M  V30 39427 H 3716.49 -5.11023 3.14604 0
M  V30 39428 H 3717.56 -3.69671 3.13802 0
M  V30 39429 N 3718.9 -0.902701 -1.29186 0
M  V30 39430 C 3719.85 -0.372625 -2.29596 0
M  V30 39431 C 3720.84 0.52983 -1.60901 0
M  V30 39432 O 3722.05 0.412299 -1.75214 0
M  V30 39433 H 3718.42 -0.101878 -0.745067 0
M  V30 39434 H 3720.39 -1.23279 -2.71744 0
M  V30 39435 C 3719.14 0.382068 -3.45594 0
M  V30 39436 H 3718.47 -0.303131 -3.98649 0
M  V30 39437 H 3719.91 0.717779 -4.1788 0
M  V30 39438 C 3718.36 1.58586 -2.97241 0
M  V30 39439 O 3718.89 2.68512 -2.98772 0
M  V30 39440 N 3717.1 1.42905 -2.53035 0
M  V30 39441 H 3716.65 0.534742 -2.51989 0
M  V30 39442 H 3716.61 2.2358 -2.21042 0
M  V30 39443 N 3720.38 1.4286 -0.6655 0
M  V30 39444 C 3721.79 1.56062 -0.334184 0
M  V30 39445 C 3721.99 1.6469 1.16101 0
M  V30 39446 O 3721.05 1.60871 1.9462 0
M  V30 39447 C 3722.36 2.81535 -1.05633 0
M  V30 39448 C 3723.91 2.95296 -1.03776 0
M  V30 39449 C 3724.39 4.23617 -1.74105 0
M  V30 39450 N 3725.88 4.30509 -1.70928 0
M  V30 39451 C 3726.61 5.28593 -2.22209 0
M  V30 39452 N 3726.11 6.32884 -2.81832 0
M  V30 39453 N 3727.9 5.20328 -2.12638 0
M  V30 39454 H 3720.05 1.35503 -1.63563 0
M  V30 39455 H 3722.31 0.651616 -0.688549 0
M  V30 39456 H 3722.02 2.81265 -2.11146 0
M  V30 39457 H 3721.89 3.72142 -0.615652 0
M  V30 39458 H 3724.28 2.95099 0.00900137 0
M  V30 39459 H 3724.36 2.05945 -1.51724 0
M  V30 39460 H 3724.01 4.24575 -2.78745 0
M  V30 39461 H 3723.94 5.11886 -1.23613 0
M  V30 39462 H 3726.43 3.55766 -1.27431 0
M  V30 39463 H 3726.74 7.04067 -3.18606 0
M  V30 39464 H 3725.09 6.33473 -2.85898 0
M  V30 39465 H 3728.28 4.37771 -1.65753 0
M  V30 39466 H 3728.45 5.96608 -2.5291 0
M  V30 39467 N 3721.86 0.408213 1.52221 0
M  V30 39468 C 3723.09 -0.167151 2.05923 0
M  V30 39469 C 3723.49 -1.39488 1.27827 0
M  V30 39470 O 3722.84 -1.80836 0.323097 0
M  V30 39471 C 3722.9 -0.583372 3.54735 0
M  V30 39472 C 3722.56 0.533498 4.53875 0
M  V30 39473 C 3723.56 1.39679 5.00785 0
M  V30 39474 C 3721.24 0.705929 4.97315 0
M  V30 39475 C 3723.24 2.41746 5.89778 0
M  V30 39476 C 3720.93 1.72991 5.86103 0
M  V30 39477 C 3721.92 2.58409 6.32229 0
M  V30 39478 O 3721.61 3.59054 7.19261 0
M  V30 39479 H 3721.34 -0.0243267 0.675562 0
M  V30 39480 H 3723.9 0.577509 1.97114 0
M  V30 39481 H 3722.13 -1.3803 3.61226 0
M  V30 39482 H 3723.82 -1.08655 3.91087 0
M  V30 39483 H 3724.58 1.27497 4.67942 0
M  V30 39484 H 3720.46 0.0507368 4.60972 0
M  V30 39485 H 3724.01 3.08451 6.25703 0
M  V30 39486 H 3719.9 1.85204 6.1836 0
M  V30 39487 H 3720.67 3.55287 7.37369 0
M  V30 39488 N 3723.33 -1.56989 0.138607 0
M  V30 39489 C 3724.26 -2.19349 -0.80053 0
M  V30 39490 C 3725.24 -1.13923 -1.26316 0
M  V30 39491 O 3726.43 -1.42235 -1.32223 0
M  V30 39492 C 3723.56 -2.80845 -2.04312 0
M  V30 39493 C 3722.51 -3.92025 -1.71757 0
M  V30 39494 C 3721.84 -4.40418 -3.03209 0
M  V30 39495 C 3723.14 -5.132 -0.970698 0
M  V30 39496 H 3724.83 -2.9808 -0.280836 0
M  V30 39497 H 3722.38 -1.43379 -0.133638 0
M  V30 39498 H 3724.33 -3.23134 -2.70485 0
M  V30 39499 H 3723.06 -1.99432 -2.58639 0
M  V30 39500 H 3721.72 -3.50341 -1.07966 0
M  V30 39501 H 3721.36 -3.55838 -3.55511 0
M  V30 39502 H 3721.06 -5.15403 -2.82194 0
M  V30 39503 H 3722.59 -4.85372 -3.70468 0
M  V30 39504 H 3724 -5.52386 -1.53435 0
M  V30 39505 H 3722.4 -5.93894 -0.86079 0
M  V30 39506 H 3723.47 -4.84884 0.039094 0
M  V30 39507 N 3724.81 0.135183 -1.57019 0
M  V30 39508 C 3726.05 0.851863 -1.85803 0
M  V30 39509 C 3726.42 1.77807 -0.72448 0
M  V30 39510 O 3727.62 2.5351 -0.893663 0
M  V30 39511 C 3725.89 1.59589 -3.19791 0
M  V30 39512 S 3727.45 2.35637 -3.70163 0
M  V30 39513 H 3724.26 0.284637 -0.651539 0
M  V30 39514 H 3726.87 0.111143 -1.95184 0
M  V30 39515 H 3725.57 0.90715 -4.00249 0
M  V30 39516 H 3725.1 2.3773 -3.13446 0
M  V30 39517 H 3727.12 3.61057 -3.40371 0
M  V30 39518 N 3726.29 1.5231 0.404892 0
M  V30 39519 C 3727.52 1.70431 1.17306 0
M  V30 39520 C 3727.93 0.415649 1.84168 0
M  V30 39521 O 3727.29 -0.608663 1.72051 0
M  V30 39522 C 3727.34 2.84286 2.23301 0
M  V30 39523 O 3727.06 4.08163 1.59169 0
M  V30 39524 C 3728.56 3.13953 3.12967 0
M  V30 39525 H 3725.78 0.571051 0.352338 0
M  V30 39526 H 3728.33 1.98888 0.475816 0
M  V30 39527 H 3726.48 2.58337 2.88688 0
M  V30 39528 H 3726.9 4.71638 2.29473 0
M  V30 39529 H 3728.37 3.97122 3.83404 0
M  V30 39530 H 3728.85 2.27678 3.75578 0
M  V30 39531 H 3729.45 3.41683 2.53245 0
M  V30 39532 N 3727.77 -0.662382 1.43004 0
M  V30 39533 C 3728.73 -1.7574 1.47133 0
M  V30 39534 C 3729.73 -1.56782 0.357231 0
M  V30 39535 O 3730.92 -1.62847 0.618595 0
M  V30 39536 C 3728.05 -3.14515 1.31504 0
M  V30 39537 H 3729.25 -1.73463 2.44644 0
M  V30 39538 H 3726.8 -0.873185 1.29635 0
M  V30 39539 H 3727.53 -3.2241 0.349653 0
M  V30 39540 H 3727.32 -3.2968 2.12259 0
M  V30 39541 H 3728.81 -3.94382 1.37305 0
M  V30 39542 N 3729.25 -1.29383 -0.899882 0
M  V30 39543 C 3730.49 -1.17517 -1.6528 0
M  V30 39544 C 3730.83 0.272754 -1.92275 0
M  V30 39545 O 3730.1 1.19699 -1.53305 0
M  V30 39546 C 3730.38 -1.98872 -3.00203 0
M  V30 39547 C 3730.24 -3.51804 -2.80275 0
M  V30 39548 C 3731.56 -1.81496 -4.00933 0
M  V30 39549 H 3728.67 -0.428273 -0.599792 0
M  V30 39550 H 3731.32 -1.58854 -1.04238 0
M  V30 39551 H 3729.47 -1.63748 -3.52305 0
M  V30 39552 H 3731.14 -3.9691 -2.35075 0
M  V30 39553 H 3729.38 -3.76737 -2.15062 0
M  V30 39554 H 3730.05 -4.04 -3.76148 0
M  V30 39555 H 3732.53 -2.12175 -3.5794 0
M  V30 39556 H 3731.4 -2.40769 -4.93276 0
M  V30 39557 H 3731.67 -0.770098 -4.35341 0
M  V30 39558 N 3730.72 1.11022 -1.11856 0
M  V30 39559 C 3731.65 2.19252 -0.803167 0
M  V30 39560 C 3732.64 1.68533 0.230387 0
M  V30 39561 O 3733.82 1.93978 0.092908 0
M  V30 39562 C 3730.95 3.46397 -0.250326 0
M  V30 39563 C 3729.9 4.10355 -1.21625 0
M  V30 39564 C 3729.23 5.32127 -0.523914 0
M  V30 39565 C 3730.53 4.54775 -2.5686 0
M  V30 39566 H 3732.22 2.45892 -1.70814 0
M  V30 39567 H 3729.77 1.18183 -0.822733 0
M  V30 39568 H 3731.72 4.21396 -0.0174473 0
M  V30 39569 H 3730.45 3.19229 0.689962 0
M  V30 39570 H 3729.11 3.37355 -1.43483 0
M  V30 39571 H 3728.75 5.01232 0.42132 0
M  V30 39572 H 3728.45 5.75871 -1.16819 0
M  V30 39573 H 3729.98 6.09863 -0.29993 0
M  V30 39574 H 3731.39 5.21077 -2.39065 0
M  V30 39575 H 3729.79 5.09347 -3.1731 0
M  V30 39576 H 3730.86 3.68001 -3.15758 0
M  V30 39577 N 3732.2 0.90954 1.28706 0
M  V30 39578 C 3733.61 0.587644 1.77211 0
M  V30 39579 C 3733.96 -0.896955 1.74497 0
M  V30 39580 O 3733.09 -1.70156 1.33701 0
M  V30 39581 C 3733.68 1.05995 3.21793 0
M  V30 39582 C 3732.24 0.789048 3.68037 0
M  V30 39583 C 3731.39 1.22907 2.48574 0
M  V30 39584 H 3734.34 1.09124 1.15228 0
M  V30 39585 H 3734.36 0.399535 3.78397 0
M  V30 39586 H 3733.87 2.14049 3.23736 0
M  V30 39587 H 3731.98 -0.278457 3.71558 0
M  V30 39588 H 3732.09 1.39384 4.58377 0
M  V30 39589 H 3730.45 0.647881 2.46322 0
M  V30 39590 H 3731.24 2.31786 2.53239 0
M  V30 39591 N 3733.68 -1.42505 0.673067 0
M  V30 39592 C 3734.61 -2.33499 0.00759571 0
M  V30 39593 C 3735.59 -1.50582 -0.791134 0
M  V30 39594 O 3736.78 -1.7919 -0.748636 0
M  V30 39595 C 3733.91 -3.3418 -0.945579 0
M  V30 39596 C 3732.86 -4.27236 -0.255565 0
M  V30 39597 C 3732.19 -5.18111 -1.32156 0
M  V30 39598 C 3733.49 -5.15098 0.864345 0
M  V30 39599 H 3735.18 -2.89395 0.767538 0
M  V30 39600 H 3732.73 -1.39151 0.370548 0
M  V30 39601 H 3734.68 -3.96747 -1.42019 0
M  V30 39602 H 3733.4 -2.76584 -1.73692 0
M  V30 39603 H 3732.06 -3.66061 0.198794 0
M  V30 39604 H 3731.71 -4.56843 -2.10484 0
M  V30 39605 H 3731.41 -5.81198 -0.865006 0
M  V30 39606 H 3732.93 -5.83554 -1.79714 0
M  V30 39607 H 3734.35 -5.71362 0.471025 0
M  V30 39608 H 3732.75 -5.8701 1.24658 0
M  V30 39609 H 3733.82 -4.53602 1.71386 0
M  V30 39610 N 3735.16 -0.41628 -1.52003 0
M  V30 39611 C 3736.09 0.39663 -2.30107 0
M  V30 39612 C 3737.07 1.03981 -1.34618 0
M  V30 39613 O 3738.25 1.04746 -1.6353 0
M  V30 39614 C 3735.38 1.50967 -3.12772 0
M  V30 39615 C 3734.34 0.991117 -4.16366 0
M  V30 39616 C 3733.66 2.1983 -4.87421 0
M  V30 39617 C 3734.96 0.0401681 -5.22285 0
M  V30 39618 H 3736.66 -0.255106 -2.98311 0
M  V30 39619 H 3734.2 -0.124131 -1.43464 0
M  V30 39620 H 3736.16 2.0854 -3.66182 0
M  V30 39621 H 3734.88 2.18939 -2.4235 0
M  V30 39622 H 3733.54 0.437739 -3.63977 0
M  V30 39623 H 3733.19 2.86373 -4.13521 0
M  V30 39624 H 3732.89 1.85782 -5.57457 0
M  V30 39625 H 3734.41 2.77996 -5.43646 0
M  V30 39626 H 3735.83 0.524926 -5.70892 0
M  V30 39627 H 3734.22 -0.211847 -5.99726 0
M  V30 39628 H 3735.29 -0.902961 -4.76419 0
M  V30 39629 N 3736.64 1.56914 -0.146931 0
M  V30 39630 C 3737.86 2.00487 0.511146 0
M  V30 39631 C 3738.28 1.02702 1.58423 0
M  V30 39632 O 3737.64 0.0240199 1.82484 0
M  V30 39633 C 3737.69 3.43977 1.11185 0
M  V30 39634 O 3737.41 4.38024 0.0816324 0
M  V30 39635 C 3738.91 4.02827 1.85054 0
M  V30 39636 H 3736.13 0.657673 0.133067 0
M  V30 39637 H 3738.67 2.03069 -0.241493 0
M  V30 39638 H 3736.83 3.42246 1.81511 0
M  V30 39639 H 3737.24 5.21899 0.521718 0
M  V30 39640 H 3738.72 5.05226 2.22376 0
M  V30 39641 H 3739.19 3.43535 2.73643 0
M  V30 39642 H 3739.8 4.08188 1.19427 0
M  V30 39643 N 3738.11 -0.126854 1.57089 0
M  V30 39644 C 3739.53 -0.480148 1.52206 0
M  V30 39645 C 3739.73 -1.82289 0.858666 0
M  V30 39646 O 3738.79 -2.48678 0.437679 0
M  V30 39647 C 3740.1 -0.471879 2.96974 0
M  V30 39648 C 3741.65 -0.555983 3.08022 0
M  V30 39649 C 3742.12 -0.578181 4.54336 0
M  V30 39650 N 3743.61 -0.639841 4.58759 0
M  V30 39651 C 3744.35 -0.678334 5.69374 0
M  V30 39652 N 3743.84 -0.674948 6.89504 0
M  V30 39653 N 3745.64 -0.720747 5.5746 0
M  V30 39654 H 3737.79 0.753043 1.98603 0
M  V30 39655 H 3740.05 0.276911 0.906656 0
M  V30 39656 H 3739.76 0.446931 3.48849 0
M  V30 39657 H 3739.63 -1.30254 3.53997 0
M  V30 39658 H 3742.02 -1.46521 2.56155 0
M  V30 39659 H 3742.1 0.302216 2.54008 0
M  V30 39660 H 3741.74 0.326973 5.06846 0
M  V30 39661 H 3741.67 -1.45315 5.06153 0
M  V30 39662 H 3744.16 -0.64894 3.72286 0
M  V30 39663 H 3744.48 -0.706726 7.69562 0
M  V30 39664 H 3742.82 -0.642499 6.92024 0
M  V30 39665 H 3746.01 -0.720702 4.62519 0
M  V30 39666 H 3746.19 -0.747279 6.43677 0
M  V30 39667 N 3739.59 -1.52523 -0.396809 0
M  V30 39668 C 3740.83 -1.68869 -1.15163 0
M  V30 39669 C 3741.2 -0.415767 -1.87444 0
M  V30 39670 O 3742.4 -0.45549 -2.64913 0
M  V30 39671 C 3740.67 -2.88468 -2.11 0
M  V30 39672 S 3742.23 -3.25362 -2.94423 0
M  V30 39673 H 3739.05 -0.594522 -0.389955 0
M  V30 39674 H 3741.65 -1.90549 -0.437167 0
M  V30 39675 H 3740.35 -3.79345 -1.56607 0
M  V30 39676 H 3739.88 -2.69098 -2.86967 0
M  V30 39677 H 3741.9 -2.74942 -4.13064 0
M  V30 39678 N 3741.07 0.654789 -1.43354 0
M  V30 39679 C 3742.03 1.74957 -1.48063 0
M  V30 39680 C 3743.03 1.5659 -0.36554 0
M  V30 39681 O 3744.22 1.62516 -0.627222 0
M  V30 39682 C 3741.36 3.13813 -1.3317 0
M  V30 39683 H 3742.55 1.72163 -2.4556 0
M  V30 39684 H 3740.1 0.866298 -1.30096 0
M  V30 39685 H 3740.84 3.2222 -0.366746 0
M  V30 39686 H 3740.62 3.28549 -2.14004 0
M  V30 39687 H 3742.11 3.93648 -1.39394 0
M  V30 39688 N 3742.55 1.29858 0.893007 0
M  V30 39689 C 3743.96 1.16433 1.45946 0
M  V30 39690 C 3744.31 -0.238016 1.94751 0
M  V30 39691 O 3743.44 -1.13407 1.84304 0
M  V30 39692 C 3744.03 2.10758 2.65267 0
M  V30 39693 C 3742.59 2.01336 3.18027 0
M  V30 39694 C 3741.74 2.01301 1.90718 0
M  V30 39695 H 3744.69 1.42245 0.703705 0
M  V30 39696 H 3744.71 1.68372 3.4122 0
M  V30 39697 H 3744.22 3.12814 2.29715 0
M  V30 39698 H 3742.32 1.02392 3.58255 0
M  V30 39699 H 3742.44 2.89329 3.81871 0
M  V30 39700 H 3740.8 1.4599 2.08708 0
M  V30 39701 H 3741.58 3.05073 1.57434 0
M  V30 39702 N 3744.03 -1.10427 1.12443 0
M  V30 39703 C 3744.96 -2.18823 0.814783 0
M  V30 39704 C 3745.94 -1.68652 -0.221446 0
M  V30 39705 O 3747.12 -1.94024 -0.0826196 0
M  V30 39706 C 3744.25 -3.46259 0.268693 0
M  V30 39707 C 3743.21 -4.09704 1.23799 0
M  V30 39708 C 3742.53 -5.31842 0.552127 0
M  V30 39709 C 3743.83 -4.53406 2.59268 0
M  V30 39710 H 3745.53 -2.44983 1.72116 0
M  V30 39711 H 3743.07 -1.17745 0.828989 0
M  V30 39712 H 3745.03 -4.21381 0.0397947 0
M  V30 39713 H 3743.75 -3.1959 -0.673023 0
M  V30 39714 H 3742.41 -3.36589 1.4527 0
M  V30 39715 H 3742.06 -5.01449 -0.394732 0
M  V30 39716 H 3741.76 -5.75243 1.19871 0
M  V30 39717 H 3743.28 -6.09695 0.332268 0
M  V30 39718 H 3744.7 -5.19801 2.41825 0
M  V30 39719 H 3743.09 -5.07657 3.20006 0
M  V30 39720 H 3744.16 -3.66322 3.17705 0
M  V30 39721 N 3745.51 -0.916353 -1.28221 0
M  V30 39722 C 3746.75 -0.550857 -1.94864 0
M  V30 39723 C 3747.08 0.905915 -1.72115 0
M  V30 39724 O 3746.34 1.65985 -1.0367 0
M  V30 39725 C 3746.63 -0.809571 -3.4811 0
M  V30 39726 C 3746.3 -2.2463 -3.90963 0
M  V30 39727 C 3744.96 -2.6391 -4.02374 0
M  V30 39728 C 3747.31 -3.18113 -4.1286 0
M  V30 39729 C 3744.64 -3.95821 -4.33062 0
M  V30 39730 C 3746.99 -4.49592 -4.45028 0
M  V30 39731 C 3745.66 -4.88722 -4.5465 0
M  V30 39732 H 3744.93 -0.201573 -0.713056 0
M  V30 39733 H 3747.58 -1.15817 -1.52508 0
M  V30 39734 H 3745.88 -0.11948 -3.91618 0
M  V30 39735 H 3747.58 -0.505913 -3.97796 0
M  V30 39736 H 3744.17 -1.93151 -3.8261 0
M  V30 39737 H 3748.35 -2.88973 -4.03495 0
M  V30 39738 H 3743.61 -4.25836 -4.38718 0
M  V30 39739 H 3747.78 -5.22041 -4.60919 0
M  V30 39740 H 3745.41 -5.90969 -4.78184 0
M  V30 39741 N 3746.98 1.42146 -0.680615 0
M  V30 39742 C 3747.95 2.29195 -0.0150268 0
M  V30 39743 C 3748.95 1.43622 0.723138 0
M  V30 39744 O 3750.14 1.64944 0.560268 0
M  V30 39745 C 3747.27 3.26229 0.989318 0
M  V30 39746 H 3748.46 2.89544 -0.781286 0
M  V30 39747 H 3746.01 1.49882 -0.443282 0
M  V30 39748 H 3746.75 2.7083 1.78387 0
M  V30 39749 H 3746.53 3.89353 0.463333 0
M  V30 39750 H 3748.02 3.91497 1.45327 0
M  V30 39751 N 3748.46 0.424336 1.5178 0
M  V30 39752 C 3749.71 -0.146167 2.01571 0
M  V30 39753 C 3750.03 -1.44342 1.31113 0
M  V30 39754 O 3749.3 -1.90856 0.441664 0
M  V30 39755 H 3747.88 -0.0570059 0.744822 0
M  V30 39756 H 3750.54 0.564064 1.86559 0
M  V30 39757 H 3749.64 -0.331409 3.10335 0
M  V30 39758 N 3749.94 -1.56833 0.15525 0
M  V30 39759 C 3751.17 -2.00755 -0.500506 0
M  V30 39760 C 3751.58 -1.0354 -1.57876 0
M  V30 39761 O 3750.94 -0.0336971 -1.82469 0
M  V30 39762 C 3750.99 -3.44562 -1.09359 0
M  V30 39763 O 3750.71 -4.38061 -0.0584018 0
M  V30 39764 C 3752.21 -4.03803 -1.82916 0
M  V30 39765 H 3749.43 -0.65837 -0.129577 0
M  V30 39766 H 3751.98 -2.02938 0.252259 0
M  V30 39767 H 3750.13 -3.43204 -1.79694 0
M  V30 39768 H 3750.55 -5.22168 -0.494033 0
M  V30 39769 H 3752.02 -5.06398 -2.19694 0
M  V30 39770 H 3752.5 -3.44981 -2.71817 0
M  V30 39771 H 3753.1 -4.08815 -1.17261 0
M  V30 39772 N 3751.42 0.118521 -1.57154 0
M  V30 39773 C 3752.33 1.1642 -2.03675 0
M  V30 39774 C 3753.34 1.45304 -0.957229 0
M  V30 39775 O 3754.52 1.5641 -1.26877 0
M  V30 39776 C 3751.58 2.47077 -2.43215 0
M  V30 39777 C 3750.65 2.25587 -3.65252 0
M  V30 39778 C 3749.88 3.50014 -4.02897 0
M  V30 39779 O 3750.1 4.57338 -3.40879 0
M  V30 39780 O 3749.04 3.40987 -4.95995 0
M  V30 39781 H 3752.86 0.799154 -2.92997 0
M  V30 39782 H 3750.45 0.329351 -1.45725 0
M  V30 39783 H 3752.33 3.24056 -2.6938 0
M  V30 39784 H 3751 2.83055 -1.57039 0
M  V30 39785 H 3749.91 1.46465 -3.44237 0
M  V30 39786 H 3751.24 1.94513 -4.52135 0
M  V30 39787 N 3752.9 1.52731 0.388715 0
M  V30 39788 C 3753.85 1.7391 1.47442 0
M  V30 39789 C 3754.83 0.59319 1.49566 0
M  V30 39790 O 3756.02 0.851033 1.55198 0
M  V30 39791 C 3753.15 1.91164 2.85152 0
M  V30 39792 C 3752.24 3.11688 2.87596 0
M  V30 39793 N 3752.63 4.34032 2.59711 0
M  V30 39794 C 3750.93 3.11939 3.18763 0
M  V30 39795 C 3751.63 5.15637 2.69245 0
M  V30 39796 N 3750.6 4.51331 3.02988 0
M  V30 39797 H 3754.4 2.66129 1.2471 0
M  V30 39798 H 3751.92 1.51042 0.596667 0
M  V30 39799 H 3753.92 2.04458 3.63321 0
M  V30 39800 H 3752.58 1.00158 3.08866 0
M  V30 39801 H 3753.59 4.6216 2.33727 0
M  V30 39802 H 3750.26 2.30744 3.47942 0
M  V30 39803 H 3751.65 6.23164 2.51228 0
M  V30 39804 N 3754.37 -0.647178 1.43699 0
M  V30 39805 C 3755.32 -1.75315 1.45769 0
M  V30 39806 C 3756.31 -1.57576 0.325388 0
M  V30 39807 O 3757.5 -1.67585 0.569593 0
M  V30 39808 C 3754.63 -3.13933 1.38928 0
M  V30 39809 C 3753.71 -3.37199 2.57211 0
M  V30 39810 N 3754.11 -3.30909 3.82535 0
M  V30 39811 C 3752.4 -3.6794 2.52064 0
M  V30 39812 C 3753.1 -3.54423 4.61259 0
M  V30 39813 N 3752.08 -3.76527 3.92082 0
M  V30 39814 H 3755.88 -1.68886 2.4053 0
M  V30 39815 H 3753.4 -0.849068 1.38436 0
M  V30 39816 H 3755.39 -3.93224 1.38494 0
M  V30 39817 H 3754.05 -3.2154 0.45192 0
M  V30 39818 H 3755.06 -3.10185 4.14736 0
M  V30 39819 H 3751.74 -3.82625 1.67045 0
M  V30 39820 H 3753.13 -3.55287 5.70281 0
M  V30 39821 N 3755.85 -1.3033 -0.886108 0
M  V30 39822 C 3756.82 -1.16597 -1.97326 0
M  V30 39823 C 3757.82 -0.0975305 -1.60504 0
M  V30 39824 O 3759.01 -0.345554 -1.70738 0
M  V30 39825 C 3756.14 -0.786103 -3.31713 0
M  V30 39826 H 3757.33 -2.13181 -2.10936 0
M  V30 39827 H 3754.88 -1.1371 -1.07236 0
M  V30 39828 H 3755.62 0.179277 -3.23804 0
M  V30 39829 H 3755.4 -1.55824 -3.59807 0
M  V30 39830 H 3756.89 -0.713462 -4.1146 0
M  V30 39831 N 3757.33 1.0983 -1.13028 0
M  V30 39832 C 3758.56 1.86231 -0.912836 0
M  V30 39833 C 3758.98 1.80393 0.532923 0
M  V30 39834 O 3758.34 1.17839 1.37781 0
M  V30 39835 C 3758.39 3.3231 -1.40008 0
M  V30 39836 O 3757.49 4.08264 -0.582609 0
M  V30 39837 H 3756.83 0.57763 -0.327475 0
M  V30 39838 H 3759.36 1.3872 -1.50392 0
M  V30 39839 H 3759.37 3.83159 -1.40189 0
M  V30 39840 H 3758.05 3.35876 -2.45276 0
M  V30 39841 H 3756.62 3.67221 -0.64832 0
M  V30 39842 N 3758.81 0.92314 1.27734 0
M  V30 39843 C 3759.74 0.435947 2.29394 0
M  V30 39844 C 3760.72 -0.501374 1.62543 0
M  V30 39845 O 3761.9 -0.407102 1.89885 0
M  V30 39846 C 3759.03 -0.316288 3.45857 0
M  V30 39847 C 3757.99 0.532772 4.24671 0
M  V30 39848 C 3757.31 -0.34836 5.33564 0
M  V30 39849 C 3758.61 1.7949 4.9049 0
M  V30 39850 H 3760.31 1.28556 2.70396 0
M  V30 39851 H 3757.85 0.619604 1.29988 0
M  V30 39852 H 3759.81 -0.668025 4.16071 0
M  V30 39853 H 3758.53 -1.19988 3.0376 0
M  V30 39854 H 3757.19 0.867155 3.56197 0
M  V30 39855 H 3756.84 -1.23078 4.8771 0
M  V30 39856 H 3756.54 0.216207 5.87202 0
M  V30 39857 H 3758.06 -0.695771 6.06623 0
M  V30 39858 H 3759.48 1.5115 5.53016 0
M  V30 39859 H 3757.87 2.3026 5.54166 0
M  V30 39860 H 3758.94 2.51714 4.14449 0
M  V30 39861 N 3760.29 -1.41783 0.688143 0
M  V30 39862 C 3761.54 -2.00571 0.21312 0
M  V30 39863 C 3761.85 -1.55103 -1.19173 0
M  V30 39864 O 3763.05 -2.064 -1.76383 0
M  V30 39865 C 3761.51 -3.58383 0.330138 0
M  V30 39866 C 3761.12 -4.12834 1.73989 0
M  V30 39867 C 3762.86 -4.24414 -0.0854905 0
M  V30 39868 C 3760.77 -5.63055 1.80896 0
M  V30 39869 H 3759.7 -0.750168 0.0759192 0
M  V30 39870 H 3762.35 -1.6235 0.855264 0
M  V30 39871 H 3760.73 -3.94171 -0.38013 0
M  V30 39872 H 3761.91 -3.88479 2.47831 0
M  V30 39873 H 3760.22 -3.59302 2.10454 0
M  V30 39874 H 3762.82 -5.34673 -0.0542202 0
M  V30 39875 H 3763.16 -4.00867 -1.123 0
M  V30 39876 H 3763.69 -3.93634 0.574238 0
M  V30 39877 H 3760.43 -5.91419 2.82674 0
M  V30 39878 H 3759.95 -5.89359 1.11427 0
M  V30 39879 H 3761.63 -6.27701 1.56846 0
M  V30 39880 N 3761.76 -0.432379 -1.51553 0
M  V30 39881 C 3763.04 0.195438 -1.94621 0
M  V30 39882 C 3763.42 1.60542 -1.37075 0
M  V30 39883 O 3762.77 2.21637 -0.55582 0
M  V30 39884 C 3762.98 0.178206 -3.48545 0
M  V30 39885 C 3764.33 0.386209 -4.2284 0
M  V30 39886 O 3765.35 0.256541 -3.55275 0
M  V30 39887 O 3764.21 0.643831 -5.42694 0
M  V30 39888 H 3761.3 0.132641 -0.816294 0
M  V30 39889 H 3763.85 -0.49 -1.62472 0
M  V30 39890 H 3762.62 -0.807726 -3.82873 0
M  V30 39891 H 3762.25 0.906764 -3.87122 0
M  V30 39892 N 3763.24 1.56749 -0.163565 0
M  V30 39893 C 3764.47 2.01454 0.493051 0
M  V30 39894 C 3764.89 1.04302 1.56533 0
M  V30 39895 O 3764.25 0.0213358 1.81287 0
M  V30 39896 C 3764.3 3.4481 1.0554 0
M  V30 39897 O 3763.4 3.5071 2.16971 0
M  V30 39898 H 3762.74 0.653269 0.118894 0
M  V30 39899 H 3765.27 2.02874 -0.265175 0
M  V30 39900 H 3765.28 3.83955 1.37995 0
M  V30 39901 H 3763.96 4.15021 0.27026 0
M  V30 39902 H 3762.54 3.23419 1.85619 0
M  V30 39903 N 3764.72 -0.110185 1.57214 0
M  V30 39904 C 3765.65 -1.13576 2.04017 0
M  V30 39905 C 3766.63 -1.4267 0.92624 0
M  V30 39906 O 3767.82 -1.5296 1.19653 0
M  V30 39907 C 3764.95 -2.45964 2.45192 0
M  V30 39908 C 3763.9 -2.31312 3.60109 0
M  V30 39909 C 3763.23 -3.68743 3.87212 0
M  V30 39910 C 3764.53 -1.76626 4.91529 0
M  V30 39911 H 3766.22 -0.746445 2.89946 0
M  V30 39912 H 3763.77 -0.357617 1.39489 0
M  V30 39913 H 3765.72 -3.17968 2.7654 0
M  V30 39914 H 3764.44 -2.86802 1.56243 0
M  V30 39915 H 3763.1 -1.61756 3.28984 0
M  V30 39916 H 3762.75 -4.07081 2.95455 0
M  V30 39917 H 3762.45 -3.5979 4.6457 0
M  V30 39918 H 3763.97 -4.42238 4.2102 0
M  V30 39919 H 3765.39 -2.38456 5.21356 0
M  V30 39920 H 3763.79 -1.78472 5.72947 0
M  V30 39921 H 3764.86 -0.724489 4.79457 0
M  V30 39922 N 3766.2 -1.52935 -0.38061 0
M  V30 39923 C 3767.13 -1.81282 -1.47171 0
M  V30 39924 C 3768.11 -0.665347 -1.56548 0
M  V30 39925 O 3769.29 -0.913752 -1.7136 0
M  V30 39926 C 3766.42 -1.98923 -2.84687 0
M  V30 39927 C 3765.38 -3.14642 -2.90145 0
M  V30 39928 C 3764.7 -3.17551 -4.30192 0
M  V30 39929 C 3766 -4.53543 -2.59029 0
M  V30 39930 H 3767.7 -2.72652 -1.23698 0
M  V30 39931 H 3765.24 -1.31195 -0.593631 0
M  V30 39932 H 3767.2 -2.17336 -3.6103 0
M  V30 39933 H 3765.92 -1.04249 -3.09515 0
M  V30 39934 H 3764.58 -2.96025 -2.16251 0
M  V30 39935 H 3764.23 -2.20544 -4.52072 0
M  V30 39936 H 3763.93 -3.95291 -4.34763 0
M  V30 39937 H 3765.45 -3.3813 -5.08429 0
M  V30 39938 H 3766.87 -4.72219 -3.25088 0
M  V30 39939 H 3765.26 -5.33413 -2.74937 0
M  V30 39940 H 3766.33 -4.59684 -1.54334 0
M  V30 39941 N 3767.68 0.639548 -1.4404 0
M  V30 39942 C 3768.63 1.7454 -1.46696 0
M  V30 39943 C 3769.61 1.57401 -0.33374 0
M  V30 39944 O 3770.8 1.6728 -0.578472 0
M  V30 39945 C 3767.93 3.13192 -1.40591 0
M  V30 39946 C 3767.02 3.3583 -2.58996 0
M  V30 39947 N 3767.41 3.28875 -3.84284 0
M  V30 39948 C 3765.71 3.66598 -2.54012 0
M  V30 39949 C 3766.41 3.51972 -4.63132 0
M  V30 39950 N 3765.38 3.74442 -3.94074 0
M  V30 39951 H 3769.19 1.67608 -2.41422 0
M  V30 39952 H 3766.7 0.841715 -1.38885 0
M  V30 39953 H 3768.7 3.92484 -1.40577 0
M  V30 39954 H 3767.36 3.21296 -0.468966 0
M  V30 39955 H 3768.37 3.07981 -4.16375 0
M  V30 39956 H 3765.04 3.81734 -1.69072 0
M  V30 39957 H 3766.43 3.52258 -5.72157 0
M  V30 39958 N 3769.15 1.30798 0.879184 0
M  V30 39959 C 3770.38 1.22894 1.66447 0
M  V30 39960 C 3770.8 -0.207273 1.87659 0
M  V30 39961 O 3770.15 -1.13617 1.4282 0
M  V30 39962 C 3770.21 1.95987 3.03762 0
M  V30 39963 O 3769.93 3.34002 2.83504 0
M  V30 39964 C 3771.43 1.94811 3.982 0
M  V30 39965 H 3768.65 0.42504 0.519213 0
M  V30 39966 H 3771.19 1.72521 1.09804 0
M  V30 39967 H 3769.35 1.50145 3.57121 0
M  V30 39968 H 3769.76 3.71098 3.70657 0
M  V30 39969 H 3771.23 2.50482 4.91897 0
M  V30 39970 H 3771.71 0.928412 4.29275 0
M  V30 39971 H 3772.32 2.40491 3.50776 0
M  V30 39972 N 3770.63 -1.09229 1.13608 0
M  V30 39973 C 3771.88 -1.81715 0.900418 0
M  V30 39974 C 3772.21 -1.85587 -0.571952 0
M  V30 39975 O 3771.49 -1.32557 -1.42334 0
M  V30 39976 C 3771.77 -3.2776 1.49149 0
M  V30 39977 C 3771.62 -3.32148 3.03311 0
M  V30 39978 C 3772.94 -4.245 1.16137 0
M  V30 39979 H 3770.06 -0.659719 0.328543 0
M  V30 39980 H 3772.7 -1.27939 1.4047 0
M  V30 39981 H 3770.85 -3.73685 1.06262 0
M  V30 39982 H 3772.53 -2.94611 3.54968 0
M  V30 39983 H 3770.77 -2.71671 3.38197 0
M  V30 39984 H 3771.44 -4.35041 3.39769 0
M  V30 39985 H 3773.92 -3.86871 1.53199 0
M  V30 39986 H 3772.79 -5.25021 1.60139 0
M  V30 39987 H 3773.05 -4.42036 0.075375 0
M  V30 39988 N 3772.11 -0.929901 -1.27242 0
M  V30 39989 C 3773.34 -0.587028 -1.98085 0
M  V30 39990 C 3773.75 0.839769 -1.69542 0
M  V30 39991 O 3773.09 1.57001 -0.953752 0
M  V30 39992 C 3773.15 -0.735718 -3.51891 0
M  V30 39993 C 3772.82 -2.13504 -4.0406 0
M  V30 39994 C 3773.82 -3.10943 -4.16666 0
M  V30 39995 C 3771.5 -2.45258 -4.38353 0
M  V30 39996 C 3773.49 -4.38243 -4.62841 0
M  V30 39997 C 3771.18 -3.72793 -4.84219 0
M  V30 39998 C 3772.18 -4.69099 -4.96422 0
M  V30 39999 O 3771.87 -5.94365 -5.41282 0
M  V30 40000 H 3771.6 -0.221039 -0.638841 0
M  V30 40001 H 3774.15 -1.24976 -1.63004 0
M  V30 40002 H 3772.38 -0.0158796 -3.86697 0
M  V30 40003 H 3774.07 -0.397576 -4.03948 0
M  V30 40004 H 3774.84 -2.87733 -3.90429 0
M  V30 40005 H 3770.72 -1.7104 -4.28096 0
M  V30 40006 H 3774.26 -5.13417 -4.72281 0
M  V30 40007 H 3770.16 -3.95821 -5.09898 0
M  V30 40008 H 3770.93 -5.97384 -5.5953 0
M  V30 40009 N 3773.59 1.41416 -0.695653 0
M  V30 40010 C 3775.01 1.55318 -0.367212 0
M  V30 40011 C 3775.21 1.67116 1.12581 0
M  V30 40012 O 3774.26 1.64963 1.91164 0
M  V30 40013 C 3775.57 2.79231 -1.11581 0
M  V30 40014 C 3777.12 2.93028 -1.10017 0
M  V30 40015 C 3777.6 4.19829 -1.83051 0
M  V30 40016 N 3779.09 4.26786 -1.80021 0
M  V30 40017 C 3779.82 5.23761 -2.33371 0
M  V30 40018 N 3779.32 6.26764 -2.95193 0
M  V30 40019 N 3781.11 5.15701 -2.23627 0
M  V30 40020 H 3773.26 1.32003 -1.664 0
M  V30 40021 H 3775.53 0.636865 -0.702216 0
M  V30 40022 H 3775.23 2.76723 -2.17065 0
M  V30 40023 H 3775.11 3.70752 -0.69445 0
M  V30 40024 H 3777.49 2.95051 -0.0535954 0
M  V30 40025 H 3777.57 2.0268 -1.56059 0
M  V30 40026 H 3777.22 4.18567 -2.87688 0
M  V30 40027 H 3777.15 5.09149 -1.34443 0
M  V30 40028 H 3779.64 3.52983 -1.34949 0
M  V30 40029 H 3779.95 6.9715 -3.33469 0
M  V30 40030 H 3778.3 6.27266 -2.9927 0
M  V30 40031 H 3781.49 4.34157 -1.75002 0
M  V30 40032 H 3781.66 5.91109 -2.65508 0
M  V30 40033 N 3775.07 0.44041 1.51321 0
M  V30 40034 C 3776 -0.359972 2.30709 0
M  V30 40035 C 3776.98 -1.01826 1.36255 0
M  V30 40036 O 3778.16 -1.02131 1.65175 0
M  V30 40037 C 3775.29 -1.45972 3.15134 0
M  V30 40038 C 3774.25 -0.924752 4.1789 0
M  V30 40039 C 3773.57 -2.12048 4.90856 0
M  V30 40040 C 3774.87 0.042928 5.22282 0
M  V30 40041 H 3776.57 0.302533 2.97868 0
M  V30 40042 H 3774.11 0.146939 1.43248 0
M  V30 40043 H 3776.07 -2.02688 3.69453 0
M  V30 40044 H 3774.79 -2.15056 2.45802 0
M  V30 40045 H 3773.45 -0.379778 3.64628 0
M  V30 40046 H 3773.1 -2.79758 4.18024 0
M  V30 40047 H 3772.8 -1.7689 5.60343 0
M  V30 40048 H 3774.32 -2.69312 5.47999 0
M  V30 40049 H 3775.74 -0.434036 5.71655 0
M  V30 40050 H 3774.13 0.307232 5.99313 0
M  V30 40051 H 3775.2 0.978641 4.74922 0
M  V30 40052 N 3776.55 -1.5666 0.171876 0
M  V30 40053 C 3777.77 -2.01713 -0.482361 0
M  V30 40054 C 3778.2 -1.05131 -1.55978 0
M  V30 40055 O 3777.55 -0.0309496 -1.81274 0
M  V30 40056 C 3777.6 -3.45364 -1.0371 0
M  V30 40057 O 3776.71 -3.51856 -2.15108 0
M  V30 40058 H 3776.05 -0.65389 -0.115428 0
M  V30 40059 H 3778.58 -2.02731 0.27593 0
M  V30 40060 H 3778.59 -3.84681 -1.35957 0
M  V30 40061 H 3777.26 -4.15158 -0.248247 0
M  V30 40062 H 3775.84 -3.24399 -1.83901 0
M  V30 40063 N 3778.02 0.101846 -1.57271 0
M  V30 40064 C 3778.97 1.12403 -2.01579 0
M  V30 40065 C 3779.94 1.40186 -0.890908 0
M  V30 40066 O 3781.13 1.51762 -1.15641 0
M  V30 40067 C 3778.27 2.44088 -2.43957 0
M  V30 40068 C 3777.38 2.23095 -3.69936 0
M  V30 40069 C 3776.51 3.48131 -4.01221 0
M  V30 40070 C 3775.55 3.22369 -5.20331 0
M  V30 40071 N 3774.69 4.39654 -5.47402 0
M  V30 40072 H 3779.53 0.739193 -2.88687 0
M  V30 40073 H 3777.07 0.353472 -1.4279 0
M  V30 40074 H 3779.02 3.20932 -2.66569 0
M  V30 40075 H 3777.65 2.80432 -1.59868 0
M  V30 40076 H 3776.71 1.37086 -3.5484 0
M  V30 40077 H 3778.02 2.00046 -4.56928 0
M  V30 40078 H 3777.17 4.33385 -4.24573 0
M  V30 40079 H 3775.91 3.74227 -3.12738 0
M  V30 40080 H 3774.92 2.35508 -4.96806 0
M  V30 40081 H 3776.14 2.97626 -6.10406 0
M  V30 40082 H 3774.09 4.65839 -4.61877 0
M  V30 40083 H 3774 4.19772 -6.28751 0
M  V30 40084 H 3775.27 5.25992 -5.75285 0
M  V30 40085 N 3779.5 1.53135 0.372494 0
M  V30 40086 C 3780.75 1.68648 1.11366 0
M  V30 40087 C 3781.07 0.437309 1.90033 0
M  V30 40088 O 3780.34 -0.54856 1.88063 0
M  V30 40089 H 3778.92 0.621703 0.414118 0
M  V30 40090 H 3781.58 1.90303 0.420786 0
M  V30 40091 H 3780.68 2.54444 1.80734 0
M  V30 40092 N 3780.98 -0.6319 1.44377 0
M  V30 40093 C 3782.22 -1.40304 1.48641 0
M  V30 40094 C 3782.58 -1.91652 0.115592 0
M  V30 40095 O 3783.78 -2.6878 0.0329023 0
M  V30 40096 C 3782.06 -2.53768 2.51667 0
M  V30 40097 S 3783.61 -3.41959 2.74972 0
M  V30 40098 H 3780.43 -0.47866 0.525743 0
M  V30 40099 H 3783.03 -0.7316 1.81295 0
M  V30 40100 H 3781.74 -2.14355 3.49971 0
M  V30 40101 H 3781.27 -3.25741 2.20583 0
M  V30 40102 H 3783.28 -4.51186 2.06509 0
M  V30 40103 N 3782.46 -1.31262 -0.872235 0
M  V30 40104 C 3783.68 -1.23908 -1.66318 0
M  V30 40105 C 3784.11 0.192845 -1.87109 0
M  V30 40106 O 3783.47 1.13817 -1.41122 0
M  V30 40107 C 3783.51 -1.98611 -3.00975 0
M  V30 40108 O 3782.62 -1.3219 -3.9064 0
M  V30 40109 H 3781.96 -0.427911 -0.507728 0
M  V30 40110 H 3784.49 -1.73294 -1.08767 0
M  V30 40111 H 3784.5 -2.08119 -3.50928 0
M  V30 40112 H 3783.17 -3.02746 -2.85163 0
M  V30 40113 H 3781.75 -1.31118 -3.49088 0
M  V30 40114 N 3783.94 1.08625 -1.14186 0
M  V30 40115 C 3784.87 2.17499 -0.849493 0
M  V30 40116 C 3785.85 1.68983 0.194587 0
M  V30 40117 O 3787.03 1.94131 0.0517416 0
M  V30 40118 C 3784.16 3.45788 -0.323746 0
M  V30 40119 C 3783.12 4.07683 -1.30302 0
M  V30 40120 C 3782.44 5.30896 -0.636669 0
M  V30 40121 C 3783.74 4.49224 -2.66449 0
M  V30 40122 H 3785.44 2.42214 -1.75991 0
M  V30 40123 H 3782.98 1.16411 -0.847616 0
M  V30 40124 H 3784.93 4.21265 -0.106828 0
M  V30 40125 H 3783.66 3.20621 0.622093 0
M  V30 40126 H 3782.32 3.34235 -1.50607 0
M  V30 40127 H 3781.97 5.02013 0.314906 0
M  V30 40128 H 3781.67 5.73263 -1.29008 0
M  V30 40129 H 3783.19 6.0909 -0.429224 0
M  V30 40130 H 3784.6 5.15888 -2.50064 0
M  V30 40131 H 3783 5.02502 -3.28042 0
M  V30 40132 H 3784.07 3.61221 -3.23493 0
M  V30 40133 N 3785.41 0.936635 1.26747 0
M  V30 40134 C 3786.64 0.598392 1.98058 0
M  V30 40135 C 3787.06 -0.825616 1.69791 0
M  V30 40136 O 3786.41 -1.54991 0.963542 0
M  V30 40137 C 3786.47 0.825581 3.51947 0
M  V30 40138 O 3786.19 2.19358 3.79228 0
M  V30 40139 C 3787.69 0.497264 4.40502 0
M  V30 40140 H 3784.91 0.225925 0.631822 0
M  V30 40141 H 3787.45 1.2561 1.61376 0
M  V30 40142 H 3785.61 0.214547 3.86805 0
M  V30 40143 H 3786.02 2.25022 4.73778 0
M  V30 40144 H 3787.49 0.706875 5.47455 0
M  V30 40145 H 3787.97 -0.567569 4.35517 0
M  V30 40146 H 3788.58 1.08683 4.11179 0
M  V30 40147 N 3786.89 -1.41045 0.703143 0
M  V30 40148 C 3787.84 -2.30761 0.0426172 0
M  V30 40149 C 3788.81 -1.47519 -0.76338 0
M  V30 40150 O 3789.99 -1.76288 -0.729869 0
M  V30 40151 C 3787.13 -3.33631 -0.882295 0
M  V30 40152 C 3786.25 -4.31948 -0.0671039 0
M  V30 40153 C 3785.38 -5.21886 -0.990351 0
M  V30 40154 C 3784.42 -6.11868 -0.168514 0
M  V30 40155 N 3783.56 -6.94265 -1.04597 0
M  V30 40156 H 3788.4 -2.86684 0.813414 0
M  V30 40157 H 3785.94 -1.41188 0.412829 0
M  V30 40158 H 3787.89 -3.9183 -1.43266 0
M  V30 40159 H 3786.52 -2.7924 -1.61941 0
M  V30 40160 H 3785.58 -3.75634 0.600285 0
M  V30 40161 H 3786.89 -4.95536 0.569711 0
M  V30 40162 H 3786.04 -5.84956 -1.60969 0
M  V30 40163 H 3784.78 -4.58543 -1.66101 0
M  V30 40164 H 3783.79 -5.4784 0.463842 0
M  V30 40165 H 3785.01 -6.77268 0.498459 0
M  V30 40166 H 3782.96 -6.33522 -1.70251 0
M  V30 40167 H 3782.87 -7.54569 -0.464903 0
M  V30 40168 H 3784.14 -7.61796 -1.65188 0
M  V30 40169 N 3788.37 -0.448429 -1.51086 0
M  V30 40170 C 3789.33 0.34586 -2.26575 0
M  V30 40171 C 3790.33 0.940155 -1.30452 0
M  V30 40172 O 3791.52 0.812871 -1.54072 0
M  V30 40173 C 3788.66 1.4904 -3.06594 0
M  V30 40174 H 3789.85 -0.315875 -2.98232 0
M  V30 40175 H 3787.4 -0.201878 -1.54991 0
M  V30 40176 H 3788.14 2.18786 -2.39381 0
M  V30 40177 H 3787.92 1.07031 -3.77209 0
M  V30 40178 H 3789.41 2.05129 -3.63747 0
M  V30 40179 N 3789.85 1.56567 -0.180181 0
M  V30 40180 C 3790.78 2.15584 0.778212 0
M  V30 40181 C 3791.79 1.11372 1.18744 0
M  V30 40182 O 3792.98 1.38525 1.12575 0
M  V30 40183 C 3790.08 2.6909 2.0602 0
M  V30 40184 C 3789.26 3.9805 1.81313 0
M  V30 40185 C 3788.31 4.36531 2.93815 0
M  V30 40186 O 3787.34 5.0424 2.64066 0
M  V30 40187 N 3788.54 3.98813 4.21816 0
M  V30 40188 H 3791.31 2.98448 0.273608 0
M  V30 40189 H 3788.87 1.619 0.00230106 0
M  V30 40190 H 3790.86 2.91825 2.80393 0
M  V30 40191 H 3789.43 1.90764 2.47645 0
M  V30 40192 H 3788.65 3.83601 0.907978 0
M  V30 40193 H 3789.94 4.82259 1.62185 0
M  V30 40194 H 3789.34 3.44321 4.48842 0
M  V30 40195 H 3787.89 4.26531 4.92864 0
M  V30 40196 N 3791.33 -0.0935042 1.57322 0
M  V30 40197 C 3792.74 -0.447755 1.5319 0
M  V30 40198 C 3792.94 -1.80426 0.897139 0
M  V30 40199 O 3792 -2.47693 0.490329 0
M  V30 40200 C 3793.31 -0.40878 2.97909 0
M  V30 40201 C 3794.86 -0.490522 3.09132 0
M  V30 40202 C 3795.33 -0.481679 4.5546 0
M  V30 40203 N 3796.83 -0.542387 4.60013 0
M  V30 40204 C 3797.56 -0.557409 5.70684 0
M  V30 40205 N 3797.06 -0.528542 6.90781 0
M  V30 40206 N 3798.85 -0.60234 5.58863 0
M  V30 40207 H 3791 0.795 1.96961 0
M  V30 40208 H 3793.26 0.29608 0.900578 0
M  V30 40209 H 3792.97 0.520827 3.47822 0
M  V30 40210 H 3792.84 -1.22716 3.5668 0
M  V30 40211 H 3795.23 -1.41055 2.59206 0
M  V30 40212 H 3795.31 0.356027 2.5331 0
M  V30 40213 H 3794.96 0.434409 5.06039 0
M  V30 40214 H 3794.89 -1.34546 5.09122 0
M  V30 40215 H 3797.38 -0.569826 3.73579 0
M  V30 40216 H 3797.69 -0.543332 7.70888 0
M  V30 40217 H 3796.03 -0.495566 6.93231 0
M  V30 40218 H 3799.23 -0.622432 4.63943 0
M  V30 40219 H 3799.4 -0.610578 6.45117 0
M  V30 40220 N 3792.8 -1.5333 -0.364368 0
M  V30 40221 C 3794.08 -1.60176 -1.12263 0
M  V30 40222 C 3794.46 -0.410051 -2.07079 0
M  V30 40223 O 3793.81 0.599592 -2.20493 0
M  V30 40224 C 3794.02 -2.95263 -1.86066 0
M  V30 40225 C 3795.37 -3.49883 -2.40556 0
M  V30 40226 O 3796.39 -2.97301 -1.96191 0
M  V30 40227 O 3795.25 -4.4181 -3.21662 0
M  V30 40228 H 3792.34 -0.647033 -0.515051 0
M  V30 40229 H 3794.89 -1.65672 -0.367534 0
M  V30 40230 H 3793.66 -3.73439 -1.16873 0
M  V30 40231 H 3793.29 -2.93264 -2.68481 0
M  V30 40232 N 3794.28 0.624234 -1.4471 0
M  V30 40233 C 3795.51 1.41562 -1.51575 0
M  V30 40234 C 3795.93 1.87549 -0.143839 0
M  V30 40235 O 3795.29 1.59153 0.868333 0
M  V30 40236 C 3795.34 2.60743 -2.49089 0
M  V30 40237 O 3794.44 3.60813 -1.99719 0
M  V30 40238 H 3793.78 0.423302 -0.511578 0
M  V30 40239 H 3796.31 0.761282 -1.8991 0
M  V30 40240 H 3796.32 3.082 -2.67351 0
M  V30 40241 H 3795 2.26618 -3.48737 0
M  V30 40242 H 3793.58 3.20118 -1.91255 0
M  V30 40243 N 3795.76 1.31723 0.865262 0
M  V30 40244 C 3797.01 1.21036 1.61348 0
M  V30 40245 C 3797.32 -0.229107 1.94254 0
M  V30 40246 O 3798.53 -0.457724 2.67614 0
M  V30 40247 C 3796.98 2.11917 2.90894 0
M  V30 40248 C 3796.59 3.60886 2.65453 0
M  V30 40249 C 3798.34 2.10041 3.68894 0
M  V30 40250 C 3796.24 4.4376 3.90936 0
M  V30 40251 H 3795.17 0.449438 0.60541 0
M  V30 40252 H 3797.82 1.56611 0.956307 0
M  V30 40253 H 3796.21 1.69245 3.58011 0
M  V30 40254 H 3797.38 4.11832 2.06714 0
M  V30 40255 H 3795.7 3.64785 2.008 0
M  V30 40256 H 3798.29 2.69201 4.6199 0
M  V30 40257 H 3798.64 1.08872 4.01812 0
M  V30 40258 H 3799.17 2.50937 3.08667 0
M  V30 40259 H 3795.91 5.45702 3.63166 0
M  V30 40260 H 3795.43 3.97569 4.49109 0
M  V30 40261 H 3797.11 4.56216 4.58776 0
M  V30 40262 N 3797.24 -1.08018 1.14761 0
M  V30 40263 C 3798.15 -2.18583 0.851972 0
M  V30 40264 C 3799.16 -1.73176 -0.16911 0
M  V30 40265 O 3800.34 -2.014 0.00333654 0
M  V30 40266 C 3797.41 -3.45048 0.338038 0
M  V30 40267 C 3796.47 -4.05059 1.42217 0
M  V30 40268 C 3795.7 -5.25487 0.932666 0
M  V30 40269 O 3795.92 -5.69959 -0.224356 0
M  V30 40270 O 3794.86 -5.76998 1.7134 0
M  V30 40271 H 3798.68 -2.4635 1.77609 0
M  V30 40272 H 3796.27 -1.17227 0.926179 0
M  V30 40273 H 3798.15 -4.21361 0.0575474 0
M  V30 40274 H 3796.82 -3.18849 -0.558307 0
M  V30 40275 H 3795.73 -3.30317 1.75618 0
M  V30 40276 H 3797.06 -4.35516 2.29318 0
M  V30 40277 N 3798.72 -0.943344 -1.26249 0
M  V30 40278 C 3799.96 -0.592943 -1.93938 0
M  V30 40279 C 3800.3 0.866125 -1.73816 0
M  V30 40280 O 3799.57 1.61995 -1.07647 0
M  V30 40281 C 3799.85 -0.938662 -3.47651 0
M  V30 40282 C 3799.71 -2.45263 -3.77049 0
M  V30 40283 C 3801.03 -0.455623 -4.37735 0
M  V30 40284 H 3798.14 -0.216892 -0.704363 0
M  V30 40285 H 3800.79 -1.17796 -1.49078 0
M  V30 40286 H 3798.94 -0.440824 -3.85991 0
M  V30 40287 H 3800.61 -3.02336 -3.48411 0
M  V30 40288 H 3798.85 -2.89518 -3.2305 0
M  V30 40289 H 3799.52 -2.64504 -4.84502 0
M  V30 40290 H 3802 -0.882506 -4.06634 0
M  V30 40291 H 3800.87 -0.726325 -5.44073 0
M  V30 40292 H 3801.14 0.644431 -4.37378 0
M  V30 40293 N 3800.2 1.4067 -0.710613 0
M  V30 40294 C 3801.44 2.02836 -0.252339 0
M  V30 40295 C 3801.8 1.55115 1.13152 0
M  V30 40296 O 3803 2.0931 1.68649 0
M  V30 40297 C 3801.27 3.55929 -0.323964 0
M  V30 40298 S 3802.83 4.38762 0.0580545 0
M  V30 40299 H 3799.65 0.703867 -0.100461 0
M  V30 40300 H 3802.25 1.71869 -0.931729 0
M  V30 40301 H 3800.95 3.88153 -1.33286 0
M  V30 40302 H 3800.49 3.91617 0.374071 0
M  V30 40303 H 3802.5 4.79365 1.28153 0
M  V30 40304 N 3801.67 0.456435 1.50846 0
M  V30 40305 C 3802.6 -0.335482 2.31077 0
M  V30 40306 C 3803.58 -1.00375 1.37328 0
M  V30 40307 O 3804.77 -1.00373 1.66249 0
M  V30 40308 C 3801.9 -1.42621 3.16665 0
M  V30 40309 C 3800.85 -0.880377 4.18848 0
M  V30 40310 C 3800.18 -2.0683 4.93078 0
M  V30 40311 C 3801.48 0.0983206 5.22207 0
M  V30 40312 H 3803.17 0.334109 2.9753 0
M  V30 40313 H 3800.72 0.162124 1.43084 0
M  V30 40314 H 3802.67 -1.98758 3.71582 0
M  V30 40315 H 3801.4 -2.12436 2.48069 0
M  V30 40316 H 3800.06 -0.341083 3.6501 0
M  V30 40317 H 3799.7 -2.75309 4.20968 0
M  V30 40318 H 3799.4 -1.70937 5.62187 0
M  V30 40319 H 3800.93 -2.63485 5.50825 0
M  V30 40320 H 3802.34 -0.37338 5.72083 0
M  V30 40321 H 3800.74 0.370779 5.98953 0
M  V30 40322 H 3801.81 1.02896 4.73857 0
M  V30 40323 N 3803.15 -1.56469 0.188482 0
M  V30 40324 C 3804.08 -2.21784 -0.73034 0
M  V30 40325 C 3805.06 -1.17884 -1.22627 0
M  V30 40326 O 3806.25 -1.46369 -1.27631 0
M  V30 40327 C 3803.38 -2.87203 -1.95273 0
M  V30 40328 C 3802.33 -3.97291 -1.59198 0
M  V30 40329 C 3801.66 -4.49842 -2.89044 0
M  V30 40330 C 3802.96 -5.16029 -0.806936 0
M  V30 40331 H 3804.65 -2.98823 -0.185862 0
M  V30 40332 H 3802.2 -1.43731 -0.0879552 0
M  V30 40333 H 3804.15 -3.31576 -2.60068 0
M  V30 40334 H 3802.87 -2.0756 -2.52163 0
M  V30 40335 H 3801.53 -3.53599 -0.967651 0
M  V30 40336 H 3801.18 -3.66969 -3.4401 0
M  V30 40337 H 3800.88 -5.2412 -2.65654 0
M  V30 40338 H 3802.41 -4.96912 -3.54839 0
M  V30 40339 H 3803.82 -5.56988 -1.35784 0
M  V30 40340 H 3802.22 -5.96332 -0.671412 0
M  V30 40341 H 3803.29 -4.84514 0.193336 0
M  V30 40342 N 3804.63 0.0851597 -1.5737 0
M  V30 40343 C 3805.85 0.803949 -1.91184 0
M  V30 40344 C 3806.28 1.70997 -0.78368 0
M  V30 40345 O 3805.64 1.79364 0.264235 0
M  V30 40346 C 3805.69 1.5849 -3.23903 0
M  V30 40347 O 3804.79 2.6946 -3.12194 0
M  V30 40348 H 3804.13 0.220222 -0.626417 0
M  V30 40349 H 3806.66 0.0574067 -2.04519 0
M  V30 40350 H 3806.67 1.96701 -3.57453 0
M  V30 40351 H 3805.35 0.920039 -4.05596 0
M  V30 40352 H 3803.92 2.34205 -2.90177 0
M  V30 40353 N 3806.11 1.53521 0.356231 0
M  V30 40354 C 3807.36 1.69374 1.09523 0
M  V30 40355 C 3807.67 0.456945 1.90188 0
M  V30 40356 O 3808.88 0.496188 2.66927 0
M  V30 40357 C 3807.33 2.99454 1.99637 0
M  V30 40358 C 3806.94 4.30428 1.2424 0
M  V30 40359 C 3808.68 3.24674 2.73472 0
M  V30 40360 C 3806.59 5.51591 2.13311 0
M  V30 40361 H 3805.52 0.631104 0.412583 0
M  V30 40362 H 3808.17 1.80022 0.355571 0
M  V30 40363 H 3806.55 2.82632 2.77372 0
M  V30 40364 H 3807.73 4.57913 0.515042 0
M  V30 40365 H 3806.04 4.11724 0.622282 0
M  V30 40366 H 3808.64 4.12383 3.40359 0
M  V30 40367 H 3808.98 2.41136 3.39351 0
M  V30 40368 H 3809.52 3.42214 2.02817 0
M  V30 40369 H 3806.25 6.37635 1.51994 0
M  V30 40370 H 3805.77 5.28373 2.83871 0
M  V30 40371 H 3807.45 5.86743 2.72656 0
M  V30 40372 N 3807.59 -0.616551 1.45039 0
M  V30 40373 C 3808.83 -1.3872 1.5012 0
M  V30 40374 C 3809.19 -1.91518 0.135913 0
M  V30 40375 O 3810.39 -2.6873 0.0614082 0
M  V30 40376 C 3808.66 -2.51085 2.54345 0
M  V30 40377 S 3810.22 -3.39023 2.78583 0
M  V30 40378 H 3807.04 -0.473057 0.53079 0
M  V30 40379 H 3809.64 -0.71233 1.82061 0
M  V30 40380 H 3808.34 -2.10631 3.52225 0
M  V30 40381 H 3807.88 -3.23383 2.24025 0
M  V30 40382 H 3809.89 -4.4897 2.11283 0
M  V30 40383 N 3809.06 -1.3218 -0.858264 0
M  V30 40384 C 3810.31 -1.22293 -1.609 0
M  V30 40385 C 3810.63 0.216193 -1.93798 0
M  V30 40386 O 3809.9 1.14 -1.59314 0
M  V30 40387 H 3808.48 -0.449634 -0.596521 0
M  V30 40388 H 3811.14 -1.65657 -1.02683 0
M  V30 40389 H 3810.24 -1.80299 -2.54752 0
M  V30 40390 N 3810.54 1.07407 -1.15332 0
M  V30 40391 C 3811.47 2.14511 -0.807327 0
M  V30 40392 C 3812.49 1.61797 0.180402 0
M  V30 40393 O 3813.68 1.78449 -0.0427644 0
M  V30 40394 C 3810.78 3.38425 -0.179397 0
M  V30 40395 C 3809.95 4.20491 -1.20441 0
M  V30 40396 C 3809.01 5.22787 -0.59836 0
M  V30 40397 O 3808.03 5.54985 -1.26415 0
M  V30 40398 N 3809.24 5.77178 0.620182 0
M  V30 40399 H 3812 2.44794 -1.72905 0
M  V30 40400 H 3809.56 1.23309 -1.04912 0
M  V30 40401 H 3811.55 4.03995 0.238796 0
M  V30 40402 H 3810.12 3.0586 0.645652 0
M  V30 40403 H 3809.34 3.50747 -1.79918 0
M  V30 40404 H 3810.63 4.72134 -1.8965 0
M  V30 40405 H 3810.03 5.53267 1.17948 0
M  V30 40406 H 3808.59 6.44379 0.98074 0
M  V30 40407 N 3812.02 0.950026 1.25747 0
M  V30 40408 C 3812.95 0.484507 2.28418 0
M  V30 40409 C 3813.93 -0.466784 1.6357 0
M  V30 40410 O 3815.12 -0.366733 1.90706 0
M  V30 40411 C 3812.25 -0.242855 3.4645 0
M  V30 40412 C 3811.2 0.622731 4.23445 0
M  V30 40413 C 3810.53 -0.235105 5.34183 0
M  V30 40414 C 3811.83 1.89853 4.86573 0
M  V30 40415 H 3813.52 1.34262 2.67608 0
M  V30 40416 H 3811.07 0.647037 1.28645 0
M  V30 40417 H 3813.02 -0.57962 4.17395 0
M  V30 40418 H 3811.74 -1.13518 3.06237 0
M  V30 40419 H 3810.4 0.942515 3.54277 0
M  V30 40420 H 3810.05 -1.12705 4.90211 0
M  V30 40421 H 3809.75 0.340712 5.86611 0
M  V30 40422 H 3811.27 -0.566941 6.07962 0
M  V30 40423 H 3812.69 1.62846 5.49685 0
M  V30 40424 H 3811.08 2.41963 5.49157 0
M  V30 40425 H 3812.15 2.60448 4.09017 0
M  V30 40426 N 3813.5 -1.40291 0.718063 0
M  V30 40427 C 3814.91 -1.54714 0.391875 0
M  V30 40428 C 3815.11 -1.68886 -1.09908 0
M  V30 40429 O 3814.17 -1.67983 -1.88515 0
M  V30 40430 C 3815.48 -2.77421 1.16009 0
M  V30 40431 C 3817.03 -2.91241 1.14664 0
M  V30 40432 C 3817.51 -4.16863 1.89707 0
M  V30 40433 N 3819 -4.23868 1.86788 0
M  V30 40434 C 3819.73 -5.19982 2.41674 0
M  V30 40435 N 3819.23 -6.21988 3.05127 0
M  V30 40436 N 3821.02 -5.12078 2.31803 0
M  V30 40437 H 3813.17 -1.29339 1.68479 0
M  V30 40438 H 3815.43 -0.625612 0.712259 0
M  V30 40439 H 3815.14 -2.73235 2.2144 0
M  V30 40440 H 3815.01 -3.69601 0.753345 0
M  V30 40441 H 3817.4 -2.94929 0.100529 0
M  V30 40442 H 3817.48 -2.00172 1.59263 0
M  V30 40443 H 3817.13 -4.13937 2.9431 0
M  V30 40444 H 3817.06 -5.06946 1.42527 0
M  V30 40445 H 3819.55 -3.50792 1.40547 0
M  V30 40446 H 3819.86 -6.91757 3.44518 0
M  V30 40447 H 3818.21 -6.22425 3.09212 0
M  V30 40448 H 3821.4 -4.31318 1.81887 0
M  V30 40449 H 3821.57 -5.8681 2.74878 0
M  V30 40450 N 3814.98 -0.464428 -1.50602 0
M  V30 40451 C 3816.39 -0.00770867 -1.86698 0
M  V30 40452 C 3816.74 1.39492 -1.37973 0
M  V30 40453 O 3815.86 2.03286 -0.741879 0
M  V30 40454 C 3816.46 -0.00721278 -3.38799 0
M  V30 40455 C 3815.02 0.394012 -3.74332 0
M  V30 40456 C 3814.16 -0.395543 -2.74464 0
M  V30 40457 H 3817.12 -0.679021 -1.4344 0
M  V30 40458 H 3817.14 0.796431 -3.72072 0
M  V30 40459 H 3816.65 -1.02818 -3.74233 0
M  V30 40460 H 3814.75 1.41958 -3.44498 0
M  V30 40461 H 3814.86 0.0999861 -4.78996 0
M  V30 40462 H 3813.23 0.149858 -2.54259 0
M  V30 40463 H 3814.01 -1.4159 -3.12741 0
M  V30 40464 N 3816.45 1.56367 -0.196777 0
M  V30 40465 C 3817.68 2.02455 0.450209 0
M  V30 40466 C 3818.1 1.07599 1.54285 0
M  V30 40467 O 3817.46 0.0597848 1.81201 0
M  V30 40468 C 3817.51 3.46971 0.982026 0
M  V30 40469 O 3816.61 3.55233 2.09483 0
M  V30 40470 H 3815.96 0.655644 0.10501 0
M  V30 40471 H 3818.49 2.02266 -0.308148 0
M  V30 40472 H 3818.5 3.86796 1.2982 0
M  V30 40473 H 3817.17 4.15501 0.182167 0
M  V30 40474 H 3815.75 3.27284 1.78717 0
M  V30 40475 N 3817.93 -0.0768128 1.57413 0
M  V30 40476 C 3818.87 -1.12348 1.98628 0
M  V30 40477 C 3819.84 -1.37847 0.862383 0
M  V30 40478 O 3821.03 -1.51303 1.12426 0
M  V30 40479 C 3818.15 -2.46889 2.3187 0
M  V30 40480 C 3817.2 -2.37557 3.54216 0
M  V30 40481 S 3818.03 -1.7745 5.05244 0
M  V30 40482 C 3819.19 -3.13578 5.41682 0
M  V30 40483 H 3819.42 -0.772223 2.87096 0
M  V30 40484 H 3816.96 -0.285164 1.51744 0
M  V30 40485 H 3818.91 -3.24282 2.51697 0
M  V30 40486 H 3817.57 -2.79178 1.4394 0
M  V30 40487 H 3816.77 -3.36762 3.74976 0
M  V30 40488 H 3816.37 -1.68298 3.33994 0
M  V30 40489 H 3818.66 -4.09883 5.39446 0
M  V30 40490 H 3819.6 -2.97603 6.42525 0
M  V30 40491 H 3820.01 -3.13952 4.69142 0
M  V30 40492 N 3819.41 -1.53708 -0.348084 0
M  V30 40493 C 3820.34 -1.76187 -1.45029 0
M  V30 40494 C 3821.32 -0.610801 -1.50692 0
M  V30 40495 O 3822.51 -0.845436 -1.68477 0
M  V30 40496 C 3819.63 -1.85642 -2.83292 0
M  V30 40497 C 3818.68 -3.07758 -2.95275 0
M  V30 40498 S 3819.51 -4.66909 -2.62214 0
M  V30 40499 C 3820.67 -4.79238 -4.02594 0
M  V30 40500 H 3820.9 -2.69399 -1.25744 0
M  V30 40501 H 3818.43 -1.44519 -0.543481 0
M  V30 40502 H 3820.39 -1.91776 -3.62949 0
M  V30 40503 H 3819.05 -0.934511 -2.99876 0
M  V30 40504 H 3818.25 -3.11035 -3.96577 0
M  V30 40505 H 3817.85 -2.99827 -2.23562 0
M  V30 40506 H 3820.14 -4.60368 -4.97059 0
M  V30 40507 H 3821.08 -5.81323 -4.04313 0
M  V30 40508 H 3821.49 -4.07727 -3.90408 0
M  V30 40509 N 3820.89 0.608851 -1.45364 0
M  V30 40510 C 3821.82 1.73345 -1.49947 0
M  V30 40511 C 3822.83 1.5805 -0.39038 0
M  V30 40512 O 3824.02 1.65955 -0.657367 0
M  V30 40513 C 3821.12 3.1133 -1.33891 0
M  V30 40514 C 3820.3 3.52876 -2.58451 0
M  V30 40515 C 3819.35 4.6982 -2.36971 0
M  V30 40516 O 3818.38 4.77001 -3.10577 0
M  V30 40517 N 3819.58 5.63002 -1.41452 0
M  V30 40518 H 3822.35 1.69877 -2.46904 0
M  V30 40519 H 3819.91 0.794095 -1.41088 0
M  V30 40520 H 3821.9 3.87318 -1.17333 0
M  V30 40521 H 3820.47 3.09313 -0.452149 0
M  V30 40522 H 3819.69 2.66864 -2.90133 0
M  V30 40523 H 3820.98 3.77392 -3.41252 0
M  V30 40524 H 3820.38 5.59914 -0.80704 0
M  V30 40525 H 3818.93 6.38527 -1.30866 0
M  V30 40526 N 3822.37 1.32633 0.851242 0
M  V30 40527 C 3823.32 1.18435 1.94826 0
M  V30 40528 C 3824.3 0.0903893 1.60646 0
M  V30 40529 O 3825.49 0.317243 1.74134 0
M  V30 40530 C 3822.62 0.913065 3.30935 0
M  V30 40531 C 3821.71 2.04888 3.71324 0
M  V30 40532 N 3822.1 3.29777 3.83511 0
M  V30 40533 C 3820.4 1.95282 4.00975 0
M  V30 40534 C 3821.1 4.04192 4.18334 0
M  V30 40535 N 3820.07 3.3252 4.30037 0
M  V30 40536 H 3823.88 2.13112 2.02387 0
M  V30 40537 H 3821.39 1.24462 1.04321 0
M  V30 40538 H 3823.39 0.792293 4.09302 0
M  V30 40539 H 3822.05 -0.025304 3.2469 0
M  V30 40540 H 3823.06 3.64672 3.67742 0
M  V30 40541 H 3819.73 1.09028 4.03013 0
M  V30 40542 H 3821.12 5.11906 4.35204 0
M  V30 40543 N 3823.84 -1.06794 1.159 0
M  V30 40544 C 3824.77 -2.1612 0.883988 0
M  V30 40545 C 3825.76 -1.69272 -0.167679 0
M  V30 40546 O 3826.94 -1.94189 -0.0208504 0
M  V30 40547 C 3824.07 -3.45229 0.378717 0
M  V30 40548 C 3823.02 -4.05559 1.36771 0
M  V30 40549 C 3822.35 -5.29816 0.721049 0
M  V30 40550 C 3823.65 -4.44928 2.73562 0
M  V30 40551 H 3825.34 -2.39383 1.79822 0
M  V30 40552 H 3822.89 -1.15048 0.866029 0
M  V30 40553 H 3824.84 -4.21041 0.173834 0
M  V30 40554 H 3823.57 -3.2157 -0.571007 0
M  V30 40555 H 3822.23 -3.31797 1.55905 0
M  V30 40556 H 3821.87 -5.02451 -0.235 0
M  V30 40557 H 3821.57 -5.71138 1.38111 0
M  V30 40558 H 3823.1 -6.0833 0.52607 0
M  V30 40559 H 3824.51 -5.11845 2.5824 0
M  V30 40560 H 3822.91 -4.9722 3.35995 0
M  V30 40561 H 3823.98 -3.56029 3.29199 0
M  V30 40562 N 3825.32 -0.956681 -1.25241 0
M  V30 40563 C 3826.25 -0.496614 -2.28158 0
M  V30 40564 C 3827.23 0.458103 -1.63815 0
M  V30 40565 O 3828.42 0.356614 -1.90898 0
M  V30 40566 C 3825.55 0.224479 -3.46574 0
M  V30 40567 C 3824.5 -0.645179 -4.23109 0
M  V30 40568 C 3823.83 0.206773 -5.343 0
M  V30 40569 C 3825.13 -1.92431 -4.85559 0
M  V30 40570 H 3826.82 -1.35679 -2.66892 0
M  V30 40571 H 3824.37 -0.65385 -1.283 0
M  V30 40572 H 3826.32 0.557476 -4.17696 0
M  V30 40573 H 3825.05 1.11892 -3.06835 0
M  V30 40574 H 3823.7 -0.96129 -3.53772 0
M  V30 40575 H 3823.35 1.10103 -4.90802 0
M  V30 40576 H 3823.05 -0.371817 -5.86422 0
M  V30 40577 H 3824.58 0.534691 -6.08254 0
M  V30 40578 H 3825.99 -1.65759 -5.48814 0
M  V30 40579 H 3824.39 -2.44872 -5.47866 0
M  V30 40580 H 3825.46 -2.62614 -4.0763 0
M  V30 40581 N 3826.8 1.39908 -0.725493 0
M  V30 40582 C 3828.22 1.54504 -0.400075 0
M  V30 40583 C 3828.42 1.69466 1.09011 0
M  V30 40584 O 3827.47 1.68981 1.87621 0
M  V30 40585 C 3828.79 2.76802 -1.17479 0
M  V30 40586 C 3830.33 2.90628 -1.16207 0
M  V30 40587 C 3830.81 4.15852 -1.91915 0
M  V30 40588 N 3832.3 4.22872 -1.89034 0
M  V30 40589 C 3833.03 5.18693 -2.44429 0
M  V30 40590 N 3832.53 6.20361 -3.08421 0
M  V30 40591 N 3834.32 5.10842 -2.34515 0
M  V30 40592 H 3826.47 1.28444 -1.69163 0
M  V30 40593 H 3828.74 0.621826 -0.715567 0
M  V30 40594 H 3828.44 2.72057 -2.22886 0
M  V30 40595 H 3828.32 3.69196 -0.772936 0
M  V30 40596 H 3830.7 2.94871 -0.116168 0
M  V30 40597 H 3830.79 1.99324 -1.60323 0
M  V30 40598 H 3830.43 4.1237 -2.96502 0
M  V30 40599 H 3830.36 5.06183 -1.45213 0
M  V30 40600 H 3832.85 3.50042 -1.42406 0
M  V30 40601 H 3833.16 6.8992 -3.48181 0
M  V30 40602 H 3831.51 6.20777 -3.12508 0
M  V30 40603 H 3834.7 4.30347 -1.84172 0
M  V30 40604 H 3834.87 5.85344 -2.77986 0
M  V30 40605 N 3828.28 0.472408 1.50353 0
M  V30 40606 C 3829.69 0.126641 1.59097 0
M  V30 40607 C 3829.89 -1.36695 1.48043 0
M  V30 40608 O 3828.95 -2.14035 1.33959 0
M  V30 40609 C 3830.26 0.678008 2.92957 0
M  V30 40610 C 3831.81 0.641553 3.06355 0
M  V30 40611 C 3832.29 1.17049 4.42791 0
M  V30 40612 N 3833.78 1.12996 4.49206 0
M  V30 40613 C 3834.51 1.50971 5.53168 0
M  V30 40614 N 3834.01 1.96402 6.64378 0
M  V30 40615 N 3835.8 1.42566 5.4372 0
M  V30 40616 H 3827.95 1.44381 1.55782 0
M  V30 40617 H 3830.22 0.597151 0.736284 0
M  V30 40618 H 3829.92 1.72438 3.06526 0
M  V30 40619 H 3829.8 0.122313 3.77002 0
M  V30 40620 H 3832.18 -0.395912 2.92432 0
M  V30 40621 H 3832.26 1.23407 2.24063 0
M  V30 40622 H 3831.91 2.20659 4.57462 0
M  V30 40623 H 3831.84 0.554178 5.23676 0
M  V30 40624 H 3834.33 0.796757 3.69405 0
M  V30 40625 H 3834.64 2.23524 7.39768 0
M  V30 40626 H 3832.99 2.00356 6.65494 0
M  V30 40627 H 3836.18 1.06913 4.55727 0
M  V30 40628 H 3836.35 1.72487 6.24622 0
M  V30 40629 N 3829.76 -1.5626 0.205067 0
M  V30 40630 C 3830.69 -2.22546 -0.706776 0
M  V30 40631 C 3831.67 -1.19178 -1.2137 0
M  V30 40632 O 3832.85 -1.47715 -1.26072 0
M  V30 40633 C 3829.98 -2.89258 -1.92216 0
M  V30 40634 C 3828.94 -3.98957 -1.54975 0
M  V30 40635 C 3828.26 -4.52882 -2.84257 0
M  V30 40636 C 3829.56 -5.16856 -0.752159 0
M  V30 40637 H 3831.26 -2.99003 -0.154157 0
M  V30 40638 H 3828.8 -1.43816 -0.0727056 0
M  V30 40639 H 3830.76 -3.34316 -2.56536 0
M  V30 40640 H 3829.48 -2.10223 -2.49948 0
M  V30 40641 H 3828.14 -3.54605 -0.930093 0
M  V30 40642 H 3827.79 -3.70597 -3.40099 0
M  V30 40643 H 3827.49 -5.26908 -2.6008 0
M  V30 40644 H 3829.01 -5.00648 -3.49548 0
M  V30 40645 H 3830.43 -5.58397 -1.29868 0
M  V30 40646 H 3828.82 -5.97011 -0.608125 0
M  V30 40647 H 3829.89 -4.84282 0.244715 0
M  V30 40648 N 3831.24 0.0684638 -1.57451 0
M  V30 40649 C 3832.48 0.768124 -1.8769 0
M  V30 40650 C 3832.81 1.77056 -0.797791 0
M  V30 40651 O 3832.09 1.93554 0.19158 0
M  V30 40652 C 3832.37 1.47313 -3.28589 0
M  V30 40653 C 3832.23 0.486876 -4.47157 0
M  V30 40654 C 3833.54 2.41721 -3.67776 0
M  V30 40655 H 3830.66 0.277781 -0.682647 0
M  V30 40656 H 3833.31 0.0312634 -1.89974 0
M  V30 40657 H 3831.46 2.10123 -3.26773 0
M  V30 40658 H 3833.13 -0.136271 -4.61099 0
M  V30 40659 H 3831.37 -0.197505 -4.3335 0
M  V30 40660 H 3832.04 1.01785 -5.42535 0
M  V30 40661 H 3834.52 1.88986 -3.70707 0
M  V30 40662 H 3833.39 2.88051 -4.67245 0
M  V30 40663 H 3833.65 3.26673 -2.97888 0
M  V30 40664 N 3832.71 1.5389 0.339928 0
M  V30 40665 C 3833.96 1.71311 1.07976 0
M  V30 40666 C 3834.29 0.47818 1.8853 0
M  V30 40667 O 3833.54 -0.54008 1.881 0
M  V30 40668 C 3833.84 2.93065 2.04567 0
M  V30 40669 C 3833.51 4.28518 1.40296 0
M  V30 40670 C 3832.17 4.65347 1.22497 0
M  V30 40671 C 3834.52 5.12648 0.940274 0
M  V30 40672 C 3831.85 5.83919 0.570536 0
M  V30 40673 C 3834.2 6.3189 0.299733 0
M  V30 40674 C 3832.87 6.6741 0.109457 0
M  V30 40675 H 3832.14 0.62687 0.395114 0
M  V30 40676 H 3834.78 1.88111 0.358653 0
M  V30 40677 H 3833.09 2.70883 2.83072 0
M  V30 40678 H 3834.79 3.03737 2.6181 0
M  V30 40679 H 3831.38 3.99534 1.55148 0
M  V30 40680 H 3835.56 4.84725 1.06562 0
M  V30 40681 H 3830.82 6.10012 0.411765 0
M  V30 40682 H 3834.99 6.96368 -0.0668615 0
M  V30 40683 H 3832.62 7.59149 -0.39969 0
M  V30 40684 N 3834.19 -0.601133 1.45685 0
M  V30 40685 C 3835.47 -1.36072 1.40513 0
M  V30 40686 C 3835.85 -2.10952 0.0790465 0
M  V30 40687 O 3835.2 -2.08309 -0.939126 0
M  V30 40688 C 3835.41 -2.30215 2.62301 0
M  V30 40689 C 3836.75 -2.92621 3.07665 0
M  V30 40690 O 3837.78 -2.40534 2.6272 0
M  V30 40691 O 3836.64 -3.87184 3.85682 0
M  V30 40692 H 3833.73 -0.61046 0.557913 0
M  V30 40693 H 3836.28 -0.623684 1.57824 0
M  V30 40694 H 3835.05 -1.74187 3.50392 0
M  V30 40695 H 3834.67 -3.11288 2.47357 0
M  V30 40696 N 3835.67 -1.33083 -0.844196 0
M  V30 40697 C 3836.92 -1.24422 -1.60147 0
M  V30 40698 C 3837.25 0.190958 -1.93259 0
M  V30 40699 O 3836.52 1.13089 -1.58244 0
M  V30 40700 C 3836.81 -2.11426 -2.91498 0
M  V30 40701 C 3836.66 -3.63375 -2.65101 0
M  V30 40702 C 3837.98 -1.98338 -3.92874 0
M  V30 40703 H 3835.1 -0.453327 -0.581088 0
M  V30 40704 H 3837.74 -1.63132 -0.974064 0
M  V30 40705 H 3835.89 -1.78543 -3.45043 0
M  V30 40706 H 3837.56 -4.06523 -2.1803 0
M  V30 40707 H 3835.8 -3.8552 -1.98889 0
M  V30 40708 H 3836.48 -4.19591 -3.58675 0
M  V30 40709 H 3838.95 -2.27165 -3.48619 0
M  V30 40710 H 3837.83 -2.61474 -4.82621 0
M  V30 40711 H 3838.09 -0.954048 -4.31683 0
M  V30 40712 N 3837.15 1.06178 -1.16464 0
M  V30 40713 C 3838.56 1.60463 -0.954388 0
M  V30 40714 C 3838.91 1.89684 0.501421 0
M  V30 40715 O 3838.03 1.67113 1.37485 0
M  V30 40716 C 3838.63 2.91534 -1.72608 0
M  V30 40717 C 3837.19 3.42516 -1.56077 0
M  V30 40718 C 3836.34 2.16392 -1.73407 0
M  V30 40719 H 3839.29 0.891143 -1.31318 0
M  V30 40720 H 3839.31 3.60996 -1.20258 0
M  V30 40721 H 3838.82 2.70234 -2.78559 0
M  V30 40722 H 3836.92 3.68873 -0.525717 0
M  V30 40723 H 3837.03 4.17765 -2.3454 0
M  V30 40724 H 3835.4 2.2667 -1.16159 0
M  V30 40725 H 3836.18 1.97573 -2.80748 0
M  V30 40726 N 3838.63 0.96331 1.24732 0
M  V30 40727 C 3839.56 0.508707 2.27891 0
M  V30 40728 C 3840.54 -0.449409 1.64056 0
M  V30 40729 O 3841.72 -0.346485 1.91084 0
M  V30 40730 C 3838.85 -0.206096 3.46688 0
M  V30 40731 C 3837.81 0.667608 4.22761 0
M  V30 40732 C 3837.13 -0.178435 5.34402 0
M  V30 40733 C 3838.43 1.95003 4.84532 0
M  V30 40734 H 3840.13 1.37093 2.66169 0
M  V30 40735 H 3837.67 0.660645 1.27951 0
M  V30 40736 H 3839.62 -0.535317 4.17986 0
M  V30 40737 H 3838.35 -1.10264 3.07424 0
M  V30 40738 H 3837.01 0.980038 3.53257 0
M  V30 40739 H 3836.66 -1.07499 4.91379 0
M  V30 40740 H 3836.36 0.402911 5.86217 0
M  V30 40741 H 3837.88 -0.502426 6.08529 0
M  V30 40742 H 3839.29 1.68667 5.47927 0
M  V30 40743 H 3837.69 2.47774 5.4656 0
M  V30 40744 H 3838.76 2.64772 4.06231 0
M  V30 40745 N 3840.1 -1.39522 0.732902 0
M  V30 40746 C 3841.03 -2.33256 0.106624 0
M  V30 40747 C 3842.01 -1.53802 -0.726555 0
M  V30 40748 O 3843.2 -1.82204 -0.671962 0
M  V30 40749 C 3840.33 -3.3789 -0.802991 0
M  V30 40750 C 3839.28 -4.27936 -0.0741296 0
M  V30 40751 C 3838.61 -5.2325 -1.10062 0
M  V30 40752 C 3839.91 -5.10969 1.08204 0
M  V30 40753 H 3841.6 -2.85879 0.889589 0
M  V30 40754 H 3839.15 -1.37454 0.429233 0
M  V30 40755 H 3841.1 -4.02414 -1.25064 0
M  V30 40756 H 3839.83 -2.83702 -1.61805 0
M  V30 40757 H 3838.49 -3.64888 0.353874 0
M  V30 40758 H 3838.13 -4.65359 -1.90919 0
M  V30 40759 H 3837.83 -5.84344 -0.617722 0
M  V30 40760 H 3839.36 -5.90651 -1.54801 0
M  V30 40761 H 3840.77 -5.6885 0.712935 0
M  V30 40762 H 3839.17 -5.81194 1.49443 0
M  V30 40763 H 3840.24 -4.45925 1.90471 0
M  V30 40764 N 3841.58 -0.480375 -1.501 0
M  V30 40765 C 3842.53 0.322883 -2.30348 0
M  V30 40766 C 3843.52 0.981879 -1.38042 0
M  V30 40767 O 3844.73 0.911923 -1.5519 0
M  V30 40768 H 3841.1 0.122972 -0.741877 0
M  V30 40769 H 3843.08 -0.374207 -2.96044 0
M  V30 40770 C 3841.82 1.38681 -3.18846 0
M  V30 40771 H 3841.15 0.889113 -3.89788 0
M  V30 40772 H 3842.59 1.92124 -3.77974 0
M  V30 40773 C 3841.05 2.39381 -2.37062 0
M  V30 40774 O 3841.58 3.44844 -2.06022 0
M  V30 40775 N 3839.78 2.1133 -1.99469 0
M  V30 40776 H 3839.33 1.25589 -2.24911 0
M  V30 40777 H 3839.29 2.78939 -1.45053 0
M  V30 40778 N 3843.06 1.56149 -0.213351 0
M  V30 40779 C 3843.97 2.23545 0.711663 0
M  V30 40780 C 3844.99 1.2404 1.22025 0
M  V30 40781 O 3846.16 1.5683 1.26358 0
M  V30 40782 C 3843.23 2.89581 1.9064 0
M  V30 40783 C 3842.29 4.04407 1.44059 0
M  V30 40784 C 3841.52 4.67285 2.57838 0
M  V30 40785 O 3841.74 4.29128 3.75773 0
M  V30 40786 O 3840.68 5.56426 2.29508 0
M  V30 40787 H 3844.5 3.03237 0.167582 0
M  V30 40788 H 3842.09 1.49391 0.0167447 0
M  V30 40789 H 3843.97 3.31292 2.60429 0
M  V30 40790 H 3842.65 2.12855 2.43874 0
M  V30 40791 H 3841.55 3.67282 0.710959 0
M  V30 40792 H 3842.89 4.82852 0.954724 0
M  V30 40793 N 3844.54 -0.0601128 1.57485 0
M  V30 40794 C 3845.49 -1.07735 2.00941 0
M  V30 40795 C 3846.47 -1.3382 0.893372 0
M  V30 40796 O 3847.66 -1.33924 1.15729 0
M  V30 40797 C 3844.79 -2.38774 2.46661 0
M  V30 40798 C 3843.88 -2.15914 3.65023 0
M  V30 40799 N 3844.27 -1.63016 4.7881 0
M  V30 40800 C 3842.57 -2.46337 3.71798 0
M  V30 40801 C 3843.27 -1.55243 5.60602 0
M  V30 40802 N 3842.25 -2.01709 5.04791 0
M  V30 40803 H 3846.05 -0.661873 2.8635 0
M  V30 40804 H 3843.56 -0.266989 1.6019 0
M  V30 40805 H 3845.56 -3.12424 2.76038 0
M  V30 40806 H 3844.22 -2.81029 1.62644 0
M  V30 40807 H 3845.23 -1.31716 5.00871 0
M  V30 40808 H 3841.91 -2.91878 2.98518 0
M  V30 40809 H 3843.3 -1.15098 6.61968 0
M  V30 40810 N 3846.02 -1.54068 -0.331762 0
M  V30 40811 C 3846.98 -1.82171 -1.39091 0
M  V30 40812 C 3847.98 -0.693193 -1.45091 0
M  V30 40813 O 3849.17 -0.961497 -1.45261 0
M  V30 40814 C 3846.3 -1.97436 -2.77906 0
M  V30 40815 H 3847.49 -2.76796 -1.1543 0
M  V30 40816 H 3845.05 -1.45661 -0.566801 0
M  V30 40817 H 3845.78 -1.04995 -3.06833 0
M  V30 40818 H 3845.57 -2.79549 -2.74945 0
M  V30 40819 H 3847.06 -2.20655 -3.54544 0
M  V30 40820 N 3847.49 0.593399 -1.46002 0
M  V30 40821 C 3848.44 1.70321 -1.55755 0
M  V30 40822 C 3849.41 1.6115 -0.402495 0
M  V30 40823 O 3850.6 1.8052 -0.617836 0
M  V30 40824 C 3847.74 3.0865 -1.54367 0
M  V30 40825 C 3846.85 3.28524 -2.80528 0
M  V30 40826 C 3845.98 4.5704 -2.70717 0
M  V30 40827 C 3845.02 4.70221 -3.91866 0
M  V30 40828 N 3844.16 5.90052 -3.80504 0
M  V30 40829 H 3849 1.61322 -2.50558 0
M  V30 40830 H 3846.54 0.786403 -1.24315 0
M  V30 40831 H 3848.5 3.88701 -1.51549 0
M  V30 40832 H 3847.13 3.16572 -0.631042 0
M  V30 40833 H 3846.18 2.4215 -2.93372 0
M  V30 40834 H 3847.49 3.34133 -3.70346 0
M  V30 40835 H 3846.64 5.45306 -2.65944 0
M  V30 40836 H 3845.38 4.53852 -1.78521 0
M  V30 40837 H 3844.39 3.80376 -3.96982 0
M  V30 40838 H 3845.61 4.75196 -4.85145 0
M  V30 40839 H 3843.56 5.87881 -2.91087 0
M  V30 40840 H 3843.48 5.96883 -4.63968 0
M  V30 40841 H 3844.74 6.80777 -3.79688 0
M  V30 40842 N 3848.97 1.33529 0.837127 0
M  V30 40843 C 3849.91 1.18267 1.95162 0
M  V30 40844 C 3850.88 0.077715 1.62414 0
M  V30 40845 O 3852.07 0.240273 1.86962 0
M  V30 40846 C 3849.19 0.814352 3.28764 0
M  V30 40847 C 3848.24 1.92705 3.80483 0
M  V30 40848 S 3849.07 3.5383 4.01951 0
M  V30 40849 C 3850.23 3.19009 5.38502 0
M  V30 40850 H 3850.46 2.12609 2.07809 0
M  V30 40851 H 3848 1.18391 0.991105 0
M  V30 40852 H 3849.95 0.608627 4.05963 0
M  V30 40853 H 3848.61 -0.110498 3.13906 0
M  V30 40854 H 3847.81 1.62275 4.77161 0
M  V30 40855 H 3847.41 2.08953 3.10185 0
M  V30 40856 H 3849.7 2.69942 6.214 0
M  V30 40857 H 3850.64 4.14774 5.73906 0
M  V30 40858 H 3851.05 2.5556 5.03338 0
M  V30 40859 N 3850.45 -1.05559 1.17026 0
M  V30 40860 C 3851.86 -1.59954 0.962884 0
M  V30 40861 C 3852.21 -1.89948 -0.491355 0
M  V30 40862 O 3851.34 -1.6784 -1.36597 0
M  V30 40863 C 3851.93 -2.90614 1.74151 0
M  V30 40864 C 3850.49 -3.41683 1.57891 0
M  V30 40865 C 3849.64 -2.15469 1.74552 0
M  V30 40866 H 3852.59 -0.884166 1.31788 0
M  V30 40867 H 3852.61 -3.60353 1.22171 0
M  V30 40868 H 3852.12 -2.68753 2.79988 0
M  V30 40869 H 3850.22 -3.68589 0.545271 0
M  V30 40870 H 3850.34 -4.16515 2.36753 0
M  V30 40871 H 3848.7 -2.2605 1.1736 0
M  V30 40872 H 3849.48 -1.96082 2.81792 0
M  V30 40873 N 3851.93 -0.969911 -1.2422 0
M  V30 40874 C 3852.86 -0.520785 -2.27618 0
M  V30 40875 C 3853.84 0.440702 -1.64292 0
M  V30 40876 O 3855.02 0.336347 -1.91265 0
M  V30 40877 C 3852.15 0.187707 -3.46792 0
M  V30 40878 C 3851.11 -0.690019 -4.22401 0
M  V30 40879 C 3850.43 0.150092 -5.34489 0
M  V30 40880 C 3851.73 -1.9757 -4.83491 0
M  V30 40881 H 3853.43 -1.38503 -2.65438 0
M  V30 40882 H 3850.97 -0.667421 -1.27599 0
M  V30 40883 H 3852.93 0.513143 -4.18264 0
M  V30 40884 H 3851.65 1.08632 -3.08004 0
M  V30 40885 H 3850.31 -0.998758 -3.52733 0
M  V30 40886 H 3849.96 1.04892 -4.91942 0
M  V30 40887 H 3849.66 -0.433994 -5.85995 0
M  V30 40888 H 3851.18 0.470148 -6.08787 0
M  V30 40889 H 3852.6 -1.71571 -5.47025 0
M  V30 40890 H 3850.99 -2.50669 -5.45238 0
M  V30 40891 H 3852.06 -2.66922 -4.04821 0
M  V30 40892 N 3853.41 1.39131 -0.740291 0
M  V30 40893 C 3854.35 2.30567 -0.103784 0
M  V30 40894 C 3855.32 1.49491 0.723999 0
M  V30 40895 O 3856.51 1.78161 0.682873 0
M  V30 40896 C 3853.65 3.35853 0.793528 0
M  V30 40897 C 3852.76 4.31974 -0.047443 0
M  V30 40898 C 3851.9 5.24329 0.851634 0
M  V30 40899 C 3850.94 6.121 0.00622874 0
M  V30 40900 N 3850.07 6.96794 0.86153 0
M  V30 40901 H 3854.91 2.84426 -0.889137 0
M  V30 40902 H 3852.45 1.40044 -0.450117 0
M  V30 40903 H 3854.41 3.95491 1.32827 0
M  V30 40904 H 3853.04 2.83436 1.5448 0
M  V30 40905 H 3852.09 3.7391 -0.699667 0
M  V30 40906 H 3853.4 4.93851 -0.700893 0
M  V30 40907 H 3852.56 5.89019 1.45403 0
M  V30 40908 H 3851.29 4.62786 1.53885 0
M  V30 40909 H 3850.3 5.46418 -0.608929 0
M  V30 40910 H 3851.52 6.75709 -0.67785 0
M  V30 40911 H 3849.47 6.37814 1.53394 0
M  V30 40912 H 3849.39 7.55537 0.264679 0
M  V30 40913 H 3850.66 7.65908 1.44932 0
M  V30 40914 N 3854.88 0.488329 1.49844 0
M  V30 40915 C 3855.81 -0.286392 2.31737 0
M  V30 40916 C 3856.8 -0.974394 1.39426 0
M  V30 40917 O 3857.98 -0.968245 1.68341 0
M  V30 40918 C 3855.11 -1.35872 3.19619 0
M  V30 40919 C 3854.06 -0.791335 4.20621 0
M  V30 40920 C 3853.39 -1.96324 4.97354 0
M  V30 40921 C 3854.69 0.209066 5.21881 0
M  V30 40922 H 3856.38 0.397144 2.96754 0
M  V30 40923 H 3853.93 0.192438 1.42708 0
M  V30 40924 H 3855.88 -1.90832 3.75714 0
M  V30 40925 H 3854.61 -2.07127 2.5252 0
M  V30 40926 H 3853.27 -0.263582 3.65651 0
M  V30 40927 H 3852.91 -2.66317 4.26713 0
M  V30 40928 H 3852.61 -1.58973 5.65686 0
M  V30 40929 H 3854.14 -2.51742 5.5629 0
M  V30 40930 H 3855.55 -0.251949 5.72746 0
M  V30 40931 H 3853.95 0.497743 5.98032 0
M  V30 40932 H 3855.02 1.12924 4.71568 0
M  V30 40933 N 3856.36 -1.56034 0.221629 0
M  V30 40934 C 3857.29 -2.23284 -0.683132 0
M  V30 40935 C 3858.27 -1.20458 -1.20099 0
M  V30 40936 O 3859.46 -1.49043 -1.24498 0
M  V30 40937 C 3856.59 -2.9128 -1.89137 0
M  V30 40938 C 3855.54 -4.00578 -1.50735 0
M  V30 40939 C 3854.87 -4.55871 -2.79438 0
M  V30 40940 C 3856.17 -5.17624 -0.697297 0
M  V30 40941 H 3857.86 -2.9915 -0.122435 0
M  V30 40942 H 3855.41 -1.43885 -0.0574479 0
M  V30 40943 H 3857.36 -3.37018 -2.52976 0
M  V30 40944 H 3856.09 -2.12862 -2.47704 0
M  V30 40945 H 3854.74 -3.55572 -0.89243 0
M  V30 40946 H 3854.39 -3.74183 -3.36149 0
M  V30 40947 H 3854.09 -5.29637 -2.54477 0
M  V30 40948 H 3855.62 -5.04327 -3.44219 0
M  V30 40949 H 3857.03 -5.59743 -1.23939 0
M  V30 40950 H 3855.43 -5.97622 -0.54477 0
M  V30 40951 H 3856.5 -4.83995 0.296066 0
M  V30 40952 N 3857.84 0.0517601 -1.57515 0
M  V30 40953 C 3859.07 0.759451 -1.92458 0
M  V30 40954 C 3859.48 1.70091 -0.819426 0
M  V30 40955 O 3858.84 1.81335 0.205881 0
M  V30 40956 C 3858.89 1.536 -3.27245 0
M  V30 40957 O 3858.61 0.632365 -4.33512 0
M  V30 40958 C 3860.11 2.3429 -3.76328 0
M  V30 40959 H 3857.33 0.214796 -0.635692 0
M  V30 40960 H 3859.88 0.0160503 -2.04494 0
M  V30 40961 H 3858.03 2.23149 -3.16675 0
M  V30 40962 H 3858.45 1.17453 -5.1118 0
M  V30 40963 H 3859.92 2.84205 -4.73214 0
M  V30 40964 H 3860.4 3.1471 -3.06356 0
M  V30 40965 H 3861 1.69859 -3.89907 0
M  V30 40966 N 3859.32 1.54242 0.323587 0
M  V30 40967 C 3860.27 1.84351 1.41837 0
M  V30 40968 C 3861.26 0.715411 1.53552 0
M  V30 40969 O 3862.47 0.899073 1.55938 0
M  V30 40970 H 3858.84 0.58436 0.473315 0
M  V30 40971 H 3860.81 2.75903 1.13667 0
M  V30 40972 C 3859.56 2.0876 2.78055 0
M  V30 40973 H 3858.89 2.95026 2.69814 0
M  V30 40974 H 3860.33 2.3378 3.53727 0
M  V30 40975 C 3858.78 0.879134 3.25227 0
M  V30 40976 O 3859.31 0.0883831 4.01603 0
M  V30 40977 N 3857.52 0.690775 2.82271 0
M  V30 40978 H 3857.07 1.33545 2.2028 0
M  V30 40979 H 3857.03 -0.116289 3.14185 0
M  V30 40980 N 3860.8 -0.585648 1.46314 0
M  V30 40981 C 3861.75 -1.68975 1.53073 0
M  V30 40982 C 3862.73 -1.56054 0.391928 0
M  V30 40983 O 3863.92 -1.65018 0.640159 0
M  V30 40984 C 3861.05 -3.07758 1.52118 0
M  V30 40985 C 3860.14 -3.25987 2.71281 0
M  V30 40986 N 3860.53 -3.14386 3.96226 0
M  V30 40987 C 3858.83 -3.56918 2.67443 0
M  V30 40988 C 3859.53 -3.3454 4.75876 0
M  V30 40989 N 3858.5 -3.59558 4.07699 0
M  V30 40990 H 3862.31 -1.58533 2.47477 0
M  V30 40991 H 3859.82 -0.789589 1.41913 0
M  V30 40992 H 3861.82 -3.86996 1.55047 0
M  V30 40993 H 3860.48 -3.19334 0.58789 0
M  V30 40994 H 3861.49 -2.92315 4.27519 0
M  V30 40995 H 3858.17 -3.75196 1.83123 0
M  V30 40996 H 3859.56 -3.3078 5.84837 0
M  V30 40997 N 3862.28 -1.33971 -0.830033 0
M  V30 40998 C 3863.51 -1.288 -1.61537 0
M  V30 40999 C 3863.91 0.141547 -1.8867 0
M  V30 41000 O 3863.26 1.09688 -1.47358 0
M  V30 41001 C 3863.32 -2.00345 -2.985 0
M  V30 41002 C 3862.98 -3.49627 -2.94295 0
M  V30 41003 C 3863.98 -4.44667 -2.69383 0
M  V30 41004 C 3861.66 -3.91936 -3.14152 0
M  V30 41005 C 3863.66 -5.7999 -2.64368 0
M  V30 41006 C 3861.35 -5.2736 -3.08762 0
M  V30 41007 C 3862.34 -6.21199 -2.83903 0
M  V30 41008 O 3862.03 -7.54142 -2.78432 0
M  V30 41009 H 3861.76 -0.444786 -0.509059 0
M  V30 41010 H 3864.32 -1.77046 -1.04134 0
M  V30 41011 H 3862.55 -1.46703 -3.57792 0
M  V30 41012 H 3864.24 -1.88557 -3.59445 0
M  V30 41013 H 3865 -4.13302 -2.53784 0
M  V30 41014 H 3860.88 -3.19298 -3.3252 0
M  V30 41015 H 3864.43 -6.53206 -2.44884 0
M  V30 41016 H 3860.32 -5.58347 -3.23913 0
M  V30 41017 H 3861.09 -7.63795 -2.94211 0
M  V30 41018 N 3863.75 1.04937 -1.17584 0
M  V30 41019 C 3864.66 2.16247 -0.909626 0
M  V30 41020 C 3865.68 1.73564 0.123136 0
M  V30 41021 O 3866.86 2.0132 -0.0567329 0
M  V30 41022 C 3863.92 3.44031 -0.429402 0
M  V30 41023 C 3862.98 4.01146 -1.52907 0
M  V30 41024 C 3862.21 5.2283 -1.07166 0
M  V30 41025 O 3862.44 5.70353 0.0731631 0
M  V30 41026 O 3861.37 5.72252 -1.86578 0
M  V30 41027 H 3865.2 2.41555 -1.84079 0
M  V30 41028 H 3862.78 1.14731 -0.956934 0
M  V30 41029 H 3864.66 4.2106 -0.169244 0
M  V30 41030 H 3863.34 3.20217 0.473573 0
M  V30 41031 H 3862.25 3.25545 -1.84314 0
M  V30 41032 H 3863.58 4.29283 -2.40785 0
M  V30 41033 N 3865.23 0.976485 1.23703 0
M  V30 41034 C 3866.65 0.684459 1.44178 0
M  V30 41035 C 3866.85 -0.750717 1.86993 0
M  V30 41036 O 3865.9 -1.52361 2.01351 0
M  V30 41037 C 3867.22 1.67605 2.49658 0
M  V30 41038 C 3868.76 1.68965 2.63476 0
M  V30 41039 C 3869.24 2.66944 3.72162 0
M  V30 41040 N 3870.73 2.65439 3.796 0
M  V30 41041 C 3871.47 3.37922 4.63245 0
M  V30 41042 N 3870.96 4.19951 5.51011 0
M  V30 41043 N 3872.75 3.26705 4.57406 0
M  V30 41044 H 3864.91 1.90362 0.942122 0
M  V30 41045 H 3867.17 0.820058 0.475615 0
M  V30 41046 H 3866.87 2.70222 2.25107 0
M  V30 41047 H 3866.75 1.45578 3.47976 0
M  V30 41048 H 3869.14 0.670547 2.87381 0
M  V30 41049 H 3869.22 1.95058 1.65488 0
M  V30 41050 H 3868.86 3.68994 3.49006 0
M  V30 41051 H 3868.79 2.38128 4.69684 0
M  V30 41052 H 3871.28 2.05905 3.16878 0
M  V30 41053 H 3871.59 4.72123 6.11816 0
M  V30 41054 H 3869.94 4.24043 5.50647 0
M  V30 41055 H 3873.13 2.62075 3.87858 0
M  V30 41056 H 3873.3 3.83455 5.22366 0
M  V30 41057 N 3866.71 -1.38737 0.747659 0
M  V30 41058 C 3867.95 -2.02096 0.306029 0
M  V30 41059 C 3868.31 -1.58061 -1.08999 0
M  V30 41060 O 3869.51 -2.13708 -1.63041 0
M  V30 41061 C 3867.79 -3.54945 0.418219 0
M  V30 41062 S 3869.34 -4.38761 0.0582958 0
M  V30 41063 H 3866.16 -0.700956 0.119087 0
M  V30 41064 H 3868.76 -1.69339 0.97697 0
M  V30 41065 H 3867.47 -3.84483 1.4353 0
M  V30 41066 H 3867 -3.92472 -0.27011 0
M  V30 41067 H 3869.01 -4.82595 -1.15399 0
M  V30 41068 N 3868.19 -0.496268 -1.49583 0
M  V30 41069 C 3869.43 0.0420154 -2.03357 0
M  V30 41070 C 3869.79 1.35127 -1.36961 0
M  V30 41071 O 3869.08 1.85104 -0.494674 0
M  V30 41072 C 3869.28 0.255887 -3.56483 0
M  V30 41073 C 3869.1 -1.03109 -4.3772 0
M  V30 41074 C 3867.87 -1.58155 -4.79912 0
M  V30 41075 C 3870.07 -1.93313 -4.76586 0
M  V30 41076 N 3868.05 -2.81492 -5.4556 0
M  V30 41077 C 3869.43 -3.01231 -5.41904 0
M  V30 41078 C 3871.48 -1.94048 -4.5853 0
M  V30 41079 C 3870.18 -4.09904 -5.91076 0
M  V30 41080 C 3872.21 -3.01694 -5.0866 0
M  V30 41081 C 3871.57 -4.0833 -5.73974 0
M  V30 41082 H 3867.67 -0.025287 -0.781591 0
M  V30 41083 H 3870.25 -0.670076 -1.82806 0
M  V30 41084 H 3868.43 0.937031 -3.76927 0
M  V30 41085 H 3870.16 0.790755 -3.96899 0
M  V30 41086 H 3866.91 -1.12733 -4.59987 0
M  V30 41087 H 3867.34 -3.44196 -5.82973 0
M  V30 41088 H 3871.98 -1.12913 -4.07444 0
M  V30 41089 H 3869.7 -4.9184 -6.41186 0
M  V30 41090 H 3873.28 -3.03277 -4.96502 0
M  V30 41091 H 3872.16 -4.90254 -6.12063 0
M  V30 41092 N 3869.67 1.55914 -0.2299 0
M  V30 41093 C 3870.61 2.20655 0.676771 0
M  V30 41094 C 3871.58 1.16483 1.1841 0
M  V30 41095 O 3872.77 1.44869 1.24167 0
M  V30 41096 C 3869.91 2.8968 1.87562 0
M  V30 41097 C 3869.02 4.08466 1.40641 0
M  V30 41098 C 3868.16 4.65252 2.56348 0
M  V30 41099 C 3867.19 5.76321 2.06205 0
M  V30 41100 N 3866.33 6.27363 3.15215 0
M  V30 41101 H 3871.17 2.97766 0.117982 0
M  V30 41102 H 3868.71 1.47027 0.0464783 0
M  V30 41103 H 3870.67 3.27889 2.57963 0
M  V30 41104 H 3869.3 2.15072 2.40716 0
M  V30 41105 H 3868.35 3.75686 0.597038 0
M  V30 41106 H 3869.66 4.88698 0.998791 0
M  V30 41107 H 3868.81 5.05947 3.34818 0
M  V30 41108 H 3867.55 3.842 3.00403 0
M  V30 41109 H 3866.56 5.3512 1.26199 0
M  V30 41110 H 3867.78 6.59213 1.63139 0
M  V30 41111 H 3865.73 5.49222 3.58736 0
M  V30 41112 H 3865.65 7.02741 2.78731 0
M  V30 41113 H 3866.91 6.72715 3.93795 0
M  V30 41114 N 3871.14 -0.043406 1.5754 0
M  V30 41115 C 3872.37 -0.748148 1.92578 0
M  V30 41116 C 3872.78 -1.70179 0.826788 0
M  V30 41117 O 3872.12 -1.82534 -0.206681 0
M  V30 41118 C 3872.19 -1.57194 3.23312 0
M  V30 41119 C 3871.85 -0.784625 4.50214 0
M  V30 41120 C 3872.85 -0.0912136 5.1982 0
M  V30 41121 C 3870.53 -0.743402 4.96768 0
M  V30 41122 C 3872.53 0.632879 6.3425 0
M  V30 41123 C 3870.21 -0.0155546 6.11098 0
M  V30 41124 C 3871.21 0.671359 6.79692 0
M  V30 41125 O 3870.9 1.38742 7.91837 0
M  V30 41126 H 3870.63 -0.216202 0.640494 0
M  V30 41127 H 3873.19 -0.00933612 2.05398 0
M  V30 41128 H 3871.42 -2.35422 3.06779 0
M  V30 41129 H 3873.1 -2.15796 3.43783 0
M  V30 41130 H 3873.87 -0.114184 4.84866 0
M  V30 41131 H 3869.75 -1.26755 4.43231 0
M  V30 41132 H 3873.29 1.16959 6.87725 0
M  V30 41133 H 3869.19 0.00938974 6.45499 0
M  V30 41134 H 3869.96 1.29961 8.08117 0
M  V30 41135 N 3872.62 -1.54412 -0.315402 0
M  V30 41136 C 3873.85 -1.76724 -1.07015 0
M  V30 41137 C 3874.26 -0.519786 -1.8192 0
M  V30 41138 O 3873.6 0.51947 -1.76202 0
M  V30 41139 C 3873.66 -2.91228 -2.10776 0
M  V30 41140 C 3873.33 -4.29841 -1.55196 0
M  V30 41141 C 3874.33 -5.10397 -0.989478 0
M  V30 41142 C 3872.01 -4.76406 -1.59193 0
M  V30 41143 C 3874 -6.35632 -0.474354 0
M  V30 41144 C 3871.69 -6.01607 -1.07293 0
M  V30 41145 C 3872.69 -6.81055 -0.515101 0
M  V30 41146 O 3872.38 -8.039 -0.00393129 0
M  V30 41147 H 3872.11 -0.593411 -0.323788 0
M  V30 41148 H 3874.66 -2.02137 -0.364673 0
M  V30 41149 H 3872.89 -2.61405 -2.84963 0
M  V30 41150 H 3874.58 -3.01248 -2.72037 0
M  V30 41151 H 3875.35 -4.75573 -0.951608 0
M  V30 41152 H 3871.23 -4.14606 -2.01552 0
M  V30 41153 H 3874.77 -6.97589 -0.0382913 0
M  V30 41154 H 3870.67 -6.35921 -1.1079 0
M  V30 41155 H 3871.44 -8.18414 -0.118589 0
M  V30 41156 N 3874.1 0.57788 -1.46623 0
M  V30 41157 C 3875.34 1.34691 -1.53746 0
M  V30 41158 C 3875.7 1.91091 -0.186643 0
M  V30 41159 O 3876.91 2.68473 -0.132636 0
M  V30 41160 C 3875.18 2.44253 -2.60912 0
M  V30 41161 S 3876.74 3.31518 -2.87474 0
M  V30 41162 H 3873.55 0.458817 -0.543146 0
M  V30 41163 H 3876.16 0.66381 -1.83885 0
M  V30 41164 H 3874.86 2.01219 -3.57686 0
M  V30 41165 H 3874.39 3.17329 -2.3252 0
M  V30 41166 H 3876.41 4.4321 -2.23112 0
M  V30 41167 N 3875.58 1.34409 0.822917 0
M  V30 41168 C 3876.51 1.28631 1.94875 0
M  V30 41169 C 3877.49 0.163756 1.6931 0
M  V30 41170 O 3878.67 0.356117 1.90907 0
M  V30 41171 C 3875.8 1.041 3.31331 0
M  V30 41172 C 3874.76 2.12821 3.71337 0
M  V30 41173 C 3874.08 1.73478 5.05776 0
M  V30 41174 C 3875.38 3.54649 3.83433 0
M  V30 41175 H 3877.08 2.2283 1.99968 0
M  V30 41176 H 3874.62 1.07269 0.960696 0
M  V30 41177 H 3876.58 0.987019 4.09678 0
M  V30 41178 H 3875.3 0.0634216 3.26538 0
M  V30 41179 H 3873.96 2.17288 2.95265 0
M  V30 41180 H 3873.61 0.743814 4.9747 0
M  V30 41181 H 3873.31 2.46245 5.33514 0
M  V30 41182 H 3874.83 1.69576 5.8658 0
M  V30 41183 H 3876.25 3.52595 4.52051 0
M  V30 41184 H 3874.64 4.26038 4.22625 0
M  V30 41185 H 3875.71 3.91991 2.85432 0
M  V30 41186 N 3877.06 -1.04312 1.18139 0
M  V30 41187 C 3878.47 -1.58924 0.979795 0
M  V30 41188 C 3878.82 -1.90458 -0.471181 0
M  V30 41189 O 3877.94 -1.69279 -1.34809 0
M  V30 41190 C 3878.54 -2.88751 1.77224 0
M  V30 41191 C 3877.1 -3.39989 1.61506 0
M  V30 41192 C 3876.24 -2.13606 1.76827 0
M  V30 41193 H 3879.2 -0.870139 1.32719 0
M  V30 41194 H 3879.22 -3.59037 1.25986 0
M  V30 41195 H 3878.73 -2.65768 2.82823 0
M  V30 41196 H 3876.83 -3.6799 0.584334 0
M  V30 41197 H 3876.94 -4.13981 2.41157 0
M  V30 41198 H 3875.31 -2.24793 1.19751 0
M  V30 41199 H 3876.09 -1.93082 2.83856 0
M  V30 41200 N 3878.53 -0.983032 -1.23184 0
M  V30 41201 C 3879.78 -0.652085 -1.91291 0
M  V30 41202 C 3880.1 0.817269 -1.77047 0
M  V30 41203 O 3879.37 1.58485 -1.15149 0
M  V30 41204 H 3877.95 -0.238193 -0.708006 0
M  V30 41205 H 3880.62 -1.24741 -1.49752 0
M  V30 41206 H 3879.71 -0.906003 -2.9866 0
M  V30 41207 N 3880.01 1.38338 -0.755006 0
M  V30 41208 C 3881.26 1.9969 -0.311181 0
M  V30 41209 C 3881.58 1.60231 1.11135 0
M  V30 41210 O 3880.85 0.859825 1.76022 0
M  V30 41211 H 3879.43 0.738546 -0.112065 0
M  V30 41212 H 3882.09 1.69081 -0.969415 0
M  V30 41213 H 3881.19 3.09834 -0.375447 0
M  V30 41214 N 3881.49 0.504194 1.49317 0
M  V30 41215 C 3882.74 -0.0312303 2.03376 0
M  V30 41216 C 3883.09 -1.34399 1.37676 0
M  V30 41217 O 3882.38 -1.84839 0.504483 0
M  V30 41218 C 3882.58 -0.236978 3.56613 0
M  V30 41219 C 3882.41 1.05429 4.37167 0
M  V30 41220 C 3881.18 1.60698 4.79066 0
M  V30 41221 C 3883.38 1.95838 4.75554 0
M  V30 41222 N 3881.36 2.84382 5.44059 0
M  V30 41223 C 3882.73 3.041 5.40299 0
M  V30 41224 C 3884.78 1.96477 4.57494 0
M  V30 41225 C 3883.49 4.13033 5.88894 0
M  V30 41226 C 3885.51 3.04387 5.07053 0
M  V30 41227 C 3884.87 4.11368 5.718 0
M  V30 41228 H 3880.97 0.0294316 0.781446 0
M  V30 41229 H 3883.56 0.679761 1.82448 0
M  V30 41230 H 3881.73 -0.917029 3.77419 0
M  V30 41231 H 3883.46 -0.769695 3.97313 0
M  V30 41232 H 3880.22 1.15171 4.59383 0
M  V30 41233 H 3880.64 3.47283 5.8114 0
M  V30 41234 H 3885.28 1.15073 4.06839 0
M  V30 41235 H 3883 4.95233 6.38568 0
M  V30 41236 H 3886.59 3.05905 4.94887 0
M  V30 41237 H 3885.47 4.93493 6.09454 0
M  V30 41238 N 3882.97 -1.5579 0.238166 0
M  V30 41239 C 3884.22 -1.98336 -0.388228 0
M  V30 41240 C 3884.54 -1.12745 -1.59102 0
M  V30 41241 O 3883.81 -0.208235 -1.9479 0
M  V30 41242 H 3882.39 -0.732508 -0.146428 0
M  V30 41243 H 3885.05 -1.92001 0.334925 0
M  V30 41244 H 3884.15 -3.04072 -0.703306 0
M  V30 41245 N 3884.45 0.0350506 -1.57561 0
M  V30 41246 C 3885.39 1.05599 -2.07248 0
M  V30 41247 C 3886.39 1.37816 -0.985038 0
M  V30 41248 O 3887.59 1.36792 -1.16996 0
M  V30 41249 H 3883.97 0.358045 -0.661292 0
M  V30 41250 H 3885.94 0.611073 -2.92076 0
M  V30 41251 C 3884.69 2.35025 -2.56239 0
M  V30 41252 H 3884.01 2.11094 -3.39528 0
M  V30 41253 H 3885.45 3.04821 -2.94721 0
M  V30 41254 C 3883.91 3.03572 -1.46101 0
M  V30 41255 O 3884.44 3.93161 -0.823841 0
M  V30 41256 N 3882.65 2.64801 -1.19702 0
M  V30 41257 H 3882.19 1.92033 -1.717 0
M  V30 41258 H 3882.15 3.10984 -0.462229 0
M  V30 41259 N 3885.92 1.54577 0.307209 0
M  V30 41260 C 3887.17 1.73562 1.04318 0
M  V30 41261 C 3887.5 0.518063 1.87474 0
M  V30 41262 O 3886.75 -0.50006 1.89203 0
M  V30 41263 C 3887.05 2.97338 1.98304 0
M  V30 41264 C 3886.72 4.31398 1.31175 0
M  V30 41265 C 3885.38 4.67841 1.12599 0
M  V30 41266 C 3887.73 5.14527 0.831322 0
M  V30 41267 C 3885.06 5.84998 0.44655 0
M  V30 41268 C 3887.41 6.32383 0.165632 0
M  V30 41269 C 3886.08 6.67492 -0.0321349 0
M  V30 41270 H 3885.35 0.63511 0.381728 0
M  V30 41271 H 3887.99 1.8883 0.318671 0
M  V30 41272 H 3886.3 2.76826 2.77263 0
M  V30 41273 H 3888 3.09222 2.55309 0
M  V30 41274 H 3884.59 4.02735 1.46638 0
M  V30 41275 H 3888.77 4.86876 0.962568 0
M  V30 41276 H 3884.03 6.10748 0.282279 0
M  V30 41277 H 3888.2 6.96069 -0.214556 0
M  V30 41278 H 3885.83 7.5813 -0.560626 0
M  V30 41279 N 3887.4 -0.570096 1.46927 0
M  V30 41280 C 3888.65 -1.3252 1.52587 0
M  V30 41281 C 3888.97 -1.94127 0.184325 0
M  V30 41282 O 3888.24 -1.79245 -0.790446 0
M  V30 41283 H 3886.82 -0.492071 0.562027 0
M  V30 41284 H 3889.48 -0.666714 1.83142 0
M  V30 41285 H 3888.58 -2.12541 2.28545 0
M  V30 41286 N 3888.88 -1.34844 -0.815777 0
M  V30 41287 C 3889.84 -1.26893 -1.90868 0
M  V30 41288 C 3890.84 -0.182473 -1.59761 0
M  V30 41289 O 3892.03 -0.435572 -1.68667 0
M  V30 41290 C 3889.17 -0.960832 -3.27079 0
M  V30 41291 H 3890.36 -2.24062 -1.99339 0
M  V30 41292 H 3887.91 -1.19235 -1.01058 0
M  V30 41293 H 3888.65 0.00738359 -3.24299 0
M  V30 41294 H 3888.43 -1.74677 -3.51042 0
M  V30 41295 H 3889.92 -0.930565 -4.071 0
M  V30 41296 N 3890.36 1.03684 -1.1869 0
M  V30 41297 C 3891.32 2.09949 -0.919452 0
M  V30 41298 C 3892.32 1.60509 0.096776 0
M  V30 41299 O 3893.51 1.7366 -0.137092 0
M  V30 41300 C 3890.64 3.38773 -0.380263 0
M  V30 41301 H 3891.84 2.35109 -1.86182 0
M  V30 41302 H 3889.39 1.20169 -0.999457 0
M  V30 41303 H 3890.13 3.19278 0.56853 0
M  V30 41304 H 3889.91 3.75975 -1.11287 0
M  V30 41305 H 3891.4 4.17062 -0.211964 0
M  V30 41306 N 3891.84 0.989551 1.22661 0
M  V30 41307 C 3893.06 0.681546 1.95882 0
M  V30 41308 C 3893.49 -0.746616 1.72648 0
M  V30 41309 O 3892.85 -1.50988 1.0036 0
M  V30 41310 C 3892.89 0.989036 3.46771 0
M  V30 41311 O 3892 0.0859209 4.1231 0
M  V30 41312 H 3891.34 0.255412 0.612912 0
M  V30 41313 H 3893.87 1.32562 1.55847 0
M  V30 41314 H 3893.88 0.929496 3.97271 0
M  V30 41315 H 3892.55 2.02973 3.63008 0
M  V30 41316 H 3891.13 0.200657 3.7236 0
M  V30 41317 N 3893.32 -1.37936 0.762332 0
M  V30 41318 C 3894.23 -2.34165 0.142765 0
M  V30 41319 C 3895.24 -1.5971 -0.690559 0
M  V30 41320 O 3896.42 -1.91855 -0.612677 0
M  V30 41321 C 3893.48 -3.38857 -0.733265 0
M  V30 41322 C 3892.54 -4.29145 0.115434 0
M  V30 41323 C 3891.78 -5.28836 -0.718879 0
M  V30 41324 O 3892 -5.35797 -1.95647 0
M  V30 41325 O 3890.93 -6.01753 -0.133056 0
M  V30 41326 H 3894.76 -2.88861 0.937713 0
M  V30 41327 H 3892.34 -1.39934 0.523349 0
M  V30 41328 H 3894.23 -4.02937 -1.23367 0
M  V30 41329 H 3892.9 -2.86504 -1.50656 0
M  V30 41330 H 3891.81 -3.68196 0.66199 0
M  V30 41331 H 3893.14 -4.84777 0.85159 0
M  V30 41332 N 3894.79 -0.512106 -1.49048 0
M  V30 41333 C 3895.7 0.264654 -2.33102 0
M  V30 41334 C 3896.72 0.956545 -1.45349 0
M  V30 41335 O 3897.9 0.93547 -1.78356 0
M  V30 41336 C 3894.96 1.30865 -3.21053 0
M  V30 41337 C 3894.02 0.629019 -4.24667 0
M  V30 41338 C 3893.25 1.62328 -5.08415 0
M  V30 41339 O 3893.48 2.85424 -4.93852 0
M  V30 41340 O 3892.41 1.17249 -5.9037 0
M  V30 41341 H 3896.24 -0.423638 -3.00731 0
M  V30 41342 H 3893.82 -0.273272 -1.46879 0
M  V30 41343 H 3895.7 1.91241 -3.75506 0
M  V30 41344 H 3894.38 1.97967 -2.56107 0
M  V30 41345 H 3893.29 -0.0147714 -3.74097 0
M  V30 41346 H 3894.62 0.000253343 -4.922 0
M  V30 41347 N 3896.27 1.55662 -0.246424 0
M  V30 41348 C 3897.18 2.25005 0.664086 0
M  V30 41349 C 3898.2 1.26601 1.19366 0
M  V30 41350 O 3899.37 1.59475 1.23003 0
M  V30 41351 C 3896.44 2.9356 1.84454 0
M  V30 41352 C 3895.5 4.07372 1.35449 0
M  V30 41353 C 3894.73 4.72649 2.47868 0
M  V30 41354 O 3894.96 4.37002 3.66586 0
M  V30 41355 O 3893.89 5.61169 2.17654 0
M  V30 41356 H 3897.72 3.03525 0.103223 0
M  V30 41357 H 3895.3 1.49393 -0.014947 0
M  V30 41358 H 3897.18 3.36742 2.53343 0
M  V30 41359 H 3895.86 2.1798 2.39304 0
M  V30 41360 H 3894.76 3.68708 0.632893 0
M  V30 41361 H 3896.1 4.84768 0.852089 0
M  V30 41362 N 3897.75 -0.0266943 1.57577 0
M  V30 41363 C 3898.68 -1.02602 2.0975 0
M  V30 41364 C 3899.66 -1.3756 1.00056 0
M  V30 41365 O 3900.85 -1.46402 1.27593 0
M  V30 41366 C 3897.98 -2.32621 2.57885 0
M  V30 41367 C 3896.93 -2.11899 3.71864 0
M  V30 41368 C 3896.26 -3.47699 4.06214 0
M  V30 41369 C 3897.56 -1.50323 5.002 0
M  V30 41370 H 3899.25 -0.591702 2.93495 0
M  V30 41371 H 3896.8 -0.283174 1.41188 0
M  V30 41372 H 3898.75 -3.02863 2.93006 0
M  V30 41373 H 3897.47 -2.78117 1.71227 0
M  V30 41374 H 3896.13 -1.4409 3.37096 0
M  V30 41375 H 3895.78 -3.90848 3.16618 0
M  V30 41376 H 3895.48 -3.34658 4.82988 0
M  V30 41377 H 3897 -4.19299 4.4387 0
M  V30 41378 H 3898.42 -2.10485 5.33263 0
M  V30 41379 H 3896.81 -1.4785 5.81602 0
M  V30 41380 H 3897.88 -0.46932 4.82623 0
M  V30 41381 N 3899.23 -1.54738 -0.299007 0
M  V30 41382 C 3900.18 -1.82211 -1.37052 0
M  V30 41383 C 3901.16 -0.679382 -1.45853 0
M  V30 41384 O 3902.35 -0.94007 -1.49972 0
M  V30 41385 C 3899.48 -2.07464 -2.73521 0
M  V30 41386 C 3898.57 -3.27925 -2.68934 0
M  V30 41387 N 3898.96 -4.48436 -2.33964 0
M  V30 41388 C 3897.26 -3.29993 -3.00034 0
M  V30 41389 C 3897.96 -5.30458 -2.38724 0
M  V30 41390 N 3896.93 -4.68228 -2.76159 0
M  V30 41391 H 3900.74 -2.72947 -1.08981 0
M  V30 41392 H 3898.25 -1.54264 -0.507591 0
M  V30 41393 H 3900.25 -2.25293 -3.50783 0
M  V30 41394 H 3898.91 -1.17996 -3.02501 0
M  V30 41395 H 3899.92 -4.75001 -2.06384 0
M  V30 41396 H 3896.6 -2.50638 -3.33897 0
M  V30 41397 H 3897.99 -6.36752 -2.14469 0
M  V30 41398 N 3900.71 0.562296 -1.47228 0
M  V30 41399 C 3901.64 1.67962 -1.62207 0
M  V30 41400 C 3902.62 1.6343 -0.471667 0
M  V30 41401 O 3903.8 1.8113 -0.700392 0
M  V30 41402 C 3900.93 3.06602 -1.63133 0
M  V30 41403 C 3899.89 3.25978 -2.77349 0
M  V30 41404 C 3899.21 4.65353 -2.63344 0
M  V30 41405 C 3900.51 3.11842 -4.18989 0
M  V30 41406 H 3902.21 1.55682 -2.55741 0
M  V30 41407 H 3899.75 0.747539 -1.23077 0
M  V30 41408 H 3901.7 3.84609 -1.72203 0
M  V30 41409 H 3900.43 3.1983 -0.661557 0
M  V30 41410 H 3899.09 2.50378 -2.6778 0
M  V30 41411 H 3898.74 4.75373 -1.64406 0
M  V30 41412 H 3898.44 4.79267 -3.39966 0
M  V30 41413 H 3899.96 5.45502 -2.74336 0
M  V30 41414 H 3901.37 3.79672 -4.29561 0
M  V30 41415 H 3899.77 3.37268 -4.96357 0
M  V30 41416 H 3900.84 2.08653 -4.37712 0
M  V30 41417 N 3902.18 1.35274 0.808615 0
M  V30 41418 C 3903.41 1.31702 1.60217 0
M  V30 41419 C 3903.83 -0.103353 1.87816 0
M  V30 41420 O 3903.19 -1.06955 1.46391 0
M  V30 41421 C 3903.24 2.12745 2.91156 0
M  V30 41422 O 3902.34 1.50677 3.83888 0
M  V30 41423 H 3901.68 0.451648 0.486734 0
M  V30 41424 H 3904.21 1.78286 1.00375 0
M  V30 41425 H 3904.22 2.24626 3.40598 0
M  V30 41426 H 3902.9 3.16007 2.70394 0
M  V30 41427 H 3901.48 1.47624 3.42435 0
M  V30 41428 N 3903.66 -1.03053 1.19239 0
M  V30 41429 C 3905.08 -1.28671 0.944246 0
M  V30 41430 C 3905.28 -1.97801 -0.384344 0
M  V30 41431 O 3904.33 -2.26486 -1.11625 0
M  V30 41432 C 3905.65 -2.13543 2.11707 0
M  V30 41433 C 3907.2 -2.26856 2.15651 0
M  V30 41434 C 3907.67 -3.15099 3.32381 0
M  V30 41435 N 3909.16 -3.22687 3.32306 0
M  V30 41436 C 3909.9 -3.91151 4.19271 0
M  V30 41437 N 3909.39 -4.61859 5.16389 0
M  V30 41438 N 3911.19 -3.87533 4.07154 0
M  V30 41439 H 3903.34 -0.565951 2.04721 0
M  V30 41440 H 3905.6 -0.312312 0.895078 0
M  V30 41441 H 3905.31 -1.70067 3.07848 0
M  V30 41442 H 3905.18 -3.1425 2.0863 0
M  V30 41443 H 3907.57 -2.69563 1.20083 0
M  V30 41444 H 3907.65 -1.25704 2.22783 0
M  V30 41445 H 3907.29 -2.73101 4.28227 0
M  V30 41446 H 3907.22 -4.16306 3.22486 0
M  V30 41447 H 3909.71 -2.72327 2.62005 0
M  V30 41448 H 3910.03 -5.11726 5.79099 0
M  V30 41449 H 3908.37 -4.6073 5.20339 0
M  V30 41450 H 3911.56 -3.31432 3.30561 0
M  V30 41451 H 3911.73 -4.40617 4.75143 0
M  V30 41452 N 3905.14 -0.996042 -1.22134 0
M  V30 41453 C 3906.09 -0.54893 -2.24177 0
M  V30 41454 C 3907.06 0.420363 -1.60693 0
M  V30 41455 O 3908.24 0.324419 -1.88022 0
M  V30 41456 C 3905.38 0.127178 -3.44866 0
M  V30 41457 C 3904.5 -0.884228 -4.22854 0
M  V30 41458 C 3903.63 -0.181312 -5.3089 0
M  V30 41459 C 3902.67 -1.18088 -6.00601 0
M  V30 41460 N 3901.81 -0.50605 -7.00274 0
M  V30 41461 H 3906.65 -1.42382 -2.61785 0
M  V30 41462 H 3904.18 -0.713147 -1.28657 0
M  V30 41463 H 3906.14 0.536121 -4.13741 0
M  V30 41464 H 3904.77 0.965838 -3.08012 0
M  V30 41465 H 3903.82 -1.41147 -3.53244 0
M  V30 41466 H 3905.14 -1.64527 -4.70885 0
M  V30 41467 H 3904.29 0.284201 -6.06034 0
M  V30 41468 H 3903.03 0.612204 -4.83842 0
M  V30 41469 H 3902.03 -1.65698 -5.24237 0
M  V30 41470 H 3903.26 -1.97532 -6.49737 0
M  V30 41471 H 3901.2 0.267973 -6.55452 0
M  V30 41472 H 3901.12 -1.20548 -7.46327 0
M  V30 41473 H 3902.39 -0.0634439 -7.79474 0
M  V30 41474 N 3906.62 1.37529 -0.769636 0
M  V30 41475 C 3907.55 2.32892 -0.16843 0
M  V30 41476 C 3908.53 1.55675 0.685522 0
M  V30 41477 O 3909.71 1.83922 0.623418 0
M  V30 41478 C 3906.84 3.399 0.713123 0
M  V30 41479 C 3905.8 4.27982 -0.0393561 0
M  V30 41480 C 3905.12 5.25984 0.961503 0
M  V30 41481 C 3906.42 5.0792 -1.21713 0
M  V30 41482 H 3908.12 2.8342 -0.965072 0
M  V30 41483 H 3905.66 1.36268 -0.465526 0
M  V30 41484 H 3907.62 4.05588 1.14351 0
M  V30 41485 H 3906.34 2.87892 1.54226 0
M  V30 41486 H 3905 3.63822 -0.450493 0
M  V30 41487 H 3904.65 4.70257 1.78513 0
M  V30 41488 H 3904.35 5.85776 0.462576 0
M  V30 41489 H 3905.87 5.94548 1.39087 0
M  V30 41490 H 3907.29 5.6676 -0.863505 0
M  V30 41491 H 3905.68 5.77028 -1.648 0
M  V30 41492 H 3906.75 4.40718 -2.02227 0
M  V30 41493 N 3908.1 0.520003 1.48774 0
M  V30 41494 C 3909.34 -0.0177149 2.02492 0
M  V30 41495 C 3909.67 -1.35223 1.39803 0
M  V30 41496 O 3908.93 -1.88397 0.529624 0
M  V30 41497 C 3909.23 -0.199141 3.56845 0
M  V30 41498 C 3908.89 1.05976 4.38269 0
M  V30 41499 C 3907.55 1.4048 4.60238 0
M  V30 41500 C 3909.91 1.89568 4.85503 0
M  V30 41501 C 3907.23 2.58492 5.26687 0
M  V30 41502 C 3909.59 3.06749 5.53252 0
M  V30 41503 C 3908.25 3.41611 5.73462 0
M  V30 41504 H 3907.52 -0.00648234 0.740972 0
M  V30 41505 H 3910.17 0.684008 1.78867 0
M  V30 41506 H 3908.47 -0.983551 3.79254 0
M  V30 41507 H 3910.17 -0.62995 3.96021 0
M  V30 41508 H 3906.76 0.781029 4.21424 0
M  V30 41509 H 3910.94 1.64223 4.68342 0
M  V30 41510 H 3906.2 2.85717 5.40533 0
M  V30 41511 H 3910.37 3.71835 5.88822 0
M  V30 41512 H 3908 4.33155 6.24724 0
M  V30 41513 N 3909.57 -1.55529 0.254676 0
M  V30 41514 C 3910.82 -2.00161 -0.361528 0
M  V30 41515 C 3911.18 -1.13989 -1.54998 0
M  V30 41516 O 3910.47 -0.197198 -1.90582 0
M  V30 41517 C 3910.66 -3.48013 -0.813719 0
M  V30 41518 C 3910.49 -4.48492 0.329371 0
M  V30 41519 C 3909.26 -4.98821 0.806572 0
M  V30 41520 C 3911.46 -5.0107 1.159 0
M  V30 41521 N 3909.44 -5.83062 1.92126 0
M  V30 41522 C 3910.81 -5.82558 2.12194 0
M  V30 41523 C 3912.87 -4.83355 1.19468 0
M  V30 41524 C 3911.57 -6.4822 3.11774 0
M  V30 41525 C 3913.6 -5.49801 2.17883 0
M  V30 41526 C 3912.96 -6.31083 3.12912 0
M  V30 41527 H 3909.06 -0.775831 -0.0980324 0
M  V30 41528 H 3911.64 -1.91074 0.374031 0
M  V30 41529 H 3909.81 -3.57484 -1.51855 0
M  V30 41530 H 3911.54 -3.79509 -1.40553 0
M  V30 41531 H 3908.3 -4.71997 0.389371 0
M  V30 41532 H 3908.72 -6.29877 2.48161 0
M  V30 41533 H 3913.37 -4.20136 0.473841 0
M  V30 41534 H 3911.08 -7.106 3.84803 0
M  V30 41535 H 3914.67 -5.38044 2.21359 0
M  V30 41536 H 3913.55 -6.8159 3.8782 0
M  V30 41537 N 3911.05 0.0183372 -1.57589 0
M  V30 41538 C 3912.3 0.705579 -1.89383 0
M  V30 41539 C 3912.62 1.75318 -0.853728 0
M  V30 41540 O 3911.89 1.95584 0.111288 0
M  V30 41541 H 3910.47 0.263593 -0.698948 0
M  V30 41542 H 3913.13 -0.018251 -1.94891 0
M  V30 41543 H 3912.23 1.1884 -2.88589 0
M  V30 41544 N 3912.53 1.54894 0.290797 0
M  V30 41545 C 3913.78 1.73867 1.02241 0
M  V30 41546 C 3914.09 0.537199 1.88079 0
M  V30 41547 O 3915.3 0.608954 2.64583 0
M  V30 41548 C 3913.75 3.07652 1.86757 0
M  V30 41549 C 3913.36 4.3531 1.05872 0
M  V30 41550 C 3915.11 3.35981 2.59456 0
M  V30 41551 C 3913.01 5.60142 1.89724 0
M  V30 41552 H 3911.94 0.648035 0.385444 0
M  V30 41553 H 3914.59 1.81368 0.278898 0
M  V30 41554 H 3912.98 2.94142 2.65135 0
M  V30 41555 H 3914.15 4.59685 0.320362 0
M  V30 41556 H 3912.47 4.13993 0.447096 0
M  V30 41557 H 3915.06 4.26448 3.22562 0
M  V30 41558 H 3915.41 2.55312 3.28818 0
M  V30 41559 H 3915.94 3.50508 1.8812 0
M  V30 41560 H 3912.68 6.43507 1.24813 0
M  V30 41561 H 3912.2 5.39937 2.61205 0
M  V30 41562 H 3913.88 5.9778 2.47525 0
M  V30 41563 N 3914.01 -0.55448 1.47524 0
M  V30 41564 C 3915.26 -1.31153 1.54289 0
M  V30 41565 C 3915.58 -1.93403 0.206313 0
M  V30 41566 O 3914.84 -1.78553 -0.801071 0
M  V30 41567 C 3915.14 -2.44016 2.61134 0
M  V30 41568 C 3914.8 -1.99579 4.04325 0
M  V30 41569 C 3913.47 -1.87177 4.43304 0
M  V30 41570 C 3915.82 -1.65694 4.94161 0
M  V30 41571 C 3913.15 -1.39188 5.6995 0
M  V30 41572 C 3915.5 -1.19176 6.21273 0
M  V30 41573 C 3914.16 -1.05371 6.59131 0
M  V30 41574 H 3913.43 -0.479924 0.564583 0
M  V30 41575 H 3916.08 -0.62149 1.81135 0
M  V30 41576 H 3914.38 -3.18587 2.28055 0
M  V30 41577 H 3916.08 -3.02194 2.6359 0
M  V30 41578 H 3912.67 -2.10176 3.73529 0
M  V30 41579 H 3916.85 -1.74147 4.64743 0
M  V30 41580 H 3912.11 -1.27167 5.98029 0
M  V30 41581 H 3916.28 -0.92019 6.90294 0
M  V30 41582 H 3913.91 -0.679644 7.57156 0
M  V30 41583 N 3915.49 -1.35701 -0.80143 0
M  V30 41584 C 3916.76 -1.19822 -1.54603 0
M  V30 41585 C 3917.14 0.220556 -2.09945 0
M  V30 41586 O 3916.49 1.22472 -1.92906 0
M  V30 41587 C 3916.7 -2.27048 -2.65048 0
M  V30 41588 C 3918.05 -2.63114 -3.33251 0
M  V30 41589 O 3919.07 -2.26 -2.75322 0
M  V30 41590 O 3917.93 -3.2695 -4.37911 0
M  V30 41591 H 3915.03 -0.465819 -0.683332 0
M  V30 41592 H 3917.57 -1.47398 -0.840946 0
M  V30 41593 H 3916.34 -3.22186 -2.22063 0
M  V30 41594 H 3915.97 -2.0077 -3.43187 0
M  V30 41595 N 3916.96 1.02419 -1.19783 0
M  V30 41596 C 3917.93 2.08962 -0.941668 0
M  V30 41597 C 3918.93 1.60602 0.0797465 0
M  V30 41598 O 3920.12 1.73505 -0.155503 0
M  V30 41599 C 3917.25 3.3835 -0.416173 0
M  V30 41600 H 3918.44 2.33121 -1.88665 0
M  V30 41601 H 3916 1.19102 -1.01215 0
M  V30 41602 H 3916.73 3.19863 0.534634 0
M  V30 41603 H 3916.52 3.74774 -1.15269 0
M  V30 41604 H 3918.01 4.16813 -0.256187 0
M  V30 41605 N 3918.44 1.0025 1.21604 0
M  V30 41606 C 3919.37 0.580951 2.26157 0
M  V30 41607 C 3920.35 -0.396988 1.65403 0
M  V30 41608 O 3921.54 -0.285518 1.9209 0
M  V30 41609 C 3918.67 -0.0956954 3.47168 0
M  V30 41610 C 3917.62 0.801769 4.20423 0
M  V30 41611 C 3916.95 -0.00832843 5.34699 0
M  V30 41612 C 3918.25 2.1032 4.78083 0
M  V30 41613 H 3919.94 1.45491 2.61673 0
M  V30 41614 H 3917.49 0.701017 1.25785 0
M  V30 41615 H 3919.44 -0.402067 4.19478 0
M  V30 41616 H 3918.17 -1.00427 3.10776 0
M  V30 41617 H 3916.83 1.09193 3.49961 0
M  V30 41618 H 3916.47 -0.918119 4.9455 0
M  V30 41619 H 3916.17 0.589208 5.84638 0
M  V30 41620 H 3917.7 -0.308573 6.0982 0
M  V30 41621 H 3919.11 1.86014 5.42284 0
M  V30 41622 H 3917.51 2.65037 5.38401 0
M  V30 41623 H 3918.58 2.77562 3.97602 0
M  V30 41624 N 3919.92 -1.37119 0.776919 0
M  V30 41625 C 3921.15 -2.04357 0.353947 0
M  V30 41626 C 3921.57 -1.58209 -1.01742 0
M  V30 41627 O 3920.93 -0.74472 -1.65299 0
M  V30 41628 C 3920.98 -3.58239 0.411981 0
M  V30 41629 O 3920.08 -4.0822 -0.585688 0
M  V30 41630 H 3919.42 -0.646287 0.152346 0
M  V30 41631 H 3921.95 -1.75329 1.05455 0
M  V30 41632 H 3921.96 -4.07098 0.271115 0
M  V30 41633 H 3920.64 -3.91182 1.41242 0
M  V30 41634 H 3919.21 -3.70667 -0.407515 0
M  V30 41635 N 3921.4 -0.527886 -1.48496 0
M  V30 41636 C 3922.33 0.273117 -2.27567 0
M  V30 41637 C 3923.34 0.906358 -1.35237 0
M  V30 41638 O 3924.53 0.785154 -1.60305 0
M  V30 41639 C 3921.63 1.40181 -3.08549 0
M  V30 41640 C 3920.81 0.870887 -4.28642 0
M  V30 41641 C 3919.87 1.88045 -4.91452 0
M  V30 41642 O 3918.89 1.43823 -5.5073 0
M  V30 41643 N 3920.09 3.21251 -4.83506 0
M  V30 41644 H 3922.86 -0.405015 -2.96951 0
M  V30 41645 H 3920.42 -0.362085 -1.57799 0
M  V30 41646 H 3922.41 2.07531 -3.47438 0
M  V30 41647 H 3920.98 1.98365 -2.41599 0
M  V30 41648 H 3920.2 0.0214638 -3.94194 0
M  V30 41649 H 3921.49 0.495016 -5.06386 0
M  V30 41650 H 3920.89 3.59847 -4.36494 0
M  V30 41651 H 3919.44 3.84239 -5.26501 0
M  V30 41652 N 3922.88 1.55391 -0.26292 0
M  V30 41653 C 3923.82 2.2204 0.629814 0
M  V30 41654 C 3924.79 1.18968 1.15913 0
M  V30 41655 O 3925.98 1.4747 1.21067 0
M  V30 41656 C 3923.12 2.93593 1.81375 0
M  V30 41657 C 3922.23 4.11357 1.31945 0
M  V30 41658 C 3921.37 4.70584 2.46422 0
M  V30 41659 C 3920.41 5.80565 1.93933 0
M  V30 41660 N 3919.54 6.33908 3.01837 0
M  V30 41661 H 3924.38 2.9795 0.054795 0
M  V30 41662 H 3921.92 1.47092 0.0152814 0
M  V30 41663 H 3923.88 3.33287 2.5095 0
M  V30 41664 H 3922.51 2.20129 2.36099 0
M  V30 41665 H 3921.56 3.76867 0.517215 0
M  V30 41666 H 3922.87 4.90706 0.894907 0
M  V30 41667 H 3922.03 5.12935 3.24011 0
M  V30 41668 H 3920.77 3.90485 2.92186 0
M  V30 41669 H 3919.77 5.37677 1.1482 0
M  V30 41670 H 3921 6.62526 1.4912 0
M  V30 41671 H 3918.94 5.56707 3.47006 0
M  V30 41672 H 3918.86 7.08495 2.63762 0
M  V30 41673 H 3920.13 6.80917 3.79437 0
M  V30 41674 N 3924.36 -0.00997961 1.57597 0
M  V30 41675 C 3925.3 -1.00459 2.0779 0
M  V30 41676 C 3926.27 -1.34753 0.971124 0
M  V30 41677 O 3927.46 -1.44762 1.24292 0
M  V30 41678 C 3924.6 -2.2945 2.57773 0
M  V30 41679 C 3923.71 -2.01147 3.82314 0
M  V30 41680 C 3922.85 -3.24146 4.20836 0
M  V30 41681 C 3921.88 -2.91484 5.38241 0
M  V30 41682 N 3921.02 -4.06991 5.72104 0
M  V30 41683 H 3925.86 -0.569623 2.92505 0
M  V30 41684 H 3923.4 -0.26962 1.44608 0
M  V30 41685 H 3925.36 -3.04844 2.84826 0
M  V30 41686 H 3923.99 -2.70634 1.75946 0
M  V30 41687 H 3923.04 -1.16165 3.62229 0
M  V30 41688 H 3924.35 -1.73066 4.67814 0
M  V30 41689 H 3923.5 -4.07894 4.49119 0
M  V30 41690 H 3922.24 -3.55357 3.34025 0
M  V30 41691 H 3921.25 -2.06142 5.09692 0
M  V30 41692 H 3922.47 -2.61532 6.2672 0
M  V30 41693 H 3920.42 -4.38117 4.88251 0
M  V30 41694 H 3920.34 -3.824 6.52155 0
M  V30 41695 H 3921.6 -4.91556 6.04973 0
M  V30 41696 N 3925.83 -1.55046 -0.282578 0
M  V30 41697 C 3927.06 -1.78954 -1.03242 0
M  V30 41698 C 3927.47 -0.558257 -1.80776 0
M  V30 41699 O 3926.81 0.481978 -1.77264 0
M  V30 41700 C 3926.88 -2.95633 -2.04552 0
M  V30 41701 C 3926.54 -4.33036 -1.46044 0
M  V30 41702 C 3927.54 -5.12381 -0.880993 0
M  V30 41703 C 3925.22 -4.79676 -1.49052 0
M  V30 41704 C 3927.22 -6.36496 -0.33942 0
M  V30 41705 C 3924.9 -6.03748 -0.945083 0
M  V30 41706 C 3925.9 -6.81994 -0.370523 0
M  V30 41707 O 3925.59 -8.03727 0.166589 0
M  V30 41708 H 3925.32 -0.600146 -0.311129 0
M  V30 41709 H 3927.88 -2.02865 -0.321715 0
M  V30 41710 H 3926.11 -2.67391 -2.79355 0
M  V30 41711 H 3927.79 -3.06951 -2.65586 0
M  V30 41712 H 3928.56 -4.77484 -0.850518 0
M  V30 41713 H 3924.44 -4.18788 -1.92712 0
M  V30 41714 H 3927.98 -6.97514 0.109686 0
M  V30 41715 H 3923.88 -6.38128 -0.972766 0
M  V30 41716 H 3924.65 -8.18481 0.0550359 0
M  V30 41717 N 3927.31 0.546649 -1.47816 0
M  V30 41718 C 3928.22 1.68 -1.63747 0
M  V30 41719 C 3929.24 1.66044 -0.520147 0
M  V30 41720 O 3930.41 1.85299 -0.789066 0
M  V30 41721 C 3927.48 3.04494 -1.65784 0
M  V30 41722 C 3926.54 3.17436 -2.8902 0
M  V30 41723 C 3925.77 4.47419 -2.9095 0
M  V30 41724 O 3926 5.33518 -2.01779 0
M  V30 41725 O 3924.93 4.64375 -3.82935 0
M  V30 41726 H 3928.76 1.57501 -2.59668 0
M  V30 41727 H 3926.34 0.71786 -1.31023 0
M  V30 41728 H 3928.22 3.85702 -1.69741 0
M  V30 41729 H 3926.9 3.15354 -0.730323 0
M  V30 41730 H 3925.8 2.35586 -2.90603 0
M  V30 41731 H 3927.14 3.11485 -3.81101 0
M  V30 41732 N 3928.79 1.36124 0.794222 0
M  V30 41733 C 3929.72 1.2592 1.91512 0
M  V30 41734 C 3930.73 0.179743 1.61805 0
M  V30 41735 O 3931.92 0.434059 1.73142 0
M  V30 41736 C 3929.02 0.919076 3.262 0
M  V30 41737 C 3928.2 2.09944 3.83722 0
M  V30 41738 C 3927.26 1.73313 4.96839 0
M  V30 41739 O 3926.28 2.45342 5.13611 0
M  V30 41740 N 3927.48 0.663988 5.7669 0
M  V30 41741 H 3930.25 2.22495 2.00789 0
M  V30 41742 H 3927.81 1.29456 0.972257 0
M  V30 41743 H 3929.8 0.655278 3.9936 0
M  V30 41744 H 3928.37 0.0426155 3.12571 0
M  V30 41745 H 3927.59 2.52632 3.02607 0
M  V30 41746 H 3928.88 2.88814 4.18884 0
M  V30 41747 H 3928.28 0.0658065 5.65662 0
M  V30 41748 H 3926.83 0.460003 6.50175 0
M  V30 41749 N 3930.27 -1.01782 1.20325 0
M  V30 41750 C 3931.18 -2.1376 0.966641 0
M  V30 41751 C 3932.19 -1.73829 -0.0770753 0
M  V30 41752 O 3933.37 -2.01099 0.110089 0
M  V30 41753 C 3930.43 -3.42771 0.520465 0
M  V30 41754 C 3929.5 -3.96951 1.63489 0
M  V30 41755 C 3928.73 -5.19805 1.2099 0
M  V30 41756 O 3928.95 -5.70347 0.0780816 0
M  V30 41757 O 3927.89 -5.67104 2.01684 0
M  V30 41758 H 3931.71 -2.36589 1.90418 0
M  V30 41759 H 3929.3 -1.12153 0.987017 0
M  V30 41760 H 3931.18 -4.20463 0.280821 0
M  V30 41761 H 3929.85 -3.2136 -0.388507 0
M  V30 41762 H 3928.76 -3.20543 1.9288 0
M  V30 41763 H 3930.09 -4.22748 2.52082 0
M  V30 41764 N 3931.75 -1.00894 -1.21071 0
M  V30 41765 C 3932.68 -0.592936 -2.25846 0
M  V30 41766 C 3933.66 0.388211 -1.65611 0
M  V30 41767 O 3934.84 0.275327 -1.92238 0
M  V30 41768 C 3931.97 0.0772829 -3.47214 0
M  V30 41769 C 3930.93 -0.824053 -4.19992 0
M  V30 41770 C 3930.25 -0.0200281 -5.34696 0
M  V30 41771 C 3931.55 -2.12852 -4.76961 0
M  V30 41772 H 3933.25 -1.46877 -2.60897 0
M  V30 41773 H 3930.79 -0.707678 -1.25411 0
M  V30 41774 H 3932.74 0.379816 -4.19685 0
M  V30 41775 H 3931.47 0.987778 -3.11305 0
M  V30 41776 H 3930.13 -1.11047 -3.49377 0
M  V30 41777 H 3929.78 0.891878 -4.9503 0
M  V30 41778 H 3929.48 -0.620204 -5.84318 0
M  V30 41779 H 3931 0.276229 -6.09975 0
M  V30 41780 H 3932.41 -1.88887 -5.4129 0
M  V30 41781 H 3930.81 -2.67889 -5.36988 0
M  V30 41782 H 3931.88 -2.79666 -3.96125 0
M  V30 41783 N 3933.22 1.36705 -0.78418 0
M  V30 41784 C 3934.47 1.99379 -0.354168 0
M  V30 41785 C 3934.8 1.62243 1.07273 0
M  V30 41786 O 3934.05 0.866348 1.75479 0
M  V30 41787 C 3934.35 3.54439 -0.459067 0
M  V30 41788 C 3934.02 4.1138 -1.84601 0
M  V30 41789 C 3932.68 4.26644 -2.2255 0
M  V30 41790 C 3935.03 4.42472 -2.75441 0
M  V30 41791 C 3932.36 4.70308 -3.50752 0
M  V30 41792 C 3934.71 4.87567 -4.03065 0
M  V30 41793 C 3933.38 5.01036 -4.41043 0
M  V30 41794 H 3932.65 0.729579 -0.129599 0
M  V30 41795 H 3935.29 1.63278 -1.00062 0
M  V30 41796 H 3933.6 3.90862 0.270901 0
M  V30 41797 H 3935.3 4.00856 -0.107463 0
M  V30 41798 H 3931.89 3.99935 -1.5411 0
M  V30 41799 H 3936.07 4.30254 -2.47377 0
M  V30 41800 H 3931.33 4.78924 -3.80055 0
M  V30 41801 H 3935.5 5.1059 -4.73572 0
M  V30 41802 H 3933.13 5.3463 -5.4044 0
M  V30 41803 N 3934.7 0.535753 1.48214 0
M  V30 41804 C 3935.65 -0.223851 2.29712 0
M  V30 41805 C 3936.62 -0.928447 1.37728 0
M  V30 41806 O 3937.8 -0.928346 1.66692 0
M  V30 41807 C 3934.94 -1.26125 3.21227 0
M  V30 41808 C 3934.06 -0.56491 4.28291 0
M  V30 41809 C 3933.19 -1.58574 5.06979 0
M  V30 41810 C 3932.23 -0.873181 6.0584 0
M  V30 41811 N 3931.37 -1.83982 6.77565 0
M  V30 41812 H 3936.21 0.477293 2.94153 0
M  V30 41813 H 3933.75 0.247212 1.45008 0
M  V30 41814 H 3935.7 -1.87508 3.72689 0
M  V30 41815 H 3934.33 -1.9307 2.58696 0
M  V30 41816 H 3933.39 0.162983 3.80051 0
M  V30 41817 H 3934.7 -0.00569464 4.988 0
M  V30 41818 H 3933.85 -2.27369 5.62484 0
M  V30 41819 H 3932.59 -2.17885 4.36322 0
M  V30 41820 H 3931.6 -0.171189 5.49533 0
M  V30 41821 H 3932.82 -0.286099 6.78497 0
M  V30 41822 H 3930.77 -2.42191 6.09655 0
M  V30 41823 H 3930.68 -1.3322 7.4417 0
M  V30 41824 H 3931.95 -2.51958 7.37657 0
M  V30 41825 N 3936.18 -1.5525 0.271158 0
M  V30 41826 C 3937.11 -2.25344 -0.61175 0
M  V30 41827 C 3938.09 -1.24218 -1.16206 0
M  V30 41828 O 3939.28 -1.52929 -1.19693 0
M  V30 41829 C 3936.41 -2.9715 -1.79775 0
M  V30 41830 C 3935.36 -4.05171 -1.37915 0
M  V30 41831 C 3934.69 -4.64531 -2.64793 0
M  V30 41832 C 3935.99 -5.19581 -0.532266 0
M  V30 41833 H 3937.68 -2.99388 -0.0272011 0
M  V30 41834 H 3935.23 -1.43995 -0.0116428 0
M  V30 41835 H 3937.18 -3.44896 -2.42126 0
M  V30 41836 H 3935.9 -2.20635 -2.40807 0
M  V30 41837 H 3934.56 -3.58231 -0.778855 0
M  V30 41838 H 3934.21 -3.84688 -3.24074 0
M  V30 41839 H 3933.91 -5.37465 -2.37498 0
M  V30 41840 H 3935.43 -5.15023 -3.28 0
M  V30 41841 H 3936.85 -5.63403 -1.06068 0
M  V30 41842 H 3935.25 -5.99053 -0.354365 0
M  V30 41843 H 3936.32 -4.82808 0.449895 0
M  V30 41844 N 3937.66 0.00162173 -1.576 0
M  V30 41845 C 3938.62 0.978387 -2.07269 0
M  V30 41846 C 3939.62 1.27349 -0.98178 0
M  V30 41847 O 3940.81 1.21894 -1.24449 0
M  V30 41848 C 3937.94 2.30375 -2.51277 0
M  V30 41849 H 3939.14 0.548793 -2.94836 0
M  V30 41850 H 3936.69 0.249059 -1.54303 0
M  V30 41851 H 3937.42 2.78027 -1.66948 0
M  V30 41852 H 3937.21 2.10277 -3.30947 0
M  V30 41853 H 3938.7 3.00448 -2.90036 0
M  V30 41854 N 3939.14 1.55194 0.274352 0
M  V30 41855 C 3940.07 1.90989 1.34333 0
M  V30 41856 C 3941.05 0.771608 1.51592 0
M  V30 41857 O 3942.23 1.02963 1.64658 0
M  V30 41858 C 3939.36 2.18062 2.70308 0
M  V30 41859 C 3938.32 3.33882 2.67781 0
M  V30 41860 C 3937.64 3.46432 4.07295 0
M  V30 41861 C 3938.94 4.7031 2.2717 0
M  V30 41862 H 3940.64 2.80526 1.04622 0
M  V30 41863 H 3938.18 1.34972 0.501843 0
M  V30 41864 H 3940.14 2.41691 3.45201 0
M  V30 41865 H 3938.86 1.25324 3.01598 0
M  V30 41866 H 3937.52 3.10219 1.95345 0
M  V30 41867 H 3937.17 2.51162 4.35806 0
M  V30 41868 H 3936.87 4.24302 4.06499 0
M  V30 41869 H 3938.39 3.72351 4.83929 0
M  V30 41870 H 3939.8 4.93492 2.91785 0
M  V30 41871 H 3938.2 5.51086 2.37538 0
M  V30 41872 H 3939.27 4.69223 1.22301 0
M  V30 41873 N 3940.61 -0.538802 1.48104 0
M  V30 41874 C 3942.03 -1.12082 1.49313 0
M  V30 41875 C 3942.38 -1.94496 0.257999 0
M  V30 41876 O 3941.5 -2.06855 -0.635618 0
M  V30 41877 C 3942.1 -2.03934 2.70548 0
M  V30 41878 C 3940.66 -2.57371 2.74658 0
M  V30 41879 C 3939.8 -1.3414 2.42697 0
M  V30 41880 H 3942.75 -0.324485 1.55347 0
M  V30 41881 H 3942.77 -2.8809 2.48565 0
M  V30 41882 H 3942.29 -1.43924 3.60427 0
M  V30 41883 H 3940.39 -3.21127 1.88966 0
M  V30 41884 H 3940.5 -2.97107 3.75851 0
M  V30 41885 H 3938.86 -1.65426 1.93666 0
M  V30 41886 H 3939.65 -0.75895 3.34806 0
M  V30 41887 N 3942.09 -1.36544 -0.786992 0
M  V30 41888 C 3943.33 -1.32292 -1.55814 0
M  V30 41889 C 3943.7 0.0960822 -1.91759 0
M  V30 41890 O 3944.9 0.263173 -2.67509 0
M  V30 41891 C 3943.17 -2.22203 -2.7993 0
M  V30 41892 S 3944.73 -2.35658 -3.7015 0
M  V30 41893 H 3941.55 -0.469857 -0.533625 0
M  V30 41894 H 3944.15 -1.7214 -0.926725 0
M  V30 41895 H 3942.85 -3.24248 -2.51578 0
M  V30 41896 H 3942.38 -1.83384 -3.48043 0
M  V30 41897 H 3944.4 -1.55587 -4.71176 0
M  V30 41898 N 3943.57 1.01143 -1.20863 0
M  V30 41899 C 3944.5 2.11656 -0.986095 0
M  V30 41900 C 3945.48 1.69879 0.0867259 0
M  V30 41901 O 3946.67 1.94067 -0.0718233 0
M  V30 41902 C 3943.8 3.43029 -0.542998 0
M  V30 41903 C 3942.75 3.98571 -1.55965 0
M  V30 41904 C 3942.08 5.25772 -0.97301 0
M  V30 41905 C 3943.38 4.3137 -2.94478 0
M  V30 41906 H 3945.07 2.30531 -1.91039 0
M  V30 41907 H 3942.62 1.10785 -0.919933 0
M  V30 41908 H 3944.57 4.19732 -0.37452 0
M  V30 41909 H 3943.29 3.23928 0.416931 0
M  V30 41910 H 3941.95 3.23981 -1.71558 0
M  V30 41911 H 3941.6 5.03 -0.00499288 0
M  V30 41912 H 3941.3 5.63898 -1.65204 0
M  V30 41913 H 3942.82 6.05127 -0.815713 0
M  V30 41914 H 3944.24 4.98941 -2.82367 0
M  V30 41915 H 3942.64 4.80623 -3.59335 0
M  V30 41916 H 3943.71 3.39917 -3.4581 0
M  V30 41917 N 3945.05 1.01535 1.20534 0
M  V30 41918 C 3946.27 0.722942 1.94392 0
M  V30 41919 C 3946.7 -0.709827 1.74193 0
M  V30 41920 O 3946.06 -1.48826 1.0354 0
M  V30 41921 C 3946.1 1.06237 3.44596 0
M  V30 41922 O 3945.21 0.173359 4.12035 0
M  V30 41923 H 3944.55 0.268355 0.607356 0
M  V30 41924 H 3947.08 1.35838 1.53001 0
M  V30 41925 H 3947.09 1.01355 3.9521 0
M  V30 41926 H 3945.76 2.10628 3.58621 0
M  V30 41927 H 3944.34 0.279595 3.7185 0
M  V30 41928 N 3946.53 -1.36288 0.791419 0
M  V30 41929 C 3947.49 -2.28351 0.19711 0
M  V30 41930 C 3948.49 -1.48914 -0.606722 0
M  V30 41931 O 3949.68 -1.68875 -0.427423 0
M  V30 41932 C 3946.81 -3.33059 -0.726951 0
M  V30 41933 H 3948 -2.8242 1.0089 0
M  V30 41934 H 3945.56 -1.45886 0.560984 0
M  V30 41935 H 3946.29 -2.84149 -1.56301 0
M  V30 41936 H 3946.08 -3.91803 -0.152468 0
M  V30 41937 H 3947.57 -4.01807 -1.13758 0
M  V30 41938 N 3948.01 -0.543606 -1.47928 0
M  V30 41939 C 3949.25 -0.0145236 -2.02795 0
M  V30 41940 C 3949.58 1.32635 -1.4185 0
M  V30 41941 O 3948.86 1.85987 -0.569132 0
M  V30 41942 C 3949.14 0.0930337 -3.5998 0
M  V30 41943 C 3949 -1.27397 -4.31381 0
M  V30 41944 C 3950.31 0.813175 -4.32522 0
M  V30 41945 H 3947.43 -0.006752 -0.736969 0
M  V30 41946 H 3950.08 -0.703269 -1.76505 0
M  V30 41947 H 3948.23 0.679617 -3.82509 0
M  V30 41948 H 3949.9 -1.90271 -4.20231 0
M  V30 41949 H 3948.14 -1.85228 -3.92266 0
M  V30 41950 H 3948.81 -1.15157 -5.39854 0
M  V30 41951 H 3951.29 0.315261 -4.14904 0
M  V30 41952 H 3950.16 0.857361 -5.42163 0
M  V30 41953 H 3950.42 1.86642 -4.00771 0
M  V30 41954 N 3949.48 1.55104 -0.279387 0
M  V30 41955 C 3950.45 2.21391 0.593175 0
M  V30 41956 C 3951.45 1.1931 1.07804 0
M  V30 41957 O 3952.64 1.44187 0.977534 0
M  V30 41958 C 3949.77 2.88324 1.81884 0
M  V30 41959 H 3950.96 2.99897 0.0143414 0
M  V30 41960 H 3948.51 1.56271 -0.0300358 0
M  V30 41961 H 3949.25 2.13842 2.43808 0
M  V30 41962 H 3949.03 3.63135 1.47904 0
M  V30 41963 H 3950.52 3.38956 2.43924 0
M  V30 41964 N 3950.96 0.0067362 1.57599 0
M  V30 41965 C 3952.21 -0.67536 1.90482 0
M  V30 41966 C 3952.53 -1.73938 0.881512 0
M  V30 41967 O 3951.8 -1.95736 -0.0801583 0
M  V30 41968 H 3950.38 -0.25244 0.703053 0
M  V30 41969 H 3953.04 0.0492543 1.94838 0
M  V30 41970 H 3952.14 -1.14234 2.90443 0
M  V30 41971 N 3952.44 -1.55337 -0.266118 0
M  V30 41972 C 3953.4 -1.87907 -1.31239 0
M  V30 41973 C 3954.4 -0.754108 -1.42021 0
M  V30 41974 O 3955.59 -1.02224 -1.41053 0
M  V30 41975 C 3952.72 -2.09046 -2.69282 0
M  V30 41976 H 3953.92 -2.81442 -1.03587 0
M  V30 41977 H 3951.47 -1.47934 -0.504511 0
M  V30 41978 H 3952.21 -1.17915 -3.02104 0
M  V30 41979 H 3951.99 -2.90959 -2.62841 0
M  V30 41980 H 3953.48 -2.35494 -3.44866 0
M  V30 41981 N 3953.92 0.53094 -1.48387 0
M  V30 41982 C 3954.85 1.64483 -1.65733 0
M  V30 41983 C 3955.83 1.62393 -0.506226 0
M  V30 41984 O 3957.01 1.79604 -0.738655 0
M  V30 41985 C 3954.14 3.03073 -1.69599 0
M  V30 41986 C 3953.1 3.20022 -2.84201 0
M  V30 41987 C 3952.42 4.59663 -2.73156 0
M  V30 41988 C 3953.72 3.02885 -4.25509 0
M  V30 41989 H 3955.42 1.50222 -2.58986 0
M  V30 41990 H 3952.96 0.721265 -1.24635 0
M  V30 41991 H 3954.92 3.8087 -1.80323 0
M  V30 41992 H 3953.64 3.18354 -0.729249 0
M  V30 41993 H 3952.3 2.44642 -2.73031 0
M  V30 41994 H 3951.95 4.71779 -1.74453 0
M  V30 41995 H 3951.65 4.71948 -3.50055 0
M  V30 41996 H 3953.17 5.3956 -2.85845 0
M  V30 41997 H 3954.59 3.70475 -4.37517 0
M  V30 41998 H 3952.98 3.26664 -5.03399 0
M  V30 41999 H 3954.05 1.99321 -4.4204 0
M  V30 42000 N 3955.4 1.36959 0.779739 0
M  V30 42001 C 3956.81 1.28383 1.35553 0
M  V30 42002 C 3957.16 -0.0721077 1.96067 0
M  V30 42003 O 3956.28 -0.973791 1.93252 0
M  V30 42004 C 3956.88 2.32481 2.4645 0
M  V30 42005 C 3955.44 2.27564 2.99819 0
M  V30 42006 C 3954.58 2.1674 1.72971 0
M  V30 42007 H 3957.53 1.47697 0.58062 0
M  V30 42008 H 3957.56 1.96685 3.25723 0
M  V30 42009 H 3957.07 3.31157 2.02377 0
M  V30 42010 H 3955.17 1.32386 3.48288 0
M  V30 42011 H 3955.28 3.20652 3.55976 0
M  V30 42012 H 3953.65 1.63153 1.95584 0
M  V30 42013 H 3954.43 3.17318 1.31013 0
M  V30 42014 N 3956.87 -1.00501 1.21398 0
M  V30 42015 C 3958.28 -1.55727 1.02986 0
M  V30 42016 C 3958.64 -1.91861 -0.410349 0
M  V30 42017 O 3957.76 -1.73482 -1.29355 0
M  V30 42018 C 3958.36 -2.82967 1.86321 0
M  V30 42019 C 3956.91 -3.34679 1.72241 0
M  V30 42020 C 3956.06 -2.07872 1.83533 0
M  V30 42021 H 3959.01 -0.827475 1.3542 0
M  V30 42022 H 3959.03 -3.54847 1.37345 0
M  V30 42023 H 3958.55 -2.56636 2.91135 0
M  V30 42024 H 3956.65 -3.65944 0.701112 0
M  V30 42025 H 3956.76 -4.06099 2.54205 0
M  V30 42026 H 3955.12 -2.20869 1.26842 0
M  V30 42027 H 3955.91 -1.83953 2.89855 0
M  V30 42028 N 3958.35 -1.02172 -1.19994 0
M  V30 42029 C 3959.63 -0.628926 -1.85213 0
M  V30 42030 C 3960.01 0.892751 -1.91293 0
M  V30 42031 O 3959.36 1.78656 -1.42459 0
M  V30 42032 C 3959.57 -1.28268 -3.24574 0
M  V30 42033 C 3960.91 -1.40137 -4.00807 0
M  V30 42034 O 3961.94 -1.23929 -3.33946 0
M  V30 42035 O 3960.8 -1.66377 -5.20558 0
M  V30 42036 H 3957.89 -0.217678 -0.797838 0
M  V30 42037 H 3960.44 -1.11943 -1.27542 0
M  V30 42038 H 3959.21 -2.32221 -3.14943 0
M  V30 42039 H 3958.83 -0.779589 -3.89882 0
M  V30 42040 N 3959.83 1.35866 -0.798635 0
M  V30 42041 C 3961.06 2.02944 -0.386953 0
M  V30 42042 C 3961.47 1.60342 1.00435 0
M  V30 42043 O 3960.81 0.792748 1.65714 0
M  V30 42044 C 3960.87 3.57467 -0.381817 0
M  V30 42045 C 3960.54 4.23305 -1.72227 0
M  V30 42046 C 3961.53 4.45546 -2.67927 0
M  V30 42047 C 3959.22 4.60588 -2.0041 0
M  V30 42048 C 3961.21 5.04162 -3.89999 0
M  V30 42049 C 3958.9 5.1892 -3.22746 0
M  V30 42050 C 3959.9 5.40648 -4.17359 0
M  V30 42051 O 3959.59 5.97753 -5.37538 0
M  V30 42052 H 3959.32 0.657669 -0.156355 0
M  V30 42053 H 3961.87 1.74634 -1.08131 0
M  V30 42054 H 3960.1 3.84935 0.369089 0
M  V30 42055 H 3961.79 4.05899 0.00645973 0
M  V30 42056 H 3962.56 4.17129 -2.47443 0
M  V30 42057 H 3958.44 4.42994 -1.27581 0
M  V30 42058 H 3961.98 5.21037 -4.6386 0
M  V30 42059 H 3957.88 5.46763 -3.43104 0
M  V30 42060 H 3958.64 6.16211 -5.38726 0
M  V30 42061 N 3961.31 0.551443 1.47638 0
M  V30 42062 C 3962.24 -0.247191 2.26857 0
M  V30 42063 C 3963.22 -0.925523 1.33689 0
M  V30 42064 O 3964.4 -0.945659 1.63063 0
M  V30 42065 C 3961.53 -1.35175 3.10557 0
M  V30 42066 C 3960.58 -0.782583 4.19259 0
M  V30 42067 S 3961.41 0.366343 5.34245 0
M  V30 42068 C 3962.56 -0.740175 6.21508 0
M  V30 42069 H 3962.8 0.425059 2.94246 0
M  V30 42070 H 3960.33 0.337647 1.50663 0
M  V30 42071 H 3962.29 -1.98436 3.59351 0
M  V30 42072 H 3960.95 -1.99581 2.42541 0
M  V30 42073 H 3960.14 -1.61187 4.7753 0
M  V30 42074 H 3959.74 -0.226263 3.73315 0
M  V30 42075 H 3962.04 -1.63369 6.57508 0
M  V30 42076 H 3962.98 -0.194952 7.07832 0
M  V30 42077 H 3963.39 -1.03025 5.55019 0
M  V30 42078 N 3962.79 -1.54953 0.287609 0
M  V30 42079 C 3963.7 -2.26686 -0.604196 0
M  V30 42080 C 3964.71 -1.29721 -1.15968 0
M  V30 42081 O 3965.89 -1.6268 -1.18732 0
M  V30 42082 C 3962.95 -2.98347 -1.76606 0
M  V30 42083 C 3962.01 -4.1082 -1.24601 0
M  V30 42084 C 3961.25 -4.79055 -2.3525 0
M  V30 42085 O 3961.47 -4.46568 -3.54871 0
M  V30 42086 O 3960.4 -5.66742 -2.02699 0
M  V30 42087 H 3964.23 -3.03692 -0.0227129 0
M  V30 42088 H 3961.82 -1.493 0.0545505 0
M  V30 42089 H 3963.7 -3.4334 -2.44326 0
M  V30 42090 H 3962.37 -2.24248 -2.3344 0
M  V30 42091 H 3961.28 -3.70256 -0.534914 0
M  V30 42092 H 3962.61 -4.86857 -0.723262 0
M  V30 42093 N 3964.26 -0.0150939 -1.57593 0
M  V30 42094 C 3965.49 0.680736 -1.9591 0
M  V30 42095 C 3965.91 1.65667 -0.890842 0
M  V30 42096 O 3965.27 1.80681 0.149631 0
M  V30 42097 C 3965.32 1.3757 -3.33327 0
M  V30 42098 O 3964.42 2.49061 -3.28698 0
M  V30 42099 H 3963.77 0.179938 -0.639154 0
M  V30 42100 H 3966.3 -0.0727763 -2.04471 0
M  V30 42101 H 3966.31 1.7357 -3.69239 0
M  V30 42102 H 3964.98 0.660233 -4.10626 0
M  V30 42103 H 3963.56 2.15276 -3.04484 0
M  V30 42104 N 3965.74 1.55476 0.257876 0
M  V30 42105 C 3966.69 1.90201 1.3389 0
M  V30 42106 C 3967.68 0.779894 1.5038 0
M  V30 42107 O 3968.89 0.964402 1.51984 0
M  V30 42108 H 3965.27 0.603909 0.448105 0
M  V30 42109 H 3967.24 2.80476 1.01863 0
M  V30 42110 C 3965.99 2.20365 2.68951 0
M  V30 42111 H 3965.31 3.06204 2.57058 0
M  V30 42112 H 3966.75 2.48573 3.43493 0
M  V30 42113 C 3965.21 1.01628 3.21206 0
M  V30 42114 O 3965.74 0.258637 4.00867 0
M  V30 42115 N 3963.94 0.809874 2.79087 0
M  V30 42116 H 3963.49 1.42768 2.14418 0
M  V30 42117 H 3963.45 0.0170724 3.14395 0
M  V30 42118 N 3967.22 -0.523064 1.48667 0
M  V30 42119 C 3968.45 -1.30119 1.60476 0
M  V30 42120 C 3968.86 -1.87309 0.2668 0
M  V30 42121 O 3968.2 -1.6747 -0.754945 0
M  V30 42122 C 3968.26 -2.48528 2.59757 0
M  V30 42123 C 3967.93 -2.12374 4.04656 0
M  V30 42124 C 3968.92 -1.67638 4.92131 0
M  V30 42125 C 3966.61 -2.22684 4.50241 0
M  V30 42126 C 3968.6 -1.33689 6.23222 0
M  V30 42127 C 3966.29 -1.88347 5.81351 0
M  V30 42128 C 3967.29 -1.43921 6.67664 0
M  V30 42129 O 3966.98 -1.10037 7.96334 0
M  V30 42130 H 3966.71 -0.4017 0.543703 0
M  V30 42131 H 3969.26 -0.636968 1.95274 0
M  V30 42132 H 3967.49 -3.17955 2.20095 0
M  V30 42133 H 3969.18 -3.10584 2.61329 0
M  V30 42134 H 3969.95 -1.59137 4.58149 0
M  V30 42135 H 3965.83 -2.56218 3.83241 0
M  V30 42136 H 3969.37 -0.989406 6.90548 0
M  V30 42137 H 3965.27 -1.96491 6.14867 0
M  V30 42138 H 3966.04 -1.23375 8.09148 0
M  V30 42139 N 3968.7 -1.37371 -0.772465 0
M  V30 42140 C 3969.94 -1.32736 -1.53326 0
M  V30 42141 C 3970.28 0.0882474 -1.93999 0
M  V30 42142 O 3969.55 1.04542 -1.64016 0
M  V30 42143 C 3969.84 -2.2658 -2.79881 0
M  V30 42144 C 3969.69 -3.76916 -2.45467 0
M  V30 42145 C 3971.01 -2.18884 -3.81808 0
M  V30 42146 H 3968.13 -0.483492 -0.556241 0
M  V30 42147 H 3970.77 -1.68066 -0.886222 0
M  V30 42148 H 3968.92 -1.96582 -3.35094 0
M  V30 42149 H 3970.59 -4.17509 -1.96174 0
M  V30 42150 H 3968.83 -3.9552 -1.78174 0
M  V30 42151 H 3969.5 -4.38013 -3.35929 0
M  V30 42152 H 3971.98 -2.45326 -3.36087 0
M  V30 42153 H 3970.86 -2.86689 -4.68082 0
M  V30 42154 H 3971.12 -1.18153 -4.26019 0
M  V30 42155 N 3970.18 0.998553 -1.21929 0
M  V30 42156 C 3971.4 1.77825 -1.06738 0
M  V30 42157 C 3971.83 1.8426 0.378122 0
M  V30 42158 O 3971.18 1.29092 1.27298 0
M  V30 42159 C 3971.23 3.19249 -1.67668 0
M  V30 42160 O 3970.34 4.01857 -0.926518 0
M  V30 42161 H 3969.68 0.547798 -0.375251 0
M  V30 42162 H 3972.21 1.25476 -1.61608 0
M  V30 42163 H 3972.22 3.699 -1.72157 0
M  V30 42164 H 3970.89 3.1388 -2.72859 0
M  V30 42165 H 3969.47 3.60405 -0.957209 0
M  V30 42166 N 3971.65 1.02807 1.1945 0
M  V30 42167 C 3972.59 0.552751 2.21404 0
M  V30 42168 C 3973.57 -0.405971 1.5745 0
M  V30 42169 O 3974.75 -0.323264 1.85707 0
M  V30 42170 C 3971.88 -0.194119 3.38143 0
M  V30 42171 C 3970.92 0.71591 4.20449 0
M  V30 42172 S 3971.76 2.19165 4.88597 0
M  V30 42173 C 3972.91 1.45527 6.08747 0
M  V30 42174 H 3973.14 1.4166 2.61381 0
M  V30 42175 H 3970.68 0.837938 1.29684 0
M  V30 42176 H 3972.64 -0.6189 4.05808 0
M  V30 42177 H 3971.3 -1.03369 2.96604 0
M  V30 42178 H 3970.49 0.139366 5.03807 0
M  V30 42179 H 3970.09 1.07897 3.58098 0
M  V30 42180 H 3972.38 0.741428 6.73431 0
M  V30 42181 H 3973.33 2.26542 6.70883 0
M  V30 42182 H 3973.73 0.953118 5.56395 0
M  V30 42183 N 3973.13 -1.35441 0.805829 0
M  V30 42184 C 3974.07 -2.2763 0.16123 0
M  V30 42185 C 3975.04 -1.48048 -0.672341 0
M  V30 42186 O 3976.23 -1.7731 -0.639785 0
M  V30 42187 C 3973.35 -3.29681 -0.776407 0
M  V30 42188 C 3972.4 -4.26494 -0.022554 0
M  V30 42189 S 3973.23 -5.19154 1.31297 0
M  V30 42190 C 3974.39 -6.24747 0.379762 0
M  V30 42191 H 3974.62 -2.81953 0.942856 0
M  V30 42192 H 3972.16 -1.42229 0.600852 0
M  V30 42193 H 3974.11 -3.88973 -1.31188 0
M  V30 42194 H 3972.77 -2.74238 -1.53141 0
M  V30 42195 H 3971.97 -4.98617 -0.734666 0
M  V30 42196 H 3971.57 -3.71368 0.44294 0
M  V30 42197 H 3973.86 -6.761 -0.435253 0
M  V30 42198 H 3974.8 -6.99967 1.07016 0
M  V30 42199 H 3975.21 -5.64495 -0.0242068 0
M  V30 42200 N 3974.61 -0.559265 -1.47343 0
M  V30 42201 C 3975.52 0.19036 -2.33826 0
M  V30 42202 C 3976.54 0.90982 -1.48318 0
M  V30 42203 O 3977.71 0.878254 -1.81242 0
M  V30 42204 C 3974.78 1.20585 -3.25054 0
M  V30 42205 C 3973.84 0.493596 -4.26453 0
M  V30 42206 C 3973.07 1.46071 -5.13322 0
M  V30 42207 O 3973.29 2.69568 -5.02682 0
M  V30 42208 O 3972.23 0.984074 -5.93801 0
M  V30 42209 H 3976.05 -0.519098 -2.99231 0
M  V30 42210 H 3973.64 -0.319862 -1.45936 0
M  V30 42211 H 3975.52 1.79198 -3.814 0
M  V30 42212 H 3974.2 1.89719 -2.62275 0
M  V30 42213 H 3973.1 -0.13378 -3.73861 0
M  V30 42214 H 3974.44 -0.156336 -4.91952 0
M  V30 42215 N 3976.09 1.54799 -0.295822 0
M  V30 42216 C 3977.04 2.23326 0.582574 0
M  V30 42217 C 3978.01 1.214 1.13363 0
M  V30 42218 O 3979.19 1.50005 1.17911 0
M  V30 42219 C 3976.33 2.97374 1.75107 0
M  V30 42220 C 3975.44 4.14063 1.2319 0
M  V30 42221 C 3974.58 4.75706 2.36385 0
M  V30 42222 C 3973.62 5.84548 1.81575 0
M  V30 42223 N 3972.75 6.40167 2.88323 0
M  V30 42224 H 3977.59 2.97999 -0.00841689 0
M  V30 42225 H 3975.13 1.47091 -0.0159225 0
M  V30 42226 H 3977.09 3.38535 2.43824 0
M  V30 42227 H 3975.72 2.25088 2.31377 0
M  V30 42228 H 3974.77 3.7788 0.43716 0
M  V30 42229 H 3976.08 4.92494 0.790619 0
M  V30 42230 H 3975.24 5.19692 3.13058 0
M  V30 42231 H 3973.98 3.96595 2.83837 0
M  V30 42232 H 3972.98 5.39991 1.03389 0
M  V30 42233 H 3974.21 6.6554 1.35033 0
M  V30 42234 H 3972.15 5.63943 3.35119 0
M  V30 42235 H 3972.07 7.13931 2.48675 0
M  V30 42236 H 3973.34 6.88812 3.64909 0
M  V30 42237 N 3977.57 0.0234513 1.57583 0
M  V30 42238 C 3978.5 -0.988924 2.06768 0
M  V30 42239 C 3979.51 -1.29239 0.990002 0
M  V30 42240 O 3980.7 -1.25804 1.26632 0
M  V30 42241 C 3977.8 -2.3178 2.47248 0
M  V30 42242 C 3976.97 -2.20032 3.78027 0
M  V30 42243 C 3976.03 -3.35805 4.05119 0
M  V30 42244 O 3975.06 -3.12944 4.75452 0
M  V30 42245 N 3976.26 -4.59416 3.54848 0
M  V30 42246 H 3979.03 -0.569304 2.94243 0
M  V30 42247 H 3976.59 -0.163433 1.61073 0
M  V30 42248 H 3978.58 -3.08047 2.62468 0
M  V30 42249 H 3977.15 -2.65402 1.65168 0
M  V30 42250 H 3976.37 -1.28528 3.72658 0
M  V30 42251 H 3977.66 -2.0938 4.63721 0
M  V30 42252 H 3977.06 -4.80885 2.97937 0
M  V30 42253 H 3975.61 -5.3287 3.75357 0
M  V30 42254 N 3979.05 -1.5561 -0.249627 0
M  V30 42255 C 3980.27 -1.81705 -0.999899 0
M  V30 42256 C 3980.7 -0.600145 -1.78269 0
M  V30 42257 O 3980.05 0.450768 -1.75607 0
M  V30 42258 C 3980.1 -3.05508 -1.91565 0
M  V30 42259 O 3979.21 -2.82232 -3.00697 0
M  V30 42260 H 3978.55 -0.599886 -0.284663 0
M  V30 42261 H 3981.08 -2.02791 -0.271444 0
M  V30 42262 H 3981.09 -3.34869 -2.33082 0
M  V30 42263 H 3979.76 -3.93719 -1.34007 0
M  V30 42264 H 3978.34 -2.64032 -2.63328 0
M  V30 42265 N 3980.52 0.515172 -1.48942 0
M  V30 42266 C 3981.75 1.29928 -1.61658 0
M  V30 42267 C 3982.17 1.85966 -0.282562 0
M  V30 42268 O 3981.53 1.65156 0.747885 0
M  V30 42269 C 3981.58 2.41548 -2.67744 0
M  V30 42270 O 3980.68 3.45005 -2.25933 0
M  V30 42271 H 3980.02 0.384188 -0.541568 0
M  V30 42272 H 3982.55 0.618315 -1.95033 0
M  V30 42273 H 3982.56 2.87519 -2.89476 0
M  V30 42274 H 3981.24 2.00125 -3.64586 0
M  V30 42275 H 3979.82 3.0505 -2.14474 0
M  V30 42276 N 3982 1.37779 0.765169 0
M  V30 42277 C 3982.93 1.28445 1.88619 0
M  V30 42278 C 3983.91 0.163698 1.61774 0
M  V30 42279 O 3985.1 0.33904 1.85426 0
M  V30 42280 C 3982.22 0.987477 3.23985 0
M  V30 42281 C 3981.27 2.12602 3.69733 0
M  V30 42282 S 3982.1 3.74639 3.8263 0
M  V30 42283 C 3983.26 3.47105 5.20835 0
M  V30 42284 H 3983.49 2.23325 1.96247 0
M  V30 42285 H 3981.02 1.23478 0.926955 0
M  V30 42286 H 3982.98 0.822963 4.02166 0
M  V30 42287 H 3981.64 0.0560516 3.1405 0
M  V30 42288 H 3980.84 1.8734 4.67889 0
M  V30 42289 H 3980.44 2.25101 2.98673 0
M  V30 42290 H 3982.73 3.02501 6.06217 0
M  V30 42291 H 3983.67 4.44613 5.51113 0
M  V30 42292 H 3984.08 2.81882 4.89084 0
M  V30 42293 N 3983.48 -0.992073 1.22457 0
M  V30 42294 C 3984.76 -1.70527 0.958121 0
M  V30 42295 C 3985.14 -2.04427 -0.526559 0
M  V30 42296 O 3984.48 -1.72823 -1.4948 0
M  V30 42297 C 3984.69 -2.95525 1.85651 0
M  V30 42298 C 3986.04 -3.68285 2.11308 0
M  V30 42299 O 3987.07 -3.05534 1.83105 0
M  V30 42300 O 3985.93 -4.81188 2.59077 0
M  V30 42301 H 3983.02 -0.744345 0.360388 0
M  V30 42302 H 3985.57 -1.04834 1.33446 0
M  V30 42303 H 3984.34 -2.66981 2.86071 0
M  V30 42304 H 3983.96 -3.68956 1.4818 0
M  V30 42305 N 3984.96 -1.03439 -1.18904 0
M  V30 42306 C 3986.18 -0.753776 -1.93217 0
M  V30 42307 C 3986.61 0.682024 -1.753 0
M  V30 42308 O 3985.97 1.4716 -1.05895 0
M  V30 42309 C 3986.01 -1.11706 -3.42862 0
M  V30 42310 O 3985.12 -0.238888 -4.11708 0
M  V30 42311 H 3984.46 -0.277984 -0.60301 0
M  V30 42312 H 3986.99 -1.38255 -1.5082 0
M  V30 42313 H 3987 -1.0763 -3.93548 0
M  V30 42314 H 3985.67 -2.16306 -3.55224 0
M  V30 42315 H 3984.25 -0.338718 -3.71358 0
M  V30 42316 N 3986.44 1.35011 -0.813001 0
M  V30 42317 C 3987.35 2.33474 -0.229575 0
M  V30 42318 C 3988.36 1.62163 0.630808 0
M  V30 42319 O 3989.54 1.93996 0.541049 0
M  V30 42320 C 3986.6 3.41345 0.606995 0
M  V30 42321 C 3985.66 4.28421 -0.274629 0
M  V30 42322 C 3984.9 5.3114 0.522109 0
M  V30 42323 O 3985.12 5.42689 1.75626 0
M  V30 42324 O 3984.05 6.01832 -0.0903724 0
M  V30 42325 H 3987.88 2.85182 -1.04428 0
M  V30 42326 H 3985.46 1.37895 -0.574924 0
M  V30 42327 H 3987.35 4.07238 1.08328 0
M  V30 42328 H 3986.02 2.91898 1.39919 0
M  V30 42329 H 3984.93 3.65486 -0.798188 0
M  V30 42330 H 3986.26 4.81282 -1.03093 0
M  V30 42331 N 3987.91 0.567071 1.47044 0
M  V30 42332 C 3989.16 0.0466232 2.02046 0
M  V30 42333 C 3989.48 -1.31188 1.44273 0
M  V30 42334 O 3988.75 -1.85778 0.621566 0
M  V30 42335 H 3987.33 0.0142455 0.746864 0
M  V30 42336 H 3989.99 0.739313 1.80334 0
M  V30 42337 H 3989.09 -0.0341075 3.12081 0
M  V30 42338 N 3989.39 -1.5464 0.304027 0
M  V30 42339 C 3990.34 -2.25086 -0.586435 0
M  V30 42340 C 3991.33 -1.25794 -1.13456 0
M  V30 42341 O 3992.54 -1.43635 -1.08485 0
M  V30 42342 H 3988.91 -0.72274 -0.207727 0
M  V30 42343 H 3990.89 -2.98385 0.0302206 0
M  V30 42344 C 3989.63 -3.00721 -1.74534 0
M  V30 42345 H 3988.96 -3.7693 -1.3328 0
M  V30 42346 H 3990.4 -3.5329 -2.34441 0
M  V30 42347 C 3988.86 -2.07867 -2.65128 0
M  V30 42348 O 3989.39 -1.64869 -3.66307 0
M  V30 42349 N 3987.59 -1.7376 -2.32929 0
M  V30 42350 H 3987.14 -2.08923 -1.50694 0
M  V30 42351 H 3987.1 -1.11909 -2.93809 0
M  V30 42352 N 3990.87 -0.0318079 -1.57568 0
M  V30 42353 C 3992.12 0.646247 -1.91911 0
M  V30 42354 C 3992.44 1.7198 -0.908462 0
M  V30 42355 O 3991.7 1.95527 0.0822082 0
M  V30 42356 C 3992 1.29846 -3.32979 0
M  V30 42357 C 3991.66 0.355013 -4.495 0
M  V30 42358 C 3990.33 0.0953481 -4.81106 0
M  V30 42359 C 3992.68 -0.292677 -5.20378 0
M  V30 42360 C 3990.01 -0.819769 -5.80945 0
M  V30 42361 C 3992.36 -1.19586 -6.21194 0
M  V30 42362 C 3991.02 -1.46439 -6.51239 0
M  V30 42363 H 3990.29 0.236479 -0.702253 0
M  V30 42364 H 3992.94 -0.0941495 -1.91268 0
M  V30 42365 H 3991.24 2.11367 -3.29896 0
M  V30 42366 H 3992.94 1.8297 -3.56823 0
M  V30 42367 H 3989.53 0.567577 -4.24825 0
M  V30 42368 H 3993.72 -0.105129 -4.96189 0
M  V30 42369 H 3988.97 -1.03549 -6.02567 0
M  V30 42370 H 3993.15 -1.70391 -6.75233 0
M  V30 42371 H 3990.77 -2.17515 -7.28417 0
M  V30 42372 N 3992.35 1.55741 0.241371 0
M  V30 42373 C 3993.3 1.9161 1.31865 0
M  V30 42374 C 3994.29 0.7958 1.49544 0
M  V30 42375 O 3995.5 0.980468 1.50953 0
M  V30 42376 H 3991.87 0.608628 0.441674 0
M  V30 42377 H 3993.84 2.8154 0.98882 0
M  V30 42378 C 3992.59 2.23205 2.66598 0
M  V30 42379 H 3991.91 3.08914 2.53796 0
M  V30 42380 H 3993.35 2.52202 3.40837 0
M  V30 42381 C 3991.81 1.05029 3.2011 0
M  V30 42382 O 3992.34 0.30114 4.0057 0
M  V30 42383 N 3990.55 0.83943 2.78212 0
M  V30 42384 H 3990.1 1.45034 2.12892 0
M  V30 42385 H 3990.05 0.0504173 3.1436 0
M  V30 42386 N 3993.83 -0.507266 1.49213 0
M  V30 42387 C 3995.24 -1.0889 1.51657 0
M  V30 42388 C 3995.59 -1.93905 0.299197 0
M  V30 42389 O 3994.71 -2.08156 -0.591598 0
M  V30 42390 C 3995.31 -1.98149 2.74813 0
M  V30 42391 C 3993.87 -2.51487 2.80056 0
M  V30 42392 C 3993.01 -1.28961 2.45488 0
M  V30 42393 H 3995.97 -0.29146 1.56001 0
M  V30 42394 H 3995.99 -2.82753 2.5462 0
M  V30 42395 H 3995.5 -1.36247 3.63399 0
M  V30 42396 H 3993.6 -3.17047 1.95735 0
M  V30 42397 H 3993.71 -2.89068 3.82069 0
M  V30 42398 H 3992.08 -1.6128 1.97131 0
M  V30 42399 H 3992.86 -0.687762 3.3634 0
M  V30 42400 N 3995.3 -1.38182 -0.757851 0
M  V30 42401 C 3996.24 -1.30953 -1.88106 0
M  V30 42402 C 3997.25 -0.22258 -1.61271 0
M  V30 42403 O 3998.44 -0.479812 -1.7193 0
M  V30 42404 C 3995.54 -1.00524 -3.23648 0
M  V30 42405 C 3994.71 -2.20044 -3.78021 0
M  V30 42406 C 3993.77 -1.86425 -4.92069 0
M  V30 42407 O 3992.8 -2.58873 -5.06925 0
M  V30 42408 N 3994 -0.816654 -5.74727 0
M  V30 42409 H 3996.76 -2.2774 -1.94819 0
M  V30 42410 H 3994.32 -1.31988 -0.937593 0
M  V30 42411 H 3996.32 -0.760931 -3.97482 0
M  V30 42412 H 3994.89 -0.125473 -3.12348 0
M  V30 42413 H 3994.11 -2.60566 -2.95802 0
M  V30 42414 H 3995.39 -2.99818 -4.1108 0
M  V30 42415 H 3994.79 -0.215759 -5.65288 0
M  V30 42416 H 3993.35 -0.632224 -6.48727 0
M  V30 42417 N 3996.78 0.985565 -1.22981 0
M  V30 42418 C 3998.19 1.54068 -1.0545 0
M  V30 42419 C 3998.54 1.92489 0.379774 0
M  V30 42420 O 3997.67 1.75518 1.26579 0
M  V30 42421 C 3998.26 2.79967 -1.90799 0
M  V30 42422 C 3996.82 3.31896 -1.77544 0
M  V30 42423 C 3995.97 2.04926 -1.86817 0
M  V30 42424 H 3998.92 0.805826 -1.36719 0
M  V30 42425 H 3998.94 3.52617 -1.42973 0
M  V30 42426 H 3998.45 2.51972 -2.95181 0
M  V30 42427 H 3996.56 3.64783 -0.759242 0
M  V30 42428 H 3996.67 4.02003 -2.60634 0
M  V30 42429 H 3995.03 2.18823 -1.30339 0
M  V30 42430 H 3995.82 1.79319 -2.92745 0
M  V30 42431 N 3998.26 1.04068 1.18353 0
M  V30 42432 C 3999.51 0.745182 1.88613 0
M  V30 42433 C 3999.84 -0.725263 1.80149 0
M  V30 42434 O 3999.11 -1.52928 1.2018 0
M  V30 42435 C 3999.4 1.21195 3.39092 0
M  V30 42436 C 3999.25 2.7445 3.56367 0
M  V30 42437 C 4000.57 0.802029 4.3273 0
M  V30 42438 H 3997.69 0.272178 0.6849 0
M  V30 42439 H 4000.33 1.2927 1.39246 0
M  V30 42440 H 3998.48 0.746158 3.81267 0
M  V30 42441 H 4000.15 3.29067 3.23284 0
M  V30 42442 H 3998.4 3.14274 2.99022 0
M  V30 42443 H 3999.07 3.02168 4.61951 0
M  V30 42444 H 4001.54 1.20285 3.98335 0
M  V30 42445 H 4000.42 1.15638 5.36581 0
M  V30 42446 H 4000.68 -0.29483 4.41116 0
M  V30 42447 N 3999.74 -1.34578 0.820149 0
M  V30 42448 C 4001.02 -1.92803 0.329607 0
M  V30 42449 C 4001.4 -1.7486 -1.18268 0
M  V30 42450 O 4000.74 -1.12567 -1.98849 0
M  V30 42451 C 4000.95 -3.40716 0.755893 0
M  V30 42452 C 4002.3 -4.17867 0.753134 0
M  V30 42453 O 4003.33 -3.49288 0.698296 0
M  V30 42454 O 4002.18 -5.40255 0.823803 0
M  V30 42455 H 3999.28 -0.822153 0.0894042 0
M  V30 42456 H 4001.82 -1.4357 0.904754 0
M  V30 42457 H 4000.6 -3.47564 1.79763 0
M  V30 42458 H 4000.22 -3.97293 0.156289 0
M  V30 42459 N 4001.22 -0.574861 -1.46742 0
M  V30 42460 C 4002.44 -0.0628355 -2.06805 0
M  V30 42461 C 4002.86 1.2387 -1.42484 0
M  V30 42462 O 4002.22 1.74713 -0.527406 0
M  V30 42463 C 4002.27 0.11792 -3.61308 0
M  V30 42464 O 4001.99 -1.13209 -4.2322 0
M  V30 42465 C 4003.49 0.6652 -4.38281 0
M  V30 42466 H 4000.71 -0.0538734 -0.668834 0
M  V30 42467 H 4003.25 -0.793298 -1.88486 0
M  V30 42468 H 4001.41 0.798574 -3.7908 0
M  V30 42469 H 4001.82 -0.940943 -5.15991 0
M  V30 42470 H 4003.3 0.740889 -5.47005 0
M  V30 42471 H 4003.77 1.68045 -4.0578 0
M  V30 42472 H 4004.38 0.0196714 -4.25295 0
M  V30 42473 N 4002.69 1.54476 -0.312224 0
M  V30 42474 C 4003.92 2.05236 0.298793 0
M  V30 42475 C 4004.34 1.18747 1.45879 0
M  V30 42476 O 4003.7 0.194031 1.80259 0
M  V30 42477 C 4003.75 3.53299 0.721946 0
M  V30 42478 O 4002.85 3.69794 1.82555 0
M  V30 42479 H 4002.2 0.661627 0.0560869 0
M  V30 42480 H 4004.73 1.99423 -0.457335 0
M  V30 42481 H 4004.74 3.9536 1.0077 0
M  V30 42482 H 4003.41 4.15707 -0.126543 0
M  V30 42483 H 4001.99 3.39639 1.53948 0
M  V30 42484 N 4004.17 0.0401637 1.57549 0
M  V30 42485 C 4005.12 -0.955905 2.1205 0
M  V30 42486 C 4006.11 -1.3296 1.04967 0
M  V30 42487 O 4007.32 -1.31054 1.23389 0
M  V30 42488 H 4003.7 -0.326087 0.677622 0
M  V30 42489 H 4005.67 -0.471024 2.94659 0
M  V30 42490 C 4004.42 -2.22532 2.67161 0
M  V30 42491 H 4003.74 -1.94654 3.49213 0
M  V30 42492 H 4005.18 -2.90412 3.08929 0
M  V30 42493 C 4003.64 -2.96256 1.60419 0
M  V30 42494 O 4004.17 -3.88783 1.01049 0
M  V30 42495 N 4002.37 -2.58789 1.322 0
M  V30 42496 H 4001.92 -1.83623 1.80667 0
M  V30 42497 H 4001.88 -3.08424 0.610077 0
M  V30 42498 N 4005.65 -1.55866 -0.233109 0
M  V30 42499 C 4006.9 -1.77542 -0.957174 0
M  V30 42500 C 4007.21 -0.606633 -1.85955 0
M  V30 42501 O 4008.42 -0.706733 -2.6214 0
M  V30 42502 C 4006.87 -3.14372 -1.7521 0
M  V30 42503 C 4006.48 -4.3894 -0.896432 0
M  V30 42504 C 4008.23 -3.45379 -2.46807 0
M  V30 42505 C 4006.13 -5.66797 -1.68804 0
M  V30 42506 H 4005.06 -0.661894 -0.361127 0
M  V30 42507 H 4007.71 -1.82278 -0.211392 0
M  V30 42508 H 4006.1 -3.0378 -2.54035 0
M  V30 42509 H 4007.27 -4.60557 -0.149533 0
M  V30 42510 H 4005.59 -4.15367 -0.293138 0
M  V30 42511 H 4008.18 -4.38126 -3.06512 0
M  V30 42512 H 4008.53 -2.6734 -3.19116 0
M  V30 42513 H 4009.06 -3.57248 -1.74981 0
M  V30 42514 H 4005.8 -6.47696 -1.00844 0
M  V30 42515 H 4005.32 -5.49259 -2.40986 0
M  V30 42516 H 4007 -6.06555 -2.25168 0
M  V30 42517 N 4007.13 0.499346 -1.4948 0
M  V30 42518 C 4008.36 1.27735 -1.62762 0
M  V30 42519 C 4008.77 1.86407 -0.299668 0
M  V30 42520 O 4008.13 1.67908 0.715063 0
M  V30 42521 C 4008.18 2.40642 -2.69766 0
M  V30 42522 O 4007.9 1.84381 -3.9741 0
M  V30 42523 C 4009.4 3.31987 -2.93768 0
M  V30 42524 H 4006.62 0.387358 -0.5479 0
M  V30 42525 H 4009.17 0.599257 -1.95523 0
M  V30 42526 H 4007.32 3.04278 -2.39779 0
M  V30 42527 H 4007.74 2.58517 -4.56365 0
M  V30 42528 H 4009.21 4.07487 -3.72368 0
M  V30 42529 H 4009.69 3.89081 -2.03746 0
M  V30 42530 H 4010.29 2.74116 -3.25178 0
M  V30 42531 N 4008.61 1.38582 0.750513 0
M  V30 42532 C 4009.86 1.34275 1.5051 0
M  V30 42533 C 4010.17 -0.0636514 1.95496 0
M  V30 42534 O 4011.38 -0.229273 2.7053 0
M  V30 42535 C 4009.83 2.35808 2.71887 0
M  V30 42536 C 4009.44 3.82085 2.33913 0
M  V30 42537 C 4011.18 2.40549 3.49766 0
M  V30 42538 C 4009.09 4.75296 3.5192 0
M  V30 42539 H 4008.02 0.49913 0.565142 0
M  V30 42540 H 4010.67 1.64152 0.820138 0
M  V30 42541 H 4009.05 1.98978 3.4238 0
M  V30 42542 H 4010.23 4.2787 1.71067 0
M  V30 42543 H 4008.54 3.80491 1.69161 0
M  V30 42544 H 4011.14 3.07386 4.37513 0
M  V30 42545 H 4011.48 1.42534 3.91139 0
M  V30 42546 H 4012.02 2.76194 2.86289 0
M  V30 42547 H 4008.75 5.74517 3.15611 0
M  V30 42548 H 4008.27 4.34201 4.13799 0
M  V30 42549 H 4009.95 4.93456 4.18461 0
M  V30 42550 N 4010.09 -0.979029 1.23502 0
M  V30 42551 C 4011.5 -1.53507 1.06266 0
M  V30 42552 C 4011.85 -1.92688 -0.36956 0
M  V30 42553 O 4010.97 -1.76187 -1.25646 0
M  V30 42554 C 4011.57 -2.78951 1.92281 0
M  V30 42555 C 4010.13 -3.3095 1.79302 0
M  V30 42556 C 4009.27 -2.03932 1.87901 0
M  V30 42557 H 4012.22 -0.798564 1.37145 0
M  V30 42558 H 4012.25 -3.51854 1.44841 0
M  V30 42559 H 4011.76 -2.50403 2.96513 0
M  V30 42560 H 4009.86 -3.64375 0.778576 0
M  V30 42561 H 4009.97 -4.00616 2.62762 0
M  V30 42562 H 4008.34 -2.18129 1.31498 0
M  V30 42563 H 4009.12 -1.77764 2.93692 0
M  V30 42564 N 4011.56 -1.04695 -1.178 0
M  V30 42565 C 4012.47 -0.654112 -2.25297 0
M  V30 42566 C 4013.49 0.32252 -1.70985 0
M  V30 42567 O 4014.67 0.175869 -2.00631 0
M  V30 42568 C 4011.73 -0.0296955 -3.46687 0
M  V30 42569 C 4010.79 -1.05614 -4.16106 0
M  V30 42570 C 4010.02 -0.461422 -5.31702 0
M  V30 42571 O 4010.25 0.730579 -5.65702 0
M  V30 42572 O 4009.18 -1.19323 -5.89954 0
M  V30 42573 H 4013.01 -1.54986 -2.61176 0
M  V30 42574 H 4010.59 -0.818204 -1.25003 0
M  V30 42575 H 4012.47 0.31758 -4.20202 0
M  V30 42576 H 4011.15 0.839784 -3.12617 0
M  V30 42577 H 4010.06 -1.45532 -3.44632 0
M  V30 42578 H 4011.39 -1.89659 -4.54192 0
M  V30 42579 N 4013.04 1.34141 -0.827275 0
M  V30 42580 C 4013.99 2.2944 -0.250206 0
M  V30 42581 C 4014.96 1.53792 0.627463 0
M  V30 42582 O 4016.14 1.82144 0.568186 0
M  V30 42583 C 4013.28 3.4022 0.578332 0
M  V30 42584 C 4012.4 4.30798 -0.322066 0
M  V30 42585 C 4011.53 5.28683 0.516457 0
M  V30 42586 C 4010.57 6.109 -0.383056 0
M  V30 42587 N 4009.71 7.00863 0.416651 0
M  V30 42588 H 4014.55 2.78196 -1.06822 0
M  V30 42589 H 4012.08 1.36898 -0.538269 0
M  V30 42590 H 4014.04 4.03137 1.07407 0
M  V30 42591 H 4012.67 2.92686 1.36142 0
M  V30 42592 H 4011.72 3.68704 -0.936043 0
M  V30 42593 H 4013.04 4.88394 -1.01355 0
M  V30 42594 H 4012.19 5.97073 1.07649 0
M  V30 42595 H 4010.93 4.71635 1.24142 0
M  V30 42596 H 4009.93 5.41439 -0.955198 0
M  V30 42597 H 4011.16 6.7003 -1.1062 0
M  V30 42598 H 4009.11 6.46278 1.12521 0
M  V30 42599 H 4009.02 7.5569 -0.21635 0
M  V30 42600 H 4010.29 7.73575 0.959296 0
M  V30 42601 N 4014.52 0.582635 1.46435 0
M  V30 42602 C 4015.45 -0.138436 2.33089 0
M  V30 42603 C 4016.43 -0.883751 1.4534 0
M  V30 42604 O 4017.62 -0.859226 1.74158 0
M  V30 42605 C 4014.75 -1.15271 3.27613 0
M  V30 42606 C 4013.7 -0.522234 4.24802 0
M  V30 42607 C 4013.03 -1.64297 5.08833 0
M  V30 42608 C 4014.33 0.54054 5.19495 0
M  V30 42609 H 4016.02 0.585065 2.93628 0
M  V30 42610 H 4013.57 0.282806 1.41196 0
M  V30 42611 H 4015.52 -1.66551 3.8709 0
M  V30 42612 H 4014.24 -1.90648 2.65181 0
M  V30 42613 H 4012.9 -0.0305083 3.66587 0
M  V30 42614 H 4012.55 -2.38641 4.42786 0
M  V30 42615 H 4012.25 -1.22676 5.74651 0
M  V30 42616 H 4013.77 -2.15854 5.71174 0
M  V30 42617 H 4015.19 0.112806 5.73189 0
M  V30 42618 H 4013.58 0.877061 5.93656 0
M  V30 42619 H 4014.65 1.42685 4.63432 0
M  V30 42620 N 4016 -1.54309 0.320412 0
M  V30 42621 C 4016.91 -2.27917 -0.555977 0
M  V30 42622 C 4017.92 -1.32151 -1.1319 0
M  V30 42623 O 4019.1 -1.65162 -1.15254 0
M  V30 42624 C 4016.16 -3.02026 -1.70238 0
M  V30 42625 C 4015.23 -4.13371 -1.15858 0
M  V30 42626 C 4014.46 -4.83937 -2.25035 0
M  V30 42627 O 4014.68 -4.53994 -3.45319 0
M  V30 42628 O 4013.62 -5.70914 -1.90632 0
M  V30 42629 H 4017.44 -3.03671 0.0417097 0
M  V30 42630 H 4015.03 -1.49151 0.0862071 0
M  V30 42631 H 4016.91 -3.48446 -2.36988 0
M  V30 42632 H 4015.58 -2.2915 -2.28631 0
M  V30 42633 H 4014.49 -3.71307 -0.456257 0
M  V30 42634 H 4015.82 -4.88282 -0.61983 0
M  V30 42635 N 4017.48 -0.0485183 -1.57525 0
M  V30 42636 C 4018.71 0.634597 -1.96612 0
M  V30 42637 C 4019.11 1.65069 -0.9246 0
M  V30 42638 O 4018.46 1.83428 0.0999075 0
M  V30 42639 C 4018.52 1.38076 -3.31927 0
M  V30 42640 C 4018.18 0.520803 -4.54023 0
M  V30 42641 C 4019.18 -0.212011 -5.19468 0
M  V30 42642 C 4016.86 0.452508 -5.00258 0
M  V30 42643 C 4018.86 -1.00159 -6.29481 0
M  V30 42644 C 4016.55 -0.340759 -6.10149 0
M  V30 42645 C 4017.54 -1.0665 -6.74622 0
M  V30 42646 O 4017.23 -1.84672 -7.82401 0
M  V30 42647 H 4016.96 0.178492 -0.65201 0
M  V30 42648 H 4019.52 -0.110433 -2.05103 0
M  V30 42649 H 4017.75 2.17136 -3.19983 0
M  V30 42650 H 4019.44 1.95385 -3.5578 0
M  V30 42651 H 4020.2 -0.1687 -4.84707 0
M  V30 42652 H 4016.08 1.00698 -4.49868 0
M  V30 42653 H 4019.63 -1.56856 -6.79737 0
M  V30 42654 H 4015.52 -0.385718 -6.44347 0
M  V30 42655 H 4016.29 -1.76856 -7.99165 0
M  V30 42656 N 4018.95 1.55988 0.224839 0
M  V30 42657 C 4020.2 1.78848 0.949716 0
M  V30 42658 C 4020.53 0.61671 1.84464 0
M  V30 42659 O 4019.78 -0.399064 1.91588 0
M  V30 42660 C 4020.08 3.07432 1.82264 0
M  V30 42661 C 4019.75 4.37745 1.08123 0
M  V30 42662 C 4018.41 4.73152 0.876413 0
M  V30 42663 C 4020.76 5.18211 0.557414 0
M  V30 42664 C 4018.09 5.86543 0.135827 0
M  V30 42665 C 4020.44 6.32372 -0.169813 0
M  V30 42666 C 4019.11 6.66383 -0.385913 0
M  V30 42667 H 4018.38 0.654452 0.347526 0
M  V30 42668 H 4021.02 1.90254 0.218129 0
M  V30 42669 H 4019.33 2.91134 2.62199 0
M  V30 42670 H 4021.03 3.22321 2.38559 0
M  V30 42671 H 4017.62 4.09941 1.25084 0
M  V30 42672 H 4021.8 4.91294 0.703132 0
M  V30 42673 H 4017.06 6.11386 -0.0418617 0
M  V30 42674 H 4021.23 6.93953 -0.583226 0
M  V30 42675 H 4018.86 7.54092 -0.961706 0
M  V30 42676 N 4020.43 -0.491412 1.49743 0
M  V30 42677 C 4021.68 -1.24159 1.58958 0
M  V30 42678 C 4021.99 -1.93499 0.285916 0
M  V30 42679 O 4023.2 -2.70284 0.256725 0
M  V30 42680 C 4021.66 -2.25489 2.80504 0
M  V30 42681 C 4021.26 -1.62044 4.17667 0
M  V30 42682 C 4023.01 -3.01275 2.99055 0
M  V30 42683 C 4020.91 -2.61542 5.30424 0
M  V30 42684 H 4019.84 -0.467098 0.591892 0
M  V30 42685 H 4022.5 -0.514333 1.76144 0
M  V30 42686 H 4020.88 -3.01419 2.56832 0
M  V30 42687 H 4022.05 -0.920421 4.51514 0
M  V30 42688 H 4020.37 -0.98614 4.04554 0
M  V30 42689 H 4022.96 -3.757 3.80465 0
M  V30 42690 H 4023.31 -3.5946 2.09986 0
M  V30 42691 H 4023.84 -2.3246 3.22811 0
M  V30 42692 H 4020.58 -2.08124 6.21582 0
M  V30 42693 H 4020.1 -3.29756 5.0102 0
M  V30 42694 H 4021.78 -3.23779 5.60157 0
M  V30 42695 N 4021.91 -1.38978 -0.743153 0
M  V30 42696 C 4022.86 -1.37177 -1.87844 0
M  V30 42697 C 4023.85 -0.256089 -1.67453 0
M  V30 42698 O 4025.06 -0.425689 -1.74894 0
M  V30 42699 H 4021.43 -0.428177 -0.618198 0
M  V30 42700 H 4023.4 -2.32955 -1.86479 0
M  V30 42701 C 4022.15 -1.22406 -3.25441 0
M  V30 42702 H 4021.48 -2.07522 -3.41723 0
M  V30 42703 H 4022.92 -1.25202 -4.05093 0
M  V30 42704 C 4021.38 0.0681977 -3.36831 0
M  V30 42705 O 4021.91 1.0414 -3.87966 0
M  V30 42706 N 4020.11 0.128531 -2.90316 0
M  V30 42707 H 4019.66 -0.664121 -2.48892 0
M  V30 42708 H 4019.62 0.992709 -2.98316 0
M  V30 42709 N 4023.39 0.972465 -1.2402 0
M  V30 42710 C 4024.34 2.06623 -1.02838 0
M  V30 42711 C 4025.31 1.66003 0.0567748 0
M  V30 42712 O 4026.49 1.90554 -0.096908 0
M  V30 42713 C 4023.63 3.39223 -0.634163 0
M  V30 42714 C 4022.74 3.93066 -1.79229 0
M  V30 42715 C 4021.88 5.13914 -1.3441 0
M  V30 42716 C 4020.92 5.59942 -2.47247 0
M  V30 42717 N 4020.05 6.72013 -2.0333 0
M  V30 42718 H 4024.89 2.24075 -1.96455 0
M  V30 42719 H 4022.43 1.0983 -0.978565 0
M  V30 42720 H 4024.39 4.15404 -0.386657 0
M  V30 42721 H 4023.02 3.2171 0.265004 0
M  V30 42722 H 4022.07 3.13568 -2.15359 0
M  V30 42723 H 4023.38 4.2319 -2.6403 0
M  V30 42724 H 4022.54 5.97453 -1.05519 0
M  V30 42725 H 4021.28 4.85463 -0.466562 0
M  V30 42726 H 4020.28 4.74978 -2.76904 0
M  V30 42727 H 4021.51 5.90409 -3.35551 0
M  V30 42728 H 4019.45 6.45306 -1.17968 0
M  V30 42729 H 4019.37 7.01561 -2.81688 0
M  V30 42730 H 4020.64 7.59006 -1.77566 0
M  V30 42731 N 4024.87 1.05318 1.17243 0
M  V30 42732 C 4026.1 0.783307 1.91175 0
M  V30 42733 C 4026.5 -0.664965 1.7713 0
M  V30 42734 O 4025.85 -1.46611 1.10684 0
M  V30 42735 C 4025.91 1.08596 3.42706 0
M  V30 42736 C 4025.57 2.53067 3.80534 0
M  V30 42737 C 4026.57 3.51279 3.83274 0
M  V30 42738 C 4024.26 2.88109 4.11459 0
M  V30 42739 C 4026.25 4.82578 4.1641 0
M  V30 42740 C 4023.94 4.19611 4.44263 0
M  V30 42741 C 4024.93 5.16655 4.46717 0
M  V30 42742 O 4024.62 6.45798 4.78748 0
M  V30 42743 H 4024.35 0.28418 0.613366 0
M  V30 42744 H 4026.91 1.40739 1.49605 0
M  V30 42745 H 4025.14 0.404784 3.84576 0
M  V30 42746 H 4026.83 0.801897 3.979 0
M  V30 42747 H 4027.59 3.25547 3.59505 0
M  V30 42748 H 4023.47 2.13235 4.0872 0
M  V30 42749 H 4027.02 5.5832 4.1824 0
M  V30 42750 H 4022.91 4.45105 4.67495 0
M  V30 42751 H 4023.68 6.50638 4.966 0
M  V30 42752 N 4026.34 -1.33701 0.834377 0
M  V30 42753 C 4027.31 -2.27608 0.269658 0
M  V30 42754 C 4028.31 -1.50769 -0.559039 0
M  V30 42755 O 4029.5 -1.70149 -0.373481 0
M  V30 42756 C 4026.63 -3.35203 -0.620623 0
M  V30 42757 H 4027.82 -2.79067 1.09824 0
M  V30 42758 H 4025.38 -1.44027 0.607113 0
M  V30 42759 H 4026.11 -2.88978 -1.47182 0
M  V30 42760 H 4025.9 -3.9209 -0.0277413 0
M  V30 42761 H 4027.39 -4.05223 -1.00917 0
M  V30 42762 N 4027.82 -0.590393 -1.46124 0
M  V30 42763 C 4028.73 0.14072 -2.34178 0
M  V30 42764 C 4029.75 0.878155 -1.50215 0
M  V30 42765 O 4030.92 0.839612 -1.83064 0
M  V30 42766 C 4027.99 1.13663 -3.27539 0
M  V30 42767 C 4027.05 0.403028 -4.27404 0
M  V30 42768 C 4026.28 1.35149 -5.16304 0
M  V30 42769 O 4026.51 2.58844 -5.08287 0
M  V30 42770 O 4025.44 0.857898 -5.95755 0
M  V30 42771 H 4029.27 -0.582453 -2.98062 0
M  V30 42772 H 4026.85 -0.350745 -1.45224 0
M  V30 42773 H 4028.73 1.71068 -3.85115 0
M  V30 42774 H 4027.41 1.84113 -2.6624 0
M  V30 42775 H 4026.32 -0.213051 -3.73493 0
M  V30 42776 H 4027.65 -0.260652 -4.91509 0
M  V30 42777 N 4029.3 1.54136 -0.328591 0
M  V30 42778 C 4030.25 2.21249 0.550733 0
M  V30 42779 C 4031.23 1.19472 1.07774 0
M  V30 42780 O 4032.43 1.45082 1.01392 0
M  V30 42781 C 4029.56 2.97758 1.70866 0
M  V30 42782 C 4028.64 4.06878 1.19631 0
M  V30 42783 N 4029.03 5.04184 0.404019 0
M  V30 42784 C 4027.33 4.20918 1.47457 0
M  V30 42785 C 4028.03 5.8156 0.127745 0
M  V30 42786 N 4027.01 5.38874 0.715268 0
M  V30 42787 H 4030.81 2.93835 -0.0618248 0
M  V30 42788 H 4028.32 1.6184 -0.134698 0
M  V30 42789 H 4030.32 3.44326 2.35042 0
M  V30 42790 H 4028.98 2.26695 2.32464 0
M  V30 42791 H 4029.99 5.17879 0.046416 0
M  V30 42792 H 4026.67 3.61071 2.09604 0
M  V30 42793 H 4028.06 6.69959 -0.510404 0
M  V30 42794 N 4030.78 0.0568716 1.57497 0
M  V30 42795 C 4032 -0.628555 1.97646 0
M  V30 42796 C 4032.43 -1.63247 0.934452 0
M  V30 42797 O 4031.79 -1.81015 -0.101674 0
M  V30 42798 C 4031.83 -1.28684 3.36857 0
M  V30 42799 O 4030.94 -2.40258 3.35186 0
M  V30 42800 H 4030.28 -0.162929 0.6437 0
M  V30 42801 H 4032.81 0.126962 2.04206 0
M  V30 42802 H 4032.82 -1.63719 3.73711 0
M  V30 42803 H 4031.49 -0.551131 4.12232 0
M  V30 42804 H 4030.07 -2.07128 3.10085 0
M  V30 42805 N 4032.26 -1.56105 -0.216564 0
M  V30 42806 C 4033.21 -1.8922 -1.27201 0
M  V30 42807 C 4034.19 -0.755741 -1.42047 0
M  V30 42808 O 4035.38 -1.01825 -1.44778 0
M  V30 42809 C 4032.51 -2.21671 -2.62139 0
M  V30 42810 C 4031.6 -3.4172 -2.51174 0
M  V30 42811 N 4031.99 -4.60207 -2.09864 0
M  V30 42812 C 4030.29 -3.45433 -2.8212 0
M  V30 42813 C 4030.99 -5.42366 -2.1027 0
M  V30 42814 N 4029.96 -4.82208 -2.50951 0
M  V30 42815 H 4033.77 -2.7834 -0.943599 0
M  V30 42816 H 4031.28 -1.56737 -0.425105 0
M  V30 42817 H 4033.28 -2.43571 -3.38347 0
M  V30 42818 H 4031.94 -1.33865 -2.95821 0
M  V30 42819 H 4032.95 -4.85273 -1.80915 0
M  V30 42820 H 4029.62 -2.67985 -3.20141 0
M  V30 42821 H 4031.01 -6.47225 -1.80414 0
M  V30 42822 N 4033.73 0.483463 -1.50001 0
M  V30 42823 C 4035.01 1.24476 -1.50881 0
M  V30 42824 C 4035.39 2.09657 -0.24643 0
M  V30 42825 O 4034.74 2.15113 0.770623 0
M  V30 42826 C 4034.95 2.08643 -2.79766 0
M  V30 42827 C 4036.3 2.67247 -3.29945 0
M  V30 42828 O 4037.32 2.18897 -2.81003 0
M  V30 42829 O 4036.18 3.55312 -4.1523 0
M  V30 42830 H 4033.27 0.564195 -0.604659 0
M  V30 42831 H 4035.82 0.496297 -1.62281 0
M  V30 42832 H 4034.59 1.45793 -3.63126 0
M  V30 42833 H 4034.22 2.90648 -2.71311 0
M  V30 42834 N 4035.21 1.39371 0.735772 0
M  V30 42835 C 4036.16 1.38029 1.84978 0
M  V30 42836 C 4037.13 0.240099 1.64356 0
M  V30 42837 O 4038.31 0.435091 1.85773 0
M  V30 42838 C 4035.45 1.2288 3.22482 0
M  V30 42839 C 4034.57 2.46436 3.54814 0
M  V30 42840 C 4033.7 2.23882 4.81716 0
M  V30 42841 C 4032.74 3.43117 5.06889 0
M  V30 42842 N 4031.88 3.19885 6.24994 0
M  V30 42843 H 4036.72 2.33257 1.85459 0
M  V30 42844 H 4034.26 1.1587 0.906231 0
M  V30 42845 H 4036.21 1.12108 4.01855 0
M  V30 42846 H 4034.84 0.312815 3.21281 0
M  V30 42847 H 4033.9 2.67814 2.70148 0
M  V30 42848 H 4035.21 3.3525 3.69336 0
M  V30 42849 H 4034.36 2.10348 5.69068 0
M  V30 42850 H 4033.1 1.32461 4.69367 0
M  V30 42851 H 4032.11 3.5715 4.17999 0
M  V30 42852 H 4033.33 4.35438 5.21124 0
M  V30 42853 H 4031.28 2.31128 6.13935 0
M  V30 42854 H 4031.19 4.02255 6.40099 0
M  V30 42855 H 4032.46 3.10043 7.15188 0
M  V30 42856 N 4036.69 -0.965875 1.24534 0
M  V30 42857 C 4037.94 -1.7123 1.09781 0
M  V30 42858 C 4038.29 -1.89014 -0.359367 0
M  V30 42859 O 4037.59 -1.44187 -1.26177 0
M  V30 42860 C 4037.78 -3.10316 1.77311 0
M  V30 42861 C 4037.61 -3.06099 3.29445 0
M  V30 42862 C 4036.38 -3.10478 3.98662 0
M  V30 42863 C 4038.58 -2.88134 4.26009 0
M  V30 42864 N 4036.56 -2.963 5.37661 0
M  V30 42865 C 4037.93 -2.8227 5.52018 0
M  V30 42866 C 4039.98 -2.72728 4.16562 0
M  V30 42867 C 4038.69 -2.62577 6.69661 0
M  V30 42868 C 4040.71 -2.54402 5.33885 0
M  V30 42869 C 4040.08 -2.4925 6.58828 0
M  V30 42870 H 4036.17 -0.635034 0.45635 0
M  V30 42871 H 4038.76 -1.14499 1.57474 0
M  V30 42872 H 4036.93 -3.65235 1.32129 0
M  V30 42873 H 4038.66 -3.73674 1.55401 0
M  V30 42874 H 4035.42 -3.19231 3.49841 0
M  V30 42875 H 4035.84 -2.92447 6.10577 0
M  V30 42876 H 4040.48 -2.75493 3.20723 0
M  V30 42877 H 4038.2 -2.58555 7.65621 0
M  V30 42878 H 4041.79 -2.43424 5.28428 0
M  V30 42879 H 4040.67 -2.35251 7.48082 0
M  V30 42880 N 4038.17 -1.05938 -1.16683 0
M  V30 42881 C 4039.39 -0.794591 -1.91575 0
M  V30 42882 C 4039.82 0.644687 -1.76707 0
M  V30 42883 O 4039.18 1.4488 -1.08993 0
M  V30 42884 C 4039.23 -1.18953 -3.40415 0
M  V30 42885 O 4038.33 -0.326164 -4.11108 0
M  V30 42886 H 4037.67 -0.290712 -0.596978 0
M  V30 42887 H 4040.2 -1.41423 -1.47854 0
M  V30 42888 H 4040.21 -1.15954 -3.91176 0
M  V30 42889 H 4038.89 -2.23792 -3.50556 0
M  V30 42890 H 4037.46 -0.417412 -3.70556 0
M  V30 42891 N 4039.65 1.33256 -0.841456 0
M  V30 42892 C 4040.58 2.27122 -0.221525 0
M  V30 42893 C 4041.56 1.49779 0.632853 0
M  V30 42894 O 4042.74 1.78944 0.59255 0
M  V30 42895 C 4039.87 3.31624 0.688725 0
M  V30 42896 C 4038.92 4.26404 -0.0905313 0
M  V30 42897 S 4039.75 5.15491 -1.45016 0
M  V30 42898 C 4040.9 6.2352 -0.545269 0
M  V30 42899 H 4041.14 2.79354 -1.01728 0
M  V30 42900 H 4038.67 1.40586 -0.63835 0
M  V30 42901 H 4040.63 3.92314 1.20829 0
M  V30 42902 H 4039.29 2.78202 1.45817 0
M  V30 42903 H 4038.48 5.00389 0.602208 0
M  V30 42904 H 4038.08 3.70063 -0.541246 0
M  V30 42905 H 4040.38 6.77017 0.255843 0
M  V30 42906 H 4041.32 6.96883 -1.25536 0
M  V30 42907 H 4041.73 5.64361 -0.125468 0
M  V30 42908 N 4041.13 0.598134 1.45809 0
M  V30 42909 C 4042.4 0.022072 1.95588 0
M  V30 42910 C 4042.78 -1.44313 1.54068 0
M  V30 42911 O 4042.13 -2.14086 0.7987 0
M  V30 42912 C 4042.34 0.210265 3.48366 0
M  V30 42913 C 4043.69 0.086122 4.24513 0
M  V30 42914 O 4044.71 0.139895 3.55925 0
M  V30 42915 O 4043.57 -0.0367001 5.46488 0
M  V30 42916 H 4040.67 -0.0410978 0.825978 0
M  V30 42917 H 4043.21 0.667534 1.56019 0
M  V30 42918 H 4041.98 1.22824 3.71524 0
M  V30 42919 H 4041.61 -0.470905 3.94802 0
M  V30 42920 N 4042.6 -1.5396 0.33676 0
M  V30 42921 C 4043.55 -2.24793 -0.523159 0
M  V30 42922 C 4044.52 -1.24363 -1.10104 0
M  V30 42923 O 4045.71 -1.53079 -1.13893 0
M  V30 42924 C 4042.85 -3.01913 -1.67161 0
M  V30 42925 C 4041.96 -4.17184 -1.12169 0
M  V30 42926 C 4041.09 -4.81806 -2.23689 0
M  V30 42927 C 4040.13 -5.89157 -1.66013 0
M  V30 42928 N 4039.27 -6.47587 -2.71249 0
M  V30 42929 H 4044.11 -2.97872 0.087423 0
M  V30 42930 H 4041.65 -1.46997 0.0549156 0
M  V30 42931 H 4043.6 -3.4488 -2.34762 0
M  V30 42932 H 4042.23 -2.31143 -2.25328 0
M  V30 42933 H 4041.29 -3.78906 -0.336818 0
M  V30 42934 H 4042.6 -4.94417 -0.659765 0
M  V30 42935 H 4041.75 -5.27809 -2.99169 0
M  V30 42936 H 4040.49 -4.03981 -2.73222 0
M  V30 42937 H 4039.5 -5.42543 -0.890362 0
M  V30 42938 H 4040.72 -6.68886 -1.1734 0
M  V30 42939 H 4038.67 -5.7263 -3.20049 0
M  V30 42940 H 4038.58 -7.20273 -2.29659 0
M  V30 42941 H 4039.85 -6.98245 -3.46518 0
M  V30 42942 N 4044.08 -0.0652232 -1.57465 0
M  V30 42943 C 4045.01 0.90198 -2.15375 0
M  V30 42944 C 4045.99 1.31492 -1.07906 0
M  V30 42945 O 4047.18 1.38714 -1.35912 0
M  V30 42946 C 4044.31 2.1719 -2.71009 0
M  V30 42947 C 4043.26 1.89857 -3.83586 0
M  V30 42948 C 4042.59 3.23424 -4.25794 0
M  V30 42949 C 4043.89 1.20904 -5.08114 0
M  V30 42950 H 4045.58 0.419579 -2.96445 0
M  V30 42951 H 4043.13 0.200376 -1.42599 0
M  V30 42952 H 4045.08 2.85264 -3.10165 0
M  V30 42953 H 4043.8 2.67661 -1.8715 0
M  V30 42954 H 4042.46 1.24191 -3.44923 0
M  V30 42955 H 4042.11 3.71723 -3.38867 0
M  V30 42956 H 4041.81 3.05929 -5.01678 0
M  V30 42957 H 4043.34 3.92706 -4.67562 0
M  V30 42958 H 4044.75 1.79036 -5.44627 0
M  V30 42959 H 4043.15 1.13689 -5.89232 0
M  V30 42960 H 4044.22 0.187139 -4.84539 0
M  V30 42961 N 4045.56 1.56218 0.208282 0
M  V30 42962 C 4046.52 1.92648 1.24175 0
M  V30 42963 C 4047.52 0.806298 1.39124 0
M  V30 42964 O 4048.71 1.07389 1.37162 0
M  V30 42965 C 4045.84 2.18896 2.61338 0
M  V30 42966 H 4047.04 2.85093 0.930698 0
M  V30 42967 H 4044.59 1.49704 0.449259 0
M  V30 42968 H 4045.33 1.29046 2.97519 0
M  V30 42969 H 4045.11 3.00513 2.51861 0
M  V30 42970 H 4046.6 2.48131 3.35888 0
M  V30 42971 N 4047.04 -0.475502 1.50256 0
M  V30 42972 C 4047.99 -1.59481 1.69318 0
M  V30 42973 C 4048.98 -1.5991 0.559024 0
M  V30 42974 O 4050.19 -1.64112 0.739399 0
M  V30 42975 H 4046.56 -0.529128 0.534348 0
M  V30 42976 H 4048.53 -1.40564 2.63219 0
M  V30 42977 C 4047.28 -2.97453 1.80048 0
M  V30 42978 H 4046.6 -2.97839 2.66706 0
M  V30 42979 H 4048.04 -3.75239 1.97412 0
M  V30 42980 C 4046.5 -3.32363 0.55106 0
M  V30 42981 O 4047.03 -4.00488 -0.311782 0
M  V30 42982 N 4045.24 -2.87744 0.406393 0
M  V30 42983 H 4044.79 -2.32479 1.10957 0
M  V30 42984 H 4044.74 -3.11467 -0.428428 0
M  V30 42985 N 4048.52 -1.39759 -0.72837 0
M  V30 42986 C 4049.76 -1.37072 -1.48512 0
M  V30 42987 C 4050.08 0.030492 -1.94976 0
M  V30 42988 O 4049.35 0.982957 -1.69454 0
M  V30 42989 H 4047.93 -0.504444 -0.550949 0
M  V30 42990 H 4050.6 -1.7469 -0.864266 0
M  V30 42991 H 4049.69 -2.0376 -2.36407 0
M  V30 42992 N 4049.99 0.959257 -1.25044 0
M  V30 42993 C 4051.24 1.70645 -1.10687 0
M  V30 42994 C 4051.59 1.89202 0.349338 0
M  V30 42995 O 4050.89 1.44854 1.25411 0
M  V30 42996 C 4051.08 3.09371 -1.78954 0
M  V30 42997 C 4050.91 3.04347 -3.31063 0
M  V30 42998 C 4049.68 3.0836 -4.00303 0
M  V30 42999 C 4051.88 2.8587 -4.27531 0
M  V30 43000 N 4049.86 2.93445 -5.39225 0
M  V30 43001 C 4051.23 2.79339 -5.53507 0
M  V30 43002 C 4053.29 2.70515 -4.18002 0
M  V30 43003 C 4051.99 2.59022 -6.71044 0
M  V30 43004 C 4054.02 2.51568 -5.35227 0
M  V30 43005 C 4053.38 2.45752 -6.6014 0
M  V30 43006 H 4049.48 0.632605 -0.459711 0
M  V30 43007 H 4052.06 1.13662 -1.58079 0
M  V30 43008 H 4050.23 3.64529 -1.34064 0
M  V30 43009 H 4051.96 3.72845 -1.57381 0
M  V30 43010 H 4048.72 3.17371 -3.51529 0
M  V30 43011 H 4049.14 2.89205 -6.12119 0
M  V30 43012 H 4053.78 2.73788 -3.2218 0
M  V30 43013 H 4051.5 2.54491 -7.66981 0
M  V30 43014 H 4055.09 2.40618 -5.29711 0
M  V30 43015 H 4053.97 2.31281 -7.49319 0
M  V30 43016 N 4051.47 1.06556 1.16119 0
M  V30 43017 C 4052.72 0.778903 1.86054 0
M  V30 43018 C 4053.03 -0.697325 1.82748 0
M  V30 43019 O 4054.24 -1.09845 2.48287 0
M  V30 43020 C 4052.7 1.34321 3.33895 0
M  V30 43021 C 4052.3 2.84987 3.45668 0
M  V30 43022 C 4054.05 1.13422 4.09067 0
M  V30 43023 C 4051.96 3.34649 4.8761 0
M  V30 43024 H 4050.89 0.28769 0.696958 0
M  V30 43025 H 4053.54 1.2846 1.31035 0
M  V30 43026 H 4051.92 0.765276 3.88535 0
M  V30 43027 H 4053.09 3.48755 3.01175 0
M  V30 43028 H 4051.41 3.04584 2.83932 0
M  V30 43029 H 4054 1.48011 5.13806 0
M  V30 43030 H 4054.35 0.0727451 4.16236 0
M  V30 43031 H 4054.88 1.67808 3.60673 0
M  V30 43032 H 4051.62 4.40287 4.85621 0
M  V30 43033 H 4051.14 2.75631 5.32717 0
M  V30 43034 H 4052.82 3.30132 5.56437 0
M  V30 43035 N 4052.95 -1.32808 0.848511 0
M  V30 43036 C 4054.18 -2.01368 0.462008 0
M  V30 43037 C 4054.59 -1.63959 -0.944148 0
M  V30 43038 O 4053.93 -0.853706 -1.62658 0
M  V30 43039 C 4053.99 -3.55803 0.514226 0
M  V30 43040 C 4053.66 -4.16621 1.87819 0
M  V30 43041 C 4054.65 -4.35295 2.84279 0
M  V30 43042 C 4052.34 -4.52833 2.17366 0
M  V30 43043 C 4054.33 -4.8934 4.08442 0
M  V30 43044 C 4052.02 -5.06584 3.41783 0
M  V30 43045 C 4053.02 -5.24786 4.37137 0
M  V30 43046 O 4052.71 -5.77391 5.59353 0
M  V30 43047 H 4052.44 -0.651413 0.180657 0
M  V30 43048 H 4054.99 -1.705 1.14538 0
M  V30 43049 H 4053.22 -3.86039 -0.225969 0
M  V30 43050 H 4054.91 -4.05644 0.144192 0
M  V30 43051 H 4055.68 -4.07658 2.62754 0
M  V30 43052 H 4051.56 -4.37954 1.43934 0
M  V30 43053 H 4055.1 -5.03463 4.82878 0
M  V30 43054 H 4051 -5.33652 3.6316 0
M  V30 43055 H 4051.77 -5.95792 5.61225 0
M  V30 43056 N 4054.43 -0.605858 -1.45489 0
M  V30 43057 C 4055.68 -0.100176 -2.01852 0
M  V30 43058 C 4056 1.27316 -1.47701 0
M  V30 43059 O 4055.27 1.84064 -0.670603 0
M  V30 43060 H 4053.85 -0.0340423 -0.746224 0
M  V30 43061 H 4056.51 -0.786865 -1.7831 0
M  V30 43062 H 4055.61 -0.0486474 -3.12062 0
M  V30 43063 N 4055.91 1.53779 -0.34492 0
M  V30 43064 C 4056.82 2.28772 0.519647 0
M  V30 43065 C 4057.83 1.33935 1.11073 0
M  V30 43066 O 4059.01 1.66974 1.12612 0
M  V30 43067 C 4056.07 3.04696 1.65412 0
M  V30 43068 C 4055.13 4.15162 1.09267 0
M  V30 43069 C 4054.37 4.87456 2.17308 0
M  V30 43070 O 4054.59 4.59431 3.38053 0
M  V30 43071 O 4053.52 5.73875 1.81525 0
M  V30 43072 H 4057.35 3.03567 -0.0900159 0
M  V30 43073 H 4054.94 1.48995 -0.109925 0
M  V30 43074 H 4056.82 3.52172 2.31415 0
M  V30 43075 H 4055.49 2.32758 2.24957 0
M  V30 43076 H 4054.4 3.71986 0.397128 0
M  V30 43077 H 4055.73 4.89206 0.54207 0
M  V30 43078 N 4057.38 0.0735731 1.57428 0
M  V30 43079 C 4058.63 -0.594715 1.92733 0
M  V30 43080 C 4058.95 -1.70661 0.955723 0
M  V30 43081 O 4060.15 -2.43459 1.20166 0
M  V30 43082 C 4058.61 -1.10921 3.42381 0
M  V30 43083 C 4058.22 -0.028222 4.47991 0
M  V30 43084 C 4059.96 -1.75146 3.86683 0
M  V30 43085 C 4057.87 -0.556862 5.88772 0
M  V30 43086 H 4056.8 -0.225917 0.719359 0
M  V30 43087 H 4059.45 0.146095 1.82917 0
M  V30 43088 H 4057.83 -1.90304 3.47276 0
M  V30 43089 H 4059 0.74642 4.54714 0
M  V30 43090 H 4057.32 0.517908 4.13167 0
M  V30 43091 H 4059.92 -2.15732 4.89248 0
M  V30 43092 H 4060.26 -2.61216 3.24148 0
M  V30 43093 H 4060.79 -1.02382 3.84399 0
M  V30 43094 H 4057.53 0.266717 6.54957 0
M  V30 43095 H 4057.05 -1.29899 5.85565 0
M  V30 43096 H 4058.73 -1.0327 6.38705 0
M  V30 43097 N 4058.86 -1.56326 -0.199995 0
M  V30 43098 C 4060.09 -1.84175 -0.936111 0
M  V30 43099 C 4060.5 -0.653298 -1.77563 0
M  V30 43100 O 4059.84 0.387336 -1.7957 0
M  V30 43101 C 4059.91 -3.0606 -1.88593 0
M  V30 43102 C 4059.57 -4.40169 -1.22884 0
M  V30 43103 C 4060.57 -5.16331 -0.608152 0
M  V30 43104 C 4058.25 -4.86902 -1.23416 0
M  V30 43105 C 4060.25 -6.374 -0.00155064 0
M  V30 43106 C 4057.93 -6.07909 -0.623721 0
M  V30 43107 C 4058.93 -6.82999 -0.00849157 0
M  V30 43108 O 4058.62 -8.01714 0.592393 0
M  V30 43109 H 4058.35 -0.615794 -0.278879 0
M  V30 43110 H 4060.9 -2.04285 -0.213728 0
M  V30 43111 H 4059.13 -2.81823 -2.64788 0
M  V30 43112 H 4060.82 -3.20597 -2.48942 0
M  V30 43113 H 4061.59 -4.81321 -0.596218 0
M  V30 43114 H 4057.47 -4.28414 -1.70242 0
M  V30 43115 H 4061.01 -6.95952 0.479269 0
M  V30 43116 H 4056.91 -6.42387 -0.633141 0
M  V30 43117 H 4057.68 -8.17039 0.488818 0
M  V30 43118 N 4060.34 0.467527 -1.50506 0
M  V30 43119 C 4061.57 1.2472 -1.6571 0
M  V30 43120 C 4061.99 1.84972 -0.341582 0
M  V30 43121 O 4061.35 1.67451 0.694963 0
M  V30 43122 C 4061.4 2.32908 -2.75293 0
M  V30 43123 O 4060.5 3.37642 -2.36794 0
M  V30 43124 H 4059.84 0.366764 -0.553516 0
M  V30 43125 H 4062.37 0.555953 -1.96902 0
M  V30 43126 H 4062.38 2.78164 -2.98477 0
M  V30 43127 H 4061.06 1.88425 -3.70768 0
M  V30 43128 H 4059.63 2.98072 -2.2407 0
M  V30 43129 N 4061.82 1.40143 0.720948 0
M  V30 43130 C 4063.1 1.28632 1.47354 0
M  V30 43131 C 4063.48 -0.0977767 2.10873 0
M  V30 43132 O 4062.82 -1.11017 1.99719 0
M  V30 43133 C 4063.03 2.42114 2.5136 0
M  V30 43134 C 4064.38 2.82096 3.17343 0
M  V30 43135 O 4065.41 2.41668 2.61677 0
M  V30 43136 O 4064.26 3.51925 4.18104 0
M  V30 43137 H 4061.36 0.504866 0.655011 0
M  V30 43138 H 4063.9 1.5205 0.753579 0
M  V30 43139 H 4062.68 3.34585 2.02901 0
M  V30 43140 H 4062.3 2.20437 3.30897 0
M  V30 43141 N 4063.3 -0.952612 1.25551 0
M  V30 43142 C 4064.52 -1.73741 1.13265 0
M  V30 43143 C 4064.95 -1.85537 -0.309474 0
M  V30 43144 O 4064.3 -1.33728 -1.22419 0
M  V30 43145 C 4064.35 -3.12806 1.79401 0
M  V30 43146 O 4063.46 -3.98142 1.07503 0
M  V30 43147 H 4062.8 -0.533494 0.395324 0
M  V30 43148 H 4065.33 -1.19391 1.66153 0
M  V30 43149 H 4065.34 -3.63256 1.85767 0
M  V30 43150 H 4064.01 -3.03537 2.84321 0
M  V30 43151 H 4062.59 -3.56604 1.09031 0
M  V30 43152 N 4064.77 -1.0717 -1.15553 0
M  V30 43153 C 4066 -0.814866 -1.90722 0
M  V30 43154 C 4066.42 0.625909 -1.77381 0
M  V30 43155 O 4065.78 1.43716 -1.10523 0
M  V30 43156 C 4065.83 -1.22557 -3.39134 0
M  V30 43157 O 4064.93 -0.369749 -4.10739 0
M  V30 43158 H 4064.28 -0.297027 -0.593861 0
M  V30 43159 H 4066.81 -1.42983 -1.46345 0
M  V30 43160 H 4066.82 -1.20096 -3.89924 0
M  V30 43161 H 4065.49 -2.27498 -3.48163 0
M  V30 43162 H 4064.07 -0.456691 -3.70093 0
M  V30 43163 N 4066.25 1.32356 -0.855542 0
M  V30 43164 C 4067.2 2.28857 -0.298817 0
M  V30 43165 C 4068.17 1.55089 0.5947 0
M  V30 43166 O 4069.36 1.83308 0.529423 0
M  V30 43167 C 4066.5 3.4137 0.506036 0
M  V30 43168 C 4065.61 4.30018 -0.413372 0
M  V30 43169 C 4064.74 5.2966 0.404199 0
M  V30 43170 C 4063.78 6.0995 -0.512551 0
M  V30 43171 N 4062.92 7.01589 0.267894 0
M  V30 43172 H 4067.76 2.75868 -1.12699 0
M  V30 43173 H 4065.3 1.35725 -0.567186 0
M  V30 43174 H 4067.25 4.05325 0.988313 0
M  V30 43175 H 4065.88 2.95508 1.29903 0
M  V30 43176 H 4064.94 3.66635 -1.01404 0
M  V30 43177 H 4066.25 4.86134 -1.11691 0
M  V30 43178 H 4065.4 5.99222 0.949601 0
M  V30 43179 H 4064.14 4.74163 1.1411 0
M  V30 43180 H 4063.15 5.39291 -1.06983 0
M  V30 43181 H 4064.37 6.67533 -1.24808 0
M  V30 43182 H 4062.32 6.48519 0.987872 0
M  V30 43183 H 4062.23 7.55061 -0.376594 0
M  V30 43184 H 4063.5 7.75435 0.794994 0
M  V30 43185 N 4067.73 0.613565 1.45166 0
M  V30 43186 C 4068.98 0.111263 2.02495 0
M  V30 43187 C 4069.31 -1.25716 1.48017 0
M  V30 43188 O 4068.59 -1.8306 0.65722 0
M  V30 43189 C 4068.87 0.0788232 3.60014 0
M  V30 43190 C 4068.72 1.47834 4.24812 0
M  V30 43191 C 4070.04 -0.605887 4.35909 0
M  V30 43192 H 4067.16 0.0419061 0.735808 0
M  V30 43193 H 4069.8 0.786681 1.72949 0
M  V30 43194 H 4067.95 -0.496343 3.85316 0
M  V30 43195 H 4069.62 2.10105 4.10675 0
M  V30 43196 H 4067.87 2.03733 3.82982 0
M  V30 43197 H 4068.54 1.40783 5.33745 0
M  V30 43198 H 4071.01 -0.116946 4.15936 0
M  V30 43199 H 4069.89 -0.597712 5.45636 0
M  V30 43200 H 4070.15 -1.67308 4.09219 0
M  V30 43201 N 4069.21 -1.53594 0.353071 0
M  V30 43202 C 4070.14 -2.22897 -0.533794 0
M  V30 43203 C 4071.15 -1.23879 -1.0563 0
M  V30 43204 O 4072.34 -1.50178 -0.964825 0
M  V30 43205 C 4069.44 -2.90319 -1.74837 0
M  V30 43206 C 4068.62 -4.15735 -1.35951 0
M  V30 43207 C 4067.68 -4.66481 -2.43479 0
M  V30 43208 O 4066.7 -5.30464 -2.0639 0
M  V30 43209 N 4067.9 -4.43222 -3.74879 0
M  V30 43210 H 4070.67 -2.9964 0.0597782 0
M  V30 43211 H 4068.23 -1.60922 0.177646 0
M  V30 43212 H 4070.22 -3.2118 -2.46223 0
M  V30 43213 H 4068.79 -2.17105 -2.24909 0
M  V30 43214 H 4068.01 -3.91315 -0.476025 0
M  V30 43215 H 4069.3 -4.97296 -1.07583 0
M  V30 43216 H 4068.7 -3.92072 -4.07795 0
M  V30 43217 H 4067.25 -4.78665 -4.42406 0
M  V30 43218 N 4070.69 -0.0819208 -1.57387 0
M  V30 43219 C 4072.1 0.449223 -1.81215 0
M  V30 43220 C 4072.45 1.69004 -0.996592 0
M  V30 43221 O 4071.57 2.15258 -0.222068 0
M  V30 43222 C 4072.17 0.821769 -3.28683 0
M  V30 43223 C 4070.73 1.29772 -3.53322 0
M  V30 43224 C 4069.88 0.287862 -2.75802 0
M  V30 43225 H 4072.83 -0.307513 -1.55692 0
M  V30 43226 H 4072.85 1.68239 -3.41286 0
M  V30 43227 H 4072.36 -0.0815092 -3.88014 0
M  V30 43228 H 4070.46 2.21916 -2.99306 0
M  V30 43229 H 4070.57 1.26866 -4.61998 0
M  V30 43230 H 4068.94 0.767267 -2.42868 0
M  V30 43231 H 4069.72 -0.607865 -3.37876 0
M  V30 43232 N 4072.17 1.5643 0.191702 0
M  V30 43233 C 4073.1 1.97842 1.2402 0
M  V30 43234 C 4074.08 0.850879 1.47289 0
M  V30 43235 O 4075.26 1.11546 1.58969 0
M  V30 43236 C 4072.39 2.32084 2.58369 0
M  V30 43237 C 4071.35 3.47607 2.49706 0
M  V30 43238 C 4070.67 3.67535 3.88359 0
M  V30 43239 C 4071.97 4.8169 2.0192 0
M  V30 43240 H 4073.67 2.85677 0.89605 0
M  V30 43241 H 4071.21 1.37443 0.429592 0
M  V30 43242 H 4073.16 2.59649 3.31904 0
M  V30 43243 H 4071.89 1.41135 2.94531 0
M  V30 43244 H 4070.55 3.20138 1.78627 0
M  V30 43245 H 4070.2 2.7391 4.21879 0
M  V30 43246 H 4069.9 4.45253 3.83436 0
M  V30 43247 H 4071.42 3.9748 4.63511 0
M  V30 43248 H 4072.83 5.08265 2.65216 0
M  V30 43249 H 4071.23 5.62902 2.07992 0
M  V30 43250 H 4072.3 4.75046 0.972565 0
M  V30 43251 N 4073.64 -0.459538 1.50751 0
M  V30 43252 C 4074.58 -1.57523 1.65111 0
M  V30 43253 C 4075.55 -1.54754 0.498986 0
M  V30 43254 O 4076.74 -1.74208 0.719988 0
M  V30 43255 C 4073.87 -2.96108 1.64432 0
M  V30 43256 C 4072.91 -3.16987 2.85344 0
M  V30 43257 S 4073.74 -2.95651 4.46487 0
M  V30 43258 C 4074.9 -4.36557 4.48519 0
M  V30 43259 H 4075.13 -1.45105 2.59484 0
M  V30 43260 H 4072.67 -0.647693 1.40158 0
M  V30 43261 H 4074.62 -3.76 1.64725 0
M  V30 43262 H 4073.29 -3.05906 0.712752 0
M  V30 43263 H 4072.48 -4.18257 2.81206 0
M  V30 43264 H 4072.08 -2.44886 2.82678 0
M  V30 43265 H 4074.37 -5.29389 4.22793 0
M  V30 43266 H 4075.32 -4.45735 5.50206 0
M  V30 43267 H 4075.72 -4.19175 3.78091 0
M  V30 43268 N 4075.12 -1.40523 -0.713506 0
M  V30 43269 C 4076.07 -1.40954 -1.82758 0
M  V30 43270 C 4077.04 -0.266216 -1.63953 0
M  V30 43271 O 4078.22 -0.464591 -1.85057 0
M  V30 43272 C 4075.36 -1.27995 -3.20486 0
M  V30 43273 C 4074.48 -2.5205 -3.50849 0
M  V30 43274 C 4073.61 -2.31517 -4.78093 0
M  V30 43275 C 4072.65 -3.51138 -5.01367 0
M  V30 43276 N 4071.79 -3.29788 -6.19826 0
M  V30 43277 H 4076.63 -2.36178 -1.81725 0
M  V30 43278 H 4074.16 -1.17297 -0.887683 0
M  V30 43279 H 4076.12 -1.18487 -4.00021 0
M  V30 43280 H 4074.75 -0.363889 -3.20742 0
M  V30 43281 H 4073.8 -2.72078 -2.65853 0
M  V30 43282 H 4075.12 -3.41083 -3.63955 0
M  V30 43283 H 4074.27 -2.19375 -5.6565 0
M  V30 43284 H 4073.01 -1.39912 -4.672 0
M  V30 43285 H 4072.01 -3.63755 -4.12265 0
M  V30 43286 H 4073.24 -4.43673 -5.14131 0
M  V30 43287 H 4071.19 -2.40866 -6.1018 0
M  V30 43288 H 4071.1 -4.12387 -6.33619 0
M  V30 43289 H 4072.37 -3.21382 -7.10165 0
M  V30 43290 N 4076.6 0.94594 -1.26054 0
M  V30 43291 C 4078.01 1.50636 -1.10299 0
M  V30 43292 C 4078.36 1.936 0.318343 0
M  V30 43293 O 4077.49 1.79457 1.20931 0
M  V30 43294 C 4078.08 2.73755 -1.99609 0
M  V30 43295 C 4076.64 3.2608 -1.88013 0
M  V30 43296 C 4075.79 1.98879 -1.93242 0
M  V30 43297 H 4078.74 0.761922 -1.39214 0
M  V30 43298 H 4078.76 3.4789 -1.54119 0
M  V30 43299 H 4078.27 2.42453 -3.03048 0
M  V30 43300 H 4076.37 3.62182 -0.87491 0
M  V30 43301 H 4076.49 3.93508 -2.73291 0
M  V30 43302 H 4074.85 2.14566 -1.37235 0
M  V30 43303 H 4075.63 1.69914 -2.98302 0
M  V30 43304 N 4078.08 1.07781 1.14983 0
M  V30 43305 C 4079.31 0.823682 1.8947 0
M  V30 43306 C 4079.72 -0.627243 1.785 0
M  V30 43307 O 4079.06 -1.4423 1.13769 0
M  V30 43308 C 4079.12 1.15841 3.40325 0
M  V30 43309 C 4078.78 2.61081 3.75081 0
M  V30 43310 C 4079.78 3.5933 3.75737 0
M  V30 43311 C 4077.47 2.96772 4.05255 0
M  V30 43312 C 4079.46 4.91302 4.0608 0
M  V30 43313 C 4077.15 4.2894 4.35263 0
M  V30 43314 C 4078.15 5.26015 4.35657 0
M  V30 43315 O 4077.83 6.55808 4.64942 0
M  V30 43316 H 4077.57 0.297126 0.6072 0
M  V30 43317 H 4080.12 1.4388 1.46587 0
M  V30 43318 H 4078.35 0.486267 3.8363 0
M  V30 43319 H 4080.04 0.886117 3.9611 0
M  V30 43320 H 4080.8 3.331 3.52519 0
M  V30 43321 H 4076.68 2.21857 4.04105 0
M  V30 43322 H 4080.23 5.67066 4.06303 0
M  V30 43323 H 4076.12 4.54921 4.57949 0
M  V30 43324 H 4076.89 6.61026 4.82688 0
M  V30 43325 N 4079.56 -1.31901 0.862549 0
M  V30 43326 C 4080.5 -2.28696 0.31095 0
M  V30 43327 C 4081.47 -1.55402 -0.586467 0
M  V30 43328 O 4082.66 -1.83586 -0.519694 0
M  V30 43329 C 4079.8 -3.41633 -0.487926 0
M  V30 43330 C 4078.91 -4.29792 0.436171 0
M  V30 43331 C 4078.05 -5.29867 -0.376104 0
M  V30 43332 C 4077.08 -6.0967 0.544891 0
M  V30 43333 N 4076.22 -7.01721 -0.230683 0
M  V30 43334 H 4081.06 -2.75266 1.1416 0
M  V30 43335 H 4078.6 -1.35423 0.574376 0
M  V30 43336 H 4080.56 -4.05843 -0.966803 0
M  V30 43337 H 4079.19 -2.96193 -1.28334 0
M  V30 43338 H 4078.24 -3.66092 1.03347 0
M  V30 43339 H 4079.55 -4.85535 1.14268 0
M  V30 43340 H 4078.7 -5.99718 -0.91781 0
M  V30 43341 H 4077.44 -4.74761 -1.11594 0
M  V30 43342 H 4076.45 -5.38716 1.09842 0
M  V30 43343 H 4077.67 -6.66861 1.28346 0
M  V30 43344 H 4075.62 -6.49034 -0.953466 0
M  V30 43345 H 4075.54 -7.54851 0.416632 0
M  V30 43346 H 4076.8 -7.75846 -0.75386 0
M  V30 43347 N 4081.03 -0.621255 -1.44838 0
M  V30 43348 C 4081.96 0.0765876 -2.33374 0
M  V30 43349 C 4082.95 0.844906 -1.47632 0
M  V30 43350 O 4084.13 0.812749 -1.76375 0
M  V30 43351 C 4081.26 1.06544 -3.30554 0
M  V30 43352 C 4080.21 0.409421 -4.26037 0
M  V30 43353 C 4079.54 1.50748 -5.1301 0
M  V30 43354 C 4080.84 -0.678085 -5.1788 0
M  V30 43355 H 4082.53 -0.662709 -2.91973 0
M  V30 43356 H 4080.08 -0.320142 -1.40396 0
M  V30 43357 H 4082.03 1.5623 -3.9137 0
M  V30 43358 H 4080.76 1.8355 -2.70142 0
M  V30 43359 H 4079.42 -0.0666965 -3.66539 0
M  V30 43360 H 4079.06 2.26817 -4.48958 0
M  V30 43361 H 4078.76 1.07397 -5.77702 0
M  V30 43362 H 4080.29 2.00634 -5.76696 0
M  V30 43363 H 4081.7 -0.264738 -5.72688 0
M  V30 43364 H 4080.1 -1.03415 -5.91122 0
M  V30 43365 H 4081.17 -1.54922 -4.59486 0
M  V30 43366 N 4082.51 1.53405 -0.361211 0
M  V30 43367 C 4083.44 2.28527 0.479328 0
M  V30 43368 C 4084.42 1.30782 1.08766 0
M  V30 43369 O 4085.61 1.59647 1.10573 0
M  V30 43370 C 4082.74 3.07126 1.62144 0
M  V30 43371 C 4081.69 4.12523 1.14058 0
M  V30 43372 C 4081.02 4.79179 2.37259 0
M  V30 43373 C 4082.32 5.218 0.22843 0
M  V30 43374 H 4084.01 2.99037 -0.147397 0
M  V30 43375 H 4081.56 1.43818 -0.0723304 0
M  V30 43376 H 4083.51 3.58425 2.21606 0
M  V30 43377 H 4082.24 2.34299 2.27533 0
M  V30 43378 H 4080.89 3.62163 0.568672 0
M  V30 43379 H 4080.54 4.02928 3.01095 0
M  V30 43380 H 4080.24 5.50397 2.05758 0
M  V30 43381 H 4081.77 5.3327 2.97414 0
M  V30 43382 H 4083.18 5.68628 0.730397 0
M  V30 43383 H 4081.58 6.001 0.00449711 0
M  V30 43384 H 4082.65 4.79364 -0.730621 0
M  V30 43385 N 4083.99 0.0902663 1.57341 0
M  V30 43386 C 4085.22 -0.586489 1.98935 0
M  V30 43387 C 4085.64 -1.61228 0.968869 0
M  V30 43388 O 4085 -1.8119 -0.0632549 0
M  V30 43389 C 4085.05 -1.2151 3.39511 0
M  V30 43390 O 4084.15 -2.33094 3.40207 0
M  V30 43391 H 4083.49 -0.149238 0.647012 0
M  V30 43392 H 4086.02 0.170249 2.0389 0
M  V30 43393 H 4086.03 -1.55756 3.771 0
M  V30 43394 H 4084.71 -0.463566 4.13308 0
M  V30 43395 H 4083.28 -2.00504 3.14408 0
M  V30 43396 N 4085.47 -1.56529 -0.183403 0
M  V30 43397 C 4086.38 -1.98687 -1.24743 0
M  V30 43398 C 4087.39 -0.896327 -1.49137 0
M  V30 43399 O 4088.57 -1.20301 -1.61523 0
M  V30 43400 C 4085.64 -2.32791 -2.56923 0
M  V30 43401 C 4084.7 -3.55612 -2.40497 0
M  V30 43402 C 4083.93 -3.88079 -3.66374 0
M  V30 43403 O 4084.15 -3.21676 -4.71042 0
M  V30 43404 O 4083.09 -4.81471 -3.61205 0
M  V30 43405 H 4086.91 -2.89442 -0.919625 0
M  V30 43406 H 4084.5 -1.44238 -0.389326 0
M  V30 43407 H 4086.38 -2.55749 -3.34918 0
M  V30 43408 H 4085.05 -1.45201 -2.89307 0
M  V30 43409 H 4083.96 -3.37886 -1.60574 0
M  V30 43410 H 4085.29 -4.43705 -2.13042 0
M  V30 43411 N 4086.95 0.451537 -1.50993 0
M  V30 43412 C 4087.89 1.547 -1.71279 0
M  V30 43413 C 4088.86 1.5658 -0.55426 0
M  V30 43414 O 4090.05 1.73809 -0.787083 0
M  V30 43415 C 4087.19 2.92531 -1.83083 0
M  V30 43416 C 4086.3 3.0029 -3.10564 0
M  V30 43417 C 4085.44 4.29157 -3.13046 0
M  V30 43418 C 4084.48 4.3073 -4.349 0
M  V30 43419 N 4083.61 5.51098 -4.35012 0
M  V30 43420 H 4088.45 1.36706 -2.64794 0
M  V30 43421 H 4085.99 0.664333 -1.31244 0
M  V30 43422 H 4087.95 3.72487 -1.87908 0
M  V30 43423 H 4086.58 3.09116 -0.929906 0
M  V30 43424 H 4085.63 2.13085 -3.15117 0
M  V30 43425 H 4086.94 2.97313 -4.00508 0
M  V30 43426 H 4086.1 5.17475 -3.16709 0
M  V30 43427 H 4084.83 4.3477 -2.20967 0
M  V30 43428 H 4083.84 3.40806 -4.31429 0
M  V30 43429 H 4085.06 4.26792 -5.28229 0
M  V30 43430 H 4083.01 5.5746 -3.45795 0
M  V30 43431 H 4082.93 5.49943 -5.18747 0
M  V30 43432 H 4084.2 6.41488 -4.42847 0
M  V30 43433 N 4088.42 1.409 0.706044 0
M  V30 43434 C 4089.33 1.44258 1.85005 0
M  V30 43435 C 4090.35 0.334204 1.7076 0
M  V30 43436 O 4091.53 0.580291 1.92859 0
M  V30 43437 C 4088.59 1.31257 3.20893 0
M  V30 43438 C 4087.65 2.5232 3.47323 0
M  V30 43439 C 4086.89 2.3993 4.76728 0
M  V30 43440 O 4087.11 1.41822 5.52488 0
M  V30 43441 O 4086.04 3.29489 5.03707 0
M  V30 43442 H 4089.87 2.40752 1.85128 0
M  V30 43443 H 4087.45 1.22325 0.857729 0
M  V30 43444 H 4089.34 1.26251 4.02043 0
M  V30 43445 H 4088.01 0.378741 3.21477 0
M  V30 43446 H 4086.92 2.62903 2.66144 0
M  V30 43447 H 4088.25 3.44496 3.51544 0
M  V30 43448 N 4089.9 -0.939242 1.26554 0
M  V30 43449 C 4090.85 -2.03824 1.0828 0
M  V30 43450 C 4091.82 -1.66095 -0.0127421 0
M  V30 43451 O 4093 -1.9023 0.147396 0
M  V30 43452 C 4090.14 -3.37423 0.723879 0
M  V30 43453 C 4089.26 -3.88176 1.89587 0
M  V30 43454 C 4088.39 -5.10169 1.47988 0
M  V30 43455 C 4087.43 -5.5319 2.62006 0
M  V30 43456 N 4086.57 -6.66386 2.21076 0
M  V30 43457 H 4091.41 -2.18788 2.02326 0
M  V30 43458 H 4088.95 -1.07196 1.00734 0
M  V30 43459 H 4090.9 -4.14233 0.496658 0
M  V30 43460 H 4089.53 -3.223 -0.179615 0
M  V30 43461 H 4088.59 -3.07748 2.23597 0
M  V30 43462 H 4089.9 -4.1604 2.75158 0
M  V30 43463 H 4089.05 -5.94446 1.21323 0
M  V30 43464 H 4087.79 -4.84056 0.59511 0
M  V30 43465 H 4086.8 -4.6747 2.894 0
M  V30 43466 H 4088.02 -5.81305 3.51087 0
M  V30 43467 H 4085.97 -6.41951 1.35035 0
M  V30 43468 H 4085.88 -6.93846 3.00189 0
M  V30 43469 H 4087.15 -7.54032 1.97627 0
M  V30 43470 N 4091.38 -1.08389 -1.14409 0
M  V30 43471 C 4092.29 -0.725457 -2.23101 0
M  V30 43472 C 4093.31 0.26796 -1.71924 0
M  V30 43473 O 4094.48 0.111951 -2.01089 0
M  V30 43474 C 4091.55 -0.139976 -3.46417 0
M  V30 43475 C 4090.61 -1.18798 -4.12535 0
M  V30 43476 C 4089.84 -0.630345 -5.29964 0
M  V30 43477 O 4090.06 0.550236 -5.6774 0
M  V30 43478 O 4089 -1.38031 -5.85859 0
M  V30 43479 H 4092.82 -1.63217 -2.56113 0
M  V30 43480 H 4090.41 -0.857559 -1.22337 0
M  V30 43481 H 4092.29 0.183736 -4.20999 0
M  V30 43482 H 4090.97 0.739902 -3.1513 0
M  V30 43483 H 4089.87 -1.56422 -3.39828 0
M  V30 43484 H 4091.21 -2.04013 -4.47928 0
M  V30 43485 N 4092.86 1.31442 -0.869532 0
M  V30 43486 C 4094.11 1.95993 -0.476392 0
M  V30 43487 C 4094.42 1.69496 0.976238 0
M  V30 43488 O 4095.63 2.27906 1.47551 0
M  V30 43489 C 4094.08 3.50873 -0.800999 0
M  V30 43490 C 4093.69 3.86211 -2.27036 0
M  V30 43491 C 4095.43 4.21819 -0.476308 0
M  V30 43492 C 4093.34 5.342 -2.5374 0
M  V30 43493 H 4092.27 0.733549 -0.17442 0
M  V30 43494 H 4094.92 1.49619 -1.06237 0
M  V30 43495 H 4093.3 3.95737 -0.144275 0
M  V30 43496 H 4094.48 3.52308 -2.97011 0
M  V30 43497 H 4092.79 3.28329 -2.56104 0
M  V30 43498 H 4095.39 5.30697 -0.653059 0
M  V30 43499 H 4095.73 4.12194 0.583221 0
M  V30 43500 H 4096.27 3.82588 -1.08956 0
M  V30 43501 H 4093.01 5.48861 -3.58375 0
M  V30 43502 H 4092.53 5.69457 -1.88359 0
M  V30 43503 H 4094.2 6.01458 -2.38447 0
M  V30 43504 N 4094.34 0.628927 1.44507 0
M  V30 43505 C 4095.57 0.139344 2.0613 0
M  V30 43506 C 4095.97 -1.19042 1.47057 0
M  V30 43507 O 4095.32 -1.74066 0.587082 0
M  V30 43508 C 4095.38 -0.0521345 3.59462 0
M  V30 43509 C 4095.04 1.19912 4.40988 0
M  V30 43510 C 4096.04 2.12231 4.74609 0
M  V30 43511 C 4093.73 1.43392 4.81398 0
M  V30 43512 C 4095.72 3.26341 5.47522 0
M  V30 43513 C 4093.41 2.578 5.5406 0
M  V30 43514 C 4094.4 3.49101 5.87041 0
M  V30 43515 O 4094.09 4.61514 6.58225 0
M  V30 43516 H 4093.82 0.075888 0.671727 0
M  V30 43517 H 4096.38 0.862777 1.86401 0
M  V30 43518 H 4094.61 -0.83069 3.77672 0
M  V30 43519 H 4096.3 -0.495995 4.02858 0
M  V30 43520 H 4097.06 1.95324 4.4393 0
M  V30 43521 H 4092.94 0.73217 4.55149 0
M  V30 43522 H 4096.49 3.97627 5.73183 0
M  V30 43523 H 4092.38 2.7465 5.84155 0
M  V30 43524 H 4093.15 4.60468 6.76692 0
M  V30 43525 N 4095.82 -1.53211 0.369342 0
M  V30 43526 C 4097.23 -1.59589 0.0184396 0
M  V30 43527 C 4097.43 -1.3843 -1.46422 0
M  V30 43528 O 4096.49 -1.19134 -2.22628 0
M  V30 43529 C 4097.8 -2.96881 0.477745 0
M  V30 43530 C 4099.35 -3.1 0.432287 0
M  V30 43531 C 4099.82 -4.4971 0.867465 0
M  V30 43532 N 4101.31 -4.55836 0.822674 0
M  V30 43533 C 4102.05 -5.62134 1.13104 0
M  V30 43534 N 4101.55 -6.76169 1.50888 0
M  V30 43535 N 4103.34 -5.52138 1.05359 0
M  V30 43536 H 4095.49 -1.65216 1.33482 0
M  V30 43537 H 4097.75 -0.775091 0.545836 0
M  V30 43538 H 4097.46 -3.17516 1.5125 0
M  V30 43539 H 4097.33 -3.76963 -0.133675 0
M  V30 43540 H 4099.72 -2.89073 -0.593346 0
M  V30 43541 H 4099.8 -2.31918 1.07925 0
M  V30 43542 H 4099.44 -4.71375 1.89123 0
M  V30 43543 H 4099.37 -5.26229 0.197712 0
M  V30 43544 H 4101.87 -3.73959 0.544369 0
M  V30 43545 H 4102.18 -7.53225 1.72834 0
M  V30 43546 H 4100.52 -6.77551 1.54757 0
M  V30 43547 H 4103.71 -4.61929 0.757568 0
M  V30 43548 H 4103.89 -6.34882 1.29724 0
M  V30 43549 N 4097.29 -0.0986092 -1.57291 0
M  V30 43550 C 4098.54 0.558959 -1.95569 0
M  V30 43551 C 4098.89 1.65574 -0.979952 0
M  V30 43552 O 4098.19 1.91599 -0.0065269 0
M  V30 43553 C 4098.38 1.15607 -3.38186 0
M  V30 43554 C 4098.21 0.118661 -4.49543 0
M  V30 43555 C 4096.98 -0.306076 -5.04372 0
M  V30 43556 C 4099.18 -0.654519 -5.10118 0
M  V30 43557 N 4097.16 -1.33138 -5.99289 0
M  V30 43558 C 4098.53 -1.53156 -6.00785 0
M  V30 43559 C 4100.59 -0.707652 -4.92846 0
M  V30 43560 C 4099.29 -2.45707 -6.76033 0
M  V30 43561 C 4101.32 -1.62078 -5.68757 0
M  V30 43562 C 4100.68 -2.48544 -6.59094 0
M  V30 43563 H 4096.78 0.174766 -0.762221 0
M  V30 43564 H 4099.36 -0.181993 -1.93848 0
M  V30 43565 H 4097.53 1.86682 -3.40594 0
M  V30 43566 H 4099.26 1.77629 -3.63635 0
M  V30 43567 H 4096.02 0.0823539 -4.73528 0
M  V30 43568 H 4096.44 -1.84235 -6.5145 0
M  V30 43569 H 4101.08 -0.0533145 -4.22766 0
M  V30 43570 H 4098.8 -3.12164 -7.45372 0
M  V30 43571 H 4102.39 -1.66707 -5.57405 0
M  V30 43572 H 4101.27 -3.18054 -7.16806 0
M  V30 43573 N 4098.77 1.56624 0.175099 0
M  V30 43574 C 4100.18 1.71498 0.737921 0
M  V30 43575 C 4100.53 0.708507 1.82961 0
M  V30 43576 O 4099.66 -0.130922 2.16004 0
M  V30 43577 C 4100.25 3.10945 1.34531 0
M  V30 43578 C 4098.81 3.27516 1.85499 0
M  V30 43579 C 4097.96 2.6745 0.732517 0
M  V30 43580 H 4100.91 1.5862 -0.0502464 0
M  V30 43581 H 4100.93 3.09386 2.21497 0
M  V30 43582 H 4100.44 3.84175 0.550533 0
M  V30 43583 H 4098.54 2.59236 2.67633 0
M  V30 43584 H 4098.66 4.35219 2.00303 0
M  V30 43585 H 4097.02 2.27159 1.15199 0
M  V30 43586 H 4097.8 3.43263 -0.0503484 0
M  V30 43587 N 4100.25 -0.443523 1.5123 0
M  V30 43588 C 4101.5 -1.19039 1.62827 0
M  V30 43589 C 4101.81 -1.92491 0.347332 0
M  V30 43590 O 4103.02 -2.6933 0.342584 0
M  V30 43591 C 4101.47 -2.16451 2.87536 0
M  V30 43592 C 4101.08 -1.48674 4.22611 0
M  V30 43593 C 4102.83 -2.91608 3.08488 0
M  V30 43594 C 4100.73 -2.44534 5.38476 0
M  V30 43595 H 4099.66 -0.448031 0.606452 0
M  V30 43596 H 4102.31 -0.458034 1.77692 0
M  V30 43597 H 4100.7 -2.93095 2.66292 0
M  V30 43598 H 4101.87 -0.776309 4.54214 0
M  V30 43599 H 4100.18 -0.856935 4.07487 0
M  V30 43600 H 4102.78 -3.63406 3.92225 0
M  V30 43601 H 4103.12 -3.52597 2.21316 0
M  V30 43602 H 4103.66 -2.22073 3.30043 0
M  V30 43603 H 4100.4 -1.88244 6.27889 0
M  V30 43604 H 4099.92 -3.1365 5.11257 0
M  V30 43605 H 4101.6 -3.05794 5.70175 0
M  V30 43606 N 4101.73 -1.41272 -0.698562 0
M  V30 43607 C 4102.67 -1.42885 -1.81253 0
M  V30 43608 C 4103.64 -0.283591 -1.63661 0
M  V30 43609 O 4104.83 -0.484193 -1.84554 0
M  V30 43610 C 4101.97 -1.31387 -3.19111 0
M  V30 43611 C 4101.08 -2.55757 -3.48156 0
M  V30 43612 C 4100.22 -2.36575 -4.75611 0
M  V30 43613 C 4099.26 -3.56436 -4.97614 0
M  V30 43614 N 4098.39 -3.36343 -6.16294 0
M  V30 43615 H 4103.23 -2.38092 -1.7921 0
M  V30 43616 H 4100.77 -1.18232 -0.875192 0
M  V30 43617 H 4102.73 -1.22723 -3.98742 0
M  V30 43618 H 4101.36 -0.397887 -3.20338 0
M  V30 43619 H 4100.41 -2.74882 -2.62952 0
M  V30 43620 H 4101.72 -3.44925 -3.60317 0
M  V30 43621 H 4100.88 -2.25362 -5.63291 0
M  V30 43622 H 4099.62 -1.44859 -4.6569 0
M  V30 43623 H 4098.62 -3.68107 -4.08383 0
M  V30 43624 H 4099.85 -4.49102 -5.09396 0
M  V30 43625 H 4097.79 -2.47324 -6.07591 0
M  V30 43626 H 4097.71 -4.19085 -6.29209 0
M  V30 43627 H 4098.98 -3.28896 -7.06716 0
M  V30 43628 N 4103.21 0.932517 -1.27051 0
M  V30 43629 C 4104.12 2.06593 -1.1116 0
M  V30 43630 C 4105.13 1.73947 -0.0428551 0
M  V30 43631 O 4106.31 1.99863 -0.248361 0
M  V30 43632 C 4103.37 3.38371 -0.755356 0
M  V30 43633 C 4102.43 3.84745 -1.90445 0
M  V30 43634 C 4101.67 5.10235 -1.56511 0
M  V30 43635 O 4101.89 5.68454 -0.470796 0
M  V30 43636 O 4100.82 5.51863 -2.40272 0
M  V30 43637 H 4104.65 2.2291 -2.06264 0
M  V30 43638 H 4102.23 1.05087 -1.06193 0
M  V30 43639 H 4104.12 4.1753 -0.569802 0
M  V30 43640 H 4102.79 3.23273 0.166206 0
M  V30 43641 H 4101.7 3.06495 -2.14503 0
M  V30 43642 H 4103.03 4.04378 -2.80605 0
M  V30 43643 N 4104.68 1.08995 1.13833 0
M  V30 43644 C 4105.91 0.845105 1.89401 0
M  V30 43645 C 4106.33 -0.59761 1.78354 0
M  V30 43646 O 4105.69 -1.4194 1.12796 0
M  V30 43647 C 4105.74 1.27937 3.37142 0
M  V30 43648 O 4104.84 0.435047 4.10099 0
M  V30 43649 H 4104.18 0.306438 0.58906 0
M  V30 43650 H 4106.71 1.45293 1.44052 0
M  V30 43651 H 4106.72 1.26284 3.87964 0
M  V30 43652 H 4105.4 2.33008 3.445 0
M  V30 43653 H 4103.98 0.515512 3.69319 0
M  V30 43654 N 4106.16 -1.30979 0.87649 0
M  V30 43655 C 4107.09 -2.30817 0.352965 0
M  V30 43656 C 4108.07 -1.6063 -0.559647 0
M  V30 43657 O 4109.26 -1.88294 -0.475293 0
M  V30 43658 C 4106.39 -3.44492 -0.440767 0
M  V30 43659 C 4105.34 -4.26316 0.379328 0
M  V30 43660 C 4104.67 -5.31961 -0.540489 0
M  V30 43661 C 4105.97 -4.96642 1.6169 0
M  V30 43662 H 4107.66 -2.74854 1.18724 0
M  V30 43663 H 4105.21 -1.32137 0.572339 0
M  V30 43664 H 4107.16 -4.13393 -0.817588 0
M  V30 43665 H 4105.88 -2.99237 -1.30861 0
M  V30 43666 H 4104.54 -3.59091 0.73818 0
M  V30 43667 H 4104.19 -4.82956 -1.4058 0
M  V30 43668 H 4103.89 -5.876 0.00437462 0
M  V30 43669 H 4105.42 -6.0372 -0.914012 0
M  V30 43670 H 4106.83 -5.58105 1.31115 0
M  V30 43671 H 4105.23 -5.62107 2.10132 0
M  V30 43672 H 4106.3 -4.23254 2.36609 0
M  V30 43673 N 4107.64 -0.636582 -1.44171 0
M  V30 43674 C 4108.59 0.0650751 -2.30708 0
M  V30 43675 C 4109.56 0.831364 -1.43797 0
M  V30 43676 O 4110.74 0.81131 -1.72692 0
M  V30 43677 C 4107.88 1.03697 -3.29152 0
M  V30 43678 C 4106.99 0.268527 -4.31165 0
M  V30 43679 C 4106.13 1.23272 -5.16699 0
M  V30 43680 C 4105.17 0.453757 -6.10416 0
M  V30 43681 N 4104.31 1.36869 -6.8863 0
M  V30 43682 H 4109.15 -0.678795 -2.90166 0
M  V30 43683 H 4106.68 -0.346517 -1.4296 0
M  V30 43684 H 4108.64 1.61388 -3.8472 0
M  V30 43685 H 4107.27 1.7479 -2.71382 0
M  V30 43686 H 4106.32 -0.424405 -3.78025 0
M  V30 43687 H 4107.63 -0.337931 -4.97654 0
M  V30 43688 H 4106.79 1.88081 -5.76811 0
M  V30 43689 H 4105.53 1.8731 -4.50296 0
M  V30 43690 H 4104.53 -0.207779 -5.49407 0
M  V30 43691 H 4105.76 -0.181983 -6.78856 0
M  V30 43692 H 4103.7 1.99618 -6.24891 0
M  V30 43693 H 4103.62 0.816391 -7.51579 0
M  V30 43694 H 4104.89 2.00544 -7.53261 0
M  V30 43695 N 4109.12 1.53013 -0.377462 0
M  V30 43696 C 4110.35 2.05843 0.208908 0
M  V30 43697 C 4110.76 1.2501 1.41485 0
M  V30 43698 O 4110.12 0.293734 1.80121 0
M  V30 43699 C 4110.17 3.56641 0.590715 0
M  V30 43700 O 4109.89 4.34411 -0.567307 0
M  V30 43701 C 4111.39 4.25772 1.23421 0
M  V30 43702 H 4108.61 0.670123 0.0343019 0
M  V30 43703 H 4111.15 1.97262 -0.539269 0
M  V30 43704 H 4109.31 3.65334 1.2888 0
M  V30 43705 H 4109.72 5.23874 -0.256154 0
M  V30 43706 H 4111.2 5.32565 1.45183 0
M  V30 43707 H 4111.67 3.80239 2.19807 0
M  V30 43708 H 4112.28 4.21365 0.577229 0
M  V30 43709 N 4110.6 0.106949 1.57237 0
M  V30 43710 C 4111.53 -0.884629 2.10356 0
M  V30 43711 C 4112.51 -1.26871 1.01698 0
M  V30 43712 O 4113.69 -1.37187 1.29274 0
M  V30 43713 C 4110.82 -2.18219 2.59033 0
M  V30 43714 C 4109.86 -1.94708 3.79461 0
M  V30 43715 S 4110.7 -1.1743 5.22466 0
M  V30 43716 C 4111.85 -2.48391 5.74502 0
M  V30 43717 H 4112.09 -0.432772 2.94133 0
M  V30 43718 H 4109.62 -0.106585 1.54032 0
M  V30 43719 H 4111.58 -2.92778 2.87734 0
M  V30 43720 H 4110.24 -2.60524 1.7546 0
M  V30 43721 H 4109.43 -2.90823 4.11629 0
M  V30 43722 H 4109.03 -1.28274 3.51314 0
M  V30 43723 H 4111.33 -3.44301 5.83492 0
M  V30 43724 H 4112.27 -2.20785 6.728 0
M  V30 43725 H 4112.68 -2.57207 5.02499 0
M  V30 43726 N 4112.07 -1.56715 -0.166791 0
M  V30 43727 C 4113 -1.9979 -1.20857 0
M  V30 43728 C 4113.99 -0.874204 -1.45917 0
M  V30 43729 O 4115.17 -1.14061 -1.57174 0
M  V30 43730 C 4112.3 -2.36165 -2.54644 0
M  V30 43731 C 4111.25 -3.51536 -2.44144 0
M  V30 43732 C 4110.58 -3.73667 -3.82462 0
M  V30 43733 C 4111.88 -4.84842 -1.94231 0
M  V30 43734 H 4113.57 -2.87066 -0.850488 0
M  V30 43735 H 4111.12 -1.38109 -0.407671 0
M  V30 43736 H 4113.07 -2.64897 -3.27731 0
M  V30 43737 H 4111.8 -1.45802 -2.92249 0
M  V30 43738 H 4110.46 -3.22939 -1.73511 0
M  V30 43739 H 4110.1 -2.80587 -4.17468 0
M  V30 43740 H 4109.8 -4.51297 -3.76304 0
M  V30 43741 H 4111.33 -4.04804 -4.57128 0
M  V30 43742 H 4112.74 -5.1242 -2.57096 0
M  V30 43743 H 4111.14 -5.6614 -1.99011 0
M  V30 43744 H 4112.21 -4.76534 -0.896866 0
M  V30 43745 N 4113.55 0.435497 -1.51463 0
M  V30 43746 C 4114.52 1.51126 -1.72318 0
M  V30 43747 C 4115.52 1.49459 -0.593187 0
M  V30 43748 O 4116.71 1.51448 -0.860757 0
M  V30 43749 C 4113.84 2.90657 -1.78132 0
M  V30 43750 H 4115.03 1.33939 -2.68329 0
M  V30 43751 H 4112.58 0.664292 -1.41481 0
M  V30 43752 H 4113.32 3.13248 -0.839422 0
M  V30 43753 H 4113.1 2.93273 -2.60257 0
M  V30 43754 H 4114.59 3.68693 -1.96099 0
M  V30 43755 N 4115.03 1.41641 0.69106 0
M  V30 43756 C 4116.28 1.4245 1.45188 0
M  V30 43757 C 4116.63 0.0343969 1.92369 0
M  V30 43758 O 4115.92 -0.940562 1.66925 0
M  V30 43759 C 4116.12 2.36972 2.67542 0
M  V30 43760 C 4115.95 3.85035 2.32331 0
M  V30 43761 C 4114.72 4.53687 2.22477 0
M  V30 43762 C 4116.92 4.75892 1.95016 0
M  V30 43763 N 4114.9 5.86858 1.80198 0
M  V30 43764 C 4116.27 5.98045 1.63531 0
M  V30 43765 C 4118.32 4.63497 1.81865 0
M  V30 43766 C 4117.03 7.09183 1.20216 0
M  V30 43767 C 4119.05 5.74601 1.39955 0
M  V30 43768 C 4118.41 6.95855 1.09384 0
M  V30 43769 H 4114.51 0.57647 0.5284 0
M  V30 43770 H 4117.1 1.77546 0.799093 0
M  V30 43771 H 4115.27 2.03964 3.30535 0
M  V30 43772 H 4117 2.2847 3.34041 0
M  V30 43773 H 4113.76 4.07684 2.4102 0
M  V30 43774 H 4114.18 6.57448 1.61528 0
M  V30 43775 H 4118.82 3.70245 2.04153 0
M  V30 43776 H 4116.54 8.02297 0.966733 0
M  V30 43777 H 4120.13 5.67016 1.30324 0
M  V30 43778 H 4119.01 7.80367 0.774447 0
M  V30 43779 N 4116.51 -0.925766 1.27543 0
M  V30 43780 C 4117.76 -1.67036 1.1377 0
M  V30 43781 C 4118.08 -1.92413 -0.316569 0
M  V30 43782 O 4117.35 -1.53177 -1.22121 0
M  V30 43783 H 4115.93 -0.619072 0.418041 0
M  V30 43784 H 4118.59 -1.1115 1.60099 0
M  V30 43785 H 4117.69 -2.63774 1.66822 0
M  V30 43786 N 4117.99 -1.09597 -1.13253 0
M  V30 43787 C 4119.23 -0.8442 -1.85054 0
M  V30 43788 C 4119.59 0.623474 -1.82018 0
M  V30 43789 O 4118.88 1.45329 -1.24861 0
M  V30 43790 C 4119.07 -1.31568 -3.32302 0
M  V30 43791 C 4118.9 -2.82765 -3.49677 0
M  V30 43792 C 4117.67 -3.50664 -3.63817 0
M  V30 43793 C 4119.87 -3.809 -3.45571 0
M  V30 43794 N 4117.85 -4.9027 -3.6947 0
M  V30 43795 C 4119.22 -5.06469 -3.57615 0
M  V30 43796 C 4121.28 -3.73731 -3.28983 0
M  V30 43797 C 4119.98 -6.25716 -3.54784 0
M  V30 43798 C 4122.01 -4.92467 -3.2746 0
M  V30 43799 C 4121.37 -6.1688 -3.40057 0
M  V30 43800 H 4117.47 -0.361799 -0.693272 0
M  V30 43801 H 4120.05 -1.39668 -1.3565 0
M  V30 43802 H 4118.22 -0.790622 -3.80268 0
M  V30 43803 H 4119.96 -1.00905 -3.91919 0
M  V30 43804 H 4116.71 -3.01095 -3.65566 0
M  V30 43805 H 4117.14 -5.62997 -3.75984 0
M  V30 43806 H 4121.78 -2.78467 -3.18144 0
M  V30 43807 H 4119.5 -7.21278 -3.64395 0
M  V30 43808 H 4123.08 -4.8862 -3.15819 0
M  V30 43809 H 4121.96 -7.07217 -3.38842 0
M  V30 43810 N 4119.46 1.30512 -0.883424 0
M  V30 43811 C 4120.88 1.48797 -0.577209 0
M  V30 43812 C 4121.08 1.81004 0.88543 0
M  V30 43813 O 4120.14 1.89672 1.66675 0
M  V30 43814 C 4121.45 2.61244 -1.48902 0
M  V30 43815 C 4123 2.75125 -1.49249 0
M  V30 43816 C 4123.47 3.90684 -2.39019 0
M  V30 43817 N 4124.96 3.97992 -2.36974 0
M  V30 43818 C 4125.7 4.86713 -3.03147 0
M  V30 43819 N 4125.19 5.80241 -3.78539 0
M  V30 43820 N 4126.99 4.80069 -2.92386 0
M  V30 43821 H 4119.14 1.07879 -1.82964 0
M  V30 43822 H 4121.4 0.534302 -0.783087 0
M  V30 43823 H 4121.11 2.44262 -2.5304 0
M  V30 43824 H 4120.98 3.57688 -1.19745 0
M  V30 43825 H 4123.37 2.91514 -0.45863 0
M  V30 43826 H 4123.45 1.79307 -1.82436 0
M  V30 43827 H 4123.09 3.75052 -3.42489 0
M  V30 43828 H 4123.02 4.85837 -2.03149 0
M  V30 43829 H 4125.51 3.31085 -1.82185 0
M  V30 43830 H 4125.83 6.44699 -4.26126 0
M  V30 43831 H 4124.17 5.80178 -3.82647 0
M  V30 43832 H 4127.36 4.05982 -2.33015 0
M  V30 43833 H 4127.54 5.49005 -3.44235 0
M  V30 43834 N 4120.94 0.644219 1.43832 0
M  V30 43835 C 4122.19 0.151343 2.01131 0
M  V30 43836 C 4122.5 -1.23887 1.51365 0
M  V30 43837 O 4123.71 -1.82647 2.00879 0
M  V30 43838 C 4122.17 0.219777 3.59228 0
M  V30 43839 C 4121.77 1.61212 4.17989 0
M  V30 43840 C 4123.52 -0.21596 4.2395 0
M  V30 43841 C 4121.43 1.63496 5.68351 0
M  V30 43842 H 4120.36 0.0528152 0.752148 0
M  V30 43843 H 4123.01 0.804936 1.64903 0
M  V30 43844 H 4121.39 -0.50116 3.92816 0
M  V30 43845 H 4122.56 2.35768 3.95917 0
M  V30 43846 H 4120.88 1.99305 3.65604 0
M  V30 43847 H 4123.47 -0.21861 5.34253 0
M  V30 43848 H 4123.82 -1.24574 3.97224 0
M  V30 43849 H 4124.35 0.452922 3.95213 0
M  V30 43850 H 4121.09 2.64353 5.99831 0
M  V30 43851 H 4120.61 0.932514 5.92507 0
M  V30 43852 H 4122.29 1.37469 6.32227 0
M  V30 43853 N 4122.42 -1.52811 0.385571 0
M  V30 43854 C 4123.33 -2.3007 -0.458809 0
M  V30 43855 C 4124.35 -1.36833 -1.07483 0
M  V30 43856 O 4125.52 -1.69901 -1.08145 0
M  V30 43857 C 4122.59 -3.08975 -1.57275 0
M  V30 43858 C 4121.65 -4.17913 -0.982217 0
M  V30 43859 C 4120.88 -4.93046 -2.04307 0
M  V30 43860 O 4121.1 -4.68232 -3.25753 0
M  V30 43861 O 4120.04 -5.78486 -1.66246 0
M  V30 43862 H 4123.86 -3.03221 0.17047 0
M  V30 43863 H 4121.45 -1.48651 0.14939 0
M  V30 43864 H 4123.33 -3.58184 -2.21996 0
M  V30 43865 H 4122.01 -2.3864 -2.18706 0
M  V30 43866 H 4120.91 -3.72908 -0.298363 0
M  V30 43867 H 4122.25 -4.90471 -0.412175 0
M  V30 43868 N 4123.9 -0.115287 -1.57178 0
M  V30 43869 C 4125.31 0.241317 -1.57765 0
M  V30 43870 C 4125.51 1.66983 -1.12778 0
M  V30 43871 O 4124.57 2.39038 -0.813461 0
M  V30 43872 C 4125.88 0.0113762 -3.00698 0
M  V30 43873 C 4127.43 0.0775637 -3.12904 0
M  V30 43874 C 4127.91 -0.124637 -4.5783 0
M  V30 43875 N 4129.4 -0.0704812 -4.63146 0
M  V30 43876 C 4130.13 -0.201891 -5.73044 0
M  V30 43877 N 4129.63 -0.389264 -6.91706 0
M  V30 43878 N 4131.42 -0.141728 -5.61921 0
M  V30 43879 H 4123.57 -1.04839 -1.84723 0
M  V30 43880 H 4125.84 -0.412532 -0.853534 0
M  V30 43881 H 4125.54 -0.976055 -3.37885 0
M  V30 43882 H 4125.42 0.744882 -3.69772 0
M  V30 43883 H 4127.8 1.05552 -2.75577 0
M  V30 43884 H 4127.88 -0.687762 -2.46381 0
M  V30 43885 H 4127.53 -1.09955 -4.95855 0
M  V30 43886 H 4127.46 0.660629 -5.2244 0
M  V30 43887 H 4129.95 0.0709778 -3.77833 0
M  V30 43888 H 4130.26 -0.480501 -7.71305 0
M  V30 43889 H 4128.61 -0.425191 -6.93698 0
M  V30 43890 H 4131.8 0.00366645 -4.681 0
M  V30 43891 H 4131.97 -0.247584 -6.47527 0
M  V30 43892 N 4125.38 1.56801 0.158477 0
M  V30 43893 C 4126.61 1.86863 0.888239 0
M  V30 43894 C 4127.02 0.702172 1.75257 0
M  V30 43895 O 4126.38 -0.3284 1.79521 0
M  V30 43896 C 4126.43 3.16073 1.75442 0
M  V30 43897 O 4126.15 4.28225 0.924944 0
M  V30 43898 C 4127.65 3.59571 2.59275 0
M  V30 43899 H 4124.87 0.619659 0.257418 0
M  V30 43900 H 4127.41 2.03914 0.154714 0
M  V30 43901 H 4125.57 3.00811 2.44114 0
M  V30 43902 H 4125.98 5.02036 1.51854 0
M  V30 43903 H 4127.46 4.52848 3.15647 0
M  V30 43904 H 4127.93 2.84305 3.34765 0
M  V30 43905 H 4128.54 3.77489 1.95914 0
M  V30 43906 N 4126.86 -0.427458 1.51692 0
M  V30 43907 C 4128.27 -0.764702 1.40087 0
M  V30 43908 C 4128.47 -1.95428 0.490951 0
M  V30 43909 O 4127.53 -2.5245 -0.0501793 0
M  V30 43910 C 4128.84 -1.03581 2.82297 0
M  V30 43911 C 4130.39 -1.13965 2.91515 0
M  V30 43912 C 4130.86 -1.44363 4.34653 0
M  V30 43913 N 4132.35 -1.51266 4.37804 0
M  V30 43914 C 4133.09 -1.76378 5.45599 0
M  V30 43915 N 4132.59 -1.99216 6.63539 0
M  V30 43916 N 4134.38 -1.78242 5.33091 0
M  V30 43917 H 4126.53 0.355846 2.09398 0
M  V30 43918 H 4128.79 0.0968391 0.943041 0
M  V30 43919 H 4128.5 -0.234307 3.50919 0
M  V30 43920 H 4128.37 -1.96086 3.22227 0
M  V30 43921 H 4130.76 -1.93176 2.23085 0
M  V30 43922 H 4130.84 -0.193381 2.55068 0
M  V30 43923 H 4130.48 -0.656753 5.03636 0
M  V30 43924 H 4130.41 -2.40212 4.68621 0
M  V30 43925 H 4132.91 -1.35481 3.5278 0
M  V30 43926 H 4133.22 -2.17776 7.41481 0
M  V30 43927 H 4131.56 -1.96518 6.66637 0
M  V30 43928 H 4134.75 -1.59926 4.39933 0
M  V30 43929 H 4134.93 -1.97475 6.17177 0
M  V30 43930 N 4128.33 -1.42005 -0.683539 0
M  V30 43931 C 4129.24 -1.47183 -1.82686 0
M  V30 43932 C 4130.26 -0.361328 -1.70207 0
M  V30 43933 O 4131.44 -0.6109 -1.91911 0
M  V30 43934 C 4128.5 -1.36346 -3.18764 0
M  V30 43935 C 4127.56 -2.57814 -3.43265 0
M  V30 43936 C 4126.79 -2.47484 -4.7285 0
M  V30 43937 O 4127.02 -1.50594 -5.50161 0
M  V30 43938 O 4125.95 -3.37461 -4.98401 0
M  V30 43939 H 4129.78 -2.43666 -1.81274 0
M  V30 43940 H 4127.36 -1.23674 -0.83816 0
M  V30 43941 H 4129.24 -1.32631 -3.99984 0
M  V30 43942 H 4127.92 -0.429837 -3.20833 0
M  V30 43943 H 4126.83 -2.67104 -2.61928 0
M  V30 43944 H 4128.16 -3.50045 -3.46019 0
M  V30 43945 N 4129.81 0.918989 -1.28033 0
M  V30 43946 C 4131.06 1.6643 -1.14654 0
M  V30 43947 C 4131.38 1.92578 0.306361 0
M  V30 43948 O 4130.65 1.53823 1.21307 0
M  V30 43949 H 4129.23 0.616847 -0.421318 0
M  V30 43950 H 4131.89 1.10299 -1.60686 0
M  V30 43951 H 4130.99 2.62885 -1.68219 0
M  V30 43952 N 4131.29 1.10196 1.12671 0
M  V30 43953 C 4132.57 0.755022 1.80441 0
M  V30 43954 C 4132.95 -0.758852 1.96989 0
M  V30 43955 O 4132.29 -1.68418 1.54427 0
M  V30 43956 C 4132.5 1.50323 3.14967 0
M  V30 43957 C 4133.85 1.67415 3.90202 0
M  V30 43958 O 4134.88 1.4664 3.24616 0
M  V30 43959 O 4133.74 2.01842 5.0786 0
M  V30 43960 H 4130.83 0.272122 0.780947 0
M  V30 43961 H 4133.38 1.20463 1.19528 0
M  V30 43962 H 4132.15 2.53365 2.98197 0
M  V30 43963 H 4131.77 1.04632 3.83586 0
M  V30 43964 N 4132.77 -1.30042 0.890333 0
M  V30 43965 C 4133.99 -2.00623 0.525868 0
M  V30 43966 C 4134.42 -1.66263 -0.879681 0
M  V30 43967 O 4133.78 -0.882132 -1.58392 0
M  V30 43968 C 4133.82 -3.53458 0.714108 0
M  V30 43969 O 4132.93 -4.11715 -0.237613 0
M  V30 43970 H 4132.27 -0.63105 0.206571 0
M  V30 43971 H 4134.8 -1.65761 1.19935 0
M  V30 43972 H 4134.81 -4.03336 0.615157 0
M  V30 43973 H 4133.48 -3.77804 1.73887 0
M  V30 43974 H 4132.06 -3.72787 -0.0919067 0
M  V30 43975 N 4134.25 -0.651838 -1.43488 0
M  V30 43976 C 4135.18 0.0903268 -2.28021 0
M  V30 43977 C 4136.16 0.831228 -1.39747 0
M  V30 43978 O 4137.34 0.831082 -1.6919 0
M  V30 43979 C 4134.47 1.1346 -3.19131 0
M  V30 43980 C 4133.51 0.491905 -4.23654 0
M  V30 43981 S 4134.35 -0.733503 -5.30453 0
M  V30 43982 C 4135.5 0.310273 -6.2513 0
M  V30 43983 H 4135.74 -0.626749 -2.90619 0
M  V30 43984 H 4133.27 -0.440633 -1.47979 0
M  V30 43985 H 4135.23 1.7321 -3.72168 0
M  V30 43986 H 4133.89 1.82399 -2.55714 0
M  V30 43987 H 4133.08 1.27908 -4.87499 0
M  V30 43988 H 4132.68 -0.0314431 -3.73987 0
M  V30 43989 H 4134.97 1.17686 -6.672 0
M  V30 43990 H 4135.92 -0.293122 -7.07493 0
M  V30 43991 H 4136.33 0.645461 -5.60798 0
M  V30 43992 N 4135.72 1.52604 -0.39367 0
M  V30 43993 C 4136.69 2.25181 0.427318 0
M  V30 43994 C 4137.69 1.26978 0.986573 0
M  V30 43995 O 4138.88 1.51041 0.867887 0
M  V30 43996 C 4136.01 3.01022 1.59996 0
M  V30 43997 H 4137.2 2.99177 -0.208154 0
M  V30 43998 H 4134.75 1.55618 -0.145871 0
M  V30 43999 H 4135.49 2.31338 2.27274 0
M  V30 44000 H 4135.27 3.73105 1.2056 0
M  V30 44001 H 4136.76 3.56115 2.18109 0
M  V30 44002 N 4137.2 0.12362 1.57114 0
M  V30 44003 C 4138.13 -0.821424 2.18575 0
M  V30 44004 C 4139.11 -1.27397 1.12712 0
M  V30 44005 O 4140.3 -1.33574 1.40966 0
M  V30 44006 C 4137.43 -2.06982 2.78883 0
M  V30 44007 C 4136.38 -1.7549 3.90368 0
M  V30 44008 C 4135.71 -3.07398 4.37505 0
M  V30 44009 C 4137.01 -1.01963 5.12251 0
M  V30 44010 H 4138.7 -0.309266 2.97798 0
M  V30 44011 H 4136.25 -0.147313 1.43245 0
M  V30 44012 H 4138.2 -2.73556 3.20539 0
M  V30 44013 H 4136.92 -2.6053 1.96955 0
M  V30 44014 H 4135.58 -1.11304 3.49295 0
M  V30 44015 H 4135.23 -3.5889 3.5243 0
M  V30 44016 H 4134.93 -2.87099 5.12687 0
M  V30 44017 H 4136.46 -3.75083 4.81815 0
M  V30 44018 H 4137.87 -1.58699 5.50897 0
M  V30 44019 H 4136.27 -0.917422 5.93046 0
M  V30 44020 H 4137.34 -0.00717649 4.84899 0
M  V30 44021 N 4138.68 -1.56883 -0.15016 0
M  V30 44022 C 4139.91 -1.8706 -0.877043 0
M  V30 44023 C 4140.32 -0.709458 -1.75395 0
M  V30 44024 O 4139.66 0.330011 -1.80711 0
M  V30 44025 C 4139.72 -3.11905 -1.78761 0
M  V30 44026 C 4139.39 -4.43855 -1.08818 0
M  V30 44027 C 4140.38 -5.18004 -0.443578 0
M  V30 44028 C 4138.07 -4.90582 -1.07863 0
M  V30 44029 C 4140.06 -6.37082 0.201234 0
M  V30 44030 C 4137.75 -6.09585 -0.430003 0
M  V30 44031 C 4138.75 -6.82681 0.208804 0
M  V30 44032 O 4138.44 -7.99424 0.847152 0
M  V30 44033 H 4138.17 -0.624355 -0.259146 0
M  V30 44034 H 4140.72 -2.04862 -0.148628 0
M  V30 44035 H 4138.95 -2.90104 -2.55688 0
M  V30 44036 H 4140.64 -3.28355 -2.38617 0
M  V30 44037 H 4141.41 -4.82975 -0.442787 0
M  V30 44038 H 4137.29 -4.33613 -1.56526 0
M  V30 44039 H 4140.83 -6.94075 0.700438 0
M  V30 44040 H 4136.73 -6.44077 -0.42845 0
M  V30 44041 H 4137.49 -8.1507 0.748505 0
M  V30 44042 N 4140.16 0.419408 -1.51917 0
M  V30 44043 C 4141.11 1.53087 -1.7512 0
M  V30 44044 C 4142.1 1.57725 -0.617989 0
M  V30 44045 O 4143.31 1.61255 -0.799798 0
M  V30 44046 H 4139.68 0.508932 -0.553618 0
M  V30 44047 H 4141.65 1.30698 -2.68255 0
M  V30 44048 C 4140.4 2.90565 -1.90963 0
M  V30 44049 H 4139.72 2.87735 -2.77576 0
M  V30 44050 H 4141.16 3.67654 -2.11203 0
M  V30 44051 C 4139.62 3.30088 -0.674035 0
M  V30 44052 O 4140.15 4.01369 0.162929 0
M  V30 44053 N 4138.36 2.86038 -0.512908 0
M  V30 44054 H 4137.91 2.282 -1.19509 0
M  V30 44055 H 4137.86 3.12843 0.312534 0
M  V30 44056 N 4141.64 1.42366 0.675998 0
M  V30 44057 C 4143.05 1.25265 0.988979 0
M  V30 44058 C 4143.25 0.155977 2.00895 0
M  V30 44059 O 4142.31 -0.473185 2.48027 0
M  V30 44060 C 4143.62 2.60907 1.49493 0
M  V30 44061 C 4145.17 2.68252 1.61276 0
M  V30 44062 C 4145.64 4.04257 2.15268 0
M  V30 44063 N 4147.14 4.06205 2.22603 0
M  V30 44064 C 4147.87 5.08255 2.65451 0
M  V30 44065 N 4147.37 6.20689 3.0776 0
M  V30 44066 N 4149.16 4.95612 2.65189 0
M  V30 44067 H 4141.31 2.124 0.000660595 0
M  V30 44068 H 4143.57 0.945917 0.0628168 0
M  V30 44069 H 4143.28 3.42008 0.819973 0
M  V30 44070 H 4143.15 2.84744 2.47387 0
M  V30 44071 H 4145.54 1.87497 2.27879 0
M  V30 44072 H 4145.62 2.48204 0.618749 0
M  V30 44073 H 4145.27 4.85468 1.49275 0
M  V30 44074 H 4145.2 4.21656 3.15458 0
M  V30 44075 H 4147.69 3.25036 1.9277 0
M  V30 44076 H 4148 6.9441 3.39138 0
M  V30 44077 H 4146.34 6.24196 3.0562 0
M  V30 44078 H 4149.54 4.0685 2.31496 0
M  V30 44079 H 4149.71 5.75277 2.98262 0
M  V30 44080 N 4143.11 -0.912187 1.28518 0
M  V30 44081 C 4144.34 -1.69521 1.18618 0
M  V30 44082 C 4144.76 -1.87071 -0.254964 0
M  V30 44083 O 4144.11 -1.39882 -1.17215 0
M  V30 44084 C 4144.17 -3.08651 1.88193 0
M  V30 44085 O 4143.89 -2.91912 3.26679 0
M  V30 44086 C 4145.39 -4.03029 1.84614 0
M  V30 44087 H 4142.61 -0.529862 0.411688 0
M  V30 44088 H 4145.15 -1.14159 1.6967 0
M  V30 44089 H 4143.31 -3.60826 1.41007 0
M  V30 44090 H 4143.72 -3.79981 3.61545 0
M  V30 44091 H 4145.19 -4.98112 2.37883 0
M  V30 44092 H 4145.67 -4.31499 0.818863 0
M  V30 44093 H 4146.28 -3.56783 2.31486 0
M  V30 44094 N 4144.59 -1.10792 -1.12085 0
M  V30 44095 C 4146.01 -0.840456 -1.35678 0
M  V30 44096 C 4146.21 0.538245 -1.94178 0
M  V30 44097 O 4145.26 1.29039 -2.17037 0
M  V30 44098 C 4146.58 -1.94313 -2.29484 0
M  V30 44099 C 4148.13 -1.97201 -2.43065 0
M  V30 44100 C 4148.6 -3.06652 -3.40189 0
M  V30 44101 N 4150.09 -3.05983 -3.47748 0
M  V30 44102 C 4150.83 -3.87313 -4.22819 0
M  V30 44103 N 4150.32 -4.78588 -5.00925 0
M  V30 44104 N 4152.12 -3.75516 -4.18263 0
M  V30 44105 H 4144.27 -1.99654 -0.724719 0
M  V30 44106 H 4146.53 -0.867836 -0.381528 0
M  V30 44107 H 4146.24 -2.93566 -1.9368 0
M  V30 44108 H 4146.11 -1.83349 -3.29641 0
M  V30 44109 H 4148.5 -0.985784 -2.78148 0
M  V30 44110 H 4148.58 -2.12241 -1.42784 0
M  V30 44111 H 4148.22 -4.05497 -3.05835 0
M  V30 44112 H 4148.15 -2.88853 -4.40309 0
M  V30 44113 H 4150.64 -2.39847 -2.92031 0
M  V30 44114 H 4150.96 -5.37195 -5.55555 0
M  V30 44115 H 4149.3 -4.82614 -5.00109 0
M  V30 44116 H 4152.49 -3.03558 -3.56329 0
M  V30 44117 H 4152.66 -4.39134 -4.76514 0
M  V30 44118 N 4146.07 1.29568 -0.897217 0
M  V30 44119 C 4147.49 1.48176 -0.592959 0
M  V30 44120 C 4147.69 1.81933 0.866182 0
M  V30 44121 O 4146.74 1.91429 1.64654 0
M  V30 44122 C 4148.06 2.5965 -1.51665 0
M  V30 44123 C 4149.6 2.73527 -1.52158 0
M  V30 44124 C 4150.08 3.88127 -2.43149 0
M  V30 44125 N 4151.57 3.95456 -2.41182 0
M  V30 44126 C 4152.3 4.83471 -3.08292 0
M  V30 44127 N 4151.8 5.76194 -3.84672 0
M  V30 44128 N 4153.59 4.76941 -2.97462 0
M  V30 44129 H 4145.74 1.05932 -1.84098 0
M  V30 44130 H 4148.01 0.525966 -0.78871 0
M  V30 44131 H 4147.71 2.41564 -2.55616 0
M  V30 44132 H 4147.59 3.56398 -1.23532 0
M  V30 44133 H 4149.97 2.91011 -0.489523 0
M  V30 44134 H 4150.06 1.77362 -1.84327 0
M  V30 44135 H 4149.7 3.71398 -3.46447 0
M  V30 44136 H 4149.63 4.83655 -2.08291 0
M  V30 44137 H 4152.12 3.29134 -1.85686 0
M  V30 44138 H 4152.43 6.40143 -4.3294 0
M  V30 44139 H 4150.78 5.76087 -3.88779 0
M  V30 44140 H 4153.97 4.03488 -2.37308 0
M  V30 44141 H 4154.14 5.45323 -3.50038 0
M  V30 44142 N 4147.55 0.659438 1.4314 0
M  V30 44143 C 4148.8 0.172667 2.0096 0
M  V30 44144 C 4149.11 -1.22274 1.52671 0
M  V30 44145 O 4150.32 -1.80506 2.02805 0
M  V30 44146 C 4148.77 0.257865 3.58975 0
M  V30 44147 C 4148.38 1.65636 4.16256 0
M  V30 44148 C 4150.12 -0.170982 4.24156 0
M  V30 44149 C 4148.03 1.69515 5.66585 0
M  V30 44150 H 4146.96 0.0607898 0.751545 0
M  V30 44151 H 4149.61 0.822381 1.6404 0
M  V30 44152 H 4147.99 -0.459469 3.93325 0
M  V30 44153 H 4149.17 2.39954 3.93394 0
M  V30 44154 H 4147.48 2.03172 3.6347 0
M  V30 44155 H 4150.08 -0.161933 5.34455 0
M  V30 44156 H 4150.42 -1.20353 3.98523 0
M  V30 44157 H 4150.96 0.494814 3.94711 0
M  V30 44158 H 4147.7 2.70701 5.96994 0
M  V30 44159 H 4147.22 0.995305 5.91484 0
M  V30 44160 H 4148.89 1.44167 6.30734 0
M  V30 44161 N 4149.03 -1.52393 0.401757 0
M  V30 44162 C 4150.25 -2.06629 -0.178626 0
M  V30 44163 C 4150.68 -1.27051 -1.38707 0
M  V30 44164 O 4150.03 -0.298797 -1.78821 0
M  V30 44165 C 4150.08 -3.56907 -0.514734 0
M  V30 44166 O 4149.19 -3.79808 -1.60685 0
M  V30 44167 H 4148.53 -0.663772 -0.0174167 0
M  V30 44168 H 4151.06 -1.96418 0.572827 0
M  V30 44169 H 4151.07 -4.00562 -0.775484 0
M  V30 44170 H 4149.74 -4.14263 0.368697 0
M  V30 44171 H 4148.32 -3.48037 -1.33884 0
M  V30 44172 N 4150.5 -0.131951 -1.57047 0
M  V30 44173 C 4151.44 0.844137 -2.13089 0
M  V30 44174 C 4152.45 1.22112 -1.07668 0
M  V30 44175 O 4153.64 1.16782 -1.34997 0
M  V30 44176 C 4150.74 2.14197 -2.62627 0
M  V30 44177 C 4149.91 1.93468 -3.92287 0
M  V30 44178 C 4148.97 3.071 -4.27289 0
M  V30 44179 O 4148 2.79447 -4.95881 0
M  V30 44180 N 4149.2 4.3388 -3.85653 0
M  V30 44181 H 4151.96 0.365253 -2.97466 0
M  V30 44182 H 4149.52 0.0520851 -1.61816 0
M  V30 44183 H 4151.52 2.89234 -2.83065 0
M  V30 44184 H 4150.09 2.53394 -1.83058 0
M  V30 44185 H 4149.31 1.02551 -3.80627 0
M  V30 44186 H 4150.59 1.76938 -4.77043 0
M  V30 44187 H 4149.99 4.59218 -3.30356 0
M  V30 44188 H 4148.55 5.05747 -4.11174 0
M  V30 44189 N 4151.98 1.5696 0.141838 0
M  V30 44190 C 4153.21 1.87795 0.86837 0
M  V30 44191 C 4153.63 0.720721 1.74502 0
M  V30 44192 O 4152.98 -0.309341 1.79859 0
M  V30 44193 C 4153.03 3.17916 1.7208 0
M  V30 44194 O 4152.75 4.29182 0.879473 0
M  V30 44195 C 4154.26 3.62301 2.55447 0
M  V30 44196 H 4151.48 0.622354 0.250831 0
M  V30 44197 H 4154.02 2.04067 0.133077 0
M  V30 44198 H 4152.17 3.03383 2.4091 0
M  V30 44199 H 4152.59 5.03619 1.46521 0
M  V30 44200 H 4154.06 4.5617 3.10826 0
M  V30 44201 H 4154.54 2.8784 3.3173 0
M  V30 44202 H 4155.15 3.79545 1.91899 0
M  V30 44203 N 4153.46 -0.411345 1.52137 0
M  V30 44204 C 4154.69 -1.18483 1.70225 0
M  V30 44205 C 4155.11 -1.83577 0.409998 0
M  V30 44206 O 4154.47 -1.69915 -0.632336 0
M  V30 44207 C 4154.52 -2.2253 2.83748 0
M  V30 44208 O 4153.62 -3.28621 2.49162 0
M  V30 44209 H 4152.96 -0.345968 0.566747 0
M  V30 44210 H 4155.49 -0.482491 1.9883 0
M  V30 44211 H 4155.5 -2.66895 3.08595 0
M  V30 44212 H 4154.18 -1.74534 3.77506 0
M  V30 44213 H 4152.75 -2.8955 2.34979 0
M  V30 44214 N 4154.94 -1.42722 -0.668439 0
M  V30 44215 C 4155.87 -1.42651 -1.79397 0
M  V30 44216 C 4156.88 -0.324692 -1.59529 0
M  V30 44217 O 4158.07 -0.588182 -1.68531 0
M  V30 44218 C 4155.17 -1.20903 -3.166 0
M  V30 44219 C 4154.35 -2.43639 -3.63261 0
M  V30 44220 C 4153.41 -2.17341 -4.79217 0
M  V30 44221 O 4152.43 -2.90588 -4.89436 0
M  V30 44222 N 4153.63 -1.18051 -5.6837 0
M  V30 44223 H 4156.4 -2.39669 -1.79941 0
M  V30 44224 H 4153.96 -1.37683 -0.851755 0
M  V30 44225 H 4155.95 -1.01217 -3.91838 0
M  V30 44226 H 4154.52 -0.323861 -3.10918 0
M  V30 44227 H 4153.74 -2.7885 -2.78633 0
M  V30 44228 H 4155.03 -3.25354 -3.9118 0
M  V30 44229 H 4154.43 -0.574824 -5.62772 0
M  V30 44230 H 4152.98 -1.04351 -6.43393 0
M  V30 44231 N 4156.42 0.905358 -1.29 0
M  V30 44232 C 4157.66 1.65777 -1.16816 0
M  V30 44233 C 4158 1.92158 0.280902 0
M  V30 44234 O 4157.27 1.52796 1.20348 0
M  V30 44235 C 4157.55 3.01043 -1.97598 0
M  V30 44236 C 4157.41 2.81764 -3.50613 0
M  V30 44237 C 4158.73 4.01699 -1.79795 0
M  V30 44238 H 4155.85 0.601603 -0.425727 0
M  V30 44239 H 4158.49 1.0491 -1.5841 0
M  V30 44240 H 4156.64 3.52996 -1.62253 0
M  V30 44241 H 4158.31 2.36756 -3.95909 0
M  V30 44242 H 4156.55 2.16657 -3.75822 0
M  V30 44243 H 4157.22 3.77858 -4.02402 0
M  V30 44244 H 4159.7 3.58836 -2.10656 0
M  V30 44245 H 4158.58 4.94292 -2.38676 0
M  V30 44246 H 4158.84 4.35664 -0.751636 0
M  V30 44247 N 4157.9 1.11385 1.11495 0
M  V30 44248 C 4159.12 0.885089 1.87566 0
M  V30 44249 C 4159.55 -0.559644 1.79582 0
M  V30 44250 O 4158.9 -1.39515 1.15781 0
M  V30 44251 C 4158.95 1.35059 3.34352 0
M  V30 44252 O 4158.06 0.521937 4.09084 0
M  V30 44253 H 4157.4 0.318864 0.582428 0
M  V30 44254 H 4159.93 1.48316 1.40938 0
M  V30 44255 H 4159.94 1.34485 3.85198 0
M  V30 44256 H 4158.61 2.40263 3.3948 0
M  V30 44257 H 4157.19 0.593734 3.68143 0
M  V30 44258 N 4159.37 -1.2909 0.904076 0
M  V30 44259 C 4160.62 -1.9567 0.533026 0
M  V30 44260 C 4160.95 -1.7107 -0.919164 0
M  V30 44261 O 4160.23 -1.02615 -1.65228 0
M  V30 44262 C 4160.51 -3.50373 0.831313 0
M  V30 44263 C 4160.36 -3.84413 2.33553 0
M  V30 44264 C 4161.68 -4.38929 0.320801 0
M  V30 44265 H 4158.8 -0.710699 0.19513 0
M  V30 44266 H 4161.44 -1.5263 1.13156 0
M  V30 44267 H 4159.59 -3.87164 0.321921 0
M  V30 44268 H 4161.27 -3.57544 2.9148 0
M  V30 44269 H 4159.51 -3.318 2.79448 0
M  V30 44270 H 4160.18 -4.92406 2.4948 0
M  V30 44271 H 4162.66 -4.09155 0.757046 0
M  V30 44272 H 4161.53 -5.46049 0.558676 0
M  V30 44273 H 4161.79 -4.35189 -0.778622 0
M  V30 44274 N 4160.85 -0.66702 -1.42789 0
M  V30 44275 C 4162.13 -0.115364 -1.95259 0
M  V30 44276 C 4162.51 1.36798 -1.60778 0
M  V30 44277 O 4161.86 2.10032 -0.899934 0
M  V30 44278 C 4162.07 -0.376236 -3.46966 0
M  V30 44279 C 4163.41 -0.288564 -4.23618 0
M  V30 44280 O 4164.44 -0.309552 -3.54852 0
M  V30 44281 O 4163.3 -0.224078 -5.4604 0
M  V30 44282 H 4160.39 0.00164251 -0.826998 0
M  V30 44283 H 4162.94 -0.741212 -1.52657 0
M  V30 44284 H 4161.71 -1.4041 -3.65241 0
M  V30 44285 H 4161.33 0.282004 -3.96599 0
M  V30 44286 N 4162.33 1.52178 -0.409833 0
M  V30 44287 C 4163.29 2.25622 0.403411 0
M  V30 44288 C 4164.29 1.28017 0.97305 0
M  V30 44289 O 4165.48 1.51953 0.851818 0
M  V30 44290 C 4162.61 3.02702 1.56794 0
M  V30 44291 H 4163.81 2.98939 -0.239874 0
M  V30 44292 H 4161.36 1.55454 -0.162368 0
M  V30 44293 H 4162.1 2.33735 2.24807 0
M  V30 44294 H 4161.88 3.74363 1.16596 0
M  V30 44295 H 4163.37 3.58409 2.1432 0
M  V30 44296 N 4163.81 0.140278 1.56974 0
M  V30 44297 C 4164.77 -0.787802 2.15235 0
M  V30 44298 C 4165.77 -1.17992 1.09245 0
M  V30 44299 O 4166.96 -1.10195 1.34918 0
M  V30 44300 C 4164.09 -2.06816 2.70998 0
M  V30 44301 H 4165.29 -0.281113 2.9858 0
M  V30 44302 H 4162.84 -0.109123 1.55919 0
M  V30 44303 H 4163.57 -2.61867 1.91301 0
M  V30 44304 H 4163.36 -1.79627 3.48535 0
M  V30 44305 H 4164.85 -2.73115 3.15908 0
M  V30 44306 N 4165.29 -1.57033 -0.133512 0
M  V30 44307 C 4166.24 -1.95696 -1.16992 0
M  V30 44308 C 4167.22 -0.829975 -1.37841 0
M  V30 44309 O 4168.41 -1.09356 -1.39177 0
M  V30 44310 C 4165.54 -2.35254 -2.50021 0
M  V30 44311 C 4164.63 -3.54554 -2.32707 0
M  V30 44312 N 4165.02 -4.70685 -1.85175 0
M  V30 44313 C 4163.32 -3.59902 -2.63413 0
M  V30 44314 C 4164.02 -5.5275 -1.81225 0
M  V30 44315 N 4162.99 -4.94833 -2.25037 0
M  V30 44316 H 4166.79 -2.82951 -0.79473 0
M  V30 44317 H 4164.31 -1.5877 -0.341425 0
M  V30 44318 H 4166.31 -2.61163 -3.2496 0
M  V30 44319 H 4164.97 -1.49357 -2.8831 0
M  V30 44320 H 4165.98 -4.94181 -1.54937 0
M  V30 44321 H 4162.65 -2.84578 -3.05486 0
M  V30 44322 H 4164.04 -6.55878 -1.45853 0
M  V30 44323 N 4166.76 0.403271 -1.52353 0
M  V30 44324 C 4168.01 1.14741 -1.6637 0
M  V30 44325 C 4168.33 1.90876 -0.398933 0
M  V30 44326 O 4167.6 1.86919 0.586339 0
M  V30 44327 H 4166.18 0.42656 -0.613234 0
M  V30 44328 H 4168.84 0.459042 -1.89417 0
M  V30 44329 H 4167.94 1.85824 -2.50751 0
M  V30 44330 N 4168.24 1.43075 0.66086 0
M  V30 44331 C 4169.47 1.47498 1.44665 0
M  V30 44332 C 4169.88 0.0890648 1.8899 0
M  V30 44333 O 4169.22 -0.909432 1.59609 0
M  V30 44334 C 4169.28 2.35176 2.71905 0
M  V30 44335 C 4168.95 3.82837 2.49569 0
M  V30 44336 C 4169.95 4.7414 2.13278 0
M  V30 44337 C 4167.63 4.27248 2.6413 0
M  V30 44338 C 4169.62 6.07847 1.91835 0
M  V30 44339 C 4167.31 5.6101 2.42303 0
M  V30 44340 C 4168.31 6.51127 2.0621 0
M  V30 44341 O 4168 7.82417 1.84605 0
M  V30 44342 H 4167.73 0.50342 0.451159 0
M  V30 44343 H 4170.28 1.88401 0.818187 0
M  V30 44344 H 4168.51 1.89147 3.37284 0
M  V30 44345 H 4170.2 2.30891 3.33832 0
M  V30 44346 H 4170.97 4.4111 2.01611 0
M  V30 44347 H 4166.85 3.57385 2.912 0
M  V30 44348 H 4170.39 6.78148 1.63587 0
M  V30 44349 H 4166.29 5.9361 2.5357 0
M  V30 44350 H 4167.06 7.93917 1.99092 0
M  V30 44351 N 4169.72 -0.898504 1.29478 0
M  V30 44352 C 4170.95 -1.68781 1.20532 0
M  V30 44353 C 4171.37 -1.86682 -0.230503 0
M  V30 44354 O 4170.73 -1.388 -1.16637 0
M  V30 44355 C 4170.78 -3.04916 1.92507 0
M  V30 44356 O 4169.88 -3.93224 1.24292 0
M  V30 44357 H 4169.22 -0.516246 0.417595 0
M  V30 44358 H 4171.75 -1.12237 1.71068 0
M  V30 44359 H 4171.76 -3.5505 2.01007 0
M  V30 44360 H 4170.44 -2.91204 2.96939 0
M  V30 44361 H 4169.01 -3.51659 1.24058 0
M  V30 44362 N 4171.2 -1.11974 -1.10903 0
M  V30 44363 C 4172.61 -0.88722 -1.64272 0
M  V30 44364 C 4172.96 0.579427 -1.87449 0
M  V30 44365 O 4172.09 1.44278 -1.61285 0
M  V30 44366 C 4172.68 -1.60405 -2.98422 0
M  V30 44367 C 4171.24 -1.41781 -3.48676 0
M  V30 44368 C 4170.39 -1.6431 -2.23377 0
M  V30 44369 H 4173.34 -1.2752 -0.944681 0
M  V30 44370 H 4173.36 -1.05228 -3.6566 0
M  V30 44371 H 4172.87 -2.67147 -2.81521 0
M  V30 44372 H 4170.97 -0.372737 -3.70731 0
M  V30 44373 H 4171.08 -2.17065 -4.27106 0
M  V30 44374 H 4169.45 -1.06687 -2.31279 0
M  V30 44375 H 4170.23 -2.72339 -2.09013 0
M  V30 44376 N 4172.68 1.28609 -0.910909 0
M  V30 44377 C 4174.09 1.47539 -0.608641 0
M  V30 44378 C 4174.29 1.82841 0.846837 0
M  V30 44379 O 4173.35 1.93165 1.62615 0
M  V30 44380 C 4174.66 2.58027 -1.5441 0
M  V30 44381 C 4176.21 2.71897 -1.55051 0
M  V30 44382 C 4176.68 3.85526 -2.47252 0
M  V30 44383 N 4178.18 3.92876 -2.45363 0
M  V30 44384 C 4178.91 4.80173 -3.13402 0
M  V30 44385 N 4178.41 5.72082 -3.90762 0
M  V30 44386 N 4180.2 4.73759 -3.02504 0
M  V30 44387 H 4172.35 1.03973 -1.85212 0
M  V30 44388 H 4174.61 0.517571 -0.794245 0
M  V30 44389 H 4174.32 2.38839 -2.58164 0
M  V30 44390 H 4174.19 3.55068 -1.27305 0
M  V30 44391 H 4176.58 2.90476 -0.520362 0
M  V30 44392 H 4176.66 1.75397 -1.86198 0
M  V30 44393 H 4176.31 3.67703 -3.50367 0
M  V30 44394 H 4176.24 4.81419 -2.13409 0
M  V30 44395 H 4178.73 3.27146 -1.89167 0
M  V30 44396 H 4179.04 6.35515 -4.39705 0
M  V30 44397 H 4177.38 5.71931 -3.94867 0
M  V30 44398 H 4180.58 4.00948 -2.41574 0
M  V30 44399 H 4180.75 5.4158 -3.55803 0
M  V30 44400 N 4174.15 0.674583 1.42433 0
M  V30 44401 C 4175.12 0.00531092 2.29199 0
M  V30 44402 C 4176.12 -0.72922 1.43314 0
M  V30 44403 O 4177.31 -0.567255 1.64705 0
M  V30 44404 C 4174.44 -1.00314 3.25807 0
M  V30 44405 H 4175.63 0.769005 2.89873 0
M  V30 44406 H 4173.19 0.436924 1.50069 0
M  V30 44407 H 4173.92 -1.79533 2.70071 0
M  V30 44408 H 4173.71 -0.479834 3.89153 0
M  V30 44409 H 4175.2 -1.46986 3.90877 0
M  V30 44410 N 4175.63 -1.51958 0.417898 0
M  V30 44411 C 4176.88 -2.01093 -0.156415 0
M  V30 44412 C 4177.19 -1.30756 -1.45473 0
M  V30 44413 O 4178.4 -1.70753 -2.11082 0
M  V30 44414 C 4176.86 -3.5839 -0.329303 0
M  V30 44415 C 4176.46 -4.3765 0.957431 0
M  V30 44416 C 4178.21 -4.1573 -0.858433 0
M  V30 44417 C 4176.12 -5.86609 0.751252 0
M  V30 44418 H 4175.05 -0.751428 -0.0622295 0
M  V30 44419 H 4177.7 -1.7523 0.544687 0
M  V30 44420 H 4176.08 -3.80619 -1.09295 0
M  V30 44421 H 4177.25 -4.27177 1.7279 0
M  V30 44422 H 4175.57 -3.9167 1.41363 0
M  V30 44423 H 4178.16 -5.24708 -1.02886 0
M  V30 44424 H 4178.51 -3.73648 -1.83556 0
M  V30 44425 H 4179.04 -3.97503 -0.153618 0
M  V30 44426 H 4175.78 -6.33067 1.70019 0
M  V30 44427 H 4175.3 -5.99797 0.0202341 0
M  V30 44428 H 4176.98 -6.45782 0.396837 0
M  V30 44429 N 4177.11 -0.1486 -1.56898 0
M  V30 44430 C 4178.39 0.54726 -1.87788 0
M  V30 44431 C 4178.77 1.82857 -1.05482 0
M  V30 44432 O 4178.12 2.28058 -0.142095 0
M  V30 44433 C 4178.33 0.811163 -3.39442 0
M  V30 44434 C 4179.67 1.15123 -4.08695 0
M  V30 44435 O 4180.7 0.900463 -3.4463 0
M  V30 44436 O 4179.56 1.62321 -5.21837 0
M  V30 44437 H 4176.65 0.279354 -0.77839 0
M  V30 44438 H 4179.2 -0.185332 -1.68685 0
M  V30 44439 H 4177.97 -0.0955843 -3.91183 0
M  V30 44440 H 4177.59 1.59788 -3.64079 0
M  V30 44441 N 4178.59 1.57102 0.125182 0
M  V30 44442 C 4179.52 1.95079 1.18403 0
M  V30 44443 C 4180.5 0.819586 1.40433 0
M  V30 44444 O 4181.68 1.0772 1.54689 0
M  V30 44445 C 4178.81 2.24168 2.53902 0
M  V30 44446 C 4177.86 3.46744 2.48337 0
M  V30 44447 S 4178.69 4.99549 1.92903 0
M  V30 44448 C 4179.85 5.31783 3.30087 0
M  V30 44449 H 4180.08 2.84585 0.860141 0
M  V30 44450 H 4177.61 1.50795 0.331692 0
M  V30 44451 H 4179.57 2.41606 3.31869 0
M  V30 44452 H 4178.23 1.35287 2.83472 0
M  V30 44453 H 4177.42 3.64443 3.48134 0
M  V30 44454 H 4177.03 3.28661 1.78489 0
M  V30 44455 H 4179.32 5.26587 4.26278 0
M  V30 44456 H 4180.26 6.33069 3.1722 0
M  V30 44457 H 4180.67 4.59266 3.2823 0
M  V30 44458 N 4180.07 -0.395186 1.52565 0
M  V30 44459 C 4181.29 -1.16671 1.71472 0
M  V30 44460 C 4181.72 -1.83132 0.429446 0
M  V30 44461 O 4181.07 -1.70576 -0.614279 0
M  V30 44462 C 4181.12 -2.19508 2.86092 0
M  V30 44463 O 4180.23 -3.2596 2.52634 0
M  V30 44464 H 4179.57 -0.339937 0.570385 0
M  V30 44465 H 4182.1 -0.461376 1.9933 0
M  V30 44466 H 4182.11 -2.63607 3.11409 0
M  V30 44467 H 4180.78 -1.7052 3.79336 0
M  V30 44468 H 4179.36 -2.87042 2.38037 0
M  V30 44469 N 4181.54 -1.43423 -0.653263 0
M  V30 44470 C 4182.49 -1.48846 -1.78739 0
M  V30 44471 C 4183.49 -0.362064 -1.65486 0
M  V30 44472 O 4184.69 -0.536053 -1.71833 0
M  V30 44473 H 4181.07 -0.466625 -0.589716 0
M  V30 44474 H 4183.04 -2.44343 -1.71286 0
M  V30 44475 C 4181.79 -1.42855 -3.16998 0
M  V30 44476 H 4181.11 -2.28834 -3.27834 0
M  V30 44477 H 4182.55 -1.50711 -3.96311 0
M  V30 44478 C 4181.01 -0.146152 -3.36583 0
M  V30 44479 O 4181.54 0.792561 -3.93804 0
M  V30 44480 N 4179.75 -0.0563587 -2.90545 0
M  V30 44481 H 4179.29 -0.821063 -2.44165 0
M  V30 44482 H 4179.25 0.800982 -3.04026 0
M  V30 44483 N 4183.02 0.891625 -1.29953 0
M  V30 44484 C 4184.27 1.64528 -1.18567 0
M  V30 44485 C 4184.6 1.92445 0.260506 0
M  V30 44486 O 4183.88 1.54064 1.1872 0
M  V30 44487 C 4184.16 2.98931 -2.0078 0
M  V30 44488 C 4184.01 2.78029 -3.53582 0
M  V30 44489 C 4185.33 3.99769 -1.84045 0
M  V30 44490 H 4182.45 0.597053 -0.432084 0
M  V30 44491 H 4185.09 1.03224 -1.59514 0
M  V30 44492 H 4183.24 3.51255 -1.65987 0
M  V30 44493 H 4184.91 2.32543 -3.98398 0
M  V30 44494 H 4183.16 2.12658 -3.78099 0
M  V30 44495 H 4183.83 3.73568 -4.06387 0
M  V30 44496 H 4186.3 3.56582 -2.1445 0
M  V30 44497 H 4185.18 4.91733 -2.43905 0
M  V30 44498 H 4185.44 4.34842 -0.797802 0
M  V30 44499 N 4184.5 1.12561 1.10308 0
M  V30 44500 C 4185.73 0.904613 1.86076 0
M  V30 44501 C 4186.14 -0.546193 1.80727 0
M  V30 44502 O 4185.5 -1.37768 1.19692 0
M  V30 44503 C 4185.55 1.37274 3.34422 0
M  V30 44504 O 4185.27 2.76667 3.39686 0
M  V30 44505 C 4186.77 1.18886 4.27061 0
M  V30 44506 H 4183.99 0.32317 0.588049 0
M  V30 44507 H 4186.54 1.4959 1.39438 0
M  V30 44508 H 4184.69 0.824645 3.78521 0
M  V30 44509 H 4185.11 2.9724 4.32144 0
M  V30 44510 H 4186.58 1.56527 5.29342 0
M  V30 44511 H 4187.06 0.129579 4.39009 0
M  V30 44512 H 4187.66 1.72452 3.88768 0
M  V30 44513 N 4185.98 -1.28124 0.917717 0
M  V30 44514 C 4186.91 -2.29577 0.426219 0
M  V30 44515 C 4187.89 -1.62329 -0.50826 0
M  V30 44516 O 4189.08 -1.89711 -0.415148 0
M  V30 44517 C 4186.21 -3.4572 -0.330946 0
M  V30 44518 C 4185.16 -4.24893 0.514765 0
M  V30 44519 C 4184.49 -5.33412 -0.370976 0
M  V30 44520 C 4185.79 -4.91247 1.77409 0
M  V30 44521 H 4187.48 -2.70938 1.27408 0
M  V30 44522 H 4185.03 -1.3025 0.614088 0
M  V30 44523 H 4186.98 -4.15784 -0.685657 0
M  V30 44524 H 4185.7 -3.03249 -1.21275 0
M  V30 44525 H 4184.36 -3.56561 0.852048 0
M  V30 44526 H 4184.01 -4.87184 -1.25144 0
M  V30 44527 H 4183.71 -5.87288 0.191313 0
M  V30 44528 H 4185.23 -6.06323 -0.72148 0
M  V30 44529 H 4186.65 -5.53652 1.48804 0
M  V30 44530 H 4185.04 -5.55137 2.27909 0
M  V30 44531 H 4186.11 -4.15512 2.49955 0
M  V30 44532 N 4187.46 -0.682127 -1.42073 0
M  V30 44533 C 4188.68 -0.214524 -2.06288 0
M  V30 44534 C 4189.11 1.12239 -1.50944 0
M  V30 44535 O 4188.47 1.69969 -0.63089 0
M  V30 44536 C 4188.51 -0.168052 -3.60208 0
M  V30 44537 O 4187.62 0.86122 -4.03307 0
M  V30 44538 H 4186.96 -0.10816 -0.655132 0
M  V30 44539 H 4189.49 -0.933203 -1.82078 0
M  V30 44540 H 4189.5 0.00562867 -4.08 0
M  V30 44541 H 4188.17 -1.14385 -3.99861 0
M  V30 44542 H 4186.75 0.657985 -3.67049 0
M  V30 44543 N 4188.94 1.51735 -0.425951 0
M  V30 44544 C 4190.35 1.59411 -0.0776574 0
M  V30 44545 C 4190.55 1.43769 1.41183 0
M  V30 44546 O 4189.61 1.27314 2.18053 0
M  V30 44547 C 4190.92 2.94903 -0.587602 0
M  V30 44548 C 4192.47 3.08182 -0.547044 0
M  V30 44549 C 4192.94 4.46181 -1.03377 0
M  V30 44550 N 4194.43 4.52468 -0.991288 0
M  V30 44551 C 4195.17 5.57549 -1.3389 0
M  V30 44552 N 4194.67 6.70103 -1.75879 0
M  V30 44553 N 4196.46 5.47847 -1.25779 0
M  V30 44554 H 4188.61 1.60148 -1.39522 0
M  V30 44555 H 4190.87 0.754299 -0.574227 0
M  V30 44556 H 4190.58 3.11683 -1.62931 0
M  V30 44557 H 4190.45 3.77199 -0.0063247 0
M  V30 44558 H 4192.84 2.91076 0.48565 0
M  V30 44559 H 4192.92 2.27752 -1.16458 0
M  V30 44560 H 4192.56 4.64032 -2.06488 0
M  V30 44561 H 4192.49 5.25132 -0.392882 0
M  V30 44562 H 4194.99 3.71681 -0.682786 0
M  V30 44563 H 4195.3 7.46292 -2.0067 0
M  V30 44564 H 4193.64 6.71341 -1.79797 0
M  V30 44565 H 4196.83 4.58799 -0.928488 0
M  V30 44566 H 4197.01 6.2963 -1.53198 0
M  V30 44567 N 4190.41 0.156919 1.56817 0
M  V30 44568 C 4191.69 -0.537293 1.88076 0
M  V30 44569 C 4192.07 -1.82295 1.0645 0
M  V30 44570 O 4191.42 -2.27979 0.154187 0
M  V30 44571 C 4191.63 -0.79315 3.39868 0
M  V30 44572 C 4192.98 -1.12954 4.093 0
M  V30 44573 O 4194 -0.882174 3.45103 0
M  V30 44574 O 4192.86 -1.59552 5.22691 0
M  V30 44575 H 4189.95 -0.275222 0.77986 0
M  V30 44576 H 4192.5 0.194275 1.68584 0
M  V30 44577 H 4191.27 0.116328 3.91127 0
M  V30 44578 H 4190.89 -1.57855 3.64921 0
M  V30 44579 N 4191.89 -1.57166 -0.116849 0
M  V30 44580 C 4192.82 -2.03533 -1.1444 0
M  V30 44581 C 4193.8 -0.920184 -1.43062 0
M  V30 44582 O 4194.99 -1.19004 -1.53466 0
M  V30 44583 C 4192.12 -2.44147 -2.47001 0
M  V30 44584 C 4191.07 -3.59125 -2.32837 0
M  V30 44585 C 4190.4 -3.85645 -3.70381 0
M  V30 44586 C 4191.7 -4.90776 -1.78708 0
M  V30 44587 H 4193.39 -2.89627 -0.75873 0
M  V30 44588 H 4190.94 -1.39336 -0.363527 0
M  V30 44589 H 4192.89 -2.75189 -3.19138 0
M  V30 44590 H 4191.61 -1.55026 -2.87462 0
M  V30 44591 H 4190.27 -3.28296 -1.63149 0
M  V30 44592 H 4189.92 -2.93727 -4.0833 0
M  V30 44593 H 4189.62 -4.6304 -3.61756 0
M  V30 44594 H 4191.15 -4.19142 -4.44019 0
M  V30 44595 H 4192.56 -5.2034 -2.40664 0
M  V30 44596 H 4190.96 -5.72185 -1.80899 0
M  V30 44597 H 4192.03 -4.79146 -0.744807 0
M  V30 44598 N 4193.37 0.38709 -1.52772 0
M  V30 44599 C 4194.32 1.47257 -1.74067 0
M  V30 44600 C 4195.3 1.49503 -0.594781 0
M  V30 44601 O 4196.5 1.55107 -0.852684 0
M  V30 44602 C 4193.62 2.84948 -1.91467 0
M  V30 44603 C 4192.71 2.87264 -3.11994 0
M  V30 44604 N 4193.1 2.59249 -4.34308 0
M  V30 44605 C 4191.4 3.18431 -3.12278 0
M  V30 44606 C 4192.1 2.68697 -5.15924 0
M  V30 44607 N 4191.08 3.02508 -4.51653 0
M  V30 44608 H 4194.88 1.24426 -2.66262 0
M  V30 44609 H 4192.39 0.59506 -1.51105 0
M  V30 44610 H 4194.39 3.63104 -2.04845 0
M  V30 44611 H 4193.05 3.0876 -1.00487 0
M  V30 44612 H 4194.06 2.33235 -4.62409 0
M  V30 44613 H 4190.74 3.47696 -2.31114 0
M  V30 44614 H 4192.13 2.50565 -6.23431 0
M  V30 44615 N 4194.85 1.43768 0.645648 0
M  V30 44616 C 4195.81 1.49174 1.74011 0
M  V30 44617 C 4196.81 0.375504 1.56354 0
M  V30 44618 O 4198 0.637558 1.62114 0
M  V30 44619 C 4195.13 1.35166 3.12958 0
M  V30 44620 H 4196.33 2.46652 1.70596 0
M  V30 44621 H 4193.88 1.30645 0.857996 0
M  V30 44622 H 4194.61 0.387256 3.2198 0
M  V30 44623 H 4194.4 2.16092 3.2718 0
M  V30 44624 H 4195.89 1.41898 3.92753 0
M  V30 44625 N 4196.33 -0.884721 1.30424 0
M  V30 44626 C 4197.26 -1.99299 1.11154 0
M  V30 44627 C 4198.24 -1.62589 0.0191127 0
M  V30 44628 O 4199.42 -1.87707 0.172715 0
M  V30 44629 C 4196.55 -3.31486 0.6953 0
M  V30 44630 C 4195.59 -3.87183 1.78863 0
M  V30 44631 S 4196.43 -4.14446 3.39109 0
M  V30 44632 C 4197.58 -5.49652 2.99388 0
M  V30 44633 H 4197.82 -2.15339 2.04979 0
M  V30 44634 H 4195.35 -1.03314 1.14741 0
M  V30 44635 H 4197.31 -4.07893 0.461878 0
M  V30 44636 H 4195.97 -3.13303 -0.223592 0
M  V30 44637 H 4195.16 -4.82701 1.44967 0
M  V30 44638 H 4194.76 -3.17516 1.97634 0
M  V30 44639 H 4197.05 -6.30727 2.47364 0
M  V30 44640 H 4198 -5.88486 3.93815 0
M  V30 44641 H 4198.41 -5.12224 2.37248 0
M  V30 44642 N 4197.8 -1.13144 -1.09709 0
M  V30 44643 C 4198.77 -0.809152 -2.14442 0
M  V30 44644 C 4199.77 0.180022 -1.59789 0
M  V30 44645 O 4200.96 -0.0466992 -1.74137 0
M  V30 44646 C 4198.09 -0.203774 -3.4029 0
M  V30 44647 H 4199.28 -1.73718 -2.44463 0
M  V30 44648 H 4196.83 -0.935685 -1.25198 0
M  V30 44649 H 4197.57 0.733611 -3.15893 0
M  V30 44650 H 4197.35 -0.91607 -3.81249 0
M  V30 44651 H 4198.84 0.00496511 -4.176 0
M  V30 44652 N 4199.28 1.27635 -0.924498 0
M  V30 44653 C 4200.19 2.30688 -0.42662 0
M  V30 44654 C 4201.21 1.66926 0.491105 0
M  V30 44655 O 4202.38 1.97884 0.374689 0
M  V30 44656 C 4199.45 3.45261 0.31552 0
M  V30 44657 C 4198.51 4.24552 -0.63673 0
M  V30 44658 C 4197.74 5.33654 0.0700869 0
M  V30 44659 O 4197.97 5.55621 1.29001 0
M  V30 44660 O 4196.9 5.98901 -0.600103 0
M  V30 44661 H 4200.73 2.75305 -1.28221 0
M  V30 44662 H 4198.31 1.32526 -0.689722 0
M  V30 44663 H 4200.19 4.14954 0.734242 0
M  V30 44664 H 4198.87 3.02706 1.14677 0
M  V30 44665 H 4197.78 3.57406 -1.10507 0
M  V30 44666 H 4199.11 4.70814 -1.43511 0
M  V30 44667 N 4200.76 0.689652 1.41709 0
M  V30 44668 C 4201.69 -0.0298393 2.2818 0
M  V30 44669 C 4202.67 -0.793884 1.41902 0
M  V30 44670 O 4203.86 -0.785932 1.71334 0
M  V30 44671 C 4200.98 -1.04959 3.22027 0
M  V30 44672 C 4200.03 -0.379408 4.24809 0
M  V30 44673 S 4200.86 0.873885 5.28321 0
M  V30 44674 C 4202.02 -0.144422 6.25733 0
M  V30 44675 H 4202.25 0.703581 2.88855 0
M  V30 44676 H 4199.78 0.479712 1.46759 0
M  V30 44677 H 4201.74 -1.63281 3.76629 0
M  V30 44678 H 4200.4 -1.75555 2.6046 0
M  V30 44679 H 4199.6 -1.14938 4.90719 0
M  V30 44680 H 4199.2 0.130588 3.73772 0
M  V30 44681 H 4201.49 -0.999555 6.70086 0
M  V30 44682 H 4202.43 0.480598 7.06467 0
M  V30 44683 H 4202.84 -0.496548 5.62312 0
M  V30 44684 N 4202.24 -1.51507 0.433991 0
M  V30 44685 C 4203.17 -2.24221 -0.424296 0
M  V30 44686 C 4204.15 -1.26021 -1.02749 0
M  V30 44687 O 4205.33 -1.55147 -1.0706 0
M  V30 44688 C 4202.46 -2.99002 -1.59108 0
M  V30 44689 C 4201.51 -4.11832 -1.10889 0
M  V30 44690 S 4202.34 -5.35473 -0.0536561 0
M  V30 44691 C 4203.5 -6.13792 -1.22519 0
M  V30 44692 H 4203.73 -2.96673 0.19305 0
M  V30 44693 H 4201.26 -1.52846 0.218481 0
M  V30 44694 H 4203.22 -3.42687 -2.26 0
M  V30 44695 H 4201.88 -2.26146 -2.17983 0
M  V30 44696 H 4201.07 -4.63422 -1.98131 0
M  V30 44697 H 4200.68 -3.70392 -0.518262 0
M  V30 44698 H 4202.97 -6.42675 -2.14417 0
M  V30 44699 H 4203.91 -7.04124 -0.749322 0
M  V30 44700 H 4204.32 -5.45233 -1.46224 0
M  V30 44701 N 4203.72 -0.165233 -1.56731 0
M  V30 44702 C 4204.68 0.75346 -2.16462 0
M  V30 44703 C 4205.68 1.16239 -1.11108 0
M  V30 44704 O 4206.87 1.08034 -1.36654 0
M  V30 44705 C 4204 2.02479 -2.74254 0
M  V30 44706 H 4205.19 0.233576 -2.98989 0
M  V30 44707 H 4202.75 0.0843043 -1.56072 0
M  V30 44708 H 4203.48 2.5879 -1.95443 0
M  V30 44709 H 4203.27 1.74059 -3.51349 0
M  V30 44710 H 4204.76 2.68054 -3.20213 0
M  V30 44711 N 4205.19 1.57226 0.108512 0
M  V30 44712 C 4206.1 2.04412 1.15121 0
M  V30 44713 C 4207.12 0.966461 1.44691 0
M  V30 44714 O 4208.3 1.2787 1.55599 0
M  V30 44715 C 4205.36 2.44784 2.45524 0
M  V30 44716 C 4204.42 3.66681 2.23257 0
M  V30 44717 C 4203.66 4.05118 3.47441 0
M  V30 44718 O 4203.88 3.43784 4.55158 0
M  V30 44719 O 4202.81 4.98156 3.37822 0
M  V30 44720 H 4206.64 2.935 0.780482 0
M  V30 44721 H 4204.22 1.45931 0.320065 0
M  V30 44722 H 4206.11 2.71438 3.22335 0
M  V30 44723 H 4204.78 1.58838 2.8205 0
M  V30 44724 H 4203.69 3.45162 1.4427 0
M  V30 44725 H 4205.02 4.53364 1.9163 0
M  V30 44726 N 4206.67 -0.378982 1.52975 0
M  V30 44727 C 4207.62 -1.4839 1.79117 0
M  V30 44728 C 4208.61 -1.56031 0.659589 0
M  V30 44729 O 4209.82 -1.59078 0.842271 0
M  V30 44730 H 4206.2 -0.494075 0.566917 0
M  V30 44731 H 4208.17 -1.2354 2.71626 0
M  V30 44732 C 4206.92 -2.854 1.986 0
M  V30 44733 H 4206.24 -2.80275 2.85107 0
M  V30 44734 H 4207.68 -3.61925 2.20876 0
M  V30 44735 C 4206.14 -3.28185 0.761315 0
M  V30 44736 O 4206.67 -4.0166 -0.0564558 0
M  V30 44737 N 4204.87 -2.84577 0.588565 0
M  V30 44738 H 4204.42 -2.24951 1.25517 0
M  V30 44739 H 4204.38 -3.13561 -0.22948 0
M  V30 44740 N 4208.15 -1.44108 -0.638015 0
M  V30 44741 C 4209.38 -1.4978 -1.423 0
M  V30 44742 C 4209.79 -0.11912 -1.88825 0
M  V30 44743 O 4209.13 0.883925 -1.61036 0
M  V30 44744 C 4209.19 -2.39472 -2.68129 0
M  V30 44745 C 4208.86 -3.86759 -2.43447 0
M  V30 44746 C 4209.85 -4.77473 -2.05708 0
M  V30 44747 C 4207.54 -4.31396 -2.573 0
M  V30 44748 C 4209.53 -6.10822 -1.82141 0
M  V30 44749 C 4207.22 -5.64794 -2.33347 0
M  V30 44750 C 4208.22 -6.54325 -1.95825 0
M  V30 44751 O 4207.91 -7.85255 -1.72134 0
M  V30 44752 H 4207.64 -0.510534 -0.443093 0
M  V30 44753 H 4210.19 -1.89679 -0.78811 0
M  V30 44754 H 4208.42 -1.94488 -3.34232 0
M  V30 44755 H 4210.11 -2.36173 -3.30117 0
M  V30 44756 H 4210.88 -4.44262 -1.94568 0
M  V30 44757 H 4206.76 -3.61972 -2.85477 0
M  V30 44758 H 4210.3 -6.80665 -1.52778 0
M  V30 44759 H 4206.2 -5.97569 -2.44094 0
M  V30 44760 H 4206.97 -7.96984 -1.86436 0
M  V30 44761 N 4209.63 0.877792 -1.30891 0
M  V30 44762 C 4210.58 1.97173 -1.14485 0
M  V30 44763 C 4211.56 1.60795 -0.0580047 0
M  V30 44764 O 4212.75 1.74738 -0.282095 0
M  V30 44765 C 4209.88 3.32707 -0.846204 0
M  V30 44766 C 4208.97 3.75377 -1.97365 0
M  V30 44767 N 4209.36 3.90078 -3.21983 0
M  V30 44768 C 4207.66 4.04828 -1.87163 0
M  V30 44769 C 4208.36 4.26393 -3.95682 0
M  V30 44770 N 4207.34 4.36649 -3.23788 0
M  V30 44771 H 4211.14 2.06639 -2.08992 0
M  V30 44772 H 4208.65 1.06808 -1.22335 0
M  V30 44773 H 4210.65 4.10815 -0.709668 0
M  V30 44774 H 4209.31 3.24573 0.0907159 0
M  V30 44775 H 4210.32 3.75015 -3.57189 0
M  V30 44776 H 4207 4.05128 -1.00886 0
M  V30 44777 H 4208.39 4.45429 -5.03033 0
M  V30 44778 N 4211.11 1.13725 1.09108 0
M  V30 44779 C 4212.05 0.813105 2.17925 0
M  V30 44780 C 4213.05 -0.205964 1.68143 0
M  V30 44781 O 4214.25 -0.0627815 1.7989 0
M  V30 44782 H 4210.63 0.245184 0.710907 0
M  V30 44783 H 4212.6 1.73894 2.42494 0
M  V30 44784 C 4211.35 0.29905 3.46412 0
M  V30 44785 H 4210.67 1.07454 3.85089 0
M  V30 44786 H 4212.11 0.110712 4.23855 0
M  V30 44787 C 4210.57 -0.97591 3.22456 0
M  V30 44788 O 4211.1 -2.05109 3.45388 0
M  V30 44789 N 4209.31 -0.908296 2.7604 0
M  V30 44790 H 4208.85 -0.0331926 2.57579 0
M  V30 44791 H 4208.81 -1.76194 2.6039 0
M  V30 44792 N 4212.58 -1.27143 0.931254 0
M  V30 44793 C 4213.83 -1.93497 0.56936 0
M  V30 44794 C 4214.15 -1.73961 -0.894257 0
M  V30 44795 O 4215.35 -2.34686 -1.36509 0
M  V30 44796 C 4213.81 -3.46652 0.967493 0
M  V30 44797 C 4213.42 -3.74939 2.45204 0
M  V30 44798 C 4215.16 -4.19066 0.677021 0
M  V30 44799 C 4213.07 -5.21485 2.78939 0
M  V30 44800 H 4212 -0.724391 0.20922 0
M  V30 44801 H 4214.65 -1.4438 1.13255 0
M  V30 44802 H 4213.03 -3.94598 0.332922 0
M  V30 44803 H 4214.2 -3.37736 3.13482 0
M  V30 44804 H 4212.52 -3.15736 2.71477 0
M  V30 44805 H 4215.12 -5.26977 0.905517 0
M  V30 44806 H 4215.46 -4.14508 -0.385894 0
M  V30 44807 H 4215.99 -3.76954 1.27085 0
M  V30 44808 H 4212.73 -5.31137 3.84153 0
M  V30 44809 H 4212.25 -5.59821 2.15314 0
M  V30 44810 H 4213.93 -5.89397 2.66872 0
M  V30 44811 N 4214.06 -0.697157 -1.41342 0
M  V30 44812 C 4215.31 -0.237894 -2.02004 0
M  V30 44813 C 4215.66 1.1502 -1.54234 0
M  V30 44814 O 4214.96 1.76548 -0.744402 0
M  V30 44815 C 4215.15 -0.236522 -3.56617 0
M  V30 44816 C 4214.98 -1.62294 -4.19393 0
M  V30 44817 C 4213.75 -2.22617 -4.53618 0
M  V30 44818 C 4215.95 -2.56984 -4.45492 0
M  V30 44819 N 4213.93 -3.53807 -5.01691 0
M  V30 44820 C 4215.3 -3.72855 -4.95357 0
M  V30 44821 C 4217.36 -2.55231 -4.27506 0
M  V30 44822 C 4216.06 -4.87256 -5.29126 0
M  V30 44823 C 4218.09 -3.68745 -4.62365 0
M  V30 44824 C 4217.45 -4.83346 -5.12402 0
M  V30 44825 H 4213.55 -0.132476 -0.770697 0
M  V30 44826 H 4216.13 -0.91498 -1.71861 0
M  V30 44827 H 4214.3 0.410057 -3.86229 0
M  V30 44828 H 4216.03 0.237718 -4.04001 0
M  V30 44829 H 4212.79 -1.74888 -4.40126 0
M  V30 44830 H 4213.21 -4.21058 -5.30131 0
M  V30 44831 H 4217.85 -1.67844 -3.88057 0
M  V30 44832 H 4215.57 -5.75302 -5.67498 0
M  V30 44833 H 4219.16 -3.68642 -4.50105 0
M  V30 44834 H 4218.04 -5.69728 -5.38869 0
M  V30 44835 N 4215.54 1.51274 -0.44202 0
M  V30 44836 C 4216.5 2.26427 0.355462 0
M  V30 44837 C 4217.5 1.30052 0.945677 0
M  V30 44838 O 4218.69 1.53726 0.819395 0
M  V30 44839 C 4215.83 3.0596 1.50338 0
M  V30 44840 H 4217.02 2.98363 -0.30323 0
M  V30 44841 H 4214.57 1.55075 -0.195306 0
M  V30 44842 H 4215.31 2.38451 2.19799 0
M  V30 44843 H 4215.09 3.76752 1.08629 0
M  V30 44844 H 4216.58 3.62874 2.06669 0
M  V30 44845 N 4217.02 0.173543 1.56642 0
M  V30 44846 C 4217.97 -0.755879 2.18071 0
M  V30 44847 C 4218.94 -1.22532 1.12138 0
M  V30 44848 O 4220.12 -1.29309 1.40299 0
M  V30 44849 C 4217.26 -1.97883 2.8273 0
M  V30 44850 C 4216.37 -1.55275 4.0313 0
M  V30 44851 C 4215.51 -2.72954 4.55708 0
M  V30 44852 C 4214.55 -2.26847 5.68513 0
M  V30 44853 N 4213.69 -3.37627 6.15591 0
M  V30 44854 H 4218.53 -0.225253 2.97147 0
M  V30 44855 H 4216.06 -0.0994525 1.46763 0
M  V30 44856 H 4218.02 -2.69616 3.18376 0
M  V30 44857 H 4216.65 -2.48313 2.06254 0
M  V30 44858 H 4215.7 -0.732088 3.73289 0
M  V30 44859 H 4217.01 -1.17432 4.84779 0
M  V30 44860 H 4216.17 -3.5284 4.93547 0
M  V30 44861 H 4214.91 -3.14058 3.7312 0
M  V30 44862 H 4213.91 -1.45409 5.30223 0
M  V30 44863 H 4215.14 -1.86799 6.52904 0
M  V30 44864 H 4213.08 -3.78303 5.35932 0
M  V30 44865 H 4213 -3.03885 6.92236 0
M  V30 44866 H 4214.27 -4.17791 6.58081 0
M  V30 44867 N 4218.5 -1.57281 -0.100172 0
M  V30 44868 C 4219.44 -2.01699 -1.12188 0
M  V30 44869 C 4220.41 -0.892399 -1.40091 0
M  V30 44870 O 4221.6 -1.15802 -1.51639 0
M  V30 44871 C 4218.74 -2.44216 -2.43829 0
M  V30 44872 C 4217.85 -3.70173 -2.22701 0
M  V30 44873 C 4216.99 -4.01591 -3.47704 0
M  V30 44874 C 4216.03 -5.20674 -3.21815 0
M  V30 44875 N 4215.16 -5.47869 -4.39071 0
M  V30 44876 H 4220 -2.88765 -0.736121 0
M  V30 44877 H 4217.54 -1.42828 -0.351952 0
M  V30 44878 H 4219.5 -2.6691 -3.20648 0
M  V30 44879 H 4218.13 -1.60167 -2.80261 0
M  V30 44880 H 4217.18 -3.54986 -1.36708 0
M  V30 44881 H 4218.49 -4.5714 -1.9956 0
M  V30 44882 H 4217.65 -4.25034 -4.32933 0
M  V30 44883 H 4216.39 -3.13136 -3.73894 0
M  V30 44884 H 4215.39 -4.97056 -2.34979 0
M  V30 44885 H 4216.62 -6.10722 -2.96976 0
M  V30 44886 H 4214.56 -4.62373 -4.65347 0
M  V30 44887 H 4214.48 -6.29197 -4.19103 0
M  V30 44888 H 4215.75 -5.75844 -5.25379 0
M  V30 44889 N 4219.98 0.370864 -1.53174 0
M  V30 44890 C 4220.92 1.45403 -1.79239 0
M  V30 44891 C 4221.89 1.53421 -0.63648 0
M  V30 44892 O 4223.08 1.69393 -0.878109 0
M  V30 44893 C 4220.22 2.82415 -1.98332 0
M  V30 44894 C 4219.33 2.83405 -3.26045 0
M  V30 44895 C 4218.47 4.11959 -3.35355 0
M  V30 44896 C 4217.5 4.07071 -4.57121 0
M  V30 44897 N 4216.64 5.27264 -4.63613 0
M  V30 44898 H 4221.48 1.22477 -2.71668 0
M  V30 44899 H 4219.02 0.59383 -1.34581 0
M  V30 44900 H 4220.98 3.62003 -2.07388 0
M  V30 44901 H 4219.61 3.03752 -1.09245 0
M  V30 44902 H 4218.66 1.96082 -3.25969 0
M  V30 44903 H 4219.97 2.75665 -4.15705 0
M  V30 44904 H 4219.12 4.9996 -3.43694 0
M  V30 44905 H 4217.86 4.22446 -2.43702 0
M  V30 44906 H 4216.87 3.17458 -4.48888 0
M  V30 44907 H 4218.09 3.98191 -5.50109 0
M  V30 44908 H 4216.04 5.38346 -3.74859 0
M  V30 44909 H 4215.96 5.21672 -5.47169 0
M  V30 44910 H 4217.22 6.17112 -4.76228 0
M  V30 44911 N 4221.45 1.44444 0.630363 0
M  V30 44912 C 4222.4 1.5137 1.74229 0
M  V30 44913 C 4223.37 0.361353 1.62122 0
M  V30 44914 O 4224.56 0.571694 1.82034 0
M  V30 44915 C 4221.7 1.46462 3.12479 0
M  V30 44916 C 4220.81 2.72077 3.35557 0
M  V30 44917 C 4219.94 2.58997 4.63782 0
M  V30 44918 C 4218.98 3.79772 4.80041 0
M  V30 44919 N 4218.12 3.65364 5.99544 0
M  V30 44920 H 4222.96 2.46371 1.67646 0
M  V30 44921 H 4220.5 1.22273 0.817785 0
M  V30 44922 H 4222.45 1.41608 3.92432 0
M  V30 44923 H 4221.08 0.550272 3.18075 0
M  V30 44924 H 4220.14 2.87115 2.49538 0
M  V30 44925 H 4221.45 3.61723 3.4345 0
M  V30 44926 H 4220.6 2.5198 5.51897 0
M  V30 44927 H 4219.34 1.66913 4.58248 0
M  V30 44928 H 4218.35 3.87173 3.90355 0
M  V30 44929 H 4219.57 4.72894 4.87389 0
M  V30 44930 H 4217.52 2.76032 5.95099 0
M  V30 44931 H 4217.43 4.48628 6.08497 0
M  V30 44932 H 4218.7 3.6224 6.90219 0
M  V30 44933 N 4222.93 -0.870838 1.31355 0
M  V30 44934 C 4223.86 -1.98109 1.13262 0
M  V30 44935 C 4224.84 -1.62559 0.0363564 0
M  V30 44936 O 4226.03 -1.87513 0.192614 0
M  V30 44937 C 4223.15 -3.3073 0.730419 0
M  V30 44938 C 4222.2 -3.85264 1.82959 0
M  V30 44939 S 4223.03 -4.10826 3.43486 0
M  V30 44940 C 4224.19 -5.46446 3.05201 0
M  V30 44941 H 4224.42 -2.13153 2.07251 0
M  V30 44942 H 4221.95 -1.02091 1.15831 0
M  V30 44943 H 4223.91 -4.0738 0.505115 0
M  V30 44944 H 4222.57 -3.13523 -0.19035 0
M  V30 44945 H 4221.77 -4.81137 1.50079 0
M  V30 44946 H 4221.37 -3.15402 2.00991 0
M  V30 44947 H 4223.66 -6.28068 2.5404 0
M  V30 44948 H 4224.6 -5.84276 4.00034 0
M  V30 44949 H 4225.01 -5.09679 2.42668 0
M  V30 44950 N 4224.41 -1.14302 -1.08503 0
M  V30 44951 C 4225.32 -0.842699 -2.18942 0
M  V30 44952 C 4226.34 0.17645 -1.73103 0
M  V30 44953 O 4227.51 0.005201 -2.01399 0
M  V30 44954 C 4224.58 -0.323408 -3.45188 0
M  V30 44955 C 4223.64 -1.40499 -4.05658 0
M  V30 44956 C 4222.87 -0.910382 -5.25878 0
M  V30 44957 O 4223.09 0.248515 -5.69858 0
M  V30 44958 O 4222.03 -1.68892 -5.77719 0
M  V30 44959 H 4225.85 -1.76564 -2.47101 0
M  V30 44960 H 4223.44 -0.921201 -1.17619 0
M  V30 44961 H 4225.32 -0.0396851 -4.21381 0
M  V30 44962 H 4224 0.571818 -3.18609 0
M  V30 44963 H 4222.9 -1.74216 -3.31058 0
M  V30 44964 H 4224.24 -2.2747 -4.36484 0
M  V30 44965 N 4225.89 1.26648 -0.937984 0
M  V30 44966 C 4226.82 2.2887 -0.462689 0
M  V30 44967 C 4227.8 1.63117 0.482371 0
M  V30 44968 O 4228.98 1.90347 0.384914 0
M  V30 44969 C 4226.11 3.46202 0.275903 0
M  V30 44970 C 4225.07 4.2402 -0.582297 0
M  V30 44971 C 4224.39 5.33934 0.286067 0
M  V30 44972 C 4225.69 4.88362 -1.85202 0
M  V30 44973 H 4227.39 2.68877 -1.31702 0
M  V30 44974 H 4224.93 1.29256 -0.634732 0
M  V30 44975 H 4226.89 4.16823 0.619422 0
M  V30 44976 H 4225.61 3.0514 1.16435 0
M  V30 44977 H 4224.27 3.5516 -0.908666 0
M  V30 44978 H 4223.92 4.89113 1.17377 0
M  V30 44979 H 4223.62 5.8691 -0.284721 0
M  V30 44980 H 4225.14 6.07394 0.624928 0
M  V30 44981 H 4226.56 5.51214 -1.57594 0
M  V30 44982 H 4224.95 5.51441 -2.36712 0
M  V30 44983 H 4226.02 4.11483 -2.56534 0
M  V30 44984 N 4227.37 0.704643 1.4097 0
M  V30 44985 C 4228.28 0.045815 2.34555 0
M  V30 44986 C 4229.29 -0.756009 1.56718 0
M  V30 44987 O 4230.47 -0.691485 1.89157 0
M  V30 44988 C 4227.53 -0.872756 3.35535 0
M  V30 44989 C 4226.59 -0.0621166 4.29255 0
M  V30 44990 C 4225.83 -0.936938 5.25411 0
M  V30 44991 O 4226.05 -2.17635 5.27249 0
M  V30 44992 O 4224.98 -0.381768 6.00688 0
M  V30 44993 H 4228.81 0.817467 2.92491 0
M  V30 44994 H 4226.39 0.465039 1.41978 0
M  V30 44995 H 4228.28 -1.39923 3.97491 0
M  V30 44996 H 4226.95 -1.62374 2.80029 0
M  V30 44997 H 4225.86 0.509174 3.70619 0
M  V30 44998 H 4227.19 0.650406 4.87884 0
M  V30 44999 N 4228.84 -1.51038 0.450036 0
M  V30 45000 C 4230.07 -2.07093 -0.112798 0
M  V30 45001 C 4230.49 -1.31399 -1.34595 0
M  V30 45002 O 4229.85 -0.355536 -1.7778 0
M  V30 45003 C 4229.9 -3.58364 -0.400926 0
M  V30 45004 O 4229 -3.84728 -1.4852 0
M  V30 45005 H 4228.35 -0.66399 0.00370945 0
M  V30 45006 H 4230.88 -1.94496 0.635025 0
M  V30 45007 H 4230.89 -4.02827 -0.647656 0
M  V30 45008 H 4229.56 -4.1288 0.500305 0
M  V30 45009 H 4228.14 -3.5212 -1.22744 0
M  V30 45010 N 4230.32 -0.181847 -1.56547 0
M  V30 45011 C 4231.27 0.744303 -2.18469 0
M  V30 45012 C 4232.24 1.21936 -1.12787 0
M  V30 45013 O 4233.42 1.28564 -1.40982 0
M  V30 45014 C 4230.56 1.96381 -2.83775 0
M  V30 45015 C 4229.68 1.53135 -4.03948 0
M  V30 45016 C 4228.81 2.70534 -4.57149 0
M  V30 45017 C 4227.85 2.23829 -5.69708 0
M  V30 45018 N 4226.99 3.34358 -6.17373 0
M  V30 45019 H 4231.83 0.209491 -2.97263 0
M  V30 45020 H 4229.37 0.0916679 -1.46814 0
M  V30 45021 H 4231.32 2.67923 -3.19801 0
M  V30 45022 H 4229.95 2.47215 -2.07568 0
M  V30 45023 H 4229.01 0.712281 -3.73672 0
M  V30 45024 H 4230.32 1.1486 -4.85395 0
M  V30 45025 H 4229.47 3.50218 -4.95411 0
M  V30 45026 H 4228.21 3.12075 -3.7478 0
M  V30 45027 H 4227.22 1.42595 -5.30987 0
M  V30 45028 H 4228.44 1.83334 -6.53885 0
M  V30 45029 H 4226.39 3.75455 -5.37931 0
M  V30 45030 H 4226.3 3.00209 -6.93837 0
M  V30 45031 H 4227.57 4.14295 -6.60287 0
M  V30 45032 N 4231.8 1.57332 0.09183 0
M  V30 45033 C 4233.05 1.85886 0.793154 0
M  V30 45034 C 4233.37 0.771016 1.7911 0
M  V30 45035 O 4232.64 -0.202403 1.94852 0
M  V30 45036 H 4231.22 0.68589 0.295911 0
M  V30 45037 H 4233.88 1.94764 0.0726824 0
M  V30 45038 H 4232.98 2.82731 1.32173 0
M  V30 45039 N 4233.28 -0.362736 1.53369 0
M  V30 45040 C 4234.53 -1.10289 1.69354 0
M  V30 45041 C 4234.85 -1.89751 0.4494 0
M  V30 45042 O 4234.12 -1.88408 -0.536575 0
M  V30 45043 H 4232.7 -0.410151 0.624328 0
M  V30 45044 H 4235.36 -0.40866 1.90568 0
M  V30 45045 H 4234.46 -1.7911 2.55589 0
M  V30 45046 N 4234.76 -1.44777 -0.622694 0
M  V30 45047 C 4236 -1.47711 -1.37935 0
M  V30 45048 C 4236.33 -0.114221 -1.94665 0
M  V30 45049 O 4235.6 0.854552 -1.76279 0
M  V30 45050 H 4234.18 -0.543923 -0.512013 0
M  V30 45051 H 4236.84 -1.80619 -0.732305 0
M  V30 45052 H 4235.93 -2.20734 -2.20642 0
M  V30 45053 N 4236.23 0.863859 -1.31815 0
M  V30 45054 C 4237.18 1.99304 -1.1992 0
M  V30 45055 C 4238.18 1.69068 -0.106084 0
M  V30 45056 O 4239.38 1.77988 -0.268392 0
M  V30 45057 H 4235.76 0.653843 -0.371475 0
M  V30 45058 H 4237.73 2.06466 -2.1544 0
M  V30 45059 C 4236.48 3.35041 -0.929652 0
M  V30 45060 H 4235.8 3.58832 -1.76295 0
M  V30 45061 H 4237.24 4.14626 -0.886625 0
M  V30 45062 C 4235.7 3.34888 0.367618 0
M  V30 45063 O 4236.23 3.77162 1.38246 0
M  V30 45064 N 4234.44 2.88021 0.386326 0
M  V30 45065 H 4233.98 2.53814 -0.440039 0
M  V30 45066 H 4233.94 2.88301 1.2542 0
M  V30 45067 N 4237.71 1.14875 1.07895 0
M  V30 45068 C 4238.66 0.808988 2.13165 0
M  V30 45069 C 4239.65 -0.20424 1.59598 0
M  V30 45070 O 4240.84 -0.0058041 1.76999 0
M  V30 45071 C 4237.97 0.293919 3.42039 0
M  V30 45072 C 4237.05 1.33698 4.02474 0
M  V30 45073 N 4237.44 2.54266 4.37244 0
M  V30 45074 C 4235.74 1.18842 4.29875 0
M  V30 45075 C 4236.44 3.21079 4.8506 0
M  V30 45076 N 4235.42 2.48474 4.83489 0
M  V30 45077 H 4239.22 1.72608 2.37873 0
M  V30 45078 H 4236.74 1.03339 1.25279 0
M  V30 45079 H 4238.73 0.0321879 4.16888 0
M  V30 45080 H 4237.39 -0.617303 3.18778 0
M  V30 45081 H 4238.4 2.91453 4.28107 0
M  V30 45082 H 4235.08 0.336644 4.16141 0
M  V30 45083 H 4236.47 4.23906 5.213 0
M  V30 45084 N 4239.19 -1.26148 0.944687 0
M  V30 45085 C 4240.6 -1.75523 0.63629 0
M  V30 45086 C 4240.95 -1.76904 -0.848493 0
M  V30 45087 O 4240.08 -1.38342 -1.66404 0
M  V30 45088 C 4240.67 -3.18747 1.14829 0
M  V30 45089 C 4239.23 -3.65721 0.890241 0
M  V30 45090 C 4238.38 -2.4509 1.29715 0
M  V30 45091 H 4241.33 -1.12175 1.1226 0
M  V30 45092 H 4241.35 -3.77151 0.503734 0
M  V30 45093 H 4240.86 -3.1771 2.22895 0
M  V30 45094 H 4238.96 -3.72185 -0.175887 0
M  V30 45095 H 4239.08 -4.54358 1.51971 0
M  V30 45096 H 4237.44 -2.44442 0.715563 0
M  V30 45097 H 4238.22 -2.46751 2.38682 0
M  V30 45098 N 4240.67 -0.712109 -1.40594 0
M  V30 45099 C 4241.6 -0.0719848 -2.33389 0
M  V30 45100 C 4242.58 0.749307 -1.52707 0
M  V30 45101 O 4243.76 0.698936 -1.81186 0
M  V30 45102 C 4240.89 0.853063 -3.3666 0
M  V30 45103 C 4239.85 0.137649 -4.27779 0
M  V30 45104 C 4239.17 1.17818 -5.21558 0
M  V30 45105 C 4240.47 -1.00606 -5.12519 0
M  V30 45106 H 4242.17 -0.847052 -2.87168 0
M  V30 45107 H 4239.71 -0.408781 -1.38076 0
M  V30 45108 H 4241.67 1.31024 -4.00513 0
M  V30 45109 H 4240.39 1.65999 -2.81269 0
M  V30 45110 H 4239.05 -0.299667 -3.65373 0
M  V30 45111 H 4238.7 1.97806 -4.62474 0
M  V30 45112 H 4238.4 0.7044 -5.83363 0
M  V30 45113 H 4239.92 1.63553 -5.88288 0
M  V30 45114 H 4241.34 -0.62841 -5.69846 0
M  V30 45115 H 4239.73 -1.40799 -5.83349 0
M  V30 45116 H 4240.8 -1.8383 -4.48703 0
M  V30 45117 N 4242.15 1.50797 -0.45804 0
M  V30 45118 C 4243.08 2.31113 0.333023 0
M  V30 45119 C 4244.06 1.37434 1.00229 0
M  V30 45120 O 4245.24 1.66356 1.00196 0
M  V30 45121 C 4242.37 3.16816 1.42284 0
M  V30 45122 C 4241.33 4.18941 0.875919 0
M  V30 45123 C 4240.65 4.93298 2.06305 0
M  V30 45124 C 4241.95 5.22197 -0.103878 0
M  V30 45125 H 4243.65 2.97494 -0.337275 0
M  V30 45126 H 4241.19 1.43067 -0.163647 0
M  V30 45127 H 4243.15 3.71793 1.98363 0
M  V30 45128 H 4241.87 2.48295 2.12172 0
M  V30 45129 H 4240.53 3.65046 0.337199 0
M  V30 45130 H 4240.18 4.21261 2.7486 0
M  V30 45131 H 4239.88 5.62369 1.70338 0
M  V30 45132 H 4241.4 5.51105 2.62898 0
M  V30 45133 H 4242.81 5.72122 0.367292 0
M  V30 45134 H 4241.21 5.98914 -0.377153 0
M  V30 45135 H 4242.28 4.73747 -1.034 0
M  V30 45136 N 4243.63 0.190147 1.56449 0
M  V30 45137 C 4244.87 -0.450589 1.97731 0
M  V30 45138 C 4245.2 -1.61612 1.07681 0
M  V30 45139 O 4244.48 -1.9408 0.127777 0
M  V30 45140 C 4244.76 -0.915491 3.48268 0
M  V30 45141 C 4244.62 0.251515 4.49096 0
M  V30 45142 C 4245.93 -1.78271 4.02377 0
M  V30 45143 H 4243.05 -0.162312 0.718905 0
M  V30 45144 H 4245.7 0.280073 1.87924 0
M  V30 45145 H 4243.85 -1.53809 3.56756 0
M  V30 45146 H 4245.52 0.889075 4.52651 0
M  V30 45147 H 4243.76 0.904071 4.24275 0
M  V30 45148 H 4244.43 -0.116209 5.51878 0
M  V30 45149 H 4246.91 -1.25767 3.96638 0
M  V30 45150 H 4245.78 -2.07697 5.08088 0
M  V30 45151 H 4246.04 -2.73516 3.47335 0
M  V30 45152 N 4245.1 -1.57379 -0.083485 0
M  V30 45153 C 4246.51 -1.75509 -0.636677 0
M  V30 45154 C 4246.87 -0.813973 -1.78519 0
M  V30 45155 O 4245.99 0.00476339 -2.16399 0
M  V30 45156 C 4246.59 -3.1826 -1.16173 0
M  V30 45157 C 4245.14 -3.37774 -1.66089 0
M  V30 45158 C 4244.29 -2.71266 -0.57534 0
M  V30 45159 H 4247.24 -1.58058 0.142641 0
M  V30 45160 H 4247.26 -3.21773 -2.03082 0
M  V30 45161 H 4246.78 -3.86732 -0.325611 0
M  V30 45162 H 4244.88 -2.74399 -2.52063 0
M  V30 45163 H 4244.99 -4.46157 -1.74588 0
M  V30 45164 H 4243.35 -2.33489 -1.01759 0
M  V30 45165 H 4244.14 -3.42386 0.250395 0
M  V30 45166 N 4246.58 0.354597 -1.53559 0
M  V30 45167 C 4247.81 1.11478 -1.73943 0
M  V30 45168 C 4248.22 1.83184 -0.47332 0
M  V30 45169 O 4247.56 1.74823 0.564144 0
M  V30 45170 C 4247.62 2.1812 -2.85769 0
M  V30 45171 C 4247.29 1.66085 -4.25752 0
M  V30 45172 C 4248.29 1.11905 -5.07714 0
M  V30 45173 C 4245.97 1.71266 -4.72201 0
M  V30 45174 C 4247.96 0.635965 -6.34219 0
M  V30 45175 C 4245.65 1.22569 -5.98682 0
M  V30 45176 C 4246.65 0.688258 -6.79523 0
M  V30 45177 O 4246.34 0.208518 -8.0363 0
M  V30 45178 H 4246.07 0.338786 -0.584979 0
M  V30 45179 H 4248.62 0.415997 -2.01143 0
M  V30 45180 H 4246.85 2.91524 -2.54069 0
M  V30 45181 H 4248.54 2.79616 -2.94227 0
M  V30 45182 H 4249.31 1.07233 -4.72997 0
M  V30 45183 H 4245.19 2.12038 -4.09342 0
M  V30 45184 H 4248.73 0.215811 -6.97266 0
M  V30 45185 H 4244.63 1.26938 -6.32896 0
M  V30 45186 H 4245.4 0.326832 -8.17847 0
M  V30 45187 N 4248.06 1.45105 0.615008 0
M  V30 45188 C 4249.34 1.39208 1.37406 0
M  V30 45189 C 4249.72 0.0589134 2.11018 0
M  V30 45190 O 4249.06 -0.95896 2.07403 0
M  V30 45191 C 4249.27 2.60093 2.32708 0
M  V30 45192 C 4250.62 3.04859 2.95544 0
M  V30 45193 O 4251.65 2.60413 2.4303 0
M  V30 45194 O 4250.51 3.8197 3.90847 0
M  V30 45195 H 4247.6 0.552063 0.615756 0
M  V30 45196 H 4250.15 1.57221 0.638715 0
M  V30 45197 H 4248.92 3.48714 1.77523 0
M  V30 45198 H 4248.54 2.44375 3.13634 0
M  V30 45199 N 4249.54 -0.856857 1.32271 0
M  V30 45200 C 4250.77 -1.64337 1.25701 0
M  V30 45201 C 4251.18 -1.87984 -0.175392 0
M  V30 45202 O 4250.54 -1.44728 -1.11176 0
M  V30 45203 C 4250.59 -3.00392 2.01115 0
M  V30 45204 O 4250.31 -2.77794 3.38766 0
M  V30 45205 C 4251.81 -3.94836 2.01542 0
M  V30 45206 H 4249.03 -0.511924 0.433791 0
M  V30 45207 H 4251.57 -1.0686 1.7436 0
M  V30 45208 H 4249.73 -3.54521 1.56184 0
M  V30 45209 H 4250.14 -3.64304 3.77336 0
M  V30 45210 H 4251.62 -4.87575 2.58795 0
M  V30 45211 H 4252.09 -4.27638 1.00114 0
M  V30 45212 H 4252.7 -3.46644 2.4641 0
M  V30 45213 N 4251.02 -1.15446 -1.07285 0
M  V30 45214 C 4251.95 -0.874818 -2.16493 0
M  V30 45215 C 4252.93 0.174853 -1.69199 0
M  V30 45216 O 4254.11 0.0290821 -1.94178 0
M  V30 45217 C 4251.24 -0.364079 -3.45386 0
M  V30 45218 C 4250.2 -1.3505 -4.06135 0
M  V30 45219 C 4249.52 -0.698583 -5.30117 0
M  V30 45220 C 4250.82 -2.71673 -4.46084 0
M  V30 45221 H 4252.52 -1.78806 -2.40143 0
M  V30 45222 H 4250.06 -0.861144 -1.15414 0
M  V30 45223 H 4252.01 -0.155984 -4.21111 0
M  V30 45224 H 4250.74 0.584633 -3.21325 0
M  V30 45225 H 4249.4 -1.54497 -3.32455 0
M  V30 45226 H 4249.05 0.256298 -5.02347 0
M  V30 45227 H 4248.75 -1.35689 -5.71719 0
M  V30 45228 H 4250.27 -0.500278 -6.08547 0
M  V30 45229 H 4251.68 -2.56068 -5.12935 0
M  V30 45230 H 4250.08 -3.33884 -4.98639 0
M  V30 45231 H 4251.15 -3.27686 -3.57421 0
M  V30 45232 N 4252.49 1.25646 -0.951364 0
M  V30 45233 C 4253.72 1.97346 -0.621465 0
M  V30 45234 C 4254.14 1.70743 0.805744 0
M  V30 45235 O 4253.49 0.981564 1.53856 0
M  V30 45236 C 4253.54 3.50959 -0.866598 0
M  V30 45237 O 4253.27 3.76642 -2.23768 0
M  V30 45238 C 4254.77 4.39892 -0.548638 0
M  V30 45239 H 4251.99 0.629142 -0.233284 0
M  V30 45240 H 4254.53 1.599 -1.27485 0
M  V30 45241 H 4252.69 3.86529 -0.259675 0
M  V30 45242 H 4253.1 4.71119 -2.30536 0
M  V30 45243 H 4254.57 5.46593 -0.770718 0
M  V30 45244 H 4255.05 4.3615 0.516703 0
M  V30 45245 H 4255.66 4.09883 -1.13474 0
M  V30 45246 N 4253.97 0.719555 1.40215 0
M  V30 45247 C 4254.93 0.0782263 2.29066 0
M  V30 45248 C 4255.93 -0.683256 1.45562 0
M  V30 45249 O 4257.12 -0.514569 1.66427 0
M  V30 45250 C 4254.26 -0.898977 3.28833 0
M  V30 45251 H 4255.45 0.860837 2.8728 0
M  V30 45252 H 4253 0.484446 1.48603 0
M  V30 45253 H 4253.74 -1.7085 2.75646 0
M  V30 45254 H 4253.52 -0.355785 3.90482 0
M  V30 45255 H 4255.01 -1.34476 3.95356 0
M  V30 45256 N 4255.45 -1.50552 0.466031 0
M  V30 45257 C 4256.4 -2.28418 -0.330764 0
M  V30 45258 C 4257.37 -1.33247 -0.991684 0
M  V30 45259 O 4258.55 -1.6218 -1.00509 0
M  V30 45260 C 4255.69 -3.14993 -1.40972 0
M  V30 45261 C 4254.8 -4.25189 -0.764085 0
M  V30 45262 C 4253.94 -4.9903 -1.82051 0
M  V30 45263 C 4252.98 -6.01107 -1.15484 0
M  V30 45264 N 4252.12 -6.68245 -2.15389 0
M  V30 45265 H 4256.96 -2.96059 0.339556 0
M  V30 45266 H 4254.49 -1.46003 0.179299 0
M  V30 45267 H 4256.45 -3.63536 -2.04689 0
M  V30 45268 H 4255.08 -2.49408 -2.04928 0
M  V30 45269 H 4254.13 -3.80397 -0.0144815 0
M  V30 45270 H 4255.44 -4.9823 -0.23837 0
M  V30 45271 H 4254.6 -5.51265 -2.5336 0
M  V30 45272 H 4253.34 -4.25683 -2.38002 0
M  V30 45273 H 4252.34 -5.48137 -0.427351 0
M  V30 45274 H 4253.57 -6.76424 -0.602295 0
M  V30 45275 H 4251.51 -5.97694 -2.70367 0
M  V30 45276 H 4251.43 -7.37145 -1.67789 0
M  V30 45277 H 4252.7 -7.251 -2.86095 0
M  V30 45278 N 4256.93 -0.198441 -1.56346 0
M  V30 45279 C 4257.84 0.732962 -2.22856 0
M  V30 45280 C 4258.85 1.23203 -1.2287 0
M  V30 45281 O 4260.03 1.27849 -1.55617 0
M  V30 45282 C 4257.09 1.93394 -2.87749 0
M  V30 45283 C 4256.16 1.47912 -4.03014 0
M  V30 45284 C 4255.39 2.62285 -4.64803 0
M  V30 45285 O 4255.61 3.79851 -4.25522 0
M  V30 45286 O 4254.55 2.34807 -5.54211 0
M  V30 45287 H 4258.37 0.19651 -3.03064 0
M  V30 45288 H 4255.96 0.0309991 -1.49368 0
M  V30 45289 H 4257.84 2.63579 -3.28792 0
M  V30 45290 H 4256.51 2.45894 -2.10518 0
M  V30 45291 H 4255.42 0.745974 -3.66587 0
M  V30 45292 H 4256.75 1.00076 -4.81919 0
M  V30 45293 N 4258.41 1.57421 0.0751377 0
M  V30 45294 C 4259.35 2.03458 1.08965 0
M  V30 45295 C 4260.32 0.914573 1.38653 0
M  V30 45296 O 4261.51 1.182 1.49778 0
M  V30 45297 C 4258.65 2.48064 2.39913 0
M  V30 45298 C 4257.76 3.7367 2.16783 0
M  V30 45299 C 4256.9 4.07072 3.41271 0
M  V30 45300 C 4255.94 5.25728 3.13491 0
M  V30 45301 N 4255.07 5.54785 4.303 0
M  V30 45302 H 4259.91 2.899 0.690087 0
M  V30 45303 H 4257.45 1.43369 0.329185 0
M  V30 45304 H 4259.41 2.71977 3.16361 0
M  V30 45305 H 4258.04 1.64605 2.77678 0
M  V30 45306 H 4257.09 3.57116 1.31044 0
M  V30 45307 H 4258.4 4.60257 1.92262 0
M  V30 45308 H 4257.56 4.31868 4.26116 0
M  V30 45309 H 4256.29 3.19045 3.68865 0
M  V30 45310 H 4255.3 5.00732 2.27042 0
M  V30 45311 H 4256.52 6.1537 2.87223 0
M  V30 45312 H 4254.47 4.69717 4.57932 0
M  V30 45313 H 4254.39 6.35785 4.0904 0
M  V30 45314 H 4255.66 5.8413 5.16152 0
M  V30 45315 N 4259.88 -0.346449 1.53745 0
M  V30 45316 C 4260.85 -1.40823 1.80836 0
M  V30 45317 C 4261.85 -1.45746 0.679317 0
M  V30 45318 O 4263.04 -1.46172 0.947592 0
M  V30 45319 C 4260.17 -2.79777 1.94776 0
M  V30 45320 H 4261.36 -1.18066 2.75682 0
M  V30 45321 H 4258.92 -0.580675 1.45113 0
M  V30 45322 H 4259.65 -3.07821 1.02063 0
M  V30 45323 H 4259.44 -2.776 2.76913 0
M  V30 45324 H 4260.93 -3.56633 2.17262 0
M  V30 45325 N 4261.36 -1.45429 -0.607304 0
M  V30 45326 C 4262.31 -1.54122 -1.71799 0
M  V30 45327 C 4263.28 -0.387099 -1.61526 0
M  V30 45328 O 4264.46 -0.600582 -1.81101 0
M  V30 45329 C 4261.6 -1.51415 -3.10109 0
M  V30 45330 C 4260.72 -2.77381 -3.31186 0
M  V30 45331 C 4259.85 -2.66343 -4.59603 0
M  V30 45332 C 4258.89 -3.87361 -4.73939 0
M  V30 45333 N 4258.03 -3.74856 -5.93656 0
M  V30 45334 H 4262.87 -2.49007 -1.63705 0
M  V30 45335 H 4260.41 -1.23559 -0.798229 0
M  V30 45336 H 4262.36 -1.47833 -3.9013 0
M  V30 45337 H 4260.99 -0.600805 -3.1716 0
M  V30 45338 H 4260.05 -2.91048 -2.44939 0
M  V30 45339 H 4261.36 -3.67141 -3.37652 0
M  V30 45340 H 4260.51 -2.60729 -5.47819 0
M  V30 45341 H 4259.25 -1.74182 -4.55535 0
M  V30 45342 H 4258.26 -3.93334 -3.84146 0
M  V30 45343 H 4259.48 -4.80588 -4.79804 0
M  V30 45344 H 4257.43 -2.85464 -5.90632 0
M  V30 45345 H 4257.34 -4.58252 -6.01283 0
M  V30 45346 H 4258.61 -3.73175 -6.84369 0
M  V30 45347 N 4262.84 0.84983 -1.32724 0
M  V30 45348 C 4264.12 1.58822 -1.14171 0
M  V30 45349 C 4264.5 2.09013 0.296099 0
M  V30 45350 O 4263.85 1.88366 1.29347 0
M  V30 45351 C 4264.06 2.73061 -2.17345 0
M  V30 45352 C 4265.4 3.42519 -2.50929 0
M  V30 45353 O 4266.43 2.83291 -2.15928 0
M  V30 45354 O 4265.29 4.49413 -3.1095 0
M  V30 45355 H 4262.38 0.699681 -0.440881 0
M  V30 45356 H 4264.93 0.893538 -1.44271 0
M  V30 45357 H 4263.7 2.33534 -3.13971 0
M  V30 45358 H 4263.32 3.50202 -1.88267 0
M  V30 45359 N 4264.32 1.16013 1.06671 0
M  V30 45360 C 4265.73 0.904233 1.31513 0
M  V30 45361 C 4265.93 -0.444987 1.96525 0
M  V30 45362 O 4264.99 -1.18537 2.22947 0
M  V30 45363 C 4266.3 2.05041 2.19952 0
M  V30 45364 C 4267.85 2.08573 2.3338 0
M  V30 45365 C 4268.33 3.22534 3.25171 0
M  V30 45366 N 4269.82 3.22226 3.32753 0
M  V30 45367 C 4270.55 4.07045 4.03859 0
M  V30 45368 N 4270.05 5.01943 4.7752 0
M  V30 45369 N 4271.84 3.95044 3.9987 0
M  V30 45370 H 4263.99 2.02884 0.628636 0
M  V30 45371 H 4266.26 0.885051 0.339688 0
M  V30 45372 H 4265.96 3.02472 1.79453 0
M  V30 45373 H 4265.84 1.98868 3.20517 0
M  V30 45374 H 4268.22 1.11737 2.73128 0
M  V30 45375 H 4268.3 2.18812 1.32495 0
M  V30 45376 H 4267.95 4.19627 2.8614 0
M  V30 45377 H 4267.88 3.09531 4.26026 0
M  V30 45378 H 4270.37 2.53507 2.80255 0
M  V30 45379 H 4270.68 5.63089 5.29292 0
M  V30 45380 H 4269.03 5.05925 4.76513 0
M  V30 45381 H 4272.22 3.20213 3.4144 0
M  V30 45382 H 4272.39 4.61369 4.55019 0
M  V30 45383 N 4265.8 -1.25139 0.958014 0
M  V30 45384 C 4266.71 -2.29476 0.487633 0
M  V30 45385 C 4267.72 -1.68169 -0.446675 0
M  V30 45386 O 4268.9 -1.98808 -0.322092 0
M  V30 45387 C 4265.96 -3.45976 -0.223869 0
M  V30 45388 C 4265.02 -4.22714 0.749068 0
M  V30 45389 C 4264.26 -5.33652 0.0714267 0
M  V30 45390 O 4264.48 -5.58846 -1.14224 0
M  V30 45391 O 4263.41 -5.97099 0.75868 0
M  V30 45392 H 4267.24 -2.71809 1.35475 0
M  V30 45393 H 4264.83 -1.30651 0.724617 0
M  V30 45394 H 4266.71 -4.16755 -0.623966 0
M  V30 45395 H 4265.38 -3.0564 -1.06611 0
M  V30 45396 H 4264.29 -3.54351 1.19944 0
M  V30 45397 H 4265.62 -4.66843 1.55943 0
M  V30 45398 N 4267.27 -0.726981 -1.39831 0
M  V30 45399 C 4268.22 -0.0817785 -2.30655 0
M  V30 45400 C 4269.19 0.738231 -1.48793 0
M  V30 45401 O 4270.38 0.699842 -1.77502 0
M  V30 45402 C 4267.52 0.82554 -3.3508 0
M  V30 45403 C 4266.63 -0.00622093 -4.32 0
M  V30 45404 C 4265.76 0.901628 -5.23492 0
M  V30 45405 C 4264.8 0.0646364 -6.12066 0
M  V30 45406 N 4263.94 0.92798 -6.9594 0
M  V30 45407 H 4268.78 -0.861956 -2.85262 0
M  V30 45408 H 4266.32 -0.436733 -1.40467 0
M  V30 45409 H 4268.28 1.36595 -3.94205 0
M  V30 45410 H 4266.91 1.57178 -2.81949 0
M  V30 45411 H 4265.96 -0.663956 -3.74561 0
M  V30 45412 H 4267.27 -0.653737 -4.94497 0
M  V30 45413 H 4266.42 1.51017 -5.87604 0
M  V30 45414 H 4265.16 1.58294 -4.61296 0
M  V30 45415 H 4264.17 -0.556761 -5.46974 0
M  V30 45416 H 4265.39 -0.613341 -6.76325 0
M  V30 45417 H 4263.34 1.59473 -6.36321 0
M  V30 45418 H 4263.26 0.336762 -7.5525 0
M  V30 45419 H 4264.52 1.52234 -7.6449 0
M  V30 45420 N 4268.75 1.50303 -0.474008 0
M  V30 45421 C 4269.72 2.2713 0.307354 0
M  V30 45422 C 4270.72 1.32029 0.917878 0
M  V30 45423 O 4271.91 1.55429 0.786603 0
M  V30 45424 C 4269.04 3.0908 1.43814 0
M  V30 45425 H 4270.23 2.97653 -0.366449 0
M  V30 45426 H 4267.78 1.54626 -0.228156 0
M  V30 45427 H 4268.52 2.4306 2.14691 0
M  V30 45428 H 4268.3 3.78971 1.00613 0
M  V30 45429 H 4269.79 3.67176 1.98926 0
M  V30 45430 N 4270.23 0.20673 1.56238 0
M  V30 45431 C 4271.16 -0.741508 2.16874 0
M  V30 45432 C 4272.18 -1.16836 1.13372 0
M  V30 45433 O 4273.36 -1.10208 1.40415 0
M  V30 45434 C 4270.46 -2.01423 2.72548 0
M  V30 45435 C 4269.64 -1.74531 4.01071 0
M  V30 45436 C 4268.7 -2.86363 4.41455 0
M  V30 45437 O 4267.72 -2.5547 5.08649 0
M  V30 45438 N 4268.92 -4.14986 4.05915 0
M  V30 45439 H 4271.69 -0.222913 2.9887 0
M  V30 45440 H 4269.25 0.0251788 1.6188 0
M  V30 45441 H 4271.24 -2.75399 2.96542 0
M  V30 45442 H 4269.81 -2.44371 1.9494 0
M  V30 45443 H 4269.03 -0.842738 3.85086 0
M  V30 45444 H 4270.32 -1.53976 4.84942 0
M  V30 45445 H 4269.72 -4.42934 3.5189 0
M  V30 45446 H 4268.28 -4.85553 4.34835 0
M  V30 45447 N 4271.71 -1.57458 -0.0667882 0
M  V30 45448 C 4272.99 -1.78569 -0.798278 0
M  V30 45449 C 4273.37 -0.795554 -1.95536 0
M  V30 45450 O 4272.71 0.170291 -2.27865 0
M  V30 45451 C 4272.92 -3.25206 -1.26656 0
M  V30 45452 C 4274.27 -3.89174 -1.69791 0
M  V30 45453 O 4275.3 -3.29128 -1.3621 0
M  V30 45454 O 4274.15 -4.94821 -2.3198 0
M  V30 45455 H 4271.25 -0.733013 -0.382911 0
M  V30 45456 H 4273.79 -1.69636 -0.0464767 0
M  V30 45457 H 4272.57 -3.88831 -0.438861 0
M  V30 45458 H 4272.19 -3.38882 -2.07953 0
M  V30 45459 N 4273.19 0.33829 -1.53926 0
M  V30 45460 C 4274.44 1.07539 -1.70641 0
M  V30 45461 C 4274.75 1.89641 -0.47911 0
M  V30 45462 O 4275.96 2.6633 -0.527306 0
M  V30 45463 C 4274.41 1.96129 -3.01764 0
M  V30 45464 C 4274.02 1.19208 -4.31849 0
M  V30 45465 C 4275.76 2.69664 -3.27843 0
M  V30 45466 C 4273.67 2.06859 -5.54043 0
M  V30 45467 H 4272.6 0.405189 -0.635876 0
M  V30 45468 H 4275.25 0.334538 -1.80425 0
M  V30 45469 H 4273.63 2.74055 -2.8585 0
M  V30 45470 H 4274.81 0.461567 -4.58482 0
M  V30 45471 H 4273.12 0.57419 -4.12422 0
M  V30 45472 H 4275.72 3.35523 -4.16327 0
M  V30 45473 H 4276.06 3.36514 -2.4508 0
M  V30 45474 H 4276.6 1.98809 -3.44557 0
M  V30 45475 H 4273.33 1.44543 -6.39365 0
M  V30 45476 H 4272.85 2.77685 -5.31649 0
M  V30 45477 H 4274.53 2.6579 -5.89886 0
M  V30 45478 N 4274.67 1.45749 0.599583 0
M  V30 45479 C 4275.6 1.5788 1.72035 0
M  V30 45480 C 4276.58 0.429922 1.64577 0
M  V30 45481 O 4277.76 0.654069 1.82854 0
M  V30 45482 C 4274.89 1.55277 3.10655 0
M  V30 45483 C 4273.85 2.68963 3.32931 0
M  V30 45484 C 4273.17 2.51416 4.71905 0
M  V30 45485 C 4274.47 4.10917 3.22404 0
M  V30 45486 H 4276.17 2.51696 1.6214 0
M  V30 45487 H 4273.71 1.21134 0.778619 0
M  V30 45488 H 4275.66 1.6236 3.88867 0
M  V30 45489 H 4274.39 0.579948 3.2141 0
M  V30 45490 H 4273.05 2.61322 2.57112 0
M  V30 45491 H 4272.7 1.52255 4.79403 0
M  V30 45492 H 4272.4 3.27659 4.87764 0
M  V30 45493 H 4273.92 2.60365 5.52307 0
M  V30 45494 H 4275.33 4.19759 3.90481 0
M  V30 45495 H 4273.73 4.87613 3.49791 0
M  V30 45496 H 4274.8 4.3226 2.19725 0
M  V30 45497 N 4276.14 -0.84278 1.33173 0
M  V30 45498 C 4277.09 -1.9523 1.23101 0
M  V30 45499 C 4278.06 -1.65732 0.110498 0
M  V30 45500 O 4279.25 -1.88612 0.288098 0
M  V30 45501 C 4276.39 -3.31123 0.972176 0
M  V30 45502 C 4275.5 -3.73044 2.17859 0
M  V30 45503 C 4274.63 -4.97787 1.85424 0
M  V30 45504 C 4273.67 -5.32231 3.02319 0
M  V30 45505 N 4272.81 -6.48151 2.69898 0
M  V30 45506 H 4277.65 -2.03177 2.17998 0
M  V30 45507 H 4275.19 -0.994289 1.08408 0
M  V30 45508 H 4277.14 -4.09408 0.802558 0
M  V30 45509 H 4275.77 -3.22744 0.0599545 0
M  V30 45510 H 4274.83 -2.90314 2.45809 0
M  V30 45511 H 4276.14 -3.94484 3.05261 0
M  V30 45512 H 4275.29 -5.83809 1.65083 0
M  V30 45513 H 4274.03 -4.78308 0.952531 0
M  V30 45514 H 4273.04 -4.44715 3.23278 0
M  V30 45515 H 4274.26 -5.5366 3.93239 0
M  V30 45516 H 4272.21 -6.30166 1.82282 0
M  V30 45517 H 4272.12 -6.69667 3.5083 0
M  V30 45518 H 4273.39 -7.37295 2.53015 0
M  V30 45519 N 4277.62 -1.16577 -1.06054 0
M  V30 45520 C 4278.87 -0.948781 -1.78898 0
M  V30 45521 C 4279.2 0.523233 -1.8733 0
M  V30 45522 O 4278.45 1.40437 -1.36294 0
M  V30 45523 C 4278.75 -1.52435 -3.23262 0
M  V30 45524 C 4278.42 -3.01909 -3.34905 0
M  V30 45525 C 4277.08 -3.42712 -3.3779 0
M  V30 45526 C 4279.43 -3.97908 -3.36629 0
M  V30 45527 C 4276.76 -4.78127 -3.40017 0
M  V30 45528 C 4279.11 -5.33212 -3.40394 0
M  V30 45529 C 4277.77 -5.73491 -3.41562 0
M  V30 45530 H 4277.04 -0.347184 -0.654633 0
M  V30 45531 H 4279.69 -1.4533 -1.24705 0
M  V30 45532 H 4278 -0.941327 -3.80324 0
M  V30 45533 H 4279.69 -1.33211 -3.78227 0
M  V30 45534 H 4276.28 -2.69378 -3.33367 0
M  V30 45535 H 4280.47 -3.67449 -3.33609 0
M  V30 45536 H 4275.72 -5.0866 -3.39227 0
M  V30 45537 H 4279.9 -6.07383 -3.40675 0
M  V30 45538 H 4277.52 -6.78401 -3.4304 0
M  V30 45539 N 4279.1 1.2463 -0.964637 0
M  V30 45540 C 4280.03 2.27837 -0.511131 0
M  V30 45541 C 4281.01 1.64104 0.447663 0
M  V30 45542 O 4282.2 1.91121 0.344452 0
M  V30 45543 C 4279.33 3.4671 0.202406 0
M  V30 45544 C 4278.28 4.2269 -0.672107 0
M  V30 45545 C 4277.61 5.34421 0.172748 0
M  V30 45546 C 4278.91 4.84324 -1.95519 0
M  V30 45547 H 4280.6 2.66023 -1.37376 0
M  V30 45548 H 4278.15 1.27881 -0.662006 0
M  V30 45549 H 4280.1 4.18043 0.530869 0
M  V30 45550 H 4278.82 3.07541 1.09936 0
M  V30 45551 H 4277.48 3.53153 -0.983796 0
M  V30 45552 H 4277.13 4.91493 1.06976 0
M  V30 45553 H 4276.83 5.86174 -0.409149 0
M  V30 45554 H 4278.35 6.08583 0.49595 0
M  V30 45555 H 4279.77 5.47747 -1.6925 0
M  V30 45556 H 4278.16 5.46296 -2.48356 0
M  V30 45557 H 4279.23 4.05949 -2.65204 0
M  V30 45558 N 4280.58 0.734386 1.39444 0
M  V30 45559 C 4281.51 0.0544145 2.29135 0
M  V30 45560 C 4282.52 -0.7041 1.46786 0
M  V30 45561 O 4283.71 -0.548364 1.69868 0
M  V30 45562 C 4280.81 -0.947171 3.25395 0
M  V30 45563 C 4279.98 -0.250304 4.36683 0
M  V30 45564 C 4279.04 -1.15991 5.13257 0
M  V30 45565 O 4278.07 -0.637624 5.65617 0
M  V30 45566 N 4279.27 -2.48967 5.244 0
M  V30 45567 H 4282.04 0.824618 2.88132 0
M  V30 45568 H 4279.6 0.583558 1.51017 0
M  V30 45569 H 4281.59 -1.55828 3.73497 0
M  V30 45570 H 4280.16 -1.61859 2.67433 0
M  V30 45571 H 4279.38 0.541269 3.90466 0
M  V30 45572 H 4280.67 0.232661 5.08268 0
M  V30 45573 H 4280.07 -2.93877 4.83377 0
M  V30 45574 H 4278.62 -3.05175 5.75944 0
M  V30 45575 N 4282.06 -1.50049 0.481972 0
M  V30 45576 C 4283.3 -2.01575 -0.0709845 0
M  V30 45577 C 4283.62 -1.36808 -1.39796 0
M  V30 45578 O 4284.82 -1.79552 -2.0365 0
M  V30 45579 C 4283.28 -3.59464 -0.177001 0
M  V30 45580 C 4282.89 -4.33195 1.14219 0
M  V30 45581 C 4284.63 -4.18996 -0.681336 0
M  V30 45582 C 4282.54 -5.82895 0.999376 0
M  V30 45583 H 4281.47 -0.753391 -0.0303029 0
M  V30 45584 H 4284.12 -1.72762 0.618518 0
M  V30 45585 H 4282.5 -3.84912 -0.93053 0
M  V30 45586 H 4283.68 -4.19464 1.90753 0
M  V30 45587 H 4281.99 -3.85322 1.57848 0
M  V30 45588 H 4284.59 -5.286 -0.805391 0
M  V30 45589 H 4284.93 -3.81097 -1.67543 0
M  V30 45590 H 4285.46 -3.97797 0.0151149 0
M  V30 45591 H 4282.2 -6.25286 1.96717 0
M  V30 45592 H 4281.72 -5.99171 0.27461 0
M  V30 45593 H 4283.4 -6.43518 0.670378 0
M  V30 45594 N 4283.53 -0.215012 -1.56126 0
M  V30 45595 C 4284.48 0.714314 -2.2136 0
M  V30 45596 C 4285.48 1.2047 -1.19094 0
M  V30 45597 O 4286.68 1.16529 -1.3719 0
M  V30 45598 H 4283.06 0.248757 -0.709665 0
M  V30 45599 H 4285.03 0.140626 -2.98068 0
M  V30 45600 C 4283.78 1.91461 -2.90238 0
M  V30 45601 H 4283.1 1.54637 -3.68683 0
M  V30 45602 H 4284.54 2.54279 -3.39291 0
M  V30 45603 C 4283 2.76592 -1.9235 0
M  V30 45604 O 4283.53 3.75144 -1.43631 0
M  V30 45605 N 4281.73 2.42493 -1.60142 0
M  V30 45606 H 4281.28 1.62406 -1.99955 0
M  V30 45607 H 4281.24 2.99733 -0.949075 0
M  V30 45608 N 4285.01 1.57492 0.0584368 0
M  V30 45609 C 4286.26 1.87526 0.753547 0
M  V30 45610 C 4286.58 0.808834 1.77434 0
M  V30 45611 O 4285.85 -0.161027 1.95237 0
M  V30 45612 H 4284.43 0.692013 0.281296 0
M  V30 45613 H 4287.09 1.94875 0.0313536 0
M  V30 45614 H 4286.19 2.85471 1.26146 0
M  V30 45615 N 4286.49 -0.330122 1.54104 0
M  V30 45616 C 4287.72 -1.08696 1.75695 0
M  V30 45617 C 4288.13 -1.82408 0.502403 0
M  V30 45618 O 4287.47 -1.75698 -0.53626 0
M  V30 45619 C 4287.53 -2.13546 2.89203 0
M  V30 45620 C 4287.2 -1.59291 4.2834 0
M  V30 45621 C 4288.19 -1.03814 5.0943 0
M  V30 45622 C 4285.88 -1.63732 4.74865 0
M  V30 45623 C 4287.87 -0.534986 6.35151 0
M  V30 45624 C 4285.56 -1.13029 6.00556 0
M  V30 45625 C 4286.56 -0.580065 6.80532 0
M  V30 45626 O 4286.25 -0.080641 8.0386 0
M  V30 45627 H 4285.98 -0.329436 0.590295 0
M  V30 45628 H 4288.53 -0.383945 2.0178 0
M  V30 45629 H 4286.76 -2.87445 2.58674 0
M  V30 45630 H 4288.45 -2.749 2.98639 0
M  V30 45631 H 4289.22 -0.996945 4.74643 0
M  V30 45632 H 4285.1 -2.05499 4.12664 0
M  V30 45633 H 4288.64 -0.104855 6.97521 0
M  V30 45634 H 4284.54 -1.16853 6.34835 0
M  V30 45635 H 4285.3 -0.196678 8.18264 0
M  V30 45636 N 4287.97 -1.46065 -0.591845 0
M  V30 45637 C 4288.93 -1.55529 -1.68354 0
M  V30 45638 C 4289.93 -0.433275 -1.54853 0
M  V30 45639 O 4291.12 -0.697286 -1.59636 0
M  V30 45640 C 4288.25 -1.46688 -3.07726 0
M  V30 45641 H 4289.45 -2.52813 -1.61324 0
M  V30 45642 H 4287 -1.33739 -0.808917 0
M  V30 45643 H 4287.73 -0.506489 -3.2032 0
M  V30 45644 H 4287.52 -2.28086 -3.18935 0
M  V30 45645 H 4289.01 -1.56377 -3.87216 0
M  V30 45646 N 4289.45 0.835705 -1.33618 0
M  V30 45647 C 4290.69 1.59351 -1.25439 0
M  V30 45648 C 4291.03 1.93377 0.178649 0
M  V30 45649 O 4290.3 1.58961 1.12079 0
M  V30 45650 C 4290.58 2.90146 -2.13278 0
M  V30 45651 C 4290.44 2.62782 -3.65056 0
M  V30 45652 C 4291.76 3.91603 -2.00835 0
M  V30 45653 H 4288.87 0.57819 -0.457018 0
M  V30 45654 H 4291.52 0.963657 -1.63749 0
M  V30 45655 H 4289.67 3.43899 -1.80736 0
M  V30 45656 H 4291.34 2.15437 -4.07903 0
M  V30 45657 H 4289.58 1.96431 -3.86778 0
M  V30 45658 H 4290.25 3.55996 -4.21866 0
M  V30 45659 H 4292.73 3.47165 -2.29381 0
M  V30 45660 H 4291.6 4.80946 -2.64542 0
M  V30 45661 H 4291.87 4.31067 -0.981515 0
M  V30 45662 N 4290.92 1.17138 1.05434 0
M  V30 45663 C 4292.15 0.983269 1.8261 0
M  V30 45664 C 4292.57 -0.463665 1.82296 0
M  V30 45665 O 4291.93 -1.33182 1.23014 0
M  V30 45666 C 4291.98 1.52593 3.26723 0
M  V30 45667 O 4291.08 0.73805 4.05742 0
M  V30 45668 H 4290.43 0.349289 0.564707 0
M  V30 45669 H 4292.96 1.55579 1.32878 0
M  V30 45670 H 4292.97 1.54714 3.77528 0
M  V30 45671 H 4291.64 2.5792 3.26267 0
M  V30 45672 H 4290.22 0.788044 3.64478 0
M  V30 45673 N 4292.4 -1.24116 0.971232 0
M  V30 45674 C 4293.82 -1.44467 0.678341 0
M  V30 45675 C 4294.02 -1.86673 -0.758637 0
M  V30 45676 O 4293.07 -2.00704 -1.53213 0
M  V30 45677 C 4294.39 -2.50366 1.66545 0
M  V30 45678 C 4295.94 -2.6419 1.67847 0
M  V30 45679 C 4296.41 -3.7329 2.65364 0
M  V30 45680 N 4297.9 -3.80722 2.63828 0
M  V30 45681 C 4298.64 -4.64674 3.35955 0
M  V30 45682 N 4298.13 -5.52786 4.17611 0
M  V30 45683 N 4299.93 -4.58787 3.24763 0
M  V30 45684 H 4292.08 -0.950183 1.89961 0
M  V30 45685 H 4294.34 -0.479087 0.818034 0
M  V30 45686 H 4294.05 -2.2625 2.69265 0
M  V30 45687 H 4293.92 -3.4859 1.44101 0
M  V30 45688 H 4296.31 -2.87662 0.658359 0
M  V30 45689 H 4296.39 -1.66313 1.94354 0
M  V30 45690 H 4296.03 -3.50568 3.67512 0
M  V30 45691 H 4295.96 -4.70689 2.36135 0
M  V30 45692 H 4298.45 -3.17748 2.0456 0
M  V30 45693 H 4298.77 -6.13812 4.69526 0
M  V30 45694 H 4297.11 -5.5244 4.21705 0
M  V30 45695 H 4300.3 -3.88966 2.60429 0
M  V30 45696 H 4300.47 -5.23987 3.81237 0
M  V30 45697 N 4293.88 -0.741771 -1.39052 0
M  V30 45698 C 4295.13 -0.292112 -1.99978 0
M  V30 45699 C 4295.45 1.12659 -1.59163 0
M  V30 45700 O 4294.72 1.76835 -0.842989 0
M  V30 45701 H 4293.3 -0.105013 -0.739582 0
M  V30 45702 H 4295.96 -0.953237 -1.69998 0
M  V30 45703 H 4295.06 -0.345864 -3.10178 0
M  V30 45704 N 4295.36 1.49792 -0.489923 0
M  V30 45705 C 4296.61 2.02415 0.0585085 0
M  V30 45706 C 4296.93 1.3705 1.38013 0
M  V30 45707 O 4296.19 0.491559 1.89426 0
M  V30 45708 C 4296.49 3.56371 0.270996 0
M  V30 45709 C 4296.15 4.40315 -0.971245 0
M  V30 45710 C 4294.82 4.62975 -1.31179 0
M  V30 45711 C 4297.17 4.89224 -1.79748 0
M  V30 45712 C 4294.5 5.31788 -2.47828 0
M  V30 45713 C 4296.85 5.5932 -2.9554 0
M  V30 45714 C 4295.51 5.80228 -3.29988 0
M  V30 45715 H 4294.78 0.740691 0.0214098 0
M  V30 45716 H 4297.43 1.80209 -0.647832 0
M  V30 45717 H 4295.73 3.77195 1.05976 0
M  V30 45718 H 4297.43 3.94671 0.709611 0
M  V30 45719 H 4294.02 4.22912 -0.695964 0
M  V30 45720 H 4298.2 4.71556 -1.54754 0
M  V30 45721 H 4293.46 5.4618 -2.74768 0
M  V30 45722 H 4297.63 5.96194 -3.59896 0
M  V30 45723 H 4295.26 6.33325 -4.20481 0
M  V30 45724 N 4296.84 0.223289 1.5601 0
M  V30 45725 C 4297.78 -0.686118 2.20366 0
M  V30 45726 C 4298.75 -1.18903 1.1598 0
M  V30 45727 O 4299.94 -1.2478 1.44342 0
M  V30 45728 C 4297.08 -1.88788 2.88882 0
M  V30 45729 C 4296.19 -1.42371 4.07866 0
M  V30 45730 C 4295.33 -2.58318 4.64161 0
M  V30 45731 C 4294.37 -2.08646 5.75442 0
M  V30 45732 N 4293.5 -3.17872 6.26021 0
M  V30 45733 H 4298.34 -0.130604 2.97714 0
M  V30 45734 H 4295.88 -0.0527105 1.47006 0
M  V30 45735 H 4297.84 -2.5935 3.26792 0
M  V30 45736 H 4296.47 -2.41625 2.14049 0
M  V30 45737 H 4295.52 -0.612958 3.75429 0
M  V30 45738 H 4296.83 -1.0195 4.8827 0
M  V30 45739 H 4295.99 -3.3696 5.04523 0
M  V30 45740 H 4294.72 -3.02029 3.82923 0
M  V30 45741 H 4293.73 -1.28467 5.34581 0
M  V30 45742 H 4294.95 -1.65932 6.58516 0
M  V30 45743 H 4292.9 -3.61061 5.47696 0
M  V30 45744 H 4292.82 -2.81708 7.01553 0
M  V30 45745 H 4294.09 -3.96643 6.7104 0
M  V30 45746 N 4298.31 -1.5752 -0.0500839 0
M  V30 45747 C 4299.59 -1.79406 -0.779293 0
M  V30 45748 C 4299.97 -0.816248 -1.94681 0
M  V30 45749 O 4299.32 0.146113 -2.28032 0
M  V30 45750 C 4299.53 -3.26531 -1.232 0
M  V30 45751 C 4300.88 -3.90953 -1.65654 0
M  V30 45752 O 4301.9 -3.30554 -1.32712 0
M  V30 45753 O 4300.76 -4.97253 -2.26719 0
M  V30 45754 H 4297.85 -0.737033 -0.375115 0
M  V30 45755 H 4300.4 -1.69676 -0.0284819 0
M  V30 45756 H 4299.17 -3.89275 -0.397595 0
M  V30 45757 H 4298.8 -3.41069 -2.04347 0
M  V30 45758 N 4299.79 0.321945 -1.54277 0
M  V30 45759 C 4300.72 1.40142 -1.86768 0
M  V30 45760 C 4301.7 1.53893 -0.724628 0
M  V30 45761 O 4302.89 1.67746 -0.978507 0
M  V30 45762 C 4300.02 2.76885 -2.09647 0
M  V30 45763 C 4298.97 2.77921 -3.2549 0
M  V30 45764 C 4298.3 4.17755 -3.33743 0
M  V30 45765 C 4299.6 2.41525 -4.63102 0
M  V30 45766 H 4301.29 1.13199 -2.77176 0
M  V30 45767 H 4298.84 0.543111 -1.33365 0
M  V30 45768 H 4300.79 3.5247 -2.30961 0
M  V30 45769 H 4299.52 3.05309 -1.1599 0
M  V30 45770 H 4298.17 2.04792 -3.04065 0
M  V30 45771 H 4297.82 4.43323 -2.37642 0
M  V30 45772 H 4297.52 4.19354 -4.11601 0
M  V30 45773 H 4299.05 4.9515 -3.57294 0
M  V30 45774 H 4300.46 3.06822 -4.84286 0
M  V30 45775 H 4298.86 2.54372 -5.43521 0
M  V30 45776 H 4299.93 1.36672 -4.65241 0
M  V30 45777 N 4301.27 1.46377 0.58409 0
M  V30 45778 C 4302.18 1.59418 1.72113 0
M  V30 45779 C 4303.2 0.477722 1.67314 0
M  V30 45780 O 4304.37 0.741653 1.87247 0
M  V30 45781 C 4301.44 1.57981 3.08615 0
M  V30 45782 C 4300.5 2.80848 3.24689 0
M  V30 45783 C 4299.73 2.7947 4.54678 0
M  V30 45784 O 4299.95 1.88136 5.3848 0
M  V30 45785 O 4298.89 3.70993 4.7397 0
M  V30 45786 H 4302.71 2.55575 1.64058 0
M  V30 45787 H 4300.3 1.29154 0.750972 0
M  V30 45788 H 4302.18 1.5987 3.89897 0
M  V30 45789 H 4300.86 0.649831 3.1711 0
M  V30 45790 H 4299.76 2.84513 2.42905 0
M  V30 45791 H 4301.1 3.7305 3.21083 0
M  V30 45792 N 4302.75 -0.828607 1.34059 0
M  V30 45793 C 4303.68 -1.95419 1.27804 0
M  V30 45794 C 4304.66 -1.69378 0.156578 0
M  V30 45795 O 4305.85 -1.91056 0.348021 0
M  V30 45796 C 4302.98 -3.3177 1.02694 0
M  V30 45797 C 4301.93 -3.72236 2.11245 0
M  V30 45798 C 4301.26 -5.06507 1.71333 0
M  V30 45799 C 4302.56 -3.84933 3.53021 0
M  V30 45800 H 4304.25 -2.0091 2.21981 0
M  V30 45801 H 4301.8 -0.965235 1.06861 0
M  V30 45802 H 4303.75 -4.10093 0.969643 0
M  V30 45803 H 4302.47 -3.26562 0.0495788 0
M  V30 45804 H 4301.13 -2.96184 2.16034 0
M  V30 45805 H 4300.78 -4.97781 0.72272 0
M  V30 45806 H 4300.48 -5.34553 2.43981 0
M  V30 45807 H 4302 -5.87294 1.67088 0
M  V30 45808 H 4303.42 -4.53541 3.50675 0
M  V30 45809 H 4301.81 -4.24427 4.24243 0
M  V30 45810 H 4302.88 -2.87091 3.90777 0
M  V30 45811 N 4304.23 -1.17696 -1.04812 0
M  V30 45812 C 4305.5 -0.87753 -1.74811 0
M  V30 45813 C 4305.88 0.621348 -2.01749 0
M  V30 45814 O 4305.23 1.57379 -1.65662 0
M  V30 45815 C 4305.44 -1.71663 -3.03863 0
M  V30 45816 C 4306.79 -1.93898 -3.77742 0
M  V30 45817 O 4307.81 -1.68653 -3.13743 0
M  V30 45818 O 4306.67 -2.36348 -4.92749 0
M  V30 45819 H 4303.77 -0.325274 -0.760346 0
M  V30 45820 H 4306.31 -1.28411 -1.10945 0
M  V30 45821 H 4305.09 -2.73306 -2.80035 0
M  V30 45822 H 4304.71 -1.30808 -3.75467 0
M  V30 45823 N 4305.71 1.23599 -0.977801 0
M  V30 45824 C 4306.93 1.95983 -0.663185 0
M  V30 45825 C 4307.35 1.72414 0.769346 0
M  V30 45826 O 4306.71 1.01398 1.51739 0
M  V30 45827 C 4306.76 3.49042 -0.940847 0
M  V30 45828 O 4306.48 3.71811 -2.31707 0
M  V30 45829 C 4307.98 4.38629 -0.641822 0
M  V30 45830 H 4305.2 0.624052 -0.246576 0
M  V30 45831 H 4307.74 1.57159 -1.30848 0
M  V30 45832 H 4305.9 3.85891 -0.341605 0
M  V30 45833 H 4306.31 4.66123 -2.40477 0
M  V30 45834 H 4307.79 5.44835 -0.886485 0
M  V30 45835 H 4308.26 4.37148 0.424073 0
M  V30 45836 H 4308.87 4.07383 -1.22143 0
M  V30 45837 N 4307.18 0.749135 1.38657 0
M  V30 45838 C 4308.59 0.371556 1.82965 0
M  V30 45839 C 4308.95 -1.09915 1.62521 0
M  V30 45840 O 4308.07 -1.84921 1.12398 0
M  V30 45841 C 4308.67 0.667611 3.32157 0
M  V30 45842 C 4307.22 0.343363 3.74831 0
M  V30 45843 C 4306.37 0.92306 2.61486 0
M  V30 45844 H 4309.32 0.945647 1.27449 0
M  V30 45845 H 4309.34 -0.0557419 3.80459 0
M  V30 45846 H 4308.86 1.73807 3.47005 0
M  V30 45847 H 4306.96 -0.720695 3.65564 0
M  V30 45848 H 4307.07 0.835802 4.71753 0
M  V30 45849 H 4305.43 0.348731 2.52301 0
M  V30 45850 H 4306.22 1.99846 2.79135 0
M  V30 45851 N 4308.66 -1.4953 0.49786 0
M  V30 45852 C 4309.89 -2.07347 -0.0468556 0
M  V30 45853 C 4310.31 -1.35615 -1.30347 0
M  V30 45854 O 4309.67 -0.411915 -1.76559 0
M  V30 45855 C 4309.72 -3.59458 -0.286712 0
M  V30 45856 O 4308.82 -3.89258 -1.36205 0
M  V30 45857 H 4308.16 -0.663536 0.0248319 0
M  V30 45858 H 4310.69 -1.92377 0.696581 0
M  V30 45859 H 4310.7 -4.04683 -0.519171 0
M  V30 45860 H 4309.38 -4.11079 0.631406 0
M  V30 45861 H 4307.95 -3.55847 -1.11479 0
M  V30 45862 N 4310.14 -0.23156 -1.5589 0
M  V30 45863 C 4311.39 0.397825 -1.97738 0
M  V30 45864 C 4311.7 1.60182 -1.12255 0
M  V30 45865 O 4312.91 2.30137 -1.44047 0
M  V30 45866 C 4311.36 0.759177 -3.51802 0
M  V30 45867 C 4310.97 -0.422563 -4.46003 0
M  V30 45868 C 4312.72 1.35361 -4.0234 0
M  V30 45869 C 4310.62 -0.0382189 -5.91388 0
M  V30 45870 H 4309.55 0.15241 -0.738436 0
M  V30 45871 H 4312.2 -0.329354 -1.8052 0
M  V30 45872 H 4310.59 1.54406 -3.64657 0
M  V30 45873 H 4311.76 -1.20004 -4.449 0
M  V30 45874 H 4310.07 -0.930892 -4.05861 0
M  V30 45875 H 4312.67 1.65424 -5.08467 0
M  V30 45876 H 4313.01 2.27284 -3.4878 0
M  V30 45877 H 4313.55 0.631951 -3.92748 0
M  V30 45878 H 4310.29 -0.924197 -6.48952 0
M  V30 45879 H 4309.81 0.703368 -5.95662 0
M  V30 45880 H 4311.49 0.38498 -6.45854 0
M  V30 45881 N 4311.62 1.57545 0.0417295 0
M  V30 45882 C 4312.53 2.09111 1.06348 0
M  V30 45883 C 4313.54 1.02696 1.40462 0
M  V30 45884 O 4314.72 1.34355 1.50036 0
M  V30 45885 C 4311.78 2.54977 2.34921 0
M  V30 45886 C 4310.85 3.7582 2.07504 0
M  V30 45887 C 4310.08 4.19489 3.29946 0
M  V30 45888 O 4310.3 3.62779 4.40167 0
M  V30 45889 O 4309.24 5.12036 3.1639 0
M  V30 45890 H 4313.06 2.96546 0.655296 0
M  V30 45891 H 4310.65 1.47157 0.257883 0
M  V30 45892 H 4312.53 2.84865 3.10532 0
M  V30 45893 H 4311.2 1.70658 2.75059 0
M  V30 45894 H 4310.11 3.50971 1.29501 0
M  V30 45895 H 4311.44 4.61084 1.72229 0
M  V30 45896 N 4313.1 -0.313759 1.54445 0
M  V30 45897 C 4314.04 -1.38651 1.84512 0
M  V30 45898 C 4315.01 -1.50953 0.692983 0
M  V30 45899 O 4316.2 -1.66017 0.940373 0
M  V30 45900 C 4313.34 -2.7486 2.08677 0
M  V30 45901 C 4312.45 -2.71109 3.36339 0
M  V30 45902 C 4311.59 -3.99229 3.50413 0
M  V30 45903 C 4310.62 -3.89825 4.71914 0
M  V30 45904 N 4309.76 -5.09694 4.82862 0
M  V30 45905 H 4314.6 -1.1231 2.76026 0
M  V30 45906 H 4312.14 -0.543472 1.36692 0
M  V30 45907 H 4314.1 -3.54056 2.20681 0
M  V30 45908 H 4312.73 -2.99488 1.20444 0
M  V30 45909 H 4311.78 -1.83849 3.33022 0
M  V30 45910 H 4313.09 -2.60046 4.25649 0
M  V30 45911 H 4312.24 -4.86859 3.62013 0
M  V30 45912 H 4310.98 -4.1311 2.59213 0
M  V30 45913 H 4309.99 -3.00579 4.60361 0
M  V30 45914 H 4311.21 -3.775 5.64509 0
M  V30 45915 H 4309.16 -5.24063 3.94581 0
M  V30 45916 H 4309.08 -5.01005 5.66154 0
M  V30 45917 H 4310.34 -5.99011 4.98804 0
M  V30 45918 N 4314.57 -1.46684 -0.576319 0
M  V30 45919 C 4315.99 -1.3178 -0.900337 0
M  V30 45920 C 4316.19 -0.293999 -1.99344 0
M  V30 45921 O 4315.25 0.301201 -2.50697 0
M  V30 45922 C 4316.56 -2.70585 -1.31165 0
M  V30 45923 C 4318.11 -2.78724 -1.42414 0
M  V30 45924 C 4318.58 -4.18126 -1.86908 0
M  V30 45925 N 4320.07 -4.20574 -1.94091 0
M  V30 45926 C 4320.81 -5.25334 -2.29808 0
M  V30 45927 N 4320.3 -6.40416 -2.64271 0
M  V30 45928 N 4322.1 -5.12703 -2.30417 0
M  V30 45929 H 4314.25 -2.119 0.145659 0
M  V30 45930 H 4316.51 -0.947997 0.00249463 0
M  V30 45931 H 4316.22 -3.46844 -0.582423 0
M  V30 45932 H 4316.09 -3.0111 -2.27184 0
M  V30 45933 H 4318.48 -2.0275 -2.14421 0
M  V30 45934 H 4318.56 -2.51877 -0.446297 0
M  V30 45935 H 4318.2 -4.94598 -1.15477 0
M  V30 45936 H 4318.13 -4.42385 -2.85662 0
M  V30 45937 H 4320.62 -3.37543 -1.69921 0
M  V30 45938 H 4320.94 -7.16123 -2.90496 0
M  V30 45939 H 4319.28 -6.43767 -2.61895 0
M  V30 45940 H 4322.47 -4.21831 -2.02919 0
M  V30 45941 H 4322.65 -5.94457 -2.57924 0
M  V30 45942 N 4316.05 0.821486 -1.34497 0
M  V30 45943 C 4317.3 1.57778 -1.26934 0
M  V30 45944 C 4317.63 1.93838 0.160311 0
M  V30 45945 O 4316.88 1.60347 1.12193 0
M  V30 45946 C 4317.18 2.88687 -2.107 0
M  V30 45947 C 4316.85 2.71913 -3.59686 0
M  V30 45948 C 4315.51 2.67046 -4.003 0
M  V30 45949 C 4317.86 2.55489 -4.54285 0
M  V30 45950 C 4315.19 2.43678 -5.33702 0
M  V30 45951 C 4317.54 2.33652 -5.87868 0
M  V30 45952 C 4316.2 2.27198 -6.27644 0
M  V30 45953 H 4315.47 0.577352 -0.464485 0
M  V30 45954 H 4318.12 0.950382 -1.66253 0
M  V30 45955 H 4316.43 3.55726 -1.64214 0
M  V30 45956 H 4318.12 3.46293 -2.02194 0
M  V30 45957 H 4314.71 2.76542 -3.27449 0
M  V30 45958 H 4318.9 2.58272 -4.23804 0
M  V30 45959 H 4314.15 2.3714 -5.63538 0
M  V30 45960 H 4318.33 2.19931 -6.6076 0
M  V30 45961 H 4315.95 2.08852 -7.30948 0
M  V30 45962 N 4317.53 1.1825 1.04186 0
M  V30 45963 C 4318.49 0.910544 2.10337 0
M  V30 45964 C 4319.49 -0.103579 1.60466 0
M  V30 45965 O 4320.68 0.129729 1.73716 0
M  V30 45966 C 4317.82 0.365899 3.38931 0
M  V30 45967 H 4319.01 1.85184 2.35896 0
M  V30 45968 H 4316.56 0.994354 1.20591 0
M  V30 45969 H 4317.3 -0.582059 3.19034 0
M  V30 45970 H 4317.08 1.09693 3.76444 0
M  V30 45971 H 4318.57 0.194283 4.17148 0
M  V30 45972 N 4319.01 -1.23079 0.984342 0
M  V30 45973 C 4320.24 -1.95345 0.672593 0
M  V30 45974 C 4320.65 -1.73033 -0.765264 0
M  V30 45975 O 4319.99 -1.02111 -1.52706 0
M  V30 45976 C 4320.05 -3.4836 0.888013 0
M  V30 45977 C 4319.72 -3.94396 2.3087 0
M  V30 45978 C 4320.71 -4.02753 3.28764 0
M  V30 45979 C 4318.4 -4.27276 2.64084 0
M  V30 45980 C 4320.39 -4.4335 4.57951 0
M  V30 45981 C 4318.08 -4.67554 3.93493 0
M  V30 45982 C 4319.08 -4.75558 4.90238 0
M  V30 45983 O 4318.76 -5.14929 6.17336 0
M  V30 45984 H 4318.5 -0.628627 0.248604 0
M  V30 45985 H 4321.05 -1.57416 1.31944 0
M  V30 45986 H 4319.28 -3.86262 0.183987 0
M  V30 45987 H 4320.97 -4.01838 0.572823 0
M  V30 45988 H 4321.74 -3.7755 3.04435 0
M  V30 45989 H 4317.61 -4.20255 1.8949 0
M  V30 45990 H 4321.16 -4.49513 5.33464 0
M  V30 45991 H 4317.06 -4.92207 4.17616 0
M  V30 45992 H 4317.82 -5.33029 6.21146 0
M  V30 45993 N 4320.49 -0.756478 -1.38258 0
M  V30 45994 C 4321.71 -0.323571 -2.0486 0
M  V30 45995 C 4322.14 1.0408 -1.56681 0
M  V30 45996 O 4321.49 1.66386 -0.7201 0
M  V30 45997 C 4321.54 -0.358755 -3.58811 0
M  V30 45998 O 4320.65 0.646224 -4.07305 0
M  V30 45999 H 4319.99 -0.142735 -0.648477 0
M  V30 46000 H 4322.52 -1.02841 -1.76876 0
M  V30 46001 H 4322.53 -0.210651 -4.07456 0
M  V30 46002 H 4321.2 -1.3542 -3.93236 0
M  V30 46003 H 4319.78 0.462496 -3.70021 0
M  V30 46004 N 4321.96 1.49264 -0.505783 0
M  V30 46005 C 4323.21 2.02466 0.0370363 0
M  V30 46006 C 4323.54 1.38506 1.36551 0
M  V30 46007 O 4322.79 0.511623 1.88894 0
M  V30 46008 C 4323.09 3.56638 0.233183 0
M  V30 46009 C 4322.76 4.3926 -1.01789 0
M  V30 46010 C 4321.42 4.61557 -1.36082 0
M  V30 46011 C 4323.77 4.8729 -1.84926 0
M  V30 46012 C 4321.1 5.29129 -2.53455 0
M  V30 46013 C 4323.45 5.56154 -3.01456 0
M  V30 46014 C 4322.12 5.76695 -3.36123 0
M  V30 46015 H 4321.39 0.740876 0.0135526 0
M  V30 46016 H 4324.03 1.79512 -0.666909 0
M  V30 46017 H 4322.34 3.78298 1.0197 0
M  V30 46018 H 4324.04 3.95402 0.667711 0
M  V30 46019 H 4320.63 4.2215 -0.74078 0
M  V30 46020 H 4324.81 4.69888 -1.59747 0
M  V30 46021 H 4320.07 5.43235 -2.80546 0
M  V30 46022 H 4324.24 5.92344 -3.66199 0
M  V30 46023 H 4321.87 6.28829 -4.27174 0
M  V30 46024 N 4323.44 0.239823 1.55765 0
M  V30 46025 C 4324.37 -0.657028 2.24066 0
M  V30 46026 C 4325.35 -1.18685 1.21852 0
M  V30 46027 O 4326.54 -1.2275 1.50486 0
M  V30 46028 C 4323.67 -1.85725 2.93468 0
M  V30 46029 C 4322.62 -1.4605 4.0231 0
M  V30 46030 C 4321.95 -2.74098 4.59102 0
M  V30 46031 C 4323.25 -0.636841 5.18403 0
M  V30 46032 H 4324.94 -0.0875149 2.99272 0
M  V30 46033 H 4322.49 -0.0406519 1.43943 0
M  V30 46034 H 4324.44 -2.49026 3.39947 0
M  V30 46035 H 4323.17 -2.45203 2.15738 0
M  V30 46036 H 4321.82 -0.850872 3.56589 0
M  V30 46037 H 4321.47 -3.31759 3.78081 0
M  V30 46038 H 4321.17 -2.48278 5.32571 0
M  V30 46039 H 4322.7 -3.38309 5.0831 0
M  V30 46040 H 4324.11 -1.17398 5.61151 0
M  V30 46041 H 4322.51 -0.474987 5.98217 0
M  V30 46042 H 4323.58 0.35253 4.83617 0
M  V30 46043 N 4324.92 -1.57565 -0.0333739 0
M  V30 46044 C 4325.85 -2.03068 -1.06282 0
M  V30 46045 C 4326.87 -0.942767 -1.32724 0
M  V30 46046 O 4328.05 -1.22014 -1.30287 0
M  V30 46047 C 4325.15 -2.38731 -2.40543 0
M  V30 46048 C 4324.33 -3.69849 -2.33517 0
M  V30 46049 C 4323.39 -3.9275 -3.50192 0
M  V30 46050 O 4322.41 -4.63861 -3.29881 0
M  V30 46051 N 4323.61 -3.38055 -4.7191 0
M  V30 46052 H 4326.38 -2.91999 -0.675011 0
M  V30 46053 H 4323.94 -1.60379 -0.221395 0
M  V30 46054 H 4325.93 -2.51192 -3.17309 0
M  V30 46055 H 4324.5 -1.55492 -2.71184 0
M  V30 46056 H 4323.72 -3.67783 -1.41879 0
M  V30 46057 H 4325.01 -4.55871 -2.25962 0
M  V30 46058 H 4324.41 -2.80407 -4.91313 0
M  V30 46059 H 4322.97 -3.55903 -5.46056 0
M  V30 46060 N 4326.4 0.305564 -1.54609 0
M  V30 46061 C 4327.33 1.39823 -1.8161 0
M  V30 46062 C 4328.34 1.47038 -0.698837 0
M  V30 46063 O 4329.53 1.49438 -0.976243 0
M  V30 46064 C 4326.63 2.78229 -1.93498 0
M  V30 46065 C 4325.81 2.94003 -3.23854 0
M  V30 46066 C 4324.86 4.1288 -3.26216 0
M  V30 46067 O 4323.89 4.05182 -3.9977 0
M  V30 46068 N 4325.09 5.23295 -2.51281 0
M  V30 46069 H 4327.86 1.17018 -2.75911 0
M  V30 46070 H 4325.42 0.495619 -1.54127 0
M  V30 46071 H 4327.41 3.55994 -1.92486 0
M  V30 46072 H 4325.98 2.94003 -1.06213 0
M  V30 46073 H 4325.2 2.03389 -3.37678 0
M  V30 46074 H 4326.49 3.01449 -4.09885 0
M  V30 46075 H 4325.89 5.32429 -1.91145 0
M  V30 46076 H 4324.44 5.99411 -2.56027 0
M  V30 46077 N 4327.88 1.46988 0.568532 0
M  V30 46078 C 4328.81 1.61494 1.68648 0
M  V30 46079 C 4329.79 0.464735 1.63628 0
M  V30 46080 O 4330.97 0.692708 1.81425 0
M  V30 46081 C 4328.1 1.61832 3.07291 0
M  V30 46082 C 4327.06 2.75964 3.27151 0
M  V30 46083 C 4326.38 2.61369 4.66466 0
M  V30 46084 C 4327.68 4.17663 3.13616 0
M  V30 46085 H 4329.38 2.55079 1.56764 0
M  V30 46086 H 4326.92 1.22759 0.75275 0
M  V30 46087 H 4328.88 1.70572 3.85335 0
M  V30 46088 H 4327.6 0.647993 3.20107 0
M  V30 46089 H 4326.26 2.66717 2.51511 0
M  V30 46090 H 4325.91 1.6239 4.76066 0
M  V30 46091 H 4325.61 3.37931 4.80704 0
M  V30 46092 H 4327.13 2.72021 5.4666 0
M  V30 46093 H 4328.54 4.27947 3.81489 0
M  V30 46094 H 4326.94 4.94923 3.39369 0
M  V30 46095 H 4328.01 4.36824 2.10507 0
M  V30 46096 N 4329.35 -0.814342 1.3493 0
M  V30 46097 C 4330.6 -1.56609 1.27108 0
M  V30 46098 C 4330.92 -1.94987 -0.154778 0
M  V30 46099 O 4332.12 -2.69166 -0.355221 0
M  V30 46100 C 4330.58 -2.82591 2.22868 0
M  V30 46101 C 4330.19 -2.51482 3.70757 0
M  V30 46102 C 4331.93 -3.60606 2.23971 0
M  V30 46103 C 4329.84 -3.73709 4.58362 0
M  V30 46104 H 4328.77 -0.58781 0.472224 0
M  V30 46105 H 4331.42 -0.89582 1.60148 0
M  V30 46106 H 4329.8 -3.51289 1.8279 0
M  V30 46107 H 4330.97 -1.9084 4.19424 0
M  V30 46108 H 4329.29 -1.86727 3.72186 0
M  V30 46109 H 4331.89 -4.51376 2.86642 0
M  V30 46110 H 4332.23 -3.97362 1.24133 0
M  V30 46111 H 4332.76 -2.98862 2.62539 0
M  V30 46112 H 4329.5 -3.42067 5.59169 0
M  V30 46113 H 4329.02 -4.33603 4.14425 0
M  V30 46114 H 4330.7 -4.41025 4.73399 0
M  V30 46115 N 4330.83 -1.18801 -1.03557 0
M  V30 46116 C 4332.25 -0.938783 -1.2907 0
M  V30 46117 C 4332.45 0.392725 -1.97636 0
M  V30 46118 O 4331.5 1.12585 -2.26011 0
M  V30 46119 C 4332.82 -2.108 -2.14438 0
M  V30 46120 C 4334.37 -2.14688 -2.27768 0
M  V30 46121 C 4334.84 -3.31042 -3.16505 0
M  V30 46122 N 4336.33 -3.30935 -3.24093 0
M  V30 46123 C 4337.07 -4.1761 -3.92925 0
M  V30 46124 N 4336.56 -5.14427 -4.64044 0
M  V30 46125 N 4338.36 -4.05507 -3.89256 0
M  V30 46126 H 4330.51 -2.04479 -0.574624 0
M  V30 46127 H 4332.77 -0.893746 -0.316103 0
M  V30 46128 H 4332.48 -3.07124 -1.7137 0
M  V30 46129 H 4332.35 -2.07296 -3.15132 0
M  V30 46130 H 4334.74 -1.18939 -2.70069 0
M  V30 46131 H 4334.82 -2.22248 -1.26647 0
M  V30 46132 H 4334.46 -4.27066 -2.74914 0
M  V30 46133 H 4334.39 -3.20718 -4.17669 0
M  V30 46134 H 4336.88 -2.60848 -2.73435 0
M  V30 46135 H 4337.2 -5.76925 -5.14177 0
M  V30 46136 H 4335.54 -5.18381 -4.62932 0
M  V30 46137 H 4338.73 -3.29153 -3.3283 0
M  V30 46138 H 4338.9 -4.73271 -4.42627 0
M  V30 46139 N 4332.31 1.22555 -0.990855 0
M  V30 46140 C 4333.54 1.94986 -0.682943 0
M  V30 46141 C 4333.95 1.73436 0.756077 0
M  V30 46142 O 4333.29 1.02919 1.52162 0
M  V30 46143 C 4333.35 3.47884 -0.906475 0
M  V30 46144 C 4333.02 3.93166 -2.32958 0
M  V30 46145 C 4334.02 4.01004 -3.30896 0
M  V30 46146 C 4331.7 4.25869 -2.66347 0
M  V30 46147 C 4333.69 4.40915 -4.60296 0
M  V30 46148 C 4331.38 4.6546 -3.95967 0
M  V30 46149 C 4332.38 4.72952 -4.92753 0
M  V30 46150 O 4332.07 5.11648 -6.20058 0
M  V30 46151 H 4331.8 0.6273 -0.251935 0
M  V30 46152 H 4334.35 1.56714 -1.32777 0
M  V30 46153 H 4332.58 3.86159 -0.204469 0
M  V30 46154 H 4334.27 4.01528 -0.594125 0
M  V30 46155 H 4335.04 3.75931 -3.06433 0
M  V30 46156 H 4330.92 4.19244 -1.91716 0
M  V30 46157 H 4334.46 4.46677 -5.35841 0
M  V30 46158 H 4330.36 4.89985 -4.2022 0
M  V30 46159 H 4331.13 5.29727 -6.23964 0
M  V30 46160 N 4333.79 0.763799 1.37855 0
M  V30 46161 C 4335.04 0.325012 2.00179 0
M  V30 46162 C 4335.37 -1.0934 1.60494 0
M  V30 46163 O 4334.64 -1.75073 0.847326 0
M  V30 46164 C 4334.93 0.459515 3.57156 0
M  V30 46165 C 4334.78 1.91977 4.06774 0
M  V30 46166 C 4336.1 -0.141 4.39874 0
M  V30 46167 H 4333.22 0.119568 0.727236 0
M  V30 46168 H 4335.86 0.965356 1.63649 0
M  V30 46169 H 4334.01 -0.0856326 3.88406 0
M  V30 46170 H 4335.68 2.52401 3.86124 0
M  V30 46171 H 4333.92 2.43133 3.59261 0
M  V30 46172 H 4334.6 1.96498 5.15842 0
M  V30 46173 H 4337.07 0.324048 4.14836 0
M  V30 46174 H 4335.95 -0.0167065 5.48897 0
M  V30 46175 H 4336.21 -1.23045 4.24632 0
M  V30 46176 N 4335.27 -1.48993 0.513692 0
M  V30 46177 C 4336.54 -1.95393 -0.0899195 0
M  V30 46178 C 4336.92 -1.45555 -1.52895 0
M  V30 46179 O 4336.27 -0.674847 -2.18307 0
M  V30 46180 C 4336.48 -3.48998 0.0105143 0
M  V30 46181 C 4337.83 -4.2431 -0.157012 0
M  V30 46182 O 4338.85 -3.56142 -0.0640673 0
M  V30 46183 O 4337.71 -5.45382 -0.349452 0
M  V30 46184 H 4334.81 -0.822271 -0.0883098 0
M  V30 46185 H 4337.35 -1.59585 0.577133 0
M  V30 46186 H 4336.13 -3.77945 1.01357 0
M  V30 46187 H 4335.75 -3.91459 -0.696119 0
M  V30 46188 N 4336.75 -0.248081 -1.55635 0
M  V30 46189 C 4337.66 0.661691 -2.25075 0
M  V30 46190 C 4338.67 1.19231 -1.26727 0
M  V30 46191 O 4339.85 1.22833 -1.59606 0
M  V30 46192 C 4336.91 1.84142 -2.93756 0
M  V30 46193 C 4335.97 1.35015 -4.07516 0
M  V30 46194 C 4335.21 2.47365 -4.72912 0
M  V30 46195 O 4335.43 3.66121 -4.37392 0
M  V30 46196 O 4334.36 2.17056 -5.614 0
M  V30 46197 H 4338.19 0.0999933 -3.03535 0
M  V30 46198 H 4335.77 -0.0165368 -1.49391 0
M  V30 46199 H 4337.66 2.52985 -3.37011 0
M  V30 46200 H 4336.33 2.39072 -2.18235 0
M  V30 46201 H 4335.24 0.628969 -3.68775 0
M  V30 46202 H 4336.57 0.84693 -4.84859 0
M  V30 46203 N 4338.22 1.5758 0.0250174 0
M  V30 46204 C 4339.19 2.05793 1.00905 0
M  V30 46205 C 4340.19 0.962767 1.28792 0
M  V30 46206 O 4341.38 1.22625 1.23728 0
M  V30 46207 C 4338.51 2.47829 2.3408 0
M  V30 46208 H 4339.7 2.93989 0.592501 0
M  V30 46209 H 4337.25 1.53916 0.271938 0
M  V30 46210 H 4337.99 1.62802 2.80475 0
M  V30 46211 H 4337.77 3.27789 2.15167 0
M  V30 46212 H 4339.26 2.85544 3.0472 0
M  V30 46213 N 4339.7 -0.29736 1.54769 0
M  V30 46214 C 4340.65 -1.36858 1.82357 0
M  V30 46215 C 4341.64 -1.45781 0.680934 0
M  V30 46216 O 4342.83 -1.49872 0.941666 0
M  V30 46217 C 4339.96 -2.733 2.07754 0
M  V30 46218 C 4339.04 -2.68585 3.28211 0
M  V30 46219 N 4339.43 -2.33486 4.48684 0
M  V30 46220 C 4337.73 -2.99683 3.30312 0
M  V30 46221 C 4338.43 -2.3816 5.30712 0
M  V30 46222 N 4337.41 -2.7566 4.68521 0
M  V30 46223 H 4341.21 -1.08691 2.73063 0
M  V30 46224 H 4338.72 -0.505949 1.54318 0
M  V30 46225 H 4340.72 -3.50543 2.25666 0
M  V30 46226 H 4339.38 -3.02376 1.18318 0
M  V30 46227 H 4340.39 -2.05878 4.7522 0
M  V30 46228 H 4337.07 -3.3363 2.50993 0
M  V30 46229 H 4338.46 -2.13791 6.3698 0
M  V30 46230 N 4341.18 -1.47287 -0.560729 0
M  V30 46231 C 4342.11 -1.55565 -1.68321 0
M  V30 46232 C 4343.12 -0.442132 -1.56681 0
M  V30 46233 O 4344.31 -0.711574 -1.63704 0
M  V30 46234 C 4341.41 -1.44055 -3.0676 0
M  V30 46235 C 4340.59 -2.69913 -3.44188 0
M  V30 46236 C 4339.65 -2.5229 -4.61775 0
M  V30 46237 O 4338.67 -3.26092 -4.66532 0
M  V30 46238 N 4339.87 -1.59886 -5.58047 0
M  V30 46239 H 4342.64 -2.52356 -1.61668 0
M  V30 46240 H 4340.2 -1.43622 -0.747279 0
M  V30 46241 H 4342.19 -1.30004 -3.83251 0
M  V30 46242 H 4340.76 -0.5536 -3.07659 0
M  V30 46243 H 4339.98 -2.9875 -2.57181 0
M  V30 46244 H 4341.27 -3.53475 -3.65968 0
M  V30 46245 H 4340.67 -0.990691 -5.56958 0
M  V30 46246 H 4339.22 -1.51789 -6.3388 0
M  V30 46247 N 4342.66 0.807175 -1.3536 0
M  V30 46248 C 4343.89 1.59328 -1.31523 0
M  V30 46249 C 4344.3 1.88883 0.109503 0
M  V30 46250 O 4343.64 1.49198 1.07171 0
M  V30 46251 C 4343.7 2.95056 -2.05383 0
M  V30 46252 C 4343.36 2.88319 -3.54572 0
M  V30 46253 C 4344.36 2.61797 -4.49175 0
M  V30 46254 C 4342.05 3.07455 -3.97211 0
M  V30 46255 C 4344.04 2.54486 -5.84393 0
M  V30 46256 C 4341.73 2.99767 -5.32525 0
M  V30 46257 C 4342.73 2.73318 -6.25928 0
M  V30 46258 O 4342.41 2.65592 -7.5876 0
M  V30 46259 H 4342.15 0.501436 -0.453362 0
M  V30 46260 H 4344.7 1.01114 -1.78788 0
M  V30 46261 H 4342.93 3.55251 -1.52755 0
M  V30 46262 H 4344.62 3.56193 -1.94631 0
M  V30 46263 H 4345.38 2.46733 -4.1755 0
M  V30 46264 H 4341.26 3.27053 -3.24896 0
M  V30 46265 H 4344.81 2.33762 -6.57268 0
M  V30 46266 H 4340.7 3.14389 -5.63764 0
M  V30 46267 H 4341.47 2.81204 -7.68678 0
M  V30 46268 N 4344.14 1.19348 1.02926 0
M  V30 46269 C 4345.38 0.990188 1.75722 0
M  V30 46270 C 4345.7 -0.479852 1.89623 0
M  V30 46271 O 4346.9 -0.801956 2.59386 0
M  V30 46272 C 4345.36 1.72276 3.15989 0
M  V30 46273 C 4344.97 3.23288 3.10143 0
M  V30 46274 C 4346.71 1.60269 3.93083 0
M  V30 46275 C 4344.62 3.89136 4.4534 0
M  V30 46276 H 4343.55 0.366866 0.65873 0
M  V30 46277 H 4346.2 1.4284 1.15191 0
M  V30 46278 H 4344.58 1.21236 3.76985 0
M  V30 46279 H 4345.76 3.81443 2.5853 0
M  V30 46280 H 4344.07 3.35565 2.46546 0
M  V30 46281 H 4346.67 2.06816 4.93083 0
M  V30 46282 H 4347.01 0.55678 4.1256 0
M  V30 46283 H 4347.54 2.08653 3.38687 0
M  V30 46284 H 4344.28 4.93823 4.31067 0
M  V30 46285 H 4343.8 3.35769 4.9701 0
M  V30 46286 H 4345.48 3.92661 5.14224 0
M  V30 46287 N 4345.61 -1.22028 0.997341 0
M  V30 46288 C 4346.54 -2.26402 0.571359 0
M  V30 46289 C 4347.52 -1.65233 -0.403996 0
M  V30 46290 O 4348.71 -1.91967 -0.293658 0
M  V30 46291 C 4345.84 -3.47124 -0.110411 0
M  V30 46292 C 4344.79 -4.20759 0.783939 0
M  V30 46293 C 4344.12 -5.34691 -0.0309947 0
M  V30 46294 C 4345.42 -4.7897 2.08291 0
M  V30 46295 H 4347.11 -2.62287 1.44381 0
M  V30 46296 H 4344.66 -1.26081 0.695678 0
M  V30 46297 H 4346.61 -4.19303 -0.419846 0
M  V30 46298 H 4345.34 -3.10348 -1.01744 0
M  V30 46299 H 4344 -3.5042 1.07708 0
M  V30 46300 H 4343.64 -4.94156 -0.939075 0
M  V30 46301 H 4343.34 -5.84883 0.564419 0
M  V30 46302 H 4344.87 -6.09684 -0.334421 0
M  V30 46303 H 4346.28 -5.43067 1.83713 0
M  V30 46304 H 4344.68 -5.39519 2.62752 0
M  V30 46305 H 4345.75 -3.98775 2.75874 0
M  V30 46306 N 4347.09 -0.771099 -1.37448 0
M  V30 46307 C 4348 -0.157672 -2.3407 0
M  V30 46308 C 4349.02 0.680376 -1.60146 0
M  V30 46309 O 4350.19 0.600448 -1.92241 0
M  V30 46310 C 4347.26 0.711674 -3.39317 0
M  V30 46311 C 4346.32 -0.142757 -4.29063 0
M  V30 46312 C 4345.55 0.685191 -5.29283 0
M  V30 46313 O 4345.78 1.92231 -5.37032 0
M  V30 46314 O 4344.71 0.0947373 -6.01825 0
M  V30 46315 H 4348.54 -0.956087 -2.88258 0
M  V30 46316 H 4346.12 -0.532249 -1.39598 0
M  V30 46317 H 4348 1.20799 -4.03715 0
M  V30 46318 H 4346.68 1.48829 -2.87457 0
M  V30 46319 H 4345.59 -0.685421 -3.67767 0
M  V30 46320 H 4346.92 -0.882441 -4.84225 0
M  V30 46321 N 4348.57 1.48719 -0.521586 0
M  V30 46322 C 4349.82 2.02494 0.01556 0
M  V30 46323 C 4350.15 1.39947 1.35075 0
M  V30 46324 O 4349.4 0.531629 1.88341 0
M  V30 46325 C 4349.7 3.56866 0.195343 0
M  V30 46326 C 4349.37 4.38156 -1.06442 0
M  V30 46327 C 4348.03 4.60088 -1.4097 0
M  V30 46328 C 4350.38 4.85301 -1.90084 0
M  V30 46329 C 4347.71 5.26411 -2.59052 0
M  V30 46330 C 4350.06 5.52925 -3.07338 0
M  V30 46331 C 4348.72 5.73098 -3.42221 0
M  V30 46332 H 4347.99 0.740978 0.00569381 0
M  V30 46333 H 4350.64 1.78795 -0.685911 0
M  V30 46334 H 4348.95 3.79358 0.979514 0
M  V30 46335 H 4350.64 3.96088 0.625735 0
M  V30 46336 H 4347.23 4.2134 -0.785513 0
M  V30 46337 H 4351.42 4.68167 -1.64721 0
M  V30 46338 H 4346.67 5.40229 -2.86292 0
M  V30 46339 H 4350.85 5.88426 -3.72461 0
M  V30 46340 H 4348.47 6.24263 -4.3382 0
M  V30 46341 N 4350.05 0.256331 1.55501 0
M  V30 46342 C 4351.33 -0.416596 1.91112 0
M  V30 46343 C 4351.71 -1.75156 1.17828 0
M  V30 46344 O 4351.05 -2.26537 0.298862 0
M  V30 46345 C 4351.26 -0.575401 3.44224 0
M  V30 46346 C 4352.61 -0.866955 4.15655 0
M  V30 46347 O 4353.64 -0.660916 3.50015 0
M  V30 46348 O 4352.49 -1.25988 5.31779 0
M  V30 46349 H 4349.59 -0.225069 0.795785 0
M  V30 46350 H 4352.13 0.301095 1.67008 0
M  V30 46351 H 4350.91 0.364835 3.89595 0
M  V30 46352 H 4350.53 -1.34328 3.74222 0
M  V30 46353 N 4351.53 -1.57591 -0.0166602 0
M  V30 46354 C 4352.77 -1.89458 -0.703563 0
M  V30 46355 C 4353.1 -0.855594 -1.75227 0
M  V30 46356 O 4352.37 0.109207 -1.95595 0
M  V30 46357 H 4350.95 -0.699228 -0.262849 0
M  V30 46358 H 4353.61 -1.94889 0.020325 0
M  V30 46359 H 4352.7 -2.88715 -1.18533 0
M  V30 46360 N 4353 0.289148 -1.54925 0
M  V30 46361 C 4354.25 1.02084 -1.74423 0
M  V30 46362 C 4354.57 1.87391 -0.539421 0
M  V30 46363 O 4353.84 1.90754 0.446071 0
M  V30 46364 H 4352.42 0.379897 -0.643186 0
M  V30 46365 H 4355.09 0.317273 -1.923 0
M  V30 46366 H 4354.18 1.66712 -2.63844 0
M  V30 46367 N 4354.48 1.47583 0.55291 0
M  V30 46368 C 4355.71 1.58299 1.34 0
M  V30 46369 C 4356.13 0.235143 1.86624 0
M  V30 46370 O 4355.49 -0.789674 1.63199 0
M  V30 46371 C 4355.54 2.6151 2.48284 0
M  V30 46372 O 4354.64 2.17079 3.50643 0
M  V30 46373 H 4353.98 0.531615 0.397846 0
M  V30 46374 H 4356.51 1.93397 0.667749 0
M  V30 46375 H 4356.52 2.82065 2.94793 0
M  V30 46376 H 4355.2 3.59375 2.09339 0
M  V30 46377 H 4353.78 2.06641 3.10409 0
M  V30 46378 N 4355.96 -0.799985 1.35787 0
M  V30 46379 C 4357.38 -1.09651 1.15969 0
M  V30 46380 C 4357.58 -2.01486 -0.0233857 0
M  V30 46381 O 4356.63 -2.42833 -0.691987 0
M  V30 46382 C 4357.95 -1.72114 2.46571 0
M  V30 46383 C 4359.49 -1.84504 2.52838 0
M  V30 46384 C 4359.97 -2.50383 3.835 0
M  V30 46385 N 4361.46 -2.57861 3.84788 0
M  V30 46386 C 4362.19 -3.09619 4.82621 0
M  V30 46387 N 4361.69 -3.61765 5.90845 0
M  V30 46388 N 4363.48 -3.08233 4.70052 0
M  V30 46389 H 4355.63 -0.189638 2.11552 0
M  V30 46390 H 4357.9 -0.146729 0.936576 0
M  V30 46391 H 4357.6 -1.12102 3.33356 0
M  V30 46392 H 4357.48 -2.71741 2.61604 0
M  V30 46393 H 4359.86 -2.43657 1.66478 0
M  V30 46394 H 4359.95 -0.837131 2.41714 0
M  V30 46395 H 4359.59 -1.91877 4.70261 0
M  V30 46396 H 4359.52 -3.51724 3.91916 0
M  V30 46397 H 4362.01 -2.20925 3.06595 0
M  V30 46398 H 4362.32 -3.99577 6.61482 0
M  V30 46399 H 4360.67 -3.59945 5.94529 0
M  V30 46400 H 4363.86 -2.66777 3.84639 0
M  V30 46401 H 4364.03 -3.48263 5.46458 0
M  V30 46402 N 4357.44 -1.19892 -1.02292 0
M  V30 46403 C 4358.69 -1.00323 -1.75441 0
M  V30 46404 C 4359.01 0.466455 -1.89339 0
M  V30 46405 O 4358.28 1.33755 -1.43131 0
M  V30 46406 H 4356.86 -0.368216 -0.649943 0
M  V30 46407 H 4359.52 -1.50892 -1.2336 0
M  V30 46408 H 4358.62 -1.45628 -2.76042 0
M  V30 46409 N 4358.92 1.21498 -1.0038 0
M  V30 46410 C 4359.86 2.23823 -0.563193 0
M  V30 46411 C 4360.83 1.60957 0.410123 0
M  V30 46412 O 4362.02 1.88224 0.31244 0
M  V30 46413 C 4359.16 3.4494 0.105216 0
M  V30 46414 C 4358.27 4.22282 -0.911134 0
M  V30 46415 C 4357.41 5.30764 -0.215112 0
M  V30 46416 C 4356.45 5.99837 -1.21909 0
M  V30 46417 N 4355.58 6.99937 -0.550629 0
M  V30 46418 H 4360.42 2.60873 -1.44046 0
M  V30 46419 H 4357.96 1.282 -0.721324 0
M  V30 46420 H 4359.92 4.14074 0.509766 0
M  V30 46421 H 4358.55 3.08621 0.946206 0
M  V30 46422 H 4357.6 3.52338 -1.43394 0
M  V30 46423 H 4358.91 4.69828 -1.67522 0
M  V30 46424 H 4358.07 6.06203 0.245606 0
M  V30 46425 H 4356.8 4.84222 0.581384 0
M  V30 46426 H 4355.81 5.23171 -1.69033 0
M  V30 46427 H 4357.03 6.48466 -2.01665 0
M  V30 46428 H 4354.98 6.5561 0.226232 0
M  V30 46429 H 4354.9 7.45544 -1.25298 0
M  V30 46430 H 4356.17 7.79418 -0.113075 0
M  V30 46431 N 4360.39 0.778378 1.37037 0
M  V30 46432 C 4361.64 0.34503 1.99133 0
M  V30 46433 C 4361.96 -1.08399 1.62094 0
M  V30 46434 O 4361.23 -1.74537 0.889577 0
M  V30 46435 H 4359.81 0.124585 0.736538 0
M  V30 46436 H 4362.48 0.997974 1.67411 0
M  V30 46437 H 4361.57 0.427981 3.09152 0
M  V30 46438 N 4361.87 -1.4844 0.529465 0
M  V30 46439 C 4362.78 -2.33395 -0.237432 0
M  V30 46440 C 4363.8 -1.46455 -0.939517 0
M  V30 46441 O 4364.98 -1.79436 -0.914591 0
M  V30 46442 C 4362.04 -3.22559 -1.2711 0
M  V30 46443 C 4361.1 -4.25372 -0.579416 0
M  V30 46444 C 4360.33 -5.10274 -1.56383 0
M  V30 46445 O 4360.56 -4.97149 -2.79641 0
M  V30 46446 O 4359.49 -5.91698 -1.10351 0
M  V30 46447 H 4363.32 -3.00216 0.458705 0
M  V30 46448 H 4360.9 -1.46551 0.290395 0
M  V30 46449 H 4362.78 -3.77712 -1.86846 0
M  V30 46450 H 4361.46 -2.584 -1.94965 0
M  V30 46451 H 4360.37 -3.74054 0.0584292 0
M  V30 46452 H 4361.7 -4.92167 0.0571886 0
M  V30 46453 N 4363.35 -0.264574 -1.55363 0
M  V30 46454 C 4364.3 0.641749 -2.18782 0
M  V30 46455 C 4365.29 1.12622 -1.14914 0
M  V30 46456 O 4366.48 1.07305 -1.40765 0
M  V30 46457 C 4363.61 1.83032 -2.90438 0
M  V30 46458 C 4362.69 1.36353 -4.01583 0
M  V30 46459 N 4363.08 0.612155 -5.02082 0
M  V30 46460 C 4361.38 1.64736 -4.14461 0
M  V30 46461 C 4362.08 0.368112 -5.80534 0
M  V30 46462 N 4361.06 0.937481 -5.35455 0
M  V30 46463 H 4364.86 0.0597294 -2.93839 0
M  V30 46464 H 4362.37 -0.0676615 -1.62259 0
M  V30 46465 H 4364.37 2.49079 -3.34313 0
M  V30 46466 H 4363.03 2.41639 -2.16888 0
M  V30 46467 H 4364.04 0.26052 -5.17244 0
M  V30 46468 H 4360.72 2.24355 -3.52095 0
M  V30 46469 H 4362.11 -0.232938 -6.71496 0
M  V30 46470 N 4364.83 1.57598 0.00830251 0
M  V30 46471 C 4366.08 1.90204 0.694878 0
M  V30 46472 C 4366.4 0.8644 1.74237 0
M  V30 46473 O 4365.66 -0.131942 1.95255 0
M  V30 46474 C 4365.96 3.29566 1.38278 0
M  V30 46475 C 4365.62 4.48451 0.469293 0
M  V30 46476 C 4364.29 4.80707 0.217756 0
M  V30 46477 C 4366.64 5.20954 -0.160149 0
M  V30 46478 C 4363.97 5.82843 -0.671656 0
M  V30 46479 C 4366.32 6.24036 -1.03739 0
M  V30 46480 C 4364.98 6.54754 -1.29818 0
M  V30 46481 H 4364.25 0.696007 0.254274 0
M  V30 46482 H 4366.9 1.91446 -0.0454423 0
M  V30 46483 H 4365.2 3.2441 2.19694 0
M  V30 46484 H 4366.9 3.52051 1.91992 0
M  V30 46485 H 4363.49 4.23243 0.675509 0
M  V30 46486 H 4367.68 4.96295 0.0211826 0
M  V30 46487 H 4362.93 6.05008 -0.881805 0
M  V30 46488 H 4367.11 6.79351 -1.53152 0
M  V30 46489 H 4364.73 7.33717 -1.98907 0
M  V30 46490 N 4366.31 -0.280928 1.55076 0
M  V30 46491 C 4367.72 -0.852542 1.66098 0
M  V30 46492 C 4368.07 -1.87345 0.58278 0
M  V30 46493 O 4367.19 -2.14618 -0.277128 0
M  V30 46494 C 4367.79 -1.55311 3.01104 0
M  V30 46495 C 4366.35 -2.07286 3.1418 0
M  V30 46496 C 4365.5 -0.912232 2.61866 0
M  V30 46497 H 4368.45 -0.0574555 1.58596 0
M  V30 46498 H 4368.47 -2.41971 2.9365 0
M  V30 46499 H 4367.98 -0.809837 3.79557 0
M  V30 46500 H 4366.08 -2.84599 2.40487 0
M  V30 46501 H 4366.19 -2.29361 4.20631 0
M  V30 46502 H 4364.56 -1.30341 2.18823 0
M  V30 46503 H 4365.34 -0.18259 3.42814 0
M  V30 46504 N 4367.79 -1.47874 -0.545076 0
M  V30 46505 C 4369.02 -1.58527 -1.32487 0
M  V30 46506 C 4369.42 -0.238965 -1.87685 0
M  V30 46507 O 4368.77 0.779723 -1.66331 0
M  V30 46508 C 4368.83 -2.56039 -2.52357 0
M  V30 46509 C 4368.49 -4.01459 -2.18357 0
M  V30 46510 C 4369.49 -4.89589 -1.74926 0
M  V30 46511 C 4367.17 -4.46886 -2.29344 0
M  V30 46512 C 4369.17 -6.21169 -1.42926 0
M  V30 46513 C 4366.86 -5.78491 -1.96956 0
M  V30 46514 C 4367.85 -6.65454 -1.53816 0
M  V30 46515 O 4367.54 -7.94612 -1.21846 0
M  V30 46516 H 4367.27 -0.53768 -0.409728 0
M  V30 46517 H 4369.83 -1.94307 -0.665886 0
M  V30 46518 H 4368.06 -2.15351 -3.21187 0
M  V30 46519 H 4369.75 -2.56689 -3.14429 0
M  V30 46520 H 4370.51 -4.55736 -1.65921 0
M  V30 46521 H 4366.39 -3.79395 -2.61879 0
M  V30 46522 H 4369.94 -6.89003 -1.09181 0
M  V30 46523 H 4365.83 -6.11882 -2.05597 0
M  V30 46524 H 4366.6 -8.07228 -1.35373 0
M  V30 46525 N 4369.26 0.792773 -1.36209 0
M  V30 46526 C 4370.17 1.93664 -1.32406 0
M  V30 46527 C 4371.19 1.72516 -0.226766 0
M  V30 46528 O 4372.37 1.9611 -0.458553 0
M  V30 46529 C 4369.43 3.28473 -1.10933 0
M  V30 46530 C 4368.49 3.62422 -2.30107 0
M  V30 46531 C 4367.72 4.90798 -2.09649 0
M  V30 46532 O 4367.95 5.60275 -1.06995 0
M  V30 46533 O 4366.88 5.23325 -2.97345 0
M  V30 46534 H 4370.71 1.99821 -2.28704 0
M  V30 46535 H 4368.29 0.932545 -1.16722 0
M  V30 46536 H 4370.17 4.09151 -1.00862 0
M  V30 46537 H 4368.85 3.23216 -0.176967 0
M  V30 46538 H 4367.76 2.82064 -2.45746 0
M  V30 46539 H 4369.09 3.72399 -3.21838 0
M  V30 46540 N 4370.74 1.20433 1.01654 0
M  V30 46541 C 4371.67 0.910992 2.10318 0
M  V30 46542 C 4372.69 -0.101272 1.62485 0
M  V30 46543 O 4373.88 0.129751 1.78028 0
M  V30 46544 C 4370.98 0.344248 3.37147 0
M  V30 46545 C 4370.15 1.40806 4.14116 0
M  V30 46546 C 4369.21 0.852633 5.19246 0
M  V30 46547 O 4368.23 1.53333 5.48158 0
M  V30 46548 N 4369.44 -0.33793 5.79516 0
M  V30 46549 H 4372.2 1.84639 2.36069 0
M  V30 46550 H 4369.76 1.10801 1.18045 0
M  V30 46551 H 4371.75 -0.0414668 4.04679 0
M  V30 46552 H 4370.32 -0.495703 3.08645 0
M  V30 46553 H 4369.54 1.96811 3.41554 0
M  V30 46554 H 4370.83 2.12452 4.62322 0
M  V30 46555 H 4370.23 -0.908224 5.58362 0
M  V30 46556 H 4368.79 -0.665282 6.48396 0
M  V30 46557 N 4372.22 -1.20963 1.01023 0
M  V30 46558 C 4373.13 -2.27201 0.584523 0
M  V30 46559 C 4374.15 -1.69912 -0.374947 0
M  V30 46560 O 4375.32 -1.99995 -0.237481 0
M  V30 46561 C 4372.39 -3.46615 -0.0769269 0
M  V30 46562 C 4371.45 -4.19157 0.927682 0
M  V30 46563 C 4370.68 -5.32869 0.297703 0
M  V30 46564 O 4370.9 -5.63188 -0.90419 0
M  V30 46565 O 4369.84 -5.93344 1.01125 0
M  V30 46566 H 4373.66 -2.65818 1.46882 0
M  V30 46567 H 4371.25 -1.2746 0.779378 0
M  V30 46568 H 4373.13 -4.19026 -0.446645 0
M  V30 46569 H 4371.81 -3.09887 -0.935518 0
M  V30 46570 H 4370.71 -3.48944 1.34865 0
M  V30 46571 H 4372.05 -4.59809 1.75603 0
M  V30 46572 N 4373.7 -0.785634 -1.36622 0
M  V30 46573 C 4374.95 -0.352896 -1.98589 0
M  V30 46574 C 4375.26 1.08032 -1.6306 0
M  V30 46575 O 4376.47 1.61514 -2.18233 0
M  V30 46576 C 4374.92 -0.580016 -3.55195 0
M  V30 46577 C 4374.53 -2.0244 -3.99652 0
M  V30 46578 C 4376.27 -0.211594 -4.23972 0
M  V30 46579 C 4374.18 -2.19838 -5.49022 0
M  V30 46580 H 4373.11 -0.128207 -0.74302 0
M  V30 46581 H 4375.76 -0.966732 -1.5597 0
M  V30 46582 H 4374.14 0.103478 -3.95865 0
M  V30 46583 H 4375.32 -2.74398 -3.70192 0
M  V30 46584 H 4373.63 -2.35071 -3.43701 0
M  V30 46585 H 4376.23 -0.319913 -5.33742 0
M  V30 46586 H 4376.57 0.839842 -4.07741 0
M  V30 46587 H 4377.11 -0.848176 -3.88653 0
M  V30 46588 H 4373.84 -3.23351 -5.70197 0
M  V30 46589 H 4373.36 -1.5238 -5.80121 0
M  V30 46590 H 4375.04 -2.00369 -6.15192 0
M  V30 46591 N 4375.18 1.48157 -0.53733 0
M  V30 46592 C 4376.12 2.29736 0.221406 0
M  V30 46593 C 4377.09 1.37827 0.926981 0
M  V30 46594 O 4378.28 1.66791 0.926572 0
M  V30 46595 C 4375.42 3.21361 1.25783 0
M  V30 46596 C 4374.53 4.2835 0.560351 0
M  V30 46597 C 4373.67 5.07148 1.58034 0
M  V30 46598 C 4372.7 6.05932 0.866734 0
M  V30 46599 N 4371.84 6.77761 1.83261 0
M  V30 46600 H 4376.68 2.94102 -0.480423 0
M  V30 46601 H 4374.22 1.44981 -0.248755 0
M  V30 46602 H 4376.18 3.72888 1.87111 0
M  V30 46603 H 4374.81 2.58902 1.92795 0
M  V30 46604 H 4373.86 3.80033 -0.167027 0
M  V30 46605 H 4375.17 4.988 0.000386563 0
M  V30 46606 H 4374.32 5.62726 2.2677 0
M  V30 46607 H 4373.06 4.36554 2.17421 0
M  V30 46608 H 4372.07 5.49551 0.165341 0
M  V30 46609 H 4373.29 6.78527 0.278879 0
M  V30 46610 H 4371.24 6.09913 2.41542 0
M  V30 46611 H 4371.16 7.44311 1.32428 0
M  V30 46612 H 4372.42 7.37924 2.51173 0
M  V30 46613 N 4376.65 0.272809 1.55221 0
M  V30 46614 C 4377.9 -0.344632 1.99546 0
M  V30 46615 C 4378.23 -1.56034 1.16119 0
M  V30 46616 O 4377.48 -1.94479 0.218289 0
M  V30 46617 C 4377.78 -0.773049 3.48939 0
M  V30 46618 C 4377.45 0.337763 4.49633 0
M  V30 46619 C 4376.11 0.642779 4.76888 0
M  V30 46620 C 4378.46 1.08639 5.09752 0
M  V30 46621 C 4375.79 1.70004 5.6153 0
M  V30 46622 C 4378.14 2.13335 5.95542 0
M  V30 46623 C 4376.81 2.44474 6.21119 0
M  V30 46624 H 4376.08 -0.12611 0.73019 0
M  V30 46625 H 4378.72 0.386041 1.87569 0
M  V30 46626 H 4377.03 -1.58336 3.58381 0
M  V30 46627 H 4378.73 -1.26149 3.80641 0
M  V30 46628 H 4375.32 0.0899087 4.28506 0
M  V30 46629 H 4379.5 0.863995 4.88722 0
M  V30 46630 H 4374.76 1.94634 5.79593 0
M  V30 46631 H 4378.93 2.71819 6.41161 0
M  V30 46632 H 4376.56 3.26533 6.86498 0
M  V30 46633 N 4378.13 -1.576 5.54043e-05 0
M  V30 46634 C 4379.38 -1.9057 -0.684781 0
M  V30 46635 C 4379.71 -0.873628 -1.73776 0
M  V30 46636 O 4378.96 0.121585 -1.95322 0
M  V30 46637 C 4379.26 -3.30295 -1.36529 0
M  V30 46638 C 4378.93 -4.48694 -0.445504 0
M  V30 46639 C 4377.59 -4.80816 -0.19226 0
M  V30 46640 C 4379.94 -5.20862 0.187775 0
M  V30 46641 C 4377.27 -5.82478 0.702556 0
M  V30 46642 C 4379.62 -6.23477 1.07047 0
M  V30 46643 C 4378.29 -6.54057 1.33289 0
M  V30 46644 H 4377.56 -0.697346 -0.250579 0
M  V30 46645 H 4380.2 -1.91419 0.0555945 0
M  V30 46646 H 4378.51 -3.2557 -2.17971 0
M  V30 46647 H 4380.2 -3.53064 -1.90122 0
M  V30 46648 H 4376.79 -4.23596 -0.653054 0
M  V30 46649 H 4380.98 -4.963 0.00513747 0
M  V30 46650 H 4376.23 -6.04531 0.913877 0
M  V30 46651 H 4380.41 -6.78529 1.56753 0
M  V30 46652 H 4378.04 -7.32652 2.02795 0
M  V30 46653 N 4379.61 0.2727 -1.55223 0
M  V30 46654 C 4380.57 1.32034 -1.87349 0
M  V30 46655 C 4381.57 1.42339 -0.74808 0
M  V30 46656 O 4382.76 1.41485 -1.01625 0
M  V30 46657 C 4379.9 2.70166 -2.07902 0
M  V30 46658 H 4381.09 1.04779 -2.81001 0
M  V30 46659 H 4378.64 0.510778 -1.47718 0
M  V30 46660 H 4379.38 3.02601 -1.16633 0
M  V30 46661 H 4379.16 2.64072 -2.89842 0
M  V30 46662 H 4380.65 3.45861 -2.3403 0
M  V30 46663 N 4381.09 1.48161 0.537226 0
M  V30 46664 C 4382.04 1.62144 1.6425 0
M  V30 46665 C 4383.01 0.463724 1.59495 0
M  V30 46666 O 4384.19 0.686304 1.7803 0
M  V30 46667 C 4381.33 1.66038 3.02532 0
M  V30 46668 C 4380.44 2.92866 3.17574 0
M  V30 46669 C 4379.58 2.87968 4.46372 0
M  V30 46670 C 4378.62 4.09532 4.54918 0
M  V30 46671 N 4377.75 4.02753 5.75095 0
M  V30 46672 H 4382.59 2.56534 1.51638 0
M  V30 46673 H 4380.13 1.27226 0.738369 0
M  V30 46674 H 4382.09 1.66278 3.82632 0
M  V30 46675 H 4380.72 0.751442 3.13932 0
M  V30 46676 H 4379.77 3.02403 2.30773 0
M  V30 46677 H 4381.08 3.82833 3.19751 0
M  V30 46678 H 4380.24 2.86569 5.34755 0
M  V30 46679 H 4378.98 1.95718 4.46706 0
M  V30 46680 H 4377.98 4.11214 3.64942 0
M  V30 46681 H 4379.21 5.02933 4.56328 0
M  V30 46682 H 4377.15 3.13319 5.7634 0
M  V30 46683 H 4377.07 4.86418 5.78735 0
M  V30 46684 H 4378.34 4.05402 6.65785 0
M  V30 46685 N 4382.57 -0.785538 1.36627 0
M  V30 46686 C 4383.81 -1.54586 1.31267 0
M  V30 46687 C 4384.15 -1.93906 -0.106755 0
M  V30 46688 O 4383.42 -1.63011 -1.06102 0
M  V30 46689 C 4383.7 -2.8203 2.23899 0
M  V30 46690 C 4383.56 -2.49052 3.74557 0
M  V30 46691 C 4384.88 -3.8388 2.15231 0
M  V30 46692 H 4381.99 -0.56083 0.478162 0
M  V30 46693 H 4384.64 -0.902219 1.67212 0
M  V30 46694 H 4382.79 -3.36954 1.93375 0
M  V30 46695 H 4384.46 -2.00149 4.15618 0
M  V30 46696 H 4382.7 -1.8194 3.93802 0
M  V30 46697 H 4383.37 -3.40093 4.34788 0
M  V30 46698 H 4385.85 -3.38413 2.42107 0
M  V30 46699 H 4384.72 -4.70796 2.82209 0
M  V30 46700 H 4384.99 -4.27127 1.14083 0
M  V30 46701 N 4384.04 -1.20971 -1.01014 0
M  V30 46702 C 4385.29 -1.02532 -1.74971 0
M  V30 46703 C 4385.62 0.440734 -1.89133 0
M  V30 46704 O 4384.9 1.32713 -1.42188 0
M  V30 46705 C 4385.18 -1.7171 -3.16524 0
M  V30 46706 C 4385.03 -3.25802 -3.10118 0
M  V30 46707 C 4386.35 -1.45546 -4.15336 0
M  V30 46708 H 4383.47 -0.373885 -0.635121 0
M  V30 46709 H 4386.11 -1.49075 -1.178 0
M  V30 46710 H 4384.26 -1.32141 -3.65337 0
M  V30 46711 H 4385.94 -3.74706 -2.69059 0
M  V30 46712 H 4384.18 -3.56372 -2.47349 0
M  V30 46713 H 4384.85 -3.69368 -4.10209 0
M  V30 46714 H 4387.33 -1.79886 -3.75207 0
M  V30 46715 H 4386.2 -1.96471 -5.12533 0
M  V30 46716 H 4386.46 -0.384392 -4.40426 0
M  V30 46717 N 4385.52 1.20426 -1.01663 0
M  V30 46718 C 4386.45 2.25464 -0.607305 0
M  V30 46719 C 4387.43 1.65855 0.377658 0
M  V30 46720 O 4388.62 1.9241 0.263081 0
M  V30 46721 C 4385.75 3.47256 0.0551728 0
M  V30 46722 C 4384.7 4.19459 -0.850779 0
M  V30 46723 C 4384.03 5.34673 -0.0540739 0
M  V30 46724 C 4385.33 4.75596 -2.15885 0
M  V30 46725 H 4387.02 2.59957 -1.48535 0
M  V30 46726 H 4384.57 1.24958 -0.715649 0
M  V30 46727 H 4386.52 4.19918 0.353085 0
M  V30 46728 H 4385.25 3.11927 0.967936 0
M  V30 46729 H 4383.9 3.48663 -1.1327 0
M  V30 46730 H 4383.55 4.95588 0.86034 0
M  V30 46731 H 4383.25 5.83911 -0.657397 0
M  V30 46732 H 4384.78 6.10138 0.237383 0
M  V30 46733 H 4386.19 5.40076 -1.9233 0
M  V30 46734 H 4384.59 5.35271 -2.71302 0
M  V30 46735 H 4385.66 3.94336 -2.82183 0
M  V30 46736 N 4387 0.792868 1.36203 0
M  V30 46737 C 4388.41 0.429577 1.81691 0
M  V30 46738 C 4388.76 -1.04689 1.65936 0
M  V30 46739 O 4387.89 -1.81251 1.18224 0
M  V30 46740 C 4388.48 0.772947 3.29865 0
M  V30 46741 C 4387.04 0.462438 3.73548 0
M  V30 46742 C 4386.19 1.00578 2.58417 0
M  V30 46743 H 4389.14 0.985716 1.24376 0
M  V30 46744 H 4389.16 0.0653265 3.80444 0
M  V30 46745 H 4388.67 1.84759 3.413 0
M  V30 46746 H 4386.77 -0.604029 3.67671 0
M  V30 46747 H 4386.89 0.985464 4.68855 0
M  V30 46748 H 4385.25 0.428822 2.51064 0
M  V30 46749 H 4386.03 2.08626 2.72636 0
M  V30 46750 N 4388.48 -1.4787 0.54518 0
M  V30 46751 C 4389.41 -2.32661 -0.197711 0
M  V30 46752 C 4390.39 -1.43044 -0.920453 0
M  V30 46753 O 4391.57 -1.71915 -0.90327 0
M  V30 46754 C 4388.7 -3.24573 -1.23571 0
M  V30 46755 C 4387.66 -4.23335 -0.630174 0
M  V30 46756 C 4386.98 -5.04487 -1.77193 0
M  V30 46757 C 4388.28 -5.20703 0.408157 0
M  V30 46758 H 4389.98 -2.95022 0.510149 0
M  V30 46759 H 4387.52 -1.4187 0.246781 0
M  V30 46760 H 4389.48 -3.82726 -1.76349 0
M  V30 46761 H 4388.2 -2.60243 -1.97335 0
M  V30 46762 H 4386.86 -3.66391 -0.123793 0
M  V30 46763 H 4386.51 -4.36569 -2.49832 0
M  V30 46764 H 4386.21 -5.71343 -1.37261 0
M  V30 46765 H 4387.73 -5.65495 -2.3032 0
M  V30 46766 H 4389.15 -5.7329 -0.0331035 0
M  V30 46767 H 4387.54 -5.95696 0.725695 0
M  V30 46768 H 4388.61 -4.66913 1.30845 0
M  V30 46769 N 4389.96 -0.281037 -1.55074 0
M  V30 46770 C 4391.21 0.334714 -1.98903 0
M  V30 46771 C 4391.52 1.5653 -1.17294 0
M  V30 46772 O 4392.72 2.25437 -1.51295 0
M  V30 46773 C 4391.18 0.646869 -3.54039 0
M  V30 46774 C 4390.79 -0.564241 -4.44433 0
M  V30 46775 C 4392.53 1.22492 -4.06443 0
M  V30 46776 C 4390.44 -0.226345 -5.90967 0
M  V30 46777 H 4389.37 0.12884 -0.742911 0
M  V30 46778 H 4392.02 -0.386619 -1.79381 0
M  V30 46779 H 4390.4 1.42726 -3.69385 0
M  V30 46780 H 4391.58 -1.34097 -4.40857 0
M  V30 46781 H 4389.89 -1.05954 -4.02694 0
M  V30 46782 H 4392.49 1.49163 -5.13473 0
M  V30 46783 H 4392.83 2.16073 -3.55834 0
M  V30 46784 H 4393.36 0.506682 -3.9456 0
M  V30 46785 H 4390.1 -1.13019 -6.45683 0
M  V30 46786 H 4389.62 0.513507 -5.97598 0
M  V30 46787 H 4391.3 0.179312 -6.46751 0
M  V30 46788 N 4391.44 1.57598 -0.00841331 0
M  V30 46789 C 4392.71 1.82174 0.712171 0
M  V30 46790 C 4393.09 0.887941 1.91517 0
M  V30 46791 O 4392.44 -0.0613797 2.28418 0
M  V30 46792 C 4392.65 3.30879 1.10996 0
M  V30 46793 C 4394 3.96831 1.5103 0
M  V30 46794 O 4395.02 3.35252 1.20352 0
M  V30 46795 O 4393.88 5.05325 2.08107 0
M  V30 46796 H 4390.98 0.750447 0.347502 0
M  V30 46797 H 4393.52 1.69665 -0.0345119 0
M  V30 46798 H 4392.29 3.90482 0.252844 0
M  V30 46799 H 4391.92 3.48418 1.91548 0
M  V30 46800 N 4392.91 -0.264465 1.55365 0
M  V30 46801 C 4393.85 -1.34959 1.85253 0
M  V30 46802 C 4394.86 -1.45133 0.737576 0
M  V30 46803 O 4396.05 -1.46797 1.01552 0
M  V30 46804 C 4393.15 -2.73001 2.00807 0
M  V30 46805 C 4392.32 -2.85313 3.31535 0
M  V30 46806 C 4391.38 -4.04085 3.37048 0
M  V30 46807 O 4390.41 -3.94441 4.10372 0
M  V30 46808 N 4391.61 -5.16449 2.65067 0
M  V30 46809 H 4394.37 -1.09662 2.78916 0
M  V30 46810 H 4391.93 -0.454581 1.55387 0
M  V30 46811 H 4393.93 -3.50765 2.01856 0
M  V30 46812 H 4392.5 -2.91083 1.1397 0
M  V30 46813 H 4391.72 -1.94365 3.42952 0
M  V30 46814 H 4393 -2.90475 4.17734 0
M  V30 46815 H 4392.4 -5.27174 2.05194 0
M  V30 46816 H 4390.96 -5.92412 2.7183 0
M  V30 46817 N 4394.39 -1.48444 -0.529361 0
M  V30 46818 C 4395.62 -1.59923 -1.30798 0
M  V30 46819 C 4396.03 -0.258858 -1.87421 0
M  V30 46820 O 4395.37 0.762037 -1.67149 0
M  V30 46821 C 4395.43 -2.58702 -2.49627 0
M  V30 46822 C 4395.1 -4.03752 -2.14087 0
M  V30 46823 C 4396.1 -4.91416 -1.69723 0
M  V30 46824 C 4393.78 -4.49293 -2.24591 0
M  V30 46825 C 4395.77 -6.2265 -1.36329 0
M  V30 46826 C 4393.46 -5.80547 -1.90809 0
M  V30 46827 C 4394.46 -6.67048 -1.4675 0
M  V30 46828 O 4394.15 -7.9586 -1.13412 0
M  V30 46829 H 4393.88 -0.541995 -0.404002 0
M  V30 46830 H 4396.43 -1.95002 -0.64524 0
M  V30 46831 H 4394.66 -2.18745 -3.18885 0
M  V30 46832 H 4396.35 -2.6001 -3.11689 0
M  V30 46833 H 4397.12 -4.5747 -1.61078 0
M  V30 46834 H 4393 -3.82151 -2.5784 0
M  V30 46835 H 4396.54 -6.90122 -1.01867 0
M  V30 46836 H 4392.44 -6.14029 -1.99096 0
M  V30 46837 H 4393.21 -8.08618 -1.26804 0
M  V30 46838 N 4395.87 0.778281 -1.37042 0
M  V30 46839 C 4397.12 1.5366 -1.31889 0
M  V30 46840 C 4397.44 1.9425 0.098562 0
M  V30 46841 O 4396.7 1.63835 1.07035 0
M  V30 46842 C 4397 2.81838 -2.19778 0
M  V30 46843 C 4396.66 2.60332 -3.68155 0
M  V30 46844 C 4395.33 2.54175 -4.08593 0
M  V30 46845 C 4397.68 2.40907 -4.62183 0
M  V30 46846 C 4395.01 2.26575 -5.41185 0
M  V30 46847 C 4397.36 2.14832 -5.95004 0
M  V30 46848 C 4396.02 2.07115 -6.34555 0
M  V30 46849 H 4395.29 0.562282 -0.482617 0
M  V30 46850 H 4397.94 0.897009 -1.69192 0
M  V30 46851 H 4396.24 3.50322 -1.75448 0
M  V30 46852 H 4397.94 3.39685 -2.13109 0
M  V30 46853 H 4394.53 2.65984 -3.36081 0
M  V30 46854 H 4398.72 2.44658 -4.31806 0
M  V30 46855 H 4393.97 2.19091 -5.70797 0
M  V30 46856 H 4398.15 1.98799 -6.67422 0
M  V30 46857 H 4395.77 1.85492 -7.37222 0
M  V30 46858 N 4397.35 1.21505 1.00371 0
M  V30 46859 C 4398.29 0.975461 2.09173 0
M  V30 46860 C 4399.26 -0.0990032 1.65805 0
M  V30 46861 O 4400.45 0.0483818 1.90739 0
M  V30 46862 C 4397.59 0.547627 3.40727 0
M  V30 46863 C 4396.7 1.69167 3.975 0
M  V30 46864 C 4395.84 1.21288 5.17168 0
M  V30 46865 C 4394.88 2.32917 5.66053 0
M  V30 46866 N 4394.01 1.86162 6.7697 0
M  V30 46867 H 4398.85 1.90688 2.29002 0
M  V30 46868 H 4396.39 0.950297 1.12284 0
M  V30 46869 H 4398.35 0.280814 4.16254 0
M  V30 46870 H 4396.98 -0.346791 3.20932 0
M  V30 46871 H 4396.03 2.07309 3.18947 0
M  V30 46872 H 4397.34 2.53175 4.29772 0
M  V30 46873 H 4396.5 0.902802 5.99945 0
M  V30 46874 H 4395.24 0.342863 4.86493 0
M  V30 46875 H 4394.24 2.64726 4.81871 0
M  V30 46876 H 4395.47 3.20417 5.98757 0
M  V30 46877 H 4393.41 1.01507 6.48099 0
M  V30 46878 H 4393.33 2.63742 7.08503 0
M  V30 46879 H 4394.6 1.58192 7.63279 0
M  V30 46880 N 4398.83 -1.19885 1.023 0
M  V30 46881 C 4399.77 -2.24936 0.59216 0
M  V30 46882 C 4400.77 -1.65258 -0.372299 0
M  V30 46883 O 4401.97 -1.78372 -0.24152 0
M  V30 46884 H 4398.35 -0.731781 0.173208 0
M  V30 46885 H 4400.32 -2.58598 1.48894 0
M  V30 46886 C 4399.07 -3.47668 -0.0472288 0
M  V30 46887 H 4398.39 -3.93872 0.68591 0
M  V30 46888 H 4399.83 -4.22853 -0.311713 0
M  V30 46889 C 4398.29 -3.11141 -1.29201 0
M  V30 46890 O 4398.82 -3.23258 -2.38468 0
M  V30 46891 N 4397.03 -2.65629 -1.17854 0
M  V30 46892 H 4396.57 -2.55969 -0.289403 0
M  V30 46893 H 4396.53 -2.4156 -2.01237 0
M  V30 46894 N 4400.3 -0.80008 -1.35781 0
M  V30 46895 C 4401.25 -0.178734 -2.27298 0
M  V30 46896 C 4402.24 0.643615 -1.47467 0
M  V30 46897 O 4403.43 0.50194 -1.69734 0
M  V30 46898 C 4400.56 0.677076 -3.36557 0
M  V30 46899 C 4399.64 -0.154646 -4.23818 0
M  V30 46900 N 4400.04 -1.21444 -4.91004 0
M  V30 46901 C 4398.33 0.0647894 -4.45953 0
M  V30 46902 C 4399.03 -1.72167 -5.55638 0
M  V30 46903 N 4398.01 -1.02916 -5.33769 0
M  V30 46904 H 4401.81 -0.989735 -2.76734 0
M  V30 46905 H 4399.33 -0.640592 -1.49232 0
M  V30 46906 H 4401.32 1.13821 -4.01062 0
M  V30 46907 H 4399.98 1.4865 -2.88675 0
M  V30 46908 H 4400.99 -1.59702 -4.92662 0
M  V30 46909 H 4397.67 0.843872 -4.08883 0
M  V30 46910 H 4399.06 -2.60705 -6.1926 0
M  V30 46911 N 4401.78 1.47579 -0.553014 0
M  V30 46912 C 4403.2 1.58179 -0.21248 0
M  V30 46913 C 4403.4 1.55217 1.28491 0
M  V30 46914 O 4402.45 1.45336 2.06479 0
M  V30 46915 C 4403.77 2.88862 -0.835419 0
M  V30 46916 C 4405.31 3.02437 -0.806262 0
M  V30 46917 C 4405.79 4.35814 -1.40819 0
M  V30 46918 N 4407.28 4.42439 -1.37119 0
M  V30 46919 C 4408.02 5.44196 -1.8066 0
M  V30 46920 N 4407.51 6.52786 -2.32038 0
M  V30 46921 N 4409.3 5.35216 -1.71757 0
M  V30 46922 H 4401.46 1.47747 -1.52593 0
M  V30 46923 H 4403.72 0.702919 -0.636089 0
M  V30 46924 H 4403.42 2.96754 -1.8876 0
M  V30 46925 H 4403.3 3.75789 -0.32598 0
M  V30 46926 H 4405.69 2.94145 0.237214 0
M  V30 46927 H 4405.77 2.17063 -1.35341 0
M  V30 46928 H 4405.41 4.44862 -2.45072 0
M  V30 46929 H 4405.34 5.19913 -0.836521 0
M  V30 46930 H 4407.83 3.64557 -0.99533 0
M  V30 46931 H 4408.14 7.266 -2.63197 0
M  V30 46932 H 4406.49 6.53687 -2.36046 0
M  V30 46933 H 4409.68 4.4928 -1.31398 0
M  V30 46934 H 4409.85 6.14381 -2.06009 0
M  V30 46935 N 4403.26 0.289257 1.54923 0
M  V30 46936 C 4404.19 -0.58541 2.26042 0
M  V30 46937 C 4405.17 -1.14748 1.25566 0
M  V30 46938 O 4406.36 -1.179 1.54315 0
M  V30 46939 C 4403.49 -1.76295 2.99228 0
M  V30 46940 C 4402.44 -1.33177 4.06753 0
M  V30 46941 C 4401.77 -2.59354 4.67589 0
M  V30 46942 C 4403.07 -0.471593 5.20167 0
M  V30 46943 H 4404.76 0.00774057 2.99399 0
M  V30 46944 H 4402.31 0.00516291 1.43999 0
M  V30 46945 H 4404.26 -2.38085 3.47698 0
M  V30 46946 H 4402.98 -2.38215 2.2343 0
M  V30 46947 H 4401.64 -0.736995 3.59115 0
M  V30 46948 H 4401.29 -3.19563 3.88444 0
M  V30 46949 H 4400.99 -2.31209 5.402 0
M  V30 46950 H 4402.51 -3.21967 5.18816 0
M  V30 46951 H 4403.93 -0.994857 5.64602 0
M  V30 46952 H 4402.32 -0.284429 5.99426 0
M  V30 46953 H 4403.39 0.50621 4.8225 0
M  V30 46954 N 4404.74 -1.57591 0.016771 0
M  V30 46955 C 4405.97 -1.95294 -0.67408 0
M  V30 46956 C 4406.38 -0.891155 -1.66898 0
M  V30 46957 O 4405.72 0.136843 -1.8319 0
M  V30 46958 C 4405.78 -3.29077 -1.44736 0
M  V30 46959 C 4405.44 -4.52881 -0.612172 0
M  V30 46960 C 4406.44 -5.19789 0.107309 0
M  V30 46961 C 4404.13 -4.99244 -0.553205 0
M  V30 46962 C 4406.12 -6.31372 0.874561 0
M  V30 46963 C 4403.81 -6.10712 0.21776 0
M  V30 46964 C 4404.81 -6.76634 0.930361 0
M  V30 46965 O 4404.49 -7.85963 1.68871 0
M  V30 46966 H 4404.23 -0.648281 -0.191592 0
M  V30 46967 H 4406.78 -2.05284 0.069087 0
M  V30 46968 H 4405.01 -3.15543 -2.23539 0
M  V30 46969 H 4406.7 -3.51771 -2.02514 0
M  V30 46970 H 4407.46 -4.84948 0.0710097 0
M  V30 46971 H 4403.34 -4.47748 -1.09741 0
M  V30 46972 H 4406.89 -6.82759 1.4313 0
M  V30 46973 H 4402.78 -6.44993 0.25582 0
M  V30 46974 H 4403.55 -8.02566 1.60719 0
M  V30 46975 N 4406.22 0.256222 -1.55503 0
M  V30 46976 C 4407.46 0.985557 -1.76898 0
M  V30 46977 C 4407.79 1.85669 -0.57942 0
M  V30 46978 O 4407.05 1.90745 0.437584 0
M  V30 46979 C 4407.35 1.88421 -3.03698 0
M  V30 46980 C 4407.01 1.1692 -4.35477 0
M  V30 46981 C 4405.67 0.971564 -4.7129 0
M  V30 46982 C 4408.03 0.661707 -5.16982 0
M  V30 46983 C 4405.35 0.253973 -5.8615 0
M  V30 46984 C 4407.71 -0.0423713 -6.32586 0
M  V30 46985 C 4406.37 -0.251575 -6.67026 0
M  V30 46986 H 4405.64 0.360641 -0.647317 0
M  V30 46987 H 4408.29 0.256416 -1.89776 0
M  V30 46988 H 4406.59 2.68011 -2.85792 0
M  V30 46989 H 4408.29 2.45004 -3.17449 0
M  V30 46990 H 4404.88 1.33318 -4.07338 0
M  V30 46991 H 4409.06 0.801973 -4.89778 0
M  V30 46992 H 4404.32 0.0813259 -6.11346 0
M  V30 46993 H 4408.49 -0.443293 -6.94988 0
M  V30 46994 H 4406.12 -0.80958 -7.55877 0
M  V30 46995 N 4407.69 1.48722 0.521481 0
M  V30 46996 C 4408.62 1.66777 1.63425 0
M  V30 46997 C 4409.61 0.516556 1.62067 0
M  V30 46998 O 4410.79 0.750076 1.7913 0
M  V30 46999 C 4407.92 1.71526 3.01987 0
M  V30 47000 C 4406.87 2.86233 3.18206 0
M  V30 47001 C 4406.2 2.76077 4.57914 0
M  V30 47002 C 4407.5 4.27429 3.00169 0
M  V30 47003 H 4409.19 2.59937 1.4857 0
M  V30 47004 H 4406.74 1.25091 0.713314 0
M  V30 47005 H 4408.69 1.82744 3.79714 0
M  V30 47006 H 4407.42 0.749505 3.17884 0
M  V30 47007 H 4406.08 2.74583 2.42898 0
M  V30 47008 H 4405.72 1.77453 4.70658 0
M  V30 47009 H 4405.42 3.53053 4.6971 0
M  V30 47010 H 4406.95 2.89275 5.37729 0
M  V30 47011 H 4408.36 4.39868 3.67681 0
M  V30 47012 H 4406.76 5.05469 3.23452 0
M  V30 47013 H 4407.83 4.433 1.96503 0
M  V30 47014 N 4409.17 -0.771003 1.37453 0
M  V30 47015 C 4410.4 -1.56524 1.3607 0
M  V30 47016 C 4410.82 -1.88029 -0.0515198 0
M  V30 47017 O 4410.18 -1.49285 -1.02877 0
M  V30 47018 C 4410.23 -2.85179 2.20693 0
M  V30 47019 O 4409.33 -3.79587 1.61206 0
M  V30 47020 H 4408.67 -0.474093 0.464899 0
M  V30 47021 H 4411.2 -0.954205 1.80986 0
M  V30 47022 H 4411.21 -3.34274 2.33933 0
M  V30 47023 H 4409.89 -2.61576 3.23343 0
M  V30 47024 H 4408.47 -3.38234 1.57011 0
M  V30 47025 N 4410.65 -1.22035 -0.997255 0
M  V30 47026 C 4411.61 -0.987982 -2.06813 0
M  V30 47027 C 4412.61 0.0439519 -1.6074 0
M  V30 47028 O 4413.8 -0.194114 -1.73115 0
M  V30 47029 C 4410.94 -0.491439 -3.37339 0
M  V30 47030 H 4412.13 -1.93811 -2.28861 0
M  V30 47031 H 4409.68 -1.03843 -1.16818 0
M  V30 47032 H 4410.42 0.463251 -3.20974 0
M  V30 47033 H 4410.2 -1.23588 -3.72113 0
M  V30 47034 H 4411.69 -0.348971 -4.16139 0
M  V30 47035 N 4412.13 1.19341 -1.02934 0
M  V30 47036 C 4413.09 2.20791 -0.615146 0
M  V30 47037 C 4414.09 1.57554 0.321478 0
M  V30 47038 O 4415.28 1.73862 0.108422 0
M  V30 47039 C 4412.41 3.40754 0.0998024 0
M  V30 47040 H 4413.61 2.5895 -1.51278 0
M  V30 47041 H 4411.16 1.33027 -0.820581 0
M  V30 47042 H 4411.89 3.08113 1.01176 0
M  V30 47043 H 4411.68 3.87887 -0.573226 0
M  V30 47044 H 4413.17 4.15899 0.376499 0
M  V30 47045 N 4413.61 0.80727 1.35355 0
M  V30 47046 C 4414.83 0.399381 2.03518 0
M  V30 47047 C 4415.26 -0.98193 1.60436 0
M  V30 47048 O 4414.61 -1.63599 0.781357 0
M  V30 47049 C 4414.66 0.491678 3.57232 0
M  V30 47050 O 4413.77 -0.49461 4.09423 0
M  V30 47051 H 4413.11 0.166704 0.642733 0
M  V30 47052 H 4415.64 1.09334 1.72937 0
M  V30 47053 H 4415.65 0.36173 4.06393 0
M  V30 47054 H 4414.32 1.49921 3.87939 0
M  V30 47055 H 4412.9 -0.324846 3.71482 0
M  V30 47056 N 4415.08 -1.47283 0.560833 0
M  V30 47057 C 4416.5 -1.58064 0.220865 0
M  V30 47058 C 4416.7 -1.55896 -1.27666 0
M  V30 47059 O 4415.76 -1.46429 -2.05705 0
M  V30 47060 C 4417.07 -2.88415 0.850727 0
M  V30 47061 C 4418.62 -3.02006 0.82229 0
M  V30 47062 C 4419.09 -4.35061 1.43129 0
M  V30 47063 N 4420.58 -4.41706 1.39463 0
M  V30 47064 C 4421.32 -5.4323 1.83544 0
M  V30 47065 N 4420.81 -6.51547 2.35497 0
M  V30 47066 N 4422.61 -5.34298 1.74593 0
M  V30 47067 H 4414.76 -1.46936 1.53374 0
M  V30 47068 H 4417.02 -0.699536 0.639807 0
M  V30 47069 H 4416.73 -2.95748 1.90331 0
M  V30 47070 H 4416.6 -3.75611 0.345905 0
M  V30 47071 H 4418.99 -2.94267 -0.221611 0
M  V30 47072 H 4419.07 -2.16342 1.36491 0
M  V30 47073 H 4418.71 -4.43556 2.47427 0
M  V30 47074 H 4418.64 -5.19462 0.864082 0
M  V30 47075 H 4421.13 -3.64024 1.01465 0
M  V30 47076 H 4421.45 -7.25194 2.67046 0
M  V30 47077 H 4419.79 -6.52426 2.3951 0
M  V30 47078 H 4422.98 -4.48576 1.33779 0
M  V30 47079 H 4423.16 -6.1328 2.09264 0
M  V30 47080 N 4416.56 -0.297469 -1.54767 0
M  V30 47081 C 4417.97 0.195882 -1.8567 0
M  V30 47082 C 4418.32 1.53702 -1.21943 0
M  V30 47083 O 4417.45 2.10162 -0.515828 0
M  V30 47084 C 4418.04 0.3622 -3.36858 0
M  V30 47085 C 4416.6 0.799772 -3.67805 0
M  V30 47086 C 4415.75 -0.0939552 -2.77141 0
M  V30 47087 H 4418.7 -0.518591 -1.49988 0
M  V30 47088 H 4418.72 1.19733 -3.61171 0
M  V30 47089 H 4418.23 -0.614055 -3.83211 0
M  V30 47090 H 4416.34 1.7867 -3.26967 0
M  V30 47091 H 4416.45 0.621606 -4.7505 0
M  V30 47092 H 4414.81 0.426166 -2.51109 0
M  V30 47093 H 4415.6 -1.0665 -3.26314 0
M  V30 47094 N 4418.04 1.5758 -0.0251282 0
M  V30 47095 C 4418.97 2.1301 0.9565 0
M  V30 47096 C 4419.95 1.04525 1.34196 0
M  V30 47097 O 4421.14 1.32337 1.42128 0
M  V30 47098 C 4418.27 2.65393 2.24017 0
M  V30 47099 C 4417.22 3.7863 1.99558 0
M  V30 47100 C 4416.55 4.17426 3.34156 0
M  V30 47101 C 4417.85 5.04872 1.33796 0
M  V30 47102 H 4419.54 2.95282 0.494887 0
M  V30 47103 H 4417.09 1.42043 0.236602 0
M  V30 47104 H 4419.04 3.02805 2.93065 0
M  V30 47105 H 4417.76 1.80278 2.72337 0
M  V30 47106 H 4416.42 3.41651 1.32929 0
M  V30 47107 H 4416.07 3.29297 3.80227 0
M  V30 47108 H 4415.77 4.9373 3.18598 0
M  V30 47109 H 4417.29 4.57416 4.04478 0
M  V30 47110 H 4418.71 5.39895 1.92838 0
M  V30 47111 H 4417.11 5.86148 1.28648 0
M  V30 47112 H 4418.18 4.83906 0.310391 0
M  V30 47113 N 4419.52 -0.247971 1.55637 0
M  V30 47114 C 4420.76 -0.983529 1.79182 0
M  V30 47115 C 4421.12 -1.82565 0.594478 0
M  V30 47116 O 4422.32 -2.5929 0.708674 0
M  V30 47117 C 4420.59 -1.82217 3.0746 0
M  V30 47118 S 4422.15 -2.61697 3.52222 0
M  V30 47119 H 4418.97 -0.330844 0.629335 0
M  V30 47120 H 4421.57 -0.251494 1.93876 0
M  V30 47121 H 4420.28 -1.19319 3.92672 0
M  V30 47122 H 4419.81 -2.59697 2.95501 0
M  V30 47123 H 4421.82 -3.84644 3.1347 0
M  V30 47124 N 4421 -1.48997 -0.513587 0
M  V30 47125 C 4422.22 -1.61796 -1.29756 0
M  V30 47126 C 4422.65 -0.284541 -1.85935 0
M  V30 47127 O 4422.01 0.746127 -1.65235 0
M  V30 47128 C 4422.05 -2.68001 -2.41263 0
M  V30 47129 O 4421.16 -2.263 -3.44764 0
M  V30 47130 H 4420.5 -0.541976 -0.383611 0
M  V30 47131 H 4423.03 -1.95099 -0.616239 0
M  V30 47132 H 4423.04 -2.89782 -2.87211 0
M  V30 47133 H 4421.71 -3.64799 -1.99737 0
M  V30 47134 H 4420.29 -2.14799 -3.04821 0
M  V30 47135 N 4422.48 0.763702 -1.3786 0
M  V30 47136 C 4423.72 1.51952 -1.33248 0
M  V30 47137 C 4424.04 1.94835 0.0801024 0
M  V30 47138 O 4423.31 1.66898 1.02576 0
M  V30 47139 H 4421.89 0.563609 -0.490259 0
M  V30 47140 H 4424.56 0.908444 -1.72433 0
M  V30 47141 H 4423.65 2.41516 -1.97677 0
M  V30 47142 N 4423.95 1.22562 0.990769 0
M  V30 47143 C 4425.2 1.04939 1.7272 0
M  V30 47144 C 4425.52 -0.416091 1.90509 0
M  V30 47145 O 4424.79 -1.29913 1.46627 0
M  V30 47146 H 4423.37 0.385319 0.639952 0
M  V30 47147 H 4426.03 1.54109 1.19316 0
M  V30 47148 H 4425.13 1.52895 2.72083 0
M  V30 47149 N 4425.43 -1.18793 1.03566 0
M  V30 47150 C 4426.38 -2.20159 0.592802 0
M  V30 47151 C 4427.37 -1.56773 -0.362078 0
M  V30 47152 O 4428.56 -1.76062 -0.181947 0
M  V30 47153 C 4425.69 -3.43266 -0.0479818 0
M  V30 47154 C 4424.77 -4.13783 0.929745 0
M  V30 47155 N 4425.16 -4.60381 2.09484 0
M  V30 47156 C 4423.46 -4.39569 0.754654 0
M  V30 47157 C 4424.16 -5.14609 2.71205 0
M  V30 47158 N 4423.14 -5.05819 1.99117 0
M  V30 47159 H 4426.94 -2.53872 1.48075 0
M  V30 47160 H 4424.45 -1.34943 0.903561 0
M  V30 47161 H 4426.45 -4.15138 -0.382912 0
M  V30 47162 H 4425.11 -3.11051 -0.931527 0
M  V30 47163 H 4426.12 -4.5499 2.47395 0
M  V30 47164 H 4422.8 -4.17425 -0.0792246 0
M  V30 47165 H 4424.19 -5.60904 3.69915 0
M  V30 47166 N 4426.91 -0.814437 -1.34925 0
M  V30 47167 C 4427.87 -0.235839 -2.27983 0
M  V30 47168 C 4428.87 0.581359 -1.49923 0
M  V30 47169 O 4430.06 0.398698 -1.69576 0
M  V30 47170 C 4427.19 0.670315 -3.34245 0
M  V30 47171 H 4428.39 -1.05669 -2.80667 0
M  V30 47172 H 4425.94 -0.585665 -1.44913 0
M  V30 47173 H 4426.68 1.51455 -2.86761 0
M  V30 47174 H 4426.46 0.0859444 -3.92006 0
M  V30 47175 H 4427.95 1.06921 -4.0368 0
M  V30 47176 N 4428.39 1.46984 -0.568636 0
M  V30 47177 C 4429.61 2.07334 -0.0521257 0
M  V30 47178 C 4430.04 1.41679 1.23728 0
M  V30 47179 O 4429.4 0.495685 1.74392 0
M  V30 47180 C 4429.44 3.60417 0.114884 0
M  V30 47181 O 4428.55 3.95313 1.17478 0
M  V30 47182 H 4427.89 0.661595 -0.0564618 0
M  V30 47183 H 4430.42 1.88834 -0.787574 0
M  V30 47184 H 4430.43 4.067 0.325501 0
M  V30 47185 H 4429.1 4.07598 -0.826818 0
M  V30 47186 H 4427.68 3.6076 0.943742 0
M  V30 47187 N 4429.87 0.305673 1.54607 0
M  V30 47188 C 4430.81 -0.58404 2.25148 0
M  V30 47189 C 4431.81 -1.13322 1.25915 0
M  V30 47190 O 4433.01 -1.08332 1.4375 0
M  V30 47191 H 4429.39 -0.206958 0.722961 0
M  V30 47192 H 4431.36 0.0333959 2.98381 0
M  V30 47193 C 4430.11 -1.74214 3.00907 0
M  V30 47194 H 4429.43 -1.32879 3.77072 0
M  V30 47195 H 4430.87 -2.34065 3.53539 0
M  V30 47196 C 4429.33 -2.64907 2.08149 0
M  V30 47197 O 4429.86 -3.66132 1.65259 0
M  V30 47198 N 4428.07 -2.32744 1.74008 0
M  V30 47199 H 4427.61 -1.50472 2.09084 0
M  V30 47200 H 4427.57 -2.9369 1.12221 0
M  V30 47201 N 4431.34 -1.57564 0.0334847 0
M  V30 47202 C 4432.29 -2.10481 -0.946907 0
M  V30 47203 C 4433.26 -1.00792 -1.32024 0
M  V30 47204 O 4434.45 -1.28237 -1.41279 0
M  V30 47205 C 4431.59 -2.64002 -2.22254 0
M  V30 47206 C 4430.7 -3.87716 -1.90527 0
M  V30 47207 C 4429.83 -4.29615 -3.12418 0
M  V30 47208 C 4428.87 -5.46075 -2.7653 0
M  V30 47209 N 4428.01 -5.8311 -3.9106 0
M  V30 47210 H 4432.85 -2.93965 -0.488742 0
M  V30 47211 H 4430.39 -1.45296 -0.229639 0
M  V30 47212 H 4432.34 -2.93125 -2.96873 0
M  V30 47213 H 4430.97 -1.83343 -2.65679 0
M  V30 47214 H 4430.03 -3.65295 -1.06131 0
M  V30 47215 H 4431.34 -4.72408 -1.60099 0
M  V30 47216 H 4430.49 -4.60196 -3.95353 0
M  V30 47217 H 4429.23 -3.43698 -3.46011 0
M  V30 47218 H 4428.24 -5.15182 -1.92008 0
M  V30 47219 H 4429.46 -6.33694 -2.44149 0
M  V30 47220 H 4427.41 -5.00147 -4.24486 0
M  V30 47221 H 4427.32 -6.62453 -3.6427 0
M  V30 47222 H 4428.59 -6.18299 -4.74686 0
M  V30 47223 N 4432.82 0.239714 -1.55766 0
M  V30 47224 C 4433.73 1.31825 -1.9406 0
M  V30 47225 C 4434.75 1.52272 -0.841979 0
M  V30 47226 O 4435.92 1.65755 -1.144 0
M  V30 47227 C 4432.99 2.65148 -2.23377 0
M  V30 47228 C 4432.05 2.53161 -3.4671 0
M  V30 47229 C 4431.28 3.80127 -3.74619 0
M  V30 47230 O 4431.51 4.82332 -3.04486 0
M  V30 47231 O 4430.44 3.78328 -4.68136 0
M  V30 47232 H 4434.27 1.02337 -2.85938 0
M  V30 47233 H 4431.85 0.441072 -1.42741 0
M  V30 47234 H 4433.73 3.4392 -2.43509 0
M  V30 47235 H 4432.41 2.94353 -1.34676 0
M  V30 47236 H 4431.31 1.72651 -3.31877 0
M  V30 47237 H 4432.65 2.289 -4.35736 0
M  V30 47238 N 4434.3 1.49267 0.505678 0
M  V30 47239 C 4435.25 1.65591 1.60774 0
M  V30 47240 C 4436.22 0.497452 1.58476 0
M  V30 47241 O 4437.4 0.723912 1.76534 0
M  V30 47242 C 4434.54 1.72418 2.98942 0
M  V30 47243 C 4433.65 2.99536 3.11291 0
M  V30 47244 C 4432.79 2.97371 4.40163 0
M  V30 47245 C 4431.83 4.19089 4.46128 0
M  V30 47246 N 4430.97 4.14861 5.66422 0
M  V30 47247 H 4435.81 2.59693 1.46163 0
M  V30 47248 H 4433.34 1.28764 0.711216 0
M  V30 47249 H 4435.3 1.74357 3.79019 0
M  V30 47250 H 4433.93 0.817862 3.12267 0
M  V30 47251 H 4432.98 3.0723 2.24307 0
M  V30 47252 H 4434.29 3.89529 3.11558 0
M  V30 47253 H 4433.45 2.97847 5.28556 0
M  V30 47254 H 4432.19 2.05149 4.42454 0
M  V30 47255 H 4431.19 4.18863 3.56138 0
M  V30 47256 H 4432.42 5.12499 4.45557 0
M  V30 47257 H 4430.36 3.25473 5.69564 0
M  V30 47258 H 4430.28 4.98584 5.68287 0
M  V30 47259 H 4431.55 4.19433 6.57036 0
M  V30 47260 N 4435.78 -0.756381 1.38263 0
M  V30 47261 C 4436.69 -1.90085 1.37495 0
M  V30 47262 C 4437.7 -1.71854 0.272426 0
M  V30 47263 O 4438.88 -1.94826 0.510387 0
M  V30 47264 C 4435.95 -3.25417 1.19603 0
M  V30 47265 C 4435.01 -3.56193 2.39635 0
M  V30 47266 C 4434.24 -4.85068 2.22588 0
M  V30 47267 O 4434.46 -5.57241 1.21812 0
M  V30 47268 O 4433.4 -5.15258 3.11116 0
M  V30 47269 H 4437.22 -1.93687 2.33921 0
M  V30 47270 H 4434.81 -0.901271 1.19153 0
M  V30 47271 H 4436.69 -4.06333 1.11675 0
M  V30 47272 H 4435.36 -3.22633 0.262599 0
M  V30 47273 H 4434.27 -2.75449 2.53138 0
M  V30 47274 H 4435.6 -3.63735 3.31599 0
M  V30 47275 N 4437.26 -1.23086 -0.984255 0
M  V30 47276 C 4438.19 -0.951859 -2.074 0
M  V30 47277 C 4439.17 0.108423 -1.62238 0
M  V30 47278 O 4440.35 -0.025013 -1.88483 0
M  V30 47279 C 4437.48 -0.43326 -3.35917 0
M  V30 47280 C 4436.52 -1.47955 -4.00014 0
M  V30 47281 S 4437.36 -3.05571 -4.39757 0
M  V30 47282 C 4438.51 -2.55371 -5.71433 0
M  V30 47283 H 4438.75 -1.87464 -2.30747 0
M  V30 47284 H 4436.28 -1.06288 -1.11992 0
M  V30 47285 H 4438.24 -0.14065 -4.10259 0
M  V30 47286 H 4436.9 0.468547 -3.10586 0
M  V30 47287 H 4436.09 -1.06675 -4.92581 0
M  V30 47288 H 4435.69 -1.72131 -3.32034 0
M  V30 47289 H 4437.99 -1.97151 -6.4818 0
M  V30 47290 H 4438.93 -3.46463 -6.17551 0
M  V30 47291 H 4439.34 -1.96358 -5.29248 0
M  V30 47292 N 4438.73 1.18243 -1.04194 0
M  V30 47293 C 4439.98 1.88534 -0.747188 0
M  V30 47294 C 4440.31 1.80226 0.723345 0
M  V30 47295 O 4439.59 1.20343 1.528 0
M  V30 47296 C 4439.87 3.38963 -1.21556 0
M  V30 47297 C 4439.72 3.56075 -2.74829 0
M  V30 47298 C 4441.04 4.32645 -0.806634 0
M  V30 47299 H 4438.16 0.68461 -0.272907 0
M  V30 47300 H 4440.8 1.39108 -1.29418 0
M  V30 47301 H 4438.95 3.81188 -0.750215 0
M  V30 47302 H 4440.63 3.22934 -3.29411 0
M  V30 47303 H 4438.87 2.98687 -3.14592 0
M  V30 47304 H 4439.54 4.61629 -3.0266 0
M  V30 47305 H 4442.02 3.98207 -1.20709 0
M  V30 47306 H 4440.89 5.36458 -1.16209 0
M  V30 47307 H 4441.15 4.41147 0.290135 0
M  V30 47308 N 4440.21 0.821581 1.34491 0
M  V30 47309 C 4441.44 0.421955 2.02552 0
M  V30 47310 C 4441.86 -0.971688 1.61875 0
M  V30 47311 O 4441.21 -1.62861 0.823553 0
M  V30 47312 C 4441.26 0.512975 3.57842 0
M  V30 47313 O 4440.98 1.85169 3.97044 0
M  V30 47314 C 4442.49 0.108077 4.43168 0
M  V30 47315 H 4439.71 0.169505 0.649237 0
M  V30 47316 H 4442.25 1.10936 1.71794 0
M  V30 47317 H 4440.4 -0.126338 3.87194 0
M  V30 47318 H 4440.82 1.82499 4.91726 0
M  V30 47319 H 4442.29 0.222851 5.5155 0
M  V30 47320 H 4442.77 -0.94825 4.28841 0
M  V30 47321 H 4443.38 0.721136 4.19142 0
M  V30 47322 N 4441.69 -1.4668 0.576422 0
M  V30 47323 C 4442.92 -2.07304 0.0631204 0
M  V30 47324 C 4443.34 -1.42333 -1.22975 0
M  V30 47325 O 4442.7 -0.504926 -1.74127 0
M  V30 47326 C 4442.75 -3.60473 -0.0957683 0
M  V30 47327 O 4441.85 -3.95931 -1.1538 0
M  V30 47328 H 4441.19 -0.661286 0.0599696 0
M  V30 47329 H 4443.72 -1.88414 0.797577 0
M  V30 47330 H 4443.73 -4.06866 -0.303928 0
M  V30 47331 H 4442.41 -4.07154 0.848423 0
M  V30 47332 H 4440.98 -3.61256 -0.924597 0
M  V30 47333 N 4443.17 -0.313868 -1.54443 0
M  V30 47334 C 4444.1 0.549375 -2.26945 0
M  V30 47335 C 4445.08 1.12736 -1.27376 0
M  V30 47336 O 4446.26 1.1543 -1.56171 0
M  V30 47337 C 4443.39 1.71512 -3.01995 0
M  V30 47338 C 4442.35 1.26689 -4.0882 0
M  V30 47339 C 4441.67 2.51882 -4.71656 0
M  V30 47340 C 4442.97 0.388779 -5.20851 0
M  V30 47341 H 4444.67 -0.0553714 -2.99349 0
M  V30 47342 H 4442.21 -0.0280713 -1.43973 0
M  V30 47343 H 4444.17 2.32523 -3.51441 0
M  V30 47344 H 4442.89 2.34631 -2.27192 0
M  V30 47345 H 4441.55 0.67977 -3.60243 0
M  V30 47346 H 4441.2 3.13343 -3.93479 0
M  V30 47347 H 4440.9 2.22586 -5.4381 0
M  V30 47348 H 4442.42 3.13672 -5.23872 0
M  V30 47349 H 4443.84 0.904908 -5.66113 0
M  V30 47350 H 4442.23 0.189029 -5.99802 0
M  V30 47351 H 4443.3 -0.582868 -4.81384 0
M  V30 47352 N 4444.65 1.57544 -0.0418402 0
M  V30 47353 C 4445.89 1.92319 0.634014 0
M  V30 47354 C 4446.22 0.919394 1.71398 0
M  V30 47355 O 4445.48 -0.0697565 1.95576 0
M  V30 47356 C 4445.78 3.33799 1.27723 0
M  V30 47357 C 4445.44 4.49717 0.326385 0
M  V30 47358 C 4444.1 4.81156 0.0647123 0
M  V30 47359 C 4446.46 5.20181 -0.325806 0
M  V30 47360 C 4443.78 5.80411 -0.856743 0
M  V30 47361 C 4446.14 6.2042 -1.23539 0
M  V30 47362 C 4444.8 6.50293 -1.50583 0
M  V30 47363 H 4444.07 0.703744 0.232002 0
M  V30 47364 H 4446.72 1.91205 -0.106326 0
M  V30 47365 H 4445.02 3.31235 2.09262 0
M  V30 47366 H 4446.72 3.57981 1.80695 0
M  V30 47367 H 4443.31 4.25178 0.540515 0
M  V30 47368 H 4447.49 4.96112 -0.136721 0
M  V30 47369 H 4442.75 6.01896 -1.07384 0
M  V30 47370 H 4446.92 6.74134 -1.74687 0
M  V30 47371 H 4444.55 7.27017 -2.22149 0
M  V30 47372 N 4446.12 -0.23145 1.55891 0
M  V30 47373 C 4447.36 -0.964469 1.80215 0
M  V30 47374 C 4447.73 -1.81924 0.613808 0
M  V30 47375 O 4448.93 -2.58524 0.736136 0
M  V30 47376 C 4447.2 -1.78946 3.09376 0
M  V30 47377 S 4448.76 -2.57946 3.54978 0
M  V30 47378 H 4445.58 -0.324151 0.632809 0
M  V30 47379 H 4448.18 -0.230916 1.94131 0
M  V30 47380 H 4446.88 -1.15148 3.93915 0
M  V30 47381 H 4446.41 -2.56548 2.98239 0
M  V30 47382 H 4448.43 -3.81298 3.17532 0
M  V30 47383 N 4447.6 -1.49533 -0.497755 0
M  V30 47384 C 4448.55 -1.66441 -1.59893 0
M  V30 47385 C 4449.52 -0.505849 -1.5821 0
M  V30 47386 O 4450.7 -0.733264 -1.76147 0
M  V30 47387 C 4447.84 -1.74001 -2.98023 0
M  V30 47388 C 4446.96 -3.01183 -3.09698 0
M  V30 47389 C 4446.09 -2.99702 -4.3858 0
M  V30 47390 C 4445.13 -4.21449 -4.439 0
M  V30 47391 N 4444.27 -4.17859 -5.64214 0
M  V30 47392 H 4449.11 -2.60465 -1.44783 0
M  V30 47393 H 4446.65 -1.29139 -0.704377 0
M  V30 47394 H 4448.6 -1.76365 -3.78089 0
M  V30 47395 H 4447.23 -0.834411 -3.11829 0
M  V30 47396 H 4446.29 -3.08416 -2.22675 0
M  V30 47397 H 4447.6 -3.91176 -3.09488 0
M  V30 47398 H 4446.75 -3.00646 -5.26969 0
M  V30 47399 H 4445.49 -2.07493 -4.41359 0
M  V30 47400 H 4444.5 -4.20745 -3.53912 0
M  V30 47401 H 4445.72 -5.14855 -4.42833 0
M  V30 47402 H 4443.67 -3.28489 -5.6783 0
M  V30 47403 H 4443.58 -5.01591 -5.65635 0
M  V30 47404 H 4444.85 -4.22912 -6.54802 0
M  V30 47405 N 4449.08 0.749038 -1.38662 0
M  V30 47406 C 4450.01 1.87635 -1.3898 0
M  V30 47407 C 4450.99 1.68177 -0.255063 0
M  V30 47408 O 4452.18 1.88702 -0.45882 0
M  V30 47409 C 4449.31 3.25218 -1.21863 0
M  V30 47410 C 4448.26 3.59287 -2.32588 0
M  V30 47411 C 4447.59 4.95656 -2.00572 0
M  V30 47412 C 4448.89 3.63696 -3.74863 0
M  V30 47413 H 4450.58 1.87627 -2.33317 0
M  V30 47414 H 4448.13 0.90129 -1.12307 0
M  V30 47415 H 4450.08 4.03742 -1.20709 0
M  V30 47416 H 4448.8 3.25718 -0.23989 0
M  V30 47417 H 4447.46 2.83085 -2.32935 0
M  V30 47418 H 4447.11 4.9272 -1.01171 0
M  V30 47419 H 4446.81 5.19419 -2.74732 0
M  V30 47420 H 4448.33 5.76553 -2.01044 0
M  V30 47421 H 4449.75 4.32324 -3.76522 0
M  V30 47422 H 4448.15 3.9897 -4.48266 0
M  V30 47423 H 4449.22 2.63819 -4.06851 0
M  V30 47424 N 4450.56 1.23606 0.977714 0
M  V30 47425 C 4451.81 1.06765 1.71597 0
M  V30 47426 C 4452.13 -0.395862 1.9094 0
M  V30 47427 O 4451.4 -1.28351 1.47996 0
M  V30 47428 H 4449.98 0.392085 0.635829 0
M  V30 47429 H 4452.64 1.55366 1.17675 0
M  V30 47430 H 4451.74 1.55773 2.70446 0
M  V30 47431 N 4452.04 -1.17688 1.0482 0
M  V30 47432 C 4453.28 -1.88135 0.757176 0
M  V30 47433 C 4453.62 -1.80607 -0.713777 0
M  V30 47434 O 4452.89 -1.21151 -1.5216 0
M  V30 47435 C 4453.17 -3.38314 1.23352 0
M  V30 47436 C 4453.03 -3.54612 2.76713 0
M  V30 47437 C 4454.35 -4.32211 0.829567 0
M  V30 47438 H 4451.47 -0.683153 0.276534 0
M  V30 47439 H 4454.11 -1.3842 1.30154 0
M  V30 47440 H 4452.26 -3.80784 0.770419 0
M  V30 47441 H 4453.93 -3.21182 3.31119 0
M  V30 47442 H 4452.17 -2.97015 3.16172 0
M  V30 47443 H 4452.84 -4.60017 3.05104 0
M  V30 47444 H 4455.32 -3.97561 1.22819 0
M  V30 47445 H 4454.2 -5.35834 1.19052 0
M  V30 47446 H 4454.46 -4.41295 -0.266736 0
M  V30 47447 N 4453.52 -0.828702 -1.34053 0
M  V30 47448 C 4454.45 -0.269524 -2.31939 0
M  V30 47449 C 4455.43 0.617192 -1.58508 0
M  V30 47450 O 4456.61 0.542865 -1.86458 0
M  V30 47451 C 4453.74 0.564672 -3.42679 0
M  V30 47452 C 4452.7 -0.225391 -4.27406 0
M  V30 47453 C 4452.02 0.731914 -5.29667 0
M  V30 47454 C 4453.32 -1.43681 -5.02149 0
M  V30 47455 H 4455.02 -1.08738 -2.78956 0
M  V30 47456 H 4452.56 -0.52433 -1.34115 0
M  V30 47457 H 4454.51 0.966089 -4.10176 0
M  V30 47458 H 4453.24 1.41564 -2.94325 0
M  V30 47459 H 4451.9 -0.608244 -3.61519 0
M  V30 47460 H 4451.55 1.579 -4.77574 0
M  V30 47461 H 4451.25 0.207463 -5.87234 0
M  V30 47462 H 4452.77 1.13106 -6.00033 0
M  V30 47463 H 4454.18 -1.1091 -5.6247 0
M  V30 47464 H 4452.58 -1.89731 -5.69317 0
M  V30 47465 H 4453.65 -2.21197 -4.31509 0
M  V30 47466 N 4454.99 1.46373 -0.584193 0
M  V30 47467 C 4456.24 2.02678 -0.0704428 0
M  V30 47468 C 4456.57 1.45454 1.28673 0
M  V30 47469 O 4455.85 0.620205 1.84347 0
M  V30 47470 C 4456.13 3.60099 -0.00627333 0
M  V30 47471 C 4455.98 4.27704 -1.39245 0
M  V30 47472 C 4457.3 4.346 0.693589 0
M  V30 47473 H 4454.42 0.736503 -0.0270728 0
M  V30 47474 H 4457.06 1.74499 -0.751677 0
M  V30 47475 H 4455.21 3.84238 0.573874 0
M  V30 47476 H 4456.89 4.14824 -2.01788 0
M  V30 47477 H 4455.13 3.87009 -1.95975 0
M  V30 47478 H 4455.8 5.36473 -1.30001 0
M  V30 47479 H 4458.28 4.15616 0.200723 0
M  V30 47480 H 4457.15 5.44321 0.707523 0
M  V30 47481 H 4457.41 4.05766 1.75519 0
M  V30 47482 N 4456.47 0.322054 1.54274 0
M  V30 47483 C 4457.89 -0.0306438 1.59571 0
M  V30 47484 C 4458.09 -1.50609 1.33862 0
M  V30 47485 O 4457.14 -2.26187 1.12231 0
M  V30 47486 C 4458.46 0.386227 2.98209 0
M  V30 47487 C 4460 0.336756 3.11183 0
M  V30 47488 C 4460.48 0.728766 4.52165 0
M  V30 47489 N 4461.97 0.682113 4.5815 0
M  V30 47490 C 4462.71 0.957647 5.65347 0
M  V30 47491 N 4462.2 1.30024 6.80489 0
M  V30 47492 N 4463.99 0.883309 5.55116 0
M  V30 47493 H 4456.15 1.28338 1.69243 0
M  V30 47494 H 4458.41 0.521744 0.79151 0
M  V30 47495 H 4458.11 1.41415 3.22017 0
M  V30 47496 H 4457.99 -0.24953 3.76374 0
M  V30 47497 H 4460.38 -0.681957 2.87112 0
M  V30 47498 H 4460.46 1.00743 2.35127 0
M  V30 47499 H 4460.1 1.74539 4.76968 0
M  V30 47500 H 4460.03 0.0358003 5.26588 0
M  V30 47501 H 4462.52 0.429117 3.75456 0
M  V30 47502 H 4462.83 1.4959 7.58184 0
M  V30 47503 H 4461.18 1.33848 6.81989 0
M  V30 47504 H 4464.37 0.615164 4.6404 0
M  V30 47505 H 4464.54 1.1014 6.38571 0
M  V30 47506 N 4457.95 -1.5752 0.0501946 0
M  V30 47507 C 4458.9 -2.07984 -0.934158 0
M  V30 47508 C 4459.88 -0.98479 -1.27243 0
M  V30 47509 O 4461.08 -1.24814 -1.25501 0
M  V30 47510 C 4458.2 -2.62759 -2.20935 0
M  V30 47511 C 4457.29 -3.79232 -1.89852 0
M  V30 47512 N 4457.68 -4.8904 -1.29125 0
M  V30 47513 C 4455.98 -3.88119 -2.19727 0
M  V30 47514 C 4456.68 -5.70088 -1.15649 0
M  V30 47515 N 4455.66 -5.17664 -1.65905 0
M  V30 47516 H 4459.46 -2.90279 -0.459951 0
M  V30 47517 H 4456.97 -1.61665 -0.154283 0
M  V30 47518 H 4458.97 -2.97216 -2.9235 0
M  V30 47519 H 4457.63 -1.81903 -2.68963 0
M  V30 47520 H 4458.64 -5.08857 -0.963577 0
M  V30 47521 H 4455.32 -3.18204 -2.70282 0
M  V30 47522 H 4456.71 -6.68398 -0.685121 0
M  V30 47523 N 4459.43 0.223179 -1.56012 0
M  V30 47524 C 4460.84 0.572804 -1.48967 0
M  V30 47525 C 4461.04 1.87222 -0.744985 0
M  V30 47526 O 4460.1 2.50898 -0.283984 0
M  V30 47527 C 4461.41 0.653543 -2.93512 0
M  V30 47528 C 4462.96 0.74428 -3.04022 0
M  V30 47529 C 4463.44 0.856377 -4.49922 0
M  V30 47530 N 4464.93 0.92064 -4.53959 0
M  V30 47531 C 4465.66 1.02706 -5.64127 0
M  V30 47532 N 4465.16 1.09752 -6.84051 0
M  V30 47533 N 4466.95 1.06207 -5.51975 0
M  V30 47534 H 4459.1 -0.629533 -2.02856 0
M  V30 47535 H 4461.36 -0.220653 -0.921963 0
M  V30 47536 H 4461.07 -0.231641 -3.50936 0
M  V30 47537 H 4460.94 1.51769 -3.4532 0
M  V30 47538 H 4463.33 1.61991 -2.46664 0
M  V30 47539 H 4463.41 -0.1455 -2.55386 0
M  V30 47540 H 4463.06 -0.0147854 -5.07898 0
M  V30 47541 H 4462.99 1.76155 -4.96263 0
M  V30 47542 H 4465.48 0.876565 -3.67593 0
M  V30 47543 H 4465.79 1.17846 -7.63762 0
M  V30 47544 H 4464.14 1.06669 -6.86765 0
M  V30 47545 H 4467.33 1.00366 -4.57214 0
M  V30 47546 H 4467.5 1.14155 -6.37866 0
M  V30 47547 N 4460.91 1.49795 0.489818 0
M  V30 47548 C 4462.15 1.5909 1.23989 0
M  V30 47549 C 4462.47 0.287975 1.93469 0
M  V30 47550 O 4463.67 0.259601 2.70256 0
M  V30 47551 C 4462.13 2.80744 2.25191 0
M  V30 47552 C 4461.74 4.17839 1.616 0
M  V30 47553 C 4463.48 2.99375 3.00957 0
M  V30 47554 C 4461.39 5.30702 2.60977 0
M  V30 47555 H 4460.32 0.592388 0.466468 0
M  V30 47556 H 4462.97 1.76199 0.512458 0
M  V30 47557 H 4461.35 2.57153 3.01145 0
M  V30 47558 H 4462.53 4.51612 0.915615 0
M  V30 47559 H 4460.84 4.04659 0.981834 0
M  V30 47560 H 4463.44 3.80865 3.75295 0
M  V30 47561 H 4463.78 2.10369 3.59236 0
M  V30 47562 H 4464.31 3.23058 2.32117 0
M  V30 47563 H 4461.05 6.21803 2.07463 0
M  V30 47564 H 4460.57 5.01371 3.29223 0
M  V30 47565 H 4462.25 5.60502 3.23183 0
M  V30 47566 N 4462.38 -0.741673 1.39057 0
M  V30 47567 C 4463.61 -1.53602 1.3936 0
M  V30 47568 C 4464.03 -1.88096 -0.0116244 0
M  V30 47569 O 4463.39 -1.51434 -0.996871 0
M  V30 47570 C 4463.44 -2.80434 2.26692 0
M  V30 47571 O 4462.54 -3.76082 1.69222 0
M  V30 47572 H 4461.88 -0.464126 0.474851 0
M  V30 47573 H 4464.41 -0.9156 1.8297 0
M  V30 47574 H 4464.42 -3.29237 2.40971 0
M  V30 47575 H 4463.1 -2.54659 3.28819 0
M  V30 47576 H 4461.68 -3.34827 1.6415 0
M  V30 47577 N 4463.86 -1.24123 -0.971145 0
M  V30 47578 C 4464.79 -1.05515 -2.083 0
M  V30 47579 C 4465.77 0.0308266 -1.70072 0
M  V30 47580 O 4466.96 -0.13559 -1.93726 0
M  V30 47581 C 4464.09 -0.655485 -3.41058 0
M  V30 47582 C 4463.04 -1.68985 -3.93228 0
M  V30 47583 C 4462.37 -1.14535 -5.22289 0
M  V30 47584 C 4463.67 -3.08502 -4.21455 0
M  V30 47585 H 4465.36 -1.98515 -2.24125 0
M  V30 47586 H 4462.91 -0.955859 -1.077 0
M  V30 47587 H 4464.86 -0.512317 -4.18274 0
M  V30 47588 H 4463.58 0.310205 -3.25123 0
M  V30 47589 H 4462.24 -1.82117 -3.18165 0
M  V30 47590 H 4461.89 -0.170366 -5.02711 0
M  V30 47591 H 4461.59 -1.83654 -5.58162 0
M  V30 47592 H 4463.12 -1.01422 -6.02118 0
M  V30 47593 H 4464.53 -2.98618 -4.89388 0
M  V30 47594 H 4462.93 -3.74943 -4.68549 0
M  V30 47595 H 4464 -3.56799 -3.28363 0
M  V30 47596 N 4465.34 1.17131 -1.05443 0
M  V30 47597 C 4466.59 1.87453 -0.766008 0
M  V30 47598 C 4466.92 1.81192 0.707089 0
M  V30 47599 O 4466.17 1.21639 1.53305 0
M  V30 47600 C 4466.47 3.36829 -1.19503 0
M  V30 47601 C 4466.14 3.63292 -2.67076 0
M  V30 47602 C 4464.8 3.70224 -3.07389 0
M  V30 47603 C 4467.15 3.74562 -3.62426 0
M  V30 47604 C 4464.48 3.85918 -4.4191 0
M  V30 47605 C 4466.83 3.91776 -4.96684 0
M  V30 47606 C 4465.49 3.96947 -5.36647 0
M  V30 47607 H 4464.76 0.685939 -0.280302 0
M  V30 47608 H 4467.41 1.38551 -1.32196 0
M  V30 47609 H 4465.72 3.87805 -0.558106 0
M  V30 47610 H 4467.41 3.89608 -0.94903 0
M  V30 47611 H 4464 3.58524 -2.34859 0
M  V30 47612 H 4468.19 3.68526 -3.32419 0
M  V30 47613 H 4463.44 3.88171 -4.7237 0
M  V30 47614 H 4467.62 3.99438 -5.70458 0
M  V30 47615 H 4465.24 4.0886 -6.40888 0
M  V30 47616 N 4466.82 0.835799 1.33612 0
M  V30 47617 C 4468.07 0.429179 1.9749 0
M  V30 47618 C 4468.39 -1.01427 1.66546 0
M  V30 47619 O 4467.66 -1.70607 0.962804 0
M  V30 47620 H 4466.24 0.155712 0.730591 0
M  V30 47621 H 4468.9 1.06808 1.63028 0
M  V30 47622 H 4468 0.558718 3.07058 0
M  V30 47623 N 4468.3 -1.46061 0.591947 0
M  V30 47624 C 4469.24 -2.32124 -0.148657 0
M  V30 47625 C 4470.24 -1.45038 -0.875236 0
M  V30 47626 O 4471.44 -1.61611 -0.792575 0
M  V30 47627 H 4467.82 -0.749027 -0.0668057 0
M  V30 47628 H 4469.79 -2.9239 0.595886 0
M  V30 47629 C 4468.54 -3.28377 -1.14298 0
M  V30 47630 H 4467.86 -3.95373 -0.593321 0
M  V30 47631 H 4469.3 -3.91358 -1.63141 0
M  V30 47632 C 4467.76 -2.54401 -2.20866 0
M  V30 47633 O 4468.29 -2.31384 -3.28366 0
M  V30 47634 N 4466.5 -2.14804 -1.95724 0
M  V30 47635 H 4466.04 -2.33723 -1.08311 0
M  V30 47636 H 4466 -1.65629 -2.67235 0
M  V30 47637 N 4469.77 -0.330231 -1.54101 0
M  V30 47638 C 4471.05 0.32494 -1.92882 0
M  V30 47639 C 4471.43 1.69335 -1.26051 0
M  V30 47640 O 4470.78 2.24853 -0.406605 0
M  V30 47641 C 4470.99 0.410512 -3.46577 0
M  V30 47642 C 4472.34 0.667654 -4.19318 0
M  V30 47643 O 4473.36 0.493166 -3.52769 0
M  V30 47644 O 4472.22 1.00472 -5.37185 0
M  V30 47645 H 4469.31 0.186845 -0.805617 0
M  V30 47646 H 4471.86 -0.380434 -1.65381 0
M  V30 47647 H 4470.63 -0.550301 -3.87411 0
M  V30 47648 H 4470.26 1.1632 -3.80204 0
M  V30 47649 N 4471.25 1.57491 -0.0585476 0
M  V30 47650 C 4472.22 2.10853 0.898543 0
M  V30 47651 C 4473.22 1.02968 1.23508 0
M  V30 47652 O 4474.41 1.29012 1.17054 0
M  V30 47653 C 4471.54 2.59889 2.20614 0
M  V30 47654 H 4472.73 2.96716 0.435831 0
M  V30 47655 H 4470.28 1.55141 0.189968 0
M  V30 47656 H 4471.02 1.7744 2.71451 0
M  V30 47657 H 4470.8 3.38734 1.97489 0
M  V30 47658 H 4472.29 3.01295 2.89156 0
M  V30 47659 N 4472.73 -0.214903 1.56128 0
M  V30 47660 C 4473.96 -0.955028 1.8354 0
M  V30 47661 C 4474.37 -1.77674 0.638534 0
M  V30 47662 O 4473.73 -1.7822 -0.392905 0
M  V30 47663 C 4473.78 -1.86723 3.09543 0
M  V30 47664 O 4473.5 -1.07872 4.24612 0
M  V30 47665 C 4475 -2.7207 3.4999 0
M  V30 47666 H 4472.22 -0.27959 0.609976 0
M  V30 47667 H 4474.77 -0.228126 2.03224 0
M  V30 47668 H 4472.92 -2.548 2.91814 0
M  V30 47669 H 4473.34 -1.69854 4.96236 0
M  V30 47670 H 4474.81 -3.31767 4.41174 0
M  V30 47671 H 4475.29 -3.44796 2.72052 0
M  V30 47672 H 4475.89 -2.09396 3.7018 0
M  V30 47673 N 4474.21 -1.50053 -0.481867 0
M  V30 47674 C 4475.43 -1.64512 -1.26295 0
M  V30 47675 C 4475.86 -0.323916 -1.8529 0
M  V30 47676 O 4475.22 0.71091 -1.66781 0
M  V30 47677 C 4475.26 -2.73058 -2.35524 0
M  V30 47678 O 4474.37 -2.33562 -3.39886 0
M  V30 47679 H 4473.71 -0.549991 -0.372029 0
M  V30 47680 H 4476.24 -1.96362 -0.574717 0
M  V30 47681 H 4476.25 -2.95809 -2.81 0
M  V30 47682 H 4474.92 -3.68953 -1.91954 0
M  V30 47683 H 4473.5 -2.21216 -3.00196 0
M  V30 47684 N 4475.69 0.734288 -1.39449 0
M  V30 47685 C 4476.94 1.48932 -1.36022 0
M  V30 47686 C 4477.25 1.95557 0.0408318 0
M  V30 47687 O 4478.45 2.70779 0.197685 0
M  V30 47688 C 4476.91 2.69117 -2.38965 0
M  V30 47689 C 4476.52 2.29438 -3.84788 0
M  V30 47690 C 4478.26 3.46935 -2.44615 0
M  V30 47691 C 4476.17 3.46349 -4.79371 0
M  V30 47692 H 4475.1 0.559278 -0.505692 0
M  V30 47693 H 4477.75 0.800925 -1.65098 0
M  V30 47694 H 4476.13 3.40034 -2.0296 0
M  V30 47695 H 4477.31 1.66062 -4.29837 0
M  V30 47696 H 4475.62 1.64709 -3.82439 0
M  V30 47697 H 4478.22 4.33896 -3.12471 0
M  V30 47698 H 4478.56 3.89449 -1.47089 0
M  V30 47699 H 4479.09 2.83047 -2.79517 0
M  V30 47700 H 4475.83 3.08884 -5.78161 0
M  V30 47701 H 4475.35 4.08703 -4.39001 0
M  V30 47702 H 4477.03 4.12674 -4.98306 0
M  V30 47703 N 4477.16 1.24636 0.964549 0
M  V30 47704 C 4478.41 1.08955 1.71045 0
M  V30 47705 C 4478.74 -0.370235 1.90638 0
M  V30 47706 O 4478.02 -1.27344 1.47016 0
M  V30 47707 C 4478.3 1.8334 3.09933 0
M  V30 47708 C 4478.15 3.37087 2.97812 0
M  V30 47709 C 4479.47 1.60861 4.09649 0
M  V30 47710 H 4476.59 0.3972 0.620807 0
M  V30 47711 H 4479.23 1.53344 1.12186 0
M  V30 47712 H 4477.38 1.45609 3.60181 0
M  V30 47713 H 4479.06 3.84434 2.54967 0
M  V30 47714 H 4477.3 3.65306 2.33952 0
M  V30 47715 H 4477.97 3.84338 3.96218 0
M  V30 47716 H 4480.45 1.93687 3.68272 0
M  V30 47717 H 4479.32 2.15358 5.04888 0
M  V30 47718 H 4479.58 0.547588 4.38696 0
M  V30 47719 N 4478.64 -1.1657 1.06062 0
M  V30 47720 C 4479.59 -2.22938 0.663422 0
M  V30 47721 C 4480.58 -1.66359 -0.319534 0
M  V30 47722 O 4481.79 -1.7905 -0.18465 0
M  V30 47723 H 4478.17 -0.7259 0.196401 0
M  V30 47724 H 4480.14 -2.5373 1.57046 0
M  V30 47725 C 4478.89 -3.47642 0.063403 0
M  V30 47726 H 4478.21 -3.91491 0.810871 0
M  V30 47727 H 4479.65 -4.2363 -0.177028 0
M  V30 47728 C 4478.11 -3.15094 -1.19237 0
M  V30 47729 O 4478.64 -3.30681 -2.28063 0
M  V30 47730 N 4476.84 -2.69244 -1.09343 0
M  V30 47731 H 4476.39 -2.5676 -0.207822 0
M  V30 47732 H 4476.35 -2.4784 -1.9345 0
M  V30 47733 N 4480.12 -0.842873 -1.33167 0
M  V30 47734 C 4481.36 -0.446644 -1.9946 0
M  V30 47735 C 4481.73 0.976759 -1.65298 0
M  V30 47736 O 4482.93 1.47693 -2.24589 0
M  V30 47737 C 4481.2 -0.665476 -3.5115 0
M  V30 47738 S 4482.76 -0.365064 -4.37279 0
M  V30 47739 H 4479.57 -0.167827 -0.690909 0
M  V30 47740 H 4482.18 -1.09303 -1.6209 0
M  V30 47741 H 4480.88 -1.70073 -3.73501 0
M  V30 47742 H 4480.41 -0.00508398 -3.934 0
M  V30 47743 H 4482.43 0.813589 -4.89485 0
M  V30 47744 N 4481.6 1.45745 -0.599685 0
M  V30 47745 C 4482.53 2.33235 0.111224 0
M  V30 47746 C 4483.51 1.46362 0.866729 0
M  V30 47747 O 4484.7 1.75149 0.838843 0
M  V30 47748 C 4481.83 3.28936 1.11439 0
M  V30 47749 C 4480.78 4.25383 0.472622 0
M  V30 47750 C 4480.11 5.10715 1.58347 0
M  V30 47751 C 4481.41 5.18829 -0.601131 0
M  V30 47752 H 4483.1 2.92925 -0.619293 0
M  V30 47753 H 4480.65 1.40856 -0.299265 0
M  V30 47754 H 4482.6 3.89007 1.62023 0
M  V30 47755 H 4481.32 2.67388 1.8754 0
M  V30 47756 H 4479.98 3.66598 -0.0122761 0
M  V30 47757 H 4479.63 4.45541 2.33457 0
M  V30 47758 H 4479.33 5.76044 1.15961 0
M  V30 47759 H 4480.85 5.73654 2.09173 0
M  V30 47760 H 4482.27 5.73018 -0.179692 0
M  V30 47761 H 4480.66 5.92592 -0.946284 0
M  V30 47762 H 4481.73 4.61735 -1.48084 0
M  V30 47763 N 4483.08 0.338398 1.53924 0
M  V30 47764 C 4484.03 -0.536634 2.21595 0
M  V30 47765 C 4485.01 -1.07011 1.20156 0
M  V30 47766 O 4486.2 -1.00466 1.45724 0
M  V30 47767 C 4483.33 -1.68966 2.9884 0
M  V30 47768 C 4482.42 -1.17037 4.07631 0
M  V30 47769 N 4482.81 -0.371908 5.04431 0
M  V30 47770 C 4481.11 -1.44774 4.21849 0
M  V30 47771 C 4481.81 -0.0907126 5.81629 0
M  V30 47772 N 4480.78 -0.680941 5.39318 0
M  V30 47773 H 4484.59 0.0805331 2.9379 0
M  V30 47774 H 4482.1 0.145 1.61751 0
M  V30 47775 H 4484.1 -2.32845 3.45816 0
M  V30 47776 H 4482.76 -2.31016 2.2817 0
M  V30 47777 H 4483.77 -0.0134396 5.17898 0
M  V30 47778 H 4480.45 -2.07301 3.62398 0
M  V30 47779 H 4481.84 0.553053 6.6962 0
M  V30 47780 N 4484.56 -1.57458 0.0668989 0
M  V30 47781 C 4485.8 -1.92479 -0.602879 0
M  V30 47782 C 4486.12 -0.948479 -1.71065 0
M  V30 47783 O 4487.32 -1.19133 -2.43966 0
M  V30 47784 C 4485.78 -3.41907 -1.12371 0
M  V30 47785 C 4485.39 -4.47975 -0.0472125 0
M  V30 47786 C 4487.13 -3.85938 -1.76784 0
M  V30 47787 C 4485.04 -5.88531 -0.581815 0
M  V30 47788 H 4483.97 -0.718395 -0.228965 0
M  V30 47789 H 4486.62 -1.82978 0.13834 0
M  V30 47790 H 4485 -3.46466 -1.91774 0
M  V30 47791 H 4486.18 -4.55027 0.727138 0
M  V30 47792 H 4484.49 -4.13382 0.500389 0
M  V30 47793 H 4487.09 -4.88329 -2.17804 0
M  V30 47794 H 4487.43 -3.23038 -2.62587 0
M  V30 47795 H 4487.96 -3.83962 -1.0401 0
M  V30 47796 H 4484.7 -6.55064 0.238951 0
M  V30 47797 H 4484.22 -5.85009 -1.3238 0
M  V30 47798 H 4485.9 -6.38262 -1.05977 0
M  V30 47799 N 4486.03 0.20662 -1.5624 0
M  V30 47800 C 4486.96 1.25902 -1.96649 0
M  V30 47801 C 4487.94 1.48094 -0.836786 0
M  V30 47802 O 4489.13 1.60026 -1.10024 0
M  V30 47803 C 4486.26 2.60572 -2.29608 0
M  V30 47804 C 4485.21 2.53012 -3.45209 0
M  V30 47805 C 4484.54 3.91848 -3.63812 0
M  V30 47806 C 4485.84 2.06507 -4.79742 0
M  V30 47807 H 4487.53 0.923269 -2.84809 0
M  V30 47808 H 4485.08 0.442687 -1.37027 0
M  V30 47809 H 4487.03 3.34366 -2.5647 0
M  V30 47810 H 4485.76 2.95864 -1.38318 0
M  V30 47811 H 4484.42 1.81673 -3.18419 0
M  V30 47812 H 4484.06 4.24474 -2.69872 0
M  V30 47813 H 4483.76 3.87667 -4.41574 0
M  V30 47814 H 4485.29 4.67282 -3.93039 0
M  V30 47815 H 4486.7 2.70054 -5.05711 0
M  V30 47816 H 4485.1 2.13354 -5.60892 0
M  V30 47817 H 4486.17 1.01785 -4.74097 0
M  V30 47818 N 4487.51 1.50306 0.473902 0
M  V30 47819 C 4488.76 1.60836 1.22377 0
M  V30 47820 C 4489.08 0.309458 1.92529 0
M  V30 47821 O 4488.35 -0.672896 1.83981 0
M  V30 47822 H 4486.93 0.592668 0.454702 0
M  V30 47823 H 4489.59 1.87069 0.546902 0
M  V30 47824 H 4488.69 2.41809 1.97318 0
M  V30 47825 N 4488.99 -0.726883 1.39836 0
M  V30 47826 C 4489.92 -1.85142 1.35111 0
M  V30 47827 C 4490.93 -1.60735 0.258448 0
M  V30 47828 O 4492.12 -1.70819 0.517991 0
M  V30 47829 C 4489.22 -3.21329 1.07708 0
M  V30 47830 C 4488.4 -3.73025 2.2841 0
M  V30 47831 C 4487.46 -4.87795 1.9734 0
M  V30 47832 O 4486.48 -5.01033 2.70101 0
M  V30 47833 N 4487.68 -5.72765 0.944474 0
M  V30 47834 H 4490.45 -1.89698 2.32023 0
M  V30 47835 H 4488.01 -0.907959 1.34044 0
M  V30 47836 H 4490 -3.95688 0.849283 0
M  V30 47837 H 4488.57 -3.11991 0.195019 0
M  V30 47838 H 4487.79 -2.89925 2.6709 0
M  V30 47839 H 4489.08 -4.04299 3.08901 0
M  V30 47840 H 4488.48 -5.64668 0.341625 0
M  V30 47841 H 4487.03 -6.47157 0.776574 0
M  V30 47842 N 4490.47 -1.25146 -0.957926 0
M  V30 47843 C 4491.7 -1.1243 -1.73687 0
M  V30 47844 C 4492.11 0.322239 -1.8603 0
M  V30 47845 O 4491.47 1.22181 -1.35565 0
M  V30 47846 C 4491.52 -1.76944 -3.15235 0
M  V30 47847 O 4491.24 -3.15943 -3.03499 0
M  V30 47848 C 4492.74 -1.69965 -4.09423 0
M  V30 47849 H 4489.96 -0.392319 -0.544359 0
M  V30 47850 H 4492.5 -1.65445 -1.20201 0
M  V30 47851 H 4490.66 -1.27908 -3.65675 0
M  V30 47852 H 4491.07 -3.47611 -3.92768 0
M  V30 47853 H 4492.55 -2.19771 -5.06364 0
M  V30 47854 H 4493.02 -0.662771 -4.3417 0
M  V30 47855 H 4493.63 -2.18473 -3.64897 0
M  V30 47856 N 4491.95 1.16006 -1.06679 0
M  V30 47857 C 4492.88 2.22685 -0.702386 0
M  V30 47858 C 4493.86 1.67307 0.306974 0
M  V30 47859 O 4495.04 1.93352 0.181237 0
M  V30 47860 C 4492.17 3.47178 -0.09216 0
M  V30 47861 C 4491.13 4.15473 -1.02792 0
M  V30 47862 C 4490.45 5.33962 -0.280798 0
M  V30 47863 C 4491.75 4.66011 -2.35862 0
M  V30 47864 H 4493.45 2.53423 -1.59427 0
M  V30 47865 H 4490.99 1.2181 -0.768004 0
M  V30 47866 H 4492.94 4.21038 0.174666 0
M  V30 47867 H 4491.67 3.15752 0.834766 0
M  V30 47868 H 4490.33 3.43545 -1.27956 0
M  V30 47869 H 4489.98 4.98791 0.64937 0
M  V30 47870 H 4489.68 5.80597 -0.904463 0
M  V30 47871 H 4491.2 6.10596 -0.0216107 0
M  V30 47872 H 4492.61 5.31433 -2.15063 0
M  V30 47873 H 4491.01 5.23282 -2.93761 0
M  V30 47874 H 4492.08 3.82013 -2.98654 0
M  V30 47875 N 4493.42 0.849923 1.32718 0
M  V30 47876 C 4494.7 0.372472 1.92021 0
M  V30 47877 C 4495.08 -1.14343 1.77451 0
M  V30 47878 O 4494.43 -1.96292 1.16969 0
M  V30 47879 C 4494.64 0.831601 3.38947 0
M  V30 47880 C 4495.99 0.846028 4.16086 0
M  V30 47881 O 4497.01 0.775928 3.47646 0
M  V30 47882 O 4495.87 0.943942 5.38286 0
M  V30 47883 H 4492.96 0.107696 0.819958 0
M  V30 47884 H 4495.51 0.93651 1.41519 0
M  V30 47885 H 4494.28 1.8746 3.43474 0
M  V30 47886 H 4493.9 0.244749 3.96846 0
M  V30 47887 N 4494.9 -1.45425 0.607406 0
M  V30 47888 C 4495.87 -2.28975 -0.101613 0
M  V30 47889 C 4496.87 -1.39757 -0.79528 0
M  V30 47890 O 4498.06 -1.6188 -0.64347 0
M  V30 47891 C 4495.19 -3.20772 -1.15403 0
M  V30 47892 H 4496.38 -2.93145 0.632947 0
M  V30 47893 H 4493.93 -1.51944 0.366444 0
M  V30 47894 H 4494.67 -2.61402 -1.91936 0
M  V30 47895 H 4494.45 -3.86491 -0.660845 0
M  V30 47896 H 4495.94 -3.83595 -1.6506 0
M  V30 47897 N 4496.38 -0.346557 -1.53742 0
M  V30 47898 C 4497.8 0.00525364 -1.59599 0
M  V30 47899 C 4498 1.48461 -1.36241 0
M  V30 47900 O 4497.05 2.24372 -1.15816 0
M  V30 47901 C 4498.37 -0.433621 -2.97557 0
M  V30 47902 C 4499.91 -0.38622 -3.10608 0
M  V30 47903 C 4500.39 -0.800609 -4.50948 0
M  V30 47904 N 4501.88 -0.754914 -4.57007 0
M  V30 47905 C 4502.61 -1.04747 -5.63751 0
M  V30 47906 N 4502.11 -1.40833 -6.78335 0
M  V30 47907 N 4503.9 -0.971511 -5.53641 0
M  V30 47908 H 4496.05 -1.31015 -1.67179 0
M  V30 47909 H 4498.32 -0.53427 -0.783109 0
M  V30 47910 H 4498.02 -1.4652 -3.19726 0
M  V30 47911 H 4497.9 0.189621 -3.76723 0
M  V30 47912 H 4500.28 0.636194 -2.88161 0
M  V30 47913 H 4500.37 -1.04471 -2.33494 0
M  V30 47914 H 4500.01 -1.82105 -4.74131 0
M  V30 47915 H 4499.94 -0.119571 -5.26464 0
M  V30 47916 H 4502.43 -0.488794 -3.74726 0
M  V30 47917 H 4502.74 -1.61633 -7.55708 0
M  V30 47918 H 4501.09 -1.44681 -6.79774 0
M  V30 47919 H 4504.28 -0.688911 -4.63003 0
M  V30 47920 H 4504.45 -1.20285 -6.36738 0
M  V30 47921 N 4497.86 1.5742 -0.0752483 0
M  V30 47922 C 4499.09 1.97948 0.602007 0
M  V30 47923 C 4499.5 0.953732 1.6294 0
M  V30 47924 O 4498.86 -0.059191 1.82404 0
M  V30 47925 C 4498.91 3.38551 1.2675 0
M  V30 47926 O 4498.63 4.37196 0.281222 0
M  V30 47927 C 4500.13 3.93973 2.03225 0
M  V30 47928 H 4497.35 0.650924 0.162909 0
M  V30 47929 H 4499.9 2.03959 -0.148672 0
M  V30 47930 H 4498.05 3.33616 1.96924 0
M  V30 47931 H 4498.46 5.18978 0.759085 0
M  V30 47932 H 4499.94 4.94563 2.45176 0
M  V30 47933 H 4500.42 3.30704 2.89019 0
M  V30 47934 H 4501.02 4.02319 1.3791 0
M  V30 47935 N 4499.34 -0.198331 1.56347 0
M  V30 47936 C 4500.58 -0.920585 1.80702 0
M  V30 47937 C 4500.92 -1.83043 0.648762 0
M  V30 47938 O 4500.19 -1.91309 -0.350858 0
M  V30 47939 C 4500.47 -1.7396 3.15293 0
M  V30 47940 C 4500.33 -0.854695 4.41605 0
M  V30 47941 C 4501.65 -2.71283 3.46545 0
M  V30 47942 H 4498.76 -0.333238 0.65736 0
M  V30 47943 H 4501.41 -0.188132 1.89066 0
M  V30 47944 H 4499.56 -2.36405 3.08293 0
M  V30 47945 H 4501.23 -0.2452 4.60648 0
M  V30 47946 H 4499.47 -0.161246 4.335 0
M  V30 47947 H 4500.14 -1.46267 5.32269 0
M  V30 47948 H 4502.62 -2.18971 3.53823 0
M  V30 47949 H 4501.49 -3.25674 4.41846 0
M  V30 47950 H 4501.76 -3.5017 2.69876 0
M  V30 47951 N 4500.81 -1.50555 -0.465925 0
M  V30 47952 C 4501.75 -1.64442 -1.58222 0
M  V30 47953 C 4502.73 -0.492422 -1.54964 0
M  V30 47954 O 4503.91 -0.712597 -1.74512 0
M  V30 47955 C 4501.04 -1.63176 -2.96802 0
M  V30 47956 C 4500.08 -2.83998 -3.18194 0
M  V30 47957 S 4500.92 -4.4523 -2.97541 0
M  V30 47958 C 4502.07 -4.46664 -4.38454 0
M  V30 47959 H 4502.3 -2.58866 -1.46204 0
M  V30 47960 H 4499.84 -1.39882 -0.653629 0
M  V30 47961 H 4501.8 -1.6313 -3.76695 0
M  V30 47962 H 4500.46 -0.699778 -3.06206 0
M  V30 47963 H 4499.65 -2.79431 -4.19445 0
M  V30 47964 H 4499.25 -2.81638 -2.46082 0
M  V30 47965 H 4501.54 -4.20545 -5.31176 0
M  V30 47966 H 4502.49 -5.48311 -4.48063 0
M  V30 47967 H 4502.89 -3.76311 -4.20774 0
M  V30 47968 N 4502.29 0.719457 -1.4022 0
M  V30 47969 C 4503.24 1.83354 -1.40178 0
M  V30 47970 C 4504.21 1.64064 -0.259264 0
M  V30 47971 O 4505.39 1.85253 -0.456742 0
M  V30 47972 C 4502.53 3.21026 -1.26635 0
M  V30 47973 C 4501.65 3.51914 -2.5056 0
M  V30 47974 C 4500.78 4.79071 -2.29488 0
M  V30 47975 C 4499.82 5.02851 -3.4901 0
M  V30 47976 N 4498.96 6.21219 -3.27157 0
M  V30 47977 H 4503.8 1.82724 -2.35406 0
M  V30 47978 H 4501.34 0.892647 -1.1692 0
M  V30 47979 H 4503.29 4.0052 -1.1679 0
M  V30 47980 H 4501.92 3.20894 -0.350289 0
M  V30 47981 H 4500.98 2.67004 -2.70948 0
M  V30 47982 H 4502.29 3.65398 -3.39538 0
M  V30 47983 H 4501.44 5.66575 -2.16975 0
M  V30 47984 H 4500.18 4.67789 -1.3793 0
M  V30 47985 H 4499.19 4.13803 -3.62004 0
M  V30 47986 H 4500.41 5.16007 -4.4149 0
M  V30 47987 H 4498.36 6.11195 -2.38277 0
M  V30 47988 H 4498.27 6.35361 -4.09698 0
M  V30 47989 H 4499.54 7.11521 -3.18369 0
M  V30 47990 N 4503.77 1.25652 0.951275 0
M  V30 47991 C 4505 1.13349 1.73088 0
M  V30 47992 C 4505.41 -0.312369 1.86198 0
M  V30 47993 O 4504.77 -1.21461 1.36211 0
M  V30 47994 C 4504.82 1.78613 3.14292 0
M  V30 47995 O 4504.54 3.17548 3.0182 0
M  V30 47996 C 4506.04 1.72133 4.08516 0
M  V30 47997 H 4503.26 0.3952 0.542271 0
M  V30 47998 H 4505.81 1.6608 1.19322 0
M  V30 47999 H 4503.96 1.29845 3.64992 0
M  V30 48000 H 4504.38 3.4969 3.90919 0
M  V30 48001 H 4505.85 2.22453 5.05192 0
M  V30 48002 H 4506.33 0.685787 4.33813 0
M  V30 48003 H 4506.93 2.20405 3.63733 0
M  V30 48004 N 4505.25 -1.15438 1.07293 0
M  V30 48005 C 4506.5 -1.85843 0.794161 0
M  V30 48006 C 4506.82 -1.82694 -0.681744 0
M  V30 48007 O 4506.09 -1.26747 -1.49372 0
M  V30 48008 H 4504.67 -0.688078 0.290787 0
M  V30 48009 H 4507.33 -1.39942 1.35655 0
M  V30 48010 H 4506.43 -2.90997 1.12814 0
M  V30 48011 N 4506.73 -0.85695 -1.32265 0
M  V30 48012 C 4507.66 -0.318661 -2.31315 0
M  V30 48013 C 4508.64 0.583431 -1.59781 0
M  V30 48014 O 4509.82 0.503193 -1.87568 0
M  V30 48015 C 4506.95 0.491858 -3.43799 0
M  V30 48016 C 4505.91 -0.315999 -4.26832 0
M  V30 48017 C 4505.23 0.619399 -5.311 0
M  V30 48018 C 4506.53 -1.543 -4.98988 0
M  V30 48019 H 4508.23 -1.14631 -2.76587 0
M  V30 48020 H 4505.77 -0.55266 -1.32972 0
M  V30 48021 H 4507.73 0.878867 -4.12133 0
M  V30 48022 H 4506.45 1.35289 -2.97262 0
M  V30 48023 H 4505.11 -0.684791 -3.60147 0
M  V30 48024 H 4504.76 1.47734 -4.80816 0
M  V30 48025 H 4504.46 0.0828556 -5.87542 0
M  V30 48026 H 4505.98 1.00353 -6.02297 0
M  V30 48027 H 4507.39 -1.22815 -5.5999 0
M  V30 48028 H 4505.79 -2.01765 -5.65165 0
M  V30 48029 H 4506.86 -2.303 -4.2672 0
M  V30 48030 N 4508.2 1.45101 -0.61511 0
M  V30 48031 C 4509.11 2.34383 0.100952 0
M  V30 48032 C 4510.13 1.51684 0.852532 0
M  V30 48033 O 4511.31 1.84463 0.808419 0
M  V30 48034 C 4508.37 3.29421 1.08087 0
M  V30 48035 C 4507.43 4.28026 0.330426 0
M  V30 48036 C 4506.67 5.18524 1.26367 0
M  V30 48037 O 4506.89 5.12607 2.5018 0
M  V30 48038 O 4505.82 5.97125 0.756657 0
M  V30 48039 H 4509.65 2.97031 -0.63296 0
M  V30 48040 H 4507.23 1.44608 -0.375344 0
M  V30 48041 H 4509.12 3.87963 1.64506 0
M  V30 48042 H 4507.79 2.69327 1.79568 0
M  V30 48043 H 4506.7 3.73077 -0.276414 0
M  V30 48044 H 4508.03 4.90996 -0.344039 0
M  V30 48045 N 4509.68 0.354705 1.53557 0
M  V30 48046 C 4510.91 -0.242081 2.05982 0
M  V30 48047 C 4511.33 -1.42549 1.22725 0
M  V30 48048 O 4510.69 -1.79655 0.243667 0
M  V30 48049 C 4510.74 -0.624242 3.55156 0
M  V30 48050 O 4509.84 -1.72288 3.74687 0
M  V30 48051 H 4509.18 -0.0378199 0.662922 0
M  V30 48052 H 4511.71 0.512156 1.98086 0
M  V30 48053 H 4511.72 -0.898293 3.97988 0
M  V30 48054 H 4510.4 0.241135 4.152 0
M  V30 48055 H 4508.98 -1.44523 3.43755 0
M  V30 48056 N 4511.16 -1.57378 0.0835957 0
M  V30 48057 C 4512.41 -1.94219 -0.583665 0
M  V30 48058 C 4512.74 -0.964712 -1.68544 0
M  V30 48059 O 4512.02 0.0041542 -1.945 0
M  V30 48060 C 4512.3 -3.41257 -1.1496 0
M  V30 48061 C 4512.15 -4.49768 -0.0536696 0
M  V30 48062 C 4513.47 -3.89359 -2.05152 0
M  V30 48063 H 4510.59 -0.70624 -0.210699 0
M  V30 48064 H 4513.23 -1.89391 0.151966 0
M  V30 48065 H 4511.38 -3.45502 -1.77653 0
M  V30 48066 H 4513.05 -4.57639 0.580012 0
M  V30 48067 H 4511.3 -4.2943 0.614219 0
M  V30 48068 H 4511.97 -5.49819 -0.490259 0
M  V30 48069 H 4514.44 -3.87195 -1.5238 0
M  V30 48070 H 4513.32 -4.9283 -2.4168 0
M  V30 48071 H 4513.58 -3.27983 -2.96444 0
M  V30 48072 N 4512.64 0.190037 -1.5645 0
M  V30 48073 C 4513.59 1.2355 -1.94946 0
M  V30 48074 C 4514.56 1.44969 -0.810747 0
M  V30 48075 O 4515.74 1.58019 -1.06933 0
M  V30 48076 C 4512.88 2.57408 -2.29859 0
M  V30 48077 C 4511.99 2.43525 -3.56819 0
M  V30 48078 C 4511.13 3.70121 -3.8103 0
M  V30 48079 C 4510.17 3.51091 -5.01399 0
M  V30 48080 N 4509.31 4.69712 -5.21838 0
M  V30 48081 H 4514.15 0.900204 -2.84078 0
M  V30 48082 H 4511.68 0.43313 -1.40579 0
M  V30 48083 H 4513.64 3.354 -2.48118 0
M  V30 48084 H 4512.27 2.8897 -1.43862 0
M  V30 48085 H 4511.32 1.56804 -3.46579 0
M  V30 48086 H 4512.63 2.254 -4.44968 0
M  V30 48087 H 4511.79 4.56552 -3.99556 0
M  V30 48088 H 4510.53 3.91205 -2.91221 0
M  V30 48089 H 4509.53 2.63046 -4.82791 0
M  V30 48090 H 4510.76 3.31448 -5.92722 0
M  V30 48091 H 4508.7 4.9105 -4.34978 0
M  V30 48092 H 4508.62 4.54431 -6.04176 0
M  V30 48093 H 4509.89 5.5748 -5.44827 0
M  V30 48094 N 4514.12 1.508 0.457934 0
M  V30 48095 C 4515.34 1.66501 1.23662 0
M  V30 48096 C 4515.77 0.353353 1.84751 0
M  V30 48097 O 4515.13 -0.684287 1.6789 0
M  V30 48098 C 4515.17 2.76771 2.3115 0
M  V30 48099 O 4514.28 2.38939 3.36128 0
M  V30 48100 H 4513.62 0.55584 0.363232 0
M  V30 48101 H 4516.15 1.97252 0.543404 0
M  V30 48102 H 4516.16 3.00242 2.76258 0
M  V30 48103 H 4514.83 3.7196 1.8606 0
M  V30 48104 H 4513.41 2.25964 2.96639 0
M  V30 48105 N 4515.6 -0.71201 1.40599 0
M  V30 48106 C 4516.56 -1.8078 1.40894 0
M  V30 48107 C 4517.56 -1.57936 0.302158 0
M  V30 48108 O 4518.75 -1.64911 0.56124 0
M  V30 48109 C 4515.88 -3.18923 1.2042 0
M  V30 48110 H 4517.07 -1.81916 2.38425 0
M  V30 48111 H 4514.63 -0.918006 1.265 0
M  V30 48112 H 4515.36 -3.23436 0.236636 0
M  V30 48113 H 4515.15 -3.36904 2.00594 0
M  V30 48114 H 4516.64 -3.98944 1.23422 0
M  V30 48115 N 4517.07 -1.26155 -0.944598 0
M  V30 48116 C 4518 -1.0991 -2.06015 0
M  V30 48117 C 4518.98 -0.00525518 -1.70099 0
M  V30 48118 O 4520.17 -0.176651 -1.93395 0
M  V30 48119 C 4517.3 -0.727681 -3.39591 0
M  V30 48120 C 4516.25 -1.77288 -3.89555 0
M  V30 48121 C 4515.58 -1.25587 -5.19742 0
M  V30 48122 C 4516.88 -3.17372 -4.14816 0
M  V30 48123 H 4518.57 -2.03224 -2.19864 0
M  V30 48124 H 4516.12 -0.978489 -1.05648 0
M  V30 48125 H 4518.07 -0.600924 -4.17093 0
M  V30 48126 H 4516.8 0.241172 -3.25708 0
M  V30 48127 H 4515.46 -1.88825 -3.1423 0
M  V30 48128 H 4515.1 -0.27696 -5.02237 0
M  V30 48129 H 4514.8 -1.95453 -5.54141 0
M  V30 48130 H 4516.33 -1.14171 -5.99831 0
M  V30 48131 H 4517.74 -3.08931 -4.82943 0
M  V30 48132 H 4516.14 -3.84797 -4.6049 0
M  V30 48133 H 4517.21 -3.63684 -3.20721 0
M  V30 48134 N 4518.55 1.14868 -1.07903 0
M  V30 48135 C 4519.97 1.37773 -0.805655 0
M  V30 48136 C 4520.17 1.92746 0.587487 0
M  V30 48137 O 4519.22 2.13683 1.34521 0
M  V30 48138 C 4520.54 2.34355 -1.8841 0
M  V30 48139 C 4522.08 2.48005 -1.90951 0
M  V30 48140 C 4522.56 3.47883 -2.97895 0
M  V30 48141 N 4524.05 3.55422 -2.97034 0
M  V30 48142 C 4524.79 4.32539 -3.76427 0
M  V30 48143 N 4524.28 5.12942 -4.65685 0
M  V30 48144 N 4526.07 4.27684 -3.6475 0
M  V30 48145 H 4518.23 0.775295 -1.97745 0
M  V30 48146 H 4520.49 0.403491 -0.857846 0
M  V30 48147 H 4520.19 2.01088 -2.88542 0
M  V30 48148 H 4520.07 3.342 -1.74901 0
M  V30 48149 H 4522.46 2.80567 -0.914677 0
M  V30 48150 H 4522.54 1.48139 -2.08539 0
M  V30 48151 H 4522.18 3.16055 -3.97582 0
M  V30 48152 H 4522.11 4.47517 -2.77554 0
M  V30 48153 H 4524.6 2.9804 -2.32337 0
M  V30 48154 H 4524.91 5.69046 -5.22882 0
M  V30 48155 H 4523.26 5.12229 -4.6973 0
M  V30 48156 H 4526.45 3.63939 -2.94391 0
M  V30 48157 H 4526.62 4.87535 -4.26865 0
M  V30 48158 N 4520.03 0.863952 1.31809 0
M  V30 48159 C 4520.99 0.320292 2.26951 0
M  V30 48160 C 4521.99 -0.525315 1.51977 0
M  V30 48161 O 4523.18 -0.335487 1.70939 0
M  V30 48162 C 4520.31 -0.545801 3.36502 0
M  V30 48163 H 4521.51 1.16013 2.76552 0
M  V30 48164 H 4519.06 0.639045 1.42639 0
M  V30 48165 H 4519.8 -1.40708 2.92184 0
M  V30 48166 H 4519.58 0.0596052 3.92055 0
M  V30 48167 H 4521.07 -0.918652 4.0737 0
M  V30 48168 N 4521.51 -1.44772 0.622796 0
M  V30 48169 C 4522.75 -2.0212 0.123971 0
M  V30 48170 C 4523.08 -1.48919 -1.25113 0
M  V30 48171 O 4522.34 -0.66011 -1.84231 0
M  V30 48172 C 4522.64 -3.57364 0.050958 0
M  V30 48173 C 4522.3 -4.29783 1.36373 0
M  V30 48174 C 4520.96 -4.49284 1.7233 0
M  V30 48175 C 4523.32 -4.71054 2.23064 0
M  V30 48176 C 4520.64 -5.07315 2.947 0
M  V30 48177 C 4523 -5.3044 3.44698 0
M  V30 48178 C 4521.66 -5.48161 3.80888 0
M  V30 48179 H 4520.93 -0.73961 0.0453641 0
M  V30 48180 H 4523.58 -1.73645 0.80745 0
M  V30 48181 H 4521.88 -3.85205 -0.715855 0
M  V30 48182 H 4523.58 -3.99457 -0.351392 0
M  V30 48183 H 4520.17 -4.14928 1.0739 0
M  V30 48184 H 4524.35 -4.55708 1.96581 0
M  V30 48185 H 4519.61 -5.19223 3.22827 0
M  V30 48186 H 4523.78 -5.6137 4.12112 0
M  V30 48187 H 4521.41 -5.92895 4.75793 0
M  V30 48188 N 4522.99 -0.362844 -1.53366 0
M  V30 48189 C 4523.92 0.476896 -2.28578 0
M  V30 48190 C 4524.9 1.08627 -1.30898 0
M  V30 48191 O 4526.08 1.10403 -1.59765 0
M  V30 48192 C 4523.21 1.61817 -3.07299 0
M  V30 48193 C 4522.17 1.13619 -4.12644 0
M  V30 48194 C 4521.49 2.36749 -4.79431 0
M  V30 48195 C 4522.79 0.222877 -5.21824 0
M  V30 48196 H 4524.49 -0.150579 -2.99021 0
M  V30 48197 H 4522.03 -0.0738609 -1.4381 0
M  V30 48198 H 4523.98 2.21224 -3.58661 0
M  V30 48199 H 4522.71 2.27284 -2.34541 0
M  V30 48200 H 4521.37 0.564817 -3.62223 0
M  V30 48201 H 4521.02 3.00666 -4.03248 0
M  V30 48202 H 4520.72 2.05172 -5.50616 0
M  V30 48203 H 4522.24 2.96847 -5.33586 0
M  V30 48204 H 4523.65 0.724345 -5.68706 0
M  V30 48205 H 4522.05 -0.00188897 -6.001 0
M  V30 48206 H 4523.12 -0.735722 -4.79286 0
M  V30 48207 N 4524.46 1.57332 -0.0919406 0
M  V30 48208 C 4525.74 1.85693 0.614603 0
M  V30 48209 C 4526.12 0.988211 1.86541 0
M  V30 48210 O 4525.47 0.0597858 2.28422 0
M  V30 48211 C 4525.68 3.36297 0.933008 0
M  V30 48212 C 4527.03 4.04279 1.29782 0
M  V30 48213 O 4528.05 3.4116 1.02412 0
M  V30 48214 O 4526.91 5.15646 1.81029 0
M  V30 48215 H 4524 0.767813 0.307234 0
M  V30 48216 H 4526.55 1.69243 -0.124399 0
M  V30 48217 H 4525.32 3.91274 0.0455029 0
M  V30 48218 H 4524.95 3.58082 1.72809 0
M  V30 48219 N 4525.94 -0.181737 1.56549 0
M  V30 48220 C 4526.89 -1.24454 1.96505 0
M  V30 48221 C 4527.88 -1.46397 0.852312 0
M  V30 48222 O 4529.09 -1.471 1.03738 0
M  V30 48223 H 4525.47 -0.418116 0.625046 0
M  V30 48224 H 4527.44 -0.880614 2.8511 0
M  V30 48225 C 4526.19 -2.57882 2.33221 0
M  V30 48226 H 4525.51 -2.41817 3.18378 0
M  V30 48227 H 4526.95 -3.3096 2.65031 0
M  V30 48228 C 4525.41 -3.15867 1.17174 0
M  V30 48229 O 4525.94 -3.99128 0.453849 0
M  V30 48230 N 4524.14 -2.74804 0.945033 0
M  V30 48231 H 4523.69 -2.07199 1.53056 0
M  V30 48232 H 4523.65 -3.13938 0.170396 0
M  V30 48233 N 4527.42 -1.51041 -0.44993 0
M  V30 48234 C 4528.38 -1.70868 -1.52764 0
M  V30 48235 C 4529.38 -0.578898 -1.50018 0
M  V30 48236 O 4530.57 -0.846266 -1.52263 0
M  V30 48237 C 4527.71 -1.75351 -2.92344 0
M  V30 48238 H 4528.9 -2.67039 -1.36493 0
M  V30 48239 H 4526.45 -1.40841 -0.677762 0
M  V30 48240 H 4527.19 -0.809493 -3.14035 0
M  V30 48241 H 4526.97 -2.57446 -2.95743 0
M  V30 48242 H 4528.46 -1.92572 -3.70548 0
M  V30 48243 N 4528.9 0.704544 -1.40975 0
M  V30 48244 C 4529.86 1.8003 -1.41851 0
M  V30 48245 C 4530.86 1.57773 -0.31053 0
M  V30 48246 O 4532.05 1.64611 -0.569978 0
M  V30 48247 C 4529.18 3.1828 -1.22109 0
M  V30 48248 H 4530.38 1.80649 -2.39387 0
M  V30 48249 H 4527.93 0.911284 -1.26985 0
M  V30 48250 H 4528.66 3.23305 -0.253785 0
M  V30 48251 H 4528.45 3.35836 -2.02378 0
M  V30 48252 H 4529.94 3.98284 -1.25536 0
M  V30 48253 N 4530.38 1.26654 0.937895 0
M  V30 48254 C 4531.29 1.10283 2.07062 0
M  V30 48255 C 4532.3 0.0354809 1.73964 0
M  V30 48256 O 4533.48 0.239886 1.99966 0
M  V30 48257 C 4530.54 0.741006 3.38689 0
M  V30 48258 C 4529.6 1.88813 3.85549 0
M  V30 48259 C 4528.84 1.54347 5.10894 0
M  V30 48260 O 4529.06 0.446694 5.68648 0
M  V30 48261 O 4527.99 2.3793 5.52877 0
M  V30 48262 H 4531.82 2.05317 2.23782 0
M  V30 48263 H 4529.41 1.05747 1.05537 0
M  V30 48264 H 4531.29 0.552097 4.17768 0
M  V30 48265 H 4529.96 -0.179908 3.232 0
M  V30 48266 H 4528.87 2.13202 3.07401 0
M  V30 48267 H 4530.2 2.78888 4.05564 0
M  V30 48268 N 4531.85 -1.14294 1.08511 0
M  V30 48269 C 4533.13 -1.81541 0.728152 0
M  V30 48270 C 4533.51 -1.95841 -0.788011 0
M  V30 48271 O 4532.86 -1.5191 -1.70691 0
M  V30 48272 C 4533.07 -3.17164 1.4563 0
M  V30 48273 C 4534.42 -3.92644 1.61604 0
M  V30 48274 O 4535.44 -3.26757 1.41805 0
M  V30 48275 O 4534.3 -5.10801 1.94281 0
M  V30 48276 H 4531.39 -0.784901 0.260499 0
M  V30 48277 H 4533.94 -1.21303 1.18675 0
M  V30 48278 H 4532.71 -3.01926 2.48911 0
M  V30 48279 H 4532.34 -3.85097 0.989259 0
M  V30 48280 N 4533.33 -0.87093 -1.31349 0
M  V30 48281 C 4534.26 -0.343177 -2.30964 0
M  V30 48282 C 4535.24 0.566451 -1.60391 0
M  V30 48283 O 4536.43 0.48327 -1.88091 0
M  V30 48284 C 4533.56 0.455366 -3.44302 0
M  V30 48285 C 4532.51 -0.361253 -4.26473 0
M  V30 48286 C 4531.84 0.563034 -5.31727 0
M  V30 48287 C 4533.14 -1.59583 -4.97323 0
M  V30 48288 H 4534.83 -1.17558 -2.75355 0
M  V30 48289 H 4532.38 -0.566732 -1.32379 0
M  V30 48290 H 4534.33 0.835105 -4.13042 0
M  V30 48291 H 4533.06 1.32128 -2.9868 0
M  V30 48292 H 4531.71 -0.722951 -3.59401 0
M  V30 48293 H 4531.36 1.42626 -4.82356 0
M  V30 48294 H 4531.06 0.0205343 -5.87596 0
M  V30 48295 H 4532.59 0.939596 -6.03327 0
M  V30 48296 H 4534 -1.28748 -5.58656 0
M  V30 48297 H 4532.4 -2.07748 -5.62993 0
M  V30 48298 H 4533.47 -2.34813 -4.24253 0
M  V30 48299 N 4534.81 1.4444 -0.630465 0
M  V30 48300 C 4535.72 2.34477 0.0760869 0
M  V30 48301 C 4536.74 1.52579 0.836396 0
M  V30 48302 O 4537.91 1.8531 0.788809 0
M  V30 48303 C 4534.98 3.30549 1.04587 0
M  V30 48304 C 4534.04 4.28353 0.28501 0
M  V30 48305 C 4533.27 5.19835 1.2086 0
M  V30 48306 O 4533.49 5.15232 2.44729 0
M  V30 48307 O 4532.43 5.97894 0.693281 0
M  V30 48308 H 4536.25 2.96343 -0.664428 0
M  V30 48309 H 4533.84 1.44202 -0.39066 0
M  V30 48310 H 4535.72 3.89686 1.60382 0
M  V30 48311 H 4534.4 2.71217 1.76701 0
M  V30 48312 H 4533.3 3.72763 -0.315969 0
M  V30 48313 H 4534.64 4.90604 -0.396096 0
M  V30 48314 N 4536.29 0.370972 1.53172 0
M  V30 48315 C 4537.24 -0.472955 2.25902 0
M  V30 48316 C 4538.21 -1.07307 1.26785 0
M  V30 48317 O 4539.39 -1.10455 1.55578 0
M  V30 48318 C 4536.53 -1.60394 3.05561 0
M  V30 48319 C 4535.64 -1.02848 4.19579 0
M  V30 48320 C 4534.78 -2.12901 4.86669 0
M  V30 48321 C 4533.82 -1.52848 5.92709 0
M  V30 48322 N 4532.95 -2.56756 6.53468 0
M  V30 48323 H 4537.79 0.153753 2.97603 0
M  V30 48324 H 4535.33 0.0876462 1.46839 0
M  V30 48325 H 4537.29 -2.27022 3.50024 0
M  V30 48326 H 4535.92 -2.20123 2.36105 0
M  V30 48327 H 4534.97 -0.252332 3.79562 0
M  V30 48328 H 4536.28 -0.549468 4.95764 0
M  V30 48329 H 4535.44 -2.87337 5.34343 0
M  V30 48330 H 4534.18 -2.64156 4.09967 0
M  V30 48331 H 4533.18 -0.769287 5.44391 0
M  V30 48332 H 4534.41 -1.02411 6.71334 0
M  V30 48333 H 4532.35 -3.07214 5.79617 0
M  V30 48334 H 4532.27 -2.13557 7.2521 0
M  V30 48335 H 4533.54 -3.30878 7.0579 0
M  V30 48336 N 4537.77 -1.57281 0.100283 0
M  V30 48337 C 4538.99 -1.98881 -0.570439 0
M  V30 48338 C 4539.41 -0.979533 -1.61402 0
M  V30 48339 O 4538.77 0.0301646 -1.82475 0
M  V30 48340 C 4538.82 -3.40525 -1.21348 0
M  V30 48341 O 4538.54 -4.37589 -0.211632 0
M  V30 48342 C 4540.04 -3.97156 -1.96932 0
M  V30 48343 H 4537.26 -0.653433 -0.152532 0
M  V30 48344 H 4539.8 -2.03697 0.181102 0
M  V30 48345 H 4537.96 -3.36707 -1.91592 0
M  V30 48346 H 4538.37 -5.2012 -0.676424 0
M  V30 48347 H 4539.85 -4.98401 -2.37277 0
M  V30 48348 H 4540.32 -3.3526 -2.83721 0
M  V30 48349 H 4540.93 -4.04462 -1.31492 0
M  V30 48350 N 4539.25 0.173432 -1.56643 0
M  V30 48351 C 4540.18 1.24346 -1.91346 0
M  V30 48352 C 4541.16 1.42887 -0.776015 0
M  V30 48353 O 4542.34 1.57928 -1.02912 0
M  V30 48354 C 4539.47 2.60675 -2.16255 0
M  V30 48355 C 4538.51 2.58882 -3.38943 0
M  V30 48356 S 4539.35 2.08173 -4.9338 0
M  V30 48357 C 4540.5 3.46284 -5.21381 0
M  V30 48358 H 4540.74 0.947246 -2.81806 0
M  V30 48359 H 4538.27 0.377905 -1.49704 0
M  V30 48360 H 4540.23 3.39141 -2.31286 0
M  V30 48361 H 4538.89 2.87498 -1.26506 0
M  V30 48362 H 4538.08 3.59176 -3.53566 0
M  V30 48363 H 4537.68 1.88511 -3.23017 0
M  V30 48364 H 4539.97 4.42269 -5.13229 0
M  V30 48365 H 4540.92 3.36538 -6.23015 0
M  V30 48366 H 4541.33 3.42198 -4.48955 0
M  V30 48367 N 4540.72 1.51278 0.441914 0
M  V30 48368 C 4541.63 1.75097 1.56135 0
M  V30 48369 C 4542.65 0.63502 1.61998 0
M  V30 48370 O 4543.83 0.916749 1.79326 0
M  V30 48371 C 4540.89 1.86677 2.92152 0
M  V30 48372 C 4539.95 3.10517 2.96442 0
M  V30 48373 C 4539.18 3.21534 4.25971 0
M  V30 48374 O 4539.41 2.38604 5.18097 0
M  V30 48375 O 4538.34 4.1448 4.36452 0
M  V30 48376 H 4542.17 2.70049 1.38951 0
M  V30 48377 H 4539.75 1.35724 0.624452 0
M  V30 48378 H 4541.63 1.96305 3.72884 0
M  V30 48379 H 4540.31 0.949123 3.09473 0
M  V30 48380 H 4539.22 3.0637 2.14681 0
M  V30 48381 H 4540.55 4.01955 2.84065 0
M  V30 48382 N 4542.2 -0.697058 1.41347 0
M  V30 48383 C 4543.15 -1.83232 1.43279 0
M  V30 48384 C 4544.14 -1.66521 0.311005 0
M  V30 48385 O 4545.35 -1.734 0.48296 0
M  V30 48386 H 4541.72 -0.603786 0.44827 0
M  V30 48387 H 4543.7 -1.78719 2.3896 0
M  V30 48388 C 4542.44 -3.21241 1.3304 0
M  V30 48389 H 4541.77 -3.34716 2.18645 0
M  V30 48390 H 4543.21 -4.00758 1.38453 0
M  V30 48391 C 4541.67 -3.36873 0.0425819 0
M  V30 48392 O 4542.2 -3.9118 -0.913284 0
M  V30 48393 N 4540.4 -2.90581 -0.0330124 0
M  V30 48394 H 4539.95 -2.46574 0.745592 0
M  V30 48395 H 4539.91 -3.01419 -0.894093 0
M  V30 48396 N 4543.68 -1.2715 -0.931165 0
M  V30 48397 C 4544.61 -1.12088 -2.04838 0
M  V30 48398 C 4545.59 -0.0232962 -1.70084 0
M  V30 48399 O 4546.78 -0.197153 -1.93197 0
M  V30 48400 C 4543.91 -0.763659 -3.388 0
M  V30 48401 C 4542.86 -1.81409 -3.87653 0
M  V30 48402 C 4542.19 -1.31093 -5.18381 0
M  V30 48403 C 4543.49 -3.21754 -4.11427 0
M  V30 48404 H 4545.18 -2.05545 -2.17696 0
M  V30 48405 H 4542.73 -0.989639 -1.04605 0
M  V30 48406 H 4544.68 -0.645128 -4.16433 0
M  V30 48407 H 4543.4 0.206613 -3.25946 0
M  V30 48408 H 4542.06 -1.92147 -3.1221 0
M  V30 48409 H 4541.71 -0.330213 -5.01915 0
M  V30 48410 H 4541.41 -2.01319 -5.52037 0
M  V30 48411 H 4542.93 -1.20527 -5.98586 0
M  V30 48412 H 4544.35 -3.14036 -4.7964 0
M  V30 48413 H 4542.74 -3.8966 -4.56383 0
M  V30 48414 H 4543.81 -3.67065 -3.16846 0
M  V30 48415 N 4545.16 1.13717 -1.09116 0
M  V30 48416 C 4546.1 2.19029 -0.727668 0
M  V30 48417 C 4547.07 1.63556 0.289599 0
M  V30 48418 O 4548.26 1.90024 0.171959 0
M  V30 48419 C 4545.4 3.4477 -0.150941 0
M  V30 48420 C 4544.51 4.1436 -1.22186 0
M  V30 48421 C 4543.65 5.27706 -0.608227 0
M  V30 48422 C 4542.69 5.89142 -1.66068 0
M  V30 48423 N 4541.82 6.93925 -1.06831 0
M  V30 48424 H 4546.66 2.49469 -1.63 0
M  V30 48425 H 4544.2 1.22497 -0.814433 0
M  V30 48426 H 4546.16 4.16715 0.201211 0
M  V30 48427 H 4544.79 3.14789 0.714672 0
M  V30 48428 H 4543.84 3.40731 -1.69134 0
M  V30 48429 H 4545.15 4.56107 -2.01911 0
M  V30 48430 H 4544.31 6.06354 -0.204737 0
M  V30 48431 H 4543.05 4.87201 0.220598 0
M  V30 48432 H 4542.05 5.09191 -2.07375 0
M  V30 48433 H 4543.28 6.3172 -2.49211 0
M  V30 48434 H 4541.22 6.55482 -0.260707 0
M  V30 48435 H 4541.14 7.34196 -1.80256 0
M  V30 48436 H 4542.41 7.76432 -0.690917 0
M  V30 48437 N 4546.64 0.877884 1.30885 0
M  V30 48438 C 4547.57 0.296687 2.27272 0
M  V30 48439 C 4548.58 -0.544745 1.53416 0
M  V30 48440 O 4549.77 -0.365449 1.74719 0
M  V30 48441 C 4546.87 -0.597364 3.33594 0
M  V30 48442 C 4546.04 0.213404 4.36879 0
M  V30 48443 C 4545.1 -0.610024 5.22652 0
M  V30 48444 O 4544.13 -0.0352409 5.69189 0
M  V30 48445 N 4545.33 -1.92051 5.47811 0
M  V30 48446 H 4548.09 1.12502 2.77783 0
M  V30 48447 H 4545.66 0.740155 1.43991 0
M  V30 48448 H 4547.65 -1.15411 3.87895 0
M  V30 48449 H 4546.22 -1.32637 2.83066 0
M  V30 48450 H 4545.44 0.9516 3.82542 0
M  V30 48451 H 4546.73 0.769439 5.02948 0
M  V30 48452 H 4546.12 -2.41052 5.11772 0
M  V30 48453 H 4544.68 -2.42487 6.05015 0
M  V30 48454 N 4548.11 -1.44104 0.638116 0
M  V30 48455 C 4549.36 -2.01578 0.145114 0
M  V30 48456 C 4549.68 -1.505 -1.23995 0
M  V30 48457 O 4548.95 -0.711438 -1.82525 0
M  V30 48458 H 4547.53 -0.74528 0.0506562 0
M  V30 48459 H 4550.19 -1.76513 0.826389 0
M  V30 48460 H 4549.29 -3.11876 0.118148 0
M  V30 48461 N 4549.59 -0.37909 -1.52973 0
M  V30 48462 C 4550.52 0.495884 -2.23771 0
M  V30 48463 C 4551.54 1.03513 -1.25654 0
M  V30 48464 O 4552.73 0.939196 -1.51794 0
M  V30 48465 C 4549.83 1.69884 -2.93245 0
M  V30 48466 C 4549 1.28876 -4.17983 0
M  V30 48467 C 4548.06 2.35527 -4.70546 0
M  V30 48468 O 4547.08 1.97357 -5.3389 0
M  V30 48469 N 4548.29 3.67302 -4.49521 0
M  V30 48470 H 4551.05 -0.110628 -2.99496 0
M  V30 48471 H 4548.61 -0.204934 -1.60598 0
M  V30 48472 H 4550.6 2.40736 -3.25313 0
M  V30 48473 H 4549.17 2.21192 -2.20891 0
M  V30 48474 H 4548.39 0.409538 -3.92067 0
M  V30 48475 H 4549.68 0.991268 -4.9905 0
M  V30 48476 H 4549.08 4.01081 -3.98937 0
M  V30 48477 H 4547.64 4.34218 -4.86105 0
M  V30 48478 N 4551.07 1.57225 -0.108623 0
M  V30 48479 C 4552.32 1.94835 0.551875 0
M  V30 48480 C 4552.64 0.991263 1.67345 0
M  V30 48481 O 4551.9 0.0132565 1.95696 0
M  V30 48482 C 4552.2 3.38915 1.13451 0
M  V30 48483 C 4551.86 4.50697 0.13535 0
M  V30 48484 C 4550.53 4.80998 -0.139421 0
M  V30 48485 C 4552.88 5.18331 -0.546139 0
M  V30 48486 C 4550.21 5.76255 -1.10214 0
M  V30 48487 C 4552.56 6.14622 -1.49742 0
M  V30 48488 C 4551.22 6.43321 -1.78029 0
M  V30 48489 H 4550.49 0.712951 0.201945 0
M  V30 48490 H 4553.14 1.90582 -0.187327 0
M  V30 48491 H 4551.44 3.39812 1.95025 0
M  V30 48492 H 4553.14 3.65323 1.65349 0
M  V30 48493 H 4549.73 4.27088 0.359696 0
M  V30 48494 H 4553.92 4.95085 -0.347016 0
M  V30 48495 H 4549.17 5.968 -1.32816 0
M  V30 48496 H 4553.35 6.66119 -2.03123 0
M  V30 48497 H 4550.97 7.16941 -2.52784 0
M  V30 48498 N 4552.55 -0.165123 1.56733 0
M  V30 48499 C 4553.78 -0.896153 1.86485 0
M  V30 48500 C 4554.19 -1.75553 0.694737 0
M  V30 48501 O 4553.55 -1.7938 -0.336007 0
M  V30 48502 C 4553.6 -1.76781 3.15327 0
M  V30 48503 O 4553.32 -0.943088 4.27829 0
M  V30 48504 C 4554.82 -2.60797 3.58468 0
M  V30 48505 H 4552.04 -0.260042 0.618562 0
M  V30 48506 H 4554.58 -0.163356 2.03847 0
M  V30 48507 H 4552.74 -2.45387 2.99773 0
M  V30 48508 H 4553.15 -1.53981 5.01388 0
M  V30 48509 H 4554.63 -3.17563 4.51506 0
M  V30 48510 H 4555.1 -3.35967 2.82883 0
M  V30 48511 H 4555.71 -1.97513 3.76655 0
M  V30 48512 N 4554.03 -1.5151 -0.433885 0
M  V30 48513 C 4554.98 -1.69457 -1.5254 0
M  V30 48514 C 4555.96 -0.548527 -1.51261 0
M  V30 48515 O 4557.15 -0.804585 -1.57656 0
M  V30 48516 C 4554.28 -1.82614 -2.90701 0
M  V30 48517 C 4553.37 -3.03013 -2.96722 0
M  V30 48518 N 4553.76 -4.26131 -2.72481 0
M  V30 48519 C 4552.06 -3.02338 -3.27883 0
M  V30 48520 C 4552.76 -5.07417 -2.84434 0
M  V30 48521 N 4551.73 -4.42137 -3.16253 0
M  V30 48522 H 4555.54 -2.6231 -1.32555 0
M  V30 48523 H 4553.05 -1.49204 -0.641244 0
M  V30 48524 H 4555.05 -1.93582 -3.69231 0
M  V30 48525 H 4553.71 -0.909448 -3.11704 0
M  V30 48526 H 4554.72 -4.55018 -2.47344 0
M  V30 48527 H 4551.39 -2.20313 -3.54638 0
M  V30 48528 H 4552.78 -6.15432 -2.69617 0
M  V30 48529 N 4555.5 0.689552 -1.41714 0
M  V30 48530 C 4556.73 1.47822 -1.44763 0
M  V30 48531 C 4557.15 1.88721 -0.0546367 0
M  V30 48532 O 4556.5 1.5718 0.927408 0
M  V30 48533 C 4556.56 2.73689 -2.3617 0
M  V30 48534 O 4556.28 2.34511 -3.70049 0
M  V30 48535 C 4557.78 3.67381 -2.48085 0
M  V30 48536 H 4555 0.45534 -0.492856 0
M  V30 48537 H 4557.54 0.848509 -1.86066 0
M  V30 48538 H 4555.7 3.32884 -1.9816 0
M  V30 48539 H 4556.11 3.15686 -4.18859 0
M  V30 48540 H 4557.58 4.52464 -3.16197 0
M  V30 48541 H 4558.06 4.12279 -1.51402 0
M  V30 48542 H 4558.67 3.14087 -2.86757 0
M  V30 48543 N 4556.98 1.27642 0.924409 0
M  V30 48544 C 4558.4 1.05118 1.20093 0
M  V30 48545 C 4558.6 -0.213192 2.00369 0
M  V30 48546 O 4557.65 -0.917787 2.3523 0
M  V30 48547 C 4558.97 2.29251 1.94588 0
M  V30 48548 C 4560.52 2.34322 2.07514 0
M  V30 48549 C 4560.99 3.58193 2.85415 0
M  V30 48550 N 4562.48 3.5877 2.92981 0
M  V30 48551 C 4563.22 4.5129 3.5373 0
M  V30 48552 N 4562.71 5.54117 4.15844 0
M  V30 48553 N 4564.51 4.38907 3.51166 0
M  V30 48554 H 4556.66 2.08823 0.388191 0
M  V30 48555 H 4558.92 0.918577 0.234353 0
M  V30 48556 H 4558.63 3.21306 1.43023 0
M  V30 48557 H 4558.5 2.34827 2.95189 0
M  V30 48558 H 4560.89 1.42771 2.58264 0
M  V30 48559 H 4560.97 2.32748 1.06123 0
M  V30 48560 H 4560.61 4.50083 2.35347 0
M  V30 48561 H 4560.54 3.5702 3.87098 0
M  V30 48562 H 4563.03 2.84407 2.4884 0
M  V30 48563 H 4563.35 6.20875 4.60146 0
M  V30 48564 H 4561.69 5.57955 4.1438 0
M  V30 48565 H 4564.88 3.57782 3.01844 0
M  V30 48566 H 4565.05 5.112 3.98219 0
M  V30 48567 N 4558.46 -1.13137 1.09717 0
M  V30 48568 C 4559.41 -2.20715 0.734012 0
M  V30 48569 C 4560.4 -1.67291 -0.266447 0
M  V30 48570 O 4561.61 -1.79547 -0.127593 0
M  V30 48571 H 4557.98 -0.719284 0.219396 0
M  V30 48572 H 4559.95 -2.48606 1.65039 0
M  V30 48573 C 4558.7 -3.47264 0.173971 0
M  V30 48574 H 4558.03 -3.88713 0.93501 0
M  V30 48575 H 4559.47 -4.23979 -0.0421636 0
M  V30 48576 C 4557.93 -3.18728 -1.09152 0
M  V30 48577 O 4558.46 -3.37769 -2.17427 0
M  V30 48578 N 4556.66 -2.72587 -1.00722 0
M  V30 48579 H 4556.21 -2.57292 -0.12603 0
M  V30 48580 H 4556.17 -2.53869 -1.85467 0
M  V30 48581 N 4559.94 -0.884812 -1.30418 0
M  V30 48582 C 4560.87 -0.308735 -2.27111 0
M  V30 48583 C 4561.88 0.536601 -1.53702 0
M  V30 48584 O 4563.07 0.356178 -1.7491 0
M  V30 48585 C 4560.17 0.579664 -3.33906 0
M  V30 48586 C 4559.35 -0.23657 -4.3676 0
M  V30 48587 C 4558.4 0.582298 -5.22968 0
M  V30 48588 O 4557.43 0.00505492 -5.692 0
M  V30 48589 N 4558.63 1.89144 -5.48821 0
M  V30 48590 H 4561.4 -1.13973 -2.77182 0
M  V30 48591 H 4558.96 -0.747781 -1.43596 0
M  V30 48592 H 4560.95 1.13353 -3.88501 0
M  V30 48593 H 4559.52 1.31134 -2.83765 0
M  V30 48594 H 4558.74 -0.971874 -3.82032 0
M  V30 48595 H 4560.03 -0.796101 -5.02533 0
M  V30 48596 H 4559.43 2.38334 -5.13043 0
M  V30 48597 H 4557.98 2.39275 -6.06293 0
M  V30 48598 N 4561.42 1.43763 -0.645749 0
M  V30 48599 C 4562.83 1.85192 -0.236784 0
M  V30 48600 C 4563.18 1.5405 1.21504 0
M  V30 48601 O 4562.3 0.985761 1.92644 0
M  V30 48602 C 4562.9 3.36149 -0.422964 0
M  V30 48603 C 4561.46 3.76338 -0.0683815 0
M  V30 48604 C 4560.6 2.67535 -0.7294 0
M  V30 48605 H 4563.56 1.34022 -0.84993 0
M  V30 48606 H 4563.58 3.79033 0.33377 0
M  V30 48607 H 4563.09 3.58785 -1.4797 0
M  V30 48608 H 4561.19 3.59316 0.986053 0
M  V30 48609 H 4561.3 4.76602 -0.488637 0
M  V30 48610 H 4559.67 2.54176 -0.163324 0
M  V30 48611 H 4560.45 2.93 -1.78902 0
M  V30 48612 N 4562.89 0.387197 1.5277 0
M  V30 48613 C 4563.84 -0.448969 2.26391 0
M  V30 48614 C 4564.81 -1.05956 1.27916 0
M  V30 48615 O 4566 -1.08798 1.5674 0
M  V30 48616 C 4563.14 -1.57144 3.07245 0
M  V30 48617 C 4562.25 -0.983918 4.20646 0
M  V30 48618 C 4561.38 -2.07727 4.889 0
M  V30 48619 C 4560.42 -1.46553 5.94297 0
M  V30 48620 N 4559.56 -2.49811 6.56155 0
M  V30 48621 H 4564.4 0.18531 2.97423 0
M  V30 48622 H 4561.94 0.103215 1.46737 0
M  V30 48623 H 4563.9 -2.23296 3.52413 0
M  V30 48624 H 4562.53 -2.17607 2.38427 0
M  V30 48625 H 4561.58 -0.21206 3.79808 0
M  V30 48626 H 4562.89 -0.496854 4.96319 0
M  V30 48627 H 4562.04 -2.81654 5.3736 0
M  V30 48628 H 4560.78 -2.59793 4.12746 0
M  V30 48629 H 4559.79 -0.711504 5.45177 0
M  V30 48630 H 4561.01 -0.952851 6.72382 0
M  V30 48631 H 4558.96 -3.01049 5.82842 0
M  V30 48632 H 4558.88 -2.05854 7.27434 0
M  V30 48633 H 4560.14 -3.23374 7.0926 0
M  V30 48634 N 4564.37 -1.57165 0.116959 0
M  V30 48635 C 4565.62 -1.94739 -0.540465 0
M  V30 48636 C 4565.94 -1.00102 -1.67346 0
M  V30 48637 O 4565.21 -0.0569543 -1.95817 0
M  V30 48638 H 4563.79 -0.718989 -0.202644 0
M  V30 48639 H 4566.45 -1.94016 0.185422 0
M  V30 48640 H 4565.55 -2.97722 -0.936379 0
M  V30 48641 N 4565.85 0.156809 -1.56818 0
M  V30 48642 C 4567.1 0.872351 -1.83079 0
M  V30 48643 C 4567.43 1.81259 -0.697064 0
M  V30 48644 O 4566.7 1.92172 0.300013 0
M  V30 48645 C 4566.99 1.6554 -3.19795 0
M  V30 48646 C 4566.84 0.737311 -4.43716 0
M  V30 48647 C 4568.16 2.62 -3.53616 0
M  V30 48648 H 4565.28 0.315692 -0.665964 0
M  V30 48649 H 4567.92 0.137938 -1.89499 0
M  V30 48650 H 4566.07 2.28148 -3.14453 0
M  V30 48651 H 4567.74 0.122981 -4.61136 0
M  V30 48652 H 4565.99 0.0462542 -4.33775 0
M  V30 48653 H 4566.66 1.32103 -5.3596 0
M  V30 48654 H 4569.13 2.09513 -3.59505 0
M  V30 48655 H 4568.01 3.13845 -4.50325 0
M  V30 48656 H 4568.27 3.42892 -2.79065 0
M  V30 48657 N 4567.33 1.51738 0.425844 0
M  V30 48658 C 4568.56 1.68798 1.19644 0
M  V30 48659 C 4568.97 0.390229 1.84723 0
M  V30 48660 O 4568.33 -0.632316 1.71196 0
M  V30 48661 C 4568.38 2.81182 2.27198 0
M  V30 48662 O 4568.1 4.05931 1.64779 0
M  V30 48663 C 4569.6 3.0961 3.17264 0
M  V30 48664 H 4566.82 0.566141 0.360174 0
M  V30 48665 H 4569.37 1.98213 0.503179 0
M  V30 48666 H 4567.52 2.54334 2.92221 0
M  V30 48667 H 4567.93 4.68431 2.35951 0
M  V30 48668 H 4569.41 3.918 3.8884 0
M  V30 48669 H 4569.89 2.22481 3.7868 0
M  V30 48670 H 4570.49 3.38161 2.57929 0
M  V30 48671 N 4568.81 -0.682027 1.42078 0
M  V30 48672 C 4569.74 -1.8075 1.40933 0
M  V30 48673 C 4570.75 -1.59832 0.309454 0
M  V30 48674 O 4571.94 -1.69084 0.572074 0
M  V30 48675 C 4569.04 -3.17739 1.17877 0
M  V30 48676 C 4568.21 -3.6557 2.40161 0
M  V30 48677 C 4567.27 -4.81269 2.12758 0
M  V30 48678 O 4566.3 -4.92186 2.85904 0
M  V30 48679 N 4567.5 -5.6947 1.12622 0
M  V30 48680 H 4570.27 -1.8222 2.37941 0
M  V30 48681 H 4567.83 -0.864855 1.36864 0
M  V30 48682 H 4569.82 -3.92786 0.974738 0
M  V30 48683 H 4568.39 -3.11213 0.294178 0
M  V30 48684 H 4567.61 -2.81281 2.76179 0
M  V30 48685 H 4568.9 -3.94267 3.21607 0
M  V30 48686 H 4568.3 -5.63295 0.521097 0
M  V30 48687 H 4566.85 -6.44359 0.982069 0
M  V30 48688 N 4570.29 -1.2813 -0.917626 0
M  V30 48689 C 4571.53 -1.14438 -1.66093 0
M  V30 48690 C 4571.85 0.307179 -1.93173 0
M  V30 48691 O 4573.05 0.565165 -2.65553 0
M  V30 48692 C 4571.51 -2.00026 -2.99195 0
M  V30 48693 C 4571.12 -3.49898 -2.79777 0
M  V30 48694 C 4572.86 -1.95009 -3.77057 0
M  V30 48695 C 4570.77 -4.27651 -4.08496 0
M  V30 48696 H 4569.7 -0.424683 -0.623025 0
M  V30 48697 H 4572.35 -1.52631 -1.01862 0
M  V30 48698 H 4570.73 -1.54685 -3.64539 0
M  V30 48699 H 4571.91 -4.0317 -2.23138 0
M  V30 48700 H 4570.22 -3.564 -2.15333 0
M  V30 48701 H 4572.82 -2.5037 -4.7246 0
M  V30 48702 H 4573.16 -0.925961 -4.05871 0
M  V30 48703 H 4573.69 -2.38298 -3.18526 0
M  V30 48704 H 4570.43 -5.30628 -3.84856 0
M  V30 48705 H 4569.95 -3.79153 -4.64761 0
M  V30 48706 H 4571.63 -4.37363 -4.76783 0
M  V30 48707 N 4571.76 1.12553 -1.10316 0
M  V30 48708 C 4573.01 1.83392 -0.839653 0
M  V30 48709 C 4573.33 1.84942 0.636864 0
M  V30 48710 O 4574.53 2.51764 1.01622 0
M  V30 48711 C 4572.99 3.29298 -1.45226 0
M  V30 48712 C 4572.6 3.36111 -2.96198 0
M  V30 48713 C 4574.34 4.05117 -1.2681 0
M  V30 48714 C 4572.25 4.76344 -3.505 0
M  V30 48715 H 4571.18 0.687122 -0.310449 0
M  V30 48716 H 4573.83 1.26741 -1.32699 0
M  V30 48717 H 4572.21 3.85809 -0.892604 0
M  V30 48718 H 4573.38 2.89546 -3.58468 0
M  V30 48719 H 4571.7 2.73765 -3.13754 0
M  V30 48720 H 4574.3 5.08662 -1.64824 0
M  V30 48721 H 4574.64 4.15772 -0.209555 0
M  V30 48722 H 4575.17 3.54961 -1.79576 0
M  V30 48723 H 4571.91 4.70883 -4.56015 0
M  V30 48724 H 4571.43 5.23367 -2.92997 0
M  V30 48725 H 4573.11 5.45282 -3.48248 0
M  V30 48726 N 4573.24 0.891716 1.29947 0
M  V30 48727 C 4574.19 0.353147 2.29904 0
M  V30 48728 C 4575.18 -0.543453 1.60446 0
M  V30 48729 O 4576.39 -0.427139 1.74859 0
M  V30 48730 H 4572.76 0.0955572 0.745904 0
M  V30 48731 H 4574.74 1.20971 2.72779 0
M  V30 48732 C 4573.48 -0.411354 3.45258 0
M  V30 48733 H 4572.81 0.269322 3.98892 0
M  V30 48734 H 4574.25 -0.753181 4.17257 0
M  V30 48735 C 4572.71 -1.611 2.95886 0
M  V30 48736 O 4573.24 -2.71035 2.96484 0
M  V30 48737 N 4571.44 -1.45045 2.51814 0
M  V30 48738 H 4570.99 -0.556086 2.51526 0
M  V30 48739 H 4570.95 -2.25446 2.19138 0
M  V30 48740 N 4574.72 -1.43419 0.653364 0
M  V30 48741 C 4575.95 -2.05863 0.174311 0
M  V30 48742 C 4576.36 -1.49056 -1.16528 0
M  V30 48743 O 4575.7 -0.616542 -1.73045 0
M  V30 48744 C 4575.76 -3.59499 0.00888511 0
M  V30 48745 C 4575.43 -4.38889 1.2738 0
M  V30 48746 C 4576.42 -4.70939 2.20256 0
M  V30 48747 C 4574.11 -4.78895 1.51542 0
M  V30 48748 C 4576.1 -5.41904 3.35587 0
M  V30 48749 C 4573.79 -5.49605 2.67167 0
M  V30 48750 C 4574.79 -5.81031 3.59015 0
M  V30 48751 O 4574.48 -6.50296 4.7262 0
M  V30 48752 H 4574.21 -0.670342 0.0872784 0
M  V30 48753 H 4576.76 -1.8491 0.894291 0
M  V30 48754 H 4574.99 -3.79028 -0.766467 0
M  V30 48755 H 4576.68 -4.03642 -0.427546 0
M  V30 48756 H 4577.45 -4.4055 2.02831 0
M  V30 48757 H 4573.33 -4.5384 0.809318 0
M  V30 48758 H 4576.87 -5.66351 4.07299 0
M  V30 48759 H 4572.77 -5.79409 2.84526 0
M  V30 48760 H 4573.53 -6.68779 4.71887 0
M  V30 48761 N 4576.2 -0.395293 -1.52562 0
M  V30 48762 C 4577.43 0.184871 -2.06072 0
M  V30 48763 C 4577.84 1.40017 -1.26652 0
M  V30 48764 O 4577.2 1.79766 -0.314735 0
M  V30 48765 C 4577.25 0.549054 -3.57306 0
M  V30 48766 O 4576.97 -0.617966 -4.3372 0
M  V30 48767 C 4578.47 1.18444 -4.27184 0
M  V30 48768 H 4575.69 0.0264789 -0.670477 0
M  V30 48769 H 4578.23 -0.562253 -1.96619 0
M  V30 48770 H 4576.39 1.24607 -3.66813 0
M  V30 48771 H 4576.8 -0.317275 -5.2354 0
M  V30 48772 H 4578.28 1.38957 -5.34224 0
M  V30 48773 H 4578.75 2.15354 -3.82778 0
M  V30 48774 H 4579.36 0.528014 -4.2201 0
M  V30 48775 N 4577.68 1.57101 -0.125292 0
M  V30 48776 C 4578.9 1.99763 0.538726 0
M  V30 48777 C 4579.32 1.00509 1.59823 0
M  V30 48778 O 4578.68 -0.00113059 1.825 0
M  V30 48779 C 4578.73 3.42412 1.15915 0
M  V30 48780 O 4578.45 4.3787 0.141989 0
M  V30 48781 C 4579.95 4.00239 1.90588 0
M  V30 48782 H 4577.17 0.655777 0.142117 0
M  V30 48783 H 4579.71 2.03383 -0.213485 0
M  V30 48784 H 4577.87 3.39712 1.86211 0
M  V30 48785 H 4578.28 5.2113 0.593592 0
M  V30 48786 H 4579.76 5.02113 2.29318 0
M  V30 48787 H 4580.23 3.39731 2.78351 0
M  V30 48788 H 4580.84 4.06503 1.25041 0
M  V30 48789 N 4579.15 -0.14849 1.56899 0
M  V30 48790 C 4580.4 -0.86263 1.83539 0
M  V30 48791 C 4580.73 -1.80886 0.706667 0
M  V30 48792 O 4580.01 -1.92329 -0.289817 0
M  V30 48793 C 4580.29 -1.63841 3.20668 0
M  V30 48794 C 4580.14 -0.713769 4.44101 0
M  V30 48795 C 4581.46 -2.60121 3.55 0
M  V30 48796 H 4578.58 -0.312156 0.667629 0
M  V30 48797 H 4581.22 -0.127886 1.89569 0
M  V30 48798 H 4579.37 -2.26478 3.15658 0
M  V30 48799 H 4581.05 -0.0985239 4.61195 0
M  V30 48800 H 4579.29 -0.0232494 4.33794 0
M  V30 48801 H 4579.96 -1.29259 5.36653 0
M  V30 48802 H 4582.44 -2.07603 3.60611 0
M  V30 48803 H 4581.31 -3.11452 4.51983 0
M  V30 48804 H 4581.57 -3.41407 2.8088 0
M  V30 48805 N 4580.63 -1.51961 -0.417791 0
M  V30 48806 C 4581.59 -1.7407 -1.49105 0
M  V30 48807 C 4582.59 -0.610589 -1.48756 0
M  V30 48808 O 4583.78 -0.878373 -1.50434 0
M  V30 48809 C 4580.92 -1.81512 -2.88559 0
M  V30 48810 H 4582.11 -2.69874 -1.30798 0
M  V30 48811 H 4579.66 -1.42247 -0.647735 0
M  V30 48812 H 4580.4 -0.875923 -3.12247 0
M  V30 48813 H 4580.18 -2.63662 -2.90215 0
M  V30 48814 H 4581.67 -2.00389 -3.6638 0
M  V30 48815 N 4582.11 0.674483 -1.42438 0
M  V30 48816 C 4583.04 1.80004 -1.4873 0
M  V30 48817 C 4584.02 1.66588 -0.343852 0
M  V30 48818 O 4585.21 1.86005 -0.558202 0
M  V30 48819 C 4582.34 3.18301 -1.3893 0
M  V30 48820 C 4581.29 3.46453 -2.51306 0
M  V30 48821 C 4580.62 4.84327 -2.26564 0
M  V30 48822 C 4581.92 3.43314 -3.93615 0
M  V30 48823 H 4583.61 1.74995 -2.42934 0
M  V30 48824 H 4581.16 0.840491 -1.16926 0
M  V30 48825 H 4583.11 3.96776 -1.41941 0
M  V30 48826 H 4581.83 3.23988 -0.412208 0
M  V30 48827 H 4580.49 2.70339 -2.47613 0
M  V30 48828 H 4580.14 4.86665 -1.27147 0
M  V30 48829 H 4579.84 5.04126 -3.01879 0
M  V30 48830 H 4581.36 5.65086 -2.31324 0
M  V30 48831 H 4582.78 4.11758 -3.98909 0
M  V30 48832 H 4581.17 3.74648 -4.68785 0
M  V30 48833 H 4582.24 2.41882 -4.20263 0
M  V30 48834 N 4583.59 1.28615 0.910818 0
M  V30 48835 C 4584.52 1.15333 2.03028 0
M  V30 48836 C 4585.5 0.0503521 1.70025 0
M  V30 48837 O 4586.68 0.227864 1.92859 0
M  V30 48838 C 4583.81 0.817462 3.37542 0
M  V30 48839 C 4582.77 1.87554 3.84718 0
M  V30 48840 C 4582.09 1.39323 5.1623 0
M  V30 48841 C 4583.39 3.28258 4.06256 0
M  V30 48842 H 4585.09 2.08982 2.14399 0
M  V30 48843 H 4582.63 1.00616 1.03017 0
M  V30 48844 H 4584.59 0.711297 4.15353 0
M  V30 48845 H 4583.31 -0.154731 3.26233 0
M  V30 48846 H 4581.97 1.9709 3.09114 0
M  V30 48847 H 4581.62 0.410022 5.01326 0
M  V30 48848 H 4581.32 2.10076 5.48764 0
M  V30 48849 H 4582.84 1.30035 5.96593 0
M  V30 48850 H 4584.26 3.21627 4.74583 0
M  V30 48851 H 4582.65 3.96871 4.50126 0
M  V30 48852 H 4583.72 3.72059 3.10966 0
M  V30 48853 N 4585.07 -1.11967 1.10911 0
M  V30 48854 C 4586.48 -1.65111 0.871504 0
M  V30 48855 C 4586.83 -1.86887 -0.597288 0
M  V30 48856 O 4585.95 -1.59901 -1.4581 0
M  V30 48857 C 4586.55 -2.99939 1.5755 0
M  V30 48858 C 4585.11 -3.50013 1.38447 0
M  V30 48859 C 4584.25 -2.24935 1.62171 0
M  V30 48860 H 4587.21 -0.956806 1.26613 0
M  V30 48861 H 4587.23 -3.66648 1.01734 0
M  V30 48862 H 4586.74 -2.84058 2.64448 0
M  V30 48863 H 4584.84 -3.7107 0.337345 0
M  V30 48864 H 4584.95 -4.29158 2.1298 0
M  V30 48865 H 4583.32 -2.32286 1.04475 0
M  V30 48866 H 4584.1 -2.11602 2.70332 0
M  V30 48867 N 4586.54 -0.898595 -1.29472 0
M  V30 48868 C 4587.48 -0.320061 -2.25944 0
M  V30 48869 C 4588.46 0.567135 -1.52389 0
M  V30 48870 O 4589.64 0.51419 -1.81351 0
M  V30 48871 C 4586.77 0.543895 -3.34304 0
M  V30 48872 C 4585.81 -0.275832 -4.25607 0
M  V30 48873 S 4586.65 -1.6729 -5.08699 0
M  V30 48874 C 4587.8 -0.815839 -6.2056 0
M  V30 48875 H 4588.03 -1.13777 -2.74667 0
M  V30 48876 H 4585.57 -0.698869 -1.37678 0
M  V30 48877 H 4587.53 1.03659 -3.97197 0
M  V30 48878 H 4586.19 1.33583 -2.84279 0
M  V30 48879 H 4585.38 0.384086 -5.02534 0
M  V30 48880 H 4584.98 -0.701625 -3.6736 0
M  V30 48881 H 4587.27 -0.0387424 -6.77489 0
M  V30 48882 H 4588.22 -1.55716 -6.90766 0
M  V30 48883 H 4588.62 -0.370714 -5.63281 0
M  V30 48884 N 4588.02 1.4307 -0.660961 0
M  V30 48885 C 4588.95 2.33497 0.0122008 0
M  V30 48886 C 4589.93 1.49906 0.803872 0
M  V30 48887 O 4591.12 1.78549 0.763801 0
M  V30 48888 C 4588.25 3.33366 0.973877 0
M  V30 48889 C 4587.2 4.27004 0.291777 0
M  V30 48890 C 4586.53 5.16972 1.36544 0
M  V30 48891 C 4587.83 5.15813 -0.820643 0
M  V30 48892 H 4589.52 2.90035 -0.742975 0
M  V30 48893 H 4587.07 1.3946 -0.358737 0
M  V30 48894 H 4589.02 3.95529 1.45378 0
M  V30 48895 H 4587.75 2.75101 1.76031 0
M  V30 48896 H 4586.4 3.66216 -0.167752 0
M  V30 48897 H 4586.05 4.55042 2.1435 0
M  V30 48898 H 4585.75 5.80444 0.91425 0
M  V30 48899 H 4587.28 5.82009 1.84655 0
M  V30 48900 H 4588.69 5.71741 -0.422567 0
M  V30 48901 H 4587.09 5.88045 -1.19677 0
M  V30 48902 H 4588.16 4.55039 -1.67534 0
M  V30 48903 N 4589.5 0.403378 1.5235 0
M  V30 48904 C 4590.73 -0.176427 2.06648 0
M  V30 48905 C 4591.15 -1.38572 1.27198 0
M  V30 48906 O 4590.51 -1.78789 0.3007 0
M  V30 48907 C 4590.56 -0.510936 3.56962 0
M  V30 48908 O 4589.66 -1.6028 3.79979 0
M  V30 48909 H 4589 -0.0167104 0.66379 0
M  V30 48910 H 4591.53 0.574917 1.96356 0
M  V30 48911 H 4591.54 -0.771221 4.00645 0
M  V30 48912 H 4590.22 0.373105 4.14223 0
M  V30 48913 H 4588.79 -1.33513 3.48179 0
M  V30 48914 N 4590.98 -1.57033 0.133622 0
M  V30 48915 C 4592.2 -2.00477 -0.531406 0
M  V30 48916 C 4592.63 -1.01296 -1.58495 0
M  V30 48917 O 4591.99 0.0132642 -1.81295 0
M  V30 48918 C 4592.03 -3.42733 -1.12101 0
M  V30 48919 O 4591.14 -3.46506 -2.23624 0
M  V30 48920 H 4590.48 -0.650881 -0.131339 0
M  V30 48921 H 4593.01 -2.03343 0.226411 0
M  V30 48922 H 4593.02 -3.81252 -1.45297 0
M  V30 48923 H 4591.69 -4.1443 -0.349412 0
M  V30 48924 H 4590.27 -3.19818 -1.91757 0
M  V30 48925 N 4592.46 0.140167 -1.56975 0
M  V30 48926 C 4593.39 1.17448 -2.01812 0
M  V30 48927 C 4594.37 1.44412 -0.898845 0
M  V30 48928 O 4595.55 1.55216 -1.16712 0
M  V30 48929 C 4592.68 2.50599 -2.40453 0
M  V30 48930 C 4591.64 2.38143 -3.55629 0
M  V30 48931 C 4590.96 3.76065 -3.80104 0
M  V30 48932 C 4592.26 1.85974 -4.88069 0
M  V30 48933 H 4593.96 0.801641 -2.88468 0
M  V30 48934 H 4591.5 0.384171 -1.38781 0
M  V30 48935 H 4593.46 3.23188 -2.70421 0
M  V30 48936 H 4592.18 2.89732 -1.50742 0
M  V30 48937 H 4590.84 1.68005 -3.25837 0
M  V30 48938 H 4590.49 4.12646 -2.87633 0
M  V30 48939 H 4590.19 3.6859 -4.57619 0
M  V30 48940 H 4591.71 4.50192 -4.12504 0
M  V30 48941 H 4593.12 2.48362 -5.1671 0
M  V30 48942 H 4591.52 1.89373 -5.69436 0
M  V30 48943 H 4592.59 0.815854 -4.77987 0
M  V30 48944 N 4593.93 1.52181 0.409726 0
M  V30 48945 C 4595.18 1.6621 1.15673 0
M  V30 48946 C 4595.51 0.391741 1.90514 0
M  V30 48947 O 4594.76 -0.625265 1.85443 0
M  V30 48948 C 4595.06 2.83435 2.17713 0
M  V30 48949 C 4594.73 4.21677 1.59684 0
M  V30 48950 C 4593.39 4.59279 1.43583 0
M  V30 48951 C 4595.74 5.07829 1.17299 0
M  V30 48952 C 4593.07 5.80712 0.836124 0
M  V30 48953 C 4595.42 6.29866 0.58747 0
M  V30 48954 C 4594.09 6.66217 0.413584 0
M  V30 48955 H 4593.36 0.608207 0.423279 0
M  V30 48956 H 4596 1.86281 0.444032 0
M  V30 48957 H 4594.31 2.57697 2.95126 0
M  V30 48958 H 4596.01 2.91487 2.75384 0
M  V30 48959 H 4592.6 3.92046 1.73199 0
M  V30 48960 H 4596.78 4.79363 1.28548 0
M  V30 48961 H 4592.04 6.07501 0.689412 0
M  V30 48962 H 4596.21 6.95949 0.250649 0
M  V30 48963 H 4593.84 7.60181 -0.0532143 0
M  V30 48964 N 4595.41 -0.666919 1.42793 0
M  V30 48965 C 4596.32 -1.80956 1.49305 0
M  V30 48966 C 4597.34 -1.69774 0.381167 0
M  V30 48967 O 4598.51 -1.91185 0.633256 0
M  V30 48968 C 4595.58 -3.17152 1.40056 0
M  V30 48969 C 4594.64 -3.40232 2.61802 0
M  V30 48970 C 4593.87 -4.6993 2.52985 0
M  V30 48971 O 4594.1 -5.48367 1.57004 0
M  V30 48972 O 4593.03 -4.94429 3.43255 0
M  V30 48973 H 4596.86 -1.78418 2.45765 0
M  V30 48974 H 4594.44 -0.82367 1.24644 0
M  V30 48975 H 4596.32 -3.98409 1.3729 0
M  V30 48976 H 4595 -3.2031 0.46725 0
M  V30 48977 H 4593.91 -2.58793 2.70143 0
M  V30 48978 H 4595.24 -3.4191 3.54059 0
M  V30 48979 N 4596.89 -1.29096 -0.903985 0
M  V30 48980 C 4597.84 -1.10489 -1.99439 0
M  V30 48981 C 4598.82 -0.0255966 -1.6088 0
M  V30 48982 O 4600.02 -0.246832 -1.7527 0
M  V30 48983 C 4597.15 -0.779 -3.34345 0
M  V30 48984 C 4596.23 -1.89762 -3.79277 0
M  V30 48985 N 4596.62 -3.14059 -3.96486 0
M  V30 48986 C 4594.92 -1.78969 -4.08517 0
M  V30 48987 C 4595.62 -3.87011 -4.34278 0
M  V30 48988 N 4594.6 -3.14925 -4.43084 0
M  V30 48989 H 4598.4 -2.04786 -2.10808 0
M  V30 48990 H 4595.91 -1.20158 -1.09251 0
M  V30 48991 H 4597.91 -0.626755 -4.12162 0
M  V30 48992 H 4596.57 0.156091 -3.24325 0
M  V30 48993 H 4597.58 -3.49561 -3.82135 0
M  V30 48994 H 4594.26 -0.927029 -4.07078 0
M  V30 48995 H 4595.65 -4.93957 -4.55474 0
M  V30 48996 N 4598.37 1.11377 -1.11503 0
M  V30 48997 C 4599.62 1.82491 -0.859057 0
M  V30 48998 C 4599.93 1.85607 0.617213 0
M  V30 48999 O 4601.14 2.52828 0.989463 0
M  V30 49000 C 4599.59 3.27739 -1.48711 0
M  V30 49001 C 4599.2 3.32951 -2.99746 0
M  V30 49002 C 4600.95 4.03749 -1.31099 0
M  V30 49003 C 4598.85 4.726 -3.55532 0
M  V30 49004 H 4597.78 0.683791 -0.31772 0
M  V30 49005 H 4600.43 1.25326 -1.34036 0
M  V30 49006 H 4598.82 3.84841 -0.933474 0
M  V30 49007 H 4599.99 2.85728 -3.61519 0
M  V30 49008 H 4598.3 2.70421 -3.1664 0
M  V30 49009 H 4600.9 5.06885 -1.7021 0
M  V30 49010 H 4601.24 4.15527 -0.253642 0
M  V30 49011 H 4601.78 3.53036 -1.83331 0
M  V30 49012 H 4598.52 4.6602 -4.60984 0
M  V30 49013 H 4598.04 5.2023 -2.98531 0
M  V30 49014 H 4599.72 5.41558 -3.54011 0
M  V30 49015 N 4599.85 0.905449 1.28994 0
M  V30 49016 C 4601.1 0.533261 1.94938 0
M  V30 49017 C 4601.42 -0.924558 1.71688 0
M  V30 49018 O 4600.69 -1.65264 1.05189 0
M  V30 49019 H 4599.27 0.19422 0.72131 0
M  V30 49020 H 4601.93 1.153 1.57137 0
M  V30 49021 H 4601.02 0.720697 3.03665 0
M  V30 49022 N 4601.33 -1.42718 0.668539 0
M  V30 49023 C 4602.26 -2.2914 -0.0525325 0
M  V30 49024 C 4603.27 -1.43342 -0.771807 0
M  V30 49025 O 4604.46 -1.67125 -0.627008 0
M  V30 49026 C 4601.56 -3.20622 -1.09793 0
M  V30 49027 C 4600.73 -4.3504 -0.453737 0
M  V30 49028 C 4599.79 -5.07287 -1.39807 0
M  V30 49029 O 4598.82 -5.62027 -0.900781 0
M  V30 49030 N 4600.02 -5.12216 -2.73158 0
M  V30 49031 H 4602.78 -2.91665 0.689311 0
M  V30 49032 H 4600.35 -1.53575 0.512476 0
M  V30 49033 H 4602.34 -3.65821 -1.73081 0
M  V30 49034 H 4600.91 -2.59592 -1.74158 0
M  V30 49035 H 4600.13 -3.92566 0.358534 0
M  V30 49036 H 4601.42 -5.088 -0.00469085 0
M  V30 49037 H 4600.81 -4.69142 -3.16106 0
M  V30 49038 H 4599.37 -5.61081 -3.3171 0
M  V30 49039 N 4602.8 -0.411452 -1.52134 0
M  V30 49040 C 4603.75 0.430297 -2.23903 0
M  V30 49041 C 4604.74 1.01156 -1.25125 0
M  V30 49042 O 4605.93 0.933991 -1.50352 0
M  V30 49043 C 4603.06 1.54516 -3.06561 0
M  V30 49044 C 4602.14 0.974555 -4.12751 0
M  V30 49045 N 4602.54 0.130814 -5.05631 0
M  V30 49046 C 4600.83 1.24482 -4.28276 0
M  V30 49047 C 4601.53 -0.186894 -5.814 0
M  V30 49048 N 4600.51 0.42285 -5.41953 0
M  V30 49049 H 4604.31 -0.220612 -2.93071 0
M  V30 49050 H 4601.83 -0.222009 -1.60875 0
M  V30 49051 H 4603.82 2.16081 -3.56532 0
M  V30 49052 H 4602.48 2.19867 -2.38933 0
M  V30 49053 H 4603.49 -0.233672 -5.17373 0
M  V30 49054 H 4600.17 1.89774 -3.71876 0
M  V30 49055 H 4601.56 -0.871907 -6.66219 0
M  V30 49056 N 4604.28 1.56959 -0.141948 0
M  V30 49057 C 4605.21 2.13622 0.830552 0
M  V30 49058 C 4606.23 1.08443 1.21424 0
M  V30 49059 O 4607.42 1.35738 1.1592 0
M  V30 49060 C 4604.52 2.63986 2.1252 0
M  V30 49061 C 4603.69 3.93511 1.90966 0
M  V30 49062 C 4602.75 4.29236 3.04373 0
M  V30 49063 O 4601.77 4.9765 2.76284 0
M  V30 49064 N 4602.98 3.88408 4.31415 0
M  V30 49065 H 4605.74 2.97692 0.346305 0
M  V30 49066 H 4603.3 1.61846 0.0417806 0
M  V30 49067 H 4605.29 2.84901 2.87426 0
M  V30 49068 H 4603.86 1.84668 2.52223 0
M  V30 49069 H 4603.08 3.81272 1.00125 0
M  V30 49070 H 4604.37 4.7816 1.73897 0
M  V30 49071 H 4603.77 3.33273 4.57105 0
M  V30 49072 H 4602.33 4.14386 5.03118 0
M  V30 49073 N 4605.76 -0.13184 1.57048 0
M  V30 49074 C 4607.01 -0.841867 1.84171 0
M  V30 49075 C 4607.33 -1.80477 0.72513 0
M  V30 49076 O 4606.59 -1.93619 -0.284624 0
M  V30 49077 C 4606.89 -1.63692 3.1771 0
M  V30 49078 C 4606.55 -0.819454 4.43391 0
M  V30 49079 C 4605.22 -0.59398 4.7752 0
M  V30 49080 C 4607.57 -0.248794 5.20606 0
M  V30 49081 C 4604.9 0.212615 5.86315 0
M  V30 49082 C 4607.25 0.544923 6.30249 0
M  V30 49083 C 4605.91 0.780832 6.62917 0
M  V30 49084 H 4605.18 -0.308061 0.673928 0
M  V30 49085 H 4607.83 -0.1048 1.91213 0
M  V30 49086 H 4606.13 -2.44453 3.06186 0
M  V30 49087 H 4607.83 -2.19003 3.35914 0
M  V30 49088 H 4604.42 -1.00527 4.16644 0
M  V30 49089 H 4608.61 -0.410234 4.94602 0
M  V30 49090 H 4603.86 0.404738 6.10059 0
M  V30 49091 H 4608.04 0.994164 6.89267 0
M  V30 49092 H 4605.66 1.40768 7.47053 0
M  V30 49093 N 4607.24 -1.52396 -0.40165 0
M  V30 49094 C 4608.49 -1.66492 -1.14564 0
M  V30 49095 C 4608.81 -0.400964 -1.90833 0
M  V30 49096 O 4608.08 0.58435 -1.86982 0
M  V30 49097 H 4606.66 -0.613687 -0.425907 0
M  V30 49098 H 4609.32 -1.89466 -0.457026 0
M  V30 49099 H 4608.41 -2.50948 -1.85557 0
M  V30 49100 N 4608.72 0.659337 -1.43145 0
M  V30 49101 C 4609.63 1.80162 -1.50263 0
M  V30 49102 C 4610.64 1.69569 -0.390166 0
M  V30 49103 O 4611.82 1.90847 -0.643386 0
M  V30 49104 C 4608.88 3.16404 -1.41736 0
M  V30 49105 C 4607.94 3.38839 -2.63603 0
M  V30 49106 C 4607.18 4.68582 -2.55474 0
M  V30 49107 O 4607.4 5.47526 -1.5991 0
M  V30 49108 O 4606.33 4.92602 -3.45872 0
M  V30 49109 H 4610.16 1.77112 -2.46708 0
M  V30 49110 H 4607.74 0.817048 -1.25079 0
M  V30 49111 H 4609.63 3.97675 -1.39401 0
M  V30 49112 H 4608.3 3.20058 -0.484231 0
M  V30 49113 H 4607.21 2.57357 -2.71511 0
M  V30 49114 H 4608.54 3.40028 -3.55868 0
M  V30 49115 N 4610.19 1.29574 0.897126 0
M  V30 49116 C 4611.47 1.08371 1.62835 0
M  V30 49117 C 4611.85 -0.371258 2.0781 0
M  V30 49118 O 4611.2 -1.36053 1.8358 0
M  V30 49119 C 4611.41 2.07359 2.80719 0
M  V30 49120 C 4612.76 2.38418 3.51343 0
M  V30 49121 O 4613.78 2.05574 2.90891 0
M  V30 49122 O 4612.64 2.94546 4.60331 0
M  V30 49123 H 4609.73 0.41537 0.71512 0
M  V30 49124 H 4612.28 1.40955 0.944968 0
M  V30 49125 H 4611.05 3.05348 2.44701 0
M  V30 49126 H 4610.67 1.7552 3.56761 0
M  V30 49127 N 4611.67 -1.10784 1.12092 0
M  V30 49128 C 4612.6 -2.19081 0.807832 0
M  V30 49129 C 4613.58 -1.68581 -0.2268 0
M  V30 49130 O 4614.77 -1.93997 -0.0887793 0
M  V30 49131 C 4611.9 -3.46343 0.257698 0
M  V30 49132 C 4610.85 -4.10095 1.22498 0
M  V30 49133 C 4610.18 -5.32014 0.535239 0
M  V30 49134 C 4611.48 -4.54227 2.57827 0
M  V30 49135 H 4613.17 -2.45528 1.71337 0
M  V30 49136 H 4610.72 -1.18007 0.825246 0
M  V30 49137 H 4612.67 -4.21392 0.026416 0
M  V30 49138 H 4611.39 -3.19375 -0.683166 0
M  V30 49139 H 4610.05 -3.37048 1.44201 0
M  V30 49140 H 4609.7 -5.01321 -0.410651 0
M  V30 49141 H 4609.4 -5.75621 1.18044 0
M  V30 49142 H 4610.93 -6.09798 0.312909 0
M  V30 49143 H 4612.34 -5.20567 2.40174 0
M  V30 49144 H 4610.74 -5.08671 3.18393 0
M  V30 49145 H 4611.81 -3.67328 3.1654 0
M  V30 49146 N 4613.15 -0.912277 -1.28512 0
M  V30 49147 C 4614.4 -0.540573 -1.94321 0
M  V30 49148 C 4614.71 0.919983 -1.72614 0
M  V30 49149 O 4615.92 1.39978 -2.32634 0
M  V30 49150 C 4614.37 -0.915926 -3.4805 0
M  V30 49151 C 4613.98 -2.39611 -3.78538 0
M  V30 49152 C 4615.73 -0.614735 -4.20025 0
M  V30 49153 C 4613.63 -2.71167 -5.25569 0
M  V30 49154 H 4612.56 -0.198444 -0.727417 0
M  V30 49155 H 4615.21 -1.11099 -1.46045 0
M  V30 49156 H 4613.6 -0.274307 -3.95049 0
M  V30 49157 H 4614.77 -3.08434 -3.42353 0
M  V30 49158 H 4613.09 -2.6676 -3.19731 0
M  V30 49159 H 4615.68 -0.827187 -5.28263 0
M  V30 49160 H 4616.03 0.447385 -4.13889 0
M  V30 49161 H 4616.56 -1.21475 -3.78799 0
M  V30 49162 H 4613.3 -3.76226 -5.36781 0
M  V30 49163 H 4612.82 -2.0698 -5.62956 0
M  V30 49164 H 4614.5 -2.58093 -5.93293 0
M  V30 49165 N 4614.63 1.42361 -0.676098 0
M  V30 49166 C 4615.56 2.33497 -0.0125653 0
M  V30 49167 C 4616.54 1.5075 0.787928 0
M  V30 49168 O 4617.72 1.79349 0.744821 0
M  V30 49169 C 4614.85 3.3438 0.938465 0
M  V30 49170 C 4613.81 4.2729 0.246472 0
M  V30 49171 C 4613.13 5.18391 1.31053 0
M  V30 49172 C 4614.43 5.14913 -0.875306 0
M  V30 49173 H 4616.13 2.89231 -0.773695 0
M  V30 49174 H 4613.67 1.39072 -0.373509 0
M  V30 49175 H 4615.63 3.97049 1.41174 0
M  V30 49176 H 4614.35 2.76953 1.73103 0
M  V30 49177 H 4613.01 3.66017 -0.206584 0
M  V30 49178 H 4612.66 4.5729 2.09512 0
M  V30 49179 H 4612.36 5.81381 0.852635 0
M  V30 49180 H 4613.88 5.83935 1.78471 0
M  V30 49181 H 4615.3 5.7126 -0.483184 0
M  V30 49182 H 4613.69 5.86743 -1.25907 0
M  V30 49183 H 4614.76 4.53236 -1.72351 0
M  V30 49184 N 4616.11 0.419515 1.51914 0
M  V30 49185 C 4617.02 -0.407447 2.31035 0
M  V30 49186 C 4618.03 -1.04409 1.39194 0
M  V30 49187 O 4619.21 -1.04334 1.72268 0
M  V30 49188 C 4616.27 -1.50354 3.12401 0
M  V30 49189 C 4615.33 -0.888881 4.19997 0
M  V30 49190 C 4614.57 -1.93274 4.97474 0
M  V30 49191 O 4614.79 -3.15242 4.75372 0
M  V30 49192 O 4613.72 -1.53318 5.82046 0
M  V30 49193 H 4617.55 0.237971 3.02766 0
M  V30 49194 H 4615.14 0.182465 1.48282 0
M  V30 49195 H 4617.02 -2.13963 3.6304 0
M  V30 49196 H 4615.69 -2.13336 2.43453 0
M  V30 49197 H 4614.6 -0.215222 3.7348 0
M  V30 49198 H 4615.93 -0.302819 4.91268 0
M  V30 49199 N 4617.58 -1.56882 0.15027 0
M  V30 49200 C 4618.86 -1.87846 -0.545261 0
M  V30 49201 C 4619.24 -1.05676 -1.82745 0
M  V30 49202 O 4618.59 -0.144522 -2.28043 0
M  V30 49203 C 4618.8 -3.39529 -0.80755 0
M  V30 49204 C 4620.15 -4.08818 -1.14688 0
M  V30 49205 O 4621.17 -3.44726 -0.896795 0
M  V30 49206 O 4620.03 -5.2201 -1.61766 0
M  V30 49207 H 4617.12 -0.778686 -0.278526 0
M  V30 49208 H 4619.67 -1.68665 0.187127 0
M  V30 49209 H 4618.44 -3.91173 0.0997471 0
M  V30 49210 H 4618.07 -3.64249 -1.594 0
M  V30 49211 N 4619.06 0.12351 -1.57115 0
M  V30 49212 C 4620.31 0.833321 -1.84888 0
M  V30 49213 C 4620.64 1.79739 -0.735355 0
M  V30 49214 O 4619.92 1.92765 0.259183 0
M  V30 49215 C 4620.2 1.58719 -3.23234 0
M  V30 49216 C 4620.05 0.643026 -4.4518 0
M  V30 49217 C 4621.37 2.5444 -3.59094 0
M  V30 49218 H 4618.49 0.301495 -0.67251 0
M  V30 49219 H 4621.13 0.0977113 -1.89749 0
M  V30 49220 H 4619.28 2.21427 -3.19221 0
M  V30 49221 H 4620.95 0.0251393 -4.61293 0
M  V30 49222 H 4619.2 -0.0457664 -4.33776 0
M  V30 49223 H 4619.87 1.20705 -5.38641 0
M  V30 49224 H 4622.34 2.0184 -3.63868 0
M  V30 49225 H 4621.22 3.04222 -4.56881 0
M  V30 49226 H 4621.48 3.36896 -2.86276 0
M  V30 49227 N 4620.54 1.52607 0.393562 0
M  V30 49228 C 4621.47 1.73309 1.49989 0
M  V30 49229 C 4622.49 0.613526 1.50797 0
M  V30 49230 O 4623.67 0.889103 1.54781 0
M  V30 49231 C 4620.77 1.77255 2.88849 0
M  V30 49232 C 4619.95 3.06494 3.12058 0
M  V30 49233 C 4619.01 3.02048 4.30875 0
M  V30 49234 O 4618.03 3.75922 4.27401 0
M  V30 49235 N 4619.23 2.20916 5.36821 0
M  V30 49236 H 4622 2.6876 1.3262 0
M  V30 49237 H 4619.56 1.51038 0.58303 0
M  V30 49238 H 4621.55 1.71793 3.66428 0
M  V30 49239 H 4620.12 0.892098 2.996 0
M  V30 49240 H 4619.34 3.25482 2.22385 0
M  V30 49241 H 4620.63 3.91958 3.24417 0
M  V30 49242 H 4620.03 1.60355 5.42497 0
M  V30 49243 H 4618.59 2.21297 6.13083 0
M  V30 49244 N 4622.02 -0.651737 1.43493 0
M  V30 49245 C 4623.26 -1.41371 1.45403 0
M  V30 49246 C 4623.6 -1.94041 0.0785505 0
M  V30 49247 O 4622.87 -1.72382 -0.900817 0
M  V30 49248 C 4623.16 -2.59406 2.49761 0
M  V30 49249 C 4623.01 -2.12218 3.9659 0
M  V30 49250 C 4624.33 -3.61618 2.5084 0
M  V30 49251 H 4621.45 -0.512701 0.52944 0
M  V30 49252 H 4624.09 -0.738735 1.75051 0
M  V30 49253 H 4622.24 -3.16989 2.24611 0
M  V30 49254 H 4623.91 -1.59624 4.32802 0
M  V30 49255 H 4622.15 -1.43577 4.09351 0
M  V30 49256 H 4622.82 -2.97104 4.65224 0
M  V30 49257 H 4625.3 -3.13796 2.73261 0
M  V30 49258 H 4624.18 -4.41754 3.25798 0
M  V30 49259 H 4624.44 -4.14309 1.54274 0
M  V30 49260 N 4623.5 -1.30048 -0.890242 0
M  V30 49261 C 4624.72 -1.21604 -1.6801 0
M  V30 49262 C 4625.15 0.218612 -1.86825 0
M  V30 49263 O 4624.5 1.15751 -1.3954 0
M  V30 49264 C 4624.55 -1.94444 -3.03684 0
M  V30 49265 O 4623.66 -1.26794 -3.92425 0
M  V30 49266 H 4623 -0.420874 -0.513577 0
M  V30 49267 H 4625.53 -1.71779 -1.11145 0
M  V30 49268 H 4625.54 -2.03263 -3.53763 0
M  V30 49269 H 4624.21 -2.98787 -2.89308 0
M  V30 49270 H 4622.79 -1.26294 -3.50862 0
M  V30 49271 N 4624.97 1.10188 -1.12678 0
M  V30 49272 C 4626.21 1.83822 -0.8938 0
M  V30 49273 C 4626.58 1.83343 0.570018 0
M  V30 49274 O 4627.78 2.52556 0.920265 0
M  V30 49275 C 4626.05 3.264 -1.45594 0
M  V30 49276 S 4627.61 4.17132 -1.36186 0
M  V30 49277 H 4624.43 0.633721 -0.322365 0
M  V30 49278 H 4627.03 1.32576 -1.4368 0
M  V30 49279 H 4625.73 3.2432 -2.51484 0
M  V30 49280 H 4625.26 3.82718 -0.91054 0
M  V30 49281 H 4627.28 4.95068 -0.335037 0
M  V30 49282 N 4626.45 0.919079 1.28026 0
M  V30 49283 C 4627.68 0.570213 1.98575 0
M  V30 49284 C 4628.09 -0.854113 1.68824 0
M  V30 49285 O 4627.43 -1.57804 0.940407 0
M  V30 49286 C 4627.5 0.705858 3.52502 0
M  V30 49287 C 4627.16 2.10071 4.05856 0
M  V30 49288 C 4628.16 3.07399 4.19287 0
M  V30 49289 C 4625.84 2.41533 4.40417 0
M  V30 49290 C 4627.84 4.34303 4.6654 0
M  V30 49291 C 4625.52 3.68675 4.87363 0
M  V30 49292 C 4626.52 4.64873 5.00382 0
M  V30 49293 O 4626.21 5.89754 5.46301 0
M  V30 49294 H 4625.94 0.215615 0.640692 0
M  V30 49295 H 4628.49 1.23589 1.64057 0
M  V30 49296 H 4626.72 -0.0169054 3.86696 0
M  V30 49297 H 4628.41 0.363314 4.04271 0
M  V30 49298 H 4629.18 2.84412 3.92855 0
M  V30 49299 H 4625.06 1.67404 4.29531 0
M  V30 49300 H 4628.6 5.09394 4.76617 0
M  V30 49301 H 4624.5 3.91484 5.13235 0
M  V30 49302 H 4625.27 5.92619 5.64575 0
M  V30 49303 N 4627.93 -1.42001 0.683638 0
M  V30 49304 C 4629.35 -1.55624 0.354031 0
M  V30 49305 C 4629.55 -1.66155 -1.13994 0
M  V30 49306 O 4628.6 -1.63336 -1.92555 0
M  V30 49307 C 4629.92 -2.80167 1.0921 0
M  V30 49308 C 4631.46 -2.9395 1.07528 0
M  V30 49309 C 4631.94 -4.21366 1.79485 0
M  V30 49310 N 4633.43 -4.28297 1.76397 0
M  V30 49311 C 4634.17 -5.2572 2.28923 0
M  V30 49312 N 4633.66 -6.29244 2.89869 0
M  V30 49313 N 4635.45 -5.17578 2.19246 0
M  V30 49314 H 4627.61 -1.33409 1.65275 0
M  V30 49315 H 4629.87 -0.642795 0.696792 0
M  V30 49316 H 4629.57 -2.78554 2.14711 0
M  V30 49317 H 4629.45 -3.71328 0.662992 0
M  V30 49318 H 4631.84 -2.95086 0.0285788 0
M  V30 49319 H 4631.92 -2.03996 1.54335 0
M  V30 49320 H 4631.56 -4.20991 2.84129 0
M  V30 49321 H 4631.49 -5.1027 1.30122 0
M  V30 49322 H 4633.98 -3.54115 1.31951 0
M  V30 49323 H 4634.29 -6.99952 3.27546 0
M  V30 49324 H 4632.64 -6.2978 2.93942 0
M  V30 49325 H 4635.83 -4.35625 1.71315 0
M  V30 49326 H 4636 -5.93339 2.60487 0
M  V30 49327 N 4629.41 -0.427565 -1.51689 0
M  V30 49328 C 4630.66 0.143608 -2.01188 0
M  V30 49329 C 4630.97 1.44637 -1.31679 0
M  V30 49330 O 4632.18 2.0999 -1.72094 0
M  V30 49331 C 4630.63 0.306476 -3.58593 0
M  V30 49332 C 4630.24 -0.985279 -4.37031 0
M  V30 49333 C 4631.99 0.831945 -4.16268 0
M  V30 49334 C 4629.89 -0.788588 -5.86119 0
M  V30 49335 H 4628.82 0.0574436 -0.751809 0
M  V30 49336 H 4631.47 -0.555833 -1.74879 0
M  V30 49337 H 4629.86 1.06869 -3.81307 0
M  V30 49338 H 4631.03 -1.75507 -4.26068 0
M  V30 49339 H 4629.34 -1.43854 -3.90762 0
M  V30 49340 H 4631.94 0.995433 -5.25352 0
M  V30 49341 H 4632.28 1.81173 -3.74809 0
M  V30 49342 H 4632.82 0.128304 -3.97593 0
M  V30 49343 H 4629.56 -1.74047 -6.31971 0
M  V30 49344 H 4629.08 -0.0584251 -5.99772 0
M  V30 49345 H 4630.76 -0.437949 -6.45516 0
M  V30 49346 N 4630.89 1.568 -0.158588 0
M  V30 49347 C 4631.82 2.2035 0.772532 0
M  V30 49348 C 4632.8 1.15522 1.24855 0
M  V30 49349 O 4633.98 1.43907 1.30401 0
M  V30 49350 C 4631.11 2.83424 2.00719 0
M  V30 49351 C 4630.07 3.9418 1.66751 0
M  V30 49352 C 4629.39 4.44244 2.97576 0
M  V30 49353 C 4630.69 5.14395 0.905266 0
M  V30 49354 H 4632.39 2.98413 0.242854 0
M  V30 49355 H 4629.93 1.43537 0.115368 0
M  V30 49356 H 4631.89 3.26553 2.66348 0
M  V30 49357 H 4630.61 2.0271 2.56079 0
M  V30 49358 H 4629.27 3.51688 1.03495 0
M  V30 49359 H 4628.92 3.60337 3.50951 0
M  V30 49360 H 4628.62 5.18955 2.75608 0
M  V30 49361 H 4630.14 4.9005 3.64257 0
M  V30 49362 H 4631.56 5.54295 1.46388 0
M  V30 49363 H 4629.95 5.94942 0.785091 0
M  V30 49364 H 4631.02 4.84795 -0.100839 0
M  V30 49365 N 4632.37 -0.115176 1.57179 0
M  V30 49366 C 4633.59 -0.83637 1.89242 0
M  V30 49367 C 4634.01 -1.73254 0.750236 0
M  V30 49368 O 4633.37 -1.80358 -0.278768 0
M  V30 49369 C 4633.42 -1.66659 3.20791 0
M  V30 49370 O 4633.14 -0.8065 4.30613 0
M  V30 49371 C 4634.64 -2.49261 3.66584 0
M  V30 49372 H 4631.86 -0.240231 0.626522 0
M  V30 49373 H 4634.4 -0.0984214 2.04263 0
M  V30 49374 H 4632.56 -2.35726 3.07428 0
M  V30 49375 H 4632.97 -1.37952 5.06033 0
M  V30 49376 H 4634.45 -3.03038 4.6138 0
M  V30 49377 H 4634.92 -3.26797 2.93429 0
M  V30 49378 H 4635.53 -1.8543 3.82748 0
M  V30 49379 N 4633.84 -1.52813 -0.385464 0
M  V30 49380 C 4635.07 -1.72211 -1.15577 0
M  V30 49381 C 4635.49 -0.441098 -1.82855 0
M  V30 49382 O 4634.85 0.603405 -1.70964 0
M  V30 49383 C 4634.9 -2.87484 -2.17682 0
M  V30 49384 O 4634 -2.54704 -3.24345 0
M  V30 49385 H 4633.34 -0.572538 -0.336298 0
M  V30 49386 H 4635.87 -1.9962 -0.448674 0
M  V30 49387 H 4635.88 -3.13081 -2.61619 0
M  V30 49388 H 4634.56 -3.80414 -1.68101 0
M  V30 49389 H 4633.14 -2.3986 -2.8552 0
M  V30 49390 N 4635.32 0.644118 -1.43836 0
M  V30 49391 C 4636.25 1.76809 -1.52515 0
M  V30 49392 C 4637.23 1.65821 -0.37911 0
M  V30 49393 O 4638.42 1.84779 -0.597531 0
M  V30 49394 C 4635.55 3.15283 -1.45651 0
M  V30 49395 C 4634.5 3.41044 -2.58598 0
M  V30 49396 C 4633.83 4.79413 -2.36786 0
M  V30 49397 C 4635.13 3.34888 -4.00808 0
M  V30 49398 H 4636.82 1.69803 -2.46591 0
M  V30 49399 H 4634.37 0.815501 -1.18683 0
M  V30 49400 H 4636.32 3.93675 -1.50325 0
M  V30 49401 H 4635.04 3.23041 -0.480838 0
M  V30 49402 H 4633.7 2.65026 -2.53292 0
M  V30 49403 H 4633.35 4.83858 -1.37441 0
M  V30 49404 H 4633.05 4.97609 -3.12505 0
M  V30 49405 H 4634.58 5.60052 -2.43258 0
M  V30 49406 H 4635.99 4.03204 -4.07553 0
M  V30 49407 H 4634.39 3.6462 -4.76626 0
M  V30 49408 H 4635.46 2.32913 -4.25299 0
M  V30 49409 N 4636.8 1.30518 0.883332 0
M  V30 49410 C 4638.03 1.22187 1.66595 0
M  V30 49411 C 4638.44 -0.217441 1.87946 0
M  V30 49412 O 4637.78 -1.15535 1.42819 0
M  V30 49413 C 4637.84 1.88157 3.06329 0
M  V30 49414 C 4637.51 3.37487 3.08142 0
M  V30 49415 C 4638.5 4.33453 2.87079 0
M  V30 49416 C 4636.19 3.78961 3.29687 0
M  V30 49417 C 4638.18 5.68868 2.8752 0
M  V30 49418 C 4635.87 5.14493 3.29758 0
M  V30 49419 C 4636.87 6.09257 3.08698 0
M  V30 49420 O 4636.56 7.42313 3.08588 0
M  V30 49421 H 4636.29 0.423917 0.526565 0
M  V30 49422 H 4638.84 1.72707 1.11182 0
M  V30 49423 H 4637.07 1.32169 3.63412 0
M  V30 49424 H 4638.76 1.73923 3.6675 0
M  V30 49425 H 4639.53 4.02742 2.70229 0
M  V30 49426 H 4635.41 3.05643 3.45114 0
M  V30 49427 H 4638.95 6.4281 2.71001 0
M  V30 49428 H 4634.85 5.44844 3.46144 0
M  V30 49429 H 4635.61 7.51322 3.24743 0
M  V30 49430 N 4638.28 -1.09589 1.13261 0
M  V30 49431 C 4639.24 -2.14356 0.811434 0
M  V30 49432 C 4640.24 -1.59808 -0.178321 0
M  V30 49433 O 4641.43 -1.74132 0.0485523 0
M  V30 49434 C 4638.56 -3.40269 0.207395 0
M  V30 49435 H 4639.76 -2.44278 1.73978 0
M  V30 49436 H 4637.31 -1.25099 0.937017 0
M  V30 49437 H 4638.04 -3.15971 -0.730249 0
M  V30 49438 H 4637.83 -3.81151 0.920126 0
M  V30 49439 H 4639.32 -4.176 -0.000521136 0
M  V30 49440 N 4639.76 -0.925856 -1.27537 0
M  V30 49441 C 4640.69 -0.440829 -2.29301 0
M  V30 49442 C 4641.67 0.497914 -1.62649 0
M  V30 49443 O 4642.85 0.40306 -1.89971 0
M  V30 49444 C 4639.98 0.308926 -3.45923 0
M  V30 49445 C 4638.94 -0.541809 -4.24557 0
M  V30 49446 C 4638.26 0.337004 -5.33637 0
M  V30 49447 C 4639.56 -1.80533 -4.90107 0
M  V30 49448 H 4641.26 -1.29131 -2.70121 0
M  V30 49449 H 4638.8 -0.622369 -1.29856 0
M  V30 49450 H 4640.75 0.659168 -4.16213 0
M  V30 49451 H 4639.48 1.19341 -3.04015 0
M  V30 49452 H 4638.14 -0.874735 -3.56011 0
M  V30 49453 H 4637.79 1.22039 -4.87971 0
M  V30 49454 H 4637.49 -0.228704 -5.87155 0
M  V30 49455 H 4639.01 0.682859 -6.0677 0
M  V30 49456 H 4640.42 -1.52327 -5.52693 0
M  V30 49457 H 4638.82 -2.31439 -5.53675 0
M  V30 49458 H 4639.89 -2.52595 -4.13913 0
M  V30 49459 N 4641.23 1.41636 -0.691159 0
M  V30 49460 C 4642.48 2.00901 -0.219829 0
M  V30 49461 C 4642.8 1.54999 1.18323 0
M  V30 49462 O 4642.07 0.778691 1.79759 0
M  V30 49463 H 4640.65 0.742887 -0.0782819 0
M  V30 49464 H 4643.31 1.73324 -0.891332 0
M  V30 49465 H 4642.41 3.11223 -0.233818 0
M  V30 49466 N 4642.71 0.435603 1.5146 0
M  V30 49467 C 4643.94 -0.13017 2.0649 0
M  V30 49468 C 4644.36 -1.36609 1.3032 0
M  V30 49469 O 4643.71 -1.78868 0.362286 0
M  V30 49470 C 4643.76 -0.454127 3.58636 0
M  V30 49471 O 4643.48 0.732742 4.31929 0
M  V30 49472 C 4644.99 -1.07076 4.30174 0
M  V30 49473 H 4642.21 -0.00869311 0.670944 0
M  V30 49474 H 4644.75 0.614186 1.95059 0
M  V30 49475 H 4642.9 -1.14838 3.69988 0
M  V30 49476 H 4643.32 0.45597 5.22514 0
M  V30 49477 H 4644.79 -1.24745 5.3772 0
M  V30 49478 H 4645.27 -2.0513 3.88353 0
M  V30 49479 H 4645.88 -0.41594 4.23261 0
M  V30 49480 N 4644.19 -1.56714 0.166901 0
M  V30 49481 C 4645.42 -2.01559 -0.488763 0
M  V30 49482 C 4645.84 -1.04635 -1.56311 0
M  V30 49483 O 4645.2 -0.0251942 -1.81282 0
M  V30 49484 C 4645.25 -3.45033 -1.04806 0
M  V30 49485 O 4644.35 -3.51171 -2.16224 0
M  V30 49486 H 4643.69 -0.65352 -0.117503 0
M  V30 49487 H 4646.22 -2.02817 0.269492 0
M  V30 49488 H 4646.23 -3.84248 -1.37177 0
M  V30 49489 H 4644.91 -4.15078 -0.261427 0
M  V30 49490 H 4643.48 -3.23813 -1.8493 0
M  V30 49491 N 4645.67 0.106839 -1.57237 0
M  V30 49492 C 4646.62 1.13042 -2.01221 0
M  V30 49493 C 4647.59 1.40468 -0.886452 0
M  V30 49494 O 4648.77 1.52129 -1.15158 0
M  V30 49495 C 4645.91 2.44862 -2.4318 0
M  V30 49496 C 4645.02 2.24268 -3.69226 0
M  V30 49497 C 4644.16 3.49403 -4.00114 0
M  V30 49498 C 4643.2 3.2402 -5.19305 0
M  V30 49499 N 4642.33 4.4139 -5.46003 0
M  V30 49500 H 4647.17 0.748355 -2.8845 0
M  V30 49501 H 4644.71 0.358003 -1.42677 0
M  V30 49502 H 4646.67 3.21776 -2.65548 0
M  V30 49503 H 4645.3 2.80938 -1.58977 0
M  V30 49504 H 4644.35 1.38212 -3.54403 0
M  V30 49505 H 4645.66 2.01496 -4.5629 0
M  V30 49506 H 4644.82 4.34731 -4.23195 0
M  V30 49507 H 4643.56 3.75218 -3.11549 0
M  V30 49508 H 4642.56 2.37084 -4.96056 0
M  V30 49509 H 4643.79 2.99563 -6.09458 0
M  V30 49510 H 4641.73 4.67303 -4.60396 0
M  V30 49511 H 4641.65 4.21766 -6.27415 0
M  V30 49512 H 4642.92 5.27816 -5.73612 0
M  V30 49513 N 4647.15 1.53016 0.377354 0
M  V30 49514 C 4648.37 1.72822 1.14662 0
M  V30 49515 C 4648.8 0.450789 1.82618 0
M  V30 49516 O 4648.15 -0.59433 1.71282 0
M  V30 49517 C 4648.2 2.88634 2.16154 0
M  V30 49518 O 4647.31 2.56421 3.22989 0
M  V30 49519 H 4646.65 0.574313 0.333257 0
M  V30 49520 H 4649.18 1.99855 0.438081 0
M  V30 49521 H 4649.19 3.14464 2.59955 0
M  V30 49522 H 4647.86 3.813 1.66082 0
M  V30 49523 H 4646.44 2.4137 2.84244 0
M  V30 49524 N 4648.62 -0.636481 1.44176 0
M  V30 49525 C 4649.87 -1.39208 1.45959 0
M  V30 49526 C 4650.19 -1.95374 0.0939805 0
M  V30 49527 O 4651.39 -2.71498 -0.0106813 0
M  V30 49528 C 4649.85 -2.52016 2.56936 0
M  V30 49529 C 4649.46 -2.02386 3.9968 0
M  V30 49530 C 4651.2 -3.2926 2.67933 0
M  V30 49531 C 4649.11 -3.12504 5.02091 0
M  V30 49532 H 4648.04 -0.523113 0.543018 0
M  V30 49533 H 4650.69 -0.68529 1.70223 0
M  V30 49534 H 4649.07 -3.25245 2.25902 0
M  V30 49535 H 4650.24 -1.36057 4.40256 0
M  V30 49536 H 4648.56 -1.37973 3.92877 0
M  V30 49537 H 4651.16 -4.1134 3.41619 0
M  V30 49538 H 4651.5 -3.78391 1.73568 0
M  V30 49539 H 4652.03 -2.63119 2.98351 0
M  V30 49540 H 4648.77 -2.68322 5.98066 0
M  V30 49541 H 4648.29 -3.77491 4.66112 0
M  V30 49542 H 4649.97 -3.77366 5.25551 0
M  V30 49543 N 4650.1 -1.30985 -0.876398 0
M  V30 49544 C 4651.33 -1.23069 -1.65944 0
M  V30 49545 C 4651.74 0.207471 -1.88059 0
M  V30 49546 O 4651.08 1.14776 -1.4343 0
M  V30 49547 C 4651.15 -1.89779 -3.05326 0
M  V30 49548 C 4650.81 -3.39116 -3.06348 0
M  V30 49549 C 4651.81 -4.3497 -2.84776 0
M  V30 49550 C 4649.49 -3.80704 -3.27673 0
M  V30 49551 C 4651.49 -5.70385 -2.84499 0
M  V30 49552 C 4649.17 -5.16235 -3.27024 0
M  V30 49553 C 4650.17 -6.10886 -3.05463 0
M  V30 49554 O 4649.86 -7.43939 -3.04647 0
M  V30 49555 H 4649.59 -0.426703 -0.524309 0
M  V30 49556 H 4652.14 -1.73294 -1.10265 0
M  V30 49557 H 4650.37 -1.34095 -3.62706 0
M  V30 49558 H 4652.06 -1.75866 -3.65822 0
M  V30 49559 H 4652.83 -4.0417 -2.68089 0
M  V30 49560 H 4648.71 -3.07469 -3.43488 0
M  V30 49561 H 4652.25 -6.44238 -2.67588 0
M  V30 49562 H 4648.15 -5.46672 -3.43249 0
M  V30 49563 H 4648.92 -7.53033 -3.20754 0
M  V30 49564 N 4651.58 1.08987 -1.13841 0
M  V30 49565 C 4652.83 1.81523 -0.904283 0
M  V30 49566 C 4653.16 1.85708 0.568 0
M  V30 49567 O 4652.43 1.3286 1.42051 0
M  V30 49568 C 4652.72 3.27442 -1.49846 0
M  V30 49569 C 4652.57 3.31502 -3.04018 0
M  V30 49570 C 4653.89 4.24252 -1.1704 0
M  V30 49571 H 4651.01 0.659018 -0.329946 0
M  V30 49572 H 4653.65 1.27639 -1.40742 0
M  V30 49573 H 4651.8 3.73458 -1.07057 0
M  V30 49574 H 4653.47 2.93854 -3.55594 0
M  V30 49575 H 4651.72 2.70951 -3.38774 0
M  V30 49576 H 4652.39 4.34317 -3.40694 0
M  V30 49577 H 4654.86 3.86544 -1.54023 0
M  V30 49578 H 4653.74 5.24679 -1.61256 0
M  V30 49579 H 4654 4.42019 -0.0847828 0
M  V30 49580 N 4653.06 0.932607 1.27044 0
M  V30 49581 C 4653.97 0.4413 2.30412 0
M  V30 49582 C 4654.98 -0.480466 1.67235 0
M  V30 49583 O 4656.16 -0.362082 1.98118 0
M  V30 49584 C 4653.23 -0.293529 3.45455 0
M  V30 49585 C 4652.29 0.66375 4.24138 0
M  V30 49586 C 4651.52 -0.0361056 5.33688 0
M  V30 49587 O 4651.74 -1.25461 5.56431 0
M  V30 49588 O 4650.68 0.638225 5.98507 0
M  V30 49589 H 4654.5 1.29972 2.74483 0
M  V30 49590 H 4652.09 0.698147 1.32084 0
M  V30 49591 H 4653.97 -0.707805 4.15413 0
M  V30 49592 H 4652.64 -1.12747 3.0343 0
M  V30 49593 H 4651.55 1.1278 3.56695 0
M  V30 49594 H 4652.88 1.46506 4.6989 0
M  V30 49595 N 4654.54 -1.41267 0.698661 0
M  V30 49596 C 4655.95 -1.5524 0.370517 0
M  V30 49597 C 4656.15 -1.67355 -1.12225 0
M  V30 49598 O 4655.21 -1.65369 -1.90812 0
M  V30 49599 C 4656.52 -2.78993 1.12175 0
M  V30 49600 C 4658.07 -2.92793 1.1064 0
M  V30 49601 C 4658.54 -4.19438 1.83944 0
M  V30 49602 N 4660.04 -4.26402 1.80929 0
M  V30 49603 C 4660.77 -5.23263 2.34486 0
M  V30 49604 N 4660.27 -6.26134 2.96526 0
M  V30 49605 N 4662.06 -5.15224 2.24724 0
M  V30 49606 H 4654.21 -1.31648 1.66681 0
M  V30 49607 H 4656.47 -0.635369 0.70357 0
M  V30 49608 H 4656.18 -2.76261 2.17653 0
M  V30 49609 H 4656.05 -3.70604 0.702339 0
M  V30 49610 H 4658.44 -2.95039 0.059875 0
M  V30 49611 H 4658.52 -2.02348 1.5649 0
M  V30 49612 H 4658.17 -4.17953 2.88578 0
M  V30 49613 H 4658.1 -5.08862 1.35527 0
M  V30 49614 H 4660.59 -3.52695 1.357 0
M  V30 49615 H 4660.9 -6.96439 3.34952 0
M  V30 49616 H 4659.24 -6.26627 3.00605 0
M  V30 49617 H 4662.44 -4.33783 1.75926 0
M  V30 49618 H 4662.61 -5.90542 2.66765 0
M  V30 49619 N 4656.01 -0.44363 -1.51227 0
M  V30 49620 C 4656.95 0.400529 -2.25673 0
M  V30 49621 C 4657.96 0.9809 -1.29932 0
M  V30 49622 O 4659.15 0.87397 -1.55641 0
M  V30 49623 C 4656.25 1.57294 -3.00186 0
M  V30 49624 C 4655.42 1.11031 -4.23073 0
M  V30 49625 C 4654.48 2.15357 -4.80112 0
M  V30 49626 O 4653.51 1.74535 -5.41781 0
M  V30 49627 N 4654.71 3.47906 -4.64695 0
M  V30 49628 H 4657.47 -0.237555 -2.98757 0
M  V30 49629 H 4655.03 -0.272865 -1.59584 0
M  V30 49630 H 4657.03 2.26721 -3.3523 0
M  V30 49631 H 4655.6 2.11624 -2.30074 0
M  V30 49632 H 4654.82 0.24288 -3.93451 0
M  V30 49633 H 4656.1 0.778712 -5.02806 0
M  V30 49634 H 4655.5 3.838 -4.15589 0
M  V30 49635 H 4654.06 4.1321 -5.04084 0
M  V30 49636 N 4657.49 1.56623 -0.175209 0
M  V30 49637 C 4658.91 1.58571 0.18091 0
M  V30 49638 C 4659.11 1.19071 1.62556 0
M  V30 49639 O 4658.17 0.904127 2.35758 0
M  V30 49640 C 4659.48 3.00522 -0.103432 0
M  V30 49641 C 4661.03 3.12972 -0.0419526 0
M  V30 49642 C 4661.5 4.57021 -0.299336 0
M  V30 49643 N 4662.99 4.6254 -0.247249 0
M  V30 49644 C 4663.73 5.71856 -0.420519 0
M  V30 49645 N 4663.22 6.89715 -0.653058 0
M  V30 49646 N 4665.02 5.60971 -0.356154 0
M  V30 49647 H 4657.17 1.80586 -1.11815 0
M  V30 49648 H 4659.43 0.837163 -0.444818 0
M  V30 49649 H 4659.14 3.33912 -1.10434 0
M  V30 49650 H 4659.01 3.72346 0.603168 0
M  V30 49651 H 4661.4 2.79406 0.949537 0
M  V30 49652 H 4661.48 2.43575 -0.781324 0
M  V30 49653 H 4661.12 4.91296 -1.28805 0
M  V30 49654 H 4661.05 5.24581 0.460692 0
M  V30 49655 H 4663.54 3.77829 -0.0733223 0
M  V30 49656 H 4663.86 7.68908 -0.774617 0
M  V30 49657 H 4662.2 6.91569 -0.689719 0
M  V30 49658 H 4665.39 4.67773 -0.175046 0
M  V30 49659 H 4665.57 6.4611 -0.494615 0
M  V30 49660 N 4658.97 -0.0984986 1.57292 0
M  V30 49661 C 4660.2 -0.820129 1.90496 0
M  V30 49662 C 4660.62 -1.71656 0.769155 0
M  V30 49663 O 4659.98 -1.79134 -0.279432 0
M  V30 49664 C 4660.03 -1.6123 3.22548 0
M  V30 49665 O 4659.13 -2.72098 3.09898 0
M  V30 49666 H 4658.47 -0.225525 0.624528 0
M  V30 49667 H 4661 -0.074744 2.04463 0
M  V30 49668 H 4661.01 -1.99724 3.55773 0
M  V30 49669 H 4659.69 -0.954393 4.04801 0
M  V30 49670 H 4658.26 -2.36656 2.88181 0
M  V30 49671 N 4660.45 -1.53214 -0.369234 0
M  V30 49672 C 4661.41 -1.78725 -1.43492 0
M  V30 49673 C 4662.41 -0.657606 -1.46739 0
M  V30 49674 O 4663.6 -0.925788 -1.47563 0
M  V30 49675 C 4660.73 -1.90601 -2.82638 0
M  V30 49676 H 4661.93 -2.73898 -1.22146 0
M  V30 49677 H 4659.48 -1.44235 -0.602153 0
M  V30 49678 H 4660.22 -0.974818 -3.09302 0
M  V30 49679 H 4660 -2.72761 -2.8168 0
M  V30 49680 H 4661.49 -2.11943 -3.59819 0
M  V30 49681 N 4661.93 0.628826 -1.44511 0
M  V30 49682 C 4662.86 1.75181 -1.54382 0
M  V30 49683 C 4663.84 1.6541 -0.396676 0
M  V30 49684 O 4665.02 1.84135 -0.617095 0
M  V30 49685 C 4662.15 3.1372 -1.48987 0
M  V30 49686 C 4661.11 3.38282 -2.62201 0
M  V30 49687 C 4660.43 4.76874 -2.41857 0
M  V30 49688 C 4661.73 3.30618 -4.04338 0
M  V30 49689 H 4663.43 1.67178 -2.48379 0
M  V30 49690 H 4660.97 0.802867 -1.19541 0
M  V30 49691 H 4662.93 3.92059 -1.54492 0
M  V30 49692 H 4661.65 3.22513 -0.515074 0
M  V30 49693 H 4660.31 2.62325 -2.56088 0
M  V30 49694 H 4659.96 4.82373 -1.42565 0
M  V30 49695 H 4659.66 4.94266 -3.17765 0
M  V30 49696 H 4661.18 5.5744 -2.49184 0
M  V30 49697 H 4662.6 3.98859 -4.11807 0
M  V30 49698 H 4660.99 3.59544 -4.80466 0
M  V30 49699 H 4662.06 2.28389 -4.27746 0
M  V30 49700 N 4663.41 1.31448 0.869439 0
M  V30 49701 C 4664.65 1.20924 1.61931 0
M  V30 49702 C 4664.97 -0.232615 1.93608 0
M  V30 49703 O 4664.24 -1.15346 1.58342 0
M  V30 49704 H 4662.82 0.444561 0.600312 0
M  V30 49705 H 4665.49 1.6478 1.04084 0
M  V30 49706 H 4664.58 1.78133 2.56272 0
M  V30 49707 N 4664.88 -1.08381 1.14417 0
M  V30 49708 C 4665.79 -2.18853 0.845028 0
M  V30 49709 C 4666.81 -1.73122 -0.174607 0
M  V30 49710 O 4667.99 -2.014 -0.00305777 0
M  V30 49711 C 4665.05 -3.45154 0.327081 0
M  V30 49712 C 4664.11 -4.05508 1.4093 0
M  V30 49713 C 4663.34 -5.25781 0.915978 0
M  V30 49714 O 4663.57 -5.69884 -0.242451 0
M  V30 49715 O 4662.5 -5.77539 1.69507 0
M  V30 49716 H 4666.33 -2.46913 1.76826 0
M  V30 49717 H 4663.91 -1.17521 0.922453 0
M  V30 49718 H 4665.79 -4.21377 0.0441693 0
M  V30 49719 H 4664.47 -3.1867 -0.568427 0
M  V30 49720 H 4663.38 -3.30873 1.74568 0
M  V30 49721 H 4664.71 -4.36242 2.27934 0
M  V30 49722 N 4666.36 -0.939331 -1.26548 0
M  V30 49723 C 4667.6 -0.593369 -1.95598 0
M  V30 49724 C 4667.97 0.851455 -1.72088 0
M  V30 49725 O 4669.17 1.30626 -2.34926 0
M  V30 49726 C 4667.44 -0.924117 -3.45246 0
M  V30 49727 S 4669 -0.688421 -4.33366 0
M  V30 49728 H 4665.81 -0.218615 -0.676556 0
M  V30 49729 H 4668.42 -1.21025 -1.53536 0
M  V30 49730 H 4667.12 -1.9731 -3.59857 0
M  V30 49731 H 4666.65 -0.296884 -3.92278 0
M  V30 49732 H 4668.67 0.44826 -4.94171 0
M  V30 49733 N 4667.84 1.40895 -0.706143 0
M  V30 49734 C 4668.77 2.33417 -0.0620906 0
M  V30 49735 C 4669.75 1.52388 0.755774 0
M  V30 49736 O 4670.94 1.80889 0.706611 0
M  V30 49737 C 4668.07 3.36296 0.867326 0
M  V30 49738 C 4667.02 4.27716 0.155782 0
M  V30 49739 C 4666.35 5.21054 1.20027 0
M  V30 49740 C 4667.65 5.12941 -0.98433 0
M  V30 49741 H 4669.34 2.87524 -0.834871 0
M  V30 49742 H 4666.89 1.38248 -0.402924 0
M  V30 49743 H 4668.84 3.99954 1.32721 0
M  V30 49744 H 4667.56 2.80562 1.67189 0
M  V30 49745 H 4666.22 3.65497 -0.284176 0
M  V30 49746 H 4665.87 4.61631 1.99765 0
M  V30 49747 H 4665.57 5.83059 0.729123 0
M  V30 49748 H 4667.09 5.8759 1.66045 0
M  V30 49749 H 4668.51 5.70107 -0.604248 0
M  V30 49750 H 4666.9 5.8394 -1.38325 0
M  V30 49751 H 4667.97 4.49478 -1.81926 0
M  V30 49752 N 4669.32 0.451643 1.5099 0
M  V30 49753 C 4670.28 -0.341037 2.26649 0
M  V30 49754 C 4671.28 -0.937376 1.30652 0
M  V30 49755 O 4672.47 -0.80959 1.54244 0
M  V30 49756 C 4669.6 -1.48387 3.06911 0
M  V30 49757 H 4670.8 0.322221 2.98164 0
M  V30 49758 H 4668.35 0.205176 1.54947 0
M  V30 49759 H 4669.08 -2.18276 2.39846 0
M  V30 49760 H 4668.87 -1.06228 3.77436 0
M  V30 49761 H 4670.36 -2.04354 3.64183 0
M  V30 49762 N 4670.8 -1.56528 0.183513 0
M  V30 49763 C 4671.76 -2.17326 -0.728147 0
M  V30 49764 C 4672.76 -1.12457 -1.14935 0
M  V30 49765 O 4673.95 -1.37905 -1.06432 0
M  V30 49766 C 4671.08 -2.76598 -1.99264 0
M  V30 49767 H 4672.27 -2.99241 -0.198667 0
M  V30 49768 H 4669.83 -1.5616 -0.0660842 0
M  V30 49769 H 4670.56 -1.9845 -2.56492 0
M  V30 49770 H 4670.35 -3.53356 -1.69947 0
M  V30 49771 H 4671.84 -3.2332 -2.64299 0
M  V30 49772 N 4672.27 0.0901557 -1.57342 0
M  V30 49773 C 4673.52 0.792742 -1.86338 0
M  V30 49774 C 4673.85 1.78491 -0.772725 0
M  V30 49775 O 4673.1 1.94306 0.233189 0
M  V30 49776 C 4673.4 1.55211 -3.21938 0
M  V30 49777 C 4673.07 0.701608 -4.45408 0
M  V30 49778 C 4671.73 0.467166 -4.78927 0
M  V30 49779 C 4674.08 0.110677 -5.21082 0
M  V30 49780 C 4671.41 -0.367991 -5.85545 0
M  V30 49781 C 4673.76 -0.71183 -6.28582 0
M  V30 49782 C 4672.43 -0.956318 -6.60614 0
M  V30 49783 H 4671.7 0.290085 -0.681859 0
M  V30 49784 H 4674.34 0.0540659 -1.91424 0
M  V30 49785 H 4672.65 2.36249 -3.1256 0
M  V30 49786 H 4674.35 2.1002 -3.41603 0
M  V30 49787 H 4670.94 0.894451 -4.19163 0
M  V30 49788 H 4675.12 0.278955 -4.95515 0
M  V30 49789 H 4670.38 -0.566342 -6.08771 0
M  V30 49790 H 4674.55 -1.17656 -6.86389 0
M  V30 49791 H 4672.18 -1.60525 -7.43058 0
M  V30 49792 N 4673.75 1.53407 0.361103 0
M  V30 49793 C 4674.72 1.79484 1.42542 0
M  V30 49794 C 4675.72 0.665378 1.46388 0
M  V30 49795 O 4676.91 0.933601 1.4707 0
M  V30 49796 C 4674.04 1.92097 2.81623 0
M  V30 49797 H 4675.23 2.74542 1.20692 0
M  V30 49798 H 4672.78 1.44553 0.594495 0
M  V30 49799 H 4673.52 0.991208 3.08781 0
M  V30 49800 H 4673.3 2.74251 2.8023 0
M  V30 49801 H 4674.79 2.13849 3.5869 0
M  V30 49802 N 4675.23 -0.621153 1.44843 0
M  V30 49803 C 4676.48 -1.37778 1.47857 0
M  V30 49804 C 4676.8 -1.94653 0.116292 0
M  V30 49805 O 4676.07 -1.7637 -0.852675 0
M  V30 49806 H 4674.65 -0.511434 0.544467 0
M  V30 49807 H 4677.31 -0.730382 1.80697 0
M  V30 49808 H 4676.41 -2.20407 2.20969 0
M  V30 49809 N 4676.71 -1.31907 -0.862456 0
M  V30 49810 C 4677.67 -1.20138 -1.95191 0
M  V30 49811 C 4678.67 -0.126465 -1.60302 0
M  V30 49812 O 4679.86 -0.376294 -1.70087 0
M  V30 49813 C 4676.99 -0.845807 -3.30241 0
M  V30 49814 H 4678.19 -2.16951 -2.07057 0
M  V30 49815 H 4675.74 -1.15626 -1.05168 0
M  V30 49816 H 4676.47 0.120843 -3.24075 0
M  V30 49817 H 4676.26 -1.62288 -3.56938 0
M  V30 49818 H 4677.75 -0.787562 -4.10106 0
M  V30 49819 N 4678.19 1.07773 -1.1499 0
M  V30 49820 C 4679.43 1.80286 -0.922119 0
M  V30 49821 C 4679.76 1.86533 0.550984 0
M  V30 49822 O 4679.02 1.34194 1.42445 0
M  V30 49823 C 4679.32 3.25489 -1.47619 0
M  V30 49824 C 4678.98 3.3935 -2.96904 0
M  V30 49825 C 4677.64 3.4284 -3.37659 0
M  V30 49826 C 4680 3.42499 -3.92867 0
M  V30 49827 C 4677.32 3.47077 -4.73027 0
M  V30 49828 C 4679.68 3.48272 -5.281 0
M  V30 49829 C 4678.34 3.50038 -5.68357 0
M  V30 49830 H 4677.61 0.659715 -0.337427 0
M  V30 49831 H 4680.26 1.26849 -1.43463 0
M  V30 49832 H 4678.56 3.81679 -0.884764 0
M  V30 49833 H 4680.26 3.80163 -1.27581 0
M  V30 49834 H 4676.85 3.37329 -2.64399 0
M  V30 49835 H 4681.03 3.39027 -3.62456 0
M  V30 49836 H 4676.29 3.4674 -5.03568 0
M  V30 49837 H 4680.46 3.49654 -6.02258 0
M  V30 49838 H 4678.09 3.53073 -6.73233 0
M  V30 49839 N 4679.66 0.946029 1.26048 0
M  V30 49840 C 4681.08 0.638158 1.75455 0
M  V30 49841 C 4681.43 -0.84661 1.76994 0
M  V30 49842 O 4680.55 -1.66257 1.38519 0
M  V30 49843 C 4681.15 1.15168 3.18625 0
M  V30 49844 C 4679.71 0.894133 3.65626 0
M  V30 49845 C 4678.85 1.29976 2.44952 0
M  V30 49846 H 4681.8 1.1238 1.12056 0
M  V30 49847 H 4681.82 0.507747 3.77097 0
M  V30 49848 H 4681.34 2.23233 3.17472 0
M  V30 49849 H 4679.44 -0.171926 3.72203 0
M  V30 49850 H 4679.55 1.52455 4.54196 0
M  V30 49851 H 4677.91 0.718164 2.44365 0
M  V30 49852 H 4678.7 2.38944 2.46497 0
M  V30 49853 N 4681.14 -1.40518 0.713605 0
M  V30 49854 C 4682.39 -2.0122 0.252634 0
M  V30 49855 C 4682.72 -1.56448 -1.15055 0
M  V30 49856 O 4682 -0.78366 -1.78014 0
M  V30 49857 C 4682.28 -3.58581 0.330458 0
M  V30 49858 C 4682.13 -4.1343 1.77187 0
M  V30 49859 C 4683.45 -4.3908 -0.299487 0
M  V30 49860 H 4680.57 -0.731074 0.0932728 0
M  V30 49861 H 4683.21 -1.67022 0.905731 0
M  V30 49862 H 4681.36 -3.87844 -0.225601 0
M  V30 49863 H 4683.03 -3.94972 2.38316 0
M  V30 49864 H 4681.28 -3.67793 2.30023 0
M  V30 49865 H 4681.95 -5.2259 1.77773 0
M  V30 49866 H 4684.42 -4.15735 0.174285 0
M  V30 49867 H 4683.3 -5.4848 -0.214578 0
M  V30 49868 H 4683.56 -4.1992 -1.38273 0
M  V30 49869 N 4682.62 -0.459644 -1.50748 0
M  V30 49870 C 4683.58 0.329013 -2.26826 0
M  V30 49871 C 4684.58 0.930435 -1.31147 0
M  V30 49872 O 4685.77 0.801399 -1.54671 0
M  V30 49873 C 4682.91 1.46757 -3.07693 0
M  V30 49874 H 4684.1 -0.338029 -2.97989 0
M  V30 49875 H 4681.65 -0.213391 -1.54836 0
M  V30 49876 H 4682.39 2.17001 -2.41 0
M  V30 49877 H 4682.17 1.04225 -3.77994 0
M  V30 49878 H 4683.66 2.0242 -3.65261 0
M  V30 49879 N 4684.1 1.56428 -0.191812 0
M  V30 49880 C 4685.35 1.97486 0.447821 0
M  V30 49881 C 4685.67 1.07857 1.61855 0
M  V30 49882 O 4684.93 0.116972 1.9535 0
M  V30 49883 C 4685.23 3.44453 0.953263 0
M  V30 49884 C 4684.89 4.50781 -0.103744 0
M  V30 49885 C 4683.56 4.79583 -0.394191 0
M  V30 49886 C 4685.91 5.14707 -0.820127 0
M  V30 49887 C 4683.24 5.69602 -1.40605 0
M  V30 49888 C 4685.59 6.0582 -1.82112 0
M  V30 49889 C 4684.25 6.3298 -2.1188 0
M  V30 49890 H 4683.52 0.722653 0.163869 0
M  V30 49891 H 4686.17 1.89321 -0.288087 0
M  V30 49892 H 4684.47 3.49672 1.76738 0
M  V30 49893 H 4686.17 3.73574 1.45751 0
M  V30 49894 H 4682.76 4.28394 0.132801 0
M  V30 49895 H 4686.94 4.9255 -0.608962 0
M  V30 49896 H 4682.2 5.8892 -1.64264 0
M  V30 49897 H 4686.37 6.54415 -2.38146 0
M  V30 49898 H 4684 7.02533 -2.90432 0
M  V30 49899 N 4685.58 -0.0818102 1.57388 0
M  V30 49900 C 4686.51 -1.09877 2.06032 0
M  V30 49901 C 4687.49 -1.40976 0.951823 0
M  V30 49902 O 4688.67 -1.50777 1.22393 0
M  V30 49903 C 4685.8 -2.41502 2.49588 0
M  V30 49904 C 4684.76 -2.24779 3.64223 0
M  V30 49905 C 4684.08 -3.61698 3.938 0
M  V30 49906 C 4685.38 -1.67732 4.94635 0
M  V30 49907 H 4687.08 -0.694026 2.91245 0
M  V30 49908 H 4684.62 -0.332399 1.40111 0
M  V30 49909 H 4686.58 -3.12929 2.8223 0
M  V30 49910 H 4685.3 -2.83937 1.61391 0
M  V30 49911 H 4683.96 -1.55796 3.31848 0
M  V30 49912 H 4683.61 -4.01686 3.0275 0
M  V30 49913 H 4683.31 -3.51352 4.70984 0
M  V30 49914 H 4684.83 -4.34572 4.28929 0
M  V30 49915 H 4686.24 -2.29013 5.25572 0
M  V30 49916 H 4684.64 -1.68108 5.76073 0
M  V30 49917 H 4685.71 -0.637891 4.80686 0
M  V30 49918 N 4687.06 -1.53597 -0.352963 0
M  V30 49919 C 4687.97 -1.83902 -1.45661 0
M  V30 49920 C 4688.98 -0.728389 -1.58021 0
M  V30 49921 O 4690.16 -1.01974 -1.73676 0
M  V30 49922 C 4687.22 -2.03392 -2.80771 0
M  V30 49923 C 4686.28 -3.27272 -2.77834 0
M  V30 49924 C 4685.52 -3.45823 -4.065 0
M  V30 49925 O 4685.74 -2.68404 -5.03304 0
M  V30 49926 O 4684.67 -4.39221 -4.11544 0
M  V30 49927 H 4688.5 -2.7769 -1.2297 0
M  V30 49928 H 4686.08 -1.39134 -0.544259 0
M  V30 49929 H 4687.97 -2.17711 -3.60804 0
M  V30 49930 H 4686.64 -1.12794 -3.03413 0
M  V30 49931 H 4685.55 -3.18366 -1.96454 0
M  V30 49932 H 4686.88 -4.17833 -2.60146 0
M  V30 49933 N 4688.53 0.613463 -1.4517 0
M  V30 49934 C 4689.76 1.39941 -1.52395 0
M  V30 49935 C 4690.18 1.88166 -0.154597 0
M  V30 49936 O 4689.53 1.61875 0.842786 0
M  V30 49937 C 4689.58 2.60786 -2.50346 0
M  V30 49938 O 4689.31 2.14566 -3.81959 0
M  V30 49939 C 4690.81 3.53714 -2.67211 0
M  V30 49940 H 4688.03 0.428574 -0.516299 0
M  V30 49941 H 4690.57 0.748686 -1.90302 0
M  V30 49942 H 4688.73 3.21912 -2.15526 0
M  V30 49943 H 4689.14 2.9304 -4.35004 0
M  V30 49944 H 4690.61 4.35067 -3.39737 0
M  V30 49945 H 4691.09 4.03674 -1.73043 0
M  V30 49946 H 4691.7 2.98445 -3.03003 0
M  V30 49947 N 4690.01 1.32363 0.855449 0
M  V30 49948 C 4690.96 1.17815 1.95201 0
M  V30 49949 C 4691.95 0.0852884 1.60674 0
M  V30 49950 O 4693.14 0.311712 1.74234 0
M  V30 49951 C 4690.27 0.902553 3.31223 0
M  V30 49952 C 4689.35 2.03708 3.71973 0
M  V30 49953 N 4689.74 3.28558 3.84556 0
M  V30 49954 C 4688.04 1.94007 4.01593 0
M  V30 49955 C 4688.74 4.02862 4.19615 0
M  V30 49956 N 4687.72 3.31153 4.3109 0
M  V30 49957 H 4691.52 2.12469 2.03062 0
M  V30 49958 H 4689.03 1.2413 1.04716 0
M  V30 49959 H 4691.03 0.779294 4.09552 0
M  V30 49960 H 4689.69 -0.0356125 3.2468 0
M  V30 49961 H 4690.7 3.63503 3.68898 0
M  V30 49962 H 4687.38 1.07747 4.03357 0
M  V30 49963 H 4688.77 5.10521 4.36827 0
M  V30 49964 N 4691.49 -1.07162 1.1556 0
M  V30 49965 C 4692.42 -2.164 0.877122 0
M  V30 49966 C 4693.4 -1.69217 -0.173052 0
M  V30 49967 O 4694.59 -1.94181 -0.0270157 0
M  V30 49968 C 4691.72 -3.45347 0.367754 0
M  V30 49969 C 4690.67 -4.05991 1.35483 0
M  V30 49970 C 4690 -5.30042 0.704224 0
M  V30 49971 C 4691.3 -4.45795 2.72148 0
M  V30 49972 H 4692.99 -2.39953 1.79062 0
M  V30 49973 H 4690.54 -1.15322 0.862372 0
M  V30 49974 H 4692.49 -4.21094 0.160465 0
M  V30 49975 H 4691.21 -3.21387 -0.581213 0
M  V30 49976 H 4689.87 -3.3229 1.54851 0
M  V30 49977 H 4689.52 -5.02374 -0.250952 0
M  V30 49978 H 4689.22 -5.71574 1.36297 0
M  V30 49979 H 4690.74 -6.08494 0.506753 0
M  V30 49980 H 4692.16 -5.12662 2.56613 0
M  V30 49981 H 4690.55 -4.98284 3.34415 0
M  V30 49982 H 4691.62 -3.57072 3.28067 0
M  V30 49983 N 4692.97 -0.9527 -1.25544 0
M  V30 49984 C 4694.24 -0.523884 -1.88454 0
M  V30 49985 C 4694.62 0.998806 -1.85976 0
M  V30 49986 O 4693.97 1.86376 -1.32197 0
M  V30 49987 C 4694.18 -1.09832 -3.31267 0
M  V30 49988 C 4695.53 -1.174 -4.08047 0
M  V30 49989 O 4696.55 -1.04973 -3.40381 0
M  V30 49990 O 4695.41 -1.36871 -5.29083 0
M  V30 49991 H 4692.51 -0.172513 -0.808807 0
M  V30 49992 H 4695.05 -1.04601 -1.33629 0
M  V30 49993 H 4693.83 -2.14162 -3.27491 0
M  V30 49994 H 4693.45 -0.559329 -3.93646 0
M  V30 49995 N 4694.45 1.40138 -0.721047 0
M  V30 49996 C 4695.39 2.30688 -0.0720001 0
M  V30 49997 C 4696.36 1.48479 0.744532 0
M  V30 49998 O 4697.55 1.77203 0.70736 0
M  V30 49999 C 4694.69 3.34727 0.839737 0
M  V30 50000 C 4693.8 4.31998 0.012092 0
M  V30 50001 C 4692.94 5.23105 0.923811 0
M  V30 50002 C 4691.97 6.12033 0.0905818 0
M  V30 50003 N 4691.11 6.95541 0.957473 0
M  V30 50004 H 4695.95 2.85625 -0.849856 0
M  V30 50005 H 4693.49 1.40651 -0.430775 0
M  V30 50006 H 4695.45 3.93623 1.38265 0
M  V30 50007 H 4694.08 2.8128 1.58372 0
M  V30 50008 H 4693.13 3.74839 -0.648072 0
M  V30 50009 H 4694.44 4.9477 -0.632769 0
M  V30 50010 H 4693.59 5.86959 1.53506 0
M  V30 50011 H 4692.33 4.60621 1.60248 0
M  V30 50012 H 4691.34 5.47205 -0.53357 0
M  V30 50013 H 4692.56 6.76579 -0.584666 0
M  V30 50014 H 4690.51 6.35639 1.62169 0
M  V30 50015 H 4690.43 7.551 0.368775 0
M  V30 50016 H 4691.69 7.63838 1.55473 0
M  V30 50017 N 4695.92 0.467632 1.50502 0
M  V30 50018 C 4696.87 -0.346901 2.25346 0
M  V30 50019 C 4697.86 -0.964424 1.28793 0
M  V30 50020 O 4699.05 -0.877546 1.53714 0
M  V30 50021 C 4696.18 -1.43031 3.12085 0
M  V30 50022 C 4695.26 -0.820693 4.16083 0
M  V30 50023 N 4695.66 0.056938 5.05768 0
M  V30 50024 C 4693.95 -1.08501 4.32601 0
M  V30 50025 C 4694.65 0.402547 5.80305 0
M  V30 50026 N 4693.63 -0.221416 5.43149 0
M  V30 50027 H 4697.43 0.329232 2.9205 0
M  V30 50028 H 4694.95 0.281564 1.59941 0
M  V30 50029 H 4696.94 -2.02699 3.64306 0
M  V30 50030 H 4695.6 -2.10847 2.46928 0
M  V30 50031 H 4696.61 0.42553 5.16149 0
M  V30 50032 H 4693.29 -1.75841 3.78663 0
M  V30 50033 H 4694.68 1.11857 6.62524 0
M  V30 50034 N 4697.4 -1.56324 0.200105 0
M  V30 50035 C 4698.35 -2.20668 -0.735404 0
M  V30 50036 C 4699.34 -1.17939 -1.21601 0
M  V30 50037 O 4700.55 -1.36072 -1.17832 0
M  V30 50038 H 4696.92 -0.707259 -0.255517 0
M  V30 50039 H 4698.9 -2.97921 -0.169062 0
M  V30 50040 C 4697.64 -2.88397 -1.94222 0
M  V30 50041 H 4696.97 -3.67191 -1.58148 0
M  V30 50042 H 4698.41 -3.36849 -2.57505 0
M  V30 50043 C 4696.87 -1.89702 -2.78415 0
M  V30 50044 O 4697.4 -1.40045 -3.76497 0
M  V30 50045 N 4695.6 -1.57821 -2.4401 0
M  V30 50046 H 4695.15 -1.98396 -1.64307 0
M  V30 50047 H 4695.11 -0.920431 -3.00625 0
M  V30 50048 N 4698.88 0.0734624 -1.57429 0
M  V30 50049 C 4700.13 0.771744 -1.86352 0
M  V30 50050 C 4700.44 1.78825 -0.792515 0
M  V30 50051 O 4701.65 2.53598 -0.969539 0
M  V30 50052 C 4700.1 1.42346 -3.30553 0
M  V30 50053 C 4699.71 0.445605 -4.45778 0
M  V30 50054 C 4701.46 2.10421 -3.68678 0
M  V30 50055 C 4699.36 1.10314 -5.8102 0
M  V30 50056 H 4698.29 0.291975 -0.695174 0
M  V30 50057 H 4700.94 0.0250104 -1.83483 0
M  V30 50058 H 4699.33 2.2184 -3.28029 0
M  V30 50059 H 4700.5 -0.3194 -4.59692 0
M  V30 50060 H 4698.81 -0.130603 -4.16195 0
M  V30 50061 H 4701.41 2.60389 -4.67014 0
M  V30 50062 H 4701.75 2.90288 -2.98393 0
M  V30 50063 H 4702.29 1.3776 -3.73185 0
M  V30 50064 H 4699.03 0.344831 -6.54592 0
M  V30 50065 H 4698.55 1.83905 -5.70911 0
M  V30 50066 H 4700.23 1.62345 -6.26301 0
M  V30 50067 N 4700.36 1.53782 0.344812 0
M  V30 50068 C 4701.59 1.7465 1.10368 0
M  V30 50069 C 4702 0.484975 1.82879 0
M  V30 50070 O 4701.34 -0.553001 1.75179 0
M  V30 50071 C 4701.4 2.87152 2.16296 0
M  V30 50072 C 4701.06 4.26801 1.63371 0
M  V30 50073 C 4702.06 5.08416 1.0867 0
M  V30 50074 C 4699.75 4.73281 1.68256 0
M  V30 50075 C 4701.74 6.34611 0.595569 0
M  V30 50076 C 4699.43 5.9945 1.18755 0
M  V30 50077 C 4700.43 6.79948 0.644976 0
M  V30 50078 O 4700.11 8.03746 0.157343 0
M  V30 50079 H 4699.85 0.587124 0.335054 0
M  V30 50080 H 4702.4 2.01404 0.403181 0
M  V30 50081 H 4700.63 2.5592 2.899 0
M  V30 50082 H 4702.32 2.96002 2.77737 0
M  V30 50083 H 4703.08 4.7367 1.04219 0
M  V30 50084 H 4698.96 4.10684 2.09427 0
M  V30 50085 H 4702.51 6.97389 0.171409 0
M  V30 50086 H 4698.4 6.33691 1.22906 0
M  V30 50087 H 4699.17 8.18039 0.27475 0
M  V30 50088 N 4701.84 -0.605756 1.45494 0
M  V30 50089 C 4703.06 -1.3962 1.53366 0
M  V30 50090 C 4703.49 -1.87351 0.167711 0
M  V30 50091 O 4702.84 -1.60246 -0.847995 0
M  V30 50092 C 4702.89 -2.5755 2.52389 0
M  V30 50093 O 4702 -3.58241 2.04297 0
M  V30 50094 H 4701.34 -0.416753 0.516927 0
M  V30 50095 H 4703.87 -0.737036 1.90864 0
M  V30 50096 H 4703.88 -3.0477 2.71255 0
M  V30 50097 H 4702.55 -2.22158 3.51594 0
M  V30 50098 H 4701.13 -3.17657 1.95316 0
M  V30 50099 N 4703.31 -1.32814 -0.848417 0
M  V30 50100 C 4704.56 -1.23081 -1.59794 0
M  V30 50101 C 4704.88 0.204351 -1.9453 0
M  V30 50102 O 4706.08 0.423607 -2.68175 0
M  V30 50103 C 4704.54 -2.15604 -2.88172 0
M  V30 50104 C 4704.15 -3.64237 -2.60836 0
M  V30 50105 C 4705.89 -2.14722 -3.6619 0
M  V30 50106 C 4703.8 -4.48703 -3.85253 0
M  V30 50107 H 4702.73 -0.457112 -0.599637 0
M  V30 50108 H 4705.38 -1.57816 -0.936286 0
M  V30 50109 H 4703.76 -1.73791 -3.55827 0
M  V30 50110 H 4704.93 -4.14431 -2.01453 0
M  V30 50111 H 4703.25 -3.67313 -1.96138 0
M  V30 50112 H 4705.85 -2.75062 -4.58525 0
M  V30 50113 H 4706.19 -1.1398 -4.00393 0
M  V30 50114 H 4706.72 -2.54848 -3.05446 0
M  V30 50115 H 4703.46 -5.50283 -3.56187 0
M  V30 50116 H 4702.98 -4.03256 -4.4401 0
M  V30 50117 H 4704.66 -4.62022 -4.52929 0
M  V30 50118 N 4704.79 1.06547 -1.16127 0
M  V30 50119 C 4706.02 1.82736 -0.963902 0
M  V30 50120 C 4706.43 1.82713 0.491164 0
M  V30 50121 O 4705.77 1.24299 1.35261 0
M  V30 50122 C 4705.84 3.30645 -1.41118 0
M  V30 50123 C 4705.5 3.54374 -2.88562 0
M  V30 50124 C 4706.5 3.47636 -3.86581 0
M  V30 50125 C 4704.18 3.81778 -3.26421 0
M  V30 50126 C 4706.18 3.67964 -5.20462 0
M  V30 50127 C 4703.86 4.01756 -4.60473 0
M  V30 50128 C 4704.86 3.94846 -5.57302 0
M  V30 50129 O 4704.55 4.14282 -6.88931 0
M  V30 50130 H 4704.28 0.583124 -0.341969 0
M  V30 50131 H 4706.83 1.35346 -1.54501 0
M  V30 50132 H 4705.06 3.78884 -0.773527 0
M  V30 50133 H 4706.75 3.8832 -1.18163 0
M  V30 50134 H 4707.52 3.26458 -3.58678 0
M  V30 50135 H 4703.4 3.86267 -2.51632 0
M  V30 50136 H 4706.94 3.62486 -5.96028 0
M  V30 50137 H 4702.84 4.22423 -4.88087 0
M  V30 50138 H 4703.61 4.31585 -6.95469 0
M  V30 50139 N 4706.27 0.959345 1.25037 0
M  V30 50140 C 4707.22 0.474517 2.27708 0
M  V30 50141 C 4708.21 -0.457639 1.63101 0
M  V30 50142 O 4709.42 -0.33385 1.76877 0
M  V30 50143 H 4705.79 0.134962 0.73979 0
M  V30 50144 H 4707.76 1.3526 2.65983 0
M  V30 50145 C 4706.51 -0.227762 3.46953 0
M  V30 50146 H 4705.84 0.480387 3.96903 0
M  V30 50147 H 4707.28 -0.530944 4.20663 0
M  V30 50148 C 4705.74 -1.45189 3.04009 0
M  V30 50149 O 4706.27 -2.54938 3.10435 0
M  V30 50150 N 4704.47 -1.31493 2.59149 0
M  V30 50151 H 4704.02 -0.421976 2.5412 0
M  V30 50152 H 4703.98 -2.13513 2.30781 0
M  V30 50153 N 4707.75 -1.39754 0.728469 0
M  V30 50154 C 4708.98 -2.04947 0.283601 0
M  V30 50155 C 4709.39 -1.54912 -1.07924 0
M  V30 50156 O 4708.75 -0.711194 -1.68072 0
M  V30 50157 C 4708.8 -3.60497 0.269084 0
M  V30 50158 O 4708.52 -4.08689 1.57813 0
M  V30 50159 C 4710.02 -4.42881 -0.192756 0
M  V30 50160 H 4707.24 -0.659239 0.125079 0
M  V30 50161 H 4709.79 -1.78923 0.990288 0
M  V30 50162 H 4707.94 -3.85445 -0.388666 0
M  V30 50163 H 4708.35 -5.02972 1.48727 0
M  V30 50164 H 4709.83 -5.51791 -0.151758 0
M  V30 50165 H 4710.31 -4.21422 -1.23693 0
M  V30 50166 H 4710.91 -4.23068 0.435187 0
M  V30 50167 N 4709.23 -0.475607 -1.50252 0
M  V30 50168 C 4710.17 0.316213 -2.28624 0
M  V30 50169 C 4711.14 0.98318 -1.33876 0
M  V30 50170 O 4712.33 0.994748 -1.62817 0
M  V30 50171 C 4709.47 1.38964 -3.15885 0
M  V30 50172 C 4708.58 0.736996 -4.25667 0
M  V30 50173 C 4707.72 1.7887 -5.00179 0
M  V30 50174 C 4706.76 1.11655 -6.0183 0
M  V30 50175 N 4705.89 2.1113 -6.69603 0
M  V30 50176 H 4710.73 -0.358401 -2.95837 0
M  V30 50177 H 4708.27 -0.188592 -1.45886 0
M  V30 50178 H 4710.23 2.0237 -3.64832 0
M  V30 50179 H 4708.86 2.03335 -2.50708 0
M  V30 50180 H 4707.91 -0.00974023 -3.80399 0
M  V30 50181 H 4709.22 0.206641 -4.98372 0
M  V30 50182 H 4708.38 2.49845 -5.52867 0
M  V30 50183 H 4707.11 2.35287 -4.2719 0
M  V30 50184 H 4706.12 0.39244 -5.48398 0
M  V30 50185 H 4707.34 0.559213 -6.76794 0
M  V30 50186 H 4705.29 2.66556 -5.99403 0
M  V30 50187 H 4705.21 1.63092 -7.38198 0
M  V30 50188 H 4706.48 2.81472 -7.26907 0
M  V30 50189 N 4710.7 1.56216 -0.208392 0
M  V30 50190 C 4711.93 2.02784 0.435151 0
M  V30 50191 C 4712.35 1.08743 1.53482 0
M  V30 50192 O 4711.71 0.0732492 1.81152 0
M  V30 50193 C 4711.76 3.47691 0.956213 0
M  V30 50194 O 4710.86 3.5678 2.06837 0
M  V30 50195 H 4710.21 0.656406 0.100135 0
M  V30 50196 H 4712.74 2.02032 -0.323171 0
M  V30 50197 H 4712.75 3.8775 1.26942 0
M  V30 50198 H 4711.42 4.15625 0.151284 0
M  V30 50199 H 4710 3.28603 1.7628 0
M  V30 50200 N 4712.18 -0.0651125 1.57465 0
M  V30 50201 C 4713.41 -0.779538 1.92193 0
M  V30 50202 C 4713.83 -1.69985 0.805392 0
M  V30 50203 O 4713.19 -1.79686 -0.241372 0
M  V30 50204 C 4713.24 -1.54352 3.25895 0
M  V30 50205 O 4712.34 -2.65463 3.156 0
M  V30 50206 H 4711.68 -0.212227 0.629171 0
M  V30 50207 H 4714.21 -0.0313574 2.04576 0
M  V30 50208 H 4714.22 -1.92133 3.59929 0
M  V30 50209 H 4712.9 -0.868314 4.06735 0
M  V30 50210 H 4711.48 -2.3049 2.93136 0
M  V30 50211 N 4713.66 -1.53962 -0.336652 0
M  V30 50212 C 4715.08 -1.4438 -0.68019 0
M  V30 50213 C 4715.28 -0.606101 -1.92168 0
M  V30 50214 O 4714.33 -0.0997767 -2.52303 0
M  V30 50215 C 4715.65 -2.87948 -0.866398 0
M  V30 50216 C 4717.19 -2.97767 -0.964577 0
M  V30 50217 C 4717.67 -4.42457 -1.18305 0
M  V30 50218 N 4719.16 -4.46012 -1.25009 0
M  V30 50219 C 4719.89 -5.55107 -1.43678 0
M  V30 50220 N 4719.39 -6.74196 -1.59474 0
M  V30 50221 N 4721.18 -5.42732 -1.46281 0
M  V30 50222 H 4713.33 -2.06916 0.479527 0
M  V30 50223 H 4715.6 -0.935629 0.152652 0
M  V30 50224 H 4715.3 -3.51691 -0.0255701 0
M  V30 50225 H 4715.18 -3.33299 -1.76611 0
M  V30 50226 H 4717.56 -2.3416 -1.79592 0
M  V30 50227 H 4717.65 -2.55766 -0.0416181 0
M  V30 50228 H 4717.29 -5.06647 -0.35661 0
M  V30 50229 H 4717.22 -4.82055 -2.11968 0
M  V30 50230 H 4719.71 -3.602 -1.14299 0
M  V30 50231 H 4720.02 -7.53101 -1.73374 0
M  V30 50232 H 4718.37 -6.77128 -1.56597 0
M  V30 50233 H 4721.56 -4.48651 -1.33527 0
M  V30 50234 H 4721.73 -6.27812 -1.60488 0
M  V30 50235 N 4715.14 0.598031 -1.45813 0
M  V30 50236 C 4716.05 1.73627 -1.57769 0
M  V30 50237 C 4717.06 1.67762 -0.461735 0
M  V30 50238 O 4718.24 1.87946 -0.723751 0
M  V30 50239 C 4715.31 3.10108 -1.55029 0
M  V30 50240 C 4714.37 3.27354 -2.77737 0
M  V30 50241 C 4713.6 4.57324 -2.75118 0
M  V30 50242 O 4713.82 5.40251 -1.82989 0
M  V30 50243 O 4712.76 4.77489 -3.66453 0
M  V30 50244 H 4716.58 1.66489 -2.53998 0
M  V30 50245 H 4714.17 0.763262 -1.28432 0
M  V30 50246 H 4716.05 3.91405 -1.56142 0
M  V30 50247 H 4714.72 3.17716 -0.619542 0
M  V30 50248 H 4713.63 2.45609 -2.82182 0
M  V30 50249 H 4714.96 3.24628 -3.69969 0
M  V30 50250 N 4716.62 1.33262 0.841362 0
M  V30 50251 C 4718.03 1.12542 1.13165 0
M  V30 50252 C 4718.23 -0.0853329 2.01319 0
M  V30 50253 O 4717.29 -0.766332 2.4059 0
M  V30 50254 C 4718.6 2.41162 1.79615 0
M  V30 50255 C 4720.15 2.47045 1.92192 0
M  V30 50256 C 4720.63 3.7562 2.62057 0
M  V30 50257 N 4722.12 3.76677 2.69572 0
M  V30 50258 C 4722.85 4.72872 3.24314 0
M  V30 50259 N 4722.35 5.79441 3.79762 0
M  V30 50260 N 4724.14 4.60351 3.22542 0
M  V30 50261 H 4716.29 2.10869 0.254602 0
M  V30 50262 H 4718.55 0.931621 0.17546 0
M  V30 50263 H 4718.26 3.29751 1.223 0
M  V30 50264 H 4718.13 2.53124 2.79657 0
M  V30 50265 H 4720.52 1.58907 2.48662 0
M  V30 50266 H 4720.6 2.39026 0.911064 0
M  V30 50267 H 4720.25 4.64139 2.06247 0
M  V30 50268 H 4720.18 3.80915 3.63609 0
M  V30 50269 H 4722.67 2.99656 2.30249 0
M  V30 50270 H 4722.98 6.48882 4.19729 0
M  V30 50271 H 4721.33 5.83179 3.78057 0
M  V30 50272 H 4724.52 3.76254 2.78479 0
M  V30 50273 H 4724.69 5.35491 3.64902 0
M  V30 50274 N 4718.1 -1.0593 1.1669 0
M  V30 50275 C 4719.06 -2.11666 0.879218 0
M  V30 50276 C 4720.06 -1.60295 -0.127389 0
M  V30 50277 O 4721.25 -1.7389 0.103927 0
M  V30 50278 C 4718.38 -3.39436 0.315544 0
M  V30 50279 H 4719.57 -2.38619 1.81661 0
M  V30 50280 H 4717.13 -1.22054 0.976342 0
M  V30 50281 H 4717.86 -3.18135 -0.629356 0
M  V30 50282 H 4717.65 -3.78031 1.04092 0
M  V30 50283 H 4719.14 -4.1739 0.132335 0
M  V30 50284 N 4719.57 -0.965962 -1.24527 0
M  V30 50285 C 4720.54 -0.499626 -2.23688 0
M  V30 50286 C 4721.54 0.402885 -1.55671 0
M  V30 50287 O 4722.73 0.198589 -1.73064 0
M  V30 50288 C 4719.86 0.276673 -3.39775 0
M  V30 50289 H 4721.05 -1.37623 -2.66458 0
M  V30 50290 H 4718.6 -0.750372 -1.3711 0
M  V30 50291 H 4719.34 1.17045 -3.02442 0
M  V30 50292 H 4719.12 -0.370964 -3.90341 0
M  V30 50293 H 4720.61 0.59203 -4.13382 0
M  V30 50294 N 4721.05 1.39365 -0.73587 0
M  V30 50295 C 4721.98 2.33233 -0.111588 0
M  V30 50296 C 4722.96 1.53957 0.72328 0
M  V30 50297 O 4724.15 1.82347 0.668083 0
M  V30 50298 C 4721.28 3.3806 0.795798 0
M  V30 50299 C 4720.23 4.27951 0.0650215 0
M  V30 50300 C 4719.56 5.23483 1.08948 0
M  V30 50301 C 4720.86 5.10737 -1.09291 0
M  V30 50302 H 4722.55 2.85689 -0.895671 0
M  V30 50303 H 4720.1 1.37362 -0.432158 0
M  V30 50304 H 4722.05 4.02679 1.24207 0
M  V30 50305 H 4720.77 2.84046 1.61201 0
M  V30 50306 H 4719.43 3.64812 -0.361639 0
M  V30 50307 H 4719.08 4.65764 1.89928 0
M  V30 50308 H 4718.78 5.84474 0.605284 0
M  V30 50309 H 4720.31 5.90979 1.53544 0
M  V30 50310 H 4721.72 5.68697 -0.72504 0
M  V30 50311 H 4720.12 5.80875 -1.5068 0
M  V30 50312 H 4721.19 4.45518 -1.9142 0
M  V30 50313 N 4722.53 0.483569 1.49998 0
M  V30 50314 C 4723.75 -0.066639 2.07293 0
M  V30 50315 C 4724.18 -1.31635 1.34365 0
M  V30 50316 O 4723.54 -1.76944 0.395049 0
M  V30 50317 C 4723.59 -0.321 3.59168 0
M  V30 50318 O 4722.69 -1.39913 3.87941 0
M  V30 50319 H 4722.03 0.0184992 0.663742 0
M  V30 50320 H 4724.56 0.678193 1.93033 0
M  V30 50321 H 4724.57 -0.557764 4.0417 0
M  V30 50322 H 4723.25 0.592151 4.11663 0
M  V30 50323 H 4721.82 -1.1487 3.54767 0
M  V30 50324 N 4724.01 -1.56103 0.216674 0
M  V30 50325 C 4724.94 -2.23066 -0.690218 0
M  V30 50326 C 4725.92 -1.20076 -1.20481 0
M  V30 50327 O 4727.1 -1.48647 -1.2497 0
M  V30 50328 C 4724.23 -2.90678 -1.90061 0
M  V30 50329 C 4723.19 -4.00098 -1.52006 0
M  V30 50330 C 4722.51 -4.54982 -2.80883 0
M  V30 50331 C 4723.81 -5.174 -0.713728 0
M  V30 50332 H 4725.51 -2.99109 -0.131932 0
M  V30 50333 H 4723.05 -1.43866 -0.0620158 0
M  V30 50334 H 4725.01 -3.36213 -2.54045 0
M  V30 50335 H 4723.73 -2.12074 -2.48379 0
M  V30 50336 H 4722.39 -3.55287 -0.903714 0
M  V30 50337 H 4722.04 -3.73114 -3.37335 0
M  V30 50338 H 4721.74 -5.28826 -2.56157 0
M  V30 50339 H 4723.26 -5.03232 -3.45818 0
M  V30 50340 H 4724.68 -5.59347 -1.25715 0
M  V30 50341 H 4723.07 -5.97446 -0.563741 0
M  V30 50342 H 4724.14 -4.84087 0.280698 0
M  V30 50343 N 4725.49 0.0567608 -1.57498 0
M  V30 50344 C 4726.9 0.606796 -1.76564 0
M  V30 50345 C 4727.25 1.77111 -0.844156 0
M  V30 50346 O 4726.37 2.16376 -0.0319671 0
M  V30 50347 C 4726.97 1.10754 -3.20186 0
M  V30 50348 C 4725.53 1.60332 -3.40545 0
M  V30 50349 C 4724.67 0.529215 -2.72203 0
M  V30 50350 H 4727.62 -0.169448 -1.57793 0
M  V30 50351 H 4727.65 1.97591 -3.25174 0
M  V30 50352 H 4727.16 0.259924 -3.87229 0
M  V30 50353 H 4725.26 2.4737 -2.78638 0
M  V30 50354 H 4725.37 1.6699 -4.49056 0
M  V30 50355 H 4723.74 0.97781 -2.35183 0
M  V30 50356 H 4724.52 -0.308473 -3.41911 0
M  V30 50357 N 4726.96 1.54139 0.328482 0
M  V30 50358 C 4728.19 1.76066 1.08667 0
M  V30 50359 C 4728.61 0.506916 1.81868 0
M  V30 50360 O 4727.96 -0.522162 1.74871 0
M  V30 50361 C 4728.01 2.95062 2.08856 0
M  V30 50362 O 4727.74 4.15588 1.38629 0
M  V30 50363 C 4729.24 3.2916 2.96931 0
M  V30 50364 H 4726.46 0.587901 0.32344 0
M  V30 50365 H 4729 2.01012 0.376105 0
M  V30 50366 H 4727.16 2.72403 2.75454 0
M  V30 50367 H 4727.57 4.82488 2.05682 0
M  V30 50368 H 4729.04 4.15736 3.63136 0
M  V30 50369 H 4729.52 2.46113 3.63765 0
M  V30 50370 H 4730.13 3.53879 2.35901 0
M  V30 50371 N 4728.44 -0.59029 1.46128 0
M  V30 50372 C 4729.39 -1.72099 1.56476 0
M  V30 50373 C 4730.38 -1.63755 0.43367 0
M  V30 50374 O 4731.59 -1.6934 0.610254 0
M  V30 50375 H 4727.96 -0.568871 0.491822 0
M  V30 50376 H 4729.94 -1.60501 2.51559 0
M  V30 50377 C 4728.68 -3.10487 1.56502 0
M  V30 50378 H 4728.01 -3.17575 2.42871 0
M  V30 50379 H 4729.45 -3.89384 1.67798 0
M  V30 50380 C 4727.91 -3.35629 0.292349 0
M  V30 50381 O 4728.44 -3.96877 -0.6206 0
M  V30 50382 N 4726.64 -2.90026 0.182625 0
M  V30 50383 H 4726.19 -2.40364 0.926441 0
M  V30 50384 H 4726.15 -3.07221 -0.668044 0
M  V30 50385 N 4729.92 -1.33707 -0.834283 0
M  V30 50386 C 4731.17 -1.25609 -1.59218 0
M  V30 50387 C 4731.5 0.176591 -1.93395 0
M  V30 50388 O 4730.77 1.1191 -1.5908 0
M  V30 50389 C 4731.06 -2.13586 -2.89919 0
M  V30 50390 C 4730.91 -3.65335 -2.62394 0
M  V30 50391 C 4732.23 -2.01252 -3.91389 0
M  V30 50392 H 4729.35 -0.457633 -0.577703 0
M  V30 50393 H 4731.99 -1.63851 -0.961914 0
M  V30 50394 H 4730.14 -1.81102 -3.43707 0
M  V30 50395 H 4731.81 -4.08132 -2.15003 0
M  V30 50396 H 4730.05 -3.86987 -1.96019 0
M  V30 50397 H 4730.73 -4.22245 -3.55547 0
M  V30 50398 H 4733.2 -2.2975 -3.46921 0
M  V30 50399 H 4732.08 -2.65053 -4.80664 0
M  V30 50400 H 4732.34 -0.986102 -4.30962 0
M  V30 50401 N 4731.4 1.0531 -1.1725 0
M  V30 50402 C 4732.31 2.16535 -0.902756 0
M  V30 50403 C 4733.32 1.73524 0.128646 0
M  V30 50404 O 4734.5 2.01337 -0.0503409 0
M  V30 50405 C 4731.57 3.44165 -0.418477 0
M  V30 50406 C 4730.63 4.01629 -1.51632 0
M  V30 50407 C 4729.86 5.23168 -1.05506 0
M  V30 50408 O 4730.08 5.70327 0.091271 0
M  V30 50409 O 4729.02 5.72842 -1.8476 0
M  V30 50410 H 4732.84 2.42138 -1.83311 0
M  V30 50411 H 4730.43 1.15034 -0.953287 0
M  V30 50412 H 4732.31 4.21112 -0.155874 0
M  V30 50413 H 4730.98 3.20065 0.483737 0
M  V30 50414 H 4729.89 3.26128 -1.83279 0
M  V30 50415 H 4731.22 4.30045 -2.3942 0
M  V30 50416 N 4732.88 0.972553 1.24013 0
M  V30 50417 C 4734.15 0.553799 1.87596 0
M  V30 50418 C 4734.53 -0.969092 1.87542 0
M  V30 50419 O 4733.88 -1.8425 1.35145 0
M  V30 50420 C 4734.09 1.15088 3.29478 0
M  V30 50421 C 4735.44 1.23876 4.06128 0
M  V30 50422 O 4736.46 1.10375 3.38668 0
M  V30 50423 O 4735.32 1.45271 5.26838 0
M  V30 50424 H 4732.42 0.185359 0.80596 0
M  V30 50425 H 4734.96 1.06713 1.31948 0
M  V30 50426 H 4733.73 2.19345 3.24043 0
M  V30 50427 H 4733.36 0.621884 3.92706 0
M  V30 50428 N 4734.35 -1.38973 0.74325 0
M  V30 50429 C 4735.6 -2.00639 0.295259 0
M  V30 50430 C 4735.93 -1.58854 -1.1171 0
M  V30 50431 O 4735.21 -0.821243 -1.76312 0
M  V30 50432 C 4735.49 -3.57799 0.406444 0
M  V30 50433 C 4735.34 -4.09579 1.85917 0
M  V30 50434 C 4736.66 -4.39616 -0.206284 0
M  V30 50435 H 4733.78 -0.728931 0.108759 0
M  V30 50436 H 4736.42 -1.65064 0.940955 0
M  V30 50437 H 4734.57 -3.88236 -0.143282 0
M  V30 50438 H 4736.25 -3.89828 2.46641 0
M  V30 50439 H 4734.49 -3.62831 2.37773 0
M  V30 50440 H 4735.16 -5.18702 1.88818 0
M  V30 50441 H 4737.64 -4.15272 0.262429 0
M  V30 50442 H 4736.51 -5.48812 -0.0981889 0
M  V30 50443 H 4736.77 -4.22759 -1.29335 0
M  V30 50444 N 4735.83 -0.491517 -1.49739 0
M  V30 50445 C 4737.07 0.0548399 -2.04326 0
M  V30 50446 C 4737.44 1.35143 -1.36383 0
M  V30 50447 O 4738.64 1.98144 -1.81638 0
M  V30 50448 C 4736.91 0.213715 -3.5676 0
M  V30 50449 S 4738.47 0.715687 -4.32924 0
M  V30 50450 H 4735.29 0.00628014 -0.710972 0
M  V30 50451 H 4737.89 -0.663321 -1.83903 0
M  V30 50452 H 4736.59 -0.735412 -4.03757 0
M  V30 50453 H 4736.12 0.957395 -3.81572 0
M  V30 50454 H 4738.14 1.98624 -4.54712 0
M  V30 50455 N 4737.31 1.55986 -0.224949 0
M  V30 50456 C 4738.72 1.84554 0.28228 0
M  V30 50457 C 4739.07 1.1464 1.59223 0
M  V30 50458 O 4738.2 0.417229 2.1234 0
M  V30 50459 C 4738.79 3.34802 0.518944 0
M  V30 50460 C 4737.35 3.63674 0.970476 0
M  V30 50461 C 4736.5 2.77277 0.0354286 0
M  V30 50462 H 4739.45 1.52244 -0.44806 0
M  V30 50463 H 4739.47 3.55192 1.3645 0
M  V30 50464 H 4738.98 3.85659 -0.434625 0
M  V30 50465 H 4737.08 3.18277 1.93728 0
M  V30 50466 H 4737.2 4.71634 0.842533 0
M  V30 50467 H 4735.56 2.48848 0.54284 0
M  V30 50468 H 4736.34 3.30934 -0.913119 0
M  V30 50469 N 4738.79 -0.0484076 1.57526 0
M  V30 50470 C 4739.74 -1.07352 2.06345 0
M  V30 50471 C 4740.73 -1.38647 0.973318 0
M  V30 50472 O 4741.94 -1.37779 1.15832 0
M  V30 50473 H 4738.31 -0.363639 0.658233 0
M  V30 50474 H 4740.28 -0.635813 2.91548 0
M  V30 50475 C 4739.03 -2.37189 2.54237 0
M  V30 50476 H 4738.35 -2.13965 3.37726 0
M  V30 50477 H 4739.79 -3.07308 2.92126 0
M  V30 50478 C 4738.25 -3.048 1.43522 0
M  V30 50479 O 4738.78 -3.93846 0.790479 0
M  V30 50480 N 4736.99 -2.65807 1.17453 0
M  V30 50481 H 4736.54 -1.93482 1.70066 0
M  V30 50482 H 4736.49 -3.11364 0.435847 0
M  V30 50483 N 4740.27 -1.54311 -0.320303 0
M  V30 50484 C 4741.52 -1.71884 -1.0554 0
M  V30 50485 C 4741.83 -0.501209 -1.89069 0
M  V30 50486 O 4743.03 -0.558352 -2.65697 0
M  V30 50487 C 4741.49 -3.04032 -1.92594 0
M  V30 50488 C 4741.1 -4.33211 -1.1416 0
M  V30 50489 C 4742.84 -3.30968 -2.6582 0
M  V30 50490 C 4740.75 -5.56419 -2.00379 0
M  V30 50491 H 4739.68 -0.640561 -0.397741 0
M  V30 50492 H 4742.33 -1.80803 -0.313459 0
M  V30 50493 H 4740.71 -2.89029 -2.707 0
M  V30 50494 H 4741.89 -4.5899 -0.408028 0
M  V30 50495 H 4740.2 -4.13064 -0.52602 0
M  V30 50496 H 4742.8 -4.20215 -3.30641 0
M  V30 50497 H 4743.14 -2.4899 -3.33631 0
M  V30 50498 H 4743.67 -3.46854 -1.94774 0
M  V30 50499 H 4740.41 -6.41008 -1.37071 0
M  V30 50500 H 4739.93 -5.34854 -2.71461 0
M  V30 50501 H 4741.61 -5.92947 -2.58887 0
M  V30 50502 N 4741.74 0.582532 -1.46439 0
M  V30 50503 C 4743.16 1.16465 -1.4592 0
M  V30 50504 C 4743.51 1.95176 -0.200145 0
M  V30 50505 O 4742.63 2.04877 0.696747 0
M  V30 50506 C 4743.23 2.11876 -2.64375 0
M  V30 50507 C 4741.79 2.65411 -2.66897 0
M  V30 50508 C 4740.93 1.41285 -2.38608 0
M  V30 50509 H 4743.88 0.37046 -1.54316 0
M  V30 50510 H 4743.9 2.95342 -2.39903 0
M  V30 50511 H 4743.42 1.54561 -3.55995 0
M  V30 50512 H 4741.52 3.26596 -1.79349 0
M  V30 50513 H 4741.63 3.08134 -3.66865 0
M  V30 50514 H 4739.99 1.71102 -1.88669 0
M  V30 50515 H 4740.78 0.858009 -3.32405 0
M  V30 50516 N 4743.22 1.34147 0.82718 0
M  V30 50517 C 4744.45 1.29481 1.62016 0
M  V30 50518 C 4744.87 -0.129226 1.87656 0
M  V30 50519 O 4744.23 -1.08962 1.44903 0
M  V30 50520 C 4744.28 2.08712 2.94061 0
M  V30 50521 O 4743.38 1.45372 3.85928 0
M  V30 50522 H 4742.72 0.444898 0.492912 0
M  V30 50523 H 4745.25 1.76886 1.02823 0
M  V30 50524 H 4745.26 2.1991 3.43662 0
M  V30 50525 H 4743.94 3.1225 2.74723 0
M  V30 50526 H 4742.52 1.42891 3.44437 0
M  V30 50527 N 4744.7 -1.04686 1.17807 0
M  V30 50528 C 4745.63 -2.1449 0.922826 0
M  V30 50529 C 4746.61 -1.69546 -0.137119 0
M  V30 50530 O 4747.8 -1.94195 0.0141791 0
M  V30 50531 C 4744.93 -3.4449 0.440924 0
M  V30 50532 C 4743.88 -4.03026 1.44064 0
M  V30 50533 C 4743.21 -5.28429 0.816495 0
M  V30 50534 C 4744.51 -4.39922 2.81543 0
M  V30 50535 H 4746.2 -2.36101 1.84111 0
M  V30 50536 H 4743.75 -1.13467 0.886639 0
M  V30 50537 H 4745.7 -4.20659 0.249749 0
M  V30 50538 H 4744.42 -3.22547 -0.512912 0
M  V30 50539 H 4743.08 -3.28931 1.61864 0
M  V30 50540 H 4742.73 -5.02793 -0.144334 0
M  V30 50541 H 4742.43 -5.68554 1.48391 0
M  V30 50542 H 4743.95 -6.07282 0.63571 0
M  V30 50543 H 4745.37 -5.07104 2.6743 0
M  V30 50544 H 4743.77 -4.91078 3.44909 0
M  V30 50545 H 4744.84 -3.50033 3.35567 0
M  V30 50546 N 4746.18 -0.979116 -1.23495 0
M  V30 50547 C 4747.09 -0.526512 -2.28615 0
M  V30 50548 C 4748.11 0.418067 -1.68903 0
M  V30 50549 O 4749.28 0.288302 -1.99326 0
M  V30 50550 C 4746.35 0.165113 -3.46307 0
M  V30 50551 C 4745.41 -0.820708 -4.21382 0
M  V30 50552 C 4744.64 -0.161994 -5.33454 0
M  V30 50553 O 4744.86 1.04723 -5.60704 0
M  V30 50554 O 4743.8 -0.859917 -5.95726 0
M  V30 50555 H 4747.62 -1.40069 -2.6947 0
M  V30 50556 H 4745.21 -0.746688 -1.29402 0
M  V30 50557 H 4747.09 0.55314 -4.17754 0
M  V30 50558 H 4745.77 1.01408 -3.07405 0
M  V30 50559 H 4744.67 -1.25941 -3.52264 0
M  V30 50560 H 4746.01 -1.63844 -4.64129 0
M  V30 50561 N 4747.66 1.38577 -0.75061 0
M  V30 50562 C 4748.6 2.30483 -0.120916 0
M  V30 50563 C 4749.57 1.50025 0.71287 0
M  V30 50564 O 4750.76 1.78664 0.669614 0
M  V30 50565 C 4747.9 3.36433 0.768547 0
M  V30 50566 C 4747.01 4.31927 -0.079544 0
M  V30 50567 C 4746.15 5.24947 0.812645 0
M  V30 50568 C 4745.19 6.12087 -0.0392598 0
M  V30 50569 N 4744.32 6.97415 0.809723 0
M  V30 50570 H 4749.16 2.83758 -0.91025 0
M  V30 50571 H 4746.7 1.39706 -0.460512 0
M  V30 50572 H 4748.66 3.96467 1.29884 0
M  V30 50573 H 4747.29 2.84576 1.5237 0
M  V30 50574 H 4746.34 3.7338 -0.727435 0
M  V30 50575 H 4747.65 4.93317 -0.737574 0
M  V30 50576 H 4746.81 5.90083 1.41022 0
M  V30 50577 H 4745.55 4.63917 1.50442 0
M  V30 50578 H 4744.55 5.4595 -0.64952 0
M  V30 50579 H 4745.78 6.75186 -0.728047 0
M  V30 50580 H 4743.72 6.38936 1.4865 0
M  V30 50581 H 4743.64 7.55712 0.208524 0
M  V30 50582 H 4744.91 7.66964 1.39236 0
M  V30 50583 N 4749.14 0.499451 1.49477 0
M  V30 50584 C 4750.07 -0.269162 2.31943 0
M  V30 50585 C 4751.05 -0.964005 1.40146 0
M  V30 50586 O 4752.23 -0.955708 1.69056 0
M  V30 50587 C 4749.36 -1.33493 3.2062 0
M  V30 50588 C 4748.32 -0.760054 4.21197 0
M  V30 50589 C 4747.64 -1.92623 4.98799 0
M  V30 50590 C 4748.94 0.247844 5.21712 0
M  V30 50591 H 4750.64 0.419186 2.96451 0
M  V30 50592 H 4748.18 0.203038 1.42561 0
M  V30 50593 H 4750.13 -1.88034 3.77122 0
M  V30 50594 H 4748.86 -2.05244 2.54052 0
M  V30 50595 H 4747.52 -0.236402 3.65837 0
M  V30 50596 H 4747.17 -2.63139 4.28681 0
M  V30 50597 H 4746.87 -1.54765 5.66852 0
M  V30 50598 H 4748.39 -2.476 5.58145 0
M  V30 50599 H 4749.8 -0.209378 5.72918 0
M  V30 50600 H 4748.2 0.542172 5.97646 0
M  V30 50601 H 4749.27 1.16425 4.70716 0
M  V30 50602 N 4750.61 -1.55865 0.233218 0
M  V30 50603 C 4751.55 -2.16796 -0.712365 0
M  V30 50604 C 4752.52 -1.11585 -1.18269 0
M  V30 50605 O 4753.71 -1.39902 -1.26332 0
M  V30 50606 C 4750.84 -2.75764 -1.96651 0
M  V30 50607 C 4749.88 -3.93908 -1.6352 0
M  V30 50608 S 4750.71 -5.30225 -0.749763 0
M  V30 50609 C 4751.87 -5.92638 -2.01322 0
M  V30 50610 H 4752.1 -2.96663 -0.194513 0
M  V30 50611 H 4749.64 -1.5439 0.0177968 0
M  V30 50612 H 4751.59 -3.10376 -2.68657 0
M  V30 50613 H 4750.26 -1.95869 -2.45549 0
M  V30 50614 H 4749.45 -4.33711 -2.56732 0
M  V30 50615 H 4749.05 -3.60503 -0.995677 0
M  V30 50616 H 4751.34 -6.09322 -2.96197 0
M  V30 50617 H 4752.29 -6.88394 -1.65891 0
M  V30 50618 H 4752.69 -5.21579 -2.15907 0
M  V30 50619 N 4752.09 0.0400529 -1.57549 0
M  V30 50620 C 4753 1.06125 -2.09224 0
M  V30 50621 C 4754.02 1.40352 -1.02845 0
M  V30 50622 O 4755.19 1.49893 -1.34514 0
M  V30 50623 C 4752.26 2.34649 -2.55227 0
M  V30 50624 C 4751.32 2.07104 -3.76041 0
M  V30 50625 C 4750.55 3.295 -4.1984 0
M  V30 50626 O 4750.78 4.39781 -3.63248 0
M  V30 50627 O 4749.71 3.15845 -5.12373 0
M  V30 50628 H 4753.54 0.65214 -2.96616 0
M  V30 50629 H 4751.12 0.256317 -1.47185 0
M  V30 50630 H 4753 3.10229 -2.85195 0
M  V30 50631 H 4751.68 2.74877 -1.70951 0
M  V30 50632 H 4750.58 1.29127 -3.51108 0
M  V30 50633 H 4751.92 1.71738 -4.61267 0
M  V30 50634 N 4753.57 1.54478 0.312115 0
M  V30 50635 C 4754.48 1.877 1.40734 0
M  V30 50636 C 4755.5 0.77003 1.56034 0
M  V30 50637 O 4756.67 1.06543 1.70911 0
M  V30 50638 C 4753.74 2.10765 2.7528 0
M  V30 50639 C 4752.8 3.34523 2.69059 0
M  V30 50640 C 4752.03 3.56479 3.97188 0
M  V30 50641 O 4752.25 2.81654 4.96011 0
M  V30 50642 O 4751.19 4.49978 3.99754 0
M  V30 50643 H 4755.01 2.80853 1.15565 0
M  V30 50644 H 4752.6 1.40528 0.507178 0
M  V30 50645 H 4754.48 2.27201 3.54905 0
M  V30 50646 H 4753.16 1.20799 3.00315 0
M  V30 50647 H 4752.06 3.23462 1.87944 0
M  V30 50648 H 4753.4 4.24584 2.48977 0
M  V30 50649 N 4755.05 -0.574758 1.46746 0
M  V30 50650 C 4756.3 -1.32892 1.51732 0
M  V30 50651 C 4756.61 -1.948 0.176761 0
M  V30 50652 O 4757.82 -2.71299 0.10448 0
M  V30 50653 C 4756.27 -2.40891 2.67394 0
M  V30 50654 C 4755.88 -1.85252 4.07904 0
M  V30 50655 C 4757.62 -3.17599 2.81657 0
M  V30 50656 C 4755.53 -2.90927 5.14894 0
M  V30 50657 H 4754.46 -0.499611 0.564716 0
M  V30 50658 H 4757.11 -0.612475 1.72977 0
M  V30 50659 H 4755.49 -3.15371 2.39494 0
M  V30 50660 H 4756.67 -1.17262 4.4563 0
M  V30 50661 H 4754.98 -1.21185 3.98376 0
M  V30 50662 H 4757.58 -3.9648 3.58758 0
M  V30 50663 H 4757.92 -3.70689 1.89461 0
M  V30 50664 H 4758.46 -2.50228 3.09242 0
M  V30 50665 H 4755.19 -2.42715 6.08909 0
M  V30 50666 H 4754.71 -3.57382 4.81704 0
M  V30 50667 H 4756.39 -3.54736 5.41083 0
M  V30 50668 N 4756.53 -1.34584 -0.820054 0
M  V30 50669 C 4757.77 -1.2729 -1.57877 0
M  V30 50670 C 4758.1 0.156069 -1.93572 0
M  V30 50671 O 4757.38 1.10216 -1.60258 0
M  V30 50672 C 4757.66 -2.16649 -2.87637 0
M  V30 50673 C 4757.52 -3.68097 -2.58504 0
M  V30 50674 C 4758.83 -2.05392 -3.89233 0
M  V30 50675 H 4755.95 -0.463735 -0.572817 0
M  V30 50676 H 4758.6 -1.64862 -0.944481 0
M  V30 50677 H 4756.75 -1.84737 -3.41767 0
M  V30 50678 H 4758.42 -4.10389 -2.10662 0
M  V30 50679 H 4756.66 -3.89044 -1.91903 0
M  V30 50680 H 4757.33 -4.25992 -3.51048 0
M  V30 50681 H 4759.81 -2.33417 -3.44465 0
M  V30 50682 H 4758.68 -2.70137 -4.77826 0
M  V30 50683 H 4758.94 -1.03176 -4.29892 0
M  V30 50684 N 4758 1.0406 -1.18361 0
M  V30 50685 C 4758.91 2.15565 -0.925672 0
M  V30 50686 C 4759.93 1.7365 0.110234 0
M  V30 50687 O 4761.11 2.01272 -0.0716926 0
M  V30 50688 C 4758.17 3.43702 -0.454957 0
M  V30 50689 C 4757.23 3.99999 -1.55884 0
M  V30 50690 C 4756.46 5.22019 -1.11049 0
M  V30 50691 O 4756.69 5.70392 0.0307751 0
M  V30 50692 O 4755.62 5.7085 -1.90825 0
M  V30 50693 H 4759.45 2.4018 -1.85869 0
M  V30 50694 H 4757.03 1.14016 -0.965434 0
M  V30 50695 H 4758.91 4.20923 -0.20053 0
M  V30 50696 H 4757.59 3.2056 0.449763 0
M  V30 50697 H 4756.5 3.24166 -1.86728 0
M  V30 50698 H 4757.83 4.27481 -2.43968 0
M  V30 50699 N 4759.48 0.985651 1.22974 0
M  V30 50700 C 4760.41 0.549729 2.26937 0
M  V30 50701 C 4761.39 -0.419745 1.6484 0
M  V30 50702 O 4762.58 -0.311963 1.91678 0
M  V30 50703 C 4759.71 -0.14353 3.47003 0
M  V30 50704 C 4758.66 0.743754 4.21488 0
M  V30 50705 C 4757.99 -0.0820147 5.34637 0
M  V30 50706 C 4759.29 2.03711 4.80936 0
M  V30 50707 H 4760.98 1.41872 2.63653 0
M  V30 50708 H 4758.53 0.683616 1.26739 0
M  V30 50709 H 4760.48 -0.459837 4.18884 0
M  V30 50710 H 4759.2 -1.04701 3.09363 0
M  V30 50711 H 4757.86 1.0436 3.51432 0
M  V30 50712 H 4757.51 -0.986185 4.93238 0
M  V30 50713 H 4757.21 0.508583 5.85395 0
M  V30 50714 H 4758.74 -0.392583 6.09337 0
M  V30 50715 H 4760.15 1.78523 5.44796 0
M  V30 50716 H 4758.55 2.57592 5.42002 0
M  V30 50717 H 4759.62 2.72056 4.01389 0
M  V30 50718 N 4760.96 -1.38177 0.757949 0
M  V30 50719 C 4761.92 -2.28764 0.141366 0
M  V30 50720 C 4762.92 -1.47391 -0.642855 0
M  V30 50721 O 4764.11 -1.67782 -0.468477 0
M  V30 50722 C 4761.25 -3.31187 -0.807953 0
M  V30 50723 H 4762.44 -2.84796 0.939733 0
M  V30 50724 H 4759.99 -1.4721 0.525242 0
M  V30 50725 H 4760.73 -2.80253 -1.63184 0
M  V30 50726 H 4760.51 -3.91315 -0.247966 0
M  V30 50727 H 4762 -3.98914 -1.23522 0
M  V30 50728 N 4762.44 -0.507371 -1.4921 0
M  V30 50729 C 4763.35 0.272054 -2.33017 0
M  V30 50730 C 4764.36 0.961155 -1.45044 0
M  V30 50731 O 4765.54 0.941128 -1.78058 0
M  V30 50732 C 4762.61 1.31884 -3.20636 0
M  V30 50733 C 4761.67 0.642499 -4.24465 0
M  V30 50734 C 4760.9 1.63941 -5.07897 0
M  V30 50735 O 4761.12 2.8699 -4.92943 0
M  V30 50736 O 4760.06 1.19123 -5.89994 0
M  V30 50737 H 4763.88 -0.414088 -3.00864 0
M  V30 50738 H 4761.47 -0.268607 -1.46966 0
M  V30 50739 H 4763.35 1.92432 -3.74897 0
M  V30 50740 H 4762.02 1.98779 -2.55477 0
M  V30 50741 H 4760.93 -0.00289403 -3.741 0
M  V30 50742 H 4762.26 0.0158803 -4.92197 0
M  V30 50743 N 4763.92 1.55739 -0.241481 0
M  V30 50744 C 4765.14 2.03661 0.39204 0
M  V30 50745 C 4765.57 1.11974 1.5114 0
M  V30 50746 O 4764.92 0.111658 1.80956 0
M  V30 50747 C 4764.97 3.49641 0.882248 0
M  V30 50748 O 4764.08 3.61087 1.99223 0
M  V30 50749 H 4763.42 0.658382 0.086189 0
M  V30 50750 H 4765.95 2.01301 -0.365952 0
M  V30 50751 H 4765.96 3.90355 1.18688 0
M  V30 50752 H 4764.63 4.15852 0.0630899 0
M  V30 50753 H 4763.21 3.32268 1.6927 0
M  V30 50754 N 4765.39 -0.0316971 1.57568 0
M  V30 50755 C 4766.64 -0.721609 1.88778 0
M  V30 50756 C 4766.96 -1.76036 0.838834 0
M  V30 50757 O 4766.23 -1.95482 -0.127866 0
M  V30 50758 H 4764.81 -0.269509 0.696688 0
M  V30 50759 H 4767.48 0.00172731 1.949 0
M  V30 50760 H 4766.57 -1.21283 2.87571 0
M  V30 50761 N 4766.87 -1.54642 -0.303919 0
M  V30 50762 C 4768.12 -1.72994 -1.03711 0
M  V30 50763 C 4768.43 -0.521234 -1.88527 0
M  V30 50764 O 4769.64 -0.586501 -2.65089 0
M  V30 50765 C 4768.1 -3.06058 -1.89358 0
M  V30 50766 C 4767.7 -4.34397 -1.09559 0
M  V30 50767 C 4769.45 -3.33769 -2.62295 0
M  V30 50768 C 4767.36 -5.58513 -1.94466 0
M  V30 50769 H 4766.29 -0.644744 -0.390924 0
M  V30 50770 H 4768.94 -1.81125 -0.294264 0
M  V30 50771 H 4767.32 -2.91884 -2.67619 0
M  V30 50772 H 4768.49 -4.59397 -0.359323 0
M  V30 50773 H 4766.81 -4.13599 -0.482179 0
M  V30 50774 H 4769.4 -4.23698 -3.26166 0
M  V30 50775 H 4769.75 -2.52515 -3.30971 0
M  V30 50776 H 4770.28 -3.489 -1.91085 0
M  V30 50777 H 4767.02 -6.42426 -1.30265 0
M  V30 50778 H 4766.54 -5.37703 -2.65773 0
M  V30 50779 H 4768.22 -5.9566 -2.52584 0
M  V30 50780 N 4768.35 0.566968 -1.47048 0
M  V30 50781 C 4769.77 0.891928 -1.32351 0
M  V30 50782 C 4769.97 1.99152 -0.306686 0
M  V30 50783 O 4769.02 2.50884 0.285232 0
M  V30 50784 C 4770.34 1.29439 -2.71415 0
M  V30 50785 C 4771.88 1.40636 -2.79625 0
M  V30 50786 C 4772.36 1.84242 -4.19308 0
M  V30 50787 N 4773.85 1.91409 -4.21802 0
M  V30 50788 C 4774.58 2.26458 -5.26787 0
M  V30 50789 N 4774.08 2.60188 -6.42086 0
M  V30 50790 N 4775.87 2.27148 -5.1416 0
M  V30 50791 H 4768.02 -0.159148 -2.11803 0
M  V30 50792 H 4770.29 -0.00853085 -0.947962 0
M  V30 50793 H 4769.99 0.560326 -3.47208 0
M  V30 50794 H 4769.87 2.25262 -3.0255 0
M  V30 50795 H 4772.25 2.13126 -2.04111 0
M  V30 50796 H 4772.34 0.43025 -2.52156 0
M  V30 50797 H 4771.98 1.12326 -4.95323 0
M  V30 50798 H 4771.91 2.82839 -4.44195 0
M  V30 50799 H 4774.4 1.67768 -3.38618 0
M  V30 50800 H 4774.71 2.8593 -7.17958 0
M  V30 50801 H 4773.06 2.5779 -6.45422 0
M  V30 50802 H 4776.25 2.00229 -4.23114 0
M  V30 50803 H 4776.42 2.54133 -5.96088 0
M  V30 50804 N 4769.83 1.35017 0.812906 0
M  V30 50805 C 4771.06 1.30846 1.59884 0
M  V30 50806 C 4771.47 -0.117509 1.88835 0
M  V30 50807 O 4770.81 -1.07802 1.48743 0
M  V30 50808 C 4770.87 2.0413 2.95924 0
M  V30 50809 C 4770.54 3.53347 2.89819 0
M  V30 50810 C 4771.53 4.48061 2.63699 0
M  V30 50811 C 4769.22 3.95904 3.09136 0
M  V30 50812 C 4771.21 5.83309 2.56961 0
M  V30 50813 C 4768.9 5.3125 3.02022 0
M  V30 50814 C 4769.9 6.24764 2.75969 0
M  V30 50815 O 4769.58 7.57627 2.68806 0
M  V30 50816 H 4769.32 0.451233 0.503354 0
M  V30 50817 H 4771.87 1.78358 1.01871 0
M  V30 50818 H 4770.1 1.51247 3.55895 0
M  V30 50819 H 4771.79 1.93119 3.57015 0
M  V30 50820 H 4772.56 4.165 2.485 0
M  V30 50821 H 4768.43 3.23507 3.28427 0
M  V30 50822 H 4771.98 6.56271 2.36546 0
M  V30 50823 H 4767.88 5.62426 3.16776 0
M  V30 50824 H 4768.64 7.67479 2.8446 0
M  V30 50825 N 4771.31 -1.03431 1.18911 0
M  V30 50826 C 4772.53 -1.80378 1.01348 0
M  V30 50827 C 4772.95 -1.83651 -0.43794 0
M  V30 50828 O 4772.31 -1.2766 -1.3042 0
M  V30 50829 C 4772.36 -3.25683 1.56884 0
M  V30 50830 O 4772.08 -3.22663 2.96345 0
M  V30 50831 C 4773.58 -4.1925 1.44029 0
M  V30 50832 H 4770.8 -0.567827 0.35751 0
M  V30 50833 H 4773.34 -1.30312 1.57604 0
M  V30 50834 H 4771.5 -3.72958 1.0479 0
M  V30 50835 H 4771.91 -4.13737 3.2237 0
M  V30 50836 H 4773.39 -5.19117 1.87675 0
M  V30 50837 H 4773.86 -4.37465 0.389969 0
M  V30 50838 H 4774.47 -3.77844 1.95227 0
M  V30 50839 N 4772.78 -0.992159 -1.2245 0
M  V30 50840 C 4773.72 -0.500102 -2.23677 0
M  V30 50841 C 4774.73 0.404407 -1.57697 0
M  V30 50842 O 4775.92 0.206659 -1.773 0
M  V30 50843 C 4773.02 0.294592 -3.37617 0
M  V30 50844 C 4772.19 -0.605875 -4.33183 0
M  V30 50845 C 4771.25 0.136985 -5.26022 0
M  V30 50846 O 4770.28 -0.477363 -5.67195 0
M  V30 50847 N 4771.48 1.4195 -5.62877 0
M  V30 50848 H 4774.24 -1.37055 -2.66526 0
M  V30 50849 H 4771.8 -0.866789 -1.36742 0
M  V30 50850 H 4773.8 0.80019 -3.9671 0
M  V30 50851 H 4772.37 1.06613 -2.93858 0
M  V30 50852 H 4771.59 -1.29215 -3.72421 0
M  V30 50853 H 4772.87 -1.21914 -4.93978 0
M  V30 50854 H 4772.27 1.93996 -5.31396 0
M  V30 50855 H 4770.83 1.8703 -6.2439 0
M  V30 50856 N 4774.26 1.37773 -0.765266 0
M  V30 50857 C 4775.2 2.28008 -0.0935826 0
M  V30 50858 C 4776.17 1.45987 0.715996 0
M  V30 50859 O 4777.36 1.75333 0.692141 0
M  V30 50860 C 4774.48 3.27231 0.873937 0
M  V30 50861 C 4773.53 4.26239 0.149157 0
M  V30 50862 S 4774.36 5.22823 -1.15827 0
M  V30 50863 C 4775.52 6.25599 -0.194126 0
M  V30 50864 H 4775.75 2.84628 -0.858737 0
M  V30 50865 H 4773.29 1.4395 -0.558364 0
M  V30 50866 H 4775.24 3.84907 1.42678 0
M  V30 50867 H 4773.9 2.69571 1.61215 0
M  V30 50868 H 4773.1 4.96216 0.882366 0
M  V30 50869 H 4772.7 3.72519 -0.332497 0
M  V30 50870 H 4774.99 6.7451 0.635774 0
M  V30 50871 H 4775.93 7.02835 -0.861885 0
M  V30 50872 H 4776.34 5.64174 0.191777 0
M  V30 50873 N 4775.74 0.515277 1.48938 0
M  V30 50874 C 4777.15 0.0710723 1.86565 0
M  V30 50875 C 4777.5 -1.34728 1.42628 0
M  V30 50876 O 4776.63 -2.00651 0.81045 0
M  V30 50877 C 4777.22 0.122202 3.3858 0
M  V30 50878 C 4775.78 -0.266731 3.75454 0
M  V30 50879 C 4774.93 0.488472 2.72964 0
M  V30 50880 H 4777.88 0.727315 1.41053 0
M  V30 50881 H 4777.9 -0.669686 3.7456 0
M  V30 50882 H 4777.41 1.15461 3.70527 0
M  V30 50883 H 4775.51 -1.30184 3.49117 0
M  V30 50884 H 4775.63 0.0626495 4.79059 0
M  V30 50885 H 4773.99 -0.0634726 2.54621 0
M  V30 50886 H 4774.77 1.52123 3.07755 0
M  V30 50887 N 4777.22 -1.55609 0.249737 0
M  V30 50888 C 4778.17 -2.1816 -0.662596 0
M  V30 50889 C 4779.15 -1.13834 -1.13713 0
M  V30 50890 O 4780.35 -1.39735 -1.08643 0
M  V30 50891 C 4777.47 -2.88678 -1.85795 0
M  V30 50892 C 4776.56 -4.00263 -1.40178 0
M  V30 50893 N 4776.95 -5.01475 -0.660037 0
M  V30 50894 C 4775.25 -4.1287 -1.68684 0
M  V30 50895 C 4775.95 -5.80156 -0.423491 0
M  V30 50896 N 4774.93 -5.34536 -0.988533 0
M  V30 50897 H 4778.73 -2.93769 -0.0877655 0
M  V30 50898 H 4776.24 -1.62316 0.0521753 0
M  V30 50899 H 4778.24 -3.31921 -2.52258 0
M  V30 50900 H 4776.9 -2.14573 -2.43698 0
M  V30 50901 H 4777.91 -5.16972 -0.309865 0
M  V30 50902 H 4774.59 -3.49938 -2.27705 0
M  V30 50903 H 4775.98 -6.71688 0.168852 0
M  V30 50904 N 4778.7 0.0233405 -1.57583 0
M  V30 50905 C 4779.94 0.714052 -1.89813 0
M  V30 50906 C 4780.28 1.74699 -0.848174 0
M  V30 50907 O 4779.55 1.94023 0.136066 0
M  V30 50908 C 4779.83 1.37841 -3.32674 0
M  V30 50909 C 4779.69 0.358607 -4.48368 0
M  V30 50910 C 4781.01 2.31088 -3.74548 0
M  V30 50911 H 4778.13 0.258115 -0.690323 0
M  V30 50912 H 4780.77 -0.0231595 -1.89986 0
M  V30 50913 H 4778.92 2.00678 -3.32657 0
M  V30 50914 H 4780.59 -0.268277 -4.60519 0
M  V30 50915 H 4778.83 -0.321539 -4.32607 0
M  V30 50916 H 4779.5 0.862051 -5.45227 0
M  V30 50917 H 4781.98 1.78291 -3.75968 0
M  V30 50918 H 4780.86 2.74551 -4.75303 0
M  V30 50919 H 4781.12 3.18008 -3.07121 0
M  V30 50920 N 4780.18 1.54801 0.295713 0
M  V30 50921 C 4781.11 1.81008 1.38966 0
M  V30 50922 C 4782.09 0.661596 1.48532 0
M  V30 50923 O 4783.27 0.902132 1.65511 0
M  V30 50924 C 4780.4 1.95151 2.76828 0
M  V30 50925 C 4779.44 3.17602 2.8466 0
M  V30 50926 S 4780.28 4.7554 2.46215 0
M  V30 50927 C 4781.43 4.92626 3.86096 0
M  V30 50928 H 4781.67 2.73512 1.16528 0
M  V30 50929 H 4779.2 1.4628 0.494116 0
M  V30 50930 H 4781.16 2.03984 3.56231 0
M  V30 50931 H 4779.82 1.03575 2.96531 0
M  V30 50932 H 4779.01 3.24316 3.85791 0
M  V30 50933 H 4778.61 3.07242 2.13256 0
M  V30 50934 H 4780.9 4.76974 4.81147 0
M  V30 50935 H 4781.85 5.94711 3.84349 0
M  V30 50936 H 4782.26 4.20743 3.76344 0
M  V30 50937 N 4781.65 -0.559161 1.47347 0
M  V30 50938 C 4782.56 -1.69383 1.62317 0
M  V30 50939 C 4783.58 -1.66479 0.506051 0
M  V30 50940 O 4784.76 -1.85961 0.773328 0
M  V30 50941 C 4781.82 -3.05889 1.63196 0
M  V30 50942 C 4780.88 -3.19875 2.86319 0
M  V30 50943 C 4780.11 -4.49869 2.87147 0
M  V30 50944 O 4780.34 -5.3521 1.97248 0
M  V30 50945 O 4779.27 -4.67605 3.78984 0
M  V30 50946 H 4783.1 -1.59696 2.58323 0
M  V30 50947 H 4780.68 -0.728943 1.3041 0
M  V30 50948 H 4782.56 -3.87127 1.66465 0
M  V30 50949 H 4781.24 -3.15962 0.703561 0
M  V30 50950 H 4780.15 -2.38041 2.88595 0
M  V30 50951 H 4781.48 -3.14705 3.78446 0
M  V30 50952 N 4783.13 -1.35446 -0.805734 0
M  V30 50953 C 4784.38 -1.28958 -1.56518 0
M  V30 50954 C 4784.71 0.135529 -1.93727 0
M  V30 50955 O 4783.99 1.0851 -1.61418 0
M  V30 50956 C 4784.27 -2.19688 -2.85323 0
M  V30 50957 C 4784.12 -3.70819 -2.54585 0
M  V30 50958 C 4785.44 -2.09509 -3.87033 0
M  V30 50959 H 4782.56 -0.469784 -0.567866 0
M  V30 50960 H 4785.2 -1.65855 -0.926942 0
M  V30 50961 H 4783.35 -1.88352 -3.39788 0
M  V30 50962 H 4785.02 -4.12601 -2.06297 0
M  V30 50963 H 4783.27 -3.91058 -1.87766 0
M  V30 50964 H 4783.94 -4.29691 -3.4651 0
M  V30 50965 H 4786.41 -2.37057 -3.4197 0
M  V30 50966 H 4785.29 -2.75189 -4.74934 0
M  V30 50967 H 4785.55 -1.07729 -4.28774 0
M  V30 50968 N 4784.61 1.02799 -1.19458 0
M  V30 50969 C 4785.86 1.75616 -0.992058 0
M  V30 50970 C 4786.17 1.89674 0.477834 0
M  V30 50971 O 4787.38 2.59471 0.799195 0
M  V30 50972 C 4785.83 3.15806 -1.72612 0
M  V30 50973 C 4785.44 3.09799 -3.23618 0
M  V30 50974 C 4787.19 3.92912 -1.60687 0
M  V30 50975 C 4785.09 4.44925 -3.89609 0
M  V30 50976 H 4784.02 0.65834 -0.367566 0
M  V30 50977 H 4786.67 1.15039 -1.42963 0
M  V30 50978 H 4785.06 3.76856 -1.21637 0
M  V30 50979 H 4786.23 2.58124 -3.81718 0
M  V30 50980 H 4784.54 2.46189 -3.35827 0
M  V30 50981 H 4787.14 4.92863 -2.07341 0
M  V30 50982 H 4787.48 4.125 -0.56117 0
M  V30 50983 H 4788.02 3.38465 -2.09013 0
M  V30 50984 H 4784.76 4.30541 -4.94282 0
M  V30 50985 H 4784.28 4.96652 -3.36298 0
M  V30 50986 H 4785.96 5.13806 -3.93208 0
M  V30 50987 N 4786.09 0.998639 1.21922 0
M  V30 50988 C 4787.02 0.573768 2.26341 0
M  V30 50989 C 4788 -0.402238 1.65276 0
M  V30 50990 O 4789.18 -0.291615 1.91998 0
M  V30 50991 C 4786.31 -0.106717 3.47136 0
M  V30 50992 C 4785.27 0.788416 4.20676 0
M  V30 50993 C 4784.59 -0.0253047 5.34694 0
M  V30 50994 C 4785.89 2.08801 4.78748 0
M  V30 50995 H 4787.59 1.4466 2.62133 0
M  V30 50996 H 4785.13 0.69702 1.26006 0
M  V30 50997 H 4787.09 -0.415383 4.19348 0
M  V30 50998 H 4785.81 -1.01414 3.10456 0
M  V30 50999 H 4784.47 1.08081 3.50306 0
M  V30 51000 H 4784.12 -0.933816 4.94256 0
M  V30 51001 H 4783.82 0.570643 5.84823 0
M  V30 51002 H 4785.34 -0.327933 6.09719 0
M  V30 51003 H 4786.76 1.84291 5.42872 0
M  V30 51004 H 4785.15 2.63326 5.39239 0
M  V30 51005 H 4786.22 2.76298 3.98481 0
M  V30 51006 N 4787.57 -1.37365 0.772562 0
M  V30 51007 C 4788.98 -1.82308 0.402557 0
M  V30 51008 C 4789.33 -1.64363 -1.07141 0
M  V30 51009 O 4788.45 -1.1552 -1.82986 0
M  V30 51010 C 4789.05 -3.30976 0.723893 0
M  V30 51011 C 4787.61 -3.74194 0.406934 0
M  V30 51012 C 4786.75 -2.59882 0.967309 0
M  V30 51013 H 4789.7 -1.25825 0.967143 0
M  V30 51014 H 4789.73 -3.80499 0.00884208 0
M  V30 51015 H 4789.24 -3.44005 1.79672 0
M  V30 51016 H 4787.34 -3.66734 -0.658544 0
M  V30 51017 H 4787.45 -4.70267 0.915754 0
M  V30 51018 H 4785.82 -2.51673 0.391504 0
M  V30 51019 H 4786.6 -2.75703 2.04555 0
M  V30 51020 N 4789.04 -0.523168 -1.48663 0
M  V30 51021 C 4789.98 0.290439 -2.26344 0
M  V30 51022 C 4790.95 0.950867 -1.31899 0
M  V30 51023 O 4792.14 0.976605 -1.61229 0
M  V30 51024 C 4789.27 1.41077 -3.0792 0
M  V30 51025 C 4788.31 0.86245 -4.17689 0
M  V30 51026 S 4789.14 -0.264323 -5.34847 0
M  V30 51027 C 4790.3 0.858646 -6.19982 0
M  V30 51028 H 4790.53 -0.368829 -2.95003 0
M  V30 51029 H 4788.07 -0.308834 -1.5128 0
M  V30 51030 H 4790.02 2.05257 -3.55499 0
M  V30 51031 H 4788.69 2.04173 -2.38688 0
M  V30 51032 H 4787.88 1.70271 -4.74367 0
M  V30 51033 H 4787.48 0.297464 -3.72815 0
M  V30 51034 H 4789.77 1.75887 -6.54271 0
M  V30 51035 H 4790.72 0.329996 -7.07331 0
M  V30 51036 H 4791.12 1.13598 -5.52952 0
M  V30 51037 N 4790.52 1.55474 -0.257986 0
M  V30 51038 C 4791.45 2.24817 0.630833 0
M  V30 51039 C 4792.43 1.23229 1.17255 0
M  V30 51040 O 4793.62 1.51909 1.20985 0
M  V30 51041 C 4790.75 2.95615 1.82288 0
M  V30 51042 C 4789.7 4.03987 1.41345 0
M  V30 51043 C 4789.03 4.62269 2.68722 0
M  V30 51044 C 4790.33 5.19111 0.576298 0
M  V30 51045 H 4792.02 2.99354 0.0525825 0
M  V30 51046 H 4789.57 1.4398 0.0238504 0
M  V30 51047 H 4791.52 3.4283 2.45041 0
M  V30 51048 H 4790.25 2.18585 2.42669 0
M  V30 51049 H 4788.9 3.57558 0.809199 0
M  V30 51050 H 4788.55 3.81927 3.27324 0
M  V30 51051 H 4788.25 5.35432 2.42046 0
M  V30 51052 H 4789.78 5.12224 3.32354 0
M  V30 51053 H 4791.19 5.62483 1.10841 0
M  V30 51054 H 4789.59 5.98731 0.40514 0
M  V30 51055 H 4790.66 4.83172 -0.408946 0
M  V30 51056 N 4792 -0.0149831 1.57593 0
M  V30 51057 C 4793.24 -0.707613 1.91761 0
M  V30 51058 C 4793.6 -1.71761 0.858034 0
M  V30 51059 O 4794.81 -2.45952 1.08449 0
M  V30 51060 C 4793.08 -1.34724 3.31035 0
M  V30 51061 S 4794.64 -2.06707 3.87063 0
M  V30 51062 H 4791.45 -0.234095 0.671357 0
M  V30 51063 H 4794.06 0.038106 1.95463 0
M  V30 51064 H 4792.76 -0.599117 4.06003 0
M  V30 51065 H 4792.29 -2.13121 3.30671 0
M  V30 51066 H 4794.31 -3.34034 3.66927 0
M  V30 51067 N 4793.48 -1.54955 -0.2875 0
M  V30 51068 C 4794.7 -1.79213 -1.04391 0
M  V30 51069 C 4795.13 -0.556494 -1.7968 0
M  V30 51070 O 4794.49 0.493457 -1.74455 0
M  V30 51071 C 4794.53 -3.00746 -1.98958 0
M  V30 51072 O 4793.64 -2.74816 -3.0749 0
M  V30 51073 H 4792.98 -0.592766 -0.299206 0
M  V30 51074 H 4795.51 -2.02069 -0.320815 0
M  V30 51075 H 4795.52 -3.29085 -2.41178 0
M  V30 51076 H 4794.19 -3.90334 -1.43568 0
M  V30 51077 H 4792.77 -2.57532 -2.69688 0
M  V30 51078 N 4794.96 0.551339 -1.47641 0
M  V30 51079 C 4796.19 1.33158 -1.57964 0
M  V30 51080 C 4796.59 1.87784 -0.231006 0
M  V30 51081 O 4795.94 1.65999 0.786766 0
M  V30 51082 C 4796 2.5344 -2.54967 0
M  V30 51083 C 4795.66 2.20057 -4.00529 0
M  V30 51084 C 4796.66 1.77 -4.88843 0
M  V30 51085 C 4794.35 2.31236 -4.45909 0
M  V30 51086 C 4796.34 1.45558 -6.20558 0
M  V30 51087 C 4794.03 1.99406 -5.77651 0
M  V30 51088 C 4795.02 1.56636 -6.64796 0
M  V30 51089 O 4794.71 1.25214 -7.94089 0
M  V30 51090 H 4794.44 0.412003 -0.535938 0
M  V30 51091 H 4797 0.674117 -1.94023 0
M  V30 51092 H 4795.23 3.22097 -2.13987 0
M  V30 51093 H 4796.92 3.15514 -2.55354 0
M  V30 51094 H 4797.68 1.67851 -4.55029 0
M  V30 51095 H 4793.56 2.63485 -3.78281 0
M  V30 51096 H 4797.11 1.12101 -6.88534 0
M  V30 51097 H 4793 2.08189 -6.11005 0
M  V30 51098 H 4793.77 1.38794 -8.06646 0
M  V30 51099 N 4796.43 1.35872 0.79854 0
M  V30 51100 C 4797.37 1.23808 1.91695 0
M  V30 51101 C 4798.35 0.1242 1.62125 0
M  V30 51102 O 4799.53 0.293722 1.86198 0
M  V30 51103 C 4796.66 0.908178 3.26297 0
M  V30 51104 C 4795.7 2.03523 3.74808 0
M  V30 51105 S 4796.54 3.65197 3.91652 0
M  V30 51106 C 4797.69 3.34301 5.29144 0
M  V30 51107 H 4797.92 2.18473 2.01635 0
M  V30 51108 H 4795.46 1.21181 0.95679 0
M  V30 51109 H 4797.42 0.724648 4.04053 0
M  V30 51110 H 4796.08 -0.020548 3.14093 0
M  V30 51111 H 4795.27 1.75874 4.72318 0
M  V30 51112 H 4794.87 2.17751 3.04073 0
M  V30 51113 H 4797.16 2.87629 6.13413 0
M  V30 51114 H 4798.11 4.31041 5.61791 0
M  V30 51115 H 4798.51 2.69872 4.95812 0
M  V30 51116 N 4797.91 -1.02164 1.20001 0
M  V30 51117 C 4799.14 -1.79829 1.03325 0
M  V30 51118 C 4799.56 -1.83505 -0.413216 0
M  V30 51119 O 4798.92 -1.2664 -1.29739 0
M  V30 51120 C 4798.97 -3.22391 1.61545 0
M  V30 51121 O 4798.07 -4.03552 0.849661 0
M  V30 51122 H 4797.41 -0.554859 0.364729 0
M  V30 51123 H 4799.94 -1.28537 1.59184 0
M  V30 51124 H 4799.95 -3.73118 1.65067 0
M  V30 51125 H 4798.63 -3.1903 2.6682 0
M  V30 51126 H 4797.21 -3.62166 0.888256 0
M  V30 51127 N 4799.39 -1.00509 -1.21391 0
M  V30 51128 C 4800.81 -0.717923 -1.42541 0
M  V30 51129 C 4801.01 0.70687 -1.88694 0
M  V30 51130 O 4800.06 1.4762 -2.04852 0
M  V30 51131 C 4801.38 -1.73386 -2.45678 0
M  V30 51132 C 4802.92 -1.75069 -2.59461 0
M  V30 51133 C 4803.4 -2.75558 -3.6583 0
M  V30 51134 N 4804.89 -2.74227 -3.73302 0
M  V30 51135 C 4805.62 -3.48642 -4.55232 0
M  V30 51136 N 4805.12 -4.32697 -5.4106 0
M  V30 51137 N 4806.91 -3.37291 -4.49657 0
M  V30 51138 H 4799.06 -1.92509 -0.897436 0
M  V30 51139 H 4801.33 -0.830935 -0.456346 0
M  V30 51140 H 4801.03 -2.75402 -2.18738 0
M  V30 51141 H 4800.91 -1.53659 -3.44483 0
M  V30 51142 H 4803.29 -0.737437 -2.85737 0
M  V30 51143 H 4803.38 -1.98867 -1.6089 0
M  V30 51144 H 4803.02 -3.77039 -3.40299 0
M  V30 51145 H 4802.95 -2.49025 -4.63998 0
M  V30 51146 H 4805.44 -2.13244 -3.11986 0
M  V30 51147 H 4805.75 -4.86274 -6.00631 0
M  V30 51148 H 4804.1 -4.36779 -5.40601 0
M  V30 51149 H 4807.29 -2.71056 -3.81636 0
M  V30 51150 H 4807.46 -3.95542 -5.13274 0
M  V30 51151 N 4800.87 1.36954 -0.779835 0
M  V30 51152 C 4802.11 2.00235 -0.357394 0
M  V30 51153 C 4802.47 1.60791 1.05661 0
M  V30 51154 O 4801.76 0.847897 1.71818 0
M  V30 51155 C 4801.96 3.54583 -0.447811 0
M  V30 51156 C 4801.79 4.09019 -1.86905 0
M  V30 51157 C 4800.56 4.39603 -2.49154 0
M  V30 51158 C 4802.75 4.29451 -2.82978 0
M  V30 51159 N 4800.74 4.79802 -3.82966 0
M  V30 51160 C 4802.11 4.72349 -4.01605 0
M  V30 51161 C 4804.16 4.11601 -2.8016 0
M  V30 51162 C 4802.86 4.99266 -5.17809 0
M  V30 51163 C 4804.89 4.39659 -3.95543 0
M  V30 51164 C 4804.25 4.82804 -5.12913 0
M  V30 51165 H 4800.35 0.761474 -0.177994 0
M  V30 51166 H 4802.94 1.66126 -1.01539 0
M  V30 51167 H 4801.11 3.87982 0.180048 0
M  V30 51168 H 4802.84 4.047 -0.00253778 0
M  V30 51169 H 4799.59 4.28968 -2.00708 0
M  V30 51170 H 4800.02 5.042 -4.51787 0
M  V30 51171 H 4804.66 3.77408 -1.90585 0
M  V30 51172 H 4802.38 5.32344 -6.07977 0
M  V30 51173 H 4805.96 4.27427 -3.94712 0
M  V30 51174 H 4804.84 5.04097 -6.00713 0
M  V30 51175 N 4802.35 0.531045 1.48384 0
M  V30 51176 C 4803.59 0.00545803 2.03399 0
M  V30 51177 C 4803.95 -1.31894 1.40078 0
M  V30 51178 O 4803.24 -1.83899 0.537741 0
M  V30 51179 C 4803.43 -0.172616 3.56983 0
M  V30 51180 C 4803.26 1.13297 4.35194 0
M  V30 51181 C 4802.03 1.69313 4.7609 0
M  V30 51182 C 4804.23 2.04384 4.71945 0
M  V30 51183 N 4802.21 2.94149 5.38841 0
M  V30 51184 C 4803.58 3.13796 5.34726 0
M  V30 51185 C 4805.64 2.04697 4.53876 0
M  V30 51186 C 4804.34 4.23588 5.81348 0
M  V30 51187 C 4806.37 3.13484 5.0148 0
M  V30 51188 C 4805.73 4.21615 5.64287 0
M  V30 51189 H 4801.83 0.0435219 0.780788 0
M  V30 51190 H 4804.41 0.712559 1.81192 0
M  V30 51191 H 4802.58 -0.848804 3.79012 0
M  V30 51192 H 4804.32 -0.697906 3.98637 0
M  V30 51193 H 4801.07 1.23438 4.57231 0
M  V30 51194 H 4801.5 3.57709 5.74781 0
M  V30 51195 H 4806.14 1.22392 4.04697 0
M  V30 51196 H 4803.86 5.06671 6.29532 0
M  V30 51197 H 4807.44 3.14782 4.89289 0
M  V30 51198 H 4806.32 5.04405 6.00454 0
M  V30 51199 N 4803.82 -1.55335 0.266227 0
M  V30 51200 C 4804.73 -2.25832 -0.635379 0
M  V30 51201 C 4805.75 -1.2811 -1.17744 0
M  V30 51202 O 4806.93 -1.61028 -1.20962 0
M  V30 51203 C 4803.99 -2.95885 -1.80701 0
M  V30 51204 C 4803.05 -4.09064 -1.3025 0
M  V30 51205 C 4802.29 -4.75767 -2.41829 0
M  V30 51206 O 4802.51 -4.41635 -3.60992 0
M  V30 51207 O 4801.44 -5.63895 -2.1049 0
M  V30 51208 H 4805.27 -3.03631 -0.0645626 0
M  V30 51209 H 4802.85 -1.49361 0.0339702 0
M  V30 51210 H 4804.74 -3.39941 -2.49035 0
M  V30 51211 H 4803.41 -2.2101 -2.36508 0
M  V30 51212 H 4802.32 -3.69484 -0.585889 0
M  V30 51213 H 4803.65 -4.85814 -0.790287 0
M  V30 51214 N 4805.3 0.0066254 -1.57599 0
M  V30 51215 C 4806.25 1.00853 -2.04481 0
M  V30 51216 C 4807.24 1.3071 -0.938277 0
M  V30 51217 O 4808.43 1.29919 -1.20208 0
M  V30 51218 C 4805.56 2.30265 -2.54624 0
M  V30 51219 C 4804.64 2.034 -3.72141 0
M  V30 51220 N 4805.04 1.46671 -4.84067 0
M  V30 51221 C 4803.33 2.33576 -3.79945 0
M  V30 51222 C 4804.03 1.36126 -5.65548 0
M  V30 51223 N 4803.01 1.84459 -5.11347 0
M  V30 51224 H 4806.81 0.5643 -2.88432 0
M  V30 51225 H 4804.33 0.212464 -1.61004 0
M  V30 51226 H 4806.32 3.02875 -2.86483 0
M  V30 51227 H 4804.98 2.75346 -1.72089 0
M  V30 51228 H 4805.99 1.1464 -5.05053 0
M  V30 51229 H 4802.67 2.81578 -3.08253 0
M  V30 51230 H 4804.06 0.925639 -6.65493 0
M  V30 51231 N 4806.78 1.55106 0.279278 0
M  V30 51232 C 4808.03 1.75069 1.00971 0
M  V30 51233 C 4808.35 0.551342 1.87043 0
M  V30 51234 O 4807.62 -0.433916 1.91034 0
M  V30 51235 H 4806.2 0.645591 0.375793 0
M  V30 51236 H 4808.86 1.92498 0.305022 0
M  V30 51237 H 4807.96 2.649 1.65028 0
M  V30 51238 N 4808.26 -0.543502 1.47932 0
M  V30 51239 C 4809.67 -1.12556 1.48957 0
M  V30 51240 C 4810.02 -1.94577 0.251823 0
M  V30 51241 O 4809.15 -2.06652 -0.642182 0
M  V30 51242 C 4809.74 -2.04792 2.69899 0
M  V30 51243 C 4808.3 -2.58242 2.7384 0
M  V30 51244 C 4807.45 -1.34909 2.4227 0
M  V30 51245 H 4810.4 -0.329415 1.55244 0
M  V30 51246 H 4810.42 -2.88878 2.47649 0
M  V30 51247 H 4809.93 -1.45068 3.59968 0
M  V30 51248 H 4808.03 -3.21726 1.87945 0
M  V30 51249 H 4808.15 -2.98299 3.74906 0
M  V30 51250 H 4806.51 -1.6604 1.9314 0
M  V30 51251 H 4807.29 -0.769576 3.34563 0
M  V30 51252 N 4809.74 -1.36293 -0.791323 0
M  V30 51253 C 4810.65 -1.32613 -1.93523 0
M  V30 51254 C 4811.66 -0.228602 -1.72492 0
M  V30 51255 O 4812.84 -0.46064 -1.96061 0
M  V30 51256 C 4809.9 -1.11283 -3.28355 0
M  V30 51257 C 4808.97 -2.30492 -3.62176 0
M  V30 51258 C 4808.2 -2.10171 -4.90575 0
M  V30 51259 O 4808.42 -1.07591 -5.60161 0
M  V30 51260 O 4807.36 -2.97902 -5.23009 0
M  V30 51261 H 4811.18 -2.28916 -1.99577 0
M  V30 51262 H 4808.77 -1.16821 -0.931303 0
M  V30 51263 H 4810.65 -1.01298 -4.09044 0
M  V30 51264 H 4809.32 -0.180406 -3.23197 0
M  V30 51265 H 4808.23 -2.46046 -2.81802 0
M  V30 51266 H 4809.56 -3.22234 -3.72056 0
M  V30 51267 N 4811.22 1.01526 -1.20541 0
M  V30 51268 C 4812.16 2.12212 -0.95231 0
M  V30 51269 C 4813.16 1.69123 0.0968141 0
M  V30 51270 O 4814.36 1.7992 -0.0536639 0
M  V30 51271 H 4810.74 0.693566 -0.290637 0
M  V30 51272 H 4812.71 2.30743 -1.89209 0
M  V30 51273 C 4811.46 3.43753 -0.522407 0
M  V30 51274 H 4810.78 3.77336 -1.32128 0
M  V30 51275 H 4812.22 4.22253 -0.384538 0
M  V30 51276 C 4810.68 3.28091 0.765374 0
M  V30 51277 O 4811.21 3.57928 1.82348 0
M  V30 51278 N 4809.42 2.81336 0.727913 0
M  V30 51279 H 4808.96 2.57254 -0.133423 0
M  V30 51280 H 4808.92 2.71238 1.58989 0
M  V30 51281 N 4812.69 1.01151 1.20856 0
M  V30 51282 C 4813.64 0.570669 2.25491 0
M  V30 51283 C 4814.64 -0.388051 1.64895 0
M  V30 51284 O 4815.84 -0.25853 1.78134 0
M  V30 51285 H 4812.22 0.166217 0.7334 0
M  V30 51286 H 4814.19 1.4642 2.60007 0
M  V30 51287 C 4812.94 -0.0804019 3.47607 0
M  V30 51288 H 4812.26 0.648295 3.94509 0
M  V30 51289 H 4813.7 -0.352048 4.22536 0
M  V30 51290 C 4812.16 -1.32164 3.09894 0
M  V30 51291 O 4812.69 -2.41542 3.20968 0
M  V30 51292 N 4810.89 -1.20383 2.64493 0
M  V30 51293 H 4810.44 -0.313815 2.55681 0
M  V30 51294 H 4810.4 -2.03532 2.39629 0
M  V30 51295 N 4814.17 -1.36538 0.787088 0
M  V30 51296 C 4815.58 -1.81871 0.421871 0
M  V30 51297 C 4815.93 -1.65491 -1.05391 0
M  V30 51298 O 4815.06 -1.17455 -1.81751 0
M  V30 51299 C 4815.65 -3.3019 0.758957 0
M  V30 51300 C 4814.21 -3.73741 0.446599 0
M  V30 51301 C 4813.36 -2.58841 0.994819 0
M  V30 51302 H 4816.31 -1.24793 0.980434 0
M  V30 51303 H 4816.33 -3.80468 0.0491986 0
M  V30 51304 H 4815.84 -3.4208 1.83311 0
M  V30 51305 H 4813.94 -3.67412 -0.61961 0
M  V30 51306 H 4814.06 -4.69269 0.96558 0
M  V30 51307 H 4812.42 -2.51244 0.418176 0
M  V30 51308 H 4813.2 -2.73518 2.07468 0
M  V30 51309 N 4815.65 -0.538906 -1.481 0
M  V30 51310 C 4816.56 0.222566 -2.33542 0
M  V30 51311 C 4817.58 0.930173 -1.4705 0
M  V30 51312 O 4818.75 0.903148 -1.80014 0
M  V30 51313 C 4815.82 1.25053 -3.23361 0
M  V30 51314 C 4814.88 0.552319 -4.25732 0
M  V30 51315 C 4814.11 1.53131 -5.1126 0
M  V30 51316 O 4814.33 2.76469 -4.9892 0
M  V30 51317 O 4813.27 1.06581 -5.92388 0
M  V30 51318 H 4817.09 -0.477812 -2.99918 0
M  V30 51319 H 4814.68 -0.29972 -1.46363 0
M  V30 51320 H 4816.56 1.84437 -3.78894 0
M  V30 51321 H 4815.24 1.93316 -2.59636 0
M  V30 51322 H 4814.14 -0.0822455 -3.7401 0
M  V30 51323 H 4815.48 -0.0885256 -4.9212 0
M  V30 51324 N 4817.13 1.55192 -0.274461 0
M  V30 51325 C 4818.54 1.59401 0.0796982 0
M  V30 51326 C 4818.74 1.29168 1.54654 0
M  V30 51327 O 4817.8 1.05223 2.29531 0
M  V30 51328 C 4819.11 2.99256 -0.294343 0
M  V30 51329 C 4820.66 3.12072 -0.240906 0
M  V30 51330 C 4821.14 4.54192 -0.589378 0
M  V30 51331 N 4822.63 4.60031 -0.540906 0
M  V30 51332 C 4823.36 5.68024 -0.783347 0
M  V30 51333 N 4822.86 6.84166 -1.09037 0
M  V30 51334 N 4824.65 5.5757 -0.712189 0
M  V30 51335 H 4816.8 1.73109 -1.23073 0
M  V30 51336 H 4819.06 0.807179 -0.497158 0
M  V30 51337 H 4818.77 3.26213 -1.31446 0
M  V30 51338 H 4818.64 3.75428 0.365149 0
M  V30 51339 H 4821.03 2.84879 0.769923 0
M  V30 51340 H 4821.11 2.38113 -0.934647 0
M  V30 51341 H 4820.76 4.8211 -1.59789 0
M  V30 51342 H 4820.69 5.26449 0.126146 0
M  V30 51343 H 4823.18 3.76598 -0.313459 0
M  V30 51344 H 4823.49 7.62425 -1.26205 0
M  V30 51345 H 4821.84 6.85783 -1.12814 0
M  V30 51346 H 4825.03 4.65712 -0.472178 0
M  V30 51347 H 4825.2 6.41656 -0.904515 0
M  V30 51348 N 4818.61 0.00173253 1.576 0
M  V30 51349 C 4819.57 -0.973973 2.07476 0
M  V30 51350 C 4820.57 -1.2714 0.984488 0
M  V30 51351 O 4821.76 -1.21629 1.24708 0
M  V30 51352 C 4818.89 -2.2984 2.51767 0
M  V30 51353 H 4820.08 -0.542517 2.94952 0
M  V30 51354 H 4817.64 -0.245774 1.54356 0
M  V30 51355 H 4818.37 -2.77671 1.67539 0
M  V30 51356 H 4818.16 -2.09572 3.31394 0
M  V30 51357 H 4819.65 -2.9983 2.90675 0
M  V30 51358 N 4820.08 -1.55252 -0.271048 0
M  V30 51359 C 4820.99 -1.91365 -1.35708 0
M  V30 51360 C 4822.01 -0.811129 -1.53937 0
M  V30 51361 O 4823.19 -1.11037 -1.68026 0
M  V30 51362 C 4820.25 -2.1799 -2.69595 0
M  V30 51363 C 4819.31 -3.41539 -2.60095 0
M  V30 51364 C 4818.55 -3.66884 -3.87597 0
M  V30 51365 O 4818.77 -2.94706 -4.88369 0
M  V30 51366 O 4817.7 -4.60419 -3.87683 0
M  V30 51367 H 4821.53 -2.83818 -1.08078 0
M  V30 51368 H 4819.11 -1.41823 -0.469742 0
M  V30 51369 H 4821 -2.36531 -3.48757 0
M  V30 51370 H 4819.67 -1.28719 -2.97007 0
M  V30 51371 H 4818.58 -3.28332 -1.79302 0
M  V30 51372 H 4819.91 -4.31036 -2.37632 0
M  V30 51373 N 4821.56 0.535649 -1.48218 0
M  V30 51374 C 4822.5 1.6572 -1.56882 0
M  V30 51375 C 4823.47 1.57093 -0.419597 0
M  V30 51376 O 4824.66 1.77646 -0.630415 0
M  V30 51377 C 4821.78 3.04091 -1.49153 0
M  V30 51378 C 4820.83 3.31096 -2.68846 0
M  V30 51379 S 4821.66 3.17986 -4.30865 0
M  V30 51380 C 4822.82 4.58813 -4.25725 0
M  V30 51381 H 4823.05 1.5812 -2.51764 0
M  V30 51382 H 4820.59 0.71817 -1.36681 0
M  V30 51383 H 4822.54 3.83894 -1.4538 0
M  V30 51384 H 4821.2 3.09137 -0.556176 0
M  V30 51385 H 4820.4 4.32024 -2.5956 0
M  V30 51386 H 4820 2.58952 -2.69852 0
M  V30 51387 H 4822.29 5.50216 -3.95308 0
M  V30 51388 H 4823.23 4.73153 -5.26813 0
M  V30 51389 H 4823.64 4.3787 -3.56273 0
M  V30 51390 N 4823.04 1.36711 0.784084 0
M  V30 51391 C 4824.28 1.32624 1.55532 0
M  V30 51392 C 4824.64 -0.0920007 1.91779 0
M  V30 51393 O 4825.85 -0.257479 2.67564 0
M  V30 51394 C 4824.12 2.22798 2.79456 0
M  V30 51395 S 4825.68 2.36445 3.69647 0
M  V30 51396 H 4822.49 0.470991 0.532624 0
M  V30 51397 H 4825.1 1.72336 0.923059 0
M  V30 51398 H 4823.8 3.24783 2.50887 0
M  V30 51399 H 4823.33 1.84125 3.47652 0
M  V30 51400 H 4825.35 1.56589 4.70844 0
M  V30 51401 N 4824.52 -1.00885 1.21078 0
M  V30 51402 C 4825.76 -1.76138 1.03705 0
M  V30 51403 C 4826.12 -1.87293 -0.422521 0
M  V30 51404 O 4827.32 -2.5907 -0.716661 0
M  V30 51405 C 4825.59 -3.13799 1.71071 0
M  V30 51406 S 4827.15 -4.0499 1.68903 0
M  V30 51407 H 4823.97 -0.6061 0.371704 0
M  V30 51408 H 4826.57 -1.20739 1.53761 0
M  V30 51409 H 4825.28 -3.03311 2.76461 0
M  V30 51410 H 4824.81 -3.74272 1.21179 0
M  V30 51411 H 4826.82 -4.9084 0.727384 0
M  V30 51412 N 4826 -1.01791 -1.20318 0
M  V30 51413 C 4827.22 -0.727262 -1.93697 0
M  V30 51414 C 4827.64 0.712244 -1.7485 0
M  V30 51415 O 4827 1.48323 -1.06332 0
M  V30 51416 C 4827.05 -1.0551 -3.4576 0
M  V30 51417 O 4826.77 -2.43806 -3.63992 0
M  V30 51418 C 4828.27 -0.785687 -4.36282 0
M  V30 51419 H 4825.49 -0.26696 -0.615608 0
M  V30 51420 H 4828.03 -1.35944 -1.52773 0
M  V30 51421 H 4826.19 -0.468293 -3.84559 0
M  V30 51422 H 4826.6 -2.55672 -4.57965 0
M  V30 51423 H 4828.08 -1.06514 -5.41626 0
M  V30 51424 H 4828.55 0.280119 -4.38306 0
M  V30 51425 H 4829.16 -1.3547 -4.03147 0
M  V30 51426 N 4827.47 1.36119 -0.794317 0
M  V30 51427 C 4828.44 2.28308 -0.201969 0
M  V30 51428 C 4829.44 1.49043 0.603551 0
M  V30 51429 O 4830.63 1.68965 0.423828 0
M  V30 51430 C 4827.76 3.33213 0.719861 0
M  V30 51431 H 4828.95 2.82205 -1.01491 0
M  V30 51432 H 4826.51 1.45766 -0.564088 0
M  V30 51433 H 4827.24 2.84481 1.55696 0
M  V30 51434 H 4827.03 3.91835 0.144129 0
M  V30 51435 H 4828.52 4.02048 1.12902 0
M  V30 51436 N 4828.95 0.546753 1.47812 0
M  V30 51437 C 4829.88 -0.195235 2.32682 0
M  V30 51438 C 4830.86 -0.918931 1.43142 0
M  V30 51439 O 4832.05 -0.90144 1.72011 0
M  V30 51440 C 4829.18 -1.23225 3.24704 0
M  V30 51441 C 4828.13 -0.625669 4.23402 0
M  V30 51442 C 4827.46 -1.76656 5.04675 0
M  V30 51443 C 4828.76 0.413698 5.20659 0
M  V30 51444 H 4830.45 0.513288 2.94967 0
M  V30 51445 H 4828 0.24829 1.41843 0
M  V30 51446 H 4829.95 -1.75941 3.82913 0
M  V30 51447 H 4828.68 -1.97058 2.60453 0
M  V30 51448 H 4827.33 -0.119894 3.66404 0
M  V30 51449 H 4826.98 -2.49367 4.36835 0
M  V30 51450 H 4826.68 -1.36653 5.71489 0
M  V30 51451 H 4828.21 -2.29718 5.6574 0
M  V30 51452 H 4829.62 -0.0270027 5.73294 0
M  V30 51453 H 4828.02 0.732034 5.95618 0
M  V30 51454 H 4829.09 1.31342 4.66773 0
M  V30 51455 N 4830.43 -1.55044 0.282687 0
M  V30 51456 C 4831.38 -2.24256 -0.617399 0
M  V30 51457 C 4832.37 -1.24219 -1.15178 0
M  V30 51458 O 4833.58 -1.42126 -1.10454 0
M  V30 51459 H 4829.95 -0.719809 -0.217668 0
M  V30 51460 H 4831.92 -2.98398 -0.0109027 0
M  V30 51461 C 4830.67 -2.98287 -1.78662 0
M  V30 51462 H 4830 -3.75058 -1.38462 0
M  V30 51463 H 4831.44 -3.50025 -2.39287 0
M  V30 51464 C 4829.9 -2.04194 -2.67967 0
M  V30 51465 O 4830.43 -1.59805 -3.68545 0
M  V30 51466 N 4828.63 -1.70534 -2.35301 0
M  V30 51467 H 4828.18 -2.06827 -1.53559 0
M  V30 51468 H 4828.14 -1.07849 -2.95323 0
M  V30 51469 N 4831.91 -0.0100904 -1.57597 0
M  V30 51470 C 4833.13 0.686953 -1.95693 0
M  V30 51471 C 4833.56 1.65949 -0.885577 0
M  V30 51472 O 4832.92 1.80633 0.155367 0
M  V30 51473 C 4832.96 1.38628 -3.32888 0
M  V30 51474 O 4832.07 2.50103 -3.27906 0
M  V30 51475 H 4831.41 0.181966 -0.63858 0
M  V30 51476 H 4833.94 -0.0662841 -2.04493 0
M  V30 51477 H 4833.95 1.74742 -3.68686 0
M  V30 51478 H 4832.62 0.673267 -4.10414 0
M  V30 51479 H 4831.2 2.16242 -3.03799 0
M  V30 51480 N 4833.39 1.55393 0.262811 0
M  V30 51481 C 4834.3 1.92082 1.34691 0
M  V30 51482 C 4835.31 0.819281 1.53505 0
M  V30 51483 O 4836.49 1.11926 1.67435 0
M  V30 51484 C 4833.55 2.19416 2.68435 0
M  V30 51485 C 4832.61 3.42914 2.5828 0
M  V30 51486 C 4831.85 3.68935 3.85646 0
M  V30 51487 O 4832.07 2.97292 4.86799 0
M  V30 51488 O 4831 4.62468 3.85236 0
M  V30 51489 H 4834.83 2.84388 1.06571 0
M  V30 51490 H 4832.42 1.4207 0.462214 0
M  V30 51491 H 4834.3 2.38377 3.47497 0
M  V30 51492 H 4832.97 1.30292 2.9632 0
M  V30 51493 H 4831.88 3.29278 1.77558 0
M  V30 51494 H 4833.21 4.3229 2.35343 0
M  V30 51495 N 4834.87 -0.527781 1.485 0
M  V30 51496 C 4835.82 -1.62838 1.59586 0
M  V30 51497 C 4836.8 -1.54395 0.452863 0
M  V30 51498 O 4837.99 -1.62379 0.704421 0
M  V30 51499 C 4835.12 -3.01552 1.64078 0
M  V30 51500 C 4834.21 -3.1509 2.83864 0
M  V30 51501 N 4834.6 -2.98596 4.08257 0
M  V30 51502 C 4832.9 -3.46148 2.81243 0
M  V30 51503 C 4833.6 -3.15609 4.88637 0
M  V30 51504 N 4832.57 -3.43283 4.21495 0
M  V30 51505 H 4836.37 -1.48699 2.53507 0
M  V30 51506 H 4833.89 -0.733293 1.44902 0
M  V30 51507 H 4835.89 -3.80614 1.70114 0
M  V30 51508 H 4834.55 -3.16781 0.712747 0
M  V30 51509 H 4835.56 -2.75314 4.3866 0
M  V30 51510 H 4832.23 -3.67721 1.97705 0
M  V30 51511 H 4833.62 -3.07575 5.97367 0
M  V30 51512 N 4836.34 -1.37125 -0.776822 0
M  V30 51513 C 4837.28 -1.26842 -1.89701 0
M  V30 51514 C 4838.25 -0.149977 -1.61907 0
M  V30 51515 O 4839.44 -0.323307 -1.85707 0
M  V30 51516 C 4836.57 -0.959974 -3.24811 0
M  V30 51517 C 4835.61 -2.0946 -3.71522 0
M  V30 51518 S 4836.44 -3.71382 -3.85793 0
M  V30 51519 C 4837.6 -3.42677 -5.23759 0
M  V30 51520 H 4837.83 -2.21654 -1.98134 0
M  V30 51521 H 4835.37 -1.22688 -0.93739 0
M  V30 51522 H 4837.32 -0.788838 -4.02849 0
M  V30 51523 H 4835.99 -0.0294241 -3.14086 0
M  V30 51524 H 4835.18 -1.83366 -4.6946 0
M  V30 51525 H 4834.78 -2.22561 -3.00571 0
M  V30 51526 H 4837.07 -2.97351 -6.0876 0
M  V30 51527 H 4838.02 -4.39924 -5.54862 0
M  V30 51528 H 4838.42 -2.77725 -4.91456 0
M  V30 51529 N 4837.82 1.00242 -1.21611 0
M  V30 51530 C 4838.77 2.1119 -0.974764 0
M  V30 51531 C 4839.76 1.69216 0.0788708 0
M  V30 51532 O 4840.97 1.79853 -0.0727438 0
M  V30 51533 H 4837.34 0.690445 -0.297977 0
M  V30 51534 H 4839.32 2.28723 -1.91646 0
M  V30 51535 C 4838.06 3.4318 -0.558838 0
M  V30 51536 H 4837.39 3.75913 -1.36123 0
M  V30 51537 H 4838.83 4.21821 -0.429302 0
M  V30 51538 C 4837.29 3.28884 0.730532 0
M  V30 51539 O 4837.82 3.59842 1.78541 0
M  V30 51540 N 4836.02 2.82092 0.698032 0
M  V30 51541 H 4835.57 2.57098 -0.1607 0
M  V30 51542 H 4835.53 2.72909 1.56103 0
M  V30 51543 N 4839.3 1.02428 1.19776 0
M  V30 51544 C 4840.53 0.737524 1.93309 0
M  V30 51545 C 4840.94 -0.702961 1.75225 0
M  V30 51546 O 4840.3 -1.47757 1.07117 0
M  V30 51547 C 4840.35 1.07342 3.45196 0
M  V30 51548 O 4840.07 2.45733 3.62694 0
M  V30 51549 C 4841.57 0.808813 4.35859 0
M  V30 51550 H 4838.79 0.270221 0.614183 0
M  V30 51551 H 4841.34 1.36752 1.52049 0
M  V30 51552 H 4839.49 0.48868 3.84305 0
M  V30 51553 H 4839.91 2.58097 4.56603 0
M  V30 51554 H 4841.38 1.09384 5.41054 0
M  V30 51555 H 4841.86 -0.256871 4.38448 0
M  V30 51556 H 4842.46 1.37606 4.02423 0
M  V30 51557 N 4840.78 -1.35696 0.801525 0
M  V30 51558 C 4841.71 -2.32435 0.222739 0
M  V30 51559 C 4842.69 -1.57232 -0.649002 0
M  V30 51560 O 4843.87 -1.85326 -0.580322 0
M  V30 51561 C 4841 -3.41472 -0.633599 0
M  V30 51562 C 4839.96 -4.27773 0.139233 0
M  V30 51563 C 4839.28 -5.28085 -0.83848 0
M  V30 51564 C 4840.58 -5.04941 1.33535 0
M  V30 51565 H 4842.28 -2.8109 1.03096 0
M  V30 51566 H 4839.82 -1.35144 0.497203 0
M  V30 51567 H 4841.78 -4.08147 -1.04853 0
M  V30 51568 H 4840.5 -2.91413 -1.47465 0
M  V30 51569 H 4839.16 -3.62671 0.535284 0
M  V30 51570 H 4838.81 -4.74296 -1.67489 0
M  V30 51571 H 4838.51 -5.86696 -0.325734 0
M  V30 51572 H 4840.03 -5.97632 -1.25173 0
M  V30 51573 H 4841.45 -5.6459 0.995547 0
M  V30 51574 H 4839.84 -5.73024 1.78223 0
M  V30 51575 H 4840.91 -4.35878 2.12458 0
M  V30 51576 N 4842.26 -0.554584 -1.4752 0
M  V30 51577 C 4843.19 0.182892 -2.32783 0
M  V30 51578 C 4844.17 0.911327 -1.43627 0
M  V30 51579 O 4845.35 0.892305 -1.72486 0
M  V30 51580 C 4842.48 1.21502 -3.25353 0
M  V30 51581 C 4841.44 0.603206 -4.23728 0
M  V30 51582 C 4840.76 1.73977 -5.05605 0
M  V30 51583 C 4842.06 -0.441304 -5.20432 0
M  V30 51584 H 4843.76 -0.528923 -2.94691 0
M  V30 51585 H 4841.3 -0.255809 -1.4171 0
M  V30 51586 H 4843.25 1.73908 -3.83841 0
M  V30 51587 H 4841.98 1.95674 -2.61494 0
M  V30 51588 H 4840.64 0.100461 -3.66462 0
M  V30 51589 H 4840.29 2.47047 -4.38151 0
M  V30 51590 H 4839.99 1.3362 -5.72206 0
M  V30 51591 H 4841.51 2.26715 -5.6695 0
M  V30 51592 H 4842.92 -0.00340085 -5.733 0
M  V30 51593 H 4841.32 -0.763611 -5.95222 0
M  V30 51594 H 4842.39 -1.33815 -4.6607 0
M  V30 51595 N 4843.73 1.54892 -0.290906 0
M  V30 51596 C 4844.98 1.9954 0.320686 0
M  V30 51597 C 4845.3 1.18081 1.55184 0
M  V30 51598 O 4844.57 0.27423 1.93971 0
M  V30 51599 H 4843.15 0.737056 0.121481 0
M  V30 51600 H 4845.81 1.90753 -0.399899 0
M  V30 51601 H 4844.91 3.06284 0.599694 0
M  V30 51602 N 4845.21 0.018448 1.57589 0
M  V30 51603 C 4846.16 -0.985037 2.10713 0
M  V30 51604 C 4847.15 -1.34394 1.03125 0
M  V30 51605 O 4848.36 -1.32742 1.21571 0
M  V30 51606 H 4844.73 -0.335394 0.673064 0
M  V30 51607 H 4846.71 -0.511586 2.93982 0
M  V30 51608 C 4845.45 -2.26192 2.64069 0
M  V30 51609 H 4844.78 -1.99448 3.46497 0
M  V30 51610 H 4846.22 -2.94642 3.04897 0
M  V30 51611 C 4844.68 -2.98438 1.56321 0
M  V30 51612 O 4845.21 -3.90138 0.956811 0
M  V30 51613 N 4843.41 -2.60586 1.28621 0
M  V30 51614 H 4842.96 -1.86095 1.78119 0
M  V30 51615 H 4842.92 -3.09236 0.567515 0
M  V30 51616 N 4846.69 -1.5553 -0.254567 0
M  V30 51617 C 4847.94 -1.76206 -0.98155 0
M  V30 51618 C 4848.25 -0.580949 -1.86774 0
M  V30 51619 O 4849.46 -0.67054 -2.63089 0
M  V30 51620 C 4847.91 -3.11927 -1.79526 0
M  V30 51621 C 4847.52 -4.37663 -0.956837 0
M  V30 51622 C 4849.27 -3.41945 -2.51543 0
M  V30 51623 C 4847.17 -5.64417 -1.76599 0
M  V30 51624 H 4846.1 -0.656854 -0.370214 0
M  V30 51625 H 4848.75 -1.8197 -0.236492 0
M  V30 51626 H 4847.14 -3.0025 -2.58198 0
M  V30 51627 H 4848.31 -4.60308 -0.212988 0
M  V30 51628 H 4846.62 -4.14923 -0.350352 0
M  V30 51629 H 4849.22 -4.3386 -3.12521 0
M  V30 51630 H 4849.56 -2.62917 -3.2277 0
M  V30 51631 H 4850.1 -3.54803 -1.79888 0
M  V30 51632 H 4846.84 -6.46245 -1.0976 0
M  V30 51633 H 4846.36 -5.45886 -2.48532 0
M  V30 51634 H 4848.04 -6.03394 -2.33505 0
M  V30 51635 N 4848.17 0.519898 -1.48778 0
M  V30 51636 C 4849.1 1.63247 -1.66951 0
M  V30 51637 C 4850.08 1.62012 -0.518281 0
M  V30 51638 O 4851.26 1.7905 -0.751982 0
M  V30 51639 C 4848.39 3.01804 -1.71847 0
M  V30 51640 C 4847.35 3.17901 -2.86571 0
M  V30 51641 C 4846.67 4.5762 -2.76565 0
M  V30 51642 C 4847.97 2.99714 -4.27748 0
M  V30 51643 H 4849.67 1.48293 -2.60095 0
M  V30 51644 H 4847.21 0.711982 -1.25167 0
M  V30 51645 H 4849.17 3.79519 -1.83148 0
M  V30 51646 H 4847.89 3.17804 -0.752887 0
M  V30 51647 H 4846.55 2.42606 -2.74842 0
M  V30 51648 H 4846.2 4.70469 -1.77954 0
M  V30 51649 H 4845.9 4.69334 -3.53553 0
M  V30 51650 H 4847.42 5.37421 -2.89847 0
M  V30 51651 H 4848.84 3.67213 -4.40259 0
M  V30 51652 H 4847.23 3.22914 -5.05813 0
M  V30 51653 H 4848.3 1.96031 -4.43509 0
M  V30 51654 N 4849.65 1.37535 0.769539 0
M  V30 51655 C 4850.59 1.33477 1.88289 0
M  V30 51656 C 4851.56 0.199949 1.64892 0
M  V30 51657 O 4852.75 0.38966 1.86779 0
M  V30 51658 C 4849.89 1.14979 3.25382 0
M  V30 51659 C 4849 2.37711 3.60718 0
M  V30 51660 C 4848.14 2.12068 4.87032 0
M  V30 51661 C 4847.18 3.30655 5.15106 0
M  V30 51662 N 4846.31 3.04549 6.32609 0
M  V30 51663 H 4851.15 2.28665 1.91092 0
M  V30 51664 H 4848.69 1.13626 0.934218 0
M  V30 51665 H 4850.65 1.02275 4.0447 0
M  V30 51666 H 4849.28 0.234376 3.21948 0
M  V30 51667 H 4848.33 2.61146 2.76598 0
M  V30 51668 H 4849.64 3.26144 3.77401 0
M  V30 51669 H 4848.8 1.96408 5.74029 0
M  V30 51670 H 4847.53 1.20976 4.72457 0
M  V30 51671 H 4846.54 3.46851 4.26585 0
M  V30 51672 H 4847.76 4.22601 5.31588 0
M  V30 51673 H 4845.71 2.16088 6.19388 0
M  V30 51674 H 4845.63 3.86526 6.49718 0
M  V30 51675 H 4846.9 2.92511 7.22536 0
M  V30 51676 N 4851.12 -0.995956 1.22141 0
M  V30 51677 C 4852.37 -1.72924 1.03827 0
M  V30 51678 C 4852.69 -1.90874 -0.427377 0
M  V30 51679 O 4853.89 -2.61499 -0.73012 0
M  V30 51680 C 4852.35 -3.11118 1.80924 0
M  V30 51681 C 4851.96 -3.0111 3.31718 0
M  V30 51682 C 4853.7 -3.88514 1.71048 0
M  V30 51683 C 4851.61 -4.34439 4.01269 0
M  V30 51684 H 4850.54 -0.648363 0.384892 0
M  V30 51685 H 4853.19 -1.11208 1.45963 0
M  V30 51686 H 4851.57 -3.73499 1.31586 0
M  V30 51687 H 4852.74 -2.47913 3.88427 0
M  V30 51688 H 4851.06 -2.37198 3.42237 0
M  V30 51689 H 4853.66 -4.87192 2.20335 0
M  V30 51690 H 4854 -4.10868 0.67034 0
M  V30 51691 H 4854.53 -3.32804 2.17913 0
M  V30 51692 H 4851.27 -4.17285 5.05523 0
M  V30 51693 H 4850.79 -4.87562 3.49348 0
M  V30 51694 H 4852.47 -5.032 4.06692 0
M  V30 51695 N 4852.6 -1.03061 -1.19231 0
M  V30 51696 C 4853.85 -0.723327 -1.88284 0
M  V30 51697 C 4854.16 0.751269 -1.80597 0
M  V30 51698 O 4855.37 1.17167 -2.44916 0
M  V30 51699 C 4853.83 -1.2435 -3.37735 0
M  V30 51700 C 4853.43 -2.746 -3.53976 0
M  V30 51701 C 4855.18 -1.01228 -4.12254 0
M  V30 51702 C 4853.09 -3.20026 -4.9733 0
M  V30 51703 H 4852.02 -0.266873 -0.705191 0
M  V30 51704 H 4854.67 -1.24514 -1.34791 0
M  V30 51705 H 4853.05 -0.649595 -3.90636 0
M  V30 51706 H 4854.22 -3.3966 -3.11396 0
M  V30 51707 H 4852.54 -2.96021 -2.92849 0
M  V30 51708 H 4855.13 -1.32693 -5.17974 0
M  V30 51709 H 4855.48 0.0508547 -4.16269 0
M  V30 51710 H 4856.01 -1.57027 -3.65496 0
M  V30 51711 H 4852.75 -4.25676 -4.98478 0
M  V30 51712 H 4852.27 -2.59695 -5.40665 0
M  V30 51713 H 4853.95 -3.13467 -5.65992 0
M  V30 51714 N 4854.08 1.35269 -0.80871 0
M  V30 51715 C 4855.31 2.02651 -0.402024 0
M  V30 51716 C 4855.72 1.61084 0.992406 0
M  V30 51717 O 4855.06 0.805042 1.6512 0
M  V30 51718 C 4855.12 3.57173 -0.408372 0
M  V30 51719 C 4854.79 4.22013 -1.75368 0
M  V30 51720 C 4855.78 4.43542 -2.71231 0
M  V30 51721 C 4853.47 4.59086 -2.03827 0
M  V30 51722 C 4855.46 5.0125 -3.93735 0
M  V30 51723 C 4853.15 5.16507 -3.26594 0
M  V30 51724 C 4854.15 5.37532 -4.21365 0
M  V30 51725 O 4853.84 5.93742 -5.41965 0
M  V30 51726 H 4853.57 0.656489 -0.161239 0
M  V30 51727 H 4856.12 1.73825 -1.09426 0
M  V30 51728 H 4854.35 3.85198 0.340473 0
M  V30 51729 H 4856.04 4.05893 -0.023705 0
M  V30 51730 H 4856.81 4.15279 -2.50536 0
M  V30 51731 H 4852.69 4.42034 -1.3087 0
M  V30 51732 H 4856.23 5.17576 -4.67719 0
M  V30 51733 H 4852.13 5.44198 -3.47158 0
M  V30 51734 H 4852.9 6.12191 -5.43291 0
M  V30 51735 N 4855.56 0.5624 1.47224 0
M  V30 51736 C 4856.51 -0.195394 2.31778 0
M  V30 51737 C 4857.5 -0.904279 1.43245 0
M  V30 51738 O 4858.71 -0.824975 1.59982 0
M  V30 51739 H 4855.08 -0.0818832 0.747529 0
M  V30 51740 H 4857.05 0.536856 2.93531 0
M  V30 51741 C 4855.8 -1.20891 3.26007 0
M  V30 51742 H 4855.12 -0.672858 3.94097 0
M  V30 51743 H 4856.56 -1.70993 3.87992 0
M  V30 51744 C 4855.02 -2.25947 2.49899 0
M  V30 51745 O 4855.55 -3.32961 2.24721 0
M  V30 51746 N 4853.76 -2.00012 2.10817 0
M  V30 51747 H 4853.31 -1.12998 2.31493 0
M  V30 51748 H 4853.26 -2.70518 1.60211 0
M  V30 51749 N 4857.04 -1.54735 0.299116 0
M  V30 51750 C 4857.98 -2.24899 -0.593579 0
M  V30 51751 C 4858.98 -1.25433 -1.13854 0
M  V30 51752 O 4860.18 -1.4329 -1.0894 0
M  V30 51753 H 4856.56 -0.722077 -0.210021 0
M  V30 51754 H 4858.53 -2.98393 0.020747 0
M  V30 51755 C 4857.28 -3.00165 -1.75488 0
M  V30 51756 H 4856.6 -3.76505 -1.34476 0
M  V30 51757 H 4858.04 -3.52543 -2.35561 0
M  V30 51758 C 4856.5 -2.07024 -2.65787 0
M  V30 51759 O 4857.03 -1.63705 -3.66829 0
M  V30 51760 N 4855.24 -1.7302 -2.33479 0
M  V30 51761 H 4854.78 -2.08444 -1.51357 0
M  V30 51762 H 4854.74 -1.10975 -2.94163 0
M  V30 51763 N 4858.51 -0.0268051 -1.57577 0
M  V30 51764 C 4859.44 0.954233 -2.13112 0
M  V30 51765 C 4860.43 1.34085 -1.04668 0
M  V30 51766 O 4861.61 1.41987 -1.32489 0
M  V30 51767 C 4858.74 2.23734 -2.65632 0
M  V30 51768 C 4857.69 1.99155 -3.78842 0
M  V30 51769 C 4857.02 3.33711 -4.17781 0
M  V30 51770 C 4858.32 1.33259 -5.05014 0
M  V30 51771 H 4860.01 0.491745 -2.95334 0
M  V30 51772 H 4857.56 0.23509 -1.42068 0
M  V30 51773 H 4859.51 2.92743 -3.03116 0
M  V30 51774 H 4858.24 2.72145 -1.80568 0
M  V30 51775 H 4856.9 1.32565 -3.41792 0
M  V30 51776 H 4856.54 3.79876 -3.29702 0
M  V30 51777 H 4856.24 3.18072 -4.94069 0
M  V30 51778 H 4857.77 4.03991 -4.57846 0
M  V30 51779 H 4859.18 1.92264 -5.401 0
M  V30 51780 H 4857.58 1.28024 -5.86285 0
M  V30 51781 H 4858.65 0.305241 -4.83938 0
M  V30 51782 N 4859.99 1.55663 0.246315 0
M  V30 51783 C 4861.24 1.77172 0.972348 0
M  V30 51784 C 4861.56 0.590892 1.85832 0
M  V30 51785 O 4860.83 -0.393298 1.91911 0
M  V30 51786 H 4859.41 0.653417 0.362015 0
M  V30 51787 H 4862.07 1.93102 0.264121 0
M  V30 51788 H 4861.17 2.68341 1.59372 0
M  V30 51789 N 4861.47 -0.512001 1.49051 0
M  V30 51790 C 4862.72 -1.26337 1.57232 0
M  V30 51791 C 4863.03 -1.93875 0.259223 0
M  V30 51792 O 4864.24 -2.70612 0.219453 0
M  V30 51793 C 4862.69 -2.29333 2.7737 0
M  V30 51794 C 4862.3 -1.67785 4.15394 0
M  V30 51795 C 4864.05 -3.05368 2.94874 0
M  V30 51796 C 4861.95 -2.68827 5.26769 0
M  V30 51797 H 4860.88 -0.47521 0.585398 0
M  V30 51798 H 4863.53 -0.538559 1.75419 0
M  V30 51799 H 4861.92 -3.04929 2.52654 0
M  V30 51800 H 4863.09 -0.982557 4.50203 0
M  V30 51801 H 4861.41 -1.0418 4.03157 0
M  V30 51802 H 4864 -3.80908 3.75251 0
M  V30 51803 H 4864.35 -3.6232 2.05013 0
M  V30 51804 H 4864.88 -2.36887 3.19577 0
M  V30 51805 H 4861.62 -2.16671 6.18655 0
M  V30 51806 H 4861.14 -3.36629 4.96428 0
M  V30 51807 H 4862.82 -3.31468 5.55642 0
M  V30 51808 N 4862.95 -1.37941 -0.762235 0
M  V30 51809 C 4864.23 -1.24201 -1.51108 0
M  V30 51810 C 4864.61 0.160335 -2.1049 0
M  V30 51811 O 4863.95 1.16897 -1.96335 0
M  V30 51812 C 4864.16 -2.34546 -2.58436 0
M  V30 51813 C 4865.51 -2.72551 -3.25578 0
M  V30 51814 O 4866.54 -2.33793 -2.68737 0
M  V30 51815 O 4865.39 -3.39358 -4.28367 0
M  V30 51816 H 4862.49 -0.485199 -0.66971 0
M  V30 51817 H 4865.03 -1.49746 -0.798385 0
M  V30 51818 H 4863.81 -3.28414 -2.12744 0
M  V30 51819 H 4863.43 -2.10517 -3.37296 0
M  V30 51820 N 4864.43 0.989464 -1.22668 0
M  V30 51821 C 4865.34 2.11445 -1.01627 0
M  V30 51822 C 4866.35 1.73962 0.0364838 0
M  V30 51823 O 4867.53 2.00787 -0.156995 0
M  V30 51824 C 4864.59 3.41463 -0.600324 0
M  V30 51825 C 4863.66 3.93027 -1.72709 0
M  V30 51826 C 4862.89 5.16839 -1.33089 0
M  V30 51827 O 4863.11 5.70009 -0.211175 0
M  V30 51828 O 4862.05 5.62242 -2.14865 0
M  V30 51829 H 4865.87 2.32081 -1.95888 0
M  V30 51830 H 4863.46 1.09819 -1.01292 0
M  V30 51831 H 4865.34 4.19693 -0.378877 0
M  V30 51832 H 4864.01 3.22179 0.313398 0
M  V30 51833 H 4862.92 3.15954 -2.00309 0
M  V30 51834 H 4864.25 4.16749 -2.6188 0
M  V30 51835 N 4865.91 1.03692 1.18683 0
M  V30 51836 C 4867.15 0.736638 1.88197 0
M  V30 51837 C 4867.47 -0.737602 1.80512 0
M  V30 51838 O 4866.74 -1.53199 1.22093 0
M  V30 51839 H 4865.32 0.269491 0.696695 0
M  V30 51840 H 4867.99 1.31287 1.44047 0
M  V30 51841 H 4867.08 1.03813 2.94329 0
M  V30 51842 N 4867.38 -1.34838 0.815872 0
M  V30 51843 C 4868.35 -2.27958 0.238265 0
M  V30 51844 C 4869.35 -1.49985 -0.579763 0
M  V30 51845 O 4870.54 -1.69618 -0.396894 0
M  V30 51846 C 4867.67 -3.34316 -0.666758 0
M  V30 51847 H 4868.86 -2.80554 1.05968 0
M  V30 51848 H 4866.41 -1.4485 0.587207 0
M  V30 51849 H 4867.15 -2.86922 -1.5115 0
M  V30 51850 H 4866.93 -3.92015 -0.0817727 0
M  V30 51851 H 4868.42 -4.03794 -1.06492 0
M  V30 51852 N 4868.86 -0.570199 -1.46923 0
M  V30 51853 C 4870.11 -0.0593838 -2.03313 0
M  V30 51854 C 4870.46 1.28134 -1.43525 0
M  V30 51855 O 4869.76 1.82409 -0.58631 0
M  V30 51856 C 4869.95 0.0779079 -3.57315 0
M  V30 51857 C 4869.78 -1.24796 -4.32037 0
M  V30 51858 C 4868.55 -1.81876 -4.71433 0
M  V30 51859 C 4870.75 -2.16825 -4.6636 0
M  V30 51860 N 4868.73 -3.08332 -5.30853 0
M  V30 51861 C 4870.1 -3.27863 -5.26218 0
M  V30 51862 C 4872.15 -2.16659 -4.48289 0
M  V30 51863 C 4870.86 -4.38852 -5.69913 0
M  V30 51864 C 4872.88 -3.26669 -4.92992 0
M  V30 51865 C 4872.25 -4.36428 -5.52911 0
M  V30 51866 H 4868.34 -0.0642078 -0.77936 0
M  V30 51867 H 4870.93 -0.760348 -1.79239 0
M  V30 51868 H 4869.1 0.748017 -3.81129 0
M  V30 51869 H 4870.83 0.591969 -4.00347 0
M  V30 51870 H 4867.59 -1.35518 -4.53797 0
M  V30 51871 H 4868.01 -3.72822 -5.65095 0
M  V30 51872 H 4872.65 -1.33079 -4.0131 0
M  V30 51873 H 4870.37 -5.23183 -6.15877 0
M  V30 51874 H 4873.96 -3.27644 -4.80771 0
M  V30 51875 H 4872.84 -5.20148 -5.86869 0
M  V30 51876 N 4870.34 1.54575 -0.307318 0
M  V30 51877 C 4871.27 2.19948 0.608118 0
M  V30 51878 C 4872.25 1.171 1.12811 0
M  V30 51879 O 4873.43 1.4577 1.19513 0
M  V30 51880 C 4870.56 2.84833 1.8327 0
M  V30 51881 C 4869.61 4.01261 1.44539 0
M  V30 51882 S 4870.44 5.33199 0.495932 0
M  V30 51883 C 4871.6 6.01569 1.72817 0
M  V30 51884 H 4871.83 2.97253 0.0527499 0
M  V30 51885 H 4869.36 1.54129 -0.0914378 0
M  V30 51886 H 4871.32 3.22841 2.53543 0
M  V30 51887 H 4869.98 2.07361 2.35924 0
M  V30 51888 H 4869.17 4.45466 2.35746 0
M  V30 51889 H 4868.78 3.64843 0.822543 0
M  V30 51890 H 4871.07 6.2276 2.66788 0
M  V30 51891 H 4872.01 6.95525 1.32857 0
M  V30 51892 H 4872.42 5.31286 1.90776 0
M  V30 51893 N 4871.82 0.0351614 1.57561 0
M  V30 51894 C 4872.76 -0.944666 2.10582 0
M  V30 51895 C 4873.73 -1.31916 1.00932 0
M  V30 51896 O 4874.92 -1.41143 1.28387 0
M  V30 51897 C 4872.06 -2.21973 2.64239 0
M  V30 51898 C 4871.17 -1.90114 3.87918 0
M  V30 51899 C 4870.31 -3.1196 4.29947 0
M  V30 51900 C 4869.35 -2.75949 5.46369 0
M  V30 51901 N 4868.48 -3.90439 5.83525 0
M  V30 51902 H 4873.32 -0.485614 2.94017 0
M  V30 51903 H 4870.86 -0.228092 1.45321 0
M  V30 51904 H 4872.82 -2.96561 2.9344 0
M  V30 51905 H 4871.45 -2.65484 1.83625 0
M  V30 51906 H 4870.5 -1.05743 3.65408 0
M  V30 51907 H 4871.81 -1.59596 4.72579 0
M  V30 51908 H 4870.97 -3.94863 4.60617 0
M  V30 51909 H 4869.71 -3.45645 3.44066 0
M  V30 51910 H 4868.71 -1.9146 5.15387 0
M  V30 51911 H 4869.94 -2.43474 6.33953 0
M  V30 51912 H 4867.88 -4.23954 5.00599 0
M  V30 51913 H 4867.8 -3.63565 6.6284 0
M  V30 51914 H 4869.07 -4.74028 6.18804 0
M  V30 51915 N 4873.3 -1.55792 -0.238056 0
M  V30 51916 C 4874.71 -1.48413 -0.586993 0
M  V30 51917 C 4874.91 -0.727086 -1.87925 0
M  V30 51918 O 4873.97 -0.26003 -2.51158 0
M  V30 51919 C 4875.28 -2.92875 -0.68152 0
M  V30 51920 C 4876.83 -3.03298 -0.773256 0
M  V30 51921 C 4877.3 -4.49085 -0.89927 0
M  V30 51922 N 4878.79 -4.53059 -0.963916 0
M  V30 51923 C 4879.53 -5.63121 -1.08084 0
M  V30 51924 N 4879.03 -6.82973 -1.16275 0
M  V30 51925 N 4880.82 -5.50937 -1.11469 0
M  V30 51926 H 4872.97 -2.03448 0.610148 0
M  V30 51927 H 4875.23 -0.924027 0.211846 0
M  V30 51928 H 4874.94 -3.51141 0.198144 0
M  V30 51929 H 4874.81 -3.43856 -1.55057 0
M  V30 51930 H 4877.2 -2.45107 -1.64337 0
M  V30 51931 H 4877.28 -2.55513 0.121124 0
M  V30 51932 H 4876.92 -5.07889 -0.03368 0
M  V30 51933 H 4876.85 -4.9456 -1.80882 0
M  V30 51934 H 4879.35 -3.6674 -0.911602 0
M  V30 51935 H 4879.66 -7.62603 -1.25128 0
M  V30 51936 H 4878 -6.85716 -1.13217 0
M  V30 51937 H 4881.19 -4.56235 -1.04724 0
M  V30 51938 H 4881.37 -6.36747 -1.20236 0
M  V30 51939 N 4874.77 0.504089 -1.49321 0
M  V30 51940 C 4875.7 1.61467 -1.68673 0
M  V30 51941 C 4876.68 1.61453 -0.535435 0
M  V30 51942 O 4877.87 1.78242 -0.77093 0
M  V30 51943 C 4875 2.99965 -1.75038 0
M  V30 51944 C 4873.95 3.14843 -2.89927 0
M  V30 51945 C 4873.28 4.54661 -2.81403 0
M  V30 51946 C 4874.58 2.95161 -4.30903 0
M  V30 51947 H 4876.27 1.45526 -2.61653 0
M  V30 51948 H 4873.82 0.698667 -1.25915 0
M  V30 51949 H 4875.77 3.77555 -1.87163 0
M  V30 51950 H 4874.5 3.16987 -0.786552 0
M  V30 51951 H 4873.16 2.39677 -2.77399 0
M  V30 51952 H 4872.8 4.68555 -1.82934 0
M  V30 51953 H 4872.5 4.65557 -3.58511 0
M  V30 51954 H 4874.03 5.34316 -2.95531 0
M  V30 51955 H 4875.44 3.62523 -4.44129 0
M  V30 51956 H 4873.84 3.17531 -5.09209 0
M  V30 51957 H 4874.91 1.91316 -4.45563 0
M  V30 51958 N 4876.25 1.38343 0.754909 0
M  V30 51959 C 4877.21 1.35268 1.85027 0
M  V30 51960 C 4878.21 0.253449 1.5879 0
M  V30 51961 O 4879.4 0.510264 1.66559 0
M  V30 51962 C 4876.54 1.10556 3.22475 0
M  V30 51963 H 4877.73 2.32718 1.89162 0
M  V30 51964 H 4875.28 1.23618 0.956471 0
M  V30 51965 H 4876.02 0.137066 3.2401 0
M  V30 51966 H 4875.8 1.90139 3.42913 0
M  V30 51967 H 4877.29 1.11096 4.02551 0
M  V30 51968 N 4877.73 -0.982945 1.23191 0
M  V30 51969 C 4878.98 -1.72644 1.06404 0
M  V30 51970 C 4879.31 -1.90068 -0.398494 0
M  V30 51971 O 4878.58 -1.45109 -1.29513 0
M  V30 51972 C 4878.87 -3.12621 1.78718 0
M  V30 51973 C 4878.72 -3.02784 3.32629 0
M  V30 51974 C 4880.04 -4.11991 1.54762 0
M  V30 51975 H 4877.16 -0.626635 0.38794 0
M  V30 51976 H 4879.8 -1.1445 1.51662 0
M  V30 51977 H 4877.95 -3.62303 1.40246 0
M  V30 51978 H 4879.62 -2.60646 3.80607 0
M  V30 51979 H 4877.86 -2.3935 3.61793 0
M  V30 51980 H 4878.54 -4.0188 3.78414 0
M  V30 51981 H 4881.01 -3.71107 1.88199 0
M  V30 51982 H 4879.89 -5.0803 2.07839 0
M  V30 51983 H 4880.15 -4.3946 0.482403 0
M  V30 51984 N 4879.21 -1.0432 -1.18132 0
M  V30 51985 C 4880.46 -0.748086 -1.88175 0
M  V30 51986 C 4880.78 0.724347 -1.80509 0
M  V30 51987 O 4880.04 1.54459 -1.2017 0
M  V30 51988 C 4880.34 -1.16283 -3.37954 0
M  V30 51989 C 4880 -2.63597 -3.65824 0
M  V30 51990 C 4878.67 -3.03842 -3.7314 0
M  V30 51991 C 4881.02 -3.58835 -3.78003 0
M  V30 51992 C 4878.35 -4.38207 -3.90117 0
M  V30 51993 C 4880.7 -4.92923 -3.96497 0
M  V30 51994 C 4879.36 -5.32834 -4.0205 0
M  V30 51995 H 4878.63 -0.273744 -0.688582 0
M  V30 51996 H 4881.28 -1.30868 -1.39806 0
M  V30 51997 H 4879.58 -0.521075 -3.8832 0
M  V30 51998 H 4881.28 -0.911809 -3.90496 0
M  V30 51999 H 4877.87 -2.31427 -3.60748 0
M  V30 52000 H 4882.05 -3.28888 -3.71681 0
M  V30 52001 H 4877.31 -4.68645 -3.9266 0
M  V30 52002 H 4881.48 -5.66621 -4.04863 0
M  V30 52003 H 4879.11 -6.36957 -4.14957 0
M  V30 52004 N 4880.69 1.34403 -0.823012 0
M  V30 52005 C 4881.91 2.03038 -0.423105 0
M  V30 52006 C 4882.34 1.61571 0.96314 0
M  V30 52007 O 4881.69 0.800396 1.62676 0
M  V30 52008 C 4881.74 3.56634 -0.533335 0
M  V30 52009 O 4880.85 4.09973 0.446795 0
M  V30 52010 H 4880.19 0.640744 -0.174194 0
M  V30 52011 H 4882.72 1.71649 -1.11345 0
M  V30 52012 H 4882.73 4.05943 -0.409134 0
M  V30 52013 H 4881.4 3.86163 -1.54438 0
M  V30 52014 H 4879.98 3.71836 0.28147 0
M  V30 52015 N 4882.16 0.577983 1.46619 0
M  V30 52016 C 4883.1 -0.19572 2.28363 0
M  V30 52017 C 4884.11 -0.859934 1.38235 0
M  V30 52018 O 4885.3 -0.730291 1.62877 0
M  V30 52019 C 4882.4 -1.29628 3.13129 0
M  V30 52020 C 4881.57 -0.724898 4.31351 0
M  V30 52021 C 4880.63 -1.71256 4.97552 0
M  V30 52022 O 4879.66 -1.25048 5.55294 0
M  V30 52023 N 4880.86 -3.04655 4.94131 0
M  V30 52024 H 4883.62 0.505571 2.95405 0
M  V30 52025 H 4881.18 0.415436 1.56479 0
M  V30 52026 H 4883.18 -1.95619 3.54282 0
M  V30 52027 H 4881.75 -1.9005 2.48193 0
M  V30 52028 H 4880.97 0.112344 3.9404 0
M  V30 52029 H 4882.25 -0.322856 5.07775 0
M  V30 52030 H 4881.65 -3.44824 4.48456 0
M  V30 52031 H 4880.21 -3.66147 5.3924 0
M  V30 52032 N 4883.64 -1.54409 0.315511 0
M  V30 52033 C 4885.05 -1.85886 -0.1742 0
M  V30 52034 C 4885.4 -1.23728 -1.52269 0
M  V30 52035 O 4884.53 -0.54032 -2.09546 0
M  V30 52036 C 4885.12 -3.37258 -0.322862 0
M  V30 52037 C 4883.68 -3.68713 -0.756793 0
M  V30 52038 C 4882.83 -2.77012 0.126292 0
M  V30 52039 H 4885.78 -1.49372 0.53606 0
M  V30 52040 H 4885.8 -3.62543 -1.1551 0
M  V30 52041 H 4885.31 -3.82469 0.658736 0
M  V30 52042 H 4883.42 -3.2903 -1.74842 0
M  V30 52043 H 4883.53 -4.75743 -0.566123 0
M  V30 52044 H 4881.89 -2.5159 -0.396831 0
M  V30 52045 H 4882.68 -3.25047 1.10451 0
M  V30 52046 N 4885.12 -0.0435168 -1.5754 0
M  V30 52047 C 4886.37 0.631387 -1.91563 0
M  V30 52048 C 4886.68 1.72454 -0.92298 0
M  V30 52049 O 4887.89 2.45708 -1.15498 0
M  V30 52050 C 4886.34 1.17435 -3.40202 0
M  V30 52051 C 4885.95 0.11371 -4.47856 0
M  V30 52052 C 4887.7 1.82493 -3.83271 0
M  V30 52053 C 4885.6 0.669119 -5.87603 0
M  V30 52054 H 4884.53 0.239604 -0.714917 0
M  V30 52055 H 4887.18 -0.111162 -1.83163 0
M  V30 52056 H 4885.57 1.96897 -3.43581 0
M  V30 52057 H 4886.74 -0.659508 -4.56056 0
M  V30 52058 H 4885.06 -0.438966 -4.1408 0
M  V30 52059 H 4887.65 2.2503 -4.85042 0
M  V30 52060 H 4888 2.67354 -3.19104 0
M  V30 52061 H 4888.53 1.09699 -3.82375 0
M  V30 52062 H 4885.27 -0.14168 -6.55347 0
M  V30 52063 H 4884.79 1.4105 -5.82979 0
M  V30 52064 H 4886.47 1.1544 -6.36618 0
M  V30 52065 N 4886.6 1.55916 0.229791 0
M  V30 52066 C 4887.85 1.77745 0.953393 0
M  V30 52067 C 4888.16 0.61059 1.85826 0
M  V30 52068 O 4889.37 0.712311 2.61989 0
M  V30 52069 C 4887.82 3.14744 1.7454 0
M  V30 52070 C 4887.43 4.3913 0.887088 0
M  V30 52071 C 4889.17 3.45903 2.46071 0
M  V30 52072 C 4887.08 5.67155 1.67597 0
M  V30 52073 H 4886.01 0.662661 0.359718 0
M  V30 52074 H 4888.66 1.82323 0.207512 0
M  V30 52075 H 4887.04 3.0432 2.53388 0
M  V30 52076 H 4888.22 4.60588 0.13973 0
M  V30 52077 H 4886.53 4.15428 0.284296 0
M  V30 52078 H 4889.13 4.38777 3.05579 0
M  V30 52079 H 4889.47 2.68018 3.18546 0
M  V30 52080 H 4890.01 3.5762 1.7422 0
M  V30 52081 H 4886.75 6.4791 0.994653 0
M  V30 52082 H 4886.27 5.49771 2.39816 0
M  V30 52083 H 4887.94 6.07032 2.23876 0
M  V30 52084 N 4888.08 -0.496163 1.49586 0
M  V30 52085 C 4889.02 -1.61799 1.67104 0
M  V30 52086 C 4890.02 -1.60665 0.536934 0
M  V30 52087 O 4891.22 -1.65116 0.716712 0
M  V30 52088 H 4887.6 -0.536442 0.527005 0
M  V30 52089 H 4889.57 -1.44178 2.61257 0
M  V30 52090 C 4888.32 -2.99906 1.75931 0
M  V30 52091 H 4887.64 -3.01486 2.62576 0
M  V30 52092 H 4889.08 -3.77924 1.92222 0
M  V30 52093 C 4887.54 -3.33091 0.505205 0
M  V30 52094 O 4888.07 -4.00021 -0.366944 0
M  V30 52095 N 4886.28 -2.88277 0.3667 0
M  V30 52096 H 4885.82 -2.33986 1.07743 0
M  V30 52097 H 4885.78 -3.10847 -0.471311 0
M  V30 52098 N 4889.55 -1.38742 -0.747561 0
M  V30 52099 C 4890.5 -1.36455 -1.86141 0
M  V30 52100 C 4891.47 -0.226156 -1.64553 0
M  V30 52101 O 4892.66 -0.419325 -1.86135 0
M  V30 52102 C 4889.8 -1.20141 -3.23512 0
M  V30 52103 C 4888.91 -2.43419 -3.56891 0
M  V30 52104 C 4888.04 -2.1979 -4.83597 0
M  V30 52105 C 4887.08 -3.38808 -5.0978 0
M  V30 52106 N 4886.22 -3.14575 -6.27684 0
M  V30 52107 H 4891.06 -2.31676 -1.8743 0
M  V30 52108 H 4888.6 -1.15098 -0.916022 0
M  V30 52109 H 4890.56 -1.08697 -4.02791 0
M  V30 52110 H 4889.19 -0.285566 -3.21534 0
M  V30 52111 H 4888.24 -2.65514 -2.72409 0
M  V30 52112 H 4889.55 -3.32107 -3.72165 0
M  V30 52113 H 4888.7 -2.05516 -5.70831 0
M  V30 52114 H 4887.44 -1.28477 -4.70473 0
M  V30 52115 H 4886.45 -3.53594 -4.21012 0
M  V30 52116 H 4887.67 -4.31004 -5.24797 0
M  V30 52117 H 4885.62 -2.25915 -6.15872 0
M  V30 52118 H 4885.54 -3.96814 -6.43487 0
M  V30 52119 H 4886.8 -3.03969 -7.17791 0
M  V30 52120 N 4891.03 0.976398 -1.2371 0
M  V30 52121 C 4892.28 1.72077 -1.07318 0
M  V30 52122 C 4892.61 1.90276 0.388409 0
M  V30 52123 O 4891.89 1.45794 1.28741 0
M  V30 52124 C 4892.17 3.11669 -1.80374 0
M  V30 52125 C 4892.02 3.01015 -3.3423 0
M  V30 52126 C 4893.34 4.11165 -1.56944 0
M  V30 52127 H 4890.46 0.624569 -0.391258 0
M  V30 52128 H 4893.1 1.13644 -1.52267 0
M  V30 52129 H 4891.25 3.61554 -1.42166 0
M  V30 52130 H 4892.92 2.58623 -3.81984 0
M  V30 52131 H 4891.17 2.37428 -3.63057 0
M  V30 52132 H 4891.84 3.99867 -3.8054 0
M  V30 52133 H 4894.31 3.70104 -1.90164 0
M  V30 52134 H 4893.19 5.0692 -2.10531 0
M  V30 52135 H 4893.45 4.39198 -0.505702 0
M  V30 52136 N 4892.51 1.04945 1.17577 0
M  V30 52137 C 4893.46 0.648233 2.2151 0
M  V30 52138 C 4894.43 -0.348374 1.62406 0
M  V30 52139 O 4895.61 -0.240352 1.8928 0
M  V30 52140 C 4892.75 0.0265504 3.4509 0
M  V30 52141 C 4891.87 1.07169 4.18496 0
M  V30 52142 C 4891 0.417589 5.29556 0
M  V30 52143 C 4890.04 1.44721 5.94746 0
M  V30 52144 N 4889.18 0.817448 6.97325 0
M  V30 52145 H 4894.02 1.539 2.55184 0
M  V30 52146 H 4891.55 0.769743 1.25353 0
M  V30 52147 H 4893.51 -0.35131 4.15718 0
M  V30 52148 H 4892.14 -0.827692 3.12008 0
M  V30 52149 H 4891.19 1.56741 3.46607 0
M  V30 52150 H 4892.51 1.85336 4.63089 0
M  V30 52151 H 4891.66 -0.0139928 6.06698 0
M  V30 52152 H 4890.4 -0.396094 4.86089 0
M  V30 52153 H 4889.4 1.88883 5.16336 0
M  V30 52154 H 4890.63 2.26275 6.40294 0
M  V30 52155 H 4888.57 0.0242301 6.55996 0
M  V30 52156 H 4888.49 1.5367 7.40217 0
M  V30 52157 H 4889.76 0.410557 7.78418 0
M  V30 52158 N 4893.99 -1.33965 0.830128 0
M  V30 52159 C 4895.4 -1.80437 0.479518 0
M  V30 52160 C 4895.75 -1.6876 -1.00073 0
M  V30 52161 O 4894.88 -1.23177 -1.77922 0
M  V30 52162 C 4895.47 -3.27608 0.86362 0
M  V30 52163 C 4894.03 -3.72131 0.565276 0
M  V30 52164 C 4893.18 -2.55545 1.07666 0
M  V30 52165 H 4896.13 -1.2161 1.01964 0
M  V30 52166 H 4896.15 -3.80119 0.170217 0
M  V30 52167 H 4895.66 -3.36075 1.94101 0
M  V30 52168 H 4893.76 -3.69197 -0.502407 0
M  V30 52169 H 4893.88 -4.6596 1.11439 0
M  V30 52170 H 4892.24 -2.49786 0.497895 0
M  V30 52171 H 4893.02 -2.66779 2.16065 0
M  V30 52172 N 4895.47 -0.585751 -1.4631 0
M  V30 52173 C 4896.4 0.183607 -2.28463 0
M  V30 52174 C 4897.41 0.852591 -1.38689 0
M  V30 52175 O 4898.6 0.721643 -1.63262 0
M  V30 52176 C 4895.7 1.27966 -3.13812 0
M  V30 52177 C 4894.87 0.702012 -4.3173 0
M  V30 52178 C 4893.93 1.68615 -4.98453 0
M  V30 52179 O 4892.96 1.22101 -5.5595 0
M  V30 52180 N 4894.16 3.0203 -4.9574 0
M  V30 52181 H 4896.93 -0.52123 -2.95133 0
M  V30 52182 H 4894.49 -0.423728 -1.56257 0
M  V30 52183 H 4896.48 1.93737 -3.55314 0
M  V30 52184 H 4895.05 1.88731 -2.49197 0
M  V30 52185 H 4894.27 -0.133239 -3.93975 0
M  V30 52186 H 4895.56 0.295923 -5.07939 0
M  V30 52187 H 4894.96 3.42441 -4.50278 0
M  V30 52188 H 4893.51 3.63282 -5.41174 0
M  V30 52189 N 4896.95 1.5424 -0.323695 0
M  V30 52190 C 4897.88 2.2729 0.534913 0
M  V30 52191 C 4898.86 1.28091 1.11923 0
M  V30 52192 O 4900.04 1.56903 1.14433 0
M  V30 52193 C 4897.17 3.03081 1.69586 0
M  V30 52194 C 4896.13 4.09619 1.24083 0
M  V30 52195 C 4895.45 4.73251 2.48873 0
M  V30 52196 C 4896.75 5.21088 0.355606 0
M  V30 52197 H 4898.45 2.99307 -0.074431 0
M  V30 52198 H 4895.99 1.43952 -0.037238 0
M  V30 52199 H 4897.94 3.52915 2.3028 0
M  V30 52200 H 4896.67 2.28681 2.33179 0
M  V30 52201 H 4895.33 3.60668 0.656818 0
M  V30 52202 H 4894.98 3.95466 3.10831 0
M  V30 52203 H 4894.68 5.45216 2.19119 0
M  V30 52204 H 4896.2 5.25859 3.1033 0
M  V30 52205 H 4897.61 5.66678 0.868843 0
M  V30 52206 H 4896.01 5.9991 0.150834 0
M  V30 52207 H 4897.08 4.81003 -0.613508 0
M  V30 52208 N 4898.42 0.0518709 1.57515 0
M  V30 52209 C 4899.35 -0.920208 2.14603 0
M  V30 52210 C 4900.33 -1.32402 1.06788 0
M  V30 52211 O 4901.52 -1.39862 1.34731 0
M  V30 52212 C 4898.65 -2.1948 2.69158 0
M  V30 52213 C 4897.6 -1.93103 3.81962 0
M  V30 52214 C 4896.93 -3.27022 4.23037 0
M  V30 52215 C 4898.23 -1.25208 5.0707 0
M  V30 52216 H 4899.92 -0.444697 2.96079 0
M  V30 52217 H 4897.47 -0.212458 1.42424 0
M  V30 52218 H 4899.42 -2.87884 3.07735 0
M  V30 52219 H 4898.15 -2.69238 1.84874 0
M  V30 52220 H 4896.81 -1.27111 3.43858 0
M  V30 52221 H 4896.45 -3.74583 3.35703 0
M  V30 52222 H 4896.15 -3.10172 4.99066 0
M  V30 52223 H 4897.68 -3.96656 4.64216 0
M  V30 52224 H 4899.09 -1.83647 5.4309 0
M  V30 52225 H 4897.49 -1.18681 5.88247 0
M  V30 52226 H 4898.56 -0.228212 4.84363 0
M  V30 52227 N 4899.9 -1.56035 -0.221519 0
M  V30 52228 C 4900.85 -1.92418 -1.27452 0
M  V30 52229 C 4901.82 -0.781375 -1.46573 0
M  V30 52230 O 4903 -1.03727 -1.60142 0
M  V30 52231 C 4900.14 -2.24626 -2.61987 0
M  V30 52232 C 4899.26 -3.5184 -2.50664 0
M  V30 52233 C 4898.39 -3.73496 -3.77723 0
M  V30 52234 C 4897.43 -4.94224 -3.61122 0
M  V30 52235 N 4896.57 -5.12269 -4.8013 0
M  V30 52236 H 4901.41 -2.82207 -0.957256 0
M  V30 52237 H 4898.94 -1.39678 -0.461365 0
M  V30 52238 H 4900.9 -2.4131 -3.40331 0
M  V30 52239 H 4899.53 -1.3801 -2.9181 0
M  V30 52240 H 4898.58 -3.43349 -1.63755 0
M  V30 52241 H 4899.9 -4.40336 -2.34319 0
M  V30 52242 H 4899.05 -3.90277 -4.6451 0
M  V30 52243 H 4897.79 -2.8328 -3.96993 0
M  V30 52244 H 4896.79 -4.77393 -2.72719 0
M  V30 52245 H 4898.02 -5.85924 -3.43322 0
M  V30 52246 H 4895.97 -4.24996 -4.99714 0
M  V30 52247 H 4895.88 -5.94898 -4.66511 0
M  V30 52248 H 4897.15 -5.33485 -5.68343 0
M  V30 52249 N 4901.38 0.488223 -1.49847 0
M  V30 52250 C 4902.61 1.26522 -1.63707 0
M  V30 52251 C 4903.02 1.86179 -0.313512 0
M  V30 52252 O 4902.38 1.68435 0.702565 0
M  V30 52253 C 4902.43 2.38631 -2.71547 0
M  V30 52254 O 4902.15 1.81423 -3.9877 0
M  V30 52255 C 4903.65 3.29795 -2.96227 0
M  V30 52256 H 4900.87 0.383276 -0.550764 0
M  V30 52257 H 4903.42 0.58471 -1.95963 0
M  V30 52258 H 4901.57 3.02488 -2.42033 0
M  V30 52259 H 4901.99 2.55118 -4.58274 0
M  V30 52260 H 4903.46 4.04709 -3.75386 0
M  V30 52261 H 4903.94 3.87556 -2.06632 0
M  V30 52262 H 4904.54 2.71692 -3.27206 0
M  V30 52263 N 4902.86 1.39136 0.740193 0
M  V30 52264 C 4903.81 1.33935 1.84514 0
M  V30 52265 C 4904.79 0.221153 1.59373 0
M  V30 52266 O 4905.98 0.458255 1.70965 0
M  V30 52267 C 4903.11 1.18002 3.22382 0
M  V30 52268 C 4902.2 2.345 3.5337 0
M  V30 52269 N 4902.59 3.59967 3.55327 0
M  V30 52270 C 4900.89 2.27345 3.83706 0
M  V30 52271 C 4901.59 4.36975 3.83963 0
M  V30 52272 N 4900.56 3.66496 4.01474 0
M  V30 52273 H 4904.37 2.28914 1.84325 0
M  V30 52274 H 4901.88 1.32558 0.93819 0
M  V30 52275 H 4903.88 1.12359 4.01474 0
M  V30 52276 H 4902.54 0.239684 3.23814 0
M  V30 52277 H 4903.55 3.9346 3.36764 0
M  V30 52278 H 4900.23 1.41544 3.92774 0
M  V30 52279 H 4901.62 5.45706 3.91988 0
M  V30 52280 N 4904.34 -0.969824 1.24226 0
M  V30 52281 C 4905.58 -1.71252 1.08069 0
M  V30 52282 C 4905.91 -1.90736 -0.380805 0
M  V30 52283 O 4905.17 -1.46474 -1.29784 0
M  V30 52284 C 4905.46 -3.10877 1.76324 0
M  V30 52285 C 4905.13 -3.11241 3.26252 0
M  V30 52286 C 4903.79 -3.11047 3.67155 0
M  V30 52287 C 4906.14 -3.05737 4.22107 0
M  V30 52288 C 4903.47 -3.03079 5.02354 0
M  V30 52289 C 4905.82 -2.99311 5.57311 0
M  V30 52290 C 4904.49 -2.97445 5.97564 0
M  V30 52291 H 4903.76 -0.626656 0.395453 0
M  V30 52292 H 4906.41 -1.13417 1.54301 0
M  V30 52293 H 4904.71 -3.72163 1.22481 0
M  V30 52294 H 4906.41 -3.67133 1.6129 0
M  V30 52295 H 4903 -3.12155 2.93696 0
M  V30 52296 H 4907.18 -3.05017 3.91508 0
M  V30 52297 H 4902.44 -2.99994 5.32741 0
M  V30 52298 H 4906.61 -2.94011 6.31293 0
M  V30 52299 H 4904.24 -2.91026 7.02288 0
M  V30 52300 N 4905.81 -1.05567 -1.17018 0
M  V30 52301 C 4906.74 -0.681104 -2.23346 0
M  V30 52302 C 4907.72 0.322924 -1.67007 0
M  V30 52303 O 4908.91 0.199679 -1.93171 0
M  V30 52304 C 4906.04 -0.0590274 -3.4725 0
M  V30 52305 C 4904.99 -0.988228 -4.16435 0
M  V30 52306 C 4904.32 -0.229834 -5.34206 0
M  V30 52307 C 4905.62 -2.31405 -4.68241 0
M  V30 52308 H 4907.31 -1.57002 -2.54933 0
M  V30 52309 H 4904.86 -0.756345 -1.22537 0
M  V30 52310 H 4906.81 0.214834 -4.20852 0
M  V30 52311 H 4905.54 0.864858 -3.14941 0
M  V30 52312 H 4904.2 -1.24672 -3.4475 0
M  V30 52313 H 4903.84 0.696936 -4.98148 0
M  V30 52314 H 4903.54 -0.849019 -5.81434 0
M  V30 52315 H 4905.07 0.0366548 -6.10589 0
M  V30 52316 H 4906.48 -2.09982 -5.33461 0
M  V30 52317 H 4904.88 -2.88754 -5.26062 0
M  V30 52318 H 4905.95 -2.94995 -3.84845 0
M  V30 52319 N 4907.29 1.33523 -0.837221 0
M  V30 52320 C 4908.7 1.8018 -0.48908 0
M  V30 52321 C 4909.05 1.69288 0.991766 0
M  V30 52322 O 4908.18 1.24119 1.77266 0
M  V30 52323 C 4908.77 3.27145 -0.880981 0
M  V30 52324 C 4907.33 3.71826 -0.585003 0
M  V30 52325 C 4906.48 2.5497 -1.0902 0
M  V30 52326 H 4909.43 1.21068 -1.02607 0
M  V30 52327 H 4909.45 3.80023 -0.190373 0
M  V30 52328 H 4908.96 3.35041 -1.9588 0
M  V30 52329 H 4907.06 3.69459 0.48282 0
M  V30 52330 H 4907.18 4.65362 -1.13908 0
M  V30 52331 H 4905.54 2.49519 -0.511135 0
M  V30 52332 H 4906.32 2.65629 -2.17477 0
M  V30 52333 N 4908.77 0.593501 1.45998 0
M  V30 52334 C 4909.7 -0.12111 2.33186 0
M  V30 52335 C 4910.68 -0.872926 1.45993 0
M  V30 52336 O 4911.87 -0.84626 1.74792 0
M  V30 52337 C 4909 -1.12833 3.2846 0
M  V30 52338 C 4907.95 -0.49065 4.25178 0
M  V30 52339 C 4907.28 -1.60511 5.1004 0
M  V30 52340 C 4908.58 0.579132 5.19079 0
M  V30 52341 H 4910.27 0.60687 2.93185 0
M  V30 52342 H 4907.82 0.293291 1.40982 0
M  V30 52343 H 4909.77 -1.6367 3.88317 0
M  V30 52344 H 4908.49 -1.88672 2.6659 0
M  V30 52345 H 4907.15 -0.0032644 3.666 0
M  V30 52346 H 4906.8 -2.35344 4.44547 0
M  V30 52347 H 4906.5 -1.18402 5.75547 0
M  V30 52348 H 4908.02 -2.11603 5.72762 0
M  V30 52349 H 4909.44 0.1554 5.73089 0
M  V30 52350 H 4907.84 0.921155 5.92988 0
M  V30 52351 H 4908.91 1.46125 4.62359 0
M  V30 52352 N 4910.25 -1.54066 0.33187 0
M  V30 52353 C 4911.18 -2.20888 -0.573049 0
M  V30 52354 C 4912.16 -1.1888 -1.10934 0
M  V30 52355 O 4913.34 -1.47653 -1.17179 0
M  V30 52356 C 4910.47 -2.87712 -1.78716 0
M  V30 52357 C 4909.52 -4.0351 -1.38137 0
M  V30 52358 S 4910.35 -5.3392 -0.411042 0
M  V30 52359 C 4911.51 -6.04242 -1.63225 0
M  V30 52360 H 4911.74 -2.97299 -0.00545286 0
M  V30 52361 H 4909.27 -1.53964 0.115947 0
M  V30 52362 H 4911.23 -3.26834 -2.48375 0
M  V30 52363 H 4909.89 -2.11088 -2.32595 0
M  V30 52364 H 4909.08 -4.4916 -2.28629 0
M  V30 52365 H 4908.69 -3.66105 -0.764395 0
M  V30 52366 H 4910.98 -6.26926 -2.56847 0
M  V30 52367 H 4911.92 -6.9755 -1.21775 0
M  V30 52368 H 4912.33 -5.34254 -1.823 0
M  V30 52369 N 4911.73 -0.0602235 -1.57485 0
M  V30 52370 C 4912.64 0.926045 -2.15549 0
M  V30 52371 C 4913.65 1.33528 -1.11563 0
M  V30 52372 O 4914.83 1.41035 -1.43775 0
M  V30 52373 C 4911.89 2.17943 -2.69633 0
M  V30 52374 C 4910.95 1.8277 -3.88451 0
M  V30 52375 C 4910.19 3.02132 -4.39945 0
M  V30 52376 O 4910.41 4.1579 -3.90481 0
M  V30 52377 O 4909.34 2.8262 -5.31422 0
M  V30 52378 H 4913.17 0.462183 -3.00163 0
M  V30 52379 H 4910.76 0.162194 -1.48517 0
M  V30 52380 H 4912.64 2.91463 -3.04347 0
M  V30 52381 H 4911.31 2.63449 -1.88086 0
M  V30 52382 H 4910.22 1.06537 -3.5861 0
M  V30 52383 H 4911.55 1.42055 -4.71255 0
M  V30 52384 N 4913.2 1.56151 0.213241 0
M  V30 52385 C 4914.15 1.93091 1.2643 0
M  V30 52386 C 4915.12 0.789137 1.46157 0
M  V30 52387 O 4916.31 1.04575 1.59589 0
M  V30 52388 C 4913.45 2.26012 2.60792 0
M  V30 52389 C 4912.56 3.53165 2.48795 0
M  V30 52390 C 4911.69 3.75494 3.75737 0
M  V30 52391 C 4910.73 4.96132 3.58496 0
M  V30 52392 N 4909.87 5.14808 4.77407 0
M  V30 52393 H 4914.71 2.8271 0.942277 0
M  V30 52394 H 4912.25 1.3992 0.453951 0
M  V30 52395 H 4914.21 2.43112 3.39046 0
M  V30 52396 H 4912.84 1.39556 2.91074 0
M  V30 52397 H 4911.89 3.44213 1.61932 0
M  V30 52398 H 4913.2 4.41573 2.3198 0
M  V30 52399 H 4912.35 3.92734 4.62433 0
M  V30 52400 H 4911.09 2.85382 3.95485 0
M  V30 52401 H 4910.1 4.78833 2.70184 0
M  V30 52402 H 4911.32 5.87736 3.4021 0
M  V30 52403 H 4909.27 4.2764 4.97453 0
M  V30 52404 H 4909.19 5.97363 4.6335 0
M  V30 52405 H 4910.45 5.36491 5.65506 0
M  V30 52406 N 4914.68 -0.48027 1.50104 0
M  V30 52407 C 4915.61 -1.58763 1.71221 0
M  V30 52408 C 4916.59 -1.60581 0.561053 0
M  V30 52409 O 4917.78 -1.76993 0.79919 0
M  V30 52410 C 4914.91 -2.97142 1.79789 0
M  V30 52411 C 4913.86 -3.10191 2.94899 0
M  V30 52412 C 4913.19 -4.50127 2.886 0
M  V30 52413 C 4914.49 -2.88268 4.35544 0
M  V30 52414 H 4916.18 -1.41345 2.63935 0
M  V30 52415 H 4913.73 -0.678546 1.27011 0
M  V30 52416 H 4915.68 -3.7453 1.93146 0
M  V30 52417 H 4914.41 -3.15696 0.836883 0
M  V30 52418 H 4913.06 -2.35234 2.81177 0
M  V30 52419 H 4912.71 -4.65586 1.90365 0
M  V30 52420 H 4912.41 -4.59795 3.65872 0
M  V30 52421 H 4913.94 -5.29547 3.03994 0
M  V30 52422 H 4915.35 -3.55411 4.4984 0
M  V30 52423 H 4913.75 -3.0939 5.14197 0
M  V30 52424 H 4914.82 -1.84203 4.4855 0
M  V30 52425 N 4916.16 -1.39527 -0.732804 0
M  V30 52426 C 4917.11 -1.38422 -1.84683 0
M  V30 52427 C 4918.08 -0.243597 -1.64304 0
M  V30 52428 O 4919.26 -0.439044 -1.8568 0
M  V30 52429 C 4916.4 -1.23566 -3.2222 0
M  V30 52430 C 4915.52 -2.47191 -3.54289 0
M  V30 52431 C 4914.65 -2.24906 -4.81239 0
M  V30 52432 C 4913.69 -3.44195 -5.06158 0
M  V30 52433 N 4912.83 -3.21214 -6.24312 0
M  V30 52434 H 4917.67 -2.33651 -1.84962 0
M  V30 52435 H 4915.2 -1.16063 -0.903763 0
M  V30 52436 H 4917.16 -1.12963 -4.01616 0
M  V30 52437 H 4915.79 -0.319653 -3.21213 0
M  V30 52438 H 4914.84 -2.68388 -2.69577 0
M  V30 52439 H 4916.16 -3.36035 -3.68621 0
M  V30 52440 H 4915.31 -2.11558 -5.68619 0
M  V30 52441 H 4914.05 -1.3346 -4.69084 0
M  V30 52442 H 4913.05 -3.58039 -4.17238 0
M  V30 52443 H 4914.28 -4.36546 -5.20196 0
M  V30 52444 H 4912.22 -2.32434 -6.13441 0
M  V30 52445 H 4912.14 -4.03616 -6.39242 0
M  V30 52446 H 4913.41 -3.11565 -7.14526 0
M  V30 52447 N 4917.64 0.963222 -1.24739 0
M  V30 52448 C 4918.59 2.05853 -1.04371 0
M  V30 52449 C 4919.56 1.66041 0.0444367 0
M  V30 52450 O 4920.74 1.90476 -0.111066 0
M  V30 52451 C 4917.88 3.38743 -0.659355 0
M  V30 52452 C 4916.99 3.91723 -1.82145 0
M  V30 52453 C 4916.13 5.12901 -1.38226 0
M  V30 52454 C 4915.17 5.58089 -2.51402 0
M  V30 52455 N 4914.3 6.70483 -2.08319 0
M  V30 52456 H 4919.14 2.22609 -1.98114 0
M  V30 52457 H 4916.68 1.09099 -0.9867 0
M  V30 52458 H 4918.64 4.15106 -0.417517 0
M  V30 52459 H 4917.27 3.21898 0.241088 0
M  V30 52460 H 4916.32 3.11959 -2.17683 0
M  V30 52461 H 4917.63 4.21216 -2.67168 0
M  V30 52462 H 4916.79 5.96653 -1.09956 0
M  V30 52463 H 4915.53 4.85103 -0.502626 0
M  V30 52464 H 4914.53 4.72907 -2.80426 0
M  V30 52465 H 4915.76 5.87899 -3.39929 0
M  V30 52466 H 4913.7 6.44411 -1.2276 0
M  V30 52467 H 4913.62 6.99448 -2.86894 0
M  V30 52468 H 4914.89 7.57666 -1.83202 0
M  V30 52469 N 4919.12 1.06186 1.16457 0
M  V30 52470 C 4920.06 0.67169 2.2081 0
M  V30 52471 C 4921.03 -0.331129 1.62766 0
M  V30 52472 O 4922.22 -0.220263 1.89524 0
M  V30 52473 C 4919.36 0.0631503 3.45042 0
M  V30 52474 C 4918.47 1.11601 4.17336 0
M  V30 52475 C 4917.61 0.473732 5.29083 0
M  V30 52476 C 4916.65 1.51021 5.93177 0
M  V30 52477 N 4915.78 0.891362 6.96419 0
M  V30 52478 H 4920.62 1.56598 2.53537 0
M  V30 52479 H 4918.16 0.782995 1.2453 0
M  V30 52480 H 4920.12 -0.307197 4.16067 0
M  V30 52481 H 4918.75 -0.794553 3.12868 0
M  V30 52482 H 4917.8 1.60408 3.44925 0
M  V30 52483 H 4919.11 1.90238 4.61098 0
M  V30 52484 H 4918.27 0.0503565 6.06679 0
M  V30 52485 H 4917 -0.344516 4.86482 0
M  V30 52486 H 4916.01 1.94349 5.14304 0
M  V30 52487 H 4917.23 2.33053 6.37858 0
M  V30 52488 H 4915.18 0.0938059 6.55933 0
M  V30 52489 H 4915.1 1.61512 7.38546 0
M  V30 52490 H 4916.37 0.493095 7.77939 0
M  V30 52491 N 4920.59 -1.33077 0.84429 0
M  V30 52492 C 4921.56 -2.27402 0.286565 0
M  V30 52493 C 4922.56 -1.51181 -0.547819 0
M  V30 52494 O 4923.75 -1.70422 -0.360826 0
M  V30 52495 C 4920.88 -3.35655 -0.595695 0
M  V30 52496 H 4922.07 -2.78244 1.11895 0
M  V30 52497 H 4919.63 -1.43572 0.617799 0
M  V30 52498 H 4920.36 -2.90063 -1.4503 0
M  V30 52499 H 4920.15 -3.921 0.00139779 0
M  V30 52500 H 4921.64 -4.05962 -0.979026 0
M  V30 52501 N 4922.07 -0.601236 -1.45681 0
M  V30 52502 C 4923.04 0.111318 -2.2893 0
M  V30 52503 C 4924.04 0.801197 -1.39418 0
M  V30 52504 O 4925.23 0.650327 -1.61606 0
M  V30 52505 C 4922.36 1.16762 -3.2028 0
M  V30 52506 H 4923.55 -0.620515 -2.9341 0
M  V30 52507 H 4921.1 -0.36 -1.52098 0
M  V30 52508 H 4921.84 1.93042 -2.60586 0
M  V30 52509 H 4921.62 0.677222 -3.86207 0
M  V30 52510 H 4923.11 1.66684 -3.82892 0
M  V30 52511 N 4923.55 1.53888 -0.340036 0
M  V30 52512 C 4924.78 2.05272 0.259042 0
M  V30 52513 C 4925.19 1.21522 1.44492 0
M  V30 52514 O 4924.55 0.249724 1.80783 0
M  V30 52515 C 4924.6 3.55094 0.677509 0
M  V30 52516 O 4924.32 4.35666 -0.461204 0
M  V30 52517 C 4925.82 4.22636 1.33767 0
M  V30 52518 H 4923.04 0.669087 0.050633 0
M  V30 52519 H 4925.59 1.98518 -0.491005 0
M  V30 52520 H 4923.74 3.62082 1.3775 0
M  V30 52521 H 4924.16 5.24343 -0.128328 0
M  V30 52522 H 4925.63 5.28867 1.58126 0
M  V30 52523 H 4926.11 3.74766 2.29014 0
M  V30 52524 H 4926.71 4.19832 0.679809 0
M  V30 52525 N 4925.03 0.0685745 1.57451 0
M  V30 52526 C 4926.28 -0.602171 1.93654 0
M  V30 52527 C 4926.61 -1.69456 0.948586 0
M  V30 52528 O 4925.88 -1.94487 -0.0227136 0
M  V30 52529 C 4926.17 -1.18211 3.40144 0
M  V30 52530 C 4926.02 -0.096585 4.49696 0
M  V30 52531 C 4927.34 -2.08858 3.87384 0
M  V30 52532 H 4924.46 -0.217428 0.704197 0
M  V30 52533 H 4927.1 0.133887 1.89528 0
M  V30 52534 H 4925.25 -1.80941 3.43791 0
M  V30 52535 H 4926.92 0.536316 4.58172 0
M  V30 52536 H 4925.16 0.573214 4.29996 0
M  V30 52537 H 4925.84 -0.542701 5.49326 0
M  V30 52538 H 4928.31 -1.56067 3.85723 0
M  V30 52539 H 4927.19 -2.46372 4.90502 0
M  V30 52540 H 4927.45 -2.99561 3.2514 0
M  V30 52541 N 4926.51 -1.56262 -0.204957 0
M  V30 52542 C 4927.75 -1.8031 -0.928237 0
M  V30 52543 C 4928.09 -0.640997 -1.83316 0
M  V30 52544 O 4927.36 0.358965 -1.91159 0
M  V30 52545 C 4927.64 -3.14553 -1.75295 0
M  V30 52546 C 4927.5 -4.41239 -0.873407 0
M  V30 52547 C 4928.82 -3.45392 -2.7275 0
M  V30 52548 H 4925.94 -0.655941 -0.336021 0
M  V30 52549 H 4928.58 -1.88985 -0.196145 0
M  V30 52550 H 4926.73 -3.07288 -2.3771 0
M  V30 52551 H 4928.4 -4.6054 -0.264725 0
M  V30 52552 H 4926.64 -4.33428 -0.179621 0
M  V30 52553 H 4927.31 -5.31644 -1.48522 0
M  V30 52554 H 4929.79 -3.52892 -2.20469 0
M  V30 52555 H 4928.67 -4.40461 -3.27544 0
M  V30 52556 H 4928.93 -2.68389 -3.51311 0
M  V30 52557 N 4927.99 0.472303 -1.50356 0
M  V30 52558 C 4929.21 1.25245 -1.65313 0
M  V30 52559 C 4929.64 1.8508 -0.335708 0
M  V30 52560 O 4928.99 1.6723 0.700276 0
M  V30 52561 C 4929.04 2.3378 -2.74553 0
M  V30 52562 O 4928.15 3.38392 -2.35721 0
M  V30 52563 H 4927.49 0.368519 -0.552349 0
M  V30 52564 H 4930.02 0.562202 -1.96724 0
M  V30 52565 H 4930.03 2.79111 -2.97592 0
M  V30 52566 H 4928.7 1.89601 -3.70168 0
M  V30 52567 H 4927.28 2.98782 -2.23123 0
M  V30 52568 N 4929.46 1.39914 0.725394 0
M  V30 52569 C 4930.37 1.41695 1.86975 0
M  V30 52570 C 4931.39 0.31064 1.71205 0
M  V30 52571 O 4932.57 0.553658 1.9364 0
M  V30 52572 C 4929.63 1.26822 3.22672 0
M  V30 52573 C 4928.69 2.4751 3.50767 0
M  V30 52574 C 4927.92 2.33337 4.79989 0
M  V30 52575 O 4928.15 1.34195 5.5439 0
M  V30 52576 O 4927.08 3.22516 5.082 0
M  V30 52577 H 4930.91 2.38178 1.88428 0
M  V30 52578 H 4928.49 1.21131 0.874505 0
M  V30 52579 H 4930.37 1.20698 4.03745 0
M  V30 52580 H 4929.05 0.334402 3.21968 0
M  V30 52581 H 4927.96 2.59211 2.69742 0
M  V30 52582 H 4929.29 3.39619 3.56258 0
M  V30 52583 N 4930.94 -0.956593 1.25248 0
M  V30 52584 C 4931.85 -2.08677 1.07197 0
M  V30 52585 C 4932.87 -1.73997 0.00965191 0
M  V30 52586 O 4934.04 -2.003 0.210175 0
M  V30 52587 C 4931.11 -3.39751 0.690645 0
M  V30 52588 C 4930.17 -3.8831 1.83068 0
M  V30 52589 C 4929.4 -5.13129 1.46746 0
M  V30 52590 O 4929.63 -5.69249 0.362229 0
M  V30 52591 O 4928.56 -5.56348 2.29696 0
M  V30 52592 H 4932.39 -2.26806 2.01973 0
M  V30 52593 H 4929.97 -1.07095 1.04168 0
M  V30 52594 H 4931.85 -4.18541 0.490018 0
M  V30 52595 H 4930.53 -3.22897 -0.227867 0
M  V30 52596 H 4929.43 -3.10533 2.08615 0
M  V30 52597 H 4930.77 -4.09659 2.72837 0
M  V30 52598 N 4932.42 -1.06802 -1.15892 0
M  V30 52599 C 4933.7 -0.701122 -1.82602 0
M  V30 52600 C 4934.08 0.816997 -1.94649 0
M  V30 52601 O 4933.42 1.72928 -1.49359 0
M  V30 52602 C 4933.63 -1.40906 -3.19291 0
M  V30 52603 C 4934.98 -1.55758 -3.95 0
M  V30 52604 O 4936.01 -1.36938 -3.28826 0
M  V30 52605 O 4934.87 -1.86677 -5.13628 0
M  V30 52606 H 4931.96 -0.248818 -0.788681 0
M  V30 52607 H 4934.51 -1.16861 -1.23051 0
M  V30 52608 H 4933.28 -2.44401 -3.05588 0
M  V30 52609 H 4932.9 -0.931983 -3.86523 0
M  V30 52610 N 4933.9 1.32627 -0.851335 0
M  V30 52611 C 4934.85 2.2645 -0.265381 0
M  V30 52612 C 4935.83 1.49816 0.586847 0
M  V30 52613 O 4937.02 1.71526 0.436773 0
M  V30 52614 C 4934.15 3.38896 0.548093 0
M  V30 52615 C 4933.24 4.22919 -0.316338 0
M  V30 52616 N 4933.63 4.8601 -1.40101 0
M  V30 52617 C 4931.93 4.45875 -0.105513 0
M  V30 52618 C 4932.63 5.4866 -1.93254 0
M  V30 52619 N 4931.6 5.29451 -1.23219 0
M  V30 52620 H 4935.41 2.72753 -1.09466 0
M  V30 52621 H 4932.92 1.46678 -0.697098 0
M  V30 52622 H 4934.92 4.05115 0.98426 0
M  V30 52623 H 4933.58 2.9414 1.37521 0
M  V30 52624 H 4934.59 4.86206 -1.78394 0
M  V30 52625 H 4931.27 4.11806 0.687155 0
M  V30 52626 H 4932.66 6.08855 -2.84157 0
M  V30 52627 N 4935.38 0.608953 1.4536 0
M  V30 52628 C 4936.31 -0.0963706 2.33301 0
M  V30 52629 C 4937.29 -0.857392 1.46911 0
M  V30 52630 O 4938.47 -0.827673 1.75679 0
M  V30 52631 C 4935.6 -1.09343 3.29638 0
M  V30 52632 C 4934.56 -0.445527 4.25675 0
M  V30 52633 C 4933.88 -1.55092 5.11713 0
M  V30 52634 C 4935.18 0.634155 5.18436 0
M  V30 52635 H 4936.88 0.637932 2.92525 0
M  V30 52636 H 4934.42 0.308228 1.40663 0
M  V30 52637 H 4936.37 -1.59542 3.90031 0
M  V30 52638 H 4935.1 -1.85834 2.68576 0
M  V30 52639 H 4933.76 0.0356186 3.66583 0
M  V30 52640 H 4933.41 -2.30615 4.47019 0
M  V30 52641 H 4933.11 -1.12291 5.76771 0
M  V30 52642 H 4934.63 -2.05516 5.74974 0
M  V30 52643 H 4936.04 0.216175 5.72892 0
M  V30 52644 H 4934.44 0.983998 5.91978 0
M  V30 52645 H 4935.51 1.51021 4.60783 0
M  V30 52646 N 4936.85 -1.53705 0.348193 0
M  V30 52647 C 4937.8 -2.25175 -0.506439 0
M  V30 52648 C 4938.77 -1.25178 -1.09177 0
M  V30 52649 O 4939.96 -1.53921 -1.12752 0
M  V30 52650 C 4937.1 -3.03147 -1.64913 0
M  V30 52651 C 4936.21 -4.18006 -1.09065 0
M  V30 52652 C 4935.34 -4.83455 -2.20102 0
M  V30 52653 C 4934.38 -5.90375 -1.6163 0
M  V30 52654 N 4933.52 -6.49585 -2.66429 0
M  V30 52655 H 4938.36 -2.97799 0.109557 0
M  V30 52656 H 4935.9 -1.46953 0.0658382 0
M  V30 52657 H 4937.85 -3.46616 -2.32193 0
M  V30 52658 H 4936.48 -2.32811 -2.23604 0
M  V30 52659 H 4935.54 -3.79146 -0.30865 0
M  V30 52660 H 4936.85 -4.94894 -0.623004 0
M  V30 52661 H 4936 -5.30018 -2.95238 0
M  V30 52662 H 4934.74 -4.06 -2.70213 0
M  V30 52663 H 4933.75 -5.43189 -0.850018 0
M  V30 52664 H 4934.97 -6.69739 -1.12366 0
M  V30 52665 H 4932.92 -5.74992 -3.15785 0
M  V30 52666 H 4932.83 -7.2196 -2.243 0
M  V30 52667 H 4934.1 -7.00801 -3.41319 0
M  V30 52668 N 4938.33 -0.0769235 -1.57412 0
M  V30 52669 C 4939.3 0.873874 -2.11887 0
M  V30 52670 C 4940.3 1.22298 -1.04403 0
M  V30 52671 O 4941.49 1.15541 -1.30369 0
M  V30 52672 C 4938.62 2.17566 -2.62446 0
M  V30 52673 H 4939.81 0.401173 -2.97205 0
M  V30 52674 H 4937.36 0.17185 -1.55352 0
M  V30 52675 H 4938.1 2.69361 -1.80596 0
M  V30 52676 H 4937.88 1.93522 -3.41015 0
M  V30 52677 H 4939.37 2.8562 -3.04649 0
M  V30 52678 N 4939.81 1.56368 0.196667 0
M  V30 52679 C 4940.72 1.97622 1.26423 0
M  V30 52680 C 4941.74 0.88365 1.49892 0
M  V30 52681 O 4942.91 1.18927 1.62537 0
M  V30 52682 C 4939.98 2.30604 2.58887 0
M  V30 52683 C 4939.04 3.5356 2.43504 0
M  V30 52684 C 4938.27 3.84959 3.69651 0
M  V30 52685 O 4938.49 3.17671 4.73752 0
M  V30 52686 O 4937.43 4.78391 3.65274 0
M  V30 52687 H 4941.25 2.88652 0.944131 0
M  V30 52688 H 4938.84 1.43903 0.401541 0
M  V30 52689 H 4940.72 2.52901 3.37074 0
M  V30 52690 H 4939.4 1.42743 2.90527 0
M  V30 52691 H 4938.3 3.36512 1.63433 0
M  V30 52692 H 4939.64 4.41883 2.16796 0
M  V30 52693 N 4941.29 -0.464322 1.50605 0
M  V30 52694 C 4942.25 -1.54387 1.69402 0
M  V30 52695 C 4943.25 -1.50564 0.564557 0
M  V30 52696 O 4944.44 -1.53063 0.831699 0
M  V30 52697 C 4941.57 -2.94004 1.72553 0
M  V30 52698 H 4942.77 -1.39035 2.65724 0
M  V30 52699 H 4940.32 -0.691171 1.40187 0
M  V30 52700 H 4941.05 -3.14793 0.779491 0
M  V30 52701 H 4940.84 -2.98186 2.54613 0
M  V30 52702 H 4942.33 -3.72369 1.89028 0
M  V30 52703 N 4942.77 -1.40296 -0.717964 0
M  V30 52704 C 4944.18 -1.22274 -1.02573 0
M  V30 52705 C 4944.38 -0.0962683 -2.0127 0
M  V30 52706 O 4943.44 0.546608 -2.46513 0
M  V30 52707 C 4944.75 -2.56354 -1.57173 0
M  V30 52708 C 4946.3 -2.63346 -1.69169 0
M  V30 52709 C 4946.77 -3.97688 -2.27174 0
M  V30 52710 N 4948.27 -3.99417 -2.34563 0
M  V30 52711 C 4949 -5.00151 -2.80422 0
M  V30 52712 N 4948.5 -6.11279 -3.26051 0
M  V30 52713 N 4950.29 -4.87521 -2.79785 0
M  V30 52714 H 4942.44 -2.12304 -0.0637153 0
M  V30 52715 H 4944.7 -0.943635 -0.0908704 0
M  V30 52716 H 4944.41 -3.39423 -0.921143 0
M  V30 52717 H 4944.28 -2.77275 -2.55732 0
M  V30 52718 H 4946.67 -1.8065 -2.33345 0
M  V30 52719 H 4946.75 -2.46258 -0.69216 0
M  V30 52720 H 4946.4 -4.80823 -1.63621 0
M  V30 52721 H 4946.33 -4.12105 -3.27837 0
M  V30 52722 H 4948.82 -3.1917 -2.02334 0
M  V30 52723 H 4949.13 -6.84036 -3.59604 0
M  V30 52724 H 4947.47 -6.14848 -3.24016 0
M  V30 52725 H 4950.67 -3.99798 -2.43473 0
M  V30 52726 H 4950.84 -5.66169 -3.15208 0
M  V30 52727 N 4944.24 0.949938 -1.25754 0
M  V30 52728 C 4945.49 1.69176 -1.10561 0
M  V30 52729 C 4945.81 1.91774 0.353231 0
M  V30 52730 O 4945.08 1.50819 1.25022 0
M  V30 52731 H 4943.66 0.626937 -0.406151 0
M  V30 52732 H 4946.33 1.14185 -1.57949 0
M  V30 52733 H 4945.42 2.66909 -1.61758 0
M  V30 52734 N 4945.72 1.07416 1.15324 0
M  V30 52735 C 4947 0.710796 1.82228 0
M  V30 52736 C 4947.38 -0.806663 1.9508 0
M  V30 52737 O 4946.73 -1.72133 1.50274 0
M  V30 52738 C 4946.94 1.42597 3.18539 0
M  V30 52739 C 4948.29 1.5785 3.94168 0
M  V30 52740 O 4949.31 1.3868 3.28095 0
M  V30 52741 O 4948.17 1.89398 5.12631 0
M  V30 52742 H 4945.26 0.252997 0.787351 0
M  V30 52743 H 4947.81 1.17512 1.2243 0
M  V30 52744 H 4946.58 2.46018 3.04287 0
M  V30 52745 H 4946.2 0.952468 3.86023 0
M  V30 52746 N 4947.2 -1.32174 0.858357 0
M  V30 52747 C 4948.13 -2.26822 0.25043 0
M  V30 52748 C 4949.11 -1.50573 -0.613728 0
M  V30 52749 O 4950.3 -1.79684 -0.569714 0
M  V30 52750 C 4947.42 -3.32474 -0.646439 0
M  V30 52751 C 4946.47 -4.26254 0.144824 0
M  V30 52752 S 4947.3 -5.13602 1.51568 0
M  V30 52753 C 4948.46 -6.22775 0.624627 0
M  V30 52754 H 4948.69 -2.78036 1.05277 0
M  V30 52755 H 4946.22 -1.39762 0.656202 0
M  V30 52756 H 4948.18 -3.93821 -1.15824 0
M  V30 52757 H 4946.84 -2.80036 -1.42262 0
M  V30 52758 H 4946.04 -5.01116 -0.538437 0
M  V30 52759 H 4945.64 -3.69344 0.588328 0
M  V30 52760 H 4947.93 -6.77288 -0.169608 0
M  V30 52761 H 4948.87 -6.95228 1.34401 0
M  V30 52762 H 4949.28 -5.64155 0.197326 0
M  V30 52763 N 4948.68 -0.616653 -1.45035 0
M  V30 52764 C 4949.9 -0.120265 -2.07051 0
M  V30 52765 C 4950.33 1.19003 -1.45671 0
M  V30 52766 O 4949.69 1.72668 -0.552753 0
M  V30 52767 C 4949.73 -0.00367578 -3.606 0
M  V30 52768 O 4948.84 1.04417 -3.98962 0
M  V30 52769 H 4948.18 -0.0781831 -0.659381 0
M  V30 52770 H 4950.71 -0.849232 -1.86143 0
M  V30 52771 H 4950.72 0.191611 -4.0755 0
M  V30 52772 H 4949.39 -0.960381 -4.0466 0
M  V30 52773 H 4947.97 0.824622 -3.63668 0
M  V30 52774 N 4950.16 1.53519 -0.356339 0
M  V30 52775 C 4951.07 2.29152 0.502631 0
M  V30 52776 C 4952.08 1.34757 1.10075 0
M  V30 52777 O 4953.26 1.67807 1.11368 0
M  V30 52778 C 4950.32 3.05917 1.63143 0
M  V30 52779 C 4949.38 4.15962 1.06179 0
M  V30 52780 C 4948.62 4.89057 2.13679 0
M  V30 52781 O 4948.84 4.6193 3.34629 0
M  V30 52782 O 4947.77 5.75208 1.77255 0
M  V30 52783 H 4951.6 3.03491 -0.112573 0
M  V30 52784 H 4949.19 1.48909 -0.120994 0
M  V30 52785 H 4951.07 3.53882 2.28791 0
M  V30 52786 H 4949.74 2.34423 2.23221 0
M  V30 52787 H 4948.65 3.72271 0.369473 0
M  V30 52788 H 4949.98 4.89595 0.5057 0
M  V30 52789 N 4951.63 0.0852704 1.57369 0
M  V30 52790 C 4952.6 -0.862625 2.12347 0
M  V30 52791 C 4953.6 -1.21742 1.0505 0
M  V30 52792 O 4954.79 -1.14848 1.3098 0
M  V30 52793 C 4951.92 -2.16171 2.63596 0
M  V30 52794 H 4953.11 -0.385406 2.97413 0
M  V30 52795 H 4950.67 -0.163608 1.55441 0
M  V30 52796 H 4951.4 -2.684 1.82022 0
M  V30 52797 H 4951.19 -1.91711 3.42037 0
M  V30 52798 H 4952.68 -2.84 3.06159 0
M  V30 52799 N 4953.11 -1.5647 -0.188372 0
M  V30 52800 C 4954.02 -1.9829 -1.25373 0
M  V30 52801 C 4955.04 -0.891587 -1.49421 0
M  V30 52802 O 4956.22 -1.19788 -1.61904 0
M  V30 52803 C 4953.28 -2.31974 -2.57661 0
M  V30 52804 C 4952.34 -3.54846 -2.41625 0
M  V30 52805 C 4951.57 -3.86914 -3.67605 0
M  V30 52806 O 4951.8 -3.20179 -4.72061 0
M  V30 52807 O 4950.73 -4.80322 -3.62732 0
M  V30 52808 H 4954.56 -2.89148 -0.92881 0
M  V30 52809 H 4952.14 -1.44114 -0.393904 0
M  V30 52810 H 4954.02 -2.54685 -3.35728 0
M  V30 52811 H 4952.7 -1.44281 -2.89766 0
M  V30 52812 H 4951.61 -3.37374 -1.61646 0
M  V30 52813 H 4952.94 -4.43026 -2.1445 0
M  V30 52814 N 4954.59 0.456329 -1.50849 0
M  V30 52815 C 4955.52 1.56019 -1.73725 0
M  V30 52816 C 4956.5 1.59668 -0.586529 0
M  V30 52817 O 4957.69 1.75699 -0.827246 0
M  V30 52818 C 4954.82 2.94244 -1.84493 0
M  V30 52819 C 4953.77 3.0546 -2.99797 0
M  V30 52820 C 4953.1 4.45478 -2.95725 0
M  V30 52821 C 4954.4 2.81302 -4.40075 0
M  V30 52822 H 4956.09 1.37128 -2.66151 0
M  V30 52823 H 4953.64 0.658254 -1.28074 0
M  V30 52824 H 4955.59 3.7141 -1.9908 0
M  V30 52825 H 4954.31 3.14324 -0.887001 0
M  V30 52826 H 4952.97 2.30731 -2.84884 0
M  V30 52827 H 4952.62 4.62498 -1.97748 0
M  V30 52828 H 4952.32 4.53916 -3.73141 0
M  V30 52829 H 4953.85 5.24644 -3.1238 0
M  V30 52830 H 4955.26 3.4821 -4.55437 0
M  V30 52831 H 4953.66 3.0117 -5.19054 0
M  V30 52832 H 4954.73 1.77044 -4.51424 0
M  V30 52833 N 4956.07 1.40675 0.710514 0
M  V30 52834 C 4957 1.44101 1.83731 0
M  V30 52835 C 4957.98 0.301345 1.67409 0
M  V30 52836 O 4959.17 0.510684 1.87365 0
M  V30 52837 C 4956.3 1.30785 3.21734 0
M  V30 52838 C 4955.25 2.42407 3.52736 0
M  V30 52839 C 4954.58 2.14164 4.89936 0
M  V30 52840 C 4955.88 3.8475 3.5322 0
M  V30 52841 H 4957.57 2.38402 1.81121 0
M  V30 52842 H 4955.12 1.14749 0.869976 0
M  V30 52843 H 4957.07 1.31797 4.00259 0
M  V30 52844 H 4955.79 0.329622 3.24932 0
M  V30 52845 H 4954.45 2.40653 2.76553 0
M  V30 52846 H 4954.1 1.1472 4.89743 0
M  V30 52847 H 4953.8 2.88952 5.11645 0
M  V30 52848 H 4955.32 2.16868 5.7079 0
M  V30 52849 H 4956.74 3.88301 4.21777 0
M  V30 52850 H 4955.13 4.59098 3.86457 0
M  V30 52851 H 4956.2 4.13971 2.52499 0
M  V30 52852 N 4957.55 -0.943255 1.26256 0
M  V30 52853 C 4958.8 -1.68365 1.11068 0
M  V30 52854 C 4959.11 -1.92515 -0.346037 0
M  V30 52855 O 4960.32 -2.6436 -0.618553 0
M  V30 52856 C 4958.77 -3.03164 1.93957 0
M  V30 52857 C 4958.38 -2.8677 3.44191 0
M  V30 52858 C 4960.12 -3.80909 1.87373 0
M  V30 52859 C 4958.03 -4.17029 4.19334 0
M  V30 52860 H 4956.96 -0.631455 0.412045 0
M  V30 52861 H 4959.61 -1.04917 1.50548 0
M  V30 52862 H 4957.99 -3.67581 1.47309 0
M  V30 52863 H 4959.17 -2.31215 3.98593 0
M  V30 52864 H 4957.48 -2.2247 3.51989 0
M  V30 52865 H 4960.08 -4.77409 2.408 0
M  V30 52866 H 4960.42 -4.07655 0.844 0
M  V30 52867 H 4960.96 -3.23262 2.31833 0
M  V30 52868 H 4957.69 -3.95468 5.22767 0
M  V30 52869 H 4957.21 -4.72306 3.69712 0
M  V30 52870 H 4958.89 -4.85498 4.27668 0
M  V30 52871 N 4959.03 -1.08026 -1.14753 0
M  V30 52872 C 4959.96 -0.728326 -2.21851 0
M  V30 52873 C 4960.94 0.287427 -1.67654 0
M  V30 52874 O 4962.12 0.158659 -1.93551 0
M  V30 52875 C 4959.25 -0.132671 -3.47047 0
M  V30 52876 C 4958.21 -1.07634 -4.14245 0
M  V30 52877 C 4957.53 -0.343095 -5.33598 0
M  V30 52878 C 4958.83 -2.41285 -4.63227 0
M  V30 52879 H 4960.53 -1.62374 -2.51545 0
M  V30 52880 H 4958.07 -0.782167 -1.20906 0
M  V30 52881 H 4960.02 0.125517 -4.21213 0
M  V30 52882 H 4958.75 0.797859 -3.16705 0
M  V30 52883 H 4957.41 -1.31956 -3.42028 0
M  V30 52884 H 4957.06 0.591115 -4.99515 0
M  V30 52885 H 4956.76 -0.972159 -5.79502 0
M  V30 52886 H 4958.28 -0.0928685 -6.10529 0
M  V30 52887 H 4959.69 -2.21251 -5.28887 0
M  V30 52888 H 4958.09 -2.99848 -5.19818 0
M  V30 52889 H 4959.16 -3.03092 -3.78501 0
M  V30 52890 N 4960.5 1.31717 -0.865354 0
M  V30 52891 C 4961.78 1.91573 -0.394857 0
M  V30 52892 C 4962.16 1.78773 1.12265 0
M  V30 52893 O 4961.51 1.19251 1.94914 0
M  V30 52894 C 4961.72 3.37954 -0.871101 0
M  V30 52895 C 4963.07 4.1507 -0.89453 0
M  V30 52896 O 4964.09 3.46717 -0.816447 0
M  V30 52897 O 4962.95 5.37148 -1.0067 0
M  V30 52898 H 4960.04 0.818645 -0.117258 0
M  V30 52899 H 4962.59 1.40416 -0.952962 0
M  V30 52900 H 4961.36 3.41263 -1.91456 0
M  V30 52901 H 4960.98 3.96533 -0.291046 0
M  V30 52902 N 4961.98 0.624336 1.44706 0
M  V30 52903 C 4962.89 -0.0860258 2.34442 0
M  V30 52904 C 4963.91 -0.842856 1.52223 0
M  V30 52905 O 4965.08 -0.796658 1.84974 0
M  V30 52906 C 4962.15 -1.05987 3.30102 0
M  V30 52907 C 4961.21 -0.303165 4.28228 0
M  V30 52908 C 4960.44 -1.23062 5.19318 0
M  V30 52909 O 4960.67 -2.46911 5.1419 0
M  V30 52910 O 4959.6 -0.71862 5.97595 0
M  V30 52911 H 4963.43 0.65186 2.96622 0
M  V30 52912 H 4961.01 0.384544 1.44366 0
M  V30 52913 H 4962.89 -1.62033 3.89003 0
M  V30 52914 H 4961.57 -1.77849 2.70465 0
M  V30 52915 H 4960.47 0.300164 3.72894 0
M  V30 52916 H 4961.81 0.375295 4.90767 0
M  V30 52917 N 4963.46 -1.53328 0.364476 0
M  V30 52918 C 4964.71 -2.0124 -0.225564 0
M  V30 52919 C 4965.03 -1.25178 -1.48865 0
M  V30 52920 O 4964.29 -0.333356 -1.9284 0
M  V30 52921 C 4964.59 -3.52913 -0.564537 0
M  V30 52922 C 4964.25 -4.46835 0.604093 0
M  V30 52923 C 4962.92 -4.72231 0.924751 0
M  V30 52924 C 4965.27 -5.02404 1.38708 0
M  V30 52925 C 4962.6 -5.50447 2.03039 0
M  V30 52926 C 4964.95 -5.81827 2.48313 0
M  V30 52927 C 4963.61 -6.0551 2.80915 0
M  V30 52928 H 4962.88 -0.736389 -0.0825396 0
M  V30 52929 H 4965.53 -1.84946 0.49671 0
M  V30 52930 H 4963.83 -3.67149 -1.36781 0
M  V30 52931 H 4965.53 -3.87458 -1.0333 0
M  V30 52932 H 4962.12 -4.27216 0.344133 0
M  V30 52933 H 4966.31 -4.82731 1.1526 0
M  V30 52934 H 4961.56 -5.67016 2.28698 0
M  V30 52935 H 4965.74 -6.23894 3.09402 0
M  V30 52936 H 4963.36 -6.65903 3.66711 0
M  V30 52937 N 4964.94 -0.0936148 -1.57322 0
M  V30 52938 C 4966.17 0.578864 -1.98637 0
M  V30 52939 C 4966.58 1.61816 -0.972682 0
M  V30 52940 O 4965.94 1.82461 0.0378996 0
M  V30 52941 C 4965.99 1.2279 -3.40007 0
M  V30 52942 O 4965.71 0.23018 -4.37495 0
M  V30 52943 C 4967.21 1.98613 -3.96318 0
M  V30 52944 H 4964.43 0.155301 -0.652781 0
M  V30 52945 H 4966.97 -0.172465 -2.03771 0
M  V30 52946 H 4965.13 1.93017 -3.35892 0
M  V30 52947 H 4965.54 0.698466 -5.19829 0
M  V30 52948 H 4967.02 2.39387 -4.97391 0
M  V30 52949 H 4967.49 2.8514 -3.34054 0
M  V30 52950 H 4968.1 1.33206 -4.03901 0
M  V30 52951 N 4966.42 1.56568 0.180071 0
M  V30 52952 C 4967.64 1.85622 0.913907 0
M  V30 52953 C 4968.06 0.677954 1.76208 0
M  V30 52954 O 4967.42 -0.353108 1.79051 0
M  V30 52955 C 4967.47 3.13625 1.79782 0
M  V30 52956 O 4967.19 4.26909 0.98387 0
M  V30 52957 C 4968.69 3.55964 2.64206 0
M  V30 52958 H 4965.91 0.616053 0.265933 0
M  V30 52959 H 4968.45 2.03681 0.1828 0
M  V30 52960 H 4966.61 2.97418 2.48237 0
M  V30 52961 H 4967.02 4.99896 1.58758 0
M  V30 52962 H 4968.5 4.48455 3.21857 0
M  V30 52963 H 4968.97 2.79665 3.38651 0
M  V30 52964 H 4969.58 3.74753 2.01098 0
M  V30 52965 N 4967.89 -0.448323 1.51089 0
M  V30 52966 C 4968.82 -1.55096 1.7455 0
M  V30 52967 C 4969.81 -1.59355 0.594989 0
M  V30 52968 O 4970.99 -1.75258 0.836553 0
M  V30 52969 C 4968.12 -2.93262 1.86051 0
M  V30 52970 C 4967.07 -3.03866 3.01412 0
M  V30 52971 C 4966.4 -4.43904 2.98083 0
M  V30 52972 C 4967.7 -2.78965 4.41561 0
M  V30 52973 H 4969.39 -1.35715 2.66874 0
M  V30 52974 H 4966.94 -0.651453 1.28422 0
M  V30 52975 H 4968.89 -3.70349 2.01047 0
M  V30 52976 H 4967.62 -3.1385 0.903658 0
M  V30 52977 H 4966.28 -2.29217 2.86104 0
M  V30 52978 H 4965.92 -4.61443 2.00198 0
M  V30 52979 H 4965.62 -4.51931 3.75543 0
M  V30 52980 H 4967.15 -5.2298 3.15158 0
M  V30 52981 H 4968.56 -3.45789 4.57277 0
M  V30 52982 H 4966.96 -2.98413 5.20643 0
M  V30 52983 H 4968.03 -1.74647 4.52356 0
M  V30 52984 N 4969.37 -1.4105 -0.703043 0
M  V30 52985 C 4970.34 -1.42042 -1.79879 0
M  V30 52986 C 4971.34 -0.312208 -1.5774 0
M  V30 52987 O 4972.53 -0.57173 -1.64551 0
M  V30 52988 C 4969.66 -1.22448 -3.1815 0
M  V30 52989 H 4970.85 -2.39579 -1.80394 0
M  V30 52990 H 4968.4 -1.27082 -0.909933 0
M  V30 52991 H 4969.14 -0.257226 -3.23278 0
M  V30 52992 H 4968.92 -2.02735 -3.3562 0
M  V30 52993 H 4970.41 -1.2596 -3.9815 0
M  V30 52994 N 4970.85 0.936546 -1.26754 0
M  V30 52995 C 4972.27 1.21091 -1.03967 0
M  V30 52996 C 4972.47 2.00156 0.232302 0
M  V30 52997 O 4971.52 2.34343 0.940191 0
M  V30 52998 C 4972.84 1.96767 -2.27384 0
M  V30 52999 C 4974.38 2.0974 -2.32332 0
M  V30 53000 C 4974.86 2.8882 -3.55454 0
M  V30 53001 N 4976.35 2.96391 -3.55958 0
M  V30 53002 C 4977.08 3.5802 -4.47894 0
M  V30 53003 N 4976.58 4.21113 -5.50124 0
M  V30 53004 N 4978.37 3.55338 -4.35536 0
M  V30 53005 H 4970.52 0.408099 -2.08443 0
M  V30 53006 H 4972.79 0.243107 -0.916298 0
M  V30 53007 H 4972.49 1.46082 -3.19926 0
M  V30 53008 H 4972.37 2.97416 -2.31999 0
M  V30 53009 H 4974.75 2.59615 -1.403 0
M  V30 53010 H 4974.84 1.08339 -2.31725 0
M  V30 53011 H 4974.48 2.39631 -4.47816 0
M  V30 53012 H 4974.41 3.90487 -3.5331 0
M  V30 53013 H 4976.9 2.51542 -2.8202 0
M  V30 53014 H 4977.21 4.6605 -6.16456 0
M  V30 53015 H 4975.56 4.19685 -5.53976 0
M  V30 53016 H 4978.75 3.05244 -3.54886 0
M  V30 53017 H 4978.92 4.03079 -5.07377 0
M  V30 53018 N 4972.33 1.08633 1.14178 0
M  V30 53019 C 4973.61 0.730083 1.81464 0
M  V30 53020 C 4973.99 -0.785927 1.95924 0
M  V30 53021 O 4973.33 -1.7053 1.52092 0
M  V30 53022 C 4973.54 1.45968 3.17009 0
M  V30 53023 C 4974.89 1.62022 3.92472 0
M  V30 53024 O 4975.92 1.42152 3.26606 0
M  V30 53025 O 4974.77 1.94824 5.10594 0
M  V30 53026 H 4971.87 0.261334 0.784623 0
M  V30 53027 H 4974.41 1.18804 1.21176 0
M  V30 53028 H 4973.19 2.49232 3.01661 0
M  V30 53029 H 4972.81 0.993357 3.84991 0
M  V30 53030 N 4973.81 -1.31256 0.872327 0
M  V30 53031 C 4974.74 -2.30928 0.345635 0
M  V30 53032 C 4975.72 -1.60451 -0.564744 0
M  V30 53033 O 4976.9 -1.88142 -0.481268 0
M  V30 53034 C 4974.03 -3.4435 -0.451702 0
M  V30 53035 C 4972.99 -4.26434 0.365791 0
M  V30 53036 C 4972.31 -5.31787 -0.557375 0
M  V30 53037 C 4973.61 -4.97153 1.60113 0
M  V30 53038 H 4975.31 -2.7523 1.17851 0
M  V30 53039 H 4972.85 -1.32318 0.568141 0
M  V30 53040 H 4974.81 -4.13131 -0.830709 0
M  V30 53041 H 4973.53 -2.9882 -1.3181 0
M  V30 53042 H 4972.19 -3.59324 0.726775 0
M  V30 53043 H 4971.84 -4.82507 -1.42113 0
M  V30 53044 H 4971.54 -5.87598 -0.0142813 0
M  V30 53045 H 4973.06 -6.03427 -0.933175 0
M  V30 53046 H 4974.47 -5.58519 1.29342 0
M  V30 53047 H 4972.87 -5.62771 2.08347 0
M  V30 53048 H 4973.94 -4.24003 2.35264 0
M  V30 53049 N 4975.28 -0.632002 -1.44373 0
M  V30 53050 C 4976.51 -0.143731 -2.06099 0
M  V30 53051 C 4976.92 1.18728 -1.4731 0
M  V30 53052 O 4976.27 1.73941 -0.590785 0
M  V30 53053 C 4976.33 0.0444838 -3.59472 0
M  V30 53054 C 4975.99 -1.2085 -4.40731 0
M  V30 53055 C 4976.99 -2.1324 -4.74157 0
M  V30 53056 C 4974.67 -1.44416 -4.81092 0
M  V30 53057 C 4976.67 -3.27506 -5.46826 0
M  V30 53058 C 4974.35 -2.58978 -5.5351 0
M  V30 53059 C 4975.35 -3.5035 -5.86297 0
M  V30 53060 O 4975.04 -4.62914 -6.57241 0
M  V30 53061 H 4974.77 -0.0773175 -0.671564 0
M  V30 53062 H 4977.33 -0.866743 -1.86217 0
M  V30 53063 H 4975.56 0.82265 -3.77848 0
M  V30 53064 H 4977.25 0.487419 -4.02963 0
M  V30 53065 H 4978.01 -1.96268 -4.43513 0
M  V30 53066 H 4973.89 -0.741856 -4.54992 0
M  V30 53067 H 4977.43 -3.98846 -5.72335 0
M  V30 53068 H 4973.33 -2.75893 -5.83569 0
M  V30 53069 H 4974.1 -4.61907 -6.7571 0
M  V30 53070 N 4976.76 1.53132 -0.372602 0
M  V30 53071 C 4977.73 2.24571 0.45831 0
M  V30 53072 C 4978.73 1.25606 1.00398 0
M  V30 53073 O 4979.92 1.49831 0.888619 0
M  V30 53074 C 4977.05 2.98788 1.64129 0
M  V30 53075 H 4978.24 2.99435 -0.166905 0
M  V30 53076 H 4975.79 1.55804 -0.124412 0
M  V30 53077 H 4976.53 2.28184 2.3044 0
M  V30 53078 H 4976.31 3.71409 1.25691 0
M  V30 53079 H 4977.8 3.53076 2.22996 0
M  V30 53080 N 4978.24 0.101957 1.5727 0
M  V30 53081 C 4979.49 -0.560129 1.94599 0
M  V30 53082 C 4979.82 -1.67763 0.98416 0
M  V30 53083 O 4979.07 -1.95699 0.00496073 0
M  V30 53084 C 4979.37 -1.14887 3.38431 0
M  V30 53085 C 4979.04 -0.154455 4.50635 0
M  V30 53086 C 4977.7 0.11903 4.81053 0
M  V30 53087 C 4980.05 0.524162 5.18558 0
M  V30 53088 C 4977.38 1.07771 5.76717 0
M  V30 53089 C 4979.73 1.47136 6.15251 0
M  V30 53090 C 4978.39 1.753 6.4407 0
M  V30 53091 H 4977.66 -0.204966 0.712089 0
M  V30 53092 H 4980.31 0.179247 1.90659 0
M  V30 53093 H 4978.62 -1.96464 3.38983 0
M  V30 53094 H 4980.31 -1.66896 3.64619 0
M  V30 53095 H 4976.9 -0.377798 4.26932 0
M  V30 53096 H 4981.09 0.326025 4.95228 0
M  V30 53097 H 4976.34 1.30284 5.97357 0
M  V30 53098 H 4980.52 2.00297 6.66974 0
M  V30 53099 H 4978.14 2.49743 7.18006 0
M  V30 53100 N 4979.72 -1.56661 -0.171765 0
M  V30 53101 C 4980.95 -1.85834 -0.902739 0
M  V30 53102 C 4981.36 -0.685219 -1.76356 0
M  V30 53103 O 4980.7 0.354884 -1.80239 0
M  V30 53104 C 4980.76 -3.09412 -1.83042 0
M  V30 53105 C 4980.43 -4.42314 -1.14925 0
M  V30 53106 C 4981.42 -5.17344 -0.514922 0
M  V30 53107 C 4979.11 -4.89049 -1.14613 0
M  V30 53108 C 4981.1 -6.37299 0.113418 0
M  V30 53109 C 4978.79 -6.08935 -0.51397 0
M  V30 53110 C 4979.79 -6.82904 0.114704 0
M  V30 53111 O 4979.47 -8.00515 0.736903 0
M  V30 53112 H 4979.21 -0.620724 -0.267726 0
M  V30 53113 H 4981.76 -2.04637 -0.176846 0
M  V30 53114 H 4979.99 -2.86553 -2.59662 0
M  V30 53115 H 4981.68 -3.25035 -2.43119 0
M  V30 53116 H 4982.45 -4.82318 -0.509304 0
M  V30 53117 H 4978.32 -4.31415 -1.62487 0
M  V30 53118 H 4981.87 -6.94974 0.604721 0
M  V30 53119 H 4977.77 -6.43425 -0.517169 0
M  V30 53120 H 4978.53 -8.16024 0.636109 0
M  V30 53121 N 4981.2 0.440304 -1.51324 0
M  V30 53122 C 4982.61 1.02027 -1.56357 0
M  V30 53123 C 4982.96 1.9238 -0.385265 0
M  V30 53124 O 4982.08 2.10585 0.498299 0
M  V30 53125 C 4982.68 1.85713 -2.83366 0
M  V30 53126 C 4981.24 2.38764 -2.90979 0
M  V30 53127 C 4980.38 1.17899 -2.50988 0
M  V30 53128 H 4983.34 0.221689 -1.57144 0
M  V30 53129 H 4983.36 2.71131 -2.66961 0
M  V30 53130 H 4982.87 1.19926 -3.69106 0
M  V30 53131 H 4980.97 3.08014 -2.09662 0
M  V30 53132 H 4981.08 2.71764 -3.94565 0
M  V30 53133 H 4979.45 1.5234 -2.04119 0
M  V30 53134 H 4980.23 0.537274 -3.3907 0
M  V30 53135 N 4982.68 1.41421 0.695553 0
M  V30 53136 C 4983.61 1.46042 1.82192 0
M  V30 53137 C 4984.59 0.319084 1.6708 0
M  V30 53138 O 4985.77 0.530528 1.86813 0
M  V30 53139 C 4982.9 1.3419 3.20329 0
M  V30 53140 C 4981.86 2.46135 3.50145 0
M  V30 53141 C 4981.18 2.19349 4.87637 0
M  V30 53142 C 4982.48 3.88475 3.4912 0
M  V30 53143 H 4984.18 2.4031 1.78582 0
M  V30 53144 H 4981.72 1.15666 0.857757 0
M  V30 53145 H 4983.67 1.36035 3.98839 0
M  V30 53146 H 4982.4 0.364067 3.24565 0
M  V30 53147 H 4981.06 2.43573 2.73985 0
M  V30 53148 H 4980.71 1.19908 4.88499 0
M  V30 53149 H 4980.41 2.94362 5.08552 0
M  V30 53150 H 4981.93 2.22909 5.68457 0
M  V30 53151 H 4983.34 3.92752 4.17634 0
M  V30 53152 H 4981.74 4.63171 3.81566 0
M  V30 53153 H 4982.81 4.16626 2.48094 0
M  V30 53154 N 4984.15 -0.929811 1.27249 0
M  V30 53155 C 4985.08 -2.04718 1.12306 0
M  V30 53156 C 4986.06 -1.70081 0.0251061 0
M  V30 53157 O 4987.25 -1.93176 0.199209 0
M  V30 53158 C 4984.38 -3.38719 0.767264 0
M  V30 53159 C 4983.33 -3.87459 1.81822 0
M  V30 53160 C 4982.66 -5.18241 1.31644 0
M  V30 53161 C 4983.96 -4.11084 3.22191 0
M  V30 53162 H 4985.65 -2.17477 2.05776 0
M  V30 53163 H 4983.2 -1.04499 0.990752 0
M  V30 53164 H 4985.15 -4.16364 0.649559 0
M  V30 53165 H 4983.88 -3.25968 -0.203144 0
M  V30 53166 H 4982.54 -3.12005 1.92479 0
M  V30 53167 H 4982.18 -5.0188 0.335554 0
M  V30 53168 H 4981.88 -5.51822 2.01906 0
M  V30 53169 H 4983.41 -5.98458 1.21164 0
M  V30 53170 H 4984.82 -4.79305 3.14547 0
M  V30 53171 H 4983.22 -4.55968 3.90145 0
M  V30 53172 H 4984.29 -3.16455 3.67402 0
M  V30 53173 N 4985.63 -1.09237 -1.13601 0
M  V30 53174 C 4986.88 -0.822115 -1.84185 0
M  V30 53175 C 4987.19 0.654483 -1.84325 0
M  V30 53176 O 4988.4 1.0402 -2.50783 0
M  V30 53177 C 4986.86 -1.42077 -3.30669 0
M  V30 53178 C 4986.46 -2.92977 -3.38922 0
M  V30 53179 C 4988.21 -1.22938 -4.06308 0
M  V30 53180 C 4986.11 -3.45939 -4.79667 0
M  V30 53181 H 4985.04 -0.303879 -0.690053 0
M  V30 53182 H 4987.7 -1.31483 -1.28001 0
M  V30 53183 H 4986.08 -0.855749 -3.86643 0
M  V30 53184 H 4987.25 -3.55689 -2.92954 0
M  V30 53185 H 4985.57 -3.11128 -2.76746 0
M  V30 53186 H 4988.16 -1.59963 -5.10212 0
M  V30 53187 H 4988.51 -0.169872 -4.15953 0
M  V30 53188 H 4989.04 -1.76181 -3.56658 0
M  V30 53189 H 4985.78 -4.51501 -4.75213 0
M  V30 53190 H 4985.3 -2.87989 -5.26139 0
M  V30 53191 H 4986.98 -3.43028 -5.4858 0
M  V30 53192 N 4987.11 1.30792 -0.879276 0
M  V30 53193 C 4988.53 1.48979 -0.572482 0
M  V30 53194 C 4988.73 1.80722 0.891172 0
M  V30 53195 O 4987.78 1.89142 1.67277 0
M  V30 53196 C 4989.09 2.61716 -1.48072 0
M  V30 53197 C 4990.64 2.75598 -1.48374 0
M  V30 53198 C 4991.12 3.91441 -2.37777 0
M  V30 53199 N 4992.61 3.98742 -2.35709 0
M  V30 53200 C 4993.34 4.87673 -3.016 0
M  V30 53201 N 4992.84 5.8144 -3.76695 0
M  V30 53202 N 4994.63 4.80995 -2.90861 0
M  V30 53203 H 4986.78 1.08459 -1.82621 0
M  V30 53204 H 4989.05 0.536785 -0.781387 0
M  V30 53205 H 4988.75 2.45064 -2.52263 0
M  V30 53206 H 4988.63 3.58067 -1.18609 0
M  V30 53207 H 4991.01 2.91658 -0.449373 0
M  V30 53208 H 4991.09 1.79885 -1.81865 0
M  V30 53209 H 4990.74 3.76137 -3.41296 0
M  V30 53210 H 4990.67 4.8648 -2.01606 0
M  V30 53211 H 4993.16 3.31661 -1.81133 0
M  V30 53212 H 4993.47 6.46048 -4.24077 0
M  V30 53213 H 4991.82 5.8139 -3.80803 0
M  V30 53214 H 4995.01 4.0672 -2.31725 0
M  V30 53215 H 4995.18 5.50095 -3.4249 0
M  V30 53216 N 4988.59 0.639649 1.44036 0
M  V30 53217 C 4989.83 0.147551 2.01962 0
M  V30 53218 C 4990.16 -1.23367 1.50369 0
M  V30 53219 O 4989.42 -1.83448 0.681565 0
M  V30 53220 C 4989.72 0.0926604 3.5728 0
M  V30 53221 C 4989.38 1.4138 4.28162 0
M  V30 53222 C 4988.04 1.77561 4.47242 0
M  V30 53223 C 4990.4 2.28546 4.68419 0
M  V30 53224 C 4987.72 3.00601 5.03841 0
M  V30 53225 C 4990.08 3.50865 5.26381 0
M  V30 53226 C 4988.74 3.87259 5.43679 0
M  V30 53227 H 4988.01 0.0539926 0.73903 0
M  V30 53228 H 4990.66 0.82766 1.72691 0
M  V30 53229 H 4988.96 -0.670852 3.86014 0
M  V30 53230 H 4990.66 -0.30475 3.9984 0
M  V30 53231 H 4987.25 1.12225 4.13647 0
M  V30 53232 H 4991.43 2.01886 4.53382 0
M  V30 53233 H 4986.69 3.28864 5.1542 0
M  V30 53234 H 4990.86 4.18635 5.56523 0
M  V30 53235 H 4988.49 4.8268 5.87302 0
M  V30 53236 N 4990.07 -1.52932 0.380717 0
M  V30 53237 C 4991.31 -2.01766 -0.204509 0
M  V30 53238 C 4991.64 -1.26701 -1.47175 0
M  V30 53239 O 4990.92 -0.365004 -1.91044 0
M  V30 53240 C 4991.2 -3.56871 -0.481143 0
M  V30 53241 C 4991.06 -4.42614 0.800785 0
M  V30 53242 C 4992.37 -4.21215 -1.2754 0
M  V30 53243 H 4989.49 -0.73339 -0.0728545 0
M  V30 53244 H 4992.14 -1.83066 0.508594 0
M  V30 53245 H 4990.29 -3.72936 -1.08862 0
M  V30 53246 H 4991.96 -4.38318 1.43789 0
M  V30 53247 H 4990.2 -4.09972 1.41794 0
M  V30 53248 H 4990.87 -5.49132 0.561984 0
M  V30 53249 H 4993.35 -4.09075 -0.761371 0
M  V30 53250 H 4992.22 -5.29737 -1.4377 0
M  V30 53251 H 4992.48 -3.78277 -2.2882 0
M  V30 53252 N 4991.54 -0.110296 -1.57214 0
M  V30 53253 C 4992.82 0.59289 -1.86398 0
M  V30 53254 C 4993.2 1.85375 -1.00991 0
M  V30 53255 O 4992.55 2.28336 -0.0864395 0
M  V30 53256 C 4992.76 0.893697 -3.37363 0
M  V30 53257 C 4994.11 1.25055 -4.05766 0
M  V30 53258 O 4995.13 0.984236 -3.42332 0
M  V30 53259 O 4993.99 1.74998 -5.17724 0
M  V30 53260 H 4991.08 0.298253 -0.771346 0
M  V30 53261 H 4993.63 -0.144142 -1.69087 0
M  V30 53262 H 4992.4 -0.000163592 -3.913 0
M  V30 53263 H 4992.02 1.68619 -3.60074 0
M  V30 53264 N 4993.02 1.5675 0.163455 0
M  V30 53265 C 4994.25 1.8631 0.892871 0
M  V30 53266 C 4994.66 0.694562 1.7599 0
M  V30 53267 O 4994 -0.34532 1.80425 0
M  V30 53268 C 4994.06 3.10379 1.81399 0
M  V30 53269 C 4993.73 4.42917 1.12577 0
M  V30 53270 C 4994.73 5.1761 0.487479 0
M  V30 53271 C 4992.41 4.8965 1.12018 0
M  V30 53272 C 4994.4 6.3723 -0.147214 0
M  V30 53273 C 4992.09 6.09199 0.481669 0
M  V30 53274 C 4993.09 6.82833 -0.150918 0
M  V30 53275 O 4992.78 8.00113 -0.779346 0
M  V30 53276 H 4992.51 0.622135 0.26443 0
M  V30 53277 H 4995.06 2.04728 0.165991 0
M  V30 53278 H 4993.29 2.87926 2.58138 0
M  V30 53279 H 4994.98 3.2632 2.41392 0
M  V30 53280 H 4995.75 4.82582 0.483718 0
M  V30 53281 H 4991.63 4.32271 1.60197 0
M  V30 53282 H 4995.17 6.94644 -0.641569 0
M  V30 53283 H 4991.07 6.4369 0.48304 0
M  V30 53284 H 4991.84 8.15676 -0.679376 0
M  V30 53285 N 4994.5 -0.432272 1.51556 0
M  V30 53286 C 4995.45 -1.54566 1.73816 0
M  V30 53287 C 4996.44 -1.58244 0.604594 0
M  V30 53288 O 4997.65 -1.61927 0.786098 0
M  V30 53289 H 4994.02 -0.513607 0.549283 0
M  V30 53290 H 4995.99 -1.32967 2.67137 0
M  V30 53291 C 4994.74 -2.92174 1.88493 0
M  V30 53292 H 4994.07 -2.90078 2.75127 0
M  V30 53293 H 4995.51 -3.69431 2.08078 0
M  V30 53294 C 4993.96 -3.30648 0.646025 0
M  V30 53295 O 4994.49 -4.01217 -0.196952 0
M  V30 53296 N 4992.7 -2.86462 0.488639 0
M  V30 53297 H 4992.25 -2.29205 1.1757 0
M  V30 53298 H 4992.21 -3.12567 -0.339046 0
M  V30 53299 N 4995.98 -1.41788 -0.688044 0
M  V30 53300 C 4997.39 -1.24422 -0.999564 0
M  V30 53301 C 4997.59 -0.138939 -2.0102 0
M  V30 53302 O 4996.65 0.494196 -2.47617 0
M  V30 53303 C 4997.96 -2.5963 -1.517 0
M  V30 53304 C 4999.51 -2.66875 -1.63545 0
M  V30 53305 C 4999.99 -4.02417 -2.18688 0
M  V30 53306 N 5001.48 -4.04303 -2.26038 0
M  V30 53307 C 5002.21 -5.05987 -2.6975 0
M  V30 53308 N 5001.71 -6.18058 -3.13012 0
M  V30 53309 N 5003.5 -4.93346 -2.69381 0
M  V30 53310 H 4995.65 -2.12392 -0.018668 0
M  V30 53311 H 4997.91 -0.94535 -0.0708341 0
M  V30 53312 H 4997.62 -3.413 -0.848939 0
M  V30 53313 H 4997.49 -2.82637 -2.49793 0
M  V30 53314 H 4999.88 -1.85558 -2.2946 0
M  V30 53315 H 4999.96 -2.4767 -0.63977 0
M  V30 53316 H 4999.61 -4.84185 -1.53385 0
M  V30 53317 H 4999.54 -4.18966 -3.19022 0
M  V30 53318 H 5002.03 -3.2339 -1.95519 0
M  V30 53319 H 5002.34 -6.9151 -3.45013 0
M  V30 53320 H 5000.69 -6.21583 -3.10901 0
M  V30 53321 H 5003.88 -4.04873 -2.34937 0
M  V30 53322 H 5004.05 -5.72728 -3.03128 0
M  V30 53323 N 4997.46 0.92305 -1.2774 0
M  V30 53324 C 4998.42 2.00583 -1.10901 0
M  V30 53325 C 4999.42 1.60717 -0.0515492 0
M  V30 53326 O 5000.61 1.71657 -0.296541 0
M  V30 53327 C 4997.74 3.33827 -0.690834 0
M  V30 53328 H 4998.93 2.16952 -2.07056 0
M  V30 53329 H 4996.49 1.10447 -1.10594 0
M  V30 53330 H 4997.22 3.23158 0.271887 0
M  V30 53331 H 4997.01 3.6412 -1.45461 0
M  V30 53332 H 4998.5 4.13334 -0.595397 0
M  V30 53333 N 4998.93 1.09838 1.1302 0
M  V30 53334 C 4999.88 0.741599 2.18561 0
M  V30 53335 C 5000.85 -0.279179 1.63737 0
M  V30 53336 O 5002.04 -0.159856 1.90129 0
M  V30 53337 C 4999.18 0.172891 3.44667 0
M  V30 53338 C 4998.29 1.24822 4.13574 0
M  V30 53339 C 4997.42 0.641816 5.27308 0
M  V30 53340 C 4996.46 1.69816 5.88072 0
M  V30 53341 N 4995.6 1.11247 6.9323 0
M  V30 53342 H 5000.44 1.64585 2.48426 0
M  V30 53343 H 4997.98 0.822216 1.21975 0
M  V30 53344 H 4999.94 -0.174673 4.16834 0
M  V30 53345 H 4998.57 -0.694614 3.15238 0
M  V30 53346 H 4997.62 1.713 3.39647 0
M  V30 53347 H 4998.93 2.04811 4.54812 0
M  V30 53348 H 4998.08 0.243341 6.06212 0
M  V30 53349 H 4996.82 -0.189571 4.87331 0
M  V30 53350 H 4995.83 2.10613 5.0786 0
M  V30 53351 H 4997.05 2.53228 6.30121 0
M  V30 53352 H 4995 0.302438 6.55302 0
M  V30 53353 H 4994.92 1.84927 7.33033 0
M  V30 53354 H 4996.18 0.740341 7.75976 0
M  V30 53355 N 5000.41 -1.30324 0.8862 0
M  V30 53356 C 5001.66 -1.96762 0.515382 0
M  V30 53357 C 5002.01 -1.68678 -0.925493 0
M  V30 53358 O 5001.31 -0.98175 -1.64536 0
M  V30 53359 C 5001.5 -3.49904 0.728165 0
M  V30 53360 C 5001.33 -3.92873 2.18817 0
M  V30 53361 C 5000.1 -4.18414 2.83299 0
M  V30 53362 C 5002.3 -4.05606 3.16209 0
M  V30 53363 N 5000.28 -4.47852 4.19883 0
M  V30 53364 C 5001.65 -4.38942 4.3787 0
M  V30 53365 C 5003.71 -3.88036 3.11982 0
M  V30 53366 C 5002.41 -4.5654 5.55845 0
M  V30 53367 C 5004.43 -4.06836 4.2923 0
M  V30 53368 C 5003.8 -4.40519 5.49657 0
M  V30 53369 H 4999.9 -0.744921 0.237942 0
M  V30 53370 H 5002.48 -1.57532 1.14419 0
M  V30 53371 H 5000.65 -3.88186 0.128832 0
M  V30 53372 H 5002.38 -4.034 0.324125 0
M  V30 53373 H 4999.14 -4.11662 2.34161 0
M  V30 53374 H 4999.56 -4.66704 4.90425 0
M  V30 53375 H 5004.2 -3.6107 2.19973 0
M  V30 53376 H 5001.92 -4.82347 6.48357 0
M  V30 53377 H 5005.51 -3.94709 4.27429 0
M  V30 53378 H 5004.39 -4.54767 6.38872 0
M  V30 53379 N 5001.89 -0.647279 -1.43694 0
M  V30 53380 C 5002.82 0.034481 -2.33475 0
M  V30 53381 C 5003.8 0.81814 -1.49132 0
M  V30 53382 O 5004.99 0.780804 -1.77812 0
M  V30 53383 C 5002.12 1.00564 -3.32422 0
M  V30 53384 C 5001.07 0.33251 -4.26706 0
M  V30 53385 C 5000.4 1.41471 -5.15645 0
M  V30 53386 C 5001.7 -0.771386 -5.16572 0
M  V30 53387 H 5003.39 -0.715265 -2.90731 0
M  V30 53388 H 5000.94 -0.345413 -1.39796 0
M  V30 53389 H 5002.89 1.49145 -3.94124 0
M  V30 53390 H 5001.61 1.78648 -2.73409 0
M  V30 53391 H 5000.27 -0.132799 -3.66359 0
M  V30 53392 H 4999.92 2.18682 -4.52976 0
M  V30 53393 H 4999.62 0.969595 -5.79545 0
M  V30 53394 H 5001.14 1.902 -5.80221 0
M  V30 53395 H 5002.56 -0.367991 -5.72118 0
M  V30 53396 H 5000.96 -1.1406 -5.89161 0
M  V30 53397 H 5002.03 -1.63185 -4.56617 0
M  V30 53398 N 5003.37 1.52728 -0.388822 0
M  V30 53399 C 5004.32 2.26439 0.446559 0
M  V30 53400 C 5005.29 1.28029 1.0582 0
M  V30 53401 O 5006.47 1.56856 1.08631 0
M  V30 53402 C 5003.61 3.07412 1.56817 0
M  V30 53403 C 5002.72 4.2075 0.979441 0
M  V30 53404 C 5001.86 4.8912 2.07207 0
M  V30 53405 C 5000.9 5.94452 1.45921 0
M  V30 53406 N 5000.03 6.5642 2.49112 0
M  V30 53407 H 5004.87 2.97403 -0.188475 0
M  V30 53408 H 5002.41 1.46726 -0.104777 0
M  V30 53409 H 5004.37 3.5265 2.22921 0
M  V30 53410 H 5003 2.38658 2.17353 0
M  V30 53411 H 5002.05 3.79831 0.208018 0
M  V30 53412 H 5003.36 4.96372 0.491573 0
M  V30 53413 H 5002.52 5.3766 2.81082 0
M  V30 53414 H 5001.26 4.13022 2.59353 0
M  V30 53415 H 5000.26 5.45252 0.705702 0
M  V30 53416 H 5001.49 6.72483 0.945696 0
M  V30 53417 H 4999.43 5.83162 3.00429 0
M  V30 53418 H 4999.35 7.27653 2.05079 0
M  V30 53419 H 5000.62 7.09604 3.22619 0
M  V30 53420 N 5004.85 0.118632 1.57153 0
M  V30 53421 C 5005.76 -0.845407 2.18838 0
M  V30 53422 C 5006.77 -1.29295 1.16442 0
M  V30 53423 O 5007.95 -1.35601 1.4891 0
M  V30 53424 C 5005.01 -2.07785 2.77536 0
M  V30 53425 C 5004.07 -1.68226 3.94966 0
M  V30 53426 C 5003.31 -2.85596 4.50856 0
M  V30 53427 O 5003.53 -4.01011 4.05643 0
M  V30 53428 O 5002.46 -2.62702 5.41545 0
M  V30 53429 H 5006.29 -0.350461 3.01671 0
M  V30 53430 H 5003.88 -0.106961 1.49017 0
M  V30 53431 H 5005.76 -2.79967 3.14955 0
M  V30 53432 H 5004.43 -2.56287 1.97734 0
M  V30 53433 H 5003.34 -0.931536 3.62316 0
M  V30 53434 H 5004.67 -1.24467 4.76202 0
M  V30 53435 N 5006.32 -1.56835 -0.15514 0
M  V30 53436 C 5007.74 -1.72424 -0.716021 0
M  V30 53437 C 5008.09 -0.731749 -1.82044 0
M  V30 53438 O 5007.21 0.103405 -2.16153 0
M  V30 53439 C 5007.81 -3.12633 -1.3056 0
M  V30 53440 C 5006.37 -3.29852 -1.81314 0
M  V30 53441 C 5005.51 -2.68361 -0.698399 0
M  V30 53442 H 5008.46 -1.58544 0.0704419 0
M  V30 53443 H 5008.48 -3.12181 -2.17539 0
M  V30 53444 H 5008 -3.84845 -0.501565 0
M  V30 53445 H 5006.1 -2.62623 -2.6431 0
M  V30 53446 H 5006.21 -4.37734 -1.94745 0
M  V30 53447 H 5004.57 -2.28608 -1.12297 0
M  V30 53448 H 5005.36 -3.43171 0.0940572 0
M  V30 53449 N 5007.8 0.424229 -1.51783 0
M  V30 53450 C 5008.75 1.53642 -1.74633 0
M  V30 53451 C 5009.74 1.57921 -0.612978 0
M  V30 53452 O 5010.95 1.61508 -0.794675 0
M  V30 53453 H 5007.33 0.510687 -0.551999 0
M  V30 53454 H 5009.3 1.31549 -2.67839 0
M  V30 53455 C 5008.05 2.9117 -1.9004 0
M  V30 53456 H 5007.37 2.88615 -2.76661 0
M  V30 53457 H 5008.81 3.68323 -2.10034 0
M  V30 53458 C 5007.27 3.30301 -0.663551 0
M  V30 53459 O 5007.8 4.01316 0.175671 0
M  V30 53460 N 5006 2.86199 -0.503824 0
M  V30 53461 H 5005.55 2.28579 -1.18784 0
M  V30 53462 H 5005.51 3.12742 0.322465 0
M  V30 53463 N 5009.28 1.4215 0.680515 0
M  V30 53464 C 5010.69 1.37685 1.26094 0
M  V30 53465 C 5011.04 0.0673038 1.96085 0
M  V30 53466 O 5010.17 -0.834102 1.99679 0
M  V30 53467 C 5010.76 2.49395 2.2932 0
M  V30 53468 C 5009.32 2.4828 2.82903 0
M  V30 53469 C 5008.47 2.28476 1.57144 0
M  V30 53470 H 5011.42 1.51447 0.474273 0
M  V30 53471 H 5011.44 2.19318 3.10934 0
M  V30 53472 H 5010.95 3.44692 1.7835 0
M  V30 53473 H 5009.05 1.56784 3.38008 0
M  V30 53474 H 5009.17 3.45121 3.32308 0
M  V30 53475 H 5007.53 1.7663 1.83505 0
M  V30 53476 H 5008.31 3.2582 1.08149 0
M  V30 53477 N 5010.76 -0.916262 1.28228 0
M  V30 53478 C 5011.67 -2.05161 1.13782 0
M  V30 53479 C 5012.68 -1.73879 0.0650029 0
M  V30 53480 O 5013.86 -1.9953 0.273792 0
M  V30 53481 C 5010.93 -3.37382 0.798385 0
M  V30 53482 C 5009.99 -3.82289 1.95329 0
M  V30 53483 C 5009.22 -5.08201 1.62996 0
M  V30 53484 O 5009.44 -5.67808 0.543148 0
M  V30 53485 O 5008.38 -5.48759 2.4728 0
M  V30 53486 H 5012.2 -2.20265 2.09086 0
M  V30 53487 H 5009.79 -1.03727 1.07523 0
M  V30 53488 H 5011.67 -4.1677 0.622926 0
M  V30 53489 H 5010.34 -3.23458 -0.125025 0
M  V30 53490 H 5009.25 -3.03738 2.18389 0
M  V30 53491 H 5010.58 -4.00772 2.85732 0
M  V30 53492 N 5012.24 -1.10435 -1.12436 0
M  V30 53493 C 5013.2 -0.756618 -2.16351 0
M  V30 53494 C 5014.2 0.218934 -1.59303 0
M  V30 53495 O 5015.39 -0.00422092 -1.74199 0
M  V30 53496 C 5012.52 -0.120732 -3.40686 0
M  V30 53497 H 5013.72 -1.67705 -2.48627 0
M  V30 53498 H 5011.27 -0.904877 -1.27443 0
M  V30 53499 H 5012 0.810426 -3.1401 0
M  V30 53500 H 5011.79 -0.822828 -3.83369 0
M  V30 53501 H 5013.28 0.106798 -4.17463 0
M  V30 53502 N 5013.72 1.29852 -0.893099 0
M  V30 53503 C 5014.63 2.3166 -0.370238 0
M  V30 53504 C 5015.64 1.65678 0.531665 0
M  V30 53505 O 5016.82 1.96911 0.422833 0
M  V30 53506 C 5013.88 3.44389 0.39962 0
M  V30 53507 C 5012.94 4.25978 -0.533011 0
M  V30 53508 C 5012.18 5.33324 0.200201 0
M  V30 53509 O 5012.4 5.5231 1.42512 0
M  V30 53510 O 5011.33 6.00186 -0.453879 0
M  V30 53511 H 5015.16 2.7835 -1.2147 0
M  V30 53512 H 5012.74 1.34169 -0.6572 0
M  V30 53513 H 5014.63 4.1304 0.835213 0
M  V30 53514 H 5013.3 2.99819 1.22025 0
M  V30 53515 H 5012.21 3.59995 -1.01758 0
M  V30 53516 H 5013.54 4.74173 -1.31987 0
M  V30 53517 N 5015.19 0.65489 1.43349 0
M  V30 53518 C 5016.1 -0.0362778 2.34572 0
M  V30 53519 C 5017.12 -0.810378 1.53977 0
M  V30 53520 O 5018.3 -0.757243 1.86622 0
M  V30 53521 C 5015.36 -0.989617 3.32276 0
M  V30 53522 C 5014.42 -0.212264 4.28775 0
M  V30 53523 C 5013.65 -1.12019 5.21812 0
M  V30 53524 O 5013.88 -2.35948 5.19312 0
M  V30 53525 O 5012.81 -0.591699 5.98985 0
M  V30 53526 H 5016.64 0.714631 2.95172 0
M  V30 53527 H 5014.22 0.41508 1.43518 0
M  V30 53528 H 5016.1 -1.53745 3.92352 0
M  V30 53529 H 5014.78 -1.72072 2.74177 0
M  V30 53530 H 5013.69 0.379193 3.72173 0
M  V30 53531 H 5015.02 0.47931 4.89861 0
M  V30 53532 N 5016.67 -1.5252 0.396917 0
M  V30 53533 C 5017.6 -2.29584 -0.425861 0
M  V30 53534 C 5018.58 -1.33285 -1.05684 0
M  V30 53535 O 5019.77 -1.62184 -1.06817 0
M  V30 53536 C 5016.9 -3.10827 -1.54932 0
M  V30 53537 C 5015.85 -4.15072 -1.04399 0
M  V30 53538 C 5015.18 -4.84586 -2.26011 0
M  V30 53539 C 5016.48 -5.22191 -0.106583 0
M  V30 53540 H 5018.17 -2.98611 0.21715 0
M  V30 53541 H 5015.72 -1.4361 0.105877 0
M  V30 53542 H 5017.67 -3.635 -2.1318 0
M  V30 53543 H 5016.39 -2.39546 -2.22003 0
M  V30 53544 H 5015.05 -3.63391 -0.483991 0
M  V30 53545 H 5014.7 -4.09846 -2.91609 0
M  V30 53546 H 5014.4 -5.5505 -1.92856 0
M  V30 53547 H 5015.93 -5.40066 -2.84887 0
M  V30 53548 H 5017.34 -5.70178 -0.597484 0
M  V30 53549 H 5015.74 -5.99947 0.135563 0
M  V30 53550 H 5016.81 -4.77528 0.842302 0
M  V30 53551 N 5018.15 -0.126964 -1.57088 0
M  V30 53552 C 5019.4 0.529099 -1.95466 0
M  V30 53553 C 5019.72 1.66176 -1.01072 0
M  V30 53554 O 5018.98 1.95667 -0.0360942 0
M  V30 53555 C 5019.28 1.09488 -3.40216 0
M  V30 53556 C 5018.94 0.082743 -4.50824 0
M  V30 53557 C 5017.61 -0.195546 -4.80803 0
M  V30 53558 C 5019.96 -0.606593 -5.17658 0
M  V30 53559 C 5017.29 -1.16932 -5.74929 0
M  V30 53560 C 5019.64 -1.56905 -6.12832 0
M  V30 53561 C 5018.3 -1.85525 -6.412 0
M  V30 53562 H 5017.57 0.193611 -0.715259 0
M  V30 53563 H 5020.22 -0.209556 -1.9035 0
M  V30 53564 H 5018.52 1.91046 -3.42065 0
M  V30 53565 H 5020.22 1.61074 -3.67228 0
M  V30 53566 H 5016.81 0.309829 -4.27479 0
M  V30 53567 H 5021 -0.404771 -4.94647 0
M  V30 53568 H 5016.25 -1.39771 -5.95209 0
M  V30 53569 H 5020.43 -2.10883 -6.63703 0
M  V30 53570 H 5018.05 -2.61134 -7.13942 0
M  V30 53571 N 5019.63 1.56915 0.14682 0
M  V30 53572 C 5021.04 1.51583 0.499465 0
M  V30 53573 C 5021.24 0.835415 1.83366 0
M  V30 53574 O 5020.3 0.40602 2.49214 0
M  V30 53575 C 5021.61 2.9635 0.509607 0
M  V30 53576 C 5023.16 3.0729 0.595109 0
M  V30 53577 C 5023.64 4.53564 0.635911 0
M  V30 53578 N 5025.13 4.57909 0.698129 0
M  V30 53579 C 5025.86 5.68465 0.750686 0
M  V30 53580 N 5025.36 6.8859 0.762578 0
M  V30 53581 N 5027.15 5.56498 0.791581 0
M  V30 53582 H 5019.3 1.99544 -0.727726 0
M  V30 53583 H 5021.56 0.910104 -0.265359 0
M  V30 53584 H 5021.27 3.49389 -0.402532 0
M  V30 53585 H 5021.14 3.52312 1.34745 0
M  V30 53586 H 5023.53 2.54271 1.49767 0
M  V30 53587 H 5023.61 2.54372 -0.269889 0
M  V30 53588 H 5023.26 5.07221 -0.262491 0
M  V30 53589 H 5023.19 5.04264 1.5174 0
M  V30 53590 H 5025.68 3.71431 0.696231 0
M  V30 53591 H 5025.99 7.68601 0.804534 0
M  V30 53592 H 5024.34 6.91151 0.730451 0
M  V30 53593 H 5027.53 4.61565 0.779462 0
M  V30 53594 H 5027.7 6.42674 0.829075 0
M  V30 53595 N 5021.11 -0.416173 1.52006 0
M  V30 53596 C 5022.04 -1.5273 1.69555 0
M  V30 53597 C 5023.02 -1.53262 0.543104 0
M  V30 53598 O 5024.2 -1.72074 0.769588 0
M  V30 53599 C 5021.33 -2.91277 1.72846 0
M  V30 53600 C 5020.37 -3.08685 2.94306 0
M  V30 53601 S 5021.21 -2.82742 4.54772 0
M  V30 53602 C 5022.36 -4.23532 4.60838 0
M  V30 53603 H 5022.6 -1.37614 2.63533 0
M  V30 53604 H 5020.13 -0.607285 1.41956 0
M  V30 53605 H 5022.09 -3.71128 1.75426 0
M  V30 53606 H 5020.75 -3.03739 0.800073 0
M  V30 53607 H 5019.94 -4.10031 2.9307 0
M  V30 53608 H 5019.54 -2.36689 2.89576 0
M  V30 53609 H 5021.83 -5.17063 4.37781 0
M  V30 53610 H 5022.78 -4.29794 5.62746 0
M  V30 53611 H 5023.19 -4.08174 3.89941 0
M  V30 53612 N 5022.58 -1.42509 -0.672966 0
M  V30 53613 C 5023.83 -1.43289 -1.43514 0
M  V30 53614 C 5024.16 -0.0497363 -1.94136 0
M  V30 53615 O 5023.44 0.926308 -1.71026 0
M  V30 53616 C 5023.72 -2.45883 -2.63085 0
M  V30 53617 C 5023.57 -3.93396 -2.18082 0
M  V30 53618 C 5024.89 -2.45444 -3.65301 0
M  V30 53619 H 5022.01 -0.521771 -0.520504 0
M  V30 53620 H 5024.65 -1.73935 -0.76464 0
M  V30 53621 H 5022.8 -2.19881 -3.20288 0
M  V30 53622 H 5024.48 -4.30385 -1.66031 0
M  V30 53623 H 5022.72 -4.07174 -1.49638 0
M  V30 53624 H 5023.39 -4.60762 -3.03977 0
M  V30 53625 H 5025.87 -2.68572 -3.17818 0
M  V30 53626 H 5024.74 -3.19204 -4.46542 0
M  V30 53627 H 5025 -1.48107 -4.16553 0
M  V30 53628 N 5024.06 0.909449 -1.28712 0
M  V30 53629 C 5025.02 1.99395 -1.13023 0
M  V30 53630 C 5026.02 1.60654 -0.0685925 0
M  V30 53631 O 5027.21 1.71333 -0.314731 0
M  V30 53632 C 5024.35 3.33075 -0.726202 0
M  V30 53633 H 5025.54 2.14743 -2.09345 0
M  V30 53634 H 5023.09 1.09268 -1.1176 0
M  V30 53635 H 5023.83 3.23428 0.237596 0
M  V30 53636 H 5023.61 3.62557 -1.49315 0
M  V30 53637 H 5025.1 4.12679 -0.639203 0
M  V30 53638 N 5025.54 1.1103 1.11848 0
M  V30 53639 C 5026.45 0.77733 2.21348 0
M  V30 53640 C 5027.47 -0.227761 1.72503 0
M  V30 53641 O 5028.64 -0.0649879 2.01295 0
M  V30 53642 C 5025.71 0.22079 3.45996 0
M  V30 53643 C 5024.77 1.28394 4.0965 0
M  V30 53644 C 5024 0.753864 5.28349 0
M  V30 53645 O 5024.22 -0.417579 5.68869 0
M  V30 53646 O 5023.16 1.51667 5.82478 0
M  V30 53647 H 5026.98 1.6915 2.52234 0
M  V30 53648 H 5024.57 0.885878 1.20302 0
M  V30 53649 H 5026.45 -0.0854275 4.21313 0
M  V30 53650 H 5025.13 -0.666151 3.16771 0
M  V30 53651 H 5024.03 1.64311 3.36084 0
M  V30 53652 H 5025.37 2.14412 4.43044 0
M  V30 53653 N 5027.02 -1.29376 0.899973 0
M  V30 53654 C 5028.26 -1.95838 0.526811 0
M  V30 53655 C 5028.6 -1.70777 -0.924591 0
M  V30 53656 O 5027.87 -1.0209 -1.65553 0
M  V30 53657 C 5028.16 -3.50635 0.820185 0
M  V30 53658 C 5028.01 -3.85152 2.32331 0
M  V30 53659 C 5029.33 -4.39029 0.306864 0
M  V30 53660 H 5026.45 -0.711315 0.192873 0
M  V30 53661 H 5029.09 -1.52988 1.1267 0
M  V30 53662 H 5027.24 -3.87264 0.309627 0
M  V30 53663 H 5028.91 -3.58467 2.90343 0
M  V30 53664 H 5027.15 -3.32686 2.78393 0
M  V30 53665 H 5027.82 -4.93196 2.47915 0
M  V30 53666 H 5030.3 -4.09394 0.744052 0
M  V30 53667 H 5029.18 -5.46224 0.541336 0
M  V30 53668 H 5029.44 -4.3494 -0.792435 0
M  V30 53669 N 5028.5 -0.662483 -1.43 0
M  V30 53670 C 5029.74 -0.179662 -2.01701 0
M  V30 53671 C 5030.07 1.20959 -1.52313 0
M  V30 53672 O 5029.33 1.8234 -0.710664 0
M  V30 53673 C 5029.63 -0.149489 -3.57087 0
M  V30 53674 C 5029.29 -1.48173 -4.25858 0
M  V30 53675 C 5027.95 -1.84654 -4.44361 0
M  V30 53676 C 5030.31 -2.35969 -4.64723 0
M  V30 53677 C 5027.63 -3.08578 -4.98995 0
M  V30 53678 C 5029.99 -3.59195 -5.20732 0
M  V30 53679 C 5028.65 -3.95859 -5.37449 0
M  V30 53680 H 5027.92 -0.0657431 -0.738078 0
M  V30 53681 H 5030.57 -0.855029 -1.71352 0
M  V30 53682 H 5028.87 0.609355 -3.87032 0
M  V30 53683 H 5030.57 0.2411 -4.00275 0
M  V30 53684 H 5027.16 -1.18792 -4.11809 0
M  V30 53685 H 5031.34 -2.09073 -4.50113 0
M  V30 53686 H 5026.6 -3.37023 -5.10123 0
M  V30 53687 H 5030.77 -4.27436 -5.49792 0
M  V30 53688 H 5028.4 -4.91963 -5.79549 0
M  V30 53689 N 5029.97 1.52307 -0.404999 0
M  V30 53690 C 5031.22 2.00953 0.173459 0
M  V30 53691 C 5031.54 1.29518 1.46576 0
M  V30 53692 O 5032.74 1.68957 2.12522 0
M  V30 53693 C 5031.2 3.58098 0.359675 0
M  V30 53694 C 5030.81 4.38446 -0.920292 0
M  V30 53695 C 5032.55 4.14987 0.893649 0
M  V30 53696 C 5030.46 5.87225 -0.701491 0
M  V30 53697 H 5029.39 0.750873 0.068598 0
M  V30 53698 H 5032.04 1.75685 -0.529811 0
M  V30 53699 H 5030.42 3.79679 1.12518 0
M  V30 53700 H 5031.59 4.28627 -1.69162 0
M  V30 53701 H 5029.91 3.92854 -1.38037 0
M  V30 53702 H 5032.51 5.23817 1.07331 0
M  V30 53703 H 5032.85 3.72078 1.86717 0
M  V30 53704 H 5033.38 3.97359 0.187313 0
M  V30 53705 H 5030.12 6.34486 -1.64646 0
M  V30 53706 H 5029.64 5.99792 0.030618 0
M  V30 53707 H 5031.32 6.46095 -0.342073 0
M  V30 53708 N 5031.45 0.135293 1.57018 0
M  V30 53709 C 5032.68 -0.525233 1.99812 0
M  V30 53710 C 5033.09 -1.5972 1.0142 0
M  V30 53711 O 5032.43 -1.837 0.00137396 0
M  V30 53712 C 5032.5 -1.19566 3.39034 0
M  V30 53713 C 5032.16 -0.269694 4.56204 0
M  V30 53714 C 5033.16 0.498087 5.17509 0
M  V30 53715 C 5030.84 -0.176012 5.01992 0
M  V30 53716 C 5032.84 1.34712 6.23002 0
M  V30 53717 C 5030.52 0.676635 6.07342 0
M  V30 53718 C 5031.52 1.43682 6.67716 0
M  V30 53719 O 5031.21 2.27528 7.71029 0
M  V30 53720 H 5030.94 -0.142273 0.660859 0
M  V30 53721 H 5033.49 0.223344 2.04182 0
M  V30 53722 H 5031.72 -1.99164 3.31467 0
M  V30 53723 H 5033.41 -1.75473 3.66011 0
M  V30 53724 H 5034.18 0.435677 4.83039 0
M  V30 53725 H 5030.06 -0.757423 4.54735 0
M  V30 53726 H 5033.6 1.94094 6.70055 0
M  V30 53727 H 5029.5 0.74038 6.4124 0
M  V30 53728 H 5030.27 2.20647 7.88199 0
M  V30 53729 N 5032.93 -1.5699 -0.138497 0
M  V30 53730 C 5034.18 -1.84969 -0.846051 0
M  V30 53731 C 5034.53 -0.720443 -1.78402 0
M  V30 53732 O 5033.82 0.28101 -1.89528 0
M  V30 53733 C 5034.02 -3.17013 -1.65037 0
M  V30 53734 C 5033.85 -4.42675 -0.791784 0
M  V30 53735 C 5032.62 -5.03255 -0.454116 0
M  V30 53736 C 5034.82 -5.14164 -0.118238 0
M  V30 53737 N 5032.8 -6.12481 0.417179 0
M  V30 53738 C 5034.17 -6.16964 0.612847 0
M  V30 53739 C 5036.22 -4.97884 -0.0397921 0
M  V30 53740 C 5034.93 -7.05245 1.41498 0
M  V30 53741 C 5036.95 -5.86636 0.749107 0
M  V30 53742 C 5036.31 -6.88924 1.46845 0
M  V30 53743 H 5032.41 -0.727372 -0.287147 0
M  V30 53744 H 5035 -1.94384 -0.110903 0
M  V30 53745 H 5033.17 -3.0873 -2.3567 0
M  V30 53746 H 5034.9 -3.32868 -2.30175 0
M  V30 53747 H 5031.66 -4.66933 -0.791873 0
M  V30 53748 H 5032.08 -6.71717 0.844101 0
M  V30 53749 H 5036.72 -4.18781 -0.581581 0
M  V30 53750 H 5034.44 -7.8377 1.968 0
M  V30 53751 H 5038.03 -5.76107 0.811908 0
M  V30 53752 H 5036.91 -7.56412 2.06908 0
M  V30 53753 N 5034.41 0.408106 -1.52224 0
M  V30 53754 C 5035.63 1.18121 -1.70476 0
M  V30 53755 C 5036.06 1.8349 -0.413905 0
M  V30 53756 O 5035.42 1.70049 0.628718 0
M  V30 53757 C 5035.46 2.21925 -2.84221 0
M  V30 53758 O 5034.57 3.2809 -2.49861 0
M  V30 53759 H 5033.91 0.344761 -0.567482 0
M  V30 53760 H 5036.44 0.478258 -1.98932 0
M  V30 53761 H 5036.45 2.66238 -3.09163 0
M  V30 53762 H 5035.12 1.7373 -3.77876 0
M  V30 53763 H 5033.7 2.89049 -2.35595 0
M  V30 53764 N 5035.89 1.42864 0.665399 0
M  V30 53765 C 5036.83 1.47076 1.77869 0
M  V30 53766 C 5037.8 0.321711 1.62955 0
M  V30 53767 O 5038.99 0.527134 1.83374 0
M  V30 53768 C 5036.13 1.38799 3.15957 0
M  V30 53769 C 5035.24 2.63813 3.42092 0
M  V30 53770 C 5034.38 2.47611 4.6996 0
M  V30 53771 C 5033.42 3.67953 4.8916 0
M  V30 53772 N 5032.55 3.50635 6.08276 0
M  V30 53773 H 5037.39 2.4221 1.73604 0
M  V30 53774 H 5034.93 1.20242 0.847359 0
M  V30 53775 H 5036.89 1.31996 3.95769 0
M  V30 53776 H 5035.52 0.472544 3.19323 0
M  V30 53777 H 5034.57 2.80944 2.56465 0
M  V30 53778 H 5035.88 3.5324 3.52169 0
M  V30 53779 H 5035.04 2.38447 5.57878 0
M  V30 53780 H 5033.77 1.55688 4.62182 0
M  V30 53781 H 5032.78 3.77539 3.99681 0
M  V30 53782 H 5034 4.60868 4.98776 0
M  V30 53783 H 5031.95 2.61438 6.01653 0
M  V30 53784 H 5031.87 4.33656 6.19257 0
M  V30 53785 H 5033.14 3.45301 6.98847 0
M  V30 53786 N 5037.36 -0.902611 1.29192 0
M  V30 53787 C 5038.59 -1.69162 1.19995 0
M  V30 53788 C 5039.01 -1.86608 -0.236429 0
M  V30 53789 O 5038.37 -1.38429 -1.17077 0
M  V30 53790 C 5038.42 -3.05525 1.91538 0
M  V30 53791 O 5037.52 -3.93617 1.23043 0
M  V30 53792 H 5036.87 -0.51757 0.415954 0
M  V30 53793 H 5039.4 -1.12779 1.7071 0
M  V30 53794 H 5039.41 -3.55686 1.99879 0
M  V30 53795 H 5038.08 -2.92146 2.96013 0
M  V30 53796 H 5036.66 -3.52051 1.22941 0
M  V30 53797 N 5038.84 -1.11622 -1.11258 0
M  V30 53798 C 5039.79 -0.745349 -2.15473 0
M  V30 53799 C 5040.78 0.25153 -1.58922 0
M  V30 53800 O 5041.97 0.0583471 -1.76904 0
M  V30 53801 C 5039.1 -0.192249 -3.42761 0
M  V30 53802 C 5038.18 -1.21691 -4.06266 0
M  V30 53803 N 5038.57 -2.41174 -4.446 0
M  V30 53804 C 5036.87 -1.06028 -4.33214 0
M  V30 53805 C 5037.57 -3.06538 -4.94378 0
M  V30 53806 N 5036.55 -2.34011 -4.90652 0
M  V30 53807 H 5040.35 -1.6547 -2.42893 0
M  V30 53808 H 5037.87 -0.99574 -1.28292 0
M  V30 53809 H 5039.86 0.0915873 -4.16799 0
M  V30 53810 H 5038.52 0.711666 -3.16805 0
M  V30 53811 H 5039.53 -2.78616 -4.3657 0
M  V30 53812 H 5036.21 -0.212956 -4.16957 0
M  V30 53813 H 5037.6 -4.08243 -5.33654 0
M  V30 53814 N 5040.32 1.28897 -0.906821 0
M  V30 53815 C 5041.27 2.29476 -0.379953 0
M  V30 53816 C 5042.26 1.61069 0.524691 0
M  V30 53817 O 5043.47 1.75345 0.406703 0
M  V30 53818 H 5039.84 0.744738 -0.104256 0
M  V30 53819 H 5041.81 2.71349 -1.24146 0
M  V30 53820 C 5040.56 3.45715 0.371033 0
M  V30 53821 H 5039.89 3.9855 -0.315856 0
M  V30 53822 H 5041.33 4.18107 0.704434 0
M  V30 53823 C 5039.79 2.97746 1.57636 0
M  V30 53824 O 5040.32 2.99627 2.67556 0
M  V30 53825 N 5038.52 2.5349 1.42096 0
M  V30 53826 H 5038.07 2.52158 0.526694 0
M  V30 53827 H 5038.03 2.21754 2.22873 0
M  V30 53828 N 5041.8 0.670057 1.42646 0
M  V30 53829 C 5043.05 0.190357 2.01603 0
M  V30 53830 C 5043.37 -1.20149 1.52952 0
M  V30 53831 O 5042.63 -1.81961 0.720324 0
M  V30 53832 C 5042.93 0.168424 3.57003 0
M  V30 53833 C 5042.59 1.5043 4.25067 0
M  V30 53834 C 5041.26 1.87008 4.43375 0
M  V30 53835 C 5043.61 2.38431 4.63465 0
M  V30 53836 C 5040.94 3.1122 4.97352 0
M  V30 53837 C 5043.29 3.61951 5.1882 0
M  V30 53838 C 5041.95 3.98704 5.35342 0
M  V30 53839 H 5041.22 0.0696564 0.737719 0
M  V30 53840 H 5043.87 0.864104 1.70896 0
M  V30 53841 H 5042.17 -0.588821 3.8735 0
M  V30 53842 H 5043.87 -0.219869 4.00397 0
M  V30 53843 H 5040.46 1.20974 4.11173 0
M  V30 53844 H 5044.65 2.11458 4.48998 0
M  V30 53845 H 5039.9 3.39723 5.08329 0
M  V30 53846 H 5044.08 4.30346 5.47518 0
M  V30 53847 H 5041.7 4.95029 5.76932 0
M  V30 53848 N 5043.28 -1.5209 0.413071 0
M  V30 53849 C 5044.22 -2.2712 -0.410478 0
M  V30 53850 C 5045.19 -1.29696 -1.0377 0
M  V30 53851 O 5046.38 -1.58565 -1.06122 0
M  V30 53852 C 5043.52 -3.09868 -1.51907 0
M  V30 53853 C 5042.63 -4.22255 -0.91238 0
M  V30 53854 C 5041.77 -4.92355 -1.99399 0
M  V30 53855 C 5040.81 -5.96699 -1.36445 0
M  V30 53856 N 5039.94 -6.603 -2.38638 0
M  V30 53857 H 5044.78 -2.97066 0.235765 0
M  V30 53858 H 5042.32 -1.46541 0.128107 0
M  V30 53859 H 5044.28 -3.56152 -2.17283 0
M  V30 53860 H 5042.91 -2.42086 -2.13528 0
M  V30 53861 H 5041.96 -3.80114 -0.147564 0
M  V30 53862 H 5043.27 -4.97091 -0.412542 0
M  V30 53863 H 5042.43 -5.42063 -2.72493 0
M  V30 53864 H 5041.17 -4.17096 -2.5275 0
M  V30 53865 H 5040.17 -5.46306 -0.618868 0
M  V30 53866 H 5041.4 -6.73902 -0.83859 0
M  V30 53867 H 5039.34 -5.87868 -2.91113 0
M  V30 53868 H 5039.26 -7.30823 -1.93477 0
M  V30 53869 H 5040.53 -7.14646 -3.11289 0
M  V30 53870 N 5044.76 -0.143618 -1.56944 0
M  V30 53871 C 5046.17 0.212821 -1.58175 0
M  V30 53872 C 5046.37 1.64922 -1.15771 0
M  V30 53873 O 5045.43 2.37532 -0.856444 0
M  V30 53874 C 5046.74 -0.042863 -3.00669 0
M  V30 53875 C 5048.29 0.0211121 -3.12993 0
M  V30 53876 C 5048.76 -0.207197 -4.57531 0
M  V30 53877 N 5050.25 -0.154008 -4.62944 0
M  V30 53878 C 5050.99 -0.305219 -5.72587 0
M  V30 53879 N 5050.49 -0.513965 -6.90891 0
M  V30 53880 N 5052.28 -0.24306 -5.61574 0
M  V30 53881 H 5044.43 -1.08154 -1.82802 0
M  V30 53882 H 5046.69 -0.427861 -0.845955 0
M  V30 53883 H 5046.4 -1.03684 -3.36069 0
M  V30 53884 H 5046.27 0.678065 -3.71055 0
M  V30 53885 H 5048.66 1.00564 -2.77436 0
M  V30 53886 H 5048.74 -0.732091 -2.451 0
M  V30 53887 H 5048.38 -1.18881 -4.93791 0
M  V30 53888 H 5048.31 0.566289 -5.23546 0
M  V30 53889 H 5050.81 0.00281581 -3.779 0
M  V30 53890 H 5051.12 -0.619544 -7.70313 0
M  V30 53891 H 5049.46 -0.550245 -6.92818 0
M  V30 53892 H 5052.65 -0.0807661 -4.6803 0
M  V30 53893 H 5052.83 -0.364339 -6.46975 0
M  V30 53894 N 5046.23 1.57062 0.130169 0
M  V30 53895 C 5047.14 2.02806 1.17927 0
M  V30 53896 C 5048.16 0.94643 1.46009 0
M  V30 53897 O 5049.34 1.25714 1.57347 0
M  V30 53898 C 5046.4 2.41377 2.48874 0
M  V30 53899 C 5045.46 3.63569 2.28289 0
M  V30 53900 C 5044.69 4.00291 3.52991 0
M  V30 53901 O 5044.92 3.37479 4.59852 0
M  V30 53902 O 5043.85 4.93453 3.44655 0
M  V30 53903 H 5047.68 2.92396 0.820855 0
M  V30 53904 H 5045.26 1.45476 0.340146 0
M  V30 53905 H 5047.14 2.6697 3.26045 0
M  V30 53906 H 5045.82 1.54936 2.84212 0
M  V30 53907 H 5044.73 3.43141 1.49013 0
M  V30 53908 H 5046.06 4.5068 1.97859 0
M  V30 53909 N 5047.71 -0.400028 1.52439 0
M  V30 53910 C 5048.62 -1.51247 1.79336 0
M  V30 53911 C 5049.64 -1.60186 0.679453 0
M  V30 53912 O 5050.81 -1.76729 0.965853 0
M  V30 53913 C 5047.88 -2.86893 1.94662 0
M  V30 53914 C 5046.94 -2.87766 3.18574 0
M  V30 53915 C 5046.17 -4.16942 3.33159 0
M  V30 53916 O 5046.4 -5.1132 2.52801 0
M  V30 53917 O 5045.33 -4.24855 4.26358 0
M  V30 53918 H 5049.16 -1.31451 2.73778 0
M  V30 53919 H 5046.74 -0.586786 1.37394 0
M  V30 53920 H 5048.62 -3.67329 2.06513 0
M  V30 53921 H 5047.3 -3.06738 1.03411 0
M  V30 53922 H 5046.2 -2.06151 3.12174 0
M  V30 53923 H 5047.54 -2.72872 4.09636 0
M  V30 53924 N 5049.19 -1.43215 -0.657814 0
M  V30 53925 C 5050.12 -1.4398 -1.78332 0
M  V30 53926 C 5051.13 -0.336538 -1.59284 0
M  V30 53927 O 5052.32 -0.60069 -1.68089 0
M  V30 53928 C 5049.42 -1.23253 -3.15693 0
M  V30 53929 C 5048.6 -2.46332 -3.61441 0
M  V30 53930 C 5047.66 -2.20896 -4.77589 0
M  V30 53931 O 5046.68 -2.94217 -4.87263 0
M  V30 53932 N 5047.88 -1.22271 -5.67477 0
M  V30 53933 H 5050.65 -2.40999 -1.78155 0
M  V30 53934 H 5048.21 -1.38313 -0.8415 0
M  V30 53935 H 5050.2 -1.04127 -3.91075 0
M  V30 53936 H 5048.77 -0.346958 -3.10669 0
M  V30 53937 H 5047.99 -2.80913 -2.76553 0
M  V30 53938 H 5049.28 -3.28253 -3.88751 0
M  V30 53939 H 5048.68 -0.616631 -5.62329 0
M  V30 53940 H 5047.23 -1.0913 -6.42599 0
M  V30 53941 N 5050.67 0.895746 -1.29669 0
M  V30 53942 C 5051.62 2.02169 -1.15024 0
M  V30 53943 C 5052.61 1.69276 -0.0648246 0
M  V30 53944 O 5053.82 1.78589 -0.224908 0
M  V30 53945 H 5050.19 0.662707 -0.35542 0
M  V30 53946 H 5052.16 2.11658 -2.10341 0
M  V30 53947 C 5050.91 3.37209 -0.847674 0
M  V30 53948 H 5050.23 3.63024 -1.67492 0
M  V30 53949 H 5051.67 4.16665 -0.785253 0
M  V30 53950 C 5050.13 3.33892 0.449173 0
M  V30 53951 O 5050.66 3.73678 1.47402 0
M  V30 53952 N 5048.87 2.86993 0.456446 0
M  V30 53953 H 5048.42 2.54811 -0.378014 0
M  V30 53954 H 5048.37 2.85157 1.32413 0
M  V30 53955 N 5052.15 1.1221 1.10665 0
M  V30 53956 C 5053.39 0.875939 1.82575 0
M  V30 53957 C 5053.72 -0.598277 1.8507 0
M  V30 53958 O 5052.98 -1.45814 1.30525 0
M  V30 53959 C 5053.27 1.39288 3.29141 0
M  V30 53960 C 5052.94 2.88172 3.46796 0
M  V30 53961 C 5051.6 3.28825 3.51323 0
M  V30 53962 C 5053.95 3.84023 3.52386 0
M  V30 53963 C 5051.28 4.64041 3.59003 0
M  V30 53964 C 5053.63 5.19066 3.61599 0
M  V30 53965 C 5052.3 5.59265 3.64389 0
M  V30 53966 H 5051.57 0.320529 0.668089 0
M  V30 53967 H 5054.22 1.40188 1.30459 0
M  V30 53968 H 5052.52 0.787342 3.83807 0
M  V30 53969 H 5054.22 1.17865 3.83287 0
M  V30 53970 H 5050.81 2.55729 3.43949 0
M  V30 53971 H 5054.99 3.53711 3.48142 0
M  V30 53972 H 5050.25 4.94581 3.59444 0
M  V30 53973 H 5054.42 5.93165 3.64868 0
M  V30 53974 H 5052.05 6.6403 3.70092 0
M  V30 53975 N 5053.62 -1.28415 0.913644 0
M  V30 53976 C 5054.87 -1.95268 0.547552 0
M  V30 53977 C 5055.2 -1.71749 -0.906426 0
M  V30 53978 O 5054.48 -1.0384 -1.64461 0
M  V30 53979 C 5054.76 -3.49745 0.857328 0
M  V30 53980 C 5054.61 -3.82667 2.36403 0
M  V30 53981 C 5055.93 -4.38679 0.353412 0
M  V30 53982 H 5053.05 -0.709229 0.200406 0
M  V30 53983 H 5055.69 -1.51784 1.14287 0
M  V30 53984 H 5053.84 -3.86914 0.350684 0
M  V30 53985 H 5055.52 -3.55368 2.94129 0
M  V30 53986 H 5053.76 -3.29715 2.81906 0
M  V30 53987 H 5054.43 -4.90538 2.53133 0
M  V30 53988 H 5056.91 -4.08581 0.787432 0
M  V30 53989 H 5055.78 -5.45619 0.59924 0
M  V30 53990 H 5056.04 -4.35756 -0.746259 0
M  V30 53991 N 5055.1 -0.677613 -1.42289 0
M  V30 53992 C 5056.35 -0.201343 -2.01798 0
M  V30 53993 C 5056.68 1.18999 -1.5347 0
M  V30 53994 O 5055.96 1.79951 -0.738102 0
M  V30 53995 C 5056.24 -0.239094 -3.59305 0
M  V30 53996 C 5056.09 -1.66608 -4.17806 0
M  V30 53997 C 5057.41 0.411133 -4.38175 0
M  V30 53998 H 5054.53 -0.0746372 -0.733211 0
M  V30 53999 H 5057.17 -0.862932 -1.69273 0
M  V30 54000 H 5055.32 0.324232 -3.87145 0
M  V30 54001 H 5056.99 -2.28187 -4.00909 0
M  V30 54002 H 5055.24 -2.20589 -3.73528 0
M  V30 54003 H 5055.91 -1.64416 -5.26945 0
M  V30 54004 H 5058.38 -0.0684266 -4.16044 0
M  V30 54005 H 5057.26 0.354094 -5.47757 0
M  V30 54006 H 5057.52 1.48915 -4.16265 0
M  V30 54007 N 5056.58 1.51869 -0.421131 0
M  V30 54008 C 5057.51 2.25054 0.433986 0
M  V30 54009 C 5058.53 1.28461 1.00008 0
M  V30 54010 O 5059.71 1.54326 0.896978 0
M  V30 54011 C 5056.81 2.97818 1.61733 0
M  V30 54012 C 5055.99 4.21378 1.173 0
M  V30 54013 C 5055.05 4.76862 2.22461 0
M  V30 54014 O 5054.07 5.3913 1.82558 0
M  V30 54015 N 5055.27 4.59479 3.54766 0
M  V30 54016 H 5058.04 2.99077 -0.193178 0
M  V30 54017 H 5055.6 1.59971 -0.249144 0
M  V30 54018 H 5057.59 3.31828 2.31673 0
M  V30 54019 H 5056.16 2.26907 2.15016 0
M  V30 54020 H 5055.38 3.93047 0.301262 0
M  V30 54021 H 5056.67 5.01594 0.853268 0
M  V30 54022 H 5056.07 4.09846 3.89927 0
M  V30 54023 H 5054.63 4.97894 4.20647 0
M  V30 54024 N 5058.06 0.151939 1.56866 0
M  V30 54025 C 5059.01 -0.802913 2.18303 0
M  V30 54026 C 5060 -1.2517 1.14144 0
M  V30 54027 O 5061.21 -1.21961 1.32384 0
M  V30 54028 H 5057.58 -0.277145 0.699067 0
M  V30 54029 H 5059.55 -0.260594 2.9726 0
M  V30 54030 C 5058.3 -2.02999 2.82289 0
M  V30 54031 H 5057.62 -1.69365 3.62154 0
M  V30 54032 H 5059.06 -2.67741 3.28771 0
M  V30 54033 C 5057.52 -2.84116 1.81051 0
M  V30 54034 O 5058.05 -3.80626 1.28401 0
M  V30 54035 N 5056.26 -2.48748 1.50243 0
M  V30 54036 H 5055.81 -1.7033 1.9325 0
M  V30 54037 H 5055.76 -3.03313 0.827552 0
M  V30 54038 N 5059.54 -1.57128 -0.121838 0
M  V30 54039 C 5060.45 -2.03429 -1.1685 0
M  V30 54040 C 5061.46 -0.954159 -1.45505 0
M  V30 54041 O 5062.64 -1.26547 -1.56678 0
M  V30 54042 C 5059.7 -2.42693 -2.4759 0
M  V30 54043 C 5058.76 -3.64775 -2.26357 0
M  V30 54044 C 5058 -4.02157 -3.50863 0
M  V30 54045 O 5058.22 -3.39913 -4.58056 0
M  V30 54046 O 5057.15 -4.95274 -3.42034 0
M  V30 54047 H 5060.98 -2.92828 -0.805337 0
M  V30 54048 H 5058.57 -1.45655 -0.332426 0
M  V30 54049 H 5060.45 -2.68695 -3.24624 0
M  V30 54050 H 5059.12 -1.56442 -2.83386 0
M  V30 54051 H 5058.03 -3.43927 -1.47191 0
M  V30 54052 H 5059.36 -4.51723 -1.95466 0
M  V30 54053 N 5061.01 0.391938 -1.52649 0
M  V30 54054 C 5062.26 1.13443 -1.66774 0
M  V30 54055 C 5062.58 1.91202 -0.412466 0
M  V30 54056 O 5063.78 2.68012 -0.433801 0
M  V30 54057 C 5062.24 2.06567 -2.94717 0
M  V30 54058 C 5061.85 1.34245 -4.27414 0
M  V30 54059 C 5063.59 2.8097 -3.18208 0
M  V30 54060 C 5061.5 2.26117 -5.46466 0
M  V30 54061 H 5060.43 0.427189 -0.62131 0
M  V30 54062 H 5063.08 0.397459 -1.79144 0
M  V30 54063 H 5061.46 2.83888 -2.76086 0
M  V30 54064 H 5062.63 0.621695 -4.56587 0
M  V30 54065 H 5060.95 0.718134 -4.10161 0
M  V30 54066 H 5063.55 3.49884 -4.04334 0
M  V30 54067 H 5063.89 3.44883 -2.33156 0
M  V30 54068 H 5064.42 2.10742 -3.37391 0
M  V30 54069 H 5061.16 1.66824 -6.33916 0
M  V30 54070 H 5060.68 2.96116 -5.21608 0
M  V30 54071 H 5062.36 2.86265 -5.80225 0
M  V30 54072 N 5062.49 1.43562 0.650209 0
M  V30 54073 C 5063.44 1.49226 1.78422 0
M  V30 54074 C 5064.43 0.365586 1.65408 0
M  V30 54075 O 5065.64 0.539709 1.71718 0
M  V30 54076 H 5062.02 0.467879 0.588722 0
M  V30 54077 H 5063.99 2.44707 1.70766 0
M  V30 54078 C 5062.74 1.4353 3.16693 0
M  V30 54079 H 5062.06 2.29531 3.27346 0
M  V30 54080 H 5063.5 1.51554 3.95989 0
M  V30 54081 C 5061.96 0.153316 3.36551 0
M  V30 54082 O 5062.49 -0.784178 3.93971 0
M  V30 54083 N 5060.69 0.0625423 2.90533 0
M  V30 54084 H 5060.24 0.826257 2.43989 0
M  V30 54085 H 5060.2 -0.794509 3.04196 0
M  V30 54086 N 5063.97 -0.888857 1.30143 0
M  V30 54087 C 5064.92 -2.01556 1.16095 0
M  V30 54088 C 5065.91 -1.69239 0.0738008 0
M  V30 54089 O 5067.12 -1.78468 0.234376 0
M  V30 54090 H 5063.49 -0.660813 0.35893 0
M  V30 54091 H 5065.46 -2.1054 2.1146 0
M  V30 54092 C 5064.21 -3.36755 0.865545 0
M  V30 54093 H 5063.54 -3.62131 1.69415 0
M  V30 54094 H 5064.98 -4.16243 0.807338 0
M  V30 54095 C 5063.44 -3.34126 -0.43146 0
M  V30 54096 O 5063.97 -3.74455 -1.45418 0
M  V30 54097 N 5062.17 -2.87231 -0.44122 0
M  V30 54098 H 5061.72 -2.54607 0.391522 0
M  V30 54099 H 5061.68 -2.85855 -1.30898 0
M  V30 54100 N 5065.45 -1.12795 -1.10068 0
M  V30 54101 C 5066.38 -0.742997 -2.15766 0
M  V30 54102 C 5067.36 0.267658 -1.60382 0
M  V30 54103 O 5068.54 0.160716 -1.87814 0
M  V30 54104 C 5065.67 -0.100363 -3.38551 0
M  V30 54105 C 5064.72 -1.07845 -4.1264 0
M  V30 54106 S 5065.55 -2.60781 -4.67711 0
M  V30 54107 C 5066.71 -1.97859 -5.93804 0
M  V30 54108 H 5066.94 -1.63831 -2.48086 0
M  V30 54109 H 5064.47 -0.947428 -1.21915 0
M  V30 54110 H 5066.43 0.264031 -4.0965 0
M  V30 54111 H 5065.09 0.772116 -3.04462 0
M  V30 54112 H 5064.28 -0.576501 -5.00692 0
M  V30 54113 H 5063.89 -1.38598 -3.47371 0
M  V30 54114 H 5066.18 -1.32364 -6.64444 0
M  V30 54115 H 5067.12 -2.83966 -6.48667 0
M  V30 54116 H 5067.53 -1.43286 -5.46012 0
M  V30 54117 N 5066.93 1.27928 -0.920441 0
M  V30 54118 C 5068.15 1.99341 -0.572549 0
M  V30 54119 C 5068.58 1.6827 0.840637 0
M  V30 54120 O 5067.93 0.91886 1.5629 0
M  V30 54121 C 5067.98 3.51695 -0.796408 0
M  V30 54122 O 5067.09 4.12157 0.141457 0
M  V30 54123 H 5066.43 0.626057 -0.221243 0
M  V30 54124 H 5068.96 1.62917 -1.23771 0
M  V30 54125 H 5068.97 4.0179 -0.709125 0
M  V30 54126 H 5067.64 3.73643 -1.82657 0
M  V30 54127 H 5066.22 3.729 0.00487591 0
M  V30 54128 N 5068.4 0.685149 1.41928 0
M  V30 54129 C 5069.65 0.211729 2.0139 0
M  V30 54130 C 5069.98 -1.1852 1.54218 0
M  V30 54131 O 5069.23 -1.81187 0.739583 0
M  V30 54132 C 5069.53 0.206279 3.56804 0
M  V30 54133 C 5069.2 1.5493 4.23447 0
M  V30 54134 C 5067.86 1.917 4.41367 0
M  V30 54135 C 5070.21 2.43333 4.60911 0
M  V30 54136 C 5067.54 3.16478 4.94023 0
M  V30 54137 C 5069.89 3.67433 5.14952 0
M  V30 54138 C 5068.56 4.0436 5.31083 0
M  V30 54139 H 5067.83 0.077477 0.736938 0
M  V30 54140 H 5070.47 0.882181 1.6997 0
M  V30 54141 H 5068.78 -0.547705 3.87953 0
M  V30 54142 H 5070.48 -0.17739 4.00607 0
M  V30 54143 H 5067.07 1.25328 4.09867 0
M  V30 54144 H 5071.25 2.16208 4.4673 0
M  V30 54145 H 5066.51 3.45096 5.04697 0
M  V30 54146 H 5070.68 4.36129 5.42922 0
M  V30 54147 H 5068.31 5.01121 5.71649 0
M  V30 54148 N 5069.88 -1.51644 0.429179 0
M  V30 54149 C 5070.81 -2.30435 -0.377067 0
M  V30 54150 C 5071.79 -1.35497 -1.02833 0
M  V30 54151 O 5072.98 -1.64414 -1.03353 0
M  V30 54152 C 5070.11 -3.14043 -1.48304 0
M  V30 54153 C 5069.06 -4.17193 -0.955708 0
M  V30 54154 C 5068.39 -4.89271 -2.15681 0
M  V30 54155 C 5069.69 -5.223 0.00420498 0
M  V30 54156 H 5071.38 -2.98084 0.280441 0
M  V30 54157 H 5068.93 -1.43353 0.136315 0
M  V30 54158 H 5070.88 -3.6794 -2.05422 0
M  V30 54159 H 5069.61 -2.44201 -2.16872 0
M  V30 54160 H 5068.26 -3.64336 -0.406801 0
M  V30 54161 H 5067.91 -4.15939 -2.8285 0
M  V30 54162 H 5067.61 -5.59016 -1.81039 0
M  V30 54163 H 5069.14 -5.45988 -2.73367 0
M  V30 54164 H 5070.55 -5.71317 -0.476406 0
M  V30 54165 H 5068.95 -5.99524 0.26279 0
M  V30 54166 H 5070.02 -4.75634 0.943404 0
M  V30 54167 N 5071.36 -0.160256 -1.56783 0
M  V30 54168 C 5072.61 0.48755 -1.95719 0
M  V30 54169 C 5072.92 1.65133 -1.04836 0
M  V30 54170 O 5074.13 2.36464 -1.33406 0
M  V30 54171 C 5072.59 0.918757 -3.47975 0
M  V30 54172 C 5072.19 -0.218812 -4.47465 0
M  V30 54173 C 5073.94 1.53561 -3.95752 0
M  V30 54174 C 5071.84 0.231407 -5.90947 0
M  V30 54175 H 5070.77 0.185913 -0.73072 0
M  V30 54176 H 5073.43 -0.246721 -1.81834 0
M  V30 54177 H 5071.81 1.70868 -3.5724 0
M  V30 54178 H 5072.98 -0.995983 -4.49908 0
M  V30 54179 H 5071.3 -0.744911 -4.09683 0
M  V30 54180 H 5073.89 1.8843 -5.00398 0
M  V30 54181 H 5074.24 2.42947 -3.38057 0
M  V30 54182 H 5074.77 0.81033 -3.89459 0
M  V30 54183 H 5071.51 -0.62741 -6.5249 0
M  V30 54184 H 5071.03 0.974171 -5.91836 0
M  V30 54185 H 5072.71 0.678994 -6.43427 0
M  V30 54186 N 5072.84 1.57191 0.113503 0
M  V30 54187 C 5074.07 1.89331 0.834356 0
M  V30 54188 C 5074.48 0.752079 1.73174 0
M  V30 54189 O 5073.84 -0.276849 1.80388 0
M  V30 54190 C 5073.89 3.20968 1.66318 0
M  V30 54191 O 5073.61 4.30698 0.801917 0
M  V30 54192 C 5075.11 3.66849 2.48871 0
M  V30 54193 H 5072.33 0.626777 0.239565 0
M  V30 54194 H 5074.88 2.04273 0.0962476 0
M  V30 54195 H 5073.03 3.07679 2.35399 0
M  V30 54196 H 5073.45 5.0618 1.37413 0
M  V30 54197 H 5074.92 4.61702 3.02547 0
M  V30 54198 H 5075.4 2.93776 3.26484 0
M  V30 54199 H 5076 3.82945 1.85022 0
M  V30 54200 N 5074.32 -0.383837 1.52854 0
M  V30 54201 C 5075.59 -1.1429 1.58736 0
M  V30 54202 C 5075.97 -2.07584 0.383684 0
M  V30 54203 O 5075.32 -2.19713 -0.627584 0
M  V30 54204 C 5075.53 -1.89806 2.92873 0
M  V30 54205 C 5076.88 -2.44986 3.46796 0
M  V30 54206 O 5077.9 -1.99956 2.94782 0
M  V30 54207 O 5076.76 -3.27255 4.37683 0
M  V30 54208 H 5073.86 -0.523237 0.640431 0
M  V30 54209 H 5076.4 -0.388573 1.65191 0
M  V30 54210 H 5075.18 -1.21613 3.71922 0
M  V30 54211 H 5074.8 -2.72189 2.89826 0
M  V30 54212 N 5075.8 -1.43905 -0.642587 0
M  V30 54213 C 5077.02 -1.49545 -1.42983 0
M  V30 54214 C 5077.44 -0.116654 -1.88439 0
M  V30 54215 O 5076.8 0.875229 -1.60144 0
M  V30 54216 C 5076.85 -2.45041 -2.65777 0
M  V30 54217 O 5076.57 -3.77559 -2.22218 0
M  V30 54218 C 5078.07 -2.6003 -3.59026 0
M  V30 54219 H 5075.29 -0.50756 -0.43889 0
M  V30 54220 H 5077.83 -1.88755 -0.786875 0
M  V30 54221 H 5075.99 -2.08997 -3.26189 0
M  V30 54222 H 5076.4 -4.29011 -3.01744 0
M  V30 54223 H 5077.88 -3.30902 -4.41823 0
M  V30 54224 H 5078.35 -1.64875 -4.07078 0
M  V30 54225 H 5078.96 -2.96928 -3.04489 0
M  V30 54226 N 5077.27 0.881943 -1.30612 0
M  V30 54227 C 5078.22 1.98799 -1.17251 0
M  V30 54228 C 5079.19 1.65987 -0.0612489 0
M  V30 54229 O 5080.38 1.89385 -0.231978 0
M  V30 54230 C 5077.52 3.33864 -0.873447 0
M  V30 54231 C 5076.63 3.79347 -2.06688 0
M  V30 54232 C 5075.76 5.03072 -1.70564 0
M  V30 54233 C 5074.8 5.40971 -2.86385 0
M  V30 54234 N 5073.94 6.55878 -2.50537 0
M  V30 54235 H 5078.78 2.09559 -2.1187 0
M  V30 54236 H 5076.32 1.02603 -1.05409 0
M  V30 54237 H 5078.27 4.1161 -0.680664 0
M  V30 54238 H 5076.9 3.2278 0.0358848 0
M  V30 54239 H 5075.96 2.97483 -2.37082 0
M  V30 54240 H 5077.27 4.03372 -2.93415 0
M  V30 54241 H 5076.42 5.88452 -1.47679 0
M  V30 54242 H 5075.16 4.80925 -0.810116 0
M  V30 54243 H 5074.17 4.54116 -3.09933 0
M  V30 54244 H 5075.39 5.6509 -3.76629 0
M  V30 54245 H 5073.34 6.353 -1.63494 0
M  V30 54246 H 5073.25 6.79787 -3.30795 0
M  V30 54247 H 5074.52 7.44481 -2.31016 0
M  V30 54248 N 5078.75 1.13378 1.09468 0
M  V30 54249 C 5079.98 0.918777 1.85939 0
M  V30 54250 C 5080.4 -0.527161 1.80562 0
M  V30 54251 O 5079.76 -1.37404 1.18279 0
M  V30 54252 C 5079.81 1.41068 3.31862 0
M  V30 54253 O 5078.91 0.595639 4.08076 0
M  V30 54254 H 5078.25 0.329317 0.576582 0
M  V30 54255 H 5080.78 1.50834 1.3824 0
M  V30 54256 H 5080.79 1.41411 3.8271 0
M  V30 54257 H 5079.47 2.46347 3.35091 0
M  V30 54258 H 5078.04 0.66004 3.67012 0
M  V30 54259 N 5080.23 -1.27438 0.927213 0
M  V30 54260 C 5081.18 -2.26862 0.424539 0
M  V30 54261 C 5082.15 -1.58132 -0.508291 0
M  V30 54262 O 5083.33 -1.85948 -0.427555 0
M  V30 54263 C 5080.47 -3.4364 -0.317059 0
M  V30 54264 C 5079.58 -4.27085 0.649826 0
M  V30 54265 C 5078.72 -5.31083 -0.111567 0
M  V30 54266 C 5077.76 -6.06197 0.848056 0
M  V30 54267 N 5076.9 -7.01999 0.119321 0
M  V30 54268 H 5081.74 -2.69235 1.27737 0
M  V30 54269 H 5079.27 -1.32392 0.641153 0
M  V30 54270 H 5081.23 -4.10157 -0.763341 0
M  V30 54271 H 5079.86 -3.02221 -1.13413 0
M  V30 54272 H 5078.91 -3.60487 1.21464 0
M  V30 54273 H 5080.22 -4.79237 1.38323 0
M  V30 54274 H 5079.38 -6.03546 -0.617787 0
M  V30 54275 H 5078.12 -4.79733 -0.877946 0
M  V30 54276 H 5077.12 -5.32572 1.36553 0
M  V30 54277 H 5078.35 -6.59636 1.61421 0
M  V30 54278 H 5076.29 -6.52979 -0.628821 0
M  V30 54279 H 5076.21 -7.51837 0.79231 0
M  V30 54280 H 5077.48 -7.78639 -0.366264 0
M  V30 54281 N 5081.71 -0.692666 -1.41562 0
M  V30 54282 C 5082.64 0.0249828 -2.28186 0
M  V30 54283 C 5083.62 0.790863 -1.42071 0
M  V30 54284 O 5084.8 0.782284 -1.71501 0
M  V30 54285 C 5081.93 1.04274 -3.22249 0
M  V30 54286 C 5080.98 0.370366 -4.24889 0
M  V30 54287 S 5081.81 -0.885128 -5.28134 0
M  V30 54288 C 5082.96 0.131104 -6.25763 0
M  V30 54289 H 5083.2 -0.709728 -2.88704 0
M  V30 54290 H 5080.73 -0.482835 -1.46656 0
M  V30 54291 H 5082.69 1.62479 -3.76976 0
M  V30 54292 H 5081.35 1.75 -2.60833 0
M  V30 54293 H 5080.54 1.13893 -4.90963 0
M  V30 54294 H 5080.14 -0.138543 -3.73743 0
M  V30 54295 H 5082.44 0.985291 -6.70297 0
M  V30 54296 H 5083.38 -0.495633 -7.06363 0
M  V30 54297 H 5083.79 0.484579 -5.62416 0
M  V30 54298 N 5083.19 1.51414 -0.437215 0
M  V30 54299 C 5084.41 2.0699 0.130351 0
M  V30 54300 C 5084.84 1.30253 1.35704 0
M  V30 54301 O 5084.19 0.340451 1.78075 0
M  V30 54302 C 5084.24 3.58011 0.431294 0
M  V30 54303 O 5083.35 3.83455 1.51776 0
M  V30 54304 H 5082.69 0.663997 0.00192005 0
M  V30 54305 H 5085.22 1.95027 -0.618513 0
M  V30 54306 H 5085.23 4.02263 0.681784 0
M  V30 54307 H 5083.9 4.13289 -0.465283 0
M  V30 54308 H 5082.48 3.51067 1.25725 0
M  V30 54309 N 5084.66 0.168568 1.56696 0
M  V30 54310 C 5085.61 -0.762798 2.1783 0
M  V30 54311 C 5086.58 -1.22888 1.11749 0
M  V30 54312 O 5087.77 -1.29754 1.39887 0
M  V30 54313 C 5084.91 -1.9878 2.821 0
M  V30 54314 C 5084.02 -1.56554 4.02635 0
M  V30 54315 C 5083.15 -2.744 4.54839 0
M  V30 54316 C 5082.19 -2.28651 5.6779 0
M  V30 54317 N 5081.33 -3.3958 6.14516 0
M  V30 54318 H 5086.17 -0.234686 2.97074 0
M  V30 54319 H 5083.71 -0.104112 1.46731 0
M  V30 54320 H 5085.66 -2.70625 3.17518 0
M  V30 54321 H 5084.29 -2.48966 2.05464 0
M  V30 54322 H 5083.35 -0.743936 3.73055 0
M  V30 54323 H 5084.66 -1.18971 4.84404 0
M  V30 54324 H 5083.81 -3.54405 4.92424 0
M  V30 54325 H 5082.55 -3.15241 3.72121 0
M  V30 54326 H 5081.56 -1.47092 5.29759 0
M  V30 54327 H 5082.78 -1.88871 6.52307 0
M  V30 54328 H 5080.73 -3.80002 5.34728 0
M  V30 54329 H 5080.64 -3.06081 6.91267 0
M  V30 54330 H 5081.91 -4.19879 6.56751 0
M  V30 54331 N 5086.14 -1.57249 -0.105165 0
M  V30 54332 C 5087.11 -2.00392 -1.11245 0
M  V30 54333 C 5088.11 -0.895987 -1.33524 0
M  V30 54334 O 5089.3 -1.16171 -1.29807 0
M  V30 54335 C 5086.43 -2.35598 -2.46387 0
M  V30 54336 H 5087.62 -2.90593 -0.741322 0
M  V30 54337 H 5085.17 -1.52333 -0.349902 0
M  V30 54338 H 5085.91 -1.4832 -2.88395 0
M  V30 54339 H 5085.69 -3.16416 -2.31567 0
M  V30 54340 H 5087.18 -2.69669 -3.18855 0
M  V30 54341 N 5087.62 0.375726 -1.53056 0
M  V30 54342 C 5088.58 1.44248 -1.78115 0
M  V30 54343 C 5089.58 1.47016 -0.651379 0
M  V30 54344 O 5090.77 1.47954 -0.919524 0
M  V30 54345 C 5087.91 2.83443 -1.89401 0
M  V30 54346 H 5089.1 1.23306 -2.73378 0
M  V30 54347 H 5086.65 0.608262 -1.43979 0
M  V30 54348 H 5087.39 3.09713 -0.961698 0
M  V30 54349 H 5087.17 2.82834 -2.71565 0
M  V30 54350 H 5088.66 3.60714 -2.10416 0
M  V30 54351 N 5089.1 1.44244 0.634946 0
M  V30 54352 C 5090.34 1.47043 1.39664 0
M  V30 54353 C 5090.68 0.101191 1.93936 0
M  V30 54354 O 5089.95 -0.880638 1.73421 0
M  V30 54355 C 5090.24 2.52772 2.56473 0
M  V30 54356 C 5090.09 3.9904 2.07575 0
M  V30 54357 C 5091.41 2.55043 3.58665 0
M  V30 54358 H 5088.53 0.535388 0.506487 0
M  V30 54359 H 5091.17 1.75901 0.718255 0
M  V30 54360 H 5089.32 2.28295 3.14346 0
M  V30 54361 H 5090.99 4.34636 1.54562 0
M  V30 54362 H 5089.23 4.10998 1.3879 0
M  V30 54363 H 5089.9 4.6866 2.91654 0
M  V30 54364 H 5092.38 2.76904 3.10585 0
M  V30 54365 H 5091.26 3.30931 4.37922 0
M  V30 54366 H 5091.52 1.59099 4.1248 0
M  V30 54367 N 5090.58 -0.875004 1.31078 0
M  V30 54368 C 5091.8 -1.66579 1.23556 0
M  V30 54369 C 5092.23 -1.87068 -0.196794 0
M  V30 54370 O 5091.58 -1.40881 -1.14115 0
M  V30 54371 C 5091.63 -3.01394 1.97975 0
M  V30 54372 O 5090.74 -3.90918 1.31365 0
M  V30 54373 H 5090.08 -0.50863 0.426839 0
M  V30 54374 H 5092.61 -1.09133 1.73064 0
M  V30 54375 H 5092.62 -3.51366 2.07378 0
M  V30 54376 H 5091.29 -2.85801 3.02143 0
M  V30 54377 H 5089.87 -3.49364 1.30381 0
M  V30 54378 N 5092.05 -1.13957 -1.08865 0
M  V30 54379 C 5093.33 -0.815831 -1.77774 0
M  V30 54380 C 5093.71 0.691554 -1.99451 0
M  V30 54381 O 5093.06 1.63079 -1.60055 0
M  V30 54382 C 5093.27 -1.60926 -3.09683 0
M  V30 54383 C 5094.62 -1.80563 -3.84294 0
M  V30 54384 O 5095.64 -1.57573 -3.19451 0
M  V30 54385 O 5094.5 -2.18963 -5.00717 0
M  V30 54386 H 5091.59 -0.298472 -0.771261 0
M  V30 54387 H 5094.14 -1.2445 -1.1537 0
M  V30 54388 H 5092.91 -2.63341 -2.89426 0
M  V30 54389 H 5092.54 -1.17591 -3.79813 0
M  V30 54390 N 5093.53 1.26945 -0.933958 0
M  V30 54391 C 5094.46 2.25767 -0.395216 0
M  V30 54392 C 5095.48 1.55639 0.47753 0
M  V30 54393 O 5096.67 1.76143 0.289142 0
M  V30 54394 C 5093.77 3.35875 0.451764 0
M  V30 54395 C 5092.94 4.35538 -0.403143 0
M  V30 54396 C 5092 5.2481 0.382216 0
M  V30 54397 O 5091.02 5.68804 -0.212257 0
M  V30 54398 N 5092.23 5.55642 1.68053 0
M  V30 54399 H 5094.99 2.72629 -1.24473 0
M  V30 54400 H 5092.55 1.40637 -0.802058 0
M  V30 54401 H 5094.54 3.92546 0.984378 0
M  V30 54402 H 5093.11 2.88565 1.20205 0
M  V30 54403 H 5092.33 3.78043 -1.11702 0
M  V30 54404 H 5093.62 4.99128 -0.987376 0
M  V30 54405 H 5093.02 5.21768 2.18574 0
M  V30 54406 H 5091.58 6.14986 2.15954 0
M  V30 54407 N 5095.01 0.700164 1.41193 0
M  V30 54408 C 5095.92 0.0383678 2.34569 0
M  V30 54409 C 5096.94 -0.760981 1.56477 0
M  V30 54410 O 5098.11 -0.697487 1.88937 0
M  V30 54411 C 5095.18 -0.883404 3.35256 0
M  V30 54412 C 5094.24 -0.0757448 4.29233 0
M  V30 54413 C 5093.47 -0.953615 5.25111 0
M  V30 54414 O 5093.69 -2.19308 5.26555 0
M  V30 54415 O 5092.63 -0.400838 6.00564 0
M  V30 54416 H 5096.45 0.808176 2.92749 0
M  V30 54417 H 5094.04 0.460529 1.42125 0
M  V30 54418 H 5095.92 -1.41185 3.97045 0
M  V30 54419 H 5094.6 -1.63262 2.79512 0
M  V30 54420 H 5093.5 0.497405 3.70778 0
M  V30 54421 H 5094.84 0.634913 4.88088 0
M  V30 54422 N 5096.49 -1.5118 0.445239 0
M  V30 54423 C 5097.9 -1.59299 0.0979514 0
M  V30 54424 C 5098.1 -1.45555 -1.39341 0
M  V30 54425 O 5097.16 -1.30081 -2.16414 0
M  V30 54426 C 5098.47 -2.94131 0.625108 0
M  V30 54427 C 5100.02 -3.07461 0.586245 0
M  V30 54428 C 5100.5 -4.44828 1.09051 0
M  V30 54429 N 5101.99 -4.51169 1.04883 0
M  V30 54430 C 5102.72 -5.55799 1.40979 0
M  V30 54431 N 5102.22 -6.67809 1.84399 0
M  V30 54432 N 5104.01 -5.46201 1.32745 0
M  V30 54433 H 5096.16 -1.58358 1.4155 0
M  V30 54434 H 5098.43 -0.746925 0.583786 0
M  V30 54435 H 5098.13 -3.09583 1.66887 0
M  V30 54436 H 5098.01 -3.77161 0.0543588 0
M  V30 54437 H 5100.39 -2.91671 -0.448543 0
M  V30 54438 H 5100.47 -2.26251 1.19349 0
M  V30 54439 H 5100.12 -4.61364 2.1238 0
M  V30 54440 H 5100.05 -5.24589 0.459724 0
M  V30 54441 H 5102.54 -3.70781 0.730062 0
M  V30 54442 H 5102.85 -7.43676 2.10158 0
M  V30 54443 H 5101.2 -6.68996 1.88332 0
M  V30 54444 H 5104.39 -4.5758 0.986839 0
M  V30 54445 H 5104.56 -6.27628 1.61204 0
M  V30 54446 N 5097.97 -0.176876 -1.56604 0
M  V30 54447 C 5098.91 0.751236 -2.18232 0
M  V30 54448 C 5099.88 1.22293 -1.12399 0
M  V30 54449 O 5101.07 1.2901 -1.40574 0
M  V30 54450 C 5098.21 1.97281 -2.8315 0
M  V30 54451 C 5097.32 1.54417 -4.03459 0
M  V30 54452 C 5096.46 2.71984 -4.56287 0
M  V30 54453 C 5095.5 2.25637 -5.68994 0
M  V30 54454 N 5094.63 3.36316 -6.16308 0
M  V30 54455 H 5099.47 0.218928 -2.97195 0
M  V30 54456 H 5097.01 0.0963287 -1.46784 0
M  V30 54457 H 5098.97 2.68937 -3.18949 0
M  V30 54458 H 5097.6 2.47873 -2.06782 0
M  V30 54459 H 5096.65 0.724141 -3.73444 0
M  V30 54460 H 5097.96 1.164 -4.85028 0
M  V30 54461 H 5097.12 3.51789 -4.94297 0
M  V30 54462 H 5095.85 3.13263 -3.73788 0
M  V30 54463 H 5094.86 1.4428 -5.30531 0
M  V30 54464 H 5096.08 1.85409 -6.533 0
M  V30 54465 H 5094.03 3.77161 -5.36736 0
M  V30 54466 H 5093.95 3.02411 -6.92881 0
M  V30 54467 H 5095.22 4.1639 -6.58969 0
M  V30 54468 N 5099.44 1.57302 0.0968247 0
M  V30 54469 C 5100.39 2.01937 1.11759 0
M  V30 54470 C 5101.36 0.895379 1.39901 0
M  V30 54471 O 5102.55 1.16125 1.51392 0
M  V30 54472 C 5099.69 2.44735 2.43308 0
M  V30 54473 C 5098.8 3.70647 2.21912 0
M  V30 54474 C 5097.93 4.0233 3.46848 0
M  V30 54475 C 5096.97 5.21358 3.20707 0
M  V30 54476 N 5096.11 5.48802 4.37904 0
M  V30 54477 H 5100.95 2.88921 0.729973 0
M  V30 54478 H 5098.49 1.42902 0.348911 0
M  V30 54479 H 5100.45 2.67592 3.20079 0
M  V30 54480 H 5099.08 1.60763 2.7992 0
M  V30 54481 H 5098.13 3.55276 1.35953 0
M  V30 54482 H 5099.44 4.57564 1.98586 0
M  V30 54483 H 5098.59 4.25955 4.32027 0
M  V30 54484 H 5097.33 3.13931 3.73227 0
M  V30 54485 H 5096.34 4.97555 2.33921 0
M  V30 54486 H 5097.56 6.11353 2.95676 0
M  V30 54487 H 5095.51 4.63362 4.64362 0
M  V30 54488 H 5095.43 6.30088 4.17763 0
M  V30 54489 H 5096.69 5.76961 5.24153 0
M  V30 54490 N 5100.92 -0.367603 1.53253 0
M  V30 54491 C 5101.86 -1.47258 1.74328 0
M  V30 54492 C 5102.83 -1.51456 0.591588 0
M  V30 54493 O 5104.02 -1.69539 0.823942 0
M  V30 54494 C 5101.15 -2.8563 1.82025 0
M  V30 54495 C 5100.19 -2.99165 3.03978 0
M  V30 54496 S 5101.02 -2.6813 4.63537 0
M  V30 54497 C 5102.18 -4.08656 4.74079 0
M  V30 54498 H 5102.41 -1.2916 2.67778 0
M  V30 54499 H 5099.95 -0.561815 1.43816 0
M  V30 54500 H 5101.9 -3.65359 1.87145 0
M  V30 54501 H 5100.57 -3.0104 0.8963 0
M  V30 54502 H 5099.76 -4.005 3.05967 0
M  V30 54503 H 5099.36 -2.27356 2.9696 0
M  V30 54504 H 5101.65 -5.02873 4.5401 0
M  V30 54505 H 5102.6 -4.11673 5.76135 0
M  V30 54506 H 5103 -3.95562 4.0273 0
M  V30 54507 N 5102.4 -1.44578 -0.627288 0
M  V30 54508 C 5103.35 -1.5174 -1.73907 0
M  V30 54509 C 5104.32 -0.364802 -1.62044 0
M  V30 54510 O 5105.5 -0.575567 -1.81912 0
M  V30 54511 C 5102.64 -1.47127 -3.12166 0
M  V30 54512 C 5101.76 -2.7279 -3.34977 0
M  V30 54513 C 5100.89 -2.59984 -4.6323 0
M  V30 54514 C 5099.93 -3.80793 -4.79232 0
M  V30 54515 N 5099.07 -3.66639 -5.98765 0
M  V30 54516 H 5103.91 -2.46728 -1.67121 0
M  V30 54517 H 5101.44 -1.22447 -0.815181 0
M  V30 54518 H 5103.4 -1.42443 -3.9213 0
M  V30 54519 H 5102.03 -0.55704 -3.17957 0
M  V30 54520 H 5101.08 -2.87645 -2.48926 0
M  V30 54521 H 5102.4 -3.62453 -3.42679 0
M  V30 54522 H 5101.55 -2.53154 -5.5136 0
M  V30 54523 H 5100.29 -1.67888 -4.57892 0
M  V30 54524 H 5099.29 -3.88003 -3.8953 0
M  V30 54525 H 5100.52 -4.7393 -4.86381 0
M  V30 54526 H 5098.47 -2.77298 -5.9451 0
M  V30 54527 H 5098.38 -4.49922 -6.07541 0
M  V30 54528 H 5099.65 -3.63708 -6.89447 0
M  V30 54529 N 5103.88 0.86804 -1.3154 0
M  V30 54530 C 5105.3 1.1541 -1.1024 0
M  V30 54531 C 5105.5 2.01106 0.125876 0
M  V30 54532 O 5104.55 2.38997 0.814649 0
M  V30 54533 C 5105.86 1.84437 -2.37494 0
M  V30 54534 C 5107.41 1.9713 -2.43123 0
M  V30 54535 C 5107.89 2.69572 -3.70264 0
M  V30 54536 N 5109.38 2.77106 -3.71169 0
M  V30 54537 C 5110.11 3.33775 -4.66242 0
M  V30 54538 N 5109.61 3.9136 -5.71672 0
M  V30 54539 N 5111.4 3.31751 -4.53759 0
M  V30 54540 H 5103.55 0.297035 -2.10313 0
M  V30 54541 H 5105.82 0.194194 -0.927897 0
M  V30 54542 H 5105.52 1.28918 -3.2722 0
M  V30 54543 H 5105.4 2.847 -2.47438 0
M  V30 54544 H 5107.78 2.51813 -1.53865 0
M  V30 54545 H 5107.86 0.959036 -2.37142 0
M  V30 54546 H 5107.51 2.15556 -4.59889 0
M  V30 54547 H 5107.44 3.7121 -3.73512 0
M  V30 54548 H 5109.93 2.36239 -2.94957 0
M  V30 54549 H 5110.24 4.32717 -6.40293 0
M  V30 54550 H 5108.59 3.8973 -5.75444 0
M  V30 54551 H 5111.78 2.86003 -3.70567 0
M  V30 54552 H 5111.95 3.75617 -5.2803 0
M  V30 54553 N 5105.36 1.14532 1.0826 0
M  V30 54554 C 5106.3 0.833631 2.15219 0
M  V30 54555 C 5107.27 -0.209481 1.64774 0
M  V30 54556 O 5108.46 -0.0790717 1.90636 0
M  V30 54557 C 5105.6 0.31892 3.43623 0
M  V30 54558 C 5104.71 1.42251 4.07908 0
M  V30 54559 C 5103.85 0.864888 5.24112 0
M  V30 54560 C 5102.89 1.94605 5.80341 0
M  V30 54561 N 5102.02 1.40549 6.87888 0
M  V30 54562 H 5106.86 1.74974 2.41222 0
M  V30 54563 H 5104.4 0.87321 1.18378 0
M  V30 54564 H 5106.36 0.00227754 4.172 0
M  V30 54565 H 5104.99 -0.560286 3.179 0
M  V30 54566 H 5104.04 1.85552 3.32076 0
M  V30 54567 H 5105.35 2.23917 4.45716 0
M  V30 54568 H 5104.51 0.500238 6.04634 0
M  V30 54569 H 5103.25 0.0172934 4.87697 0
M  V30 54570 H 5102.25 2.31964 4.98471 0
M  V30 54571 H 5103.48 2.79726 6.18813 0
M  V30 54572 H 5101.42 0.580102 6.5343 0
M  V30 54573 H 5101.34 2.15851 7.2453 0
M  V30 54574 H 5102.61 1.06879 7.72138 0
M  V30 54575 N 5106.84 -1.26448 0.940677 0
M  V30 54576 C 5108.08 -1.93393 0.586816 0
M  V30 54577 C 5108.4 -1.74173 -0.87686 0
M  V30 54578 O 5107.67 -1.09706 -1.623 0
M  V30 54579 H 5106.25 -0.715679 0.214037 0
M  V30 54580 H 5108.92 -1.53897 1.19589 0
M  V30 54581 H 5108.01 -3.01562 0.804165 0
M  V30 54582 N 5108.31 -0.707642 -1.4082 0
M  V30 54583 C 5109.59 -0.171241 -1.94849 0
M  V30 54584 C 5109.97 1.32137 -1.6463 0
M  V30 54585 O 5109.32 2.07368 -0.95972 0
M  V30 54586 C 5109.53 -0.475455 -3.45746 0
M  V30 54587 C 5110.88 -0.409773 -4.22618 0
M  V30 54588 O 5111.9 -0.411058 -3.5382 0
M  V30 54589 O 5110.76 -0.380376 -5.45175 0
M  V30 54590 H 5107.85 -0.022044 -0.826706 0
M  V30 54591 H 5110.4 -0.78463 -1.50471 0
M  V30 54592 H 5109.17 -1.50813 -3.61069 0
M  V30 54593 H 5108.79 0.168299 -3.97244 0
M  V30 54594 N 5109.79 1.50942 -0.45325 0
M  V30 54595 C 5111.21 1.59245 -0.106398 0
M  V30 54596 C 5111.41 1.46292 1.38567 0
M  V30 54597 O 5110.46 1.31227 2.15722 0
M  V30 54598 C 5111.78 2.93795 -0.640698 0
M  V30 54599 C 5113.32 3.07146 -0.602543 0
M  V30 54600 C 5113.8 4.44243 -1.11408 0
M  V30 54601 N 5115.29 4.50607 -1.07274 0
M  V30 54602 C 5116.03 5.55044 -1.43924 0
M  V30 54603 N 5115.52 6.66822 -1.87938 0
M  V30 54604 N 5117.31 5.45489 -1.3564 0
M  V30 54605 H 5109.47 1.57605 -1.42388 0
M  V30 54606 H 5111.73 0.743819 -0.587739 0
M  V30 54607 H 5111.43 3.08694 -1.68526 0
M  V30 54608 H 5111.31 3.77127 -0.0743598 0
M  V30 54609 H 5113.7 2.91905 0.433069 0
M  V30 54610 H 5113.78 2.25615 -1.20547 0
M  V30 54611 H 5113.42 4.60232 -2.14824 0
M  V30 54612 H 5113.35 5.24338 -0.487537 0
M  V30 54613 H 5115.84 3.70389 -0.749715 0
M  V30 54614 H 5116.15 7.42551 -2.14099 0
M  V30 54615 H 5114.5 6.67988 -1.91877 0
M  V30 54616 H 5117.69 4.5705 -1.01109 0
M  V30 54617 H 5117.86 6.26765 -1.6453 0
M  V30 54618 N 5111.27 0.185179 1.56508 0
M  V30 54619 C 5112.5 -0.461398 2.01382 0
M  V30 54620 C 5112.91 -1.56413 1.0645 0
M  V30 54621 O 5112.25 -1.83603 0.059816 0
M  V30 54622 C 5112.31 -1.08719 3.42667 0
M  V30 54623 C 5111.98 -0.12442 4.56831 0
M  V30 54624 C 5112.97 0.662477 5.15662 0
M  V30 54625 C 5110.66 -0.0162181 5.02297 0
M  V30 54626 C 5112.65 1.54464 6.18401 0
M  V30 54627 C 5110.34 0.869514 6.04882 0
M  V30 54628 C 5111.34 1.64852 6.62807 0
M  V30 54629 O 5111.03 2.51942 7.63401 0
M  V30 54630 H 5110.76 -0.121176 0.665051 0
M  V30 54631 H 5113.31 0.28819 2.03368 0
M  V30 54632 H 5111.54 -1.88518 3.37636 0
M  V30 54633 H 5113.23 -1.6374 3.71408 0
M  V30 54634 H 5114 0.589132 4.81409 0
M  V30 54635 H 5109.88 -0.612369 4.56915 0
M  V30 54636 H 5113.42 2.15313 6.63541 0
M  V30 54637 H 5109.32 0.94401 6.3856 0
M  V30 54638 H 5110.08 2.45611 7.8078 0
M  V30 54639 N 5112.75 -1.57351 -0.0884812 0
M  V30 54640 C 5113.97 -1.91014 -0.807983 0
M  V30 54641 C 5114.4 -0.780069 -1.71162 0
M  V30 54642 O 5113.76 0.26802 -1.79308 0
M  V30 54643 C 5113.8 -3.23568 -1.59173 0
M  V30 54644 O 5112.91 -3.11624 -2.70119 0
M  V30 54645 H 5112.25 -0.625951 -0.221543 0
M  V30 54646 H 5114.78 -2.04507 -0.0617235 0
M  V30 54647 H 5114.79 -3.57037 -1.97455 0
M  V30 54648 H 5113.46 -4.05401 -0.928599 0
M  V30 54649 H 5112.04 -2.89682 -2.34817 0
M  V30 54650 N 5114.23 0.359471 -1.53446 0
M  V30 54651 C 5115.16 1.46331 -1.75107 0
M  V30 54652 C 5116.14 1.5114 -0.599612 0
M  V30 54653 O 5117.32 1.691 -0.832922 0
M  V30 54654 C 5114.45 2.84661 -1.83537 0
M  V30 54655 C 5113.49 2.97549 -3.0556 0
M  V30 54656 S 5114.33 2.65668 -4.64952 0
M  V30 54657 C 5115.48 4.06136 -4.7624 0
M  V30 54658 H 5115.72 1.27738 -2.68459 0
M  V30 54659 H 5113.25 0.554181 -1.44112 0
M  V30 54660 H 5115.21 3.64361 -1.8908 0
M  V30 54661 H 5113.87 3.00561 -0.912253 0
M  V30 54662 H 5113.06 3.98872 -3.08086 0
M  V30 54663 H 5112.66 2.25778 -2.98161 0
M  V30 54664 H 5114.95 5.00459 -4.5667 0
M  V30 54665 H 5115.9 4.08611 -5.7831 0
M  V30 54666 H 5116.31 3.9342 -4.04822 0
M  V30 54667 N 5115.7 1.44909 0.619611 0
M  V30 54668 C 5116.64 1.48658 1.74452 0
M  V30 54669 C 5117.65 0.378651 1.58335 0
M  V30 54670 O 5118.84 0.645045 1.66437 0
M  V30 54671 C 5115.94 1.31579 3.12314 0
M  V30 54672 C 5115.11 2.55828 3.54783 0
M  V30 54673 C 5114.17 2.33481 4.71564 0
M  V30 54674 O 5113.2 3.07032 4.79291 0
M  V30 54675 N 5114.4 1.37274 5.64036 0
M  V30 54676 H 5117.16 2.45638 1.71703 0
M  V30 54677 H 5114.72 1.40495 0.804533 0
M  V30 54678 H 5116.72 1.14459 3.88177 0
M  V30 54679 H 5115.29 0.429204 3.09639 0
M  V30 54680 H 5114.51 2.88147 2.69008 0
M  V30 54681 H 5115.79 3.38444 3.79912 0
M  V30 54682 H 5115.19 0.765506 5.60497 0
M  V30 54683 H 5113.75 1.26129 6.3948 0
M  V30 54684 N 5117.18 -0.861052 1.31999 0
M  V30 54685 C 5118.41 -1.64736 1.25179 0
M  V30 54686 C 5118.83 -1.87927 -0.181359 0
M  V30 54687 O 5118.18 -1.44374 -1.11635 0
M  V30 54688 C 5118.23 -3.01029 2.0016 0
M  V30 54689 O 5117.95 -2.78868 3.37882 0
M  V30 54690 C 5119.46 -3.95474 2.00287 0
M  V30 54691 H 5116.68 -0.513299 0.432164 0
M  V30 54692 H 5119.22 -1.07413 1.74019 0
M  V30 54693 H 5117.37 -3.55015 1.55058 0
M  V30 54694 H 5117.79 -3.65501 3.76178 0
M  V30 54695 H 5119.26 -4.88394 2.57246 0
M  V30 54696 H 5119.74 -4.27953 0.987557 0
M  V30 54697 H 5120.35 -3.47425 2.45308 0
M  V30 54698 N 5118.66 -1.15105 -1.07651 0
M  V30 54699 C 5119.89 -0.948242 -1.84454 0
M  V30 54700 C 5120.31 0.498369 -1.81378 0
M  V30 54701 O 5119.67 1.35505 -1.2045 0
M  V30 54702 C 5119.72 -1.4633 -3.29575 0
M  V30 54703 O 5118.82 -0.660485 -4.07077 0
M  V30 54704 H 5118.16 -0.338448 -0.571269 0
M  V30 54705 H 5120.69 -1.53014 -1.35822 0
M  V30 54706 H 5120.7 -1.47482 -3.80412 0
M  V30 54707 H 5119.38 -2.51647 -3.31129 0
M  V30 54708 H 5117.95 -0.718345 -3.65916 0
M  V30 54709 N 5120.14 1.25947 -0.94737 0
M  V30 54710 C 5121.07 2.2852 -0.479685 0
M  V30 54711 C 5122.05 1.63471 0.470235 0
M  V30 54712 O 5123.23 1.90628 0.370757 0
M  V30 54713 C 5120.36 3.46398 0.250167 0
M  V30 54714 C 5119.32 4.23576 -0.613792 0
M  V30 54715 C 5118.64 5.34132 0.24638 0
M  V30 54716 C 5119.94 4.86972 -1.88826 0
M  V30 54717 H 5121.64 2.67891 -1.33697 0
M  V30 54718 H 5119.18 1.28781 -0.64432 0
M  V30 54719 H 5121.14 4.17271 0.588429 0
M  V30 54720 H 5119.86 3.05997 1.14164 0
M  V30 54721 H 5118.52 3.54475 -0.935035 0
M  V30 54722 H 5118.17 4.89972 1.13739 0
M  V30 54723 H 5117.87 5.86682 -0.32833 0
M  V30 54724 H 5119.39 6.07841 0.579772 0
M  V30 54725 H 5120.81 5.50028 -1.61686 0
M  V30 54726 H 5119.2 5.49667 -2.40804 0
M  V30 54727 H 5120.27 4.09566 -2.59584 0
M  V30 54728 N 5121.62 0.7151 1.40442 0
M  V30 54729 C 5122.87 0.251393 2.00127 0
M  V30 54730 C 5123.18 -1.16189 1.57351 0
M  V30 54731 O 5124.38 -1.72409 2.09732 0
M  V30 54732 C 5122.84 0.398533 3.57687 0
M  V30 54733 C 5122.45 1.81843 4.09435 0
M  V30 54734 C 5124.19 -0.00440702 4.245 0
M  V30 54735 C 5122.1 1.91618 5.59497 0
M  V30 54736 H 5121.03 0.0902344 0.748581 0
M  V30 54737 H 5123.68 0.886119 1.60687 0
M  V30 54738 H 5122.06 -0.304769 3.94825 0
M  V30 54739 H 5123.24 2.55207 3.83675 0
M  V30 54740 H 5121.55 2.17278 3.55217 0
M  V30 54741 H 5124.15 0.0479183 5.34679 0
M  V30 54742 H 5124.49 -1.04622 4.02939 0
M  V30 54743 H 5125.02 0.649322 3.92465 0
M  V30 54744 H 5121.76 2.93919 5.85911 0
M  V30 54745 H 5121.28 1.22664 5.87123 0
M  V30 54746 H 5122.96 1.68807 6.2459 0
M  V30 54747 N 5123.09 -1.50699 0.461248 0
M  V30 54748 C 5124.34 -2.02567 -0.0972698 0
M  V30 54749 C 5124.67 -1.34325 -1.40252 0
M  V30 54750 O 5123.95 -0.465759 -1.88841 0
M  V30 54751 C 5124.23 -3.5892 -0.291297 0
M  V30 54752 C 5124.08 -4.37747 1.03428 0
M  V30 54753 C 5125.4 -4.27383 -1.05033 0
M  V30 54754 H 5122.52 -0.736221 -0.0338767 0
M  V30 54755 H 5125.16 -1.80113 0.604919 0
M  V30 54756 H 5123.31 -3.78182 -0.889406 0
M  V30 54757 H 5124.99 -4.3008 1.66821 0
M  V30 54758 H 5123.23 -4.01879 1.63327 0
M  V30 54759 H 5123.9 -5.45381 0.852277 0
M  V30 54760 H 5126.38 -4.12536 -0.543458 0
M  V30 54761 H 5125.25 -5.36613 -1.15487 0
M  V30 54762 H 5125.51 -3.89875 -2.08447 0
M  V30 54763 N 5124.57 -0.193476 -1.56408 0
M  V30 54764 C 5125.54 0.714294 -2.17785 0
M  V30 54765 C 5126.54 1.14216 -1.13187 0
M  V30 54766 O 5127.73 1.05552 -1.3858 0
M  V30 54767 C 5124.86 1.97499 -2.77861 0
M  V30 54768 H 5126.05 0.179609 -2.99362 0
M  V30 54769 H 5123.6 0.0561395 -1.56199 0
M  V30 54770 H 5124.34 2.55223 -2.00079 0
M  V30 54771 H 5124.12 1.67694 -3.54431 0
M  V30 54772 H 5125.61 2.62235 -3.24996 0
M  V30 54773 N 5126.05 1.57396 0.0801353 0
M  V30 54774 C 5127.01 2.02137 1.08043 0
M  V30 54775 C 5128.01 0.917117 1.32082 0
M  V30 54776 O 5129.2 1.18221 1.27943 0
M  V30 54777 C 5126.34 2.39488 2.42608 0
M  V30 54778 H 5127.53 2.91736 0.694998 0
M  V30 54779 H 5125.08 1.5287 0.325623 0
M  V30 54780 H 5125.82 1.52889 2.85999 0
M  V30 54781 H 5125.6 3.2006 2.26504 0
M  V30 54782 H 5127.09 2.74708 3.14524 0
M  V30 54783 N 5127.53 -0.351328 1.53634 0
M  V30 54784 C 5128.46 -1.43681 1.8406 0
M  V30 54785 C 5129.44 -1.55248 0.695128 0
M  V30 54786 O 5130.62 -1.69583 0.946317 0
M  V30 54787 C 5127.75 -2.80836 2.04325 0
M  V30 54788 C 5126.71 -2.84082 3.20127 0
M  V30 54789 C 5126.03 -4.24048 3.2571 0
M  V30 54790 C 5127.33 -2.50318 4.58408 0
M  V30 54791 H 5129.03 -1.18468 2.74965 0
M  V30 54792 H 5126.57 -0.568463 1.32305 0
M  V30 54793 H 5128.53 -3.56813 2.24193 0
M  V30 54794 H 5127.25 -3.07467 1.10143 0
M  V30 54795 H 5125.91 -2.10558 3.00102 0
M  V30 54796 H 5125.56 -4.47777 2.29139 0
M  V30 54797 H 5125.26 -4.27133 4.03524 0
M  V30 54798 H 5126.78 -5.01878 3.4778 0
M  V30 54799 H 5128.2 -3.16008 4.78343 0
M  V30 54800 H 5126.59 -2.64698 5.38567 0
M  V30 54801 H 5127.66 -1.45526 4.62548 0
M  V30 54802 N 5129.01 -1.45235 -0.611918 0
M  V30 54803 C 5129.95 -1.53576 -1.72288 0
M  V30 54804 C 5130.92 -0.381969 -1.61648 0
M  V30 54805 O 5132.11 -0.594829 -1.81291 0
M  V30 54806 C 5129.25 -1.5043 -3.10588 0
M  V30 54807 C 5128.36 -2.76328 -3.32065 0
M  V30 54808 C 5127.5 -2.64882 -4.60446 0
M  V30 54809 C 5126.54 -3.85854 -4.75166 0
M  V30 54810 N 5125.67 -3.7297 -5.94843 0
M  V30 54811 H 5130.51 -2.48486 -1.64495 0
M  V30 54812 H 5128.05 -1.23304 -0.802148 0
M  V30 54813 H 5130.01 -1.46594 -3.90597 0
M  V30 54814 H 5128.64 -0.590732 -3.17349 0
M  V30 54815 H 5127.69 -2.90269 -2.45861 0
M  V30 54816 H 5129 -3.66067 -3.38816 0
M  V30 54817 H 5128.16 -2.58988 -5.48644 0
M  V30 54818 H 5126.89 -1.72735 -4.56085 0
M  V30 54819 H 5125.9 -3.92112 -3.85393 0
M  V30 54820 H 5127.12 -4.79062 -4.81327 0
M  V30 54821 H 5125.07 -2.83588 -5.91535 0
M  V30 54822 H 5124.99 -4.5634 -6.02735 0
M  V30 54823 H 5126.26 -3.71 -6.8555 0
M  V30 54824 N 5130.49 0.85404 -1.32453 0
M  V30 54825 C 5131.9 1.14234 -1.11457 0
M  V30 54826 C 5132.1 2.01229 0.104539 0
M  V30 54827 O 5131.16 2.39848 0.789255 0
M  V30 54828 C 5132.47 1.81908 -2.39437 0
M  V30 54829 C 5134.02 1.9454 -2.452 0
M  V30 54830 C 5134.49 2.65629 -3.73102 0
M  V30 54831 N 5135.98 2.73154 -3.74087 0
M  V30 54832 C 5136.72 3.28811 -4.69756 0
M  V30 54833 N 5136.22 3.85274 -5.75791 0
M  V30 54834 N 5138.01 3.2692 -4.57252 0
M  V30 54835 H 5130.16 0.274712 -2.10616 0
M  V30 54836 H 5132.42 0.184342 -0.929904 0
M  V30 54837 H 5132.13 1.25441 -3.28569 0
M  V30 54838 H 5132 2.8206 -2.50444 0
M  V30 54839 H 5134.39 2.50167 -1.56527 0
M  V30 54840 H 5134.47 0.933831 -2.38145 0
M  V30 54841 H 5134.11 2.10666 -4.62149 0
M  V30 54842 H 5134.04 3.67227 -3.77428 0
M  V30 54843 H 5136.54 2.33097 -2.97446 0
M  V30 54844 H 5136.85 4.25902 -6.44847 0
M  V30 54845 H 5135.19 3.83605 -5.79545 0
M  V30 54846 H 5138.38 2.82057 -3.7358 0
M  V30 54847 H 5138.56 3.69996 -5.31984 0
M  V30 54848 N 5131.96 1.15674 1.07039 0
M  V30 54849 C 5132.89 0.879424 2.16306 0
M  V30 54850 C 5133.87 -0.171251 1.69236 0
M  V30 54851 O 5135.06 -0.0249493 1.94184 0
M  V30 54852 C 5132.19 0.371429 3.45308 0
M  V30 54853 C 5131.14 1.35915 4.05846 0
M  V30 54854 C 5130.47 0.709864 5.29967 0
M  V30 54855 C 5131.77 2.72622 4.45505 0
M  V30 54856 H 5133.46 1.79317 2.39762 0
M  V30 54857 H 5131.01 0.863598 1.1523 0
M  V30 54858 H 5132.96 0.164946 4.21077 0
M  V30 54859 H 5131.69 -0.577793 3.21448 0
M  V30 54860 H 5130.35 1.55204 3.32125 0
M  V30 54861 H 5129.99 -0.245605 5.024 0
M  V30 54862 H 5129.69 1.36906 5.71429 0
M  V30 54863 H 5131.22 0.513229 6.08439 0
M  V30 54864 H 5132.63 2.57159 5.12389 0
M  V30 54865 H 5131.03 3.34945 4.97928 0
M  V30 54866 H 5132.1 3.28446 3.56723 0
M  V30 54867 N 5133.44 -1.25443 0.954036 0
M  V30 54868 C 5134.37 -2.28262 0.491797 0
M  V30 54869 C 5135.35 -1.63718 -0.46156 0
M  V30 54870 O 5136.54 -1.90822 -0.360643 0
M  V30 54871 C 5133.67 -3.46526 -0.231793 0
M  V30 54872 C 5132.62 -4.23244 0.636247 0
M  V30 54873 C 5131.95 -5.34255 -0.21805 0
M  V30 54874 C 5133.25 -4.85964 1.91406 0
M  V30 54875 H 5134.94 -2.67178 1.35116 0
M  V30 54876 H 5132.49 -1.28437 0.65114 0
M  V30 54877 H 5134.44 -4.17578 -0.566292 0
M  V30 54878 H 5133.16 -3.06598 -1.1254 0
M  V30 54879 H 5131.82 -3.53974 0.95382 0
M  V30 54880 H 5131.47 -4.90568 -1.11139 0
M  V30 54881 H 5131.17 -5.865 0.359438 0
M  V30 54882 H 5132.7 -6.0814 -0.547529 0
M  V30 54883 H 5134.11 -5.49163 1.646 0
M  V30 54884 H 5132.51 -5.48382 2.43715 0
M  V30 54885 H 5133.58 -4.08183 2.61753 0
M  V30 54886 N 5134.92 -0.722538 -1.40061 0
M  V30 54887 C 5136.33 -0.336572 -1.83641 0
M  V30 54888 C 5136.68 1.12996 -1.60394 0
M  V30 54889 O 5135.81 1.87032 -1.08848 0
M  V30 54890 C 5136.4 -0.604102 -3.33371 0
M  V30 54891 C 5134.96 -0.271769 -3.75418 0
M  V30 54892 C 5134.11 -0.872991 -2.632 0
M  V30 54893 H 5137.06 -0.921153 -1.2923 0
M  V30 54894 H 5137.08 0.128337 -3.80284 0
M  V30 54895 H 5136.59 -1.67154 -3.50259 0
M  V30 54896 H 5134.69 0.790327 -3.64122 0
M  V30 54897 H 5134.81 -0.745623 -4.73262 0
M  V30 54898 H 5133.17 -0.30052 -2.52921 0
M  V30 54899 H 5133.95 -1.94483 -2.82898 0
M  V30 54900 N 5136.4 1.50453 -0.469234 0
M  V30 54901 C 5137.65 2.01508 0.0880717 0
M  V30 54902 C 5137.96 1.35618 1.40951 0
M  V30 54903 O 5139.17 1.77819 2.05165 0
M  V30 54904 C 5137.62 3.59302 0.20747 0
M  V30 54905 C 5137.23 4.34148 -1.10542 0
M  V30 54906 C 5138.97 4.18404 0.716834 0
M  V30 54907 C 5136.88 5.83721 -0.949922 0
M  V30 54908 H 5135.81 0.753107 0.0366891 0
M  V30 54909 H 5138.46 1.7328 -0.603848 0
M  V30 54910 H 5136.84 3.84109 0.96313 0
M  V30 54911 H 5138.02 4.21066 -1.87189 0
M  V30 54912 H 5136.33 3.86646 -1.54576 0
M  V30 54913 H 5138.93 5.27898 0.850178 0
M  V30 54914 H 5139.27 3.79663 1.70768 0
M  V30 54915 H 5139.81 3.97796 0.0186113 0
M  V30 54916 H 5136.54 6.26931 -1.91409 0
M  V30 54917 H 5136.06 5.99382 -0.223802 0
M  V30 54918 H 5137.74 6.44063 -0.615796 0
M  V30 54919 N 5137.88 0.201768 1.56303 0
M  V30 54920 C 5139.12 -0.434378 1.97377 0
M  V30 54921 C 5139.44 -1.61688 1.09004 0
M  V30 54922 O 5138.71 -1.95223 0.16275 0
M  V30 54923 H 5137.29 -0.163471 0.728894 0
M  V30 54924 H 5139.96 0.290056 1.9273 0
M  V30 54925 H 5139.05 -0.774029 3.02349 0
M  V30 54926 N 5139.35 -1.57436 -0.071787 0
M  V30 54927 C 5140.28 -2.06728 -1.08563 0
M  V30 54928 C 5141.26 -0.96078 -1.40367 0
M  V30 54929 O 5142.45 -1.2335 -1.49994 0
M  V30 54930 C 5139.58 -2.51121 -2.39908 0
M  V30 54931 C 5138.53 -3.65647 -2.22456 0
M  V30 54932 C 5137.86 -3.96095 -3.59184 0
M  V30 54933 C 5139.16 -4.95693 -1.64579 0
M  V30 54934 H 5140.85 -2.91681 -0.675467 0
M  V30 54935 H 5138.4 -1.4032 -0.323471 0
M  V30 54936 H 5140.35 -2.84217 -3.11125 0
M  V30 54937 H 5139.08 -1.63196 -2.82904 0
M  V30 54938 H 5137.74 -3.32834 -1.53679 0
M  V30 54939 H 5137.38 -3.05301 -3.9975 0
M  V30 54940 H 5137.08 -4.73211 -3.48346 0
M  V30 54941 H 5138.61 -4.31687 -4.31832 0
M  V30 54942 H 5140.02 -5.27019 -2.25662 0
M  V30 54943 H 5138.42 -5.77131 -1.64437 0
M  V30 54944 H 5139.49 -4.81082 -0.60727 0
M  V30 54945 N 5140.83 0.343176 -1.53818 0
M  V30 54946 C 5141.78 1.44169 -1.82532 0
M  V30 54947 C 5142.77 1.54449 -0.695826 0
M  V30 54948 O 5143.98 1.57069 -0.879169 0
M  V30 54949 H 5140.35 0.480708 -0.578293 0
M  V30 54950 H 5142.33 1.17166 -2.74435 0
M  V30 54951 C 5141.07 2.80687 -2.05207 0
M  V30 54952 H 5140.4 2.73544 -2.91571 0
M  V30 54953 H 5141.84 3.56671 -2.29263 0
M  V30 54954 C 5140.3 3.26319 -0.837703 0
M  V30 54955 O 5140.83 4.01683 -0.0373043 0
M  V30 54956 N 5139.03 2.83126 -0.654823 0
M  V30 54957 H 5138.58 2.21961 -1.30733 0
M  V30 54958 H 5138.54 3.14012 0.156234 0
M  V30 54959 N 5142.31 1.45558 0.604207 0
M  V30 54960 C 5143.56 1.49023 1.35922 0
M  V30 54961 C 5143.87 0.137478 1.95116 0
M  V30 54962 O 5145.08 0.0497986 2.71454 0
M  V30 54963 C 5143.53 2.62486 2.4623 0
M  V30 54964 C 5143.14 4.04089 1.93433 0
M  V30 54965 C 5144.89 2.75201 3.2321 0
M  V30 54966 C 5142.79 5.08928 3.01242 0
M  V30 54967 H 5141.72 0.554536 0.510888 0
M  V30 54968 H 5144.37 1.71708 0.647202 0
M  V30 54969 H 5142.76 2.33091 3.20132 0
M  V30 54970 H 5143.93 4.43177 1.26216 0
M  V30 54971 H 5142.24 3.95853 1.29187 0
M  V30 54972 H 5144.84 3.50697 4.03628 0
M  V30 54973 H 5145.18 1.81954 3.74431 0
M  V30 54974 H 5145.72 3.04138 2.56408 0
M  V30 54975 H 5142.46 6.03895 2.54934 0
M  V30 54976 H 5141.98 4.74406 3.67014 0
M  V30 54977 H 5143.66 5.33826 3.65566 0
M  V30 54978 N 5143.79 -0.847003 1.32905 0
M  V30 54979 C 5145.03 -1.6155 1.25224 0
M  V30 54980 C 5145.39 -1.91142 -0.181362 0
M  V30 54981 O 5146.59 -2.66072 -0.382013 0
M  V30 54982 C 5144.86 -2.89545 2.09519 0
M  V30 54983 S 5146.42 -3.80275 2.18944 0
M  V30 54984 H 5143.24 -0.554015 0.445633 0
M  V30 54985 H 5145.84 -1.00245 1.67843 0
M  V30 54986 H 5144.55 -2.65765 3.12726 0
M  V30 54987 H 5144.08 -3.55862 1.67707 0
M  V30 54988 H 5146.09 -4.77636 1.34455 0
M  V30 54989 N 5145.27 -1.1624 -1.06424 0
M  V30 54990 C 5146.23 -0.870238 -2.12037 0
M  V30 54991 C 5147.23 0.134183 -1.60239 0
M  V30 54992 O 5148.42 -0.0965543 -1.73932 0
M  V30 54993 C 5145.55 -0.301152 -3.39567 0
M  V30 54994 H 5146.74 -1.80648 -2.39387 0
M  V30 54995 H 5144.3 -0.971159 -1.22467 0
M  V30 54996 H 5145.03 0.642836 -3.17865 0
M  V30 54997 H 5144.82 -1.02489 -3.78469 0
M  V30 54998 H 5146.31 -0.114641 -4.17443 0
M  V30 54999 N 5146.74 1.24935 -0.960675 0
M  V30 55000 C 5148.16 1.74698 -0.658591 0
M  V30 55001 C 5148.51 1.7797 0.825896 0
M  V30 55002 O 5147.63 1.4045 1.64629 0
M  V30 55003 C 5148.23 3.17259 -1.18879 0
M  V30 55004 C 5146.79 3.64557 -0.936742 0
M  V30 55005 C 5145.93 2.43418 -1.32826 0
M  V30 55006 H 5148.88 1.10737 -1.1368 0
M  V30 55007 H 5148.9 3.76479 -0.551721 0
M  V30 55008 H 5148.42 3.14846 -2.26923 0
M  V30 55009 H 5146.52 3.72378 0.128477 0
M  V30 55010 H 5146.63 4.52386 -1.57745 0
M  V30 55011 H 5144.99 2.43511 -0.746634 0
M  V30 55012 H 5145.78 2.43691 -2.41805 0
M  V30 55013 N 5148.22 0.729956 1.39676 0
M  V30 55014 C 5149.47 0.275148 2.00218 0
M  V30 55015 C 5149.79 -1.14004 1.58203 0
M  V30 55016 O 5149.06 -1.77543 0.827967 0
M  V30 55017 H 5147.64 0.0987388 0.740446 0
M  V30 55018 H 5150.3 0.93879 1.708 0
M  V30 55019 H 5149.4 0.319555 3.1046 0
M  V30 55020 N 5149.7 -1.50202 0.477206 0
M  V30 55021 C 5150.98 -1.95116 -0.13754 0
M  V30 55022 C 5151.36 -1.41783 -1.56399 0
M  V30 55023 O 5150.71 -0.621411 -2.19888 0
M  V30 55024 C 5150.92 -3.4892 -0.0745941 0
M  V30 55025 C 5152.26 -4.23801 -0.260436 0
M  V30 55026 O 5153.29 -3.5588 -0.150896 0
M  V30 55027 O 5152.15 -5.44367 -0.482343 0
M  V30 55028 H 5149.24 -0.819873 -0.108335 0
M  V30 55029 H 5151.79 -1.60945 0.538046 0
M  V30 55030 H 5150.56 -3.80304 0.9211 0
M  V30 55031 H 5150.18 -3.89645 -0.791372 0
M  V30 55032 N 5151.18 -0.210054 -1.56194 0
M  V30 55033 C 5152.11 0.736891 -2.17031 0
M  V30 55034 C 5153.12 1.16595 -1.1362 0
M  V30 55035 O 5154.31 1.09909 -1.4065 0
M  V30 55036 C 5151.41 2.00842 -2.72976 0
M  V30 55037 C 5150.59 1.73677 -4.01441 0
M  V30 55038 C 5149.64 2.85423 -4.42063 0
M  V30 55039 O 5148.67 2.54387 -5.09192 0
M  V30 55040 N 5149.87 4.14121 -4.06797 0
M  V30 55041 H 5152.64 0.216551 -2.98917 0
M  V30 55042 H 5150.2 -0.0286241 -1.61875 0
M  V30 55043 H 5152.19 2.74767 -2.97128 0
M  V30 55044 H 5150.76 2.43956 -1.95459 0
M  V30 55045 H 5149.98 0.83454 -3.85265 0
M  V30 55046 H 5151.27 1.52944 -4.85269 0
M  V30 55047 H 5150.67 4.42184 -3.52832 0
M  V30 55048 H 5149.22 4.84626 -4.35868 0
M  V30 55049 N 5152.66 1.57472 0.0634368 0
M  V30 55050 C 5153.57 2.07625 1.09219 0
M  V30 55051 C 5154.58 1.00751 1.41864 0
M  V30 55052 O 5155.76 1.32274 1.51873 0
M  V30 55053 C 5152.82 2.51715 2.38412 0
M  V30 55054 C 5151.88 3.72925 2.12663 0
M  V30 55055 C 5151.12 4.14902 3.35696 0
M  V30 55056 O 5151.34 3.56679 4.45125 0
M  V30 55057 O 5150.27 5.07627 3.23416 0
M  V30 55058 H 5154.1 2.95615 0.696101 0
M  V30 55059 H 5151.69 1.46788 0.278138 0
M  V30 55060 H 5153.57 2.80558 3.14428 0
M  V30 55061 H 5152.24 1.66851 2.77385 0
M  V30 55062 H 5151.15 3.49153 1.34325 0
M  V30 55063 H 5152.48 4.58666 1.78566 0
M  V30 55064 N 5154.13 -0.335013 1.53998 0
M  V30 55065 C 5155.06 -1.41721 1.85573 0
M  V30 55066 C 5156.05 -1.54502 0.711555 0
M  V30 55067 O 5157.23 -1.6857 0.96425 0
M  V30 55068 C 5154.36 -2.78653 2.07292 0
M  V30 55069 C 5153.31 -2.80671 3.23122 0
M  V30 55070 C 5152.64 -4.2057 3.3019 0
M  V30 55071 C 5153.94 -2.45442 4.61037 0
M  V30 55072 H 5155.63 -1.15545 2.76206 0
M  V30 55073 H 5153.18 -0.554398 1.329 0
M  V30 55074 H 5155.13 -3.54415 2.27965 0
M  V30 55075 H 5153.86 -3.06282 1.13397 0
M  V30 55076 H 5152.52 -2.07363 3.02318 0
M  V30 55077 H 5152.16 -4.45322 2.33875 0
M  V30 55078 H 5151.86 -4.22829 4.08031 0
M  V30 55079 H 5153.39 -4.98161 3.53083 0
M  V30 55080 H 5154.8 -3.10917 4.81667 0
M  V30 55081 H 5153.2 -2.58971 5.41345 0
M  V30 55082 H 5154.27 -1.40611 4.64065 0
M  V30 55083 N 5155.61 -1.45876 -0.596479 0
M  V30 55084 C 5156.86 -1.49742 -1.3513 0
M  V30 55085 C 5157.17 -0.147823 -1.95041 0
M  V30 55086 O 5158.38 -0.0641938 -2.71424 0
M  V30 55087 C 5156.84 -2.63788 -2.44834 0
M  V30 55088 C 5156.44 -4.05109 -1.91287 0
M  V30 55089 C 5158.19 -2.76911 -3.21746 0
M  V30 55090 C 5156.1 -5.10518 -2.98539 0
M  V30 55091 H 5155.03 -0.557237 -0.50794 0
M  V30 55092 H 5157.68 -1.72049 -0.638086 0
M  V30 55093 H 5156.06 -2.34786 -3.18891 0
M  V30 55094 H 5157.23 -4.4384 -1.23864 0
M  V30 55095 H 5155.55 -3.96533 -1.27086 0
M  V30 55096 H 5158.14 -3.52833 -4.01763 0
M  V30 55097 H 5158.49 -1.83937 -3.73461 0
M  V30 55098 H 5159.02 -3.05494 -2.54791 0
M  V30 55099 H 5155.76 -6.05238 -2.51727 0
M  V30 55100 H 5155.28 -4.76345 -3.64493 0
M  V30 55101 H 5156.96 -5.35758 -3.6273 0
M  V30 55102 N 5157.09 0.839943 -1.33352 0
M  V30 55103 C 5158.05 1.93124 -1.23433 0
M  V30 55104 C 5159.05 1.60064 -0.153655 0
M  V30 55105 O 5160.24 1.69424 -0.405109 0
M  V30 55106 C 5157.38 3.28758 -0.901737 0
M  V30 55107 H 5158.57 2.03344 -2.20434 0
M  V30 55108 H 5156.12 1.0319 -1.17394 0
M  V30 55109 H 5156.86 3.24233 0.0658198 0
M  V30 55110 H 5156.64 3.54132 -1.68323 0
M  V30 55111 H 5158.13 4.08711 -0.857057 0
M  V30 55112 N 5158.57 1.16803 1.05806 0
M  V30 55113 C 5159.5 0.902317 2.15361 0
M  V30 55114 C 5160.48 -0.153292 1.69408 0
M  V30 55115 O 5161.66 -0.00435205 1.942 0
M  V30 55116 C 5158.79 0.408032 3.44895 0
M  V30 55117 C 5157.75 1.40211 4.04382 0
M  V30 55118 C 5157.07 0.766034 5.29184 0
M  V30 55119 C 5158.37 2.77332 4.42588 0
M  V30 55120 H 5160.07 1.8185 2.37847 0
M  V30 55121 H 5157.61 0.875771 1.14308 0
M  V30 55122 H 5159.57 0.209598 4.20878 0
M  V30 55123 H 5158.29 -0.543667 3.22043 0
M  V30 55124 H 5156.95 1.58718 3.3046 0
M  V30 55125 H 5156.6 -0.192305 5.02632 0
M  V30 55126 H 5156.3 1.42959 5.69944 0
M  V30 55127 H 5157.82 0.577733 6.07861 0
M  V30 55128 H 5159.24 2.62579 5.09632 0
M  V30 55129 H 5157.63 3.40207 4.94347 0
M  V30 55130 H 5158.7 3.32211 3.53219 0
M  V30 55131 N 5160.05 -1.24424 0.967287 0
M  V30 55132 C 5161.01 -2.23635 0.502006 0
M  V30 55133 C 5162.01 -1.55714 -0.401228 0
M  V30 55134 O 5163.2 -1.73085 -0.196747 0
M  V30 55135 C 5160.33 -3.39805 -0.273057 0
M  V30 55136 H 5161.53 -2.66312 1.37906 0
M  V30 55137 H 5159.08 -1.3703 0.751831 0
M  V30 55138 H 5159.81 -3.02566 -1.16723 0
M  V30 55139 H 5159.6 -3.90302 0.375117 0
M  V30 55140 H 5161.09 -4.13445 -0.58763 0
M  V30 55141 N 5161.53 -0.737353 -1.39287 0
M  V30 55142 C 5162.47 -0.0989174 -2.30588 0
M  V30 55143 C 5163.44 0.727153 -1.49338 0
M  V30 55144 O 5164.63 0.686632 -1.78017 0
M  V30 55145 C 5161.77 0.800615 -3.35685 0
M  V30 55146 C 5160.88 -0.038325 -4.31983 0
M  V30 55147 C 5160.02 0.8627 -5.24148 0
M  V30 55148 C 5159.05 0.0191487 -6.12097 0
M  V30 55149 N 5158.19 0.876235 -6.96611 0
M  V30 55150 H 5163.03 -0.883131 -2.84613 0
M  V30 55151 H 5160.57 -0.44716 -1.40139 0
M  V30 55152 H 5162.53 1.33662 -3.95209 0
M  V30 55153 H 5161.16 1.55078 -2.83109 0
M  V30 55154 H 5160.21 -0.691773 -3.74057 0
M  V30 55155 H 5161.52 -0.690467 -4.93998 0
M  V30 55156 H 5160.67 1.46646 -5.8871 0
M  V30 55157 H 5159.41 1.54862 -4.6246 0
M  V30 55158 H 5158.42 -0.597394 -5.46545 0
M  V30 55159 H 5159.64 -0.663586 -6.7585 0
M  V30 55160 H 5157.59 1.5474 -6.37488 0
M  V30 55161 H 5157.51 0.280626 -7.55479 0
M  V30 55162 H 5158.77 1.46548 -7.656 0
M  V30 55163 N 5163 1.49946 -0.485165 0
M  V30 55164 C 5163.95 2.3045 0.315528 0
M  V30 55165 C 5164.95 1.38354 0.977467 0
M  V30 55166 O 5166.15 1.5548 0.906964 0
M  V30 55167 H 5162.53 0.742266 0.120603 0
M  V30 55168 H 5164.5 2.95923 -0.383656 0
M  V30 55169 C 5163.25 3.19287 1.37662 0
M  V30 55170 H 5162.57 3.9007 0.876664 0
M  V30 55171 H 5164.01 3.78586 1.90916 0
M  V30 55172 C 5162.47 2.37825 2.38623 0
M  V30 55173 O 5163 2.07122 3.44185 0
M  V30 55174 N 5161.2 2.00142 2.10693 0
M  V30 55175 H 5160.75 2.25311 1.2487 0
M  V30 55176 H 5160.71 1.45943 2.78475 0
M  V30 55177 N 5164.48 0.218335 1.5608 0
M  V30 55178 C 5165.9 -0.137112 1.5901 0
M  V30 55179 C 5166.1 -1.59211 1.23508 0
M  V30 55180 O 5165.15 -2.33175 0.968798 0
M  V30 55181 C 5166.47 0.186267 3.00123 0
M  V30 55182 C 5168.01 0.128245 3.12737 0
M  V30 55183 C 5168.49 0.425255 4.56021 0
M  V30 55184 N 5169.98 0.374709 4.61682 0
M  V30 55185 C 5170.72 0.57806 5.70479 0
M  V30 55186 N 5170.21 0.843013 6.87652 0
M  V30 55187 N 5172 0.510717 5.59775 0
M  V30 55188 H 5164.16 1.16753 1.77433 0
M  V30 55189 H 5166.42 0.467735 0.824578 0
M  V30 55190 H 5166.12 1.196 3.3074 0
M  V30 55191 H 5166 -0.500257 3.73868 0
M  V30 55192 H 5168.39 -0.872124 2.81918 0
M  V30 55193 H 5168.47 0.848197 2.41328 0
M  V30 55194 H 5168.11 1.42305 4.87557 0
M  V30 55195 H 5168.04 -0.315853 5.25652 0
M  V30 55196 H 5170.53 0.177488 3.77483 0
M  V30 55197 H 5170.84 0.986365 7.66479 0
M  V30 55198 H 5169.19 0.880171 6.89404 0
M  V30 55199 H 5172.38 0.303977 4.67112 0
M  V30 55200 H 5172.55 0.672605 6.445 0
M  V30 55201 N 5165.96 -1.57504 -0.0550848 0
M  V30 55202 C 5167.21 -1.88058 -0.751038 0
M  V30 55203 C 5167.53 -0.812293 -1.76726 0
M  V30 55204 O 5166.79 0.189849 -1.94777 0
M  V30 55205 C 5167.09 -3.25316 -1.48001 0
M  V30 55206 C 5166.75 -4.4686 -0.602218 0
M  V30 55207 C 5165.42 -4.79849 -0.360367 0
M  V30 55208 C 5167.77 -5.212 0.0054237 0
M  V30 55209 C 5165.1 -5.8458 0.498332 0
M  V30 55210 C 5167.45 -6.26841 0.851673 0
M  V30 55211 C 5166.11 -6.5832 1.10324 0
M  V30 55212 H 5165.38 -0.688152 -0.274824 0
M  V30 55213 H 5168.03 -1.91497 -0.0114121 0
M  V30 55214 H 5166.33 -3.17745 -2.29228 0
M  V30 55215 H 5168.03 -3.46196 -2.02359 0
M  V30 55216 H 5164.62 -4.21051 -0.800859 0
M  V30 55217 H 5168.81 -4.96014 -0.168508 0
M  V30 55218 H 5164.06 -6.07359 0.701808 0
M  V30 55219 H 5168.24 -6.83598 1.32917 0
M  V30 55220 H 5165.86 -7.39298 1.77037 0
M  V30 55221 N 5167.44 0.326842 -1.54174 0
M  V30 55222 C 5168.66 1.08918 -1.76498 0
M  V30 55223 C 5169.09 1.81038 -0.510587 0
M  V30 55224 O 5168.45 1.73143 0.537695 0
M  V30 55225 C 5168.49 2.06547 -2.95585 0
M  V30 55226 O 5167.6 3.14384 -2.66901 0
M  V30 55227 H 5166.94 0.314195 -0.584959 0
M  V30 55228 H 5169.47 0.372137 -2.01187 0
M  V30 55229 H 5169.48 2.49475 -3.22841 0
M  V30 55230 H 5168.15 1.53456 -3.86554 0
M  V30 55231 H 5166.73 2.76155 -2.50585 0
M  V30 55232 N 5168.92 1.46191 0.588735 0
M  V30 55233 C 5169.85 1.59154 1.70857 0
M  V30 55234 C 5170.83 0.442141 1.64253 0
M  V30 55235 O 5172.01 0.66764 1.82363 0
M  V30 55236 C 5169.14 1.57581 3.09492 0
M  V30 55237 C 5168.1 2.7143 3.30923 0
M  V30 55238 C 5167.42 2.54916 4.70023 0
M  V30 55239 C 5168.72 4.13302 3.19342 0
M  V30 55240 H 5170.42 2.52894 1.60265 0
M  V30 55241 H 5167.96 1.2171 0.769596 0
M  V30 55242 H 5169.91 1.65245 3.87649 0
M  V30 55243 H 5168.64 0.603818 3.2097 0
M  V30 55244 H 5167.3 2.63225 2.55163 0
M  V30 55245 H 5166.95 1.55814 4.78258 0
M  V30 55246 H 5166.65 3.31274 4.85315 0
M  V30 55247 H 5168.17 2.64462 5.50356 0
M  V30 55248 H 5169.58 4.22649 3.8735 0
M  V30 55249 H 5167.98 4.90199 3.46158 0
M  V30 55250 H 5169.05 4.33881 2.16506 0
M  V30 55251 N 5170.39 -0.832859 1.33795 0
M  V30 55252 C 5171.34 -1.9431 1.24548 0
M  V30 55253 C 5172.31 -1.65645 0.122812 0
M  V30 55254 O 5173.5 -1.88393 0.302107 0
M  V30 55255 C 5170.64 -3.30392 0.996757 0
M  V30 55256 C 5169.75 -3.71414 2.20625 0
M  V30 55257 C 5168.88 -4.96395 1.89118 0
M  V30 55258 C 5167.92 -5.29969 3.06266 0
M  V30 55259 N 5167.06 -6.46127 2.74707 0
M  V30 55260 H 5171.9 -2.01551 2.19502 0
M  V30 55261 H 5169.44 -0.986205 1.09144 0
M  V30 55262 H 5171.39 -4.088 0.832961 0
M  V30 55263 H 5170.02 -3.22691 0.0839377 0
M  V30 55264 H 5169.08 -2.88479 2.47959 0
M  V30 55265 H 5170.39 -3.92204 3.08184 0
M  V30 55266 H 5169.54 -5.82566 1.69417 0
M  V30 55267 H 5168.28 -4.77586 0.98805 0
M  V30 55268 H 5167.29 -4.423 3.26574 0
M  V30 55269 H 5168.51 -5.50723 3.97343 0
M  V30 55270 H 5166.46 -6.28794 1.8696 0
M  V30 55271 H 5166.37 -6.67042 3.55797 0
M  V30 55272 H 5167.64 -7.35394 2.58487 0
M  V30 55273 N 5171.87 -1.17362 -1.05185 0
M  V30 55274 C 5173.15 -0.871975 -1.75088 0
M  V30 55275 C 5173.53 0.62775 -2.0155 0
M  V30 55276 O 5172.88 1.57904 -1.65162 0
M  V30 55277 C 5173.09 -1.70697 -3.04407 0
M  V30 55278 C 5174.43 -1.92698 -3.78355 0
M  V30 55279 O 5175.46 -1.67657 -3.14277 0
M  V30 55280 O 5174.32 -2.34783 -4.93497 0
M  V30 55281 H 5171.41 -0.322858 -0.761375 0
M  V30 55282 H 5173.96 -1.28058 -1.11352 0
M  V30 55283 H 5172.73 -2.72415 -2.80901 0
M  V30 55284 H 5172.35 -1.29615 -3.7588 0
M  V30 55285 N 5173.35 1.23909 -0.973872 0
M  V30 55286 C 5174.58 1.96193 -0.65696 0
M  V30 55287 C 5174.99 1.72169 0.774816 0
M  V30 55288 O 5174.35 1.00916 1.5206 0
M  V30 55289 C 5174.4 3.49339 -0.92976 0
M  V30 55290 O 5174.12 3.72545 -2.30526 0
M  V30 55291 C 5175.62 4.38831 -0.627893 0
M  V30 55292 H 5172.84 0.624832 -0.244594 0
M  V30 55293 H 5175.39 1.57574 -1.30348 0
M  V30 55294 H 5173.54 3.85997 -0.329351 0
M  V30 55295 H 5173.96 4.66885 -2.38996 0
M  V30 55296 H 5175.43 5.45114 -0.869182 0
M  V30 55297 H 5175.91 4.37011 0.43795 0
M  V30 55298 H 5176.51 4.07769 -1.20849 0
M  V30 55299 N 5174.83 0.744729 1.38894 0
M  V30 55300 C 5175.74 0.112975 2.34328 0
M  V30 55301 C 5176.75 -0.710814 1.58819 0
M  V30 55302 O 5177.93 -0.637025 1.9106 0
M  V30 55303 C 5175 -0.776298 3.37897 0
M  V30 55304 C 5174.06 0.0608508 4.29257 0
M  V30 55305 C 5173.29 -0.786072 5.27879 0
M  V30 55306 O 5173.51 -2.02445 5.33266 0
M  V30 55307 O 5172.45 -0.20957 6.01535 0
M  V30 55308 H 5176.27 0.900903 2.9003 0
M  V30 55309 H 5173.86 0.505512 1.40588 0
M  V30 55310 H 5175.74 -1.28482 4.01336 0
M  V30 55311 H 5174.41 -1.54287 2.84565 0
M  V30 55312 H 5173.32 0.615113 3.69008 0
M  V30 55313 H 5174.65 0.789873 4.85821 0
M  V30 55314 N 5176.31 -1.49687 0.49311 0
M  V30 55315 C 5177.58 -1.95251 -0.116838 0
M  V30 55316 C 5177.96 -1.43434 -1.54887 0
M  V30 55317 O 5177.31 -0.644698 -2.19217 0
M  V30 55318 C 5177.52 -3.4898 -0.0375823 0
M  V30 55319 C 5178.87 -4.24053 -0.215472 0
M  V30 55320 O 5179.89 -3.5602 -0.113141 0
M  V30 55321 O 5178.75 -5.44848 -0.424578 0
M  V30 55322 H 5175.85 -0.820976 -0.0996332 0
M  V30 55323 H 5178.39 -1.60365 0.555086 0
M  V30 55324 H 5177.16 -3.79306 0.961384 0
M  V30 55325 H 5176.79 -3.90462 -0.75 0
M  V30 55326 N 5177.78 -0.226609 -1.55962 0
M  V30 55327 C 5178.69 0.692646 -2.24142 0
M  V30 55328 C 5179.71 1.20967 -1.25072 0
M  V30 55329 O 5180.89 1.25021 -1.57898 0
M  V30 55330 C 5177.95 1.88173 -2.9119 0
M  V30 55331 C 5177.01 1.40618 -4.05617 0
M  V30 55332 C 5176.25 2.53859 -4.69459 0
M  V30 55333 O 5176.47 3.72114 -4.32305 0
M  V30 55334 O 5175.4 2.24772 -5.58356 0
M  V30 55335 H 5179.23 0.141814 -3.03369 0
M  V30 55336 H 5176.81 0.00405238 -1.49399 0
M  V30 55337 H 5178.7 2.57605 -3.33493 0
M  V30 55338 H 5177.37 2.42056 -2.14919 0
M  V30 55339 H 5176.28 0.67973 -3.67873 0
M  V30 55340 H 5177.61 0.913668 -4.83645 0
M  V30 55341 N 5179.26 1.57531 0.0467312 0
M  V30 55342 C 5180.51 1.88732 0.742152 0
M  V30 55343 C 5180.84 0.822146 1.75939 0
M  V30 55344 O 5180.12 -0.164854 1.938 0
M  V30 55345 C 5180.4 3.30591 1.42765 0
M  V30 55346 C 5180.25 4.47786 0.425128 0
M  V30 55347 C 5181.57 3.71076 2.36623 0
M  V30 55348 H 5178.69 0.686415 0.268335 0
M  V30 55349 H 5181.33 1.89999 0.00504661 0
M  V30 55350 H 5179.48 3.29641 2.05594 0
M  V30 55351 H 5181.15 4.60867 -0.199883 0
M  V30 55352 H 5179.4 4.33036 -0.257283 0
M  V30 55353 H 5180.07 5.43887 0.942895 0
M  V30 55354 H 5182.54 3.73279 1.83852 0
M  V30 55355 H 5181.42 4.71175 2.81576 0
M  V30 55356 H 5181.68 3.02367 3.22532 0
M  V30 55357 N 5180.74 -0.318661 1.54345 0
M  V30 55358 C 5182.16 -0.663294 1.45164 0
M  V30 55359 C 5182.36 -1.91448 0.628487 0
M  V30 55360 O 5181.41 -2.52169 0.129215 0
M  V30 55361 C 5182.73 -0.832735 2.88939 0
M  V30 55362 C 5184.27 -0.929761 2.98872 0
M  V30 55363 C 5184.75 -1.13133 4.43807 0
M  V30 55364 N 5186.24 -1.19796 4.47441 0
M  V30 55365 C 5186.97 -1.3719 5.56746 0
M  V30 55366 N 5186.47 -1.51595 6.76011 0
M  V30 55367 N 5188.26 -1.39937 5.44402 0
M  V30 55368 H 5180.41 0.503643 2.06342 0
M  V30 55369 H 5182.68 0.163561 0.933784 0
M  V30 55370 H 5182.38 0.0154755 3.51697 0
M  V30 55371 H 5182.26 -1.72709 3.35338 0
M  V30 55372 H 5184.64 -1.76847 2.36239 0
M  V30 55373 H 5184.73 -0.0117662 2.55797 0
M  V30 55374 H 5184.37 -0.297458 5.07028 0
M  V30 55375 H 5184.3 -2.06328 4.84496 0
M  V30 55376 H 5186.79 -1.10087 3.6151 0
M  V30 55377 H 5187.1 -1.64573 7.55073 0
M  V30 55378 H 5185.45 -1.48684 6.7891 0
M  V30 55379 H 5188.64 -1.28282 4.50179 0
M  V30 55380 H 5188.81 -1.5315 6.29642 0
M  V30 55381 N 5182.22 -1.46501 -0.580974 0
M  V30 55382 C 5183.5 -1.42377 -1.3412 0
M  V30 55383 C 5183.88 -0.108147 -2.10823 0
M  V30 55384 O 5183.22 0.910292 -2.09585 0
M  V30 55385 C 5183.43 -2.65453 -2.26574 0
M  V30 55386 C 5184.78 -3.11674 -2.88348 0
M  V30 55387 O 5185.81 -2.66014 -2.36886 0
M  V30 55388 O 5184.66 -3.90988 -3.81826 0
M  V30 55389 H 5181.76 -0.566284 -0.602704 0
M  V30 55390 H 5184.3 -1.58669 -0.601847 0
M  V30 55391 H 5183.08 -3.52762 -1.69336 0
M  V30 55392 H 5182.7 -2.51629 -3.07845 0
M  V30 55393 N 5183.7 0.825752 -1.34235 0
M  V30 55394 C 5184.95 1.57681 -1.25775 0
M  V30 55395 C 5185.26 1.94848 0.171303 0
M  V30 55396 O 5186.46 2.68855 0.378028 0
M  V30 55397 C 5184.92 2.84471 -2.20464 0
M  V30 55398 C 5184.53 2.54616 -3.68612 0
M  V30 55399 C 5186.27 3.62492 -2.20906 0
M  V30 55400 C 5184.18 3.77581 -4.55177 0
M  V30 55401 H 5183.11 0.591792 -0.467223 0
M  V30 55402 H 5185.76 0.909365 -1.59383 0
M  V30 55403 H 5184.14 3.52826 -1.79805 0
M  V30 55404 H 5185.32 1.94389 -4.17791 0
M  V30 55405 H 5183.63 1.89875 -3.70589 0
M  V30 55406 H 5186.23 4.5379 -2.82805 0
M  V30 55407 H 5186.57 3.984 -1.2076 0
M  V30 55408 H 5187.1 3.01077 -2.59995 0
M  V30 55409 H 5183.84 3.46796 -5.56249 0
M  V30 55410 H 5183.36 4.37101 -4.10734 0
M  V30 55411 H 5185.04 4.45022 -4.69643 0
M  V30 55412 N 5185.17 1.17918 1.04561 0
M  V30 55413 C 5186.42 0.965878 1.7707 0
M  V30 55414 C 5186.74 -0.505938 1.88943 0
M  V30 55415 O 5187.94 -0.837626 2.58256 0
M  V30 55416 C 5186.4 1.67905 3.18333 0
M  V30 55417 C 5186.01 3.18983 3.14569 0
M  V30 55418 C 5187.75 1.54837 3.95254 0
M  V30 55419 C 5185.66 3.82961 4.5066 0
M  V30 55420 H 5184.59 0.357753 0.663724 0
M  V30 55421 H 5187.24 1.41239 1.17148 0
M  V30 55422 H 5185.62 1.16029 3.7862 0
M  V30 55423 H 5186.79 3.77844 2.63762 0
M  V30 55424 H 5185.11 3.32136 2.51147 0
M  V30 55425 H 5187.71 2.00001 4.95887 0
M  V30 55426 H 5188.05 0.499873 4.13288 0
M  V30 55427 H 5188.58 2.03965 3.4153 0
M  V30 55428 H 5185.32 4.87836 4.37831 0
M  V30 55429 H 5184.84 3.28888 5.0159 0
M  V30 55430 H 5186.52 3.85537 5.19587 0
M  V30 55431 N 5186.65 -1.23391 0.980429 0
M  V30 55432 C 5188.07 -1.43959 0.689058 0
M  V30 55433 C 5188.27 -1.87232 -0.744743 0
M  V30 55434 O 5187.32 -2.01837 -1.51717 0
M  V30 55435 C 5188.64 -2.49122 1.68401 0
M  V30 55436 C 5190.19 -2.62935 1.69806 0
M  V30 55437 C 5190.66 -3.71308 2.68131 0
M  V30 55438 N 5192.15 -3.78751 2.6665 0
M  V30 55439 C 5192.89 -4.62164 3.39399 0
M  V30 55440 N 5192.38 -5.49668 4.21708 0
M  V30 55441 N 5194.18 -4.56361 3.28163 0
M  V30 55442 H 5186.33 -0.936039 1.90662 0
M  V30 55443 H 5188.59 -0.472995 0.821572 0
M  V30 55444 H 5188.3 -2.24243 2.70939 0
M  V30 55445 H 5188.17 -3.47509 1.46688 0
M  V30 55446 H 5190.56 -2.87165 0.679718 0
M  V30 55447 H 5190.64 -1.64864 1.95585 0
M  V30 55448 H 5190.28 -3.47827 3.70107 0
M  V30 55449 H 5190.21 -4.68921 2.39626 0
M  V30 55450 H 5192.7 -3.16219 2.06915 0
M  V30 55451 H 5193.02 -6.10306 4.74074 0
M  V30 55452 H 5191.36 -5.49291 4.25799 0
M  V30 55453 H 5194.55 -3.8702 2.63312 0
M  V30 55454 H 5194.72 -5.21139 3.8512 0
M  V30 55455 N 5188.13 -0.752084 -1.38497 0
M  V30 55456 C 5189.36 -0.317066 -2.04962 0
M  V30 55457 C 5189.78 1.04577 -1.5635 0
M  V30 55458 O 5189.14 1.66614 -0.714813 0
M  V30 55459 C 5189.19 -0.347361 -3.58923 0
M  V30 55460 O 5188.29 0.659153 -4.07098 0
M  V30 55461 H 5187.63 -0.140675 -0.648927 0
M  V30 55462 H 5190.16 -1.02279 -1.77201 0
M  V30 55463 H 5190.17 -0.197713 -4.07521 0
M  V30 55464 H 5188.85 -1.34171 -3.93664 0
M  V30 55465 H 5187.42 0.474241 -3.69872 0
M  V30 55466 N 5189.61 1.49423 -0.501041 0
M  V30 55467 C 5190.56 2.30772 0.291068 0
M  V30 55468 C 5191.55 1.39383 0.962738 0
M  V30 55469 O 5192.76 1.56434 0.890422 0
M  V30 55470 H 5189.13 0.743503 0.112724 0
M  V30 55471 H 5191.1 2.955 -0.415021 0
M  V30 55472 C 5189.85 3.20729 1.34268 0
M  V30 55473 H 5189.18 3.90978 0.835243 0
M  V30 55474 H 5190.62 3.80589 1.8689 0
M  V30 55475 C 5189.07 2.40343 2.36087 0
M  V30 55476 O 5189.6 2.10761 3.41969 0
M  V30 55477 N 5187.81 2.02366 2.08558 0
M  V30 55478 H 5187.36 2.26623 1.22474 0
M  V30 55479 H 5187.32 1.48888 2.76911 0
M  V30 55480 N 5191.09 0.234877 1.5584 0
M  V30 55481 C 5192.34 -0.393615 1.97822 0
M  V30 55482 C 5192.65 -1.59943 1.12595 0
M  V30 55483 O 5193.86 -2.29829 1.44536 0
M  V30 55484 C 5192.31 -0.751687 3.51963 0
M  V30 55485 C 5191.92 0.432054 4.45912 0
M  V30 55486 C 5193.66 -1.34504 4.02628 0
M  V30 55487 C 5191.57 0.0508055 5.91378 0
M  V30 55488 H 5190.5 -0.150838 0.738758 0
M  V30 55489 H 5193.15 0.333196 1.8045 0
M  V30 55490 H 5191.53 -1.53629 3.64985 0
M  V30 55491 H 5192.71 1.20951 4.44643 0
M  V30 55492 H 5191.02 0.939528 4.05662 0
M  V30 55493 H 5193.62 -1.64341 5.08818 0
M  V30 55494 H 5193.96 -2.26541 3.49263 0
M  V30 55495 H 5194.5 -0.623591 3.92882 0
M  V30 55496 H 5191.23 0.938007 6.48754 0
M  V30 55497 H 5190.75 -0.690689 5.9581 0
M  V30 55498 H 5192.43 -0.371233 6.45934 0
M  V30 55499 N 5192.57 -1.57553 -0.0383763 0
M  V30 55500 C 5193.52 -2.02408 -1.04952 0
M  V30 55501 C 5194.5 -0.911752 -1.32574 0
M  V30 55502 O 5195.69 -1.17566 -1.32315 0
M  V30 55503 C 5192.82 -2.49933 -2.35348 0
M  V30 55504 C 5191.91 -3.67968 -2.10857 0
M  V30 55505 N 5192.3 -4.81014 -1.56394 0
M  V30 55506 C 5190.6 -3.75162 -2.41184 0
M  V30 55507 C 5191.3 -5.62691 -1.47493 0
M  V30 55508 N 5190.27 -5.07527 -1.94724 0
M  V30 55509 H 5194.07 -2.87236 -0.622298 0
M  V30 55510 H 5191.59 -1.60543 -0.24486 0
M  V30 55511 H 5193.59 -2.80323 -3.08585 0
M  V30 55512 H 5192.25 -1.66506 -2.78758 0
M  V30 55513 H 5193.26 -5.0264 -1.24792 0
M  V30 55514 H 5189.93 -3.02518 -2.87731 0
M  V30 55515 H 5191.32 -6.63493 -1.05953 0
M  V30 55516 N 5194.04 0.310471 -1.54512 0
M  V30 55517 C 5194.97 1.38751 -1.87805 0
M  V30 55518 C 5195.95 1.53351 -0.736045 0
M  V30 55519 O 5197.14 1.67015 -0.990946 0
M  V30 55520 C 5194.27 2.7532 -2.11699 0
M  V30 55521 C 5193.22 2.75495 -3.27546 0
M  V30 55522 C 5192.55 4.15263 -3.36839 0
M  V30 55523 C 5193.85 2.38076 -4.64884 0
M  V30 55524 H 5195.54 1.11136 -2.78009 0
M  V30 55525 H 5193.09 0.533185 -1.33765 0
M  V30 55526 H 5195.04 3.50743 -2.33574 0
M  V30 55527 H 5193.77 3.04439 -1.18256 0
M  V30 55528 H 5192.43 2.02527 -3.05579 0
M  V30 55529 H 5192.07 4.41545 -2.4093 0
M  V30 55530 H 5191.77 4.16284 -4.14706 0
M  V30 55531 H 5193.3 4.92481 -3.60964 0
M  V30 55532 H 5194.71 3.03215 -4.86553 0
M  V30 55533 H 5193.11 2.50326 -5.45396 0
M  V30 55534 H 5194.18 1.33211 -4.66243 0
M  V30 55535 N 5195.52 1.46807 0.573196 0
M  V30 55536 C 5196.45 1.54133 1.69634 0
M  V30 55537 C 5197.47 0.428833 1.57051 0
M  V30 55538 O 5198.66 0.697669 1.64301 0
M  V30 55539 C 5195.76 1.41449 3.0797 0
M  V30 55540 C 5194.93 2.66986 3.46464 0
M  V30 55541 C 5193.99 2.48366 4.63898 0
M  V30 55542 O 5193.01 3.22125 4.6928 0
M  V30 55543 N 5194.22 1.55149 5.59383 0
M  V30 55544 H 5196.98 2.50977 1.63801 0
M  V30 55545 H 5194.54 1.42984 0.759428 0
M  V30 55546 H 5196.53 1.2675 3.84339 0
M  V30 55547 H 5195.1 0.527496 3.08117 0
M  V30 55548 H 5194.32 2.96559 2.59704 0
M  V30 55549 H 5195.61 3.5036 3.68952 0
M  V30 55550 H 5195.01 0.943436 5.57778 0
M  V30 55551 H 5193.57 1.46409 6.35144 0
M  V30 55552 N 5197 -0.818622 1.34671 0
M  V30 55553 C 5198.25 -1.57197 1.27018 0
M  V30 55554 C 5198.57 -1.94355 -0.158531 0
M  V30 55555 O 5197.84 -1.6263 -1.09217 0
M  V30 55556 H 5196.42 -0.582902 0.467155 0
M  V30 55557 H 5199.08 -0.977174 1.68634 0
M  V30 55558 H 5198.18 -2.49284 1.87787 0
M  V30 55559 N 5198.48 -1.18471 -1.03934 0
M  V30 55560 C 5199.42 -0.912934 -2.11977 0
M  V30 55561 C 5200.39 0.148182 -1.65438 0
M  V30 55562 O 5201.58 0.00826393 -1.90798 0
M  V30 55563 C 5198.72 -0.446234 -3.42203 0
M  V30 55564 C 5197.83 -1.57292 -4.02347 0
M  V30 55565 C 5196.97 -1.05881 -5.20541 0
M  V30 55566 C 5196.01 -2.1601 -5.72718 0
M  V30 55567 N 5195.14 -1.65983 -6.82198 0
M  V30 55568 H 5199.98 -1.83806 -2.34562 0
M  V30 55569 H 5197.52 -0.916544 -1.15056 0
M  V30 55570 H 5199.48 -0.157117 -4.16904 0
M  V30 55571 H 5198.11 0.441913 -3.19761 0
M  V30 55572 H 5197.16 -1.97749 -3.24961 0
M  V30 55573 H 5198.47 -2.40305 -4.37098 0
M  V30 55574 H 5197.63 -0.724299 -6.02361 0
M  V30 55575 H 5196.37 -0.198287 -4.87297 0
M  V30 55576 H 5195.37 -2.50304 -4.89518 0
M  V30 55577 H 5196.6 -3.025 -6.08005 0
M  V30 55578 H 5194.54 -0.822219 -6.50827 0
M  V30 55579 H 5194.46 -2.42593 -7.1602 0
M  V30 55580 H 5195.73 -1.35463 -7.67639 0
M  V30 55581 N 5199.96 1.22869 -0.986959 0
M  V30 55582 C 5200.89 2.26878 -0.552144 0
M  V30 55583 C 5201.87 1.64884 0.41799 0
M  V30 55584 O 5203.05 1.91711 0.309923 0
M  V30 55585 C 5200.18 3.47018 0.139837 0
M  V30 55586 C 5199.14 4.21409 -0.748239 0
M  V30 55587 C 5198.46 5.34646 0.0763252 0
M  V30 55588 C 5199.76 4.80719 -2.04223 0
M  V30 55589 H 5201.46 2.63502 -1.42152 0
M  V30 55590 H 5199 1.26666 -0.684964 0
M  V30 55591 H 5200.95 4.18932 0.455379 0
M  V30 55592 H 5199.68 3.09474 1.04371 0
M  V30 55593 H 5198.34 3.51321 -1.04734 0
M  V30 55594 H 5197.99 4.93342 0.980936 0
M  V30 55595 H 5197.69 5.8534 -0.514812 0
M  V30 55596 H 5199.21 6.09378 0.386099 0
M  V30 55597 H 5200.62 5.44606 -1.79103 0
M  V30 55598 H 5199.02 5.41728 -2.58169 0
M  V30 55599 H 5200.09 4.011 -2.72483 0
M  V30 55600 N 5201.43 0.759419 1.38096 0
M  V30 55601 C 5202.34 0.137822 2.34195 0
M  V30 55602 C 5203.36 -0.693929 1.59564 0
M  V30 55603 O 5204.54 -0.616725 1.91725 0
M  V30 55604 C 5201.6 -0.740416 3.38702 0
M  V30 55605 C 5200.66 0.106376 4.29168 0
M  V30 55606 C 5199.89 -0.730039 5.28683 0
M  V30 55607 O 5200.12 -1.96777 5.35383 0
M  V30 55608 O 5199.05 -0.145757 6.01723 0
M  V30 55609 H 5202.88 0.931614 2.89058 0
M  V30 55610 H 5200.46 0.520395 1.40044 0
M  V30 55611 H 5202.34 -1.24218 4.02676 0
M  V30 55612 H 5201.02 -1.5126 2.86185 0
M  V30 55613 H 5199.93 0.654217 3.68335 0
M  V30 55614 H 5201.26 0.841356 4.84956 0
M  V30 55615 N 5202.91 -1.49156 0.508959 0
M  V30 55616 C 5204.19 -1.95364 -0.0961226 0
M  V30 55617 C 5204.57 -1.45069 -1.53357 0
M  V30 55618 O 5203.92 -0.667912 -2.1852 0
M  V30 55619 C 5204.13 -3.49 -0.00056619 0
M  V30 55620 C 5205.47 -4.24258 -0.170483 0
M  V30 55621 O 5206.5 -3.5612 -0.0753742 0
M  V30 55622 O 5205.36 -5.45268 -0.366766 0
M  V30 55623 H 5202.45 -0.821987 -0.09092 0
M  V30 55624 H 5205 -1.59767 0.572063 0
M  V30 55625 H 5203.77 -3.78265 1.00156 0
M  V30 55626 H 5203.39 -3.91236 -0.708544 0
M  V30 55627 N 5204.39 -0.243138 -1.55713 0
M  V30 55628 C 5205.8 0.260723 -1.84871 0
M  V30 55629 C 5206.15 1.57875 -1.1649 0
M  V30 55630 O 5205.28 2.11838 -0.441982 0
M  V30 55631 C 5205.87 0.479836 -3.35385 0
M  V30 55632 C 5204.43 0.927967 -3.64782 0
M  V30 55633 C 5203.58 0.00306668 -2.773 0
M  V30 55634 H 5206.53 -0.465797 -1.5171 0
M  V30 55635 H 5206.55 1.32296 -3.5676 0
M  V30 55636 H 5206.06 -0.479604 -3.85125 0
M  V30 55637 H 5204.16 1.90001 -3.20516 0
M  V30 55638 H 5204.28 0.787433 -4.72585 0
M  V30 55639 H 5202.64 0.513761 -2.49465 0
M  V30 55640 H 5203.42 -0.951678 -3.29845 0
M  V30 55641 N 5205.87 1.57571 0.0300203 0
M  V30 55642 C 5206.83 2.05472 1.01558 0
M  V30 55643 C 5207.83 0.958673 1.29097 0
M  V30 55644 O 5209.02 1.22232 1.24117 0
M  V30 55645 C 5206.15 2.47085 2.34866 0
M  V30 55646 H 5207.35 2.93799 0.601832 0
M  V30 55647 H 5204.9 1.53829 0.276823 0
M  V30 55648 H 5205.63 1.61911 2.8099 0
M  V30 55649 H 5205.42 3.27104 2.16207 0
M  V30 55650 H 5206.91 2.84575 3.05625 0
M  V30 55651 N 5207.35 -0.302273 1.54674 0
M  V30 55652 C 5208.6 -1.03527 1.73104 0
M  V30 55653 C 5208.91 -1.88472 0.52324 0
M  V30 55654 O 5210.11 -2.65027 0.589322 0
M  V30 55655 C 5208.57 -1.89033 3.06259 0
M  V30 55656 C 5208.18 -1.09097 4.34513 0
M  V30 55657 C 5209.92 -2.61939 3.34048 0
M  V30 55658 C 5207.83 -1.93872 5.5872 0
M  V30 55659 H 5206.76 -0.390238 0.645159 0
M  V30 55660 H 5209.41 -0.292337 1.81156 0
M  V30 55661 H 5207.79 -2.67308 2.92168 0
M  V30 55662 H 5208.97 -0.354434 4.59435 0
M  V30 55663 H 5207.28 -0.477777 4.1365 0
M  V30 55664 H 5209.88 -3.25715 4.24045 0
M  V30 55665 H 5210.22 -3.30702 2.52867 0
M  V30 55666 H 5210.75 -1.90713 3.49104 0
M  V30 55667 H 5207.49 -1.29581 6.42564 0
M  V30 55668 H 5207.01 -2.65201 5.37986 0
M  V30 55669 H 5208.69 -2.5195 5.95928 0
M  V30 55670 N 5208.82 -1.47109 -0.565403 0
M  V30 55671 C 5210.24 -1.32446 -0.890519 0
M  V30 55672 C 5210.44 -0.308805 -1.9912 0
M  V30 55673 O 5209.5 0.282562 -2.50914 0
M  V30 55674 C 5210.81 -2.71552 -1.2915 0
M  V30 55675 C 5212.36 -2.79775 -1.40339 0
M  V30 55676 C 5212.83 -4.19503 -1.83796 0
M  V30 55677 N 5214.32 -4.22005 -1.9096 0
M  V30 55678 C 5215.06 -5.27028 -2.25897 0
M  V30 55679 N 5214.55 -6.42362 -2.59505 0
M  V30 55680 N 5216.35 -5.14401 -2.26601 0
M  V30 55681 H 5208.5 -2.11786 0.161402 0
M  V30 55682 H 5210.76 -0.947952 0.00953963 0
M  V30 55683 H 5210.47 -3.47267 -0.556631 0
M  V30 55684 H 5210.34 -3.0279 -2.2494 0
M  V30 55685 H 5212.73 -2.04338 -2.12909 0
M  V30 55686 H 5212.81 -2.52201 -0.427566 0
M  V30 55687 H 5212.45 -4.95443 -1.11799 0
M  V30 55688 H 5212.38 -4.44496 -2.82367 0
M  V30 55689 H 5214.87 -3.38796 -1.67408 0
M  V30 55690 H 5215.19 -7.18262 -2.85166 0
M  V30 55691 H 5213.53 -6.45696 -2.57103 0
M  V30 55692 H 5216.72 -4.23327 -1.99779 0
M  V30 55693 H 5216.9 -5.96358 -2.53499 0
M  V30 55694 N 5210.3 0.811468 -1.35103 0
M  V30 55695 C 5211.55 1.57012 -1.29301 0
M  V30 55696 C 5211.9 1.91941 0.132812 0
M  V30 55697 O 5211.2 1.58125 1.08199 0
M  V30 55698 C 5211.39 2.87113 -2.1284 0
M  V30 55699 C 5211.22 2.64895 -3.63402 0
M  V30 55700 C 5209.99 2.6104 -4.3265 0
M  V30 55701 C 5212.19 2.35612 -4.57156 0
M  V30 55702 N 5210.17 2.30488 -5.68989 0
M  V30 55703 C 5211.54 2.14855 -5.81582 0
M  V30 55704 C 5213.6 2.21435 -4.4595 0
M  V30 55705 C 5212.3 1.81357 -6.96062 0
M  V30 55706 C 5214.32 1.89333 -5.60274 0
M  V30 55707 C 5213.69 1.69408 -6.83725 0
M  V30 55708 H 5209.79 0.576471 -0.528398 0
M  V30 55709 H 5212.37 0.950278 -1.69935 0
M  V30 55710 H 5210.54 3.47001 -1.74485 0
M  V30 55711 H 5212.27 3.52622 -1.98594 0
M  V30 55712 H 5209.03 2.75518 -3.8521 0
M  V30 55713 H 5209.45 2.18019 -6.40934 0
M  V30 55714 H 5214.09 2.35539 -3.51114 0
M  V30 55715 H 5211.81 1.6599 -7.90868 0
M  V30 55716 H 5215.4 1.79078 -5.53554 0
M  V30 55717 H 5214.28 1.4493 -7.70691 0
M  V30 55718 N 5211.78 1.19021 1.03304 0
M  V30 55719 C 5212.71 0.881921 2.11553 0
M  V30 55720 C 5213.73 -0.123654 1.6233 0
M  V30 55721 O 5214.91 0.105204 1.7819 0
M  V30 55722 C 5212.01 0.297753 3.37589 0
M  V30 55723 C 5211.19 1.35086 4.16017 0
M  V30 55724 C 5210.25 0.780995 5.20372 0
M  V30 55725 O 5209.27 1.45765 5.50219 0
M  V30 55726 N 5210.47 -0.417761 5.78995 0
M  V30 55727 H 5213.24 1.81368 2.38591 0
M  V30 55728 H 5210.8 1.09164 1.19561 0
M  V30 55729 H 5212.79 -0.0972317 4.04583 0
M  V30 55730 H 5211.36 -0.53819 3.07932 0
M  V30 55731 H 5210.58 1.92086 3.44234 0
M  V30 55732 H 5211.87 2.06061 4.65206 0
M  V30 55733 H 5211.27 -0.985085 5.57057 0
M  V30 55734 H 5209.83 -0.754574 6.47417 0
M  V30 55735 N 5213.26 -1.22344 0.993461 0
M  V30 55736 C 5214.19 -2.22896 0.489151 0
M  V30 55737 C 5215.17 -1.56224 -0.450872 0
M  V30 55738 O 5216.35 -1.84706 -0.376287 0
M  V30 55739 C 5213.48 -3.37449 -0.290827 0
M  V30 55740 C 5212.53 -4.22325 0.595271 0
M  V30 55741 S 5213.36 -4.9467 2.0509 0
M  V30 55742 C 5214.52 -6.12663 1.28043 0
M  V30 55743 H 5214.75 -2.65328 1.3412 0
M  V30 55744 H 5212.28 -1.32029 0.800475 0
M  V30 55745 H 5214.24 -4.0387 -0.734802 0
M  V30 55746 H 5212.9 -2.93523 -1.11816 0
M  V30 55747 H 5212.09 -5.04 -0.00489695 0
M  V30 55748 H 5211.7 -3.6104 0.976033 0
M  V30 55749 H 5213.99 -6.75277 0.548367 0
M  V30 55750 H 5214.93 -6.77093 2.07247 0
M  V30 55751 H 5215.34 -5.58896 0.793469 0
M  V30 55752 N 5214.74 -0.766732 -1.37692 0
M  V30 55753 C 5215.7 -0.15593 -2.28669 0
M  V30 55754 C 5216.7 0.633457 -1.47797 0
M  V30 55755 O 5217.89 0.457785 -1.68077 0
M  V30 55756 C 5215.02 0.786849 -3.31695 0
M  V30 55757 H 5216.21 -0.957848 -2.84192 0
M  V30 55758 H 5213.77 -0.534605 -1.46873 0
M  V30 55759 H 5214.5 1.61396 -2.81286 0
M  V30 55760 H 5214.29 0.223044 -3.91465 0
M  V30 55761 H 5215.78 1.20979 -3.99692 0
M  V30 55762 N 5216.21 1.48884 -0.516862 0
M  V30 55763 C 5217.14 2.32242 0.242075 0
M  V30 55764 C 5218.13 1.41262 0.947584 0
M  V30 55765 O 5219.31 1.7016 0.935913 0
M  V30 55766 C 5216.44 3.22156 1.29742 0
M  V30 55767 C 5215.39 4.22056 0.710847 0
M  V30 55768 C 5214.72 5.01013 1.86788 0
M  V30 55769 C 5216.02 5.21387 -0.308714 0
M  V30 55770 H 5217.71 2.95942 -0.453755 0
M  V30 55771 H 5215.26 1.42315 -0.219662 0
M  V30 55772 H 5217.21 3.79291 1.8362 0
M  V30 55773 H 5215.94 2.5643 2.02265 0
M  V30 55774 H 5214.6 3.66088 0.193691 0
M  V30 55775 H 5214.24 4.31722 2.58118 0
M  V30 55776 H 5213.94 5.6862 1.48139 0
M  V30 55777 H 5215.47 5.60997 2.4107 0
M  V30 55778 H 5216.88 5.73123 0.142502 0
M  V30 55779 H 5215.28 5.96972 -0.611883 0
M  V30 55780 H 5216.35 4.69325 -1.21911 0
M  V30 55781 N 5217.69 0.251393 1.55582 0
M  V30 55782 C 5218.92 -0.37557 2.03158 0
M  V30 55783 C 5219.33 -1.51757 1.12988 0
M  V30 55784 O 5218.67 -1.83184 0.137634 0
M  V30 55785 C 5218.74 -0.940879 3.46969 0
M  V30 55786 C 5218.4 0.0694493 4.56947 0
M  V30 55787 C 5219.4 0.88059 5.12388 0
M  V30 55788 C 5217.08 0.196838 5.01914 0
M  V30 55789 C 5219.08 1.80553 6.11293 0
M  V30 55790 C 5216.76 1.12528 6.0065 0
M  V30 55791 C 5217.76 1.92815 6.55219 0
M  V30 55792 O 5217.45 2.84094 7.52028 0
M  V30 55793 H 5217.18 -0.09286 0.669592 0
M  V30 55794 H 5219.73 0.374186 2.01963 0
M  V30 55795 H 5217.96 -1.74028 3.45328 0
M  V30 55796 H 5219.65 -1.4784 3.78019 0
M  V30 55797 H 5220.42 0.792784 4.78477 0
M  V30 55798 H 5216.3 -0.418025 4.59101 0
M  V30 55799 H 5219.84 2.43262 6.53811 0
M  V30 55800 H 5215.74 1.214 6.33981 0
M  V30 55801 H 5216.51 2.78506 7.6966 0
M  V30 55802 N 5219.17 -1.57585 -0.0216635 0
M  V30 55803 C 5220.12 -2.07039 -1.01997 0
M  V30 55804 C 5221.09 -0.961107 -1.35469 0
M  V30 55805 O 5222.27 -1.23216 -1.4568 0
M  V30 55806 C 5219.41 -2.56064 -2.31355 0
M  V30 55807 C 5218.53 -3.80812 -2.03976 0
M  V30 55808 C 5217.66 -4.18421 -3.27257 0
M  V30 55809 C 5216.7 -5.36065 -2.95467 0
M  V30 55810 N 5215.84 -5.6907 -4.11222 0
M  V30 55811 H 5220.68 -2.92075 -0.591294 0
M  V30 55812 H 5218.21 -1.44404 -0.280334 0
M  V30 55813 H 5220.17 -2.82558 -3.06947 0
M  V30 55814 H 5218.8 -1.73935 -2.71931 0
M  V30 55815 H 5217.85 -3.61358 -1.18847 0
M  V30 55816 H 5219.17 -4.66518 -1.76529 0
M  V30 55817 H 5218.32 -4.46082 -4.11212 0
M  V30 55818 H 5217.06 -3.31381 -3.57824 0
M  V30 55819 H 5216.06 -5.08149 -2.09915 0
M  V30 55820 H 5217.29 -6.24764 -2.66171 0
M  V30 55821 H 5215.24 -4.8499 -4.41725 0
M  V30 55822 H 5215.15 -6.49302 -3.87224 0
M  V30 55823 H 5216.42 -6.01312 -4.96028 0
M  V30 55824 N 5220.65 0.294066 -1.54832 0
M  V30 55825 C 5221.93 1.04841 -1.65129 0
M  V30 55826 C 5222.31 2.04994 -0.504058 0
M  V30 55827 O 5221.65 2.22998 0.498418 0
M  V30 55828 C 5221.86 1.72408 -3.03441 0
M  V30 55829 C 5223.21 2.2435 -3.60489 0
M  V30 55830 O 5224.24 1.82429 -3.05938 0
M  V30 55831 O 5223.1 3.0118 -4.56019 0
M  V30 55832 H 5220.19 0.485008 -0.669848 0
M  V30 55833 H 5222.74 0.291601 -1.67176 0
M  V30 55834 H 5221.51 0.997218 -3.7838 0
M  V30 55835 H 5221.13 2.54828 -3.05202 0
M  V30 55836 N 5222.13 1.47406 0.557593 0
M  V30 55837 C 5223.06 1.62742 1.67443 0
M  V30 55838 C 5224.04 0.476882 1.63278 0
M  V30 55839 O 5225.22 0.706171 1.80906 0
M  V30 55840 C 5222.35 1.64111 3.0608 0
M  V30 55841 C 5221.31 2.78388 3.25091 0
M  V30 55842 C 5220.63 2.64829 4.6451 0
M  V30 55843 C 5221.93 4.19982 3.10503 0
M  V30 55844 H 5223.63 2.56237 1.54864 0
M  V30 55845 H 5221.17 1.23315 0.743606 0
M  V30 55846 H 5223.13 1.7343 3.84057 0
M  V30 55847 H 5221.85 0.671764 3.19617 0
M  V30 55848 H 5220.51 2.68578 2.49522 0
M  V30 55849 H 5220.16 1.65923 4.74846 0
M  V30 55850 H 5219.86 3.41494 4.78179 0
M  V30 55851 H 5221.38 2.76076 5.44623 0
M  V30 55852 H 5222.8 4.30771 3.78298 0
M  V30 55853 H 5221.19 4.97431 3.35682 0
M  V30 55854 H 5222.26 4.38376 2.07254 0
M  V30 55855 N 5223.61 -0.804292 1.35532 0
M  V30 55856 C 5225.02 -1.37845 1.2592 0
M  V30 55857 C 5225.37 -1.95906 -0.107427 0
M  V30 55858 O 5224.49 -1.91466 -1.00846 0
M  V30 55859 C 5225.09 -2.506 2.28003 0
M  V30 55860 C 5223.65 -3.03871 2.22125 0
M  V30 55861 C 5222.79 -1.76849 2.13588 0
M  V30 55862 H 5225.74 -0.60714 1.46627 0
M  V30 55863 H 5225.77 -3.29214 1.90784 0
M  V30 55864 H 5225.28 -2.08312 3.27457 0
M  V30 55865 H 5223.38 -3.50617 1.26089 0
M  V30 55866 H 5223.49 -3.61696 3.14186 0
M  V30 55867 H 5221.86 -1.98492 1.59602 0
M  V30 55868 H 5222.64 -1.36709 3.14905 0
M  V30 55869 N 5225.08 -1.19567 -1.02672 0
M  V30 55870 C 5226.03 -0.932017 -2.13111 0
M  V30 55871 C 5227.03 0.112948 -1.69023 0
M  V30 55872 O 5228.23 -0.0364931 -1.79963 0
M  V30 55873 H 5224.61 -0.284006 -0.696308 0
M  V30 55874 H 5226.58 -1.86999 -2.32538 0
M  V30 55875 C 5225.33 -0.489582 -3.44236 0
M  V30 55876 H 5224.65 -1.28521 -3.78579 0
M  V30 55877 H 5226.09 -0.344228 -4.226 0
M  V30 55878 C 5224.55 0.796646 -3.27346 0
M  V30 55879 O 5225.08 1.85755 -3.56171 0
M  V30 55880 N 5223.28 0.754725 -2.80628 0
M  V30 55881 H 5222.83 -0.108869 -2.5737 0
M  V30 55882 H 5222.79 1.6157 -2.69708 0
M  V30 55883 N 5226.56 1.21816 -0.999936 0
M  V30 55884 C 5227.98 1.42844 -0.711874 0
M  V30 55885 C 5228.18 1.88393 0.714862 0
M  V30 55886 O 5227.23 2.04225 1.48487 0
M  V30 55887 C 5228.55 2.46411 -1.72343 0
M  V30 55888 C 5230.09 2.60201 -1.73967 0
M  V30 55889 C 5230.57 3.66995 -2.74004 0
M  V30 55890 N 5232.06 3.74461 -2.72642 0
M  V30 55891 C 5232.8 4.56706 -3.46709 0
M  V30 55892 N 5232.29 5.42889 -4.30399 0
M  V30 55893 N 5234.08 4.51082 -3.35382 0
M  V30 55894 H 5226.24 0.905588 -1.92127 0
M  V30 55895 H 5228.5 0.459864 -0.828993 0
M  V30 55896 H 5228.2 2.19904 -2.74472 0
M  V30 55897 H 5228.08 3.45131 -1.52198 0
M  V30 55898 H 5230.47 2.86047 -0.725318 0
M  V30 55899 H 5230.55 1.61732 -1.98183 0
M  V30 55900 H 5230.19 3.41895 -3.75594 0
M  V30 55901 H 5230.12 4.65049 -2.47056 0
M  V30 55902 H 5232.61 3.12887 -2.1192 0
M  V30 55903 H 5232.92 6.02687 -4.83724 0
M  V30 55904 H 5231.27 5.42447 -4.34484 0
M  V30 55905 H 5234.46 3.82782 -2.69436 0
M  V30 55906 H 5234.63 5.14947 -3.93363 0
M  V30 55907 N 5228.04 0.774023 1.37283 0
M  V30 55908 C 5229.27 0.350829 2.03904 0
M  V30 55909 C 5229.68 -1.02773 1.58377 0
M  V30 55910 O 5229.04 -1.65643 0.766068 0
M  V30 55911 C 5229.09 0.387462 3.59418 0
M  V30 55912 O 5228.81 1.71164 4.0328 0
M  V30 55913 C 5230.31 -0.0470422 4.43275 0
M  V30 55914 H 5227.53 0.146686 0.65477 0
M  V30 55915 H 5230.08 1.04858 1.75571 0
M  V30 55916 H 5228.23 -0.261729 3.86515 0
M  V30 55917 H 5228.65 1.65183 4.9781 0
M  V30 55918 H 5230.12 0.0297415 5.51992 0
M  V30 55919 H 5230.6 -1.09771 4.25261 0
M  V30 55920 H 5231.2 0.574048 4.21408 0
M  V30 55921 N 5229.52 -1.48607 0.52475 0
M  V30 55922 C 5230.79 -1.95455 -0.0753963 0
M  V30 55923 C 5231.17 -1.46687 -1.51809 0
M  V30 55924 O 5230.52 -0.691052 -2.178 0
M  V30 55925 C 5230.73 -3.48981 0.03645 0
M  V30 55926 C 5232.08 -4.24415 -0.125475 0
M  V30 55927 O 5233.1 -3.5618 -0.0375987 0
M  V30 55928 O 5231.96 -5.45626 -0.308912 0
M  V30 55929 H 5229.06 -0.822905 -0.0821966 0
M  V30 55930 H 5231.6 -1.59151 0.588977 0
M  V30 55931 H 5230.38 -3.77181 1.04162 0
M  V30 55932 H 5230 -3.91965 -0.667009 0
M  V30 55933 N 5231 -0.25964 -1.55447 0
M  V30 55934 C 5232.27 0.412528 -1.912 0
M  V30 55935 C 5232.65 1.74905 -1.182 0
M  V30 55936 O 5232 2.26473 -0.303682 0
M  V30 55937 C 5232.21 0.568074 -3.44346 0
M  V30 55938 C 5233.56 0.858107 -4.15839 0
M  V30 55939 O 5234.58 0.653465 -3.50155 0
M  V30 55940 O 5233.44 1.24855 -5.32046 0
M  V30 55941 H 5230.54 0.223375 -0.796262 0
M  V30 55942 H 5233.08 -0.304649 -1.66943 0
M  V30 55943 H 5231.85 -0.373126 -3.89517 0
M  V30 55944 H 5231.48 1.33531 -3.74507 0
M  V30 55945 N 5232.47 1.57594 0.0133061 0
M  V30 55946 C 5233.7 1.94254 0.712259 0
M  V30 55947 C 5234.12 0.860689 1.6804 0
M  V30 55948 O 5233.47 -0.161568 1.81783 0
M  V30 55949 C 5233.52 3.30896 1.45569 0
M  V30 55950 O 5233.25 4.34926 0.526386 0
M  V30 55951 C 5234.75 3.81934 2.25037 0
M  V30 55952 H 5231.97 0.640744 0.199219 0
M  V30 55953 H 5234.51 2.04472 -0.0338574 0
M  V30 55954 H 5232.67 3.22026 2.15355 0
M  V30 55955 H 5233.08 5.13894 1.04944 0
M  V30 55956 H 5234.55 4.80009 2.72572 0
M  V30 55957 H 5235.03 3.13945 3.0714 0
M  V30 55958 H 5235.64 3.93936 1.60294 0
M  V30 55959 N 5233.95 -0.28585 1.54986 0
M  V30 55960 C 5235.18 -1.042 1.79324 0
M  V30 55961 C 5235.6 -1.7962 0.558406 0
M  V30 55962 O 5234.96 -1.74508 -0.4916 0
M  V30 55963 C 5235.01 -1.98638 3.00957 0
M  V30 55964 O 5234.11 -3.07197 2.75143 0
M  V30 55965 H 5233.45 -0.298575 0.593084 0
M  V30 55966 H 5235.98 -0.318665 2.02103 0
M  V30 55967 H 5235.99 -2.40828 3.29342 0
M  V30 55968 H 5234.67 -1.43153 3.90487 0
M  V30 55969 H 5233.25 -2.69414 2.57819 0
M  V30 55970 N 5235.43 -1.477 -0.549768 0
M  V30 55971 C 5236.71 -1.4519 -1.3107 0
M  V30 55972 C 5237.09 -0.152842 -2.10546 0
M  V30 55973 O 5236.44 0.865631 -2.11469 0
M  V30 55974 C 5236.65 -2.70199 -2.20892 0
M  V30 55975 C 5237.99 -3.1772 -2.81672 0
M  V30 55976 O 5239.02 -2.70979 -2.3119 0
M  V30 55977 O 5237.88 -3.98999 -3.73446 0
M  V30 55978 H 5234.97 -0.57894 -0.590557 0
M  V30 55979 H 5237.52 -1.5991 -0.568056 0
M  V30 55980 H 5236.29 -3.56274 -1.61815 0
M  V30 55981 H 5235.91 -2.58102 -3.02439 0
M  V30 55982 N 5236.91 0.797093 -1.35957 0
M  V30 55983 C 5238.32 1.37175 -1.26649 0
M  V30 55984 C 5238.67 1.9596 0.0970357 0
M  V30 55985 O 5237.8 1.91998 0.998288 0
M  V30 55986 C 5238.39 2.49387 -2.29329 0
M  V30 55987 C 5236.95 3.02689 -2.23733 0
M  V30 55988 C 5236.1 1.75714 -2.14523 0
M  V30 55989 H 5239.05 0.599356 -1.46947 0
M  V30 55990 H 5239.07 3.28198 -1.92527 0
M  V30 55991 H 5238.58 2.06572 -3.28557 0
M  V30 55992 H 5236.68 3.49943 -1.27947 0
M  V30 55993 H 5236.79 3.60025 -3.16099 0
M  V30 55994 H 5235.16 1.97643 -1.60653 0
M  V30 55995 H 5235.94 1.35038 -3.15626 0
M  V30 55996 N 5238.39 1.2011 1.02036 0
M  V30 55997 C 5239.3 0.962126 2.13963 0
M  V30 55998 C 5240.31 -0.0807442 1.73813 0
M  V30 55999 O 5241.49 0.105844 2.01122 0
M  V30 56000 C 5238.55 0.513229 3.4288 0
M  V30 56001 C 5237.61 1.6265 3.97295 0
M  V30 56002 C 5236.85 1.19893 5.20059 0
M  V30 56003 O 5237.07 0.0660428 5.70362 0
M  V30 56004 O 5236 2.00487 5.67529 0
M  V30 56005 H 5239.83 1.89918 2.36991 0
M  V30 56006 H 5237.42 0.984647 1.12361 0
M  V30 56007 H 5239.3 0.271945 4.20522 0
M  V30 56008 H 5237.97 -0.395289 3.21277 0
M  V30 56009 H 5236.88 1.92203 3.2095 0
M  V30 56010 H 5238.21 2.51189 4.23279 0
M  V30 56011 N 5239.86 -1.21284 1.00638 0
M  V30 56012 C 5240.81 -2.23703 0.567955 0
M  V30 56013 C 5241.78 -1.61044 -0.406696 0
M  V30 56014 O 5242.97 -1.88291 -0.308433 0
M  V30 56015 C 5240.11 -3.44961 -0.0978748 0
M  V30 56016 C 5239.22 -4.22087 0.92012 0
M  V30 56017 C 5238.35 -5.30717 0.226408 0
M  V30 56018 C 5237.39 -5.99576 1.23186 0
M  V30 56019 N 5236.53 -6.99819 0.565524 0
M  V30 56020 H 5241.37 -2.60566 1.44601 0
M  V30 56021 H 5238.91 -1.28047 0.724051 0
M  V30 56022 H 5240.87 -4.14182 -0.500951 0
M  V30 56023 H 5239.5 -3.08821 -0.939636 0
M  V30 56024 H 5238.55 -3.52033 1.44143 0
M  V30 56025 H 5239.86 -4.6947 1.68521 0
M  V30 56026 H 5239.01 -6.06254 -0.232704 0
M  V30 56027 H 5237.75 -4.84345 -0.571076 0
M  V30 56028 H 5236.76 -5.2281 1.70146 0
M  V30 56029 H 5237.98 -6.48035 2.03045 0
M  V30 56030 H 5235.93 -6.55656 -0.212278 0
M  V30 56031 H 5235.85 -7.45276 1.26885 0
M  V30 56032 H 5237.11 -7.79392 0.129663 0
M  V30 56033 N 5241.34 -0.781292 -1.36871 0
M  V30 56034 C 5242.57 -0.361638 -2.03715 0
M  V30 56035 C 5242.99 1.01932 -1.58919 0
M  V30 56036 O 5242.34 1.65235 -0.774841 0
M  V30 56037 C 5242.39 -0.406517 -3.59207 0
M  V30 56038 O 5242.11 -1.733 -4.02366 0
M  V30 56039 C 5243.62 0.0235336 -4.43294 0
M  V30 56040 H 5240.84 -0.150156 -0.653983 0
M  V30 56041 H 5243.38 -1.05788 -1.75012 0
M  V30 56042 H 5241.53 0.241228 -3.86648 0
M  V30 56043 H 5241.95 -1.67821 -4.96927 0
M  V30 56044 H 5243.42 -0.0590145 -5.51968 0
M  V30 56045 H 5243.9 1.07514 -4.25837 0
M  V30 56046 H 5244.51 -0.596388 -4.21098 0
M  V30 56047 N 5242.82 1.48327 -0.532624 0
M  V30 56048 C 5244.07 2.028 0.000511925 0
M  V30 56049 C 5244.4 1.40863 1.33683 0
M  V30 56050 O 5243.67 0.555327 1.86404 0
M  V30 56051 C 5243.96 3.59901 0.11972 0
M  V30 56052 C 5243.81 4.32314 -1.24196 0
M  V30 56053 C 5245.13 4.31907 0.84522 0
M  V30 56054 H 5242.25 0.736999 -0.00128796 0
M  V30 56055 H 5244.89 1.77022 -0.690164 0
M  V30 56056 H 5243.04 3.81995 0.707958 0
M  V30 56057 H 5244.71 4.21631 -1.87151 0
M  V30 56058 H 5242.96 3.93629 -1.82315 0
M  V30 56059 H 5243.63 5.40693 -1.11151 0
M  V30 56060 H 5246.1 4.14659 0.346013 0
M  V30 56061 H 5244.98 5.41512 0.897533 0
M  V30 56062 H 5245.24 3.99376 1.89608 0
M  V30 56063 N 5244.3 0.26788 1.55307 0
M  V30 56064 C 5245.21 -0.632975 2.259 0
M  V30 56065 C 5246.22 -1.17608 1.28236 0
M  V30 56066 O 5247.4 -1.20791 1.61157 0
M  V30 56067 C 5244.47 -1.80386 2.96077 0
M  V30 56068 C 5243.53 -1.29815 4.09202 0
M  V30 56069 C 5242.76 -2.41323 4.76024 0
M  V30 56070 O 5242.98 -3.60521 4.42019 0
M  V30 56071 O 5241.92 -2.0989 5.64119 0
M  V30 56072 H 5245.74 -0.0613314 3.03638 0
M  V30 56073 H 5243.33 0.0355597 1.49358 0
M  V30 56074 H 5245.21 -2.48673 3.40206 0
M  V30 56075 H 5243.88 -2.36273 2.21262 0
M  V30 56076 H 5242.79 -0.581957 3.69546 0
M  V30 56077 H 5244.12 -0.785117 4.85898 0
M  V30 56078 N 5245.78 -1.57599 -0.00494828 0
M  V30 56079 C 5247.19 -1.55465 -0.360961 0
M  V30 56080 C 5247.39 -0.997113 -1.751 0
M  V30 56081 O 5246.45 -0.628747 -2.44547 0
M  V30 56082 C 5247.76 -2.99735 -0.240722 0
M  V30 56083 C 5249.31 -3.114 -0.316028 0
M  V30 56084 C 5249.78 -4.57447 -0.22497 0
M  V30 56085 N 5251.28 -4.62335 -0.283023 0
M  V30 56086 C 5252.01 -5.72915 -0.235829 0
M  V30 56087 N 5251.51 -6.9266 -0.139519 0
M  V30 56088 N 5253.3 -5.61365 -0.287331 0
M  V30 56089 H 5245.45 -1.92182 0.904427 0
M  V30 56090 H 5247.71 -0.882516 0.346221 0
M  V30 56091 H 5247.42 -3.44346 0.715464 0
M  V30 56092 H 5247.29 -3.63012 -1.02478 0
M  V30 56093 H 5249.68 -2.66723 -1.26266 0
M  V30 56094 H 5249.76 -2.50909 0.497813 0
M  V30 56095 H 5249.41 -5.02798 0.718094 0
M  V30 56096 H 5249.34 -5.15878 -1.05723 0
M  V30 56097 H 5251.83 -3.76191 -0.358991 0
M  V30 56098 H 5252.14 -7.72723 -0.109269 0
M  V30 56099 H 5250.48 -6.9492 -0.105217 0
M  V30 56100 H 5253.68 -4.66708 -0.360733 0
M  V30 56101 H 5253.85 -6.47529 -0.247086 0
M  V30 56102 N 5247.25 0.277627 -1.55135 0
M  V30 56103 C 5248.5 1.01134 -1.75783 0
M  V30 56104 C 5248.83 1.86107 -0.554785 0
M  V30 56105 O 5248.11 1.89276 0.447746 0
M  V30 56106 C 5248.39 1.89778 -3.06033 0
M  V30 56107 C 5248.24 1.07829 -4.36684 0
M  V30 56108 C 5249.56 2.88565 -3.32292 0
M  V30 56109 H 5246.68 0.366254 -0.639552 0
M  V30 56110 H 5249.32 0.284089 -1.87864 0
M  V30 56111 H 5247.47 2.51786 -2.95865 0
M  V30 56112 H 5249.15 0.47927 -4.58804 0
M  V30 56113 H 5247.39 0.381612 -4.32118 0
M  V30 56114 H 5248.06 1.7316 -5.24137 0
M  V30 56115 H 5250.54 2.3669 -3.42223 0
M  V30 56116 H 5249.41 3.47735 -4.24702 0
M  V30 56117 H 5249.67 3.63449 -2.51709 0
M  V30 56118 N 5248.73 1.4799 0.541927 0
M  V30 56119 C 5249.66 1.64509 1.65708 0
M  V30 56120 C 5250.64 0.494173 1.62763 0
M  V30 56121 O 5251.83 0.725319 1.80147 0
M  V30 56122 C 5248.96 1.67348 3.04322 0
M  V30 56123 C 5247.91 2.8182 3.2212 0
M  V30 56124 C 5247.24 2.69741 4.61675 0
M  V30 56125 C 5248.54 4.23252 3.06031 0
M  V30 56126 H 5250.23 2.57865 1.52138 0
M  V30 56127 H 5247.78 1.24096 0.730485 0
M  V30 56128 H 5249.73 1.77494 3.82196 0
M  V30 56129 H 5248.46 0.705626 3.18886 0
M  V30 56130 H 5247.12 2.7121 2.46659 0
M  V30 56131 H 5246.76 1.7095 4.73059 0
M  V30 56132 H 5246.46 3.46547 4.74531 0
M  V30 56133 H 5247.99 2.81837 5.41664 0
M  V30 56134 H 5249.4 4.34759 3.73708 0
M  V30 56135 H 5247.8 5.00963 3.30387 0
M  V30 56136 H 5248.87 4.4055 2.02593 0
M  V30 56137 N 5250.21 -0.789872 1.36377 0
M  V30 56138 C 5251.49 -1.53579 1.21131 0
M  V30 56139 C 5251.87 -2.10124 -0.202711 0
M  V30 56140 O 5251.22 -1.9394 -1.20829 0
M  V30 56141 C 5251.43 -2.63109 2.29291 0
M  V30 56142 C 5252.77 -3.31003 2.65936 0
M  V30 56143 O 5253.8 -2.73392 2.28331 0
M  V30 56144 O 5252.66 -4.35117 3.30658 0
M  V30 56145 H 5249.75 -0.679349 0.471607 0
M  V30 56146 H 5252.3 -0.828394 1.48107 0
M  V30 56147 H 5251.07 -2.19318 3.24061 0
M  V30 56148 H 5250.69 -3.41469 2.03678 0
M  V30 56149 N 5251.69 -1.20649 -1.01398 0
M  V30 56150 C 5252.94 -1.01249 -1.74447 0
M  V30 56151 C 5253.25 0.455666 -1.90218 0
M  V30 56152 O 5254.46 0.76886 -2.60386 0
M  V30 56153 C 5252.91 -1.76286 -3.1377 0
M  V30 56154 C 5252.52 -3.27211 -3.06001 0
M  V30 56155 C 5254.27 -1.65262 -3.9101 0
M  V30 56156 C 5252.17 -3.94775 -4.40348 0
M  V30 56157 H 5251.1 -0.375225 -0.654005 0
M  V30 56158 H 5253.75 -1.44296 -1.13362 0
M  V30 56159 H 5252.14 -1.26027 -3.75411 0
M  V30 56160 H 5253.31 -3.84704 -2.53652 0
M  V30 56161 H 5251.62 -3.38678 -2.42253 0
M  V30 56162 H 5254.22 -2.13078 -4.9041 0
M  V30 56163 H 5254.56 -0.609273 -4.11817 0
M  V30 56164 H 5255.1 -2.12949 -3.36003 0
M  V30 56165 H 5251.84 -4.99273 -4.24743 0
M  V30 56166 H 5251.36 -3.42071 -4.92694 0
M  V30 56167 H 5253.04 -3.99177 -5.09182 0
M  V30 56168 N 5253.17 1.20748 -1.0128 0
M  V30 56169 C 5254.13 2.21618 -0.584661 0
M  V30 56170 C 5255.13 1.57096 0.34316 0
M  V30 56171 O 5256.32 1.73696 0.132372 0
M  V30 56172 C 5253.45 3.40584 0.146752 0
M  V30 56173 H 5254.65 2.6101 -1.47695 0
M  V30 56174 H 5252.2 1.34145 -0.802171 0
M  V30 56175 H 5252.93 3.0669 1.05413 0
M  V30 56176 H 5252.72 3.8864 -0.519717 0
M  V30 56177 H 5254.21 4.15341 0.433778 0
M  V30 56178 N 5254.65 0.78854 1.36454 0
M  V30 56179 C 5255.59 0.174274 2.31946 0
M  V30 56180 C 5256.59 -0.665919 1.55762 0
M  V30 56181 O 5257.79 -0.561101 1.71031 0
M  V30 56182 H 5254.17 0.0375802 0.75106 0
M  V30 56183 H 5256.14 0.99511 2.81319 0
M  V30 56184 C 5254.89 -0.677156 3.41042 0
M  V30 56185 H 5254.21 -0.0400013 3.9978 0
M  V30 56186 H 5255.65 -1.07365 4.10181 0
M  V30 56187 C 5254.11 -1.83502 2.8254 0
M  V30 56188 O 5254.64 -2.93154 2.74634 0
M  V30 56189 N 5252.85 -1.64086 2.39842 0
M  V30 56190 H 5252.39 -0.748959 2.46472 0
M  V30 56191 H 5252.35 -2.41719 2.01045 0
M  V30 56192 N 5256.12 -1.48042 0.540482 0
M  V30 56193 C 5257.37 -2.02797 0.0102431 0
M  V30 56194 C 5257.7 -1.4157 -1.32934 0
M  V30 56195 O 5256.98 -0.565205 -1.86107 0
M  V30 56196 C 5257.26 -3.59959 -0.100632 0
M  V30 56197 C 5257.11 -4.31649 1.26487 0
M  V30 56198 C 5258.43 -4.3235 -0.822303 0
M  V30 56199 H 5255.55 -0.736982 0.00519643 0
M  V30 56200 H 5258.19 -1.76653 0.699542 0
M  V30 56201 H 5256.34 -3.82365 -0.68769 0
M  V30 56202 H 5258.02 -4.20632 1.89384 0
M  V30 56203 H 5256.26 -3.92656 1.844 0
M  V30 56204 H 5256.93 -5.40096 1.14017 0
M  V30 56205 H 5259.41 -4.14837 -0.324018 0
M  V30 56206 H 5258.28 -5.41981 -0.868803 0
M  V30 56207 H 5258.54 -4.00376 -1.87487 0
M  V30 56208 N 5257.6 -0.276112 -1.55162 0
M  V30 56209 C 5258.53 0.604553 -2.25538 0
M  V30 56210 C 5259.51 1.15809 -1.24589 0
M  V30 56211 O 5260.7 1.19204 -1.5331 0
M  V30 56212 C 5257.83 1.78825 -2.97723 0
M  V30 56213 C 5256.78 1.36621 -4.05609 0
M  V30 56214 C 5256.11 2.63309 -4.65374 0
M  V30 56215 C 5257.41 0.515676 -5.19748 0
M  V30 56216 H 5259.1 0.017643 -2.99395 0
M  V30 56217 H 5256.65 0.00704565 -1.43998 0
M  V30 56218 H 5258.6 2.41024 -3.45667 0
M  V30 56219 H 5257.32 2.40101 -2.21402 0
M  V30 56220 H 5255.98 0.767415 -3.58478 0
M  V30 56221 H 5255.63 3.22845 -3.85721 0
M  V30 56222 H 5255.33 2.35781 -5.3822 0
M  V30 56223 H 5256.86 3.26354 -5.16067 0
M  V30 56224 H 5258.27 1.04269 -5.63738 0
M  V30 56225 H 5256.67 0.335238 -5.99163 0
M  V30 56226 H 5257.74 -0.465307 -4.82662 0
M  V30 56227 N 5259.08 1.576 -0.00340966 0
M  V30 56228 C 5260.33 1.90715 0.680724 0
M  V30 56229 C 5260.65 0.877324 1.73589 0
M  V30 56230 O 5259.91 -0.117428 1.95347 0
M  V30 56231 C 5260.21 3.30585 1.35825 0
M  V30 56232 C 5259.87 4.48788 0.435954 0
M  V30 56233 C 5258.54 4.80856 0.182026 0
M  V30 56234 C 5260.89 5.2082 -0.19886 0
M  V30 56235 C 5258.22 5.82328 -0.714952 0
M  V30 56236 C 5260.57 6.23248 -1.08373 0
M  V30 56237 C 5259.23 6.53772 -1.34681 0
M  V30 56238 H 5258.5 0.697877 0.249094 0
M  V30 56239 H 5261.15 1.91407 -0.0596684 0
M  V30 56240 H 5259.45 3.26033 2.17277 0
M  V30 56241 H 5261.15 3.53468 1.8937 0
M  V30 56242 H 5257.74 4.23734 0.644037 0
M  V30 56243 H 5261.93 4.96298 -0.0157004 0
M  V30 56244 H 5257.18 6.04336 -0.926742 0
M  V30 56245 H 5261.36 6.78194 -1.58196 0
M  V30 56246 H 5258.98 7.32218 -2.04354 0
M  V30 56247 N 5260.56 -0.269396 1.5528 0
M  V30 56248 C 5261.51 -1.33546 1.84795 0
M  V30 56249 C 5262.49 -1.44529 0.707118 0
M  V30 56250 O 5263.68 -1.48149 0.968545 0
M  V30 56251 C 5260.81 -2.69508 2.1265 0
M  V30 56252 C 5259.9 -2.62622 3.33003 0
M  V30 56253 N 5260.29 -2.25355 4.52823 0
M  V30 56254 C 5258.59 -2.93676 3.35664 0
M  V30 56255 C 5259.29 -2.28548 5.34921 0
M  V30 56256 N 5258.26 -2.67165 4.73417 0
M  V30 56257 H 5262.07 -1.03748 2.74979 0
M  V30 56258 H 5259.58 -0.478032 1.55205 0
M  V30 56259 H 5261.58 -3.46415 2.31953 0
M  V30 56260 H 5260.24 -3.00192 1.23752 0
M  V30 56261 H 5261.25 -1.97273 4.78857 0
M  V30 56262 H 5257.93 -3.29048 2.5697 0
M  V30 56263 H 5259.32 -2.02267 6.40732 0
M  V30 56264 N 5262.04 -1.48275 -0.534071 0
M  V30 56265 C 5262.97 -1.65386 -1.64833 0
M  V30 56266 C 5263.95 -0.502798 -1.62499 0
M  V30 56267 O 5265.13 -0.734862 -1.79759 0
M  V30 56268 C 5262.26 -1.68959 -3.0343 0
M  V30 56269 C 5261.22 -2.83525 -3.20621 0
M  V30 56270 C 5260.54 -2.72185 -4.60238 0
M  V30 56271 C 5261.84 -4.24869 -3.03782 0
M  V30 56272 H 5263.54 -2.58668 -1.50768 0
M  V30 56273 H 5261.08 -1.24482 -0.723894 0
M  V30 56274 H 5263.03 -1.79519 -3.81249 0
M  V30 56275 H 5261.76 -0.722527 -3.18508 0
M  V30 56276 H 5260.42 -2.72514 -2.45218 0
M  V30 56277 H 5260.07 -1.73456 -4.72146 0
M  V30 56278 H 5259.77 -3.49058 -4.72686 0
M  V30 56279 H 5261.29 -2.84706 -5.40162 0
M  V30 56280 H 5262.7 -4.36734 -3.71397 0
M  V30 56281 H 5261.1 -5.02708 -3.27726 0
M  V30 56282 H 5262.17 -4.41618 -2.00254 0
M  V30 56283 N 5263.51 0.782628 -1.36794 0
M  V30 56284 C 5264.42 1.92675 -1.33842 0
M  V30 56285 C 5265.44 1.72343 -0.239581 0
M  V30 56286 O 5266.62 1.95764 -0.473114 0
M  V30 56287 C 5263.68 3.2764 -1.13371 0
M  V30 56288 C 5262.74 3.60701 -2.32794 0
M  V30 56289 C 5261.98 4.89227 -2.1329 0
M  V30 56290 O 5262.2 5.59464 -1.11156 0
M  V30 56291 O 5261.13 5.21101 -3.01226 0
M  V30 56292 H 5264.96 1.98116 -2.30182 0
M  V30 56293 H 5262.54 0.923845 -1.17411 0
M  V30 56294 H 5264.43 4.0839 -1.039 0
M  V30 56295 H 5263.1 3.23075 -0.200982 0
M  V30 56296 H 5262.01 2.8023 -2.47835 0
M  V30 56297 H 5263.34 3.69997 -3.24597 0
M  V30 56298 N 5264.99 1.21185 1.00757 0
M  V30 56299 C 5265.92 0.926596 2.09635 0
M  V30 56300 C 5266.94 -0.0891939 1.62555 0
M  V30 56301 O 5268.13 0.142977 1.77926 0
M  V30 56302 C 5265.23 0.369294 3.36882 0
M  V30 56303 C 5264.4 1.4388 4.13058 0
M  V30 56304 C 5263.46 0.891198 5.18598 0
M  V30 56305 O 5262.48 1.57403 5.47004 0
M  V30 56306 N 5263.69 -0.294853 5.79751 0
M  V30 56307 H 5266.45 1.86388 2.34691 0
M  V30 56308 H 5264.01 1.11675 1.17219 0
M  V30 56309 H 5266 -0.0113918 4.04698 0
M  V30 56310 H 5264.57 -0.472752 3.09005 0
M  V30 56311 H 5263.79 1.99344 3.40082 0
M  V30 56312 H 5265.08 2.15882 4.6073 0
M  V30 56313 H 5264.48 -0.866704 5.59021 0
M  V30 56314 H 5263.04 -0.617078 6.48872 0
M  V30 56315 N 5266.47 -1.20209 1.01919 0
M  V30 56316 C 5267.42 -2.23088 0.59165 0
M  V30 56317 C 5268.39 -1.61466 -0.389592 0
M  V30 56318 O 5269.57 -1.88607 -0.288445 0
M  V30 56319 C 5266.71 -3.45046 -0.0612815 0
M  V30 56320 C 5265.83 -4.21088 0.964836 0
M  V30 56321 C 5264.96 -5.30447 0.282685 0
M  V30 56322 C 5264 -5.98236 1.29538 0
M  V30 56323 N 5263.14 -6.9918 0.639718 0
M  V30 56324 H 5267.98 -2.59018 1.47356 0
M  V30 56325 H 5265.51 -1.27271 0.737592 0
M  V30 56326 H 5267.47 -4.1469 -0.456994 0
M  V30 56327 H 5266.1 -3.09801 -0.906828 0
M  V30 56328 H 5265.15 -3.50484 1.47869 0
M  V30 56329 H 5266.47 -4.67656 1.73491 0
M  V30 56330 H 5265.62 -6.06466 -0.168389 0
M  V30 56331 H 5264.36 -4.84923 -0.519673 0
M  V30 56332 H 5263.36 -5.20976 1.75682 0
M  V30 56333 H 5264.59 -6.45845 2.09907 0
M  V30 56334 H 5262.53 -6.55845 -0.142725 0
M  V30 56335 H 5262.45 -7.43888 1.34782 0
M  V30 56336 H 5263.72 -7.79211 0.212321 0
M  V30 56337 N 5267.95 -0.795765 -1.36034 0
M  V30 56338 C 5269.17 -0.382112 -2.0385 0
M  V30 56339 C 5269.6 0.995497 -1.59598 0
M  V30 56340 O 5268.96 1.64255 -0.767458 0
M  V30 56341 C 5269 -0.461374 -3.57636 0
M  V30 56342 O 5268.11 0.529304 -4.08989 0
M  V30 56343 H 5267.45 -0.161249 -0.644123 0
M  V30 56344 H 5269.98 -1.07864 -1.73858 0
M  V30 56345 H 5269.99 -0.327263 -4.06685 0
M  V30 56346 H 5268.66 -1.46627 -3.89196 0
M  V30 56347 H 5267.24 0.356329 -3.71194 0
M  V30 56348 N 5269.43 1.47754 -0.548326 0
M  V30 56349 C 5270.37 2.29894 0.204327 0
M  V30 56350 C 5271.34 1.38512 0.916713 0
M  V30 56351 O 5272.53 1.67475 0.914151 0
M  V30 56352 C 5269.67 3.22286 1.23391 0
M  V30 56353 C 5268.78 4.28755 0.528503 0
M  V30 56354 C 5267.92 5.08308 1.54261 0
M  V30 56355 C 5266.96 6.0656 0.821679 0
M  V30 56356 N 5266.09 6.79104 1.78219 0
M  V30 56357 H 5270.93 2.93737 -0.502266 0
M  V30 56358 H 5268.47 1.44793 -0.259522 0
M  V30 56359 H 5270.43 3.74268 1.84335 0
M  V30 56360 H 5269.06 2.60327 1.90865 0
M  V30 56361 H 5268.11 3.79899 -0.195265 0
M  V30 56362 H 5269.42 4.98787 -0.036682 0
M  V30 56363 H 5268.58 5.64395 2.22582 0
M  V30 56364 H 5267.31 4.38158 2.14171 0
M  V30 56365 H 5266.32 5.49659 0.124496 0
M  V30 56366 H 5267.54 6.78716 0.228446 0
M  V30 56367 H 5265.49 6.11691 2.37003 0
M  V30 56368 H 5265.41 7.45275 1.26893 0
M  V30 56369 H 5266.68 7.3977 2.45682 0
M  V30 56370 N 5270.9 0.284337 1.55014 0
M  V30 56371 C 5272.32 -0.0695469 1.59448 0
M  V30 56372 C 5272.52 -1.53829 1.3015 0
M  V30 56373 O 5271.58 -2.28856 1.06682 0
M  V30 56374 C 5272.89 0.313392 2.99062 0
M  V30 56375 C 5274.44 0.260772 3.11912 0
M  V30 56376 C 5274.91 0.618286 4.53807 0
M  V30 56377 N 5276.4 0.570187 4.59677 0
M  V30 56378 C 5277.14 0.8195 5.67514 0
M  V30 56379 N 5276.63 1.13391 6.83458 0
M  V30 56380 N 5278.43 0.747678 5.57105 0
M  V30 56381 H 5270.58 1.24173 1.72322 0
M  V30 56382 H 5272.84 0.502287 0.803997 0
M  V30 56383 H 5272.55 1.3352 3.25369 0
M  V30 56384 H 5272.42 -0.341237 3.75653 0
M  V30 56385 H 5274.81 -0.751768 2.85364 0
M  V30 56386 H 5274.89 0.949789 2.37513 0
M  V30 56387 H 5274.53 1.62856 4.81083 0
M  V30 56388 H 5274.46 -0.0926219 5.26519 0
M  V30 56389 H 5276.95 0.337432 3.7639 0
M  V30 56390 H 5277.27 1.31057 7.61606 0
M  V30 56391 H 5275.61 1.17178 6.85051 0
M  V30 56392 H 5278.8 0.501822 4.65402 0
M  V30 56393 H 5278.98 0.945354 6.41067 0
M  V30 56394 N 5272.38 -1.57596 0.0117675 0
M  V30 56395 C 5273.63 -1.91357 -0.671594 0
M  V30 56396 C 5273.96 -0.886878 -1.72766 0
M  V30 56397 O 5273.24 0.092813 -1.94278 0
M  V30 56398 C 5273.52 -3.35662 -1.30397 0
M  V30 56399 C 5273.37 -4.49056 -0.258642 0
M  V30 56400 C 5274.69 -3.79603 -2.22688 0
M  V30 56401 H 5271.81 -0.695901 -0.242674 0
M  V30 56402 H 5274.45 -1.89887 0.0654739 0
M  V30 56403 H 5272.6 -3.37045 -1.93218 0
M  V30 56404 H 5274.27 -4.59807 0.370793 0
M  V30 56405 H 5272.52 -4.31783 0.417824 0
M  V30 56406 H 5273.19 -5.47012 -0.740385 0
M  V30 56407 H 5275.66 -3.79846 -1.69872 0
M  V30 56408 H 5274.54 -4.81301 -2.63895 0
M  V30 56409 H 5274.8 -3.14129 -3.11087 0
M  V30 56410 N 5273.86 0.261157 -1.55421 0
M  V30 56411 C 5275.11 0.98921 -1.76236 0
M  V30 56412 C 5275.43 1.86387 -0.573133 0
M  V30 56413 O 5274.7 1.91527 0.411592 0
M  V30 56414 H 5273.28 0.368234 -0.649933 0
M  V30 56415 H 5275.94 0.282535 -1.92841 0
M  V30 56416 H 5275.04 1.61926 -2.66808 0
M  V30 56417 N 5275.34 1.48556 0.526201 0
M  V30 56418 C 5276.75 1.3476 0.855091 0
M  V30 56419 C 5276.95 0.361489 1.98231 0
M  V30 56420 O 5276.01 -0.215937 2.51575 0
M  V30 56421 C 5277.32 2.74881 1.21905 0
M  V30 56422 C 5278.87 2.83397 1.32872 0
M  V30 56423 C 5279.35 4.24229 1.72609 0
M  V30 56424 N 5280.84 4.2692 1.79705 0
M  V30 56425 C 5281.57 5.32832 2.11844 0
M  V30 56426 N 5281.07 6.49017 2.42382 0
M  V30 56427 N 5282.86 5.20228 2.12883 0
M  V30 56428 H 5275.01 2.11283 -0.217497 0
M  V30 56429 H 5277.28 0.947366 -0.0346696 0
M  V30 56430 H 5276.98 3.48621 0.464363 0
M  V30 56431 H 5276.86 3.08647 2.16833 0
M  V30 56432 H 5279.24 2.09911 2.07416 0
M  V30 56433 H 5279.32 2.53246 0.360549 0
M  V30 56434 H 5278.97 4.98233 0.986236 0
M  V30 56435 H 5278.9 4.51826 2.70482 0
M  V30 56436 H 5281.39 3.43116 1.58366 0
M  V30 56437 H 5281.7 7.2557 2.66022 0
M  V30 56438 H 5280.05 6.52285 2.39894 0
M  V30 56439 H 5283.24 4.28475 1.88485 0
M  V30 56440 H 5283.41 6.02869 2.37598 0
M  V30 56441 N 5276.82 -0.775363 1.37207 0
M  V30 56442 C 5278.23 -1.07541 1.17928 0
M  V30 56443 C 5278.43 -2.01496 0.0129605 0
M  V30 56444 O 5277.49 -2.44041 -0.648074 0
M  V30 56445 C 5278.8 -1.67638 2.49635 0
M  V30 56446 C 5280.35 -1.79914 2.56125 0
M  V30 56447 C 5280.82 -2.43425 3.87954 0
M  V30 56448 N 5282.32 -2.50879 3.89376 0
M  V30 56449 C 5283.05 -3.00864 4.88128 0
M  V30 56450 N 5282.55 -3.51049 5.97274 0
M  V30 56451 N 5284.34 -2.99705 4.75535 0
M  V30 56452 H 5276.49 -0.151449 2.11859 0
M  V30 56453 H 5278.75 -0.129812 0.93907 0
M  V30 56454 H 5278.46 -1.06071 3.35324 0
M  V30 56455 H 5278.33 -2.66978 2.66463 0
M  V30 56456 H 5280.72 -2.40615 1.70846 0
M  V30 56457 H 5280.8 -0.793396 2.43185 0
M  V30 56458 H 5280.45 -1.83363 4.73646 0
M  V30 56459 H 5280.38 -3.44597 3.98196 0
M  V30 56460 H 5282.87 -2.15359 3.1053 0
M  V30 56461 H 5283.18 -3.87581 6.68581 0
M  V30 56462 H 5281.52 -3.49163 6.00924 0
M  V30 56463 H 5284.72 -2.59796 3.89389 0
M  V30 56464 H 5284.89 -3.3835 5.52651 0
M  V30 56465 N 5278.3 -1.21718 -1.00112 0
M  V30 56466 C 5279.25 -0.947332 -2.07388 0
M  V30 56467 C 5280.23 0.0989098 -1.60596 0
M  V30 56468 O 5281.42 -0.110532 -1.76655 0
M  V30 56469 C 5278.55 -0.518073 -3.39368 0
M  V30 56470 C 5277.64 -1.59859 -3.92818 0
M  V30 56471 N 5278.03 -2.82452 -4.19588 0
M  V30 56472 C 5276.33 -1.46837 -4.21135 0
M  V30 56473 C 5277.03 -3.52263 -4.6291 0
M  V30 56474 N 5276 -2.79712 -4.66114 0
M  V30 56475 H 5279.8 -1.87868 -2.26015 0
M  V30 56476 H 5277.32 -1.11349 -1.18217 0
M  V30 56477 H 5279.32 -0.306097 -4.15775 0
M  V30 56478 H 5277.98 0.406467 -3.22146 0
M  V30 56479 H 5278.99 -3.18959 -4.08027 0
M  V30 56480 H 5275.66 -0.609404 -4.13028 0
M  V30 56481 H 5277.05 -4.57249 -4.92313 0
M  V30 56482 N 5279.77 1.19667 -1.02555 0
M  V30 56483 C 5281 1.9295 -0.738508 0
M  V30 56484 C 5281.41 1.75531 0.706093 0
M  V30 56485 O 5280.75 1.07235 1.49152 0
M  V30 56486 C 5280.82 3.45145 -1.00574 0
M  V30 56487 C 5280.48 3.86333 -2.44123 0
M  V30 56488 C 5281.48 3.91362 -3.42245 0
M  V30 56489 C 5279.16 4.18066 -2.78435 0
M  V30 56490 C 5281.16 4.27551 -4.72735 0
M  V30 56491 C 5278.84 4.53929 -4.09136 0
M  V30 56492 C 5279.84 4.58645 -5.06097 0
M  V30 56493 O 5279.53 4.93679 -6.34457 0
M  V30 56494 H 5279.26 0.619827 -0.269798 0
M  V30 56495 H 5281.82 1.52847 -1.37211 0
M  V30 56496 H 5280.05 3.85415 -0.314984 0
M  V30 56497 H 5281.73 3.99662 -0.708882 0
M  V30 56498 H 5282.5 3.67 -3.17074 0
M  V30 56499 H 5278.38 4.13581 -2.03645 0
M  V30 56500 H 5281.92 4.31147 -5.48414 0
M  V30 56501 H 5277.82 4.77749 -4.34081 0
M  V30 56502 H 5278.59 5.11639 -6.3888 0
M  V30 56503 N 5281.25 0.802969 1.3561 0
M  V30 56504 C 5282.49 0.387234 2.00698 0
M  V30 56505 C 5282.86 -1.0254 1.62325 0
M  V30 56506 O 5284.06 -1.54295 2.20106 0
M  V30 56507 C 5282.33 0.560937 3.52971 0
M  V30 56508 S 5283.89 0.235089 4.3817 0
M  V30 56509 H 5280.7 0.147242 0.695587 0
M  V30 56510 H 5283.31 1.04443 1.65263 0
M  V30 56511 H 5282.01 1.5891 3.78386 0
M  V30 56512 H 5281.54 -0.111706 3.93241 0
M  V30 56513 H 5283.56 -0.958543 4.86854 0
M  V30 56514 N 5282.73 -1.47461 0.556154 0
M  V30 56515 C 5283.66 -2.32802 -0.180415 0
M  V30 56516 C 5284.64 -1.43724 -0.909798 0
M  V30 56517 O 5285.83 -1.72581 -0.890469 0
M  V30 56518 C 5282.96 -3.25482 -1.21155 0
M  V30 56519 C 5281.91 -4.23792 -0.598697 0
M  V30 56520 C 5281.24 -5.05789 -1.73439 0
M  V30 56521 C 5282.54 -5.20385 0.446842 0
M  V30 56522 H 5284.23 -2.94635 0.532059 0
M  V30 56523 H 5281.78 -1.41682 0.257317 0
M  V30 56524 H 5283.73 -3.84026 -1.735 0
M  V30 56525 H 5282.45 -2.61702 -1.95396 0
M  V30 56526 H 5281.11 -3.66473 -0.0965609 0
M  V30 56527 H 5280.76 -4.38414 -2.46581 0
M  V30 56528 H 5280.46 -5.72348 -1.33011 0
M  V30 56529 H 5281.98 -5.67191 -2.26111 0
M  V30 56530 H 5283.4 -5.73299 0.00950173 0
M  V30 56531 H 5281.79 -5.9514 0.769945 0
M  V30 56532 H 5282.86 -4.65928 1.34311 0
M  V30 56533 N 5284.21 -0.292554 -1.54861 0
M  V30 56534 C 5285.45 0.319666 -2.00265 0
M  V30 56535 C 5285.79 1.54186 -1.18069 0
M  V30 56536 O 5285.06 1.9282 -0.25505 0
M  V30 56537 C 5285.34 0.684629 -3.53532 0
M  V30 56538 C 5285.2 -0.546118 -4.46472 0
M  V30 56539 C 5286.52 1.51441 -4.13223 0
M  V30 56540 H 5283.64 0.114715 -0.728018 0
M  V30 56541 H 5286.28 -0.402972 -1.85678 0
M  V30 56542 H 5284.43 1.30031 -3.66093 0
M  V30 56543 H 5286.1 -1.18464 -4.4583 0
M  V30 56544 H 5284.34 -1.18095 -4.17416 0
M  V30 56545 H 5285.01 -0.246737 -5.51448 0
M  V30 56546 H 5287.49 0.994279 -4.04046 0
M  V30 56547 H 5286.37 1.73856 -5.20639 0
M  V30 56548 H 5286.63 2.50098 -3.64559 0
M  V30 56549 N 5285.69 1.57587 -0.020125 0
M  V30 56550 C 5286.6 2.13123 0.980601 0
M  V30 56551 C 5287.61 1.08129 1.36324 0
M  V30 56552 O 5288.79 1.40139 1.44648 0
M  V30 56553 C 5285.85 2.63999 2.24734 0
M  V30 56554 C 5284.91 3.83673 1.92596 0
M  V30 56555 C 5284.15 4.32114 3.13231 0
M  V30 56556 O 5284.37 3.79773 4.25592 0
M  V30 56557 O 5283.3 5.24057 2.96053 0
M  V30 56558 H 5287.13 2.98889 0.538423 0
M  V30 56559 H 5284.71 1.48056 0.199938 0
M  V30 56560 H 5286.6 2.96831 2.99114 0
M  V30 56561 H 5285.27 1.8132 2.6815 0
M  V30 56562 H 5284.18 3.55782 1.15628 0
M  V30 56563 H 5285.51 4.67487 1.54002 0
M  V30 56564 N 5287.16 -0.252911 1.55557 0
M  V30 56565 C 5288.11 -1.31579 1.86202 0
M  V30 56566 C 5289.1 -1.43771 0.722408 0
M  V30 56567 O 5290.29 -1.47114 0.984204 0
M  V30 56568 C 5287.42 -2.67238 2.15497 0
M  V30 56569 C 5286.5 -2.59075 3.35769 0
M  V30 56570 N 5286.9 -2.2054 4.55188 0
M  V30 56571 C 5285.19 -2.901 3.3876 0
M  V30 56572 C 5285.89 -2.22862 5.37315 0
M  V30 56573 N 5284.87 -2.62128 4.76224 0
M  V30 56574 H 5288.67 -1.00826 2.76064 0
M  V30 56575 H 5286.19 -0.461543 1.55703 0
M  V30 56576 H 5288.18 -3.43936 2.35614 0
M  V30 56577 H 5286.84 -2.98863 1.26929 0
M  V30 56578 H 5287.85 -1.92183 4.80922 0
M  V30 56579 H 5284.53 -3.26304 2.60445 0
M  V30 56580 H 5285.92 -1.9546 6.42841 0
M  V30 56581 N 5288.64 -1.48833 -0.518315 0
M  V30 56582 C 5290.05 -1.50846 -1.10011 0
M  V30 56583 C 5290.4 -0.284812 -1.94122 0
M  V30 56584 O 5289.53 0.607014 -2.07712 0
M  V30 56585 C 5290.12 -2.73336 -2.00181 0
M  V30 56586 C 5288.68 -2.78183 -2.53557 0
M  V30 56587 C 5287.83 -2.44525 -1.30778 0
M  V30 56588 H 5290.78 -1.5578 -0.303018 0
M  V30 56589 H 5290.8 -2.52516 -2.84633 0
M  V30 56590 H 5290.31 -3.62378 -1.38937 0
M  V30 56591 H 5288.41 -1.93379 -3.18489 0
M  V30 56592 H 5288.53 -3.79915 -2.91893 0
M  V30 56593 H 5286.89 -1.9593 -1.62738 0
M  V30 56594 H 5287.67 -3.35821 -0.712679 0
M  V30 56595 N 5290.12 0.768075 -1.37617 0
M  V30 56596 C 5291.05 1.89072 -1.29555 0
M  V30 56597 C 5292.06 1.61432 -0.210617 0
M  V30 56598 O 5293.25 1.72281 -0.467052 0
M  V30 56599 C 5290.35 3.24385 -0.981216 0
M  V30 56600 C 5289.53 3.79642 -2.17235 0
M  V30 56601 C 5288.59 4.93438 -1.82771 0
M  V30 56602 O 5287.61 5.08831 -2.55108 0
M  V30 56603 N 5288.81 5.75317 -0.774022 0
M  V30 56604 H 5291.58 1.96502 -2.26289 0
M  V30 56605 H 5289.14 0.947353 -1.31289 0
M  V30 56606 H 5291.13 3.98035 -0.731441 0
M  V30 56607 H 5289.7 3.12433 -0.102312 0
M  V30 56608 H 5288.92 2.97726 -2.58366 0
M  V30 56609 H 5290.21 4.13291 -2.96762 0
M  V30 56610 H 5289.61 5.65433 -0.173842 0
M  V30 56611 H 5288.16 6.49177 -0.58411 0
M  V30 56612 N 5291.6 1.22247 0.994655 0
M  V30 56613 C 5293.01 0.98205 1.25809 0
M  V30 56614 C 5293.21 -0.325418 1.98855 0
M  V30 56615 O 5292.27 -1.04848 2.29702 0
M  V30 56616 C 5293.58 2.17957 2.0716 0
M  V30 56617 C 5295.13 2.22295 2.2035 0
M  V30 56618 C 5295.61 3.41594 3.05086 0
M  V30 56619 N 5297.1 3.41745 3.12674 0
M  V30 56620 C 5297.83 4.30705 3.78524 0
M  V30 56621 N 5297.33 5.29881 4.46316 0
M  V30 56622 N 5299.12 4.18486 3.75268 0
M  V30 56623 H 5291.27 2.06312 0.50489 0
M  V30 56624 H 5293.53 0.90396 0.285586 0
M  V30 56625 H 5293.24 3.12764 1.60847 0
M  V30 56626 H 5293.11 2.17873 3.07915 0
M  V30 56627 H 5295.5 1.28037 2.65877 0
M  V30 56628 H 5295.58 2.26418 1.19031 0
M  V30 56629 H 5295.23 4.3615 2.6026 0
M  V30 56630 H 5295.16 3.34709 4.06543 0
M  V30 56631 H 5297.65 2.69978 2.64424 0
M  V30 56632 H 5297.96 5.94044 4.94299 0
M  V30 56633 H 5296.31 5.33795 4.4507 0
M  V30 56634 H 5299.5 3.4026 3.21466 0
M  V30 56635 H 5299.67 4.88022 4.26308 0
M  V30 56636 N 5293.08 -1.19122 1.03188 0
M  V30 56637 C 5294.3 -1.93376 0.749696 0
M  V30 56638 C 5294.73 -1.75156 -0.685723 0
M  V30 56639 O 5294.08 -1.05584 -1.47383 0
M  V30 56640 C 5294.13 -3.43097 1.10982 0
M  V30 56641 O 5293.24 -4.11757 0.230197 0
M  V30 56642 H 5292.58 -0.603595 0.27671 0
M  V30 56643 H 5295.11 -1.51112 1.37936 0
M  V30 56644 H 5295.12 -3.93774 1.06799 0
M  V30 56645 H 5293.79 -3.5568 2.15556 0
M  V30 56646 H 5292.37 -3.71429 0.330878 0
M  V30 56647 N 5294.55 -0.810149 -1.35183 0
M  V30 56648 C 5295.5 -0.221008 -2.29739 0
M  V30 56649 C 5296.47 0.64697 -1.52982 0
M  V30 56650 O 5297.66 0.591303 -1.81406 0
M  V30 56651 C 5294.8 0.621551 -3.39457 0
M  V30 56652 C 5293.91 -0.267256 -4.31173 0
M  V30 56653 C 5293.04 0.583648 -5.27984 0
M  V30 56654 C 5292.08 -0.305338 -6.11338 0
M  V30 56655 N 5291.22 0.505745 -7.00276 0
M  V30 56656 H 5296.06 -1.03276 -2.79532 0
M  V30 56657 H 5293.6 -0.520816 -1.37571 0
M  V30 56658 H 5295.56 1.12525 -4.01739 0
M  V30 56659 H 5294.19 1.39853 -2.90931 0
M  V30 56660 H 5293.24 -0.88908 -3.69864 0
M  V30 56661 H 5294.55 -0.951354 -4.89643 0
M  V30 56662 H 5293.7 1.15233 -5.95656 0
M  V30 56663 H 5292.44 1.3013 -4.70019 0
M  V30 56664 H 5291.45 -0.886266 -5.4261 0
M  V30 56665 H 5292.67 -1.02091 -6.71382 0
M  V30 56666 H 5290.62 1.20731 -6.44795 0
M  V30 56667 H 5290.54 -0.120232 -7.55904 0
M  V30 56668 H 5291.8 1.05759 -7.72292 0
M  V30 56669 N 5296.03 1.47164 -0.563966 0
M  V30 56670 C 5296.98 2.30098 0.179932 0
M  V30 56671 C 5297.95 1.39477 0.90197 0
M  V30 56672 O 5299.13 1.68435 0.896337 0
M  V30 56673 C 5296.27 3.23577 1.19966 0
M  V30 56674 C 5295.39 4.29291 0.482998 0
M  V30 56675 C 5294.52 5.09916 1.48861 0
M  V30 56676 C 5293.56 6.07397 0.757299 0
M  V30 56677 N 5292.7 6.80956 1.71007 0
M  V30 56678 H 5297.54 2.93188 -0.533393 0
M  V30 56679 H 5295.08 1.44509 -0.274865 0
M  V30 56680 H 5297.03 3.76202 1.80355 0
M  V30 56681 H 5295.66 2.62337 1.88094 0
M  V30 56682 H 5294.72 3.7967 -0.235548 0
M  V30 56683 H 5296.03 4.9872 -0.0895829 0
M  V30 56684 H 5295.18 5.66724 2.16583 0
M  V30 56685 H 5293.92 4.40405 2.09511 0
M  V30 56686 H 5292.93 5.4976 0.0661908 0
M  V30 56687 H 5294.15 6.7892 0.156446 0
M  V30 56688 H 5292.1 6.1417 2.30502 0
M  V30 56689 H 5292.01 7.46579 1.18981 0
M  V30 56690 H 5293.28 7.42335 2.37822 0
M  V30 56691 N 5297.51 0.300763 1.54704 0
M  V30 56692 C 5298.47 -0.56257 2.22189 0
M  V30 56693 C 5299.47 -1.06148 1.20786 0
M  V30 56694 O 5300.66 -0.957545 1.45522 0
M  V30 56695 C 5297.8 -1.77888 2.90807 0
M  V30 56696 H 5298.99 0.0270415 2.99888 0
M  V30 56697 H 5296.54 0.0515961 1.56215 0
M  V30 56698 H 5297.28 -2.40834 2.17186 0
M  V30 56699 H 5297.06 -1.42879 3.65141 0
M  V30 56700 H 5298.55 -2.39224 3.42289 0
M  V30 56701 N 5298.99 -1.57574 0.028482 0
M  V30 56702 C 5300.23 -1.92058 -0.65126 0
M  V30 56703 C 5300.57 -0.905153 -1.71816 0
M  V30 56704 O 5299.84 0.072202 -1.94366 0
M  V30 56705 C 5300.13 -3.37026 -1.26829 0
M  V30 56706 C 5299.98 -4.49305 -0.210999 0
M  V30 56707 C 5301.3 -3.81943 -2.18649 0
M  V30 56708 H 5298.42 -0.698436 -0.235279 0
M  V30 56709 H 5301.06 -1.89807 0.0856103 0
M  V30 56710 H 5299.21 -3.39075 -1.89632 0
M  V30 56711 H 5300.88 -4.59388 0.419541 0
M  V30 56712 H 5299.12 -4.31316 0.463597 0
M  V30 56713 H 5299.79 -5.47767 -0.682326 0
M  V30 56714 H 5302.27 -3.81626 -1.65833 0
M  V30 56715 H 5301.15 -4.84073 -2.58775 0
M  V30 56716 H 5301.41 -3.17411 -3.07738 0
M  V30 56717 N 5300.47 0.244658 -1.55689 0
M  V30 56718 C 5301.71 0.96956 -1.78805 0
M  V30 56719 C 5302.07 1.82878 -0.597781 0
M  V30 56720 O 5301.36 1.87186 0.408912 0
M  V30 56721 C 5301.55 1.86159 -3.05089 0
M  V30 56722 C 5301.38 1.09021 -4.36285 0
M  V30 56723 C 5300.15 0.79441 -4.99016 0
M  V30 56724 C 5302.35 0.466703 -5.12178 0
M  V30 56725 N 5300.33 -0.000795761 -6.139 0
M  V30 56726 C 5301.7 -0.192972 -6.197 0
M  V30 56727 C 5303.76 0.377396 -4.96468 0
M  V30 56728 C 5302.46 -0.933383 -7.13218 0
M  V30 56729 C 5304.49 -0.349489 -5.90366 0
M  V30 56730 C 5303.85 -0.997794 -6.97297 0
M  V30 56731 H 5299.95 0.335821 -0.706221 0
M  V30 56732 H 5302.53 0.242491 -1.93184 0
M  V30 56733 H 5300.7 2.56067 -2.92035 0
M  V30 56734 H 5302.44 2.52223 -3.1649 0
M  V30 56735 H 5299.19 1.10675 -4.60487 0
M  V30 56736 H 5299.62 -0.386557 -6.75896 0
M  V30 56737 H 5304.26 0.864285 -4.13872 0
M  V30 56738 H 5301.98 -1.43187 -7.95313 0
M  V30 56739 H 5305.56 -0.419286 -5.80287 0
M  V30 56740 H 5304.44 -1.55127 -7.68704 0
M  V30 56741 N 5301.94 1.49106 0.510415 0
M  V30 56742 C 5302.89 1.61476 1.60965 0
M  V30 56743 C 5303.88 0.470851 1.53856 0
M  V30 56744 O 5305.07 0.723323 1.61546 0
M  V30 56745 C 5302.2 1.67586 2.99616 0
M  V30 56746 C 5301.29 2.87522 3.11756 0
M  V30 56747 N 5301.68 4.11714 2.93811 0
M  V30 56748 C 5299.97 2.85263 3.42842 0
M  V30 56749 C 5300.68 4.92287 3.09885 0
M  V30 56750 N 5299.65 4.25472 3.3834 0
M  V30 56751 H 5303.45 2.55225 1.4573 0
M  V30 56752 H 5300.97 1.45748 0.716332 0
M  V30 56753 H 5302.96 1.74544 3.78603 0
M  V30 56754 H 5301.62 0.749668 3.15927 0
M  V30 56755 H 5302.64 4.41843 2.70176 0
M  V30 56756 H 5299.31 2.01983 3.65389 0
M  V30 56757 H 5300.7 6.00916 3.00583 0
M  V30 56758 N 5303.42 -0.760766 1.38022 0
M  V30 56759 C 5304.37 -1.87435 1.34673 0
M  V30 56760 C 5305.34 -1.64761 0.210444 0
M  V30 56761 O 5306.52 -1.86527 0.401545 0
M  V30 56762 C 5303.66 -3.24644 1.17049 0
M  V30 56763 C 5302.78 -3.59197 2.40003 0
M  V30 56764 C 5301.91 -4.85672 2.15165 0
M  V30 56765 C 5300.95 -5.1299 3.33928 0
M  V30 56766 N 5300.09 -6.30657 3.08571 0
M  V30 56767 H 5304.93 -1.89632 2.29877 0
M  V30 56768 H 5302.47 -0.926964 1.14218 0
M  V30 56769 H 5304.42 -4.0381 1.04849 0
M  V30 56770 H 5303.05 -3.21792 0.254871 0
M  V30 56771 H 5302.11 -2.7493 2.62902 0
M  V30 56772 H 5303.42 -3.75317 3.2854 0
M  V30 56773 H 5302.57 -5.72766 2.00059 0
M  V30 56774 H 5301.31 -4.71678 1.23982 0
M  V30 56775 H 5300.32 -4.24367 3.4956 0
M  V30 56776 H 5301.54 -5.28886 4.25977 0
M  V30 56777 H 5299.49 -6.18 2.20028 0
M  V30 56778 H 5299.4 -6.47244 3.90655 0
M  V30 56779 H 5300.67 -7.20658 2.97106 0
M  V30 56780 N 5304.9 -1.22773 -0.988158 0
M  V30 56781 C 5305.83 -1.02634 -2.09734 0
M  V30 56782 C 5306.81 0.0542613 -1.70013 0
M  V30 56783 O 5308 -0.108879 -1.93895 0
M  V30 56784 C 5305.13 -0.608422 -3.41929 0
M  V30 56785 C 5304.08 -1.6355 -3.95519 0
M  V30 56786 C 5303.41 -1.07326 -5.23818 0
M  V30 56787 C 5304.71 -3.02664 -4.25666 0
M  V30 56788 H 5306.4 -1.95408 -2.2684 0
M  V30 56789 H 5303.95 -0.940926 -1.09007 0
M  V30 56790 H 5305.9 -0.454625 -4.1894 0
M  V30 56791 H 5304.62 0.354981 -3.24665 0
M  V30 56792 H 5303.28 -1.77715 -3.20645 0
M  V30 56793 H 5302.93 -0.101071 -5.02898 0
M  V30 56794 H 5302.63 -1.75945 -5.6064 0
M  V30 56795 H 5304.15 -0.93115 -6.03458 0
M  V30 56796 H 5305.57 -2.91845 -4.93456 0
M  V30 56797 H 5303.97 -3.6845 -4.73671 0
M  V30 56798 H 5305.04 -3.5224 -3.33249 0
M  V30 56799 N 5306.38 1.18573 -1.03818 0
M  V30 56800 C 5307.31 2.24332 -0.647874 0
M  V30 56801 C 5308.29 1.66509 0.347681 0
M  V30 56802 O 5309.47 1.92853 0.228333 0
M  V30 56803 C 5306.6 3.47299 -0.00747131 0
M  V30 56804 C 5305.56 4.17856 -0.926299 0
M  V30 56805 C 5304.89 5.34488 -0.150505 0
M  V30 56806 C 5306.18 4.71624 -2.24428 0
M  V30 56807 H 5307.88 2.57235 -1.532 0
M  V30 56808 H 5305.43 1.23647 -0.738071 0
M  V30 56809 H 5307.38 4.20487 0.277286 0
M  V30 56810 H 5306.1 3.13622 0.911516 0
M  V30 56811 H 5304.76 3.46563 -1.1954 0
M  V30 56812 H 5304.41 4.97059 0.77081 0
M  V30 56813 H 5304.11 5.8263 -0.762612 0
M  V30 56814 H 5305.63 6.10467 0.127293 0
M  V30 56815 H 5307.05 5.36519 -2.0204 0
M  V30 56816 H 5305.44 5.3029 -2.80913 0
M  V30 56817 H 5306.51 3.89182 -2.8925 0
M  V30 56818 N 5307.86 0.817307 1.34751 0
M  V30 56819 C 5309.08 0.414494 2.03216 0
M  V30 56820 C 5309.51 -0.96998 1.61161 0
M  V30 56821 O 5308.87 -1.63013 0.793493 0
M  V30 56822 C 5308.91 0.518212 3.56857 0
M  V30 56823 O 5308.02 -0.46417 4.09779 0
M  V30 56824 H 5307.36 0.171476 0.641476 0
M  V30 56825 H 5309.89 1.10617 1.72119 0
M  V30 56826 H 5309.9 0.391922 4.06113 0
M  V30 56827 H 5308.57 1.528 3.86814 0
M  V30 56828 H 5307.15 -0.29723 3.71714 0
M  V30 56829 N 5309.34 -1.46863 0.571763 0
M  V30 56830 C 5310.28 -2.3019 -0.167727 0
M  V30 56831 C 5311.25 -1.39953 -0.894561 0
M  V30 56832 O 5312.44 -1.68908 -0.887391 0
M  V30 56833 C 5309.58 -3.24209 -1.18248 0
M  V30 56834 C 5308.69 -4.29542 -0.460225 0
M  V30 56835 C 5307.83 -5.10698 -1.46155 0
M  V30 56836 C 5306.86 -6.0779 -0.725077 0
M  V30 56837 N 5306 -6.81853 -1.67393 0
M  V30 56838 H 5310.84 -2.92901 0.548934 0
M  V30 56839 H 5308.38 -1.44361 0.282525 0
M  V30 56840 H 5310.34 -3.77153 -1.78357 0
M  V30 56841 H 5308.97 -2.63331 -1.867 0
M  V30 56842 H 5308.02 -3.7954 0.255679 0
M  V30 56843 H 5309.33 -4.98665 0.11603 0
M  V30 56844 H 5308.48 -5.67865 -2.13575 0
M  V30 56845 H 5307.22 -4.4151 -2.07173 0
M  V30 56846 H 5306.23 -5.49788 -0.0370347 0
M  V30 56847 H 5307.45 -6.78993 -0.120439 0
M  V30 56848 H 5305.4 -6.15384 -2.27242 0
M  V30 56849 H 5305.32 -7.47199 -1.1502 0
M  V30 56850 H 5306.58 -7.43585 -2.33882 0
M  V30 56851 N 5310.81 -0.308963 -1.54542 0
M  V30 56852 C 5311.75 0.597375 -2.21278 0
M  V30 56853 C 5312.76 1.09133 -1.20805 0
M  V30 56854 O 5313.95 1.00741 -1.47355 0
M  V30 56855 C 5311.05 1.83075 -2.85196 0
M  V30 56856 C 5310.22 1.47795 -4.11674 0
M  V30 56857 C 5309.28 2.56732 -4.5932 0
M  V30 56858 O 5308.31 2.21489 -5.24339 0
M  V30 56859 N 5309.51 3.87412 -4.3231 0
M  V30 56860 H 5312.27 0.0260129 -2.99689 0
M  V30 56861 H 5309.83 -0.131512 -1.61365 0
M  V30 56862 H 5311.83 2.55315 -3.14001 0
M  V30 56863 H 5310.4 2.31031 -2.10578 0
M  V30 56864 H 5309.62 0.587837 -3.89792 0
M  V30 56865 H 5310.9 1.21773 -4.94013 0
M  V30 56866 H 5310.3 4.1885 -3.80239 0
M  V30 56867 H 5308.86 4.55926 -4.65806 0
M  V30 56868 N 5312.29 1.57557 -0.0368381 0
M  V30 56869 C 5313.71 1.56367 0.319615 0
M  V30 56870 C 5313.91 1.04319 1.72394 0
M  V30 56871 O 5312.96 0.693363 2.42794 0
M  V30 56872 C 5314.28 3.00268 0.161168 0
M  V30 56873 C 5315.82 3.12129 0.233355 0
M  V30 56874 C 5316.3 4.57883 0.103606 0
M  V30 56875 N 5317.79 4.62922 0.160344 0
M  V30 56876 C 5318.53 5.73339 0.0838478 0
M  V30 56877 N 5318.02 6.92786 -0.0441765 0
M  V30 56878 N 5319.81 5.6193 0.138394 0
M  V30 56879 H 5311.97 1.89716 -0.955063 0
M  V30 56880 H 5314.23 0.873027 -0.369497 0
M  V30 56881 H 5313.93 3.42328 -0.80651 0
M  V30 56882 H 5313.81 3.65602 0.928176 0
M  V30 56883 H 5316.2 2.69977 1.1915 0
M  V30 56884 H 5316.28 2.49501 -0.564163 0
M  V30 56885 H 5315.92 5.00717 -0.851149 0
M  V30 56886 H 5315.85 5.185 0.920086 0
M  V30 56887 H 5318.34 3.77011 0.259124 0
M  V30 56888 H 5318.65 7.72741 -0.0956437 0
M  V30 56889 H 5317 6.94955 -0.0790654 0
M  V30 56890 H 5320.19 4.675 0.236867 0
M  V30 56891 H 5320.36 6.47956 0.0753182 0
M  V30 56892 N 5313.77 -0.236398 1.55817 0
M  V30 56893 C 5314.72 -1.29283 1.91193 0
M  V30 56894 C 5315.69 -1.47312 0.767353 0
M  V30 56895 O 5316.87 -1.61124 1.02194 0
M  V30 56896 C 5314.01 -2.64118 2.22116 0
M  V30 56897 C 5313.12 -2.5401 3.49432 0
M  V30 56898 C 5312.26 -3.81269 3.69874 0
M  V30 56899 C 5311.3 -3.65822 4.90755 0
M  V30 56900 N 5310.44 -4.84997 5.07664 0
M  V30 56901 H 5315.28 -0.984141 2.8128 0
M  V30 56902 H 5312.81 -0.474673 1.39231 0
M  V30 56903 H 5314.77 -3.42618 2.38052 0
M  V30 56904 H 5313.4 -2.93113 1.3522 0
M  V30 56905 H 5312.45 -1.67024 3.41771 0
M  V30 56906 H 5313.76 -2.3851 4.3808 0
M  V30 56907 H 5312.92 -4.68212 3.85826 0
M  V30 56908 H 5311.66 -3.99678 2.79479 0
M  V30 56909 H 5310.66 -2.77262 4.74769 0
M  V30 56910 H 5311.89 -3.48898 5.82621 0
M  V30 56911 H 5309.83 -5.03747 4.20208 0
M  V30 56912 H 5309.75 -4.72167 5.90419 0
M  V30 56913 H 5311.02 -5.73408 5.28037 0
M  V30 56914 N 5315.25 -1.49374 -0.5025 0
M  V30 56915 C 5316.66 -1.36104 -0.833543 0
M  V30 56916 C 5316.86 -0.392981 -1.97631 0
M  V30 56917 O 5315.92 0.175886 -2.51887 0
M  V30 56918 C 5317.23 -2.76786 -1.17516 0
M  V30 56919 C 5318.78 -2.85475 -1.28346 0
M  V30 56920 C 5319.26 -4.26921 -1.65838 0
M  V30 56921 N 5320.75 -4.29725 -1.7289 0
M  V30 56922 C 5321.48 -5.36134 -2.03341 0
M  V30 56923 N 5320.98 -6.52791 -2.32026 0
M  V30 56924 N 5322.77 -5.23549 -2.04579 0
M  V30 56925 H 5314.92 -2.10911 0.251083 0
M  V30 56926 H 5317.18 -0.946694 0.0497369 0
M  V30 56927 H 5316.89 -3.49316 -0.408842 0
M  V30 56928 H 5316.76 -3.12058 -2.11896 0
M  V30 56929 H 5319.15 -2.13184 -2.0405 0
M  V30 56930 H 5319.23 -2.53788 -0.320214 0
M  V30 56931 H 5318.88 -4.99739 -0.906846 0
M  V30 56932 H 5318.81 -4.56072 -2.6326 0
M  V30 56933 H 5321.3 -3.45592 -1.52888 0
M  V30 56934 H 5321.61 -7.2971 -2.54446 0
M  V30 56935 H 5319.96 -6.56019 -2.29486 0
M  V30 56936 H 5323.15 -4.3142 -1.81644 0
M  V30 56937 H 5323.32 -6.06573 -2.27977 0
M  V30 56938 N 5316.73 0.753436 -1.38424 0
M  V30 56939 C 5317.69 1.84883 -1.35465 0
M  V30 56940 C 5318.69 1.58763 -0.255139 0
M  V30 56941 O 5319.88 1.66505 -0.512036 0
M  V30 56942 C 5317.01 3.22357 -1.10899 0
M  V30 56943 H 5318.2 1.88914 -2.3292 0
M  V30 56944 H 5315.76 0.955155 -1.23719 0
M  V30 56945 H 5316.49 3.23995 -0.140514 0
M  V30 56946 H 5316.28 3.42711 -1.90504 0
M  V30 56947 H 5317.77 4.02433 -1.11525 0
M  V30 56948 N 5318.2 1.23295 0.981634 0
M  V30 56949 C 5319.45 1.06588 1.72531 0
M  V30 56950 C 5319.78 -0.396472 1.9011 0
M  V30 56951 O 5319.06 -1.29358 1.45247 0
M  V30 56952 C 5319.34 1.79051 3.1243 0
M  V30 56953 C 5319.19 3.32951 3.02429 0
M  V30 56954 C 5320.51 1.552 4.11826 0
M  V30 56955 H 5317.63 0.388607 0.626222 0
M  V30 56956 H 5320.27 1.51783 1.14288 0
M  V30 56957 H 5318.42 1.40632 3.62153 0
M  V30 56958 H 5320.1 3.80884 2.6024 0
M  V30 56959 H 5318.34 3.62048 2.38964 0
M  V30 56960 H 5319.01 3.78841 4.01477 0
M  V30 56961 H 5321.49 1.88594 3.70906 0
M  V30 56962 H 5320.36 2.0838 5.07808 0
M  V30 56963 H 5320.62 0.48708 4.39409 0
M  V30 56964 N 5319.68 -1.1802 1.04446 0
M  V30 56965 C 5320.93 -1.88374 0.751199 0
M  V30 56966 C 5321.26 -1.80379 -0.719508 0
M  V30 56967 O 5320.54 -1.20668 -1.52544 0
M  V30 56968 C 5320.82 -3.38704 1.22277 0
M  V30 56969 C 5320.67 -3.55489 2.75586 0
M  V30 56970 C 5321.99 -4.32472 0.81584 0
M  V30 56971 H 5319.11 -0.684027 0.274364 0
M  V30 56972 H 5321.75 -1.38832 1.29713 0
M  V30 56973 H 5319.9 -3.81027 0.758326 0
M  V30 56974 H 5321.57 -3.22232 3.30097 0
M  V30 56975 H 5319.82 -2.98017 3.15227 0
M  V30 56976 H 5320.49 -4.60983 3.03642 0
M  V30 56977 H 5322.96 -3.97949 1.21556 0
M  V30 56978 H 5321.84 -5.36209 1.1735 0
M  V30 56979 H 5322.1 -4.41208 -0.280746 0
M  V30 56980 N 5321.16 -0.824441 -1.34316 0
M  V30 56981 C 5322.12 -0.252776 -2.27802 0
M  V30 56982 C 5323.12 0.570201 -1.50351 0
M  V30 56983 O 5324.31 0.386085 -1.69868 0
M  V30 56984 C 5321.45 0.645457 -3.34734 0
M  V30 56985 H 5322.64 -1.07752 -2.79874 0
M  V30 56986 H 5320.19 -0.596418 -1.44473 0
M  V30 56987 H 5320.93 1.4932 -2.87878 0
M  V30 56988 H 5320.71 0.05681 -3.92059 0
M  V30 56989 H 5322.2 1.03918 -4.04464 0
M  V30 56990 N 5322.64 1.46557 -0.579543 0
M  V30 56991 C 5323.88 2.04292 -0.0665555 0
M  V30 56992 C 5324.24 1.44165 1.26809 0
M  V30 56993 O 5325.44 1.9308 1.87012 0
M  V30 56994 C 5323.71 3.574 0.0015469 0
M  V30 56995 S 5325.27 4.36409 0.457419 0
M  V30 56996 H 5322.09 0.710091 -0.0359379 0
M  V30 56997 H 5324.69 1.79641 -0.771326 0
M  V30 56998 H 5323.4 3.98679 -0.973806 0
M  V30 56999 H 5322.93 3.86583 0.729185 0
M  V30 57000 H 5324.94 4.65701 1.71279 0
M  V30 57001 N 5324.12 0.317154 1.54376 0
M  V30 57002 C 5325.36 -0.287339 2.00451 0
M  V30 57003 C 5325.69 -1.52644 1.20541 0
M  V30 57004 O 5324.95 -1.93774 0.273899 0
M  V30 57005 C 5325.25 -0.672793 3.5101 0
M  V30 57006 C 5324.91 0.466403 4.48481 0
M  V30 57007 C 5323.57 0.7791 4.74851 0
M  V30 57008 C 5325.93 1.23194 5.06431 0
M  V30 57009 C 5323.25 1.86017 5.5643 0
M  V30 57010 C 5325.61 2.30304 5.89188 0
M  V30 57011 C 5324.27 2.62163 6.13862 0
M  V30 57012 H 5323.54 -0.105145 0.733502 0
M  V30 57013 H 5326.19 0.439604 1.86386 0
M  V30 57014 H 5324.49 -1.48007 3.62769 0
M  V30 57015 H 5326.19 -1.15196 3.84098 0
M  V30 57016 H 5322.78 0.212599 4.28072 0
M  V30 57017 H 5326.96 1.00361 4.86047 0
M  V30 57018 H 5322.22 2.11154 5.7378 0
M  V30 57019 H 5326.39 2.9007 6.33113 0
M  V30 57020 H 5324.02 3.46061 6.76865 0
M  V30 57021 N 5325.59 -1.57535 0.0451932 0
M  V30 57022 C 5327.01 -1.56534 -0.311318 0
M  V30 57023 C 5327.21 -1.05231 -1.71839 0
M  V30 57024 O 5326.27 -0.706229 -2.42422 0
M  V30 57025 C 5327.58 -3.00349 -0.145242 0
M  V30 57026 C 5329.13 -3.12248 -0.216798 0
M  V30 57027 C 5329.6 -4.57931 -0.0793224 0
M  V30 57028 N 5331.09 -4.63001 -0.135792 0
M  V30 57029 C 5331.83 -5.73375 -0.0534411 0
M  V30 57030 N 5331.32 -6.92753 0.080916 0
M  V30 57031 N 5333.12 -5.61995 -0.108592 0
M  V30 57032 H 5325.27 -1.89207 0.96511 0
M  V30 57033 H 5327.53 -0.871055 0.374122 0
M  V30 57034 H 5327.24 -3.41895 0.824653 0
M  V30 57035 H 5327.11 -3.66089 -0.908774 0
M  V30 57036 H 5329.5 -2.70605 -1.17716 0
M  V30 57037 H 5329.58 -2.49198 0.577386 0
M  V30 57038 H 5329.22 -5.00259 0.877692 0
M  V30 57039 H 5329.15 -5.1898 -0.892576 0
M  V30 57040 H 5331.64 -3.77143 -0.239127 0
M  V30 57041 H 5331.96 -7.72679 0.136623 0
M  V30 57042 H 5330.3 -6.94903 0.115919 0
M  V30 57043 H 5333.49 -4.67619 -0.212071 0
M  V30 57044 H 5333.67 -6.47987 -0.0409544 0
M  V30 57045 N 5327.07 0.228132 -1.5594 0
M  V30 57046 C 5328.01 1.30965 -1.86878 0
M  V30 57047 C 5328.98 1.45515 -0.725547 0
M  V30 57048 O 5330.17 1.61432 -0.973238 0
M  V30 57049 C 5327.29 2.68082 -2.07002 0
M  V30 57050 C 5326.34 2.70582 -3.29678 0
M  V30 57051 S 5327.17 2.25308 -4.85795 0
M  V30 57052 C 5328.33 3.64313 -5.08946 0
M  V30 57053 H 5328.56 1.04526 -2.78319 0
M  V30 57054 H 5326.1 0.430051 -1.4829 0
M  V30 57055 H 5328.05 3.47026 -2.19279 0
M  V30 57056 H 5326.71 2.91748 -1.1637 0
M  V30 57057 H 5325.91 3.71326 -3.40783 0
M  V30 57058 H 5325.51 1.99697 -3.16223 0
M  V30 57059 H 5327.8 4.59955 -4.97441 0
M  V30 57060 H 5328.74 3.58129 -6.10859 0
M  V30 57061 H 5329.15 3.57696 -4.36708 0
M  V30 57062 N 5328.55 1.49639 0.494571 0
M  V30 57063 C 5329.51 1.66257 1.57769 0
M  V30 57064 C 5330.51 0.534107 1.5167 0
M  V30 57065 O 5331.7 0.800691 1.54708 0
M  V30 57066 C 5328.84 1.66595 2.97421 0
M  V30 57067 H 5330.03 2.62869 1.4436 0
M  V30 57068 H 5327.58 1.38766 0.719275 0
M  V30 57069 H 5328.32 0.715909 3.16299 0
M  V30 57070 H 5328.1 2.48553 3.03255 0
M  V30 57071 H 5329.59 1.81487 3.76101 0
M  V30 57072 N 5330.03 -0.746085 1.38821 0
M  V30 57073 C 5331.44 -1.3238 1.31653 0
M  V30 57074 C 5331.79 -1.96185 -0.0242396 0
M  V30 57075 O 5330.92 -1.95571 -0.926341 0
M  V30 57076 C 5331.51 -2.40704 2.38426 0
M  V30 57077 C 5330.07 -2.94177 2.34813 0
M  V30 57078 C 5329.22 -1.67631 2.20896 0
M  V30 57079 H 5332.17 -0.544404 1.4907 0
M  V30 57080 H 5332.19 -3.20826 2.04575 0
M  V30 57081 H 5331.7 -1.94236 3.35997 0
M  V30 57082 H 5329.8 -3.44954 1.40846 0
M  V30 57083 H 5329.91 -3.48045 3.29244 0
M  V30 57084 H 5328.28 -1.91545 1.67877 0
M  V30 57085 H 5329.06 -1.2323 3.2042 0
M  V30 57086 N 5331.51 -1.23814 -0.975081 0
M  V30 57087 C 5332.44 -1.04853 -2.08634 0
M  V30 57088 C 5333.42 0.0362261 -1.70061 0
M  V30 57089 O 5334.6 -0.129438 -1.93768 0
M  V30 57090 C 5331.73 -0.644654 -3.41265 0
M  V30 57091 C 5330.69 -1.67735 -3.93762 0
M  V30 57092 C 5330.01 -1.12876 -5.2265 0
M  V30 57093 C 5331.31 -3.07162 -4.22432 0
M  V30 57094 H 5333.01 -1.97802 -2.24754 0
M  V30 57095 H 5330.55 -0.952435 -1.08003 0
M  V30 57096 H 5332.51 -0.499034 -4.18435 0
M  V30 57097 H 5331.23 0.320526 -3.25023 0
M  V30 57098 H 5329.89 -1.81106 -3.18742 0
M  V30 57099 H 5329.54 -0.154404 -5.02763 0
M  V30 57100 H 5329.24 -1.81881 -5.58742 0
M  V30 57101 H 5330.76 -0.995103 -6.02437 0
M  V30 57102 H 5332.17 -2.97063 -4.90333 0
M  V30 57103 H 5330.57 -3.73453 -4.69737 0
M  V30 57104 H 5331.64 -3.55755 -3.29495 0
M  V30 57105 N 5332.98 1.17465 -1.0507 0
M  V30 57106 C 5334.21 1.9134 -0.77927 0
M  V30 57107 C 5334.62 1.76989 0.668702 0
M  V30 57108 O 5333.97 1.10375 1.46844 0
M  V30 57109 C 5334.03 3.42934 -1.07872 0
M  V30 57110 C 5333.69 3.81068 -2.52263 0
M  V30 57111 C 5334.69 3.84015 -3.50469 0
M  V30 57112 C 5332.37 4.12066 -2.8724 0
M  V30 57113 C 5334.37 4.17428 -4.81698 0
M  V30 57114 C 5332.05 4.45148 -4.18672 0
M  V30 57115 C 5333.05 4.47807 -5.15711 0
M  V30 57116 O 5332.74 4.8011 -6.44786 0
M  V30 57117 H 5332.47 0.613965 -0.282884 0
M  V30 57118 H 5335.03 1.49902 -1.40423 0
M  V30 57119 H 5333.26 3.8466 -0.396665 0
M  V30 57120 H 5334.95 3.98068 -0.793497 0
M  V30 57121 H 5335.71 3.60192 -3.24788 0
M  V30 57122 H 5331.59 4.09169 -2.12372 0
M  V30 57123 H 5335.13 4.19418 -5.57436 0
M  V30 57124 H 5331.03 4.68434 -4.44117 0
M  V30 57125 H 5331.8 4.97973 -6.49589 0
M  V30 57126 N 5334.46 0.831553 1.33877 0
M  V30 57127 C 5335.41 0.247977 2.31274 0
M  V30 57128 C 5336.4 -0.616027 1.57802 0
M  V30 57129 O 5337.61 -0.506404 1.7273 0
M  V30 57130 H 5333.99 0.0614556 0.749485 0
M  V30 57131 H 5335.96 1.08411 2.7801 0
M  V30 57132 C 5334.71 -0.568313 3.43024 0
M  V30 57133 H 5334.03 0.0872059 3.99705 0
M  V30 57134 H 5335.47 -0.942606 4.1339 0
M  V30 57135 C 5333.93 -1.7442 2.88234 0
M  V30 57136 O 5334.46 -2.84268 2.83821 0
M  V30 57137 N 5332.66 -1.56373 2.44941 0
M  V30 57138 H 5332.21 -0.670167 2.4873 0
M  V30 57139 H 5332.17 -2.35201 2.08633 0
M  V30 57140 N 5335.94 -1.46248 0.587307 0
M  V30 57141 C 5336.87 -2.33132 -0.130994 0
M  V30 57142 C 5337.85 -1.45622 -0.879107 0
M  V30 57143 O 5339.04 -1.74431 -0.853662 0
M  V30 57144 C 5336.17 -3.27979 -1.14224 0
M  V30 57145 C 5335.12 -4.24967 -0.508669 0
M  V30 57146 C 5334.45 -5.09355 -1.62672 0
M  V30 57147 C 5335.75 -5.1932 0.557122 0
M  V30 57148 H 5337.44 -2.9344 0.594436 0
M  V30 57149 H 5334.99 -1.41105 0.287312 0
M  V30 57150 H 5336.94 -3.8762 -1.65315 0
M  V30 57151 H 5335.66 -2.65788 -1.89801 0
M  V30 57152 H 5334.32 -3.66595 -0.0188049 0
M  V30 57153 H 5333.97 -4.43546 -2.37226 0
M  V30 57154 H 5333.67 -5.7504 -1.20841 0
M  V30 57155 H 5335.2 -5.7186 -2.14029 0
M  V30 57156 H 5336.61 -5.7315 0.131105 0
M  V30 57157 H 5335.01 -5.93373 0.89601 0
M  V30 57158 H 5336.08 -4.62974 1.44164 0
M  V30 57159 N 5337.42 -0.325336 -1.54205 0
M  V30 57160 C 5338.83 0.16236 -1.85993 0
M  V30 57161 C 5339.18 1.51478 -1.24695 0
M  V30 57162 O 5338.31 2.09198 -0.553652 0
M  V30 57163 C 5338.9 0.301381 -3.37457 0
M  V30 57164 C 5337.46 0.7333 -3.69188 0
M  V30 57165 C 5336.61 -0.143928 -2.76926 0
M  V30 57166 H 5339.56 -0.54556 -1.49028 0
M  V30 57167 H 5339.58 1.13199 -3.63272 0
M  V30 57168 H 5339.09 -0.683076 -3.82041 0
M  V30 57169 H 5337.19 1.72744 -3.30137 0
M  V30 57170 H 5337.31 0.535819 -4.76094 0
M  V30 57171 H 5335.67 0.380803 -2.51837 0
M  V30 57172 H 5336.45 -1.12518 -3.24337 0
M  V30 57173 N 5338.9 1.57509 -0.0535471 0
M  V30 57174 C 5340.31 1.56697 0.303012 0
M  V30 57175 C 5340.51 1.06141 1.71278 0
M  V30 57176 O 5339.57 0.719076 2.42045 0
M  V30 57177 C 5340.88 3.00422 0.129312 0
M  V30 57178 C 5342.43 3.12359 0.200236 0
M  V30 57179 C 5342.91 4.57967 0.0550361 0
M  V30 57180 N 5344.4 4.63066 0.111236 0
M  V30 57181 C 5345.13 5.73395 0.0230328 0
M  V30 57182 N 5344.63 6.927 -0.117653 0
M  V30 57183 N 5346.42 5.62045 0.0787864 0
M  V30 57184 H 5338.57 1.88693 -0.975131 0
M  V30 57185 H 5340.83 0.869059 -0.378736 0
M  V30 57186 H 5340.54 3.41453 -0.842773 0
M  V30 57187 H 5340.41 3.66566 0.889347 0
M  V30 57188 H 5342.8 2.71225 1.1628 0
M  V30 57189 H 5342.88 2.48889 -0.590594 0
M  V30 57190 H 5342.53 4.99786 -0.904209 0
M  V30 57191 H 5342.46 5.19446 0.865041 0
M  V30 57192 H 5344.95 3.77264 0.219123 0
M  V30 57193 H 5345.26 7.72596 -0.177598 0
M  V30 57194 H 5343.61 6.94832 -0.15277 0
M  V30 57195 H 5346.8 4.67725 0.187269 0
M  V30 57196 H 5346.97 6.48 0.00658951 0
M  V30 57197 N 5340.38 -0.219858 1.56059 0
M  V30 57198 C 5341.33 -1.276 1.88951 0
M  V30 57199 C 5342.31 -1.42206 0.752741 0
M  V30 57200 O 5343.5 -1.44993 1.01519 0
M  V30 57201 C 5340.63 -2.62607 2.21117 0
M  V30 57202 C 5339.72 -2.51894 3.41189 0
M  V30 57203 N 5340.11 -2.10835 4.59763 0
M  V30 57204 C 5338.41 -2.82849 3.44837 0
M  V30 57205 C 5339.11 -2.11415 5.41921 0
M  V30 57206 N 5338.08 -2.51968 4.81677 0
M  V30 57207 H 5341.88 -0.949472 2.78141 0
M  V30 57208 H 5339.4 -0.428413 1.56647 0
M  V30 57209 H 5341.4 -3.38861 2.42856 0
M  V30 57210 H 5340.06 -2.96103 1.3324 0
M  V30 57211 H 5341.07 -1.81939 4.8489 0
M  V30 57212 H 5337.74 -3.20706 2.67308 0
M  V30 57213 H 5339.13 -1.8178 6.46843 0
M  V30 57214 N 5341.85 -1.49899 -0.486629 0
M  V30 57215 C 5343.27 -1.3698 -0.819061 0
M  V30 57216 C 5343.47 -0.41392 -1.97203 0
M  V30 57217 O 5342.53 0.149161 -2.52059 0
M  V30 57218 C 5343.84 -2.78017 -1.14574 0
M  V30 57219 C 5345.39 -2.86821 -1.25311 0
M  V30 57220 C 5345.86 -4.28656 -1.61301 0
M  V30 57221 N 5347.35 -4.31534 -1.68322 0
M  V30 57222 C 5348.09 -5.38261 -1.97643 0
M  V30 57223 N 5347.58 -6.55215 -2.2509 0
M  V30 57224 N 5349.38 -5.2569 -1.99015 0
M  V30 57225 H 5341.53 -2.10633 0.273438 0
M  V30 57226 H 5343.79 -0.946114 0.0597751 0
M  V30 57227 H 5343.5 -3.4973 -0.371769 0
M  V30 57228 H 5343.37 -3.14288 -2.08574 0
M  V30 57229 H 5345.76 -2.15336 -2.01778 0
M  V30 57230 H 5345.84 -2.54113 -0.293279 0
M  V30 57231 H 5345.48 -5.00672 -0.853792 0
M  V30 57232 H 5345.41 -4.58839 -2.58408 0
M  V30 57233 H 5347.9 -3.47194 -1.49214 0
M  V30 57234 H 5348.22 -7.32368 -2.46692 0
M  V30 57235 H 5346.56 -6.58416 -2.22515 0
M  V30 57236 H 5349.75 -4.33322 -1.77058 0
M  V30 57237 H 5349.93 -6.08957 -2.21531 0
M  V30 57238 N 5343.33 0.738712 -1.39215 0
M  V30 57239 C 5344.29 1.83436 -1.37419 0
M  V30 57240 C 5345.29 1.58483 -0.271963 0
M  V30 57241 O 5346.48 1.65952 -0.529667 0
M  V30 57242 C 5343.62 3.21163 -1.14312 0
M  V30 57243 H 5344.81 1.86433 -2.3491 0
M  V30 57244 H 5342.36 0.94198 -1.24725 0
M  V30 57245 H 5343.1 3.23828 -0.17487 0
M  V30 57246 H 5342.88 3.40671 -1.94128 0
M  V30 57247 H 5344.37 4.01227 -1.15787 0
M  V30 57248 N 5344.81 1.24329 0.968501 0
M  V30 57249 C 5346.06 1.08412 1.71391 0
M  V30 57250 C 5346.39 -0.376286 1.9052 0
M  V30 57251 O 5345.66 -1.2781 1.46611 0
M  V30 57252 C 5345.95 1.82355 3.10514 0
M  V30 57253 C 5345.8 3.3614 2.98881 0
M  V30 57254 C 5347.12 1.59559 4.10157 0
M  V30 57255 H 5344.24 0.395227 0.622065 0
M  V30 57256 H 5346.88 1.52987 1.12672 0
M  V30 57257 H 5345.03 1.44465 3.60641 0
M  V30 57258 H 5346.7 3.83623 2.56186 0
M  V30 57259 H 5344.94 3.64562 2.35111 0
M  V30 57260 H 5345.62 3.83078 3.97436 0
M  V30 57261 H 5348.09 1.92517 3.68885 0
M  V30 57262 H 5346.97 2.13754 5.05569 0
M  V30 57263 H 5347.23 0.533657 4.38867 0
M  V30 57264 N 5346.29 -1.16906 1.05692 0
M  V30 57265 C 5347.24 -2.23148 0.65634 0
M  V30 57266 C 5348.23 -1.66257 -0.324815 0
M  V30 57267 O 5349.44 -1.78991 -0.190334 0
M  V30 57268 H 5345.81 -0.72652 0.194096 0
M  V30 57269 H 5347.78 -2.54228 1.5624 0
M  V30 57270 C 5346.53 -3.47661 0.0523653 0
M  V30 57271 H 5345.85 -3.91746 0.798437 0
M  V30 57272 H 5347.29 -4.23572 -0.190477 0
M  V30 57273 C 5345.75 -3.14714 -1.20237 0
M  V30 57274 O 5346.28 -3.29955 -2.29112 0
M  V30 57275 N 5344.49 -2.68896 -1.10198 0
M  V30 57276 H 5344.04 -2.56693 -0.215973 0
M  V30 57277 H 5343.99 -2.47224 -1.94236 0
M  V30 57278 N 5347.77 -0.838641 -1.33434 0
M  V30 57279 C 5348.7 -0.286753 -2.31733 0
M  V30 57280 C 5349.68 0.605395 -1.58962 0
M  V30 57281 O 5350.86 0.528994 -1.86856 0
M  V30 57282 C 5347.99 0.53919 -3.43089 0
M  V30 57283 C 5346.95 -0.257147 -4.27227 0
M  V30 57284 C 5346.27 0.692531 -5.30196 0
M  V30 57285 C 5347.57 -1.47409 -5.01067 0
M  V30 57286 H 5349.27 -1.10808 -2.7814 0
M  V30 57287 H 5346.81 -0.534282 -1.33721 0
M  V30 57288 H 5348.76 0.93558 -4.10883 0
M  V30 57289 H 5347.49 1.39373 -2.95369 0
M  V30 57290 H 5346.15 -0.635094 -3.61057 0
M  V30 57291 H 5345.8 1.54346 -4.78734 0
M  V30 57292 H 5345.5 0.163817 -5.87372 0
M  V30 57293 H 5347.02 1.08644 -6.00857 0
M  V30 57294 H 5348.43 -1.15087 -5.6163 0
M  V30 57295 H 5346.83 -1.93957 -5.67891 0
M  V30 57296 H 5347.9 -2.24397 -4.29853 0
M  V30 57297 N 5349.24 1.45934 -0.595055 0
M  V30 57298 C 5350.49 2.0232 -0.0853765 0
M  V30 57299 C 5350.82 1.46505 1.27932 0
M  V30 57300 O 5350.07 0.624832 1.85457 0
M  V30 57301 C 5350.37 3.57396 0.0172491 0
M  V30 57302 C 5350.04 4.32307 -1.28147 0
M  V30 57303 C 5348.7 4.52491 -1.63724 0
M  V30 57304 C 5351.05 4.75225 -2.14034 0
M  V30 57305 C 5348.38 5.12847 -2.84965 0
M  V30 57306 C 5350.73 5.36921 -3.34512 0
M  V30 57307 C 5349.4 5.5533 -3.70357 0
M  V30 57308 H 5348.67 0.740341 -0.0312415 0
M  V30 57309 H 5351.31 1.75154 -0.774165 0
M  V30 57310 H 5349.62 3.83769 0.789236 0
M  V30 57311 H 5351.32 3.98714 0.427559 0
M  V30 57312 H 5347.91 4.16902 -0.994521 0
M  V30 57313 H 5352.09 4.59376 -1.87849 0
M  V30 57314 H 5347.35 5.25289 -3.12859 0
M  V30 57315 H 5351.52 5.69133 -4.01324 0
M  V30 57316 H 5349.15 6.01867 -4.64392 0
M  V30 57317 N 5350.72 0.33351 1.54031 0
M  V30 57318 C 5351.65 -0.52043 2.27626 0
M  V30 57319 C 5352.63 -1.11105 1.28801 0
M  V30 57320 O 5353.82 -1.13432 1.57629 0
M  V30 57321 C 5350.95 -1.67652 3.04155 0
M  V30 57322 C 5349.9 -1.21473 4.104 0
M  V30 57323 C 5349.23 -2.45855 4.74826 0
M  V30 57324 C 5350.53 -0.322419 5.21304 0
M  V30 57325 H 5352.22 0.0934875 2.99254 0
M  V30 57326 H 5349.77 0.0464032 1.43925 0
M  V30 57327 H 5351.72 -2.28029 3.54374 0
M  V30 57328 H 5350.45 -2.31718 2.30161 0
M  V30 57329 H 5349.1 -0.633839 3.61079 0
M  V30 57330 H 5348.75 -3.08306 3.97437 0
M  V30 57331 H 5348.45 -2.15643 5.466 0
M  V30 57332 H 5349.98 -3.06975 5.27824 0
M  V30 57333 H 5351.39 -0.832743 5.6722 0
M  V30 57334 H 5349.79 -0.112632 5.99994 0
M  V30 57335 H 5350.86 0.644123 4.80603 0
M  V30 57336 N 5352.2 -1.57478 0.0618994 0
M  V30 57337 C 5353.13 -2.0912 -0.938172 0
M  V30 57338 C 5354.15 -1.02125 -1.26785 0
M  V30 57339 O 5355.33 -1.29664 -1.22676 0
M  V30 57340 C 5352.43 -2.5283 -2.25677 0
M  V30 57341 C 5351.61 -3.83284 -2.10742 0
M  V30 57342 C 5350.67 -4.13193 -3.25819 0
M  V30 57343 O 5349.69 -4.82948 -3.01248 0
M  V30 57344 N 5350.89 -3.65954 -4.5062 0
M  V30 57345 H 5353.66 -2.95545 -0.49733 0
M  V30 57346 H 5351.22 -1.61424 -0.124078 0
M  V30 57347 H 5353.21 -2.69907 -3.0155 0
M  V30 57348 H 5351.78 -1.71595 -2.61293 0
M  V30 57349 H 5351 -3.75684 -1.19395 0
M  V30 57350 H 5352.29 -4.68693 -1.98002 0
M  V30 57351 H 5351.69 -3.09583 -4.73471 0
M  V30 57352 H 5350.25 -3.88249 -5.23551 0
M  V30 57353 N 5353.68 0.211579 -1.56173 0
M  V30 57354 C 5354.93 0.932641 -1.79294 0
M  V30 57355 C 5355.25 1.84469 -0.63214 0
M  V30 57356 O 5354.52 1.9274 0.350451 0
M  V30 57357 H 5353.1 0.34737 -0.661319 0
M  V30 57358 H 5355.76 0.221041 -1.93642 0
M  V30 57359 H 5354.86 1.53355 -2.71825 0
M  V30 57360 N 5355.16 1.50155 0.478672 0
M  V30 57361 C 5356.39 1.64271 1.25295 0
M  V30 57362 C 5356.79 0.322322 1.86434 0
M  V30 57363 O 5356.14 -0.704865 1.69639 0
M  V30 57364 C 5356.2 2.67025 2.40703 0
M  V30 57365 C 5355.86 4.10786 2.0026 0
M  V30 57366 C 5356.86 4.96894 1.52946 0
M  V30 57367 C 5354.55 4.56657 2.09212 0
M  V30 57368 C 5356.54 6.26918 1.15117 0
M  V30 57369 C 5354.23 5.86689 1.70995 0
M  V30 57370 C 5355.22 6.71645 1.24025 0
M  V30 57371 O 5354.91 7.99251 0.863336 0
M  V30 57372 H 5354.64 0.555395 0.385373 0
M  V30 57373 H 5357.2 1.9708 0.578682 0
M  V30 57374 H 5355.43 2.29443 3.11276 0
M  V30 57375 H 5357.12 2.70439 3.02684 0
M  V30 57376 H 5357.88 4.62674 1.45458 0
M  V30 57377 H 5353.76 3.90682 2.44721 0
M  V30 57378 H 5357.31 6.93182 0.783846 0
M  V30 57379 H 5353.2 6.20432 1.7814 0
M  V30 57380 H 5353.97 8.12456 0.992853 0
M  V30 57381 N 5356.63 -0.731319 1.39605 0
M  V30 57382 C 5357.54 -1.87574 1.40901 0
M  V30 57383 C 5358.56 -1.71335 0.303379 0
M  V30 57384 O 5359.74 -1.93873 0.545445 0
M  V30 57385 C 5356.8 -3.23206 1.25453 0
M  V30 57386 C 5355.86 -3.51813 2.46021 0
M  V30 57387 C 5355.1 -4.80974 2.31301 0
M  V30 57388 O 5355.32 -5.54954 1.31844 0
M  V30 57389 O 5354.25 -5.09562 3.20359 0
M  V30 57390 H 5358.08 -1.89436 2.37377 0
M  V30 57391 H 5355.66 -0.879632 1.20759 0
M  V30 57392 H 5357.55 -4.04253 1.18986 0
M  V30 57393 H 5356.22 -3.22107 0.32075 0
M  V30 57394 H 5355.13 -2.70838 2.58065 0
M  V30 57395 H 5356.46 -3.57695 3.38105 0
M  V30 57396 N 5358.11 -1.24841 -0.961894 0
M  V30 57397 C 5359.06 -1.0459 -2.05742 0
M  V30 57398 C 5360.03 0.0426697 -1.66045 0
M  V30 57399 O 5361.21 -0.113093 -1.90465 0
M  V30 57400 C 5358.35 -0.662959 -3.38672 0
M  V30 57401 C 5357.47 -1.82562 -3.91529 0
M  V30 57402 C 5356.6 -1.38771 -5.12753 0
M  V30 57403 C 5355.64 -2.51996 -5.57821 0
M  V30 57404 N 5354.78 -2.09032 -6.70261 0
M  V30 57405 H 5359.62 -1.98351 -2.22398 0
M  V30 57406 H 5357.16 -0.98786 -1.08994 0
M  V30 57407 H 5359.11 -0.421934 -4.15061 0
M  V30 57408 H 5357.74 0.237663 -3.21924 0
M  V30 57409 H 5356.8 -2.18015 -3.11727 0
M  V30 57410 H 5358.11 -2.67616 -4.20931 0
M  V30 57411 H 5357.26 -1.10591 -5.96535 0
M  V30 57412 H 5356 -0.507788 -4.85049 0
M  V30 57413 H 5355.01 -2.80929 -4.72609 0
M  V30 57414 H 5356.23 -3.40555 -5.87537 0
M  V30 57415 H 5354.18 -1.23446 -6.4428 0
M  V30 57416 H 5354.09 -2.87638 -6.99143 0
M  V30 57417 H 5355.36 -1.84008 -7.5747 0
M  V30 57418 N 5359.59 1.16344 -1.0631 0
M  V30 57419 C 5360.82 1.9132 -0.800703 0
M  V30 57420 C 5361.24 1.76912 0.639043 0
M  V30 57421 O 5360.6 1.09455 1.44532 0
M  V30 57422 C 5360.65 3.40034 -1.20039 0
M  V30 57423 O 5359.75 4.11002 -0.339287 0
M  V30 57424 H 5359.09 0.596047 -0.292616 0
M  V30 57425 H 5361.62 1.47401 -1.41894 0
M  V30 57426 H 5361.63 3.90804 -1.17202 0
M  V30 57427 H 5360.31 3.4984 -2.2491 0
M  V30 57428 H 5358.88 3.70421 -0.42924 0
M  V30 57429 N 5361.07 0.845705 1.32987 0
M  V30 57430 C 5362.31 0.454632 1.98254 0
M  V30 57431 C 5362.67 -0.976925 1.65753 0
M  V30 57432 O 5361.96 -1.67478 0.93069 0
M  V30 57433 C 5362.16 0.620223 3.51977 0
M  V30 57434 C 5361.99 2.06633 3.99416 0
M  V30 57435 C 5360.76 2.70298 4.26927 0
M  V30 57436 C 5362.95 3.03587 4.15138 0
M  V30 57437 N 5360.94 4.05912 4.60552 0
M  V30 57438 C 5362.31 4.24165 4.52199 0
M  V30 57439 C 5364.36 2.99902 3.97446 0
M  V30 57440 C 5363.06 5.41544 4.73416 0
M  V30 57441 C 5365.09 4.16516 4.19843 0
M  V30 57442 C 5364.45 5.35851 4.57213 0
M  V30 57443 H 5360.55 0.214923 0.751886 0
M  V30 57444 H 5363.14 1.09521 1.60976 0
M  V30 57445 H 5361.31 0.00940182 3.88399 0
M  V30 57446 H 5363.04 0.199924 4.04206 0
M  V30 57447 H 5359.79 2.21391 4.18668 0
M  V30 57448 H 5360.22 4.75841 4.81564 0
M  V30 57449 H 5364.86 2.08766 3.67664 0
M  V30 57450 H 5362.58 6.33218 5.02057 0
M  V30 57451 H 5366.16 4.1509 4.07666 0
M  V30 57452 H 5365.04 6.24585 4.74197 0
M  V30 57453 N 5362.55 -1.45617 0.602786 0
M  V30 57454 C 5363.8 -2.01482 0.0937103 0
M  V30 57455 C 5364.11 -1.47757 -1.28168 0
M  V30 57456 O 5365.31 -1.95569 -1.88322 0
M  V30 57457 C 5363.77 -3.5971 0.116864 0
M  V30 57458 C 5363.38 -4.22432 1.49181 0
M  V30 57459 C 5365.12 -4.23158 -0.33722 0
M  V30 57460 C 5363.03 -5.72798 1.47161 0
M  V30 57461 H 5361.96 -0.753352 0.0312647 0
M  V30 57462 H 5364.61 -1.67139 0.757406 0
M  V30 57463 H 5362.99 -3.91221 -0.613391 0
M  V30 57464 H 5364.17 -4.02503 2.24339 0
M  V30 57465 H 5362.48 -3.71159 1.88759 0
M  V30 57466 H 5365.08 -5.33408 -0.37144 0
M  V30 57467 H 5365.42 -3.93496 -1.35892 0
M  V30 57468 H 5365.95 -3.96348 0.339614 0
M  V30 57469 H 5362.69 -6.07152 2.47076 0
M  V30 57470 H 5362.21 -5.94933 0.762538 0
M  V30 57471 H 5363.89 -6.35903 1.19317 0
M  V30 57472 N 5364.02 -0.341674 -1.53852 0
M  V30 57473 C 5364.93 0.524475 -2.28662 0
M  V30 57474 C 5365.95 1.11356 -1.33701 0
M  V30 57475 O 5367.13 1.12964 -1.66736 0
M  V30 57476 C 5364.19 1.66055 -3.04346 0
M  V30 57477 C 5363.25 1.10143 -4.1493 0
M  V30 57478 C 5362.49 2.18336 -4.86996 0
M  V30 57479 O 5362.71 3.39022 -4.58716 0
M  V30 57480 O 5361.64 1.82736 -5.7349 0
M  V30 57481 H 5365.47 -0.0836081 -3.03585 0
M  V30 57482 H 5363.05 -0.10678 -1.49018 0
M  V30 57483 H 5364.94 2.32158 -3.51683 0
M  V30 57484 H 5363.61 2.25447 -2.32282 0
M  V30 57485 H 5362.52 0.404979 -3.71902 0
M  V30 57486 H 5363.85 0.552395 -4.8909 0
M  V30 57487 N 5365.5 1.57443 -0.07025 0
M  V30 57488 C 5366.73 1.97756 0.608288 0
M  V30 57489 C 5367.15 0.948554 1.63242 0
M  V30 57490 O 5366.5 -0.0649819 1.82384 0
M  V30 57491 C 5366.55 3.38147 1.27824 0
M  V30 57492 O 5366.28 4.37105 0.295101 0
M  V30 57493 C 5367.78 3.93325 2.04475 0
M  V30 57494 H 5365 0.650403 0.164974 0
M  V30 57495 H 5367.54 2.04005 -0.142196 0
M  V30 57496 H 5365.7 3.32989 1.97982 0
M  V30 57497 H 5366.11 5.18734 0.775558 0
M  V30 57498 H 5367.58 4.93782 2.46745 0
M  V30 57499 H 5368.06 3.29784 2.90067 0
M  V30 57500 H 5368.67 4.01879 1.39187 0
M  V30 57501 N 5366.98 -0.203294 1.56283 0
M  V30 57502 C 5367.89 -1.27259 1.97084 0
M  V30 57503 C 5368.91 -1.50265 0.877288 0
M  V30 57504 O 5370.08 -1.6304 1.18237 0
M  V30 57505 C 5367.15 -2.59863 2.29505 0
M  V30 57506 C 5366.21 -2.45 3.52524 0
M  V30 57507 C 5365.44 -3.7128 3.83389 0
M  V30 57508 O 5365.67 -4.75095 3.1566 0
M  V30 57509 O 5364.6 -3.67299 4.76839 0
M  V30 57510 H 5368.43 -0.956359 2.88249 0
M  V30 57511 H 5366.01 -0.407638 1.43731 0
M  V30 57512 H 5367.89 -3.38143 2.5147 0
M  V30 57513 H 5366.57 -2.9113 1.4151 0
M  V30 57514 H 5365.47 -1.64858 3.35817 0
M  V30 57515 H 5366.81 -2.18667 4.4096 0
M  V30 57516 N 5368.46 -1.50407 -0.470702 0
M  V30 57517 C 5369.37 -1.72086 -1.59448 0
M  V30 57518 C 5370.39 -0.603989 -1.63181 0
M  V30 57519 O 5371.56 -0.88236 -1.81042 0
M  V30 57520 C 5368.63 -1.81067 -2.95661 0
M  V30 57521 C 5367.69 -3.04803 -3.02314 0
M  V30 57522 C 5366.92 -3.13347 -4.32029 0
M  V30 57523 O 5367.14 -2.28673 -5.22556 0
M  V30 57524 O 5366.08 -4.06075 -4.44282 0
M  V30 57525 H 5369.9 -2.67348 -1.44079 0
M  V30 57526 H 5367.49 -1.34507 -0.650239 0
M  V30 57527 H 5369.37 -1.89153 -3.76562 0
M  V30 57528 H 5368.05 -0.889892 -3.11228 0
M  V30 57529 H 5366.95 -3.02217 -2.20489 0
M  V30 57530 H 5368.29 -3.96461 -2.91684 0
M  V30 57531 N 5369.94 0.723905 -1.39991 0
M  V30 57532 C 5370.89 1.82938 -1.36079 0
M  V30 57533 C 5371.87 1.59104 -0.239738 0
M  V30 57534 O 5373.06 1.70419 -0.478176 0
M  V30 57535 C 5370.19 3.20983 -1.21756 0
M  V30 57536 C 5369.28 3.50609 -2.38608 0
M  V30 57537 N 5369.67 3.51102 -3.64089 0
M  V30 57538 C 5367.97 3.81027 -2.31807 0
M  V30 57539 C 5368.67 3.78837 -4.41427 0
M  V30 57540 N 5367.64 3.97169 -3.71157 0
M  V30 57541 H 5371.45 1.81641 -2.3105 0
M  V30 57542 H 5368.96 0.922656 -1.33644 0
M  V30 57543 H 5370.96 4.00135 -1.17036 0
M  V30 57544 H 5369.62 3.23512 -0.277458 0
M  V30 57545 H 5370.63 3.32149 -3.97363 0
M  V30 57546 H 5367.31 3.91095 -1.46119 0
M  V30 57547 H 5368.7 3.85593 -5.50243 0
M  V30 57548 N 5371.42 1.2535 0.95526 0
M  V30 57549 C 5372.65 1.12635 1.73196 0
M  V30 57550 C 5373.05 -0.322682 1.86428 0
M  V30 57551 O 5372.4 -1.23376 1.36103 0
M  V30 57552 C 5372.46 1.70651 3.16415 0
M  V30 57553 C 5372.12 3.19643 3.26615 0
M  V30 57554 C 5373.12 4.16641 3.10976 0
M  V30 57555 C 5370.8 3.59842 3.50456 0
M  V30 57556 C 5372.8 5.51818 3.19024 0
M  V30 57557 C 5370.49 4.95155 3.5814 0
M  V30 57558 C 5371.48 5.90953 3.42438 0
M  V30 57559 O 5371.17 7.23805 3.49803 0
M  V30 57560 H 5370.9 0.393666 0.549548 0
M  V30 57561 H 5373.46 1.66188 1.20709 0
M  V30 57562 H 5371.69 1.11545 3.70263 0
M  V30 57563 H 5373.38 1.53045 3.75941 0
M  V30 57564 H 5374.14 3.86925 2.92427 0
M  V30 57565 H 5370.02 2.85772 3.61739 0
M  V30 57566 H 5373.57 6.2657 3.06685 0
M  V30 57567 H 5369.46 5.24538 3.76205 0
M  V30 57568 H 5370.23 7.31892 3.66438 0
M  V30 57569 N 5372.89 -1.15778 1.06926 0
M  V30 57570 C 5374.14 -1.86462 0.789817 0
M  V30 57571 C 5374.47 -1.82078 -0.683958 0
M  V30 57572 O 5373.72 -1.23581 -1.51744 0
M  V30 57573 C 5374.02 -3.3528 1.23782 0
M  V30 57574 C 5373.69 -3.59862 2.71681 0
M  V30 57575 C 5372.35 -3.66279 3.12078 0
M  V30 57576 C 5374.7 -3.69916 3.67167 0
M  V30 57577 C 5372.03 -3.80259 4.46789 0
M  V30 57578 C 5374.38 -3.85419 5.01633 0
M  V30 57579 C 5373.05 -3.90081 5.41658 0
M  V30 57580 H 5372.32 -0.682313 0.289015 0
M  V30 57581 H 5374.96 -1.36856 1.3395 0
M  V30 57582 H 5373.27 -3.87062 0.607445 0
M  V30 57583 H 5374.97 -3.88368 0.998568 0
M  V30 57584 H 5371.56 -3.55504 2.39406 0
M  V30 57585 H 5375.74 -3.64263 3.37085 0
M  V30 57586 H 5371 -3.82124 4.77275 0
M  V30 57587 H 5375.17 -3.92141 5.75499 0
M  V30 57588 H 5372.8 -4.00665 6.46043 0
M  V30 57589 N 5374.37 -0.852746 -1.32537 0
M  V30 57590 C 5375.28 -0.298826 -2.32689 0
M  V30 57591 C 5376.3 0.58236 -1.63965 0
M  V30 57592 O 5377.47 0.483184 -1.95518 0
M  V30 57593 C 5374.54 0.505333 -3.42997 0
M  V30 57594 C 5373.6 -0.401768 -4.27416 0
M  V30 57595 C 5372.83 0.364106 -5.32457 0
M  V30 57596 O 5373.06 1.59428 -5.47667 0
M  V30 57597 O 5371.99 -0.269104 -6.01298 0
M  V30 57598 H 5375.82 -1.12853 -2.81954 0
M  V30 57599 H 5373.4 -0.615631 -1.36126 0
M  V30 57600 H 5375.28 0.96183 -4.10276 0
M  V30 57601 H 5373.96 1.31186 -2.95925 0
M  V30 57602 H 5372.86 -0.906401 -3.62953 0
M  V30 57603 H 5374.2 -1.17343 -4.78008 0
M  V30 57604 N 5375.85 1.45295 -0.6105 0
M  V30 57605 C 5377.13 1.95562 -0.0386876 0
M  V30 57606 C 5377.51 1.55289 1.42999 0
M  V30 57607 O 5376.85 0.81686 2.134 0
M  V30 57608 C 5377.06 3.48175 -0.239854 0
M  V30 57609 C 5378.41 4.24424 -0.122184 0
M  V30 57610 O 5379.44 3.55793 -0.170129 0
M  V30 57611 O 5378.3 5.46499 -0.00972907 0
M  V30 57612 H 5375.39 0.826298 0.0340791 0
M  V30 57613 H 5377.94 1.55447 -0.680764 0
M  V30 57614 H 5376.71 3.70467 -1.25976 0
M  V30 57615 H 5376.33 3.95187 0.437347 0
M  V30 57616 N 5377.33 0.349828 1.53668 0
M  V30 57617 C 5378.27 -0.504042 2.25229 0
M  V30 57618 C 5379.24 -1.09044 1.25294 0
M  V30 57619 O 5380.43 -1.12588 1.54041 0
M  V30 57620 C 5377.57 -1.6459 3.03322 0
M  V30 57621 C 5376.68 -1.0862 4.18122 0
M  V30 57622 C 5375.82 -2.19588 4.83689 0
M  V30 57623 C 5374.86 -1.61002 5.90546 0
M  V30 57624 N 5373.99 -2.65737 6.49868 0
M  V30 57625 H 5378.83 0.112726 2.97787 0
M  V30 57626 H 5376.37 0.067402 1.46945 0
M  V30 57627 H 5378.33 -2.31824 3.46863 0
M  V30 57628 H 5376.96 -2.23356 2.33049 0
M  V30 57629 H 5376.01 -0.304615 3.79178 0
M  V30 57630 H 5377.32 -0.617737 4.9496 0
M  V30 57631 H 5376.48 -2.94674 5.30332 0
M  V30 57632 H 5375.22 -2.69781 4.06288 0
M  V30 57633 H 5374.22 -0.844237 5.4328 0
M  V30 57634 H 5375.45 -1.11653 6.69858 0
M  V30 57635 H 5373.39 -3.15173 5.75328 0
M  V30 57636 H 5373.31 -2.23531 7.22198 0
M  V30 57637 H 5374.58 -3.40573 7.01163 0
M  V30 57638 N 5378.81 -1.57404 0.0785986 0
M  V30 57639 C 5379.74 -2.16134 -0.88365 0
M  V30 57640 C 5380.72 -1.0902 -1.30571 0
M  V30 57641 O 5381.9 -1.37085 -1.37555 0
M  V30 57642 C 5379.03 -2.72844 -2.1488 0
M  V30 57643 C 5377.99 -3.85185 -1.86592 0
M  V30 57644 C 5377.31 -4.28527 -3.19795 0
M  V30 57645 C 5378.61 -5.09122 -1.16583 0
M  V30 57646 H 5380.31 -2.96791 -0.394379 0
M  V30 57647 H 5377.85 -1.42764 -0.188254 0
M  V30 57648 H 5379.8 -3.12577 -2.82619 0
M  V30 57649 H 5378.53 -1.89418 -2.66061 0
M  V30 57650 H 5377.19 -3.45966 -1.21256 0
M  V30 57651 H 5376.84 -3.42013 -3.68831 0
M  V30 57652 H 5376.54 -5.04259 -3.01656 0
M  V30 57653 H 5378.06 -4.70881 -3.8872 0
M  V30 57654 H 5379.47 -5.46129 -1.74403 0
M  V30 57655 H 5377.87 -5.90177 -1.08679 0
M  V30 57656 H 5378.94 -4.8468 -0.145967 0
M  V30 57657 N 5380.28 0.195003 -1.56389 0
M  V30 57658 C 5381.53 0.913563 -1.79825 0
M  V30 57659 C 5381.85 1.84419 -0.651832 0
M  V30 57660 O 5383.05 2.60338 -0.770493 0
M  V30 57661 C 5381.51 1.67486 -3.18554 0
M  V30 57662 C 5381.12 0.78905 -4.40997 0
M  V30 57663 C 5382.86 2.38305 -3.51299 0
M  V30 57664 C 5380.77 1.54922 -5.70748 0
M  V30 57665 H 5379.7 0.344867 -0.670509 0
M  V30 57666 H 5382.35 0.166847 -1.8274 0
M  V30 57667 H 5380.73 2.46546 -3.09888 0
M  V30 57668 H 5381.9 0.0370975 -4.60785 0
M  V30 57669 H 5380.22 0.191688 -4.15959 0
M  V30 57670 H 5382.82 2.95729 -4.45475 0
M  V30 57671 H 5383.16 3.12497 -2.75048 0
M  V30 57672 H 5383.69 1.66211 -3.61412 0
M  V30 57673 H 5380.43 0.850082 -6.49965 0
M  V30 57674 H 5379.95 2.2751 -5.54977 0
M  V30 57675 H 5381.63 2.10299 -6.11869 0
M  V30 57676 N 5381.76 1.50654 0.462719 0
M  V30 57677 C 5382.67 1.72929 1.58533 0
M  V30 57678 C 5383.69 0.612635 1.62858 0
M  V30 57679 O 5384.86 0.891949 1.80572 0
M  V30 57680 C 5381.93 1.82633 2.94697 0
M  V30 57681 C 5380.99 3.06402 3.00693 0
M  V30 57682 C 5380.22 3.15634 4.30362 0
M  V30 57683 O 5380.45 2.31441 5.21336 0
M  V30 57684 O 5379.38 4.08426 4.42122 0
M  V30 57685 H 5383.21 2.68108 1.4266 0
M  V30 57686 H 5380.79 1.3485 0.643097 0
M  V30 57687 H 5382.67 1.91147 3.75554 0
M  V30 57688 H 5381.35 0.906384 3.10751 0
M  V30 57689 H 5380.26 3.03383 2.18883 0
M  V30 57690 H 5381.59 3.98003 2.89577 0
M  V30 57691 N 5383.24 -0.716471 1.40373 0
M  V30 57692 C 5384.52 -1.46942 1.29102 0
M  V30 57693 C 5384.9 -2.10904 -0.0910441 0
M  V30 57694 O 5384.25 -2.00072 -1.10378 0
M  V30 57695 C 5384.46 -2.50585 2.42916 0
M  V30 57696 C 5385.8 -3.16441 2.83108 0
M  V30 57697 O 5386.83 -2.60905 2.42502 0
M  V30 57698 O 5385.69 -4.16978 3.53258 0
M  V30 57699 H 5382.78 -0.653395 0.506955 0
M  V30 57700 H 5385.33 -0.748721 1.5229 0
M  V30 57701 H 5384.1 -2.01832 3.35231 0
M  V30 57702 H 5383.72 -3.30192 2.21493 0
M  V30 57703 N 5384.72 -1.25855 -0.948599 0
M  V30 57704 C 5385.65 -1.09255 -2.06363 0
M  V30 57705 C 5386.63 0.00014537 -1.701 0
M  V30 57706 O 5387.81 -0.17051 -1.9345 0
M  V30 57707 C 5384.94 -0.716896 -3.3982 0
M  V30 57708 C 5383.9 -1.7605 -3.90116 0
M  V30 57709 C 5383.22 -1.23937 -5.20138 0
M  V30 57710 C 5384.52 -3.16053 -4.15822 0
M  V30 57711 H 5386.22 -2.02525 -2.20508 0
M  V30 57712 H 5383.76 -0.97513 -1.05959 0
M  V30 57713 H 5385.72 -0.587678 -4.17282 0
M  V30 57714 H 5384.44 0.251512 -3.2563 0
M  V30 57715 H 5383.1 -1.87826 -3.14828 0
M  V30 57716 H 5382.75 -0.261013 -5.02322 0
M  V30 57717 H 5382.45 -1.93692 -5.54759 0
M  V30 57718 H 5383.97 -1.12266 -6.0019 0
M  V30 57719 H 5385.39 -3.07397 -4.83922 0
M  V30 57720 H 5383.78 -3.83333 -4.61709 0
M  V30 57721 H 5384.85 -3.62664 -3.21874 0
M  V30 57722 N 5386.2 1.1521 -1.07538 0
M  V30 57723 C 5387.16 2.18207 -0.701313 0
M  V30 57724 C 5388.16 1.58694 0.259404 0
M  V30 57725 O 5389.35 1.74154 0.0401132 0
M  V30 57726 C 5386.48 3.40883 -0.0339901 0
M  V30 57727 H 5387.67 2.52814 -1.61323 0
M  V30 57728 H 5385.23 1.29704 -0.87215 0
M  V30 57729 H 5385.96 3.11846 0.890077 0
M  V30 57730 H 5385.75 3.85339 -0.724996 0
M  V30 57731 H 5387.24 4.17056 0.213005 0
M  V30 57732 N 5387.67 0.859763 1.32083 0
M  V30 57733 C 5388.62 0.306122 2.28761 0
M  V30 57734 C 5389.59 -0.589746 1.55278 0
M  V30 57735 O 5390.78 -0.523568 1.83476 0
M  V30 57736 C 5387.92 -0.495135 3.4153 0
M  V30 57737 C 5387.03 0.427099 4.29884 0
M  V30 57738 C 5386.16 -0.387288 5.29786 0
M  V30 57739 C 5385.2 0.532021 6.09784 0
M  V30 57740 N 5384.34 -0.245494 7.01671 0
M  V30 57741 H 5389.18 1.13579 2.75506 0
M  V30 57742 H 5386.72 0.571516 1.35544 0
M  V30 57743 H 5388.68 -0.975367 4.05638 0
M  V30 57744 H 5387.31 -1.28959 2.95921 0
M  V30 57745 H 5386.36 1.02574 3.6631 0
M  V30 57746 H 5387.67 1.13243 4.85775 0
M  V30 57747 H 5386.82 -0.930466 5.99522 0
M  V30 57748 H 5385.56 -1.12596 4.74524 0
M  V30 57749 H 5384.57 1.08704 5.38947 0
M  V30 57750 H 5385.79 1.26938 6.67131 0
M  V30 57751 H 5383.74 -0.967163 6.48831 0
M  V30 57752 H 5383.66 0.400698 7.54937 0
M  V30 57753 H 5384.92 -0.770234 7.75685 0
M  V30 57754 N 5389.15 -1.44969 0.618196 0
M  V30 57755 C 5390.56 -1.85611 0.201399 0
M  V30 57756 C 5390.91 -1.51703 -1.24421 0
M  V30 57757 O 5390.04 -0.948818 -1.9449 0
M  V30 57758 C 5390.63 -3.36895 0.358737 0
M  V30 57759 C 5389.19 -3.764 -0.00344963 0
M  V30 57760 C 5388.34 -2.68878 0.678212 0
M  V30 57761 H 5391.29 -1.35619 0.824199 0
M  V30 57762 H 5391.31 -3.78327 -0.406043 0
M  V30 57763 H 5390.82 -3.61543 1.41097 0
M  V30 57764 H 5388.93 -3.57369 -1.05444 0
M  V30 57765 H 5389.04 -4.77447 0.397595 0
M  V30 57766 H 5387.4 -2.54441 0.114789 0
M  V30 57767 H 5388.19 -2.96361 1.73278 0
M  V30 57768 N 5390.63 -0.357973 -1.53481 0
M  V30 57769 C 5391.88 0.23363 -2.00745 0
M  V30 57770 C 5392.2 1.49903 -1.24716 0
M  V30 57771 O 5391.47 1.92595 -0.358303 0
M  V30 57772 H 5390.05 0.0893213 -0.741641 0
M  V30 57773 H 5392.71 -0.482454 -1.88834 0
M  V30 57774 H 5391.81 0.465965 -3.08602 0
M  V30 57775 N 5392.11 1.5736 -0.086945 0
M  V30 57776 C 5393.07 2.12439 0.860365 0
M  V30 57777 C 5394.07 1.05179 1.2163 0
M  V30 57778 O 5395.26 1.31102 1.14708 0
M  V30 57779 C 5392.39 2.63826 2.1589 0
M  V30 57780 H 5393.59 2.97454 0.382241 0
M  V30 57781 H 5391.14 1.55459 0.161954 0
M  V30 57782 H 5391.87 1.82308 2.68206 0
M  V30 57783 H 5391.66 3.42241 1.91347 0
M  V30 57784 H 5393.15 3.06462 2.83674 0
M  V30 57785 N 5393.59 -0.186707 1.5649 0
M  V30 57786 C 5394.5 -1.25162 1.98423 0
M  V30 57787 C 5395.51 -1.49326 0.893177 0
M  V30 57788 O 5396.69 -1.61776 1.1996 0
M  V30 57789 C 5393.75 -2.57414 2.32248 0
M  V30 57790 C 5392.81 -2.41247 3.55103 0
M  V30 57791 C 5392.05 -3.67193 3.87305 0
M  V30 57792 O 5392.27 -4.7172 3.20681 0
M  V30 57793 O 5391.2 -3.62221 4.80708 0
M  V30 57794 H 5395.03 -0.925733 2.89247 0
M  V30 57795 H 5392.62 -0.39237 1.44156 0
M  V30 57796 H 5394.5 -3.35457 2.55042 0
M  V30 57797 H 5393.17 -2.89613 1.4459 0
M  V30 57798 H 5392.08 -1.61287 3.37546 0
M  V30 57799 H 5393.41 -2.13978 4.43254 0
M  V30 57800 N 5395.07 -1.50897 -0.454723 0
M  V30 57801 C 5396.48 -1.55376 -1.03514 0
M  V30 57802 C 5396.83 -0.36689 -1.92739 0
M  V30 57803 O 5395.95 0.51837 -2.101 0
M  V30 57804 C 5396.55 -2.81581 -1.88408 0
M  V30 57805 C 5395.11 -2.88687 -2.4153 0
M  V30 57806 C 5394.25 -2.49852 -1.20289 0
M  V30 57807 H 5397.2 -1.56925 -0.236674 0
M  V30 57808 H 5397.23 -2.64361 -2.73666 0
M  V30 57809 H 5396.74 -3.67945 -1.23442 0
M  V30 57810 H 5394.84 -2.06713 -3.10001 0
M  V30 57811 H 5394.95 -3.91953 -2.75517 0
M  V30 57812 H 5393.32 -2.02656 -1.54281 0
M  V30 57813 H 5394.1 -3.38542 -0.569604 0
M  V30 57814 N 5396.54 0.709016 -1.40751 0
M  V30 57815 C 5397.95 1.28843 -1.35116 0
M  V30 57816 C 5398.31 1.9618 -0.0277839 0
M  V30 57817 O 5397.43 1.97958 0.874163 0
M  V30 57818 C 5398.03 2.34298 -2.44724 0
M  V30 57819 C 5396.58 2.87847 -2.4253 0
M  V30 57820 C 5395.73 1.61715 -2.25263 0
M  V30 57821 H 5398.68 0.504689 -1.50461 0
M  V30 57822 H 5398.7 3.15289 -2.13009 0
M  V30 57823 H 5398.22 1.85259 -3.41029 0
M  V30 57824 H 5396.32 3.41098 -1.49943 0
M  V30 57825 H 5396.43 3.39194 -3.38356 0
M  V30 57826 H 5394.79 1.87026 -1.72897 0
M  V30 57827 H 5395.58 1.14692 -3.23575 0
M  V30 57828 N 5398.02 1.26356 0.941911 0
M  V30 57829 C 5398.93 1.09625 2.07411 0
M  V30 57830 C 5399.95 0.0299575 1.73974 0
M  V30 57831 O 5401.12 0.233536 2.00041 0
M  V30 57832 C 5398.19 0.730249 3.38922 0
M  V30 57833 C 5397.25 1.87588 3.86147 0
M  V30 57834 C 5396.48 1.52724 5.11382 0
M  V30 57835 O 5396.71 0.428638 5.68787 0
M  V30 57836 O 5395.64 2.36174 5.5363 0
M  V30 57837 H 5399.47 2.04606 2.24433 0
M  V30 57838 H 5397.05 1.05411 1.05872 0
M  V30 57839 H 5398.93 0.538831 4.17941 0
M  V30 57840 H 5397.61 -0.190168 3.23141 0
M  V30 57841 H 5396.51 2.12225 3.08077 0
M  V30 57842 H 5397.85 2.77599 4.06447 0
M  V30 57843 N 5399.5 -1.14638 1.08148 0
M  V30 57844 C 5400.41 -2.23254 0.720747 0
M  V30 57845 C 5401.43 -1.71867 -0.271588 0
M  V30 57846 O 5402.6 -2.01065 -0.116195 0
M  V30 57847 C 5399.67 -3.46446 0.132664 0
M  V30 57848 C 5398.73 -4.12785 1.17927 0
M  V30 57849 C 5397.96 -5.30096 0.619158 0
M  V30 57850 O 5398.18 -5.67622 -0.562218 0
M  V30 57851 O 5397.12 -5.86149 1.36794 0
M  V30 57852 H 5400.94 -2.56457 1.62676 0
M  V30 57853 H 5398.53 -1.22518 0.854975 0
M  V30 57854 H 5400.41 -4.2096 -0.192622 0
M  V30 57855 H 5399.09 -3.14973 -0.746552 0
M  V30 57856 H 5397.99 -3.40157 1.55704 0
M  V30 57857 H 5399.33 -4.48358 2.03067 0
M  V30 57858 N 5400.98 -0.866756 -1.31625 0
M  V30 57859 C 5402.25 -0.396895 -1.91531 0
M  V30 57860 C 5402.63 1.12074 -1.78893 0
M  V30 57861 O 5401.98 1.94787 -1.19459 0
M  V30 57862 C 5402.19 -0.874697 -3.37861 0
M  V30 57863 C 5403.54 -0.898946 -4.14975 0
M  V30 57864 O 5404.56 -0.820136 -3.4663 0
M  V30 57865 O 5403.42 -1.01241 -5.3704 0
M  V30 57866 H 5400.52 -0.118129 -0.81852 0
M  V30 57867 H 5403.06 -0.954456 -1.40315 0
M  V30 57868 H 5401.84 -1.91819 -3.41059 0
M  V30 57869 H 5401.46 -0.295266 -3.96502 0
M  V30 57870 N 5402.46 1.44639 -0.625876 0
M  V30 57871 C 5403.37 2.34451 0.0835309 0
M  V30 57872 C 5404.38 1.52313 0.841236 0
M  V30 57873 O 5405.56 1.85059 0.794689 0
M  V30 57874 C 5402.62 3.30215 1.05636 0
M  V30 57875 C 5401.68 4.2826 0.298608 0
M  V30 57876 C 5400.92 5.19449 1.2251 0
M  V30 57877 O 5401.14 5.14452 2.46363 0
M  V30 57878 O 5400.07 5.97671 0.71226 0
M  V30 57879 H 5403.9 2.96552 -0.655016 0
M  V30 57880 H 5401.48 1.44325 -0.38608 0
M  V30 57881 H 5403.37 3.89175 1.61619 0
M  V30 57882 H 5402.04 2.70654 1.77561 0
M  V30 57883 H 5400.95 3.72862 -0.304132 0
M  V30 57884 H 5402.28 4.90727 -0.380518 0
M  V30 57885 N 5403.93 0.366107 1.53289 0
M  V30 57886 C 5405.18 -0.222981 2.00866 0
M  V30 57887 C 5405.5 -1.4924 1.25509 0
M  V30 57888 O 5404.77 -1.92403 0.368511 0
M  V30 57889 H 5403.35 -0.0853869 0.742104 0
M  V30 57890 H 5406.01 0.492462 1.88576 0
M  V30 57891 H 5405.11 -0.449592 3.08845 0
M  V30 57892 N 5405.41 -1.57312 0.095289 0
M  V30 57893 C 5406.64 -1.98699 -0.57675 0
M  V30 57894 C 5407.05 -0.974404 -1.61712 0
M  V30 57895 O 5406.41 0.0359579 -1.82465 0
M  V30 57896 C 5406.46 -3.40138 -1.22428 0
M  V30 57897 O 5406.18 -4.37519 -0.225524 0
M  V30 57898 C 5407.68 -3.96529 -1.98191 0
M  V30 57899 H 5404.9 -0.652946 -0.154606 0
M  V30 57900 H 5407.45 -2.03753 0.174633 0
M  V30 57901 H 5405.6 -3.36097 -1.9266 0
M  V30 57902 H 5406.02 -5.19903 -0.692934 0
M  V30 57903 H 5407.49 -4.97645 -2.38858 0
M  V30 57904 H 5407.97 -3.34357 -2.84784 0
M  V30 57905 H 5408.57 -4.04043 -1.32776 0
M  V30 57906 N 5406.89 0.178405 -1.56587 0
M  V30 57907 C 5407.84 1.22098 -1.95859 0
M  V30 57908 C 5408.81 1.44363 -0.821498 0
M  V30 57909 O 5409.99 1.5722 -1.08104 0
M  V30 57910 C 5407.13 2.55693 -2.31766 0
M  V30 57911 C 5406.24 2.40866 -3.58619 0
M  V30 57912 C 5405.38 3.67279 -3.8377 0
M  V30 57913 C 5404.42 3.47356 -5.03995 0
M  V30 57914 N 5403.56 4.65821 -5.25315 0
M  V30 57915 H 5408.4 0.879068 -2.84739 0
M  V30 57916 H 5405.93 0.422671 -1.40897 0
M  V30 57917 H 5407.89 3.33547 -2.50604 0
M  V30 57918 H 5406.52 2.87893 -1.46005 0
M  V30 57919 H 5405.57 1.54224 -3.47734 0
M  V30 57920 H 5406.88 2.22087 -4.46631 0
M  V30 57921 H 5406.04 4.5357 -4.02938 0
M  V30 57922 H 5404.78 3.8903 -2.9412 0
M  V30 57923 H 5403.78 2.5945 -4.84732 0
M  V30 57924 H 5405.01 3.27034 -5.95169 0
M  V30 57925 H 5402.95 4.87804 -4.38615 0
M  V30 57926 H 5402.87 4.49929 -6.07536 0
M  V30 57927 H 5404.14 5.53415 -5.48955 0
M  V30 57928 N 5408.37 1.51136 0.446714 0
M  V30 57929 C 5409.78 1.39104 0.782455 0
M  V30 57930 C 5409.98 0.466059 1.96036 0
M  V30 57931 O 5409.04 -0.0822792 2.52366 0
M  V30 57932 C 5410.35 2.80957 1.07163 0
M  V30 57933 C 5411.9 2.90042 1.17663 0
M  V30 57934 C 5412.38 4.32782 1.49879 0
M  V30 57935 N 5413.87 4.35845 1.56822 0
M  V30 57936 C 5414.6 5.43312 1.83302 0
M  V30 57937 N 5414.1 6.60952 2.07639 0
M  V30 57938 N 5415.89 5.30781 1.85007 0
M  V30 57939 H 5408.04 2.09834 -0.329188 0
M  V30 57940 H 5410.3 0.944196 -0.0848386 0
M  V30 57941 H 5410.01 3.50592 0.278914 0
M  V30 57942 H 5409.88 3.19707 2.00168 0
M  V30 57943 H 5412.27 2.2061 1.95998 0
M  V30 57944 H 5412.35 2.54801 0.225802 0
M  V30 57945 H 5412 5.0276 0.720747 0
M  V30 57946 H 5411.93 4.65529 2.46152 0
M  V30 57947 H 5414.42 3.51028 1.39956 0
M  V30 57948 H 5414.73 7.38651 2.27188 0
M  V30 57949 H 5413.08 6.64084 2.0498 0
M  V30 57950 H 5416.27 4.37864 1.65507 0
M  V30 57951 H 5416.44 6.14616 2.05307 0
M  V30 57952 N 5409.85 -0.701542 1.41125 0
M  V30 57953 C 5411.09 -1.46371 1.40368 0
M  V30 57954 C 5411.43 -1.94197 0.0106125 0
M  V30 57955 O 5410.7 -1.69125 -0.960578 0
M  V30 57956 C 5410.98 -2.67985 2.40533 0
M  V30 57957 C 5410.84 -2.25964 3.88922 0
M  V30 57958 C 5412.16 -3.70172 2.38035 0
M  V30 57959 H 5409.27 -0.530911 0.511178 0
M  V30 57960 H 5411.92 -0.799528 1.72359 0
M  V30 57961 H 5410.07 -3.24654 2.13383 0
M  V30 57962 H 5411.74 -1.74669 4.26953 0
M  V30 57963 H 5409.98 -1.57811 4.04077 0
M  V30 57964 H 5410.65 -3.13199 4.54544 0
M  V30 57965 H 5413.13 -3.23164 2.62114 0
M  V30 57966 H 5412 -4.52883 3.10143 0
M  V30 57967 H 5412.27 -4.19453 1.39684 0
M  V30 57968 N 5411.32 -1.26854 -0.935197 0
M  V30 57969 C 5412.6 -1.03489 -1.6598 0
M  V30 57970 C 5412.98 0.432786 -2.06616 0
M  V30 57971 O 5412.33 1.41443 -1.7946 0
M  V30 57972 C 5412.54 -1.98934 -2.86751 0
M  V30 57973 C 5413.89 -2.27883 -3.58266 0
M  V30 57974 O 5414.91 -1.96848 -2.96866 0
M  V30 57975 O 5413.77 -2.80751 -4.68872 0
M  V30 57976 H 5410.86 -0.393958 -0.727136 0
M  V30 57977 H 5413.41 -1.38088 -0.986397 0
M  V30 57978 H 5412.18 -2.97949 -2.53658 0
M  V30 57979 H 5411.81 -1.64851 -3.61815 0
M  V30 57980 N 5412.8 1.14063 -1.08754 0
M  V30 57981 C 5414.21 1.66744 -0.839837 0
M  V30 57982 C 5414.56 1.85714 0.632844 0
M  V30 57983 O 5413.69 1.57089 1.48835 0
M  V30 57984 C 5414.28 3.02891 -1.51798 0
M  V30 57985 C 5412.84 3.52592 -1.31742 0
M  V30 57986 C 5411.99 2.27989 -1.57849 0
M  V30 57987 H 5414.94 0.980794 -1.24764 0
M  V30 57988 H 5414.96 3.68522 -0.947186 0
M  V30 57989 H 5414.47 2.89053 -2.58979 0
M  V30 57990 H 5412.58 3.71646 -0.26647 0
M  V30 57991 H 5412.69 4.33144 -2.04751 0
M  V30 57992 H 5411.05 2.34238 -1.00023 0
M  V30 57993 H 5411.84 2.16723 -2.66244 0
M  V30 57994 N 5414.28 0.873724 1.31163 0
M  V30 57995 C 5415.21 0.348092 2.30891 0
M  V30 57996 C 5416.19 -0.563036 1.60511 0
M  V30 57997 O 5417.38 -0.479266 1.88193 0
M  V30 57998 C 5414.51 -0.448037 3.44398 0
M  V30 57999 C 5413.46 0.370329 4.26395 0
M  V30 58000 C 5412.79 -0.551716 5.31846 0
M  V30 58001 C 5414.09 1.60642 4.96982 0
M  V30 58002 H 5415.78 1.18144 2.75104 0
M  V30 58003 H 5413.33 0.569549 1.32258 0
M  V30 58004 H 5415.28 -0.826312 4.13219 0
M  V30 58005 H 5414 -1.31492 2.9896 0
M  V30 58006 H 5412.66 0.730599 3.59246 0
M  V30 58007 H 5412.31 -1.41599 4.82658 0
M  V30 58008 H 5412.01 -0.00802821 5.87599 0
M  V30 58009 H 5413.53 -0.926753 6.03526 0
M  V30 58010 H 5414.95 1.29937 5.58381 0
M  V30 58011 H 5413.35 2.08946 5.62549 0
M  V30 58012 H 5414.42 2.35715 4.23753 0
M  V30 58013 N 5415.76 -1.44305 0.633538 0
M  V30 58014 C 5416.71 -2.27815 -0.0918818 0
M  V30 58015 C 5417.69 -1.388 -0.813833 0
M  V30 58016 O 5418.88 -1.6259 -0.699544 0
M  V30 58017 C 5416.01 -3.26162 -1.07114 0
M  V30 58018 C 5415.1 -4.22664 -0.348682 0
M  V30 58019 N 5415.49 -5.01936 0.62403 0
M  V30 58020 C 5413.79 -4.42043 -0.592803 0
M  V30 58021 C 5414.49 -5.72125 1.05109 0
M  V30 58022 N 5413.47 -5.42204 0.389373 0
M  V30 58023 H 5417.27 -2.86512 0.654822 0
M  V30 58024 H 5414.78 -1.55772 0.459233 0
M  V30 58025 H 5416.78 -3.84748 -1.60546 0
M  V30 58026 H 5415.44 -2.69025 -1.81812 0
M  V30 58027 H 5416.45 -5.08116 1.00194 0
M  V30 58028 H 5413.13 -3.96001 -1.32247 0
M  V30 58029 H 5414.52 -6.45791 1.85483 0
M  V30 58030 N 5417.24 -0.374231 -1.53092 0
M  V30 58031 C 5418.17 0.502986 -2.23613 0
M  V30 58032 C 5419.18 1.03911 -1.25325 0
M  V30 58033 O 5420.37 0.94401 -1.51495 0
M  V30 58034 C 5417.47 1.70814 -2.92704 0
M  V30 58035 C 5416.64 1.30202 -4.17572 0
M  V30 58036 C 5415.7 2.37019 -4.69796 0
M  V30 58037 O 5414.73 1.99051 -5.33261 0
M  V30 58038 N 5415.93 3.68727 -4.48353 0
M  V30 58039 H 5418.7 -0.101119 -2.99529 0
M  V30 58040 H 5416.26 -0.199834 -1.60662 0
M  V30 58041 H 5418.25 2.41767 -3.24547 0
M  V30 58042 H 5416.82 2.21892 -2.20188 0
M  V30 58043 H 5416.04 0.421984 -3.91935 0
M  V30 58044 H 5417.33 1.00711 -4.98733 0
M  V30 58045 H 5416.72 4.02346 -3.97661 0
M  V30 58046 H 5415.28 4.35759 -4.84724 0
M  V30 58047 N 5418.71 1.57259 -0.10363 0
M  V30 58048 C 5419.64 2.17512 0.849153 0
M  V30 58049 C 5420.63 1.11083 1.2882 0
M  V30 58050 O 5421.81 1.39256 1.35356 0
M  V30 58051 C 5418.94 2.76228 2.10512 0
M  V30 58052 C 5417.89 3.88105 1.8044 0
M  V30 58053 C 5417.22 4.3356 3.12937 0
M  V30 58054 C 5418.52 5.10913 1.08469 0
M  V30 58055 H 5420.21 2.97381 0.347112 0
M  V30 58056 H 5417.76 1.43046 0.165517 0
M  V30 58057 H 5419.71 3.17034 2.7761 0
M  V30 58058 H 5418.44 1.93626 2.63014 0
M  V30 58059 H 5417.1 3.47851 1.15737 0
M  V30 58060 H 5416.74 3.47837 3.63343 0
M  V30 58061 H 5416.44 5.08994 2.93596 0
M  V30 58062 H 5417.97 4.77006 3.8118 0
M  V30 58063 H 5419.38 5.48834 1.65692 0
M  V30 58064 H 5417.78 5.91831 0.992765 0
M  V30 58065 H 5418.85 4.84851 0.0688404 0
M  V30 58066 N 5420.19 -0.170098 1.56679 0
M  V30 58067 C 5421.44 -0.884839 1.81255 0
M  V30 58068 C 5421.75 -1.83359 0.681089 0
M  V30 58069 O 5422.96 -2.59079 0.811813 0
M  V30 58070 C 5421.42 -1.62397 3.21178 0
M  V30 58071 C 5421.02 -0.718791 4.42196 0
M  V30 58072 C 5422.77 -2.32686 3.55046 0
M  V30 58073 C 5420.68 -1.45822 5.7314 0
M  V30 58074 H 5419.61 -0.334156 0.675911 0
M  V30 58075 H 5422.26 -0.137754 1.82982 0
M  V30 58076 H 5420.64 -2.41585 3.13772 0
M  V30 58077 H 5421.81 0.0362141 4.60786 0
M  V30 58078 H 5420.13 -0.125488 4.16211 0
M  V30 58079 H 5422.72 -2.88605 4.50124 0
M  V30 58080 H 5423.07 -3.08082 2.79984 0
M  V30 58081 H 5423.6 -1.6044 3.64011 0
M  V30 58082 H 5420.34 -0.74657 6.51235 0
M  V30 58083 H 5419.86 -2.18652 5.58526 0
M  V30 58084 H 5421.54 -2.00538 6.15137 0
M  V30 58085 N 5421.67 -1.51371 -0.438693 0
M  V30 58086 C 5422.6 -1.75534 -1.53981 0
M  V30 58087 C 5423.58 -0.605123 -1.58973 0
M  V30 58088 O 5424.77 -0.847695 -1.74722 0
M  V30 58089 C 5421.9 -1.87914 -2.92071 0
M  V30 58090 C 5420.85 -3.03341 -3.01941 0
M  V30 58091 C 5420.18 -3.00904 -4.41997 0
M  V30 58092 C 5421.48 -4.43328 -2.76147 0
M  V30 58093 H 5423.17 -2.67733 -1.34013 0
M  V30 58094 H 5420.72 -1.28834 -0.643262 0
M  V30 58095 H 5422.67 -2.03401 -3.69061 0
M  V30 58096 H 5421.39 -0.923624 -3.13268 0
M  V30 58097 H 5420.05 -2.87557 -2.2739 0
M  V30 58098 H 5419.7 -2.03132 -4.60159 0
M  V30 58099 H 5419.4 -3.78413 -4.4953 0
M  V30 58100 H 5420.92 -3.18482 -5.20962 0
M  V30 58101 H 5422.34 -4.5947 -3.42871 0
M  V30 58102 H 5420.74 -5.22533 -2.95092 0
M  V30 58103 H 5421.81 -4.53459 -1.71763 0
M  V30 58104 N 5423.15 0.694048 -1.41495 0
M  V30 58105 C 5424.08 1.82037 -1.46236 0
M  V30 58106 C 5425.06 1.67046 -0.320861 0
M  V30 58107 O 5426.24 1.86756 -0.532516 0
M  V30 58108 C 5423.37 3.20186 -1.34531 0
M  V30 58109 C 5422.33 3.49883 -2.46507 0
M  V30 58110 C 5421.65 4.87404 -2.19868 0
M  V30 58111 C 5422.95 3.48706 -3.88846 0
M  V30 58112 H 5424.65 1.78326 -2.405 0
M  V30 58113 H 5422.19 0.856525 -1.15757 0
M  V30 58114 H 5424.15 3.98694 -1.36459 0
M  V30 58115 H 5422.87 3.24526 -0.36752 0
M  V30 58116 H 5421.53 2.73726 -2.43864 0
M  V30 58117 H 5421.18 4.88371 -1.20428 0
M  V30 58118 H 5420.88 5.08238 -2.94903 0
M  V30 58119 H 5422.4 5.6822 -2.23514 0
M  V30 58120 H 5423.82 4.17216 -3.93197 0
M  V30 58121 H 5422.21 3.81073 -4.63577 0
M  V30 58122 H 5423.28 2.47651 -4.1689 0
M  V30 58123 N 5424.63 1.27348 0.928456 0
M  V30 58124 C 5425.87 1.13641 1.67606 0
M  V30 58125 C 5426.2 -0.317889 1.91885 0
M  V30 58126 O 5425.46 -1.24898 1.50661 0
M  V30 58127 C 5425.76 1.8645 3.04912 0
M  V30 58128 C 5425.42 3.36308 3.00346 0
M  V30 58129 C 5424.08 3.77183 2.98808 0
M  V30 58130 C 5426.44 4.31931 2.91693 0
M  V30 58131 C 5423.76 5.12047 2.86399 0
M  V30 58132 C 5426.12 5.66851 2.80826 0
M  V30 58133 C 5424.78 6.0702 2.77637 0
M  V30 58134 H 5424.05 0.415843 0.613315 0
M  V30 58135 H 5426.7 1.57947 1.08283 0
M  V30 58136 H 5425 1.34651 3.67935 0
M  V30 58137 H 5426.7 1.73274 3.61631 0
M  V30 58138 H 5423.29 3.038 3.0233 0
M  V30 58139 H 5427.47 4.01324 2.9198 0
M  V30 58140 H 5422.73 5.42317 2.82317 0
M  V30 58141 H 5426.9 6.40618 2.73096 0
M  V30 58142 H 5424.53 7.11476 2.67779 0
M  V30 58143 N 5426.11 -1.13484 1.09357 0
M  V30 58144 C 5427.33 -1.8913 0.851147 0
M  V30 58145 C 5427.76 -1.78544 -0.591913 0
M  V30 58146 O 5427.11 -1.13248 -1.41579 0
M  V30 58147 C 5427.16 -3.36732 1.29013 0
M  V30 58148 O 5426.27 -4.09958 0.448137 0
M  V30 58149 H 5425.61 -0.588079 0.308317 0
M  V30 58150 H 5428.14 -1.43587 1.45753 0
M  V30 58151 H 5428.15 -3.87559 1.27522 0
M  V30 58152 H 5426.82 -3.43754 2.34107 0
M  V30 58153 H 5425.4 -3.69153 0.5273 0
M  V30 58154 N 5427.58 -0.880667 -1.30698 0
M  V30 58155 C 5429 -0.574067 -1.48918 0
M  V30 58156 C 5429.2 0.889249 -1.80817 0
M  V30 58157 O 5428.26 1.67075 -1.8932 0
M  V30 58158 C 5429.57 -1.4835 -2.61558 0
M  V30 58159 C 5431.12 -1.48668 -2.7544 0
M  V30 58160 C 5431.59 -2.38194 -3.91188 0
M  V30 58161 N 5433.08 -2.36133 -3.98491 0
M  V30 58162 C 5433.82 -3.02119 -4.87352 0
M  V30 58163 N 5433.31 -3.77313 -5.81039 0
M  V30 58164 N 5435.11 -2.91373 -4.80685 0
M  V30 58165 H 5427.26 -1.82736 -1.08265 0
M  V30 58166 H 5429.52 -0.781958 -0.535953 0
M  V30 58167 H 5429.23 -2.52524 -2.44795 0
M  V30 58168 H 5429.1 -1.1899 -3.5794 0
M  V30 58169 H 5431.49 -0.452476 -2.9161 0
M  V30 58170 H 5431.57 -1.82057 -1.79691 0
M  V30 58171 H 5431.21 -3.41696 -3.75774 0
M  V30 58172 H 5431.14 -2.02123 -4.86265 0
M  V30 58173 H 5433.63 -1.81486 -3.31469 0
M  V30 58174 H 5433.95 -4.24764 -6.45597 0
M  V30 58175 H 5432.29 -3.81421 -5.80984 0
M  V30 58176 H 5435.48 -2.32158 -4.06473 0
M  V30 58177 H 5435.66 -3.43075 -5.4973 0
M  V30 58178 N 5429.06 1.43967 -0.641182 0
M  V30 58179 C 5430.29 2.06303 -0.157079 0
M  V30 58180 C 5430.7 1.47985 1.17243 0
M  V30 58181 O 5430.06 0.606531 1.72126 0
M  V30 58182 C 5430.11 3.61469 -0.0469695 0
M  V30 58183 O 5429.83 4.17617 -1.32391 0
M  V30 58184 C 5431.33 4.40858 0.46464 0
M  V30 58185 H 5428.55 0.665681 -0.084318 0
M  V30 58186 H 5431.1 1.84672 -0.878428 0
M  V30 58187 H 5429.25 3.82327 0.624872 0
M  V30 58188 H 5429.67 5.11163 -1.17527 0
M  V30 58189 H 5431.14 5.49815 0.490668 0
M  V30 58190 H 5431.62 4.13021 1.49365 0
M  V30 58191 H 5432.22 4.24943 -0.174296 0
M  V30 58192 N 5430.54 0.382345 1.52892 0
M  V30 58193 C 5431.5 -0.444001 2.24858 0
M  V30 58194 C 5432.5 -0.99596 1.26243 0
M  V30 58195 O 5433.69 -0.879061 1.50393 0
M  V30 58196 C 5430.82 -1.62223 2.99827 0
M  V30 58197 H 5432.02 0.185968 2.99323 0
M  V30 58198 H 5429.57 0.13433 1.55722 0
M  V30 58199 H 5430.31 -2.28982 2.29646 0
M  V30 58200 H 5430.09 -1.23323 3.72201 0
M  V30 58201 H 5431.58 -2.20743 3.54489 0
M  V30 58202 N 5432.02 -1.57202 0.111969 0
M  V30 58203 C 5432.95 -2.1796 -0.837606 0
M  V30 58204 C 5433.93 -1.11765 -1.28229 0
M  V30 58205 O 5435.11 -1.39972 -1.34616 0
M  V30 58206 C 5432.24 -2.77341 -2.09044 0
M  V30 58207 C 5431.2 -3.89056 -1.78379 0
M  V30 58208 C 5430.52 -4.35214 -3.10633 0
M  V30 58209 C 5431.82 -5.11481 -1.05758 0
M  V30 58210 H 5433.52 -2.97561 -0.331337 0
M  V30 58211 H 5431.06 -1.43131 -0.157929 0
M  V30 58212 H 5433.02 -3.18502 -2.75925 0
M  V30 58213 H 5431.74 -1.95018 -2.61984 0
M  V30 58214 H 5430.4 -3.4846 -1.1389 0
M  V30 58215 H 5430.05 -3.49759 -3.61493 0
M  V30 58216 H 5429.75 -5.10544 -2.90892 0
M  V30 58217 H 5431.27 -4.79021 -3.78644 0
M  V30 58218 H 5432.69 -5.49705 -1.62779 0
M  V30 58219 H 5431.08 -5.92349 -0.961365 0
M  V30 58220 H 5432.15 -4.84881 -0.0431266 0
M  V30 58221 N 5433.5 0.161787 -1.56767 0
M  V30 58222 C 5434.72 0.892181 -1.86675 0
M  V30 58223 C 5435.14 1.75405 -0.698472 0
M  V30 58224 O 5434.5 1.79451 0.332188 0
M  V30 58225 C 5434.55 1.76109 -3.15702 0
M  V30 58226 O 5434.27 0.93398 -4.28029 0
M  V30 58227 C 5435.77 2.60034 -3.59023 0
M  V30 58228 H 5432.99 0.258725 -0.619114 0
M  V30 58229 H 5435.53 0.159017 -2.03881 0
M  V30 58230 H 5433.69 2.44749 -3.00295 0
M  V30 58231 H 5434.1 1.52913 -5.01715 0
M  V30 58232 H 5435.58 3.16602 -4.52181 0
M  V30 58233 H 5436.05 3.35364 -2.83598 0
M  V30 58234 H 5436.66 1.96711 -3.77074 0
M  V30 58235 N 5434.97 1.51602 0.430659 0
M  V30 58236 C 5435.88 1.76253 1.54829 0
M  V30 58237 C 5436.9 0.647041 1.61522 0
M  V30 58238 O 5438.08 0.93005 1.78639 0
M  V30 58239 C 5435.14 1.88843 2.90756 0
M  V30 58240 C 5434.2 3.12711 2.94126 0
M  V30 58241 C 5433.43 3.24691 4.2357 0
M  V30 58242 O 5433.66 2.42447 5.16309 0
M  V30 58243 O 5432.59 4.17712 4.33359 0
M  V30 58244 H 5436.42 2.71074 1.3694 0
M  V30 58245 H 5434 1.36184 0.614348 0
M  V30 58246 H 5435.88 1.99071 3.71415 0
M  V30 58247 H 5434.56 0.972095 3.08759 0
M  V30 58248 H 5433.47 3.07957 2.12399 0
M  V30 58249 H 5434.8 4.04055 2.8107 0
M  V30 58250 N 5436.45 -0.686534 1.41861 0
M  V30 58251 C 5437.4 -1.80033 1.44419 0
M  V30 58252 C 5438.37 -1.63414 0.297485 0
M  V30 58253 O 5439.55 -1.84136 0.499854 0
M  V30 58254 C 5436.69 -3.17983 1.34093 0
M  V30 58255 C 5435.81 -3.4597 2.58706 0
M  V30 58256 C 5434.94 -4.73584 2.40607 0
M  V30 58257 C 5433.98 -4.94568 3.60651 0
M  V30 58258 N 5433.12 -6.13414 3.41567 0
M  V30 58259 H 5437.96 -1.7718 2.39606 0
M  V30 58260 H 5435.49 -0.865116 1.18971 0
M  V30 58261 H 5437.45 -3.97685 1.26106 0
M  V30 58262 H 5436.08 -3.19989 0.425088 0
M  V30 58263 H 5435.13 -2.60608 2.77106 0
M  V30 58264 H 5436.45 -3.57374 3.47973 0
M  V30 58265 H 5435.6 -5.61356 2.30139 0
M  V30 58266 H 5434.34 -4.64442 1.4881 0
M  V30 58267 H 5433.34 -4.05241 3.71564 0
M  V30 58268 H 5434.57 -5.05562 4.53413 0
M  V30 58269 H 5432.52 -6.05468 2.52477 0
M  V30 58270 H 5432.43 -6.25626 4.24415 0
M  V30 58271 H 5433.7 -7.03896 3.34888 0
M  V30 58272 N 5437.93 -1.27838 -0.92169 0
M  V30 58273 C 5439.17 -1.15772 -1.68453 0
M  V30 58274 C 5439.53 0.290475 -1.8979 0
M  V30 58275 O 5440.73 0.533687 -2.63449 0
M  V30 58276 C 5439.01 -1.92602 -3.01064 0
M  V30 58277 S 5440.56 -1.96818 -3.92184 0
M  V30 58278 H 5437.38 -0.41319 -0.578615 0
M  V30 58279 H 5439.98 -1.6183 -1.09688 0
M  V30 58280 H 5438.69 -2.97 -2.83229 0
M  V30 58281 H 5438.22 -1.47062 -3.64879 0
M  V30 58282 H 5440.23 -1.06894 -4.84549 0
M  V30 58283 N 5439.41 1.12903 -1.09958 0
M  V30 58284 C 5440.36 2.18482 -0.743925 0
M  V30 58285 C 5441.33 1.63767 0.277436 0
M  V30 58286 O 5442.51 1.90146 0.157832 0
M  V30 58287 C 5439.65 3.44648 -0.176559 0
M  V30 58288 C 5438.76 4.13441 -1.25262 0
M  V30 58289 C 5437.9 5.2724 -0.647427 0
M  V30 58290 C 5436.94 5.87891 -1.70442 0
M  V30 58291 N 5436.07 6.93112 -1.11985 0
M  V30 58292 H 5440.91 2.48251 -1.64849 0
M  V30 58293 H 5438.45 1.21888 -0.823514 0
M  V30 58294 H 5440.41 4.16853 0.170237 0
M  V30 58295 H 5439.04 3.15312 0.691259 0
M  V30 58296 H 5438.09 3.39465 -1.71662 0
M  V30 58297 H 5439.4 4.54594 -2.05295 0
M  V30 58298 H 5438.56 6.06186 -0.249792 0
M  V30 58299 H 5437.3 4.87351 0.184385 0
M  V30 58300 H 5436.3 5.07636 -2.11153 0
M  V30 58301 H 5437.53 6.29851 -2.53899 0
M  V30 58302 H 5435.47 6.5527 -0.309412 0
M  V30 58303 H 5435.39 7.32836 -1.85707 0
M  V30 58304 H 5436.66 7.75897 -0.748598 0
M  V30 58305 N 5440.89 0.887586 1.30229 0
M  V30 58306 C 5441.82 0.372562 2.30509 0
M  V30 58307 C 5442.8 -0.54598 1.611 0
M  V30 58308 O 5443.98 -0.459279 1.88691 0
M  V30 58309 C 5441.11 -0.411484 3.44854 0
M  V30 58310 C 5440.07 0.415533 4.25978 0
M  V30 58311 C 5439.39 -0.495275 5.32401 0
M  V30 58312 C 5440.69 1.65904 4.95251 0
M  V30 58313 H 5442.39 1.21055 2.73836 0
M  V30 58314 H 5439.93 0.583544 1.31646 0
M  V30 58315 H 5441.89 -0.782438 4.14072 0
M  V30 58316 H 5440.61 -1.28314 3.00338 0
M  V30 58317 H 5439.27 0.76866 3.58451 0
M  V30 58318 H 5438.92 -1.36472 4.84133 0
M  V30 58319 H 5438.62 0.054295 5.87575 0
M  V30 58320 H 5440.14 -0.862689 6.04475 0
M  V30 58321 H 5441.55 1.35852 5.56971 0
M  V30 58322 H 5439.95 2.149 5.60302 0
M  V30 58323 H 5441.02 2.40196 4.21229 0
M  V30 58324 N 5442.36 -1.43625 0.648807 0
M  V30 58325 C 5443.27 -2.34554 -0.0462212 0
M  V30 58326 C 5444.29 -1.53632 -0.816898 0
M  V30 58327 O 5445.47 -1.86299 -0.765147 0
M  V30 58328 C 5442.53 -3.31854 -1.00369 0
M  V30 58329 C 5441.59 -4.28681 -0.230438 0
M  V30 58330 C 5440.83 -5.21332 -1.1423 0
M  V30 58331 O 5441.05 -5.18307 -2.38148 0
M  V30 58332 O 5439.98 -5.98728 -0.617086 0
M  V30 58333 H 5443.81 -2.95473 0.702112 0
M  V30 58334 H 5441.39 -1.43693 0.408992 0
M  V30 58335 H 5443.28 -3.91697 -1.55407 0
M  V30 58336 H 5441.95 -2.73445 -1.73233 0
M  V30 58337 H 5440.86 -3.72331 0.363413 0
M  V30 58338 H 5442.19 -4.90059 0.45854 0
M  V30 58339 N 5443.84 -0.390448 -1.52687 0
M  V30 58340 C 5444.75 0.451462 -2.30215 0
M  V30 58341 C 5445.77 1.07046 -1.37176 0
M  V30 58342 O 5446.94 1.07603 -1.70246 0
M  V30 58343 C 5444.01 1.56288 -3.09475 0
M  V30 58344 C 5443.07 0.96887 -4.18224 0
M  V30 58345 C 5442.3 2.02732 -4.93696 0
M  V30 58346 O 5442.53 3.24256 -4.6927 0
M  V30 58347 O 5441.46 1.64398 -5.79014 0
M  V30 58348 H 5445.29 -0.180149 -3.03165 0
M  V30 58349 H 5442.87 -0.154135 -1.48603 0
M  V30 58350 H 5444.75 2.20852 -3.58891 0
M  V30 58351 H 5443.43 2.17943 -2.39337 0
M  V30 58352 H 5442.34 0.286456 -3.73002 0
M  V30 58353 H 5443.67 0.396515 -4.906 0
M  V30 58354 N 5445.32 1.5714 -0.120304 0
M  V30 58355 C 5446.6 1.86772 0.581009 0
M  V30 58356 C 5446.98 1.0217 1.84728 0
M  V30 58357 O 5446.33 0.100977 2.28277 0
M  V30 58358 C 5446.54 3.37926 0.872198 0
M  V30 58359 C 5447.88 4.06554 1.22469 0
M  V30 58360 O 5448.91 3.42952 0.962418 0
M  V30 58361 O 5447.77 5.18827 1.71698 0
M  V30 58362 H 5444.86 0.773229 0.293335 0
M  V30 58363 H 5447.41 1.68992 -0.154906 0
M  V30 58364 H 5446.18 3.91292 -0.0250792 0
M  V30 58365 H 5445.8 3.61141 1.66323 0
M  V30 58366 N 5446.8 -0.153471 1.56851 0
M  V30 58367 C 5448.05 -0.867168 1.82993 0
M  V30 58368 C 5448.37 -1.8146 0.700189 0
M  V30 58369 O 5447.63 -1.93209 -0.31128 0
M  V30 58370 C 5447.93 -1.68055 3.15424 0
M  V30 58371 C 5447.59 -0.88048 4.4222 0
M  V30 58372 C 5446.26 -0.659731 4.76656 0
M  V30 58373 C 5448.61 -0.320515 5.20214 0
M  V30 58374 C 5445.94 0.131794 5.86552 0
M  V30 58375 C 5448.29 0.458016 6.3094 0
M  V30 58376 C 5446.95 0.689401 6.6393 0
M  V30 58377 H 5446.22 -0.317319 0.669619 0
M  V30 58378 H 5448.87 -0.131141 1.9105 0
M  V30 58379 H 5447.17 -2.48649 3.02788 0
M  V30 58380 H 5448.87 -2.23612 3.32864 0
M  V30 58381 H 5445.46 -1.06259 4.15219 0
M  V30 58382 H 5449.64 -0.478357 4.93989 0
M  V30 58383 H 5444.9 0.320627 6.10559 0
M  V30 58384 H 5449.07 0.899082 6.90572 0
M  V30 58385 H 5446.7 1.30459 7.48922 0
M  V30 58386 N 5448.28 -1.51828 -0.422613 0
M  V30 58387 C 5449.21 -1.77157 -1.52111 0
M  V30 58388 C 5450.19 -0.62195 -1.58322 0
M  V30 58389 O 5451.37 -0.866179 -1.73813 0
M  V30 58390 C 5448.5 -1.91002 -2.90061 0
M  V30 58391 C 5447.46 -3.06526 -2.98706 0
M  V30 58392 C 5446.78 -3.05575 -4.3878 0
M  V30 58393 C 5448.08 -4.46232 -2.7143 0
M  V30 58394 H 5449.78 -2.69139 -1.31166 0
M  V30 58395 H 5447.32 -1.29509 -0.629562 0
M  V30 58396 H 5449.28 -2.07304 -3.66883 0
M  V30 58397 H 5448 -0.956798 -3.12271 0
M  V30 58398 H 5446.66 -2.89953 -2.24328 0
M  V30 58399 H 5446.31 -2.08001 -4.57979 0
M  V30 58400 H 5446.01 -3.83159 -4.45492 0
M  V30 58401 H 5447.53 -3.2399 -5.17555 0
M  V30 58402 H 5448.94 -4.63081 -3.37978 0
M  V30 58403 H 5447.34 -5.25633 -2.89533 0
M  V30 58404 H 5448.41 -4.55256 -1.66944 0
M  V30 58405 N 5449.75 0.679002 -1.42223 0
M  V30 58406 C 5450.98 1.46529 -1.45646 0
M  V30 58407 C 5451.39 1.89088 -0.0650238 0
M  V30 58408 O 5450.74 1.5844 0.929656 0
M  V30 58409 C 5450.8 2.74874 -2.31699 0
M  V30 58410 C 5450.46 2.54417 -3.79633 0
M  V30 58411 C 5451.46 2.1929 -4.71389 0
M  V30 58412 C 5449.14 2.69542 -4.23854 0
M  V30 58413 C 5451.14 1.9955 -6.05358 0
M  V30 58414 C 5448.82 2.49418 -5.57884 0
M  V30 58415 C 5449.82 2.14474 -6.48452 0
M  V30 58416 O 5449.51 1.9454 -7.80006 0
M  V30 58417 H 5449.24 0.457524 -0.497642 0
M  V30 58418 H 5451.8 0.84208 -1.87345 0
M  V30 58419 H 5450.03 3.39662 -1.84842 0
M  V30 58420 H 5451.72 3.36742 -2.26627 0
M  V30 58421 H 5452.48 2.07204 -4.3851 0
M  V30 58422 H 5448.36 2.95721 -3.53653 0
M  V30 58423 H 5451.9 1.72198 -6.76013 0
M  V30 58424 H 5447.8 2.61099 -5.90337 0
M  V30 58425 H 5448.57 2.09172 -7.91321 0
M  V30 58426 N 5451.23 1.28325 0.914897 0
M  V30 58427 C 5452.17 1.06476 2.01837 0
M  V30 58428 C 5453.14 -0.018811 1.62589 0
M  V30 58429 O 5454.33 0.128892 1.88059 0
M  V30 58430 C 5451.45 0.617802 3.33018 0
M  V30 58431 C 5450.5 1.69784 3.91249 0
M  V30 58432 S 5451.33 3.29351 4.22241 0
M  V30 58433 C 5452.49 2.86488 5.56485 0
M  V30 58434 H 5452.72 1.99901 2.20061 0
M  V30 58435 H 5450.26 1.12301 1.05962 0
M  V30 58436 H 5452.21 0.366625 4.0886 0
M  V30 58437 H 5450.87 -0.296599 3.12696 0
M  V30 58438 H 5450.07 1.3367 4.85951 0
M  V30 58439 H 5449.67 1.90175 3.22039 0
M  V30 58440 H 5451.96 2.32587 6.36325 0
M  V30 58441 H 5452.9 3.79983 5.9751 0
M  V30 58442 H 5453.31 2.25238 5.17618 0
M  V30 58443 N 5452.71 -1.12318 1.10555 0
M  V30 58444 C 5453.67 -2.16271 0.75892 0
M  V30 58445 C 5454.67 -1.59326 -0.217238 0
M  V30 58446 O 5455.86 -1.74199 0.0060747 0
M  V30 58447 C 5453 -3.40673 0.124357 0
M  V30 58448 H 5454.19 -2.48448 1.67969 0
M  V30 58449 H 5451.74 -1.27346 0.906233 0
M  V30 58450 H 5452.48 -3.14097 -0.807084 0
M  V30 58451 H 5452.26 -3.83281 0.826907 0
M  V30 58452 H 5453.75 -4.17475 -0.102355 0
M  V30 58453 N 5454.19 -0.89448 -1.29757 0
M  V30 58454 C 5455.42 -0.532214 -1.99627 0
M  V30 58455 C 5455.83 0.886175 -1.67163 0
M  V30 58456 O 5455.17 1.5957 -0.910121 0
M  V30 58457 C 5455.23 -0.638459 -3.53785 0
M  V30 58458 C 5454.9 -2.02288 -4.09791 0
M  V30 58459 C 5455.89 -2.99342 -4.25077 0
M  V30 58460 C 5453.58 -2.33084 -4.44946 0
M  V30 58461 C 5455.57 -4.25321 -4.74743 0
M  V30 58462 C 5453.26 -3.59307 -4.94309 0
M  V30 58463 C 5454.26 -4.5524 -5.09162 0
M  V30 58464 O 5453.95 -5.79221 -5.57457 0
M  V30 58465 H 5453.68 -0.203349 -0.64469 0
M  V30 58466 H 5456.23 -1.20436 -1.66386 0
M  V30 58467 H 5454.46 0.0906978 -3.86594 0
M  V30 58468 H 5456.15 -0.286099 -4.0489 0
M  V30 58469 H 5456.92 -2.76863 -3.98211 0
M  V30 58470 H 5452.8 -1.59177 -4.32647 0
M  V30 58471 H 5456.34 -5.00206 -4.86251 0
M  V30 58472 H 5452.24 -3.81618 -5.20613 0
M  V30 58473 H 5453 -5.81737 -5.75781 0
M  V30 58474 N 5455.67 1.43279 -0.656415 0
M  V30 58475 C 5456.63 2.29188 0.0238367 0
M  V30 58476 C 5457.63 1.42375 0.747386 0
M  V30 58477 O 5458.82 1.63971 0.588155 0
M  V30 58478 C 5455.95 3.24505 1.04449 0
M  V30 58479 H 5457.15 2.90827 -0.73208 0
M  V30 58480 H 5454.7 1.50612 -0.417805 0
M  V30 58481 H 5455.43 2.67766 1.82953 0
M  V30 58482 H 5455.22 3.88511 0.529283 0
M  V30 58483 H 5456.71 3.88976 1.51945 0
M  V30 58484 N 5457.15 0.398539 1.52478 0
M  V30 58485 C 5458.42 -0.238708 1.94138 0
M  V30 58486 C 5458.8 -1.63553 1.33468 0
M  V30 58487 O 5458.15 -2.22819 0.506351 0
M  V30 58488 C 5458.36 -0.25574 3.48062 0
M  V30 58489 C 5459.71 -0.480228 4.21876 0
M  V30 58490 O 5460.73 -0.335554 3.54616 0
M  V30 58491 O 5459.59 -0.764464 5.41127 0
M  V30 58492 H 5456.69 -0.150777 0.813139 0
M  V30 58493 H 5459.23 0.453716 1.63522 0
M  V30 58494 H 5458 0.722306 3.84576 0
M  V30 58495 H 5457.63 -0.992705 3.85008 0
M  V30 58496 N 5458.62 -1.57074 0.128636 0
M  V30 58497 C 5459.87 -1.94697 -0.526884 0
M  V30 58498 C 5460.19 -1.01488 -1.67211 0
M  V30 58499 O 5461.39 -1.28615 -2.39104 0
M  V30 58500 C 5459.85 -3.46054 -0.988679 0
M  V30 58501 C 5459.46 -4.47815 0.128614 0
M  V30 58502 C 5461.2 -3.92577 -1.61503 0
M  V30 58503 C 5459.11 -5.90361 -0.350421 0
M  V30 58504 H 5458.04 -0.726826 -0.200598 0
M  V30 58505 H 5460.69 -1.82294 0.210036 0
M  V30 58506 H 5459.07 -3.53724 -1.78031 0
M  V30 58507 H 5460.24 -4.51823 0.905135 0
M  V30 58508 H 5458.56 -4.111 0.662219 0
M  V30 58509 H 5461.16 -4.965 -1.98474 0
M  V30 58510 H 5461.5 -3.33093 -2.49709 0
M  V30 58511 H 5462.03 -3.87748 -0.888632 0
M  V30 58512 H 5458.77 -6.53622 0.495821 0
M  V30 58513 H 5458.29 -5.89753 -1.09321 0
M  V30 58514 H 5459.97 -6.41929 -0.808491 0
M  V30 58515 N 5460.1 0.14515 -1.5693 0
M  V30 58516 C 5461.03 1.20875 -1.93558 0
M  V30 58517 C 5462.01 1.41464 -0.801661 0
M  V30 58518 O 5463.2 1.56046 -1.05744 0
M  V30 58519 C 5460.32 2.56732 -2.20921 0
M  V30 58520 C 5459.37 2.52726 -3.43557 0
M  V30 58521 S 5460.2 1.9924 -4.97055 0
M  V30 58522 C 5461.36 3.36823 -5.27542 0
M  V30 58523 H 5461.59 0.896262 -2.83469 0
M  V30 58524 H 5459.12 0.350841 -1.50361 0
M  V30 58525 H 5461.08 3.34914 -2.37366 0
M  V30 58526 H 5459.74 2.85169 -1.31671 0
M  V30 58527 H 5458.94 3.5274 -3.59987 0
M  V30 58528 H 5458.54 1.82654 -3.26364 0
M  V30 58529 H 5460.83 4.3294 -5.21123 0
M  V30 58530 H 5461.77 3.25246 -6.28984 0
M  V30 58531 H 5462.18 3.34044 -4.55055 0
M  V30 58532 N 5461.58 1.5205 0.414556 0
M  V30 58533 C 5462.54 1.74387 1.48734 0
M  V30 58534 C 5463.54 0.613754 1.48626 0
M  V30 58535 O 5464.73 0.881573 1.50246 0
M  V30 58536 C 5461.86 1.82126 2.88172 0
M  V30 58537 H 5463.06 2.70152 1.30223 0
M  V30 58538 H 5460.61 1.42384 0.644706 0
M  V30 58539 H 5461.35 0.882566 3.1206 0
M  V30 58540 H 5461.13 2.64279 2.89654 0
M  V30 58541 H 5462.62 2.01168 3.65952 0
M  V30 58542 N 5463.06 -0.67145 1.42581 0
M  V30 58543 C 5464 -1.78491 1.46321 0
M  V30 58544 C 5464.97 -1.6309 0.3148 0
M  V30 58545 O 5466.16 -1.83596 0.519356 0
M  V30 58546 C 5463.3 -3.16543 1.37458 0
M  V30 58547 C 5462.41 -3.43207 2.62361 0
M  V30 58548 C 5461.55 -4.71005 2.45616 0
M  V30 58549 C 5460.59 -4.90715 3.65876 0
M  V30 58550 N 5459.72 -6.09757 3.48054 0
M  V30 58551 H 5464.56 -1.74629 2.41472 0
M  V30 58552 H 5462.1 -0.852449 1.19882 0
M  V30 58553 H 5464.06 -3.96325 1.30317 0
M  V30 58554 H 5462.69 -3.1952 0.459003 0
M  V30 58555 H 5461.74 -2.57654 2.79855 0
M  V30 58556 H 5463.05 -3.53663 3.51744 0
M  V30 58557 H 5462.21 -5.58884 2.3608 0
M  V30 58558 H 5460.95 -4.62838 1.53728 0
M  V30 58559 H 5459.95 -4.01278 3.75841 0
M  V30 58560 H 5461.18 -5.00725 4.5875 0
M  V30 58561 H 5459.12 -6.02756 2.58885 0
M  V30 58562 H 5459.04 -6.21089 4.31027 0
M  V30 58563 H 5460.31 -7.00305 3.42335 0
M  V30 58564 N 5464.54 -1.28809 -0.908079 0
M  V30 58565 C 5465.76 -1.19277 -1.6967 0
M  V30 58566 C 5466.19 0.244338 -1.86506 0
M  V30 58567 O 5465.54 1.17663 -1.37931 0
M  V30 58568 C 5465.59 -1.90241 -3.06335 0
M  V30 58569 O 5464.7 -1.21374 -3.94135 0
M  V30 58570 H 5464.04 -0.413756 -0.519328 0
M  V30 58571 H 5466.57 -1.70231 -1.13502 0
M  V30 58572 H 5466.58 -1.98369 -3.5653 0
M  V30 58573 H 5465.25 -2.94772 -2.93398 0
M  V30 58574 H 5463.83 -1.21447 -3.52569 0
M  V30 58575 N 5466.01 1.1173 -1.11149 0
M  V30 58576 C 5467.25 1.85036 -0.868383 0
M  V30 58577 C 5467.62 1.8254 0.59523 0
M  V30 58578 O 5468.82 2.51264 0.954982 0
M  V30 58579 C 5467.09 3.28376 -1.41082 0
M  V30 58580 S 5468.65 4.18969 -1.30425 0
M  V30 58581 H 5465.47 0.638103 -0.313601 0
M  V30 58582 H 5468.07 1.34543 -1.41839 0
M  V30 58583 H 5466.77 3.27755 -2.46991 0
M  V30 58584 H 5466.3 3.83936 -0.857711 0
M  V30 58585 H 5468.32 4.95482 -0.26678 0
M  V30 58586 N 5467.49 0.901349 1.29281 0
M  V30 58587 C 5468.44 0.351642 2.25272 0
M  V30 58588 C 5469.43 -0.529222 1.51948 0
M  V30 58589 O 5470.62 -0.37097 1.73069 0
M  V30 58590 C 5467.75 -0.41831 3.40742 0
M  V30 58591 C 5466.83 0.477568 4.21403 0
M  V30 58592 N 5467.22 1.58554 4.80306 0
M  V30 58593 C 5465.52 0.275661 4.45147 0
M  V30 58594 C 5466.22 2.1406 5.40882 0
M  V30 58595 N 5465.2 1.43343 5.2436 0
M  V30 58596 H 5469 1.198 2.68375 0
M  V30 58597 H 5466.51 0.752588 1.43909 0
M  V30 58598 H 5468.51 -0.828878 4.08577 0
M  V30 58599 H 5467.17 -1.26191 2.99175 0
M  V30 58600 H 5468.18 1.96826 4.79041 0
M  V30 58601 H 5464.86 -0.529435 4.14129 0
M  V30 58602 H 5466.25 3.07194 5.97563 0
M  V30 58603 N 5468.97 -1.42929 0.664004 0
M  V30 58604 C 5470.25 -1.95283 0.111242 0
M  V30 58605 C 5470.63 -1.60489 -1.37137 0
M  V30 58606 O 5469.98 -0.895499 -2.10221 0
M  V30 58607 C 5470.19 -3.47045 0.368911 0
M  V30 58608 C 5471.53 -4.23678 0.279622 0
M  V30 58609 O 5472.56 -3.54917 0.302062 0
M  V30 58610 O 5471.42 -5.46087 0.212552 0
M  V30 58611 H 5468.51 -0.826993 -0.0033881 0
M  V30 58612 H 5471.06 -1.52813 0.737988 0
M  V30 58613 H 5469.83 -3.65536 1.39639 0
M  V30 58614 H 5469.45 -3.96538 -0.290374 0
M  V30 58615 N 5470.45 -0.40662 -1.52264 0
M  V30 58616 C 5471.36 0.427019 -2.30681 0
M  V30 58617 C 5472.37 1.05585 -1.38303 0
M  V30 58618 O 5473.55 1.05791 -1.71378 0
M  V30 58619 C 5470.62 1.52997 -3.11116 0
M  V30 58620 C 5469.68 0.924457 -4.19228 0
M  V30 58621 C 5468.91 1.97485 -4.95818 0
M  V30 58622 O 5469.13 3.19261 -4.72682 0
M  V30 58623 O 5468.07 1.58248 -5.80725 0
M  V30 58624 H 5471.89 -0.212294 -3.02957 0
M  V30 58625 H 5469.48 -0.169887 -1.48431 0
M  V30 58626 H 5471.36 2.17033 -3.61213 0
M  V30 58627 H 5470.03 2.15393 -2.41635 0
M  V30 58628 H 5468.94 0.246878 -3.73285 0
M  V30 58629 H 5470.27 0.344458 -4.90993 0
M  V30 58630 N 5471.93 1.57004 -0.136964 0
M  V30 58631 C 5472.84 2.1981 0.81981 0
M  V30 58632 C 5473.85 1.17943 1.27927 0
M  V30 58633 O 5475.03 1.50482 1.33854 0
M  V30 58634 C 5472.09 2.79942 2.04532 0
M  V30 58635 C 5471.15 3.96903 1.63606 0
M  V30 58636 C 5470.39 4.54158 2.80315 0
M  V30 58637 O 5470.61 4.10296 3.96249 0
M  V30 58638 O 5469.54 5.44574 2.56364 0
M  V30 58639 H 5473.37 3.0206 0.315231 0
M  V30 58640 H 5470.96 1.49131 0.0895627 0
M  V30 58641 H 5472.84 3.18201 2.76272 0
M  V30 58642 H 5471.51 2.00712 2.53962 0
M  V30 58643 H 5470.42 3.63379 0.889188 0
M  V30 58644 H 5471.75 4.77623 1.18901 0
M  V30 58645 N 5473.4 -0.136826 1.57005 0
M  V30 58646 C 5474.68 -0.876989 1.74838 0
M  V30 58647 C 5475.06 -1.98884 0.707708 0
M  V30 58648 O 5474.41 -2.2688 -0.271572 0
M  V30 58649 C 5474.62 -1.4101 3.19245 0
M  V30 58650 C 5475.97 -1.8695 3.81228 0
M  V30 58651 O 5476.99 -1.50729 3.22737 0
M  V30 58652 O 5475.85 -2.53781 4.84002 0
M  V30 58653 H 5472.94 -0.415167 0.715238 0
M  V30 58654 H 5475.49 -0.121956 1.69261 0
M  V30 58655 H 5474.26 -0.611542 3.86492 0
M  V30 58656 H 5473.89 -2.22835 3.29288 0
M  V30 58657 N 5474.88 -1.52268 -0.406486 0
M  V30 58658 C 5476.16 -1.57022 -1.16634 0
M  V30 58659 C 5476.54 -0.352825 -2.08131 0
M  V30 58660 O 5475.89 0.660131 -2.18757 0
M  V30 58661 C 5476.1 -2.90023 -1.94133 0
M  V30 58662 C 5477.45 -3.43121 -2.50107 0
M  V30 58663 O 5478.47 -2.91781 -2.0431 0
M  V30 58664 O 5477.33 -4.32777 -3.33716 0
M  V30 58665 H 5474.42 -0.632593 -0.532687 0
M  V30 58666 H 5476.97 -1.64596 -0.413053 0
M  V30 58667 H 5475.74 -3.70076 -1.27121 0
M  V30 58668 H 5475.36 -2.85753 -2.76461 0
M  V30 58669 N 5476.36 0.663879 -1.42935 0
M  V30 58670 C 5477.64 1.4205 -1.34467 0
M  V30 58671 C 5478.02 2.11096 0.0127058 0
M  V30 58672 O 5477.37 2.04031 1.02877 0
M  V30 58673 C 5477.58 2.41397 -2.52049 0
M  V30 58674 C 5478.92 3.05716 -2.94657 0
M  V30 58675 O 5479.95 2.51725 -2.52018 0
M  V30 58676 O 5478.81 4.0358 -3.68491 0
M  V30 58677 H 5475.9 0.63413 -0.530856 0
M  V30 58678 H 5478.45 0.691683 -1.54964 0
M  V30 58679 H 5477.22 1.89251 -3.42491 0
M  V30 58680 H 5476.84 3.21744 -2.33595 0
M  V30 58681 N 5477.84 1.29288 0.901235 0
M  V30 58682 C 5479.09 1.16939 1.64832 0
M  V30 58683 C 5479.41 -0.279758 1.92983 0
M  V30 58684 O 5478.68 -1.19173 1.55482 0
M  V30 58685 H 5477.26 0.42979 0.610974 0
M  V30 58686 H 5479.92 1.62193 1.08072 0
M  V30 58687 H 5479.02 1.7183 2.60539 0
M  V30 58688 N 5479.32 -1.11139 1.1174 0
M  V30 58689 C 5480.23 -2.20848 0.791408 0
M  V30 58690 C 5481.24 -1.72644 -0.216772 0
M  V30 58691 O 5482.42 -2.01332 -0.0521694 0
M  V30 58692 C 5479.48 -3.45849 0.242816 0
M  V30 58693 C 5478.54 -4.08825 1.31 0
M  V30 58694 C 5477.78 -5.27858 0.78749 0
M  V30 58695 O 5478 -5.69124 -0.381349 0
M  V30 58696 O 5476.93 -5.81501 1.55373 0
M  V30 58697 H 5480.76 -2.51152 1.70753 0
M  V30 58698 H 5478.35 -1.19735 0.89352 0
M  V30 58699 H 5480.23 -4.21359 -0.0585991 0
M  V30 58700 H 5478.9 -3.17189 -0.645967 0
M  V30 58701 H 5477.81 -3.35031 1.66448 0
M  V30 58702 H 5479.14 -4.4167 2.17229 0
M  V30 58703 N 5480.79 -0.908192 -1.28801 0
M  V30 58704 C 5481.7 -0.397249 -2.31212 0
M  V30 58705 C 5482.72 0.512293 -1.66288 0
M  V30 58706 O 5483.9 0.399824 -1.97391 0
M  V30 58707 C 5480.96 0.359401 -3.44832 0
M  V30 58708 C 5480.02 -0.582688 -4.25327 0
M  V30 58709 C 5479.26 0.137946 -5.33522 0
M  V30 58710 O 5479.48 1.36056 -5.53936 0
M  V30 58711 O 5478.41 -0.523892 -5.99616 0
M  V30 58712 H 5482.24 -1.2471 -2.76914 0
M  V30 58713 H 5479.82 -0.672813 -1.33393 0
M  V30 58714 H 5481.71 0.786952 -4.13987 0
M  V30 58715 H 5480.38 1.18517 -3.01223 0
M  V30 58716 H 5479.29 -1.05953 -3.58782 0
M  V30 58717 H 5480.62 -1.37512 -4.72601 0
M  V30 58718 N 5482.27 1.42575 -0.671575 0
M  V30 58719 C 5483.18 2.34598 0.00889978 0
M  V30 58720 C 5484.2 1.54912 0.792353 0
M  V30 58721 O 5485.37 1.87493 0.735412 0
M  V30 58722 C 5482.44 3.33409 0.950771 0
M  V30 58723 C 5481.5 4.28993 0.162209 0
M  V30 58724 C 5480.73 5.23083 1.05922 0
M  V30 58725 O 5480.96 5.2203 2.29872 0
M  V30 58726 O 5479.89 5.99634 0.521755 0
M  V30 58727 H 5483.72 2.94318 -0.74903 0
M  V30 58728 H 5481.3 1.43024 -0.431801 0
M  V30 58729 H 5483.18 3.9412 1.49155 0
M  V30 58730 H 5481.86 2.76166 1.68861 0
M  V30 58731 H 5480.77 3.71705 -0.422601 0
M  V30 58732 H 5482.1 4.89268 -0.536446 0
M  V30 58733 N 5483.75 0.414689 1.52046 0
M  V30 58734 C 5485 -0.159514 2.02172 0
M  V30 58735 C 5485.33 -1.44316 1.29948 0
M  V30 58736 O 5484.61 -1.90184 0.407469 0
M  V30 58737 C 5484.89 -0.401529 3.57854 0
M  V30 58738 C 5484.74 0.89918 4.40721 0
M  V30 58739 C 5486.06 -1.18125 4.23951 0
M  V30 58740 H 5483.18 -0.0564999 0.734831 0
M  V30 58741 H 5485.82 0.549247 1.81888 0
M  V30 58742 H 5483.97 -1.00528 3.75268 0
M  V30 58743 H 5485.64 1.53517 4.35006 0
M  V30 58744 H 5483.89 1.50892 4.06711 0
M  V30 58745 H 5484.56 0.684166 5.47744 0
M  V30 58746 H 5487.03 -0.670059 4.10669 0
M  V30 58747 H 5485.91 -1.31934 5.32808 0
M  V30 58748 H 5486.17 -2.20337 3.83281 0
M  V30 58749 N 5485.23 -1.56929 0.145288 0
M  V30 58750 C 5486.18 -2.16674 -0.795051 0
M  V30 58751 C 5487.15 -1.09912 -1.24533 0
M  V30 58752 O 5488.33 -1.37946 -1.31817 0
M  V30 58753 C 5485.47 -2.79118 -2.02946 0
M  V30 58754 C 5484.58 -4.00266 -1.62514 0
M  V30 58755 C 5483.72 -4.50715 -2.81122 0
M  V30 58756 C 5482.76 -5.64333 -2.37055 0
M  V30 58757 N 5481.9 -6.09407 -3.48665 0
M  V30 58758 H 5486.74 -2.96693 -0.278761 0
M  V30 58759 H 5484.27 -1.4656 -0.125883 0
M  V30 58760 H 5486.23 -3.13466 -2.75309 0
M  V30 58761 H 5484.86 -2.01746 -2.51989 0
M  V30 58762 H 5483.91 -3.71909 -0.799234 0
M  V30 58763 H 5485.22 -4.82585 -1.26149 0
M  V30 58764 H 5484.38 -4.87109 -3.61676 0
M  V30 58765 H 5483.12 -3.674 -3.20731 0
M  V30 58766 H 5482.12 -5.27517 -1.5494 0
M  V30 58767 H 5483.35 -6.49432 -1.98533 0
M  V30 58768 H 5481.29 -5.29028 -3.87899 0
M  V30 58769 H 5481.21 -6.86647 -3.16309 0
M  V30 58770 H 5482.48 -6.50446 -4.29582 0
M  V30 58771 N 5486.71 0.128498 -1.57075 0
M  V30 58772 C 5487.93 0.856333 -1.88896 0
M  V30 58773 C 5488.36 1.73092 -0.736257 0
M  V30 58774 O 5487.72 1.78568 0.313566 0
M  V30 58775 C 5487.76 1.67356 -3.19412 0
M  V30 58776 O 5486.87 2.77962 -3.04649 0
M  V30 58777 H 5486.21 0.237402 -0.62011 0
M  V30 58778 H 5488.74 0.113749 -2.04284 0
M  V30 58779 H 5488.75 2.06477 -3.51896 0
M  V30 58780 H 5487.42 1.03147 -4.02906 0
M  V30 58781 H 5486 2.42113 -2.83612 0
M  V30 58782 N 5488.19 1.52481 0.398405 0
M  V30 58783 C 5489.43 1.67065 1.14435 0
M  V30 58784 C 5489.76 0.405888 1.90218 0
M  V30 58785 O 5489.02 -0.611466 1.85902 0
M  V30 58786 C 5489.31 2.85045 2.15601 0
M  V30 58787 C 5488.98 4.22852 1.56546 0
M  V30 58788 C 5487.64 4.60334 1.40166 0
M  V30 58789 C 5489.99 5.08687 1.13522 0
M  V30 58790 C 5487.32 5.81317 0.792945 0
M  V30 58791 C 5489.67 6.30285 0.540645 0
M  V30 58792 C 5488.34 6.66506 0.364063 0
M  V30 58793 H 5487.61 0.611336 0.418748 0
M  V30 58794 H 5490.26 1.86606 0.430176 0
M  V30 58795 H 5488.56 2.59883 2.93203 0
M  V30 58796 H 5490.26 2.93525 2.7321 0
M  V30 58797 H 5486.85 3.93322 1.70281 0
M  V30 58798 H 5491.03 4.80305 1.24982 0
M  V30 58799 H 5486.29 6.07996 0.644246 0
M  V30 58800 H 5490.46 6.96116 0.198923 0
M  V30 58801 H 5488.09 7.60121 -0.109706 0
M  V30 58802 N 5489.66 -0.656289 1.43285 0
M  V30 58803 C 5490.57 -1.79842 1.50646 0
M  V30 58804 C 5491.59 -1.69486 0.393774 0
M  V30 58805 O 5492.77 -1.90709 0.647446 0
M  V30 58806 C 5489.83 -3.16102 1.4241 0
M  V30 58807 C 5488.89 -3.38277 2.64324 0
M  V30 58808 C 5488.12 -4.68037 2.56471 0
M  V30 58809 O 5488.35 -5.47185 1.61075 0
M  V30 58810 O 5487.28 -4.91864 3.46919 0
M  V30 58811 H 5491.11 -1.76587 2.47085 0
M  V30 58812 H 5488.69 -0.814384 1.25252 0
M  V30 58813 H 5490.57 -3.97377 1.40247 0
M  V30 58814 H 5489.25 -3.19954 0.491041 0
M  V30 58815 H 5488.16 -2.56778 2.72058 0
M  V30 58816 H 5489.49 -3.3927 3.56591 0
M  V30 58817 N 5491.14 -1.29765 -0.894366 0
M  V30 58818 C 5492.05 -1.17248 -2.032 0
M  V30 58819 C 5493.07 -0.0945063 -1.73743 0
M  V30 58820 O 5494.24 -0.307619 -1.99037 0
M  V30 58821 C 5491.31 -0.855535 -3.35978 0
M  V30 58822 C 5490.37 -2.0179 -3.78919 0
M  V30 58823 C 5489.6 -1.71598 -5.05361 0
M  V30 58824 O 5489.83 -0.639444 -5.66804 0
M  V30 58825 O 5488.76 -2.56558 -5.44483 0
M  V30 58826 H 5492.59 -2.12794 -2.16685 0
M  V30 58827 H 5490.17 -1.09268 -1.01887 0
M  V30 58828 H 5492.05 -0.693575 -4.15653 0
M  V30 58829 H 5490.73 0.0701057 -3.23624 0
M  V30 58830 H 5489.63 -2.23513 -2.99988 0
M  V30 58831 H 5490.97 -2.92493 -3.95865 0
M  V30 58832 N 5492.62 1.10545 -1.12328 0
M  V30 58833 C 5493.57 2.16855 -0.790101 0
M  V30 58834 C 5494.54 1.64318 0.242636 0
M  V30 58835 O 5495.72 1.90438 0.117464 0
M  V30 58836 C 5492.86 3.44196 -0.249624 0
M  V30 58837 C 5491.97 4.10691 -1.34004 0
M  V30 58838 C 5491.11 5.25748 -0.759117 0
M  V30 58839 C 5490.15 5.84144 -1.82873 0
M  V30 58840 N 5489.29 6.9058 -1.26662 0
M  V30 58841 H 5494.13 2.44699 -1.70078 0
M  V30 58842 H 5491.66 1.20114 -0.849183 0
M  V30 58843 H 5493.62 4.1712 0.0817784 0
M  V30 58844 H 5492.25 3.16707 0.624221 0
M  V30 58845 H 5491.3 3.35747 -1.78824 0
M  V30 58846 H 5492.61 4.50137 -2.14891 0
M  V30 58847 H 5491.77 6.05519 -0.378317 0
M  V30 58848 H 5490.51 4.87633 0.0809691 0
M  V30 58849 H 5489.51 5.03043 -2.21874 0
M  V30 58850 H 5490.74 6.24324 -2.67202 0
M  V30 58851 H 5488.68 6.54466 -0.448335 0
M  V30 58852 H 5488.6 7.28732 -2.0121 0
M  V30 58853 H 5489.87 7.74135 -0.913009 0
M  V30 58854 N 5494.1 0.91501 1.28317 0
M  V30 58855 C 5495.01 0.409505 2.30998 0
M  V30 58856 C 5496.02 -0.503467 1.66557 0
M  V30 58857 O 5497.2 -0.38935 1.97601 0
M  V30 58858 C 5494.26 -0.341109 3.45018 0
M  V30 58859 C 5493.33 0.605236 4.25012 0
M  V30 58860 C 5492.56 -0.10965 5.33587 0
M  V30 58861 O 5492.78 -1.33117 5.54649 0
M  V30 58862 O 5491.72 0.555684 5.99329 0
M  V30 58863 H 5495.54 1.26177 2.76248 0
M  V30 58864 H 5493.13 0.679878 1.33034 0
M  V30 58865 H 5495.01 -0.764986 4.14398 0
M  V30 58866 H 5493.68 -1.16918 3.01847 0
M  V30 58867 H 5492.59 1.07854 3.58216 0
M  V30 58868 H 5493.92 1.40016 4.71865 0
M  V30 58869 N 5495.58 -1.42217 0.679127 0
M  V30 58870 C 5496.51 -2.28152 -0.0467557 0
M  V30 58871 C 5497.49 -1.4131 -0.804383 0
M  V30 58872 O 5498.67 -1.70747 -0.798613 0
M  V30 58873 C 5495.8 -3.2124 -1.07344 0
M  V30 58874 C 5494.84 -4.24516 -0.410893 0
M  V30 58875 S 5495.68 -5.28955 0.834692 0
M  V30 58876 C 5496.83 -6.25609 -0.190809 0
M  V30 58877 H 5497.07 -2.89368 0.682146 0
M  V30 58878 H 5494.6 -1.4711 0.468819 0
M  V30 58879 H 5496.56 -3.75408 -1.66069 0
M  V30 58880 H 5495.22 -2.59151 -1.77481 0
M  V30 58881 H 5494.41 -4.89853 -1.18573 0
M  V30 58882 H 5494.01 -3.73858 0.102873 0
M  V30 58883 H 5496.3 -6.69326 -1.04921 0
M  V30 58884 H 5497.25 -7.06804 0.428208 0
M  V30 58885 H 5497.66 -5.61928 -0.538224 0
M  V30 58886 N 5497.05 -0.422747 -1.51824 0
M  V30 58887 C 5497.96 0.402528 -2.31121 0
M  V30 58888 C 5498.98 1.04112 -1.39416 0
M  V30 58889 O 5500.16 1.03967 -1.7249 0
M  V30 58890 C 5497.22 1.49688 -3.12721 0
M  V30 58891 C 5496.28 0.87994 -4.20185 0
M  V30 58892 C 5495.51 1.92215 -4.97885 0
M  V30 58893 O 5495.74 3.14229 -4.76042 0
M  V30 58894 O 5494.67 1.52079 -5.82371 0
M  V30 58895 H 5498.5 -0.244414 -3.02715 0
M  V30 58896 H 5496.08 -0.185621 -1.48242 0
M  V30 58897 H 5497.96 2.1319 -3.63494 0
M  V30 58898 H 5496.64 2.12818 -2.43906 0
M  V30 58899 H 5495.55 0.207272 -3.73525 0
M  V30 58900 H 5496.88 0.292362 -4.91331 0
M  V30 58901 N 5498.53 1.5685 -0.153609 0
M  V30 58902 C 5499.48 2.17092 0.78355 0
M  V30 58903 C 5500.45 1.10571 1.23948 0
M  V30 58904 O 5501.63 1.38643 1.31083 0
M  V30 58905 C 5498.77 2.80191 2.01463 0
M  V30 58906 C 5497.89 4.01123 1.60389 0
M  V30 58907 C 5497.02 4.522 2.78727 0
M  V30 58908 C 5496.06 5.65582 2.34059 0
M  V30 58909 N 5495.2 6.11248 3.45428 0
M  V30 58910 H 5500.04 2.96837 0.263023 0
M  V30 58911 H 5497.58 1.46625 0.118108 0
M  V30 58912 H 5499.53 3.14922 2.73643 0
M  V30 58913 H 5498.16 2.03079 2.50915 0
M  V30 58914 H 5497.22 3.72328 0.7795 0
M  V30 58915 H 5498.53 4.83247 1.23588 0
M  V30 58916 H 5497.68 4.8902 3.59088 0
M  V30 58917 H 5496.42 3.69096 3.18778 0
M  V30 58918 H 5495.43 5.28331 1.5214 0
M  V30 58919 H 5496.65 6.50475 1.95086 0
M  V30 58920 H 5494.6 5.31078 3.85088 0
M  V30 58921 H 5494.51 6.88315 3.12663 0
M  V30 58922 H 5495.78 6.52715 4.26126 0
M  V30 58923 N 5500.01 -0.120166 1.57141 0
M  V30 58924 C 5500.94 -1.17313 1.96902 0
M  V30 58925 C 5501.96 -1.37719 0.868182 0
M  V30 58926 O 5503.14 -1.36814 1.14648 0
M  V30 58927 C 5500.24 -2.53335 2.25111 0
M  V30 58928 C 5499.42 -2.53547 3.56417 0
M  V30 58929 C 5498.48 -3.71306 3.72852 0
M  V30 58930 O 5497.5 -3.54945 4.44975 0
M  V30 58931 N 5498.7 -4.89825 3.11532 0
M  V30 58932 H 5501.47 -0.834922 2.87835 0
M  V30 58933 H 5499.03 -0.309452 1.58915 0
M  V30 58934 H 5501.02 -3.30671 2.33322 0
M  V30 58935 H 5499.59 -2.79342 1.4031 0
M  V30 58936 H 5498.81 -1.61934 3.59404 0
M  V30 58937 H 5500.1 -2.50744 4.42724 0
M  V30 58938 H 5499.5 -5.06021 2.52901 0
M  V30 58939 H 5498.06 -5.64841 3.25265 0
M  V30 58940 N 5501.49 -1.5269 -0.390313 0
M  V30 58941 C 5502.44 -1.77375 -1.47671 0
M  V30 58942 C 5503.41 -0.616918 -1.54218 0
M  V30 58943 O 5504.59 -0.856497 -1.70496 0
M  V30 58944 C 5501.73 -1.94725 -2.84915 0
M  V30 58945 C 5500.84 -3.22415 -2.87529 0
M  V30 58946 C 5499.98 -3.30089 -4.16191 0
M  V30 58947 C 5499.02 -4.51907 -4.12851 0
M  V30 58948 N 5498.15 -4.5687 -5.33117 0
M  V30 58949 H 5502.99 -2.70088 -1.25922 0
M  V30 58950 H 5500.53 -1.33815 -0.610896 0
M  V30 58951 H 5502.49 -2.02768 -3.64611 0
M  V30 58952 H 5501.12 -1.05374 -3.05117 0
M  V30 58953 H 5500.17 -3.23449 -2.00212 0
M  V30 58954 H 5501.48 -4.12165 -2.80929 0
M  V30 58955 H 5500.64 -3.37308 -5.0429 0
M  V30 58956 H 5499.38 -2.3831 -4.25511 0
M  V30 58957 H 5498.38 -4.44815 -3.23141 0
M  V30 58958 H 5499.61 -5.45001 -4.05155 0
M  V30 58959 H 5497.55 -3.67982 -5.4307 0
M  V30 58960 H 5497.47 -5.40491 -5.28588 0
M  V30 58961 H 5498.74 -4.68342 -6.23118 0
M  V30 58962 N 5502.97 0.648681 -1.43631 0
M  V30 58963 C 5503.9 1.77292 -1.51953 0
M  V30 58964 C 5504.88 1.65941 -0.373844 0
M  V30 58965 O 5506.06 1.84968 -0.591661 0
M  V30 58966 C 5503.19 3.15743 -1.44649 0
M  V30 58967 C 5502.15 3.41863 -2.57514 0
M  V30 58968 C 5501.47 4.80162 -2.35263 0
M  V30 58969 C 5502.77 3.36159 -3.99743 0
M  V30 58970 H 5504.47 1.70585 -2.46051 0
M  V30 58971 H 5502.01 0.819265 -1.18423 0
M  V30 58972 H 5503.97 3.94151 -1.49074 0
M  V30 58973 H 5502.69 3.23192 -0.47058 0
M  V30 58974 H 5501.35 2.65829 -2.52449 0
M  V30 58975 H 5501 4.84292 -1.35904 0
M  V30 58976 H 5500.7 4.98599 -3.10923 0
M  V30 58977 H 5502.22 5.60821 -2.41479 0
M  V30 58978 H 5503.63 4.04496 -4.06271 0
M  V30 58979 H 5502.03 3.66131 -4.75466 0
M  V30 58980 H 5503.1 2.34262 -4.24558 0
M  V30 58981 N 5504.44 1.30237 0.887472 0
M  V30 58982 C 5505.37 1.18976 2.00915 0
M  V30 58983 C 5506.36 0.0810117 1.69907 0
M  V30 58984 O 5507.54 0.262614 1.92416 0
M  V30 58985 C 5504.67 0.878212 3.36013 0
M  V30 58986 C 5503.62 1.94462 3.81272 0
M  V30 58987 C 5502.95 1.48612 5.13633 0
M  V30 58988 C 5504.25 3.35533 4.00269 0
M  V30 58989 H 5505.94 2.12815 2.10594 0
M  V30 58990 H 5503.49 1.02457 1.01185 0
M  V30 58991 H 5505.44 0.786099 4.14003 0
M  V30 58992 H 5504.17 -0.0958631 3.26459 0
M  V30 58993 H 5502.83 2.02633 3.05508 0
M  V30 58994 H 5502.47 0.50038 5.00505 0
M  V30 58995 H 5502.17 2.1994 5.44886 0
M  V30 58996 H 5503.7 1.40774 5.94151 0
M  V30 58997 H 5505.11 3.30135 4.68704 0
M  V30 58998 H 5503.51 4.04925 4.42894 0
M  V30 58999 H 5504.58 3.77608 3.04205 0
M  V30 59000 N 5505.92 -1.09948 1.12913 0
M  V30 59001 C 5507.15 -1.85517 0.909228 0
M  V30 59002 C 5507.56 -1.81175 -0.54519 0
M  V30 59003 O 5506.9 -1.20228 -1.38892 0
M  V30 59004 C 5506.97 -3.34688 1.3124 0
M  V30 59005 C 5506.63 -3.62784 2.77914 0
M  V30 59006 C 5507.63 -3.58959 3.76091 0
M  V30 59007 C 5505.31 -3.913 3.14944 0
M  V30 59008 C 5507.31 -3.83253 5.09309 0
M  V30 59009 C 5504.99 -4.15249 4.48343 0
M  V30 59010 C 5505.99 -4.11216 5.45335 0
M  V30 59011 O 5505.68 -4.34552 6.76328 0
M  V30 59012 H 5505.41 -0.593019 0.324507 0
M  V30 59013 H 5507.96 -1.39873 1.50415 0
M  V30 59014 H 5506.19 -3.81014 0.660707 0
M  V30 59015 H 5507.88 -3.91657 1.06583 0
M  V30 59016 H 5508.65 -3.36962 3.48829 0
M  V30 59017 H 5504.53 -3.93567 2.40054 0
M  V30 59018 H 5508.07 -3.80021 5.85004 0
M  V30 59019 H 5503.97 -4.36727 4.75332 0
M  V30 59020 H 5504.74 -4.52041 6.8235 0
M  V30 59021 N 5507.4 -0.921802 -1.2783 0
M  V30 59022 C 5508.33 -0.373655 -2.26134 0
M  V30 59023 C 5509.35 0.49236 -1.55176 0
M  V30 59024 O 5510.53 0.305936 -1.75859 0
M  V30 59025 C 5507.63 0.483793 -3.35429 0
M  V30 59026 C 5506.81 -0.361564 -4.35903 0
M  V30 59027 C 5505.87 0.432277 -5.24421 0
M  V30 59028 O 5504.89 -0.15797 -5.68981 0
M  V30 59029 N 5506.09 1.73347 -5.54014 0
M  V30 59030 H 5508.86 -1.21865 -2.73804 0
M  V30 59031 H 5506.42 -0.788601 -1.41395 0
M  V30 59032 H 5508.41 1.02179 -3.91588 0
M  V30 59033 H 5506.98 1.22953 -2.87405 0
M  V30 59034 H 5506.2 -1.08089 -3.79091 0
M  V30 59035 H 5507.49 -0.939704 -5.00047 0
M  V30 59036 H 5506.89 2.23543 -5.19659 0
M  V30 59037 H 5505.45 2.21812 -6.12897 0
M  V30 59038 N 5508.88 1.41855 -0.686659 0
M  V30 59039 C 5509.81 2.29188 0.0233484 0
M  V30 59040 C 5510.82 1.44313 0.75349 0
M  V30 59041 O 5512.01 1.6791 0.605675 0
M  V30 59042 C 5509.11 3.21994 1.05701 0
M  V30 59043 C 5508.29 4.35583 0.3983 0
M  V30 59044 C 5507.34 5.09027 1.33336 0
M  V30 59045 O 5506.37 5.63129 0.829136 0
M  V30 59046 N 5507.57 5.15653 2.66613 0
M  V30 59047 H 5510.34 2.90764 -0.726397 0
M  V30 59048 H 5507.9 1.5291 -0.531991 0
M  V30 59049 H 5509.89 3.67995 1.68409 0
M  V30 59050 H 5508.46 2.61788 1.70838 0
M  V30 59051 H 5507.68 3.92078 -0.408496 0
M  V30 59052 H 5508.97 5.08765 -0.0601028 0
M  V30 59053 H 5508.37 4.73129 3.10106 0
M  V30 59054 H 5506.92 5.6526 3.24538 0
M  V30 59055 N 5510.36 0.430792 1.51598 0
M  V30 59056 C 5511.32 -0.37224 2.26157 0
M  V30 59057 C 5512.32 -0.955293 1.29348 0
M  V30 59058 O 5513.51 -0.830769 1.53114 0
M  V30 59059 C 5510.64 -1.52602 3.04837 0
M  V30 59060 H 5511.83 0.281101 2.9858 0
M  V30 59061 H 5509.39 0.183803 1.55216 0
M  V30 59062 H 5510.12 -2.21561 2.36815 0
M  V30 59063 H 5509.91 -1.11419 3.75936 0
M  V30 59064 H 5511.4 -2.09354 3.61332 0
M  V30 59065 N 5511.83 -1.56766 0.161924 0
M  V30 59066 C 5513.25 -1.58412 -0.194347 0
M  V30 59067 C 5513.45 -1.17688 -1.6356 0
M  V30 59068 O 5512.51 -0.884107 -2.36516 0
M  V30 59069 C 5513.82 -3.00599 0.0779495 0
M  V30 59070 C 5515.37 -3.12996 0.015417 0
M  V30 59071 C 5515.84 -4.57258 0.260578 0
M  V30 59072 N 5517.33 -4.62733 0.208025 0
M  V30 59073 C 5518.07 -5.72192 0.372022 0
M  V30 59074 N 5517.56 -6.90244 0.59456 0
M  V30 59075 N 5519.36 -5.61252 0.308581 0
M  V30 59076 H 5511.51 -1.81527 1.1028 0
M  V30 59077 H 5513.77 -0.840904 0.437704 0
M  V30 59078 H 5513.48 -3.34836 1.07599 0
M  V30 59079 H 5513.35 -3.71821 -0.634715 0
M  V30 59080 H 5515.74 -2.78591 -0.973192 0
M  V30 59081 H 5515.82 -2.44229 0.760645 0
M  V30 59082 H 5515.46 -4.9237 1.24635 0
M  V30 59083 H 5515.39 -5.24172 -0.50515 0
M  V30 59084 H 5517.88 -3.77877 0.041287 0
M  V30 59085 H 5518.2 -7.69537 0.709401 0
M  V30 59086 H 5516.54 -6.92129 0.631062 0
M  V30 59087 H 5519.73 -4.67904 0.135382 0
M  V30 59088 H 5519.91 -6.46506 0.439819 0
M  V30 59089 N 5513.31 0.11183 -1.57203 0
M  V30 59090 C 5514.24 1.13789 -2.03898 0
M  V30 59091 C 5515.22 1.42767 -0.924746 0
M  V30 59092 O 5516.41 1.53085 -1.19493 0
M  V30 59093 C 5513.54 2.46221 -2.44934 0
M  V30 59094 C 5512.49 2.31689 -3.59867 0
M  V30 59095 C 5511.82 3.69148 -3.86826 0
M  V30 59096 C 5513.12 1.7714 -4.91344 0
M  V30 59097 H 5514.81 0.749479 -2.89868 0
M  V30 59098 H 5512.36 0.359077 -1.39451 0
M  V30 59099 H 5514.31 3.18258 -2.76207 0
M  V30 59100 H 5513.04 2.86966 -1.55943 0
M  V30 59101 H 5511.7 1.621 -3.28815 0
M  V30 59102 H 5511.34 4.0739 -2.95029 0
M  V30 59103 H 5511.04 3.60276 -4.64193 0
M  V30 59104 H 5512.57 4.42678 -4.20557 0
M  V30 59105 H 5513.98 2.39001 -5.21106 0
M  V30 59106 H 5512.38 1.79071 -5.7276 0
M  V30 59107 H 5513.45 0.729506 -4.79381 0
M  V30 59108 N 5514.79 1.52895 0.38221 0
M  V30 59109 C 5515.74 1.74536 1.46701 0
M  V30 59110 C 5516.73 0.599551 1.49312 0
M  V30 59111 O 5517.92 0.857632 1.54834 0
M  V30 59112 C 5515.05 1.92376 2.84335 0
M  V30 59113 C 5514.13 3.12909 2.86267 0
M  V30 59114 N 5514.52 4.35134 2.57861 0
M  V30 59115 C 5512.82 3.13293 3.17433 0
M  V30 59116 C 5513.52 5.16779 2.67048 0
M  V30 59117 N 5512.5 4.52616 3.01064 0
M  V30 59118 H 5516.3 2.66658 1.23576 0
M  V30 59119 H 5513.81 1.51294 0.590233 0
M  V30 59120 H 5515.81 2.06003 3.62448 0
M  V30 59121 H 5514.47 1.01472 3.08437 0
M  V30 59122 H 5515.48 4.63151 2.31757 0
M  V30 59123 H 5512.16 2.32223 3.46956 0
M  V30 59124 H 5513.55 6.24228 2.48574 0
M  V30 59125 N 5516.27 -0.641055 1.43973 0
M  V30 59126 C 5517.55 -1.39892 1.36709 0
M  V30 59127 C 5517.93 -2.1109 0.0208793 0
M  V30 59128 O 5517.27 -2.05642 -0.996178 0
M  V30 59129 C 5517.48 -2.37357 2.55857 0
M  V30 59130 C 5518.83 -3.00989 2.99484 0
M  V30 59131 O 5519.86 -2.47683 2.55991 0
M  V30 59132 O 5518.72 -3.97667 3.74865 0
M  V30 59133 H 5515.81 -0.625604 0.540877 0
M  V30 59134 H 5518.36 -0.666942 1.56045 0
M  V30 59135 H 5517.13 -1.83778 3.45458 0
M  V30 59136 H 5516.75 -3.17987 2.38684 0
M  V30 59137 N 5517.75 -1.30706 -0.880552 0
M  V30 59138 C 5519.16 -1.09133 -1.16456 0
M  V30 59139 C 5519.36 0.145061 -2.00977 0
M  V30 59140 O 5518.42 0.837418 -2.38209 0
M  V30 59141 C 5519.73 -2.35723 -1.86695 0
M  V30 59142 C 5521.28 -2.41231 -1.99441 0
M  V30 59143 C 5521.76 -3.67674 -2.73093 0
M  V30 59144 N 5523.25 -3.68508 -2.80635 0
M  V30 59145 C 5523.98 -4.63036 -3.38209 0
M  V30 59146 N 5523.48 -5.67912 -3.96797 0
M  V30 59147 N 5525.27 -4.50573 -3.36066 0
M  V30 59148 H 5517.42 -2.1002 -0.31709 0
M  V30 59149 H 5519.68 -0.926002 -0.20304 0
M  V30 59150 H 5519.39 -3.25975 -1.32035 0
M  V30 59151 H 5519.26 -2.4471 -2.87048 0
M  V30 59152 H 5521.65 -1.51455 -2.53269 0
M  V30 59153 H 5521.73 -2.36216 -0.981621 0
M  V30 59154 H 5521.38 -4.57811 -2.19935 0
M  V30 59155 H 5521.31 -3.69953 -3.74757 0
M  V30 59156 H 5523.8 -2.92689 -2.39043 0
M  V30 59157 H 5524.11 -6.36135 -4.38808 0
M  V30 59158 H 5522.46 -5.71699 -3.95203 0
M  V30 59159 H 5525.65 -3.67821 -2.89526 0
M  V30 59160 H 5525.82 -5.24422 -3.80639 0
M  V30 59161 N 5519.23 1.09347 -1.13494 0
M  V30 59162 C 5520.47 1.81182 -0.895414 0
M  V30 59163 C 5520.79 1.86175 0.579982 0
M  V30 59164 O 5520.06 1.34789 1.42157 0
M  V30 59165 H 5518.64 0.671 -0.328281 0
M  V30 59166 H 5521.31 1.3225 -1.43164 0
M  V30 59167 H 5520.4 2.84335 -1.28686 0
M  V30 59168 N 5520.7 0.928568 1.2734 0
M  V30 59169 C 5521.67 0.432999 2.25073 0
M  V30 59170 C 5522.67 -0.448922 1.54406 0
M  V30 59171 O 5523.86 -0.249879 1.72399 0
M  V30 59172 C 5520.99 -0.37742 3.38804 0
M  V30 59173 H 5522.18 1.29652 2.70426 0
M  V30 59174 H 5519.73 0.709338 1.39277 0
M  V30 59175 H 5520.47 -1.25972 2.98834 0
M  V30 59176 H 5520.25 0.25492 3.9127 0
M  V30 59177 H 5521.74 -0.714489 4.11442 0
M  V30 59178 N 5522.18 -1.41489 0.694172 0
M  V30 59179 C 5523.14 -2.2917 0.0369367 0
M  V30 59180 C 5524.14 -1.44307 -0.709375 0
M  V30 59181 O 5525.33 -1.65472 -0.544474 0
M  V30 59182 C 5522.47 -3.2716 -0.958086 0
M  V30 59183 H 5523.66 -2.88784 0.808931 0
M  V30 59184 H 5521.21 -1.49452 0.45759 0
M  V30 59185 H 5521.95 -2.72523 -1.75789 0
M  V30 59186 H 5521.73 -3.89778 -0.42609 0
M  V30 59187 H 5523.22 -3.92868 -1.41578 0
M  V30 59188 N 5523.66 -0.438826 -1.51367 0
M  V30 59189 C 5524.57 0.377992 -2.31535 0
M  V30 59190 C 5525.59 1.02627 -1.40512 0
M  V30 59191 O 5526.76 1.02132 -1.73583 0
M  V30 59192 C 5523.83 1.46363 -3.14291 0
M  V30 59193 C 5522.89 0.835324 -4.21095 0
M  V30 59194 C 5522.12 1.86923 -4.99895 0
M  V30 59195 O 5522.34 3.09163 -4.79348 0
M  V30 59196 O 5521.28 1.45894 -5.83951 0
M  V30 59197 H 5525.1 -0.276508 -3.02439 0
M  V30 59198 H 5522.69 -0.201333 -1.48037 0
M  V30 59199 H 5524.57 2.09322 -3.65735 0
M  V30 59200 H 5523.25 2.10219 -2.4615 0
M  V30 59201 H 5522.15 0.167643 -3.73724 0
M  V30 59202 H 5523.49 0.240233 -4.91613 0
M  V30 59203 N 5525.14 1.56678 -0.170236 0
M  V30 59204 C 5526.07 2.1375 0.799128 0
M  V30 59205 C 5527.05 1.06729 1.22669 0
M  V30 59206 O 5528.23 1.34699 1.31866 0
M  V30 59207 C 5525.36 2.67618 2.07601 0
M  V30 59208 C 5524.41 3.87001 1.79256 0
M  V30 59209 S 5525.24 5.26774 0.962766 0
M  V30 59210 C 5526.39 5.84047 2.25034 0
M  V30 59211 H 5526.63 2.95639 0.313872 0
M  V30 59212 H 5524.16 1.54336 0.0444165 0
M  V30 59213 H 5526.12 2.99301 2.80943 0
M  V30 59214 H 5524.78 1.85817 2.5324 0
M  V30 59215 H 5523.97 4.23016 2.73996 0
M  V30 59216 H 5523.57 3.56199 1.1401 0
M  V30 59217 H 5525.87 5.96895 3.20504 0
M  V30 59218 H 5526.81 6.81152 1.93489 0
M  V30 59219 H 5527.22 5.12457 2.36745 0
M  V30 59220 N 5526.62 -0.103492 1.5726 0
M  V30 59221 C 5527.86 -0.809709 1.85934 0
M  V30 59222 C 5528.19 -1.78788 0.758184 0
M  V30 59223 O 5527.47 -1.9308 -0.234614 0
M  V30 59224 C 5527.75 -1.5459 3.25229 0
M  V30 59225 C 5527.61 -0.586282 4.45963 0
M  V30 59226 C 5528.92 -2.49847 3.62305 0
M  V30 59227 H 5526.04 -0.292906 0.676295 0
M  V30 59228 H 5528.69 -0.0735398 1.89858 0
M  V30 59229 H 5526.84 -2.17344 3.22015 0
M  V30 59230 H 5528.51 0.0336062 4.61288 0
M  V30 59231 H 5526.75 0.101002 4.33682 0
M  V30 59232 H 5527.42 -1.13836 5.40135 0
M  V30 59233 H 5529.9 -1.9719 3.66409 0
M  V30 59234 H 5528.77 -2.9838 4.60718 0
M  V30 59235 H 5529.03 -3.33223 2.90543 0
M  V30 59236 N 5528.09 -1.53096 -0.374097 0
M  V30 59237 C 5529.02 -1.81907 -1.46398 0
M  V30 59238 C 5530.01 -0.672004 -1.56263 0
M  V30 59239 O 5531.19 -0.921038 -1.70969 0
M  V30 59240 C 5528.32 -2.00133 -2.83838 0
M  V30 59241 C 5527.27 -3.15874 -2.88803 0
M  V30 59242 C 5526.6 -3.1938 -4.28837 0
M  V30 59243 C 5527.9 -4.54642 -2.57096 0
M  V30 59244 H 5529.59 -2.73176 -1.22537 0
M  V30 59245 H 5527.14 -1.31446 -0.588041 0
M  V30 59246 H 5529.09 -2.18871 -3.60102 0
M  V30 59247 H 5527.82 -1.05566 -3.09069 0
M  V30 59248 H 5526.48 -2.96943 -2.14989 0
M  V30 59249 H 5526.12 -2.22466 -4.51129 0
M  V30 59250 H 5525.82 -3.97138 -4.33076 0
M  V30 59251 H 5527.35 -3.40291 -5.06986 0
M  V30 59252 H 5528.76 -4.73599 -3.23074 0
M  V30 59253 H 5527.16 -5.34579 -2.72664 0
M  V30 59254 H 5528.23 -4.60336 -1.52376 0
M  V30 59255 N 5529.57 0.633411 -1.44311 0
M  V30 59256 C 5530.5 1.75863 -1.46986 0
M  V30 59257 C 5531.52 1.58689 -0.363525 0
M  V30 59258 O 5532.71 1.67045 -0.629134 0
M  V30 59259 C 5529.81 3.13555 -1.28593 0
M  V30 59260 C 5528.98 3.57208 -2.52431 0
M  V30 59261 C 5528.04 4.73771 -2.28971 0
M  V30 59262 O 5527.06 4.82199 -3.02445 0
M  V30 59263 N 5528.27 5.6532 -1.31885 0
M  V30 59264 H 5531.03 1.74039 -2.43989 0
M  V30 59265 H 5528.59 0.817903 -1.39721 0
M  V30 59266 H 5530.58 3.89251 -1.10749 0
M  V30 59267 H 5529.15 3.10035 -0.399638 0
M  V30 59268 H 5528.37 2.71745 -2.85567 0
M  V30 59269 H 5529.66 3.83124 -3.34804 0
M  V30 59270 H 5529.06 5.61202 -0.711987 0
M  V30 59271 H 5527.62 6.40655 -1.20021 0
M  V30 59272 N 5531.05 1.31171 0.873608 0
M  V30 59273 C 5532.28 1.23601 1.65923 0
M  V30 59274 C 5532.69 -0.199283 1.87745 0
M  V30 59275 O 5532.05 -1.13008 1.43302 0
M  V30 59276 C 5532.1 1.97279 3.02925 0
M  V30 59277 O 5531.82 3.35206 2.8208 0
M  V30 59278 C 5533.32 1.96504 3.97367 0
M  V30 59279 H 5530.54 0.427246 0.517399 0
M  V30 59280 H 5533.09 1.72987 1.09068 0
M  V30 59281 H 5531.24 1.51663 3.56479 0
M  V30 59282 H 5531.66 3.72673 3.69074 0
M  V30 59283 H 5533.13 2.52574 4.90826 0
M  V30 59284 H 5533.61 0.946676 4.28876 0
M  V30 59285 H 5534.21 2.41982 3.4975 0
M  V30 59286 N 5532.53 -1.08744 1.14072 0
M  V30 59287 C 5533.78 -1.80437 0.901415 0
M  V30 59288 C 5534.09 -1.86997 -0.573725 0
M  V30 59289 O 5535.3 -2.55068 -0.930185 0
M  V30 59290 C 5533.75 -3.24179 1.56319 0
M  V30 59291 C 5533.36 -3.25864 3.07435 0
M  V30 59292 C 5535.1 -4.00579 1.40487 0
M  V30 59293 C 5533.01 -4.64173 3.66466 0
M  V30 59294 H 5531.94 -0.676189 0.333592 0
M  V30 59295 H 5534.59 -1.22164 1.36924 0
M  V30 59296 H 5532.97 -3.82557 1.02304 0
M  V30 59297 H 5534.15 -2.77212 3.6809 0
M  V30 59298 H 5532.46 -2.62958 3.22866 0
M  V30 59299 H 5535.06 -5.02775 1.81994 0
M  V30 59300 H 5535.4 -4.14821 0.350554 0
M  V30 59301 H 5535.94 -3.48661 1.9152 0
M  V30 59302 H 5532.68 -4.55134 4.71735 0
M  V30 59303 H 5532.2 -5.13121 3.10592 0
M  V30 59304 H 5533.87 -5.33148 3.66555 0
M  V30 59305 N 5534.01 -0.935308 -1.26845 0
M  V30 59306 C 5535.23 -0.595773 -1.98659 0
M  V30 59307 C 5535.66 0.820941 -1.6924 0
M  V30 59308 O 5535.01 1.55207 -0.937037 0
M  V30 59309 C 5535.06 -0.837398 -3.50742 0
M  V30 59310 O 5534.17 0.0933464 -4.12294 0
M  V30 59311 H 5533.51 -0.228534 -0.623433 0
M  V30 59312 H 5536.04 -1.25664 -1.61461 0
M  V30 59313 H 5536.05 -0.755968 -4.00935 0
M  V30 59314 H 5534.72 -1.87006 -3.71486 0
M  V30 59315 H 5533.3 -0.0386435 -3.7288 0
M  V30 59316 N 5535.48 1.41118 -0.701666 0
M  V30 59317 C 5536.45 2.29147 -0.0490897 0
M  V30 59318 C 5537.45 1.44681 0.701712 0
M  V30 59319 O 5538.64 1.65759 0.535691 0
M  V30 59320 C 5535.77 3.27663 0.940722 0
M  V30 59321 H 5536.96 2.88351 -0.824234 0
M  V30 59322 H 5534.52 1.49207 -0.465509 0
M  V30 59323 H 5535.25 2.73451 1.74342 0
M  V30 59324 H 5535.04 3.89998 0.405413 0
M  V30 59325 H 5536.53 3.93613 1.39493 0
M  V30 59326 N 5536.96 0.446847 1.51133 0
M  V30 59327 C 5538.19 -0.117169 2.07069 0
M  V30 59328 C 5538.61 -1.34872 1.31115 0
M  V30 59329 O 5537.97 -1.77854 0.351783 0
M  V30 59330 C 5538.02 -0.40849 3.58279 0
M  V30 59331 O 5537.12 -1.49332 3.84414 0
M  V30 59332 H 5536.46 0.00230792 0.663996 0
M  V30 59333 H 5538.99 0.630919 1.94629 0
M  V30 59334 H 5539 -0.656157 4.02689 0
M  V30 59335 H 5537.68 0.491589 4.12985 0
M  V30 59336 H 5536.26 -1.23487 3.5186 0
M  V30 59337 N 5538.44 -1.56585 0.178542 0
M  V30 59338 C 5539.39 -2.18312 -0.748913 0
M  V30 59339 C 5540.36 -1.12529 -1.22174 0
M  V30 59340 O 5541.54 -1.40711 -1.28861 0
M  V30 59341 C 5538.68 -2.8336 -1.9698 0
M  V30 59342 C 5537.8 -4.03623 -1.53987 0
M  V30 59343 C 5536.93 -4.56577 -2.71498 0
M  V30 59344 C 5535.97 -5.69234 -2.25031 0
M  V30 59345 N 5535.11 -6.16666 -3.3566 0
M  V30 59346 H 5539.95 -2.97218 -0.215765 0
M  V30 59347 H 5537.48 -1.46794 -0.0947666 0
M  V30 59348 H 5539.44 -3.19235 -2.68598 0
M  V30 59349 H 5538.07 -2.07046 -2.47653 0
M  V30 59350 H 5537.12 -3.73521 -0.720167 0
M  V30 59351 H 5538.44 -4.85152 -1.15884 0
M  V30 59352 H 5537.59 -4.94671 -3.51263 0
M  V30 59353 H 5536.33 -3.74121 -3.12865 0
M  V30 59354 H 5535.33 -5.30684 -1.43715 0
M  V30 59355 H 5536.56 -6.53497 -1.84713 0
M  V30 59356 H 5534.5 -5.37137 -3.7659 0
M  V30 59357 H 5534.42 -6.93202 -3.01673 0
M  V30 59358 H 5535.69 -6.59411 -4.15688 0
M  V30 59359 N 5539.92 0.0951507 -1.57313 0
M  V30 59360 C 5541.17 0.797076 -1.85718 0
M  V30 59361 C 5541.49 1.79272 -0.767234 0
M  V30 59362 O 5540.76 1.94808 0.206516 0
M  V30 59363 H 5539.34 0.297358 -0.685264 0
M  V30 59364 H 5542 0.0767932 -1.94749 0
M  V30 59365 H 5541.1 1.3277 -2.82451 0
M  V30 59366 N 5541.4 1.53292 0.365972 0
M  V30 59367 C 5542.31 1.82661 1.47215 0
M  V30 59368 C 5543.32 0.714966 1.58632 0
M  V30 59369 O 5544.5 1.00498 1.74534 0
M  V30 59370 C 5541.56 2.01005 2.82485 0
M  V30 59371 C 5540.62 3.24905 2.80598 0
M  V30 59372 C 5539.86 3.42364 4.09417 0
M  V30 59373 O 5540.08 2.64128 5.05562 0
M  V30 59374 O 5539.01 4.35716 4.15253 0
M  V30 59375 H 5542.84 2.76638 1.2532 0
M  V30 59376 H 5540.43 1.38667 0.556035 0
M  V30 59377 H 5542.31 2.14644 3.62637 0
M  V30 59378 H 5540.98 1.10218 3.04358 0
M  V30 59379 H 5539.89 3.16689 1.99146 0
M  V30 59380 H 5541.22 4.15613 2.63679 0
M  V30 59381 N 5542.88 -0.625749 1.44645 0
M  V30 59382 C 5544.1 -1.41228 1.51203 0
M  V30 59383 C 5544.52 -1.8829 0.138638 0
M  V30 59384 O 5543.88 -1.61154 -0.85648 0
M  V30 59385 C 5543.93 -2.62899 2.48126 0
M  V30 59386 O 5543.65 -2.17797 3.80127 0
M  V30 59387 C 5545.15 -3.55966 2.64202 0
M  V30 59388 H 5542.37 -0.432936 0.512647 0
M  V30 59389 H 5544.91 -0.764793 1.89661 0
M  V30 59390 H 5543.07 -3.23727 2.12789 0
M  V30 59391 H 5543.48 -2.96717 4.32503 0
M  V30 59392 H 5544.96 -4.37931 3.36036 0
M  V30 59393 H 5545.43 -4.05127 1.69615 0
M  V30 59394 H 5546.04 -3.01003 3.00462 0
M  V30 59395 N 5544.35 -1.31632 -0.86664 0
M  V30 59396 C 5545.6 -1.21269 -1.61674 0
M  V30 59397 C 5545.92 0.228494 -1.93657 0
M  V30 59398 O 5545.19 1.15009 -1.58587 0
M  V30 59399 H 5543.77 -0.445838 -0.599365 0
M  V30 59400 H 5546.43 -1.65001 -1.03733 0
M  V30 59401 H 5545.53 -1.78678 -2.55892 0
M  V30 59402 N 5545.83 1.08138 -1.14647 0
M  V30 59403 C 5547.24 1.62058 -0.927043 0
M  V30 59404 C 5547.59 1.88807 0.533511 0
M  V30 59405 O 5546.72 1.64758 1.40299 0
M  V30 59406 C 5547.31 2.94419 -1.6764 0
M  V30 59407 C 5545.87 3.45113 -1.50247 0
M  V30 59408 C 5545.02 2.19301 -1.69713 0
M  V30 59409 H 5547.97 0.913281 -1.29788 0
M  V30 59410 H 5547.99 3.62983 -1.1412 0
M  V30 59411 H 5547.5 2.74918 -2.73937 0
M  V30 59412 H 5545.6 3.69711 -0.463097 0
M  V30 59413 H 5545.72 4.21682 -2.27423 0
M  V30 59414 H 5544.08 2.28607 -1.12299 0
M  V30 59415 H 5544.86 2.02305 -2.77358 0
M  V30 59416 N 5547.31 0.942022 1.26348 0
M  V30 59417 C 5548.24 0.396565 2.24728 0
M  V30 59418 C 5549.22 -0.515086 1.54226 0
M  V30 59419 O 5550.4 -0.452341 1.82992 0
M  V30 59420 C 5547.53 -0.430114 3.35958 0
M  V30 59421 C 5546.58 0.42013 4.24426 0
M  V30 59422 S 5547.41 1.8446 5.02727 0
M  V30 59423 C 5548.57 1.026 6.17434 0
M  V30 59424 H 5548.8 1.23034 2.70647 0
M  V30 59425 H 5546.33 0.745196 1.35226 0
M  V30 59426 H 5548.29 -0.901174 4.00486 0
M  V30 59427 H 5546.95 -1.23858 2.88649 0
M  V30 59428 H 5546.14 -0.213298 5.03548 0
M  V30 59429 H 5545.75 0.825908 3.64767 0
M  V30 59430 H 5548.04 0.268669 6.76967 0
M  V30 59431 H 5548.98 1.79072 6.85083 0
M  V30 59432 H 5549.39 0.561686 5.61699 0
M  V30 59433 N 5548.79 -1.40744 0.70914 0
M  V30 59434 C 5550.03 -2.01299 0.246245 0
M  V30 59435 C 5550.37 -1.56082 -1.15551 0
M  V30 59436 O 5549.64 -0.778004 -1.78262 0
M  V30 59437 C 5549.92 -3.58684 0.319072 0
M  V30 59438 C 5549.78 -4.13991 1.75874 0
M  V30 59439 C 5551.1 -4.38983 -0.313426 0
M  V30 59440 H 5548.22 -0.731366 0.0909512 0
M  V30 59441 H 5550.86 -1.67309 0.900424 0
M  V30 59442 H 5549.01 -3.87771 -0.237913 0
M  V30 59443 H 5550.68 -3.95727 2.37061 0
M  V30 59444 H 5548.92 -3.68522 2.28854 0
M  V30 59445 H 5549.59 -5.23152 1.76113 0
M  V30 59446 H 5552.07 -4.15788 0.161085 0
M  V30 59447 H 5550.95 -5.4841 -0.231991 0
M  V30 59448 H 5551.21 -4.19479 -1.39606 0
M  V30 59449 N 5550.27 -0.454856 -1.50893 0
M  V30 59450 C 5551.23 0.336213 -2.26721 0
M  V30 59451 C 5552.23 0.934594 -1.30851 0
M  V30 59452 O 5553.42 0.806305 -1.54416 0
M  V30 59453 C 5550.55 1.47733 -3.07226 0
M  V30 59454 H 5551.74 -0.328567 -2.98095 0
M  V30 59455 H 5549.3 -0.208474 -1.54903 0
M  V30 59456 H 5550.03 2.17765 -2.4031 0
M  V30 59457 H 5549.82 1.05424 -3.77661 0
M  V30 59458 H 5551.31 2.03579 -3.64617 0
M  V30 59459 N 5551.74 1.56489 -0.186844 0
M  V30 59460 C 5552.71 2.17481 0.72352 0
M  V30 59461 C 5553.71 1.12702 1.14695 0
M  V30 59462 O 5554.9 1.38131 1.06138 0
M  V30 59463 C 5552.03 2.77022 1.98675 0
M  V30 59464 H 5553.22 2.99283 0.192298 0
M  V30 59465 H 5550.77 1.56174 0.0627604 0
M  V30 59466 H 5551.51 1.98996 2.56069 0
M  V30 59467 H 5551.29 3.53717 1.69195 0
M  V30 59468 H 5552.78 3.23882 2.6361 0
M  V30 59469 N 5553.22 -0.0868067 1.57361 0
M  V30 59470 C 5554.45 -0.8021 1.9072 0
M  V30 59471 C 5554.86 -1.71872 0.781364 0
M  V30 59472 O 5554.22 -1.80832 -0.246191 0
M  V30 59473 C 5554.27 -1.60846 3.23745 0
M  V30 59474 O 5553.99 -0.728699 4.31997 0
M  V30 59475 C 5555.49 -2.42608 3.7102 0
M  V30 59476 H 5552.71 -0.228892 0.630753 0
M  V30 59477 H 5555.26 -0.0615621 2.04407 0
M  V30 59478 H 5553.41 -2.30142 3.1163 0
M  V30 59479 H 5553.83 -1.28802 5.08439 0
M  V30 59480 H 5555.3 -2.94667 4.66771 0
M  V30 59481 H 5555.78 -3.21451 2.99275 0
M  V30 59482 H 5556.38 -1.78496 3.8603 0
M  V30 59483 N 5554.7 -1.53484 -0.357838 0
M  V30 59484 C 5555.63 -1.83449 -1.4446 0
M  V30 59485 C 5556.61 -0.68854 -1.55541 0
M  V30 59486 O 5557.8 -0.93912 -1.69983 0
M  V30 59487 C 5554.93 -2.03132 -2.81699 0
M  V30 59488 C 5553.88 -3.1892 -2.85437 0
M  V30 59489 C 5553.21 -3.2391 -4.25425 0
M  V30 59490 C 5554.51 -4.57343 -2.52259 0
M  V30 59491 H 5556.2 -2.7446 -1.19632 0
M  V30 59492 H 5553.75 -1.32062 -0.574066 0
M  V30 59493 H 5555.7 -2.22678 -3.5776 0
M  V30 59494 H 5554.42 -1.08838 -3.07932 0
M  V30 59495 H 5553.08 -2.99206 -2.11828 0
M  V30 59496 H 5552.73 -2.27239 -4.48745 0
M  V30 59497 H 5552.43 -4.01709 -4.2884 0
M  V30 59498 H 5553.95 -3.45649 -5.03348 0
M  V30 59499 H 5555.37 -4.76999 -3.18033 0
M  V30 59500 H 5553.76 -5.37441 -2.66979 0
M  V30 59501 H 5554.83 -4.61927 -1.47485 0
M  V30 59502 N 5556.18 0.618069 -1.44975 0
M  V30 59503 C 5557.12 1.72937 -1.52844 0
M  V30 59504 C 5558.09 1.61809 -0.375113 0
M  V30 59505 O 5559.28 1.81542 -0.587139 0
M  V30 59506 C 5556.42 3.11223 -1.49112 0
M  V30 59507 C 5555.53 3.33233 -2.74918 0
M  V30 59508 C 5554.67 4.61565 -2.62928 0
M  V30 59509 C 5553.71 4.76798 -3.83837 0
M  V30 59510 N 5552.84 5.96419 -3.70445 0
M  V30 59511 H 5557.68 1.65547 -2.47787 0
M  V30 59512 H 5555.22 0.807368 -1.22963 0
M  V30 59513 H 5557.18 3.91215 -1.44937 0
M  V30 59514 H 5555.81 3.17596 -0.577274 0
M  V30 59515 H 5554.86 2.4709 -2.89225 0
M  V30 59516 H 5556.17 3.40365 -3.64628 0
M  V30 59517 H 5555.33 5.49737 -2.5666 0
M  V30 59518 H 5554.07 4.56814 -1.708 0
M  V30 59519 H 5553.07 3.87052 -3.90475 0
M  V30 59520 H 5554.3 4.83354 -4.77018 0
M  V30 59521 H 5552.24 5.92732 -2.81077 0
M  V30 59522 H 5552.16 6.04664 -4.53781 0
M  V30 59523 H 5553.43 6.87117 -3.68091 0
M  V30 59524 N 5557.66 1.3209 0.859647 0
M  V30 59525 C 5558.59 1.23211 1.98346 0
M  V30 59526 C 5559.57 0.117033 1.69697 0
M  V30 59527 O 5560.75 0.303369 1.91816 0
M  V30 59528 C 5557.88 0.949288 3.34075 0
M  V30 59529 C 5556.84 2.02506 3.77061 0
M  V30 59530 C 5556.16 1.59473 5.10365 0
M  V30 59531 C 5557.46 3.43948 3.93062 0
M  V30 59532 H 5559.16 2.17235 2.06033 0
M  V30 59533 H 5556.7 1.04581 0.989894 0
M  V30 59534 H 5558.66 0.873739 4.12242 0
M  V30 59535 H 5557.38 -0.0265947 3.26589 0
M  V30 59536 H 5556.04 2.09068 3.01142 0
M  V30 59537 H 5555.69 0.606432 4.99331 0
M  V30 59538 H 5555.39 2.31448 5.40098 0
M  V30 59539 H 5556.91 1.53346 5.91031 0
M  V30 59540 H 5558.32 3.40003 4.61596 0
M  V30 59541 H 5556.72 4.14229 4.34206 0
M  V30 59542 H 5557.79 3.83975 2.96127 0
M  V30 59543 N 5559.13 -1.07528 1.15219 0
M  V30 59544 C 5560.38 -1.79734 0.924125 0
M  V30 59545 C 5560.7 -1.87074 -0.55029 0
M  V30 59546 O 5559.97 -1.37034 -1.39995 0
M  V30 59547 H 5558.55 -0.665692 0.338914 0
M  V30 59548 H 5561.22 -1.29956 1.4525 0
M  V30 59549 H 5560.31 -2.82251 1.33194 0
M  V30 59550 N 5560.61 -0.948709 -1.25846 0
M  V30 59551 C 5561.86 -0.596006 -1.92693 0
M  V30 59552 C 5562.17 0.870168 -1.75178 0
M  V30 59553 O 5563.38 1.33258 -2.36547 0
M  V30 59554 C 5561.84 -1.01523 -3.45284 0
M  V30 59555 C 5561.44 -2.50354 -3.7152 0
M  V30 59556 C 5563.19 -0.734782 -4.18092 0
M  V30 59557 C 5561.1 -2.86108 -5.17587 0
M  V30 59558 H 5560.03 -0.219196 -0.721435 0
M  V30 59559 H 5562.68 -1.15236 -1.42803 0
M  V30 59560 H 5561.06 -0.38734 -3.94101 0
M  V30 59561 H 5562.23 -3.18112 -3.33379 0
M  V30 59562 H 5560.55 -2.75808 -3.11959 0
M  V30 59563 H 5563.14 -0.978146 -5.25677 0
M  V30 59564 H 5563.49 0.328661 -4.15001 0
M  V30 59565 H 5564.02 -1.32275 -3.75164 0
M  V30 59566 H 5560.76 -3.91446 -5.25786 0
M  V30 59567 H 5560.28 -2.23018 -5.56797 0
M  V30 59568 H 5561.96 -2.7498 -5.85658 0
M  V30 59569 N 5562.09 1.40366 -0.716594 0
M  V30 59570 C 5563.05 2.29082 -0.0733911 0
M  V30 59571 C 5564.05 1.45417 0.686327 0
M  V30 59572 O 5565.24 1.66318 0.51808 0
M  V30 59573 C 5562.38 3.28643 0.905916 0
M  V30 59574 H 5563.57 2.87461 -0.854771 0
M  V30 59575 H 5561.12 1.48705 -0.481309 0
M  V30 59576 H 5561.86 2.75285 1.71431 0
M  V30 59577 H 5561.64 3.90407 0.364026 0
M  V30 59578 H 5563.13 3.95071 1.3531 0
M  V30 59579 N 5563.57 0.462852 1.5065 0
M  V30 59580 C 5564.82 -0.096613 2.01468 0
M  V30 59581 C 5565.13 -1.41525 1.35019 0
M  V30 59582 O 5566.34 -2.05917 1.76948 0
M  V30 59583 C 5564.79 -0.222699 3.5921 0
M  V30 59584 C 5564.4 1.08701 4.34613 0
M  V30 59585 C 5566.14 -0.734564 4.18096 0
M  V30 59586 C 5564.05 0.925169 5.84119 0
M  V30 59587 H 5562.98 -0.0398813 0.752945 0
M  V30 59588 H 5565.63 0.596498 1.73534 0
M  V30 59589 H 5564.01 -0.979404 3.83697 0
M  V30 59590 H 5565.19 1.85403 4.21856 0
M  V30 59591 H 5563.5 1.52935 3.87298 0
M  V30 59592 H 5566.1 -0.872548 5.27533 0
M  V30 59593 H 5566.44 -1.72376 3.78936 0
M  V30 59594 H 5566.98 -0.035474 3.97784 0
M  V30 59595 H 5563.72 1.88749 6.27737 0
M  V30 59596 H 5563.24 0.198392 5.99472 0
M  V30 59597 H 5564.91 0.588488 6.44318 0
M  V30 59598 N 5565.05 -1.56387 0.19514 0
M  V30 59599 C 5565.98 -2.22093 -0.720893 0
M  V30 59600 C 5566.96 -1.18405 -1.22124 0
M  V30 59601 O 5568.14 -1.46911 -1.27007 0
M  V30 59602 C 5565.27 -2.88032 -1.94049 0
M  V30 59603 C 5564.23 -3.97965 -1.57506 0
M  V30 59604 C 5563.55 -4.51068 -2.87127 0
M  V30 59605 C 5564.85 -5.16368 -0.784963 0
M  V30 59606 H 5566.55 -2.98899 -0.17314 0
M  V30 59607 H 5564.09 -1.43767 -0.0818362 0
M  V30 59608 H 5566.05 -3.3268 -2.58654 0
M  V30 59609 H 5564.77 -2.08631 -2.51278 0
M  V30 59610 H 5563.43 -3.54007 -0.952591 0
M  V30 59611 H 5563.08 -3.6843 -3.42445 0
M  V30 59612 H 5562.78 -5.25246 -2.6342 0
M  V30 59613 H 5564.3 -4.98418 -3.5272 0
M  V30 59614 H 5565.71 -5.57561 -1.33412 0
M  V30 59615 H 5564.11 -5.96613 -0.646022 0
M  V30 59616 H 5565.18 -4.84428 0.213959 0
M  V30 59617 N 5566.52 0.0784603 -1.57405 0
M  V30 59618 C 5567.47 1.1127 -2.04259 0
M  V30 59619 C 5568.47 1.40479 -0.946682 0
M  V30 59620 O 5569.67 1.39964 -1.13182 0
M  V30 59621 H 5566.05 0.376134 -0.651174 0
M  V30 59622 H 5568.02 0.691335 -2.90281 0
M  V30 59623 C 5566.77 2.41998 -2.49665 0
M  V30 59624 H 5566.09 2.20371 -3.33582 0
M  V30 59625 H 5567.53 3.12827 -2.86208 0
M  V30 59626 C 5565.99 3.07483 -1.37679 0
M  V30 59627 O 5566.52 3.95282 -0.715175 0
M  V30 59628 N 5564.73 2.68 -1.12359 0
M  V30 59629 H 5564.27 1.96692 -1.66342 0
M  V30 59630 H 5564.23 3.12139 -0.376348 0
M  V30 59631 N 5568 1.53671 0.349693 0
M  V30 59632 C 5569.25 1.70285 1.08847 0
M  V30 59633 C 5569.57 0.465504 1.89362 0
M  V30 59634 O 5568.84 -0.520549 1.88857 0
M  V30 59635 H 5567.42 0.62779 0.404832 0
M  V30 59636 H 5570.08 1.90908 0.392455 0
M  V30 59637 H 5569.18 2.57102 1.76932 0
M  V30 59638 N 5569.48 -0.610372 1.453 0
M  V30 59639 C 5570.73 -1.36675 1.48877 0
M  V30 59640 C 5571.05 -1.94561 0.130755 0
M  V30 59641 O 5570.32 -1.76998 -0.839545 0
M  V30 59642 H 5568.9 -0.507374 0.548253 0
M  V30 59643 H 5571.56 -0.716933 1.81235 0
M  V30 59644 H 5570.66 -2.18758 2.22601 0
M  V30 59645 N 5570.96 -1.32544 -0.85263 0
M  V30 59646 C 5571.91 -1.21609 -1.98278 0
M  V30 59647 C 5572.9 -0.120444 -1.68971 0
M  V30 59648 O 5574.11 -0.283503 -1.77753 0
M  V30 59649 H 5570.48 -0.377016 -0.650663 0
M  V30 59650 H 5572.45 -2.17186 -2.04628 0
M  V30 59651 C 5571.2 -0.958082 -3.3424 0
M  V30 59652 H 5570.52 -1.79337 -3.57321 0
M  V30 59653 H 5571.96 -0.921819 -4.13858 0
M  V30 59654 C 5570.42 0.339154 -3.35189 0
M  V30 59655 O 5570.95 1.35037 -3.78323 0
M  V30 59656 N 5569.16 0.361843 -2.88338 0
M  V30 59657 H 5568.71 -0.461586 -2.53431 0
M  V30 59658 H 5568.66 1.22966 -2.89356 0
M  V30 59659 N 5572.44 1.06915 -1.15788 0
M  V30 59660 C 5573.66 1.83846 -0.959967 0
M  V30 59661 C 5574.09 1.81691 0.48681 0
M  V30 59662 O 5573.45 1.2131 1.34735 0
M  V30 59663 C 5573.49 3.28637 -1.48425 0
M  V30 59664 O 5572.6 4.06648 -0.686392 0
M  V30 59665 H 5571.94 0.569103 -0.342079 0
M  V30 59666 H 5574.47 1.34845 -1.53876 0
M  V30 59667 H 5574.48 3.79465 -1.49901 0
M  V30 59668 H 5573.15 3.2952 -2.5375 0
M  V30 59669 H 5571.73 3.65451 -0.74163 0
M  V30 59670 N 5573.92 0.95537 1.25341 0
M  V30 59671 C 5575.14 0.627762 1.97147 0
M  V30 59672 C 5575.56 -0.800289 1.70999 0
M  V30 59673 O 5574.92 -1.53542 0.986471 0
M  V30 59674 C 5574.97 0.877798 3.50681 0
M  V30 59675 O 5574.69 2.2497 3.75926 0
M  V30 59676 C 5576.19 0.562679 4.39714 0
M  V30 59677 H 5573.41 0.235291 0.628394 0
M  V30 59678 H 5575.95 1.27995 1.59492 0
M  V30 59679 H 5574.11 0.272013 3.86444 0
M  V30 59680 H 5574.52 2.32039 4.70381 0
M  V30 59681 H 5576 0.788164 5.46344 0
M  V30 59682 H 5576.47 -0.502777 4.36313 0
M  V30 59683 H 5577.08 1.14782 4.09518 0
M  V30 59684 N 5575.39 -1.39984 0.724028 0
M  V30 59685 C 5576.64 -2.01027 0.267581 0
M  V30 59686 C 5576.97 -1.57299 -1.13889 0
M  V30 59687 O 5576.25 -0.796867 -1.77427 0
M  V30 59688 C 5576.53 -3.58325 0.357097 0
M  V30 59689 C 5576.38 -4.12102 1.80255 0
M  V30 59690 C 5577.7 -4.3929 -0.266848 0
M  V30 59691 H 5574.82 -0.730361 0.0987032 0
M  V30 59692 H 5577.46 -1.66345 0.918119 0
M  V30 59693 H 5575.61 -3.88001 -0.196772 0
M  V30 59694 H 5577.29 -3.9319 2.41245 0
M  V30 59695 H 5575.53 -3.66073 2.3275 0
M  V30 59696 H 5576.2 -5.21255 1.81652 0
M  V30 59697 H 5578.68 -4.15594 0.205176 0
M  V30 59698 H 5577.55 -5.48625 -0.173812 0
M  V30 59699 H 5577.81 -4.20936 -1.35149 0
M  V30 59700 N 5576.87 -0.470835 -1.50402 0
M  V30 59701 C 5577.8 0.359758 -2.26359 0
M  V30 59702 C 5578.82 0.957304 -1.3168 0
M  V30 59703 O 5580.01 0.845754 -1.57192 0
M  V30 59704 C 5577.11 1.51854 -3.02975 0
M  V30 59705 C 5576.28 1.03382 -4.25007 0
M  V30 59706 C 5575.34 2.06662 -4.83918 0
M  V30 59707 O 5574.36 1.64734 -5.44841 0
M  V30 59708 N 5575.57 3.39467 -4.70895 0
M  V30 59709 H 5578.33 -0.291404 -2.9828 0
M  V30 59710 H 5575.89 -0.301605 -1.59066 0
M  V30 59711 H 5577.88 2.20638 -3.39265 0
M  V30 59712 H 5576.45 2.0744 -2.33854 0
M  V30 59713 H 5575.67 0.171873 -3.93825 0
M  V30 59714 H 5576.96 0.687893 -5.04128 0
M  V30 59715 H 5576.36 3.76241 -4.22444 0
M  V30 59716 H 5574.92 4.0405 -5.11455 0
M  V30 59717 N 5578.35 1.56282 -0.203431 0
M  V30 59718 C 5579.28 2.16717 0.746084 0
M  V30 59719 C 5580.29 1.13125 1.17075 0
M  V30 59720 O 5581.48 1.40182 1.10504 0
M  V30 59721 C 5578.58 2.72122 2.01997 0
M  V30 59722 C 5577.76 4.00701 1.75377 0
M  V30 59723 C 5576.82 4.4085 2.87295 0
M  V30 59724 O 5575.84 5.08109 2.56543 0
M  V30 59725 N 5577.04 4.05038 4.15842 0
M  V30 59726 H 5579.81 2.98822 0.22922 0
M  V30 59727 H 5577.37 1.61885 -0.0217618 0
M  V30 59728 H 5579.36 2.9596 2.76024 0
M  V30 59729 H 5577.93 1.94423 2.44782 0
M  V30 59730 H 5577.15 3.84908 0.850865 0
M  V30 59731 H 5578.44 4.84616 1.55 0
M  V30 59732 H 5577.84 3.50954 4.43675 0
M  V30 59733 H 5576.39 4.33809 4.8647 0
M  V30 59734 N 5579.83 -0.0701116 1.57444 0
M  V30 59735 C 5580.77 -1.08315 2.03805 0
M  V30 59736 C 5581.74 -1.38361 0.918995 0
M  V30 59737 O 5582.93 -1.494 1.18678 0
M  V30 59738 C 5580.07 -2.39119 2.48829 0
M  V30 59739 C 5579.18 -2.15589 3.7436 0
M  V30 59740 C 5578.32 -3.39969 4.0816 0
M  V30 59741 C 5577.36 -3.11811 5.26726 0
M  V30 59742 N 5576.49 -4.28526 5.56156 0
M  V30 59743 H 5581.33 -0.680829 2.90118 0
M  V30 59744 H 5578.87 -0.324606 1.43474 0
M  V30 59745 H 5580.83 -3.15491 2.72986 0
M  V30 59746 H 5579.46 -2.77151 1.65491 0
M  V30 59747 H 5578.51 -1.29903 3.57532 0
M  V30 59748 H 5579.82 -1.90792 4.60869 0
M  V30 59749 H 5578.98 -4.24735 4.33226 0
M  V30 59750 H 5577.72 -3.67845 3.20221 0
M  V30 59751 H 5576.72 -2.25442 5.01454 0
M  V30 59752 H 5577.95 -2.85257 6.16284 0
M  V30 59753 H 5575.89 -4.5643 4.71177 0
M  V30 59754 H 5575.81 -4.07008 6.37088 0
M  V30 59755 H 5577.08 -5.14284 5.85775 0
M  V30 59756 N 5581.31 -1.53855 -0.341539 0
M  V30 59757 C 5582.24 -1.76802 -1.44278 0
M  V30 59758 C 5583.22 -0.61721 -1.5043 0
M  V30 59759 O 5584.4 -0.8526 -1.68116 0
M  V30 59760 C 5581.53 -1.86847 -2.825 0
M  V30 59761 C 5580.57 -3.09012 -2.93963 0
M  V30 59762 S 5581.41 -4.68021 -2.60224 0
M  V30 59763 C 5582.56 -4.80947 -4.00551 0
M  V30 59764 H 5582.8 -2.69932 -1.24596 0
M  V30 59765 H 5580.33 -1.44749 -0.537324 0
M  V30 59766 H 5582.29 -1.93319 -3.6213 0
M  V30 59767 H 5580.95 -0.947267 -2.99476 0
M  V30 59768 H 5580.14 -3.1272 -3.95249 0
M  V30 59769 H 5579.74 -3.00776 -2.22283 0
M  V30 59770 H 5582.03 -4.6248 -4.95095 0
M  V30 59771 H 5582.98 -5.83039 -4.01835 0
M  V30 59772 H 5583.39 -4.09386 -3.88669 0
M  V30 59773 N 5582.78 0.602658 -1.45622 0
M  V30 59774 C 5583.71 1.72368 -1.57516 0
M  V30 59775 C 5584.69 1.64668 -0.426447 0
M  V30 59776 O 5585.88 1.82992 -0.650208 0
M  V30 59777 C 5583.01 3.10982 -1.54621 0
M  V30 59778 C 5581.96 3.33498 -2.6826 0
M  V30 59779 C 5581.29 4.72434 -2.5042 0
M  V30 59780 C 5582.59 3.23271 -4.10235 0
M  V30 59781 H 5584.28 1.62671 -2.51354 0
M  V30 59782 H 5581.83 0.781174 -1.2097 0
M  V30 59783 H 5583.78 3.89209 -1.61538 0
M  V30 59784 H 5582.51 3.21531 -0.573162 0
M  V30 59785 H 5581.17 2.57663 -2.60778 0
M  V30 59786 H 5580.81 4.79723 -1.51243 0
M  V30 59787 H 5580.51 4.88454 -3.26628 0
M  V30 59788 H 5582.04 5.52855 -2.59198 0
M  V30 59789 H 5583.45 3.91366 -4.18934 0
M  V30 59790 H 5581.85 3.5082 -4.86873 0
M  V30 59791 H 5582.92 2.20637 -4.31796 0
M  V30 59792 N 5584.26 1.32995 0.845589 0
M  V30 59793 C 5585.54 1.14677 1.58457 0
M  V30 59794 C 5585.92 -0.289425 2.09107 0
M  V30 59795 O 5585.27 -1.28745 1.88778 0
M  V30 59796 C 5585.48 2.18215 2.72366 0
M  V30 59797 C 5586.82 2.52022 3.41717 0
M  V30 59798 O 5587.85 2.16831 2.826 0
M  V30 59799 O 5586.71 3.12383 4.48418 0
M  V30 59800 H 5583.8 0.443113 0.698269 0
M  V30 59801 H 5586.35 1.44555 0.888928 0
M  V30 59802 H 5585.12 3.14715 2.3253 0
M  V30 59803 H 5584.74 1.89384 3.49599 0
M  V30 59804 N 5585.74 -1.063 1.16353 0
M  V30 59805 C 5586.97 -1.82531 0.967789 0
M  V30 59806 C 5587.38 -1.82818 -0.487274 0
M  V30 59807 O 5586.72 -1.24586 -1.34996 0
M  V30 59808 C 5586.78 -3.30344 1.41822 0
M  V30 59809 C 5586.45 -3.53759 2.89316 0
M  V30 59810 C 5587.44 -3.46813 3.8732 0
M  V30 59811 C 5585.13 -3.81082 3.27233 0
M  V30 59812 C 5587.12 -3.66856 5.21244 0
M  V30 59813 C 5584.81 -4.00775 4.61327 0
M  V30 59814 C 5585.81 -3.93659 5.58141 0
M  V30 59815 O 5585.5 -4.12815 6.89811 0
M  V30 59816 H 5585.23 -0.582395 0.343209 0
M  V30 59817 H 5587.78 -1.35017 1.54789 0
M  V30 59818 H 5586.01 -3.78719 0.78159 0
M  V30 59819 H 5587.7 -3.88067 1.1899 0
M  V30 59820 H 5588.47 -3.25694 3.59372 0
M  V30 59821 H 5584.35 -3.85731 2.52454 0
M  V30 59822 H 5587.89 -3.61217 5.96798 0
M  V30 59823 H 5583.79 -4.21383 4.88985 0
M  V30 59824 H 5584.55 -4.30103 6.96386 0
M  V30 59825 N 5587.22 -0.962004 -1.24833 0
M  V30 59826 C 5588.15 -0.506321 -2.27944 0
M  V30 59827 C 5589.13 0.451126 -1.64009 0
M  V30 59828 O 5590.31 0.348485 -1.91048 0
M  V30 59829 C 5587.44 0.209724 -3.46666 0
M  V30 59830 C 5586.4 -0.663183 -4.22831 0
M  V30 59831 C 5585.72 0.184028 -5.34383 0
M  V30 59832 C 5587.02 -1.94496 -4.84736 0
M  V30 59833 H 5588.72 -1.36814 -2.66312 0
M  V30 59834 H 5586.26 -0.659305 -1.2802 0
M  V30 59835 H 5588.22 0.539691 -4.1793 0
M  V30 59836 H 5586.94 1.10585 -3.07308 0
M  V30 59837 H 5585.6 -0.97634 -3.5336 0
M  V30 59838 H 5585.25 1.08013 -4.91266 0
M  V30 59839 H 5584.95 -0.396776 -5.86259 0
M  V30 59840 H 5586.47 0.508795 -6.08476 0
M  V30 59841 H 5587.89 -1.68094 -5.48103 0
M  V30 59842 H 5586.28 -2.47202 -5.46819 0
M  V30 59843 H 5587.35 -2.64347 -4.06508 0
M  V30 59844 N 5588.7 1.39598 -0.731441 0
M  V30 59845 C 5589.64 2.30628 -0.0891417 0
M  V30 59846 C 5590.61 1.49028 0.733477 0
M  V30 59847 O 5591.8 1.77724 0.694172 0
M  V30 59848 C 5588.94 3.35342 0.814838 0
M  V30 59849 C 5588.05 4.31995 -0.0200125 0
M  V30 59850 C 5587.19 5.23777 0.884911 0
M  V30 59851 C 5586.23 6.12083 0.0450958 0
M  V30 59852 N 5585.36 6.96233 0.905758 0
M  V30 59853 H 5590.2 2.84985 -0.871058 0
M  V30 59854 H 5587.74 1.40327 -0.441216 0
M  V30 59855 H 5589.7 3.94639 1.35336 0
M  V30 59856 H 5588.33 2.82449 1.56277 0
M  V30 59857 H 5587.38 3.74347 -0.67591 0
M  V30 59858 H 5588.69 4.94286 -0.66952 0
M  V30 59859 H 5587.85 5.88083 1.4914 0
M  V30 59860 H 5586.58 4.61799 1.56821 0
M  V30 59861 H 5585.59 5.46793 -0.574221 0
M  V30 59862 H 5586.81 6.76125 -0.63493 0
M  V30 59863 H 5584.76 6.36827 1.57441 0
M  V30 59864 H 5584.68 7.55353 0.312649 0
M  V30 59865 H 5585.95 7.64972 1.49792 0
M  V30 59866 N 5590.17 0.478804 1.50151 0
M  V30 59867 C 5591.08 -0.316472 2.32456 0
M  V30 59868 C 5592.1 -0.98866 1.43184 0
M  V30 59869 O 5593.28 -0.974937 1.7623 0
M  V30 59870 C 5590.34 -1.37979 3.18061 0
M  V30 59871 C 5589.4 -0.723385 4.23161 0
M  V30 59872 C 5588.64 -1.73604 5.04676 0
M  V30 59873 O 5588.86 -2.96345 4.87376 0
M  V30 59874 O 5587.79 -1.3036 5.87614 0
M  V30 59875 H 5591.62 0.356597 3.01599 0
M  V30 59876 H 5589.2 0.240512 1.47451 0
M  V30 59877 H 5591.09 -1.99552 3.71156 0
M  V30 59878 H 5589.76 -2.03619 2.51637 0
M  V30 59879 H 5588.67 -0.0684981 3.74037 0
M  V30 59880 H 5590 -0.109806 4.92077 0
M  V30 59881 N 5591.65 -1.56171 0.211716 0
M  V30 59882 C 5592.6 -2.19851 -0.702437 0
M  V30 59883 C 5593.57 -1.15095 -1.19759 0
M  V30 59884 O 5594.75 -1.43412 -1.25847 0
M  V30 59885 C 5591.89 -2.87475 -1.90925 0
M  V30 59886 C 5591.01 -4.06799 -1.45391 0
M  V30 59887 C 5590.14 -4.62233 -2.61752 0
M  V30 59888 C 5589.18 -5.73879 -2.12906 0
M  V30 59889 N 5588.32 -6.23647 -3.22504 0
M  V30 59890 H 5593.16 -2.97609 -0.152672 0
M  V30 59891 H 5590.7 -1.46962 -0.063608 0
M  V30 59892 H 5592.65 -3.24861 -2.61766 0
M  V30 59893 H 5591.28 -2.12252 -2.43205 0
M  V30 59894 H 5590.34 -3.74964 -0.640776 0
M  V30 59895 H 5591.65 -4.87501 -1.05567 0
M  V30 59896 H 5590.8 -5.02011 -3.40691 0
M  V30 59897 H 5589.54 -3.80673 -3.04859 0
M  V30 59898 H 5588.55 -5.33613 -1.32426 0
M  V30 59899 H 5589.77 -6.57268 -1.7081 0
M  V30 59900 H 5587.72 -5.45004 -3.65112 0
M  V30 59901 H 5587.63 -6.99445 -2.86901 0
M  V30 59902 H 5588.9 -6.68081 -4.01608 0
M  V30 59903 N 5593.13 0.061761 -1.57479 0
M  V30 59904 C 5594.08 1.07233 -2.04376 0
M  V30 59905 C 5595.05 1.37871 -0.92632 0
M  V30 59906 O 5596.23 1.48768 -1.19468 0
M  V30 59907 C 5593.37 2.37796 -2.50094 0
M  V30 59908 C 5592.49 2.13601 -3.75498 0
M  V30 59909 C 5591.62 3.378 -4.09957 0
M  V30 59910 C 5590.66 3.09014 -5.28372 0
M  V30 59911 N 5589.8 4.25571 -5.58421 0
M  V30 59912 H 5594.64 0.665434 -2.90475 0
M  V30 59913 H 5592.17 0.316993 -1.43644 0
M  V30 59914 H 5594.13 3.14039 -2.74655 0
M  V30 59915 H 5592.76 2.76269 -1.66958 0
M  V30 59916 H 5591.81 1.28005 -3.58216 0
M  V30 59917 H 5593.13 1.88345 -4.61874 0
M  V30 59918 H 5592.28 4.22432 -4.35473 0
M  V30 59919 H 5591.02 3.66141 -3.22167 0
M  V30 59920 H 5590.02 2.22779 -5.02642 0
M  V30 59921 H 5591.25 2.81984 -6.17788 0
M  V30 59922 H 5589.19 4.53925 -4.73591 0
M  V30 59923 H 5589.11 4.03623 -6.39237 0
M  V30 59924 H 5590.38 5.11171 -5.88494 0
M  V30 59925 N 5594.61 1.54034 0.333374 0
M  V30 59926 C 5595.89 1.62408 1.0901 0
M  V30 59927 C 5596.27 0.451725 2.0621 0
M  V30 59928 O 5595.61 -0.555008 2.21657 0
M  V30 59929 C 5595.82 2.98955 1.80074 0
M  V30 59930 C 5597.17 3.54663 2.33451 0
M  V30 59931 O 5598.2 3.01196 1.90156 0
M  V30 59932 O 5597.05 4.48206 3.12688 0
M  V30 59933 H 5594.15 0.657288 0.501898 0
M  V30 59934 H 5596.69 1.6638 0.334051 0
M  V30 59935 H 5595.47 3.75719 1.09319 0
M  V30 59936 H 5595.09 2.98618 2.62513 0
M  V30 59937 N 5596.09 -0.594927 1.4594 0
M  V30 59938 C 5597.33 -1.35556 1.50839 0
M  V30 59939 C 5597.67 -1.93583 0.154634 0
M  V30 59940 O 5596.94 -1.75784 -0.832479 0
M  V30 59941 C 5597.22 -2.49405 2.59748 0
M  V30 59942 C 5597.08 -1.96492 4.04612 0
M  V30 59943 C 5598.4 -3.51496 2.64837 0
M  V30 59944 H 5595.51 -0.49153 0.549151 0
M  V30 59945 H 5598.16 -0.669474 1.77815 0
M  V30 59946 H 5596.31 -3.07931 2.36877 0
M  V30 59947 H 5597.98 -1.42517 4.38733 0
M  V30 59948 H 5596.22 -1.27403 4.1467 0
M  V30 59949 H 5596.89 -2.78619 4.76524 0
M  V30 59950 H 5599.37 -3.02831 2.85364 0
M  V30 59951 H 5598.24 -4.28629 3.42882 0
M  V30 59952 H 5598.51 -4.07936 1.70414 0
M  V30 59953 N 5597.56 -1.33441 -0.838524 0
M  V30 59954 C 5598.81 -1.24671 -1.59065 0
M  V30 59955 C 5599.13 0.187365 -1.94098 0
M  V30 59956 O 5598.4 1.11619 -1.60991 0
M  V30 59957 H 5596.98 -0.458451 -0.589773 0
M  V30 59958 H 5599.65 -1.67164 -1.0021 0
M  V30 59959 H 5598.74 -1.84065 -2.52044 0
M  V30 59960 N 5599.04 1.05681 -1.16915 0
M  V30 59961 C 5600.29 1.78594 -0.954488 0
M  V30 59962 C 5600.62 1.87496 0.517249 0
M  V30 59963 O 5599.87 1.36741 1.40001 0
M  V30 59964 C 5600.17 3.22774 -1.53466 0
M  V30 59965 C 5599.84 3.3394 -3.02977 0
M  V30 59966 C 5598.5 3.36694 -3.43788 0
M  V30 59967 C 5600.85 3.35357 -3.9898 0
M  V30 59968 C 5598.18 3.38489 -4.7921 0
M  V30 59969 C 5600.53 3.3869 -5.34296 0
M  V30 59970 C 5599.2 3.39729 -5.74578 0
M  V30 59971 H 5598.47 0.653521 -0.349272 0
M  V30 59972 H 5601.11 1.2424 -1.45728 0
M  V30 59973 H 5599.42 3.80021 -0.953464 0
M  V30 59974 H 5601.11 3.778 -1.34417 0
M  V30 59975 H 5597.7 3.32505 -2.7044 0
M  V30 59976 H 5601.89 3.32434 -3.68512 0
M  V30 59977 H 5597.14 3.37601 -5.09741 0
M  V30 59978 H 5601.32 3.38734 -6.08467 0
M  V30 59979 H 5598.95 3.40873 -6.79492 0
M  V30 59980 N 5600.52 0.96861 1.24321 0
M  V30 59981 C 5601.77 0.630996 1.92418 0
M  V30 59982 C 5602.1 -0.83394 1.75715 0
M  V30 59983 O 5601.35 -1.61554 1.10448 0
M  V30 59984 C 5601.65 0.952883 3.44463 0
M  V30 59985 C 5601.32 2.40611 3.81336 0
M  V30 59986 C 5599.98 2.8033 3.91112 0
M  V30 59987 C 5602.33 3.3492 3.99347 0
M  V30 59988 C 5599.66 4.13397 4.16317 0
M  V30 59989 C 5602.01 4.67617 4.26048 0
M  V30 59990 C 5600.67 5.07112 4.34044 0
M  V30 59991 H 5599.94 0.230898 0.704107 0
M  V30 59992 H 5602.59 1.22027 1.47586 0
M  V30 59993 H 5600.9 0.281381 3.90788 0
M  V30 59994 H 5602.59 0.670039 3.95362 0
M  V30 59995 H 5599.18 2.08813 3.74293 0
M  V30 59996 H 5603.37 3.05418 3.91195 0
M  V30 59997 H 5598.62 4.43621 4.20726 0
M  V30 59998 H 5602.8 5.40661 4.38929 0
M  V30 59999 H 5600.42 6.10245 4.53327 0
M  V30 60000 N 5602 -1.39208 0.738834 0
M  V30 60001 C 5602.93 -2.29117 0.0617294 0
M  V30 60002 C 5603.94 -1.47011 -0.69941 0
M  V30 60003 O 5605.13 -1.70042 -0.542939 0
M  V30 60004 C 5602.23 -3.25696 -0.936778 0
M  V30 60005 C 5601.41 -4.36761 -0.236362 0
M  V30 60006 C 5600.47 -5.13624 -1.14352 0
M  V30 60007 O 5599.49 -5.65818 -0.619563 0
M  V30 60008 N 5600.69 -5.25192 -2.47292 0
M  V30 60009 H 5603.46 -2.87867 0.833812 0
M  V30 60010 H 5601.02 -1.5083 0.588376 0
M  V30 60011 H 5603.01 -3.73992 -1.54635 0
M  V30 60012 H 5601.58 -2.67949 -1.61004 0
M  V30 60013 H 5600.8 -3.90291 0.553732 0
M  V30 60014 H 5602.09 -5.08191 0.248886 0
M  V30 60015 H 5601.49 -4.84312 -2.92332 0
M  V30 60016 H 5600.04 -5.76915 -3.03335 0
M  V30 60017 N 5603.48 -0.48676 -1.49895 0
M  V30 60018 C 5604.7 0.062227 -2.07307 0
M  V30 60019 C 5605.13 1.31349 -1.34645 0
M  V30 60020 O 5604.49 1.76859 -0.398814 0
M  V30 60021 C 5604.53 0.313355 -3.59236 0
M  V30 60022 O 5603.64 1.39087 -3.88238 0
M  V30 60023 H 5602.98 -0.0199118 -0.663701 0
M  V30 60024 H 5605.51 -0.682299 -1.92888 0
M  V30 60025 H 5605.52 0.54916 -4.04287 0
M  V30 60026 H 5604.19 -0.600912 -4.11536 0
M  V30 60027 H 5602.77 1.14114 -3.5501 0
M  V30 60028 N 5604.96 1.56057 -0.219996 0
M  V30 60029 C 5605.89 2.23212 0.685469 0
M  V30 60030 C 5606.87 1.20333 1.20225 0
M  V30 60031 O 5608.05 1.48913 1.24654 0
M  V30 60032 C 5605.18 2.91082 1.89442 0
M  V30 60033 C 5604.14 4.0042 1.51154 0
M  V30 60034 C 5603.46 4.55579 2.79914 0
M  V30 60035 C 5604.76 5.17551 0.702714 0
M  V30 60036 H 5606.46 2.99137 0.125566 0
M  V30 60037 H 5604 1.43879 0.0589537 0
M  V30 60038 H 5605.95 3.36753 2.53329 0
M  V30 60039 H 5604.68 2.12603 2.47927 0
M  V30 60040 H 5603.34 3.55478 0.89615 0
M  V30 60041 H 5602.99 3.73831 3.3654 0
M  V30 60042 H 5602.69 5.2937 2.55031 0
M  V30 60043 H 5604.21 5.03967 3.44746 0
M  V30 60044 H 5605.62 5.59613 1.24524 0
M  V30 60045 H 5604.02 5.97565 0.551024 0
M  V30 60046 H 5605.09 4.84026 -0.291 0
M  V30 60047 N 5606.43 -0.0534086 1.57509 0
M  V30 60048 C 5607.4 -1.04597 2.03942 0
M  V30 60049 C 5608.4 -1.30506 0.939403 0
M  V30 60050 O 5609.59 -1.25918 1.20376 0
M  V30 60051 C 5606.72 -2.38508 2.43571 0
M  V30 60052 H 5607.91 -0.645381 2.92873 0
M  V30 60053 H 5605.46 -0.299629 1.53401 0
M  V30 60054 H 5606.2 -2.83363 1.57721 0
M  V30 60055 H 5605.98 -2.21039 3.23858 0
M  V30 60056 H 5607.47 -3.09816 2.80007 0
M  V30 60057 N 5607.91 -1.54208 -0.325201 0
M  V30 60058 C 5609.16 -1.71995 -1.06124 0
M  V30 60059 C 5609.48 -0.495571 -1.88598 0
M  V30 60060 O 5608.75 0.490437 -1.89662 0
M  V30 60061 H 5607.33 -0.634151 -0.394793 0
M  V30 60062 H 5609.99 -1.91508 -0.362034 0
M  V30 60063 H 5609.09 -2.59884 -1.7282 0
M  V30 60064 N 5609.39 0.587179 -1.46253 0
M  V30 60065 C 5610.32 1.70688 -1.59336 0
M  V30 60066 C 5611.3 1.64206 -0.443888 0
M  V30 60067 O 5612.49 1.82292 -0.66958 0
M  V30 60068 C 5609.62 3.09324 -1.57911 0
M  V30 60069 C 5608.57 3.30634 -2.71782 0
M  V30 60070 C 5607.9 4.69752 -2.55416 0
M  V30 60071 C 5609.2 3.18902 -4.13641 0
M  V30 60072 H 5610.89 1.59996 -2.53065 0
M  V30 60073 H 5608.44 0.7683 -1.21791 0
M  V30 60074 H 5610.39 3.87473 -1.65657 0
M  V30 60075 H 5609.11 3.20905 -0.607233 0
M  V30 60076 H 5607.77 2.54883 -2.63497 0
M  V30 60077 H 5607.42 4.78092 -1.56322 0
M  V30 60078 H 5607.12 4.84963 -3.31791 0
M  V30 60079 H 5608.64 5.50075 -2.65048 0
M  V30 60080 H 5610.06 3.869 -4.23061 0
M  V30 60081 H 5608.45 3.45636 -4.90567 0
M  V30 60082 H 5609.52 2.16045 -4.34111 0
M  V30 60083 N 5610.87 1.33884 0.831435 0
M  V30 60084 C 5611.8 1.19096 1.94657 0
M  V30 60085 C 5612.78 0.0846277 1.6238 0
M  V30 60086 O 5613.96 0.248229 1.86858 0
M  V30 60087 C 5611.09 0.828339 3.28415 0
M  V30 60088 C 5610.14 1.94323 3.79659 0
M  V30 60089 S 5610.97 3.55538 4.00441 0
M  V30 60090 C 5612.12 3.21298 5.37139 0
M  V30 60091 H 5612.36 2.13491 2.06903 0
M  V30 60092 H 5609.89 1.18812 0.986056 0
M  V30 60093 H 5611.85 0.625902 4.057 0
M  V30 60094 H 5610.51 -0.0971353 3.1395 0
M  V30 60095 H 5609.7 1.64304 4.76466 0
M  V30 60096 H 5609.3 2.10271 3.09293 0
M  V30 60097 H 5611.6 2.72585 6.20245 0
M  V30 60098 H 5612.54 4.17214 5.72135 0
M  V30 60099 H 5612.95 2.57701 5.02246 0
M  V30 60100 N 5612.35 -1.0506 1.17474 0
M  V30 60101 C 5613.28 -2.12839 0.850419 0
M  V30 60102 C 5614.29 -1.62128 -0.147739 0
M  V30 60103 O 5615.48 -1.78326 0.0787401 0
M  V30 60104 C 5612.58 -3.37994 0.247605 0
M  V30 60105 C 5611.75 -4.17977 1.28895 0
M  V30 60106 C 5610.81 -5.21474 0.703659 0
M  V30 60107 O 5609.84 -5.52323 1.37581 0
M  V30 60108 N 5611.04 -5.78311 -0.503667 0
M  V30 60109 H 5613.8 -2.41258 1.77806 0
M  V30 60110 H 5611.37 -1.21168 1.07377 0
M  V30 60111 H 5613.36 -4.04394 -0.157282 0
M  V30 60112 H 5611.93 -3.07099 -0.583844 0
M  V30 60113 H 5611.15 -3.47047 1.86954 0
M  V30 60114 H 5612.44 -4.68213 1.99132 0
M  V30 60115 H 5611.83 -5.55533 -1.06767 0
M  V30 60116 H 5610.39 -6.46226 -0.850601 0
M  V30 60117 N 5613.82 -0.97519 -1.23806 0
M  V30 60118 C 5615.05 -0.658674 -1.96663 0
M  V30 60119 C 5615.47 0.766684 -1.71766 0
M  V30 60120 O 5614.83 1.52148 -0.985941 0
M  V30 60121 C 5614.88 -0.94856 -3.479 0
M  V30 60122 O 5613.98 -0.0378691 -4.12383 0
M  V30 60123 H 5613.32 -0.248253 -0.615846 0
M  V30 60124 H 5615.85 -1.30737 -1.57382 0
M  V30 60125 H 5615.86 -0.88314 -3.98327 0
M  V30 60126 H 5614.54 -1.98729 -3.65348 0
M  V30 60127 H 5613.12 -0.157253 -3.72568 0
M  V30 60128 N 5615.3 1.38815 -0.746207 0
M  V30 60129 C 5616.54 2.02128 -0.303914 0
M  V30 60130 C 5616.91 1.57947 1.09165 0
M  V30 60131 O 5618.11 2.13537 1.63264 0
M  V30 60132 C 5616.38 3.54988 -0.414504 0
M  V30 60133 S 5617.94 4.38767 -0.0537037 0
M  V30 60134 H 5614.75 0.70108 -0.118353 0
M  V30 60135 H 5617.36 1.69441 -0.975197 0
M  V30 60136 H 5616.06 3.84633 -1.43128 0
M  V30 60137 H 5615.59 3.92443 0.274217 0
M  V30 60138 H 5617.61 4.82474 1.15904 0
M  V30 60139 N 5616.78 0.494703 1.49634 0
M  V30 60140 C 5618.01 -0.0512321 2.07337 0
M  V30 60141 C 5618.43 -1.30633 1.35339 0
M  V30 60142 O 5617.79 -1.76645 0.408188 0
M  V30 60143 C 5617.84 -0.294299 3.59397 0
M  V30 60144 O 5616.94 -1.37026 3.8897 0
M  V30 60145 H 5616.28 0.0234313 0.663586 0
M  V30 60146 H 5618.81 0.692519 1.92524 0
M  V30 60147 H 5618.82 -0.527712 4.04573 0
M  V30 60148 H 5617.5 0.622728 4.11212 0
M  V30 60149 H 5616.07 -1.1223 3.55611 0
M  V30 60150 N 5618.26 -1.55938 0.228269 0
M  V30 60151 C 5619.5 -1.98772 -0.402202 0
M  V30 60152 C 5619.84 -1.11593 -1.58936 0
M  V30 60153 O 5619.11 -0.175101 -1.9371 0
M  V30 60154 C 5619.4 -3.50399 -0.830229 0
M  V30 60155 C 5619.25 -4.48349 0.361033 0
M  V30 60156 C 5620.57 -4.06608 -1.68398 0
M  V30 60157 H 5617.69 -0.722651 -0.14472 0
M  V30 60158 H 5620.33 -1.87185 0.325849 0
M  V30 60159 H 5618.48 -3.60403 -1.45058 0
M  V30 60160 H 5620.15 -4.50347 0.999272 0
M  V30 60161 H 5618.39 -4.21942 1.00734 0
M  V30 60162 H 5619.06 -5.51997 0.0185015 0
M  V30 60163 H 5621.54 -3.99589 -1.1605 0
M  V30 60164 H 5620.42 -5.13005 -1.95236 0
M  V30 60165 H 5620.68 -3.53906 -2.64958 0
M  V30 60166 N 5619.74 0.0450548 -1.57536 0
M  V30 60167 C 5620.67 1.05039 -2.0854 0
M  V30 60168 C 5621.65 1.38716 -0.984467 0
M  V30 60169 O 5622.83 1.47879 -1.25878 0
M  V30 60170 C 5619.96 2.35611 -2.55157 0
M  V30 60171 C 5618.92 2.16218 -3.6937 0
M  V30 60172 C 5618.24 3.52409 -4.02134 0
M  V30 60173 C 5619.54 1.56141 -4.98415 0
M  V30 60174 H 5621.24 0.625862 -2.92785 0
M  V30 60175 H 5618.78 0.299608 -1.40849 0
M  V30 60176 H 5620.74 3.06256 -2.89456 0
M  V30 60177 H 5619.46 2.80093 -1.67974 0
M  V30 60178 H 5618.12 1.48008 -3.35394 0
M  V30 60179 H 5617.77 3.94511 -3.12042 0
M  V30 60180 H 5617.47 3.40264 -4.79056 0
M  V30 60181 H 5618.99 4.24443 -4.38954 0
M  V30 60182 H 5620.4 2.16685 -5.30774 0
M  V30 60183 H 5618.8 1.54617 -5.79839 0
M  V30 60184 H 5619.87 0.525528 -4.82044 0
M  V30 60185 N 5621.21 1.54379 0.317018 0
M  V30 60186 C 5622.49 1.63555 1.07281 0
M  V30 60187 C 5622.87 0.473571 2.05719 0
M  V30 60188 O 5622.22 -0.531467 2.22233 0
M  V30 60189 C 5622.43 3.00848 1.76893 0
M  V30 60190 C 5623.78 3.57119 2.29676 0
M  V30 60191 O 5624.8 3.03196 1.86951 0
M  V30 60192 O 5623.66 4.51497 3.07916 0
M  V30 60193 H 5620.75 0.662574 0.494899 0
M  V30 60194 H 5623.3 1.66725 0.316386 0
M  V30 60195 H 5622.07 3.76858 1.05328 0
M  V30 60196 H 5621.7 3.01386 2.59331 0
M  V30 60197 N 5622.69 -0.579414 1.46562 0
M  V30 60198 C 5623.62 -1.69841 1.60239 0
M  V30 60199 C 5624.6 -1.63968 0.45259 0
M  V30 60200 O 5625.79 -1.81934 0.679238 0
M  V30 60201 C 5622.92 -3.08483 1.59549 0
M  V30 60202 C 5621.87 -3.29188 2.73531 0
M  V30 60203 C 5621.2 -4.6839 2.57904 0
M  V30 60204 C 5622.5 -3.16704 4.15327 0
M  V30 60205 H 5624.19 -1.58651 2.5391 0
M  V30 60206 H 5621.74 -0.76183 1.22197 0
M  V30 60207 H 5623.69 -3.86589 1.6771 0
M  V30 60208 H 5622.42 -3.20579 0.624243 0
M  V30 60209 H 5621.07 -2.53482 2.64845 0
M  V30 60210 H 5620.72 -4.77257 1.58856 0
M  V30 60211 H 5620.42 -4.83196 3.34358 0
M  V30 60212 H 5621.95 -5.48661 2.67961 0
M  V30 60213 H 5623.36 -3.84651 4.25107 0
M  V30 60214 H 5621.76 -3.43029 4.92393 0
M  V30 60215 H 5622.83 -2.13739 4.35251 0
M  V30 60216 N 5624.17 -1.34323 -0.824323 0
M  V30 60217 C 5625.12 -1.25787 -1.95654 0
M  V30 60218 C 5626.11 -0.156258 -1.68678 0
M  V30 60219 O 5627.32 -0.321143 -1.77112 0
M  V30 60220 H 5623.69 -0.390733 -0.64252 0
M  V30 60221 H 5625.66 -2.21478 -1.99975 0
M  V30 60222 C 5624.41 -1.02876 -3.32132 0
M  V30 60223 H 5623.74 -1.86876 -3.53437 0
M  V30 60224 H 5625.18 -1.0094 -4.1181 0
M  V30 60225 C 5623.64 0.267979 -3.35833 0
M  V30 60226 O 5624.17 1.26981 -3.81102 0
M  V30 60227 N 5622.37 0.3006 -2.89041 0
M  V30 60228 H 5621.92 -0.515239 -2.52395 0
M  V30 60229 H 5621.88 1.168 -2.91899 0
M  V30 60230 N 5625.65 1.04435 -1.1803 0
M  V30 60231 C 5626.61 2.10529 -0.906102 0
M  V30 60232 C 5627.61 1.60444 0.106966 0
M  V30 60233 O 5628.8 1.73743 -0.126062 0
M  V30 60234 C 5625.93 3.39007 -0.358744 0
M  V30 60235 H 5627.13 2.36287 -1.84685 0
M  V30 60236 H 5624.68 1.20801 -0.991806 0
M  V30 60237 H 5625.41 3.1891 0.588792 0
M  V30 60238 H 5625.2 3.76675 -1.08898 0
M  V30 60239 H 5626.69 4.17188 -0.185477 0
M  V30 60240 N 5627.13 0.981742 1.23287 0
M  V30 60241 C 5628.37 0.651369 1.91738 0
M  V30 60242 C 5628.7 -0.815256 1.76589 0
M  V30 60243 O 5627.96 -1.60373 1.12155 0
M  V30 60244 C 5628.26 0.989364 3.43433 0
M  V30 60245 C 5627.92 2.44642 3.78763 0
M  V30 60246 C 5626.58 2.84462 3.88117 0
M  V30 60247 C 5628.94 3.39137 3.95772 0
M  V30 60248 C 5626.26 4.1779 4.11909 0
M  V30 60249 C 5628.62 4.72109 4.21065 0
M  V30 60250 C 5627.28 5.11687 4.28641 0
M  V30 60251 H 5626.55 0.238353 0.701619 0
M  V30 60252 H 5629.2 1.23585 1.46284 0
M  V30 60253 H 5627.5 0.322814 3.90468 0
M  V30 60254 H 5629.2 0.711935 3.9463 0
M  V30 60255 H 5625.79 2.12772 3.72057 0
M  V30 60256 H 5629.97 3.0955 3.87934 0
M  V30 60257 H 5625.23 4.48058 4.15997 0
M  V30 60258 H 5629.4 5.45286 4.3317 0
M  V30 60259 H 5627.03 6.15018 4.46829 0
M  V30 60260 N 5628.6 -1.38417 0.753558 0
M  V30 60261 C 5629.51 -2.34251 0.127893 0
M  V30 60262 C 5630.53 -1.59268 -0.700687 0
M  V30 60263 O 5631.71 -1.91462 -0.624847 0
M  V30 60264 C 5628.77 -3.38385 -0.754767 0
M  V30 60265 C 5627.83 -4.29209 0.0881821 0
M  V30 60266 C 5627.07 -5.28369 -0.752444 0
M  V30 60267 O 5627.29 -5.34544 -1.99045 0
M  V30 60268 O 5626.22 -6.01656 -0.171264 0
M  V30 60269 H 5630.05 -2.89451 0.919352 0
M  V30 60270 H 5627.63 -1.40263 0.514453 0
M  V30 60271 H 5629.52 -4.02146 -1.25923 0
M  V30 60272 H 5628.19 -2.85541 -1.52472 0
M  V30 60273 H 5627.1 -3.68609 0.638597 0
M  V30 60274 H 5628.43 -4.85308 0.820791 0
M  V30 60275 N 5630.08 -0.502631 -1.4937 0
M  V30 60276 C 5631.5 -0.158697 -1.58809 0
M  V30 60277 C 5631.7 1.33682 -1.50769 0
M  V30 60278 O 5630.75 2.1129 -1.38248 0
M  V30 60279 C 5632.07 -0.736945 -2.9153 0
M  V30 60280 C 5633.62 -0.7032 -3.04999 0
M  V30 60281 C 5634.09 -1.25954 -4.4034 0
M  V30 60282 N 5635.58 -1.22031 -4.46836 0
M  V30 60283 C 5636.32 -1.62095 -5.50012 0
M  V30 60284 N 5635.81 -2.0976 -6.60282 0
M  V30 60285 N 5637.61 -1.53501 -5.40734 0
M  V30 60286 H 5629.76 -1.47493 -1.52839 0
M  V30 60287 H 5632.02 -0.611877 -0.724093 0
M  V30 60288 H 5631.73 -1.78584 -3.02986 0
M  V30 60289 H 5631.6 -0.198311 -3.76678 0
M  V30 60290 H 5633.99 0.336862 -2.93171 0
M  V30 60291 H 5634.07 -1.279 -2.21529 0
M  V30 60292 H 5633.71 -2.29839 -4.5292 0
M  V30 60293 H 5633.64 -0.659665 -5.22452 0
M  V30 60294 H 5636.13 -0.871086 -3.67723 0
M  V30 60295 H 5636.45 -2.38396 -7.3511 0
M  V30 60296 H 5634.79 -2.13735 -6.61319 0
M  V30 60297 H 5637.98 -1.16081 -4.53478 0
M  V30 60298 H 5638.15 -1.85048 -6.21016 0
M  V30 60299 N 5631.56 1.55815 -0.236535 0
M  V30 60300 C 5632.49 2.18251 0.699947 0
M  V30 60301 C 5633.51 1.15583 1.14649 0
M  V30 60302 O 5634.7 1.42495 1.07506 0
M  V30 60303 C 5631.8 2.76345 1.9618 0
M  V30 60304 C 5630.97 4.04331 1.66838 0
M  V30 60305 C 5630.03 4.46844 2.77879 0
M  V30 60306 O 5629.05 5.13436 2.45707 0
M  V30 60307 N 5630.26 4.13768 4.07157 0
M  V30 60308 H 5633.02 2.99241 0.165784 0
M  V30 60309 H 5630.58 1.61803 -0.0560952 0
M  V30 60310 H 5632.57 3.01749 2.69685 0
M  V30 60311 H 5631.14 1.99572 2.40603 0
M  V30 60312 H 5630.36 3.86626 0.769029 0
M  V30 60313 H 5631.65 4.87795 1.44685 0
M  V30 60314 H 5631.05 3.60286 4.36131 0
M  V30 60315 H 5629.61 4.4403 4.77159 0
M  V30 60316 N 5633.04 -0.0366996 1.57557 0
M  V30 60317 C 5633.99 -1.05816 2.07137 0
M  V30 60318 C 5634.98 -1.37919 0.983595 0
M  V30 60319 O 5636.19 -1.36914 1.16853 0
M  V30 60320 H 5632.56 -0.358737 0.660917 0
M  V30 60321 H 5634.53 -0.614129 2.92012 0
M  V30 60322 C 5633.28 -2.35293 2.55993 0
M  V30 60323 H 5632.61 -2.11449 3.39307 0
M  V30 60324 H 5634.05 -3.05129 2.94402 0
M  V30 60325 C 5632.5 -3.03725 1.45783 0
M  V30 60326 O 5633.03 -3.93247 0.819726 0
M  V30 60327 N 5631.24 -2.64926 1.19425 0
M  V30 60328 H 5630.79 -1.92213 1.71499 0
M  V30 60329 H 5630.75 -3.11032 0.458974 0
M  V30 60330 N 5634.52 -1.54545 -0.308827 0
M  V30 60331 C 5635.46 -1.84954 -1.38061 0
M  V30 60332 C 5636.43 -0.697799 -1.50731 0
M  V30 60333 O 5637.62 -0.945669 -1.65716 0
M  V30 60334 C 5634.76 -2.09554 -2.74192 0
M  V30 60335 C 5633.87 -3.37203 -2.70034 0
M  V30 60336 C 5633.01 -3.51686 -3.98108 0
M  V30 60337 C 5632.05 -4.73156 -3.88316 0
M  V30 60338 N 5631.18 -4.84487 -5.0815 0
M  V30 60339 H 5636.02 -2.76383 -1.11428 0
M  V30 60340 H 5633.56 -1.36865 -0.539105 0
M  V30 60341 H 5635.52 -2.2181 -3.5335 0
M  V30 60342 H 5634.15 -1.21399 -2.99102 0
M  V30 60343 H 5633.2 -3.33607 -1.82785 0
M  V30 60344 H 5634.51 -4.26477 -2.58686 0
M  V30 60345 H 5633.67 -3.63565 -4.85701 0
M  V30 60346 H 5632.41 -2.60531 -4.1228 0
M  V30 60347 H 5631.41 -4.61318 -2.99108 0
M  V30 60348 H 5632.64 -5.65711 -3.75696 0
M  V30 60349 H 5630.58 -3.96252 -5.22801 0
M  V30 60350 H 5630.5 -5.6775 -4.99195 0
M  V30 60351 H 5631.77 -5.00714 -5.97416 0
M  V30 60352 N 5636 0.571634 -1.46868 0
M  V30 60353 C 5636.96 1.66192 -1.57838 0
M  V30 60354 C 5637.96 1.5424 -0.454601 0
M  V30 60355 O 5639.15 1.58658 -0.719247 0
M  V30 60356 C 5636.28 3.05673 -1.5092 0
M  V30 60357 H 5637.47 1.5782 -2.55015 0
M  V30 60358 H 5635.03 0.790386 -1.34843 0
M  V30 60359 H 5635.76 3.19591 -0.550641 0
M  V30 60360 H 5635.55 3.15757 -2.32465 0
M  V30 60361 H 5637.04 3.85021 -1.61705 0
M  V30 60362 N 5637.47 1.34758 0.817188 0
M  V30 60363 C 5638.38 1.28895 1.96018 0
M  V30 60364 C 5639.4 0.195643 1.72897 0
M  V30 60365 O 5640.58 0.42314 1.96905 0
M  V30 60366 C 5637.64 1.04996 3.30419 0
M  V30 60367 C 5636.7 2.23539 3.66509 0
M  V30 60368 C 5635.93 2.00771 4.94497 0
M  V30 60369 O 5636.16 0.96882 5.62112 0
M  V30 60370 O 5635.09 2.87867 5.28598 0
M  V30 60371 H 5638.92 2.25066 2.03909 0
M  V30 60372 H 5636.5 1.15022 0.953427 0
M  V30 60373 H 5638.38 0.934733 4.10902 0
M  V30 60374 H 5637.06 0.118696 3.23482 0
M  V30 60375 H 5635.97 2.40623 2.86446 0
M  V30 60376 H 5637.3 3.15075 3.78138 0
M  V30 60377 N 5638.95 -1.03808 1.18582 0
M  V30 60378 C 5640.2 -1.76703 0.980838 0
M  V30 60379 C 5640.52 -1.8873 -0.490495 0
M  V30 60380 O 5639.79 -1.41418 -1.35564 0
M  V30 60381 H 5638.37 -0.654573 0.359921 0
M  V30 60382 H 5641.03 -1.25269 1.49311 0
M  V30 60383 H 5640.13 -2.77871 1.42106 0
M  V30 60384 N 5640.43 -0.988266 -1.22764 0
M  V30 60385 C 5641.36 -0.554558 -2.26819 0
M  V30 60386 C 5642.34 0.416235 -1.64929 0
M  V30 60387 O 5643.53 0.307883 -1.91744 0
M  V30 60388 C 5640.66 0.136144 -3.47033 0
M  V30 60389 C 5639.61 -0.752723 -4.21329 0
M  V30 60390 C 5638.94 0.0706356 -5.34653 0
M  V30 60391 C 5640.24 -2.04734 -4.80501 0
M  V30 60392 H 5641.93 -1.42432 -2.6335 0
M  V30 60393 H 5639.48 -0.686312 -1.26593 0
M  V30 60394 H 5641.43 0.450921 -4.18981 0
M  V30 60395 H 5640.15 1.04042 -3.09585 0
M  V30 60396 H 5638.81 -1.05107 -3.51209 0
M  V30 60397 H 5638.46 0.975685 -4.93446 0
M  V30 60398 H 5638.16 -0.521041 -5.85285 0
M  V30 60399 H 5639.68 0.379614 -6.09419 0
M  V30 60400 H 5641.1 -1.79682 -5.44415 0
M  V30 60401 H 5639.49 -2.58745 -5.41453 0
M  V30 60402 H 5640.56 -2.7291 -4.0081 0
M  V30 60403 N 5641.91 1.38015 -0.760888 0
M  V30 60404 C 5643.16 1.99556 -0.319679 0
M  V30 60405 C 5643.48 1.60703 1.10452 0
M  V30 60406 O 5642.75 0.86731 1.75655 0
M  V30 60407 H 5641.33 0.738062 -0.115208 0
M  V30 60408 H 5643.99 1.68667 -0.976604 0
M  V30 60409 H 5643.08 3.09671 -0.388632 0
M  V30 60410 N 5643.39 0.510546 1.49101 0
M  V30 60411 C 5644.32 -0.309618 2.2609 0
M  V30 60412 C 5645.3 -0.962015 1.31088 0
M  V30 60413 O 5646.48 -0.990239 1.60395 0
M  V30 60414 C 5643.61 -1.43683 3.06713 0
M  V30 60415 C 5642.65 -0.897831 4.16943 0
M  V30 60416 S 5643.49 0.218969 5.35052 0
M  V30 60417 C 5644.64 -0.911178 6.19232 0
M  V30 60418 H 5644.88 0.343806 2.95305 0
M  V30 60419 H 5642.41 0.295997 1.51536 0
M  V30 60420 H 5644.37 -2.08264 3.53746 0
M  V30 60421 H 5643.03 -2.0619 2.36949 0
M  V30 60422 H 5642.22 -1.74286 4.72906 0
M  V30 60423 H 5641.82 -0.329061 3.7255 0
M  V30 60424 H 5644.11 -1.81427 6.52756 0
M  V30 60425 H 5645.06 -0.389952 7.07025 0
M  V30 60426 H 5645.47 -1.18282 5.51969 0
M  V30 60427 N 5644.86 -1.55687 0.244795 0
M  V30 60428 C 5646.11 -1.99187 -0.381097 0
M  V30 60429 C 5646.44 -1.13272 -1.57744 0
M  V30 60430 O 5645.72 -0.195636 -1.93514 0
M  V30 60431 C 5646 -3.51259 -0.793018 0
M  V30 60432 C 5645.85 -4.47941 0.408566 0
M  V30 60433 C 5647.17 -4.08371 -1.64076 0
M  V30 60434 H 5644.29 -0.724146 -0.137047 0
M  V30 60435 H 5646.93 -1.86829 0.345685 0
M  V30 60436 H 5645.08 -3.61922 -1.41227 0
M  V30 60437 H 5646.76 -4.49262 1.04698 0
M  V30 60438 H 5645 -4.2085 1.05203 0
M  V30 60439 H 5645.67 -5.51946 0.0770471 0
M  V30 60440 H 5648.15 -4.00798 -1.11806 0
M  V30 60441 H 5647.02 -5.15047 -1.89784 0
M  V30 60442 H 5647.28 -3.56696 -2.6119 0
M  V30 60443 N 5646.34 0.0283435 -1.57575 0
M  V30 60444 C 5647.57 0.730763 -1.93565 0
M  V30 60445 C 5647.99 1.68854 -0.844615 0
M  V30 60446 O 5647.34 1.81621 0.178907 0
M  V30 60447 C 5647.39 1.4872 -3.29492 0
M  V30 60448 O 5647.11 0.567864 -4.34404 0
M  V30 60449 C 5648.62 2.28671 -3.79769 0
M  V30 60450 H 5645.84 0.205324 -0.638814 0
M  V30 60451 H 5648.38 -0.0143447 -2.04495 0
M  V30 60452 H 5646.53 2.18418 -3.19957 0
M  V30 60453 H 5646.95 1.09843 -5.12869 0
M  V30 60454 H 5648.42 2.7714 -4.77386 0
M  V30 60455 H 5648.9 3.10122 -3.11 0
M  V30 60456 H 5649.51 1.64046 -3.92389 0
M  V30 60457 N 5647.82 1.54706 0.300627 0
M  V30 60458 C 5648.73 1.8874 1.39335 0
M  V30 60459 C 5649.75 0.781604 1.55457 0
M  V30 60460 O 5650.92 1.0781 1.70114 0
M  V30 60461 C 5647.99 2.12805 2.73706 0
M  V30 60462 C 5647.05 3.36514 2.66565 0
M  V30 60463 C 5646.28 3.59421 3.94528 0
M  V30 60464 O 5646.5 2.85333 4.93904 0
M  V30 60465 O 5645.44 4.52937 3.96399 0
M  V30 60466 H 5649.26 2.81704 1.13474 0
M  V30 60467 H 5646.85 1.40901 0.496721 0
M  V30 60468 H 5648.73 2.29832 3.53207 0
M  V30 60469 H 5647.41 1.23027 2.99409 0
M  V30 60470 H 5646.31 3.2485 1.85535 0
M  V30 60471 H 5647.65 4.26422 2.45814 0
M  V30 60472 N 5649.3 -0.563837 1.47169 0
M  V30 60473 C 5650.21 -1.69897 1.61778 0
M  V30 60474 C 5651.22 -1.66638 0.500763 0
M  V30 60475 O 5652.4 -1.86206 0.76742 0
M  V30 60476 C 5649.47 -3.06405 1.62224 0
M  V30 60477 C 5648.53 -3.20783 2.85302 0
M  V30 60478 C 5647.76 -4.50779 2.85717 0
M  V30 60479 O 5647.98 -5.35833 1.95548 0
M  V30 60480 O 5646.92 -4.68806 3.77498 0
M  V30 60481 H 5650.74 -1.60516 2.57815 0
M  V30 60482 H 5648.33 -0.73308 1.30178 0
M  V30 60483 H 5650.21 -3.87654 1.65235 0
M  V30 60484 H 5648.88 -3.16183 0.693526 0
M  V30 60485 H 5647.79 -2.38956 2.87838 0
M  V30 60486 H 5649.12 -3.15905 3.77445 0
M  V30 60487 N 5650.78 -1.3519 -0.81003 0
M  V30 60488 C 5652.02 -1.28017 -1.56385 0
M  V30 60489 C 5652.35 0.146152 -1.94452 0
M  V30 60490 O 5651.62 1.08179 -1.63322 0
M  V30 60491 H 5650.2 -0.470857 -0.579916 0
M  V30 60492 H 5652.86 -1.69252 -0.966417 0
M  V30 60493 H 5651.95 -1.8937 -2.48083 0
M  V30 60494 N 5652.25 1.03178 -1.19131 0
M  V30 60495 C 5653.48 1.80699 -1.01797 0
M  V30 60496 C 5653.9 1.83148 0.428759 0
M  V30 60497 O 5653.26 1.25535 1.30808 0
M  V30 60498 C 5653.31 3.23749 -1.58806 0
M  V30 60499 O 5652.41 4.04258 -0.815417 0
M  V30 60500 H 5651.76 0.557932 -0.360011 0
M  V30 60501 H 5654.29 1.29882 -1.58088 0
M  V30 60502 H 5654.3 3.74504 -1.61897 0
M  V30 60503 H 5652.97 3.2128 -2.64105 0
M  V30 60504 H 5651.55 3.62906 -0.85752 0
M  V30 60505 N 5653.73 0.994763 1.22238 0
M  V30 60506 C 5654.98 0.670342 1.90659 0
M  V30 60507 C 5655.3 -0.800306 1.7782 0
M  V30 60508 O 5654.57 -1.57377 1.16659 0
M  V30 60509 H 5653.15 0.24495 0.705697 0
M  V30 60510 H 5655.81 1.26167 1.48553 0
M  V30 60511 H 5654.91 0.934513 2.97781 0
M  V30 60512 N 5655.21 -1.3761 0.768196 0
M  V30 60513 C 5656.12 -2.34102 0.152731 0
M  V30 60514 C 5657.14 -1.60002 -0.683755 0
M  V30 60515 O 5658.31 -1.92114 -0.604504 0
M  V30 60516 C 5655.38 -3.39166 -0.718834 0
M  V30 60517 C 5654.44 -4.29092 0.133701 0
M  V30 60518 C 5653.67 -5.29138 -0.696361 0
M  V30 60519 O 5653.89 -5.36625 -1.93364 0
M  V30 60520 O 5652.83 -6.01804 -0.10744 0
M  V30 60521 H 5656.65 -2.88459 0.950001 0
M  V30 60522 H 5654.24 -1.3971 0.529301 0
M  V30 60523 H 5656.12 -4.03459 -1.21651 0
M  V30 60524 H 5654.8 -2.87143 -1.49435 0
M  V30 60525 H 5653.7 -3.67911 0.677657 0
M  V30 60526 H 5655.04 -4.8441 0.872218 0
M  V30 60527 N 5656.69 -0.518446 -1.48828 0
M  V30 60528 C 5657.64 0.250603 -2.29435 0
M  V30 60529 C 5658.61 0.944433 -1.36637 0
M  V30 60530 O 5659.79 0.947708 -1.65599 0
M  V30 60531 C 5656.93 1.2986 -3.19735 0
M  V30 60532 C 5656.04 0.614779 -4.27603 0
M  V30 60533 C 5655.18 1.64471 -5.05097 0
M  V30 60534 C 5654.22 0.94372 -6.04781 0
M  V30 60535 N 5653.35 1.91866 -6.75375 0
M  V30 60536 H 5658.19 -0.442984 -2.94689 0
M  V30 60537 H 5655.73 -0.230298 -1.45286 0
M  V30 60538 H 5657.69 1.91838 -3.70478 0
M  V30 60539 H 5656.32 1.96072 -2.56429 0
M  V30 60540 H 5655.37 -0.118685 -3.80215 0
M  V30 60541 H 5656.68 0.0638187 -4.98759 0
M  V30 60542 H 5655.84 2.33908 -5.59796 0
M  V30 60543 H 5654.58 2.22955 -4.33754 0
M  V30 60544 H 5653.58 0.235214 -5.49297 0
M  V30 60545 H 5654.81 0.365144 -6.78118 0
M  V30 60546 H 5652.75 2.49279 -6.06792 0
M  V30 60547 H 5652.67 1.41882 -7.42567 0
M  V30 60548 H 5653.94 2.60537 -7.3467 0
M  V30 60549 N 5658.17 1.55555 -0.253048 0
M  V30 60550 C 5659.41 1.99386 0.370529 0
M  V30 60551 C 5659.75 1.14107 1.57141 0
M  V30 60552 O 5659.02 0.205896 1.93407 0
M  V30 60553 C 5659.3 3.51675 0.774379 0
M  V30 60554 C 5659.16 4.47718 -0.432316 0
M  V30 60555 C 5660.48 4.09236 1.61908 0
M  V30 60556 H 5657.59 0.724862 0.133205 0
M  V30 60557 H 5660.24 1.86643 -0.355588 0
M  V30 60558 H 5658.39 3.62665 1.39305 0
M  V30 60559 H 5660.06 4.487 -1.07079 0
M  V30 60560 H 5658.3 4.20286 -1.07434 0
M  V30 60561 H 5658.97 5.51898 -0.106317 0
M  V30 60562 H 5661.45 4.01385 1.09678 0
M  V30 60563 H 5660.32 5.16046 1.8705 0
M  V30 60564 H 5660.59 3.58077 2.59294 0
M  V30 60565 N 5659.64 -0.0199865 1.57587 0
M  V30 60566 C 5660.57 -1.01708 2.10185 0
M  V30 60567 C 5661.56 -1.37133 1.00641 0
M  V30 60568 O 5662.74 -1.45858 1.28215 0
M  V30 60569 C 5659.87 -2.31522 2.58873 0
M  V30 60570 C 5658.82 -2.10314 3.72763 0
M  V30 60571 C 5658.15 -3.45967 4.0769 0
M  V30 60572 C 5659.45 -1.48192 5.00836 0
M  V30 60573 H 5661.14 -0.579203 2.93744 0
M  V30 60574 H 5658.69 -0.277162 1.41308 0
M  V30 60575 H 5660.64 -3.01613 2.94292 0
M  V30 60576 H 5659.37 -2.77386 1.72409 0
M  V30 60577 H 5658.03 -1.42653 3.37706 0
M  V30 60578 H 5657.67 -3.89496 3.18279 0
M  V30 60579 H 5657.37 -3.32599 4.84408 0
M  V30 60580 H 5658.9 -4.17405 4.45651 0
M  V30 60581 H 5660.31 -2.08213 5.34154 0
M  V30 60582 H 5658.71 -1.45373 5.82226 0
M  V30 60583 H 5659.78 -0.448773 4.82819 0
M  V30 60584 N 5661.12 -1.54863 -0.292418 0
M  V30 60585 C 5662.06 -1.82791 -1.38275 0
M  V30 60586 C 5663.07 -0.711304 -1.46439 0
M  V30 60587 O 5664.26 -0.988904 -1.48603 0
M  V30 60588 C 5661.36 -1.95855 -2.76575 0
M  V30 60589 C 5660.53 -3.2634 -2.91241 0
M  V30 60590 C 5659.59 -3.29712 -4.10093 0
M  V30 60591 O 5658.62 -4.03198 -4.01771 0
M  V30 60592 N 5659.82 -2.55718 -5.21142 0
M  V30 60593 H 5662.58 -2.76895 -1.1467 0
M  V30 60594 H 5660.14 -1.54543 -0.482507 0
M  V30 60595 H 5662.14 -1.95503 -3.54345 0
M  V30 60596 H 5660.71 -1.08707 -2.9309 0
M  V30 60597 H 5659.93 -3.39394 -2.00513 0
M  V30 60598 H 5661.21 -4.12432 -2.97956 0
M  V30 60599 H 5660.61 -1.95661 -5.30785 0
M  V30 60600 H 5659.17 -2.6111 -5.97214 0
M  V30 60601 N 5662.6 0.556024 -1.47466 0
M  V30 60602 C 5663.88 1.31684 -1.44633 0
M  V30 60603 C 5664.26 2.10609 -0.143915 0
M  V30 60604 O 5663.61 2.111 0.874588 0
M  V30 60605 C 5663.82 2.22036 -2.6926 0
M  V30 60606 C 5665.16 2.83017 -3.16523 0
M  V30 60607 O 5666.19 2.32337 -2.69996 0
M  V30 60608 O 5665.05 3.75134 -3.97412 0
M  V30 60609 H 5662.14 0.593005 -0.576432 0
M  V30 60610 H 5664.69 0.574829 -1.59668 0
M  V30 60611 H 5663.46 1.63324 -3.55585 0
M  V30 60612 H 5663.08 3.0353 -2.56818 0
M  V30 60613 N 5664.08 1.35617 0.802849 0
M  V30 60614 C 5665.36 1.1966 1.54728 0
M  V30 60615 C 5665.74 -0.222753 2.09921 0
M  V30 60616 O 5665.08 -1.22674 1.92778 0
M  V30 60617 C 5665.29 2.2677 2.65285 0
M  V30 60618 C 5666.64 2.62765 3.33526 0
M  V30 60619 O 5667.67 2.25712 2.75559 0
M  V30 60620 O 5666.53 3.26491 4.38253 0
M  V30 60621 H 5663.62 0.465103 0.683819 0
M  V30 60622 H 5666.17 1.4731 0.842489 0
M  V30 60623 H 5664.94 3.21953 2.224 0
M  V30 60624 H 5664.56 2.00411 3.43397 0
M  V30 60625 N 5665.56 -1.02544 1.19676 0
M  V30 60626 C 5666.47 -2.14369 0.953048 0
M  V30 60627 C 5667.48 -1.73777 -0.0881116 0
M  V30 60628 O 5668.66 -2.01165 0.0973178 0
M  V30 60629 C 5665.72 -3.43095 0.498689 0
M  V30 60630 C 5664.79 -3.97981 1.60965 0
M  V30 60631 C 5664.02 -5.20563 1.17687 0
M  V30 60632 O 5664.24 -5.70385 0.0418641 0
M  V30 60633 O 5663.18 -5.68373 1.98079 0
M  V30 60634 H 5667 -2.37794 1.88912 0
M  V30 60635 H 5664.59 -1.12778 0.979875 0
M  V30 60636 H 5666.47 -4.20633 0.254116 0
M  V30 60637 H 5665.14 -3.21107 -0.408905 0
M  V30 60638 H 5664.05 -3.21762 1.90841 0
M  V30 60639 H 5665.38 -4.2434 2.49392 0
M  V30 60640 N 5667.04 -1.00123 -1.21709 0
M  V30 60641 C 5668.28 -0.68179 -1.90677 0
M  V30 60642 C 5668.61 0.787059 -1.77864 0
M  V30 60643 O 5667.87 1.58569 -1.14693 0
M  V30 60644 C 5668.16 -1.04388 -3.41816 0
M  V30 60645 C 5667.83 -2.50637 -3.74823 0
M  V30 60646 C 5666.49 -2.90601 -3.83542 0
M  V30 60647 C 5668.84 -3.4539 -3.90327 0
M  V30 60648 C 5666.17 -4.2429 -4.0521 0
M  V30 60649 C 5668.52 -4.78748 -4.135 0
M  V30 60650 C 5667.19 -5.18441 -4.20446 0
M  V30 60651 H 5666.46 -0.249485 -0.697738 0
M  V30 60652 H 5669.11 -1.25897 -1.44299 0
M  V30 60653 H 5667.41 -0.384893 -3.89905 0
M  V30 60654 H 5669.11 -0.774627 -3.93447 0
M  V30 60655 H 5665.7 -2.18664 -3.68625 0
M  V30 60656 H 5669.88 -3.15682 -3.8296 0
M  V30 60657 H 5665.14 -4.5462 -4.08817 0
M  V30 60658 H 5669.31 -5.52109 -4.2444 0
M  V30 60659 H 5666.94 -6.22049 -4.36988 0
M  V30 60660 N 5668.51 1.37201 -0.775483 0
M  V30 60661 C 5669.74 2.03866 -0.352999 0
M  V30 60662 C 5670.16 1.58486 1.02604 0
M  V30 60663 O 5669.51 0.76783 1.65562 0
M  V30 60664 C 5669.56 3.59376 -0.391286 0
M  V30 60665 O 5669.29 4.03097 -1.71593 0
M  V30 60666 C 5670.79 4.4328 0.042325 0
M  V30 60667 H 5668.01 0.654614 -0.147383 0
M  V30 60668 H 5670.55 1.75459 -1.05045 0
M  V30 60669 H 5668.71 3.86542 0.257616 0
M  V30 60670 H 5669.12 4.97634 -1.65713 0
M  V30 60671 H 5670.59 5.51989 -0.0356156 0
M  V30 60672 H 5671.07 4.25378 1.09318 0
M  V30 60673 H 5671.68 4.21347 -0.578532 0
M  V30 60674 N 5669.99 0.526331 1.48551 0
M  V30 60675 C 5671.23 -0.00713667 2.04399 0
M  V30 60676 C 5671.6 -1.31923 1.395 0
M  V30 60677 O 5672.8 -1.93851 1.86213 0
M  V30 60678 C 5671.07 -0.130392 3.57162 0
M  V30 60679 S 5672.63 -0.614451 4.34477 0
M  V30 60680 H 5669.44 0.0103152 0.710925 0
M  V30 60681 H 5672.05 0.706062 1.82305 0
M  V30 60682 H 5670.75 0.829446 4.01931 0
M  V30 60683 H 5670.28 -0.868078 3.83703 0
M  V30 60684 H 5672.3 -1.87957 4.59224 0
M  V30 60685 N 5671.47 -1.55419 0.261294 0
M  V30 60686 C 5672.75 -1.91244 -0.410493 0
M  V30 60687 C 5673.13 -1.18387 -1.74779 0
M  V30 60688 O 5672.47 -0.306092 -2.26441 0
M  V30 60689 C 5672.68 -3.44406 -0.564409 0
M  V30 60690 C 5674.03 -4.1593 -0.853681 0
M  V30 60691 O 5675.06 -3.50224 -0.649738 0
M  V30 60692 O 5673.92 -5.32179 -1.24289 0
M  V30 60693 H 5671.01 -0.796499 -0.222527 0
M  V30 60694 H 5673.56 -1.66911 0.306425 0
M  V30 60695 H 5672.33 -3.89477 0.377271 0
M  V30 60696 H 5671.95 -3.74649 -1.33132 0
M  V30 60697 N 5672.95 0.011629 -1.57596 0
M  V30 60698 C 5673.88 1.00592 -2.10721 0
M  V30 60699 C 5674.86 1.36597 -1.01367 0
M  V30 60700 O 5676.04 1.45176 -1.28987 0
M  V30 60701 C 5673.17 2.30145 -2.60097 0
M  V30 60702 C 5672.13 2.08334 -3.73873 0
M  V30 60703 C 5671.45 3.438 -4.09519 0
M  V30 60704 C 5672.75 1.45534 -5.01614 0
M  V30 60705 H 5674.45 0.563617 -2.94047 0
M  V30 60706 H 5671.99 0.269664 -1.41453 0
M  V30 60707 H 5673.95 3.00048 -2.95887 0
M  V30 60708 H 5672.67 2.76467 -1.73877 0
M  V30 60709 H 5671.33 1.4086 -3.38458 0
M  V30 60710 H 5670.98 3.87803 -3.2034 0
M  V30 60711 H 5670.68 3.30026 -4.86165 0
M  V30 60712 H 5672.2 4.15036 -4.47859 0
M  V30 60713 H 5673.62 2.05377 -5.3525 0
M  V30 60714 H 5672.01 1.42283 -5.82988 0
M  V30 60715 H 5673.08 0.423161 -4.8305 0
M  V30 60716 N 5674.43 1.55016 0.284201 0
M  V30 60717 C 5675.67 1.75094 1.01727 0
M  V30 60718 C 5676 0.545869 1.86683 0
M  V30 60719 O 5675.26 -0.471884 1.89926 0
M  V30 60720 C 5675.55 3.00253 1.93863 0
M  V30 60721 C 5675.22 4.333 1.24749 0
M  V30 60722 C 5673.88 4.69463 1.05633 0
M  V30 60723 C 5676.23 5.15706 0.754758 0
M  V30 60724 C 5673.56 5.85597 0.359554 0
M  V30 60725 C 5675.91 6.32559 0.0716249 0
M  V30 60726 C 5674.58 6.67371 -0.131339 0
M  V30 60727 H 5673.85 0.640713 0.372247 0
M  V30 60728 H 5676.5 1.89283 0.290571 0
M  V30 60729 H 5674.8 2.80916 2.73118 0
M  V30 60730 H 5676.5 3.12983 2.50685 0
M  V30 60731 H 5673.09 4.0487 1.40636 0
M  V30 60732 H 5677.27 4.88253 0.890099 0
M  V30 60733 H 5672.53 6.111 0.191475 0
M  V30 60734 H 5676.7 6.95674 -0.317987 0
M  V30 60735 H 5674.33 7.57213 -0.673243 0
M  V30 60736 N 5675.9 -0.548196 1.47758 0
M  V30 60737 C 5677.32 -0.875002 1.33476 0
M  V30 60738 C 5677.52 -1.98746 0.332022 0
M  V30 60739 O 5676.58 -2.51227 -0.25326 0
M  V30 60740 C 5677.89 -1.25972 2.73041 0
M  V30 60741 C 5679.44 -1.37064 2.81394 0
M  V30 60742 C 5679.91 -1.78888 4.2162 0
M  V30 60743 N 5681.4 -1.86022 4.24205 0
M  V30 60744 C 5682.14 -2.19731 5.29628 0
M  V30 60745 N 5681.63 -2.5199 6.45347 0
M  V30 60746 N 5683.43 -2.20582 5.17011 0
M  V30 60747 H 5675.58 0.186108 2.11583 0
M  V30 60748 H 5677.84 0.020602 0.947776 0
M  V30 60749 H 5677.55 -0.516065 3.47893 0
M  V30 60750 H 5677.42 -2.21391 3.05394 0
M  V30 60751 H 5679.81 -2.10509 2.06809 0
M  V30 60752 H 5679.89 -0.398104 2.52683 0
M  V30 60753 H 5679.53 -1.06009 4.96714 0
M  V30 60754 H 5679.46 -2.7716 4.47761 0
M  V30 60755 H 5681.95 -1.63443 3.40727 0
M  V30 60756 H 5682.27 -2.76764 7.21541 0
M  V30 60757 H 5680.61 -2.4955 6.48652 0
M  V30 60758 H 5683.8 -1.94825 4.2563 0
M  V30 60759 H 5683.98 -2.46522 5.99275 0
M  V30 60760 N 5677.38 -1.36041 -0.795646 0
M  V30 60761 C 5678.63 -1.29925 -1.55325 0
M  V30 60762 C 5678.96 0.123257 -1.94109 0
M  V30 60763 O 5678.21 1.0911 -1.62461 0
M  V30 60764 C 5678.51 -2.16176 -2.8461 0
M  V30 60765 C 5678.18 -3.64815 -2.64993 0
M  V30 60766 C 5676.84 -4.05328 -2.59351 0
M  V30 60767 C 5679.19 -4.59082 -2.46765 0
M  V30 60768 C 5676.52 -5.38259 -2.33439 0
M  V30 60769 C 5678.87 -5.92224 -2.22381 0
M  V30 60770 C 5677.54 -6.31869 -2.15168 0
M  V30 60771 H 5676.81 -0.475428 -0.568374 0
M  V30 60772 H 5679.45 -1.68038 -0.918453 0
M  V30 60773 H 5677.76 -1.70979 -3.52524 0
M  V30 60774 H 5679.45 -2.08772 -3.42367 0
M  V30 60775 H 5676.04 -3.32671 -2.70237 0
M  V30 60776 H 5680.23 -4.2866 -2.50129 0
M  V30 60777 H 5675.48 -5.67965 -2.26332 0
M  V30 60778 H 5679.66 -6.6484 -2.0727 0
M  V30 60779 H 5677.29 -7.34804 -1.94852 0
M  V30 60780 N 5678.86 1.01908 -1.20218 0
M  V30 60781 C 5679.79 2.12278 -0.972635 0
M  V30 60782 C 5680.77 1.6982 0.0975112 0
M  V30 60783 O 5681.96 1.94109 -0.0594989 0
M  V30 60784 C 5679.09 3.43367 -0.521206 0
M  V30 60785 C 5678.04 3.99553 -1.53431 0
M  V30 60786 C 5677.37 5.2638 -0.939605 0
M  V30 60787 C 5678.67 4.33231 -2.91733 0
M  V30 60788 H 5680.36 2.31739 -1.89571 0
M  V30 60789 H 5677.91 1.11367 -0.91288 0
M  V30 60790 H 5679.86 4.19962 -0.34786 0
M  V30 60791 H 5678.58 3.23657 0.437492 0
M  V30 60792 H 5677.24 3.25063 -1.69497 0
M  V30 60793 H 5676.89 5.02993 0.0269468 0
M  V30 60794 H 5676.59 5.64936 -1.6162 0
M  V30 60795 H 5678.11 6.05633 -0.777272 0
M  V30 60796 H 5679.53 5.00724 -2.79193 0
M  V30 60797 H 5677.93 4.82895 -3.56276 0
M  V30 60798 H 5679 3.42106 -3.43645 0
M  V30 60799 N 5680.34 1.00767 1.21176 0
M  V30 60800 C 5681.27 0.528546 2.23022 0
M  V30 60801 C 5682.28 -0.384292 1.58199 0
M  V30 60802 O 5683.47 -0.184064 1.77548 0
M  V30 60803 C 5680.57 -0.251574 3.37965 0
M  V30 60804 C 5679.75 0.66099 4.32377 0
M  V30 60805 C 5678.8 -0.0699873 5.26153 0
M  V30 60806 O 5677.83 0.549554 5.66541 0
M  V30 60807 N 5679.03 -1.34771 5.64639 0
M  V30 60808 H 5681.8 1.40438 2.64759 0
M  V30 60809 H 5679.36 0.884132 1.35627 0
M  V30 60810 H 5681.35 -0.749606 3.97697 0
M  V30 60811 H 5679.92 -1.02862 2.95192 0
M  V30 60812 H 5679.14 1.33947 3.70745 0
M  V30 60813 H 5680.43 1.28194 4.92386 0
M  V30 60814 H 5679.83 -1.87213 5.33824 0
M  V30 60815 H 5678.38 -1.79064 6.26721 0
M  V30 60816 N 5681.82 -1.36787 0.782749 0
M  V30 60817 C 5682.75 -2.3272 0.190686 0
M  V30 60818 C 5683.73 -1.56323 -0.670608 0
M  V30 60819 O 5684.91 -1.84509 -0.605807 0
M  V30 60820 C 5682.04 -3.40566 -0.680597 0
M  V30 60821 C 5681 -4.27925 0.0802685 0
M  V30 60822 C 5680.32 -5.26879 -0.911176 0
M  V30 60823 C 5681.62 -5.06734 1.26563 0
M  V30 60824 H 5683.32 -2.82484 0.992122 0
M  V30 60825 H 5680.86 -1.35816 0.478531 0
M  V30 60826 H 5682.82 -4.06663 -1.10468 0
M  V30 60827 H 5681.54 -2.89353 -1.51467 0
M  V30 60828 H 5680.2 -3.63374 0.485253 0
M  V30 60829 H 5679.85 -4.71942 -1.7401 0
M  V30 60830 H 5679.55 -5.86192 -0.406556 0
M  V30 60831 H 5681.07 -5.9585 -1.33397 0
M  V30 60832 H 5682.48 -5.65908 0.917646 0
M  V30 60833 H 5680.88 -5.75426 1.70309 0
M  V30 60834 H 5681.95 -4.38765 2.06431 0
M  V30 60835 N 5683.29 -0.534202 -1.4827 0
M  V30 60836 C 5684.22 0.214955 -2.32508 0
M  V30 60837 C 5685.21 0.931033 -1.42358 0
M  V30 60838 O 5686.39 0.915991 -1.7124 0
M  V30 60839 C 5683.52 1.25974 -3.23648 0
M  V30 60840 C 5682.47 0.661543 -4.22856 0
M  V30 60841 C 5681.8 1.80928 -5.03159 0
M  V30 60842 C 5683.1 -0.369541 -5.20991 0
M  V30 60843 H 5684.79 -0.488262 -2.95392 0
M  V30 60844 H 5682.34 -0.236256 -1.42049 0
M  V30 60845 H 5684.29 1.79181 -3.81408 0
M  V30 60846 H 5683.02 1.99259 -2.58773 0
M  V30 60847 H 5681.68 0.150953 -3.66289 0
M  V30 60848 H 5681.32 2.53062 -4.34705 0
M  V30 60849 H 5681.02 1.41493 -5.7031 0
M  V30 60850 H 5682.55 2.34506 -5.63772 0
M  V30 60851 H 5683.96 0.0756061 -5.7325 0
M  V30 60852 H 5682.36 -0.681511 -5.96218 0
M  V30 60853 H 5683.43 -1.2738 -4.6787 0
M  V30 60854 N 5684.77 1.55278 -0.269533 0
M  V30 60855 C 5686.01 2.01379 0.350103 0
M  V30 60856 C 5686.38 1.15379 1.53466 0
M  V30 60857 O 5687.58 1.51035 2.22355 0
M  V30 60858 C 5685.85 3.49907 0.728011 0
M  V30 60859 S 5687.41 4.18 1.33497 0
M  V30 60860 H 5684.23 0.702571 0.109154 0
M  V30 60861 H 5686.83 1.91569 -0.390062 0
M  V30 60862 H 5685.53 4.10151 -0.14307 0
M  V30 60863 H 5685.06 3.6369 1.49978 0
M  V30 60864 H 5687.08 4.21162 2.62368 0
M  V30 60865 N 5686.25 -0.00327115 1.576 0
M  V30 60866 C 5687.16 -1.01213 2.11644 0
M  V30 60867 C 5688.18 -1.37914 1.06093 0
M  V30 60868 O 5689.35 -1.46712 1.37976 0
M  V30 60869 C 5686.42 -2.28628 2.60634 0
M  V30 60870 C 5685.48 -1.98271 3.80772 0
M  V30 60871 C 5684.71 -3.19611 4.27416 0
M  V30 60872 O 5684.93 -4.31183 3.73413 0
M  V30 60873 O 5683.87 -3.038 5.19605 0
M  V30 60874 H 5687.69 -0.582734 2.98057 0
M  V30 60875 H 5685.28 -0.221895 1.47743 0
M  V30 60876 H 5687.16 -3.03488 2.92358 0
M  V30 60877 H 5685.84 -2.70812 1.7732 0
M  V30 60878 H 5684.74 -1.20897 3.54026 0
M  V30 60879 H 5686.08 -1.60925 4.65149 0
M  V30 60880 N 5687.73 -1.55165 -0.275976 0
M  V30 60881 C 5688.98 -1.75284 -1.00598 0
M  V30 60882 C 5689.3 -0.555321 -1.86926 0
M  V30 60883 O 5688.57 0.42985 -1.91126 0
M  V30 60884 H 5687.15 -0.64639 -0.374419 0
M  V30 60885 H 5689.81 -1.92563 -0.300924 0
M  V30 60886 H 5688.91 -2.65251 -1.64464 0
M  V30 60887 N 5689.21 0.540352 -1.48047 0
M  V30 60888 C 5690.16 1.64185 -1.582 0
M  V30 60889 C 5691.14 1.54774 -0.439757 0
M  V30 60890 O 5692.33 1.6297 -0.690629 0
M  V30 60891 C 5689.46 3.02932 -1.61515 0
M  V30 60892 C 5688.55 3.17485 -2.81183 0
M  V30 60893 N 5688.94 3.02046 -4.05711 0
M  V30 60894 C 5687.24 3.4852 -2.78298 0
M  V30 60895 C 5687.94 3.1974 -4.85944 0
M  V30 60896 N 5686.91 3.46844 -4.18569 0
M  V30 60897 H 5690.72 1.50843 -2.52237 0
M  V30 60898 H 5688.23 0.745551 -1.44275 0
M  V30 60899 H 5690.23 3.82042 -1.66881 0
M  V30 60900 H 5688.89 3.17374 -0.685864 0
M  V30 60901 H 5689.9 2.79023 -4.3631 0
M  V30 60902 H 5686.57 3.69384 -1.9458 0
M  V30 60903 H 5687.96 3.12629 -5.94738 0
M  V30 60904 N 5690.69 1.36461 0.78842 0
M  V30 60905 C 5691.63 1.3093 1.9225 0
M  V30 60906 C 5692.63 0.200925 1.68204 0
M  V30 60907 O 5693.83 0.367989 1.76198 0
M  V30 60908 H 5690.21 0.407631 0.631934 0
M  V30 60909 H 5692.18 2.26702 1.94033 0
M  V30 60910 C 5690.93 1.11646 3.29288 0
M  V30 60911 H 5690.25 1.96181 3.48358 0
M  V30 60912 H 5691.69 1.11823 4.08989 0
M  V30 60913 C 5690.15 -0.178844 3.36425 0
M  V30 60914 O 5690.68 -1.16833 3.84335 0
M  V30 60915 N 5688.89 -0.223861 2.89736 0
M  V30 60916 H 5688.43 0.581976 2.5094 0
M  V30 60917 H 5688.39 -1.0902 2.94893 0
M  V30 60918 N 5692.16 -1.01269 1.20757 0
M  V30 60919 C 5693.39 -1.79057 1.04659 0
M  V30 60920 C 5693.81 -1.83807 -0.399568 0
M  V30 60921 O 5693.17 -1.276 -1.28794 0
M  V30 60922 C 5693.22 -3.21181 1.63936 0
M  V30 60923 O 5692.32 -4.0291 0.879627 0
M  V30 60924 H 5691.66 -0.552134 0.368842 0
M  V30 60925 H 5694.19 -1.2735 1.60135 0
M  V30 60926 H 5694.2 -3.71881 1.67835 0
M  V30 60927 H 5692.88 -3.17038 2.69183 0
M  V30 60928 H 5691.46 -3.61496 0.915146 0
M  V30 60929 N 5693.64 -1.01408 -1.2064 0
M  V30 60930 C 5694.92 -0.617153 -1.85609 0
M  V30 60931 C 5695.3 0.904879 -1.90723 0
M  V30 60932 O 5694.65 1.79557 -1.41321 0
M  V30 60933 C 5694.86 -1.26205 -3.25382 0
M  V30 60934 C 5696.2 -1.3759 -4.01689 0
M  V30 60935 O 5697.23 -1.21806 -3.34726 0
M  V30 60936 O 5696.09 -1.63069 -5.21604 0
M  V30 60937 H 5693.18 -0.212607 -0.799204 0
M  V30 60938 H 5695.73 -1.1113 -1.2825 0
M  V30 60939 H 5694.5 -2.30217 -3.16411 0
M  V30 60940 H 5694.12 -0.754816 -3.90369 0
M  V30 60941 N 5695.12 1.3637 -0.789992 0
M  V30 60942 C 5696.37 1.99226 -0.362652 0
M  V30 60943 C 5696.69 1.62698 1.06581 0
M  V30 60944 O 5695.95 0.873809 1.75109 0
M  V30 60945 C 5696.25 3.54241 -0.47415 0
M  V30 60946 C 5695.91 4.1059 -1.8635 0
M  V30 60947 C 5694.58 4.25692 -2.24364 0
M  V30 60948 C 5696.93 4.41296 -2.77322 0
M  V30 60949 C 5694.26 4.68811 -3.52751 0
M  V30 60950 C 5696.61 4.85847 -4.05136 0
M  V30 60951 C 5695.27 4.99154 -4.43172 0
M  V30 60952 H 5694.54 0.72902 -0.132704 0
M  V30 60953 H 5697.19 1.62851 -1.00756 0
M  V30 60954 H 5695.49 3.90974 0.254261 0
M  V30 60955 H 5697.19 4.00807 -0.124525 0
M  V30 60956 H 5693.78 3.99276 -1.55811 0
M  V30 60957 H 5697.97 4.29197 -2.49207 0
M  V30 60958 H 5693.22 4.77302 -3.8209 0
M  V30 60959 H 5697.4 5.0857 -4.75741 0
M  V30 60960 H 5695.02 5.32325 -5.4271 0
M  V30 60961 N 5696.6 0.542057 1.47985 0
M  V30 60962 C 5697.53 -0.25135 2.27818 0
M  V30 60963 C 5698.54 -0.893388 1.36097 0
M  V30 60964 O 5699.73 -0.769793 1.61048 0
M  V30 60965 C 5696.83 -1.37225 3.09875 0
M  V30 60966 C 5696 -0.82987 4.29455 0
M  V30 60967 C 5695.06 -1.83339 4.93228 0
M  V30 60968 O 5694.09 -1.38552 5.5208 0
M  V30 60969 N 5695.29 -3.16614 4.86555 0
M  V30 60970 H 5698.06 0.433385 2.9655 0
M  V30 60971 H 5695.62 0.377154 1.57446 0
M  V30 60972 H 5697.61 -2.042 3.49406 0
M  V30 60973 H 5696.18 -1.96046 2.43484 0
M  V30 60974 H 5695.4 0.0162213 3.94197 0
M  V30 60975 H 5696.69 -0.446583 5.06836 0
M  V30 60976 H 5696.09 -3.55658 4.39914 0
M  V30 60977 H 5694.64 -3.79188 5.30151 0
M  V30 60978 N 5698.08 -1.55133 0.277764 0
M  V30 60979 C 5699.02 -2.24059 -0.624516 0
M  V30 60980 C 5700.02 -1.23852 -1.15572 0
M  V30 60981 O 5701.22 -1.41775 -1.10905 0
M  V30 60982 H 5697.6 -0.719114 -0.219952 0
M  V30 60983 H 5699.57 -2.98393 -0.0203766 0
M  V30 60984 C 5698.32 -2.97718 -1.79608 0
M  V30 60985 H 5697.64 -3.74616 -1.39652 0
M  V30 60986 H 5699.08 -3.49264 -2.40397 0
M  V30 60987 C 5697.54 -2.03342 -2.68614 0
M  V30 60988 O 5698.07 -1.58635 -3.6905 0
M  V30 60989 N 5696.28 -1.69786 -2.35841 0
M  V30 60990 H 5695.82 -2.06338 -1.54215 0
M  V30 60991 H 5695.78 -1.06911 -2.95664 0
M  V30 60992 N 5699.55 -0.00508679 -1.57599 0
M  V30 60993 C 5700.78 0.688541 -1.94789 0
M  V30 60994 C 5701.19 1.67554 -0.878757 0
M  V30 60995 O 5700.53 1.83083 0.150421 0
M  V30 60996 C 5700.6 1.47171 -3.27995 0
M  V30 60997 C 5700.26 0.645731 -4.52415 0
M  V30 60998 C 5701.26 -0.0687686 -5.19855 0
M  V30 60999 C 5698.94 0.590204 -4.9882 0
M  V30 61000 C 5700.94 -0.827727 -6.32003 0
M  V30 61001 C 5698.62 -0.172476 -6.10857 0
M  V30 61002 C 5699.62 -0.88017 -6.77305 0
M  V30 61003 O 5699.31 -1.6304 -7.87193 0
M  V30 61004 H 5699.04 0.196393 -0.646843 0
M  V30 61005 H 5701.6 -0.0538654 -2.05329 0
M  V30 61006 H 5699.83 2.25872 -3.13877 0
M  V30 61007 H 5701.51 2.05116 -3.5026 0
M  V30 61008 H 5702.28 -0.0350539 -4.84987 0
M  V30 61009 H 5698.16 1.13058 -4.46922 0
M  V30 61010 H 5701.7 -1.38064 -6.83801 0
M  V30 61011 H 5697.6 -0.207994 -6.45165 0
M  V30 61012 H 5698.37 -1.54764 -8.03735 0
M  V30 61013 N 5701.03 1.55309 0.267743 0
M  V30 61014 C 5701.96 1.91559 1.33519 0
M  V30 61015 C 5702.94 0.778054 1.51262 0
M  V30 61016 O 5704.13 1.03663 1.64218 0
M  V30 61017 C 5701.26 2.19211 2.69377 0
M  V30 61018 C 5700.21 3.35019 2.66357 0
M  V30 61019 C 5699.54 3.48162 4.05816 0
M  V30 61020 C 5700.84 4.71272 2.25166 0
M  V30 61021 H 5702.53 2.80968 1.03427 0
M  V30 61022 H 5700.08 1.35185 0.496093 0
M  V30 61023 H 5702.03 2.43158 3.44169 0
M  V30 61024 H 5700.75 1.26606 3.01062 0
M  V30 61025 H 5699.41 3.11048 1.94023 0
M  V30 61026 H 5699.06 2.53015 4.34733 0
M  V30 61027 H 5698.76 4.26029 4.04689 0
M  V30 61028 H 5700.29 3.74408 4.82339 0
M  V30 61029 H 5701.7 4.9473 2.89682 0
M  V30 61030 H 5700.1 5.52092 2.3519 0
M  V30 61031 H 5701.17 4.6974 1.20303 0
M  V30 61032 N 5702.51 -0.532493 1.48332 0
M  V30 61033 C 5703.93 -0.860795 1.34397 0
M  V30 61034 C 5704.13 -1.98382 0.353083 0
M  V30 61035 O 5703.18 -2.51481 -0.2266 0
M  V30 61036 C 5704.49 -1.23069 2.74362 0
M  V30 61037 C 5706.04 -1.34072 2.82832 0
M  V30 61038 C 5706.52 -1.74406 4.23493 0
M  V30 61039 N 5708.01 -1.81513 4.26154 0
M  V30 61040 C 5708.74 -2.14101 5.31929 0
M  V30 61041 N 5708.24 -2.45131 6.47983 0
M  V30 61042 N 5710.03 -2.15086 5.19321 0
M  V30 61043 H 5702.18 0.208538 2.11374 0
M  V30 61044 H 5704.45 0.0306533 0.947504 0
M  V30 61045 H 5704.15 -0.479137 3.48421 0
M  V30 61046 H 5704.03 -2.1814 3.07725 0
M  V30 61047 H 5706.41 -2.08304 2.0903 0
M  V30 61048 H 5706.49 -0.371281 2.53091 0
M  V30 61049 H 5706.14 -1.00735 4.9781 0
M  V30 61050 H 5706.07 -2.72395 4.50676 0
M  V30 61051 H 5708.56 -1.5982 3.42441 0
M  V30 61052 H 5708.87 -2.69096 7.24436 0
M  V30 61053 H 5707.22 -2.42657 6.51262 0
M  V30 61054 H 5710.41 -1.903 4.27672 0
M  V30 61055 H 5710.58 -2.40152 6.01856 0
M  V30 61056 N 5703.99 -1.36878 -0.781172 0
M  V30 61057 C 5705.22 -1.34738 -1.57014 0
M  V30 61058 C 5705.63 0.069476 -1.88672 0
M  V30 61059 O 5704.99 1.02867 -1.50747 0
M  V30 61060 C 5705.04 -2.17678 -2.88615 0
M  V30 61061 O 5704.76 -3.53841 -2.58318 0
M  V30 61062 C 5706.26 -2.23411 -3.82887 0
M  V30 61063 H 5703.48 -0.461874 -0.486738 0
M  V30 61064 H 5706.02 -1.80089 -0.968925 0
M  V30 61065 H 5704.18 -1.7586 -3.45184 0
M  V30 61066 H 5704.59 -3.97212 -3.42524 0
M  V30 61067 H 5706.07 -2.85786 -4.72261 0
M  V30 61068 H 5706.54 -1.23987 -4.21336 0
M  V30 61069 H 5707.15 -2.65501 -3.32249 0
M  V30 61070 N 5705.47 1.00628 -1.21292 0
M  V30 61071 C 5706.4 2.09536 -0.928827 0
M  V30 61072 C 5707.41 1.62565 0.087464 0
M  V30 61073 O 5708.6 1.77911 -0.14487 0
M  V30 61074 C 5705.7 3.36842 -0.372878 0
M  V30 61075 C 5704.87 4.12905 -1.4432 0
M  V30 61076 C 5703.93 5.18503 -0.896716 0
M  V30 61077 O 5702.96 5.46836 -1.57985 0
M  V30 61078 N 5704.16 5.79782 0.288684 0
M  V30 61079 H 5706.93 2.34492 -1.86637 0
M  V30 61080 H 5704.49 1.171 -1.118 0
M  V30 61081 H 5706.48 4.04699 0.00708509 0
M  V30 61082 H 5705.05 3.09055 0.469464 0
M  V30 61083 H 5704.27 3.39869 -1.99706 0
M  V30 61084 H 5705.56 4.605 -2.16372 0
M  V30 61085 H 5704.95 5.59113 0.860754 0
M  V30 61086 H 5703.51 6.48938 0.610172 0
M  V30 61087 N 5706.94 1.02047 1.20101 0
M  V30 61088 C 5708.17 0.731383 1.93542 0
M  V30 61089 C 5708.59 -0.708521 1.75001 0
M  V30 61090 O 5707.94 -1.48097 1.06647 0
M  V30 61091 C 5708 1.06245 3.45535 0
M  V30 61092 O 5707.72 2.4458 3.63472 0
M  V30 61093 C 5709.22 0.794971 4.36114 0
M  V30 61094 H 5706.44 0.26827 0.615038 0
M  V30 61095 H 5708.98 1.36269 1.52483 0
M  V30 61096 H 5707.14 0.476476 3.84459 0
M  V30 61097 H 5707.55 2.56646 4.5742 0
M  V30 61098 H 5709.02 1.07666 5.41398 0
M  V30 61099 H 5709.5 -0.27079 4.38364 0
M  V30 61100 H 5710.11 1.36328 4.02858 0
M  V30 61101 N 5708.42 -1.3595 0.797213 0
M  V30 61102 C 5709.67 -1.98638 0.372475 0
M  V30 61103 C 5709.99 -1.63575 -1.06152 0
M  V30 61104 O 5709.26 -0.913576 -1.73293 0
M  V30 61105 H 5707.84 -0.734748 0.134736 0
M  V30 61106 H 5710.5 -1.66018 1.02098 0
M  V30 61107 H 5709.6 -3.08532 0.470599 0
M  V30 61108 N 5709.9 -0.549898 -1.47695 0
M  V30 61109 C 5710.85 0.215038 -2.31604 0
M  V30 61110 C 5711.84 0.916391 -1.42473 0
M  V30 61111 O 5713.05 0.838509 -1.59277 0
M  V30 61112 H 5709.42 0.0882179 -0.746808 0
M  V30 61113 H 5711.39 -0.511951 -2.93976 0
M  V30 61114 C 5710.14 1.2365 -3.24971 0
M  V30 61115 H 5709.47 0.706246 -3.93513 0
M  V30 61116 H 5710.91 1.74276 -3.86528 0
M  V30 61117 C 5709.37 2.28057 -2.47975 0
M  V30 61118 O 5709.9 3.34855 -2.2189 0
M  V30 61119 N 5708.1 2.01792 -2.09113 0
M  V30 61120 H 5707.65 1.14957 -2.30527 0
M  V30 61121 H 5707.61 2.71866 -1.57912 0
M  V30 61122 N 5711.38 1.54983 -0.285987 0
M  V30 61123 C 5712.33 2.24387 0.612624 0
M  V30 61124 C 5713.32 1.24464 1.14914 0
M  V30 61125 O 5714.53 1.42361 1.10151 0
M  V30 61126 H 5710.9 0.720271 0.216135 0
M  V30 61127 H 5712.87 2.984 0.00455178 0
M  V30 61128 C 5711.62 2.98667 1.78027 0
M  V30 61129 H 5710.94 3.75352 1.37663 0
M  V30 61130 H 5712.38 3.50534 2.38542 0
M  V30 61131 C 5710.84 2.04763 2.67532 0
M  V30 61132 O 5711.37 1.60589 3.68204 0
M  V30 61133 N 5709.58 1.71034 2.34938 0
M  V30 61134 H 5709.13 2.07153 1.53119 0
M  V30 61135 H 5709.08 1.08477 2.95093 0
M  V30 61136 N 5712.86 0.0134446 1.57594 0
M  V30 61137 C 5714.08 -0.679186 1.95435 0
M  V30 61138 C 5714.5 -1.66555 0.889087 0
M  V30 61139 O 5713.86 -1.82031 -0.130691 0
M  V30 61140 C 5713.91 -1.39932 3.33319 0
M  V30 61141 O 5713.63 -0.45249 4.35757 0
M  V30 61142 C 5715.13 -2.18522 3.85698 0
M  V30 61143 H 5712.35 -0.188315 0.644033 0
M  V30 61144 H 5714.89 0.0685579 2.04385 0
M  V30 61145 H 5713.05 -2.09858 3.25635 0
M  V30 61146 H 5713.46 -0.962062 5.15601 0
M  V30 61147 H 5714.94 -2.64386 4.84566 0
M  V30 61148 H 5715.41 -3.01768 3.19113 0
M  V30 61149 H 5716.02 -1.53584 3.966 0
M  V30 61150 N 5714.33 -1.55449 -0.259503 0
M  V30 61151 C 5715.56 -1.80731 -1.00717 0
M  V30 61152 C 5715.98 -0.587417 -1.79429 0
M  V30 61153 O 5715.33 0.443757 -1.77023 0
M  V30 61154 C 5715.39 -3.04071 -1.95507 0
M  V30 61155 O 5715.11 -4.2135 -1.19982 0
M  V30 61156 C 5716.61 -3.42059 -2.81976 0
M  V30 61157 H 5713.83 -0.601723 -0.296934 0
M  V30 61158 H 5716.37 -2.02487 -0.286201 0
M  V30 61159 H 5714.53 -2.84402 -2.63048 0
M  V30 61160 H 5714.94 -4.91171 -1.83988 0
M  V30 61161 H 5716.41 -4.31497 -3.44259 0
M  V30 61162 H 5716.89 -2.62071 -3.52442 0
M  V30 61163 H 5717.5 -3.64035 -2.19906 0
M  V30 61164 N 5715.81 0.524619 -1.48612 0
M  V30 61165 C 5717.06 1.28205 -1.57135 0
M  V30 61166 C 5717.39 1.92625 -0.246819 0
M  V30 61167 O 5716.67 1.79556 0.747662 0
M  V30 61168 C 5716.95 2.36728 -2.71352 0
M  V30 61169 C 5716.8 1.76964 -4.13526 0
M  V30 61170 C 5718.12 3.3846 -2.81306 0
M  V30 61171 H 5715.24 0.46477 -0.571977 0
M  V30 61172 H 5717.88 0.583874 -1.80806 0
M  V30 61173 H 5716.03 2.96278 -2.51299 0
M  V30 61174 H 5717.7 1.21423 -4.45033 0
M  V30 61175 H 5715.95 1.07474 -4.20276 0
M  V30 61176 H 5716.62 2.55566 -4.89275 0
M  V30 61177 H 5719.09 2.88871 -2.99487 0
M  V30 61178 H 5717.97 4.11782 -3.62942 0
M  V30 61179 H 5718.23 3.99341 -1.89683 0
M  V30 61180 N 5717.29 1.3729 0.773902 0
M  V30 61181 C 5718.24 1.32962 1.9085 0
M  V30 61182 C 5719.23 0.218754 1.67982 0
M  V30 61183 O 5720.44 0.386656 1.75798 0
M  V30 61184 H 5716.81 0.414311 0.627575 0
M  V30 61185 H 5718.78 2.28747 1.91618 0
M  V30 61186 C 5717.53 1.15132 3.28085 0
M  V30 61187 H 5716.86 1.99864 3.46257 0
M  V30 61188 H 5718.3 1.16154 4.0778 0
M  V30 61189 C 5716.76 -0.143152 3.36596 0
M  V30 61190 O 5717.29 -1.1275 3.85552 0
M  V30 61191 N 5715.49 -0.193118 2.89958 0
M  V30 61192 H 5715.04 0.608559 2.50308 0
M  V30 61193 H 5715 -1.05886 2.96033 0
M  V30 61194 N 5718.77 -0.999829 1.21824 0
M  V30 61195 C 5720.02 -1.73253 1.03278 0
M  V30 61196 C 5720.33 -1.90737 -0.433435 0
M  V30 61197 O 5721.54 -2.61265 -0.738419 0
M  V30 61198 C 5719.99 -3.11691 1.79936 0
M  V30 61199 C 5719.6 -3.02162 3.3076 0
M  V30 61200 C 5721.34 -3.89055 1.69814 0
M  V30 61201 C 5719.25 -4.35711 3.99887 0
M  V30 61202 H 5718.18 -0.649581 0.382831 0
M  V30 61203 H 5720.83 -1.11671 1.45609 0
M  V30 61204 H 5719.21 -3.73914 1.30399 0
M  V30 61205 H 5720.39 -2.49145 3.87638 0
M  V30 61206 H 5718.7 -2.38284 3.41482 0
M  V30 61207 H 5721.3 -4.8789 2.18787 0
M  V30 61208 H 5721.64 -4.11078 0.657292 0
M  V30 61209 H 5722.18 -3.33494 2.16856 0
M  V30 61210 H 5718.92 -4.18888 5.04196 0
M  V30 61211 H 5718.44 -4.88668 3.47798 0
M  V30 61212 H 5720.11 -5.04489 4.05092 0
M  V30 61213 N 5720.25 -1.02682 -1.19558 0
M  V30 61214 C 5721.5 -0.717345 -1.88513 0
M  V30 61215 C 5721.81 0.757 -1.80358 0
M  V30 61216 O 5723.02 1.17944 -2.44543 0
M  V30 61217 C 5721.47 -1.23277 -3.38128 0
M  V30 61218 C 5721.08 -2.73475 -3.54846 0
M  V30 61219 C 5722.82 -0.999185 -4.12573 0
M  V30 61220 C 5720.73 -3.18445 -4.98344 0
M  V30 61221 H 5719.66 -0.264633 -0.706035 0
M  V30 61222 H 5722.31 -1.24085 -1.35186 0
M  V30 61223 H 5720.69 -0.637189 -3.9084 0
M  V30 61224 H 5721.87 -3.3867 -3.12473 0
M  V30 61225 H 5720.18 -2.95089 -2.93788 0
M  V30 61226 H 5722.78 -1.31048 -5.18392 0
M  V30 61227 H 5723.12 0.0640707 -4.16251 0
M  V30 61228 H 5723.66 -1.55866 -3.65993 0
M  V30 61229 H 5720.39 -4.24091 -4.99827 0
M  V30 61230 H 5719.91 -2.57977 -5.41487 0
M  V30 61231 H 5721.59 -3.11669 -5.66985 0
M  V30 61232 N 5721.73 1.35525 -0.804411 0
M  V30 61233 C 5722.97 1.98083 -0.380265 0
M  V30 61234 C 5723.29 1.64535 1.05772 0
M  V30 61235 O 5724.49 2.20441 1.58487 0
M  V30 61236 C 5722.95 3.54361 -0.628973 0
M  V30 61237 C 5722.56 3.96821 -2.07935 0
M  V30 61238 C 5724.3 4.2364 -0.270076 0
M  V30 61239 C 5722.21 5.45936 -2.27393 0
M  V30 61240 H 5721.14 0.74118 -0.138448 0
M  V30 61241 H 5723.79 1.54621 -0.988162 0
M  V30 61242 H 5722.17 3.9597 0.0488445 0
M  V30 61243 H 5723.35 3.66371 -2.7948 0
M  V30 61244 H 5721.66 3.40425 -2.39791 0
M  V30 61245 H 5724.26 5.3325 -0.393532 0
M  V30 61246 H 5724.6 4.08861 0.7835 0
M  V30 61247 H 5725.13 3.87445 -0.901724 0
M  V30 61248 H 5721.87 5.65681 -3.31188 0
M  V30 61249 H 5721.39 5.77963 -1.6037 0
M  V30 61250 H 5723.07 6.12369 -2.08839 0
M  V30 61251 N 5723.2 0.557723 1.47402 0
M  V30 61252 C 5724.43 0.0367526 2.07367 0
M  V30 61253 C 5724.85 -1.24775 1.40758 0
M  V30 61254 O 5724.21 -1.74755 0.482742 0
M  V30 61255 C 5724.26 -0.141602 3.60322 0
M  V30 61256 O 5723.36 -1.20405 3.94432 0
M  V30 61257 H 5722.7 0.0515552 0.661996 0
M  V30 61258 H 5725.23 0.773552 1.89413 0
M  V30 61259 H 5725.24 -0.355644 4.06447 0
M  V30 61260 H 5723.92 0.796576 4.082 0
M  V30 61261 H 5722.5 -0.970463 3.60051 0
M  V30 61262 N 5724.68 -1.5483 0.294202 0
M  V30 61263 C 5725.91 -2.04412 -0.319866 0
M  V30 61264 C 5726.32 -1.17179 -1.48035 0
M  V30 61265 O 5725.68 -0.195944 -1.81445 0
M  V30 61266 C 5725.73 -3.52927 -0.782627 0
M  V30 61267 O 5725.45 -4.36843 0.331665 0
M  V30 61268 C 5726.95 -4.18479 -1.46255 0
M  V30 61269 H 5724.17 -0.667289 -0.0704738 0
M  V30 61270 H 5726.72 -1.99888 0.431855 0
M  V30 61271 H 5724.87 -3.57833 -1.48439 0
M  V30 61272 H 5725.29 -5.24493 -0.0273899 0
M  V30 61273 H 5726.76 -5.23939 -1.73757 0
M  V30 61274 H 5727.24 -3.67802 -2.40039 0
M  V30 61275 H 5727.84 -4.17629 -0.804145 0
M  V30 61276 N 5726.16 -0.021802 -1.57585 0
M  V30 61277 C 5727.41 0.659395 -1.91781 0
M  V30 61278 C 5727.74 1.72198 -0.897861 0
M  V30 61279 O 5727.01 1.94334 0.0804407 0
M  V30 61280 C 5727.3 1.28257 -3.36485 0
M  V30 61281 C 5727.15 0.230043 -4.49211 0
M  V30 61282 C 5728.47 2.20266 -3.81013 0
M  V30 61283 H 5725.59 0.238238 -0.697432 0
M  V30 61284 H 5728.23 -0.0775634 -1.89842 0
M  V30 61285 H 5726.38 1.91068 -3.38268 0
M  V30 61286 H 5728.05 -0.400063 -4.59562 0
M  V30 61287 H 5726.29 -0.445309 -4.31508 0
M  V30 61288 H 5726.97 0.70554 -5.47472 0
M  V30 61289 H 5729.44 1.6745 -3.8092 0
M  V30 61290 H 5728.32 2.60825 -4.82972 0
M  V30 61291 H 5728.58 3.09081 -3.16103 0
M  V30 61292 N 5727.64 1.55584 0.251256 0
M  V30 61293 C 5728.91 1.67958 1.00248 0
M  V30 61294 C 5729.29 0.560398 2.03526 0
M  V30 61295 O 5728.64 -0.436732 2.24288 0
M  V30 61296 C 5728.85 3.0808 1.63974 0
M  V30 61297 C 5730.2 3.66539 2.14323 0
M  V30 61298 O 5731.22 3.10853 1.73923 0
M  V30 61299 O 5730.08 4.64151 2.8849 0
M  V30 61300 H 5727.18 0.682968 0.466351 0
M  V30 61301 H 5729.72 1.67916 0.245387 0
M  V30 61302 H 5728.5 3.80986 0.892493 0
M  V30 61303 H 5728.12 3.12114 2.46314 0
M  V30 61304 N 5729.12 -0.516731 1.48888 0
M  V30 61305 C 5730.35 -1.29435 1.61029 0
M  V30 61306 C 5730.75 -1.87194 0.274771 0
M  V30 61307 O 5730.1 -1.6779 -0.747809 0
M  V30 61308 C 5730.16 -2.4742 2.60813 0
M  V30 61309 C 5729.82 -2.10649 4.05556 0
M  V30 61310 C 5730.82 -1.65542 4.92841 0
M  V30 61311 C 5728.5 -2.20766 4.51185 0
M  V30 61312 C 5730.5 -1.31035 6.23786 0
M  V30 61313 C 5728.19 -1.8587 5.82147 0
M  V30 61314 C 5729.18 -1.41077 6.68271 0
M  V30 61315 O 5728.87 -1.06646 7.96795 0
M  V30 61316 H 5728.6 -0.399383 0.545408 0
M  V30 61317 H 5731.16 -0.62865 1.95543 0
M  V30 61318 H 5729.39 -3.17015 2.21446 0
M  V30 61319 H 5731.08 -3.09468 2.62648 0
M  V30 61320 H 5731.84 -1.57185 4.58822 0
M  V30 61321 H 5727.72 -2.54584 3.84328 0
M  V30 61322 H 5731.27 -0.960003 6.90963 0
M  V30 61323 H 5727.16 -1.93872 6.15698 0
M  V30 61324 H 5727.93 -1.1993 8.09666 0
M  V30 61325 N 5730.59 -1.37698 -0.766611 0
M  V30 61326 C 5731.52 -1.36582 -1.89387 0
M  V30 61327 C 5732.5 -0.233656 -1.68488 0
M  V30 61328 O 5733.69 -0.434786 -1.8927 0
M  V30 61329 C 5730.82 -1.17717 -3.26741 0
M  V30 61330 C 5729.77 -2.28 -3.62215 0
M  V30 61331 C 5729.1 -1.94253 -4.98167 0
M  V30 61332 C 5730.4 -3.70208 -3.68434 0
M  V30 61333 H 5732.09 -2.30912 -1.90578 0
M  V30 61334 H 5729.64 -1.11151 -0.915499 0
M  V30 61335 H 5731.59 -1.15565 -4.05244 0
M  V30 61336 H 5730.32 -0.198449 -3.25997 0
M  V30 61337 H 5728.98 -2.29316 -2.86024 0
M  V30 61338 H 5728.62 -0.94897 -4.93967 0
M  V30 61339 H 5728.32 -2.68105 -5.22871 0
M  V30 61340 H 5729.85 -1.93696 -5.79063 0
M  V30 61341 H 5731.26 -3.70993 -4.37078 0
M  V30 61342 H 5729.66 -4.43156 -4.04639 0
M  V30 61343 H 5730.73 -4.03463 -2.68972 0
M  V30 61344 N 5732.07 0.993354 -1.22353 0
M  V30 61345 C 5733 2.10167 -1.01744 0
M  V30 61346 C 5733.98 1.69989 0.0614678 0
M  V30 61347 O 5735.17 1.93939 -0.100659 0
M  V30 61348 C 5732.3 3.42184 -0.593922 0
M  V30 61349 C 5731.25 3.96209 -1.61871 0
M  V30 61350 C 5730.58 5.24268 -1.05105 0
M  V30 61351 C 5731.88 4.26945 -3.00857 0
M  V30 61352 H 5733.57 2.27666 -1.94444 0
M  V30 61353 H 5731.12 1.09405 -0.936297 0
M  V30 61354 H 5733.07 4.19129 -0.436862 0
M  V30 61355 H 5731.79 3.24512 0.368741 0
M  V30 61356 H 5730.45 3.21395 -1.76354 0
M  V30 61357 H 5730.1 5.02937 -0.0797515 0
M  V30 61358 H 5729.8 5.61381 -1.73567 0
M  V30 61359 H 5731.33 6.03848 -0.905561 0
M  V30 61360 H 5732.74 4.94689 -2.89751 0
M  V30 61361 H 5731.14 4.75229 -3.66439 0
M  V30 61362 H 5732.21 3.34739 -3.50824 0
M  V30 61363 N 5733.55 1.03315 1.19012 0
M  V30 61364 C 5734.97 0.750995 1.40827 0
M  V30 61365 C 5735.17 -0.662637 1.90293 0
M  V30 61366 O 5734.22 -1.42799 2.08242 0
M  V30 61367 C 5735.53 1.79073 2.41565 0
M  V30 61368 C 5737.08 1.81077 2.55304 0
M  V30 61369 C 5737.56 2.84021 3.593 0
M  V30 61370 N 5739.05 2.82864 3.668 0
M  V30 61371 C 5739.78 3.59171 4.46971 0
M  V30 61372 N 5739.28 4.45207 5.30813 0
M  V30 61373 N 5741.07 3.47694 4.41662 0
M  V30 61374 H 5733.22 1.94551 0.852261 0
M  V30 61375 H 5735.49 0.841359 0.436828 0
M  V30 61376 H 5735.19 2.80432 2.12251 0
M  V30 61377 H 5735.07 1.61658 3.40803 0
M  V30 61378 H 5737.45 0.803925 2.83938 0
M  V30 61379 H 5737.53 2.02568 1.56205 0
M  V30 61380 H 5737.18 3.84879 3.31407 0
M  V30 61381 H 5737.11 2.59787 4.58059 0
M  V30 61382 H 5739.6 2.20468 3.06924 0
M  V30 61383 H 5739.91 5.0016 5.89118 0
M  V30 61384 H 5738.26 4.49277 5.30259 0
M  V30 61385 H 5741.45 2.7989 3.75206 0
M  V30 61386 H 5741.62 4.07414 5.03903 0
M  V30 61387 N 5735.03 -1.35096 0.811587 0
M  V30 61388 C 5736.27 -1.98918 0.394885 0
M  V30 61389 C 5736.61 -1.64223 -1.03655 0
M  V30 61390 O 5735.88 -0.908091 -1.72 0
M  V30 61391 C 5736.17 -3.55329 0.584255 0
M  V30 61392 C 5736.02 -3.99804 2.06098 0
M  V30 61393 C 5737.34 -4.40098 0.0130643 0
M  V30 61394 H 5734.46 -0.722605 0.144952 0
M  V30 61395 H 5737.1 -1.60169 1.02205 0
M  V30 61396 H 5735.25 -3.88467 0.0503812 0
M  V30 61397 H 5736.92 -3.77052 2.65762 0
M  V30 61398 H 5735.16 -3.5053 2.5556 0
M  V30 61399 H 5735.83 -5.08647 2.14434 0
M  V30 61400 H 5738.31 -4.13448 0.469063 0
M  V30 61401 H 5737.19 -5.4862 0.175445 0
M  V30 61402 H 5737.45 -4.28679 -1.08105 0
M  V30 61403 N 5736.51 -0.565532 -1.47104 0
M  V30 61404 C 5737.44 0.215074 -2.28189 0
M  V30 61405 C 5738.45 0.871623 -1.37501 0
M  V30 61406 O 5739.64 0.744074 -1.62252 0
M  V30 61407 C 5736.74 1.32278 -3.12019 0
M  V30 61408 C 5735.91 0.761442 -4.30721 0
M  V30 61409 C 5734.97 1.75469 -4.96082 0
M  V30 61410 O 5734 1.29751 -5.54214 0
M  V30 61411 N 5735.2 3.08833 -4.91531 0
M  V30 61412 H 5737.97 -0.480509 -2.95823 0
M  V30 61413 H 5735.53 -0.402154 -1.56826 0
M  V30 61414 H 5737.52 1.98615 -3.5261 0
M  V30 61415 H 5736.09 1.92148 -2.46573 0
M  V30 61416 H 5735.31 -0.0789325 -3.94121 0
M  V30 61417 H 5736.6 0.365894 -5.07483 0
M  V30 61418 H 5735.99 3.48614 -4.45516 0
M  V30 61419 H 5734.55 3.70706 -5.36116 0
M  V30 61420 N 5737.98 1.54671 -0.302409 0
M  V30 61421 C 5738.89 2.27253 0.582498 0
M  V30 61422 C 5739.91 1.30824 1.14722 0
M  V30 61423 O 5741.09 1.63808 1.17171 0
M  V30 61424 C 5738.15 3.00022 1.73746 0
M  V30 61425 C 5737.21 4.11993 1.20667 0
M  V30 61426 C 5736.45 4.81282 2.30659 0
M  V30 61427 O 5736.67 4.4994 3.50586 0
M  V30 61428 O 5735.6 5.68654 1.97271 0
M  V30 61429 H 5739.43 3.03699 -0.00632042 0
M  V30 61430 H 5737.01 1.49241 -0.0688209 0
M  V30 61431 H 5738.9 3.4566 2.41033 0
M  V30 61432 H 5737.57 2.2647 2.31286 0
M  V30 61433 H 5736.48 3.7075 0.499494 0
M  V30 61434 H 5737.81 4.87526 0.676687 0
M  V30 61435 N 5739.46 0.0301588 1.57571 0
M  V30 61436 C 5740.69 -0.661976 1.96552 0
M  V30 61437 C 5741.11 -1.64808 0.906638 0
M  V30 61438 O 5740.47 -1.80816 -0.132351 0
M  V30 61439 C 5740.52 -1.34377 3.34627 0
M  V30 61440 O 5739.62 -2.45907 3.31064 0
M  V30 61441 H 5738.96 -0.17382 0.640845 0
M  V30 61442 H 5741.49 0.0923199 2.04392 0
M  V30 61443 H 5741.5 -1.70032 3.70881 0
M  V30 61444 H 5740.18 -0.620948 4.11238 0
M  V30 61445 H 5738.76 -2.12356 3.06528 0
M  V30 61446 N 5740.94 -1.55715 -0.243001 0
M  V30 61447 C 5742.19 -1.7693 -0.968428 0
M  V30 61448 C 5742.5 -0.594813 -1.86337 0
M  V30 61449 O 5743.71 -0.690073 -2.62584 0
M  V30 61450 C 5742.16 -3.13253 -1.77203 0
M  V30 61451 C 5741.77 -4.38362 -0.924286 0
M  V30 61452 C 5743.52 -3.43805 -2.48995 0
M  V30 61453 C 5741.42 -5.65714 -1.724 0
M  V30 61454 H 5740.35 -0.659587 -0.365323 0
M  V30 61455 H 5743 -1.8214 -0.222962 0
M  V30 61456 H 5741.39 -3.0216 -2.55959 0
M  V30 61457 H 5742.56 -4.60453 -0.178774 0
M  V30 61458 H 5740.88 -4.15172 -0.319507 0
M  V30 61459 H 5743.47 -4.36171 -3.09288 0
M  V30 61460 H 5743.82 -2.65308 -3.20807 0
M  V30 61461 H 5744.35 -3.5613 -1.77246 0
M  V30 61462 H 5741.09 -6.47043 -1.04955 0
M  V30 61463 H 5740.61 -5.47718 -2.44469 0
M  V30 61464 H 5742.29 -6.05113 -2.29015 0
M  V30 61465 N 5742.42 0.508828 -1.4916 0
M  V30 61466 C 5743.64 1.29239 -1.6221 0
M  V30 61467 C 5744.07 1.85844 -0.290475 0
M  V30 61468 O 5743.43 1.65472 0.740848 0
M  V30 61469 C 5743.47 2.40406 -2.6877 0
M  V30 61470 O 5742.58 3.4404 -2.27399 0
M  V30 61471 H 5741.92 0.381879 -0.543198 0
M  V30 61472 H 5744.45 0.610007 -1.95295 0
M  V30 61473 H 5744.46 2.86285 -2.90698 0
M  V30 61474 H 5743.13 1.98571 -3.65434 0
M  V30 61475 H 5741.71 3.04134 -2.15771 0
M  V30 61476 N 5743.9 1.38103 0.759297 0
M  V30 61477 C 5745.17 1.24522 1.50843 0
M  V30 61478 C 5745.55 -0.155855 2.10524 0
M  V30 61479 O 5744.9 -1.16478 1.96583 0
M  V30 61480 C 5745.11 2.35095 2.57937 0
M  V30 61481 C 5746.46 2.73243 3.24997 0
M  V30 61482 O 5747.48 2.34364 2.68238 0
M  V30 61483 O 5746.34 3.40269 4.27644 0
M  V30 61484 H 5743.44 0.486623 0.668676 0
M  V30 61485 H 5745.98 1.49916 0.795197 0
M  V30 61486 H 5744.75 3.28866 2.12045 0
M  V30 61487 H 5744.38 2.11234 3.36847 0
M  V30 61488 N 5745.37 -0.986851 1.22878 0
M  V30 61489 C 5746.62 -1.72725 1.05699 0
M  V30 61490 C 5746.95 -1.90193 -0.407054 0
M  V30 61491 O 5746.2 -1.44671 -1.31791 0
M  V30 61492 C 5746.5 -3.13277 1.72023 0
M  V30 61493 C 5746.17 -3.15707 3.21931 0
M  V30 61494 C 5744.83 -3.16078 3.62834 0
M  V30 61495 C 5747.18 -3.11525 4.17854 0
M  V30 61496 C 5744.51 -3.09974 4.9813 0
M  V30 61497 C 5746.86 -3.06963 5.53134 0
M  V30 61498 C 5745.53 -3.05652 5.93408 0
M  V30 61499 H 5744.8 -0.632046 0.38678 0
M  V30 61500 H 5747.44 -1.15533 1.52723 0
M  V30 61501 H 5745.75 -3.73816 1.17341 0
M  V30 61502 H 5747.45 -3.69321 1.56216 0
M  V30 61503 H 5744.04 -3.16172 2.89366 0
M  V30 61504 H 5748.22 -3.10383 3.87267 0
M  V30 61505 H 5743.48 -3.07307 5.28557 0
M  V30 61506 H 5747.65 -3.02682 6.27181 0
M  V30 61507 H 5745.28 -3.00677 6.9821 0
M  V30 61508 N 5746.85 -1.03945 -1.18462 0
M  V30 61509 C 5748.08 -0.760976 -1.92075 0
M  V30 61510 C 5748.49 0.68556 -1.76343 0
M  V30 61511 O 5747.83 1.4789 -1.08968 0
M  V30 61512 C 5747.9 -1.04595 -3.43948 0
M  V30 61513 C 5747.56 -2.48615 -3.83457 0
M  V30 61514 C 5748.56 -3.46789 -3.87341 0
M  V30 61515 C 5746.24 -2.83295 -4.14788 0
M  V30 61516 C 5748.24 -4.77693 -4.22005 0
M  V30 61517 C 5745.92 -4.14405 -4.49123 0
M  V30 61518 C 5746.92 -5.11415 -4.52707 0
M  V30 61519 O 5746.61 -6.40176 -4.86241 0
M  V30 61520 H 5746.34 -0.277013 -0.616636 0
M  V30 61521 H 5748.89 -1.38986 -1.51235 0
M  V30 61522 H 5747.12 -0.359942 -3.85021 0
M  V30 61523 H 5748.81 -0.755476 -3.98807 0
M  V30 61524 H 5749.58 -3.21336 -3.63274 0
M  V30 61525 H 5745.46 -2.08458 -4.11177 0
M  V30 61526 H 5749 -5.53408 -4.24718 0
M  V30 61527 H 5744.9 -4.39627 -4.7265 0
M  V30 61528 H 5745.67 -6.44807 -5.04148 0
M  V30 61529 N 5748.33 1.34664 -0.81874 0
M  V30 61530 C 5749.58 1.9913 -0.414597 0
M  V30 61531 C 5749.93 1.63751 1.01012 0
M  V30 61532 O 5749.22 0.896759 1.69319 0
M  V30 61533 C 5749.42 3.53155 -0.549183 0
M  V30 61534 C 5749.25 4.03498 -1.98543 0
M  V30 61535 C 5748.02 4.32286 -2.61642 0
M  V30 61536 C 5750.22 4.2117 -2.95162 0
M  V30 61537 N 5748.2 4.68637 -3.96551 0
M  V30 61538 C 5749.57 4.60653 -4.14969 0
M  V30 61539 C 5751.62 4.03408 -2.91833 0
M  V30 61540 C 5750.33 4.84231 -5.31895 0
M  V30 61541 C 5752.35 4.2815 -4.07973 0
M  V30 61542 C 5751.71 4.67916 -5.2653 0
M  V30 61543 H 5747.81 0.756063 -0.199731 0
M  V30 61544 H 5750.4 1.6315 -1.06256 0
M  V30 61545 H 5748.57 3.88339 0.0688529 0
M  V30 61546 H 5750.3 4.04527 -0.118446 0
M  V30 61547 H 5747.06 4.23043 -2.12911 0
M  V30 61548 H 5747.48 4.91054 -4.66042 0
M  V30 61549 H 5752.12 3.71795 -2.01316 0
M  V30 61550 H 5749.84 5.14713 -6.22974 0
M  V30 61551 H 5753.43 4.15947 -4.06792 0
M  V30 61552 H 5752.31 4.86685 -6.14904 0
M  V30 61553 N 5749.81 0.573325 1.46802 0
M  V30 61554 C 5751.04 0.0605831 2.06511 0
M  V30 61555 C 5751.45 -1.24567 1.42407 0
M  V30 61556 O 5750.79 -1.7618 0.52023 0
M  V30 61557 C 5750.85 -0.189268 3.59001 0
M  V30 61558 C 5750.52 1.02996 4.45242 0
M  V30 61559 C 5751.51 1.93965 4.82362 0
M  V30 61560 C 5749.2 1.24917 4.86519 0
M  V30 61561 C 5751.19 3.0521 5.59576 0
M  V30 61562 C 5748.88 2.36469 5.63494 0
M  V30 61563 C 5749.88 3.26445 5.99936 0
M  V30 61564 O 5749.57 4.3606 6.75357 0
M  V30 61565 H 5749.3 0.0501995 0.674134 0
M  V30 61566 H 5751.85 0.791018 1.89558 0
M  V30 61567 H 5750.08 -0.974205 3.74227 0
M  V30 61568 H 5751.77 -0.649365 4.00672 0
M  V30 61569 H 5752.54 1.78241 4.5106 0
M  V30 61570 H 5748.42 0.557951 4.57611 0
M  V30 61571 H 5751.96 3.75465 5.87939 0
M  V30 61572 H 5747.86 2.52159 5.94211 0
M  V30 61573 H 5748.62 4.3431 6.9377 0
M  V30 61574 N 5751.29 -1.54509 0.310607 0
M  V30 61575 C 5752.52 -2.04443 -0.297735 0
M  V30 61576 C 5752.93 -1.187 -1.47333 0
M  V30 61577 O 5752.27 -0.207469 -1.82525 0
M  V30 61578 C 5752.33 -3.50308 -0.807728 0
M  V30 61579 C 5751.99 -4.56349 0.243851 0
M  V30 61580 C 5752.99 -5.08653 1.07557 0
M  V30 61581 C 5750.68 -5.00797 0.388314 0
M  V30 61582 C 5752.67 -6.03954 2.0376 0
M  V30 61583 C 5750.36 -5.95916 1.35378 0
M  V30 61584 C 5751.36 -6.4738 2.17689 0
M  V30 61585 O 5751.04 -7.40634 3.12598 0
M  V30 61586 H 5750.78 -0.672649 -0.0672288 0
M  V30 61587 H 5753.33 -2.00387 0.451018 0
M  V30 61588 H 5751.56 -3.5172 -1.60717 0
M  V30 61589 H 5753.25 -3.83387 -1.333 0
M  V30 61590 H 5754.01 -4.75101 0.974877 0
M  V30 61591 H 5749.89 -4.60362 -0.242446 0
M  V30 61592 H 5753.44 -6.44048 2.68046 0
M  V30 61593 H 5749.33 -6.28884 1.45515 0
M  V30 61594 H 5750.1 -7.58466 3.07687 0
M  V30 61595 N 5752.77 -0.0385148 -1.57553 0
M  V30 61596 C 5753.99 0.651543 -1.969 0
M  V30 61597 C 5754.42 1.64325 -0.915366 0
M  V30 61598 O 5753.77 1.80884 0.12276 0
M  V30 61599 C 5753.82 1.32601 -3.35335 0
M  V30 61600 O 5752.93 2.44148 -3.32364 0
M  V30 61601 H 5752.27 0.170419 -0.641758 0
M  V30 61602 H 5754.8 -0.103158 -2.0434 0
M  V30 61603 H 5754.81 1.68063 -3.71778 0
M  V30 61604 H 5753.48 0.59913 -4.11562 0
M  V30 61605 H 5752.06 2.10727 -3.0765 0
M  V30 61606 N 5754.24 1.55842 0.23474 0
M  V30 61607 C 5755.49 1.77889 0.959155 0
M  V30 61608 C 5755.81 0.604686 1.85388 0
M  V30 61609 O 5755.08 -0.379025 1.92198 0
M  V30 61610 H 5753.66 0.65609 0.357149 0
M  V30 61611 H 5756.32 1.93293 0.249764 0
M  V30 61612 H 5755.42 2.69518 1.57374 0
M  V30 61613 N 5755.72 -0.50091 1.49428 0
M  V30 61614 C 5756.67 -1.60244 1.66103 0
M  V30 61615 C 5757.64 -1.58316 0.502508 0
M  V30 61616 O 5758.82 -1.76302 0.729544 0
M  V30 61617 C 5755.96 -2.9839 1.73372 0
M  V30 61618 C 5755.08 -3.10333 3.00529 0
M  V30 61619 C 5754.21 -4.39212 2.98775 0
M  V30 61620 C 5753.25 -4.44788 4.20511 0
M  V30 61621 N 5752.39 -5.65095 4.16668 0
M  V30 61622 H 5757.23 -1.45333 2.60158 0
M  V30 61623 H 5754.76 -0.707102 1.2899 0
M  V30 61624 H 5756.72 -3.7846 1.75566 0
M  V30 61625 H 5755.35 -3.12005 0.827827 0
M  V30 61626 H 5754.4 -2.23325 3.07945 0
M  V30 61627 H 5755.72 -3.10313 3.90522 0
M  V30 61628 H 5754.87 -5.27603 2.99533 0
M  V30 61629 H 5753.61 -4.41796 2.06561 0
M  V30 61630 H 5752.61 -3.54799 4.19997 0
M  V30 61631 H 5753.84 -4.43919 5.13919 0
M  V30 61632 H 5751.79 -5.68522 3.2729 0
M  V30 61633 H 5751.7 -5.66692 5.00396 0
M  V30 61634 H 5752.97 -6.55693 4.21529 0
M  V30 61635 N 5757.2 -1.38504 -0.751963 0
M  V30 61636 C 5758.48 -1.2532 -1.5018 0
M  V30 61637 C 5758.86 0.144688 -2.10604 0
M  V30 61638 O 5758.2 1.15434 -1.97198 0
M  V30 61639 C 5758.41 -2.3646 -2.56686 0
M  V30 61640 C 5759.76 -2.74963 -3.23544 0
M  V30 61641 O 5760.79 -2.35784 -2.66992 0
M  V30 61642 O 5759.65 -3.42532 -4.25833 0
M  V30 61643 H 5756.74 -0.490162 -0.666086 0
M  V30 61644 H 5759.29 -1.50335 -0.787235 0
M  V30 61645 H 5758.06 -3.29986 -2.10298 0
M  V30 61646 H 5757.68 -2.13018 -3.35722 0
M  V30 61647 N 5758.68 0.980321 -1.234 0
M  V30 61648 C 5759.92 1.72417 -1.06771 0
M  V30 61649 C 5760.26 1.90152 0.394448 0
M  V30 61650 O 5759.53 1.45385 1.29204 0
M  V30 61651 C 5759.81 3.1224 -1.79383 0
M  V30 61652 C 5759.67 3.02075 -3.33273 0
M  V30 61653 C 5760.99 4.11661 -1.55638 0
M  V30 61654 H 5758.11 0.625808 -0.389273 0
M  V30 61655 H 5760.75 1.14127 -1.51905 0
M  V30 61656 H 5758.9 3.62003 -1.41017 0
M  V30 61657 H 5760.57 2.59835 -3.81161 0
M  V30 61658 H 5758.81 2.38579 -3.62302 0
M  V30 61659 H 5759.48 4.01073 -3.79268 0
M  V30 61660 H 5761.96 3.70706 -1.88988 0
M  V30 61661 H 5760.84 5.07586 -2.0892 0
M  V30 61662 H 5761.1 4.39357 -0.491755 0
M  V30 61663 N 5760.16 1.04571 1.17909 0
M  V30 61664 C 5761.4 0.747245 1.87348 0
M  V30 61665 C 5761.72 -0.72821 1.81539 0
M  V30 61666 O 5762.92 -1.14039 2.46389 0
M  V30 61667 C 5761.38 1.2864 3.36124 0
M  V30 61668 C 5760.99 2.79085 3.5045 0
M  V30 61669 C 5762.73 1.0647 4.10931 0
M  V30 61670 C 5760.64 3.26333 4.93214 0
M  V30 61671 H 5759.57 0.275832 0.701736 0
M  V30 61672 H 5762.22 1.2622 1.33195 0
M  V30 61673 H 5760.6 0.699288 3.89777 0
M  V30 61674 H 5761.78 3.43598 3.07045 0
M  V30 61675 H 5760.09 2.99726 2.89056 0
M  V30 61676 H 5762.69 1.39278 5.16242 0
M  V30 61677 H 5763.03 0.00215933 4.163 0
M  V30 61678 H 5763.56 1.61669 3.63467 0
M  V30 61679 H 5760.3 4.31989 4.93017 0
M  V30 61680 H 5759.82 2.66559 5.37314 0
M  V30 61681 H 5761.5 3.20649 5.61955 0
M  V30 61682 N 5761.63 -1.34228 0.82587 0
M  V30 61683 C 5762.91 -1.92661 0.33781 0
M  V30 61684 C 5763.29 -1.75362 -1.17522 0
M  V30 61685 O 5762.64 -1.13412 -1.98368 0
M  V30 61686 C 5762.85 -3.40391 0.770389 0
M  V30 61687 C 5764.2 -4.17543 0.770914 0
M  V30 61688 O 5765.22 -3.48988 0.713158 0
M  V30 61689 O 5764.08 -5.399 0.846792 0
M  V30 61690 H 5761.17 -0.821765 0.092903 0
M  V30 61691 H 5763.72 -1.43183 0.910857 0
M  V30 61692 H 5762.49 -3.46796 1.81241 0
M  V30 61693 H 5762.11 -3.97223 0.173199 0
M  V30 61694 N 5763.11 -0.581102 -1.46496 0
M  V30 61695 C 5764.02 0.155587 -2.34084 0
M  V30 61696 C 5765.04 0.887675 -1.49654 0
M  V30 61697 O 5766.21 0.85122 -1.82527 0
M  V30 61698 C 5763.28 1.1574 -3.2681 0
M  V30 61699 C 5762.34 0.43016 -4.27139 0
M  V30 61700 C 5761.57 1.38425 -5.15436 0
M  V30 61701 O 5761.8 2.62067 -5.06633 0
M  V30 61702 O 5760.73 0.895711 -5.95198 0
M  V30 61703 H 5764.56 -0.563515 -2.98426 0
M  V30 61704 H 5762.14 -0.341517 -1.45444 0
M  V30 61705 H 5764.02 1.7351 -3.84021 0
M  V30 61706 H 5762.7 1.858 -2.65066 0
M  V30 61707 H 5761.6 -0.189331 -3.73621 0
M  V30 61708 H 5762.94 -0.229436 -4.91665 0
M  V30 61709 N 5764.59 1.54342 -0.318797 0
M  V30 61710 C 5765.52 2.21654 0.583273 0
M  V30 61711 C 5766.54 1.21497 1.08361 0
M  V30 61712 O 5767.72 1.47993 0.998012 0
M  V30 61713 C 5764.82 2.86356 1.81256 0
M  V30 61714 C 5764 4.12606 1.45171 0
M  V30 61715 C 5763.06 4.60946 2.53802 0
M  V30 61716 O 5762.08 5.25739 2.18146 0
M  V30 61717 N 5763.28 4.34769 3.84651 0
M  V30 61718 H 5766.05 2.99699 0.00693003 0
M  V30 61719 H 5763.61 1.61278 -0.141784 0
M  V30 61720 H 5765.6 3.1562 2.5331 0
M  V30 61721 H 5764.17 2.12045 2.29686 0
M  V30 61722 H 5763.39 3.90159 0.563005 0
M  V30 61723 H 5764.68 4.94778 1.18625 0
M  V30 61724 H 5764.08 3.82898 4.1642 0
M  V30 61725 H 5762.64 4.68699 4.52951 0
M  V30 61726 N 5766.07 0.0468696 1.5753 0
M  V30 61727 C 5767.32 -0.626631 1.9214 0
M  V30 61728 C 5767.64 -1.71636 0.925523 0
M  V30 61729 O 5766.91 -1.95877 -0.0302843 0
M  V30 61730 H 5765.49 -0.234454 0.709253 0
M  V30 61731 H 5768.15 0.0988576 1.94649 0
M  V30 61732 H 5767.25 -1.068 2.93258 0
M  V30 61733 N 5767.55 -1.55964 -0.226472 0
M  V30 61734 C 5768.48 -1.88491 -1.30398 0
M  V30 61735 C 5769.49 -0.772774 -1.4329 0
M  V30 61736 O 5770.68 -1.05104 -1.44275 0
M  V30 61737 C 5767.78 -2.07409 -2.6802 0
M  V30 61738 C 5766.95 -3.38399 -2.77137 0
M  V30 61739 C 5766.01 -3.46809 -3.9574 0
M  V30 61740 O 5765.04 -4.19876 -3.84309 0
M  V30 61741 N 5766.24 -2.77591 -5.09827 0
M  V30 61742 H 5769.01 -2.81509 -1.02823 0
M  V30 61743 H 5766.57 -1.5645 -0.416526 0
M  V30 61744 H 5768.56 -2.10356 -3.45735 0
M  V30 61745 H 5767.13 -1.2104 -2.88215 0
M  V30 61746 H 5766.35 -3.47593 -1.85938 0
M  V30 61747 H 5767.64 -4.24698 -2.80195 0
M  V30 61748 H 5767.03 -2.17997 -5.22009 0
M  V30 61749 H 5765.59 -2.86205 -5.85602 0
M  V30 61750 N 5769.02 0.492978 -1.49691 0
M  V30 61751 C 5770.44 0.82486 -1.36632 0
M  V30 61752 C 5770.64 1.97377 -0.405556 0
M  V30 61753 O 5769.7 2.51994 0.159844 0
M  V30 61754 C 5771.01 1.15752 -2.77528 0
M  V30 61755 C 5772.56 1.26526 -2.86287 0
M  V30 61756 C 5773.03 1.63116 -4.27969 0
M  V30 61757 N 5774.52 1.7015 -4.30817 0
M  V30 61758 C 5775.26 1.99923 -5.37418 0
M  V30 61759 N 5774.75 2.27865 -6.54255 0
M  V30 61760 N 5776.55 2.01241 -5.24841 0
M  V30 61761 H 5768.7 -0.264507 -2.10747 0
M  V30 61762 H 5770.96 -0.0557639 -0.946358 0
M  V30 61763 H 5770.67 0.386591 -3.49569 0
M  V30 61764 H 5770.54 2.09904 -3.13401 0
M  V30 61765 H 5772.93 2.02689 -2.14479 0
M  V30 61766 H 5773.01 0.304048 -2.53987 0
M  V30 61767 H 5772.65 0.875008 -5.00306 0
M  V30 61768 H 5772.58 2.60351 -4.57739 0
M  V30 61769 H 5775.07 1.50684 -3.46558 0
M  V30 61770 H 5775.39 2.49794 -7.31316 0
M  V30 61771 H 5773.73 2.25304 -6.57467 0
M  V30 61772 H 5776.92 1.78894 -4.32567 0
M  V30 61773 H 5777.1 2.2411 -6.08012 0
M  V30 61774 N 5770.5 1.38901 0.744607 0
M  V30 61775 C 5771.45 1.3698 1.87987 0
M  V30 61776 C 5772.44 0.254336 1.6748 0
M  V30 61777 O 5773.65 0.423859 1.74938 0
M  V30 61778 H 5770.03 0.427529 0.618646 0
M  V30 61779 H 5772 2.3276 1.86722 0
M  V30 61780 C 5770.75 1.22066 3.25569 0
M  V30 61781 H 5770.07 2.07164 3.4194 0
M  V30 61782 H 5771.51 1.24778 4.05224 0
M  V30 61783 C 5769.97 -0.0717229 3.36824 0
M  V30 61784 O 5770.5 -1.04546 3.87857 0
M  V30 61785 N 5768.7 -0.13157 2.90302 0
M  V30 61786 H 5768.25 0.661516 2.48961 0
M  V30 61787 H 5768.21 -0.995831 2.98212 0
M  V30 61788 N 5771.98 -0.973763 1.23918 0
M  V30 61789 C 5773.23 -1.71594 1.07525 0
M  V30 61790 C 5773.56 -1.90614 -0.386859 0
M  V30 61791 O 5772.81 -1.46061 -1.30249 0
M  V30 61792 C 5773.11 -3.11435 1.75337 0
M  V30 61793 C 5772.78 -3.12275 3.25262 0
M  V30 61794 C 5771.44 -3.12211 3.66166 0
M  V30 61795 C 5773.79 -3.07075 4.21135 0
M  V30 61796 C 5771.12 -3.04673 5.01389 0
M  V30 61797 C 5773.47 -3.01079 5.56358 0
M  V30 61798 C 5772.13 -2.99341 5.96617 0
M  V30 61799 H 5771.4 -0.627908 0.393462 0
M  V30 61800 H 5774.05 -1.13906 1.5394 0
M  V30 61801 H 5772.36 -3.7255 1.21299 0
M  V30 61802 H 5774.05 -3.67643 1.60124 0
M  V30 61803 H 5770.64 -3.13086 2.92704 0
M  V30 61804 H 5774.83 -3.06258 3.90537 0
M  V30 61805 H 5770.08 -3.01684 5.31786 0
M  V30 61806 H 5774.26 -2.96013 6.30356 0
M  V30 61807 H 5771.88 -2.93254 7.0136 0
M  V30 61808 N 5773.46 -1.05195 -1.17353 0
M  V30 61809 C 5774.68 -0.78241 -1.92076 0
M  V30 61810 C 5775.11 0.655895 -1.76294 0
M  V30 61811 O 5774.47 1.45569 -1.08071 0
M  V30 61812 C 5774.51 -1.16789 -3.41164 0
M  V30 61813 O 5773.62 -0.300052 -4.11307 0
M  V30 61814 H 5772.96 -0.286916 -0.598812 0
M  V30 61815 H 5775.49 -1.40481 -1.48749 0
M  V30 61816 H 5775.5 -1.13467 -3.91905 0
M  V30 61817 H 5774.17 -2.21562 -3.5197 0
M  V30 61818 H 5772.75 -0.393874 -3.70814 0
M  V30 61819 N 5774.94 1.33788 -0.832977 0
M  V30 61820 C 5775.88 2.29331 -0.25997 0
M  V30 61821 C 5776.85 1.54058 0.620911 0
M  V30 61822 O 5778.04 1.82384 0.560428 0
M  V30 61823 C 5775.18 3.40463 0.563845 0
M  V30 61824 C 5774.29 4.30657 -0.340401 0
M  V30 61825 C 5773.43 5.28898 0.493948 0
M  V30 61826 C 5772.47 6.10732 -0.409057 0
M  V30 61827 N 5771.6 7.01034 0.386814 0
M  V30 61828 H 5776.44 2.77739 -1.08005 0
M  V30 61829 H 5773.98 1.36668 -0.544091 0
M  V30 61830 H 5775.94 4.03591 1.0569 0
M  V30 61831 H 5774.57 2.93263 1.34895 0
M  V30 61832 H 5773.62 3.68302 -0.951729 0
M  V30 61833 H 5774.93 4.87958 -1.03433 0
M  V30 61834 H 5774.09 5.97526 1.05107 0
M  V30 61835 H 5772.82 4.7216 1.22133 0
M  V30 61836 H 5771.83 5.41027 -0.978236 0
M  V30 61837 H 5773.05 6.69553 -1.13471 0
M  V30 61838 H 5771 6.46751 1.09769 0
M  V30 61839 H 5770.92 7.55591 -0.248515 0
M  V30 61840 H 5772.19 7.73976 0.926359 0
M  V30 61841 N 5776.41 0.588863 1.46185 0
M  V30 61842 C 5777.38 -0.130723 2.28827 0
M  V30 61843 C 5778.38 -0.812988 1.38734 0
M  V30 61844 O 5779.57 -0.664004 1.61049 0
M  V30 61845 C 5776.7 -1.19473 3.19279 0
M  V30 61846 H 5777.89 0.595617 2.93926 0
M  V30 61847 H 5775.45 0.347092 1.52397 0
M  V30 61848 H 5776.18 -1.95245 2.5894 0
M  V30 61849 H 5775.97 -0.709941 3.85619 0
M  V30 61850 H 5777.46 -1.69924 3.81465 0
M  V30 61851 N 5777.89 -1.54171 0.326977 0
M  V30 61852 C 5779.14 -1.9981 -0.275484 0
M  V30 61853 C 5779.45 -1.21892 -1.52976 0
M  V30 61854 O 5780.66 -1.57925 -2.20844 0
M  V30 61855 C 5779.12 -3.55804 -0.541418 0
M  V30 61856 C 5778.72 -4.4256 0.696009 0
M  V30 61857 C 5780.47 -4.09902 -1.10365 0
M  V30 61858 C 5778.38 -5.90034 0.401789 0
M  V30 61859 H 5777.31 -0.74641 -0.106715 0
M  V30 61860 H 5779.96 -1.78153 0.439732 0
M  V30 61861 H 5778.34 -3.73462 -1.31691 0
M  V30 61862 H 5779.51 -4.36679 1.47134 0
M  V30 61863 H 5777.83 -3.99369 1.17869 0
M  V30 61864 H 5780.42 -5.17677 -1.33845 0
M  V30 61865 H 5780.77 -3.62096 -2.05408 0
M  V30 61866 H 5781.3 -3.95891 -0.389256 0
M  V30 61867 H 5778.04 -6.42041 1.32149 0
M  V30 61868 H 5777.56 -5.98859 -0.335767 0
M  V30 61869 H 5779.24 -6.46999 0.0128814 0
M  V30 61870 N 5779.37 -0.0552232 -1.57503 0
M  V30 61871 C 5780.3 0.947028 -2.0872 0
M  V30 61872 C 5781.32 1.27217 -1.01586 0
M  V30 61873 O 5782.51 1.23225 -1.29143 0
M  V30 61874 C 5779.61 2.26747 -2.51871 0
M  V30 61875 C 5778.78 2.12364 -3.82387 0
M  V30 61876 C 5777.84 3.27568 -4.11808 0
M  V30 61877 O 5776.86 3.03292 -4.81666 0
M  V30 61878 N 5778.07 4.52167 -3.6404 0
M  V30 61879 H 5780.83 0.509853 -2.95331 0
M  V30 61880 H 5778.39 0.130919 -1.6137 0
M  V30 61881 H 5780.38 3.02691 -2.68626 0
M  V30 61882 H 5778.95 2.62018 -1.70486 0
M  V30 61883 H 5778.17 1.20987 -3.75174 0
M  V30 61884 H 5779.46 1.99987 -4.67849 0
M  V30 61885 H 5778.86 4.74779 -3.07573 0
M  V30 61886 H 5777.42 5.25192 -3.86026 0
M  V30 61887 N 5780.85 1.56082 0.218198 0
M  V30 61888 C 5782.1 1.79516 0.94349 0
M  V30 61889 C 5782.43 0.625432 1.83853 0
M  V30 61890 O 5781.7 -0.375159 1.90848 0
M  V30 61891 C 5781.99 3.13055 1.77956 0
M  V30 61892 C 5781.84 4.40482 0.910784 0
M  V30 61893 C 5783.16 3.43067 2.75668 0
M  V30 61894 H 5780.28 0.653069 0.34157 0
M  V30 61895 H 5782.92 1.88812 0.21216 0
M  V30 61896 H 5781.07 3.05262 2.40307 0
M  V30 61897 H 5782.74 4.60299 0.30376 0
M  V30 61898 H 5780.98 4.3326 0.216361 0
M  V30 61899 H 5781.66 5.30366 1.53024 0
M  V30 61900 H 5784.13 3.5101 2.23453 0
M  V30 61901 H 5783.01 4.37668 3.31267 0
M  V30 61902 H 5783.27 2.65401 3.53574 0
M  V30 61903 N 5782.33 -0.485033 1.49951 0
M  V30 61904 C 5783.29 -1.56707 1.67259 0
M  V30 61905 C 5784.29 -1.51327 0.543754 0
M  V30 61906 O 5785.48 -1.54195 0.810526 0
M  V30 61907 C 5782.61 -2.96354 1.68485 0
M  V30 61908 H 5783.81 -1.42684 2.63783 0
M  V30 61909 H 5781.36 -0.710424 1.39222 0
M  V30 61910 H 5782.09 -3.15837 0.736035 0
M  V30 61911 H 5781.88 -3.01666 2.50479 0
M  V30 61912 H 5783.37 -3.74938 1.83878 0
M  V30 61913 N 5783.81 -1.39293 -0.73723 0
M  V30 61914 C 5784.75 -1.37835 -1.85122 0
M  V30 61915 C 5785.72 -0.238379 -1.64381 0
M  V30 61916 O 5786.91 -0.433147 -1.85818 0
M  V30 61917 C 5784.05 -1.22542 -3.2261 0
M  V30 61918 C 5783.16 -2.46065 -3.55072 0
M  V30 61919 C 5782.3 -2.23377 -4.8195 0
M  V30 61920 C 5781.33 -3.42587 -5.07248 0
M  V30 61921 N 5780.47 -3.19231 -6.25329 0
M  V30 61922 H 5785.31 -2.33063 -1.85703 0
M  V30 61923 H 5782.85 -1.15775 -0.907444 0
M  V30 61924 H 5784.81 -1.11687 -4.01972 0
M  V30 61925 H 5783.44 -0.309453 -3.21313 0
M  V30 61926 H 5782.49 -2.67531 -2.70428 0
M  V30 61927 H 5783.8 -3.34863 -3.69686 0
M  V30 61928 H 5782.95 -2.09752 -5.69288 0
M  V30 61929 H 5781.69 -1.3197 -4.69505 0
M  V30 61930 H 5780.7 -3.56713 -4.18373 0
M  V30 61931 H 5781.92 -4.34892 -5.2158 0
M  V30 61932 H 5779.87 -2.30486 -6.14176 0
M  V30 61933 H 5779.79 -4.01585 -6.4052 0
M  V30 61934 H 5781.05 -3.09295 -7.15512 0
M  V30 61935 N 5785.28 0.967178 -1.24432 0
M  V30 61936 C 5786.22 2.06475 -0.995019 0
M  V30 61937 C 5787.23 1.62761 0.035701 0
M  V30 61938 O 5788.42 1.7736 -0.201398 0
M  V30 61939 C 5785.52 3.35486 -0.479854 0
M  V30 61940 C 5784.69 4.08105 -1.57383 0
M  V30 61941 C 5783.75 5.15388 -1.06122 0
M  V30 61942 O 5782.78 5.41533 -1.75302 0
M  V30 61943 N 5783.98 5.80407 0.104084 0
M  V30 61944 H 5786.74 2.28436 -1.94003 0
M  V30 61945 H 5784.3 1.13484 -1.15469 0
M  V30 61946 H 5786.3 4.04517 -0.121671 0
M  V30 61947 H 5784.87 3.10392 0.370903 0
M  V30 61948 H 5784.09 3.33344 -2.10418 0
M  V30 61949 H 5785.37 4.53383 -2.30913 0
M  V30 61950 H 5784.77 5.61569 0.682441 0
M  V30 61951 H 5783.33 6.5055 0.403409 0
M  V30 61952 N 5786.76 1.05816 1.16794 0
M  V30 61953 C 5788.01 0.773132 1.87485 0
M  V30 61954 C 5788.34 -0.698408 1.81207 0
M  V30 61955 O 5787.62 -1.51125 1.2244 0
M  V30 61956 C 5787.9 1.26222 3.37254 0
M  V30 61957 C 5787.75 2.79716 3.52248 0
M  V30 61958 C 5789.07 0.866256 4.3149 0
M  V30 61959 H 5786.19 0.282328 0.680779 0
M  V30 61960 H 5788.83 1.31325 1.37309 0
M  V30 61961 H 5786.98 0.802742 3.80116 0
M  V30 61962 H 5788.65 3.33835 3.18358 0
M  V30 61963 H 5786.9 3.18684 2.94318 0
M  V30 61964 H 5787.57 3.09001 4.57408 0
M  V30 61965 H 5790.04 1.26192 3.96503 0
M  V30 61966 H 5788.92 1.236 5.34803 0
M  V30 61967 H 5789.18 -0.229236 4.41505 0
M  V30 61968 N 5788.24 -1.33344 0.84006 0
M  V30 61969 C 5789.49 -1.97743 0.436343 0
M  V30 61970 C 5789.81 -1.66542 -1.00469 0
M  V30 61971 O 5789.07 -0.938198 -1.71745 0
M  V30 61972 C 5789.37 -3.52237 0.605297 0
M  V30 61973 C 5789.03 -4.03391 2.01461 0
M  V30 61974 C 5787.7 -4.17072 2.40009 0
M  V30 61975 C 5790.05 -4.30699 2.93509 0
M  V30 61976 C 5787.38 -4.55396 3.69907 0
M  V30 61977 C 5789.73 -4.70476 4.22889 0
M  V30 61978 C 5788.39 -4.82363 4.61392 0
M  V30 61979 H 5787.66 -0.723593 0.159669 0
M  V30 61980 H 5790.31 -1.58999 1.06731 0
M  V30 61981 H 5788.61 -3.91648 -0.108979 0
M  V30 61982 H 5790.31 -4.00068 0.273196 0
M  V30 61983 H 5786.9 -3.93218 1.70522 0
M  V30 61984 H 5791.09 -4.19652 2.64964 0
M  V30 61985 H 5786.34 -4.62792 3.99542 0
M  V30 61986 H 5790.52 -4.90563 4.94289 0
M  V30 61987 H 5788.14 -5.11816 5.62093 0
M  V30 61988 N 5789.72 -0.596607 -1.45871 0
M  V30 61989 C 5790.67 0.141246 -2.32171 0
M  V30 61990 C 5791.66 0.870601 -1.45317 0
M  V30 61991 O 5792.87 0.787412 -1.61864 0
M  V30 61992 H 5789.24 0.0644141 -0.749236 0
M  V30 61993 H 5791.21 -0.605218 -2.92198 0
M  V30 61994 C 5789.96 1.13249 -3.2874 0
M  V30 61995 H 5789.28 0.580696 -3.9556 0
M  V30 61996 H 5790.72 1.61891 -3.91877 0
M  V30 61997 C 5789.18 2.20053 -2.55105 0
M  V30 61998 O 5789.71 3.27626 -2.32431 0
M  V30 61999 N 5787.92 1.95037 -2.15427 0
M  V30 62000 H 5787.47 1.07564 -2.34068 0
M  V30 62001 H 5787.42 2.66705 -1.66481 0
M  V30 62002 N 5791.2 1.53995 -0.335149 0
M  V30 62003 C 5792.42 2.05189 0.265558 0
M  V30 62004 C 5792.84 1.21063 1.44877 0
M  V30 62005 O 5792.2 0.243983 1.80862 0
M  V30 62006 C 5792.25 3.54878 0.688779 0
M  V30 62007 O 5791.97 4.3581 -0.44737 0
M  V30 62008 C 5793.47 4.22209 1.35108 0
M  V30 62009 H 5790.69 0.668923 0.0527571 0
M  V30 62010 H 5793.23 1.98673 -0.4847 0
M  V30 62011 H 5791.39 3.61643 1.38899 0
M  V30 62012 H 5791.8 5.24381 -0.11168 0
M  V30 62013 H 5793.28 5.28362 1.59805 0
M  V30 62014 H 5793.75 3.74037 2.30203 0
M  V30 62015 H 5794.36 4.19614 0.693135 0
M  V30 62016 N 5792.67 0.0635752 1.57472 0
M  V30 62017 C 5793.6 -0.904234 2.15281 0
M  V30 62018 C 5794.58 -1.31605 1.07769 0
M  V30 62019 O 5795.77 -1.38856 1.35766 0
M  V30 62020 C 5792.9 -2.17474 2.70781 0
M  V30 62021 C 5791.85 -1.90259 3.83387 0
M  V30 62022 C 5791.18 -3.2387 4.25456 0
M  V30 62023 C 5792.48 -1.21436 5.07987 0
M  V30 62024 H 5794.17 -0.422682 2.96401 0
M  V30 62025 H 5791.72 -0.201868 1.42578 0
M  V30 62026 H 5793.67 -2.85589 3.09866 0
M  V30 62027 H 5792.4 -2.67857 1.8687 0
M  V30 62028 H 5791.06 -1.24552 3.44793 0
M  V30 62029 H 5790.7 -3.72078 3.38478 0
M  V30 62030 H 5790.4 -3.06454 5.01358 0
M  V30 62031 H 5791.93 -3.93196 4.6715 0
M  V30 62032 H 5793.34 -1.79606 5.4444 0
M  V30 62033 H 5791.74 -1.14306 5.89113 0
M  V30 62034 H 5792.81 -0.19221 4.84519 0
M  V30 62035 N 5794.15 -1.56196 -0.209917 0
M  V30 62036 C 5795.38 -1.83844 -0.949163 0
M  V30 62037 C 5795.8 -0.644203 -1.7747 0
M  V30 62038 O 5795.15 0.387214 -1.78345 0
M  V30 62039 C 5795.2 -3.10137 -1.85734 0
M  V30 62040 O 5794.92 -4.24954 -1.06516 0
M  V30 62041 C 5796.43 -3.50857 -2.70951 0
M  V30 62042 H 5793.65 -0.610865 -0.277641 0
M  V30 62043 H 5796.19 -2.03295 -0.221637 0
M  V30 62044 H 5794.34 -2.92626 -2.53867 0
M  V30 62045 H 5794.76 -4.96775 -1.68269 0
M  V30 62046 H 5796.23 -4.42231 -3.30357 0
M  V30 62047 H 5796.71 -2.73151 -3.43926 0
M  V30 62048 H 5797.32 -3.70847 -2.08213 0
M  V30 62049 N 5795.63 0.477074 -1.50206 0
M  V30 62050 C 5796.54 1.60176 -1.71408 0
M  V30 62051 C 5797.56 1.63435 -0.597066 0
M  V30 62052 O 5798.73 1.81415 -0.874677 0
M  V30 62053 C 5795.8 2.96426 -1.79812 0
M  V30 62054 C 5794.86 3.03603 -3.03519 0
M  V30 62055 C 5794.09 4.33354 -3.11513 0
M  V30 62056 O 5794.31 5.23521 -2.26456 0
M  V30 62057 O 5793.25 4.45999 -4.04188 0
M  V30 62058 H 5797.07 1.45211 -2.66735 0
M  V30 62059 H 5794.66 0.655935 -1.34231 0
M  V30 62060 H 5796.54 3.77361 -1.87555 0
M  V30 62061 H 5795.22 3.11602 -0.87669 0
M  V30 62062 H 5794.12 2.21768 -3.0128 0
M  V30 62063 H 5795.46 2.93362 -3.95221 0
M  V30 62064 N 5797.11 1.39683 0.729833 0
M  V30 62065 C 5798.34 1.40269 1.51685 0
M  V30 62066 C 5798.75 -0.00318642 1.892 0
M  V30 62067 O 5798.09 -0.98617 1.54985 0
M  V30 62068 C 5798.15 2.21639 2.83048 0
M  V30 62069 C 5797.82 3.70214 2.67938 0
M  V30 62070 C 5798.81 4.63177 2.36142 0
M  V30 62071 C 5796.5 4.13861 2.84647 0
M  V30 62072 C 5798.49 5.97771 2.21244 0
M  V30 62073 C 5796.18 5.48529 2.69368 0
M  V30 62074 C 5797.18 6.40298 2.37712 0
M  V30 62075 O 5796.86 7.72486 2.22533 0
M  V30 62076 H 5796.6 0.480824 0.475167 0
M  V30 62077 H 5799.15 1.84188 0.909072 0
M  V30 62078 H 5797.38 1.72477 3.46105 0
M  V30 62079 H 5799.07 2.1434 3.44693 0
M  V30 62080 H 5799.84 4.30755 2.22878 0
M  V30 62081 H 5795.71 3.42762 3.08278 0
M  V30 62082 H 5799.26 6.69366 1.96457 0
M  V30 62083 H 5795.16 5.8054 2.82211 0
M  V30 62084 H 5795.92 7.83266 2.37564 0
M  V30 62085 N 5798.59 -0.960565 1.24944 0
M  V30 62086 C 5799.84 -1.6988 1.08737 0
M  V30 62087 C 5800.15 -1.9202 -0.372534 0
M  V30 62088 O 5801.35 -2.63482 -0.654926 0
M  V30 62089 C 5799.81 -3.05809 1.89761 0
M  V30 62090 C 5799.42 -2.91486 3.40206 0
M  V30 62091 C 5801.16 -3.83455 1.82105 0
M  V30 62092 C 5799.07 -4.22768 4.13547 0
M  V30 62093 H 5798 -0.637073 0.403304 0
M  V30 62094 H 5800.65 -1.06982 1.49088 0
M  V30 62095 H 5799.03 -3.69577 1.42229 0
M  V30 62096 H 5800.21 -2.36686 3.95369 0
M  V30 62097 H 5798.52 -2.27299 3.4889 0
M  V30 62098 H 5801.12 -4.80682 2.34198 0
M  V30 62099 H 5801.46 -4.08779 0.787741 0
M  V30 62100 H 5801.99 -3.26427 2.27356 0
M  V30 62101 H 5798.73 -4.02635 5.17267 0
M  V30 62102 H 5798.25 -4.77356 3.63168 0
M  V30 62103 H 5799.93 -4.91346 4.20937 0
M  V30 62104 N 5800.06 -1.06434 -1.16231 0
M  V30 62105 C 5801 -0.634351 -2.20247 0
M  V30 62106 C 5802.01 0.308376 -1.59853 0
M  V30 62107 O 5803.2 0.0991441 -1.78224 0
M  V30 62108 C 5800.3 0.0900402 -3.3878 0
M  V30 62109 C 5799.47 -0.86653 -4.28731 0
M  V30 62110 C 5798.53 -0.181127 -5.25888 0
M  V30 62111 O 5797.56 -0.819232 -5.63274 0
M  V30 62112 N 5798.76 1.07678 -5.70426 0
M  V30 62113 H 5801.52 -1.5291 -2.57757 0
M  V30 62114 H 5799.08 -0.947835 -1.31254 0
M  V30 62115 H 5801.08 0.559006 -4.00821 0
M  V30 62116 H 5799.65 0.88661 -2.99763 0
M  V30 62117 H 5798.87 -1.51483 -3.63932 0
M  V30 62118 H 5800.15 -1.51541 -4.85709 0
M  V30 62119 H 5799.55 1.61531 -5.42148 0
M  V30 62120 H 5798.11 1.48958 -6.34551 0
M  V30 62121 N 5801.54 1.32897 -0.84712 0
M  V30 62122 C 5802.79 1.97119 -0.445941 0
M  V30 62123 C 5803.11 1.67402 1.00008 0
M  V30 62124 O 5802.38 0.977264 1.69783 0
M  V30 62125 H 5800.96 0.729242 -0.161913 0
M  V30 62126 H 5803.62 1.62114 -1.08189 0
M  V30 62127 H 5802.72 3.06572 -0.584784 0
M  V30 62128 N 5803.02 0.604335 1.45553 0
M  V30 62129 C 5804.43 0.183679 1.85794 0
M  V30 62130 C 5804.78 -1.25863 1.50509 0
M  V30 62131 O 5803.91 -1.95387 0.930217 0
M  V30 62132 C 5804.5 0.326574 3.37222 0
M  V30 62133 C 5803.06 -0.0393664 3.76379 0
M  V30 62134 C 5802.21 0.652524 2.69513 0
M  V30 62135 H 5805.16 0.811221 1.364 0
M  V30 62136 H 5805.18 -0.442125 3.77923 0
M  V30 62137 H 5804.69 1.3764 3.62873 0
M  V30 62138 H 5802.79 -1.0885 3.56346 0
M  V30 62139 H 5802.91 0.352018 4.77805 0
M  V30 62140 H 5801.27 0.0905043 2.54539 0
M  V30 62141 H 5802.05 1.70442 2.98001 0
M  V30 62142 N 5804.5 -1.53815 0.343311 0
M  V30 62143 C 5805.74 -2.0282 -0.253623 0
M  V30 62144 C 5806.1 -1.22569 -1.47786 0
M  V30 62145 O 5807.3 -1.61472 -2.14896 0
M  V30 62146 C 5805.57 -3.52982 -0.560237 0
M  V30 62147 S 5807.13 -4.23893 -1.13402 0
M  V30 62148 H 5803.95 -0.706979 -0.0755095 0
M  V30 62149 H 5806.55 -1.8949 0.481018 0
M  V30 62150 H 5805.26 -4.09001 0.338595 0
M  V30 62151 H 5804.79 -3.70431 -1.32455 0
M  V30 62152 H 5806.8 -4.332 -2.41975 0
M  V30 62153 N 5805.98 -0.0719254 -1.57436 0
M  V30 62154 C 5807.2 0.606184 -1.97821 0
M  V30 62155 C 5807.62 1.63141 -0.95029 0
M  V30 62156 O 5806.98 1.82391 0.063041 0
M  V30 62157 C 5807.03 1.27464 -3.38283 0
M  V30 62158 O 5806.75 0.290449 -4.37136 0
M  V30 62159 C 5808.25 2.04056 -3.93543 0
M  V30 62160 H 5805.47 0.164282 -0.650578 0
M  V30 62161 H 5808.01 -0.144367 -2.0399 0
M  V30 62162 H 5806.17 1.97628 -3.332 0
M  V30 62163 H 5806.58 0.770037 -5.18817 0
M  V30 62164 H 5808.06 2.46219 -4.94045 0
M  V30 62165 H 5808.53 2.89716 -3.30093 0
M  V30 62166 H 5809.14 1.38759 -4.02027 0
M  V30 62167 N 5807.45 1.56305 0.201631 0
M  V30 62168 C 5808.7 1.79884 0.921206 0
M  V30 62169 C 5809.02 0.643873 1.84063 0
M  V30 62170 O 5808.29 -0.338171 1.92959 0
M  V30 62171 H 5806.87 0.663518 0.343152 0
M  V30 62172 H 5809.54 1.93779 0.208707 0
M  V30 62173 H 5808.63 2.72795 1.51621 0
M  V30 62174 N 5808.93 -0.469102 1.50457 0
M  V30 62175 C 5809.88 -1.58759 1.69995 0
M  V30 62176 C 5810.88 -1.59671 0.565826 0
M  V30 62177 O 5812.08 -1.63796 0.746378 0
M  V30 62178 H 5808.46 -0.526849 0.536595 0
M  V30 62179 H 5810.43 -1.39442 2.63815 0
M  V30 62180 C 5809.18 -2.96684 1.81312 0
M  V30 62181 H 5808.5 -2.96701 2.67971 0
M  V30 62182 H 5809.94 -3.74396 1.99007 0
M  V30 62183 C 5808.4 -3.32125 0.565203 0
M  V30 62184 O 5808.93 -4.00617 -0.294732 0
M  V30 62185 N 5807.13 -2.87569 0.418638 0
M  V30 62186 H 5806.68 -2.32004 1.11946 0
M  V30 62187 H 5806.64 -3.11647 -0.415166 0
M  V30 62188 N 5810.41 -1.40068 -0.722415 0
M  V30 62189 C 5811.34 -1.35701 -1.8471 0
M  V30 62190 C 5812.36 -0.263579 -1.60652 0
M  V30 62191 O 5813.55 -0.523442 -1.70653 0
M  V30 62192 C 5810.65 -1.08734 -3.20983 0
M  V30 62193 C 5809.82 -2.29599 -3.72294 0
M  V30 62194 C 5808.88 -1.98896 -4.87162 0
M  V30 62195 O 5807.9 -2.71699 -5.00168 0
M  V30 62196 N 5809.11 -0.962755 -5.72461 0
M  V30 62197 H 5811.87 -2.32628 -1.88956 0
M  V30 62198 H 5809.43 -1.34333 -0.903675 0
M  V30 62199 H 5811.42 -0.861911 -3.95415 0
M  V30 62200 H 5809.99 -0.204978 -3.11927 0
M  V30 62201 H 5809.21 -2.68015 -2.89071 0
M  V30 62202 H 5810.5 -3.1019 -4.03311 0
M  V30 62203 H 5809.9 -0.359651 -5.64556 0
M  V30 62204 H 5808.46 -0.79723 -6.46906 0
M  V30 62205 N 5811.89 0.953925 -1.25451 0
M  V30 62206 C 5812.82 2.05408 -1.01686 0
M  V30 62207 C 5813.83 1.6279 0.018436 0
M  V30 62208 O 5815.02 1.77137 -0.220198 0
M  V30 62209 C 5812.12 3.34958 -0.515409 0
M  V30 62210 C 5811.3 4.06412 -1.61702 0
M  V30 62211 C 5810.36 5.14233 -1.11582 0
M  V30 62212 O 5809.38 5.39643 -1.81036 0
M  V30 62213 N 5810.58 5.80484 0.0425187 0
M  V30 62214 H 5813.35 2.26365 -1.96415 0
M  V30 62215 H 5810.91 1.12253 -1.16666 0
M  V30 62216 H 5812.9 4.04365 -0.164568 0
M  V30 62217 H 5811.47 3.10768 0.337961 0
M  V30 62218 H 5810.69 3.31093 -2.13941 0
M  V30 62219 H 5811.98 4.50909 -2.35709 0
M  V30 62220 H 5811.38 5.62261 0.622841 0
M  V30 62221 H 5809.93 6.50942 0.334387 0
M  V30 62222 N 5813.37 1.07049 1.15665 0
M  V30 62223 C 5814.59 0.812869 1.90807 0
M  V30 62224 C 5815.02 -0.627765 1.77315 0
M  V30 62225 O 5814.38 -1.43832 1.10373 0
M  V30 62226 C 5814.42 1.22202 3.39262 0
M  V30 62227 O 5813.53 0.36545 4.10778 0
M  V30 62228 H 5812.87 0.296406 0.594171 0
M  V30 62229 H 5815.4 1.4283 1.46495 0
M  V30 62230 H 5815.41 1.19688 3.9005 0
M  V30 62231 H 5814.08 2.27133 3.48401 0
M  V30 62232 H 5812.66 0.452817 3.7014 0
M  V30 62233 N 5814.85 -1.32446 0.854156 0
M  V30 62234 C 5815.78 -2.31382 0.313778 0
M  V30 62235 C 5816.76 -1.59658 -0.586802 0
M  V30 62236 O 5817.94 -1.87461 -0.507151 0
M  V30 62237 C 5815.07 -3.43695 -0.499114 0
M  V30 62238 C 5814.03 -4.26898 0.306989 0
M  V30 62239 C 5813.35 -5.30968 -0.630608 0
M  V30 62240 C 5814.65 -4.99312 1.53246 0
M  V30 62241 H 5816.35 -2.76828 1.14047 0
M  V30 62242 H 5813.89 -1.33089 0.549852 0
M  V30 62243 H 5815.84 -4.11947 -0.887564 0
M  V30 62244 H 5814.57 -2.96975 -1.35916 0
M  V30 62245 H 5813.23 -3.60291 0.677188 0
M  V30 62246 H 5812.88 -4.80503 -1.48748 0
M  V30 62247 H 5812.58 -5.87523 -0.095257 0
M  V30 62248 H 5814.1 -6.02084 -1.01624 0
M  V30 62249 H 5815.51 -5.60248 1.21633 0
M  V30 62250 H 5813.91 -5.65589 2.00571 0
M  V30 62251 H 5814.98 -4.27205 2.29398 0
M  V30 62252 N 5816.32 -0.612045 -1.4523 0
M  V30 62253 C 5817.29 0.094302 -2.29006 0
M  V30 62254 C 5818.29 0.790814 -1.4001 0
M  V30 62255 O 5819.48 0.638299 -1.62084 0
M  V30 62256 C 5816.61 1.14378 -3.21139 0
M  V30 62257 H 5817.8 -0.642303 -2.92941 0
M  V30 62258 H 5815.35 -0.371293 -1.51826 0
M  V30 62259 H 5816.09 1.911 -2.62014 0
M  V30 62260 H 5815.87 0.648502 -3.867 0
M  V30 62261 H 5817.36 1.63834 -3.8412 0
M  V30 62262 N 5817.8 1.53631 -0.351463 0
M  V30 62263 C 5818.75 2.22043 0.517789 0
M  V30 62264 C 5819.74 1.21061 1.05986 0
M  V30 62265 O 5820.93 1.46572 0.992246 0
M  V30 62266 C 5818.06 3.00265 1.66421 0
M  V30 62267 C 5817.14 4.08611 1.1357 0
M  V30 62268 N 5817.53 5.04729 0.329039 0
M  V30 62269 C 5815.83 4.23064 1.41185 0
M  V30 62270 C 5816.53 5.81685 0.041296 0
M  V30 62271 N 5815.51 5.39877 0.635098 0
M  V30 62272 H 5819.31 2.93711 -0.10549 0
M  V30 62273 H 5816.82 1.61622 -0.158737 0
M  V30 62274 H 5818.82 3.47782 2.29899 0
M  V30 62275 H 5817.48 2.30125 2.29069 0
M  V30 62276 H 5818.49 5.17891 -0.0305598 0
M  V30 62277 H 5815.17 3.64147 2.04214 0
M  V30 62278 H 5816.56 6.69126 -0.609921 0
M  V30 62279 N 5819.28 0.0802736 1.57395 0
M  V30 62280 C 5820.5 -0.59911 1.98558 0
M  V30 62281 C 5820.93 -1.6184 0.958612 0
M  V30 62282 O 5820.29 -1.81146 -0.0747589 0
M  V30 62283 C 5820.34 -1.23663 3.38732 0
M  V30 62284 O 5819.44 -2.3525 3.3872 0
M  V30 62285 H 5818.78 -0.153344 0.646051 0
M  V30 62286 H 5821.31 0.157299 2.03994 0
M  V30 62287 H 5821.32 -1.58147 3.76103 0
M  V30 62288 H 5820 -0.489801 4.13006 0
M  V30 62289 H 5818.57 -2.02496 3.13129 0
M  V30 62290 N 5820.76 -1.5641 -0.193339 0
M  V30 62291 C 5822.17 -1.50034 -0.544245 0
M  V30 62292 C 5822.37 -0.780611 -1.85765 0
M  V30 62293 O 5821.43 -0.331857 -2.5031 0
M  V30 62294 C 5822.74 -2.94707 -0.597359 0
M  V30 62295 C 5824.29 -3.05388 -0.686072 0
M  V30 62296 C 5824.77 -4.51476 -0.77028 0
M  V30 62297 N 5826.26 -4.55634 -0.833761 0
M  V30 62298 C 5826.99 -5.65986 -0.919115 0
M  V30 62299 N 5826.49 -6.86023 -0.966663 0
M  V30 62300 N 5828.28 -5.53903 -0.956439 0
M  V30 62301 H 5820.43 -2.01617 0.668166 0
M  V30 62302 H 5822.69 -0.91758 0.238223 0
M  V30 62303 H 5822.4 -3.5043 0.298632 0
M  V30 62304 H 5822.27 -3.48156 -1.45145 0
M  V30 62305 H 5824.66 -2.49713 -1.57249 0
M  V30 62306 H 5824.74 -2.55061 0.194255 0
M  V30 62307 H 5824.39 -5.07777 0.111797 0
M  V30 62308 H 5824.32 -4.99537 -1.66643 0
M  V30 62309 H 5826.81 -3.692 -0.80619 0
M  V30 62310 H 5827.12 -7.65874 -1.03235 0
M  V30 62311 H 5825.47 -6.88678 -0.93531 0
M  V30 62312 H 5828.66 -4.59047 -0.916142 0
M  V30 62313 H 5828.83 -6.3993 -1.0195 0
M  V30 62314 N 5822.24 0.461116 -1.50703 0
M  V30 62315 C 5823.17 1.5657 -1.73228 0
M  V30 62316 C 5824.15 1.59853 -0.581457 0
M  V30 62317 O 5825.33 1.75961 -0.821664 0
M  V30 62318 C 5822.46 2.94828 -1.83558 0
M  V30 62319 C 5821.42 3.06411 -2.98825 0
M  V30 62320 C 5820.74 4.46415 -2.94309 0
M  V30 62321 C 5822.04 2.82698 -4.3918 0
M  V30 62322 H 5823.74 1.37973 -2.65714 0
M  V30 62323 H 5821.28 0.662317 -1.27865 0
M  V30 62324 H 5823.23 3.7204 -1.979 0
M  V30 62325 H 5821.96 3.14604 -0.877017 0
M  V30 62326 H 5820.62 2.31634 -2.8415 0
M  V30 62327 H 5820.27 4.63124 -1.96279 0
M  V30 62328 H 5819.97 4.55098 -3.71698 0
M  V30 62329 H 5821.49 5.25633 -3.10713 0
M  V30 62330 H 5822.9 3.49654 -4.54329 0
M  V30 62331 H 5821.3 3.02817 -5.18095 0
M  V30 62332 H 5822.37 1.78476 -4.50859 0
M  V30 62333 N 5823.71 1.40449 0.714977 0
M  V30 62334 C 5824.96 1.39968 1.47583 0
M  V30 62335 C 5825.32 0.00177466 1.924 0
M  V30 62336 O 5824.61 -0.96873 1.65306 0
M  V30 62337 C 5824.8 2.32402 2.71522 0
M  V30 62338 C 5824.63 3.81041 2.38826 0
M  V30 62339 C 5823.4 4.4985 2.30137 0
M  V30 62340 C 5825.6 4.72517 2.03057 0
M  V30 62341 N 5823.58 5.83718 1.90123 0
M  V30 62342 C 5824.95 5.95186 1.73648 0
M  V30 62343 C 5827.01 4.60347 1.89698 0
M  V30 62344 C 5825.71 7.07043 1.32224 0
M  V30 62345 C 5827.74 5.72145 1.49678 0
M  V30 62346 C 5827.1 6.93901 1.21167 0
M  V30 62347 H 5823.2 0.567428 0.538098 0
M  V30 62348 H 5825.78 1.76166 0.829082 0
M  V30 62349 H 5823.95 1.9833 3.33946 0
M  V30 62350 H 5825.68 2.22774 3.37867 0
M  V30 62351 H 5822.44 4.03539 2.47897 0
M  V30 62352 H 5822.86 6.54615 1.72652 0
M  V30 62353 H 5827.51 3.6673 2.10402 0
M  V30 62354 H 5825.22 8.00542 1.10263 0
M  V30 62355 H 5828.81 5.64725 1.39919 0
M  V30 62356 H 5827.69 7.78941 0.906651 0
M  V30 62357 N 5825.19 -0.947259 1.25955 0
M  V30 62358 C 5826.47 -1.6696 1.019 0
M  V30 62359 C 5826.85 -2.06194 -0.452482 0
M  V30 62360 O 5826.2 -1.78103 -1.43149 0
M  V30 62361 C 5826.41 -2.88636 1.96189 0
M  V30 62362 C 5827.76 -3.60424 2.24454 0
M  V30 62363 O 5828.78 -2.98731 1.94006 0
M  V30 62364 O 5827.64 -4.7153 2.76264 0
M  V30 62365 H 5824.73 -0.730862 0.387001 0
M  V30 62366 H 5827.28 -0.999529 1.3714 0
M  V30 62367 H 5826.05 -2.56489 2.95515 0
M  V30 62368 H 5825.67 -3.63371 1.61391 0
M  V30 62369 N 5826.67 -1.07661 -1.15095 0
M  V30 62370 C 5827.63 -0.703635 -2.18132 0
M  V30 62371 C 5828.63 0.257715 -1.58721 0
M  V30 62372 O 5829.82 0.0382599 -1.74158 0
M  V30 62373 C 5826.96 -0.0376177 -3.40879 0
M  V30 62374 H 5828.15 -1.61592 -2.52642 0
M  V30 62375 H 5825.7 -0.87353 -1.29612 0
M  V30 62376 H 5826.44 0.886758 -3.11941 0
M  V30 62377 H 5826.22 -0.729096 -3.85262 0
M  V30 62378 H 5827.71 0.208567 -4.17079 0
M  V30 62379 N 5828.15 1.31991 -0.861168 0
M  V30 62380 C 5829.39 1.97316 -0.46844 0
M  V30 62381 C 5829.73 1.67957 0.974882 0
M  V30 62382 O 5829 0.971302 1.68511 0
M  V30 62383 C 5829.29 3.52915 -0.715731 0
M  V30 62384 C 5829.14 3.9188 -2.20795 0
M  V30 62385 C 5830.46 4.39746 -0.176395 0
M  V30 62386 H 5827.58 0.716727 -0.171671 0
M  V30 62387 H 5830.22 1.56266 -1.08079 0
M  V30 62388 H 5828.37 3.88013 -0.194524 0
M  V30 62389 H 5830.04 3.66929 -2.79573 0
M  V30 62390 H 5828.28 3.40804 -2.68394 0
M  V30 62391 H 5828.95 5.00338 -2.33165 0
M  V30 62392 H 5831.43 4.11422 -0.622188 0
M  V30 62393 H 5830.31 5.4759 -0.378941 0
M  V30 62394 H 5830.57 4.32396 0.921206 0
M  V30 62395 N 5829.63 0.619739 1.44903 0
M  V30 62396 C 5830.87 0.119882 2.02445 0
M  V30 62397 C 5831.21 -1.25085 1.48551 0
M  V30 62398 O 5830.48 -1.82778 0.665006 0
M  V30 62399 C 5830.76 0.0941471 3.59977 0
M  V30 62400 C 5830.62 1.49641 4.24179 0
M  V30 62401 C 5831.94 -0.587327 4.36163 0
M  V30 62402 H 5829.05 0.0450378 0.735623 0
M  V30 62403 H 5831.7 0.794036 1.72612 0
M  V30 62404 H 5829.85 -0.479937 3.85524 0
M  V30 62405 H 5831.52 2.11851 4.09777 0
M  V30 62406 H 5829.76 2.05361 3.82111 0
M  V30 62407 H 5830.43 1.43054 5.33141 0
M  V30 62408 H 5832.91 -0.0992401 4.15982 0
M  V30 62409 H 5831.78 -0.57448 5.45885 0
M  V30 62410 H 5832.05 -1.65564 4.09928 0
M  V30 62411 N 5831.1 -1.53442 0.359606 0
M  V30 62412 C 5832.35 -2.0077 -0.231493 0
M  V30 62413 C 5832.67 -1.24875 -1.4977 0
M  V30 62414 O 5831.94 -0.360352 -1.92557 0
M  V30 62415 H 5830.52 -0.741735 -0.088532 0
M  V30 62416 H 5833.19 -1.88783 0.484464 0
M  V30 62417 H 5832.28 -3.08651 -0.462681 0
M  V30 62418 N 5832.58 -0.0886195 -1.57351 0
M  V30 62419 C 5833.83 0.576607 -1.94117 0
M  V30 62420 C 5834.16 1.68592 -0.969901 0
M  V30 62421 O 5833.41 1.95697 0.011631 0
M  V30 62422 C 5833.71 1.17752 -3.37445 0
M  V30 62423 C 5833.38 0.192654 -4.50488 0
M  V30 62424 C 5832.04 -0.0782413 -4.81136 0
M  V30 62425 C 5834.39 -0.480179 -5.18983 0
M  V30 62426 C 5831.72 -1.02877 -5.7761 0
M  V30 62427 C 5834.07 -1.41914 -6.16476 0
M  V30 62428 C 5832.74 -1.69833 -6.45533 0
M  V30 62429 H 5832.01 0.210996 -0.710325 0
M  V30 62430 H 5834.65 -0.163076 -1.90804 0
M  V30 62431 H 5832.96 1.99331 -3.37305 0
M  V30 62432 H 5834.65 1.69981 -3.63191 0
M  V30 62433 H 5831.24 0.41398 -4.26596 0
M  V30 62434 H 5835.43 -0.284028 -4.95487 0
M  V30 62435 H 5830.68 -1.25215 -5.98441 0
M  V30 62436 H 5834.86 -1.94635 -6.68648 0
M  V30 62437 H 5832.49 -2.43646 -7.20098 0
M  V30 62438 N 5834.06 1.5651 0.185041 0
M  V30 62439 C 5834.99 1.98368 1.23177 0
M  V30 62440 C 5835.97 0.857141 1.46925 0
M  V30 62441 O 5837.16 1.12222 1.58493 0
M  V30 62442 C 5834.29 2.33182 2.57378 0
M  V30 62443 C 5833.24 3.48667 2.48224 0
M  V30 62444 C 5832.57 3.69184 3.86791 0
M  V30 62445 C 5833.87 4.82545 1.99868 0
M  V30 62446 H 5835.56 2.86056 0.883882 0
M  V30 62447 H 5833.11 1.37624 0.423737 0
M  V30 62448 H 5835.06 2.6106 3.30796 0
M  V30 62449 H 5833.78 1.42387 2.93928 0
M  V30 62450 H 5832.44 3.20895 1.77262 0
M  V30 62451 H 5832.09 2.75704 4.2071 0
M  V30 62452 H 5831.79 4.46881 3.81537 0
M  V30 62453 H 5833.31 3.99449 4.61815 0
M  V30 62454 H 5834.73 5.09389 2.6305 0
M  V30 62455 H 5833.13 5.63783 2.05594 0
M  V30 62456 H 5834.2 4.75456 0.952335 0
M  V30 62457 N 5835.54 -0.453117 1.50946 0
M  V30 62458 C 5836.49 -1.54683 1.67503 0
M  V30 62459 C 5837.47 -1.51947 0.529247 0
M  V30 62460 O 5838.66 -1.58667 0.78447 0
M  V30 62461 C 5835.79 -2.93 1.78902 0
M  V30 62462 C 5834.88 -3.00552 2.99215 0
M  V30 62463 N 5835.27 -2.77878 4.22631 0
M  V30 62464 C 5833.57 -3.31702 2.98144 0
M  V30 62465 C 5834.27 -2.90864 5.03759 0
M  V30 62466 N 5833.25 -3.2185 4.38079 0
M  V30 62467 H 5837.05 -1.3588 2.60603 0
M  V30 62468 H 5834.56 -0.660166 1.48376 0
M  V30 62469 H 5836.56 -3.71663 1.88871 0
M  V30 62470 H 5835.22 -3.12835 0.869736 0
M  V30 62471 H 5836.23 -2.5311 4.51836 0
M  V30 62472 H 5832.91 -3.57411 2.15786 0
M  V30 62473 H 5834.3 -2.77422 6.11953 0
M  V30 62474 N 5837.02 -1.40826 -0.707518 0
M  V30 62475 C 5838.26 -1.39746 -1.46965 0
M  V30 62476 C 5838.6 -0.00238021 -1.942 0
M  V30 62477 O 5837.87 0.967739 -1.68716 0
M  V30 62478 C 5838.15 -2.39394 -2.69003 0
M  V30 62479 C 5838.01 -3.87961 -2.2761 0
M  V30 62480 C 5839.33 -2.36463 -3.71178 0
M  V30 62481 H 5836.44 -0.508923 -0.533073 0
M  V30 62482 H 5839.09 -1.72018 -0.806827 0
M  V30 62483 H 5837.24 -2.12005 -3.25555 0
M  V30 62484 H 5838.91 -4.26208 -1.76477 0
M  V30 62485 H 5837.15 -4.03404 -1.59523 0
M  V30 62486 H 5837.82 -4.53213 -3.15123 0
M  V30 62487 H 5840.3 -2.60742 -3.24273 0
M  V30 62488 H 5839.17 -3.0822 -4.54193 0
M  V30 62489 H 5839.44 -1.37905 -4.20041 0
M  V30 62490 N 5838.5 0.940566 -1.26456 0
M  V30 62491 C 5839.74 1.68683 -1.12037 0
M  V30 62492 C 5840.07 1.91573 0.336185 0
M  V30 62493 O 5839.33 1.49463 1.2633 0
M  V30 62494 C 5839.62 3.06677 -1.83532 0
M  V30 62495 C 5839.29 3.03541 -3.33427 0
M  V30 62496 C 5837.95 3.02393 -3.74315 0
M  V30 62497 C 5840.3 2.95802 -4.29128 0
M  V30 62498 C 5837.63 2.91272 -5.09291 0
M  V30 62499 C 5839.98 2.86222 -5.64145 0
M  V30 62500 C 5838.65 2.83417 -6.04343 0
M  V30 62501 H 5837.92 0.617256 -0.409971 0
M  V30 62502 H 5840.57 1.09785 -1.56906 0
M  V30 62503 H 5838.87 3.69203 -1.31134 0
M  V30 62504 H 5840.57 3.63268 -1.69815 0
M  V30 62505 H 5837.16 3.05215 -3.00902 0
M  V30 62506 H 5841.34 2.95796 -3.9852 0
M  V30 62507 H 5836.6 2.87479 -5.39598 0
M  V30 62508 H 5840.77 2.79197 -6.37983 0
M  V30 62509 H 5838.4 2.74556 -7.08889 0
M  V30 62510 N 5839.97 1.0827 1.14523 0
M  V30 62511 C 5840.94 0.715193 2.17756 0
M  V30 62512 C 5841.94 -0.249294 1.58856 0
M  V30 62513 O 5843.13 -0.0290233 1.74176 0
M  V30 62514 C 5840.26 0.0556948 3.40855 0
M  V30 62515 H 5841.45 1.62929 2.51782 0
M  V30 62516 H 5839 0.880391 1.29146 0
M  V30 62517 H 5839.74 -0.870203 3.12407 0
M  V30 62518 H 5839.52 0.749517 3.8487 0
M  V30 62519 H 5841.01 -0.186445 4.17184 0
M  V30 62520 N 5841.45 -1.31533 0.868156 0
M  V30 62521 C 5842.4 -2.26094 0.294197 0
M  V30 62522 C 5843.39 -1.50551 -0.567721 0
M  V30 62523 O 5844.58 -1.72069 -0.414895 0
M  V30 62524 C 5841.71 -3.39567 -0.504891 0
M  V30 62525 C 5840.79 -4.22481 0.370169 0
M  V30 62526 N 5841.18 -4.84186 1.46279 0
M  V30 62527 C 5839.48 -4.45705 0.162284 0
M  V30 62528 C 5840.18 -5.46154 2.00226 0
M  V30 62529 N 5839.16 -5.27839 1.29951 0
M  V30 62530 H 5842.96 -2.71337 1.12931 0
M  V30 62531 H 5840.47 -1.45778 0.715721 0
M  V30 62532 H 5842.47 -4.06335 -0.93259 0
M  V30 62533 H 5841.13 -2.95867 -1.33764 0
M  V30 62534 H 5842.14 -4.83895 1.84571 0
M  V30 62535 H 5838.82 -4.12648 -0.634657 0
M  V30 62536 H 5840.21 -6.05187 2.91887 0
M  V30 62537 N 5842.93 -0.627415 -1.44573 0
M  V30 62538 C 5843.86 0.128976 -2.27835 0
M  V30 62539 C 5844.84 0.854804 -1.38318 0
M  V30 62540 O 5846.02 0.85965 -1.67757 0
M  V30 62541 C 5843.15 1.18855 -3.17161 0
M  V30 62542 C 5842.2 0.563668 -4.22759 0
M  V30 62543 S 5843.03 -0.643456 -5.3162 0
M  V30 62544 C 5844.19 0.416223 -6.24515 0
M  V30 62545 H 5844.42 -0.577383 -2.91639 0
M  V30 62546 H 5841.95 -0.415479 -1.48705 0
M  V30 62547 H 5843.91 1.79495 -3.69177 0
M  V30 62548 H 5842.57 1.86709 -2.52584 0
M  V30 62549 H 5841.76 1.36156 -4.8526 0
M  V30 62550 H 5841.37 0.031973 -3.73986 0
M  V30 62551 H 5843.66 1.28982 -6.65109 0
M  V30 62552 H 5844.6 -0.17312 -7.07888 0
M  V30 62553 H 5845.01 0.740454 -5.59623 0
M  V30 62554 N 5844.41 1.5325 -0.367738 0
M  V30 62555 C 5845.34 2.23398 0.512461 0
M  V30 62556 C 5846.35 1.24883 1.04441 0
M  V30 62557 O 5847.54 1.51093 0.950424 0
M  V30 62558 C 5844.64 2.91977 1.72054 0
M  V30 62559 C 5843.81 4.17016 1.31971 0
M  V30 62560 C 5842.87 4.68787 2.39009 0
M  V30 62561 O 5841.9 5.32413 2.01309 0
M  V30 62562 N 5843.1 4.46786 3.70625 0
M  V30 62563 H 5845.87 2.9957 -0.0884205 0
M  V30 62564 H 5843.43 1.60745 -0.193022 0
M  V30 62565 H 5845.42 3.23519 2.43141 0
M  V30 62566 H 5843.99 2.19245 2.22824 0
M  V30 62567 H 5843.21 3.91752 0.438594 0
M  V30 62568 H 5844.5 4.98302 1.02824 0
M  V30 62569 H 5843.9 3.95952 4.04028 0
M  V30 62570 H 5842.45 4.82872 4.3781 0
M  V30 62571 N 5845.89 0.096963 1.57301 0
M  V30 62572 C 5846.82 -0.897969 2.0979 0
M  V30 62573 C 5847.8 -1.27514 1.00891 0
M  V30 62574 O 5848.98 -1.38006 1.28401 0
M  V30 62575 C 5846.11 -2.19859 2.57642 0
M  V30 62576 C 5845.15 -1.97114 3.78217 0
M  V30 62577 S 5845.99 -1.20745 5.2171 0
M  V30 62578 C 5847.14 -2.52034 5.72913 0
M  V30 62579 H 5847.38 -0.45144 2.93853 0
M  V30 62580 H 5844.91 -0.116363 1.53961 0
M  V30 62581 H 5846.87 -2.94599 2.8587 0
M  V30 62582 H 5845.53 -2.61633 1.73802 0
M  V30 62583 H 5844.72 -2.93431 4.09774 0
M  V30 62584 H 5844.32 -1.30502 3.50493 0
M  V30 62585 H 5846.61 -3.48 5.81294 0
M  V30 62586 H 5847.56 -2.25053 6.71384 0
M  V30 62587 H 5847.97 -2.60392 5.00855 0
M  V30 62588 N 5847.36 -1.56606 -0.176738 0
M  V30 62589 C 5848.31 -1.95989 -1.21889 0
M  V30 62590 C 5849.28 -0.823034 -1.44275 0
M  V30 62591 O 5850.47 -1.08271 -1.57105 0
M  V30 62592 C 5847.61 -2.32038 -2.55446 0
M  V30 62593 C 5846.72 -3.58875 -2.40484 0
M  V30 62594 C 5845.85 -3.84161 -3.6687 0
M  V30 62595 C 5844.89 -5.04364 -3.46819 0
M  V30 62596 N 5844.03 -5.2581 -4.65262 0
M  V30 62597 H 5848.87 -2.84833 -0.876037 0
M  V30 62598 H 5846.41 -1.40942 -0.421171 0
M  V30 62599 H 5848.36 -2.50959 -3.3328 0
M  V30 62600 H 5846.99 -1.46311 -2.87737 0
M  V30 62601 H 5846.05 -3.47898 -1.53854 0
M  V30 62602 H 5847.36 -4.46867 -2.21611 0
M  V30 62603 H 5846.51 -4.0342 -4.53141 0
M  V30 62604 H 5845.25 -2.94534 -3.88717 0
M  V30 62605 H 5844.26 -4.85008 -2.58934 0
M  V30 62606 H 5845.48 -5.95516 -3.264 0
M  V30 62607 H 5843.43 -4.39134 -4.87337 0
M  V30 62608 H 5843.34 -6.08015 -4.49282 0
M  V30 62609 H 5844.61 -5.49544 -5.52831 0
M  V30 62610 N 5848.84 0.445106 -1.51184 0
M  V30 62611 C 5849.77 1.54724 -1.74879 0
M  V30 62612 C 5850.75 1.59228 -0.598379 0
M  V30 62613 O 5851.94 1.7508 -0.840281 0
M  V30 62614 C 5849.07 2.92865 -1.86675 0
M  V30 62615 C 5848.02 3.03224 -3.02058 0
M  V30 62616 C 5847.35 4.43268 -2.99027 0
M  V30 62617 C 5848.65 2.78024 -4.42154 0
M  V30 62618 H 5850.34 1.35147 -2.67162 0
M  V30 62619 H 5847.89 0.648718 -1.2856 0
M  V30 62620 H 5849.84 3.6992 -2.01835 0
M  V30 62621 H 5848.56 3.13657 -0.910336 0
M  V30 62622 H 5847.22 2.28607 -2.86591 0
M  V30 62623 H 5846.87 4.61016 -2.0118 0
M  V30 62624 H 5846.57 4.5113 -3.76504 0
M  V30 62625 H 5848.1 5.22308 -3.16271 0
M  V30 62626 H 5849.51 3.44815 -4.58012 0
M  V30 62627 H 5847.91 2.97304 -5.21277 0
M  V30 62628 H 5848.98 1.73684 -4.52727 0
M  V30 62629 N 5850.32 1.41199 0.70004 0
M  V30 62630 C 5851.54 1.43861 1.49395 0
M  V30 62631 C 5851.97 0.0442538 1.88048 0
M  V30 62632 O 5851.33 -0.951448 1.54328 0
M  V30 62633 C 5851.38 2.34922 2.73576 0
M  V30 62634 O 5850.48 1.80318 3.7089 0
M  V30 62635 H 5849.82 0.488428 0.449816 0
M  V30 62636 H 5852.35 1.85609 0.860846 0
M  V30 62637 H 5852.36 2.50644 3.21934 0
M  V30 62638 H 5851.04 3.36238 2.44779 0
M  V30 62639 H 5849.61 1.74024 3.29803 0
M  V30 62640 N 5851.8 -0.933846 1.26953 0
M  V30 62641 C 5852.73 -2.03765 1.04941 0
M  V30 62642 C 5853.74 -1.62798 0.00746475 0
M  V30 62643 O 5854.93 -1.76764 0.248351 0
M  V30 62644 C 5852.03 -3.34095 0.568633 0
M  V30 62645 C 5851.2 -4.03788 1.68148 0
M  V30 62646 C 5850.26 -5.12393 1.19749 0
M  V30 62647 O 5849.29 -5.36695 1.89598 0
M  V30 62648 N 5850.49 -5.80479 0.0498367 0
M  V30 62649 H 5853.26 -2.23212 1.99991 0
M  V30 62650 H 5850.82 -1.10382 1.18437 0
M  V30 62651 H 5852.81 -4.04052 0.228878 0
M  V30 62652 H 5851.38 -3.11266 -0.288477 0
M  V30 62653 H 5850.6 -3.27648 2.19182 0
M  V30 62654 H 5851.89 -4.47102 2.42853 0
M  V30 62655 H 5851.29 -5.63181 -0.533311 0
M  V30 62656 H 5849.84 -6.51391 -0.230785 0
M  V30 62657 N 5853.28 -1.08875 -1.13947 0
M  V30 62658 C 5854.55 -0.733944 -1.81308 0
M  V30 62659 C 5854.93 0.781755 -1.96091 0
M  V30 62660 O 5854.28 1.70206 -1.52454 0
M  V30 62661 C 5854.49 -1.46642 -3.16697 0
M  V30 62662 C 5855.84 -1.62857 -3.92126 0
M  V30 62663 O 5856.86 -1.42847 -3.26302 0
M  V30 62664 O 5855.72 -1.95911 -5.10178 0
M  V30 62665 H 5852.82 -0.263004 -0.784065 0
M  V30 62666 H 5855.36 -1.19062 -1.20923 0
M  V30 62667 H 5854.13 -2.49873 -3.0113 0
M  V30 62668 H 5853.76 -1.00155 -3.84779 0
M  V30 62669 N 5854.75 1.3107 -0.875119 0
M  V30 62670 C 5855.98 2.01222 -0.502454 0
M  V30 62671 C 5856.4 1.65226 0.898995 0
M  V30 62672 O 5855.76 0.863615 1.59409 0
M  V30 62673 C 5855.81 3.54267 -0.672871 0
M  V30 62674 O 5854.91 4.1141 0.285573 0
M  V30 62675 H 5854.26 0.633415 -0.199203 0
M  V30 62676 H 5856.79 1.67148 -1.17995 0
M  V30 62677 H 5856.8 4.04025 -0.568115 0
M  V30 62678 H 5855.47 3.79805 -1.69473 0
M  V30 62679 H 5854.05 3.72654 0.135341 0
M  V30 62680 N 5856.23 0.635073 1.44238 0
M  V30 62681 C 5857.46 0.146622 2.06881 0
M  V30 62682 C 5857.88 -1.17138 1.47174 0
M  V30 62683 O 5857.24 -1.7195 0.574697 0
M  V30 62684 C 5857.29 0.0495962 3.60566 0
M  V30 62685 O 5856.39 -0.993282 4.00259 0
M  V30 62686 H 5855.73 0.0865736 0.658332 0
M  V30 62687 H 5858.26 0.872868 1.85046 0
M  V30 62688 H 5858.27 -0.139695 4.07761 0
M  V30 62689 H 5856.95 1.01183 4.03404 0
M  V30 62690 H 5855.53 -0.778243 3.64689 0
M  V30 62691 N 5857.71 -1.53052 0.37586 0
M  V30 62692 C 5858.64 -2.23666 -0.500606 0
M  V30 62693 C 5859.66 -1.25436 -1.03778 0
M  V30 62694 O 5860.84 -1.51595 -0.942398 0
M  V30 62695 C 5857.94 -2.92886 -1.70503 0
M  V30 62696 C 5857.12 -4.1771 -1.29757 0
M  V30 62697 C 5856.18 -4.70048 -2.36519 0
M  V30 62698 O 5855.2 -5.33473 -1.98483 0
M  V30 62699 N 5856.4 -4.48745 -3.6825 0
M  V30 62700 H 5859.17 -2.99518 0.104306 0
M  V30 62701 H 5856.73 -1.60641 0.201544 0
M  V30 62702 H 5858.72 -3.24804 -2.41422 0
M  V30 62703 H 5857.29 -2.20424 -2.21658 0
M  V30 62704 H 5856.51 -3.9198 -0.417813 0
M  V30 62705 H 5857.8 -4.9884 -1.0018 0
M  V30 62706 H 5857.2 -3.98089 -4.01922 0
M  V30 62707 H 5855.76 -4.85187 -4.35243 0
M  V30 62708 N 5859.19 -0.105304 -1.57248 0
M  V30 62709 C 5860.44 0.555729 -1.93893 0
M  V30 62710 C 5860.75 1.68699 -0.989942 0
M  V30 62711 O 5861.96 2.40987 -1.25051 0
M  V30 62712 C 5860.41 1.03994 -3.44548 0
M  V30 62713 C 5860.02 -0.0621216 -4.47957 0
M  V30 62714 C 5861.76 1.67313 -3.90137 0
M  V30 62715 C 5859.67 0.438022 -5.89776 0
M  V30 62716 H 5858.6 0.211365 -0.723768 0
M  V30 62717 H 5861.25 -0.182951 -1.82586 0
M  V30 62718 H 5859.63 1.83262 -3.51043 0
M  V30 62719 H 5860.81 -0.837962 -4.53117 0
M  V30 62720 H 5859.12 -0.601118 -4.12038 0
M  V30 62721 H 5861.72 2.05823 -4.93499 0
M  V30 62722 H 5862.06 2.54626 -3.2935 0
M  V30 62723 H 5862.6 0.946095 -3.86386 0
M  V30 62724 H 5859.34 -0.398736 -6.54286 0
M  V30 62725 H 5858.86 1.18064 -5.88065 0
M  V30 62726 H 5860.53 0.903697 -6.40658 0
M  V30 62727 N 5860.67 1.56697 0.168431 0
M  V30 62728 C 5861.58 1.9987 1.22838 0
M  V30 62729 C 5862.59 0.910543 1.48274 0
M  V30 62730 O 5863.77 1.2184 1.60365 0
M  V30 62731 C 5860.83 2.35236 2.54686 0
M  V30 62732 C 5859.89 3.57894 2.37087 0
M  V30 62733 C 5859.13 3.91564 3.62648 0
M  V30 62734 O 5859.35 3.26165 4.67945 0
M  V30 62735 O 5858.28 4.84902 3.56586 0
M  V30 62736 H 5862.11 2.90308 0.891913 0
M  V30 62737 H 5859.7 1.44604 0.37552 0
M  V30 62738 H 5861.58 2.58939 3.32458 0
M  V30 62739 H 5860.25 1.4796 2.87906 0
M  V30 62740 H 5859.16 3.39405 1.57336 0
M  V30 62741 H 5860.49 4.45721 2.08791 0
M  V30 62742 N 5862.14 -0.437082 1.51418 0
M  V30 62743 C 5863.07 -1.53794 1.75697 0
M  V30 62744 C 5864.06 -1.58908 0.606815 0
M  V30 62745 O 5865.24 -1.74632 0.849554 0
M  V30 62746 C 5862.37 -2.91871 1.88225 0
M  V30 62747 C 5861.32 -3.01618 3.03662 0
M  V30 62748 C 5860.65 -4.41676 3.01374 0
M  V30 62749 C 5861.95 -2.75675 4.43622 0
M  V30 62750 H 5863.64 -1.33728 2.67875 0
M  V30 62751 H 5861.19 -0.641891 1.28902 0
M  V30 62752 H 5863.14 -3.68844 2.03794 0
M  V30 62753 H 5861.87 -3.13169 0.926957 0
M  V30 62754 H 5860.53 -2.27084 2.87799 0
M  V30 62755 H 5860.17 -4.59943 2.03622 0
M  V30 62756 H 5859.87 -4.49127 3.78891 0
M  V30 62757 H 5861.4 -5.20623 3.19036 0
M  V30 62758 H 5862.81 -3.42382 4.59834 0
M  V30 62759 H 5861.21 -2.94536 5.22847 0
M  V30 62760 H 5862.28 -1.71281 4.53642 0
M  V30 62761 N 5863.62 -1.41568 -0.692542 0
M  V30 62762 C 5864.55 -1.46429 -1.81881 0
M  V30 62763 C 5865.53 -0.322639 -1.67012 0
M  V30 62764 O 5866.72 -0.534503 -1.867 0
M  V30 62765 C 5863.85 -1.34871 -3.20042 0
M  V30 62766 C 5862.8 -2.4688 -3.4962 0
M  V30 62767 C 5862.13 -2.20386 -4.87169 0
M  V30 62768 C 5863.43 -3.89217 -3.48292 0
M  V30 62769 H 5865.12 -2.40689 -1.7807 0
M  V30 62770 H 5862.67 -1.15848 -0.855293 0
M  V30 62771 H 5864.62 -1.36883 -3.98548 0
M  V30 62772 H 5863.35 -0.370974 -3.24486 0
M  V30 62773 H 5862 -2.44155 -2.73466 0
M  V30 62774 H 5861.65 -1.20948 -4.88242 0
M  V30 62775 H 5861.35 -2.95444 -5.07924 0
M  V30 62776 H 5862.88 -2.24119 -5.67982 0
M  V30 62777 H 5864.29 -3.9364 -4.16798 0
M  V30 62778 H 5862.69 -4.63982 -3.80579 0
M  V30 62779 H 5863.76 -4.17153 -2.47207 0
M  V30 62780 N 5865.1 0.927101 -1.27446 0
M  V30 62781 C 5866.05 2.02779 -1.10223 0
M  V30 62782 C 5867.02 1.661 -0.00313682 0
M  V30 62783 O 5868.2 1.9008 -0.165575 0
M  V30 62784 C 5865.34 3.36715 -0.756102 0
M  V30 62785 C 5864.46 3.86346 -1.93289 0
M  V30 62786 C 5863.59 5.08731 -1.52859 0
M  V30 62787 C 5862.63 5.5066 -2.67283 0
M  V30 62788 N 5861.77 6.64242 -2.27437 0
M  V30 62789 H 5866.61 2.16843 -2.04409 0
M  V30 62790 H 5864.14 1.06229 -1.01754 0
M  V30 62791 H 5866.1 4.13739 -0.536235 0
M  V30 62792 H 5864.73 3.22457 0.148795 0
M  V30 62793 H 5863.78 3.05596 -2.26528 0
M  V30 62794 H 5865.1 4.13391 -2.79122 0
M  V30 62795 H 5864.25 5.93259 -1.27 0
M  V30 62796 H 5862.99 4.83464 -0.641357 0
M  V30 62797 H 5861.99 4.64682 -2.93855 0
M  V30 62798 H 5863.22 5.77922 -3.56628 0
M  V30 62799 H 5861.16 6.40631 -1.41166 0
M  V30 62800 H 5861.08 6.90945 -3.06809 0
M  V30 62801 H 5862.35 7.52108 -2.04827 0
M  V30 62802 N 5866.58 1.09478 1.13368 0
M  V30 62803 C 5867.49 0.746752 2.22398 0
M  V30 62804 C 5868.5 -0.251512 1.72173 0
M  V30 62805 O 5869.68 -0.0927223 2.01186 0
M  V30 62806 C 5866.75 0.173087 3.46268 0
M  V30 62807 C 5865.81 1.22737 4.11381 0
M  V30 62808 C 5865.04 0.68098 5.29338 0
M  V30 62809 O 5865.26 -0.495936 5.6824 0
M  V30 62810 O 5864.2 1.43626 5.84513 0
M  V30 62811 H 5868.02 1.65658 2.54541 0
M  V30 62812 H 5865.61 0.869215 1.21511 0
M  V30 62813 H 5867.49 -0.143481 4.21156 0
M  V30 62814 H 5866.16 -0.709742 3.15823 0
M  V30 62815 H 5865.07 1.59664 3.38317 0
M  V30 62816 H 5866.4 2.08286 4.45957 0
M  V30 62817 N 5868.06 -1.30604 0.882058 0
M  V30 62818 C 5868.99 -2.30664 0.362787 0
M  V30 62819 C 5869.97 -1.60867 -0.552804 0
M  V30 62820 O 5871.15 -1.88495 -0.467273 0
M  V30 62821 C 5868.28 -3.44676 -0.426099 0
M  V30 62822 C 5867.24 -4.2615 0.397471 0
M  V30 62823 C 5866.56 -5.32187 -0.51784 0
M  V30 62824 C 5867.86 -4.9595 1.63803 0
M  V30 62825 H 5869.56 -2.74347 1.19893 0
M  V30 62826 H 5867.1 -1.31893 0.577958 0
M  V30 62827 H 5869.06 -4.13737 -0.799984 0
M  V30 62828 H 5867.78 -2.99792 -1.29586 0
M  V30 62829 H 5866.44 -3.58774 0.753458 0
M  V30 62830 H 5866.09 -4.8355 -1.38523 0
M  V30 62831 H 5865.79 -5.87593 0.0293867 0
M  V30 62832 H 5867.31 -6.04104 -0.888305 0
M  V30 62833 H 5868.73 -5.57542 1.3349 0
M  V30 62834 H 5867.12 -5.61208 2.12523 0
M  V30 62835 H 5868.19 -4.22243 2.38409 0
M  V30 62836 N 5869.54 -0.642713 -1.43899 0
M  V30 62837 C 5870.47 0.104804 -2.27959 0
M  V30 62838 C 5871.45 0.840085 -1.39217 0
M  V30 62839 O 5872.63 0.841809 -1.68659 0
M  V30 62840 C 5869.76 1.15485 -3.18404 0
M  V30 62841 C 5868.8 0.518797 -4.23333 0
M  V30 62842 S 5869.64 -0.699806 -5.30908 0
M  V30 62843 C 5870.79 0.349962 -6.24921 0
M  V30 62844 H 5871.03 -0.608283 -2.91011 0
M  V30 62845 H 5868.56 -0.431228 -1.48256 0
M  V30 62846 H 5870.52 1.75569 -3.7106 0
M  V30 62847 H 5869.18 1.84019 -2.5455 0
M  V30 62848 H 5868.37 1.31001 -4.86677 0
M  V30 62849 H 5867.97 -0.00769501 -3.73999 0
M  V30 62850 H 5870.26 1.21921 -6.66439 0
M  V30 62851 H 5871.21 -0.248191 -7.07665 0
M  V30 62852 H 5871.62 0.681057 -5.60377 0
M  V30 62853 N 5871.01 1.52851 -0.383971 0
M  V30 62854 C 5872.29 1.93901 0.257222 0
M  V30 62855 C 5872.67 1.31901 1.64819 0
M  V30 62856 O 5872.02 0.485066 2.23292 0
M  V30 62857 C 5872.23 3.47802 0.288942 0
M  V30 62858 C 5873.58 4.21398 0.520462 0
M  V30 62859 O 5874.6 3.5428 0.369377 0
M  V30 62860 O 5873.46 5.40373 0.816064 0
M  V30 62861 H 5870.55 0.811663 0.15853 0
M  V30 62862 H 5873.1 1.63948 -0.438092 0
M  V30 62863 H 5871.87 3.85247 -0.685577 0
M  V30 62864 H 5871.49 3.84043 1.0294 0
M  V30 62865 N 5872.49 0.113641 1.5719 0
M  V30 62866 C 5873.42 -0.835286 2.18049 0
M  V30 62867 C 5874.4 -1.2811 1.11901 0
M  V30 62868 O 5875.59 -1.34467 1.40115 0
M  V30 62869 C 5872.72 -2.08749 2.77563 0
M  V30 62870 C 5871.67 -1.77965 3.89246 0
M  V30 62871 C 5871 -3.1017 4.35544 0
M  V30 62872 C 5872.3 -1.05213 5.11593 0
M  V30 62873 H 5873.99 -0.32817 2.97596 0
M  V30 62874 H 5871.54 -0.156406 1.43148 0
M  V30 62875 H 5873.49 -2.75586 3.18795 0
M  V30 62876 H 5872.21 -2.61776 1.95297 0
M  V30 62877 H 5870.87 -1.13519 3.48581 0
M  V30 62878 H 5870.52 -3.61121 3.50144 0
M  V30 62879 H 5870.22 -2.90349 5.10854 0
M  V30 62880 H 5871.75 -3.78135 4.79423 0
M  V30 62881 H 5873.16 -1.62194 5.49878 0
M  V30 62882 H 5871.56 -0.955061 5.92451 0
M  V30 62883 H 5872.63 -0.0379666 4.84885 0
M  V30 62884 N 5873.97 -1.56785 -0.160118 0
M  V30 62885 C 5874.9 -1.93852 -1.22286 0
M  V30 62886 C 5875.91 -0.832852 -1.39884 0
M  V30 62887 O 5877.1 -1.11129 -1.39688 0
M  V30 62888 C 5874.2 -2.1859 -2.58982 0
M  V30 62889 C 5873.38 -3.49848 -2.62535 0
M  V30 62890 C 5872.44 -3.63281 -3.80675 0
M  V30 62891 O 5871.46 -4.35798 -3.66154 0
M  V30 62892 N 5872.66 -2.98965 -4.97594 0
M  V30 62893 H 5875.43 -2.85617 -0.907904 0
M  V30 62894 H 5872.99 -1.58076 -0.349795 0
M  V30 62895 H 5874.98 -2.24831 -3.36502 0
M  V30 62896 H 5873.55 -1.33155 -2.82822 0
M  V30 62897 H 5872.77 -3.55166 -1.71028 0
M  V30 62898 H 5874.06 -4.362 -2.6193 0
M  V30 62899 H 5873.46 -2.39942 -5.12293 0
M  V30 62900 H 5872.01 -3.10785 -5.72936 0
M  V30 62901 N 5875.45 0.429046 -1.51647 0
M  V30 62902 C 5876.39 1.52137 -1.7356 0
M  V30 62903 C 5877.36 1.55739 -0.577471 0
M  V30 62904 O 5878.55 1.7262 -0.812829 0
M  V30 62905 C 5875.69 2.89778 -1.87411 0
M  V30 62906 C 5874.8 2.95641 -3.14993 0
M  V30 62907 C 5873.94 4.24457 -3.1939 0
M  V30 62908 C 5872.98 4.24218 -4.41254 0
M  V30 62909 N 5872.11 5.44572 -4.43154 0
M  V30 62910 H 5876.95 1.32755 -2.66796 0
M  V30 62911 H 5874.49 0.644754 -1.32217 0
M  V30 62912 H 5876.45 3.69653 -1.93423 0
M  V30 62913 H 5875.08 3.077 -0.975746 0
M  V30 62914 H 5874.13 2.08378 -3.18249 0
M  V30 62915 H 5875.44 2.91327 -4.04882 0
M  V30 62916 H 5874.6 5.12711 -3.24365 0
M  V30 62917 H 5873.34 4.31438 -2.27404 0
M  V30 62918 H 5872.34 3.34356 -4.36447 0
M  V30 62919 H 5873.57 4.18894 -5.34514 0
M  V30 62920 H 5871.51 5.52259 -3.54042 0
M  V30 62921 H 5871.43 5.42172 -5.26864 0
M  V30 62922 H 5872.7 6.34835 -4.52332 0
M  V30 62923 N 5876.93 1.41934 0.685024 0
M  V30 62924 C 5878.2 1.32343 1.4403 0
M  V30 62925 C 5878.58 -0.0440419 2.11054 0
M  V30 62926 O 5877.93 -1.05894 2.02481 0
M  V30 62927 C 5878.14 2.48437 2.45112 0
M  V30 62928 C 5879.49 2.90087 3.10056 0
M  V30 62929 O 5880.51 2.48254 2.55438 0
M  V30 62930 O 5879.37 3.62459 4.09006 0
M  V30 62931 H 5876.47 0.521384 0.641941 0
M  V30 62932 H 5879.01 1.5392 0.714612 0
M  V30 62933 H 5877.78 3.39644 1.94314 0
M  V30 62934 H 5877.41 2.28793 3.25176 0
M  V30 62935 N 5878.4 -0.920329 1.27936 0
M  V30 62936 C 5879.34 -2.02287 1.05619 0
M  V30 62937 C 5880.31 -1.6258 -0.0257031 0
M  V30 62938 O 5881.5 -1.88112 0.120918 0
M  V30 62939 C 5878.63 -3.33277 0.60368 0
M  V30 62940 C 5877.67 -3.91965 1.68124 0
M  V30 62941 S 5878.5 -4.23634 3.27559 0
M  V30 62942 C 5879.66 -5.57694 2.84126 0
M  V30 62943 H 5879.89 -2.20906 1.98966 0
M  V30 62944 H 5877.43 -1.06437 1.1185 0
M  V30 62945 H 5879.38 -4.09011 0.349289 0
M  V30 62946 H 5878.05 -3.12568 -0.309852 0
M  V30 62947 H 5877.24 -4.86513 1.31609 0
M  V30 62948 H 5876.84 -3.22843 1.88809 0
M  V30 62949 H 5879.13 -6.37305 2.29888 0
M  V30 62950 H 5880.08 -5.99116 3.77447 0
M  V30 62951 H 5880.48 -5.18568 2.23042 0
M  V30 62952 N 5879.88 -1.10078 -1.12786 0
M  V30 62953 C 5881.13 -0.842183 -1.84486 0
M  V30 62954 C 5881.46 0.630673 -1.83674 0
M  V30 62955 O 5880.74 1.46477 -1.27964 0
M  V30 62956 C 5881.02 -1.38652 -3.32337 0
M  V30 62957 C 5880.87 -2.92597 -3.41624 0
M  V30 62958 C 5882.19 -1.0258 -4.27978 0
M  V30 62959 H 5879.31 -0.3074 -0.669832 0
M  V30 62960 H 5881.95 -1.3633 -1.3234 0
M  V30 62961 H 5880.1 -0.943266 -3.76875 0
M  V30 62962 H 5881.77 -3.45421 -3.05748 0
M  V30 62963 H 5880.02 -3.29388 -2.82288 0
M  V30 62964 H 5880.69 -3.25764 -4.45625 0
M  V30 62965 H 5883.16 -1.40821 -3.91547 0
M  V30 62966 H 5882.04 -1.43364 -5.29847 0
M  V30 62967 H 5882.3 0.0652158 -4.42052 0
M  V30 62968 N 5881.36 1.30135 -0.888972 0
M  V30 62969 C 5882.61 1.96278 -0.510189 0
M  V30 62970 C 5882.94 1.69987 0.939037 0
M  V30 62971 O 5882.21 1.00683 1.66413 0
M  V30 62972 C 5882.5 3.51318 -0.790428 0
M  V30 62973 C 5882.35 3.87108 -2.29057 0
M  V30 62974 C 5883.67 4.39273 -0.269632 0
M  V30 62975 H 5880.79 0.712925 -0.186835 0
M  V30 62976 H 5883.43 1.53938 -1.11369 0
M  V30 62977 H 5881.58 3.87513 -0.276783 0
M  V30 62978 H 5883.25 3.60916 -2.87293 0
M  V30 62979 H 5881.49 3.35034 -2.75562 0
M  V30 62980 H 5882.17 4.9528 -2.43725 0
M  V30 62981 H 5884.64 4.1001 -0.709317 0
M  V30 62982 H 5883.52 5.46663 -0.495008 0
M  V30 62983 H 5883.78 4.34253 0.829281 0
M  V30 62984 N 5882.84 0.650335 1.43556 0
M  V30 62985 C 5883.77 -0.0927132 2.28012 0
M  V30 62986 C 5884.75 -0.83269 1.3966 0
M  V30 62987 O 5885.93 -0.832852 1.69103 0
M  V30 62988 C 5883.06 -1.13794 3.19012 0
M  V30 62989 C 5882.11 -0.496339 4.23602 0
M  V30 62990 S 5882.94 0.727951 5.30529 0
M  V30 62991 C 5884.1 -0.316816 6.25098 0
M  V30 62992 H 5884.33 0.623707 2.90684 0
M  V30 62993 H 5881.86 0.439084 1.48025 0
M  V30 62994 H 5883.82 -1.73599 3.71986 0
M  V30 62995 H 5882.48 -1.82667 2.55523 0
M  V30 62996 H 5881.67 -1.28418 4.87365 0
M  V30 62997 H 5881.28 0.027529 3.7399 0
M  V30 62998 H 5883.57 -1.18385 6.67077 0
M  V30 62999 H 5884.51 0.285717 7.07523 0
M  V30 63000 H 5884.92 -0.65133 5.6073 0
M  V30 63001 N 5884.32 -1.52645 0.392072 0
M  V30 63002 C 5885.25 -2.29447 -0.433148 0
M  V30 63003 C 5886.23 -1.32949 -1.06107 0
M  V30 63004 O 5887.41 -1.61844 -1.07331 0
M  V30 63005 C 5884.54 -3.10333 -1.55918 0
M  V30 63006 C 5883.5 -4.14739 -1.05716 0
M  V30 63007 C 5882.82 -4.83866 -2.27548 0
M  V30 63008 C 5884.12 -5.22155 -0.123162 0
M  V30 63009 H 5885.82 -2.98679 0.207668 0
M  V30 63010 H 5883.36 -1.43643 0.101317 0
M  V30 63011 H 5885.32 -3.62821 -2.14333 0
M  V30 63012 H 5884.04 -2.3884 -2.22762 0
M  V30 63013 H 5882.7 -3.63236 -0.495526 0
M  V30 63014 H 5882.35 -4.08918 -2.92908 0
M  V30 63015 H 5882.05 -5.54435 -1.94617 0
M  V30 63016 H 5883.57 -5.39159 -2.866 0
M  V30 63017 H 5884.98 -5.69985 -0.615584 0
M  V30 63018 H 5883.38 -5.99987 0.116515 0
M  V30 63019 H 5884.45 -4.77793 0.827137 0
M  V30 63020 N 5885.79 -0.121976 -1.57127 0
M  V30 63021 C 5886.72 0.823711 -2.18489 0
M  V30 63022 C 5887.71 1.27515 -1.12579 0
M  V30 63023 O 5888.89 1.33722 -1.40826 0
M  V30 63024 C 5886.02 2.07274 -2.78666 0
M  V30 63025 C 5884.97 1.75899 -3.90184 0
M  V30 63026 C 5884.3 3.07856 -4.37183 0
M  V30 63027 C 5885.6 1.02499 -5.12144 0
M  V30 63028 H 5887.29 0.312383 -2.97766 0
M  V30 63029 H 5884.84 0.148812 -1.43229 0
M  V30 63030 H 5886.79 2.73891 -3.20252 0
M  V30 63031 H 5885.52 2.60736 -1.96683 0
M  V30 63032 H 5884.18 1.11669 -3.49178 0
M  V30 63033 H 5883.82 3.59259 -3.52054 0
M  V30 63034 H 5883.52 2.87635 -5.12386 0
M  V30 63035 H 5885.05 3.75587 -4.81422 0
M  V30 63036 H 5886.46 1.59276 -5.50731 0
M  V30 63037 H 5884.86 0.923628 -5.9295 0
M  V30 63038 H 5885.93 0.0122514 -4.84898 0
M  V30 63039 N 5887.27 1.56867 0.151801 0
M  V30 63040 C 5888.5 1.87604 0.884281 0
M  V30 63041 C 5888.92 0.71048 1.74166 0
M  V30 63042 O 5888.28 -0.34004 1.78083 0
M  V30 63043 C 5888.33 3.16893 1.7208 0
M  V30 63044 O 5887.43 3.00489 2.82454 0
M  V30 63045 H 5886.77 0.616517 0.246581 0
M  V30 63046 H 5889.3 2.04092 0.144063 0
M  V30 63047 H 5889.31 3.48792 2.11679 0
M  V30 63048 H 5887.99 4.01331 1.09117 0
M  V30 63049 H 5886.57 2.79987 2.46296 0
M  V30 63050 N 5888.75 -0.420997 1.51873 0
M  V30 63051 C 5889.68 -1.53267 1.69069 0
M  V30 63052 C 5890.66 -1.53433 0.538236 0
M  V30 63053 O 5891.85 -1.72318 0.76412 0
M  V30 63054 C 5888.97 -2.91824 1.7192 0
M  V30 63055 C 5888.02 -3.09617 2.93325 0
M  V30 63056 S 5888.85 -2.84184 4.53872 0
M  V30 63057 C 5890.01 -4.24993 4.59491 0
M  V30 63058 H 5890.24 -1.3845 2.63095 0
M  V30 63059 H 5887.77 -0.611789 1.41762 0
M  V30 63060 H 5889.73 -3.71683 1.74247 0
M  V30 63061 H 5888.39 -3.03992 0.790426 0
M  V30 63062 H 5887.59 -4.1096 2.91767 0
M  V30 63063 H 5887.19 -2.37607 2.88823 0
M  V30 63064 H 5889.48 -5.1845 4.36137 0
M  V30 63065 H 5890.42 -4.31578 5.61379 0
M  V30 63066 H 5890.83 -4.0941 3.88643 0
M  V30 63067 N 5890.23 -1.42295 -0.677488 0
M  V30 63068 C 5891.16 -1.4835 -1.80318 0
M  V30 63069 C 5892.14 -0.340335 -1.66661 0
M  V30 63070 O 5893.32 -0.554275 -1.86122 0
M  V30 63071 C 5890.45 -1.38258 -3.18594 0
M  V30 63072 C 5889.41 -2.50574 -3.46982 0
M  V30 63073 C 5888.73 -2.25541 -4.84805 0
M  V30 63074 C 5890.03 -3.92889 -3.44144 0
M  V30 63075 H 5891.73 -2.42564 -1.75508 0
M  V30 63076 H 5889.27 -1.16749 -0.842958 0
M  V30 63077 H 5891.23 -1.41103 -3.97074 0
M  V30 63078 H 5889.95 -0.405369 -3.24075 0
M  V30 63079 H 5888.61 -2.47042 -2.70861 0
M  V30 63080 H 5888.26 -1.26119 -4.86932 0
M  V30 63081 H 5887.96 -3.00814 -5.04762 0
M  V30 63082 H 5889.48 -2.3013 -5.65573 0
M  V30 63083 H 5890.9 -3.98039 -4.12599 0
M  V30 63084 H 5889.29 -4.67993 -3.75637 0
M  V30 63085 H 5890.36 -4.19752 -2.42769 0
M  V30 63086 N 5891.71 0.913531 -1.28423 0
M  V30 63087 C 5892.62 2.04918 -1.14218 0
M  V30 63088 C 5893.63 1.73864 -0.0687035 0
M  V30 63089 O 5894.81 1.99472 -0.278038 0
M  V30 63090 C 5891.87 3.37211 -0.805564 0
M  V30 63091 C 5890.93 3.81872 -1.96143 0
M  V30 63092 C 5890.17 5.07853 -1.64077 0
M  V30 63093 O 5890.39 5.67691 -0.555231 0
M  V30 63094 O 5889.32 5.48231 -2.48447 0
M  V30 63095 H 5893.15 2.1982 -2.09554 0
M  V30 63096 H 5890.74 1.03497 -1.07743 0
M  V30 63097 H 5892.62 4.16637 -0.631795 0
M  V30 63098 H 5891.29 3.23484 0.11814 0
M  V30 63099 H 5890.2 3.03273 -2.19035 0
M  V30 63100 H 5891.53 4.00163 -2.86584 0
M  V30 63101 N 5893.18 1.10674 1.122 0
M  V30 63102 C 5894.43 0.849015 1.83402 0
M  V30 63103 C 5894.75 -0.627175 1.84639 0
M  V30 63104 O 5894.02 -1.45542 1.31128 0
M  V30 63105 H 5892.6 0.311098 0.679137 0
M  V30 63106 H 5895.27 1.39752 1.35851 0
M  V30 63107 H 5894.36 1.21408 2.87518 0
M  V30 63108 N 5894.66 -1.29661 0.89586 0
M  V30 63109 C 5895.61 -2.2979 0.360485 0
M  V30 63110 C 5896.6 -1.60619 -0.538328 0
M  V30 63111 O 5897.81 -1.74994 -0.421554 0
M  V30 63112 H 5894.19 -0.745595 0.097938 0
M  V30 63113 H 5896.16 -2.72392 1.21841 0
M  V30 63114 C 5894.91 -3.45388 -0.400329 0
M  V30 63115 H 5894.23 -3.98804 0.282055 0
M  V30 63116 H 5895.67 -4.17495 -0.739856 0
M  V30 63117 C 5894.13 -2.96399 -1.60154 0
M  V30 63118 O 5894.66 -2.97348 -2.70087 0
M  V30 63119 N 5892.86 -2.52276 -1.4424 0
M  V30 63120 H 5892.41 -2.51702 -0.548053 0
M  V30 63121 H 5892.37 -2.19857 -2.24745 0
M  V30 63122 N 5896.14 -0.657939 -1.43209 0
M  V30 63123 C 5897.39 -0.173514 -2.02056 0
M  V30 63124 C 5897.72 1.21103 -1.51815 0
M  V30 63125 O 5896.99 1.80951 -0.713233 0
M  V30 63126 C 5897.28 -0.189556 -3.59601 0
M  V30 63127 C 5897.13 -1.60835 -4.20062 0
M  V30 63128 C 5898.45 0.471479 -4.37567 0
M  V30 63129 H 5895.57 -0.0645257 -0.73417 0
M  V30 63130 H 5898.21 -0.839522 -1.70447 0
M  V30 63131 H 5896.36 0.377553 -3.86661 0
M  V30 63132 H 5898.03 -2.22641 -4.04016 0
M  V30 63133 H 5896.28 -2.1542 -3.76532 0
M  V30 63134 H 5896.95 -1.57139 -5.29161 0
M  V30 63135 H 5899.42 -0.011085 -4.16099 0
M  V30 63136 H 5898.3 0.429547 -5.47217 0
M  V30 63137 H 5898.56 1.54638 -4.14173 0
M  V30 63138 N 5897.62 1.52435 -0.400162 0
M  V30 63139 C 5898.87 2.0201 0.178799 0
M  V30 63140 C 5899.2 1.28565 1.45549 0
M  V30 63141 O 5898.47 0.389303 1.90564 0
M  V30 63142 C 5898.76 3.57455 0.435658 0
M  V30 63143 C 5898.61 4.41559 -0.857085 0
M  V30 63144 C 5899.93 4.22805 1.22165 0
M  V30 63145 H 5897.05 0.734259 0.0635092 0
M  V30 63146 H 5899.69 1.82404 -0.531865 0
M  V30 63147 H 5897.84 3.74292 1.04104 0
M  V30 63148 H 5899.51 4.36451 -1.49359 0
M  V30 63149 H 5897.75 4.08133 -1.47004 0
M  V30 63150 H 5898.43 5.48372 -0.631868 0
M  V30 63151 H 5900.9 4.10011 0.709215 0
M  V30 63152 H 5899.78 5.31525 1.37012 0
M  V30 63153 H 5900.04 3.81161 2.23984 0
M  V30 63154 N 5899.1 0.130307 1.5706 0
M  V30 63155 C 5900.05 -0.832921 2.17175 0
M  V30 63156 C 5901.04 -1.26731 1.12408 0
M  V30 63157 O 5902.25 -1.23774 1.30691 0
M  V30 63158 H 5898.62 -0.286752 0.695181 0
M  V30 63159 H 5900.59 -0.301535 2.96873 0
M  V30 63160 C 5899.34 -2.0687 2.79464 0
M  V30 63161 H 5898.66 -1.74339 3.59786 0
M  V30 63162 H 5900.1 -2.72247 3.2505 0
M  V30 63163 C 5898.56 -2.86584 1.77118 0
M  V30 63164 O 5899.09 -3.82359 1.23144 0
M  V30 63165 N 5897.3 -2.50794 1.46801 0
M  V30 63166 H 5896.85 -1.72977 1.90884 0
M  V30 63167 H 5896.8 -3.04425 0.785674 0
M  V30 63168 N 5900.58 -1.56946 -0.14348 0
M  V30 63169 C 5901.82 -1.83179 -0.853809 0
M  V30 63170 C 5902.14 -0.711744 -1.81547 0
M  V30 63171 O 5901.41 0.266323 -1.94081 0
M  V30 63172 H 5899.99 -0.675796 -0.31829 0
M  V30 63173 H 5902.66 -1.9442 -0.136643 0
M  V30 63174 H 5901.75 -2.78235 -1.41392 0
M  V30 63175 N 5902.05 0.412937 -1.52094 0
M  V30 63176 C 5903.28 1.18206 -1.69809 0
M  V30 63177 C 5903.7 1.84385 -0.405909 0
M  V30 63178 O 5903.05 1.71727 0.617749 0
M  V30 63179 C 5903.1 2.24801 -2.83102 0
M  V30 63180 O 5902.83 1.61324 -4.07316 0
M  V30 63181 C 5904.33 3.14622 -3.12295 0
M  V30 63182 H 5901.55 0.355351 -0.569181 0
M  V30 63183 H 5904.09 0.486322 -1.98633 0
M  V30 63184 H 5902.25 2.90049 -2.56808 0
M  V30 63185 H 5902.66 2.31962 -4.70419 0
M  V30 63186 H 5904.13 3.85498 -3.95089 0
M  V30 63187 H 5904.61 3.76777 -2.2569 0
M  V30 63188 H 5905.22 2.55047 -3.4034 0
M  V30 63189 N 5903.53 1.42652 0.669932 0
M  V30 63190 C 5904.78 1.42672 1.42574 0
M  V30 63191 C 5905.09 0.0483904 1.9554 0
M  V30 63192 O 5906.3 -0.0739963 2.71399 0
M  V30 63193 C 5904.76 2.50989 2.57939 0
M  V30 63194 C 5904.36 3.94851 2.11652 0
M  V30 63195 C 5906.11 2.60182 3.35419 0
M  V30 63196 C 5904.01 4.94666 3.24128 0
M  V30 63197 H 5902.94 0.53067 0.535635 0
M  V30 63198 H 5905.6 1.68579 0.724802 0
M  V30 63199 H 5903.98 2.18255 3.30425 0
M  V30 63200 H 5905.15 4.36963 1.46288 0
M  V30 63201 H 5903.47 3.89553 1.47098 0
M  V30 63202 H 5906.06 3.31933 4.19195 0
M  V30 63203 H 5906.41 1.64696 3.82336 0
M  V30 63204 H 5906.94 2.92133 2.70005 0
M  V30 63205 H 5903.68 5.91646 2.82197 0
M  V30 63206 H 5903.2 4.57182 3.88259 0
M  V30 63207 H 5904.88 5.16607 3.8952 0
M  V30 63208 N 5905.01 -0.906708 1.28905 0
M  V30 63209 C 5906.26 -1.65326 1.1624 0
M  V30 63210 C 5906.58 -1.92862 -0.287937 0
M  V30 63211 O 5905.85 -1.54975 -1.19831 0
M  V30 63212 H 5904.43 -0.612791 0.427196 0
M  V30 63213 H 5907.09 -1.08758 1.61733 0
M  V30 63214 H 5906.19 -2.61265 1.70724 0
M  V30 63215 N 5906.49 -1.11268 -1.11612 0
M  V30 63216 C 5907.43 -0.769372 -2.17599 0
M  V30 63217 C 5908.4 0.258305 -1.64079 0
M  V30 63218 O 5909.59 0.135631 -1.90317 0
M  V30 63219 C 5906.73 -0.216769 -3.44419 0
M  V30 63220 C 5905.84 -1.30079 -4.11951 0
M  V30 63221 C 5904.98 -0.708914 -5.26448 0
M  V30 63222 C 5904.02 -1.77291 -5.85862 0
M  V30 63223 N 5903.15 -1.20066 -6.91758 0
M  V30 63224 H 5907.99 -1.67735 -2.4631 0
M  V30 63225 H 5905.53 -0.837683 -1.20919 0
M  V30 63226 H 5907.49 0.121577 -4.17023 0
M  V30 63227 H 5906.12 0.654414 -3.16097 0
M  V30 63228 H 5905.17 -1.75612 -3.37438 0
M  V30 63229 H 5906.48 -2.10586 -4.52167 0
M  V30 63230 H 5905.64 -0.32052 -6.05853 0
M  V30 63231 H 5904.38 0.127496 -4.87533 0
M  V30 63232 H 5903.38 -2.17063 -5.05137 0
M  V30 63233 H 5904.61 -2.61232 -6.26845 0
M  V30 63234 H 5902.55 -0.385864 -6.54864 0
M  V30 63235 H 5902.47 -1.94247 -7.30619 0
M  V30 63236 H 5903.74 -0.839098 -7.74971 0
M  V30 63237 N 5907.97 1.29185 -0.902724 0
M  V30 63238 C 5908.9 2.26663 -0.340044 0
M  V30 63239 C 5909.91 1.54428 0.515342 0
M  V30 63240 O 5911.1 1.75385 0.332009 0
M  V30 63241 C 5908.2 3.34674 0.533535 0
M  V30 63242 C 5907.37 4.36392 -0.296814 0
M  V30 63243 C 5906.43 5.23722 0.51008 0
M  V30 63244 O 5905.46 5.69153 -0.0734872 0
M  V30 63245 N 5906.66 5.51379 1.81553 0
M  V30 63246 H 5909.42 2.75583 -1.17787 0
M  V30 63247 H 5906.99 1.42551 -0.767524 0
M  V30 63248 H 5908.98 3.90028 1.07981 0
M  V30 63249 H 5907.55 2.85548 1.27206 0
M  V30 63250 H 5906.77 3.80654 -1.0245 0
M  V30 63251 H 5908.06 5.01387 -0.865368 0
M  V30 63252 H 5907.45 5.16283 2.31232 0
M  V30 63253 H 5906.01 6.09537 2.30886 0
M  V30 63254 N 5909.44 0.665525 1.42858 0
M  V30 63255 C 5910.38 -0.0685243 2.28097 0
M  V30 63256 C 5911.35 -0.817831 1.40536 0
M  V30 63257 O 5912.54 -0.81487 1.69977 0
M  V30 63258 C 5909.67 -1.10404 3.20201 0
M  V30 63259 C 5908.71 -0.451383 4.24105 0
M  V30 63260 S 5909.54 0.78418 5.29727 0
M  V30 63261 C 5910.7 -0.250498 6.25399 0
M  V30 63262 H 5910.93 0.654503 2.90006 0
M  V30 63263 H 5908.47 0.45476 1.47551 0
M  V30 63264 H 5910.42 -1.69644 3.73806 0
M  V30 63265 H 5909.09 -1.79946 2.57446 0
M  V30 63266 H 5908.28 -1.23242 4.887 0
M  V30 63267 H 5907.88 0.0671941 3.7394 0
M  V30 63268 H 5910.17 -1.11303 6.68295 0
M  V30 63269 H 5911.12 0.360743 7.0718 0
M  V30 63270 H 5911.52 -0.59182 5.61389 0
M  V30 63271 N 5910.92 -1.52221 0.40824 0
M  V30 63272 C 5912.17 -2.02102 -0.168083 0
M  V30 63273 C 5912.5 -1.29335 -1.44866 0
M  V30 63274 O 5911.78 -0.399403 -1.90355 0
M  V30 63275 C 5912.06 -3.57681 -0.416695 0
M  V30 63276 C 5911.91 -4.41098 0.88049 0
M  V30 63277 C 5913.23 -4.23446 -1.19921 0
M  V30 63278 H 5910.35 -0.734585 -0.0596144 0
M  V30 63279 H 5912.99 -1.82119 0.541531 0
M  V30 63280 H 5911.14 -3.74839 -1.02118 0
M  V30 63281 H 5912.81 -4.35653 1.51672 0
M  V30 63282 H 5911.06 -4.07347 1.49166 0
M  V30 63283 H 5911.73 -5.48029 0.660941 0
M  V30 63284 H 5914.2 -4.10382 -0.687461 0
M  V30 63285 H 5913.08 -5.32244 -1.34191 0
M  V30 63286 H 5913.34 -3.82343 -2.2196 0
M  V30 63287 N 5912.4 -0.138635 -1.56989 0
M  V30 63288 C 5913.68 0.559173 -1.87437 0
M  V30 63289 C 5914.06 1.83523 -1.04319 0
M  V30 63290 O 5913.41 2.28143 -0.127611 0
M  V30 63291 C 5913.62 0.832701 -3.3892 0
M  V30 63292 C 5914.96 1.17716 -4.07956 0
M  V30 63293 O 5915.99 0.922329 -3.44052 0
M  V30 63294 O 5914.85 1.65632 -5.20796 0
M  V30 63295 H 5911.94 0.284291 -0.7766 0
M  V30 63296 H 5914.49 -0.174617 -1.68799 0
M  V30 63297 H 5913.26 -0.070743 -3.91236 0
M  V30 63298 H 5912.88 1.62097 -3.63057 0
M  V30 63299 N 5913.88 1.57019 0.135155 0
M  V30 63300 C 5914.81 1.94323 1.1964 0
M  V30 63301 C 5915.79 0.810653 1.40951 0
M  V30 63302 O 5916.97 1.06736 1.5537 0
M  V30 63303 C 5914.1 2.22551 2.5532 0
M  V30 63304 C 5913.15 3.4516 2.50533 0
M  V30 63305 S 5913.98 4.98314 1.96071 0
M  V30 63306 C 5915.14 5.29676 3.33457 0
M  V30 63307 H 5915.37 2.84034 0.878195 0
M  V30 63308 H 5912.9 1.50581 0.34126 0
M  V30 63309 H 5914.86 2.39494 3.33396 0
M  V30 63310 H 5913.52 1.33484 2.84325 0
M  V30 63311 H 5912.71 3.62225 3.50441 0
M  V30 63312 H 5912.32 3.27521 1.80572 0
M  V30 63313 H 5914.61 5.23869 4.29613 0
M  V30 63314 H 5915.55 6.31042 3.21234 0
M  V30 63315 H 5915.96 4.57172 3.3114 0
M  V30 63316 N 5915.36 -0.404866 1.52311 0
M  V30 63317 C 5916.29 -1.50033 1.7892 0
M  V30 63318 C 5917.27 -1.57585 0.640385 0
M  V30 63319 O 5918.45 -1.7279 0.886405 0
M  V30 63320 C 5915.58 -2.87813 1.94374 0
M  V30 63321 C 5914.54 -2.95109 3.09992 0
M  V30 63322 C 5913.86 -4.35184 3.10675 0
M  V30 63323 C 5915.16 -2.66203 4.4937 0
M  V30 63324 H 5916.86 -1.28016 2.70652 0
M  V30 63325 H 5914.4 -0.614405 1.30235 0
M  V30 63326 H 5916.36 -3.64438 2.11572 0
M  V30 63327 H 5915.08 -3.11133 0.993176 0
M  V30 63328 H 5913.74 -2.20928 2.92551 0
M  V30 63329 H 5913.39 -4.5552 2.13332 0
M  V30 63330 H 5913.09 -4.4099 3.88332 0
M  V30 63331 H 5914.61 -5.13739 3.30008 0
M  V30 63332 H 5916.02 -3.32551 4.66993 0
M  V30 63333 H 5914.42 -2.83379 5.28977 0
M  V30 63334 H 5915.49 -1.6162 4.57173 0
M  V30 63335 N 5916.83 -1.43006 -0.662357 0
M  V30 63336 C 5918.08 -1.44351 -1.42445 0
M  V30 63337 C 5918.41 -0.0641622 -1.94094 0
M  V30 63338 O 5917.69 0.913573 -1.71709 0
M  V30 63339 C 5917.97 -2.47831 -2.6125 0
M  V30 63340 C 5917.82 -3.95006 -2.15152 0
M  V30 63341 C 5919.14 -2.48152 -3.63467 0
M  V30 63342 H 5916.26 -0.525624 -0.516612 0
M  V30 63343 H 5918.9 -1.74498 -0.751692 0
M  V30 63344 H 5917.05 -2.22255 -3.18646 0
M  V30 63345 H 5918.73 -4.31607 -1.62828 0
M  V30 63346 H 5916.97 -4.08275 -1.46608 0
M  V30 63347 H 5917.64 -4.63009 -3.00545 0
M  V30 63348 H 5920.12 -2.70927 -3.15813 0
M  V30 63349 H 5918.99 -3.22514 -4.44158 0
M  V30 63350 H 5919.25 -1.51199 -4.15441 0
M  V30 63351 N 5918.31 0.899859 -1.29384 0
M  V30 63352 C 5919.22 2.03695 -1.16385 0
M  V30 63353 C 5920.24 1.73782 -0.0871403 0
M  V30 63354 O 5921.41 1.99165 -0.299179 0
M  V30 63355 C 5918.48 3.36338 -0.841284 0
M  V30 63356 C 5917.54 3.79771 -2.00182 0
M  V30 63357 C 5916.77 5.06084 -1.69455 0
M  V30 63358 O 5917 5.6707 -0.615411 0
M  V30 63359 O 5915.93 5.45565 -2.54248 0
M  V30 63360 H 5919.76 2.17585 -2.11874 0
M  V30 63361 H 5917.34 1.02349 -1.08835 0
M  V30 63362 H 5919.22 4.15943 -0.675949 0
M  V30 63363 H 5917.9 3.23591 0.0838238 0
M  V30 63364 H 5916.81 3.00933 -2.22239 0
M  V30 63365 H 5918.14 3.97101 -2.90812 0
M  V30 63366 N 5919.79 1.11858 1.1102 0
M  V30 63367 C 5921.02 0.893065 1.87187 0
M  V30 63368 C 5921.44 -0.551994 1.79818 0
M  V30 63369 O 5920.8 -1.39021 1.16374 0
M  V30 63370 C 5920.85 1.36481 3.33774 0
M  V30 63371 O 5919.95 0.539346 4.08858 0
M  V30 63372 H 5919.29 0.32134 0.581065 0
M  V30 63373 H 5921.82 1.48915 1.40305 0
M  V30 63374 H 5921.83 1.36123 3.84622 0
M  V30 63375 H 5920.51 2.41706 3.38454 0
M  V30 63376 H 5919.08 0.609399 3.67887 0
M  V30 63377 N 5921.27 -1.28704 0.909562 0
M  V30 63378 C 5922.49 -1.99819 0.555628 0
M  V30 63379 C 5922.92 -1.67552 -0.854873 0
M  V30 63380 O 5922.28 -0.905576 -1.57064 0
M  V30 63381 C 5922.32 -3.52358 0.766562 0
M  V30 63382 O 5921.43 -4.12023 -0.176395 0
M  V30 63383 H 5920.77 -0.62791 0.215927 0
M  V30 63384 H 5923.3 -1.6396 1.22385 0
M  V30 63385 H 5923.31 -4.02377 0.675036 0
M  V30 63386 H 5921.98 -3.75178 1.79483 0
M  V30 63387 H 5920.56 -3.72882 -0.0364905 0
M  V30 63388 N 5922.75 -0.673092 -1.42503 0
M  V30 63389 C 5923.69 0.0179785 -2.32593 0
M  V30 63390 C 5924.69 0.792348 -1.49727 0
M  V30 63391 O 5925.89 0.700504 -1.6581 0
M  V30 63392 H 5922.27 0.0246081 -0.751597 0
M  V30 63393 H 5924.24 -0.759255 -2.88579 0
M  V30 63394 C 5922.99 0.956642 -3.34281 0
M  V30 63395 H 5922.31 0.370201 -3.98082 0
M  V30 63396 H 5923.75 1.40891 -3.99907 0
M  V30 63397 C 5922.21 2.06221 -2.66411 0
M  V30 63398 O 5922.74 3.14844 -2.49471 0
M  V30 63399 N 5920.95 1.83343 -2.25463 0
M  V30 63400 H 5920.49 0.950057 -2.3944 0
M  V30 63401 H 5920.45 2.57505 -1.80384 0
M  V30 63402 N 5924.22 1.52002 -0.416307 0
M  V30 63403 C 5925.17 2.28772 0.420251 0
M  V30 63404 C 5926.17 1.33755 1.03952 0
M  V30 63405 O 5927.37 1.51184 0.976897 0
M  V30 63406 H 5923.75 0.735997 0.154314 0
M  V30 63407 H 5925.72 2.97365 -0.24836 0
M  V30 63408 C 5924.47 3.1268 1.52074 0
M  V30 63409 H 5923.79 3.85668 1.05357 0
M  V30 63410 H 5925.23 3.69489 2.07976 0
M  V30 63411 C 5923.69 2.267 2.49216 0
M  V30 63412 O 5924.22 1.91217 3.53269 0
M  V30 63413 N 5922.43 1.9033 2.19597 0
M  V30 63414 H 5921.97 2.19385 1.35011 0
M  V30 63415 H 5921.93 1.33097 2.84838 0
M  V30 63416 N 5925.7 0.146958 1.56913 0
M  V30 63417 C 5926.95 -0.504911 1.96414 0
M  V30 63418 C 5927.28 -1.64518 1.03186 0
M  V30 63419 O 5926.56 -1.94358 0.0742412 0
M  V30 63420 C 5926.84 -1.01112 3.45613 0
M  V30 63421 C 5926.69 0.127651 4.49619 0
M  V30 63422 C 5928.01 -1.89292 3.97312 0
M  V30 63423 H 5925.13 -0.182063 0.714158 0
M  V30 63424 H 5927.77 0.228176 1.88625 0
M  V30 63425 H 5925.92 -1.63583 3.52382 0
M  V30 63426 H 5927.59 0.763989 4.5493 0
M  V30 63427 H 5925.84 0.786799 4.26605 0
M  V30 63428 H 5926.51 -0.268259 5.51348 0
M  V30 63429 H 5928.98 -1.3665 3.93022 0
M  V30 63430 H 5927.86 -2.21621 5.02171 0
M  V30 63431 H 5928.12 -2.82984 3.39665 0
M  V30 63432 N 5927.18 -1.57089 -0.126826 0
M  V30 63433 C 5928.09 -2.03057 -1.17495 0
M  V30 63434 C 5929.11 -0.949535 -1.45808 0
M  V30 63435 O 5930.28 -1.26049 -1.57079 0
M  V30 63436 C 5927.35 -2.41906 -2.48359 0
M  V30 63437 C 5926.41 -3.64055 -2.27514 0
M  V30 63438 C 5925.64 -4.01041 -3.52138 0
M  V30 63439 O 5925.87 -3.38457 -4.59133 0
M  V30 63440 O 5924.8 -4.94186 -3.43604 0
M  V30 63441 H 5928.63 -2.9257 -0.81463 0
M  V30 63442 H 5926.21 -1.45548 -0.337049 0
M  V30 63443 H 5928.09 -2.67663 -3.25476 0
M  V30 63444 H 5926.77 -1.55541 -2.83881 0
M  V30 63445 H 5925.67 -3.43458 -1.48282 0
M  V30 63446 H 5927.01 -4.511 -1.969 0
M  V30 63447 N 5928.66 0.396782 -1.52523 0
M  V30 63448 C 5929.59 1.50558 -1.71486 0
M  V30 63449 C 5930.57 1.52558 -0.562577 0
M  V30 63450 O 5931.75 1.7108 -0.791438 0
M  V30 63451 C 5928.88 2.89052 -1.76541 0
M  V30 63452 C 5927.93 3.04912 -2.98213 0
M  V30 63453 S 5928.76 2.76928 -4.58335 0
M  V30 63454 C 5929.92 4.17629 -4.66194 0
M  V30 63455 H 5930.15 1.34246 -2.65264 0
M  V30 63456 H 5927.68 0.589158 -1.42718 0
M  V30 63457 H 5929.64 3.68864 -1.80138 0
M  V30 63458 H 5928.3 3.02696 -0.838688 0
M  V30 63459 H 5927.49 4.06266 -2.98268 0
M  V30 63460 H 5927.1 2.32982 -2.92567 0
M  V30 63461 H 5929.39 5.11446 -4.4433 0
M  V30 63462 H 5930.33 4.22592 -5.68174 0
M  V30 63463 H 5930.74 4.03175 -3.95108 0
M  V30 63464 N 5930.14 1.43355 0.654764 0
M  V30 63465 C 5931.39 1.44177 1.41053 0
M  V30 63466 C 5931.7 0.0691273 1.95478 0
M  V30 63467 O 5932.91 -0.0452067 2.71462 0
M  V30 63468 C 5931.36 2.5371 2.55263 0
M  V30 63469 C 5930.97 3.97074 2.07452 0
M  V30 63470 C 5932.71 2.63725 3.3264 0
M  V30 63471 C 5930.62 4.98076 3.18863 0
M  V30 63472 H 5929.55 0.536322 0.529977 0
M  V30 63473 H 5932.2 1.69338 0.706881 0
M  V30 63474 H 5930.58 2.21748 3.28091 0
M  V30 63475 H 5931.76 4.3849 1.41645 0
M  V30 63476 H 5930.07 3.91091 1.42958 0
M  V30 63477 H 5932.67 3.36361 4.15651 0
M  V30 63478 H 5933.01 1.68742 3.80568 0
M  V30 63479 H 5933.55 2.94981 2.66892 0
M  V30 63480 H 5930.28 5.94606 2.75906 0
M  V30 63481 H 5929.8 4.61274 3.83388 0
M  V30 63482 H 5931.48 5.20709 3.84019 0
M  V30 63483 N 5931.62 -0.892985 1.2986 0
M  V30 63484 C 5932.55 -2.01418 1.18124 0
M  V30 63485 C 5933.53 -1.6994 0.0738085 0
M  V30 63486 O 5934.71 -1.92526 0.254454 0
M  V30 63487 C 5931.84 -3.36382 0.86396 0
M  V30 63488 C 5930.8 -3.82093 1.92844 0
M  V30 63489 C 5930.12 -5.14258 1.46433 0
M  V30 63490 C 5931.42 -4.01687 3.33833 0
M  V30 63491 H 5933.12 -2.11495 2.11921 0
M  V30 63492 H 5930.66 -1.01619 1.02027 0
M  V30 63493 H 5932.61 -4.14332 0.768542 0
M  V30 63494 H 5931.34 -3.26416 -0.109701 0
M  V30 63495 H 5930 -3.06365 2.01336 0
M  V30 63496 H 5929.65 -5.00713 0.479159 0
M  V30 63497 H 5929.35 -5.45813 2.17628 0
M  V30 63498 H 5930.87 -5.94742 1.38255 0
M  V30 63499 H 5932.28 -4.701 3.28145 0
M  V30 63500 H 5930.68 -4.44607 4.03044 0
M  V30 63501 H 5931.75 -3.05803 3.76315 0
M  V30 63502 N 5933.09 -1.12445 -1.10425 0
M  V30 63503 C 5934.04 -0.792408 -2.16771 0
M  V30 63504 C 5935.01 0.240887 -1.64344 0
M  V30 63505 O 5936.2 0.115438 -1.9045 0
M  V30 63506 C 5933.34 -0.253287 -3.44169 0
M  V30 63507 C 5932.45 -1.34441 -4.10548 0
M  V30 63508 C 5931.58 -0.764711 -5.25667 0
M  V30 63509 C 5930.62 -1.83495 -5.83949 0
M  V30 63510 N 5929.76 -1.27396 -6.90445 0
M  V30 63511 H 5934.6 -1.70338 -2.44518 0
M  V30 63512 H 5932.14 -0.850461 -1.20023 0
M  V30 63513 H 5934.09 0.0773395 -4.17128 0
M  V30 63514 H 5932.72 0.62085 -3.16773 0
M  V30 63515 H 5931.78 -1.79181 -3.35557 0
M  V30 63516 H 5933.09 -2.1537 -4.49908 0
M  V30 63517 H 5932.24 -0.384761 -6.05479 0
M  V30 63518 H 5930.98 0.0757798 -4.87641 0
M  V30 63519 H 5929.99 -2.22409 -5.02807 0
M  V30 63520 H 5931.21 -2.67866 -6.24039 0
M  V30 63521 H 5929.16 -0.455299 -6.54418 0
M  V30 63522 H 5929.07 -2.01985 -7.28518 0
M  V30 63523 H 5930.34 -0.921247 -7.74037 0
M  V30 63524 N 5934.57 1.2822 -0.916375 0
M  V30 63525 C 5935.82 1.94863 -0.550891 0
M  V30 63526 C 5936.15 1.72116 0.905885 0
M  V30 63527 O 5935.4 1.03673 1.65983 0
M  V30 63528 C 5935.7 3.48109 -0.809632 0
M  V30 63529 C 5935.37 3.90959 -2.24637 0
M  V30 63530 C 5934.03 4.02369 -2.63917 0
M  V30 63531 C 5936.38 4.12854 -3.18121 0
M  V30 63532 C 5933.71 4.33055 -3.95829 0
M  V30 63533 C 5936.06 4.4502 -4.496 0
M  V30 63534 C 5934.72 4.54642 -4.8873 0
M  V30 63535 H 5933.99 0.713053 -0.201585 0
M  V30 63536 H 5936.64 1.52506 -1.1582 0
M  V30 63537 H 5934.95 3.91618 -0.119549 0
M  V30 63538 H 5936.64 3.97795 -0.505983 0
M  V30 63539 H 5933.23 3.82607 -1.93158 0
M  V30 63540 H 5937.42 4.0349 -2.8898 0
M  V30 63541 H 5932.67 4.3871 -4.25844 0
M  V30 63542 H 5936.85 4.6091 -5.22049 0
M  V30 63543 H 5934.47 4.78173 -5.90977 0
M  V30 63544 N 5936.05 0.68064 1.42144 0
M  V30 63545 C 5937.3 0.205334 2.01456 0
M  V30 63546 C 5937.62 -1.19009 1.53841 0
M  V30 63547 O 5936.88 -1.81421 0.733827 0
M  V30 63548 C 5937.18 0.19495 3.56868 0
M  V30 63549 C 5936.84 1.53585 4.23937 0
M  V30 63550 C 5935.51 1.90298 4.41973 0
M  V30 63551 C 5937.86 2.41868 4.61681 0
M  V30 63552 C 5935.19 3.14908 4.95025 0
M  V30 63553 C 5937.54 3.65797 5.16116 0
M  V30 63554 C 5936.2 4.02672 5.32364 0
M  V30 63555 H 5935.47 0.0751369 0.737181 0
M  V30 63556 H 5938.12 0.87678 1.70249 0
M  V30 63557 H 5936.42 -0.560019 3.87777 0
M  V30 63558 H 5938.12 -0.190108 4.00549 0
M  V30 63559 H 5934.71 1.24026 4.10263 0
M  V30 63560 H 5938.9 2.14789 4.47414 0
M  V30 63561 H 5934.15 3.43492 5.0579 0
M  V30 63562 H 5938.33 4.34403 5.44304 0
M  V30 63563 H 5935.95 4.99303 5.73237 0
M  V30 63564 N 5937.53 -1.51779 0.424362 0
M  V30 63565 C 5938.8 -1.94515 -0.205722 0
M  V30 63566 C 5939.18 -1.36225 -1.61264 0
M  V30 63567 O 5938.53 -0.544097 -2.21928 0
M  V30 63568 C 5938.74 -3.48446 -0.196627 0
M  V30 63569 C 5940.09 -4.2263 -0.408553 0
M  V30 63570 O 5941.11 -3.55134 -0.275317 0
M  V30 63571 O 5939.97 -5.42346 -0.672507 0
M  V30 63572 H 5937.07 -0.815581 -0.136954 0
M  V30 63573 H 5939.61 -1.62729 0.481406 0
M  V30 63574 H 5938.39 -3.83294 0.787477 0
M  V30 63575 H 5938.01 -3.86637 -0.927214 0
M  V30 63576 N 5939.01 -0.155278 -1.56833 0
M  V30 63577 C 5939.94 0.819488 -2.12978 0
M  V30 63578 C 5940.92 1.23682 -1.05554 0
M  V30 63579 O 5942.1 1.33145 -1.33434 0
M  V30 63580 C 5939.23 2.10146 -2.65625 0
M  V30 63581 C 5938.27 1.82941 -3.85273 0
M  V30 63582 S 5939.11 1.01299 -5.25832 0
M  V30 63583 C 5940.26 2.30597 -5.81873 0
M  V30 63584 H 5940.5 0.342068 -2.95326 0
M  V30 63585 H 5938.03 0.0591416 -1.54287 0
M  V30 63586 H 5939.99 2.83787 -2.96606 0
M  V30 63587 H 5938.65 2.55002 -1.83392 0
M  V30 63588 H 5937.84 2.7802 -4.20382 0
M  V30 63589 H 5937.44 1.17404 -3.55095 0
M  V30 63590 H 5939.73 3.26185 -5.93809 0
M  V30 63591 H 5940.68 1.9998 -6.79274 0
M  V30 63592 H 5941.09 2.41624 -5.10175 0
M  V30 63593 N 5940.48 1.57154 0.118493 0
M  V30 63594 C 5941.73 1.84879 0.82619 0
M  V30 63595 C 5942.06 0.740436 1.79855 0
M  V30 63596 O 5941.31 -0.268165 1.93854 0
M  V30 63597 C 5941.61 3.19089 1.60987 0
M  V30 63598 C 5941.28 4.44071 0.781755 0
M  V30 63599 C 5939.94 4.78007 0.55339 0
M  V30 63600 C 5942.29 5.20798 0.204556 0
M  V30 63601 C 5939.62 5.86113 -0.262419 0
M  V30 63602 C 5941.97 6.29763 -0.598447 0
M  V30 63603 C 5940.64 6.6223 -0.837123 0
M  V30 63604 H 5939.91 0.676521 0.302324 0
M  V30 63605 H 5942.55 1.91295 0.0885509 0
M  V30 63606 H 5940.86 3.08252 2.41843 0
M  V30 63607 H 5942.56 3.37763 2.16142 0
M  V30 63608 H 5939.15 4.17483 0.969837 0
M  V30 63609 H 5943.33 4.94932 0.3682 0
M  V30 63610 H 5938.59 6.09693 -0.456552 0
M  V30 63611 H 5942.76 6.88398 -1.05269 0
M  V30 63612 H 5940.39 7.4583 -1.4711 0
M  V30 63613 N 5941.96 -0.388688 1.52732 0
M  V30 63614 C 5942.89 -1.48127 1.80501 0
M  V30 63615 C 5943.87 -1.56897 0.657063 0
M  V30 63616 O 5945.06 -1.7184 0.904682 0
M  V30 63617 C 5942.19 -2.85735 1.97415 0
M  V30 63618 C 5941.14 -2.91804 3.13104 0
M  V30 63619 C 5940.47 -4.31865 3.15273 0
M  V30 63620 C 5941.77 -2.61422 4.52168 0
M  V30 63621 H 5943.46 -1.25138 2.71994 0
M  V30 63622 H 5941.01 -0.600557 1.30879 0
M  V30 63623 H 5942.96 -3.62174 2.15425 0
M  V30 63624 H 5941.69 -3.10062 1.02612 0
M  V30 63625 H 5940.34 -2.17813 2.94878 0
M  V30 63626 H 5939.99 -4.53232 2.18151 0
M  V30 63627 H 5939.69 -4.36846 3.92988 0
M  V30 63628 H 5941.22 -5.1021 3.35438 0
M  V30 63629 H 5942.63 -3.27579 4.70494 0
M  V30 63630 H 5941.03 -2.77753 5.31952 0
M  V30 63631 H 5942.1 -1.56762 4.58861 0
M  V30 63632 N 5943.44 -1.437 -0.647152 0
M  V30 63633 C 5944.39 -1.49329 -1.75981 0
M  V30 63634 C 5945.36 -0.342436 -1.62532 0
M  V30 63635 O 5946.54 -0.550443 -1.82688 0
M  V30 63636 C 5943.68 -1.42811 -3.14164 0
M  V30 63637 C 5942.8 -2.68148 -3.38704 0
M  V30 63638 C 5941.93 -2.53575 -4.66769 0
M  V30 63639 C 5940.97 -3.74152 -4.84434 0
M  V30 63640 N 5940.11 -3.58353 -6.03761 0
M  V30 63641 H 5944.95 -2.44401 -1.70505 0
M  V30 63642 H 5942.48 -1.21312 -0.831978 0
M  V30 63643 H 5944.44 -1.37025 -3.94056 0
M  V30 63644 H 5943.07 -0.513169 -3.18695 0
M  V30 63645 H 5942.12 -2.84188 -2.52867 0
M  V30 63646 H 5943.44 -3.57696 -3.47642 0
M  V30 63647 H 5942.59 -2.45532 -5.54796 0
M  V30 63648 H 5941.33 -1.61562 -4.60162 0
M  V30 63649 H 5940.33 -3.82598 -3.94841 0
M  V30 63650 H 5941.56 -4.67182 -4.92866 0
M  V30 63651 H 5939.5 -2.69078 -5.98275 0
M  V30 63652 H 5939.42 -4.41507 -6.13684 0
M  V30 63653 H 5940.69 -3.54172 -6.94393 0
M  V30 63654 N 5944.92 0.886085 -1.30331 0
M  V30 63655 C 5945.85 2.00788 -1.1919 0
M  V30 63656 C 5946.83 1.69898 -0.0828198 0
M  V30 63657 O 5948.01 1.92388 -0.264661 0
M  V30 63658 C 5945.14 3.35919 -0.881787 0
M  V30 63659 C 5944.1 3.81065 -1.94868 0
M  V30 63660 C 5943.42 5.13474 -1.49158 0
M  V30 63661 C 5944.72 3.99911 -3.35959 0
M  V30 63662 H 5946.42 2.10368 -2.13039 0
M  V30 63663 H 5943.96 1.01076 -1.02565 0
M  V30 63664 H 5945.92 4.13919 -0.790505 0
M  V30 63665 H 5944.64 3.26469 0.092389 0
M  V30 63666 H 5943.3 3.05293 -2.02958 0
M  V30 63667 H 5942.95 5.00451 -0.505706 0
M  V30 63668 H 5942.65 5.44651 -2.2052 0
M  V30 63669 H 5944.17 5.94 -1.41407 0
M  V30 63670 H 5945.59 4.68353 -3.30634 0
M  V30 63671 H 5943.98 4.42463 -4.05397 0
M  V30 63672 H 5945.05 3.03803 -3.77931 0
M  V30 63673 N 5946.4 1.13029 1.09828 0
M  V30 63674 C 5947.34 0.803893 2.16347 0
M  V30 63675 C 5948.31 -0.232169 1.64469 0
M  V30 63676 O 5949.5 -0.105336 1.90509 0
M  V30 63677 C 5946.64 0.271535 3.4403 0
M  V30 63678 C 5945.75 1.36616 4.09829 0
M  V30 63679 C 5944.89 0.792578 5.25254 0
M  V30 63680 C 5943.93 1.86589 5.82967 0
M  V30 63681 N 5943.06 1.31056 6.8976 0
M  V30 63682 H 5947.9 1.71633 2.43611 0
M  V30 63683 H 5945.44 0.856814 1.19571 0
M  V30 63684 H 5947.4 -0.0552171 4.17163 0
M  V30 63685 H 5946.03 -0.604042 3.17098 0
M  V30 63686 H 5945.08 1.80958 3.34602 0
M  V30 63687 H 5946.39 2.17753 4.4876 0
M  V30 63688 H 5945.55 0.416865 6.05266 0
M  V30 63689 H 5944.28 -0.0499179 4.87674 0
M  V30 63690 H 5943.29 2.25072 5.0162 0
M  V30 63691 H 5944.51 2.71172 6.2261 0
M  V30 63692 H 5942.46 0.489998 6.54167 0
M  V30 63693 H 5942.38 2.05846 7.27436 0
M  V30 63694 H 5943.65 0.962283 7.73538 0
M  V30 63695 N 5947.87 -1.27732 0.923162 0
M  V30 63696 C 5949.15 -1.89624 0.479791 0
M  V30 63697 C 5949.53 -1.83596 -1.04191 0
M  V30 63698 O 5948.88 -1.27814 -1.89409 0
M  V30 63699 C 5949.09 -3.33739 1.02076 0
M  V30 63700 C 5950.44 -4.10674 1.07851 0
M  V30 63701 O 5951.46 -3.42736 0.970064 0
M  V30 63702 O 5950.32 -5.32131 1.24494 0
M  V30 63703 H 5947.41 -0.81261 0.153604 0
M  V30 63704 H 5949.96 -1.36032 1.01456 0
M  V30 63705 H 5948.73 -3.32397 2.06466 0
M  V30 63706 H 5948.36 -3.94844 0.467372 0
M  V30 63707 N 5949.35 -0.688168 -1.41782 0
M  V30 63708 C 5950.28 -0.032402 -2.33478 0
M  V30 63709 C 5951.26 0.775092 -1.51414 0
M  V30 63710 O 5952.45 0.729557 -1.79975 0
M  V30 63711 C 5949.58 0.910023 -3.35165 0
M  V30 63712 C 5948.53 0.210161 -4.27484 0
M  V30 63713 C 5947.86 1.26644 -5.19486 0
M  V30 63714 C 5949.16 -0.91902 -5.14151 0
M  V30 63715 H 5950.85 -0.798239 -2.88563 0
M  V30 63716 H 5948.4 -0.38531 -1.38749 0
M  V30 63717 H 5950.35 1.37796 -3.98234 0
M  V30 63718 H 5949.08 1.70744 -2.78414 0
M  V30 63719 H 5947.73 -0.237673 -3.65829 0
M  V30 63720 H 5947.38 2.05619 -4.59053 0
M  V30 63721 H 5947.08 0.803212 -5.82084 0
M  V30 63722 H 5948.61 1.73504 -5.8543 0
M  V30 63723 H 5950.02 -0.531699 -5.70829 0
M  V30 63724 H 5948.42 -1.30888 -5.85652 0
M  V30 63725 H 5949.49 -1.76196 -4.51756 0
M  V30 63726 N 5950.83 1.51552 -0.432405 0
M  V30 63727 C 5952.06 2.06462 0.134528 0
M  V30 63728 C 5952.47 1.30031 1.36884 0
M  V30 63729 O 5951.83 0.35851 1.78944 0
M  V30 63730 C 5951.88 3.5854 0.461696 0
M  V30 63731 O 5951.6 4.32083 -0.723623 0
M  V30 63732 C 5953.1 4.29947 1.07984 0
M  V30 63733 H 5950.32 0.670924 0.0101093 0
M  V30 63734 H 5952.87 1.95188 -0.610067 0
M  V30 63735 H 5951.02 3.69745 1.15619 0
M  V30 63736 H 5951.44 5.22609 -0.44494 0
M  V30 63737 H 5952.91 5.37455 1.25879 0
M  V30 63738 H 5953.39 3.8792 2.05949 0
M  V30 63739 H 5953.99 4.23172 0.424873 0
M  V30 63740 N 5952.31 0.163593 1.56749 0
M  V30 63741 C 5953.53 -0.493016 2.01455 0
M  V30 63742 C 5953.96 -1.56531 1.04305 0
M  V30 63743 O 5953.32 -1.81287 0.0213677 0
M  V30 63744 C 5953.36 -1.05534 3.44811 0
M  V30 63745 O 5952.47 -2.16964 3.50714 0
M  V30 63746 H 5951.81 -0.118882 0.653271 0
M  V30 63747 H 5954.34 0.265211 2.02874 0
M  V30 63748 H 5954.35 -1.37988 3.83957 0
M  V30 63749 H 5953.02 -0.270187 4.15021 0
M  V30 63750 H 5951.6 -1.85613 3.23422 0
M  V30 63751 N 5953.79 -1.57215 -0.110157 0
M  V30 63752 C 5955.01 -1.89882 -0.83423 0
M  V30 63753 C 5955.44 -0.756407 -1.72221 0
M  V30 63754 O 5954.79 0.292705 -1.78922 0
M  V30 63755 C 5954.84 -3.21344 -1.63617 0
M  V30 63756 O 5953.95 -3.07872 -2.74388 0
M  V30 63757 H 5953.29 -0.622838 -0.230149 0
M  V30 63758 H 5955.82 -2.04402 -0.0899008 0
M  V30 63759 H 5955.83 -3.54282 -2.02357 0
M  V30 63760 H 5954.5 -4.04083 -0.984379 0
M  V30 63761 H 5953.08 -2.86418 -2.38787 0
M  V30 63762 N 5955.26 0.380583 -1.52936 0
M  V30 63763 C 5956.54 1.13952 -1.58979 0
M  V30 63764 C 5956.92 2.07502 -0.388101 0
M  V30 63765 O 5956.27 2.19846 0.622906 0
M  V30 63766 C 5956.48 1.89182 -2.93276 0
M  V30 63767 C 5957.83 2.44247 -3.47316 0
M  V30 63768 O 5958.85 1.99328 -2.95206 0
M  V30 63769 O 5957.71 3.26322 -4.38379 0
M  V30 63770 H 5954.8 0.521873 -0.641543 0
M  V30 63771 H 5957.35 0.385056 -1.65274 0
M  V30 63772 H 5956.12 1.20821 -3.7218 0
M  V30 63773 H 5955.75 2.71571 -2.90405 0
M  V30 63774 N 5956.74 1.44041 0.639523 0
M  V30 63775 C 5957.97 1.49849 1.42664 0
M  V30 63776 C 5958.39 0.120665 1.88414 0
M  V30 63777 O 5957.74 -0.871819 1.6033 0
M  V30 63778 C 5957.79 2.45606 2.65255 0
M  V30 63779 O 5957.52 3.78031 2.21414 0
M  V30 63780 C 5959.02 2.60793 3.58471 0
M  V30 63781 H 5956.24 0.508493 0.437808 0
M  V30 63782 H 5958.78 1.88922 0.782856 0
M  V30 63783 H 5956.94 2.09691 3.25743 0
M  V30 63784 H 5957.35 4.29652 3.00831 0
M  V30 63785 H 5958.82 3.31842 4.41118 0
M  V30 63786 H 5959.3 1.65741 4.06727 0
M  V30 63787 H 5959.91 2.97576 3.03857 0
M  V30 63788 N 5958.22 -0.879161 1.308 0
M  V30 63789 C 5959.47 -1.63146 1.19957 0
M  V30 63790 C 5959.8 -1.92958 -0.2444 0
M  V30 63791 O 5959.05 -1.5532 -1.19055 0
M  V30 63792 C 5959.35 -2.97571 1.97955 0
M  V30 63793 C 5959.02 -2.87287 3.47529 0
M  V30 63794 C 5957.68 -2.8419 3.88316 0
M  V30 63795 C 5960.03 -2.7499 4.42752 0
M  V30 63796 C 5957.36 -2.66642 5.22608 0
M  V30 63797 C 5959.71 -2.5898 5.77159 0
M  V30 63798 C 5958.37 -2.5426 6.17177 0
M  V30 63799 H 5957.64 -0.596992 0.438955 0
M  V30 63800 H 5960.29 -1.02174 1.61965 0
M  V30 63801 H 5958.6 -3.62526 1.48599 0
M  V30 63802 H 5960.29 -3.54753 1.86954 0
M  V30 63803 H 5956.88 -2.90511 3.15121 0
M  V30 63804 H 5961.07 -2.76446 4.12179 0
M  V30 63805 H 5956.32 -2.61406 5.52699 0
M  V30 63806 H 5960.5 -2.4844 6.50577 0
M  V30 63807 H 5958.12 -2.40421 7.21181 0
M  V30 63808 N 5959.7 -1.1361 -1.09227 0
M  V30 63809 C 5960.65 -0.815355 -2.15918 0
M  V30 63810 C 5961.62 0.223443 -1.6459 0
M  V30 63811 O 5962.8 0.0952312 -1.90562 0
M  V30 63812 C 5959.94 -0.289776 -3.43881 0
M  V30 63813 C 5959.05 -1.38788 -4.09099 0
M  V30 63814 C 5958.19 -0.820422 -5.24826 0
M  V30 63815 C 5957.23 -1.89678 -5.8197 0
M  V30 63816 N 5956.37 -1.34712 -6.89055 0
M  V30 63817 H 5961.21 -1.72922 -2.42697 0
M  V30 63818 H 5958.74 -0.863143 -1.19114 0
M  V30 63819 H 5960.7 0.0330932 -4.17187 0
M  V30 63820 H 5959.33 0.587217 -3.17414 0
M  V30 63821 H 5958.38 -1.8273 -3.33637 0
M  V30 63822 H 5959.69 -2.2013 -4.47598 0
M  V30 63823 H 5958.85 -0.448958 -6.05037 0
M  V30 63824 H 5957.59 0.0240547 -4.87694 0
M  V30 63825 H 5956.59 -2.27729 -5.00419 0
M  V30 63826 H 5957.82 -2.7447 -6.21163 0
M  V30 63827 H 5955.76 -0.524683 -6.53898 0
M  V30 63828 H 5955.68 -2.09701 -7.26334 0
M  V30 63829 H 5956.95 -1.00329 -7.73016 0
M  V30 63830 N 5961.18 1.27241 -0.929923 0
M  V30 63831 C 5962.09 2.30505 -0.436436 0
M  V30 63832 C 5963.1 1.67133 0.483995 0
M  V30 63833 O 5964.28 1.98042 0.366263 0
M  V30 63834 C 5961.34 3.45392 0.30082 0
M  V30 63835 C 5960.41 4.24277 -0.654796 0
M  V30 63836 C 5959.64 5.33679 0.0473704 0
M  V30 63837 O 5959.86 5.56165 1.26635 0
M  V30 63838 O 5958.8 5.9864 -0.625591 0
M  V30 63839 H 5962.62 2.74757 -1.29392 0
M  V30 63840 H 5960.21 1.32231 -0.695357 0
M  V30 63841 H 5962.09 4.15263 0.716572 0
M  V30 63842 H 5960.76 3.03191 1.13387 0
M  V30 63843 H 5959.67 3.56932 -1.12027 0
M  V30 63844 H 5961 4.70199 -1.45513 0
M  V30 63845 N 5962.66 0.695678 1.41415 0
M  V30 63846 C 5963.89 0.235384 2.05255 0
M  V30 63847 C 5964.29 -1.12049 1.52452 0
M  V30 63848 O 5963.64 -1.71137 0.667672 0
M  V30 63849 C 5963.7 0.115668 3.59314 0
M  V30 63850 C 5963.36 1.4036 4.34911 0
M  V30 63851 C 5964.36 2.34148 4.64188 0
M  V30 63852 C 5962.04 1.65701 4.74182 0
M  V30 63853 C 5964.04 3.51536 5.31696 0
M  V30 63854 C 5961.73 2.83374 5.41426 0
M  V30 63855 C 5962.72 3.76115 5.70111 0
M  V30 63856 O 5962.41 4.91728 6.35971 0
M  V30 63857 H 5962.14 0.107152 0.667454 0
M  V30 63858 H 5964.7 0.948823 1.82172 0
M  V30 63859 H 5962.93 -0.653541 3.81137 0
M  V30 63860 H 5964.62 -0.307457 4.04734 0
M  V30 63861 H 5965.38 2.15828 4.34331 0
M  V30 63862 H 5961.26 0.943772 4.51236 0
M  V30 63863 H 5964.81 4.23942 5.54003 0
M  V30 63864 H 5960.7 3.01611 5.70702 0
M  V30 63865 H 5961.47 4.91545 6.54466 0
M  V30 63866 N 5964.13 -1.51321 0.440437 0
M  V30 63867 C 5965.41 -1.94722 -0.18508 0
M  V30 63868 C 5965.79 -1.37927 -1.5981 0
M  V30 63869 O 5965.14 -0.567605 -2.21338 0
M  V30 63870 C 5965.35 -3.48635 -0.159658 0
M  V30 63871 C 5966.7 -4.23039 -0.363705 0
M  V30 63872 O 5967.72 -3.55406 -0.237634 0
M  V30 63873 O 5966.58 -5.43029 -0.614946 0
M  V30 63874 H 5963.67 -0.816988 -0.128296 0
M  V30 63875 H 5966.22 -1.62209 0.498638 0
M  V30 63876 H 5964.99 -3.82437 0.828086 0
M  V30 63877 H 5964.61 -3.87599 -0.886153 0
M  V30 63878 N 5965.61 -0.171903 -1.5666 0
M  V30 63879 C 5967.02 0.344725 -1.8349 0
M  V30 63880 C 5967.37 1.63021 -1.09173 0
M  V30 63881 O 5966.5 2.13633 -0.344955 0
M  V30 63882 C 5967.09 0.632223 -3.32849 0
M  V30 63883 C 5965.65 1.09329 -3.60172 0
M  V30 63884 C 5964.8 0.129471 -2.76998 0
M  V30 63885 H 5967.75 -0.396155 -1.53676 0
M  V30 63886 H 5967.77 1.48421 -3.50359 0
M  V30 63887 H 5967.28 -0.303545 -3.86911 0
M  V30 63888 H 5965.38 2.04414 -3.11522 0
M  V30 63889 H 5965.5 1.00204 -4.68504 0
M  V30 63890 H 5963.86 0.626946 -2.46863 0
M  V30 63891 H 5964.64 -0.800328 -3.33841 0
M  V30 63892 N 5967.09 1.57271 0.101818 0
M  V30 63893 C 5968.37 1.76748 0.837826 0
M  V30 63894 C 5968.75 0.751835 1.97258 0
M  V30 63895 O 5968.09 -0.220966 2.27429 0
M  V30 63896 C 5968.3 3.22307 1.33863 0
M  V30 63897 C 5969.65 3.85298 1.78411 0
M  V30 63898 O 5970.68 3.26015 1.43502 0
M  V30 63899 O 5969.54 4.89535 2.42936 0
M  V30 63900 H 5966.63 0.724309 0.399132 0
M  V30 63901 H 5969.18 1.69491 0.0842225 0
M  V30 63902 H 5967.95 3.87758 0.525297 0
M  V30 63903 H 5967.57 3.3417 2.15444 0
M  V30 63904 N 5968.57 -0.372467 1.53135 0
M  V30 63905 C 5969.82 -1.11363 1.6865 0
M  V30 63906 C 5970.14 -1.90032 0.437342 0
M  V30 63907 O 5969.41 -1.88064 -0.548527 0
M  V30 63908 H 5967.99 -0.414107 0.621711 0
M  V30 63909 H 5970.65 -0.420753 1.90304 0
M  V30 63910 H 5969.74 -1.80729 2.54447 0
M  V30 63911 N 5970.05 -1.44378 -0.631875 0
M  V30 63912 C 5970.99 -1.51187 -1.74388 0
M  V30 63913 C 5971.96 -0.359656 -1.62159 0
M  V30 63914 O 5973.15 -0.569789 -1.82094 0
M  V30 63915 C 5970.29 -1.46135 -3.12632 0
M  V30 63916 C 5969.4 -2.71725 -3.35841 0
M  V30 63917 C 5968.54 -2.58512 -4.64053 0
M  V30 63918 C 5967.57 -3.79269 -4.80439 0
M  V30 63919 N 5966.71 -3.64737 -5.99926 0
M  V30 63920 H 5971.55 -2.46196 -1.67904 0
M  V30 63921 H 5969.09 -1.22187 -0.819065 0
M  V30 63922 H 5971.05 -1.41197 -3.9258 0
M  V30 63923 H 5969.68 -0.546942 -3.18133 0
M  V30 63924 H 5968.73 -2.86854 -2.49838 0
M  V30 63925 H 5970.04 -3.61363 -3.43828 0
M  V30 63926 H 5969.19 -2.51403 -5.52161 0
M  V30 63927 H 5967.93 -1.66433 -4.58423 0
M  V30 63928 H 5966.94 -3.86764 -3.9076 0
M  V30 63929 H 5968.16 -4.72384 -4.87884 0
M  V30 63930 H 5966.11 -2.75409 -5.95387 0
M  V30 63931 H 5966.03 -4.47991 -6.08967 0
M  V30 63932 H 5967.29 -3.61517 -6.90598 0
M  V30 63933 N 5971.52 0.872212 -1.31264 0
M  V30 63934 C 5972.77 1.62186 -1.20582 0
M  V30 63935 C 5973.09 1.93558 0.236701 0
M  V30 63936 O 5972.36 1.58098 1.1568 0
M  V30 63937 H 5970.94 0.601249 -0.443293 0
M  V30 63938 H 5973.61 1.04432 -1.6456 0
M  V30 63939 H 5972.7 2.56647 -1.77591 0
M  V30 63940 N 5973 1.14188 1.08623 0
M  V30 63941 C 5974.25 0.910074 1.81233 0
M  V30 63942 C 5974.58 -0.562069 1.85888 0
M  V30 63943 O 5973.86 -1.41627 1.33312 0
M  V30 63944 C 5974.14 1.50891 3.26962 0
M  V30 63945 C 5973.99 3.05074 3.30529 0
M  V30 63946 C 5975.31 1.18394 4.23876 0
M  V30 63947 H 5972.43 0.332049 0.657961 0
M  V30 63948 H 5975.07 1.41148 1.27189 0
M  V30 63949 H 5973.22 1.08249 3.73114 0
M  V30 63950 H 5974.89 3.56531 2.92718 0
M  V30 63951 H 5973.14 3.39638 2.69868 0
M  V30 63952 H 5973.81 3.42079 4.33227 0
M  V30 63953 H 5976.28 1.55256 3.8605 0
M  V30 63954 H 5975.16 1.6293 5.24161 0
M  V30 63955 H 5975.42 0.0988939 4.41989 0
M  V30 63956 N 5974.48 -1.26746 0.936658 0
M  V30 63957 C 5975.73 -1.93253 0.577591 0
M  V30 63958 C 5976.04 -1.7434 -0.886844 0
M  V30 63959 O 5977.25 -2.35265 -1.35509 0
M  V30 63960 C 5975.7 -3.46237 0.98224 0
M  V30 63961 C 5975.31 -3.73892 2.46798 0
M  V30 63962 C 5977.06 -4.18774 0.694853 0
M  V30 63963 C 5974.96 -5.20293 2.81156 0
M  V30 63964 H 5973.89 -0.723494 0.212302 0
M  V30 63965 H 5976.54 -1.43897 1.13869 0
M  V30 63966 H 5974.93 -3.94453 0.349716 0
M  V30 63967 H 5976.1 -3.36399 3.14917 0
M  V30 63968 H 5974.42 -3.14577 2.72819 0
M  V30 63969 H 5977.01 -5.26587 0.927941 0
M  V30 63970 H 5977.36 -4.14668 -0.368246 0
M  V30 63971 H 5977.89 -3.76409 1.28689 0
M  V30 63972 H 5974.63 -5.29497 3.86411 0
M  V30 63973 H 5974.15 -5.589 2.17695 0
M  V30 63974 H 5975.83 -5.88255 2.69379 0
M  V30 63975 N 5975.96 -0.703167 -1.41044 0
M  V30 63976 C 5977.18 -0.245161 -2.05946 0
M  V30 63977 C 5977.61 1.09983 -1.52595 0
M  V30 63978 O 5976.97 1.69013 -0.656082 0
M  V30 63979 C 5977.01 -0.22157 -3.59919 0
M  V30 63980 O 5976.12 0.801182 -4.04543 0
M  V30 63981 H 5975.46 -0.117885 -0.653452 0
M  V30 63982 H 5977.99 -0.960162 -1.80671 0
M  V30 63983 H 5978 -0.0550116 -4.07963 0
M  V30 63984 H 5976.67 -1.20315 -3.98117 0
M  V30 63985 H 5975.25 0.603359 -3.67986 0
M  V30 63986 N 5977.44 1.51085 -0.448455 0
M  V30 63987 C 5978.38 2.28017 0.357358 0
M  V30 63988 C 5979.35 1.32083 1.00714 0
M  V30 63989 O 5980.54 1.60998 1.02393 0
M  V30 63990 C 5977.68 3.13329 1.44633 0
M  V30 63991 C 5976.79 4.2427 0.81358 0
M  V30 63992 C 5975.93 4.96875 1.87854 0
M  V30 63993 C 5974.97 5.99721 1.22481 0
M  V30 63994 N 5974.1 6.6569 2.23162 0
M  V30 63995 H 5978.94 2.96435 -0.305034 0
M  V30 63996 H 5976.48 1.46202 -0.162273 0
M  V30 63997 H 5978.44 3.61126 2.08911 0
M  V30 63998 H 5977.07 2.47003 2.0782 0
M  V30 63999 H 5976.12 3.80355 0.0588076 0
M  V30 64000 H 5977.43 4.97919 0.296412 0
M  V30 64001 H 5976.59 5.48275 2.59767 0
M  V30 64002 H 5975.32 4.22881 2.42946 0
M  V30 64003 H 5974.33 5.47601 0.491195 0
M  V30 64004 H 5975.55 6.75676 0.681077 0
M  V30 64005 H 5973.5 5.94502 2.77314 0
M  V30 64006 H 5973.42 7.3514 1.76368 0
M  V30 64007 H 5974.69 7.21717 2.94525 0
M  V30 64008 N 5978.91 0.180209 1.56566 0
M  V30 64009 C 5980.33 -0.175847 1.58628 0
M  V30 64010 C 5980.53 -1.62175 1.19589 0
M  V30 64011 O 5979.59 -2.35468 0.911649 0
M  V30 64012 C 5980.9 0.113025 3.00488 0
M  V30 64013 C 5982.45 0.051944 3.12957 0
M  V30 64014 C 5982.92 0.313925 4.56923 0
M  V30 64015 N 5984.41 0.262014 4.62458 0
M  V30 64016 C 5985.15 0.438774 5.71719 0
M  V30 64017 N 5984.64 0.675074 6.89503 0
M  V30 64018 N 5986.44 0.374061 5.60854 0
M  V30 64019 H 5978.59 1.12391 1.80228 0
M  V30 64020 H 5980.85 0.447488 0.835738 0
M  V30 64021 H 5980.56 1.11499 3.33558 0
M  V30 64022 H 5980.43 -0.591278 3.72537 0
M  V30 64023 H 5982.82 -0.940613 2.79708 0
M  V30 64024 H 5982.9 0.789096 2.43325 0
M  V30 64025 H 5982.54 1.30373 4.90882 0
M  V30 64026 H 5982.47 -0.443942 5.24725 0
M  V30 64027 H 5984.96 0.0853841 3.77804 0
M  V30 64028 H 5985.28 0.799161 7.68657 0
M  V30 64029 H 5983.62 0.711794 6.91345 0
M  V30 64030 H 5986.81 0.189979 4.67714 0
M  V30 64031 H 5986.99 0.515239 6.45948 0
M  V30 64032 N 5980.39 -1.57323 -0.0934766 0
M  V30 64033 C 5981.67 -1.7719 -0.82844 0
M  V30 64034 C 5982.05 -0.762286 -1.96856 0
M  V30 64035 O 5981.4 0.208902 -2.27543 0
M  V30 64036 C 5981.61 -3.23012 -1.32152 0
M  V30 64037 C 5982.96 -3.86239 -1.76365 0
M  V30 64038 O 5983.98 -3.26771 -1.41771 0
M  V30 64039 O 5982.84 -4.90816 -2.40337 0
M  V30 64040 H 5979.93 -0.726415 -0.395285 0
M  V30 64041 H 5982.48 -1.69533 -0.0752328 0
M  V30 64042 H 5981.25 -3.88031 -0.504726 0
M  V30 64043 H 5980.87 -3.35308 -2.13669 0
M  V30 64044 N 5981.87 0.364341 -1.53331 0
M  V30 64045 C 5983.12 1.10685 -1.69573 0
M  V30 64046 C 5983.45 1.89266 -0.448159 0
M  V30 64047 O 5982.7 1.87218 0.569904 0
M  V30 64048 C 5983 2.09198 -2.89777 0
M  V30 64049 C 5982.67 1.47088 -4.26235 0
M  V30 64050 C 5981.33 1.29877 -4.63342 0
M  V30 64051 C 5983.68 1.02162 -5.11089 0
M  V30 64052 C 5981.01 0.663258 -5.82939 0
M  V30 64053 C 5983.36 0.400112 -6.31333 0
M  V30 64054 C 5982.02 0.215505 -6.67152 0
M  V30 64055 H 5981.29 0.405026 -0.620512 0
M  V30 64056 H 5983.94 0.388502 -1.87518 0
M  V30 64057 H 5982.25 2.87341 -2.6635 0
M  V30 64058 H 5983.94 2.66604 -2.99538 0
M  V30 64059 H 5980.53 1.61477 -3.97018 0
M  V30 64060 H 5984.72 1.14252 -4.8297 0
M  V30 64061 H 5979.97 0.508653 -6.0928 0
M  V30 64062 H 5984.15 0.0438106 -6.96386 0
M  V30 64063 H 5981.77 -0.278999 -7.59688 0
M  V30 64064 N 5983.35 1.44711 0.624209 0
M  V30 64065 C 5984.3 1.48542 1.72972 0
M  V30 64066 C 5985.28 0.350443 1.57037 0
M  V30 64067 O 5986.47 0.596212 1.66656 0
M  V30 64068 C 5983.6 1.43911 3.1168 0
M  V30 64069 C 5982.69 2.62549 3.3306 0
M  V30 64070 N 5983.08 3.87757 3.24774 0
M  V30 64071 C 5981.38 2.57892 3.63879 0
M  V30 64072 C 5982.08 4.66845 3.47031 0
M  V30 64073 N 5981.06 3.9803 3.70234 0
M  V30 64074 H 5984.86 2.43189 1.65034 0
M  V30 64075 H 5982.37 1.39771 0.826912 0
M  V30 64076 H 5984.37 1.44739 3.90968 0
M  V30 64077 H 5983.03 0.503074 3.20779 0
M  V30 64078 H 5984.04 4.19623 3.0354 0
M  V30 64079 H 5980.72 1.73118 3.79916 0
M  V30 64080 H 5982.11 5.75867 3.46159 0
M  V30 64081 N 5984.83 -0.865239 1.31725 0
M  V30 64082 C 5985.77 -1.97289 1.19773 0
M  V30 64083 C 5986.74 -1.65896 0.0823816 0
M  V30 64084 O 5987.93 -1.89074 0.256076 0
M  V30 64085 C 5985.07 -3.32724 0.915893 0
M  V30 64086 C 5984.18 -3.76684 2.11502 0
M  V30 64087 C 5983.32 -5.00859 1.76957 0
M  V30 64088 C 5982.36 -5.3728 2.93251 0
M  V30 64089 N 5981.49 -6.52634 2.58869 0
M  V30 64090 H 5986.33 -2.06844 2.14522 0
M  V30 64091 H 5983.87 -1.01253 1.06707 0
M  V30 64092 H 5985.83 -4.1071 0.733025 0
M  V30 64093 H 5984.46 -3.228 0.00522265 0
M  V30 64094 H 5983.51 -2.9444 2.40851 0
M  V30 64095 H 5984.82 -3.99603 2.98528 0
M  V30 64096 H 5983.98 -5.86524 1.5516 0
M  V30 64097 H 5982.71 -4.79854 0.871294 0
M  V30 64098 H 5981.72 -4.50132 3.15691 0
M  V30 64099 H 5982.94 -5.60248 3.83795 0
M  V30 64100 H 5980.89 -6.33166 1.71571 0
M  V30 64101 H 5980.81 -6.75519 3.39425 0
M  V30 64102 H 5982.08 -7.41479 2.40477 0
M  V30 64103 N 5986.31 -1.14762 -1.08016 0
M  V30 64104 C 5987.27 -0.840934 -2.13216 0
M  V30 64105 C 5988.27 0.156253 -1.60039 0
M  V30 64106 O 5989.46 -0.0725755 -1.74049 0
M  V30 64107 C 5986.59 -0.254328 -3.3995 0
M  V30 64108 H 5987.78 -1.77332 -2.41854 0
M  V30 64109 H 5985.34 -0.95419 -1.23794 0
M  V30 64110 H 5986.07 0.68658 -3.16949 0
M  V30 64111 H 5985.86 -0.972632 -3.79845 0
M  V30 64112 H 5987.35 -0.0571019 -4.17561 0
M  V30 64113 N 5987.78 1.26247 -0.943366 0
M  V30 64114 C 5988.72 2.24686 -0.398956 0
M  V30 64115 C 5989.69 1.54281 0.513444 0
M  V30 64116 O 5990.88 1.8304 0.450393 0
M  V30 64117 C 5988.01 3.36003 0.426539 0
M  V30 64118 C 5987.05 4.24381 -0.424646 0
M  V30 64119 S 5987.88 5.02531 -1.84995 0
M  V30 64120 C 5989.04 6.17324 -1.03257 0
M  V30 64121 H 5989.27 2.70516 -1.23322 0
M  V30 64122 H 5986.81 1.35147 -0.746635 0
M  V30 64123 H 5988.76 4.00582 0.896912 0
M  V30 64124 H 5987.43 2.8878 1.2355 0
M  V30 64125 H 5986.62 5.03571 0.207939 0
M  V30 64126 H 5986.22 3.64679 -0.829789 0
M  V30 64127 H 5988.51 6.76938 -0.275873 0
M  V30 64128 H 5989.46 6.84892 -1.79801 0
M  V30 64129 H 5989.86 5.61639 -0.567663 0
M  V30 64130 N 5989.26 0.710637 1.40669 0
M  V30 64131 C 5990.17 0.0557988 2.34534 0
M  V30 64132 C 5991.19 -0.749331 1.57038 0
M  V30 64133 O 5992.36 -0.683427 1.8945 0
M  V30 64134 C 5989.43 -0.858465 3.35904 0
M  V30 64135 C 5988.49 -0.0438441 4.29278 0
M  V30 64136 C 5987.72 -0.914565 5.25805 0
M  V30 64137 O 5987.95 -2.15388 5.2817 0
M  V30 64138 O 5986.88 -0.356195 6.00845 0
M  V30 64139 H 5990.71 0.82991 2.92141 0
M  V30 64140 H 5988.29 0.471078 1.41779 0
M  V30 64141 H 5990.17 -1.3823 3.98083 0
M  V30 64142 H 5988.85 -1.61181 2.80718 0
M  V30 64143 H 5987.75 0.524946 3.70399 0
M  V30 64144 H 5989.09 0.671168 4.87602 0
M  V30 64145 N 5990.74 -1.50845 0.456461 0
M  V30 64146 C 5991.96 -2.07139 -0.103982 0
M  V30 64147 C 5992.39 -1.31971 -1.34035 0
M  V30 64148 O 5991.75 -0.3631 -1.77627 0
M  V30 64149 C 5991.8 -3.58532 -0.385668 0
M  V30 64150 O 5990.9 -3.85357 -1.46881 0
M  V30 64151 H 5990.24 -0.663968 0.0065358 0
M  V30 64152 H 5992.77 -1.94224 0.643299 0
M  V30 64153 H 5992.78 -4.03099 -0.630503 0
M  V30 64154 H 5991.46 -4.12663 0.517875 0
M  V30 64155 H 5990.03 -3.52639 -1.21244 0
M  V30 64156 N 5992.22 -0.188509 -1.56469 0
M  V30 64157 C 5993.17 0.747656 -2.15393 0
M  V30 64158 C 5994.15 1.1809 -1.09286 0
M  V30 64159 O 5995.34 1.1404 -1.35366 0
M  V30 64160 C 5992.47 1.96975 -2.81169 0
M  V30 64161 C 5991.56 1.5577 -3.94457 0
M  V30 64162 N 5991.95 0.856225 -4.985 0
M  V30 64163 C 5990.25 1.84748 -4.05936 0
M  V30 64164 C 5990.95 0.650723 -5.78049 0
M  V30 64165 N 5989.92 1.19744 -5.30248 0
M  V30 64166 H 5993.73 0.202925 -2.93199 0
M  V30 64167 H 5991.24 0.011531 -1.62396 0
M  V30 64168 H 5993.24 2.65083 -3.21771 0
M  V30 64169 H 5991.9 2.51927 -2.04849 0
M  V30 64170 H 5992.91 0.512402 -5.15359 0
M  V30 64171 H 5989.59 2.41255 -3.40738 0
M  V30 64172 H 5990.98 0.0947377 -6.71833 0
M  V30 64173 N 5993.7 1.5737 0.0851321 0
M  V30 64174 C 5994.64 2.02762 1.10255 0
M  V30 64175 C 5995.61 0.905751 1.39231 0
M  V30 64176 O 5996.8 1.17247 1.50525 0
M  V30 64177 C 5993.94 2.46536 2.41483 0
M  V30 64178 C 5993.05 3.72285 2.19152 0
M  V30 64179 C 5992.19 4.04897 3.43849 0
M  V30 64180 C 5991.22 5.23727 3.16823 0
M  V30 64181 N 5990.36 5.52042 4.33814 0
M  V30 64182 H 5995.2 2.89456 0.708482 0
M  V30 64183 H 5992.74 1.43157 0.338282 0
M  V30 64184 H 5994.7 2.69963 3.18081 0
M  V30 64185 H 5993.33 1.62839 2.78718 0
M  V30 64186 H 5992.38 3.56277 1.33309 0
M  V30 64187 H 5993.69 4.59027 1.95181 0
M  V30 64188 H 5992.84 4.29154 4.2885 0
M  V30 64189 H 5991.58 3.16696 3.70884 0
M  V30 64190 H 5990.59 4.9928 2.30217 0
M  V30 64191 H 5991.81 6.13533 2.91125 0
M  V30 64192 H 5989.76 4.668 4.60905 0
M  V30 64193 H 5989.68 6.33175 4.13068 0
M  V30 64194 H 5990.94 5.80841 5.19851 0
M  V30 64195 N 5995.17 -0.356204 1.53522 0
M  V30 64196 C 5996.12 -1.43717 1.77001 0
M  V30 64197 C 5997.11 -1.48273 0.624808 0
M  V30 64198 O 5998.3 -1.53356 0.883788 0
M  V30 64199 C 5995.43 -2.81029 1.97174 0
M  V30 64200 C 5994.51 -2.80914 3.17723 0
M  V30 64201 N 5994.91 -2.50438 4.39448 0
M  V30 64202 C 5993.2 -3.12069 3.18636 0
M  V30 64203 C 5993.9 -2.58238 5.21237 0
M  V30 64204 N 5992.88 -2.93338 4.57661 0
M  V30 64205 H 5996.68 -1.19032 2.68717 0
M  V30 64206 H 5994.2 -0.564468 1.52274 0
M  V30 64207 H 5996.19 -3.58899 2.12125 0
M  V30 64208 H 5994.85 -3.0667 1.06693 0
M  V30 64209 H 5995.86 -2.23863 4.67018 0
M  V30 64210 H 5992.54 -3.42965 2.38079 0
M  V30 64211 H 5993.93 -2.37943 6.28357 0
M  V30 64212 N 5996.65 -1.4504 -0.616526 0
M  V30 64213 C 5997.88 -1.51879 -1.40059 0
M  V30 64214 C 5998.29 -0.147172 -1.88627 0
M  V30 64215 O 5997.63 0.859893 -1.62332 0
M  V30 64216 C 5997.69 -2.43431 -2.64541 0
M  V30 64217 C 5997.36 -3.90335 -2.37671 0
M  V30 64218 C 5998.36 -4.80478 -1.98588 0
M  V30 64219 C 5996.04 -4.35172 -2.5086 0
M  V30 64220 C 5998.03 -6.13462 -1.73042 0
M  V30 64221 C 5995.72 -5.682 -2.24927 0
M  V30 64222 C 5996.72 -6.57163 -1.86079 0
M  V30 64223 O 5996.41 -7.87726 -1.60444 0
M  V30 64224 H 5996.14 -0.517063 -0.435456 0
M  V30 64225 H 5998.69 -1.90829 -0.759832 0
M  V30 64226 H 5996.92 -1.99435 -3.31305 0
M  V30 64227 H 5998.61 -2.41053 -3.2657 0
M  V30 64228 H 5999.38 -4.47104 -1.87943 0
M  V30 64229 H 5995.26 -3.66175 -2.80066 0
M  V30 64230 H 5998.8 -6.8286 -1.42645 0
M  V30 64231 H 5994.7 -6.0113 -2.35186 0
M  V30 64232 H 5995.47 -7.99667 -1.7457 0
M  V30 64233 N 5998.13 0.858241 -1.32182 0
M  V30 64234 C 5999.36 1.64469 -1.25529 0
M  V30 64235 C 5999.77 1.87965 0.177359 0
M  V30 64236 O 5999.13 1.44611 1.11328 0
M  V30 64237 C 5999.18 3.00602 -2.008 0
M  V30 64238 O 5998.9 2.78148 -3.38475 0
M  V30 64239 C 6000.4 3.95047 -2.01128 0
M  V30 64240 H 5997.62 0.512378 -0.433255 0
M  V30 64241 H 6000.17 1.07042 -1.74248 0
M  V30 64242 H 5998.32 3.54684 -1.55813 0
M  V30 64243 H 5998.74 3.64699 -3.76955 0
M  V30 64244 H 6000.21 4.87845 -2.58285 0
M  V30 64245 H 6000.69 4.27742 -0.996663 0
M  V30 64246 H 6001.29 3.46902 -2.46047 0
M  V30 64247 N 5999.61 1.15334 1.07405 0
M  V30 64248 C 6000.54 0.807364 2.14509 0
M  V30 64249 C 6001.55 -0.180374 1.61798 0
M  V30 64250 O 6002.74 0.0427958 1.78449 0
M  V30 64251 C 5999.84 0.179457 3.38425 0
M  V30 64252 C 5999.01 1.20448 4.20489 0
M  V30 64253 C 5998.07 0.598452 5.22786 0
M  V30 64254 O 5997.1 1.26425 5.54982 0
M  V30 64255 N 5998.3 -0.62008 5.77179 0
M  V30 64256 H 6001.07 1.72909 2.44791 0
M  V30 64257 H 5998.63 1.04914 1.23307 0
M  V30 64258 H 6000.62 -0.238725 4.03995 0
M  V30 64259 H 5999.19 -0.645598 3.05861 0
M  V30 64260 H 5998.41 1.79924 3.50743 0
M  V30 64261 H 5999.7 1.89658 4.7213 0
M  V30 64262 H 5999.1 -1.17938 5.53269 0
M  V30 64263 H 5997.65 -0.980627 6.44381 0
M  V30 64264 N 6001.09 -1.25745 0.950048 0
M  V30 64265 C 6002.31 -1.9795 0.618917 0
M  V30 64266 C 6002.74 -1.70186 -0.801135 0
M  V30 64267 O 6002.09 -0.955087 -1.54103 0
M  V30 64268 C 6002.14 -3.49741 0.878274 0
M  V30 64269 O 6001.25 -4.12375 -0.0452235 0
M  V30 64270 H 6000.59 -0.620723 0.235794 0
M  V30 64271 H 6003.12 -1.59984 1.2754 0
M  V30 64272 H 6003.13 -4.00026 0.802707 0
M  V30 64273 H 6001.8 -3.69278 1.91328 0
M  V30 64274 H 6000.38 -3.72809 0.0821576 0
M  V30 64275 N 6002.56 -0.718087 -1.4029 0
M  V30 64276 C 6003.47 -0.0682359 -2.34501 0
M  V30 64277 C 6004.49 0.740993 -1.57433 0
M  V30 64278 O 6005.67 0.67337 -1.8981 0
M  V30 64279 C 6002.73 0.840639 -3.36354 0
M  V30 64280 C 6001.79 0.0210778 -4.29295 0
M  V30 64281 C 6001.03 0.886667 -5.26283 0
M  V30 64282 O 6001.25 2.12584 -5.29305 0
M  V30 64283 O 6000.18 0.324326 -6.01026 0
M  V30 64284 H 6004.01 -0.845391 -2.91696 0
M  V30 64285 H 6001.59 -0.47859 -1.41527 0
M  V30 64286 H 6003.48 1.36117 -3.98811 0
M  V30 64287 H 6002.15 1.5969 -2.81569 0
M  V30 64288 H 6001.06 -0.544581 -3.70115 0
M  V30 64289 H 6002.39 -0.697017 -4.8724 0
M  V30 64290 N 6004.04 1.50601 -0.464455 0
M  V30 64291 C 6005.27 2.06701 0.0907038 0
M  V30 64292 C 6005.69 1.32906 1.34095 0
M  V30 64293 O 6005.04 0.396386 1.78143 0
M  V30 64294 C 6005.09 3.59438 0.385541 0
M  V30 64295 O 6004.81 4.3045 -0.815111 0
M  V30 64296 C 6006.32 4.32141 0.988397 0
M  V30 64297 H 6003.54 0.670987 -0.00412427 0
M  V30 64298 H 6006.08 1.9385 -0.651332 0
M  V30 64299 H 6004.23 3.72114 1.0775 0
M  V30 64300 H 6004.65 5.21548 -0.555694 0
M  V30 64301 H 6006.12 5.40005 1.14451 0
M  V30 64302 H 6006.6 3.92201 1.97675 0
M  V30 64303 H 6007.21 4.23978 0.335017 0
M  V30 64304 N 6005.52 0.196805 1.56366 0
M  V30 64305 C 6006.43 -0.735294 2.22779 0
M  V30 64306 C 6007.45 -1.23331 1.22741 0
M  V30 64307 O 6008.62 -1.28012 1.55483 0
M  V30 64308 C 6005.69 -1.93695 2.87546 0
M  V30 64309 C 6004.75 -1.48333 4.02859 0
M  V30 64310 C 6003.98 -2.62772 4.64529 0
M  V30 64311 O 6004.2 -3.80296 4.25125 0
M  V30 64312 O 6003.14 -2.35387 5.53964 0
M  V30 64313 H 6006.96 -0.199682 3.03043 0
M  V30 64314 H 6004.55 -0.0325624 1.49365 0
M  V30 64315 H 6006.43 -2.63923 3.28516 0
M  V30 64316 H 6005.11 -2.46114 2.10261 0
M  V30 64317 H 6004.01 -0.74981 3.66509 0
M  V30 64318 H 6005.35 -1.0058 4.81814 0
M  V30 64319 N 6007 -1.57413 -0.0767852 0
M  V30 64320 C 6008.25 -1.87005 -0.776883 0
M  V30 64321 C 6008.57 -0.787861 -1.77829 0
M  V30 64322 O 6007.83 0.216673 -1.94497 0
M  V30 64323 C 6008.13 -3.23245 -1.5247 0
M  V30 64324 C 6007.79 -4.45988 -0.663743 0
M  V30 64325 C 6006.46 -4.79307 -0.426461 0
M  V30 64326 C 6008.81 -5.21158 -0.0664035 0
M  V30 64327 C 6006.14 -5.85211 0.417724 0
M  V30 64328 C 6008.49 -6.27955 0.765207 0
M  V30 64329 C 6007.15 -6.59778 1.01241 0
M  V30 64330 H 6006.42 -0.684299 -0.284281 0
M  V30 64331 H 6009.07 -1.91463 -0.0378013 0
M  V30 64332 H 6007.37 -3.14555 -2.33585 0
M  V30 64333 H 6009.07 -3.43375 -2.0711 0
M  V30 64334 H 6005.66 -4.19908 -0.858808 0
M  V30 64335 H 6009.84 -4.95735 -0.236848 0
M  V30 64336 H 6005.1 -6.08268 0.618041 0
M  V30 64337 H 6009.27 -6.85365 1.23483 0
M  V30 64338 H 6006.9 -7.41668 1.66832 0
M  V30 64339 N 6008.48 0.348057 -1.53709 0
M  V30 64340 C 6009.41 1.43289 -1.84365 0
M  V30 64341 C 6010.39 1.551 -0.69843 0
M  V30 64342 O 6011.57 1.69381 -0.949924 0
M  V30 64343 C 6008.7 2.804 -2.04922 0
M  V30 64344 C 6007.66 2.834 -3.20731 0
M  V30 64345 C 6006.98 4.23354 -3.26612 0
M  V30 64346 C 6008.28 2.49342 -4.5894 0
M  V30 64347 H 6009.98 1.17882 -2.75216 0
M  V30 64348 H 6007.52 0.565645 -1.32425 0
M  V30 64349 H 6009.48 3.56335 -2.24952 0
M  V30 64350 H 6008.2 3.07232 -1.10797 0
M  V30 64351 H 6006.86 2.09918 -3.00549 0
M  V30 64352 H 6006.51 4.47289 -2.30091 0
M  V30 64353 H 6006.21 4.26273 -4.04432 0
M  V30 64354 H 6007.73 5.01137 -3.48847 0
M  V30 64355 H 6009.14 3.14989 -4.79014 0
M  V30 64356 H 6007.54 2.63551 -5.3913 0
M  V30 64357 H 6008.61 1.44541 -4.62856 0
M  V30 64358 N 6009.95 1.45365 0.608825 0
M  V30 64359 C 6010.88 1.56784 1.73034 0
M  V30 64360 C 6011.87 0.419463 1.64847 0
M  V30 64361 O 6013.05 0.642445 1.83266 0
M  V30 64362 C 6010.18 1.53301 3.11634 0
M  V30 64363 C 6009.13 2.66843 3.34632 0
M  V30 64364 C 6008.46 2.48415 4.73492 0
M  V30 64365 C 6009.76 4.08861 3.25007 0
M  V30 64366 H 6011.45 2.50662 1.63735 0
M  V30 64367 H 6009 1.20637 0.786295 0
M  V30 64368 H 6010.95 1.59887 3.8989 0
M  V30 64369 H 6009.68 0.559527 3.21771 0
M  V30 64370 H 6008.34 2.59684 2.58766 0
M  V30 64371 H 6007.98 1.49208 4.8036 0
M  V30 64372 H 6007.68 3.24555 4.89835 0
M  V30 64373 H 6009.21 2.56852 5.53949 0
M  V30 64374 H 6010.62 4.17271 3.93138 0
M  V30 64375 H 6009.02 4.85382 3.5288 0
M  V30 64376 H 6010.09 4.30856 2.22465 0
M  V30 64377 N 6011.43 -0.851219 1.32635 0
M  V30 64378 C 6012.66 -1.64323 1.26541 0
M  V30 64379 C 6013.08 -1.87392 -0.16302 0
M  V30 64380 O 6012.44 -1.42917 -1.11555 0
M  V30 64381 C 6012.49 -2.97774 2.03379 0
M  V30 64382 O 6011.59 -3.88485 1.38395 0
M  V30 64383 H 6010.93 -0.500848 0.435944 0
M  V30 64384 H 6013.46 -1.05993 1.75004 0
M  V30 64385 H 6013.47 -3.47569 2.13682 0
M  V30 64386 H 6012.15 -2.80305 3.07249 0
M  V30 64387 H 6010.73 -3.46956 1.36661 0
M  V30 64388 N 6012.91 -1.15902 -1.06792 0
M  V30 64389 C 6014.15 -0.948009 -1.81086 0
M  V30 64390 C 6014.51 0.515305 -1.84956 0
M  V30 64391 O 6015.72 0.844838 -2.55178 0
M  V30 64392 C 6013.99 -1.55225 -3.21932 0
M  V30 64393 S 6015.55 -1.48517 -4.12902 0
M  V30 64394 H 6012.36 -0.341047 -0.623865 0
M  V30 64395 H 6014.97 -1.47555 -1.28249 0
M  V30 64396 H 6013.67 -2.61007 -3.16707 0
M  V30 64397 H 6013.2 -1.02382 -3.79844 0
M  V30 64398 H 6015.22 -0.481946 -4.93854 0
M  V30 64399 N 6014.39 1.2524 -0.956703 0
M  V30 64400 C 6015.35 2.24052 -0.483028 0
M  V30 64401 C 6016.35 1.55368 0.414416 0
M  V30 64402 O 6017.54 1.72912 0.211414 0
M  V30 64403 C 6014.67 3.39561 0.301856 0
M  V30 64404 H 6015.87 2.67471 -1.35643 0
M  V30 64405 H 6013.42 1.37662 -0.740186 0
M  V30 64406 H 6014.15 3.01566 1.19284 0
M  V30 64407 H 6013.94 3.90606 -0.342014 0
M  V30 64408 H 6015.43 4.12932 0.622662 0
M  V30 64409 N 6015.87 0.725517 1.39907 0
M  V30 64410 C 6016.78 0.0806711 2.34461 0
M  V30 64411 C 6017.79 -0.732633 1.57824 0
M  V30 64412 O 6018.97 -0.663295 1.90164 0
M  V30 64413 C 6016.03 -0.82279 3.36795 0
M  V30 64414 C 6015.1 0.00168904 4.293 0
M  V30 64415 C 6014.33 -0.858745 5.26746 0
M  V30 64416 O 6014.55 -2.09774 5.30425 0
M  V30 64417 O 6013.49 -0.292448 6.01189 0
M  V30 64418 H 6017.31 0.860848 2.91244 0
M  V30 64419 H 6014.9 0.486089 1.41271 0
M  V30 64420 H 6016.78 -1.34 3.99527 0
M  V30 64421 H 6015.45 -1.58194 2.82411 0
M  V30 64422 H 6014.36 0.564202 3.69821 0
M  V30 64423 H 6015.69 0.722847 4.86863 0
M  V30 64424 N 6017.35 -1.50352 0.472435 0
M  V30 64425 C 6018.57 -2.06746 -0.0797407 0
M  V30 64426 C 6018.99 -1.33615 -1.33389 0
M  V30 64427 O 6018.35 -0.405828 -1.77931 0
M  V30 64428 C 6018.4 -3.59638 -0.366473 0
M  V30 64429 O 6018.12 -4.30012 0.837928 0
M  V30 64430 C 6019.62 -4.32659 -0.965466 0
M  V30 64431 H 6016.84 -0.670956 0.00768263 0
M  V30 64432 H 6019.38 -1.93502 0.661603 0
M  V30 64433 H 6017.54 -3.7268 -1.05775 0
M  V30 64434 H 6017.95 -5.21246 0.583345 0
M  V30 64435 H 6019.43 -5.40604 -1.11585 0
M  V30 64436 H 6019.9 -3.93244 -1.95592 0
M  V30 64437 H 6020.51 -4.2415 -0.312527 0
M  V30 64438 N 6018.82 -0.205094 -1.5626 0
M  V30 64439 C 6020.1 0.479171 -1.8964 0
M  V30 64440 C 6020.48 1.78934 -1.12009 0
M  V30 64441 O 6019.83 2.27397 -0.224259 0
M  V30 64442 C 6020.04 0.688204 -3.42147 0
M  V30 64443 C 6021.39 1.00307 -4.12582 0
M  V30 64444 O 6022.41 0.775575 -3.47654 0
M  V30 64445 O 6021.27 1.43394 -5.27352 0
M  V30 64446 H 6018.36 0.251097 -0.787959 0
M  V30 64447 H 6020.91 -0.246053 -1.67907 0
M  V30 64448 H 6019.68 -0.236616 -3.90584 0
M  V30 64449 H 6019.3 1.46552 -3.69605 0
M  V30 64450 N 6020.3 1.57451 0.0684361 0
M  V30 64451 C 6021.21 2.07278 1.09878 0
M  V30 64452 C 6022.23 1.003 1.42183 0
M  V30 64453 O 6023.4 1.31792 1.52292 0
M  V30 64454 C 6020.47 2.50957 2.3921 0
M  V30 64455 C 6019.53 3.72248 2.13846 0
M  V30 64456 C 6018.76 4.13835 3.37011 0
M  V30 64457 O 6018.99 3.55264 4.46255 0
M  V30 64458 O 6017.92 5.06598 3.25026 0
M  V30 64459 H 6021.75 2.95392 0.705483 0
M  V30 64460 H 6019.33 1.46699 0.282797 0
M  V30 64461 H 6021.21 2.79558 3.15317 0
M  V30 64462 H 6019.89 1.6597 2.77913 0
M  V30 64463 H 6018.79 3.48724 1.35433 0
M  V30 64464 H 6020.13 4.58097 1.80022 0
M  V30 64465 N 6021.78 -0.339901 1.53891 0
M  V30 64466 C 6022.73 -1.43781 1.82838 0
M  V30 64467 C 6023.72 -1.54301 0.699112 0
M  V30 64468 O 6024.93 -1.56881 0.88251 0
M  V30 64469 H 6021.3 -0.479477 0.579315 0
M  V30 64470 H 6023.27 -1.16582 2.74684 0
M  V30 64471 C 6022.02 -2.8025 2.05804 0
M  V30 64472 H 6021.35 -2.72923 2.92153 0
M  V30 64473 H 6022.79 -3.56183 2.30022 0
M  V30 64474 C 6021.24 -3.2614 0.844647 0
M  V30 64475 O 6021.77 -4.01674 0.0458534 0
M  V30 64476 N 6019.98 -2.82986 0.660848 0
M  V30 64477 H 6019.53 -2.21682 1.31205 0
M  V30 64478 H 6019.49 -3.14044 -0.149551 0
M  V30 64479 N 6023.26 -1.45686 -0.601108 0
M  V30 64480 C 6024.17 -1.57402 -1.73959 0
M  V30 64481 C 6025.18 -0.458192 -1.67859 0
M  V30 64482 O 6026.36 -0.719783 -1.88099 0
M  V30 64483 C 6023.42 -1.54374 -3.10435 0
M  V30 64484 C 6022.49 -2.77045 -3.27939 0
M  V30 64485 C 6021.72 -2.74152 -4.57904 0
M  V30 64486 O 6021.94 -1.81848 -5.40636 0
M  V30 64487 O 6020.88 -3.65445 -4.78261 0
M  V30 64488 H 6024.7 -2.53646 -1.67025 0
M  V30 64489 H 6022.29 -1.2827 -0.765972 0
M  V30 64490 H 6024.17 -1.55316 -3.91733 0
M  V30 64491 H 6022.84 -0.612835 -3.17846 0
M  V30 64492 H 6021.75 -2.81663 -2.46204 0
M  V30 64493 H 6023.08 -3.69283 -3.25409 0
M  V30 64494 N 6024.74 0.844173 -1.33084 0
M  V30 64495 C 6025.96 1.63128 -1.27267 0
M  V30 64496 C 6026.38 1.88143 0.157413 0
M  V30 64497 O 6025.74 1.45784 1.09788 0
M  V30 64498 C 6025.79 2.98455 -2.03977 0
M  V30 64499 O 6025.51 2.74543 -3.41406 0
M  V30 64500 C 6027.01 3.92892 -2.05307 0
M  V30 64501 H 6024.23 0.507754 -0.438665 0
M  V30 64502 H 6026.77 1.05188 -1.75373 0
M  V30 64503 H 6024.93 3.53012 -1.59566 0
M  V30 64504 H 6025.34 3.60681 -3.80802 0
M  V30 64505 H 6026.82 4.85078 -2.63444 0
M  V30 64506 H 6027.29 4.26661 -1.04198 0
M  V30 64507 H 6027.9 3.44273 -2.49713 0
M  V30 64508 N 6026.21 1.16466 1.06176 0
M  V30 64509 C 6027.14 0.895475 2.15647 0
M  V30 64510 C 6028.12 -0.15867 1.69358 0
M  V30 64511 O 6029.31 -0.0105177 1.94197 0
M  V30 64512 C 6026.44 0.39708 3.45023 0
M  V30 64513 C 6025.39 1.38927 4.04825 0
M  V30 64514 C 6024.72 0.749229 5.29425 0
M  V30 64515 C 6026.02 2.75925 4.43466 0
M  V30 64516 H 6027.71 1.81094 2.38423 0
M  V30 64517 H 6025.26 0.872138 1.14585 0
M  V30 64518 H 6027.21 0.196234 4.20943 0
M  V30 64519 H 6025.94 -0.553888 3.21869 0
M  V30 64520 H 6024.6 1.57668 3.30963 0
M  V30 64521 H 6024.24 -0.208263 5.02569 0
M  V30 64522 H 6023.94 1.41148 5.70395 0
M  V30 64523 H 6025.47 0.558431 6.08041 0
M  V30 64524 H 6026.88 2.6096 5.10463 0
M  V30 64525 H 6025.28 3.38636 4.95425 0
M  V30 64526 H 6026.35 3.31088 3.54272 0
M  V30 64527 N 6027.69 -1.2473 0.963332 0
M  V30 64528 C 6028.97 -1.88002 0.539876 0
M  V30 64529 C 6029.35 -1.86818 -0.98297 0
M  V30 64530 O 6028.7 -1.33776 -1.85247 0
M  V30 64531 C 6028.91 -3.30322 1.12642 0
M  V30 64532 C 6030.25 -4.07035 1.20862 0
M  V30 64533 O 6031.28 -3.39477 1.07861 0
M  V30 64534 O 6030.14 -5.27901 1.41361 0
M  V30 64535 H 6027.23 -0.807312 0.179378 0
M  V30 64536 H 6029.78 -1.32736 1.05732 0
M  V30 64537 H 6028.55 -3.2566 2.16936 0
M  V30 64538 H 6028.17 -3.93157 0.592752 0
M  V30 64539 N 6029.17 -0.732927 -1.3952 0
M  V30 64540 C 6030.4 -0.289721 -2.04558 0
M  V30 64541 C 6030.81 1.07968 -1.55369 0
M  V30 64542 O 6030.15 1.69307 -0.712811 0
M  V30 64543 C 6030.21 -0.210894 -3.58881 0
M  V30 64544 C 6029.88 -1.51842 -4.31037 0
M  V30 64545 C 6030.87 -2.46372 -4.57817 0
M  V30 64546 C 6028.56 -1.78214 -4.69622 0
M  V30 64547 C 6030.55 -3.6551 -5.22189 0
M  V30 64548 C 6028.24 -2.9763 -5.33723 0
M  V30 64549 C 6029.24 -3.91099 -5.59938 0
M  V30 64550 O 6028.93 -5.08417 -6.2271 0
M  V30 64551 H 6028.66 -0.124811 -0.664378 0
M  V30 64552 H 6031.21 -0.996789 -1.79592 0
M  V30 64553 H 6029.44 0.552259 -3.82736 0
M  V30 64554 H 6031.13 0.200041 -4.05407 0
M  V30 64555 H 6031.9 -2.27267 -4.28456 0
M  V30 64556 H 6027.78 -1.06308 -4.48575 0
M  V30 64557 H 6031.32 -4.38481 -5.42568 0
M  V30 64558 H 6027.22 -3.16636 -5.62505 0
M  V30 64559 H 6027.98 -5.08724 -6.41204 0
M  V30 64560 N 6030.65 1.501 -0.480402 0
M  V30 64561 C 6031.56 2.32489 0.313998 0
M  V30 64562 C 6032.57 1.43289 0.987136 0
M  V30 64563 O 6033.75 1.76333 0.973061 0
M  V30 64564 C 6030.82 3.18208 1.3764 0
M  V30 64565 C 6029.88 4.23238 0.718881 0
M  V30 64566 C 6029.11 5.0486 1.73066 0
M  V30 64567 O 6029.33 4.87692 2.95826 0
M  V30 64568 O 6028.27 5.87752 1.29735 0
M  V30 64569 H 6032.09 3.01561 -0.359806 0
M  V30 64570 H 6029.68 1.47426 -0.242081 0
M  V30 64571 H 6031.56 3.71369 1.99157 0
M  V30 64572 H 6030.23 2.51853 2.03351 0
M  V30 64573 H 6029.14 3.74044 0.0645177 0
M  V30 64574 H 6030.47 4.92089 0.10457 0
M  V30 64575 N 6032.13 0.213378 1.56149 0
M  V30 64576 C 6033.04 -0.711624 2.23547 0
M  V30 64577 C 6034.05 -1.22023 1.24042 0
M  V30 64578 O 6035.23 -1.26355 1.56832 0
M  V30 64579 C 6032.29 -1.90635 2.89585 0
M  V30 64580 C 6031.35 -1.44052 4.0441 0
M  V30 64581 C 6030.59 -2.5783 4.67289 0
M  V30 64582 O 6030.81 -3.75766 4.29134 0
M  V30 64583 O 6029.74 -2.29498 5.5643 0
M  V30 64584 H 6033.57 -0.167529 3.03238 0
M  V30 64585 H 6031.16 -0.0167185 1.49391 0
M  V30 64586 H 6033.04 -2.60423 3.31297 0
M  V30 64587 H 6031.71 -2.4387 2.1286 0
M  V30 64588 H 6030.62 -0.710895 3.67283 0
M  V30 64589 H 6031.95 -0.954639 4.82853 0
M  V30 64590 N 6033.6 -1.57485 -0.0600851 0
M  V30 64591 C 6034.85 -1.87818 -0.757004 0
M  V30 64592 C 6035.18 -0.806678 -1.76983 0
M  V30 64593 O 6034.43 0.196032 -1.94716 0
M  V30 64594 C 6034.73 -3.24844 -1.49033 0
M  V30 64595 C 6034.4 -4.46667 -0.616402 0
M  V30 64596 C 6033.06 -4.79732 -0.3756 0
M  V30 64597 C 6035.41 -5.21199 -0.011124 0
M  V30 64598 C 6032.74 -5.84735 0.47977 0
M  V30 64599 C 6035.09 -6.27108 0.831767 0
M  V30 64600 C 6033.76 -6.58667 1.08233 0
M  V30 64601 H 6033.03 -0.687276 -0.277008 0
M  V30 64602 H 6035.67 -1.91492 -0.017492 0
M  V30 64603 H 6033.98 -3.17015 -2.30236 0
M  V30 64604 H 6035.68 -3.45552 -2.03457 0
M  V30 64605 H 6032.27 -4.20795 -0.814223 0
M  V30 64606 H 6036.45 -4.95958 -0.184255 0
M  V30 64607 H 6031.71 -6.07578 0.682521 0
M  V30 64608 H 6035.88 -6.84016 1.30746 0
M  V30 64609 H 6033.51 -7.39857 1.74689 0
M  V30 64610 N 6035.08 0.331735 -1.54069 0
M  V30 64611 C 6036.33 1.07222 -1.72137 0
M  V30 64612 C 6036.66 1.87934 -0.489331 0
M  V30 64613 O 6035.94 1.87594 0.513695 0
M  V30 64614 C 6036.22 2.00369 -2.99206 0
M  V30 64615 C 6036.07 1.23041 -4.32644 0
M  V30 64616 C 6037.39 3.00014 -3.21993 0
M  V30 64617 H 6034.51 0.388406 -0.626346 0
M  V30 64618 H 6037.15 0.349644 -1.86755 0
M  V30 64619 H 6035.3 2.61983 -2.86875 0
M  V30 64620 H 6036.97 0.6395 -4.56846 0
M  V30 64621 H 6035.22 0.532565 -4.30519 0
M  V30 64622 H 6035.89 1.91393 -5.17758 0
M  V30 64623 H 6038.36 2.48519 -3.33733 0
M  V30 64624 H 6037.24 3.62381 -4.12276 0
M  V30 64625 H 6037.5 3.72033 -2.38839 0
M  V30 64626 N 6036.56 1.46003 0.593373 0
M  V30 64627 C 6037.51 1.55758 1.70318 0
M  V30 64628 C 6038.48 0.402523 1.61149 0
M  V30 64629 O 6039.66 0.617867 1.80519 0
M  V30 64630 C 6036.8 1.54373 3.08647 0
M  V30 64631 C 6035.92 2.80534 3.28519 0
M  V30 64632 C 6035.05 2.70725 4.57036 0
M  V30 64633 C 6034.09 3.91874 4.70214 0
M  V30 64634 N 6033.23 3.80514 5.90045 0
M  V30 64635 H 6038.07 2.50561 1.61317 0
M  V30 64636 H 6035.6 1.24316 0.786381 0
M  V30 64637 H 6037.56 1.51556 3.88699 0
M  V30 64638 H 6036.19 0.631097 3.16571 0
M  V30 64639 H 6035.24 2.93377 2.42145 0
M  V30 64640 H 6036.56 3.70352 3.34127 0
M  V30 64641 H 6035.71 2.65954 5.45301 0
M  V30 64642 H 6034.45 1.78529 4.53849 0
M  V30 64643 H 6033.45 3.96988 3.80369 0
M  V30 64644 H 6034.68 4.85153 4.75188 0
M  V30 64645 H 6032.62 2.91097 5.87876 0
M  V30 64646 H 6032.54 4.63979 5.96875 0
M  V30 64647 H 6033.81 3.797 6.8077 0
M  V30 64648 N 6038.04 -0.837103 1.3353 0
M  V30 64649 C 6039.45 -1.12805 1.12903 0
M  V30 64650 C 6039.65 -2.01345 -0.0789054 0
M  V30 64651 O 6038.71 -2.40834 -0.758647 0
M  V30 64652 C 6040.02 -1.78844 2.41734 0
M  V30 64653 C 6041.57 -1.91402 2.47658 0
M  V30 64654 C 6042.05 -2.60857 3.76454 0
M  V30 64655 N 6043.54 -2.68368 3.77535 0
M  V30 64656 C 6044.27 -3.22802 4.73905 0
M  V30 64657 N 6043.77 -3.77911 5.80651 0
M  V30 64658 N 6045.56 -3.21071 4.61378 0
M  V30 64659 H 6037.71 -0.247868 2.10949 0
M  V30 64660 H 6039.98 -0.172485 0.932176 0
M  V30 64661 H 6039.68 -1.21246 3.3014 0
M  V30 64662 H 6039.56 -2.78847 2.54016 0
M  V30 64663 H 6041.94 -2.48153 1.597 0
M  V30 64664 H 6042.02 -0.903428 2.39315 0
M  V30 64665 H 6041.67 -2.04764 4.64795 0
M  V30 64666 H 6041.6 -3.62391 3.82074 0
M  V30 64667 H 6044.09 -2.29291 3.0039 0
M  V30 64668 H 6044.4 -4.17656 6.50218 0
M  V30 64669 H 6042.75 -3.76194 5.84383 0
M  V30 64670 H 6045.94 -2.77276 3.77141 0
M  V30 64671 H 6046.11 -3.63191 5.36653 0
M  V30 64672 N 6039.52 -1.17028 -1.05557 0
M  V30 64673 C 6040.76 -0.956388 -1.78492 0
M  V30 64674 C 6041.09 0.515254 -1.87551 0
M  V30 64675 O 6040.35 1.39856 -1.3689 0
M  V30 64676 C 6040.65 -1.53809 -3.2261 0
M  V30 64677 C 6040.31 -3.03332 -3.33617 0
M  V30 64678 C 6038.97 -3.44147 -3.36328 0
M  V30 64679 C 6041.33 -3.99337 -3.34932 0
M  V30 64680 C 6038.65 -4.7957 -3.37979 0
M  V30 64681 C 6041.01 -5.34656 -3.38121 0
M  V30 64682 C 6039.67 -5.7494 -3.39117 0
M  V30 64683 H 6038.94 -0.349967 -0.653149 0
M  V30 64684 H 6041.59 -1.4586 -1.24085 0
M  V30 64685 H 6039.89 -0.957508 -3.7992 0
M  V30 64686 H 6041.59 -1.34819 -3.77657 0
M  V30 64687 H 6038.18 -2.70794 -3.32218 0
M  V30 64688 H 6042.36 -3.68866 -3.32042 0
M  V30 64689 H 6037.62 -5.101 -3.37058 0
M  V30 64690 H 6041.79 -6.08827 -3.38086 0
M  V30 64691 H 6039.42 -6.79855 -3.40149 0
M  V30 64692 N 6040.99 1.24218 -0.969933 0
M  V30 64693 C 6041.94 2.23041 -0.472933 0
M  V30 64694 C 6042.93 1.54587 0.446289 0
M  V30 64695 O 6044.12 1.74821 0.276848 0
M  V30 64696 C 6041.25 3.42505 0.233457 0
M  V30 64697 C 6040.34 4.18204 -0.704724 0
M  V30 64698 N 6040.73 4.71031 -1.84292 0
M  V30 64699 C 6039.02 4.43006 -0.515951 0
M  V30 64700 C 6039.73 5.28516 -2.42993 0
M  V30 64701 N 6038.7 5.15843 -1.71485 0
M  V30 64702 H 6042.5 2.61505 -1.34136 0
M  V30 64703 H 6040.02 1.39629 -0.8293 0
M  V30 64704 H 6042.01 4.12461 0.606746 0
M  V30 64705 H 6040.67 3.05561 1.0983 0
M  V30 64706 H 6041.69 4.67697 -2.2244 0
M  V30 64707 H 6038.36 4.16386 0.304739 0
M  V30 64708 H 6039.75 5.80079 -3.39055 0
M  V30 64709 N 6042.47 0.740315 1.3913 0
M  V30 64710 C 6043.38 0.105534 2.34363 0
M  V30 64711 C 6044.4 -0.715853 1.58592 0
M  V30 64712 O 6045.57 -0.643088 1.90857 0
M  V30 64713 C 6042.64 -0.787022 3.37649 0
M  V30 64714 C 6041.7 0.0472219 4.29274 0
M  V30 64715 C 6040.93 -0.802828 5.27627 0
M  V30 64716 O 6041.16 -2.04137 5.3262 0
M  V30 64717 O 6040.09 -0.228667 6.01465 0
M  V30 64718 H 6043.92 0.89169 2.90315 0
M  V30 64719 H 6041.5 0.501046 1.40748 0
M  V30 64720 H 6043.38 -1.29755 4.00926 0
M  V30 64721 H 6042.06 -1.5519 2.84073 0
M  V30 64722 H 6040.97 0.603395 3.69202 0
M  V30 64723 H 6042.3 0.774444 4.86069 0
M  V30 64724 N 6043.95 -1.49843 0.488355 0
M  V30 64725 C 6045.36 -1.86662 0.0374426 0
M  V30 64726 C 6045.71 -1.40177 -1.37276 0
M  V30 64727 O 6044.84 -0.774162 -2.02078 0
M  V30 64728 C 6045.43 -3.38745 0.0611714 0
M  V30 64729 C 6043.99 -3.74912 -0.334343 0
M  V30 64730 C 6043.14 -2.738 0.439206 0
M  V30 64731 H 6046.09 -1.4234 0.70178 0
M  V30 64732 H 6046.11 -3.73293 -0.737071 0
M  V30 64733 H 6045.62 -3.72547 1.08766 0
M  V30 64734 H 6043.72 -3.46715 -1.36454 0
M  V30 64735 H 6043.84 -4.79094 -0.0236852 0
M  V30 64736 H 6042.2 -2.54465 -0.109344 0
M  V30 64737 H 6042.98 -3.10447 1.46553 0
M  V30 64738 N 6045.43 -0.221656 -1.56033 0
M  V30 64739 C 6046.39 0.674896 -2.19038 0
M  V30 64740 C 6047.39 1.12156 -1.15229 0
M  V30 64741 O 6048.58 1.03035 -1.40461 0
M  V30 64742 C 6045.71 1.92455 -2.81379 0
M  V30 64743 H 6046.91 0.125583 -2.99637 0
M  V30 64744 H 6044.46 0.0279565 -1.56275 0
M  V30 64745 H 6045.2 2.51573 -2.0465 0
M  V30 64746 H 6044.98 1.61273 -3.57398 0
M  V30 64747 H 6046.47 2.5633 -3.29673 0
M  V30 64748 N 6046.91 1.57515 0.0517324 0
M  V30 64749 C 6047.85 2.05055 1.05929 0
M  V30 64750 C 6048.82 0.93508 1.37279 0
M  V30 64751 O 6050.01 1.20413 1.48004 0
M  V30 64752 C 6047.15 2.51603 2.36199 0
M  V30 64753 C 6046.26 3.7685 2.11206 0
M  V30 64754 C 6045.4 4.12099 3.35183 0
M  V30 64755 C 6044.44 5.30329 3.05643 0
M  V30 64756 N 6043.57 5.61119 4.22007 0
M  V30 64757 H 6048.41 2.90893 0.646924 0
M  V30 64758 H 6045.95 1.43843 0.30784 0
M  V30 64759 H 6047.91 2.76649 3.12284 0
M  V30 64760 H 6046.54 1.68714 2.75201 0
M  V30 64761 H 6045.59 3.59024 1.25721 0
M  V30 64762 H 6046.9 4.63064 1.854 0
M  V30 64763 H 6046.06 4.38154 4.1965 0
M  V30 64764 H 6044.8 3.24492 3.64083 0
M  V30 64765 H 6043.8 5.04051 2.19574 0
M  V30 64766 H 6045.03 6.19571 2.78045 0
M  V30 64767 H 6042.97 4.76472 4.509 0
M  V30 64768 H 6042.89 6.41794 3.99545 0
M  V30 64769 H 6044.16 5.91737 5.07413 0
M  V30 64770 N 6048.39 -0.32356 1.54243 0
M  V30 64771 C 6049.66 -1.07973 1.63098 0
M  V30 64772 C 6050.04 -2.05918 0.464847 0
M  V30 64773 O 6049.39 -2.22006 -0.540883 0
M  V30 64774 C 6049.6 -1.78167 3.00096 0
M  V30 64775 C 6050.95 -2.31188 3.56142 0
M  V30 64776 O 6051.97 -1.88234 3.02401 0
M  V30 64777 O 6050.83 -3.09827 4.50188 0
M  V30 64778 H 6047.93 -0.497703 0.66047 0
M  V30 64779 H 6050.47 -0.323451 1.66589 0
M  V30 64780 H 6049.24 -1.06925 3.76408 0
M  V30 64781 H 6048.87 -2.60606 3.00284 0
M  V30 64782 N 6049.86 -1.46316 -0.585622 0
M  V30 64783 C 6051.11 -1.50742 -1.34014 0
M  V30 64784 C 6051.43 -0.162314 -1.94925 0
M  V30 64785 O 6052.63 -0.084363 -2.71369 0
M  V30 64786 C 6051.09 -2.656 -2.42867 0
M  V30 64787 C 6050.7 -4.06519 -1.88271 0
M  V30 64788 C 6052.44 -2.79295 -3.19679 0
M  V30 64789 C 6050.35 -5.12723 -2.94736 0
M  V30 64790 H 6049.28 -0.560997 -0.503784 0
M  V30 64791 H 6051.93 -1.72518 -0.625283 0
M  V30 64792 H 6050.31 -2.37149 -3.17138 0
M  V30 64793 H 6051.48 -4.44749 -1.20563 0
M  V30 64794 H 6049.8 -3.97466 -1.24136 0
M  V30 64795 H 6052.4 -3.55809 -3.99129 0
M  V30 64796 H 6052.74 -1.86707 -3.72083 0
M  V30 64797 H 6053.27 -3.07379 -2.52514 0
M  V30 64798 H 6050.01 -6.07092 -2.47223 0
M  V30 64799 H 6049.53 -4.79041 -3.60943 0
M  V30 64800 H 6051.21 -5.38439 -3.58738 0
M  V30 64801 N 6051.34 0.83001 -1.33972 0
M  V30 64802 C 6052.59 1.58268 -1.25681 0
M  V30 64803 C 6052.91 1.94213 0.175002 0
M  V30 64804 O 6052.18 1.61698 1.10592 0
M  V30 64805 H 6050.76 0.586842 -0.462197 0
M  V30 64806 H 6053.42 0.991436 -1.67799 0
M  V30 64807 H 6052.52 2.50867 -1.85667 0
M  V30 64808 N 6052.82 1.17586 1.04935 0
M  V30 64809 C 6054.07 0.96584 1.77983 0
M  V30 64810 C 6054.39 -0.5053 1.87822 0
M  V30 64811 O 6053.65 -1.39128 1.3763 0
M  V30 64812 C 6053.95 1.55518 3.2179 0
M  V30 64813 C 6053.61 3.05097 3.32004 0
M  V30 64814 C 6052.28 3.45925 3.34498 0
M  V30 64815 C 6054.63 4.01108 3.32809 0
M  V30 64816 C 6051.96 4.81356 3.35431 0
M  V30 64817 C 6054.31 5.36442 3.35281 0
M  V30 64818 C 6052.97 5.7673 3.36064 0
M  V30 64819 H 6052.24 0.353426 0.651284 0
M  V30 64820 H 6054.89 1.46516 1.2331 0
M  V30 64821 H 6053.19 0.977642 3.79407 0
M  V30 64822 H 6054.89 1.3682 3.76937 0
M  V30 64823 H 6051.48 2.72552 3.30777 0
M  V30 64824 H 6055.67 3.70621 3.30081 0
M  V30 64825 H 6050.92 5.1188 3.34348 0
M  V30 64826 H 6055.1 6.10612 3.34853 0
M  V30 64827 H 6052.72 6.81649 3.36539 0
M  V30 64828 N 6054.3 -1.23702 0.976507 0
M  V30 64829 C 6055.25 -2.27032 0.505893 0
M  V30 64830 C 6056.24 -1.63717 -0.43509 0
M  V30 64831 O 6057.45 -1.77321 -0.309411 0
M  V30 64832 H 6053.82 -0.737857 0.145157 0
M  V30 64833 H 6055.79 -2.64092 1.38918 0
M  V30 64834 C 6054.54 -3.47234 -0.179865 0
M  V30 64835 H 6053.86 -3.96203 0.535108 0
M  V30 64836 H 6055.3 -4.21355 -0.472847 0
M  V30 64837 C 6053.76 -3.05984 -1.4098 0
M  V30 64838 O 6054.29 -3.13923 -2.5063 0
M  V30 64839 N 6052.5 -2.60938 -1.27904 0
M  V30 64840 H 6052.05 -2.54678 -0.386871 0
M  V30 64841 H 6052 -2.33705 -2.10308 0
M  V30 64842 N 6055.78 -0.747683 -1.38735 0
M  V30 64843 C 6057.02 -0.301663 -2.00544 0
M  V30 64844 C 6057.35 1.11203 -1.59209 0
M  V30 64845 O 6056.63 1.76049 -0.826867 0
M  V30 64846 C 6056.91 -0.417864 -3.57667 0
M  V30 64847 C 6056.77 -1.87224 -4.08983 0
M  V30 64848 C 6058.08 0.192248 -4.3968 0
M  V30 64849 H 6055.2 -0.111086 -0.72858 0
M  V30 64850 H 6057.85 -0.94622 -1.64762 0
M  V30 64851 H 6056 0.130887 -3.88279 0
M  V30 64852 H 6057.67 -2.47884 -3.89039 0
M  V30 64853 H 6055.91 -2.3893 -3.6207 0
M  V30 64854 H 6056.58 -1.90473 -5.18096 0
M  V30 64855 H 6059.06 -0.275686 -4.15186 0
M  V30 64856 H 6057.93 0.0806676 -5.48841 0
M  V30 64857 H 6058.19 1.27985 -4.23169 0
M  V30 64858 N 6057.25 1.49582 -0.496295 0
M  V30 64859 C 6058.22 2.27562 0.273562 0
M  V30 64860 C 6059.22 1.33379 0.898153 0
M  V30 64861 O 6060.41 1.56581 0.763415 0
M  V30 64862 C 6057.54 3.11183 1.39205 0
M  V30 64863 H 6058.73 2.97075 -0.410647 0
M  V30 64864 H 6056.28 1.5427 -0.251112 0
M  V30 64865 H 6057.02 2.46224 2.11055 0
M  V30 64866 H 6056.8 3.80425 0.949696 0
M  V30 64867 H 6058.29 3.70092 1.93446 0
M  V30 64868 N 6058.73 0.229928 1.55914 0
M  V30 64869 C 6059.98 -0.400087 1.98814 0
M  V30 64870 C 6060.31 -1.58817 1.11762 0
M  V30 64871 O 6059.59 -1.93691 0.177162 0
M  V30 64872 C 6059.87 -0.8265 3.50487 0
M  V30 64873 C 6059.72 0.365804 4.4831 0
M  V30 64874 C 6061.04 -1.67966 4.06787 0
M  V30 64875 H 6058.16 -0.143951 0.722805 0
M  V30 64876 H 6060.8 0.327841 1.8715 0
M  V30 64877 H 6058.95 -1.44674 3.60557 0
M  V30 64878 H 6060.62 1.00406 4.5024 0
M  V30 64879 H 6058.87 1.01183 4.21835 0
M  V30 64880 H 6059.54 0.0243757 5.51995 0
M  V30 64881 H 6062.01 -1.15625 3.99713 0
M  V30 64882 H 6060.89 -1.9469 5.13212 0
M  V30 64883 H 6061.15 -2.64582 3.54188 0
M  V30 64884 N 6060.21 -1.5754 -0.0433783 0
M  V30 64885 C 6061.14 -2.08652 -1.04817 0
M  V30 64886 C 6062.12 -0.985942 -1.38612 0
M  V30 64887 O 6063.31 -1.26036 -1.47745 0
M  V30 64888 C 6060.44 -2.55407 -2.35339 0
M  V30 64889 C 6059.39 -3.696 -2.15824 0
M  V30 64890 C 6058.72 -4.02509 -3.51981 0
M  V30 64891 C 6060.02 -4.9858 -1.55611 0
M  V30 64892 H 6061.71 -2.92852 -0.622746 0
M  V30 64893 H 6059.26 -1.4088 -0.298109 0
M  V30 64894 H 6061.21 -2.89782 -3.05948 0
M  V30 64895 H 6059.93 -1.68272 -2.79914 0
M  V30 64896 H 6058.59 -3.35551 -1.47651 0
M  V30 64897 H 6058.24 -3.12462 -3.94178 0
M  V30 64898 H 6057.94 -4.79418 -3.39754 0
M  V30 64899 H 6059.46 -4.39406 -4.23975 0
M  V30 64900 H 6060.88 -5.31004 -2.1612 0
M  V30 64901 H 6059.28 -5.80003 -1.54 0
M  V30 64902 H 6060.35 -4.82099 -0.520398 0
M  V30 64903 N 6061.69 0.315375 -1.54412 0
M  V30 64904 C 6062.62 1.39346 -1.87363 0
M  V30 64905 C 6063.6 1.53583 -0.731172 0
M  V30 64906 O 6064.78 1.67328 -0.985639 0
M  V30 64907 C 6061.91 2.75991 -2.10823 0
M  V30 64908 C 6060.87 2.76533 -3.2667 0
M  V30 64909 C 6060.19 4.16331 -3.35519 0
M  V30 64910 C 6061.49 2.39551 -4.64126 0
M  V30 64911 H 6063.19 1.12018 -2.77655 0
M  V30 64912 H 6060.73 0.537429 -1.33595 0
M  V30 64913 H 6062.69 3.51483 -2.3246 0
M  V30 64914 H 6061.41 3.04813 -1.17289 0
M  V30 64915 H 6060.07 2.03496 -3.04934 0
M  V30 64916 H 6059.72 4.42307 -2.39527 0
M  V30 64917 H 6059.42 4.17599 -4.13383 0
M  V30 64918 H 6060.94 4.93624 -3.59399 0
M  V30 64919 H 6062.36 3.04758 -4.85588 0
M  V30 64920 H 6060.75 2.52056 -5.44599 0
M  V30 64921 H 6061.82 1.3469 -4.65818 0
M  V30 64922 N 6063.17 1.46624 0.577854 0
M  V30 64923 C 6064.39 1.55765 1.3618 0
M  V30 64924 C 6064.81 0.200469 1.87733 0
M  V30 64925 O 6064.17 -0.803033 1.63883 0
M  V30 64926 C 6064.22 2.56635 2.54599 0
M  V30 64927 O 6063.94 3.87082 2.05181 0
M  V30 64928 C 6065.44 2.75763 3.47088 0
M  V30 64929 H 6062.66 0.526604 0.415848 0
M  V30 64930 H 6065.2 1.92073 0.702023 0
M  V30 64931 H 6063.36 2.23318 3.16556 0
M  V30 64932 H 6063.77 4.42025 2.82337 0
M  V30 64933 H 6065.25 3.50252 4.26647 0
M  V30 64934 H 6065.72 1.82843 3.99331 0
M  V30 64935 H 6066.33 3.10195 2.90962 0
M  V30 64936 N 6064.64 -0.822893 1.34411 0
M  V30 64937 C 6065.59 -1.9552 1.25995 0
M  V30 64938 C 6066.59 -1.68661 0.158053 0
M  V30 64939 O 6067.79 -1.77078 0.323028 0
M  V30 64940 H 6064.17 -0.642104 0.391417 0
M  V30 64941 H 6066.14 -1.9974 2.2169 0
M  V30 64942 C 6064.89 -3.32022 1.0323 0
M  V30 64943 H 6064.21 -3.53238 1.87252 0
M  V30 64944 H 6065.65 -4.11702 1.01378 0
M  V30 64945 C 6064.11 -3.35861 -0.264405 0
M  V30 64946 O 6064.64 -3.81237 -1.26576 0
M  V30 64947 N 6062.85 -2.89073 -0.297524 0
M  V30 64948 H 6062.39 -2.5234 0.517925 0
M  V30 64949 H 6062.35 -2.92023 -1.1649 0
M  V30 64950 N 6066.12 -1.18141 -1.0431 0
M  V30 64951 C 6067.05 -0.929669 -2.14195 0
M  V30 64952 C 6068.03 0.131706 -1.69589 0
M  V30 64953 O 6069.22 -0.0203787 -1.94189 0
M  V30 64954 C 6066.35 -0.45192 -3.44347 0
M  V30 64955 C 6065.3 -1.4535 -4.02564 0
M  V30 64956 C 6064.63 -0.833361 -5.28166 0
M  V30 64957 C 6065.93 -2.82946 -4.39021 0
M  V30 64958 H 6067.62 -1.84864 -2.35512 0
M  V30 64959 H 6065.17 -0.890257 -1.13183 0
M  V30 64960 H 6067.12 -0.263178 -4.20577 0
M  V30 64961 H 6065.85 0.502612 -3.22709 0
M  V30 64962 H 6064.5 -1.62914 -3.28412 0
M  V30 64963 H 6064.15 0.128282 -5.02836 0
M  V30 64964 H 6063.85 -1.50205 -5.68078 0
M  V30 64965 H 6065.38 -0.655094 -6.07076 0
M  V30 64966 H 6066.79 -2.69048 -5.06247 0
M  V30 64967 H 6065.19 -3.46475 -4.89975 0
M  V30 64968 H 6066.26 -3.36682 -3.4896 0
M  V30 64969 N 6067.6 1.23182 -0.983053 0
M  V30 64970 C 6068.83 1.96239 -0.671183 0
M  V30 64971 C 6069.25 1.72251 0.755731 0
M  V30 64972 O 6068.61 0.995608 1.51517 0
M  V30 64973 C 6068.66 3.47289 -0.970693 0
M  V30 64974 O 6067.76 4.1235 -0.0641264 0
M  V30 64975 H 6067.1 0.614253 -0.252169 0
M  V30 64976 H 6069.63 1.56546 -1.31737 0
M  V30 64977 H 6069.64 3.97757 -0.908485 0
M  V30 64978 H 6068.32 3.64076 -2.01052 0
M  V30 64979 H 6066.89 3.72461 -0.180973 0
M  V30 64980 N 6069.08 0.75503 1.38337 0
M  V30 64981 C 6069.99 0.130386 2.34237 0
M  V30 64982 C 6071 -0.698992 1.59343 0
M  V30 64983 O 6072.18 -0.622809 1.91528 0
M  V30 64984 C 6069.25 -0.751166 3.38465 0
M  V30 64985 C 6068.31 0.0927495 4.292 0
M  V30 64986 C 6067.54 -0.746821 5.28449 0
M  V30 64987 O 6067.76 -1.98476 5.34756 0
M  V30 64988 O 6066.7 -0.164861 6.01674 0
M  V30 64989 H 6070.52 0.922432 2.89353 0
M  V30 64990 H 6068.11 0.515946 1.40208 0
M  V30 64991 H 6069.99 -1.25495 4.0228 0
M  V30 64992 H 6068.66 -1.52168 2.85703 0
M  V30 64993 H 6067.57 0.642519 3.68541 0
M  V30 64994 H 6068.9 0.825955 4.8522 0
M  V30 64995 N 6070.56 -1.49316 0.50422 0
M  V30 64996 C 6071.51 -2.26125 -0.291806 0
M  V30 64997 C 6072.49 -1.31108 -0.932707 0
M  V30 64998 O 6073.68 -1.5581 -0.839773 0
M  V30 64999 C 6070.81 -3.15482 -1.35373 0
M  V30 65000 C 6069.9 -4.17962 -0.718912 0
M  V30 65001 N 6070.29 -5.05478 0.180344 0
M  V30 65002 C 6068.59 -4.3512 -0.979123 0
M  V30 65003 C 6069.29 -5.7915 0.54404 0
M  V30 65004 N 6068.26 -5.43527 -0.0888049 0
M  V30 65005 H 6072.07 -2.9116 0.400403 0
M  V30 65006 H 6069.58 -1.59206 0.32051 0
M  V30 65007 H 6071.58 -3.69144 -1.93749 0
M  V30 65008 H 6070.24 -2.52 -2.04759 0
M  V30 65009 H 6071.25 -5.14957 0.55136 0
M  V30 65010 H 6067.92 -3.82842 -1.66548 0
M  V30 65011 H 6069.31 -6.59597 1.27991 0
M  V30 65012 N 6072.03 -0.238193 -1.5579 0
M  V30 65013 C 6072.97 0.705441 -2.17023 0
M  V30 65014 C 6073.95 1.17913 -1.11962 0
M  V30 65015 O 6075.13 1.25885 -1.40304 0
M  V30 65016 C 6072.26 1.9577 -2.76391 0
M  V30 65017 C 6071.3 1.62261 -3.94428 0
M  V30 65018 S 6072.14 0.732832 -5.30462 0
M  V30 65019 C 6073.29 1.99429 -5.93278 0
M  V30 65020 H 6073.52 0.185041 -2.96724 0
M  V30 65021 H 6071.06 -0.0227256 -1.54383 0
M  V30 65022 H 6073.02 2.67665 -3.11232 0
M  V30 65023 H 6071.68 2.44922 -1.96652 0
M  V30 65024 H 6070.87 2.55346 -4.34528 0
M  V30 65025 H 6070.47 0.984163 -3.60819 0
M  V30 65026 H 6072.76 2.9425 -6.10265 0
M  V30 65027 H 6073.71 1.63692 -6.8892 0
M  V30 65028 H 6074.11 2.14241 -5.22265 0
M  V30 65029 N 6073.51 1.57561 0.0350229 0
M  V30 65030 C 6074.92 1.77385 0.582375 0
M  V30 65031 C 6075.27 0.868514 1.7593 0
M  V30 65032 O 6074.4 0.061821 2.16312 0
M  V30 65033 C 6074.99 3.21684 1.06326 0
M  V30 65034 C 6073.55 3.42725 1.55617 0
M  V30 65035 C 6072.7 2.72908 0.491604 0
M  V30 65036 H 6075.65 1.57544 -0.191205 0
M  V30 65037 H 6075.67 3.27869 1.93085 0
M  V30 65038 H 6075.18 3.8755 0.206467 0
M  V30 65039 H 6073.29 2.82025 2.43501 0
M  V30 65040 H 6073.4 4.51317 1.60778 0
M  V30 65041 H 6071.76 2.3651 0.945265 0
M  V30 65042 H 6072.55 3.41453 -0.355622 0
M  V30 65043 N 6074.99 -0.307182 1.54577 0
M  V30 65044 C 6075.94 -1.3987 1.85847 0
M  V30 65045 C 6076.93 -1.52783 0.731684 0
M  V30 65046 O 6078.14 -1.54974 0.915589 0
M  V30 65047 H 6074.51 -0.467081 0.589355 0
M  V30 65048 H 6076.49 -1.10729 2.77095 0
M  V30 65049 C 6075.23 -2.75822 2.11702 0
M  V30 65050 H 6074.56 -2.66665 2.97876 0
M  V30 65051 H 6076 -3.51223 2.37525 0
M  V30 65052 C 6074.46 -3.24275 0.913636 0
M  V30 65053 O 6074.99 -4.01486 0.131044 0
M  V30 65054 N 6073.19 -2.81521 0.720724 0
M  V30 65055 H 6072.74 -2.18849 1.35878 0
M  V30 65056 H 6072.7 -3.14291 -0.0829035 0
M  V30 65057 N 6076.47 -1.46928 -0.57007 0
M  V30 65058 C 6077.75 -1.4337 -1.33058 0
M  V30 65059 C 6078.13 -0.123812 -2.10737 0
M  V30 65060 O 6077.47 0.894692 -2.10256 0
M  V30 65061 C 6077.68 -2.6713 -2.24595 0
M  V30 65062 C 6079.03 -3.13808 -2.86024 0
M  V30 65063 O 6080.06 -2.67767 -2.34903 0
M  V30 65064 O 6078.92 -3.93814 -3.7891 0
M  V30 65065 H 6076.01 -0.570747 -0.598479 0
M  V30 65066 H 6078.56 -1.59112 -0.590039 0
M  V30 65067 H 6077.33 -3.54011 -1.6671 0
M  V30 65068 H 6076.95 -2.53909 -3.05967 0
M  V30 65069 N 6077.95 0.815754 -1.34845 0
M  V30 65070 C 6079.18 1.60392 -1.30698 0
M  V30 65071 C 6079.59 1.88434 0.117469 0
M  V30 65072 O 6078.95 1.4808 1.06671 0
M  V30 65073 C 6079 2.94061 -2.10262 0
M  V30 65074 O 6078.72 2.67239 -3.47152 0
M  V30 65075 C 6080.22 3.88448 -2.13595 0
M  V30 65076 H 6077.44 0.498335 -0.449337 0
M  V30 65077 H 6079.98 1.01444 -1.77565 0
M  V30 65078 H 6078.14 3.49548 -1.67018 0
M  V30 65079 H 6078.55 3.52522 -3.88366 0
M  V30 65080 H 6080.03 4.79381 -2.73674 0
M  V30 65081 H 6080.5 4.24355 -1.13224 0
M  V30 65082 H 6081.11 3.38898 -2.56959 0
M  V30 65083 N 6079.43 1.18692 1.03682 0
M  V30 65084 C 6080.84 0.937432 1.29168 0
M  V30 65085 C 6081.04 -0.394793 1.97595 0
M  V30 65086 O 6080.1 -1.12821 2.25893 0
M  V30 65087 C 6081.41 2.10576 2.14659 0
M  V30 65088 C 6082.96 2.14449 2.27993 0
M  V30 65089 C 6083.43 3.3071 3.16851 0
M  V30 65090 N 6084.92 3.30596 3.24439 0
M  V30 65091 C 6085.66 4.17198 3.93362 0
M  V30 65092 N 6085.16 5.13941 4.64582 0
M  V30 65093 N 6086.95 4.051 3.8968 0
M  V30 65094 H 6079.1 2.04419 0.576764 0
M  V30 65095 H 6081.36 0.893415 0.317039 0
M  V30 65096 H 6081.07 3.06944 1.71692 0
M  V30 65097 H 6080.94 2.06966 3.15349 0
M  V30 65098 H 6083.33 1.18656 2.70194 0
M  V30 65099 H 6083.41 2.22115 1.2688 0
M  V30 65100 H 6083.05 4.26778 2.7536 0
M  V30 65101 H 6082.98 3.20281 4.18005 0
M  V30 65102 H 6085.48 2.60562 2.73708 0
M  V30 65103 H 6085.79 5.76386 5.1478 0
M  V30 65104 H 6084.13 5.17897 4.63474 0
M  V30 65105 H 6087.32 3.28805 3.33174 0
M  V30 65106 H 6087.5 4.72808 4.43122 0
M  V30 65107 N 6080.9 -1.22659 0.989572 0
M  V30 65108 C 6081.83 -2.2676 0.556971 0
M  V30 65109 C 6082.81 -1.64973 -0.41448 0
M  V30 65110 O 6084 -1.91777 -0.305842 0
M  V30 65111 C 6081.13 -3.47047 -0.132451 0
M  V30 65112 C 6080.08 -4.21249 0.757206 0
M  V30 65113 C 6079.41 -5.34661 -0.064946 0
M  V30 65114 C 6080.71 -4.80283 2.05245 0
M  V30 65115 H 6082.4 -2.63199 1.42713 0
M  V30 65116 H 6079.95 -1.2652 0.687659 0
M  V30 65117 H 6081.9 -4.19028 -0.446462 0
M  V30 65118 H 6080.63 -3.09695 -1.03712 0
M  V30 65119 H 6079.29 -3.51097 1.05481 0
M  V30 65120 H 6078.93 -4.9355 -0.970434 0
M  V30 65121 H 6078.63 -5.8523 0.527269 0
M  V30 65122 H 6080.16 -6.09459 -0.373128 0
M  V30 65123 H 6081.57 -5.44223 1.80261 0
M  V30 65124 H 6079.97 -5.41177 2.59321 0
M  V30 65125 H 6081.04 -4.00519 2.73336 0
M  V30 65126 N 6082.38 -0.762356 -1.37934 0
M  V30 65127 C 6083.31 -0.100609 -2.28979 0
M  V30 65128 C 6084.33 0.674357 -1.48176 0
M  V30 65129 O 6085.52 0.513999 -1.70939 0
M  V30 65130 C 6082.62 0.881363 -3.27239 0
M  V30 65131 C 6081.79 0.162195 -4.37099 0
M  V30 65132 C 6080.85 1.05618 -5.15491 0
M  V30 65133 O 6079.87 0.523437 -5.66788 0
M  V30 65134 N 6081.08 2.38342 -5.29314 0
M  V30 65135 H 6083.84 -0.882552 -2.86411 0
M  V30 65136 H 6081.4 -0.613892 -1.4981 0
M  V30 65137 H 6083.39 1.48264 -3.76563 0
M  V30 65138 H 6081.96 1.56433 -2.70643 0
M  V30 65139 H 6081.18 -0.619897 -3.89295 0
M  V30 65140 H 6082.47 -0.335106 -5.07695 0
M  V30 65141 H 6081.87 2.8407 -4.89204 0
M  V30 65142 H 6080.43 2.93499 -5.81981 0
M  V30 65143 N 6083.86 1.49047 -0.512132 0
M  V30 65144 C 6085.09 2.06885 0.0248975 0
M  V30 65145 C 6085.5 1.37105 1.29799 0
M  V30 65146 O 6084.86 0.45286 1.76792 0
M  V30 65147 C 6084.91 3.60483 0.270993 0
M  V30 65148 O 6084.63 4.27639 -0.951643 0
M  V30 65149 C 6086.13 4.35066 0.850415 0
M  V30 65150 H 6083.35 0.670516 -0.0254691 0
M  V30 65151 H 6085.9 1.9168 -0.712674 0
M  V30 65152 H 6084.05 3.75353 0.95857 0
M  V30 65153 H 6084.47 5.19516 -0.721339 0
M  V30 65154 H 6085.94 5.43372 0.972131 0
M  V30 65155 H 6086.42 3.98291 1.85097 0
M  V30 65156 H 6087.02 4.2483 0.199961 0
M  V30 65157 N 6085.34 0.246452 1.55661 0
M  V30 65158 C 6086.58 -0.378417 1.98933 0
M  V30 65159 C 6086.91 -1.5798 1.13457 0
M  V30 65160 O 6086.17 -1.94821 0.185282 0
M  V30 65161 C 6086.47 -0.832103 3.47578 0
M  V30 65162 C 6086.13 0.261476 4.50141 0
M  V30 65163 C 6084.79 0.561828 4.77909 0
M  V30 65164 C 6087.15 0.999797 5.11521 0
M  V30 65165 C 6084.47 1.60458 5.64332 0
M  V30 65166 C 6086.83 2.03207 5.99074 0
M  V30 65167 C 6085.49 2.33907 6.25175 0
M  V30 65168 H 6084.76 -0.138473 0.727947 0
M  V30 65169 H 6087.41 0.354182 1.88196 0
M  V30 65170 H 6085.71 -1.6439 3.55645 0
M  V30 65171 H 6087.41 -1.32585 3.78447 0
M  V30 65172 H 6084 0.0172401 4.28597 0
M  V30 65173 H 6088.18 0.781005 4.90116 0
M  V30 65174 H 6083.44 1.84778 5.8281 0
M  V30 65175 H 6087.61 2.60908 6.45678 0
M  V30 65176 H 6085.24 3.14846 6.91936 0
M  V30 65177 N 6086.82 -1.57577 -0.0266666 0
M  V30 65178 C 6087.75 -2.09752 -1.02598 0
M  V30 65179 C 6088.73 -1.00059 -1.37558 0
M  V30 65180 O 6089.91 -1.27596 -1.464 0
M  V30 65181 C 6087.04 -2.57889 -2.32617 0
M  V30 65182 C 6086 -3.71868 -2.11892 0
M  V30 65183 C 6085.32 -4.0622 -3.47692 0
M  V30 65184 C 6086.62 -5.00203 -1.50314 0
M  V30 65185 H 6088.32 -2.93496 -0.59165 0
M  V30 65186 H 6085.86 -1.41189 -0.283149 0
M  V30 65187 H 6087.81 -2.93011 -3.02857 0
M  V30 65188 H 6086.54 -1.71231 -2.78114 0
M  V30 65189 H 6085.2 -3.37099 -1.44084 0
M  V30 65190 H 6084.85 -3.16625 -3.90842 0
M  V30 65191 H 6084.55 -4.82994 -3.3465 0
M  V30 65192 H 6086.07 -4.43878 -4.19291 0
M  V30 65193 H 6087.48 -5.33266 -2.10475 0
M  V30 65194 H 6085.88 -5.81604 -1.4784 0
M  V30 65195 H 6086.95 -4.82624 -0.469236 0
M  V30 65196 N 6088.29 0.29898 -1.54738 0
M  V30 65197 C 6089.2 1.39134 -1.88889 0
M  V30 65198 C 6090.22 1.55374 -0.783258 0
M  V30 65199 O 6091.4 1.7 -1.07991 0
M  V30 65200 C 6088.46 2.73479 -2.13096 0
M  V30 65201 C 6087.52 2.66207 -3.36797 0
M  V30 65202 C 6086.75 3.94145 -3.5984 0
M  V30 65203 O 6086.98 4.936 -2.85858 0
M  V30 65204 O 6085.91 3.95917 -4.53358 0
M  V30 65205 H 6089.74 1.13174 -2.81825 0
M  V30 65206 H 6087.32 0.495221 -1.40954 0
M  V30 65207 H 6089.2 3.52962 -2.30208 0
M  V30 65208 H 6087.88 2.99278 -1.23346 0
M  V30 65209 H 6086.79 1.85189 -3.25047 0
M  V30 65210 H 6088.12 2.45361 -4.26684 0
M  V30 65211 N 6089.77 1.47229 0.56227 0
M  V30 65212 C 6090.7 1.6221 1.67959 0
M  V30 65213 C 6091.68 0.471695 1.63429 0
M  V30 65214 O 6092.87 0.700424 1.81129 0
M  V30 65215 C 6090 1.63138 3.06599 0
M  V30 65216 C 6088.95 2.77354 3.25973 0
M  V30 65217 C 6088.28 2.63353 4.65349 0
M  V30 65218 C 6089.58 4.18994 3.11835 0
M  V30 65219 H 6091.27 2.55744 1.55677 0
M  V30 65220 H 6088.82 1.23078 0.747517 0
M  V30 65221 H 6090.77 1.7221 3.84606 0
M  V30 65222 H 6089.5 0.661613 3.19828 0
M  V30 65223 H 6088.15 2.67785 2.50373 0
M  V30 65224 H 6087.8 1.64415 4.7537 0
M  V30 65225 H 6087.5 3.39974 4.79261 0
M  V30 65226 H 6089.03 2.74346 5.45497 0
M  V30 65227 H 6090.44 4.29567 3.79664 0
M  V30 65228 H 6088.84 4.96363 3.3726 0
M  V30 65229 H 6089.91 4.37716 2.08645 0
M  V30 65230 N 6091.25 -0.808591 1.35276 0
M  V30 65231 C 6092.21 -1.90191 1.27907 0
M  V30 65232 C 6093.21 -1.59662 0.190971 0
M  V30 65233 O 6094.4 -1.68432 0.444541 0
M  V30 65234 C 6091.54 -3.26563 0.978221 0
M  V30 65235 H 6092.73 -1.98144 2.2512 0
M  V30 65236 H 6090.28 -1.00422 1.19771 0
M  V30 65237 H 6091.02 -3.24298 0.00987189 0
M  V30 65238 H 6090.8 -3.50107 1.76543 0
M  V30 65239 H 6092.29 -4.06599 0.952213 0
M  V30 65240 N 6092.73 -1.1924 -1.03051 0
M  V30 65241 C 6093.64 -0.943952 -2.14771 0
M  V30 65242 C 6094.65 0.0954773 -1.73738 0
M  V30 65243 O 6095.83 -0.0887894 -2.01204 0
M  V30 65244 C 6092.9 -0.484141 -3.43303 0
M  V30 65245 C 6091.96 -1.59276 -3.9866 0
M  V30 65246 C 6091.19 -1.1548 -5.21057 0
M  V30 65247 O 6091.41 -0.0176846 -5.70397 0
M  V30 65248 O 6090.35 -1.95668 -5.69208 0
M  V30 65249 H 6094.17 -1.87902 -2.38592 0
M  V30 65250 H 6091.76 -0.975086 -1.13192 0
M  V30 65251 H 6093.64 -0.236283 -4.20737 0
M  V30 65252 H 6092.31 0.422513 -3.20931 0
M  V30 65253 H 6091.22 -1.89475 -3.22568 0
M  V30 65254 H 6092.55 -2.47591 -4.25393 0
M  V30 65255 N 6094.21 1.22132 -0.996063 0
M  V30 65256 C 6095.43 1.95516 -0.691959 0
M  V30 65257 C 6095.86 1.73043 0.737419 0
M  V30 65258 O 6095.21 1.01162 1.50452 0
M  V30 65259 C 6095.26 3.4624 -1.00747 0
M  V30 65260 O 6094.37 4.12259 -0.107858 0
M  V30 65261 H 6093.71 0.611544 -0.25867 0
M  V30 65262 H 6096.24 1.5514 -1.3339 0
M  V30 65263 H 6096.25 3.96771 -0.950621 0
M  V30 65264 H 6094.92 3.61923 -2.04902 0
M  V30 65265 H 6093.5 3.72248 -0.220467 0
M  V30 65266 N 6095.68 0.76966 1.37528 0
M  V30 65267 C 6096.93 0.33353 2.00039 0
M  V30 65268 C 6097.26 -1.08656 1.60958 0
M  V30 65269 O 6096.54 -1.74711 0.854771 0
M  V30 65270 C 6096.82 0.474713 3.56957 0
M  V30 65271 C 6096.67 1.93706 4.05953 0
M  V30 65272 C 6097.99 -0.122275 4.3993 0
M  V30 65273 H 6095.11 0.122663 0.726721 0
M  V30 65274 H 6097.75 0.972313 1.63236 0
M  V30 65275 H 6095.9 -0.0690987 3.88439 0
M  V30 65276 H 6097.58 2.54042 3.85046 0
M  V30 65277 H 6095.82 2.4466 3.58223 0
M  V30 65278 H 6096.49 1.98692 5.15001 0
M  V30 65279 H 6098.97 0.341703 4.14695 0
M  V30 65280 H 6097.84 0.00665841 5.489 0
M  V30 65281 H 6098.1 -1.21236 4.25152 0
M  V30 65282 N 6097.16 -1.48773 0.520029 0
M  V30 65283 C 6098.09 -2.32293 -0.237132 0
M  V30 65284 C 6099.07 -1.41463 -0.944575 0
M  V30 65285 O 6100.26 -1.70358 -0.932289 0
M  V30 65286 C 6097.39 -3.22431 -1.29056 0
M  V30 65287 C 6096.34 -4.22206 -0.701863 0
M  V30 65288 C 6095.67 -5.0141 -1.85722 0
M  V30 65289 C 6096.97 -5.2132 0.31981 0
M  V30 65290 H 6098.66 -2.95844 0.460053 0
M  V30 65291 H 6096.21 -1.42268 0.222691 0
M  V30 65292 H 6098.16 -3.79681 -1.82813 0
M  V30 65293 H 6096.89 -2.5686 -2.01719 0
M  V30 65294 H 6095.54 -3.66128 -0.185899 0
M  V30 65295 H 6095.19 -4.32271 -2.57199 0
M  V30 65296 H 6094.89 -5.68934 -1.46929 0
M  V30 65297 H 6096.42 -5.61509 -2.39875 0
M  V30 65298 H 6097.83 -5.73152 -0.130303 0
M  V30 65299 H 6096.23 -5.96841 0.624587 0
M  V30 65300 H 6097.3 -4.69064 1.22909 0
M  V30 65301 N 6098.64 -0.254703 -1.55528 0
M  V30 65302 C 6099.59 0.657709 -2.23107 0
M  V30 65303 C 6100.58 1.17398 -1.22123 0
M  V30 65304 O 6101.79 1.12997 -1.40113 0
M  V30 65305 H 6098.16 0.230603 -0.71577 0
M  V30 65306 H 6100.13 0.064671 -2.9833 0
M  V30 65307 C 6098.88 1.84008 -2.95019 0
M  V30 65308 H 6098.21 1.45198 -3.72502 0
M  V30 65309 H 6099.65 2.45556 -3.45656 0
M  V30 65310 C 6098.11 2.71603 -1.99332 0
M  V30 65311 O 6098.64 3.71364 -1.53138 0
M  V30 65312 N 6096.84 2.38336 -1.66266 0
M  V30 65313 H 6096.39 1.57261 -2.04026 0
M  V30 65314 H 6096.35 2.97219 -1.0251 0
M  V30 65315 N 6100.12 1.57589 0.0183095 0
M  V30 65316 C 6101.35 1.93745 0.717382 0
M  V30 65317 C 6101.76 0.853787 1.68841 0
M  V30 65318 O 6101.1 -0.177584 1.8284 0
M  V30 65319 C 6101.16 3.25774 1.52024 0
M  V30 65320 C 6100.83 4.51407 0.712822 0
M  V30 65321 C 6101.82 5.19899 0.00841184 0
M  V30 65322 C 6099.51 4.97889 0.664189 0
M  V30 65323 C 6101.5 6.33162 -0.733814 0
M  V30 65324 C 6099.19 6.11045 -0.0817751 0
M  V30 65325 C 6100.19 6.78537 -0.779527 0
M  V30 65326 O 6099.87 7.89527 -1.51336 0
M  V30 65327 H 6099.61 0.643856 0.205974 0
M  V30 65328 H 6102.16 2.05387 -0.0233782 0
M  V30 65329 H 6100.39 3.10489 2.30507 0
M  V30 65330 H 6102.08 3.47177 2.10293 0
M  V30 65331 H 6102.85 4.84986 0.0369468 0
M  V30 65332 H 6098.72 4.45194 1.1968 0
M  V30 65333 H 6102.27 6.85775 -1.27897 0
M  V30 65334 H 6098.17 6.45402 -0.112195 0
M  V30 65335 H 6098.93 8.05944 -1.42815 0
M  V30 65336 N 6101.6 -0.29077 1.54894 0
M  V30 65337 C 6102.84 -1.02469 1.74661 0
M  V30 65338 C 6103.17 -1.86913 0.53795 0
M  V30 65339 O 6102.43 -1.89724 -0.479931 0
M  V30 65340 C 6102.73 -1.95134 2.99428 0
M  V30 65341 C 6102.39 -1.26584 4.32767 0
M  V30 65342 C 6101.05 -1.07622 4.69011 0
M  V30 65343 C 6103.41 -0.776612 5.15382 0
M  V30 65344 C 6100.73 -0.384375 5.8544 0
M  V30 65345 C 6103.09 -0.098439 6.32523 0
M  V30 65346 C 6101.75 0.103047 6.6742 0
M  V30 65347 H 6101.02 -0.374959 0.63913 0
M  V30 65348 H 6103.67 -0.298592 1.89158 0
M  V30 65349 H 6101.97 -2.74306 2.79756 0
M  V30 65350 H 6103.67 -2.52009 3.11917 0
M  V30 65351 H 6100.26 -1.42351 4.0427 0
M  V30 65352 H 6104.44 -0.910788 4.87871 0
M  V30 65353 H 6099.7 -0.217378 6.11013 0
M  V30 65354 H 6103.87 0.288494 6.95802 0
M  V30 65355 H 6101.5 0.641138 7.57492 0
M  V30 65356 N 6103.07 -1.47525 -0.554454 0
M  V30 65357 C 6104.01 -1.5628 -1.67658 0
M  V30 65358 C 6105.02 -0.448798 -1.56492 0
M  V30 65359 O 6106.21 -0.718536 -1.63399 0
M  V30 65360 C 6103.31 -1.45359 -3.06144 0
M  V30 65361 C 6102.48 -2.71376 -3.43036 0
M  V30 65362 C 6101.54 -2.54253 -4.60697 0
M  V30 65363 O 6100.57 -3.28075 -4.6514 0
M  V30 65364 N 6101.77 -1.6226 -5.57362 0
M  V30 65365 H 6104.53 -2.53042 -1.60592 0
M  V30 65366 H 6102.09 -1.43939 -0.741158 0
M  V30 65367 H 6104.09 -1.31634 -3.82694 0
M  V30 65368 H 6102.66 -0.566691 -3.07421 0
M  V30 65369 H 6101.88 -2.99842 -2.55907 0
M  V30 65370 H 6103.16 -3.5503 -3.64461 0
M  V30 65371 H 6102.56 -1.01439 -5.56531 0
M  V30 65372 H 6101.12 -1.54486 -6.33228 0
M  V30 65373 N 6104.55 0.801406 -1.35703 0
M  V30 65374 C 6105.96 1.37576 -1.26213 0
M  V30 65375 C 6106.32 1.95928 0.103257 0
M  V30 65376 O 6105.44 1.9168 1.00438 0
M  V30 65377 C 6106.04 2.50114 -2.28536 0
M  V30 65378 C 6104.59 3.03398 -2.22771 0
M  V30 65379 C 6103.74 1.76394 -2.13964 0
M  V30 65380 H 6106.69 0.604018 -1.46756 0
M  V30 65381 H 6106.71 3.28807 -1.91484 0
M  V30 65382 H 6106.23 2.07614 -3.27899 0
M  V30 65383 H 6104.33 3.50348 -1.26835 0
M  V30 65384 H 6104.44 3.61027 -3.14955 0
M  V30 65385 H 6102.8 1.98152 -1.60024 0
M  V30 65386 H 6103.59 1.36039 -3.15196 0
M  V30 65387 N 6106.03 1.19785 1.02417 0
M  V30 65388 C 6107.28 1.00338 1.75894 0
M  V30 65389 C 6107.61 -0.465347 1.88851 0
M  V30 65390 O 6106.86 -1.36177 1.4055 0
M  V30 65391 C 6107.16 1.62309 3.18419 0
M  V30 65392 C 6106.83 3.12071 3.25457 0
M  V30 65393 C 6105.49 3.52943 3.27085 0
M  V30 65394 C 6107.84 4.08077 3.24227 0
M  V30 65395 C 6105.17 4.88362 3.25145 0
M  V30 65396 C 6107.52 5.43433 3.23827 0
M  V30 65397 C 6106.18 5.83729 3.23755 0
M  V30 65398 H 6105.45 0.367161 0.643641 0
M  V30 65399 H 6108.1 1.49099 1.20174 0
M  V30 65400 H 6106.41 1.0579 3.77248 0
M  V30 65401 H 6108.1 1.44785 3.7395 0
M  V30 65402 H 6104.69 2.79507 3.24921 0
M  V30 65403 H 6108.88 3.7754 3.22145 0
M  V30 65404 H 6104.13 5.18857 3.23416 0
M  V30 65405 H 6108.31 6.17577 3.21826 0
M  V30 65406 H 6105.93 6.88634 3.22005 0
M  V30 65407 N 6107.51 -1.21603 1.00253 0
M  V30 65408 C 6108.44 -2.26156 0.580991 0
M  V30 65409 C 6109.42 -1.65403 -0.396959 0
M  V30 65410 O 6110.61 -1.9209 -0.285484 0
M  V30 65411 C 6107.74 -3.47168 -0.0956344 0
M  V30 65412 C 6106.69 -4.20422 0.801842 0
M  V30 65413 C 6106.02 -5.34699 -0.00823444 0
M  V30 65414 C 6107.32 -4.78079 2.10328 0
M  V30 65415 H 6109.01 -2.6167 1.45496 0
M  V30 65416 H 6106.56 -1.25783 0.701039 0
M  V30 65417 H 6108.51 -4.19478 -0.401993 0
M  V30 65418 H 6107.23 -3.10778 -1.00422 0
M  V30 65419 H 6105.89 -3.49959 1.09199 0
M  V30 65420 H 6105.54 -4.94551 -0.918032 0
M  V30 65421 H 6105.24 -5.84637 0.58931 0
M  V30 65422 H 6106.76 -6.0982 -0.308466 0
M  V30 65423 H 6108.18 -5.42281 1.86023 0
M  V30 65424 H 6106.57 -5.38396 2.65047 0
M  V30 65425 H 6107.64 -3.97597 2.77569 0
M  V30 65426 N 6108.99 -0.776943 -1.37118 0
M  V30 65427 C 6110.24 -0.342946 -1.99169 0
M  V30 65428 C 6110.56 1.08569 -1.61981 0
M  V30 65429 O 6109.83 1.7463 -0.88775 0
M  V30 65430 H 6108.41 -0.123814 -0.736668 0
M  V30 65431 H 6111.07 -0.996221 -1.67515 0
M  V30 65432 H 6110.16 -0.424745 -3.09196 0
M  V30 65433 N 6110.47 1.48495 -0.527912 0
M  V30 65434 C 6111.88 1.58517 -0.185629 0
M  V30 65435 C 6112.08 1.53016 1.31104 0
M  V30 65436 O 6111.14 1.41815 2.08914 0
M  V30 65437 C 6112.45 2.90237 -0.786321 0
M  V30 65438 C 6114 3.03761 -0.754866 0
M  V30 65439 C 6114.47 4.38139 -1.3341 0
M  V30 65440 N 6115.96 4.44701 -1.29598 0
M  V30 65441 C 6116.7 5.47181 -1.71407 0
M  V30 65442 N 6116.2 6.56627 -2.20937 0
M  V30 65443 N 6117.99 5.38051 -1.62657 0
M  V30 65444 H 6110.14 1.50313 -1.50065 0
M  V30 65445 H 6112.4 0.713603 -0.624079 0
M  V30 65446 H 6112.11 2.99911 -1.83701 0
M  V30 65447 H 6111.98 3.76287 -0.262216 0
M  V30 65448 H 6114.37 2.93701 0.287054 0
M  V30 65449 H 6114.45 2.19327 -1.31642 0
M  V30 65450 H 6114.09 4.48953 -2.37494 0
M  V30 65451 H 6114.02 5.21257 -0.748247 0
M  V30 65452 H 6116.52 3.66192 -0.933375 0
M  V30 65453 H 6116.83 7.30958 -2.50839 0
M  V30 65454 H 6115.17 6.57596 -2.24929 0
M  V30 65455 H 6118.36 4.51443 -1.23762 0
M  V30 65456 H 6118.54 6.17786 -1.95562 0
M  V30 65457 N 6111.94 0.262948 1.55391 0
M  V30 65458 C 6113.19 -0.35787 1.985 0
M  V30 65459 C 6113.51 -1.57886 1.15462 0
M  V30 65460 O 6114.71 -2.27185 1.48658 0
M  V30 65461 C 6113.17 -0.688081 3.53261 0
M  V30 65462 C 6112.78 0.512414 4.4506 0
M  V30 65463 C 6114.52 -1.2722 4.04988 0
M  V30 65464 C 6112.43 0.157465 5.9119 0
M  V30 65465 H 6111.36 -0.137488 0.741359 0
M  V30 65466 H 6114.01 0.365689 1.79819 0
M  V30 65467 H 6112.39 -1.47021 3.67697 0
M  V30 65468 H 6113.56 1.28951 4.42389 0
M  V30 65469 H 6111.88 1.01255 4.03902 0
M  V30 65470 H 6114.48 -1.55137 5.117 0
M  V30 65471 H 6114.82 -2.20205 3.53292 0
M  V30 65472 H 6115.35 -0.552625 3.93943 0
M  V30 65473 H 6112.09 1.05487 6.46957 0
M  V30 65474 H 6111.61 -0.583109 5.96959 0
M  V30 65475 H 6113.29 -0.254665 6.46499 0
M  V30 65476 N 6113.42 -1.57597 -0.00995191 0
M  V30 65477 C 6114.33 -2.11213 -1.02109 0
M  V30 65478 C 6115.35 -1.05508 -1.38362 0
M  V30 65479 O 6116.52 -1.37353 -1.47296 0
M  V30 65480 C 6113.59 -2.59662 -2.29731 0
M  V30 65481 C 6112.65 -3.79928 -1.99883 0
M  V30 65482 C 6111.88 -4.26057 -3.2142 0
M  V30 65483 O 6112.11 -3.71582 -4.32762 0
M  V30 65484 O 6111.04 -5.18312 -3.06 0
M  V30 65485 H 6114.87 -2.97807 -0.595364 0
M  V30 65486 H 6112.45 -1.47648 -0.228156 0
M  V30 65487 H 6114.33 -2.91069 -3.04725 0
M  V30 65488 H 6113.01 -1.7617 -2.71562 0
M  V30 65489 H 6111.91 -3.53511 -1.22397 0
M  V30 65490 H 6113.25 -4.64463 -1.62896 0
M  V30 65491 N 6114.9 0.282551 -1.55046 0
M  V30 65492 C 6116.15 1.01314 -1.74408 0
M  V30 65493 C 6116.46 1.8779 -0.547199 0
M  V30 65494 O 6117.67 2.64255 -0.623024 0
M  V30 65495 C 6116.12 1.85117 -3.08642 0
M  V30 65496 C 6115.73 1.03555 -4.35867 0
M  V30 65497 C 6117.48 2.57664 -3.37357 0
M  V30 65498 C 6115.38 1.86741 -5.61143 0
M  V30 65499 H 6114.31 0.38199 -0.650076 0
M  V30 65500 H 6116.96 0.269244 -1.81514 0
M  V30 65501 H 6115.35 2.63566 -2.95549 0
M  V30 65502 H 6116.52 0.295899 -4.59849 0
M  V30 65503 H 6114.83 0.425062 -4.14225 0
M  V30 65504 H 6117.43 3.20288 -4.28158 0
M  V30 65505 H 6117.77 3.27455 -2.57058 0
M  V30 65506 H 6118.31 1.86252 -3.51504 0
M  V30 65507 H 6115.05 1.21388 -6.44162 0
M  V30 65508 H 6114.57 2.58329 -5.41319 0
M  V30 65509 H 6116.25 2.4434 -5.99088 0
M  V30 65510 N 6116.38 1.47817 0.546623 0
M  V30 65511 C 6117.31 1.55649 1.66879 0
M  V30 65512 C 6118.29 0.407939 1.574 0
M  V30 65513 O 6119.47 0.617227 1.78108 0
M  V30 65514 C 6116.6 1.46894 3.05188 0
M  V30 65515 C 6115.65 2.66384 3.3308 0
M  V30 65516 S 6116.48 4.28496 3.21172 0
M  V30 65517 C 6117.63 4.22311 4.61957 0
M  V30 65518 H 6117.87 2.50585 1.59982 0
M  V30 65519 H 6115.4 1.36145 0.728283 0
M  V30 65520 H 6117.36 1.4253 3.84962 0
M  V30 65521 H 6116.02 0.533241 3.09541 0
M  V30 65522 H 6115.21 2.5635 4.33936 0
M  V30 65523 H 6114.81 2.67925 2.60945 0
M  V30 65524 H 6117.11 3.91218 5.53132 0
M  V30 65525 H 6118.05 5.2329 4.77046 0
M  V30 65526 H 6118.46 3.53016 4.40499 0
M  V30 65527 N 6117.86 -0.794198 1.36126 0
M  V30 65528 C 6119.1 -1.5488 1.29833 0
M  V30 65529 C 6119.42 -1.94609 -0.123449 0
M  V30 65530 O 6118.69 -1.64573 -1.06266 0
M  V30 65531 H 6117.27 -0.574381 0.477593 0
M  V30 65532 H 6119.94 -0.946599 1.70369 0
M  V30 65533 H 6119.03 -2.45856 1.92253 0
M  V30 65534 N 6119.33 -1.20327 -1.0178 0
M  V30 65535 C 6120.56 -1.03899 -1.79499 0
M  V30 65536 C 6120.98 0.407356 -1.83636 0
M  V30 65537 O 6120.34 1.29334 -1.27053 0
M  V30 65538 C 6120.39 -1.62573 -3.21873 0
M  V30 65539 O 6119.49 -0.86254 -4.03279 0
M  V30 65540 H 6118.84 -0.366498 -0.553692 0
M  V30 65541 H 6121.37 -1.59593 -1.28028 0
M  V30 65542 H 6121.38 -1.66257 -3.72589 0
M  V30 65543 H 6120.05 -2.67837 -3.18176 0
M  V30 65544 H 6118.63 -0.899814 -3.61881 0
M  V30 65545 N 6120.81 1.21069 -1.00896 0
M  V30 65546 C 6121.78 2.21802 -0.577621 0
M  V30 65547 C 6122.78 1.56986 0.348146 0
M  V30 65548 O 6123.97 1.73653 0.137886 0
M  V30 65549 C 6121.1 3.40536 0.157565 0
M  V30 65550 H 6122.29 2.61478 -1.46866 0
M  V30 65551 H 6119.84 1.34399 -0.797908 0
M  V30 65552 H 6120.58 3.06354 1.06386 0
M  V30 65553 H 6120.36 3.88803 -0.507375 0
M  V30 65554 H 6121.85 4.15201 0.446963 0
M  V30 65555 N 6122.29 0.784204 1.36704 0
M  V30 65556 C 6123.24 0.177125 2.30119 0
M  V30 65557 C 6124.21 -0.676047 1.5172 0
M  V30 65558 O 6125.39 -0.625815 1.80245 0
M  V30 65559 C 6122.53 -0.686218 3.38209 0
M  V30 65560 C 6121.65 0.184924 4.31604 0
M  V30 65561 C 6120.78 -0.684299 5.26774 0
M  V30 65562 C 6119.82 0.188617 6.11809 0
M  V30 65563 N 6118.96 -0.639291 6.99183 0
M  V30 65564 H 6123.8 0.979224 2.81452 0
M  V30 65565 H 6121.33 0.494468 1.3854 0
M  V30 65566 H 6123.29 -1.20171 3.99518 0
M  V30 65567 H 6121.92 -1.4538 2.88209 0
M  V30 65568 H 6120.97 0.818335 3.71494 0
M  V30 65569 H 6122.29 0.85774 4.9137 0
M  V30 65570 H 6121.44 -1.2658 5.93349 0
M  V30 65571 H 6120.18 -1.39076 4.6745 0
M  V30 65572 H 6119.18 0.782555 5.44202 0
M  V30 65573 H 6120.41 0.892597 6.73208 0
M  V30 65574 H 6118.35 -1.33014 6.42373 0
M  V30 65575 H 6118.27 -0.0240439 7.55996 0
M  V30 65576 H 6119.54 -1.20478 7.70133 0
M  V30 65577 N 6123.77 -1.48213 0.535779 0
M  V30 65578 C 6125.18 -1.58416 0.194033 0
M  V30 65579 C 6125.38 -1.53709 -1.30291 0
M  V30 65580 O 6124.44 -1.42921 -2.08159 0
M  V30 65581 C 6125.75 -2.89816 0.801702 0
M  V30 65582 C 6127.3 -3.03356 0.770965 0
M  V30 65583 C 6127.78 -4.37425 1.35731 0
M  V30 65584 N 6129.27 -4.44007 1.31954 0
M  V30 65585 C 6130 -5.46264 1.74307 0
M  V30 65586 N 6129.5 -6.55446 2.24416 0
M  V30 65587 N 6131.29 -5.37181 1.65508 0
M  V30 65588 H 6123.44 -1.49515 1.5086 0
M  V30 65589 H 6125.71 -0.710284 0.627854 0
M  V30 65590 H 6125.41 -2.98933 1.85289 0
M  V30 65591 H 6125.29 -3.76143 0.282168 0
M  V30 65592 H 6127.67 -2.93849 -0.271474 0
M  V30 65593 H 6127.75 -2.18625 1.32803 0
M  V30 65594 H 6127.4 -4.47688 2.39871 0
M  V30 65595 H 6127.33 -5.20853 0.77588 0
M  V30 65596 H 6129.82 -3.65692 0.952782 0
M  V30 65597 H 6130.13 -7.29617 2.54712 0
M  V30 65598 H 6128.48 -6.56394 2.28413 0
M  V30 65599 H 6131.67 -4.5078 1.26154 0
M  V30 65600 H 6131.84 -6.1674 1.98835 0
M  V30 65601 N 6125.25 -0.271185 -1.55249 0
M  V30 65602 C 6126.5 0.347338 -1.98687 0
M  V30 65603 C 6126.81 1.57271 -1.16298 0
M  V30 65604 O 6128.01 2.26394 -1.49861 0
M  V30 65605 C 6126.47 0.669337 -3.53621 0
M  V30 65606 C 6126.08 -0.536009 -4.44782 0
M  V30 65607 C 6127.82 1.2507 -4.05657 0
M  V30 65608 C 6125.73 -0.188815 -5.91099 0
M  V30 65609 H 6124.66 0.133555 -0.742078 0
M  V30 65610 H 6127.31 -0.37522 -1.79623 0
M  V30 65611 H 6125.69 1.45069 -3.68471 0
M  V30 65612 H 6126.87 -1.31295 -4.41699 0
M  V30 65613 H 6125.18 -1.03395 -4.03359 0
M  V30 65614 H 6127.78 1.52421 -5.12515 0
M  V30 65615 H 6128.12 2.18328 -3.54455 0
M  V30 65616 H 6128.65 0.531725 -3.9423 0
M  V30 65617 H 6125.39 -1.08917 -6.46388 0
M  V30 65618 H 6124.91 0.551443 -5.9726 0
M  V30 65619 H 6126.59 0.220376 -6.46625 0
M  V30 65620 N 6126.72 1.576 0.00159402 0
M  V30 65621 C 6127.63 2.11751 1.00988 0
M  V30 65622 C 6128.65 1.0624 1.37801 0
M  V30 65623 O 6129.83 1.38132 1.46566 0
M  V30 65624 C 6126.89 2.60877 2.28351 0
M  V30 65625 C 6125.95 3.80983 1.97865 0
M  V30 65626 C 6125.19 4.27756 3.19156 0
M  V30 65627 O 6125.41 3.73872 4.30786 0
M  V30 65628 O 6124.34 5.19928 3.03247 0
M  V30 65629 H 6128.17 2.98119 0.579562 0
M  V30 65630 H 6125.75 1.47767 0.220323 0
M  V30 65631 H 6127.64 2.92681 3.03177 0
M  V30 65632 H 6126.31 1.77608 2.70624 0
M  V30 65633 H 6125.22 3.54155 1.2052 0
M  V30 65634 H 6126.55 4.6532 1.6043 0
M  V30 65635 N 6128.2 -0.274325 1.55194 0
M  V30 65636 C 6129.62 -0.621446 1.47004 0
M  V30 65637 C 6129.82 -1.89569 0.683061 0
M  V30 65638 O 6128.87 -2.51696 0.201385 0
M  V30 65639 C 6130.19 -0.749639 2.91206 0
M  V30 65640 C 6131.74 -0.84378 3.01412 0
M  V30 65641 C 6132.21 -1.00376 4.46865 0
M  V30 65642 N 6133.7 -1.06931 4.50688 0
M  V30 65643 C 6134.44 -1.21188 5.60447 0
M  V30 65644 N 6133.93 -1.32171 6.80075 0
M  V30 65645 N 6135.73 -1.24287 5.48187 0
M  V30 65646 H 6127.88 0.562534 2.04815 0
M  V30 65647 H 6130.14 0.190238 0.928716 0
M  V30 65648 H 6129.85 0.116198 3.51508 0
M  V30 65649 H 6129.72 -1.63034 3.40147 0
M  V30 65650 H 6132.11 -1.70009 2.41208 0
M  V30 65651 H 6132.19 0.0615009 2.55726 0
M  V30 65652 H 6131.83 -0.152119 5.07672 0
M  V30 65653 H 6131.76 -1.92367 4.90207 0
M  V30 65654 H 6134.25 -0.996884 3.64514 0
M  V30 65655 H 6134.57 -1.42879 7.59477 0
M  V30 65656 H 6132.91 -1.29178 6.82889 0
M  V30 65657 H 6136.1 -1.15336 4.53669 0
M  V30 65658 H 6136.27 -1.35054 6.3377 0
M  V30 65659 N 6129.68 -1.48105 -0.538776 0
M  V30 65660 C 6130.93 -1.55904 -1.29699 0
M  V30 65661 C 6131.26 -0.228427 -1.92852 0
M  V30 65662 O 6130.53 0.764762 -1.78834 0
M  V30 65663 C 6130.82 -2.69081 -2.39306 0
M  V30 65664 C 6130.67 -4.11819 -1.80901 0
M  V30 65665 C 6131.99 -2.78063 -3.41129 0
M  V30 65666 H 6129.11 -0.567517 -0.470206 0
M  V30 65667 H 6131.75 -1.80241 -0.6011 0
M  V30 65668 H 6129.9 -2.48461 -2.98663 0
M  V30 65669 H 6131.57 -4.43854 -1.25664 0
M  V30 65670 H 6129.82 -4.19231 -1.11479 0
M  V30 65671 H 6130.49 -4.86814 -2.60223 0
M  V30 65672 H 6132.96 -2.96717 -2.91716 0
M  V30 65673 H 6131.84 -3.58996 -4.15226 0
M  V30 65674 H 6132.1 -1.85863 -4.01132 0
M  V30 65675 N 6131.16 0.786968 -1.36545 0
M  V30 65676 C 6132.39 1.57355 -1.33877 0
M  V30 65677 C 6132.8 1.89025 0.0814181 0
M  V30 65678 O 6132.14 1.50775 1.04941 0
M  V30 65679 C 6132.2 2.91971 -2.09745 0
M  V30 65680 C 6131.87 2.83017 -3.58818 0
M  V30 65681 C 6132.86 2.55092 -4.53017 0
M  V30 65682 C 6130.55 3.01517 -4.01737 0
M  V30 65683 C 6132.54 2.45772 -5.88111 0
M  V30 65684 C 6130.23 2.91819 -5.36922 0
M  V30 65685 C 6131.23 2.63985 -6.29921 0
M  V30 65686 O 6130.91 2.54286 -7.62623 0
M  V30 65687 H 6130.65 0.494643 -0.460765 0
M  V30 65688 H 6133.2 0.984456 -1.80271 0
M  V30 65689 H 6131.43 3.52941 -1.58018 0
M  V30 65690 H 6133.12 3.53261 -1.99904 0
M  V30 65691 H 6133.89 2.405 -4.21171 0
M  V30 65692 H 6129.76 3.22188 -3.29721 0
M  V30 65693 H 6133.31 2.23967 -6.6067 0
M  V30 65694 H 6129.21 3.05975 -5.68374 0
M  V30 65695 H 6129.97 2.69749 -7.72773 0
M  V30 65696 N 6132.64 1.20865 1.01141 0
M  V30 65697 C 6133.88 1.02198 1.7482 0
M  V30 65698 C 6134.21 -0.445291 1.89334 0
M  V30 65699 O 6133.47 -1.34679 1.41987 0
M  V30 65700 C 6133.77 1.65677 3.1668 0
M  V30 65701 C 6133.43 3.15505 3.22129 0
M  V30 65702 C 6132.09 3.56392 3.23324 0
M  V30 65703 C 6134.45 4.11493 3.1988 0
M  V30 65704 C 6131.77 4.91783 3.19947 0
M  V30 65705 C 6134.13 5.46837 3.18045 0
M  V30 65706 C 6132.79 5.8713 3.17545 0
M  V30 65707 H 6132.06 0.373967 0.639711 0
M  V30 65708 H 6134.71 1.50365 1.18586 0
M  V30 65709 H 6133.01 1.09785 3.76104 0
M  V30 65710 H 6134.71 1.48743 3.72393 0
M  V30 65711 H 6131.3 2.82938 3.21938 0
M  V30 65712 H 6135.48 3.80935 3.18123 0
M  V30 65713 H 6130.74 5.22258 3.17894 0
M  V30 65714 H 6134.91 6.20956 3.15257 0
M  V30 65715 H 6132.54 6.92011 3.14683 0
M  V30 65716 N 6134.12 -1.20532 1.01537 0
M  V30 65717 C 6135.03 -2.26951 0.594189 0
M  V30 65718 C 6136.04 -1.7007 -0.367711 0
M  V30 65719 O 6137.22 -2.00094 -0.228966 0
M  V30 65720 C 6134.28 -3.46644 -0.062172 0
M  V30 65721 C 6133.34 -4.18758 0.945516 0
M  V30 65722 C 6132.58 -5.32737 0.320382 0
M  V30 65723 O 6132.8 -5.63568 -0.880209 0
M  V30 65724 O 6131.73 -5.92908 1.0365 0
M  V30 65725 H 6135.56 -2.65191 1.48012 0
M  V30 65726 H 6133.14 -1.27127 0.784797 0
M  V30 65727 H 6135.03 -4.19213 -0.428804 0
M  V30 65728 H 6133.7 -3.10282 -0.922319 0
M  V30 65729 H 6132.61 -3.48367 1.36349 0
M  V30 65730 H 6133.94 -4.59057 1.77559 0
M  V30 65731 N 6135.59 -0.791442 -1.36286 0
M  V30 65732 C 6136.84 -0.361346 -1.98437 0
M  V30 65733 C 6137.16 1.07337 -1.63518 0
M  V30 65734 O 6138.36 1.60583 -2.18918 0
M  V30 65735 C 6136.82 -0.59513 -3.54945 0
M  V30 65736 C 6136.43 -2.04139 -3.98787 0
M  V30 65737 C 6138.17 -0.229639 -4.23878 0
M  V30 65738 C 6136.08 -2.22173 -5.48081 0
M  V30 65739 H 6135.01 -0.131369 -0.742468 0
M  V30 65740 H 6137.66 -0.973363 -1.55557 0
M  V30 65741 H 6136.04 0.0866266 -3.95905 0
M  V30 65742 H 6137.21 -2.75972 -3.69021 0
M  V30 65743 H 6135.53 -2.36532 -3.42697 0
M  V30 65744 H 6138.13 -0.34263 -5.33601 0
M  V30 65745 H 6138.47 0.822479 -4.08094 0
M  V30 65746 H 6139 -0.864712 -3.88288 0
M  V30 65747 H 6135.74 -3.25775 -5.68815 0
M  V30 65748 H 6135.26 -1.54848 -5.79467 0
M  V30 65749 H 6136.94 -2.02986 -6.14334 0
M  V30 65750 N 6137.07 1.47927 -0.543632 0
M  V30 65751 C 6138.3 2.07393 -0.0169634 0
M  V30 65752 C 6138.72 1.39561 1.26112 0
M  V30 65753 O 6138.08 0.466044 1.75208 0
M  V30 65754 C 6138.13 3.6017 0.175978 0
M  V30 65755 O 6137.23 3.93265 1.24164 0
M  V30 65756 H 6136.57 0.662457 -0.0452359 0
M  V30 65757 H 6139.1 1.90143 -0.755442 0
M  V30 65758 H 6139.11 4.06089 0.394412 0
M  V30 65759 H 6137.79 4.08942 -0.757589 0
M  V30 65760 H 6136.36 3.59108 1.00478 0
M  V30 65761 N 6138.55 0.279414 1.55103 0
M  V30 65762 C 6139.46 -0.61617 2.26364 0
M  V30 65763 C 6140.48 -1.16652 1.29106 0
M  V30 65764 O 6141.65 -1.1959 1.6205 0
M  V30 65765 C 6138.72 -1.78181 2.9741 0
M  V30 65766 C 6137.78 -1.2677 4.10156 0
M  V30 65767 C 6137.01 -2.37779 4.77804 0
M  V30 65768 O 6137.23 -3.57227 4.44686 0
M  V30 65769 O 6136.17 -2.05691 5.65663 0
M  V30 65770 H 6139.99 -0.0387647 3.03675 0
M  V30 65771 H 6137.58 0.0466583 1.49327 0
M  V30 65772 H 6139.46 -2.46138 3.42044 0
M  V30 65773 H 6138.14 -2.34622 2.23011 0
M  V30 65774 H 6137.04 -0.554478 3.69968 0
M  V30 65775 H 6138.38 -0.748986 4.86468 0
M  V30 65776 N 6140.03 -1.57599 0.00676391 0
M  V30 65777 C 6141.25 -1.95547 -0.691082 0
M  V30 65778 C 6141.68 -0.882073 -1.66136 0
M  V30 65779 O 6141.04 0.159179 -1.806 0
M  V30 65780 C 6141.08 -3.32595 -1.3933 0
M  V30 65781 O 6140.19 -3.27377 -2.50795 0
M  V30 65782 H 6139.53 -0.638194 -0.183314 0
M  V30 65783 H 6142.06 -2.04506 0.0619676 0
M  V30 65784 H 6142.07 -3.68316 -1.75519 0
M  V30 65785 H 6140.74 -4.10271 -0.681928 0
M  V30 65786 H 6139.32 -3.03342 -2.16883 0
M  V30 65787 N 6141.51 0.266091 -1.55337 0
M  V30 65788 C 6142.73 1.01908 -1.80636 0
M  V30 65789 C 6143.16 1.78895 -0.581235 0
M  V30 65790 O 6142.51 1.7512 0.469337 0
M  V30 65791 C 6142.56 1.94789 -3.03463 0
M  V30 65792 O 6141.67 3.03669 -2.79033 0
M  V30 65793 H 6141.01 0.290999 -0.596838 0
M  V30 65794 H 6143.54 0.292902 -2.02493 0
M  V30 65795 H 6143.55 2.36614 -3.32382 0
M  V30 65796 H 6142.22 1.38169 -3.92278 0
M  V30 65797 H 6140.8 2.66109 -2.61229 0
M  V30 65798 N 6142.98 1.48388 0.530914 0
M  V30 65799 C 6144.4 1.34488 0.859365 0
M  V30 65800 C 6144.6 0.355194 1.98345 0
M  V30 65801 O 6143.66 -0.223923 2.51505 0
M  V30 65802 C 6144.97 2.74493 1.22777 0
M  V30 65803 C 6146.52 2.82974 1.33771 0
M  V30 65804 C 6146.99 4.23679 1.73955 0
M  V30 65805 N 6148.48 4.26347 1.81059 0
M  V30 65806 C 6149.22 5.32156 2.13535 0
M  V30 65807 N 6148.71 6.48244 2.44442 0
M  V30 65808 N 6150.51 5.1955 2.14533 0
M  V30 65809 H 6142.66 2.11351 -0.210788 0
M  V30 65810 H 6144.92 0.947471 -0.0316616 0
M  V30 65811 H 6144.63 3.48472 0.475429 0
M  V30 65812 H 6144.5 3.07957 2.17812 0
M  V30 65813 H 6146.89 2.09251 2.08082 0
M  V30 65814 H 6146.97 2.53131 0.368588 0
M  V30 65815 H 6146.61 4.97917 1.00205 0
M  V30 65816 H 6146.54 4.50965 2.71915 0
M  V30 65817 H 6149.03 3.42611 1.59455 0
M  V30 65818 H 6149.35 7.24722 2.68325 0
M  V30 65819 H 6147.69 6.5152 2.41963 0
M  V30 65820 H 6150.88 4.27875 1.89844 0
M  V30 65821 H 6151.06 6.02112 2.39511 0
M  V30 65822 N 6144.46 -0.779715 1.36961 0
M  V30 65823 C 6145.69 -1.5687 1.34905 0
M  V30 65824 C 6146.1 -1.88679 -0.0674682 0
M  V30 65825 O 6145.46 -1.50856 -1.02707 0
M  V30 65826 C 6145.51 -2.88383 2.17985 0
M  V30 65827 O 6145.23 -2.57941 3.54116 0
M  V30 65828 C 6146.73 -3.82649 2.23819 0
M  V30 65829 H 6143.95 -0.486246 0.462391 0
M  V30 65830 H 6146.5 -0.967008 1.80192 0
M  V30 65831 H 6144.65 -3.44997 1.76227 0
M  V30 65832 H 6145.07 -3.42101 3.97576 0
M  V30 65833 H 6146.54 -4.71957 2.86288 0
M  V30 65834 H 6147.02 -4.21204 1.24435 0
M  V30 65835 H 6147.62 -3.31966 2.65854 0
M  V30 65836 N 6145.94 -1.21399 -1.00498 0
M  V30 65837 C 6146.87 -0.931056 -2.09437 0
M  V30 65838 C 6147.88 0.085734 -1.62574 0
M  V30 65839 O 6149.07 -0.146764 -1.77896 0
M  V30 65840 C 6146.17 -0.376463 -3.36803 0
M  V30 65841 C 6145.35 -1.44759 -4.12751 0
M  V30 65842 C 6144.41 -0.902233 -5.18407 0
M  V30 65843 O 6143.43 -1.58567 -5.46667 0
M  V30 65844 N 6144.63 0.282514 -5.79812 0
M  V30 65845 H 6147.4 -1.86887 -2.34293 0
M  V30 65846 H 6144.96 -1.11925 -1.16981 0
M  V30 65847 H 6146.95 0.00277841 -4.047 0
M  V30 65848 H 6145.52 0.466175 -3.09104 0
M  V30 65849 H 6144.74 -2.00068 -3.39657 0
M  V30 65850 H 6146.03 -2.16862 -4.6027 0
M  V30 65851 H 6145.43 0.854804 -5.59204 0
M  V30 65852 H 6143.98 0.603266 -6.49002 0
M  V30 65853 N 6147.42 1.19992 -1.02175 0
M  V30 65854 C 6148.66 1.90046 -0.724837 0
M  V30 65855 C 6149.02 1.77686 0.737938 0
M  V30 65856 O 6148.31 1.15368 1.52973 0
M  V30 65857 C 6148.51 3.39995 -1.10174 0
M  V30 65858 C 6148.33 3.66947 -2.59961 0
M  V30 65859 C 6147.1 3.85376 -3.26824 0
M  V30 65860 C 6149.3 3.69089 -3.58159 0
M  V30 65861 N 6147.28 3.99894 -4.65788 0
M  V30 65862 C 6148.66 3.89093 -4.82708 0
M  V30 65863 C 6150.71 3.52078 -3.52058 0
M  V30 65864 C 6149.41 3.93849 -6.01894 0
M  V30 65865 C 6151.44 3.58108 -4.70651 0
M  V30 65866 C 6150.8 3.78589 -5.94011 0
M  V30 65867 H 6146.9 0.714872 -0.31699 0
M  V30 65868 H 6149.48 1.44255 -1.30761 0
M  V30 65869 H 6147.66 3.84525 -0.547253 0
M  V30 65870 H 6149.39 3.97541 -0.757832 0
M  V30 65871 H 6146.14 3.8397 -2.77244 0
M  V30 65872 H 6146.57 4.11018 -5.37953 0
M  V30 65873 H 6151.21 3.35205 -2.57677 0
M  V30 65874 H 6148.93 4.09516 -6.96651 0
M  V30 65875 H 6152.51 3.46246 -4.67552 0
M  V30 65876 H 6151.39 3.8312 -6.84243 0
M  V30 65877 N 6148.9 0.798659 1.35865 0
M  V30 65878 C 6149.81 0.20484 2.33704 0
M  V30 65879 C 6150.82 -0.647944 1.61486 0
M  V30 65880 O 6152 -0.56156 1.93413 0
M  V30 65881 C 6149.06 -0.643105 3.40683 0
M  V30 65882 C 6148.12 0.229249 4.28687 0
M  V30 65883 C 6147.36 -0.578321 5.30557 0
M  V30 65884 O 6147.58 -1.81363 5.40799 0
M  V30 65885 O 6146.51 0.0266407 6.01894 0
M  V30 65886 H 6150.34 1.01402 2.86271 0
M  V30 65887 H 6147.93 0.560291 1.38496 0
M  V30 65888 H 6149.81 -1.12634 4.06068 0
M  V30 65889 H 6148.48 -1.43002 2.904 0
M  V30 65890 H 6147.39 0.759443 3.6631 0
M  V30 65891 H 6148.72 0.979906 4.82347 0
M  V30 65892 N 6150.37 -1.47637 0.551469 0
M  V30 65893 C 6151.32 -2.29937 -0.199433 0
M  V30 65894 C 6152.29 -1.38707 -0.913763 0
M  V30 65895 O 6153.48 -1.67669 -0.910584 0
M  V30 65896 C 6150.62 -3.22548 -1.22705 0
M  V30 65897 C 6149.73 -4.28867 -0.519376 0
M  V30 65898 C 6148.86 -5.08635 -1.53179 0
M  V30 65899 C 6147.9 -6.06733 -0.808768 0
M  V30 65900 N 6147.04 -6.79482 -1.76774 0
M  V30 65901 H 6151.88 -2.93629 0.508517 0
M  V30 65902 H 6149.42 -1.44737 0.262603 0
M  V30 65903 H 6151.38 -3.7466 -1.83538 0
M  V30 65904 H 6150.01 -2.60733 -1.90311 0
M  V30 65905 H 6149.06 -3.79856 0.20335 0
M  V30 65906 H 6150.37 -4.98778 0.0472977 0
M  V30 65907 H 6149.52 -5.64868 -2.2138 0
M  V30 65908 H 6148.26 -4.38613 -2.13238 0
M  V30 65909 H 6147.27 -5.49684 -0.112798 0
M  V30 65910 H 6148.49 -6.78763 -0.214 0
M  V30 65911 H 6146.44 -6.12194 -2.35701 0
M  V30 65912 H 6146.36 -7.45543 -1.25306 0
M  V30 65913 H 6147.62 -7.40292 -2.44107 0
M  V30 65914 N 6151.85 -0.287636 -1.54953 0
M  V30 65915 C 6153.26 0.207667 -1.85541 0
M  V30 65916 C 6153.61 1.54474 -1.20964 0
M  V30 65917 O 6152.74 2.10486 -0.502473 0
M  V30 65918 C 6153.33 0.383582 -3.36622 0
M  V30 65919 C 6151.89 0.82311 -3.6729 0
M  V30 65920 C 6151.04 -0.0763554 -2.77195 0
M  V30 65921 H 6153.99 -0.509057 -1.50314 0
M  V30 65922 H 6154.01 1.22024 -3.60403 0
M  V30 65923 H 6153.52 -0.58971 -3.83594 0
M  V30 65924 H 6151.63 1.80743 -3.25826 0
M  V30 65925 H 6151.74 0.651759 -4.74646 0
M  V30 65926 H 6150.1 0.442102 -2.50834 0
M  V30 65927 H 6150.89 -1.04576 -3.26984 0
M  V30 65928 N 6153.33 1.57593 -0.0151216 0
M  V30 65929 C 6154.26 2.06242 0.999839 0
M  V30 65930 C 6155.28 0.983157 1.29761 0
M  V30 65931 O 6156.46 1.25965 1.26472 0
M  V30 65932 C 6153.56 2.46019 2.33083 0
M  V30 65933 C 6152.74 3.76859 2.22027 0
M  V30 65934 C 6151.8 4.03338 3.37942 0
M  V30 65935 O 6150.82 4.73792 3.15452 0
M  V30 65936 N 6152.02 3.52415 4.61285 0
M  V30 65937 H 6154.79 2.93938 0.584848 0
M  V30 65938 H 6152.35 1.60984 0.171945 0
M  V30 65939 H 6154.34 2.60836 3.0943 0
M  V30 65940 H 6152.91 1.63763 2.66272 0
M  V30 65941 H 6152.13 3.71974 1.30496 0
M  V30 65942 H 6153.42 4.62608 2.11829 0
M  V30 65943 H 6152.82 2.95391 4.82453 0
M  V30 65944 H 6151.38 3.72535 5.34847 0
M  V30 65945 N 6154.81 -0.257849 1.55476 0
M  V30 65946 C 6156.05 -0.98887 1.77057 0
M  V30 65947 C 6156.39 -1.85385 0.57844 0
M  V30 65948 O 6155.66 -1.89831 -0.423607 0
M  V30 65949 C 6155.95 -1.85865 3.08425 0
M  V30 65950 C 6155.8 -1.02259 4.38022 0
M  V30 65951 C 6157.12 -2.8431 3.3594 0
M  V30 65952 H 6154.24 -0.35808 0.644164 0
M  V30 65953 H 6156.88 -0.260143 1.88211 0
M  V30 65954 H 6155.03 -2.47998 2.99047 0
M  V30 65955 H 6156.7 -0.420805 4.59377 0
M  V30 65956 H 6154.94 -0.326553 4.32569 0
M  V30 65957 H 6155.61 -1.66472 5.26299 0
M  V30 65958 H 6158.09 -2.32313 3.4521 0
M  V30 65959 H 6156.97 -3.42298 4.29096 0
M  V30 65960 H 6157.23 -3.60214 2.56317 0
M  V30 65961 N 6156.29 -1.48668 -0.523038 0
M  V30 65962 C 6157.23 -1.63706 -1.62693 0
M  V30 65963 C 6158.2 -0.478951 -1.59045 0
M  V30 65964 O 6159.39 -0.703292 -1.77365 0
M  V30 65965 C 6156.53 -1.68923 -3.0093 0
M  V30 65966 C 6155.64 -2.95889 -3.1476 0
M  V30 65967 C 6154.78 -2.92222 -4.43599 0
M  V30 65968 C 6153.82 -4.13862 -4.50982 0
M  V30 65969 N 6152.95 -4.08233 -5.71218 0
M  V30 65970 H 6157.79 -2.57972 -1.49179 0
M  V30 65971 H 6155.33 -1.27926 -0.726172 0
M  V30 65972 H 6157.29 -1.69929 -3.81025 0
M  V30 65973 H 6155.92 -0.781419 -3.13199 0
M  V30 65974 H 6154.97 -3.04596 -2.27872 0
M  V30 65975 H 6156.28 -3.85872 -3.16076 0
M  V30 65976 H 6155.44 -2.91668 -5.31991 0
M  V30 65977 H 6154.17 -1.99979 -4.44814 0
M  V30 65978 H 6153.18 -4.14684 -3.60995 0
M  V30 65979 H 6154.4 -5.07272 -4.51499 0
M  V30 65980 H 6152.35 -3.18814 -5.73318 0
M  V30 65981 H 6152.27 -4.91928 -5.74058 0
M  V30 65982 H 6153.54 -4.11748 -6.61879 0
M  V30 65983 N 6157.76 0.772441 -1.37372 0
M  V30 65984 C 6158.67 1.91675 -1.3527 0
M  V30 65985 C 6159.69 1.7216 -0.252382 0
M  V30 65986 O 6160.87 1.95407 -0.487649 0
M  V30 65987 C 6157.93 3.26788 -1.15803 0
M  V30 65988 C 6156.99 3.58962 -2.35468 0
M  V30 65989 C 6156.23 4.87628 -2.1692 0
M  V30 65990 O 6156.45 5.58623 -1.15311 0
M  V30 65991 O 6155.38 5.18848 -3.05091 0
M  V30 65992 H 6159.21 1.964 -2.31648 0
M  V30 65993 H 6156.79 0.915095 -1.18095 0
M  V30 65994 H 6158.68 4.07607 -1.06932 0
M  V30 65995 H 6157.35 3.22917 -0.224985 0
M  V30 65996 H 6156.26 2.7838 -2.49911 0
M  V30 65997 H 6157.59 3.67575 -3.27337 0
M  V30 65998 N 6159.24 1.21931 0.998532 0
M  V30 65999 C 6160.47 1.06741 1.77823 0
M  V30 66000 C 6160.89 -0.37809 1.84261 0
M  V30 66001 O 6160.25 -1.27296 1.29095 0
M  V30 66002 C 6160.3 1.67673 3.19246 0
M  V30 66003 O 6159.4 0.926589 4.01856 0
M  V30 66004 H 6158.74 0.375261 0.547792 0
M  V30 66005 H 6161.27 1.6161 1.25473 0
M  V30 66006 H 6161.28 1.72164 3.69897 0
M  V30 66007 H 6159.96 2.72865 3.13875 0
M  V30 66008 H 6158.54 0.957272 3.60404 0
M  V30 66009 N 6160.72 -1.19449 1.02809 0
M  V30 66010 C 6161.67 -2.22642 0.608212 0
M  V30 66011 C 6162.64 -1.61751 -0.377582 0
M  V30 66012 O 6163.82 -1.88816 -0.274421 0
M  V30 66013 C 6160.96 -3.45082 -0.0356376 0
M  V30 66014 C 6160.08 -4.20359 0.996103 0
M  V30 66015 C 6159.21 -5.30223 0.322098 0
M  V30 66016 C 6158.25 -5.97257 1.3398 0
M  V30 66017 N 6157.39 -6.98685 0.69166 0
M  V30 66018 H 6162.23 -2.57915 1.49277 0
M  V30 66019 H 6159.76 -1.2672 0.74703 0
M  V30 66020 H 6161.72 -4.15018 -0.426163 0
M  V30 66021 H 6160.35 -3.10466 -0.88378 0
M  V30 66022 H 6159.4 -3.49375 1.50469 0
M  V30 66023 H 6160.72 -4.66354 1.76962 0
M  V30 66024 H 6159.87 -6.06575 -0.123315 0
M  V30 66025 H 6158.61 -4.85296 -0.483621 0
M  V30 66026 H 6157.61 -5.19656 1.79549 0
M  V30 66027 H 6158.84 -6.44267 2.147 0
M  V30 66028 H 6156.78 -6.55933 -0.0939815 0
M  V30 66029 H 6156.7 -7.42866 1.40307 0
M  V30 66030 H 6157.97 -7.79031 0.270222 0
M  V30 66031 N 6162.2 -0.805853 -1.35439 0
M  V30 66032 C 6163.61 -0.489501 -1.51908 0
M  V30 66033 C 6163.81 0.989424 -1.75535 0
M  V30 66034 O 6162.87 1.77447 -1.79635 0
M  V30 66035 C 6164.18 -1.33422 -2.69479 0
M  V30 66036 C 6165.73 -1.32959 -2.83356 0
M  V30 66037 C 6166.21 -2.15841 -4.03951 0
M  V30 66038 N 6167.7 -2.13374 -4.11127 0
M  V30 66039 C 6168.43 -2.74263 -5.03555 0
M  V30 66040 N 6167.93 -3.44076 -6.01318 0
M  V30 66041 N 6169.72 -2.63908 -4.96295 0
M  V30 66042 H 6161.87 -1.76366 -1.18359 0
M  V30 66043 H 6164.14 -0.750614 -0.579036 0
M  V30 66044 H 6163.84 -2.38373 -2.58595 0
M  V30 66045 H 6163.72 -0.986937 -3.6406 0
M  V30 66046 H 6166.1 -0.287941 -2.93692 0
M  V30 66047 H 6166.18 -1.71675 -1.89635 0
M  V30 66048 H 6165.83 -3.20046 -3.94376 0
M  V30 66049 H 6165.76 -1.74487 -4.96852 0
M  V30 66050 H 6168.25 -1.62578 -3.41141 0
M  V30 66051 H 6168.56 -3.87825 -6.6844 0
M  V30 66052 H 6166.91 -3.4818 -6.01494 0
M  V30 66053 H 6170.1 -2.08956 -4.18873 0
M  V30 66054 H 6170.27 -3.11651 -5.68135 0
M  V30 66055 N 6163.68 1.47342 -0.559291 0
M  V30 66056 C 6164.61 2.28095 0.224745 0
M  V30 66057 C 6165.62 1.3713 0.877444 0
M  V30 66058 O 6166.81 1.61935 0.750945 0
M  V30 66059 C 6163.91 3.11455 1.336 0
M  V30 66060 C 6163.08 4.30395 0.779694 0
M  V30 66061 C 6162.14 4.95334 1.7757 0
M  V30 66062 O 6161.17 5.53659 1.32099 0
M  V30 66063 N 6162.37 4.90217 3.10914 0
M  V30 66064 H 6165.14 2.96024 -0.467964 0
M  V30 66065 H 6162.7 1.56995 -0.395503 0
M  V30 66066 H 6164.69 3.51765 2.00108 0
M  V30 66067 H 6163.26 2.45756 1.93191 0
M  V30 66068 H 6162.48 3.94151 -0.0622247 0
M  V30 66069 H 6163.77 5.07323 0.387403 0
M  V30 66070 H 6163.17 4.44035 3.50499 0
M  V30 66071 H 6161.72 5.3454 3.72975 0
M  V30 66072 N 6165.16 0.295849 1.54798 0
M  V30 66073 C 6166.4 -0.314936 2.00036 0
M  V30 66074 C 6166.73 -1.54291 1.18426 0
M  V30 66075 O 6165.99 -1.94133 0.247169 0
M  V30 66076 C 6166.28 -0.721102 3.5005 0
M  V30 66077 C 6165.95 0.404553 4.49081 0
M  V30 66078 C 6164.61 0.713586 4.7588 0
M  V30 66079 C 6166.96 1.16203 5.08081 0
M  V30 66080 C 6164.29 1.78331 5.58941 0
M  V30 66081 C 6166.64 2.22163 5.92306 0
M  V30 66082 C 6165.31 2.53678 6.17417 0
M  V30 66083 H 6164.58 -0.115243 0.731984 0
M  V30 66084 H 6167.23 0.413876 1.86974 0
M  V30 66085 H 6165.53 -1.52992 3.60695 0
M  V30 66086 H 6167.23 -1.20478 3.82474 0
M  V30 66087 H 6163.82 0.153586 4.28325 0
M  V30 66088 H 6168 0.936537 4.87384 0
M  V30 66089 H 6163.26 2.03226 5.76636 0
M  V30 66090 H 6167.43 2.81318 6.3705 0
M  V30 66091 H 6165.06 3.367 6.81569 0
M  V30 66092 N 6166.63 -1.57583 0.023479 0
M  V30 66093 C 6167.88 -1.90745 -0.655696 0
M  V30 66094 C 6168.2 -0.900975 -1.73614 0
M  V30 66095 O 6169.4 -1.12364 -2.47157 0
M  V30 66096 C 6167.86 -3.38681 -1.21751 0
M  V30 66097 C 6167.47 -4.47675 -0.170654 0
M  V30 66098 C 6169.21 -3.80919 -1.87353 0
M  V30 66099 C 6167.12 -5.86704 -0.74379 0
M  V30 66100 H 6166.05 -0.711812 -0.248676 0
M  V30 66101 H 6168.7 -1.8329 0.0878599 0
M  V30 66102 H 6167.08 -3.41049 -2.0125 0
M  V30 66103 H 6168.25 -4.56858 0.601459 0
M  V30 66104 H 6166.57 -4.14605 0.386273 0
M  V30 66105 H 6169.17 -4.82141 -2.3118 0
M  V30 66106 H 6169.51 -3.15678 -2.7139 0
M  V30 66107 H 6170.04 -3.8095 -1.14553 0
M  V30 66108 H 6166.78 -6.55474 0.058328 0
M  V30 66109 H 6166.3 -5.81139 -1.48452 0
M  V30 66110 H 6167.98 -6.35099 -1.23527 0
M  V30 66111 N 6168.11 0.2496 -1.55611 0
M  V30 66112 C 6169.36 0.978018 -1.77316 0
M  V30 66113 C 6169.69 1.85421 -0.587318 0
M  V30 66114 O 6168.94 1.9093 0.42946 0
M  V30 66115 C 6169.24 1.87127 -3.04497 0
M  V30 66116 C 6168.91 1.15066 -4.35971 0
M  V30 66117 C 6167.57 0.951494 -4.71699 0
M  V30 66118 C 6169.92 0.639695 -5.17259 0
M  V30 66119 C 6167.25 0.229021 -5.86253 0
M  V30 66120 C 6169.6 -0.069298 -6.32562 0
M  V30 66121 C 6168.26 -0.279965 -6.66913 0
M  V30 66122 H 6167.53 0.357882 -0.648846 0
M  V30 66123 H 6170.18 0.248335 -1.89883 0
M  V30 66124 H 6168.49 2.66792 -2.86931 0
M  V30 66125 H 6170.18 2.43651 -3.18489 0
M  V30 66126 H 6166.77 1.31583 -4.07902 0
M  V30 66127 H 6170.96 0.781118 -4.90115 0
M  V30 66128 H 6166.21 0.0553022 -6.11375 0
M  V30 66129 H 6170.39 -0.472872 -6.94793 0
M  V30 66130 H 6168.01 -0.841748 -7.55525 0
M  V30 66131 N 6169.59 1.48943 0.515146 0
M  V30 66132 C 6170.87 1.48209 1.27645 0
M  V30 66133 C 6171.25 0.20194 2.10132 0
M  V30 66134 O 6170.59 -0.81604 2.13432 0
M  V30 66135 C 6170.8 2.75281 2.14526 0
M  V30 66136 C 6172.15 3.24207 2.7418 0
M  V30 66137 O 6173.18 2.76301 2.24803 0
M  V30 66138 O 6172.04 4.07606 3.64032 0
M  V30 66139 H 6169.13 0.592566 0.576884 0
M  V30 66140 H 6171.68 1.61192 0.530579 0
M  V30 66141 H 6170.45 3.59954 1.53456 0
M  V30 66142 H 6170.07 2.6509 2.96332 0
M  V30 66143 N 6171.07 -0.765145 1.3778 0
M  V30 66144 C 6172.31 -1.52618 1.3355 0
M  V30 66145 C 6172.65 -1.94044 -0.0779238 0
M  V30 66146 O 6171.92 -1.6457 -1.03668 0
M  V30 66147 C 6172.2 -2.78671 2.28066 0
M  V30 66148 C 6172.06 -2.43458 3.78217 0
M  V30 66149 C 6173.38 -3.80638 2.20913 0
M  V30 66150 H 6170.5 -0.553661 0.486445 0
M  V30 66151 H 6173.14 -0.877267 1.68535 0
M  V30 66152 H 6171.29 -3.34043 1.98362 0
M  V30 66153 H 6172.96 -1.9395 4.18546 0
M  V30 66154 H 6171.2 -1.76067 3.96463 0
M  V30 66155 H 6171.87 -3.33594 4.39795 0
M  V30 66156 H 6174.35 -3.34777 2.4711 0
M  V30 66157 H 6173.23 -4.6655 2.89176 0
M  V30 66158 H 6173.49 -4.25384 1.20418 0
M  V30 66159 N 6172.55 -1.22459 -0.992051 0
M  V30 66160 C 6173.79 -1.05121 -1.73428 0
M  V30 66161 C 6174.12 0.412575 -1.89767 0
M  V30 66162 O 6173.4 1.30585 -1.44145 0
M  V30 66163 C 6173.68 -1.76396 -3.13937 0
M  V30 66164 C 6173.54 -3.30375 -3.05241 0
M  V30 66165 C 6174.85 -1.51703 -4.13127 0
M  V30 66166 H 6171.97 -0.383283 -0.629494 0
M  V30 66167 H 6174.62 -1.50809 -1.15571 0
M  V30 66168 H 6172.77 -1.37556 -3.63332 0
M  V30 66169 H 6174.44 -3.78664 -2.6346 0
M  V30 66170 H 6172.68 -3.60009 -2.42025 0
M  V30 66171 H 6173.35 -3.75424 -4.04674 0
M  V30 66172 H 6175.83 -1.85442 -3.72492 0
M  V30 66173 H 6174.7 -2.04067 -5.09556 0
M  V30 66174 H 6174.96 -0.449809 -4.39806 0
M  V30 66175 N 6174.02 1.18902 -1.03441 0
M  V30 66176 C 6174.97 2.2436 -0.613636 0
M  V30 66177 C 6175.97 1.65607 0.356483 0
M  V30 66178 O 6177.17 1.78595 0.224457 0
M  V30 66179 H 6173.55 0.730091 -0.180196 0
M  V30 66180 H 6175.52 2.57163 -1.5136 0
M  V30 66181 C 6174.27 3.47697 0.0139903 0
M  V30 66182 H 6173.59 3.93198 -0.723533 0
M  V30 66183 H 6175.03 4.23131 0.271275 0
M  V30 66184 C 6173.49 3.12362 1.26221 0
M  V30 66185 O 6174.02 3.25523 2.35367 0
M  V30 66186 N 6172.22 2.66744 1.15309 0
M  V30 66187 H 6171.77 2.56234 0.26492 0
M  V30 66188 H 6171.73 2.43473 1.98918 0
M  V30 66189 N 6175.5 0.813024 1.3501 0
M  V30 66190 C 6176.41 0.229616 2.33474 0
M  V30 66191 C 6177.43 -0.63078 1.62164 0
M  V30 66192 O 6178.6 -0.541015 1.93997 0
M  V30 66193 C 6175.67 -0.606935 3.41346 0
M  V30 66194 C 6174.73 0.274704 4.2842 0
M  V30 66195 C 6173.96 -0.522016 5.31141 0
M  V30 66196 O 6174.19 -1.75617 5.42692 0
M  V30 66197 O 6173.12 0.0904781 6.01832 0
M  V30 66198 H 6176.95 1.04433 2.8518 0
M  V30 66199 H 6174.53 0.574948 1.37894 0
M  V30 66200 H 6176.41 -1.0832 4.0724 0
M  V30 66201 H 6175.09 -1.39914 2.919 0
M  V30 66202 H 6173.99 0.798252 3.65484 0
M  V30 66203 H 6175.33 1.03101 4.81281 0
M  V30 66204 N 6176.98 -1.47043 0.567097 0
M  V30 66205 C 6178.23 -2.02046 0.0466587 0
M  V30 66206 C 6178.55 -1.44276 -1.31185 0
M  V30 66207 O 6177.82 -0.621599 -1.85777 0
M  V30 66208 H 6176.4 -0.746864 0.0142586 0
M  V30 66209 H 6179.06 -1.80332 0.739345 0
M  V30 66210 H 6178.16 -3.12081 -0.0340526 0
M  V30 66211 N 6178.46 -0.304054 -1.54639 0
M  V30 66212 C 6179.71 0.303722 -1.99805 0
M  V30 66213 C 6180.03 1.54175 -1.19395 0
M  V30 66214 O 6179.3 1.93731 -0.290699 0
M  V30 66215 H 6177.88 0.115215 -0.738061 0
M  V30 66216 H 6180.54 -0.416091 -1.90407 0
M  V30 66217 H 6179.64 0.573651 -3.06783 0
M  V30 66218 N 6179.94 1.57568 -0.0318356 0
M  V30 66219 C 6180.85 2.13846 0.964736 0
M  V30 66220 C 6181.86 1.09139 1.35516 0
M  V30 66221 O 6183.04 1.4121 1.43603 0
M  V30 66222 C 6180.1 2.65662 2.22766 0
M  V30 66223 C 6179.16 3.85094 1.8974 0
M  V30 66224 C 6178.4 4.34429 3.10011 0
M  V30 66225 O 6178.62 3.82925 4.22758 0
M  V30 66226 O 6177.55 5.26243 2.92151 0
M  V30 66227 H 6181.38 2.99281 0.516196 0
M  V30 66228 H 6178.97 1.48201 0.18893 0
M  V30 66229 H 6180.85 2.99046 2.969 0
M  V30 66230 H 6179.52 1.83308 2.66795 0
M  V30 66231 H 6178.43 3.56632 1.12981 0
M  V30 66232 H 6179.76 4.68619 1.50524 0
M  V30 66233 N 6181.41 -0.241344 1.55741 0
M  V30 66234 C 6182.36 -1.29889 1.90781 0
M  V30 66235 C 6183.33 -1.47555 0.762672 0
M  V30 66236 O 6184.52 -1.61448 1.01682 0
M  V30 66237 C 6181.66 -2.64822 2.21276 0
M  V30 66238 C 6180.77 -2.55118 3.48624 0
M  V30 66239 C 6179.9 -3.82442 3.68662 0
M  V30 66240 C 6178.94 -3.67378 4.89592 0
M  V30 66241 N 6178.08 -4.86606 5.06122 0
M  V30 66242 H 6182.92 -0.993067 2.80967 0
M  V30 66243 H 6180.46 -0.479091 1.3908 0
M  V30 66244 H 6182.42 -3.43372 2.36963 0
M  V30 66245 H 6181.05 -2.93541 1.34288 0
M  V30 66246 H 6180.1 -1.68108 3.41239 0
M  V30 66247 H 6181.41 -2.399 4.37321 0
M  V30 66248 H 6180.56 -4.69435 3.84338 0
M  V30 66249 H 6179.3 -4.00564 2.78209 0
M  V30 66250 H 6178.31 -2.78768 4.73886 0
M  V30 66251 H 6179.53 -3.50746 5.8151 0
M  V30 66252 H 6177.48 -5.05079 4.18607 0
M  V30 66253 H 6177.4 -4.74039 5.88917 0
M  V30 66254 H 6178.66 -5.75082 5.26214 0
M  V30 66255 N 6182.89 -1.49214 -0.50724 0
M  V30 66256 C 6183.8 -1.68146 -1.63597 0
M  V30 66257 C 6184.82 -0.564017 -1.64605 0
M  V30 66258 O 6185.99 -0.837949 -1.8314 0
M  V30 66259 C 6183.06 -1.73804 -2.99989 0
M  V30 66260 C 6182.12 -2.9734 -3.09657 0
M  V30 66261 C 6181.35 -3.02718 -4.39542 0
M  V30 66262 O 6181.58 -2.15862 -5.27977 0
M  V30 66263 O 6180.51 -3.95121 -4.54052 0
M  V30 66264 H 6184.34 -2.63755 -1.50556 0
M  V30 66265 H 6181.92 -1.32882 -0.682846 0
M  V30 66266 H 6183.8 -1.79914 -3.81063 0
M  V30 66267 H 6182.48 -0.813732 -3.13305 0
M  V30 66268 H 6181.39 -2.96751 -2.27793 0
M  V30 66269 H 6182.72 -3.8923 -3.01265 0
M  V30 66270 N 6184.37 0.757827 -1.38184 0
M  V30 66271 C 6185.32 1.87148 -1.35072 0
M  V30 66272 C 6186.29 1.64716 -0.21395 0
M  V30 66273 O 6187.47 1.86441 -0.405514 0
M  V30 66274 C 6184.61 3.24394 -1.1774 0
M  V30 66275 C 6183.73 3.58686 -2.40767 0
M  V30 66276 C 6182.86 4.85213 -2.16198 0
M  V30 66277 C 6181.9 5.12278 -3.35019 0
M  V30 66278 N 6181.04 6.29999 -3.09912 0
M  V30 66279 H 6185.88 1.89143 -2.3028 0
M  V30 66280 H 6183.41 0.924531 -1.14415 0
M  V30 66281 H 6185.37 4.03586 -1.05708 0
M  V30 66282 H 6184 3.21737 -0.261719 0
M  V30 66283 H 6183.05 2.7437 -2.63487 0
M  V30 66284 H 6184.37 3.74617 -3.29338 0
M  V30 66285 H 6183.52 5.72339 -2.01278 0
M  V30 66286 H 6182.26 4.71413 -1.24986 0
M  V30 66287 H 6181.26 4.23622 -3.50463 0
M  V30 66288 H 6182.49 5.27978 -4.27101 0
M  V30 66289 H 6180.43 6.1753 -2.21343 0
M  V30 66290 H 6180.35 6.46411 -3.92032 0
M  V30 66291 H 6181.62 7.20024 -2.98639 0
M  V30 66292 N 6185.85 1.22983 0.985543 0
M  V30 66293 C 6186.78 0.949688 2.075 0
M  V30 66294 C 6187.76 -0.110121 1.62227 0
M  V30 66295 O 6188.94 0.0230403 1.88486 0
M  V30 66296 C 6186.07 0.429744 3.35963 0
M  V30 66297 C 6185.12 1.47537 4.00169 0
M  V30 66298 S 6185.95 3.05111 4.40077 0
M  V30 66299 C 6187.11 2.54773 5.717 0
M  V30 66300 H 6187.34 1.87223 2.30944 0
M  V30 66301 H 6184.87 1.0617 1.12103 0
M  V30 66302 H 6186.83 0.136356 4.10273 0
M  V30 66303 H 6185.49 -0.471797 3.10536 0
M  V30 66304 H 6184.68 1.06159 4.92693 0
M  V30 66305 H 6184.29 1.71784 3.32214 0
M  V30 66306 H 6186.58 1.96473 6.48386 0
M  V30 66307 H 6187.52 3.45816 6.17913 0
M  V30 66308 H 6187.93 1.95804 5.29454 0
M  V30 66309 N 6187.33 -1.18352 1.04071 0
M  V30 66310 C 6188.24 -2.25639 0.642194 0
M  V30 66311 C 6189.25 -1.70812 -0.331554 0
M  V30 66312 O 6190.43 -2.00535 -0.186471 0
M  V30 66313 C 6187.49 -3.46698 0.0113703 0
M  V30 66314 C 6186.55 -4.16658 1.03413 0
M  V30 66315 C 6185.79 -5.31938 0.433312 0
M  V30 66316 O 6186.01 -5.65308 -0.76047 0
M  V30 66317 O 6184.94 -5.90576 1.16203 0
M  V30 66318 H 6188.77 -2.61992 1.53604 0
M  V30 66319 H 6186.36 -1.25434 0.811586 0
M  V30 66320 H 6188.24 -4.20028 -0.339787 0
M  V30 66321 H 6186.91 -3.12169 -0.856296 0
M  V30 66322 H 6185.82 -3.45397 1.43708 0
M  V30 66323 H 6187.15 -4.55188 1.87256 0
M  V30 66324 N 6188.8 -0.820173 -1.34577 0
M  V30 66325 C 6189.73 -0.254791 -2.32106 0
M  V30 66326 C 6190.72 0.627244 -1.58113 0
M  V30 66327 O 6191.9 0.554694 -1.8611 0
M  V30 66328 C 6189.03 0.58642 -3.42313 0
M  V30 66329 C 6187.98 -0.198247 -4.27541 0
M  V30 66330 C 6187.31 0.765532 -5.29192 0
M  V30 66331 C 6188.61 -1.40489 -5.03051 0
M  V30 66332 H 6190.3 -1.06965 -2.79641 0
M  V30 66333 H 6187.85 -0.515804 -1.34445 0
M  V30 66334 H 6189.8 0.992115 -4.09555 0
M  V30 66335 H 6188.53 1.4343 -2.9342 0
M  V30 66336 H 6187.19 -0.585276 -3.61898 0
M  V30 66337 H 6186.83 1.60929 -4.76562 0
M  V30 66338 H 6186.53 0.244747 -5.8709 0
M  V30 66339 H 6188.06 1.16914 -5.99302 0
M  V30 66340 H 6189.47 -1.07336 -5.63162 0
M  V30 66341 H 6187.87 -1.86113 -5.7051 0
M  V30 66342 H 6188.94 -2.18452 -4.32905 0
M  V30 66343 N 6190.28 1.46741 -0.574887 0
M  V30 66344 C 6191.53 2.02418 -0.0574866 0
M  V30 66345 C 6191.86 1.44728 1.29939 0
M  V30 66346 O 6191.11 0.599214 1.86301 0
M  V30 66347 C 6191.41 3.57338 0.0665003 0
M  V30 66348 C 6191.08 4.34032 -1.22177 0
M  V30 66349 C 6189.74 4.54704 -1.57473 0
M  V30 66350 C 6192.09 4.7813 -2.07465 0
M  V30 66351 C 6189.42 5.16725 -2.77871 0
M  V30 66352 C 6191.77 5.4148 -3.27081 0
M  V30 66353 C 6190.44 5.60381 -3.62669 0
M  V30 66354 H 6189.71 0.740701 -0.0210358 0
M  V30 66355 H 6192.35 1.76204 -0.749954 0
M  V30 66356 H 6190.66 3.82644 0.842048 0
M  V30 66357 H 6192.35 3.98087 0.482465 0
M  V30 66358 H 6188.94 4.18233 -0.936973 0
M  V30 66359 H 6193.13 4.61921 -1.815 0
M  V30 66360 H 6188.38 5.29551 -3.05591 0
M  V30 66361 H 6192.56 5.74609 -3.93442 0
M  V30 66362 H 6190.19 6.0821 -4.56054 0
M  V30 66363 N 6191.76 0.312251 1.54476 0
M  V30 66364 C 6193.01 -0.294137 2.00656 0
M  V30 66365 C 6193.34 -1.5267 1.20023 0
M  V30 66366 O 6192.61 -1.9248 0.279584 0
M  V30 66367 C 6192.9 -0.639553 3.54375 0
M  V30 66368 C 6192.75 0.602929 4.45741 0
M  V30 66369 C 6194.07 -1.46166 4.15118 0
M  V30 66370 H 6191.19 -0.105434 0.729419 0
M  V30 66371 H 6193.83 0.426585 1.85149 0
M  V30 66372 H 6191.98 -1.25358 3.67719 0
M  V30 66373 H 6193.65 1.24131 4.44285 0
M  V30 66374 H 6191.9 1.23401 4.15878 0
M  V30 66375 H 6192.57 0.316942 5.51089 0
M  V30 66376 H 6195.04 -0.942745 4.0528 0
M  V30 66377 H 6193.92 -1.67212 5.22811 0
M  V30 66378 H 6194.18 -2.45435 3.67715 0
M  V30 66379 N 6193.24 -1.57549 0.0401914 0
M  V30 66380 C 6194.19 -2.12052 -0.955868 0
M  V30 66381 C 6195.18 -1.04969 -1.32958 0
M  V30 66382 O 6196.39 -1.23391 -1.31052 0
M  V30 66383 H 6192.76 -0.677628 -0.326075 0
M  V30 66384 H 6194.73 -2.9466 -0.470972 0
M  V30 66385 C 6193.48 -2.67165 -2.22527 0
M  V30 66386 H 6192.81 -3.49217 -1.94648 0
M  V30 66387 H 6194.25 -3.08934 -2.90406 0
M  V30 66388 C 6192.7 -1.60424 -2.96253 0
M  V30 66389 O 6193.23 -1.01055 -3.88781 0
M  V30 66390 N 6191.44 -1.32205 -2.58786 0
M  V30 66391 H 6190.99 -1.8067 -1.8362 0
M  V30 66392 H 6190.95 -0.610131 -3.08423 0
M  V30 66393 N 6194.72 0.233081 -1.55867 0
M  V30 66394 C 6195.96 0.959156 -1.78344 0
M  V30 66395 C 6196.29 1.84787 -0.606951 0
M  V30 66396 O 6195.55 1.91374 0.409186 0
M  V30 66397 C 6195.85 1.83887 -3.06464 0
M  V30 66398 C 6195.51 1.10435 -4.37167 0
M  V30 66399 C 6194.17 0.90141 -4.72682 0
M  V30 66400 C 6196.53 0.584797 -5.17909 0
M  V30 66401 C 6193.85 0.166828 -5.86463 0
M  V30 66402 C 6196.21 -0.136386 -6.32453 0
M  V30 66403 C 6194.87 -0.350685 -6.66578 0
M  V30 66404 H 6194.14 0.35098 -0.652606 0
M  V30 66405 H 6196.79 0.228182 -1.90136 0
M  V30 66406 H 6195.09 2.63734 -2.89744 0
M  V30 66407 H 6196.79 2.40259 -3.21055 0
M  V30 66408 H 6193.38 1.27249 -4.09275 0
M  V30 66409 H 6197.56 0.72909 -4.90915 0
M  V30 66410 H 6192.82 -0.00954536 -6.11399 0
M  V30 66411 H 6196.99 -0.546538 -6.94252 0
M  V30 66412 H 6194.62 -0.921834 -7.5459 0
M  V30 66413 N 6196.2 1.49481 0.49932 0
M  V30 66414 C 6197.44 1.60671 1.26349 0
M  V30 66415 C 6197.8 0.287707 1.89832 0
M  V30 66416 O 6199 0.274808 2.67392 0
M  V30 66417 C 6197.27 2.73497 2.30075 0
M  V30 66418 S 6198.83 3.04648 3.15808 0
M  V30 66419 H 6195.65 0.566711 0.429371 0
M  V30 66420 H 6198.25 1.87147 0.56537 0
M  V30 66421 H 6196.95 3.67852 1.81969 0
M  V30 66422 H 6196.49 2.4902 3.04553 0
M  V30 66423 H 6198.5 2.46299 4.30756 0
M  V30 66424 N 6197.67 -0.750488 1.38584 0
M  V30 66425 C 6198.58 -1.89498 1.38302 0
M  V30 66426 C 6199.6 -1.71737 0.279739 0
M  V30 66427 O 6200.78 -1.94607 0.518675 0
M  V30 66428 C 6197.84 -3.24905 1.20987 0
M  V30 66429 C 6196.9 -3.5517 2.41149 0
M  V30 66430 C 6196.13 -4.84116 2.2465 0
M  V30 66431 O 6196.36 -5.56718 1.24183 0
M  V30 66432 O 6195.29 -5.13929 3.13306 0
M  V30 66433 H 6199.12 -1.92689 2.34743 0
M  V30 66434 H 6196.7 -0.896191 1.19536 0
M  V30 66435 H 6198.58 -4.05854 1.13404 0
M  V30 66436 H 6197.26 -3.22518 0.27633 0
M  V30 66437 H 6196.17 -2.74369 2.54308 0
M  V30 66438 H 6197.5 -3.6232 3.33144 0
M  V30 66439 N 6199.15 -1.23504 -0.979007 0
M  V30 66440 C 6200.43 -0.976183 -1.69499 0
M  V30 66441 C 6200.81 0.504811 -2.04975 0
M  V30 66442 O 6200.16 1.47636 -1.74402 0
M  V30 66443 C 6200.37 -1.8878 -2.93536 0
M  V30 66444 C 6201.71 -2.15208 -3.6602 0
M  V30 66445 O 6202.74 -1.86341 -3.03571 0
M  V30 66446 O 6201.6 -2.64174 -4.78408 0
M  V30 66447 H 6198.69 -0.368276 -0.740474 0
M  V30 66448 H 6201.24 -1.34552 -1.03411 0
M  V30 66449 H 6200.01 -2.88892 -2.63927 0
M  V30 66450 H 6199.63 -1.52092 -3.67361 0
M  V30 66451 N 6200.63 1.17798 -1.04697 0
M  V30 66452 C 6201.86 1.91865 -0.774314 0
M  V30 66453 C 6202.27 1.76536 0.669363 0
M  V30 66454 O 6201.63 1.0992 1.45684 0
M  V30 66455 C 6201.68 3.43082 -1.13916 0
M  V30 66456 O 6201.4 3.57934 -2.52616 0
M  V30 66457 C 6202.9 4.34235 -0.89192 0
M  V30 66458 H 6200.12 0.60891 -0.281904 0
M  V30 66459 H 6202.67 1.4941 -1.39632 0
M  V30 66460 H 6200.82 3.83302 -0.561998 0
M  V30 66461 H 6201.24 4.51589 -2.66772 0
M  V30 66462 H 6202.71 5.38866 -1.19699 0
M  V30 66463 H 6203.19 4.38859 0.173075 0
M  V30 66464 H 6203.79 3.99721 -1.45268 0
M  V30 66465 N 6202.11 0.827298 1.3414 0
M  V30 66466 C 6203.36 0.413831 1.97409 0
M  V30 66467 C 6203.67 -1.02964 1.66306 0
M  V30 66468 O 6204.88 -1.54723 2.23099 0
M  V30 66469 C 6203.33 0.689028 3.53243 0
M  V30 66470 C 6202.94 2.14641 3.93234 0
M  V30 66471 C 6204.68 0.341942 4.23121 0
M  V30 66472 C 6202.59 2.36626 5.41998 0
M  V30 66473 H 6201.52 0.151008 0.738724 0
M  V30 66474 H 6204.17 1.01426 1.52921 0
M  V30 66475 H 6202.55 0.0183711 3.95996 0
M  V30 66476 H 6203.73 2.85659 3.61574 0
M  V30 66477 H 6202.04 2.45535 3.36306 0
M  V30 66478 H 6204.64 0.483984 5.32505 0
M  V30 66479 H 6204.98 -0.713991 4.10132 0
M  V30 66480 H 6205.52 0.967356 3.85859 0
M  V30 66481 H 6202.25 3.40741 5.59978 0
M  V30 66482 H 6201.77 1.70157 5.75158 0
M  V30 66483 H 6203.45 2.19202 6.08736 0
M  V30 66484 N 6203.59 -1.46434 0.582661 0
M  V30 66485 C 6204.83 -2.02385 0.0682205 0
M  V30 66486 C 6205.16 -1.45415 -1.2917 0
M  V30 66487 O 6204.42 -0.609086 -1.8598 0
M  V30 66488 C 6204.71 -3.57368 -0.0475488 0
M  V30 66489 C 6204.38 -4.33378 1.24477 0
M  V30 66490 C 6203.04 -4.53862 1.59882 0
M  V30 66491 C 6205.39 -4.77023 2.09997 0
M  V30 66492 C 6202.72 -5.15244 2.80607 0
M  V30 66493 C 6205.07 -5.39738 3.29948 0
M  V30 66494 C 6203.74 -5.5845 3.65636 0
M  V30 66495 H 6203.01 -0.740579 0.0249637 0
M  V30 66496 H 6205.66 -1.75804 0.759288 0
M  V30 66497 H 6203.96 -3.83086 -0.821744 0
M  V30 66498 H 6205.66 -3.98337 -0.461347 0
M  V30 66499 H 6202.25 -4.1773 0.959139 0
M  V30 66500 H 6206.43 -4.60952 1.83947 0
M  V30 66501 H 6201.69 -5.27923 3.08395 0
M  V30 66502 H 6205.86 -5.72515 3.96484 0
M  V30 66503 H 6203.49 -6.05783 4.59273 0
M  V30 66504 N 6205.06 -0.320439 -1.54308 0
M  V30 66505 C 6205.97 0.555937 -2.27918 0
M  V30 66506 C 6206.99 1.13188 -1.32153 0
M  V30 66507 O 6208.17 1.15251 -1.65164 0
M  V30 66508 C 6205.23 1.70233 -3.02029 0
M  V30 66509 C 6204.29 1.15851 -4.13373 0
M  V30 66510 C 6203.52 2.25027 -4.83941 0
M  V30 66511 O 6203.75 3.45311 -4.54001 0
M  V30 66512 O 6202.68 1.90622 -5.70918 0
M  V30 66513 H 6206.51 -0.041763 -3.03671 0
M  V30 66514 H 6204.09 -0.0862333 -1.49151 0
M  V30 66515 H 6205.97 2.36982 -3.4845 0
M  V30 66516 H 6204.65 2.28627 -2.29154 0
M  V30 66517 H 6203.56 0.456192 -3.71308 0
M  V30 66518 H 6204.89 0.619744 -4.88283 0
M  V30 66519 N 6206.54 1.57525 -0.048546 0
M  V30 66520 C 6207.47 2.06929 0.962056 0
M  V30 66521 C 6208.45 0.969219 1.30556 0
M  V30 66522 O 6209.64 1.24096 1.41889 0
M  V30 66523 C 6206.76 2.5076 2.27678 0
M  V30 66524 C 6205.81 3.71977 2.08651 0
M  V30 66525 S 6206.64 5.1775 1.36731 0
M  V30 66526 C 6207.8 5.64892 2.69532 0
M  V30 66527 H 6208.03 2.92325 0.541588 0
M  V30 66528 H 6205.56 1.5353 0.163652 0
M  V30 66529 H 6207.52 2.76675 3.03251 0
M  V30 66530 H 6206.18 1.65674 2.66854 0
M  V30 66531 H 6205.38 4.00557 3.05893 0
M  V30 66532 H 6204.98 3.46314 1.41219 0
M  V30 66533 H 6207.27 5.70318 3.6571 0
M  V30 66534 H 6208.21 6.64146 2.45592 0
M  V30 66535 H 6208.62 4.92611 2.75671 0
M  V30 66536 N 6208.02 -0.224812 1.55988 0
M  V30 66537 C 6208.95 -1.30197 1.8863 0
M  V30 66538 C 6209.97 -1.43208 0.774298 0
M  V30 66539 O 6211.15 -1.44163 1.05258 0
M  V30 66540 C 6208.25 -2.67799 2.07694 0
M  V30 66541 C 6207.43 -2.76777 3.38693 0
M  V30 66542 C 6206.49 -3.95371 3.4723 0
M  V30 66543 O 6205.51 -3.83862 4.20284 0
M  V30 66544 N 6206.71 -5.09531 2.78134 0
M  V30 66545 H 6209.48 -1.02523 2.81619 0
M  V30 66546 H 6207.04 -0.414861 1.56494 0
M  V30 66547 H 6209.03 -3.45511 2.10724 0
M  V30 66548 H 6207.6 -2.88086 1.21346 0
M  V30 66549 H 6206.82 -1.85568 3.4779 0
M  V30 66550 H 6208.11 -2.79743 4.24996 0
M  V30 66551 H 6207.51 -5.21777 2.18553 0
M  V30 66552 H 6206.07 -5.85297 2.86828 0
M  V30 66553 N 6209.5 -1.49744 -0.491385 0
M  V30 66554 C 6210.43 -1.70039 -1.60028 0
M  V30 66555 C 6211.41 -0.549132 -1.60992 0
M  V30 66556 O 6212.59 -0.786045 -1.77581 0
M  V30 66557 C 6209.72 -1.77581 -2.98467 0
M  V30 66558 C 6208.68 -2.92591 -3.12369 0
M  V30 66559 C 6208 -2.85255 -4.52254 0
M  V30 66560 C 6209.3 -4.33395 -2.91489 0
M  V30 66561 H 6211 -2.6288 -1.43298 0
M  V30 66562 H 6208.54 -1.26504 -0.687944 0
M  V30 66563 H 6210.5 -1.90364 -3.75951 0
M  V30 66564 H 6209.22 -0.813454 -3.16308 0
M  V30 66565 H 6207.88 -2.79425 -2.37312 0
M  V30 66566 H 6207.53 -1.86908 -4.66984 0
M  V30 66567 H 6207.23 -3.62453 -4.62495 0
M  V30 66568 H 6208.75 -3.0006 -5.31786 0
M  V30 66569 H 6210.17 -4.47192 -3.58736 0
M  V30 66570 H 6208.56 -5.11889 -3.13193 0
M  V30 66571 H 6209.63 -4.47172 -1.87524 0
M  V30 66572 N 6210.98 0.743128 -1.3898 0
M  V30 66573 C 6211.94 1.83871 -1.36836 0
M  V30 66574 C 6212.94 1.58569 -0.26693 0
M  V30 66575 O 6214.13 1.6612 -0.524396 0
M  V30 66576 C 6211.26 3.21524 -1.13291 0
M  V30 66577 H 6212.45 1.87178 -2.34317 0
M  V30 66578 H 6210.01 0.945935 -1.24426 0
M  V30 66579 H 6210.74 3.23882 -0.164588 0
M  V30 66580 H 6210.53 3.41286 -1.93046 0
M  V30 66581 H 6212.02 4.01593 -1.14512 0
M  V30 66582 N 6212.45 1.24021 0.972444 0
M  V30 66583 C 6213.42 1.02948 2.04779 0
M  V30 66584 C 6214.42 -0.0115296 1.60796 0
M  V30 66585 O 6215.61 0.228983 1.72688 0
M  V30 66586 C 6212.74 0.559364 3.3628 0
M  V30 66587 H 6213.93 1.98387 2.24906 0
M  V30 66588 H 6211.49 1.06177 1.147 0
M  V30 66589 H 6212.22 -0.398432 3.21843 0
M  V30 66590 H 6212.01 1.31067 3.69545 0
M  V30 66591 H 6213.5 0.432815 4.15351 0
M  V30 66592 N 6213.93 -1.17241 1.0532 0
M  V30 66593 C 6214.86 -2.20842 0.613306 0
M  V30 66594 C 6215.88 -1.59551 -0.323615 0
M  V30 66595 O 6217.07 -1.78122 -0.116146 0
M  V30 66596 C 6214.17 -3.38679 -0.122363 0
M  V30 66597 C 6213.34 -4.29538 0.82558 0
M  V30 66598 C 6212.4 -5.26037 0.130937 0
M  V30 66599 O 6211.42 -5.6403 0.765446 0
M  V30 66600 N 6212.63 -5.69373 -1.13116 0
M  V30 66601 H 6215.39 -2.59204 1.50443 0
M  V30 66602 H 6212.95 -1.32153 0.935267 0
M  V30 66603 H 6214.94 -4.00269 -0.597228 0
M  V30 66604 H 6213.51 -2.98904 -0.915173 0
M  V30 66605 H 6212.73 -3.65361 1.48004 0
M  V30 66606 H 6214.02 -4.87133 1.46899 0
M  V30 66607 H 6213.42 -5.40582 -1.66697 0
M  V30 66608 H 6211.98 -6.331 -1.55007 0
M  V30 66609 N 6215.41 -0.8344 -1.33699 0
M  V30 66610 C 6216.66 -0.424295 -1.97187 0
M  V30 66611 C 6216.97 1.0208 -1.6685 0
M  V30 66612 O 6218.18 1.53537 -2.23916 0
M  V30 66613 C 6216.63 -0.707752 -3.52872 0
M  V30 66614 C 6216.24 -2.16723 -3.92091 0
M  V30 66615 C 6217.99 -0.364377 -4.22933 0
M  V30 66616 C 6215.89 -2.39497 -5.40736 0
M  V30 66617 H 6214.82 -0.154923 -0.737912 0
M  V30 66618 H 6217.47 -1.02236 -1.52381 0
M  V30 66619 H 6215.86 -0.0393715 -3.9598 0
M  V30 66620 H 6217.03 -2.87572 -3.60054 0
M  V30 66621 H 6215.35 -2.47315 -3.34999 0
M  V30 66622 H 6217.94 -0.512218 -5.32241 0
M  V30 66623 H 6218.29 0.69223 -4.10504 0
M  V30 66624 H 6218.82 -0.987805 -3.8534 0
M  V30 66625 H 6215.56 -3.43706 -5.58163 0
M  V30 66626 H 6215.08 -1.73205 -5.74248 0
M  V30 66627 H 6216.76 -2.22428 -6.07565 0
M  V30 66628 N 6216.89 1.46123 -0.590418 0
M  V30 66629 C 6218.11 2.07234 -0.0829354 0
M  V30 66630 C 6218.54 1.43502 1.21609 0
M  V30 66631 O 6217.9 0.521549 1.73636 0
M  V30 66632 C 6217.94 3.60548 0.0613034 0
M  V30 66633 O 6217.05 3.97016 1.11589 0
M  V30 66634 H 6216.39 0.660683 -0.0662886 0
M  V30 66635 H 6218.92 1.87643 -0.815552 0
M  V30 66636 H 6218.93 4.07138 0.265018 0
M  V30 66637 H 6217.6 4.06325 -0.887307 0
M  V30 66638 H 6216.18 3.62123 0.890019 0
M  V30 66639 N 6218.37 0.328618 1.54136 0
M  V30 66640 C 6219.28 -0.543842 2.28209 0
M  V30 66641 C 6220.29 -1.12485 1.32752 0
M  V30 66642 O 6221.47 -1.14374 1.65773 0
M  V30 66643 C 6218.53 -1.68629 3.02928 0
M  V30 66644 C 6217.59 -1.13657 4.13981 0
M  V30 66645 C 6216.83 -2.22457 4.85127 0
M  V30 66646 O 6217.05 -3.42898 4.55825 0
M  V30 66647 O 6215.98 -1.87591 5.71921 0
M  V30 66648 H 6219.81 0.0578669 3.03645 0
M  V30 66649 H 6217.4 0.0941419 1.49103 0
M  V30 66650 H 6219.28 -2.35131 3.49702 0
M  V30 66651 H 6217.95 -2.27409 2.30363 0
M  V30 66652 H 6216.86 -0.436494 3.71545 0
M  V30 66653 H 6218.19 -0.593841 4.88605 0
M  V30 66654 N 6219.84 -1.57497 0.0568993 0
M  V30 66655 C 6221.07 -1.97647 -0.62852 0
M  V30 66656 C 6221.49 -0.934481 -1.63245 0
M  V30 66657 O 6220.85 0.101642 -1.81015 0
M  V30 66658 C 6220.9 -3.36859 -1.28678 0
M  V30 66659 O 6220 -3.3519 -2.40252 0
M  V30 66660 H 6219.35 -0.643703 -0.162917 0
M  V30 66661 H 6221.88 -2.04205 0.126998 0
M  V30 66662 H 6221.89 -3.73714 -1.63713 0
M  V30 66663 H 6220.56 -4.12233 -0.551058 0
M  V30 66664 H 6219.14 -3.10088 -2.07123 0
M  V30 66665 N 6221.32 0.216536 -1.56105 0
M  V30 66666 C 6222.6 0.964815 -1.70149 0
M  V30 66667 C 6222.98 2.02227 -0.605595 0
M  V30 66668 O 6222.33 2.25205 0.386663 0
M  V30 66669 C 6222.54 1.57071 -3.11656 0
M  V30 66670 C 6223.89 2.06105 -3.71222 0
M  V30 66671 O 6224.91 1.66955 -3.1465 0
M  V30 66672 O 6223.77 2.78079 -4.70462 0
M  V30 66673 H 6220.86 0.451022 -0.693187 0
M  V30 66674 H 6223.41 0.207923 -1.68421 0
M  V30 66675 H 6222.18 0.807406 -3.82879 0
M  V30 66676 H 6221.8 2.39301 -3.17523 0
M  V30 66677 N 6222.8 1.50002 0.483437 0
M  V30 66678 C 6223.73 1.70885 1.59124 0
M  V30 66679 C 6224.71 0.557662 1.60699 0
M  V30 66680 O 6225.9 0.795452 1.77162 0
M  V30 66681 C 6223.03 1.79161 2.97521 0
M  V30 66682 C 6221.98 2.94244 3.10813 0
M  V30 66683 C 6221.31 2.8765 4.50735 0
M  V30 66684 C 6222.61 4.34935 2.89187 0
M  V30 66685 H 6224.3 2.63637 1.41902 0
M  V30 66686 H 6221.85 1.26867 0.681226 0
M  V30 66687 H 6223.8 1.92355 3.74937 0
M  V30 66688 H 6222.52 0.830217 3.15872 0
M  V30 66689 H 6221.18 2.8068 2.35827 0
M  V30 66690 H 6220.83 1.89382 4.65987 0
M  V30 66691 H 6220.53 3.64901 4.60566 0
M  V30 66692 H 6222.06 3.02876 5.30187 0
M  V30 66693 H 6223.47 4.49089 3.5636 0
M  V30 66694 H 6221.87 5.13542 3.10474 0
M  V30 66695 H 6222.94 4.4816 1.8515 0
M  V30 66696 N 6224.28 -0.735747 1.39372 0
M  V30 66697 C 6225.23 -1.87111 1.38175 0
M  V30 66698 C 6226.22 -1.67314 0.264995 0
M  V30 66699 O 6227.43 -1.74665 0.434989 0
M  V30 66700 H 6223.8 -0.615911 0.43146 0
M  V30 66701 H 6225.77 -1.85237 2.33944 0
M  V30 66702 C 6224.52 -3.24785 1.24136 0
M  V30 66703 H 6223.85 -3.40614 2.09337 0
M  V30 66704 H 6225.29 -4.04421 1.27355 0
M  V30 66705 C 6223.74 -3.36862 -0.0502746 0
M  V30 66706 O 6224.27 -3.88515 -1.02074 0
M  V30 66707 N 6222.48 -2.9038 -0.113082 0
M  V30 66708 H 6222.03 -2.48535 0.677355 0
M  V30 66709 H 6221.99 -2.9884 -0.976822 0
M  V30 66710 N 6225.76 -1.24535 -0.965853 0
M  V30 66711 C 6226.67 -1.05647 -2.09466 0
M  V30 66712 C 6227.68 0.00324845 -1.74 0
M  V30 66713 O 6228.86 -0.195319 -2.00451 0
M  V30 66714 C 6225.92 -0.665437 -3.40254 0
M  V30 66715 C 6224.99 -1.80184 -3.89656 0
M  V30 66716 C 6224.22 -1.42937 -5.14203 0
M  V30 66717 O 6224.44 -0.320015 -5.69502 0
M  V30 66718 O 6223.38 -2.25565 -5.58036 0
M  V30 66719 H 6227.2 -2.00286 -2.28297 0
M  V30 66720 H 6224.79 -1.03372 -1.07864 0
M  V30 66721 H 6226.67 -0.458974 -4.18893 0
M  V30 66722 H 6225.34 0.251801 -3.22719 0
M  V30 66723 H 6224.25 -2.06307 -3.12071 0
M  V30 66724 H 6225.58 -2.69792 -4.11671 0
M  V30 66725 N 6227.24 1.16681 -1.0594 0
M  V30 66726 C 6228.65 1.39119 -0.782179 0
M  V30 66727 C 6228.85 1.91722 0.620084 0
M  V30 66728 O 6227.91 2.11371 1.38125 0
M  V30 66729 C 6229.22 2.37516 -1.84409 0
M  V30 66730 C 6230.77 2.51207 -1.86719 0
M  V30 66731 C 6231.24 3.52884 -2.91954 0
M  V30 66732 N 6232.73 3.60408 -2.90965 0
M  V30 66733 C 6233.47 4.3886 -3.69039 0
M  V30 66734 N 6232.97 5.20764 -4.5692 0
M  V30 66735 N 6234.76 4.33807 -3.57446 0
M  V30 66736 H 6226.91 0.808712 -1.96402 0
M  V30 66737 H 6229.17 0.417978 -0.850881 0
M  V30 66738 H 6228.88 2.05952 -2.85091 0
M  V30 66739 H 6228.75 3.37117 -1.69209 0
M  V30 66740 H 6231.14 2.82077 -0.866974 0
M  V30 66741 H 6231.22 1.51654 -2.05997 0
M  V30 66742 H 6230.86 3.22751 -3.92166 0
M  V30 66743 H 6230.79 4.52159 -2.69926 0
M  V30 66744 H 6233.29 3.01937 -2.2725 0
M  V30 66745 H 6233.6 5.7783 -5.13159 0
M  V30 66746 H 6231.94 5.2012 -4.60978 0
M  V30 66747 H 6235.13 3.68878 -2.88178 0
M  V30 66748 H 6235.31 4.94703 -4.18537 0
M  V30 66749 N 6228.71 0.841479 1.33255 0
M  V30 66750 C 6229.94 0.451081 2.02435 0
M  V30 66751 C 6230.36 -0.940753 1.62885 0
M  V30 66752 O 6229.72 -1.61556 0.822767 0
M  V30 66753 C 6229.77 0.582495 3.55864 0
M  V30 66754 O 6228.87 -0.390182 4.1055 0
M  V30 66755 H 6228.21 0.183019 0.638279 0
M  V30 66756 H 6230.74 1.13703 1.70096 0
M  V30 66757 H 6230.75 0.465109 4.0534 0
M  V30 66758 H 6229.43 1.59752 3.83995 0
M  V30 66759 H 6228.01 -0.230135 3.72189 0
M  V30 66760 N 6230.19 -1.45807 0.598159 0
M  V30 66761 C 6231.15 -2.28906 -0.11615 0
M  V30 66762 C 6232.15 -1.39249 -0.804138 0
M  V30 66763 O 6233.34 -1.61468 -0.653736 0
M  V30 66764 C 6230.48 -3.20033 -1.17437 0
M  V30 66765 H 6231.67 -2.93541 0.61432 0
M  V30 66766 H 6229.22 -1.52173 0.356789 0
M  V30 66767 H 6229.96 -2.60178 -1.93592 0
M  V30 66768 H 6229.74 -3.86064 -0.685373 0
M  V30 66769 H 6231.23 -3.82539 -1.67492 0
M  V30 66770 N 6231.67 -0.336787 -1.53959 0
M  V30 66771 C 6232.62 0.53852 -2.2628 0
M  V30 66772 C 6233.61 1.1076 -1.28174 0
M  V30 66773 O 6234.82 1.05411 -1.45906 0
M  V30 66774 H 6231.19 0.192337 -0.726987 0
M  V30 66775 H 6233.16 -0.0935581 -2.98253 0
M  V30 66776 C 6231.91 1.68111 -3.04358 0
M  V30 66777 H 6231.24 1.25248 -3.79675 0
M  V30 66778 H 6232.68 2.26888 -3.58187 0
M  V30 66779 C 6231.13 2.60655 -2.13449 0
M  V30 66780 O 6231.66 3.62725 -1.72608 0
M  V30 66781 N 6229.87 2.29187 -1.78666 0
M  V30 66782 H 6229.42 1.46225 -2.12075 0
M  V30 66783 H 6229.38 2.91367 -1.18121 0
M  V30 66784 N 6233.15 1.57465 -0.0652509 0
M  V30 66785 C 6234.09 2.12348 0.90427 0
M  V30 66786 C 6235.06 1.03433 1.29964 0
M  V30 66787 O 6236.25 1.3106 1.38665 0
M  V30 66788 C 6233.39 2.6843 2.16885 0
M  V30 66789 C 6232.5 3.91479 1.8267 0
M  V30 66790 C 6231.64 4.35827 3.03691 0
M  V30 66791 C 6230.68 5.5154 2.65462 0
M  V30 66792 N 6229.81 5.90877 3.79222 0
M  V30 66793 H 6234.65 2.94891 0.429365 0
M  V30 66794 H 6232.19 1.4573 0.200293 0
M  V30 66795 H 6234.15 2.99052 2.90902 0
M  V30 66796 H 6232.78 1.88663 2.61928 0
M  V30 66797 H 6231.83 3.67361 0.987435 0
M  V30 66798 H 6233.14 4.75541 1.5054 0
M  V30 66799 H 6232.3 4.68075 3.85993 0
M  V30 66800 H 6231.04 3.50605 3.39009 0
M  V30 66801 H 6230.04 5.1895 1.8158 0
M  V30 66802 H 6231.27 6.38488 2.31321 0
M  V30 66803 H 6229.21 5.08606 4.14314 0
M  V30 66804 H 6229.13 6.69663 3.50838 0
M  V30 66805 H 6230.4 6.27745 4.62122 0
M  V30 66806 N 6234.63 -0.208255 1.56218 0
M  V30 66807 C 6235.54 -1.27885 1.96679 0
M  V30 66808 C 6236.55 -1.50543 0.872513 0
M  V30 66809 O 6237.73 -1.63414 1.17719 0
M  V30 66810 C 6234.79 -2.6059 2.28678 0
M  V30 66811 C 6233.85 -2.46118 3.51745 0
M  V30 66812 C 6233.09 -3.72495 3.82208 0
M  V30 66813 O 6233.31 -4.76094 3.1415 0
M  V30 66814 O 6232.24 -3.68811 4.7567 0
M  V30 66815 H 6236.07 -0.965506 2.87944 0
M  V30 66816 H 6233.65 -0.412199 1.43601 0
M  V30 66817 H 6235.54 -3.3894 2.50395 0
M  V30 66818 H 6234.21 -2.91578 1.40585 0
M  V30 66819 H 6233.12 -1.65923 3.35291 0
M  V30 66820 H 6234.45 -2.20066 4.40263 0
M  V30 66821 N 6236.1 -1.50256 -0.475475 0
M  V30 66822 C 6237.01 -1.71579 -1.59994 0
M  V30 66823 C 6238.03 -0.598805 -1.63372 0
M  V30 66824 O 6239.21 -0.876608 -1.81322 0
M  V30 66825 C 6236.27 -1.80128 -2.96234 0
M  V30 66826 C 6235.33 -3.03842 -3.0328 0
M  V30 66827 C 6234.56 -3.11974 -4.33022 0
M  V30 66828 O 6234.79 -2.27013 -5.23279 0
M  V30 66829 O 6233.72 -4.04663 -4.45569 0
M  V30 66830 H 6237.55 -2.66889 -1.44927 0
M  V30 66831 H 6235.13 -1.343 -0.654506 0
M  V30 66832 H 6237.01 -1.87957 -3.77161 0
M  V30 66833 H 6235.69 -0.880006 -3.11509 0
M  V30 66834 H 6234.6 -3.01516 -2.21447 0
M  V30 66835 H 6235.93 -3.95533 -2.92941 0
M  V30 66836 N 6237.58 0.728346 -1.3976 0
M  V30 66837 C 6238.81 1.52263 -1.40822 0
M  V30 66838 C 6239.23 1.88099 -0.00635779 0
M  V30 66839 O 6238.59 1.5238 0.982349 0
M  V30 66840 C 6238.64 2.78254 -2.29363 0
M  V30 66841 O 6237.74 3.74447 -1.72809 0
M  V30 66842 H 6237.08 0.459565 -0.479266 0
M  V30 66843 H 6239.61 0.898067 -1.83837 0
M  V30 66844 H 6239.62 3.26919 -2.44107 0
M  V30 66845 H 6238.3 2.51504 -3.31238 0
M  V30 66846 H 6236.88 3.33242 -1.67344 0
M  V30 66847 N 6239.06 1.25046 0.959235 0
M  V30 66848 C 6239.97 1.06756 2.08902 0
M  V30 66849 C 6240.99 0.00597922 1.73999 0
M  V30 66850 O 6242.16 0.205946 2.00344 0
M  V30 66851 C 6239.23 0.683473 3.39896 0
M  V30 66852 C 6238.29 1.82248 3.88695 0
M  V30 66853 C 6237.52 1.45662 5.13438 0
M  V30 66854 O 6237.74 0.350212 5.69324 0
M  V30 66855 O 6236.68 2.28522 5.56832 0
M  V30 66856 H 6240.5 2.01493 2.27231 0
M  V30 66857 H 6238.09 1.03942 1.07314 0
M  V30 66858 H 6239.97 0.481183 4.18644 0
M  V30 66859 H 6238.65 -0.234682 3.22848 0
M  V30 66860 H 6237.55 2.07959 3.10972 0
M  V30 66861 H 6238.89 2.71972 4.10234 0
M  V30 66862 N 6240.54 -1.16117 1.06558 0
M  V30 66863 C 6241.49 -2.20594 0.678736 0
M  V30 66864 C 6242.46 -1.62871 -0.325931 0
M  V30 66865 O 6243.64 -1.89594 -0.214211 0
M  V30 66866 C 6240.78 -3.4502 0.0741655 0
M  V30 66867 C 6239.89 -4.16977 1.12933 0
M  V30 66868 C 6239.03 -5.28929 0.490621 0
M  V30 66869 C 6238.07 -5.92692 1.52914 0
M  V30 66870 N 6237.2 -6.96131 0.913591 0
M  V30 66871 H 6242.04 -2.53036 1.57407 0
M  V30 66872 H 6239.58 -1.24279 0.786966 0
M  V30 66873 H 6241.54 -4.16163 -0.293913 0
M  V30 66874 H 6240.17 -3.13121 -0.78456 0
M  V30 66875 H 6239.22 -3.44411 1.61508 0
M  V30 66876 H 6240.53 -4.60488 1.91709 0
M  V30 66877 H 6239.69 -6.0666 0.0697245 0
M  V30 66878 H 6238.43 -4.86589 -0.328983 0
M  V30 66879 H 6237.43 -5.13681 1.9599 0
M  V30 66880 H 6238.66 -6.37111 2.35089 0
M  V30 66881 H 6236.6 -6.559 0.114746 0
M  V30 66882 H 6236.52 -7.38026 1.63869 0
M  V30 66883 H 6237.79 -7.77777 0.517928 0
M  V30 66884 N 6242.02 -0.848534 -1.32807 0
M  V30 66885 C 6242.93 -0.291437 -2.32783 0
M  V30 66886 C 6243.94 0.587563 -1.63779 0
M  V30 66887 O 6245.12 0.48939 -1.95364 0
M  V30 66888 C 6242.18 0.51622 -3.42835 0
M  V30 66889 C 6241.24 -0.388196 -4.27541 0
M  V30 66890 C 6240.48 0.38101 -5.32338 0
M  V30 66891 O 6240.7 1.61166 -5.47158 0
M  V30 66892 O 6239.63 -0.250011 -6.01381 0
M  V30 66893 H 6243.46 -1.11957 -2.82311 0
M  V30 66894 H 6241.05 -0.611306 -1.36321 0
M  V30 66895 H 6242.93 0.974851 -4.09969 0
M  V30 66896 H 6241.6 1.32125 -2.95507 0
M  V30 66897 H 6240.51 -0.894873 -3.63239 0
M  V30 66898 H 6241.84 -1.15825 -4.78378 0
M  V30 66899 N 6243.49 1.45488 -0.605884 0
M  V30 66900 C 6244.91 1.5731 -0.269394 0
M  V30 66901 C 6245.11 1.59751 1.22809 0
M  V30 66902 O 6244.17 1.52689 2.01103 0
M  V30 66903 C 6245.48 2.85661 -0.939064 0
M  V30 66904 C 6247.03 2.99333 -0.914822 0
M  V30 66905 C 6247.5 4.30451 -1.56447 0
M  V30 66906 N 6248.99 4.37206 -1.52988 0
M  V30 66907 C 6249.73 5.37326 -2.00171 0
M  V30 66908 N 6249.22 6.43992 -2.55432 0
M  V30 66909 N 6251.02 5.28673 -1.90949 0
M  V30 66910 H 6243.17 1.42147 -1.57822 0
M  V30 66911 H 6245.43 0.679519 -0.661028 0
M  V30 66912 H 6245.14 2.89752 -1.9934 0
M  V30 66913 H 6245.01 3.74369 -0.46131 0
M  V30 66914 H 6247.4 2.94809 0.130966 0
M  V30 66915 H 6247.48 2.1204 -1.43083 0
M  V30 66916 H 6247.12 4.35733 -2.60958 0
M  V30 66917 H 6247.05 5.16558 -1.0235 0
M  V30 66918 H 6249.54 3.60729 -1.12617 0
M  V30 66919 H 6249.86 7.16634 -2.89233 0
M  V30 66920 H 6248.2 6.44748 -2.5947 0
M  V30 66921 H 6251.39 4.44248 -1.47518 0
M  V30 66922 H 6251.57 6.06551 -2.28034 0
M  V30 66923 N 6244.97 0.344947 1.53779 0
M  V30 66924 C 6246.38 -0.138662 1.86184 0
M  V30 66925 C 6246.73 -1.49878 1.26614 0
M  V30 66926 O 6245.86 -2.08476 0.580247 0
M  V30 66927 C 6246.45 -0.258383 3.37813 0
M  V30 66928 C 6245.01 -0.686226 3.70092 0
M  V30 66929 C 6244.16 0.179182 2.7672 0
M  V30 66930 H 6247.11 0.564494 1.48321 0
M  V30 66931 H 6247.13 -1.08564 3.64684 0
M  V30 66932 H 6246.64 0.731672 3.81141 0
M  V30 66933 H 6244.75 -1.68526 3.3231 0
M  V30 66934 H 6244.86 -0.475148 4.76738 0
M  V30 66935 H 6243.22 -0.348702 2.52302 0
M  V30 66936 H 6244.01 1.1664 3.22878 0
M  V30 66937 N 6246.45 -1.57428 0.0736007 0
M  V30 66938 C 6247.36 -2.16328 -0.907699 0
M  V30 66939 C 6248.38 -1.12694 -1.32575 0
M  V30 66940 O 6249.55 -1.44968 -1.39808 0
M  V30 66941 C 6246.62 -2.71475 -2.15644 0
M  V30 66942 C 6245.68 -3.89989 -1.79463 0
M  V30 66943 C 6244.91 -4.42496 -2.98384 0
M  V30 66944 O 6245.13 -3.93999 -4.12457 0
M  V30 66945 O 6244.07 -5.33804 -2.78095 0
M  V30 66946 H 6247.89 -3.00544 -0.436666 0
M  V30 66947 H 6245.48 -1.48649 -0.14957 0
M  V30 66948 H 6247.36 -3.06812 -2.88867 0
M  V30 66949 H 6246.04 -1.90317 -2.61842 0
M  V30 66950 H 6244.94 -3.59502 -1.03486 0
M  V30 66951 H 6246.28 -4.72445 -1.38047 0
M  V30 66952 N 6247.93 0.199967 -1.56326 0
M  V30 66953 C 6248.84 1.2684 -1.97355 0
M  V30 66954 C 6249.85 1.50078 -0.880485 0
M  V30 66955 O 6251.03 1.62788 -1.18584 0
M  V30 66956 C 6248.1 2.59374 -2.30057 0
M  V30 66957 C 6247.16 2.44249 -3.53045 0
M  V30 66958 C 6246.39 3.70463 -3.84178 0
M  V30 66959 O 6246.61 4.74422 -3.16671 0
M  V30 66960 O 6245.55 3.66283 -4.77619 0
M  V30 66961 H 6249.37 0.950222 -2.88452 0
M  V30 66962 H 6246.96 0.404578 -1.43818 0
M  V30 66963 H 6248.84 3.37607 -2.52189 0
M  V30 66964 H 6247.51 2.90828 -1.42129 0
M  V30 66965 H 6246.42 1.64143 -3.36167 0
M  V30 66966 H 6247.75 2.17728 -4.41424 0
M  V30 66967 N 6249.41 1.50506 0.4675 0
M  V30 66968 C 6250.34 1.65789 1.58261 0
M  V30 66969 C 6251.35 0.539273 1.53609 0
M  V30 66970 O 6252.54 0.81258 1.58932 0
M  V30 66971 C 6249.64 1.62961 2.97148 0
M  V30 66972 C 6248.81 2.90914 3.26631 0
M  V30 66973 C 6247.87 2.8068 4.4509 0
M  V30 66974 O 6246.9 3.54636 4.45221 0
M  V30 66975 N 6248.1 1.94479 5.46953 0
M  V30 66976 H 6250.87 2.61975 1.45566 0
M  V30 66977 H 6248.43 1.48015 0.655977 0
M  V30 66978 H 6250.42 1.53723 3.74368 0
M  V30 66979 H 6248.99 0.744962 3.03594 0
M  V30 66980 H 6248.21 3.14252 2.3799 0
M  V30 66981 H 6249.5 3.75675 3.43141 0
M  V30 66982 H 6248.89 1.33714 5.4967 0
M  V30 66983 H 6247.45 1.91142 6.23144 0
M  V30 66984 N 6250.88 -0.720924 1.40144 0
M  V30 66985 C 6252.13 -1.4778 1.3786 0
M  V30 66986 C 6252.45 -1.9499 -0.0201172 0
M  V30 66987 O 6251.72 -1.69975 -0.973927 0
M  V30 66988 H 6250.3 -0.548257 0.507369 0
M  V30 66989 H 6252.97 -0.854959 1.75147 0
M  V30 66990 H 6252.06 -2.3532 2.05015 0
M  V30 66991 N 6252.36 -1.25553 -0.95259 0
M  V30 66992 C 6253.77 -1.09501 -1.51217 0
M  V30 66993 C 6254.13 0.328571 -1.93429 0
M  V30 66994 O 6253.25 1.21878 -1.78815 0
M  V30 66995 C 6253.85 -1.98159 -2.74806 0
M  V30 66996 C 6252.4 -1.86287 -3.27069 0
M  V30 66997 C 6251.55 -1.92188 -1.99897 0
M  V30 66998 H 6254.5 -1.38809 -0.76927 0
M  V30 66999 H 6254.52 -1.52278 -3.487 0
M  V30 67000 H 6254.04 -3.01762 -2.44052 0
M  V30 67001 H 6252.14 -0.855754 -3.6264 0
M  V30 67002 H 6252.25 -2.71208 -3.94947 0
M  V30 67003 H 6250.61 -1.36099 -2.15288 0
M  V30 67004 H 6251.4 -2.974 -1.71489 0
M  V30 67005 N 6253.84 1.15551 -1.07172 0
M  V30 67006 C 6255.26 1.38282 -0.79689 0
M  V30 67007 C 6255.46 1.92369 0.599715 0
M  V30 67008 O 6254.51 2.12824 1.35875 0
M  V30 67009 C 6255.83 2.35546 -1.86918 0
M  V30 67010 C 6257.37 2.49213 -1.89372 0
M  V30 67011 C 6257.85 3.49767 -2.9568 0
M  V30 67012 N 6259.34 3.57301 -2.94771 0
M  V30 67013 C 6260.08 4.34921 -3.73673 0
M  V30 67014 N 6259.57 5.15889 -4.62418 0
M  V30 67015 N 6261.36 4.29992 -3.62027 0
M  V30 67016 H 6253.52 0.787836 -1.97248 0
M  V30 67017 H 6255.78 0.40893 -0.855266 0
M  V30 67018 H 6255.48 2.02916 -2.87259 0
M  V30 67019 H 6255.36 3.35304 -1.72775 0
M  V30 67020 H 6257.75 2.81142 -0.896844 0
M  V30 67021 H 6257.83 1.4946 -2.07594 0
M  V30 67022 H 6257.47 3.18574 -3.95567 0
M  V30 67023 H 6257.4 4.49271 -2.74706 0
M  V30 67024 H 6259.89 2.99509 -2.3044 0
M  V30 67025 H 6260.2 5.72355 -5.19259 0
M  V30 67026 H 6258.55 5.15201 -4.66468 0
M  V30 67027 H 6261.74 3.65801 -2.92074 0
M  V30 67028 H 6261.91 4.90236 -4.23761 0
M  V30 67029 N 6255.32 0.855565 1.32355 0
M  V30 67030 C 6256.25 0.245642 2.26874 0
M  V30 67031 C 6257.23 -0.616904 1.50443 0
M  V30 67032 O 6258.41 -0.573505 1.79564 0
M  V30 67033 C 6255.54 -0.653455 3.32337 0
M  V30 67034 C 6254.59 0.135827 4.26284 0
M  V30 67035 S 6255.42 1.50484 5.13921 0
M  V30 67036 C 6256.58 0.61148 6.22906 0
M  V30 67037 H 6256.81 1.0469 2.78258 0
M  V30 67038 H 6254.34 0.65325 1.399 0
M  V30 67039 H 6256.3 -1.16655 3.93576 0
M  V30 67040 H 6254.96 -1.42853 2.79735 0
M  V30 67041 H 6254.15 -0.549013 5.01001 0
M  V30 67042 H 6253.76 0.580531 3.69467 0
M  V30 67043 H 6256.05 -0.183903 6.7725 0
M  V30 67044 H 6256.99 1.32933 6.9551 0
M  V30 67045 H 6257.4 0.185418 5.64195 0
M  V30 67046 N 6256.8 -1.45165 0.613591 0
M  V30 67047 C 6257.76 -2.29016 -0.0918649 0
M  V30 67048 C 6258.76 -1.40094 -0.789324 0
M  V30 67049 O 6259.95 -1.62152 -0.636574 0
M  V30 67050 C 6257.08 -3.21261 -1.14036 0
M  V30 67051 H 6258.28 -2.92873 0.64542 0
M  V30 67052 H 6255.83 -1.51786 0.372908 0
M  V30 67053 H 6256.56 -2.62217 -1.90821 0
M  V30 67054 H 6256.35 -3.86769 -0.644387 0
M  V30 67055 H 6257.84 -3.84294 -1.63425 0
M  V30 67056 N 6258.28 -0.353098 -1.53594 0
M  V30 67057 C 6259.52 0.240477 -2.01067 0
M  V30 67058 C 6259.85 1.49789 -1.2407 0
M  V30 67059 O 6259.11 1.93082 -0.31905 0
M  V30 67060 C 6259.4 0.590687 -3.52485 0
M  V30 67061 C 6259.07 -0.570948 -4.47271 0
M  V30 67062 C 6257.73 -0.889714 -4.72903 0
M  V30 67063 C 6260.08 -1.3498 -5.03418 0
M  V30 67064 C 6257.41 -1.98953 -5.51937 0
M  V30 67065 C 6259.76 -2.43993 -5.83652 0
M  V30 67066 C 6258.43 -2.76418 -6.07576 0
M  V30 67067 H 6257.7 0.0879968 -0.735756 0
M  V30 67068 H 6260.35 -0.482985 -1.85309 0
M  V30 67069 H 6258.65 1.395 -3.66124 0
M  V30 67070 H 6260.35 1.062 -3.86682 0
M  V30 67071 H 6256.94 -0.31245 -4.2746 0
M  V30 67072 H 6261.12 -1.11678 -4.83572 0
M  V30 67073 H 6256.38 -2.24488 -5.68696 0
M  V30 67074 H 6260.55 -3.04768 -6.26171 0
M  V30 67075 H 6258.18 -3.61764 -6.68603 0
M  V30 67076 N 6259.75 1.57387 -0.0819485 0
M  V30 67077 C 6261 1.93871 0.584831 0
M  V30 67078 C 6261.33 0.962746 1.69001 0
M  V30 67079 O 6260.58 -0.0199267 1.9569 0
M  V30 67080 C 6260.88 3.36943 1.19181 0
M  V30 67081 C 6260.55 4.50403 0.211749 0
M  V30 67082 C 6259.21 4.81165 -0.0578448 0
M  V30 67083 C 6261.56 5.19182 -0.458175 0
M  V30 67084 C 6258.89 5.78041 -1.00428 0
M  V30 67085 C 6261.24 6.17072 -1.393 0
M  V30 67086 C 6259.91 6.46247 -1.67095 0
M  V30 67087 H 6259.18 0.709424 0.214005 0
M  V30 67088 H 6261.82 1.90872 -0.154986 0
M  V30 67089 H 6260.13 3.36457 2.00759 0
M  V30 67090 H 6261.83 3.62467 1.71519 0
M  V30 67091 H 6258.42 4.26417 0.43206 0
M  V30 67092 H 6262.6 4.95603 -0.263021 0
M  V30 67093 H 6257.86 5.98966 -1.22677 0
M  V30 67094 H 6262.03 6.69467 -1.91799 0
M  V30 67095 H 6259.66 7.21124 -2.40592 0
M  V30 67096 N 6261.23 -0.191674 1.5643 0
M  V30 67097 C 6262.46 -0.931738 1.85293 0
M  V30 67098 C 6262.88 -1.75918 0.665926 0
M  V30 67099 O 6262.24 -1.7716 -0.385251 0
M  V30 67100 C 6262.29 -1.80089 3.12411 0
M  V30 67101 O 6261.39 -2.9001 2.93203 0
M  V30 67102 H 6260.73 -0.262191 0.610042 0
M  V30 67103 H 6263.26 -0.195956 2.03659 0
M  V30 67104 H 6263.27 -2.20487 3.43292 0
M  V30 67105 H 6261.95 -1.19295 3.98424 0
M  V30 67106 H 6260.52 -2.53342 2.73628 0
M  V30 67107 N 6262.71 -1.50752 -0.459512 0
M  V30 67108 C 6263.96 -1.61558 -1.20756 0
M  V30 67109 C 6264.27 -0.32693 -1.92848 0
M  V30 67110 O 6265.48 -0.314046 -2.69678 0
M  V30 67111 C 6263.93 -2.85228 -2.19484 0
M  V30 67112 C 6263.54 -4.21013 -1.53141 0
M  V30 67113 C 6265.29 -3.05383 -2.94858 0
M  V30 67114 C 6263.19 -5.35857 -2.50223 0
M  V30 67115 H 6262.12 -0.601674 -0.454427 0
M  V30 67116 H 6264.77 -1.77197 -0.476823 0
M  V30 67117 H 6263.16 -2.63173 -2.95898 0
M  V30 67118 H 6264.33 -4.53366 -0.824361 0
M  V30 67119 H 6262.64 -4.06557 -0.900035 0
M  V30 67120 H 6265.24 -3.88355 -3.67538 0
M  V30 67121 H 6265.58 -2.1757 -3.54921 0
M  V30 67122 H 6266.12 -3.27673 -2.25555 0
M  V30 67123 H 6262.86 -6.2586 -1.94882 0
M  V30 67124 H 6262.38 -5.07907 -3.19046 0
M  V30 67125 H 6264.06 -5.66905 -3.11814 0
M  V30 67126 N 6264.19 0.713481 -1.40525 0
M  V30 67127 C 6265.12 1.84035 -1.43713 0
M  V30 67128 C 6266.1 1.67473 -0.29781 0
M  V30 67129 O 6267.28 1.87472 -0.506728 0
M  V30 67130 C 6264.41 3.22009 -1.30105 0
M  V30 67131 C 6263.37 3.53247 -2.41662 0
M  V30 67132 C 6262.69 4.90387 -2.1313 0
M  V30 67133 C 6263.99 3.54032 -3.84004 0
M  V30 67134 H 6265.69 1.81624 -2.38019 0
M  V30 67135 H 6263.23 0.872396 -1.14565 0
M  V30 67136 H 6265.19 4.00537 -1.30952 0
M  V30 67137 H 6263.91 3.25001 -0.322762 0
M  V30 67138 H 6262.57 2.77061 -2.40069 0
M  V30 67139 H 6262.22 4.89984 -1.13686 0
M  V30 67140 H 6261.92 5.12254 -2.87871 0
M  V30 67141 H 6263.44 5.71246 -2.15662 0
M  V30 67142 H 6264.86 4.22595 -3.8741 0
M  V30 67143 H 6263.25 3.87425 -4.58281 0
M  V30 67144 H 6264.32 2.53372 -4.13437 0
M  V30 67145 N 6265.67 1.26056 0.945918 0
M  V30 67146 C 6266.89 1.14085 1.72604 0
M  V30 67147 C 6267.31 -0.30444 1.86329 0
M  V30 67148 O 6266.67 -1.2088 1.36727 0
M  V30 67149 C 6266.72 1.79949 3.13529 0
M  V30 67150 O 6266.44 3.18829 3.00465 0
M  V30 67151 C 6267.94 1.73871 4.07779 0
M  V30 67152 H 6265.16 0.397505 0.540584 0
M  V30 67153 H 6267.7 1.66586 1.18614 0
M  V30 67154 H 6265.86 1.31398 3.64436 0
M  V30 67155 H 6266.27 3.5135 3.89427 0
M  V30 67156 H 6267.75 2.24601 5.0424 0
M  V30 67157 H 6268.22 0.704247 4.33517 0
M  V30 67158 H 6268.83 2.21952 3.62791 0
M  V30 67159 N 6267.14 -1.14981 1.07783 0
M  V30 67160 C 6268.39 -1.86145 0.804843 0
M  V30 67161 C 6268.72 -1.82366 -0.667551 0
M  V30 67162 O 6268 -1.24987 -1.49025 0
M  V30 67163 C 6268.28 -3.35063 1.31928 0
M  V30 67164 C 6268.13 -3.4745 2.85655 0
M  V30 67165 C 6269.45 -4.29958 0.939369 0
M  V30 67166 H 6266.57 -0.675889 0.293842 0
M  V30 67167 H 6269.21 -1.3506 1.33636 0
M  V30 67168 H 6267.36 -3.78699 0.867144 0
M  V30 67169 H 6269.04 -3.12646 3.39191 0
M  V30 67170 H 6267.28 -2.88867 3.23633 0
M  V30 67171 H 6267.95 -4.52098 3.1672 0
M  V30 67172 H 6270.43 -3.94304 1.32904 0
M  V30 67173 H 6269.3 -5.32628 1.32659 0
M  V30 67174 H 6269.56 -4.41831 -0.154265 0
M  V30 67175 N 6268.62 -0.862572 -1.31899 0
M  V30 67176 C 6270.04 -0.55349 -1.49695 0
M  V30 67177 C 6270.24 0.914083 -1.79574 0
M  V30 67178 O 6269.29 1.69668 -1.87 0
M  V30 67179 C 6270.61 -1.44732 -2.63578 0
M  V30 67180 C 6272.16 -1.44858 -2.77462 0
M  V30 67181 C 6272.63 -2.3278 -3.94433 0
M  V30 67182 N 6274.12 -2.30619 -4.01708 0
M  V30 67183 C 6274.86 -2.95374 -4.91469 0
M  V30 67184 N 6274.35 -3.6927 -5.86184 0
M  V30 67185 N 6276.15 -2.84721 -4.84655 0
M  V30 67186 H 6268.3 -1.81227 -1.10773 0
M  V30 67187 H 6270.56 -0.774498 -0.546679 0
M  V30 67188 H 6270.27 -2.49126 -2.48252 0
M  V30 67189 H 6270.14 -1.14046 -3.59546 0
M  V30 67190 H 6272.53 -0.412246 -2.92206 0
M  V30 67191 H 6272.61 -1.79563 -1.82183 0
M  V30 67192 H 6272.25 -3.36485 -3.80447 0
M  V30 67193 H 6272.18 -1.95403 -4.89004 0
M  V30 67194 H 6274.67 -1.769 -3.33938 0
M  V30 67195 H 6274.99 -4.15827 -6.51389 0
M  V30 67196 H 6273.33 -3.73378 -5.86186 0
M  V30 67197 H 6276.52 -2.26534 -4.09634 0
M  V30 67198 H 6276.69 -3.35467 -5.54406 0
M  V30 67199 N 6270.1 1.44837 -0.62128 0
M  V30 67200 C 6271.33 2.07012 -0.126874 0
M  V30 67201 C 6271.75 1.4605 1.18537 0
M  V30 67202 O 6271.11 0.558263 1.72491 0
M  V30 67203 C 6271.16 3.60597 -0.0151879 0
M  V30 67204 O 6270.26 3.99293 1.03143 0
M  V30 67205 H 6269.6 0.659128 -0.0802877 0
M  V30 67206 H 6272.13 1.85871 -0.855171 0
M  V30 67207 H 6272.14 4.07609 0.178599 0
M  V30 67208 H 6270.82 4.04351 -0.973295 0
M  V30 67209 H 6269.39 3.63929 0.813007 0
M  V30 67210 N 6271.58 0.361238 1.53404 0
M  V30 67211 C 6272.54 -0.474947 2.24225 0
M  V30 67212 C 6273.54 -1.01326 1.24858 0
M  V30 67213 O 6274.73 -0.899703 1.49168 0
M  V30 67214 C 6271.86 -1.6634 2.97563 0
M  V30 67215 H 6273.06 0.1447 2.99551 0
M  V30 67216 H 6270.61 0.112857 1.55892 0
M  V30 67217 H 6271.34 -2.32126 2.26469 0
M  V30 67218 H 6271.13 -1.28441 3.70466 0
M  V30 67219 H 6272.62 -2.25608 3.51413 0
M  V30 67220 N 6273.06 -1.57341 0.090294 0
M  V30 67221 C 6273.99 -2.16785 -0.867564 0
M  V30 67222 C 6274.97 -1.09987 -1.29757 0
M  V30 67223 O 6276.15 -1.38104 -1.36532 0
M  V30 67224 C 6273.28 -2.74433 -2.12846 0
M  V30 67225 C 6272.24 -3.86561 -1.83724 0
M  V30 67226 C 6271.56 -4.30892 -3.16602 0
M  V30 67227 C 6272.86 -5.09975 -1.12796 0
M  V30 67228 H 6274.56 -2.97076 -0.372312 0
M  V30 67229 H 6272.1 -1.429 -0.177639 0
M  V30 67230 H 6274.06 -3.14669 -2.80288 0
M  V30 67231 H 6272.78 -1.9139 -2.64646 0
M  V30 67232 H 6271.44 -3.46858 -1.18682 0
M  V30 67233 H 6271.09 -3.44744 -3.66279 0
M  V30 67234 H 6270.79 -5.06487 -2.979 0
M  V30 67235 H 6272.31 -4.73757 -3.8521 0
M  V30 67236 H 6273.72 -5.4741 -1.70339 0
M  V30 67237 H 6272.12 -5.90968 -1.04291 0
M  V30 67238 H 6273.19 -4.84775 -0.109944 0
M  V30 67239 N 6274.53 0.183375 -1.5653 0
M  V30 67240 C 6275.78 0.901932 -1.81305 0
M  V30 67241 C 6276.11 1.82763 -0.665433 0
M  V30 67242 O 6275.36 1.92579 0.348094 0
M  V30 67243 C 6275.66 1.74044 -3.1216 0
M  V30 67244 C 6275.33 0.964711 -4.40459 0
M  V30 67245 C 6273.99 0.750574 -4.7531 0
M  V30 67246 C 6276.34 0.419732 -5.19507 0
M  V30 67247 C 6273.67 -0.0198353 -5.86697 0
M  V30 67248 C 6276.02 -0.337527 -6.31699 0
M  V30 67249 C 6274.69 -0.562574 -6.65125 0
M  V30 67250 H 6273.96 0.33004 -0.663441 0
M  V30 67251 H 6276.6 0.167576 -1.90765 0
M  V30 67252 H 6274.91 2.54382 -2.97988 0
M  V30 67253 H 6276.61 2.29923 -3.28537 0
M  V30 67254 H 6273.2 1.14164 -4.13116 0
M  V30 67255 H 6277.38 0.57254 -4.92986 0
M  V30 67256 H 6272.64 -0.204053 -6.11059 0
M  V30 67257 H 6276.81 -0.767132 -6.92162 0
M  V30 67258 H 6274.44 -1.16143 -7.51275 0
M  V30 67259 N 6276.01 1.50994 0.451511 0
M  V30 67260 C 6276.98 1.70708 1.52943 0
M  V30 67261 C 6277.98 0.577328 1.50079 0
M  V30 67262 O 6279.17 0.844672 1.52351 0
M  V30 67263 C 6276.3 1.75045 2.92527 0
M  V30 67264 H 6277.49 2.66896 1.36772 0
M  V30 67265 H 6275.04 1.4077 0.679236 0
M  V30 67266 H 6275.78 0.806206 3.14119 0
M  V30 67267 H 6275.56 2.57137 2.96012 0
M  V30 67268 H 6277.05 1.92184 3.70749 0
M  V30 67269 N 6277.49 -0.706019 1.40901 0
M  V30 67270 C 6278.42 -1.8327 1.44687 0
M  V30 67271 C 6279.4 -1.67312 0.306688 0
M  V30 67272 O 6280.59 -1.87201 0.516663 0
M  V30 67273 C 6277.72 -3.21315 1.31811 0
M  V30 67274 C 6276.67 -3.5196 2.43532 0
M  V30 67275 C 6276 -4.8925 2.15727 0
M  V30 67276 C 6277.3 -3.5199 3.85876 0
M  V30 67277 H 6278.99 -1.80359 2.38979 0
M  V30 67278 H 6276.54 -0.866308 1.15027 0
M  V30 67279 H 6278.49 -3.99836 1.33074 0
M  V30 67280 H 6277.21 -3.24825 0.339993 0
M  V30 67281 H 6275.87 -2.75784 2.41535 0
M  V30 67282 H 6275.52 -4.89374 1.16283 0
M  V30 67283 H 6275.22 -5.1072 2.90584 0
M  V30 67284 H 6276.74 -5.70094 2.18689 0
M  V30 67285 H 6278.16 -4.20535 3.89645 0
M  V30 67286 H 6276.56 -3.84989 4.6033 0
M  V30 67287 H 6277.63 -2.51176 4.14775 0
M  V30 67288 N 6278.97 -1.26556 -0.93922 0
M  V30 67289 C 6280.38 -1.03711 -1.2131 0
M  V30 67290 C 6280.58 0.236526 -2.00107 0
M  V30 67291 O 6279.64 0.945136 -2.34144 0
M  V30 67292 C 6280.95 -2.26968 -1.97246 0
M  V30 67293 C 6282.5 -2.31888 -2.1023 0
M  V30 67294 C 6282.98 -3.54843 -2.89569 0
M  V30 67295 N 6284.47 -3.55332 -2.97142 0
M  V30 67296 C 6285.2 -4.47137 -3.58965 0
M  V30 67297 N 6284.7 -5.49234 -4.22273 0
M  V30 67298 N 6286.49 -4.34785 -3.56256 0
M  V30 67299 H 6278.64 -2.08356 -0.412498 0
M  V30 67300 H 6280.91 -0.915783 -0.245041 0
M  V30 67301 H 6280.61 -3.19617 -1.46757 0
M  V30 67302 H 6280.49 -2.31371 -2.97905 0
M  V30 67303 H 6282.87 -1.39752 -2.5991 0
M  V30 67304 H 6282.95 -2.31495 -1.08828 0
M  V30 67305 H 6282.6 -4.47309 -2.40576 0
M  V30 67306 H 6282.53 -3.52485 -3.91232 0
M  V30 67307 H 6285.02 -2.81488 -2.52137 0
M  V30 67308 H 6285.33 -6.15471 -4.6735 0
M  V30 67309 H 6283.68 -5.53089 -4.20854 0
M  V30 67310 H 6286.87 -3.54241 -3.05992 0
M  V30 67311 H 6287.04 -5.06525 -4.04149 0
M  V30 67312 N 6280.45 1.14407 -1.08391 0
M  V30 67313 C 6281.68 1.89029 -0.833751 0
M  V30 67314 C 6282.08 1.78831 0.617737 0
M  V30 67315 O 6281.43 1.14535 1.43622 0
M  V30 67316 C 6281.49 3.39704 -1.1765 0
M  V30 67317 C 6281.15 3.73686 -2.63073 0
M  V30 67318 C 6282.15 3.73819 -3.61324 0
M  V30 67319 C 6279.84 4.03671 -2.98924 0
M  V30 67320 C 6281.83 4.0346 -4.93456 0
M  V30 67321 C 6279.52 4.32974 -4.3125 0
M  V30 67322 C 6280.51 4.32852 -5.28325 0
M  V30 67323 O 6280.2 4.61446 -6.58272 0
M  V30 67324 H 6279.93 0.605611 -0.300353 0
M  V30 67325 H 6282.49 1.45819 -1.44658 0
M  V30 67326 H 6280.72 3.83366 -0.506672 0
M  V30 67327 H 6282.41 3.95632 -0.907181 0
M  V30 67328 H 6283.17 3.50742 -3.34971 0
M  V30 67329 H 6279.05 4.02918 -2.24004 0
M  V30 67330 H 6282.6 4.0328 -5.6922 0
M  V30 67331 H 6278.49 4.55522 -4.57351 0
M  V30 67332 H 6279.26 4.79164 -6.63585 0
M  V30 67333 N 6281.93 0.869555 1.3144 0
M  V30 67334 C 6282.87 0.314114 2.30469 0
M  V30 67335 C 6283.87 -0.570579 1.59502 0
M  V30 67336 O 6285.07 -0.456726 1.74109 0
M  V30 67337 H 6281.45 0.0828962 0.747417 0
M  V30 67338 H 6283.42 1.16329 2.74791 0
M  V30 67339 C 6282.17 -0.469835 3.44511 0
M  V30 67340 H 6281.49 0.201649 3.99291 0
M  V30 67341 H 6282.93 -0.823821 4.1592 0
M  V30 67342 C 6281.39 -1.66094 2.93112 0
M  V30 67343 O 6281.92 -2.76023 2.91846 0
M  V30 67344 N 6280.13 -1.49294 2.49319 0
M  V30 67345 H 6279.67 -0.598654 2.50547 0
M  V30 67346 H 6279.63 -2.29129 2.15284 0
M  V30 67347 N 6283.4 -1.44506 0.628953 0
M  V30 67348 C 6284.65 -2.0128 0.130037 0
M  V30 67349 C 6284.97 -1.50045 -1.25482 0
M  V30 67350 O 6286.17 -1.98934 -1.84764 0
M  V30 67351 C 6284.63 -3.59441 0.181727 0
M  V30 67352 C 6284.24 -4.19673 1.56777 0
M  V30 67353 C 6285.98 -4.23698 -0.260839 0
M  V30 67354 C 6283.89 -5.70051 1.57469 0
M  V30 67355 H 6282.82 -0.752665 0.0448479 0
M  V30 67356 H 6285.47 -1.65746 0.78743 0
M  V30 67357 H 6283.85 -3.92263 -0.542727 0
M  V30 67358 H 6285.02 -3.98391 2.31563 0
M  V30 67359 H 6283.34 -3.67694 1.95423 0
M  V30 67360 H 6285.94 -5.33991 -0.275168 0
M  V30 67361 H 6286.28 -3.95883 -1.28773 0
M  V30 67362 H 6286.81 -3.95671 0.411048 0
M  V30 67363 H 6283.55 -6.02597 2.57987 0
M  V30 67364 H 6283.07 -5.93461 0.869723 0
M  V30 67365 H 6284.75 -6.33647 1.30767 0
M  V30 67366 N 6284.88 -0.369369 -1.5321 0
M  V30 67367 C 6285.81 0.467162 -2.28779 0
M  V30 67368 C 6286.79 1.08069 -1.31359 0
M  V30 67369 O 6287.98 1.09722 -1.60233 0
M  V30 67370 C 6285.11 1.60508 -3.07985 0
M  V30 67371 C 6284.06 1.11861 -4.13124 0
M  V30 67372 C 6283.39 2.34706 -4.80434 0
M  V30 67373 C 6284.69 0.200663 -5.21914 0
M  V30 67374 H 6286.38 -0.163306 -2.98954 0
M  V30 67375 H 6283.93 -0.0799817 -1.43778 0
M  V30 67376 H 6285.88 2.19696 -3.596 0
M  V30 67377 H 6284.6 2.26284 -2.35507 0
M  V30 67378 H 6283.26 0.549394 -3.6246 0
M  V30 67379 H 6282.91 2.98946 -4.04524 0
M  V30 67380 H 6282.61 2.02827 -5.51484 0
M  V30 67381 H 6284.14 2.94573 -5.34845 0
M  V30 67382 H 6285.55 0.700131 -5.69009 0
M  V30 67383 H 6283.95 -0.0274332 -6.00094 0
M  V30 67384 H 6285.02 -0.756117 -4.78969 0
M  V30 67385 N 6286.36 1.57291 -0.0986369 0
M  V30 67386 C 6287.59 1.98821 0.57252 0
M  V30 67387 C 6288 0.977843 1.61504 0
M  V30 67388 O 6287.36 -0.0320744 1.82472 0
M  V30 67389 C 6287.41 3.40397 1.21704 0
M  V30 67390 O 6287.13 4.37566 0.216212 0
M  V30 67391 C 6288.63 3.9695 1.97347 0
M  V30 67392 H 6285.85 0.653273 0.153216 0
M  V30 67393 H 6288.4 2.03715 -0.17897 0
M  V30 67394 H 6286.55 3.36506 1.91944 0
M  V30 67395 H 6286.97 5.20049 0.681867 0
M  V30 67396 H 6288.44 4.98153 2.37798 0
M  V30 67397 H 6288.92 3.34963 2.84072 0
M  V30 67398 H 6289.52 4.04325 1.31915 0
M  V30 67399 N 6287.84 -0.175072 1.56625 0
M  V30 67400 C 6288.77 -1.21911 1.99148 0
M  V30 67401 C 6289.75 -1.46377 0.866479 0
M  V30 67402 O 6290.93 -1.57775 1.13229 0
M  V30 67403 C 6288.06 -2.55888 2.34816 0
M  V30 67404 C 6287.02 -2.45999 3.50241 0
M  V30 67405 C 6286.34 -3.84432 3.7164 0
M  V30 67406 C 6287.64 -1.96791 4.83808 0
M  V30 67407 H 6289.34 -0.865649 2.86613 0
M  V30 67408 H 6286.88 -0.414966 1.37891 0
M  V30 67409 H 6288.84 -3.29127 2.63161 0
M  V30 67410 H 6287.56 -2.93015 1.44256 0
M  V30 67411 H 6286.22 -1.75215 3.22017 0
M  V30 67412 H 6285.87 -4.18946 2.78377 0
M  V30 67413 H 6285.57 -3.78684 4.49302 0
M  V30 67414 H 6287.09 -4.59262 4.02382 0
M  V30 67415 H 6288.51 -2.59801 5.11054 0
M  V30 67416 H 6286.9 -2.02 5.6508 0
M  V30 67417 H 6287.97 -0.922042 4.76053 0
M  V30 67418 N 6289.32 -1.51231 -0.443497 0
M  V30 67419 C 6290.25 -1.66775 -1.5576 0
M  V30 67420 C 6291.23 -0.515399 -1.54215 0
M  V30 67421 O 6292.41 -0.738456 -1.73433 0
M  V30 67422 C 6289.54 -1.67569 -2.94344 0
M  V30 67423 C 6288.58 -2.88696 -3.13938 0
M  V30 67424 S 6289.42 -4.49603 -2.90891 0
M  V30 67425 C 6290.57 -4.53131 -4.31767 0
M  V30 67426 H 6290.81 -2.61011 -1.4234 0
M  V30 67427 H 6288.34 -1.40838 -0.632766 0
M  V30 67428 H 6290.3 -1.6871 -3.74229 0
M  V30 67429 H 6288.96 -0.745211 -3.05132 0
M  V30 67430 H 6288.15 -2.85634 -4.15246 0
M  V30 67431 H 6287.75 -2.85264 -2.41869 0
M  V30 67432 H 6290.04 -4.28393 -5.24867 0
M  V30 67433 H 6290.99 -5.5491 -4.39864 0
M  V30 67434 H 6291.4 -3.82523 -4.15134 0
M  V30 67435 N 6290.79 0.698537 -1.41274 0
M  V30 67436 C 6292.21 1.00876 -1.23678 0
M  V30 67437 C 6292.41 2.01118 -0.124032 0
M  V30 67438 O 6291.47 2.47243 0.512541 0
M  V30 67439 C 6292.78 1.5362 -2.58498 0
M  V30 67440 C 6294.33 1.65519 -2.65655 0
M  V30 67441 C 6294.8 2.21665 -4.00785 0
M  V30 67442 N 6296.29 2.2903 -4.02616 0
M  V30 67443 C 6297.03 2.73494 -5.03973 0
M  V30 67444 N 6296.52 3.17585 -6.1572 0
M  V30 67445 N 6298.32 2.73031 -4.91335 0
M  V30 67446 H 6290.47 0.0344142 -2.12372 0
M  V30 67447 H 6292.73 0.0778409 -0.944799 0
M  V30 67448 H 6292.44 0.874219 -3.40662 0
M  V30 67449 H 6292.31 2.51881 -2.80777 0
M  V30 67450 H 6294.7 2.3083 -1.83852 0
M  V30 67451 H 6294.78 0.658114 -2.47189 0
M  V30 67452 H 6294.42 1.56971 -4.83035 0
M  V30 67453 H 6294.35 3.22119 -4.16589 0
M  V30 67454 H 6296.84 1.97911 -3.21931 0
M  V30 67455 H 6297.16 3.50131 -6.88933 0
M  V30 67456 H 6295.5 3.15501 -6.19261 0
M  V30 67457 H 6298.69 2.37933 -4.0312 0
M  V30 67458 H 6298.87 3.07366 -5.70465 0
M  V30 67459 N 6292.27 1.27052 0.932495 0
M  V30 67460 C 6293.2 1.03684 2.03285 0
M  V30 67461 C 6294.18 -0.0412156 1.62548 0
M  V30 67462 O 6295.37 0.102963 1.88219 0
M  V30 67463 C 6292.49 0.57185 3.33838 0
M  V30 67464 C 6291.54 1.64376 3.93551 0
M  V30 67465 S 6292.37 3.23501 4.2674 0
M  V30 67466 C 6293.53 2.78792 5.6038 0
M  V30 67467 H 6293.76 1.96849 2.22795 0
M  V30 67468 H 6291.29 1.1083 1.075 0
M  V30 67469 H 6293.25 0.310245 4.09326 0
M  V30 67470 H 6291.91 -0.339664 3.12258 0
M  V30 67471 H 6291.11 1.26961 4.87747 0
M  V30 67472 H 6290.71 1.85719 3.2463 0
M  V30 67473 H 6293 2.23796 6.3947 0
M  V30 67474 H 6293.94 3.71713 6.0269 0
M  V30 67475 H 6294.35 2.18083 5.20673 0
M  V30 67476 N 6293.75 -1.13831 1.08997 0
M  V30 67477 C 6294.68 -2.21224 0.747147 0
M  V30 67478 C 6295.66 -1.67892 -0.273173 0
M  V30 67479 O 6296.85 -1.93679 -0.14221 0
M  V30 67480 C 6293.98 -3.46921 0.16215 0
M  V30 67481 C 6292.93 -4.13316 1.11149 0
M  V30 67482 C 6292.26 -5.33287 0.388415 0
M  V30 67483 C 6293.56 -4.6116 2.45211 0
M  V30 67484 H 6295.25 -2.50157 1.64505 0
M  V30 67485 H 6292.8 -1.20237 0.792411 0
M  V30 67486 H 6294.75 -4.21304 -0.0897272 0
M  V30 67487 H 6293.47 -3.17371 -0.770924 0
M  V30 67488 H 6292.13 -3.40895 1.34857 0
M  V30 67489 H 6291.78 -4.99999 -0.548656 0
M  V30 67490 H 6291.48 -5.78655 1.02136 0
M  V30 67491 H 6293 -6.10428 0.144734 0
M  V30 67492 H 6294.42 -5.26988 2.25736 0
M  V30 67493 H 6292.81 -5.17252 3.04253 0
M  V30 67494 H 6293.88 -3.75913 3.06297 0
M  V30 67495 N 6295.23 -0.876513 -1.30977 0
M  V30 67496 C 6296.45 -0.504595 -2.01168 0
M  V30 67497 C 6296.88 0.897237 -1.65322 0
M  V30 67498 O 6296.24 1.59317 -0.865311 0
M  V30 67499 C 6296.28 -0.676641 -3.54195 0
M  V30 67500 O 6295.39 0.281195 -4.1144 0
M  V30 67501 H 6294.73 -0.199877 -0.633202 0
M  V30 67502 H 6297.26 -1.18173 -1.67022 0
M  V30 67503 H 6297.27 -0.572415 -4.03965 0
M  V30 67504 H 6295.94 -1.69877 -3.79624 0
M  V30 67505 H 6294.52 0.131375 -3.72669 0
M  V30 67506 N 6296.71 1.4417 -0.636607 0
M  V30 67507 C 6297.64 2.33443 0.0517898 0
M  V30 67508 C 6298.62 1.48522 0.829174 0
M  V30 67509 O 6299.8 1.77228 0.793965 0
M  V30 67510 C 6296.93 3.31667 1.03026 0
M  V30 67511 C 6295.89 4.26448 0.364137 0
M  V30 67512 C 6295.21 5.14582 1.4529 0
M  V30 67513 C 6296.51 5.1713 -0.733066 0
M  V30 67514 H 6298.21 2.91253 -0.693691 0
M  V30 67515 H 6295.75 1.40048 -0.33504 0
M  V30 67516 H 6297.71 3.93007 1.52063 0
M  V30 67517 H 6296.43 2.72077 1.8067 0
M  V30 67518 H 6295.09 3.66448 -0.105634 0
M  V30 67519 H 6294.74 4.51342 2.22035 0
M  V30 67520 H 6294.44 5.7881 1.01254 0
M  V30 67521 H 6295.96 5.78795 1.94496 0
M  V30 67522 H 6297.37 5.72375 -0.325565 0
M  V30 67523 H 6295.77 5.8999 -1.09689 0
M  V30 67524 H 6296.84 4.57814 -1.59795 0
M  V30 67525 N 6298.18 0.377489 1.53012 0
M  V30 67526 C 6299.13 -0.463335 2.26101 0
M  V30 67527 C 6300.1 -1.06766 1.27241 0
M  V30 67528 O 6301.29 -1.09791 1.56046 0
M  V30 67529 C 6298.43 -1.59092 3.06241 0
M  V30 67530 C 6297.54 -1.01061 4.20013 0
M  V30 67531 C 6296.67 -2.10828 4.87571 0
M  V30 67532 C 6295.71 -1.50324 5.93354 0
M  V30 67533 N 6294.85 -2.53972 6.54555 0
M  V30 67534 H 6299.69 0.16642 2.97535 0
M  V30 67535 H 6297.23 0.0938958 1.468 0
M  V30 67536 H 6299.19 -2.2553 3.50988 0
M  V30 67537 H 6297.82 -2.19116 2.3704 0
M  V30 67538 H 6296.87 -0.236173 3.79666 0
M  V30 67539 H 6298.18 -0.52836 4.95994 0
M  V30 67540 H 6297.33 -2.8506 5.35561 0
M  V30 67541 H 6296.07 -2.62408 4.11088 0
M  V30 67542 H 6295.08 -0.746108 5.44714 0
M  V30 67543 H 6296.3 -0.995527 6.71763 0
M  V30 67544 H 6294.25 -3.04744 5.80919 0
M  V30 67545 H 6294.17 -2.10469 7.26112 0
M  V30 67546 H 6295.43 -3.27871 7.07192 0
M  V30 67547 N 6299.66 -1.57237 0.106977 0
M  V30 67548 C 6300.89 -1.99547 -0.565322 0
M  V30 67549 C 6301.31 -0.985943 -1.6019 0
M  V30 67550 O 6300.67 0.044002 -1.81247 0
M  V30 67551 C 6300.72 -3.40783 -1.17896 0
M  V30 67552 O 6299.82 -3.42664 -2.29467 0
M  V30 67553 H 6299.16 -0.648561 -0.142356 0
M  V30 67554 H 6301.69 -2.03698 0.1919 0
M  V30 67555 H 6301.7 -3.78733 -1.5174 0
M  V30 67556 H 6300.38 -4.13778 -0.419631 0
M  V30 67557 H 6298.96 -3.16521 -1.97152 0
M  V30 67558 N 6301.14 0.166763 -1.56715 0
M  V30 67559 C 6302.07 1.20853 -1.99792 0
M  V30 67560 C 6303.05 1.45915 -0.87423 0
M  V30 67561 O 6304.24 1.57172 -1.14064 0
M  V30 67562 C 6301.37 2.5464 -2.36169 0
M  V30 67563 C 6300.32 2.44138 -3.5154 0
M  V30 67564 C 6299.65 3.82456 -3.73673 0
M  V30 67565 C 6300.95 1.94223 -4.84845 0
M  V30 67566 H 6302.64 0.850438 -2.87068 0
M  V30 67567 H 6300.19 0.407647 -1.3811 0
M  V30 67568 H 6302.14 3.27726 -2.64902 0
M  V30 67569 H 6300.86 2.92246 -1.45808 0
M  V30 67570 H 6299.52 1.73505 -3.22942 0
M  V30 67571 H 6299.17 4.17463 -2.80595 0
M  V30 67572 H 6298.87 3.76296 -4.51304 0
M  V30 67573 H 6300.39 4.57121 -4.04812 0
M  V30 67574 H 6301.81 2.57087 -5.12425 0
M  V30 67575 H 6300.21 1.99001 -5.66144 0
M  V30 67576 H 6301.28 0.896783 -4.76535 0
M  V30 67577 N 6302.62 1.51464 0.43547 0
M  V30 67578 C 6303.57 1.72913 1.52871 0
M  V30 67579 C 6304.54 0.570864 1.55982 0
M  V30 67580 O 6305.72 0.805504 1.72963 0
M  V30 67581 C 6302.86 1.86181 2.9057 0
M  V30 67582 C 6301.97 3.13737 2.96974 0
M  V30 67583 C 6301.11 3.17588 4.25807 0
M  V30 67584 C 6300.15 4.39452 4.26085 0
M  V30 67585 N 6299.28 4.40842 5.46446 0
M  V30 67586 H 6304.12 2.66231 1.33885 0
M  V30 67587 H 6301.66 1.31943 0.650353 0
M  V30 67588 H 6303.62 1.91855 3.7047 0
M  V30 67589 H 6302.25 0.962694 3.0811 0
M  V30 67590 H 6301.3 3.17363 2.09726 0
M  V30 67591 H 6302.61 4.03644 2.93041 0
M  V30 67592 H 6301.77 3.22188 5.14081 0
M  V30 67593 H 6300.51 2.25573 4.32398 0
M  V30 67594 H 6299.51 4.35026 3.36203 0
M  V30 67595 H 6300.74 5.32733 4.21156 0
M  V30 67596 H 6298.68 3.51698 5.53755 0
M  V30 67597 H 6298.6 5.24561 5.44401 0
M  V30 67598 H 6299.87 4.49637 6.36747 0
M  V30 67599 N 6304.1 -0.691035 1.41642 0
M  V30 67600 C 6305.04 -1.8049 1.43847 0
M  V30 67601 C 6306.01 -1.63508 0.292295 0
M  V30 67602 O 6307.2 -1.84294 0.494005 0
M  V30 67603 C 6304.34 -3.18407 1.33083 0
M  V30 67604 C 6303.45 -3.4679 2.57606 0
M  V30 67605 C 6302.59 -4.74345 2.39102 0
M  V30 67606 C 6301.63 -4.9571 3.59079 0
M  V30 67607 N 6300.76 -6.14495 3.39618 0
M  V30 67608 H 6305.6 -1.7794 2.39042 0
M  V30 67609 H 6303.14 -0.868889 1.18696 0
M  V30 67610 H 6305.1 -3.98083 1.24843 0
M  V30 67611 H 6303.73 -3.20122 0.414926 0
M  V30 67612 H 6302.78 -2.61486 2.76277 0
M  V30 67613 H 6304.09 -3.58477 3.46837 0
M  V30 67614 H 6303.25 -5.62084 2.28356 0
M  V30 67615 H 6301.98 -4.64913 1.47335 0
M  V30 67616 H 6300.99 -4.06419 3.70275 0
M  V30 67617 H 6302.21 -5.06999 4.51806 0
M  V30 67618 H 6300.16 -6.06266 2.50554 0
M  V30 67619 H 6300.08 -6.2697 4.22427 0
M  V30 67620 H 6301.35 -7.04956 3.32652 0
M  V30 67621 N 6305.57 -1.27545 -0.925744 0
M  V30 67622 C 6306.51 -1.06237 -2.03092 0
M  V30 67623 C 6307.52 -0.0178306 -1.6279 0
M  V30 67624 O 6308.71 -0.259602 -1.76602 0
M  V30 67625 C 6305.81 -0.589895 -3.33727 0
M  V30 67626 C 6304.98 -1.70715 -4.0271 0
M  V30 67627 C 6304.04 -1.23009 -5.1162 0
M  V30 67628 O 6303.07 -1.93012 -5.35477 0
M  V30 67629 N 6304.27 -0.0867971 -5.80435 0
M  V30 67630 H 6307.03 -2.01409 -2.21934 0
M  V30 67631 H 6304.59 -1.19138 -1.09626 0
M  V30 67632 H 6306.59 -0.254601 -4.03898 0
M  V30 67633 H 6305.16 0.268652 -3.11443 0
M  V30 67634 H 6304.38 -2.21263 -3.26245 0
M  V30 67635 H 6305.66 -2.45695 -4.45546 0
M  V30 67636 H 6305.06 0.49744 -5.63509 0
M  V30 67637 H 6303.62 0.189304 -6.51525 0
M  V30 67638 N 6307.05 1.13251 -1.09599 0
M  V30 67639 C 6307.99 2.17804 -0.680934 0
M  V30 67640 C 6308.96 1.5955 0.313455 0
M  V30 67641 O 6310.15 1.87277 0.214408 0
M  V30 67642 C 6307.27 3.387 -0.00341751 0
M  V30 67643 C 6306.32 4.15558 -0.959899 0
M  V30 67644 S 6307.15 4.74984 -2.47287 0
M  V30 67645 C 6308.31 5.99224 -1.80781 0
M  V30 67646 H 6308.54 2.52674 -1.56663 0
M  V30 67647 H 6306.08 1.24576 -0.912144 0
M  V30 67648 H 6308.03 4.08726 0.381178 0
M  V30 67649 H 6306.69 3.02127 0.858946 0
M  V30 67650 H 6305.89 5.02137 -0.432951 0
M  V30 67651 H 6305.49 3.51196 -1.28598 0
M  V30 67652 H 6307.78 6.67961 -1.13291 0
M  V30 67653 H 6308.72 6.56529 -2.65283 0
M  V30 67654 H 6309.13 5.4989 -1.27599 0
M  V30 67655 N 6308.53 0.883447 1.3051 0
M  V30 67656 C 6309.48 0.347334 2.28171 0
M  V30 67657 C 6310.45 -0.561643 1.56316 0
M  V30 67658 O 6311.63 -0.490389 1.8439 0
M  V30 67659 C 6308.77 -0.433453 3.42367 0
M  V30 67660 C 6307.89 0.504568 4.29043 0
M  V30 67661 C 6307.02 -0.291666 5.30399 0
M  V30 67662 C 6306.06 0.641922 6.08725 0
M  V30 67663 N 6305.2 -0.118893 7.01999 0
M  V30 67664 H 6310.04 1.1853 2.73413 0
M  V30 67665 H 6307.57 0.595871 1.34491 0
M  V30 67666 H 6309.53 -0.902043 4.07332 0
M  V30 67667 H 6308.16 -1.236 2.98199 0
M  V30 67668 H 6307.21 1.09164 3.644 0
M  V30 67669 H 6308.53 1.21986 4.83654 0
M  V30 67670 H 6307.68 -0.822178 6.01103 0
M  V30 67671 H 6306.42 -1.04018 4.76478 0
M  V30 67672 H 6305.42 1.18408 5.36898 0
M  V30 67673 H 6306.65 1.38951 6.64733 0
M  V30 67674 H 6304.59 -0.849975 6.5047 0
M  V30 67675 H 6304.51 0.536802 7.54092 0
M  V30 67676 H 6305.78 -0.630197 7.76948 0
M  V30 67677 N 6310.01 -1.43831 0.644244 0
M  V30 67678 C 6310.96 -2.3074 -0.0527986 0
M  V30 67679 C 6311.93 -1.44237 -0.823701 0
M  V30 67680 O 6313.11 -1.73121 -0.80211 0
M  V30 67681 C 6310.25 -3.29699 -1.01944 0
M  V30 67682 C 6309.36 -4.31301 -0.245582 0
M  V30 67683 C 6308.5 -5.17347 -1.20521 0
M  V30 67684 C 6307.54 -6.10649 -0.421271 0
M  V30 67685 N 6306.67 -6.89348 -1.33203 0
M  V30 67686 H 6311.51 -2.89801 0.694225 0
M  V30 67687 H 6309.05 -1.42774 0.354119 0
M  V30 67688 H 6311.01 -3.85573 -1.59339 0
M  V30 67689 H 6309.64 -2.72308 -1.73344 0
M  V30 67690 H 6308.69 -3.77794 0.444513 0
M  V30 67691 H 6310 -4.97467 0.364406 0
M  V30 67692 H 6309.16 -5.77803 -1.85009 0
M  V30 67693 H 6307.9 -4.51286 -1.84912 0
M  V30 67694 H 6306.9 -5.49289 0.237009 0
M  V30 67695 H 6308.13 -6.7875 0.218101 0
M  V30 67696 H 6306.07 -6.25944 -1.9629 0
M  V30 67697 H 6305.99 -7.52003 -0.776389 0
M  V30 67698 H 6307.26 -7.54317 -1.96534 0
M  V30 67699 N 6311.49 -0.385598 -1.5281 0
M  V30 67700 C 6312.73 0.198067 -2.0183 0
M  V30 67701 C 6313.07 1.4677 -1.2717 0
M  V30 67702 O 6312.34 1.90927 -0.371101 0
M  V30 67703 C 6312.62 0.469747 -3.57023 0
M  V30 67704 C 6312.48 -0.814911 -4.42356 0
M  V30 67705 C 6313.8 1.26194 -4.2162 0
M  V30 67706 H 6310.92 0.0705128 -0.733619 0
M  V30 67707 H 6313.56 -0.514436 -1.82903 0
M  V30 67708 H 6311.71 1.07671 -3.73282 0
M  V30 67709 H 6313.38 -1.45187 -4.37856 0
M  V30 67710 H 6311.62 -1.43103 -4.09517 0
M  V30 67711 H 6312.29 -0.579513 -5.4895 0
M  V30 67712 H 6314.77 0.748307 -4.09316 0
M  V30 67713 H 6313.65 1.42078 -5.30193 0
M  V30 67714 H 6313.91 2.27611 -3.79006 0
M  V30 67715 N 6312.97 1.57178 -0.115314 0
M  V30 67716 C 6313.91 2.15117 0.836256 0
M  V30 67717 C 6314.88 1.07516 1.26608 0
M  V30 67718 O 6316.07 1.35405 1.34425 0
M  V30 67719 C 6313.21 2.75194 2.08235 0
M  V30 67720 C 6312.32 3.97092 1.70123 0
M  V30 67721 C 6311.46 4.45268 2.89672 0
M  V30 67722 C 6310.49 5.59706 2.47781 0
M  V30 67723 N 6309.63 6.02642 3.60231 0
M  V30 67724 H 6314.47 2.96107 0.33533 0
M  V30 67725 H 6312.01 1.46293 0.153829 0
M  V30 67726 H 6313.97 3.08155 2.81241 0
M  V30 67727 H 6312.6 1.969 2.55793 0
M  V30 67728 H 6311.65 3.70316 0.870062 0
M  V30 67729 H 6312.96 4.80089 1.35335 0
M  V30 67730 H 6312.11 4.80118 3.70906 0
M  V30 67731 H 6310.85 3.61213 3.27684 0
M  V30 67732 H 6309.86 5.24464 1.64978 0
M  V30 67733 H 6311.08 6.45525 2.10891 0
M  V30 67734 H 6309.03 5.21529 3.97924 0
M  V30 67735 H 6308.95 6.80486 3.29355 0
M  V30 67736 H 6310.21 6.42129 4.41916 0
M  V30 67737 N 6314.44 -0.15845 1.56801 0
M  V30 67738 C 6315.39 -1.19594 1.97398 0
M  V30 67739 C 6316.36 -1.43305 0.839816 0
M  V30 67740 O 6317.55 -1.55831 1.10097 0
M  V30 67741 C 6314.69 -2.5272 2.35003 0
M  V30 67742 C 6313.8 -2.3628 3.61657 0
M  V30 67743 C 6312.93 -3.62362 3.88416 0
M  V30 67744 C 6311.97 -3.40909 5.08377 0
M  V30 67745 N 6311.11 -4.59093 5.31204 0
M  V30 67746 H 6315.95 -0.842736 2.85836 0
M  V30 67747 H 6313.49 -0.404694 1.41424 0
M  V30 67748 H 6315.44 -3.30328 2.54831 0
M  V30 67749 H 6314.07 -2.8601 1.4966 0
M  V30 67750 H 6313.13 -1.49783 3.4967 0
M  V30 67751 H 6314.44 -2.16381 4.49423 0
M  V30 67752 H 6313.59 -4.48402 4.08681 0
M  V30 67753 H 6312.33 -3.85253 2.99051 0
M  V30 67754 H 6311.34 -2.53257 4.87997 0
M  V30 67755 H 6312.56 -3.19428 5.99285 0
M  V30 67756 H 6310.51 -4.82179 4.44791 0
M  V30 67757 H 6310.42 -4.42155 6.13217 0
M  V30 67758 H 6311.69 -5.4638 5.55958 0
M  V30 67759 N 6315.92 -1.51693 -0.427432 0
M  V30 67760 C 6316.85 -1.68418 -1.53983 0
M  V30 67761 C 6317.83 -0.531727 -1.5366 0
M  V30 67762 O 6319.02 -0.756809 -1.7264 0
M  V30 67763 C 6316.14 -1.70681 -2.9255 0
M  V30 67764 C 6315.19 -2.92009 -3.10858 0
M  V30 67765 S 6316.02 -4.52663 -2.86106 0
M  V30 67766 C 6317.18 -4.57685 -4.26937 0
M  V30 67767 H 6317.41 -2.62506 -1.39564 0
M  V30 67768 H 6314.94 -1.41502 -0.617793 0
M  V30 67769 H 6316.9 -1.7267 -3.72418 0
M  V30 67770 H 6315.56 -0.777532 -3.04324 0
M  V30 67771 H 6314.76 -2.90022 -4.12193 0
M  V30 67772 H 6314.36 -2.87813 -2.38829 0
M  V30 67773 H 6316.65 -4.33936 -5.20294 0
M  V30 67774 H 6317.59 -5.59544 -4.33954 0
M  V30 67775 H 6318 -3.86904 -4.11054 0
M  V30 67776 N 6317.4 0.683514 -1.42007 0
M  V30 67777 C 6318.63 1.47204 -1.45391 0
M  V30 67778 C 6319.04 1.88696 -0.0626694 0
M  V30 67779 O 6318.4 1.57573 0.920709 0
M  V30 67780 C 6318.45 2.72682 -2.37333 0
M  V30 67781 O 6318.17 2.32934 -3.71044 0
M  V30 67782 C 6319.67 3.66321 -2.49647 0
M  V30 67783 H 6316.89 0.453238 -0.494789 0
M  V30 67784 H 6319.44 0.840581 -1.86426 0
M  V30 67785 H 6317.59 3.32037 -1.99575 0
M  V30 67786 H 6318.01 3.139 -4.20199 0
M  V30 67787 H 6319.48 4.51114 -3.1812 0
M  V30 67788 H 6319.96 4.11631 -1.53156 0
M  V30 67789 H 6320.56 3.12864 -2.88091 0
M  V30 67790 N 6318.88 1.28034 0.918967 0
M  V30 67791 C 6320.12 1.15054 1.67004 0
M  V30 67792 C 6320.46 -0.301234 1.91849 0
M  V30 67793 O 6319.73 -1.21959 1.51513 0
M  V30 67794 C 6320.01 1.94399 3.03119 0
M  V30 67795 C 6319.87 3.4761 2.8546 0
M  V30 67796 C 6321.19 1.75531 4.0358 0
M  V30 67797 H 6318.31 0.419333 0.606077 0
M  V30 67798 H 6320.95 1.57291 1.06582 0
M  V30 67799 H 6319.1 1.58506 3.54694 0
M  V30 67800 H 6320.77 3.9338 2.40935 0
M  V30 67801 H 6319.01 3.73507 2.20624 0
M  V30 67802 H 6319.68 3.98379 3.82097 0
M  V30 67803 H 6322.16 2.06844 3.61047 0
M  V30 67804 H 6321.04 2.33429 4.96792 0
M  V30 67805 H 6321.3 0.705463 4.36435 0
M  V30 67806 N 6320.36 -1.12669 1.10198 0
M  V30 67807 C 6321.3 -2.18323 0.748573 0
M  V30 67808 C 6322.27 -1.63825 -0.27395 0
M  V30 67809 O 6323.46 -1.90179 -0.153785 0
M  V30 67810 C 6320.6 -3.4461 0.183894 0
M  V30 67811 C 6319.71 -4.13173 1.26142 0
M  V30 67812 C 6318.85 -5.27101 0.658647 0
M  V30 67813 C 6317.88 -5.87527 1.71692 0
M  V30 67814 N 6317.02 -6.92872 1.1346 0
M  V30 67815 H 6321.86 -2.479 1.65377 0
M  V30 67816 H 6319.4 -1.21712 0.826106 0
M  V30 67817 H 6321.36 -4.16888 -0.161365 0
M  V30 67818 H 6319.99 -3.15458 -0.684546 0
M  V30 67819 H 6319.04 -3.39099 1.72384 0
M  V30 67820 H 6320.35 -4.54156 2.06262 0
M  V30 67821 H 6319.5 -6.06131 0.262693 0
M  V30 67822 H 6318.24 -4.87389 -0.174012 0
M  V30 67823 H 6317.25 -5.07185 2.12233 0
M  V30 67824 H 6318.47 -6.29309 2.55239 0
M  V30 67825 H 6316.42 -6.55203 0.323357 0
M  V30 67826 H 6316.34 -7.32439 1.87266 0
M  V30 67827 H 6317.6 -7.75736 0.76511 0
M  V30 67828 N 6321.83 -0.890356 -1.3004 0
M  V30 67829 C 6323.11 -0.431377 -1.90784 0
M  V30 67830 C 6323.49 1.08829 -1.80885 0
M  V30 67831 O 6322.84 1.926 -1.22953 0
M  V30 67832 C 6323.05 -0.935495 -3.36228 0
M  V30 67833 C 6324.4 -0.97365 -4.13286 0
M  V30 67834 O 6325.42 -0.882525 -3.45094 0
M  V30 67835 O 6324.28 -1.10912 -5.35127 0
M  V30 67836 H 6321.37 -0.132873 -0.816256 0
M  V30 67837 H 6323.92 -0.979609 -1.3857 0
M  V30 67838 H 6322.69 -1.9794 -3.37543 0
M  V30 67839 H 6322.31 -0.366736 -3.95905 0
M  V30 67840 N 6323.31 1.43487 -0.651863 0
M  V30 67841 C 6324.24 2.28021 0.0902867 0
M  V30 67842 C 6325.22 1.39749 0.831204 0
M  V30 67843 O 6326.41 1.69192 0.831052 0
M  V30 67844 C 6323.53 3.19133 1.13455 0
M  V30 67845 C 6322.58 4.23655 0.491831 0
M  V30 67846 S 6323.41 5.30451 -0.733596 0
M  V30 67847 C 6324.57 6.25131 0.310163 0
M  V30 67848 H 6324.8 2.90617 -0.6268 0
M  V30 67849 H 6322.33 1.47978 -0.440659 0
M  V30 67850 H 6324.29 3.72171 1.73203 0
M  V30 67851 H 6322.95 2.55717 1.82394 0
M  V30 67852 H 6322.15 4.87501 1.279 0
M  V30 67853 H 6321.75 3.73987 -0.0315089 0
M  V30 67854 H 6324.04 6.67202 1.17675 0
M  V30 67855 H 6324.98 7.07493 -0.293246 0
M  V30 67856 H 6325.39 5.60799 0.645362 0
M  V30 67857 N 6324.79 0.393696 1.52603 0
M  V30 67858 C 6326.04 -0.18736 2.01933 0
M  V30 67859 C 6326.37 -1.46093 1.27947 0
M  V30 67860 O 6325.64 -1.90727 0.381221 0
M  V30 67861 C 6325.93 -0.450807 3.57267 0
M  V30 67862 C 6325.78 0.838359 4.41918 0
M  V30 67863 C 6327.1 -1.23956 4.22283 0
M  V30 67864 H 6324.22 -0.0666212 0.733983 0
M  V30 67865 H 6326.86 0.524128 1.82628 0
M  V30 67866 H 6325.01 -1.0569 3.73847 0
M  V30 67867 H 6326.68 1.47508 4.3708 0
M  V30 67868 H 6324.92 1.45272 4.08752 0
M  V30 67869 H 6325.6 0.608617 5.48635 0
M  V30 67870 H 6328.07 -0.726589 4.09707 0
M  V30 67871 H 6326.95 -1.39264 5.30939 0
M  V30 67872 H 6327.21 -2.25598 3.80208 0
M  V30 67873 N 6326.27 -1.57114 0.123648 0
M  V30 67874 C 6327.5 -1.99707 -0.540817 0
M  V30 67875 C 6327.91 -1.00341 -1.59928 0
M  V30 67876 O 6327.27 0.00304061 -1.825 0
M  V30 67877 C 6327.32 -3.4229 -1.16273 0
M  V30 67878 O 6327.04 -4.37855 -0.146571 0
M  V30 67879 C 6328.54 -4.00039 -1.91007 0
M  V30 67880 H 6325.76 -0.655628 -0.142804 0
M  V30 67881 H 6328.31 -2.03405 0.211356 0
M  V30 67882 H 6326.46 -3.39517 -1.86566 0
M  V30 67883 H 6326.87 -5.21068 -0.599045 0
M  V30 67884 H 6328.35 -5.01873 -2.29843 0
M  V30 67885 H 6328.83 -3.3944 -2.78707 0
M  V30 67886 H 6329.43 -4.06372 -1.25466 0
M  V30 67887 N 6327.75 0.150132 -1.56883 0
M  V30 67888 C 6328.71 1.16936 -1.97126 0
M  V30 67889 C 6329.71 1.36034 -0.857401 0
M  V30 67890 O 6330.9 1.33079 -1.12408 0
M  V30 67891 C 6328.03 2.53029 -2.28449 0
M  V30 67892 H 6329.22 0.824196 -2.88352 0
M  V30 67893 H 6326.78 0.393361 -1.51269 0
M  V30 67894 H 6327.51 2.92522 -1.40004 0
M  V30 67895 H 6327.3 2.40529 -3.09658 0
M  V30 67896 H 6328.79 3.26443 -2.60432 0
M  V30 67897 N 6329.22 1.51918 0.419381 0
M  V30 67898 C 6330.47 1.65473 1.16727 0
M  V30 67899 C 6330.8 0.379636 1.90759 0
M  V30 67900 O 6330.05 -0.637027 1.85042 0
M  V30 67901 C 6330.35 2.82047 2.19509 0
M  V30 67902 C 6330.02 4.20655 1.62358 0
M  V30 67903 C 6328.68 4.58358 1.46496 0
M  V30 67904 C 6331.03 5.07074 1.20521 0
M  V30 67905 C 6328.36 5.80169 0.872981 0
M  V30 67906 C 6330.71 6.29481 0.627453 0
M  V30 67907 C 6329.38 6.65941 0.45588 0
M  V30 67908 H 6328.65 0.605507 0.427133 0
M  V30 67909 H 6331.29 1.85995 0.455851 0
M  V30 67910 H 6329.6 2.55818 2.96756 0
M  V30 67911 H 6331.3 2.89732 2.7723 0
M  V30 67912 H 6327.89 3.90938 1.75685 0
M  V30 67913 H 6332.07 4.78537 1.31589 0
M  V30 67914 H 6327.33 6.07051 0.727973 0
M  V30 67915 H 6331.5 6.95776 0.294836 0
M  V30 67916 H 6329.13 7.602 -0.0049431 0
M  V30 67917 N 6330.7 -0.675973 1.42367 0
M  V30 67918 C 6331.95 -1.43603 1.42774 0
M  V30 67919 C 6332.28 -1.94451 0.0437644 0
M  V30 67920 O 6331.53 -1.71225 -0.947662 0
M  V30 67921 C 6331.83 -2.6501 2.39801 0
M  V30 67922 C 6331.5 -2.3271 3.86208 0
M  V30 67923 C 6330.16 -2.23613 4.26088 0
M  V30 67924 C 6332.51 -2.06461 4.78564 0
M  V30 67925 C 6329.84 -1.86389 5.56306 0
M  V30 67926 C 6332.19 -1.70741 6.09122 0
M  V30 67927 C 6330.86 -1.60153 6.48003 0
M  V30 67928 H 6330.13 -0.525481 0.522447 0
M  V30 67929 H 6332.77 -0.77087 1.75299 0
M  V30 67930 H 6331.08 -3.36552 2.00599 0
M  V30 67931 H 6332.77 -3.23189 2.37381 0
M  V30 67932 H 6329.36 -2.40693 3.54633 0
M  V30 67933 H 6333.55 -2.12423 4.48542 0
M  V30 67934 H 6328.8 -1.7676 5.85291 0
M  V30 67935 H 6332.98 -1.49455 6.80174 0
M  V30 67936 H 6330.61 -1.31079 7.48814 0
M  V30 67937 N 6332.18 -1.2852 -0.912164 0
M  V30 67938 C 6333.41 -1.18738 -1.70047 0
M  V30 67939 C 6333.83 0.250258 -1.86428 0
M  V30 67940 O 6333.19 1.18101 -1.37557 0
M  V30 67941 C 6333.24 -1.89267 -3.06937 0
M  V30 67942 O 6332.34 -1.20122 -3.94518 0
M  V30 67943 H 6331.68 -0.412105 -0.520639 0
M  V30 67944 H 6334.21 -1.6987 -1.14042 0
M  V30 67945 H 6334.22 -1.97236 -3.57158 0
M  V30 67946 H 6332.9 -2.93839 -2.94332 0
M  V30 67947 H 6331.47 -1.20327 -3.52953 0
M  V30 67948 N 6333.66 1.12083 -1.10794 0
M  V30 67949 C 6334.88 1.88031 -0.875163 0
M  V30 67950 C 6335.31 1.79283 0.569128 0
M  V30 67951 O 6334.67 1.15042 1.40125 0
M  V30 67952 C 6334.71 3.35061 -1.3329 0
M  V30 67953 O 6333.82 4.09354 -0.500307 0
M  V30 67954 H 6333.16 0.584105 -0.315781 0
M  V30 67955 H 6335.69 1.4172 -1.47569 0
M  V30 67956 H 6335.7 3.85904 -1.32447 0
M  V30 67957 H 6334.37 3.40745 -2.38465 0
M  V30 67958 H 6332.95 3.68452 -0.574267 0
M  V30 67959 N 6335.14 0.89724 1.29566 0
M  V30 67960 C 6336.37 0.536461 1.99514 0
M  V30 67961 C 6336.77 -0.882615 1.67352 0
M  V30 67962 O 6336.12 -1.59376 0.913515 0
M  V30 67963 C 6336.18 0.645988 3.53648 0
M  V30 67964 C 6335.84 2.03159 4.0936 0
M  V30 67965 C 6336.84 3.00246 4.24439 0
M  V30 67966 C 6334.53 2.34031 4.44449 0
M  V30 67967 C 6336.52 4.2633 4.73837 0
M  V30 67968 C 6334.21 3.60358 4.93544 0
M  V30 67969 C 6335.2 4.56322 5.08192 0
M  V30 67970 O 6334.89 5.80406 5.56223 0
M  V30 67971 H 6334.62 0.20472 0.644256 0
M  V30 67972 H 6337.18 1.2079 1.66129 0
M  V30 67973 H 6335.41 -0.0824696 3.86612 0
M  V30 67974 H 6337.1 0.294716 4.04829 0
M  V30 67975 H 6337.86 2.7771 3.9762 0
M  V30 67976 H 6333.74 1.60097 4.32308 0
M  V30 67977 H 6337.29 5.01239 4.85185 0
M  V30 67978 H 6333.18 3.82726 5.19799 0
M  V30 67979 H 6333.95 5.82961 5.74542 0
M  V30 67980 N 6336.61 -1.43139 0.659463 0
M  V30 67981 C 6337.86 -2.02563 0.184288 0
M  V30 67982 C 6338.22 -1.51133 -1.19066 0
M  V30 67983 O 6337.51 -0.697363 -1.78458 0
M  V30 67984 C 6337.7 -3.57118 0.141951 0
M  V30 67985 C 6337.53 -4.23546 1.51125 0
M  V30 67986 C 6336.3 -4.59358 2.1052 0
M  V30 67987 C 6338.5 -4.52145 2.45091 0
M  V30 67988 N 6336.48 -5.10889 3.4039 0
M  V30 67989 C 6337.85 -5.05062 3.596 0
M  V30 67990 C 6339.91 -4.34119 2.43814 0
M  V30 67991 C 6338.61 -5.4185 4.73066 0
M  V30 67992 C 6340.64 -4.71972 3.56365 0
M  V30 67993 C 6340 -5.25029 4.696 0
M  V30 67994 H 6336.1 -0.773937 0.112009 0
M  V30 67995 H 6338.68 -1.74225 0.869123 0
M  V30 67996 H 6336.85 -3.85007 -0.512247 0
M  V30 67997 H 6338.58 -4.0323 -0.344677 0
M  V30 67998 H 6335.34 -4.44606 1.63165 0
M  V30 67999 H 6335.76 -5.41101 4.06864 0
M  V30 68000 H 6340.41 -3.92368 1.57503 0
M  V30 68001 H 6338.12 -5.82541 5.60064 0
M  V30 68002 H 6341.71 -4.59714 3.56586 0
M  V30 68003 H 6340.59 -5.53775 5.5525 0
M  V30 68004 N 6338.09 -0.401784 -1.52392 0
M  V30 68005 C 6339.32 0.178589 -2.0663 0
M  V30 68006 C 6339.74 1.38705 -1.27053 0
M  V30 68007 O 6339.1 1.7882 -0.298828 0
M  V30 68008 C 6339.15 0.514671 -3.56908 0
M  V30 68009 O 6338.25 1.60678 -3.79811 0
M  V30 68010 H 6337.59 0.0174051 -0.663772 0
M  V30 68011 H 6340.12 -0.572861 -1.96417 0
M  V30 68012 H 6340.13 0.775414 -4.00564 0
M  V30 68013 H 6338.81 -0.36877 -4.14262 0
M  V30 68014 H 6337.39 1.33878 -3.48039 0
M  V30 68015 N 6339.57 1.57046 -0.131978 0
M  V30 68016 C 6340.82 1.94808 0.522739 0
M  V30 68017 C 6341.13 1.01843 1.66995 0
M  V30 68018 O 6342.34 1.29123 2.38829 0
M  V30 68019 C 6340.79 3.46263 0.981312 0
M  V30 68020 C 6340.4 4.47787 -0.138145 0
M  V30 68021 C 6342.15 3.9292 1.60667 0
M  V30 68022 C 6340.05 5.90434 0.337855 0
M  V30 68023 H 6338.98 0.727252 0.19905 0
M  V30 68024 H 6341.63 1.82249 -0.213915 0
M  V30 68025 H 6340.02 3.54103 1.77278 0
M  V30 68026 H 6341.19 4.51629 -0.91475 0
M  V30 68027 H 6339.51 4.10959 -0.670967 0
M  V30 68028 H 6342.1 4.96921 1.97417 0
M  V30 68029 H 6342.45 3.33624 2.48999 0
M  V30 68030 H 6342.98 3.87936 0.880377 0
M  V30 68031 H 6339.72 6.53515 -0.509732 0
M  V30 68032 H 6339.24 5.89985 1.08066 0
M  V30 68033 H 6340.92 6.42099 0.794827 0
M  V30 68034 N 6341.05 -0.14181 1.56961 0
M  V30 68035 C 6342.3 -0.853545 1.83632 0
M  V30 68036 C 6342.62 -1.80934 0.713655 0
M  V30 68037 O 6341.88 -1.93435 -0.296913 0
M  V30 68038 C 6342.18 -1.65706 3.16664 0
M  V30 68039 C 6341.84 -0.847592 4.42862 0
M  V30 68040 C 6340.51 -0.62429 4.77133 0
M  V30 68041 C 6342.86 -0.281846 5.20437 0
M  V30 68042 C 6340.19 0.175381 5.86438 0
M  V30 68043 C 6342.54 0.504892 6.30582 0
M  V30 68044 C 6341.2 0.738722 6.634 0
M  V30 68045 H 6340.47 -0.312334 0.671959 0
M  V30 68046 H 6343.12 -0.116939 1.91143 0
M  V30 68047 H 6341.42 -2.46392 3.04628 0
M  V30 68048 H 6343.12 -2.21132 3.34517 0
M  V30 68049 H 6339.71 -1.03171 4.15997 0
M  V30 68050 H 6343.9 -0.441632 4.94331 0
M  V30 68051 H 6339.15 0.365992 6.10304 0
M  V30 68052 H 6343.33 0.950377 6.89885 0
M  V30 68053 H 6340.95 1.36021 7.47932 0
M  V30 68054 N 6342.53 -1.52138 -0.411319 0
M  V30 68055 C 6343.46 -1.70042 -1.52188 0
M  V30 68056 C 6344.44 -0.547994 -1.53087 0
M  V30 68057 O 6345.62 -0.775077 -1.71828 0
M  V30 68058 C 6342.75 -1.73775 -2.90723 0
M  V30 68059 C 6341.8 -2.9529 -3.07743 0
M  V30 68060 S 6342.63 -4.55672 -2.81289 0
M  V30 68061 C 6343.78 -4.62188 -4.22058 0
M  V30 68062 H 6344.02 -2.63971 -1.36772 0
M  V30 68063 H 6341.55 -1.42149 -0.60275 0
M  V30 68064 H 6343.51 -1.7661 -3.70566 0
M  V30 68065 H 6342.17 -0.809766 -3.03482 0
M  V30 68066 H 6341.36 -2.94378 -4.09094 0
M  V30 68067 H 6340.96 -2.9033 -2.35763 0
M  V30 68068 H 6343.26 -4.3943 -5.15662 0
M  V30 68069 H 6344.2 -5.64115 -4.27995 0
M  V30 68070 H 6344.61 -3.91242 -4.06927 0
M  V30 68071 N 6344.01 0.668413 -1.42723 0
M  V30 68072 C 6345.23 1.45654 -1.46944 0
M  V30 68073 C 6345.65 1.88619 -0.0826796 0
M  V30 68074 O 6345.01 1.58541 0.903944 0
M  V30 68075 C 6345.06 2.70149 -2.40212 0
M  V30 68076 O 6344.78 2.28986 -3.73493 0
M  V30 68077 C 6346.28 3.63653 -2.53518 0
M  V30 68078 H 6343.5 0.447964 -0.499569 0
M  V30 68079 H 6346.04 0.820761 -1.87307 0
M  V30 68080 H 6344.2 3.29902 -2.03085 0
M  V30 68081 H 6344.61 3.09426 -4.23504 0
M  V30 68082 H 6346.09 4.47714 -3.22887 0
M  V30 68083 H 6346.56 4.09983 -1.57513 0
M  V30 68084 H 6347.17 3.0979 -2.91393 0
M  V30 68085 N 6345.48 1.29002 0.905335 0
M  V30 68086 C 6346.41 1.16196 2.02536 0
M  V30 68087 C 6347.39 0.0575891 1.70002 0
M  V30 68088 O 6348.58 0.236072 1.9276 0
M  V30 68089 C 6345.71 0.831823 3.37191 0
M  V30 68090 C 6344.66 1.8919 3.83916 0
M  V30 68091 C 6343.99 1.41519 5.15632 0
M  V30 68092 C 6345.29 3.29985 4.04855 0
M  V30 68093 H 6346.98 2.09893 2.13507 0
M  V30 68094 H 6344.53 1.01053 1.02588 0
M  V30 68095 H 6346.48 0.728971 4.15047 0
M  V30 68096 H 6345.21 -0.140843 3.26296 0
M  V30 68097 H 6343.87 1.98404 3.08272 0
M  V30 68098 H 6343.51 0.431358 5.01147 0
M  V30 68099 H 6343.21 2.1241 5.47865 0
M  V30 68100 H 6344.74 1.32573 5.96034 0
M  V30 68101 H 6346.15 3.23644 4.73209 0
M  V30 68102 H 6344.55 3.98783 4.48433 0
M  V30 68103 H 6345.62 3.7338 3.0938 0
M  V30 68104 N 6346.96 -1.11493 1.11387 0
M  V30 68105 C 6347.89 -2.19589 0.793904 0
M  V30 68106 C 6348.87 -1.68434 -0.2375 0
M  V30 68107 O 6350.06 -1.93937 -0.101096 0
M  V30 68108 C 6347.19 -3.46499 0.235701 0
M  V30 68109 C 6346.14 -4.10865 1.19891 0
M  V30 68110 C 6345.47 -5.32344 0.501446 0
M  V30 68111 C 6346.77 -4.55855 2.54938 0
M  V30 68112 H 6348.46 -2.46611 1.69774 0
M  V30 68113 H 6346.01 -1.18529 0.817736 0
M  V30 68114 H 6347.96 -4.214 -0.000342129 0
M  V30 68115 H 6346.68 -3.18935 -0.703432 0
M  V30 68116 H 6345.34 -3.37957 1.42058 0
M  V30 68117 H 6344.99 -5.0105 -0.442476 0
M  V30 68118 H 6344.69 -5.76359 1.14387 0
M  V30 68119 H 6346.22 -6.09984 0.274182 0
M  V30 68120 H 6347.63 -5.22081 2.36863 0
M  V30 68121 H 6346.03 -5.10682 3.15157 0
M  V30 68122 H 6347.1 -3.69331 3.14202 0
M  V30 68123 N 6348.44 -0.904098 -1.29088 0
M  V30 68124 C 6349.39 -0.356435 -2.25197 0
M  V30 68125 C 6350.37 0.525987 -1.5206 0
M  V30 68126 O 6351.57 0.367286 -1.73147 0
M  V30 68127 C 6348.69 0.411057 -3.4083 0
M  V30 68128 C 6347.78 -0.486536 -4.213 0
M  V30 68129 N 6348.17 -1.59576 -4.79968 0
M  V30 68130 C 6346.47 -0.285135 -4.45088 0
M  V30 68131 C 6347.17 -2.15211 -5.40425 0
M  V30 68132 N 6346.15 -1.44458 -5.24054 0
M  V30 68133 H 6349.95 -1.20371 -2.6812 0
M  V30 68134 H 6347.46 -0.75565 -1.43749 0
M  V30 68135 H 6349.46 0.820181 -4.08753 0
M  V30 68136 H 6348.12 1.25554 -2.99443 0
M  V30 68137 H 6349.13 -1.97845 -4.78621 0
M  V30 68138 H 6345.81 0.52062 -4.14241 0
M  V30 68139 H 6347.2 -3.08465 -5.96908 0
M  V30 68140 N 6349.92 1.42788 -0.667045 0
M  V30 68141 C 6351.16 2.01643 -0.186101 0
M  V30 68142 C 6351.49 1.52698 1.20472 0
M  V30 68143 O 6350.75 0.716482 1.82113 0
M  V30 68144 C 6351.05 3.57038 -0.160888 0
M  V30 68145 C 6350.71 4.25383 -1.49532 0
M  V30 68146 C 6349.37 4.43769 -1.86072 0
M  V30 68147 C 6351.73 4.63968 -2.37452 0
M  V30 68148 C 6349.05 4.98008 -3.1017 0
M  V30 68149 C 6351.41 5.19583 -3.60855 0
M  V30 68150 C 6350.07 5.36183 -3.97573 0
M  V30 68151 H 6349.34 0.737864 -0.0680991 0
M  V30 68152 H 6351.99 1.71078 -0.860495 0
M  V30 68153 H 6350.29 3.87225 0.596996 0
M  V30 68154 H 6351.99 4.00349 0.22832 0
M  V30 68155 H 6348.58 4.11428 -1.20106 0
M  V30 68156 H 6352.76 4.49444 -2.10509 0
M  V30 68157 H 6348.02 5.09045 -3.3865 0
M  V30 68158 H 6352.19 5.48425 -4.29189 0
M  V30 68159 H 6349.82 5.77975 -4.9381 0
M  V30 68160 N 6351.4 0.40986 1.52177 0
M  V30 68161 C 6352.64 -0.165932 2.0212 0
M  V30 68162 C 6352.97 -1.44728 1.29489 0
M  V30 68163 O 6352.25 -1.90312 0.401429 0
M  V30 68164 C 6352.53 -0.412889 3.57725 0
M  V30 68165 C 6352.39 0.885183 4.41004 0
M  V30 68166 C 6353.7 -1.19471 4.23574 0
M  V30 68167 H 6350.82 -0.0588326 0.734648 0
M  V30 68168 H 6353.47 0.543469 1.82062 0
M  V30 68169 H 6351.62 -1.01719 3.74947 0
M  V30 68170 H 6353.29 1.52135 4.35491 0
M  V30 68171 H 6351.53 1.496 4.07188 0
M  V30 68172 H 6352.2 0.666772 5.47958 0
M  V30 68173 H 6354.68 -0.683094 4.10455 0
M  V30 68174 H 6353.55 -1.33625 5.32387 0
M  V30 68175 H 6353.81 -2.21553 3.82579 0
M  V30 68176 N 6352.87 -1.56974 0.140305 0
M  V30 68177 C 6353.84 -2.15237 -0.787764 0
M  V30 68178 C 6354.84 -1.09247 -1.1799 0
M  V30 68179 O 6356.03 -1.3492 -1.10192 0
M  V30 68180 C 6353.16 -2.71002 -2.06811 0
M  V30 68181 H 6354.35 -2.9858 -0.281061 0
M  V30 68182 H 6351.9 -1.55919 -0.109096 0
M  V30 68183 H 6352.64 -1.91306 -2.61864 0
M  V30 68184 H 6352.42 -3.48538 -1.79621 0
M  V30 68185 H 6353.91 -3.15913 -2.73109 0
M  V30 68186 N 6354.35 0.133484 -1.57034 0
M  V30 68187 C 6355.58 0.862326 -1.88623 0
M  V30 68188 C 6356 1.73325 -0.730757 0
M  V30 68189 O 6355.36 1.78467 0.319234 0
M  V30 68190 C 6355.41 1.6837 -3.18879 0
M  V30 68191 O 6354.51 2.78928 -3.03765 0
M  V30 68192 H 6353.85 0.239369 -0.619353 0
M  V30 68193 H 6356.38 0.120235 -2.04246 0
M  V30 68194 H 6356.39 2.07594 -3.51239 0
M  V30 68195 H 6355.07 1.04426 -4.02577 0
M  V30 68196 H 6353.64 2.43012 -2.82842 0
M  V30 68197 N 6355.83 1.52354 0.403245 0
M  V30 68198 C 6357.08 1.66948 1.15135 0
M  V30 68199 C 6357.41 0.401131 1.90012 0
M  V30 68200 O 6356.68 -0.600645 1.84993 0
M  V30 68201 C 6356.97 2.89534 2.14108 0
M  V30 68202 C 6356.82 4.26433 1.43089 0
M  V30 68203 C 6358.14 3.07647 3.14708 0
M  V30 68204 H 6355.26 0.607546 0.417201 0
M  V30 68205 H 6357.9 1.84921 0.436382 0
M  V30 68206 H 6356.05 2.74341 2.7508 0
M  V30 68207 H 6357.72 4.53365 0.851915 0
M  V30 68208 H 6355.97 4.27566 0.732815 0
M  V30 68209 H 6356.64 5.08266 2.15337 0
M  V30 68210 H 6359.11 3.21776 2.63817 0
M  V30 68211 H 6357.99 3.94922 3.81218 0
M  V30 68212 H 6358.25 2.21224 3.82769 0
M  V30 68213 N 6357.31 -0.660835 1.43076 0
M  V30 68214 C 6358.56 -1.42081 1.44289 0
M  V30 68215 C 6358.88 -1.94393 0.0643861 0
M  V30 68216 O 6358.14 -1.7222 -0.929448 0
M  V30 68217 C 6358.44 -2.62451 2.42598 0
M  V30 68218 C 6358.1 -2.28601 3.88655 0
M  V30 68219 C 6356.77 -2.19081 4.28436 0
M  V30 68220 C 6359.12 -2.01373 4.80727 0
M  V30 68221 C 6356.45 -1.80479 5.58251 0
M  V30 68222 C 6358.8 -1.64271 6.10899 0
M  V30 68223 C 6357.46 -1.53271 6.49665 0
M  V30 68224 H 6356.73 -0.51991 0.527991 0
M  V30 68225 H 6359.38 -0.752234 1.76107 0
M  V30 68226 H 6357.68 -3.34406 2.04157 0
M  V30 68227 H 6359.38 -3.20654 2.40795 0
M  V30 68228 H 6355.97 -2.36918 3.57166 0
M  V30 68229 H 6360.15 -2.07654 4.5077 0
M  V30 68230 H 6355.41 -1.70542 5.87133 0
M  V30 68231 H 6359.58 -1.42232 6.81721 0
M  V30 68232 H 6357.21 -1.2313 7.50162 0
M  V30 68233 N 6358.79 -1.2948 -0.898481 0
M  V30 68234 C 6360.2 -1.07518 -1.17949 0
M  V30 68235 C 6360.4 0.172744 -2.00758 0
M  V30 68236 O 6359.46 0.870166 -2.37032 0
M  V30 68237 C 6360.77 -2.33128 -1.89926 0
M  V30 68238 C 6362.32 -2.38459 -2.02747 0
M  V30 68239 C 6362.79 -3.63876 -2.78134 0
M  V30 68240 N 6364.29 -3.64605 -2.85687 0
M  V30 68241 C 6365.02 -4.58331 -3.44558 0
M  V30 68242 N 6364.52 -5.6239 -4.04586 0
M  V30 68243 N 6366.31 -4.45899 -3.42244 0
M  V30 68244 H 6358.46 -2.09563 -0.346002 0
M  V30 68245 H 6360.72 -0.923116 -0.215782 0
M  V30 68246 H 6360.43 -3.24124 -1.36515 0
M  V30 68247 H 6360.3 -2.40731 -2.90393 0
M  V30 68248 H 6362.69 -1.4795 -2.55333 0
M  V30 68249 H 6362.77 -2.3484 -1.01408 0
M  V30 68250 H 6362.42 -4.54737 -2.26223 0
M  V30 68251 H 6362.35 -3.64753 -3.79819 0
M  V30 68252 H 6364.84 -2.89367 -2.43054 0
M  V30 68253 H 6365.15 -6.30027 -4.47532 0
M  V30 68254 H 6363.49 -5.66198 -4.03044 0
M  V30 68255 H 6366.69 -3.63796 -2.94567 0
M  V30 68256 H 6366.86 -5.19126 -3.8783 0
M  V30 68257 N 6360.26 1.10901 -1.11976 0
M  V30 68258 C 6361.51 1.82398 -0.87036 0
M  V30 68259 C 6361.83 1.85358 0.605584 0
M  V30 68260 O 6361.1 1.32817 1.44001 0
M  V30 68261 H 6359.68 0.67546 -0.319002 0
M  V30 68262 H 6362.35 1.34211 -1.41328 0
M  V30 68263 H 6361.44 2.86081 -1.24756 0
M  V30 68264 N 6361.74 0.910931 1.28607 0
M  V30 68265 C 6362.99 0.542626 1.95094 0
M  V30 68266 C 6363.32 -0.913173 1.71731 0
M  V30 68267 O 6362.57 -1.66421 1.02969 0
M  V30 68268 C 6362.87 0.794868 3.48449 0
M  V30 68269 C 6362.54 2.22977 3.91908 0
M  V30 68270 C 6361.2 2.62209 4.03484 0
M  V30 68271 C 6363.55 3.16368 4.14199 0
M  V30 68272 C 6360.88 3.9399 4.34729 0
M  V30 68273 C 6363.23 4.47709 4.46922 0
M  V30 68274 C 6361.9 4.86799 4.56709 0
M  V30 68275 H 6361.17 0.198561 0.713901 0
M  V30 68276 H 6363.81 1.15172 1.52996 0
M  V30 68277 H 6362.12 0.102947 3.91665 0
M  V30 68278 H 6363.81 0.489115 3.98006 0
M  V30 68279 H 6360.4 1.91534 3.83422 0
M  V30 68280 H 6364.59 2.87267 4.04711 0
M  V30 68281 H 6359.84 4.23981 4.40512 0
M  V30 68282 H 6364.02 5.20091 4.63119 0
M  V30 68283 H 6361.65 5.88945 4.80674 0
M  V30 68284 N 6363.22 -1.42432 0.674608 0
M  V30 68285 C 6364.47 -2.01542 0.196792 0
M  V30 68286 C 6364.8 -1.53335 -1.1966 0
M  V30 68287 O 6364.05 -0.72613 -1.8173 0
M  V30 68288 C 6364.35 -3.56947 0.17982 0
M  V30 68289 C 6364.02 -4.24584 1.51786 0
M  V30 68290 C 6362.68 -4.42776 1.88422 0
M  V30 68291 C 6365.03 -4.62702 2.39909 0
M  V30 68292 C 6362.36 -4.96356 3.12807 0
M  V30 68293 C 6364.71 -5.17662 3.63606 0
M  V30 68294 C 6363.37 -5.34067 4.00411 0
M  V30 68295 H 6362.64 -0.737493 0.0720112 0
M  V30 68296 H 6365.29 -1.70619 0.869555 0
M  V30 68297 H 6363.6 -3.87536 -0.576452 0
M  V30 68298 H 6365.29 -4.00465 -0.207086 0
M  V30 68299 H 6361.88 -4.10785 1.22286 0
M  V30 68300 H 6366.07 -4.48321 2.1289 0
M  V30 68301 H 6361.32 -5.07242 3.41344 0
M  V30 68302 H 6365.5 -5.46141 4.32091 0
M  V30 68303 H 6363.12 -5.75348 4.96869 0
M  V30 68304 N 6364.7 -0.417924 -1.51958 0
M  V30 68305 C 6366.11 -0.0692304 -1.5945 0
M  V30 68306 C 6366.31 1.41941 -1.43021 0
M  V30 68307 O 6365.37 2.18723 -1.2616 0
M  V30 68308 C 6366.68 -0.572006 -2.95209 0
M  V30 68309 C 6368.23 -0.530747 -3.08467 0
M  V30 68310 C 6368.71 -1.01018 -4.46721 0
M  V30 68311 N 6370.2 -0.967358 -4.52986 0
M  V30 68312 C 6370.93 -1.30941 -5.58249 0
M  V30 68313 N 6370.43 -1.72335 -6.71023 0
M  V30 68314 N 6372.22 -1.22881 -5.48504 0
M  V30 68315 H 6364.37 -1.38673 -1.60883 0
M  V30 68316 H 6366.64 -0.570232 -0.757324 0
M  V30 68317 H 6366.34 -1.61281 -3.1254 0
M  V30 68318 H 6366.22 0.0136129 -3.77198 0
M  V30 68319 H 6368.6 0.501028 -2.90816 0
M  V30 68320 H 6368.68 -1.15253 -2.28365 0
M  V30 68321 H 6368.33 -2.04032 -4.65116 0
M  V30 68322 H 6368.26 -0.36512 -5.25333 0
M  V30 68323 H 6370.75 -0.663131 -3.72036 0
M  V30 68324 H 6371.06 -1.96723 -7.47342 0
M  V30 68325 H 6369.41 -1.76246 -6.72281 0
M  V30 68326 H 6372.6 -0.904225 -4.59284 0
M  V30 68327 H 6372.77 -1.49868 -6.30431 0
M  V30 68328 N 6366.18 1.56898 -0.148628 0
M  V30 68329 C 6367.43 1.95352 0.502047 0
M  V30 68330 C 6367.74 1.03609 1.65905 0
M  V30 68331 O 6368.94 1.31649 2.37446 0
M  V30 68332 C 6367.4 3.47285 0.944531 0
M  V30 68333 C 6367.01 4.47615 -0.185631 0
M  V30 68334 C 6368.75 3.94602 1.5649 0
M  V30 68335 C 6366.66 5.90759 0.275213 0
M  V30 68336 H 6365.59 0.729322 0.191326 0
M  V30 68337 H 6368.24 1.82012 -0.233233 0
M  V30 68338 H 6366.62 3.55963 1.73512 0
M  V30 68339 H 6367.8 4.50634 -0.962599 0
M  V30 68340 H 6366.11 4.10224 -0.714517 0
M  V30 68341 H 6368.71 4.98987 1.92135 0
M  V30 68342 H 6369.05 3.36246 2.45447 0
M  V30 68343 H 6369.58 3.88848 0.839182 0
M  V30 68344 H 6366.32 6.52938 -0.579017 0
M  V30 68345 H 6365.84 5.91098 1.01802 0
M  V30 68346 H 6367.52 6.42906 0.726679 0
M  V30 68347 N 6367.65 -0.125154 1.57102 0
M  V30 68348 C 6368.9 -0.832563 1.83715 0
M  V30 68349 C 6369.22 -1.81333 0.733325 0
M  V30 68350 O 6370.42 -2.56647 0.885682 0
M  V30 68351 C 6368.88 -1.53132 3.25697 0
M  V30 68352 C 6368.49 -0.591848 4.44073 0
M  V30 68353 C 6370.23 -2.22422 3.61564 0
M  V30 68354 C 6368.14 -1.29347 5.77082 0
M  V30 68355 H 6367.07 -0.314661 0.685204 0
M  V30 68356 H 6369.72 -0.0852899 1.83302 0
M  V30 68357 H 6368.1 -2.32499 3.20562 0
M  V30 68358 H 6369.27 0.168172 4.60493 0
M  V30 68359 H 6367.59 -0.00623054 4.164 0
M  V30 68360 H 6370.19 -2.75594 4.58205 0
M  V30 68361 H 6370.53 -2.99936 2.88693 0
M  V30 68362 H 6371.06 -1.49949 3.68456 0
M  V30 68363 H 6367.8 -0.559746 6.53106 0
M  V30 68364 H 6367.32 -2.02566 5.64559 0
M  V30 68365 H 6369 -1.82838 6.20628 0
M  V30 68366 N 6369.13 -1.52566 -0.395159 0
M  V30 68367 C 6370.37 -1.68994 -1.14981 0
M  V30 68368 C 6370.74 -0.417795 -1.87399 0
M  V30 68369 O 6371.94 -0.458355 -2.64863 0
M  V30 68370 C 6370.21 -2.88696 -2.10687 0
M  V30 68371 S 6371.77 -3.2568 -2.94071 0
M  V30 68372 H 6368.59 -0.594943 -0.389312 0
M  V30 68373 H 6371.19 -1.90597 -0.435106 0
M  V30 68374 H 6369.89 -3.79514 -1.56196 0
M  V30 68375 H 6369.42 -2.69408 -2.86675 0
M  V30 68376 H 6371.44 -2.75388 -4.12766 0
M  V30 68377 N 6370.61 0.653238 -1.43424 0
M  V30 68378 C 6371.84 1.44584 -1.48695 0
M  V30 68379 C 6372.26 1.87801 -0.106056 0
M  V30 68380 O 6371.62 1.57373 0.900194 0
M  V30 68381 C 6371.67 2.65704 -2.4379 0
M  V30 68382 O 6370.77 3.64761 -1.92415 0
M  V30 68383 H 6370.11 0.433514 -0.502953 0
M  V30 68384 H 6372.64 0.799357 -1.88339 0
M  V30 68385 H 6372.65 3.13519 -2.61093 0
M  V30 68386 H 6371.33 2.33592 -3.44104 0
M  V30 68387 H 6369.9 3.23903 -1.84773 0
M  V30 68388 N 6372.09 1.29955 0.891602 0
M  V30 68389 C 6373.02 1.18338 2.01292 0
M  V30 68390 C 6374 0.0756169 1.69932 0
M  V30 68391 O 6375.19 0.256503 1.92499 0
M  V30 68392 C 6372.32 0.86754 3.3629 0
M  V30 68393 C 6371.27 1.93251 3.81888 0
M  V30 68394 C 6370.6 1.4698 5.14102 0
M  V30 68395 C 6371.9 3.3426 4.01332 0
M  V30 68396 H 6373.59 2.12146 2.11269 0
M  V30 68397 H 6371.14 1.02136 1.0151 0
M  V30 68398 H 6373.09 0.772951 4.1425 0
M  V30 68399 H 6371.81 -0.106227 3.26427 0
M  V30 68400 H 6370.47 2.01662 3.0615 0
M  V30 68401 H 6370.12 0.484487 5.00661 0
M  V30 68402 H 6369.82 2.18209 5.45581 0
M  V30 68403 H 6371.34 1.38887 5.94595 0
M  V30 68404 H 6372.76 3.28645 4.6975 0
M  V30 68405 H 6371.15 4.03517 4.44178 0
M  V30 68406 H 6372.22 3.7664 3.05402 0
M  V30 68407 N 6373.57 -1.10306 1.12563 0
M  V30 68408 C 6374.5 -2.18735 0.81715 0
M  V30 68409 C 6375.48 -1.68676 -0.219622 0
M  V30 68410 O 6376.66 -1.94033 -0.0805207 0
M  V30 68411 C 6373.79 -3.4623 0.272438 0
M  V30 68412 C 6372.75 -4.0957 1.24242 0
M  V30 68413 C 6372.07 -5.31782 0.55788 0
M  V30 68414 C 6373.37 -4.53126 2.59759 0
M  V30 68415 H 6375.07 -2.44796 1.72381 0
M  V30 68416 H 6372.61 -1.17655 0.830262 0
M  V30 68417 H 6374.57 -4.21377 0.044353 0
M  V30 68418 H 6373.29 -3.19663 -0.669565 0
M  V30 68419 H 6371.95 -3.36432 1.45634 0
M  V30 68420 H 6371.6 -5.01491 -0.389308 0
M  V30 68421 H 6371.3 -5.75113 1.20493 0
M  V30 68422 H 6372.82 -6.09659 0.338864 0
M  V30 68423 H 6374.24 -5.19539 2.42387 0
M  V30 68424 H 6372.63 -5.07311 3.20555 0
M  V30 68425 H 6373.7 -3.65978 3.18101 0
M  V30 68426 N 6375.05 -0.917739 -1.28122 0
M  V30 68427 C 6375.98 -0.426259 -2.29576 0
M  V30 68428 C 6376.96 0.508232 -1.6233 0
M  V30 68429 O 6378.14 0.415114 -1.89711 0
M  V30 68430 C 6375.27 0.330885 -3.4572 0
M  V30 68431 C 6374.23 -0.51484 -4.24892 0
M  V30 68432 C 6373.55 0.370882 -5.33412 0
M  V30 68433 C 6374.85 -1.77417 -4.91244 0
M  V30 68434 H 6376.55 -1.27413 -2.70936 0
M  V30 68435 H 6374.09 -0.614111 -1.30249 0
M  V30 68436 H 6376.04 0.685584 -4.15786 0
M  V30 68437 H 6374.77 1.21269 -3.03251 0
M  V30 68438 H 6373.43 -0.852111 -3.56559 0
M  V30 68439 H 6373.08 1.25135 -4.87186 0
M  V30 68440 H 6372.78 -0.191416 -5.87288 0
M  V30 68441 H 6374.3 0.721374 -6.06324 0
M  V30 68442 H 6375.71 -1.48814 -5.53649 0
M  V30 68443 H 6374.11 -2.27919 -5.55133 0
M  V30 68444 H 6375.18 -2.49962 -4.15508 0
M  V30 68445 N 6376.52 1.42072 -0.682152 0
M  V30 68446 C 6377.77 2.01036 -0.207067 0
M  V30 68447 C 6378.09 1.54244 1.19305 0
M  V30 68448 O 6377.36 0.767261 1.8025 0
M  V30 68449 H 6375.94 0.743369 -0.0735632 0
M  V30 68450 H 6378.6 1.73887 -0.880308 0
M  V30 68451 H 6377.7 3.11365 -0.214051 0
M  V30 68452 N 6378 0.425977 1.51734 0
M  V30 68453 C 6379.25 -0.143987 2.01586 0
M  V30 68454 C 6379.57 -1.442 1.31269 0
M  V30 68455 O 6378.84 -1.90808 0.443729 0
M  V30 68456 H 6377.42 -0.0562002 0.744883 0
M  V30 68457 H 6380.08 0.566082 1.86498 0
M  V30 68458 H 6379.18 -0.328052 3.10371 0
M  V30 68459 N 6379.48 -1.56817 0.156946 0
M  V30 68460 C 6380.7 -2.01244 -0.501551 0
M  V30 68461 C 6381.13 -1.03641 -1.56972 0
M  V30 68462 O 6380.49 -0.0136825 -1.81295 0
M  V30 68463 C 6380.54 -3.44361 -1.06995 0
M  V30 68464 O 6379.64 -3.49791 -2.18449 0
M  V30 68465 H 6378.98 -0.652761 -0.121651 0
M  V30 68466 H 6381.51 -2.02984 0.256608 0
M  V30 68467 H 6381.52 -3.83369 -1.39615 0
M  V30 68468 H 6380.2 -4.14903 -0.287778 0
M  V30 68469 H 6378.77 -3.22633 -1.86983 0
M  V30 68470 N 6380.96 0.116821 -1.57166 0
M  V30 68471 C 6381.89 1.14436 -2.03535 0
M  V30 68472 C 6382.87 1.4306 -0.920209 0
M  V30 68473 O 6384.05 1.53464 -1.19006 0
M  V30 68474 C 6381.18 2.46997 -2.44151 0
M  V30 68475 C 6380.14 2.32831 -3.59129 0
M  V30 68476 C 6379.46 3.70374 -3.85652 0
M  V30 68477 C 6380.76 1.787 -4.90779 0
M  V30 68478 H 6382.46 0.758679 -2.89628 0
M  V30 68479 H 6380 0.363502 -1.39337 0
M  V30 68480 H 6381.96 3.19133 -2.75195 0
M  V30 68481 H 6380.68 2.87459 -1.55031 0
M  V30 68482 H 6379.34 1.63143 -3.28298 0
M  V30 68483 H 6378.99 4.08325 -2.93734 0
M  V30 68484 H 6378.69 3.61748 -4.63047 0
M  V30 68485 H 6380.21 4.44011 -4.1915 0
M  V30 68486 H 6381.63 2.40655 -5.20344 0
M  V30 68487 H 6380.02 1.80889 -5.72188 0
M  V30 68488 H 6381.09 0.744723 -4.79147 0
M  V30 68489 N 6382.44 1.52773 0.387063 0
M  V30 68490 C 6383.68 1.6816 1.13358 0
M  V30 68491 C 6384.01 0.421261 1.89576 0
M  V30 68492 O 6383.29 -0.58099 1.8562 0
M  V30 68493 C 6383.57 2.91788 2.11025 0
M  V30 68494 C 6383.43 4.27927 1.38558 0
M  V30 68495 C 6384.74 3.10968 3.11427 0
M  V30 68496 H 6381.86 0.611937 0.410734 0
M  V30 68497 H 6384.51 1.85373 0.416744 0
M  V30 68498 H 6382.66 2.77243 2.72155 0
M  V30 68499 H 6384.33 4.54243 0.803782 0
M  V30 68500 H 6382.57 4.28319 0.687425 0
M  V30 68501 H 6383.24 5.10521 2.09934 0
M  V30 68502 H 6385.72 3.24556 2.60389 0
M  V30 68503 H 6384.59 3.98944 3.77008 0
M  V30 68504 H 6384.85 2.25271 3.80401 0
M  V30 68505 N 6383.91 -0.645623 1.43769 0
M  V30 68506 C 6384.82 -1.78717 1.51978 0
M  V30 68507 C 6385.84 -1.69188 0.406358 0
M  V30 68508 O 6387.02 -1.90223 0.661601 0
M  V30 68509 C 6384.08 -3.15035 1.44755 0
M  V30 68510 C 6383.14 -3.36304 2.6683 0
M  V30 68511 C 6382.37 -4.66118 2.59942 0
M  V30 68512 O 6382.6 -5.45972 1.65137 0
M  V30 68513 O 6381.53 -4.89273 3.50565 0
M  V30 68514 H 6385.36 -1.74746 2.4839 0
M  V30 68515 H 6382.94 -0.805053 1.25854 0
M  V30 68516 H 6384.82 -3.96324 1.43196 0
M  V30 68517 H 6383.5 -3.1958 0.514805 0
M  V30 68518 H 6382.41 -2.54749 2.73959 0
M  V30 68519 H 6383.74 -3.3661 3.59102 0
M  V30 68520 N 6385.39 -1.30426 -0.884698 0
M  V30 68521 C 6386.64 -1.19029 -1.63329 0
M  V30 68522 C 6386.96 0.25516 -1.93323 0
M  V30 68523 O 6386.23 1.17183 -1.56987 0
M  V30 68524 H 6384.81 -0.437535 -0.605452 0
M  V30 68525 H 6387.47 -1.63556 -1.05997 0
M  V30 68526 H 6386.57 -1.75134 -2.5833 0
M  V30 68527 N 6386.87 1.09707 -1.13146 0
M  V30 68528 C 6387.83 2.14441 -0.80919 0
M  V30 68529 C 6388.83 1.59789 0.179994 0
M  V30 68530 O 6390.02 1.74137 -0.0467298 0
M  V30 68531 C 6387.16 3.4029 -0.203834 0
M  V30 68532 H 6388.35 2.4446 -1.73722 0
M  V30 68533 H 6385.9 1.25197 -0.935707 0
M  V30 68534 H 6386.64 3.15895 0.733556 0
M  V30 68535 H 6386.42 3.81247 -0.916137 0
M  V30 68536 H 6387.91 4.176 0.0048917 0
M  V30 68537 N 6388.35 0.924521 1.27634 0
M  V30 68538 C 6389.3 0.419749 2.26951 0
M  V30 68539 C 6390.27 -0.511627 1.58024 0
M  V30 68540 O 6391.45 -0.431479 1.85857 0
M  V30 68541 C 6388.59 -0.324312 3.43573 0
M  V30 68542 C 6387.7 0.640809 4.27221 0
M  V30 68543 C 6386.84 -0.122776 5.31058 0
M  V30 68544 C 6385.88 0.835259 6.06374 0
M  V30 68545 N 6385.01 0.104503 7.02022 0
M  V30 68546 H 6389.85 1.27169 2.69504 0
M  V30 68547 H 6387.39 0.638357 1.32527 0
M  V30 68548 H 6389.35 -0.771997 4.09995 0
M  V30 68549 H 6387.98 -1.14051 3.01981 0
M  V30 68550 H 6387.03 1.20702 3.60742 0
M  V30 68551 H 6388.34 1.37312 4.79528 0
M  V30 68552 H 6387.5 -0.630525 6.03415 0
M  V30 68553 H 6386.24 -0.88807 4.79546 0
M  V30 68554 H 6385.24 1.35429 5.32859 0
M  V30 68555 H 6386.47 1.60028 6.59976 0
M  V30 68556 H 6384.41 -0.642603 6.52845 0
M  V30 68557 H 6384.33 0.776439 7.52002 0
M  V30 68558 H 6385.6 -0.382698 7.7856 0
M  V30 68559 N 6389.83 -1.41708 0.689677 0
M  V30 68560 C 6390.77 -2.30791 0.0206362 0
M  V30 68561 C 6391.74 -1.46785 -0.777396 0
M  V30 68562 O 6392.93 -1.75585 -0.746627 0
M  V30 68563 C 6390.07 -3.32775 -0.914032 0
M  V30 68564 C 6389.18 -4.31864 -0.108242 0
M  V30 68565 C 6388.32 -5.2092 -1.04001 0
M  V30 68566 C 6387.36 -6.1168 -0.226785 0
M  V30 68567 N 6386.49 -6.93237 -1.11205 0
M  V30 68568 H 6391.33 -2.87446 0.786071 0
M  V30 68569 H 6388.87 -1.41575 0.399362 0
M  V30 68570 H 6390.83 -3.90448 -1.46992 0
M  V30 68571 H 6389.46 -2.77685 -1.64593 0
M  V30 68572 H 6388.51 -3.76188 0.56448 0
M  V30 68573 H 6389.82 -4.96056 0.522487 0
M  V30 68574 H 6388.98 -5.83397 -1.66533 0
M  V30 68575 H 6387.71 -4.5694 -1.70461 0
M  V30 68576 H 6386.72 -5.48257 0.411642 0
M  V30 68577 H 6387.94 -6.77712 0.433929 0
M  V30 68578 H 6385.89 -6.31872 -1.76277 0
M  V30 68579 H 6385.81 -7.54092 -0.536752 0
M  V30 68580 H 6387.08 -7.60188 -1.72436 0
M  V30 68581 N 6391.3 -0.434018 -1.51506 0
M  V30 68582 C 6392.55 0.135043 -2.01247 0
M  V30 68583 C 6392.87 1.44075 -1.32294 0
M  V30 68584 O 6394.07 2.09256 -1.72986 0
M  V30 68585 C 6392.53 0.291209 -3.5872 0
M  V30 68586 C 6392.14 -1.00387 -4.36608 0
M  V30 68587 C 6393.88 0.814218 -4.16618 0
M  V30 68588 C 6391.79 -0.81353 -5.85778 0
M  V30 68589 H 6390.72 0.0542429 -0.752046 0
M  V30 68590 H 6393.37 -0.563272 -1.74641 0
M  V30 68591 H 6391.75 1.05245 -3.81758 0
M  V30 68592 H 6392.92 -1.77319 -4.25317 0
M  V30 68593 H 6391.24 -1.45516 -3.90146 0
M  V30 68594 H 6393.84 0.973061 -5.25771 0
M  V30 68595 H 6394.18 1.79576 -3.75577 0
M  V30 68596 H 6394.71 0.111379 -3.97644 0
M  V30 68597 H 6391.45 -1.76735 -6.31225 0
M  V30 68598 H 6390.97 -0.0839548 -5.99741 0
M  V30 68599 H 6392.65 -0.465422 -6.45324 0
M  V30 68600 N 6392.78 1.56731 -0.165261 0
M  V30 68601 C 6393.73 2.17669 0.767395 0
M  V30 68602 C 6394.7 1.11489 1.23123 0
M  V30 68603 O 6395.88 1.39613 1.30049 0
M  V30 68604 C 6393.02 2.8168 1.99375 0
M  V30 68605 C 6392.14 4.02303 1.57404 0
M  V30 68606 C 6391.27 4.54258 2.75359 0
M  V30 68607 C 6390.31 5.67306 2.29849 0
M  V30 68608 N 6389.45 6.13798 3.40876 0
M  V30 68609 H 6394.29 2.97024 0.240956 0
M  V30 68610 H 6391.83 1.46709 0.107209 0
M  V30 68611 H 6393.78 3.16946 2.71295 0
M  V30 68612 H 6392.41 2.04939 2.49399 0
M  V30 68613 H 6391.47 3.72897 0.751809 0
M  V30 68614 H 6392.78 4.84152 1.19993 0
M  V30 68615 H 6391.93 4.91675 3.55444 0
M  V30 68616 H 6390.67 3.71455 3.16026 0
M  V30 68617 H 6389.68 5.29447 1.48209 0
M  V30 68618 H 6390.9 6.51907 1.90247 0
M  V30 68619 H 6388.85 5.33925 3.8113 0
M  V30 68620 H 6388.76 6.9062 3.07539 0
M  V30 68621 H 6390.03 6.55864 4.21264 0
M  V30 68622 N 6394.26 -0.108484 1.57226 0
M  V30 68623 C 6395.51 -0.815608 1.85676 0
M  V30 68624 C 6395.84 -1.79028 0.752504 0
M  V30 68625 O 6395.11 -1.93004 -0.240743 0
M  V30 68626 C 6395.4 -1.55622 3.24737 0
M  V30 68627 C 6395.25 -0.600438 4.45774 0
M  V30 68628 C 6396.57 -2.50996 3.61509 0
M  V30 68629 H 6393.69 -0.295052 0.675362 0
M  V30 68630 H 6396.33 -0.0795673 1.89833 0
M  V30 68631 H 6394.48 -2.18365 3.21324 0
M  V30 68632 H 6396.15 0.0189605 4.61296 0
M  V30 68633 H 6394.4 0.0872324 4.33712 0
M  V30 68634 H 6395.07 -1.1555 5.3977 0
M  V30 68635 H 6397.54 -1.98352 3.65781 0
M  V30 68636 H 6396.42 -2.99841 4.59768 0
M  V30 68637 H 6396.68 -3.34143 2.89483 0
M  V30 68638 N 6395.74 -1.52976 -0.378955 0
M  V30 68639 C 6396.7 -1.77811 -1.44624 0
M  V30 68640 C 6397.7 -0.648275 -1.47153 0
M  V30 68641 O 6398.89 -0.916399 -1.48148 0
M  V30 68642 C 6396.02 -1.88802 -2.83842 0
M  V30 68643 H 6397.22 -2.73117 -1.23883 0
M  V30 68644 H 6394.77 -1.4385 -0.611299 0
M  V30 68645 H 6395.5 -0.955158 -3.09915 0
M  V30 68646 H 6395.29 -2.70967 -2.83407 0
M  V30 68647 H 6396.78 -2.09654 -3.61158 0
M  V30 68648 N 6397.22 0.637989 -1.44109 0
M  V30 68649 C 6398.13 1.77909 -1.52924 0
M  V30 68650 C 6399.14 1.68971 -0.415325 0
M  V30 68651 O 6400.32 1.89869 -0.67168 0
M  V30 68652 C 6397.38 3.14263 -1.46423 0
M  V30 68653 C 6396.44 3.34884 -2.6861 0
M  V30 68654 C 6395.68 4.64733 -2.6241 0
M  V30 68655 O 6395.9 5.45089 -1.6803 0
M  V30 68656 O 6394.83 4.87407 -3.53155 0
M  V30 68657 H 6398.66 1.73426 -2.49313 0
M  V30 68658 H 6396.25 0.798368 -1.26279 0
M  V30 68659 H 6398.13 3.95559 -1.45296 0
M  V30 68660 H 6396.8 3.19303 -0.531746 0
M  V30 68661 H 6395.71 2.53293 -2.75306 0
M  V30 68662 H 6397.04 3.34701 -3.60882 0
M  V30 68663 N 6398.69 1.30893 0.877769 0
M  V30 68664 C 6399.62 1.20466 2.00025 0
M  V30 68665 C 6400.61 0.0936362 1.69842 0
M  V30 68666 O 6401.79 0.276906 1.92216 0
M  V30 68667 C 6398.92 0.903159 3.35351 0
M  V30 68668 C 6397.87 1.9729 3.79816 0
M  V30 68669 C 6397.2 1.52425 5.12514 0
M  V30 68670 C 6398.5 3.38498 3.97764 0
M  V30 68671 H 6400.19 2.14375 2.09007 0
M  V30 68672 H 6397.74 1.03206 1.00421 0
M  V30 68673 H 6399.69 0.816845 4.13407 0
M  V30 68674 H 6398.42 -0.0715995 3.26522 0
M  V30 68675 H 6397.08 2.04898 3.03994 0
M  V30 68676 H 6396.72 0.537561 5.00119 0
M  V30 68677 H 6396.42 2.23983 5.43236 0
M  V30 68678 H 6397.95 1.45186 5.93088 0
M  V30 68679 H 6399.36 3.33609 4.66238 0
M  V30 68680 H 6397.76 4.08206 4.39873 0
M  V30 68681 H 6398.83 3.79858 3.0139 0
M  V30 68682 N 6400.17 -1.09106 1.13726 0
M  V30 68683 C 6401.1 -2.17856 0.840304 0
M  V30 68684 C 6402.08 -1.689 -0.201719 0
M  V30 68685 O 6403.27 -1.94107 -0.0599364 0
M  V30 68686 C 6400.4 -3.45921 0.309145 0
M  V30 68687 C 6399.35 -4.0823 1.28579 0
M  V30 68688 C 6398.68 -5.3116 0.614251 0
M  V30 68689 C 6399.98 -4.50345 2.6455 0
M  V30 68690 H 6401.67 -2.42954 1.74967 0
M  V30 68691 H 6399.22 -1.16768 0.842694 0
M  V30 68692 H 6401.17 -4.21306 0.0890431 0
M  V30 68693 H 6399.9 -3.20355 -0.635623 0
M  V30 68694 H 6398.56 -3.34868 1.49194 0
M  V30 68695 H 6398.2 -5.01876 -0.336096 0
M  V30 68696 H 6397.9 -5.73803 1.26587 0
M  V30 68697 H 6399.43 -6.09265 0.403507 0
M  V30 68698 H 6400.84 -5.16939 2.47884 0
M  V30 68699 H 6399.24 -5.03882 3.25918 0
M  V30 68700 H 6400.31 -3.62583 3.21965 0
M  V30 68701 N 6401.65 -0.931276 -1.27142 0
M  V30 68702 C 6402.61 -0.437789 -2.2498 0
M  V30 68703 C 6403.61 0.445634 -1.54502 0
M  V30 68704 O 6404.8 0.246209 -1.72451 0
M  V30 68705 C 6401.94 0.370208 -3.38884 0
M  V30 68706 H 6403.13 -1.30227 -2.7015 0
M  V30 68707 H 6400.68 -0.7123 -1.39126 0
M  V30 68708 H 6401.42 1.25335 -2.99101 0
M  V30 68709 H 6401.2 -0.263247 -3.91215 0
M  V30 68710 H 6402.69 0.705731 -4.11593 0
M  V30 68711 N 6403.13 1.4134 -0.697182 0
M  V30 68712 C 6404.08 2.3259 -0.0215025 0
M  V30 68713 C 6405.07 1.5105 0.76682 0
M  V30 68714 O 6406.28 1.66975 0.67226 0
M  V30 68715 H 6402.65 0.751907 0.0118476 0
M  V30 68716 H 6404.62 2.87249 -0.808126 0
M  V30 68717 C 6403.37 3.35856 0.899766 0
M  V30 68718 H 6402.7 3.98653 0.302581 0
M  V30 68719 H 6404.14 4.02241 1.34083 0
M  V30 68720 C 6402.59 2.69872 2.01669 0
M  V30 68721 O 6403.12 2.54779 3.10565 0
M  V30 68722 N 6401.33 2.28542 1.7949 0
M  V30 68723 H 6400.88 2.41018 0.909279 0
M  V30 68724 H 6400.84 1.84729 2.54406 0
M  V30 68725 N 6404.61 0.442047 1.51274 0
M  V30 68726 C 6405.54 -0.41236 2.24443 0
M  V30 68727 C 6406.52 -1.02077 1.26566 0
M  V30 68728 O 6407.7 -1.06233 1.55714 0
M  V30 68729 C 6404.83 -1.57515 2.99845 0
M  V30 68730 C 6403.88 -1.08696 4.12417 0
M  V30 68731 S 6404.71 -0.0251638 5.35494 0
M  V30 68732 C 6405.86 -1.19251 6.14435 0
M  V30 68733 H 6406.1 0.208832 2.96566 0
M  V30 68734 H 6403.63 0.226611 1.52728 0
M  V30 68735 H 6405.59 -2.24173 3.43885 0
M  V30 68736 H 6404.25 -2.16777 2.27303 0
M  V30 68737 H 6403.44 -1.95663 4.6447 0
M  V30 68738 H 6403.04 -0.498546 3.70662 0
M  V30 68739 H 6405.34 -2.10995 6.43807 0
M  V30 68740 H 6406.28 -0.711846 7.04513 0
M  V30 68741 H 6406.69 -1.4332 5.46003 0
M  V30 68742 N 6406.09 -1.56641 0.17357 0
M  V30 68743 C 6407.5 -1.83526 -0.342773 0
M  V30 68744 C 6407.85 -1.09346 -1.62905 0
M  V30 68745 O 6406.97 -0.347229 -2.13596 0
M  V30 68746 C 6407.57 -3.32916 -0.628681 0
M  V30 68747 C 6406.13 -3.60289 -1.08946 0
M  V30 68748 C 6405.27 -2.77011 -0.126524 0
M  V30 68749 H 6408.22 -1.53634 0.39779 0
M  V30 68750 H 6408.25 -3.50517 -1.48048 0
M  V30 68751 H 6407.76 -3.86879 0.307662 0
M  V30 68752 H 6405.86 -3.11739 -2.04082 0
M  V30 68753 H 6405.97 -4.6861 -0.997058 0
M  V30 68754 H 6404.34 -2.4693 -0.624319 0
M  V30 68755 H 6405.12 -3.33755 0.80388 0
M  V30 68756 N 6407.56 0.100145 -1.57281 0
M  V30 68757 C 6408.84 0.835944 -1.76837 0
M  V30 68758 C 6409.22 1.97178 -0.753934 0
M  V30 68759 O 6408.57 2.27452 0.218546 0
M  V30 68760 C 6408.78 1.3352 -3.22449 0
M  V30 68761 C 6410.13 1.78001 -3.85488 0
M  V30 68762 O 6411.15 1.43155 -3.26167 0
M  V30 68763 O 6410.01 2.42415 -4.89793 0
M  V30 68764 H 6407.1 0.398361 -0.724733 0
M  V30 68765 H 6409.65 0.0824188 -1.695 0
M  V30 68766 H 6408.42 0.521171 -3.87814 0
M  V30 68767 H 6408.04 2.15088 -3.34399 0
M  V30 68768 N 6409.04 1.53175 0.370837 0
M  V30 68769 C 6410.45 1.60847 0.947903 0
M  V30 68770 C 6410.8 0.472595 1.90423 0
M  V30 68771 O 6409.93 -0.401748 2.12638 0
M  V30 68772 C 6410.52 2.9154 1.72597 0
M  V30 68773 C 6409.08 3.01565 2.25246 0
M  V30 68774 C 6408.23 2.56104 1.06331 0
M  V30 68775 H 6411.18 1.57991 0.149796 0
M  V30 68776 H 6411.2 2.79047 2.58675 0
M  V30 68777 H 6410.71 3.74191 1.02969 0
M  V30 68778 H 6408.81 2.2349 2.98133 0
M  V30 68779 H 6408.93 4.06547 2.53488 0
M  V30 68780 H 6407.29 2.10854 1.42873 0
M  V30 68781 H 6408.07 3.41167 0.38209 0
M  V30 68782 N 6410.52 -0.630338 1.44445 0
M  V30 68783 C 6411.75 -1.41707 1.50754 0
M  V30 68784 C 6412.16 -1.88333 0.132659 0
M  V30 68785 O 6411.52 -1.60881 -0.861592 0
M  V30 68786 C 6411.57 -2.63685 2.4729 0
M  V30 68787 O 6411.29 -2.19003 3.79433 0
M  V30 68788 C 6412.79 -3.56803 2.63071 0
M  V30 68789 H 6410.01 -0.434562 0.51127 0
M  V30 68790 H 6412.56 -0.770811 1.89417 0
M  V30 68791 H 6410.71 -3.24401 2.11761 0
M  V30 68792 H 6411.13 -2.98089 4.31559 0
M  V30 68793 H 6412.6 -4.38996 3.34644 0
M  V30 68794 H 6413.08 -4.05663 1.68327 0
M  V30 68795 H 6413.68 -3.01956 2.99504 0
M  V30 68796 N 6412 -1.31357 -0.870815 0
M  V30 68797 C 6412.93 -1.14755 -1.98404 0
M  V30 68798 C 6413.94 -0.0868595 -1.62568 0
M  V30 68799 O 6415.13 -0.334271 -1.75342 0
M  V30 68800 C 6412.23 -0.730909 -3.30924 0
M  V30 68801 C 6411.4 -1.87642 -3.95107 0
M  V30 68802 C 6410.46 -1.44598 -5.05942 0
M  V30 68803 O 6409.49 -2.15549 -5.26808 0
M  V30 68804 N 6410.69 -0.332901 -5.79545 0
M  V30 68805 H 6413.46 -2.1064 -2.13192 0
M  V30 68806 H 6411.02 -1.2368 -1.04474 0
M  V30 68807 H 6413.01 -0.425679 -4.02455 0
M  V30 68808 H 6411.58 0.136317 -3.12303 0
M  V30 68809 H 6410.8 -2.34902 -3.16567 0
M  V30 68810 H 6412.09 -2.64371 -4.34725 0
M  V30 68811 H 6411.49 0.257989 -5.65111 0
M  V30 68812 H 6410.04 -0.0872006 -6.51742 0
M  V30 68813 N 6413.48 1.08501 -1.14303 0
M  V30 68814 C 6414.75 1.77513 -0.821502 0
M  V30 68815 C 6415.13 1.99671 0.685183 0
M  V30 68816 O 6414.48 1.60574 1.62567 0
M  V30 68817 C 6414.69 3.09168 -1.61914 0
M  V30 68818 C 6416.04 3.83716 -1.81789 0
M  V30 68819 O 6417.06 3.18947 -1.58592 0
M  V30 68820 O 6415.92 5.00015 -2.20561 0
M  V30 68821 H 6413.02 0.770304 -0.300933 0
M  V30 68822 H 6415.56 1.14972 -1.24818 0
M  V30 68823 H 6414.33 2.88584 -2.64263 0
M  V30 68824 H 6413.96 3.79436 -1.18803 0
M  V30 68825 N 6414.95 0.938006 1.26646 0
M  V30 68826 C 6415.86 0.451104 2.30222 0
M  V30 68827 C 6416.88 -0.473343 1.67438 0
M  V30 68828 O 6418.06 -0.353645 1.98271 0
M  V30 68829 C 6415.12 -0.278822 3.45577 0
M  V30 68830 C 6414.18 0.681798 4.23851 0
M  V30 68831 C 6413.42 -0.013388 5.33698 0
M  V30 68832 O 6413.64 -1.23091 5.5696 0
M  V30 68833 O 6412.57 0.663696 5.9823 0
M  V30 68834 H 6416.4 1.31139 2.73928 0
M  V30 68835 H 6413.98 0.703763 1.31786 0
M  V30 68836 H 6415.87 -0.690116 4.15711 0
M  V30 68837 H 6414.54 -1.11455 3.03907 0
M  V30 68838 H 6413.45 1.14298 3.56212 0
M  V30 68839 H 6414.78 1.48504 4.69263 0
M  V30 68840 N 6416.43 -1.40969 0.704668 0
M  V30 68841 C 6417.68 -2.01377 0.239852 0
M  V30 68842 C 6418.01 -1.55715 -1.16046 0
M  V30 68843 O 6417.29 -0.77234 -1.78508 0
M  V30 68844 C 6417.57 -3.58783 0.307682 0
M  V30 68845 C 6417.42 -4.14547 1.74559 0
M  V30 68846 C 6418.74 -4.38881 -0.327361 0
M  V30 68847 H 6415.86 -0.731652 0.0886287 0
M  V30 68848 H 6418.5 -1.67594 0.895107 0
M  V30 68849 H 6416.65 -3.87693 -0.250223 0
M  V30 68850 H 6418.32 -3.96477 2.35804 0
M  V30 68851 H 6416.57 -3.69246 2.27683 0
M  V30 68852 H 6417.24 -5.23709 1.74452 0
M  V30 68853 H 6419.71 -4.15837 0.147883 0
M  V30 68854 H 6418.59 -5.48333 -0.249401 0
M  V30 68855 H 6418.85 -4.19034 -1.40937 0
M  V30 68856 N 6417.91 -0.450063 -1.51037 0
M  V30 68857 C 6419.33 -0.103036 -1.59267 0
M  V30 68858 C 6419.53 1.38875 -1.45999 0
M  V30 68859 O 6418.58 2.15998 -1.30771 0
M  V30 68860 C 6419.9 -0.634495 -2.9393 0
M  V30 68861 C 6421.44 -0.596058 -3.07272 0
M  V30 68862 C 6421.92 -1.1047 -4.44478 0
M  V30 68863 N 6423.41 -1.06323 -4.50832 0
M  V30 68864 C 6424.14 -1.42752 -5.55346 0
M  V30 68865 N 6423.64 -1.8653 -6.67217 0
M  V30 68866 N 6425.43 -1.34488 -5.45774 0
M  V30 68867 H 6417.58 -1.42055 -1.57906 0
M  V30 68868 H 6419.85 -0.586168 -0.745058 0
M  V30 68869 H 6419.55 -1.67874 -3.09049 0
M  V30 68870 H 6419.43 -0.0663994 -3.77142 0
M  V30 68871 H 6421.81 0.439229 -2.91813 0
M  V30 68872 H 6421.9 -1.20071 -2.25869 0
M  V30 68873 H 6421.54 -2.13852 -4.60684 0
M  V30 68874 H 6421.47 -0.476469 -5.2444 0
M  V30 68875 H 6423.96 -0.741896 -3.70546 0
M  V30 68876 H 6424.27 -2.12531 -7.43001 0
M  V30 68877 H 6422.62 -1.90466 -6.68392 0
M  V30 68878 H 6425.81 -1.00144 -4.57262 0
M  V30 68879 H 6425.98 -1.63207 -6.2711 0
M  V30 68880 N 6419.39 1.56547 -0.181875 0
M  V30 68881 C 6420.64 1.96808 0.459443 0
M  V30 68882 C 6420.96 1.06939 1.63061 0
M  V30 68883 O 6420.23 0.137911 1.95414 0
M  V30 68884 H 6418.81 0.726756 0.172727 0
M  V30 68885 H 6421.47 1.93083 -0.265523 0
M  V30 68886 H 6420.57 3.01341 0.812416 0
M  V30 68887 N 6420.87 -0.0918024 1.57332 0
M  V30 68888 C 6422.14 -0.826554 1.77278 0
M  V30 68889 C 6422.52 -1.96775 0.76438 0
M  V30 68890 O 6421.87 -2.27565 -0.20648 0
M  V30 68891 C 6422.08 -1.31808 3.23153 0
M  V30 68892 C 6423.43 -1.75954 3.86426 0
M  V30 68893 O 6424.45 -1.41424 3.26922 0
M  V30 68894 O 6423.31 -2.39814 4.91072 0
M  V30 68895 H 6420.41 -0.394512 0.726835 0
M  V30 68896 H 6422.95 -0.0734287 1.69541 0
M  V30 68897 H 6421.72 -0.500597 3.88085 0
M  V30 68898 H 6421.35 -2.13312 3.35535 0
M  V30 68899 N 6422.34 -1.53369 -0.362709 0
M  V30 68900 C 6423.59 -1.69356 -1.10286 0
M  V30 68901 C 6423.91 -0.449433 -1.8975 0
M  V30 68902 O 6423.18 0.536541 -1.88409 0
M  V30 68903 H 6421.76 -0.624335 -0.41014 0
M  V30 68904 H 6424.43 -1.90568 -0.408627 0
M  V30 68905 H 6423.52 -2.55593 -1.79106 0
M  V30 68906 N 6423.82 0.622669 -1.44778 0
M  V30 68907 C 6424.73 1.76277 -1.54802 0
M  V30 68908 C 6425.75 1.68521 -0.433223 0
M  V30 68909 O 6426.92 1.89146 -0.69178 0
M  V30 68910 C 6423.99 3.12692 -1.49748 0
M  V30 68911 C 6423.05 3.32016 -2.72147 0
M  V30 68912 C 6422.28 4.61923 -2.67325 0
M  V30 68913 O 6422.51 5.43276 -1.73802 0
M  V30 68914 O 6421.44 4.83633 -3.58305 0
M  V30 68915 H 6425.27 1.70772 -2.51139 0
M  V30 68916 H 6422.85 0.784929 -1.27119 0
M  V30 68917 H 6424.73 3.93996 -1.49483 0
M  V30 68918 H 6423.41 3.18721 -0.565583 0
M  V30 68919 H 6422.32 2.50359 -2.77977 0
M  V30 68920 H 6423.65 3.30855 -3.64412 0
M  V30 68921 N 6425.3 1.31817 0.863836 0
M  V30 68922 C 6426.21 1.21958 2.00408 0
M  V30 68923 C 6427.23 0.135031 1.73475 0
M  V30 68924 O 6428.4 0.353989 1.98265 0
M  V30 68925 C 6425.47 0.933716 3.3389 0
M  V30 68926 C 6424.53 2.10579 3.74106 0
M  V30 68927 C 6423.76 1.83346 5.01218 0
M  V30 68928 O 6423.98 0.771558 5.65158 0
M  V30 68929 O 6422.92 2.69196 5.38346 0
M  V30 68930 H 6426.74 2.17794 2.11659 0
M  V30 68931 H 6424.33 1.11616 0.993086 0
M  V30 68932 H 6426.21 0.790397 4.13921 0
M  V30 68933 H 6424.89 0.00544493 3.237 0
M  V30 68934 H 6423.79 2.30454 2.9469 0
M  V30 68935 H 6425.13 3.01652 3.8893 0
M  V30 68936 N 6426.78 -1.07893 1.14877 0
M  V30 68937 C 6428.03 -1.80027 0.918414 0
M  V30 68938 C 6428.35 -1.86899 -0.556227 0
M  V30 68939 O 6427.62 -1.36589 -1.40429 0
M  V30 68940 H 6426.2 -0.666765 0.336799 0
M  V30 68941 H 6428.86 -1.30416 1.44836 0
M  V30 68942 H 6427.96 -2.82673 1.32297 0
M  V30 68943 N 6428.26 -0.944709 -1.26147 0
M  V30 68944 C 6429.17 -0.463307 -2.2998 0
M  V30 68945 C 6430.18 0.464457 -1.67687 0
M  V30 68946 O 6431.36 0.343125 -1.98456 0
M  V30 68947 C 6428.42 0.260491 -3.4572 0
M  V30 68948 C 6427.48 -0.704266 -4.23484 0
M  V30 68949 C 6426.72 -0.0149155 -5.33698 0
M  V30 68950 O 6426.94 1.20135 -5.57605 0
M  V30 68951 O 6425.87 -0.695412 -5.97869 0
M  V30 68952 H 6429.7 -1.3259 -2.73228 0
M  V30 68953 H 6427.29 -0.710742 -1.31411 0
M  V30 68954 H 6429.17 0.66806 -4.16071 0
M  V30 68955 H 6427.84 1.09841 -3.04494 0
M  V30 68956 H 6426.75 -1.16185 -3.55601 0
M  V30 68957 H 6428.08 -1.50991 -4.68468 0
M  V30 68958 N 6429.74 1.40593 -0.712134 0
M  V30 68959 C 6431.15 1.54878 -0.385341 0
M  V30 68960 C 6431.35 1.6842 1.1062 0
M  V30 68961 O 6430.41 1.67186 1.89222 0
M  V30 68962 C 6431.72 2.77908 -1.14837 0
M  V30 68963 C 6433.27 2.91722 -1.13434 0
M  V30 68964 C 6433.74 4.17661 -1.87946 0
M  V30 68965 N 6435.23 4.24653 -1.84997 0
M  V30 68966 C 6435.97 5.20997 -2.39477 0
M  V30 68967 N 6435.47 6.23271 -3.02498 0
M  V30 68968 N 6437.26 5.13052 -2.29639 0
M  V30 68969 H 6429.41 1.30049 -1.67932 0
M  V30 68970 H 6431.67 0.628614 -0.709612 0
M  V30 68971 H 6431.38 2.74167 -2.20284 0
M  V30 68972 H 6431.25 3.69915 -0.737736 0
M  V30 68973 H 6433.64 2.94969 -0.0880774 0
M  V30 68974 H 6433.72 2.00842 -1.58417 0
M  V30 68975 H 6433.36 4.15176 -2.9256 0
M  V30 68976 H 6433.29 5.07543 -1.40385 0
M  V30 68977 H 6435.79 3.51382 -1.39065 0
M  V30 68978 H 6436.1 6.93205 -3.41594 0
M  V30 68979 H 6434.44 6.23725 -3.06581 0
M  V30 68980 H 6437.63 4.32082 -1.80064 0
M  V30 68981 H 6437.81 5.87965 -2.72399 0
M  V30 68982 N 6431.21 0.458066 1.50796 0
M  V30 68983 C 6432.16 -0.342832 2.2824 0
M  V30 68984 C 6433.13 -0.998714 1.32721 0
M  V30 68985 O 6434.32 -1.01365 1.61647 0
M  V30 68986 C 6431.46 -1.42635 3.14244 0
M  V30 68987 C 6430.57 -0.786548 4.24779 0
M  V30 68988 C 6429.7 -1.84686 4.98061 0
M  V30 68989 C 6428.74 -1.1866 6.00488 0
M  V30 68990 N 6427.88 -2.18919 6.67097 0
M  V30 68991 H 6432.72 0.323903 2.96234 0
M  V30 68992 H 6430.26 0.171579 1.46096 0
M  V30 68993 H 6432.21 -2.06607 3.62449 0
M  V30 68994 H 6430.84 -2.06243 2.48322 0
M  V30 68995 H 6429.9 -0.0345878 3.80384 0
M  V30 68996 H 6431.21 -0.264701 4.98097 0
M  V30 68997 H 6430.36 -2.56271 5.49918 0
M  V30 68998 H 6429.1 -2.40249 4.2442 0
M  V30 68999 H 6428.11 -0.456318 5.47903 0
M  V30 69000 H 6429.33 -0.63804 6.76096 0
M  V30 69001 H 6427.28 -2.73522 5.96256 0
M  V30 69002 H 6427.19 -1.71683 7.36248 0
M  V30 69003 H 6428.46 -2.89923 7.23578 0
M  V30 69004 N 6432.69 -1.56448 0.190174 0
M  V30 69005 C 6434.1 -1.8388 -0.323288 0
M  V30 69006 C 6434.45 -1.11068 -1.61736 0
M  V30 69007 O 6433.58 -0.369864 -2.13216 0
M  V30 69008 C 6434.17 -3.33564 -0.593335 0
M  V30 69009 C 6432.73 -3.61424 -1.05118 0
M  V30 69010 C 6431.88 -2.7713 -0.0971357 0
M  V30 69011 H 6434.83 -1.53203 0.414063 0
M  V30 69012 H 6434.85 -3.52067 -1.44322 0
M  V30 69013 H 6434.36 -3.86531 0.348678 0
M  V30 69014 H 6432.46 -3.13886 -2.00764 0
M  V30 69015 H 6432.58 -4.69641 -0.947299 0
M  V30 69016 H 6430.94 -2.47578 -0.598094 0
M  V30 69017 H 6431.72 -3.32884 0.839234 0
M  V30 69018 N 6434.17 0.0834573 -1.57379 0
M  V30 69019 C 6435.1 1.10093 -2.05917 0
M  V30 69020 C 6436.08 1.41076 -0.950347 0
M  V30 69021 O 6437.27 1.50905 -1.22235 0
M  V30 69022 C 6434.4 2.41763 -2.49335 0
M  V30 69023 C 6433.35 2.25161 -3.63987 0
M  V30 69024 C 6432.68 3.6211 -3.93421 0
M  V30 69025 C 6433.98 1.68249 -4.94459 0
M  V30 69026 H 6435.67 0.697074 -2.91172 0
M  V30 69027 H 6433.22 0.333865 -1.40076 0
M  V30 69028 H 6435.17 3.13224 -2.81902 0
M  V30 69029 H 6433.89 2.84106 -1.61094 0
M  V30 69030 H 6432.55 1.56143 -3.31685 0
M  V30 69031 H 6432.2 4.02003 -3.02329 0
M  V30 69032 H 6431.9 3.51845 -4.70616 0
M  V30 69033 H 6433.42 4.3502 -4.28474 0
M  V30 69034 H 6434.84 2.29563 -5.25332 0
M  V30 69035 H 6433.23 1.68711 -5.75896 0
M  V30 69036 H 6434.3 0.642921 -4.80619 0
M  V30 69037 N 6435.65 1.5356 0.35457 0
M  V30 69038 C 6436.56 1.8375 1.45853 0
M  V30 69039 C 6437.57 0.726735 1.58097 0
M  V30 69040 O 6438.75 1.01792 1.73782 0
M  V30 69041 C 6435.81 2.03099 2.80984 0
M  V30 69042 C 6434.88 3.26981 2.78176 0
M  V30 69043 C 6434.11 3.45397 4.06862 0
M  V30 69044 O 6434.33 2.67877 5.03585 0
M  V30 69045 O 6433.27 4.3879 4.12003 0
M  V30 69046 H 6437.09 2.77562 1.23261 0
M  V30 69047 H 6434.68 1.39077 0.545714 0
M  V30 69048 H 6436.56 2.17333 3.61032 0
M  V30 69049 H 6435.23 1.12476 3.0353 0
M  V30 69050 H 6434.14 3.1816 1.96787 0
M  V30 69051 H 6435.47 4.17561 2.60583 0
M  V30 69052 N 6437.13 -0.614982 1.45106 0
M  V30 69053 C 6438.09 -1.70805 1.52834 0
M  V30 69054 C 6439.09 -1.55522 0.408611 0
M  V30 69055 O 6440.28 -1.60724 0.671829 0
M  V30 69056 C 6437.41 -3.10018 1.41779 0
M  V30 69057 H 6438.6 -1.65321 2.50218 0
M  V30 69058 H 6436.16 -0.830068 1.32437 0
M  V30 69059 H 6436.89 -3.21085 0.455522 0
M  V30 69060 H 6436.68 -3.22519 2.22989 0
M  V30 69061 H 6438.17 -3.89652 1.50204 0
M  V30 69062 N 6438.6 -1.32273 -0.856834 0
M  V30 69063 C 6439.57 -1.20967 -1.94678 0
M  V30 69064 C 6440.57 -0.133287 -1.60247 0
M  V30 69065 O 6441.76 -0.38353 -1.69926 0
M  V30 69066 C 6438.89 -0.859856 -3.29878 0
M  V30 69067 H 6440.08 -2.1783 -2.06131 0
M  V30 69068 H 6437.63 -1.16073 -1.04675 0
M  V30 69069 H 6438.37 0.107047 -3.24123 0
M  V30 69070 H 6438.15 -1.63806 -3.56244 0
M  V30 69071 H 6439.64 -0.805012 -4.09767 0
M  V30 69072 N 6440.08 1.07283 -1.15448 0
M  V30 69073 C 6441.01 2.16491 -0.874856 0
M  V30 69074 C 6441.99 1.69199 0.174823 0
M  V30 69075 O 6443.18 1.94178 0.029048 0
M  V30 69076 C 6440.31 3.45386 -0.364139 0
M  V30 69077 C 6439.26 4.06132 -1.35058 0
M  V30 69078 C 6438.59 5.30116 -0.698676 0
M  V30 69079 C 6439.89 4.46079 -2.71681 0
M  V30 69080 H 6441.58 2.4014 -1.7881 0
M  V30 69081 H 6439.13 1.15412 -0.861164 0
M  V30 69082 H 6441.08 4.21111 -0.156058 0
M  V30 69083 H 6439.8 3.21326 0.584577 0
M  V30 69084 H 6438.46 3.32452 -1.54503 0
M  V30 69085 H 6438.11 5.02347 0.256209 0
M  V30 69086 H 6437.81 5.71716 -1.35699 0
M  V30 69087 H 6439.34 6.08546 -0.500385 0
M  V30 69088 H 6440.75 5.1293 -2.56077 0
M  V30 69089 H 6439.15 4.98634 -3.33893 0
M  V30 69090 H 6440.22 3.57415 -3.27693 0
M  V30 69091 N 6441.56 0.951386 1.25644 0
M  V30 69092 C 6442.97 0.64562 1.75182 0
M  V30 69093 C 6443.32 -0.839068 1.77353 0
M  V30 69094 O 6442.45 -1.65666 1.39226 0
M  V30 69095 C 6443.04 1.16523 3.18132 0
M  V30 69096 C 6441.6 0.909688 3.65242 0
M  V30 69097 C 6440.75 1.31018 2.44397 0
M  V30 69098 H 6443.7 1.12856 1.11576 0
M  V30 69099 H 6443.72 0.523794 3.76877 0
M  V30 69100 H 6443.23 2.24582 3.16519 0
M  V30 69101 H 6441.33 -0.156081 3.72273 0
M  V30 69102 H 6441.45 1.54387 4.53543 0
M  V30 69103 H 6439.81 0.72856 2.44058 0
M  V30 69104 H 6440.59 2.39991 2.45477 0
M  V30 69105 N 6443.04 -1.40213 0.71958 0
M  V30 69106 C 6444.26 -2.05646 0.269179 0
M  V30 69107 C 6444.69 -1.53869 -1.08195 0
M  V30 69108 O 6444.05 -0.675762 -1.68235 0
M  V30 69109 C 6444.09 -3.59636 0.263559 0
M  V30 69110 O 6443.2 -4.0545 -0.753916 0
M  V30 69111 H 6442.54 -0.652031 0.125503 0
M  V30 69112 H 6445.07 -1.79538 0.981182 0
M  V30 69113 H 6445.08 -4.07871 0.102619 0
M  V30 69114 H 6443.75 -3.96686 1.24953 0
M  V30 69115 H 6442.33 -3.68665 -0.560373 0
M  V30 69116 N 6444.52 -0.466057 -1.50551 0
M  V30 69117 C 6445.43 0.336169 -2.32179 0
M  V30 69118 C 6446.44 1.00076 -1.4234 0
M  V30 69119 O 6447.62 0.989842 -1.75397 0
M  V30 69120 C 6444.68 1.4067 -3.1688 0
M  V30 69121 C 6443.74 0.759235 -4.22533 0
M  V30 69122 C 6442.98 1.77876 -5.03186 0
M  V30 69123 O 6443.2 3.00466 -4.84847 0
M  V30 69124 O 6442.13 1.35337 -5.86487 0
M  V30 69125 H 6445.96 -0.331014 -3.01891 0
M  V30 69126 H 6443.55 -0.228002 -1.4765 0
M  V30 69127 H 6445.43 2.02691 -3.69451 0
M  V30 69128 H 6444.1 2.05745 -2.49902 0
M  V30 69129 H 6443.01 0.100207 -3.73966 0
M  V30 69130 H 6444.34 0.151521 -4.91967 0
M  V30 69131 N 6445.99 1.56345 -0.198468 0
M  V30 69132 C 6447.27 1.89435 0.487206 0
M  V30 69133 C 6447.65 1.11249 1.79407 0
M  V30 69134 O 6447 0.214618 2.2749 0
M  V30 69135 C 6447.21 3.41852 0.702701 0
M  V30 69136 C 6448.56 4.12153 1.02055 0
M  V30 69137 O 6449.58 3.47322 0.790305 0
M  V30 69138 O 6448.44 5.2674 1.45628 0
M  V30 69139 H 6445.53 0.786887 0.254435 0
M  V30 69140 H 6448.08 1.6801 -0.238934 0
M  V30 69141 H 6446.85 3.90681 -0.220057 0
M  V30 69142 H 6446.48 3.68981 1.48118 0
M  V30 69143 N 6447.47 -0.07511 1.57421 0
M  V30 69144 C 6448.4 -1.08999 2.06498 0
M  V30 69145 C 6449.38 -1.4057 0.957815 0
M  V30 69146 O 6450.57 -1.50255 1.23033 0
M  V30 69147 C 6447.7 -2.40437 2.50614 0
M  V30 69148 C 6446.65 -2.23227 3.65176 0
M  V30 69149 C 6445.98 -3.60019 3.95336 0
M  V30 69150 C 6447.28 -1.65625 4.95344 0
M  V30 69151 H 6448.97 -0.681622 2.91538 0
M  V30 69152 H 6446.52 -0.326432 1.40251 0
M  V30 69153 H 6448.47 -3.11724 2.83559 0
M  V30 69154 H 6447.2 -2.83248 1.62598 0
M  V30 69155 H 6445.85 -1.54382 3.32508 0
M  V30 69156 H 6445.5 -4.00394 3.04457 0
M  V30 69157 H 6445.2 -3.49344 4.72475 0
M  V30 69158 H 6446.73 -4.32742 4.30775 0
M  V30 69159 H 6448.14 -2.26774 5.26542 0
M  V30 69160 H 6446.54 -1.65655 5.76783 0
M  V30 69161 H 6447.61 -0.617424 4.80953 0
M  V30 69162 N 6448.95 -1.53746 -0.346422 0
M  V30 69163 C 6450.18 -1.74787 -1.10711 0
M  V30 69164 C 6450.59 -0.485689 -1.82446 0
M  V30 69165 O 6449.95 0.542504 -1.7425 0
M  V30 69166 C 6450 -2.92608 -2.1228 0
M  V30 69167 O 6449.72 -4.13944 -1.43463 0
M  V30 69168 C 6451.22 -3.25678 -3.00747 0
M  V30 69169 H 6448.44 -0.584092 -0.330269 0
M  V30 69170 H 6450.99 -2.0056 -0.399503 0
M  V30 69171 H 6449.14 -2.69175 -2.7861 0
M  V30 69172 H 6449.56 -4.80059 -2.11291 0
M  V30 69173 H 6451.03 -4.11476 -3.67956 0
M  V30 69174 H 6451.51 -2.41858 -3.66608 0
M  V30 69175 H 6452.11 -3.51106 -2.40009 0
M  V30 69176 N 6450.43 0.607278 -1.4543 0
M  V30 69177 C 6451.71 1.36664 -1.39937 0
M  V30 69178 C 6452.09 2.10983 -0.0701405 0
M  V30 69179 O 6451.43 2.07911 0.947911 0
M  V30 69180 C 6451.64 2.3132 -2.61327 0
M  V30 69181 C 6452.99 2.93918 -3.06427 0
M  V30 69182 O 6454.02 2.41641 -2.61702 0
M  V30 69183 O 6452.87 3.88809 -3.84044 0
M  V30 69184 H 6449.97 0.61281 -0.555331 0
M  V30 69185 H 6452.51 0.630341 -1.57559 0
M  V30 69186 H 6451.29 1.75665 -3.49653 0
M  V30 69187 H 6450.91 3.1233 -2.46041 0
M  V30 69188 N 6451.91 1.32725 0.849807 0
M  V30 69189 C 6452.84 1.24682 1.97425 0
M  V30 69190 C 6453.82 0.129641 1.69605 0
M  V30 69191 O 6455 0.317615 1.91585 0
M  V30 69192 C 6452.13 0.974089 3.3336 0
M  V30 69193 C 6451.09 2.05303 3.75546 0
M  V30 69194 C 6450.41 1.63262 5.09166 0
M  V30 69195 C 6451.71 3.46859 3.90495 0
M  V30 69196 H 6453.41 2.1876 2.04413 0
M  V30 69197 H 6450.95 1.05313 0.982095 0
M  V30 69198 H 6452.91 0.904351 4.11582 0
M  V30 69199 H 6451.63 -0.00232334 3.266 0
M  V30 69200 H 6450.29 2.113 2.9958 0
M  V30 69201 H 6449.94 0.643523 4.98866 0
M  V30 69202 H 6449.64 2.35456 5.38363 0
M  V30 69203 H 6451.16 1.57734 5.89875 0
M  V30 69204 H 6452.57 3.43424 4.59057 0
M  V30 69205 H 6450.97 4.17444 4.31115 0
M  V30 69206 H 6452.04 3.86165 2.93265 0
M  V30 69207 N 6453.38 -1.06669 1.16015 0
M  V30 69208 C 6454.33 -2.14048 0.863249 0
M  V30 69209 C 6455.3 -1.65047 -0.186724 0
M  V30 69210 O 6456.49 -1.90727 -0.0527591 0
M  V30 69211 C 6453.63 -3.4315 0.366305 0
M  V30 69212 C 6452.74 -4.05906 1.47866 0
M  V30 69213 C 6451.87 -5.22868 0.937126 0
M  V30 69214 C 6450.91 -5.776 2.02595 0
M  V30 69215 N 6450.05 -6.85883 1.50028 0
M  V30 69216 H 6454.89 -2.38785 1.78286 0
M  V30 69217 H 6452.43 -1.17162 0.889462 0
M  V30 69218 H 6454.39 -4.17157 0.0598451 0
M  V30 69219 H 6453.02 -3.18643 -0.516367 0
M  V30 69220 H 6452.07 -3.29484 1.90116 0
M  V30 69221 H 6453.38 -4.42584 2.30046 0
M  V30 69222 H 6452.53 -6.03886 0.583621 0
M  V30 69223 H 6451.27 -4.87627 0.0845871 0
M  V30 69224 H 6450.28 -4.95222 2.3882 0
M  V30 69225 H 6451.5 -6.14895 2.88238 0
M  V30 69226 H 6449.45 -6.52567 0.670211 0
M  V30 69227 H 6449.37 -7.21483 2.25828 0
M  V30 69228 H 6450.63 -7.7059 1.17524 0
M  V30 69229 N 6454.86 -0.958036 -1.25138 0
M  V30 69230 C 6455.77 -0.487673 -2.29475 0
M  V30 69231 C 6456.79 0.446645 -1.6817 0
M  V30 69232 O 6457.96 0.322057 -1.98808 0
M  V30 69233 C 6455.03 0.223808 -3.45977 0
M  V30 69234 C 6454.09 -0.749143 -4.22713 0
M  V30 69235 C 6453.32 -0.0715205 -5.33652 0
M  V30 69236 O 6453.55 1.14215 -5.58848 0
M  V30 69237 O 6452.48 -0.758785 -5.97098 0
M  V30 69238 H 6456.31 -1.3548 -2.71807 0
M  V30 69239 H 6453.89 -0.72464 -1.3065 0
M  V30 69240 H 6455.77 0.623893 -4.16756 0
M  V30 69241 H 6454.45 1.06606 -3.05642 0
M  V30 69242 H 6453.36 -1.1995 -3.54348 0
M  V30 69243 H 6454.69 -1.55951 -4.66841 0
M  V30 69244 N 6456.34 1.3983 -0.727006 0
M  V30 69245 C 6457.27 2.33299 -0.0967758 0
M  V30 69246 C 6458.25 1.53494 0.733042 0
M  V30 69247 O 6459.44 1.81919 0.679648 0
M  V30 69248 C 6456.57 3.37548 0.817248 0
M  V30 69249 C 6455.52 4.27901 0.0921943 0
M  V30 69250 C 6454.85 5.22781 1.1227 0
M  V30 69251 C 6456.15 5.11421 -1.06046 0
M  V30 69252 H 6457.84 2.86252 -0.877513 0
M  V30 69253 H 6455.39 1.37634 -0.423427 0
M  V30 69254 H 6457.34 4.01882 1.26762 0
M  V30 69255 H 6456.06 2.83016 1.63001 0
M  V30 69256 H 6454.72 3.65034 -0.338467 0
M  V30 69257 H 6454.37 4.64549 1.92882 0
M  V30 69258 H 6454.07 5.84078 0.642385 0
M  V30 69259 H 6455.59 5.89992 1.57293 0
M  V30 69260 H 6457.01 5.69146 -0.688915 0
M  V30 69261 H 6455.41 5.8182 -1.46988 0
M  V30 69262 H 6456.48 4.46725 -1.88587 0
M  V30 69263 N 6457.82 0.474035 1.50302 0
M  V30 69264 C 6459.05 -0.0775405 2.06755 0
M  V30 69265 C 6459.46 -1.33246 1.33757 0
M  V30 69266 O 6458.82 -1.77887 0.407721 0
M  V30 69267 C 6458.87 -0.362646 3.59676 0
M  V30 69268 O 6458.59 0.842503 4.29923 0
M  V30 69269 C 6460.09 -0.960861 4.32761 0
M  V30 69270 H 6457.31 0.00839663 0.670947 0
M  V30 69271 H 6459.86 0.663662 1.93432 0
M  V30 69272 H 6458.01 -1.05378 3.72792 0
M  V30 69273 H 6458.42 0.588891 5.21184 0
M  V30 69274 H 6459.9 -1.1101 5.40722 0
M  V30 69275 H 6460.38 -1.95173 3.93451 0
M  V30 69276 H 6460.98 -0.308013 4.24183 0
M  V30 69277 N 6459.3 -1.56238 0.206757 0
M  V30 69278 C 6460.21 -2.23243 -0.721094 0
M  V30 69279 C 6461.22 -1.23524 -1.22547 0
M  V30 69280 O 6462.4 -1.56295 -1.27019 0
M  V30 69281 C 6459.46 -2.88774 -1.91861 0
M  V30 69282 C 6458.53 -4.03796 -1.45765 0
M  V30 69283 C 6457.76 -4.66192 -2.59808 0
M  V30 69284 O 6457.98 -4.27537 -3.77582 0
M  V30 69285 O 6456.92 -5.55452 -2.31855 0
M  V30 69286 H 6460.74 -3.03164 -0.180382 0
M  V30 69287 H 6458.33 -1.49382 -0.0230511 0
M  V30 69288 H 6460.21 -3.3019 -2.61825 0
M  V30 69289 H 6458.88 -2.11824 -2.4477 0
M  V30 69290 H 6457.79 -3.66979 -0.726458 0
M  V30 69291 H 6459.12 -4.82444 -0.975099 0
M  V30 69292 N 6460.78 0.0667605 -1.57459 0
M  V30 69293 C 6461.69 1.09657 -2.07394 0
M  V30 69294 C 6462.7 1.42076 -1.00451 0
M  V30 69295 O 6463.88 1.52152 -1.31954 0
M  V30 69296 C 6460.94 2.38943 -2.51211 0
M  V30 69297 C 6460 2.1345 -3.72475 0
M  V30 69298 C 6459.24 3.36571 -4.14193 0
M  V30 69299 O 6459.46 4.45877 -3.55739 0
M  V30 69300 O 6458.39 3.24487 -5.06944 0
M  V30 69301 H 6462.22 0.702339 -2.95467 0
M  V30 69302 H 6459.8 0.281236 -1.46729 0
M  V30 69303 H 6461.69 3.1502 -2.79894 0
M  V30 69304 H 6460.36 2.77736 -1.66266 0
M  V30 69305 H 6459.27 1.35062 -3.48868 0
M  V30 69306 H 6460.6 1.79534 -4.58288 0
M  V30 69307 N 6462.25 1.53927 0.338263 0
M  V30 69308 C 6463.48 1.75686 1.10224 0
M  V30 69309 C 6463.9 0.49715 1.81411 0
M  V30 69310 O 6463.26 -0.550517 1.7274 0
M  V30 69311 C 6463.31 2.94046 2.08733 0
M  V30 69312 O 6462.41 2.64563 3.16354 0
M  V30 69313 H 6461.75 0.582614 0.318523 0
M  V30 69314 H 6464.28 2.00906 0.387042 0
M  V30 69315 H 6464.29 3.20982 2.51862 0
M  V30 69316 H 6462.97 3.85406 1.56317 0
M  V30 69317 H 6461.55 2.48531 2.78005 0
M  V30 69318 N 6463.73 -0.599557 1.4575 0
M  V30 69319 C 6465.01 -1.3592 1.4066 0
M  V30 69320 C 6465.39 -2.10943 0.0813285 0
M  V30 69321 O 6464.74 -2.08411 -0.936872 0
M  V30 69322 C 6464.95 -2.29931 2.6255 0
M  V30 69323 C 6466.29 -2.92288 3.07982 0
M  V30 69324 O 6467.32 -2.4025 2.6298 0
M  V30 69325 O 6466.18 -3.86767 3.861 0
M  V30 69326 H 6463.27 -0.609856 0.558573 0
M  V30 69327 H 6465.82 -0.621976 1.57891 0
M  V30 69328 H 6464.59 -1.73808 3.5058 0
M  V30 69329 H 6464.21 -3.1102 2.47693 0
M  V30 69330 N 6465.21 -1.33174 -0.842756 0
M  V30 69331 C 6466.14 -1.25727 -1.96761 0
M  V30 69332 C 6467.12 -0.138634 -1.69534 0
M  V30 69333 O 6468.31 -0.327771 -1.91414 0
M  V30 69334 C 6465.44 -0.991754 -3.32839 0
M  V30 69335 C 6464.39 -2.07291 -3.74452 0
M  V30 69336 C 6463.72 -1.6596 -5.08293 0
M  V30 69337 C 6465.02 -3.48925 -3.8865 0
M  V30 69338 H 6466.71 -2.19841 -2.0325 0
M  V30 69339 H 6464.26 -1.05833 -0.976496 0
M  V30 69340 H 6466.21 -0.926165 -4.11096 0
M  V30 69341 H 6464.93 -0.0149971 -3.26597 0
M  V30 69342 H 6463.59 -2.12886 -2.98455 0
M  V30 69343 H 6463.24 -0.66997 -4.98518 0
M  V30 69344 H 6462.94 -2.38307 -5.37106 0
M  V30 69345 H 6464.46 -1.6086 -5.8903 0
M  V30 69346 H 6465.88 -3.45853 -4.57229 0
M  V30 69347 H 6464.27 -4.19725 -4.28895 0
M  V30 69348 H 6465.34 -3.87715 -2.91213 0
M  V30 69349 N 6466.69 1.06052 -1.16579 0
M  V30 69350 C 6467.62 2.15551 -0.897769 0
M  V30 69351 C 6468.6 1.69375 0.156867 0
M  V30 69352 O 6469.78 1.94198 0.00845112 0
M  V30 69353 C 6466.91 3.4498 -0.400752 0
M  V30 69354 C 6465.87 4.04677 -1.39358 0
M  V30 69355 C 6465.19 5.29345 -0.754863 0
M  V30 69356 C 6466.49 4.43173 -2.76397 0
M  V30 69357 H 6468.19 2.3823 -1.81347 0
M  V30 69358 H 6465.73 1.14492 -0.873357 0
M  V30 69359 H 6467.69 4.20922 -0.200714 0
M  V30 69360 H 6466.41 3.21928 0.550463 0
M  V30 69361 H 6465.07 3.30795 -1.5802 0
M  V30 69362 H 6464.72 5.02591 0.202914 0
M  V30 69363 H 6464.42 5.70245 -1.41755 0
M  V30 69364 H 6465.94 6.07981 -0.564901 0
M  V30 69365 H 6467.36 5.10185 -2.61503 0
M  V30 69366 H 6465.75 4.95064 -3.39163 0
M  V30 69367 H 6466.82 3.53919 -3.31465 0
M  V30 69368 N 6468.17 0.964658 1.24628 0
M  V30 69369 C 6469.39 0.641977 1.97214 0
M  V30 69370 C 6469.82 -0.781218 1.7111 0
M  V30 69371 O 6469.17 -1.52978 0.973006 0
M  V30 69372 C 6469.22 0.919031 3.48692 0
M  V30 69373 O 6468.33 0.00290556 4.124 0
M  V30 69374 H 6467.67 0.243022 0.617929 0
M  V30 69375 H 6470.2 1.29398 1.58484 0
M  V30 69376 H 6470.21 0.849337 3.99062 0
M  V30 69377 H 6468.88 1.95625 3.6702 0
M  V30 69378 H 6467.46 0.12566 3.72688 0
M  V30 69379 N 6469.64 -1.39442 0.734411 0
M  V30 69380 C 6470.92 -1.94486 0.208428 0
M  V30 69381 C 6471.3 -1.67124 -1.28968 0
M  V30 69382 O 6470.65 -0.999154 -2.05497 0
M  V30 69383 C 6470.86 -3.44775 0.54141 0
M  V30 69384 C 6472.21 -4.21758 0.490424 0
M  V30 69385 O 6473.23 -3.52971 0.478567 0
M  V30 69386 O 6472.09 -5.44349 0.484441 0
M  V30 69387 H 6469.18 -0.826134 0.037831 0
M  V30 69388 H 6471.73 -1.48945 0.813229 0
M  V30 69389 H 6470.5 -3.58123 1.57683 0
M  V30 69390 H 6470.12 -3.97493 -0.0923904 0
M  V30 69391 N 6471.12 -0.481999 -1.50048 0
M  V30 69392 C 6472.37 0.0709491 -2.01575 0
M  V30 69393 C 6472.68 1.39794 -1.3681 0
M  V30 69394 O 6473.89 2.03647 -1.79556 0
M  V30 69395 C 6472.35 0.176938 -3.59465 0
M  V30 69396 C 6471.95 -1.14227 -4.33193 0
M  V30 69397 C 6473.7 0.681262 -4.18998 0
M  V30 69398 C 6471.6 -0.999479 -5.82893 0
M  V30 69399 H 6470.53 0.0302897 -0.753391 0
M  V30 69400 H 6473.19 -0.618548 -1.72761 0
M  V30 69401 H 6471.57 0.930462 -3.84913 0
M  V30 69402 H 6472.74 -1.9076 -4.19461 0
M  V30 69403 H 6471.06 -1.57855 -3.85319 0
M  V30 69404 H 6473.65 0.805299 -5.28601 0
M  V30 69405 H 6474 1.67537 -3.811 0
M  V30 69406 H 6474.53 -0.0151848 -3.97797 0
M  V30 69407 H 6471.27 -1.96728 -6.25283 0
M  V30 69408 H 6470.79 -0.274715 -5.99171 0
M  V30 69409 H 6472.47 -0.670491 -6.43516 0
M  V30 69410 N 6472.6 1.56126 -0.21504 0
M  V30 69411 C 6473.85 1.9813 0.41842 0
M  V30 69412 C 6474.17 1.10251 1.60234 0
M  V30 69413 O 6473.43 0.145993 1.95155 0
M  V30 69414 C 6473.73 3.45831 0.901962 0
M  V30 69415 C 6473.39 4.50577 -0.170731 0
M  V30 69416 C 6472.06 4.78944 -0.465427 0
M  V30 69417 C 6474.41 5.13431 -0.896536 0
M  V30 69418 C 6471.74 5.6745 -1.49056 0
M  V30 69419 C 6474.09 6.03047 -1.91096 0
M  V30 69420 C 6472.75 6.29761 -2.21264 0
M  V30 69421 H 6472.02 0.725009 0.153111 0
M  V30 69422 H 6474.67 1.88872 -0.316193 0
M  V30 69423 H 6472.97 3.52261 1.71522 0
M  V30 69424 H 6474.67 3.75699 1.40183 0
M  V30 69425 H 6471.26 4.28544 0.0691151 0
M  V30 69426 H 6475.45 4.9159 -0.682101 0
M  V30 69427 H 6470.7 5.86414 -1.72999 0
M  V30 69428 H 6474.88 6.50803 -2.47847 0
M  V30 69429 H 6472.5 6.98139 -3.00842 0
M  V30 69430 N 6474.08 -0.0584092 1.57492 0
M  V30 69431 C 6475.33 -0.753514 1.87528 0
M  V30 69432 C 6475.65 -1.77433 0.808866 0
M  V30 69433 O 6474.92 -1.95237 -0.160993 0
M  V30 69434 H 6473.5 -0.281283 0.692018 0
M  V30 69435 H 6476.16 -0.0313194 1.94875 0
M  V30 69436 H 6475.26 -1.26141 2.85473 0
M  V30 69437 N 6475.56 -1.54104 -0.330095 0
M  V30 69438 C 6476.49 -1.86025 -1.41128 0
M  V30 69439 C 6477.47 -0.716484 -1.54274 0
M  V30 69440 O 6478.65 -0.969627 -1.68261 0
M  V30 69441 C 6475.78 -2.0818 -2.7799 0
M  V30 69442 C 6474.74 -3.24016 -2.79638 0
M  V30 69443 C 6474.06 -3.31531 -4.19513 0
M  V30 69444 C 6475.36 -4.61819 -2.43969 0
M  V30 69445 H 6477.06 -2.76573 -1.14662 0
M  V30 69446 H 6474.6 -1.33076 -0.550152 0
M  V30 69447 H 6476.56 -2.29095 -3.53685 0
M  V30 69448 H 6475.28 -1.14375 -3.05918 0
M  V30 69449 H 6473.94 -3.02979 -2.06397 0
M  V30 69450 H 6473.59 -2.35296 -4.44573 0
M  V30 69451 H 6473.29 -4.09379 -4.21524 0
M  V30 69452 H 6474.81 -3.54672 -4.97031 0
M  V30 69453 H 6476.22 -4.82658 -3.09378 0
M  V30 69454 H 6474.62 -5.42169 -2.57241 0
M  V30 69455 H 6475.69 -4.64512 -1.39129 0
M  V30 69456 N 6477.03 0.591819 -1.46066 0
M  V30 69457 C 6478.31 1.35172 -1.41379 0
M  V30 69458 C 6478.69 2.10897 -0.0925141 0
M  V30 69459 O 6478.04 2.08904 0.925806 0
M  V30 69460 C 6478.25 2.28536 -2.63766 0
M  V30 69461 C 6479.6 2.90651 -3.09527 0
M  V30 69462 O 6480.62 2.38852 -2.6425 0
M  V30 69463 O 6479.48 3.84714 -3.88146 0
M  V30 69464 H 6476.57 0.606886 -0.5618 0
M  V30 69465 H 6479.12 0.613594 -1.58219 0
M  V30 69466 H 6477.89 1.71947 -3.51497 0
M  V30 69467 H 6477.52 3.09702 -2.49339 0
M  V30 69468 N 6478.51 1.33619 0.835682 0
M  V30 69469 C 6479.44 1.26769 1.96092 0
M  V30 69470 C 6480.42 0.147623 1.69458 0
M  V30 69471 O 6481.61 0.337918 1.91237 0
M  V30 69472 C 6478.74 1.00939 3.32308 0
M  V30 69473 C 6477.69 2.09274 3.73347 0
M  V30 69474 C 6477.02 1.68653 5.07405 0
M  V30 69475 C 6478.32 3.50981 3.86794 0
M  V30 69476 H 6480.01 2.20915 2.02081 0
M  V30 69477 H 6477.56 1.06349 0.970869 0
M  V30 69478 H 6479.51 0.947953 4.10599 0
M  V30 69479 H 6478.24 0.0323171 3.26584 0
M  V30 69480 H 6476.89 2.14465 2.97322 0
M  V30 69481 H 6476.54 0.696398 4.98156 0
M  V30 69482 H 6476.24 2.41152 5.35835 0
M  V30 69483 H 6477.77 1.63981 5.88169 0
M  V30 69484 H 6479.18 3.48273 4.55388 0
M  V30 69485 H 6477.58 4.21993 4.26663 0
M  V30 69486 H 6478.65 3.89254 2.89153 0
M  V30 69487 N 6479.99 -1.05432 1.1714 0
M  V30 69488 C 6480.94 -2.13121 0.885903 0
M  V30 69489 C 6481.91 -1.65236 -0.169209 0
M  V30 69490 O 6483.09 -1.90772 -0.032527 0
M  V30 69491 C 6480.23 -3.42743 0.40268 0
M  V30 69492 C 6479.35 -4.04315 1.52163 0
M  V30 69493 C 6478.48 -5.21845 0.99253 0
M  V30 69494 C 6477.52 -5.75419 2.08709 0
M  V30 69495 N 6476.66 -6.84254 1.57294 0
M  V30 69496 H 6481.5 -2.36881 1.80808 0
M  V30 69497 H 6479.03 -1.16212 0.901839 0
M  V30 69498 H 6480.99 -4.1707 0.104087 0
M  V30 69499 H 6479.62 -3.19173 -0.482541 0
M  V30 69500 H 6478.67 -3.27449 1.936 0
M  V30 69501 H 6479.99 -4.40119 2.34727 0
M  V30 69502 H 6479.14 -6.03233 0.647638 0
M  V30 69503 H 6477.88 -4.87509 0.136302 0
M  V30 69504 H 6476.88 -4.92662 2.44059 0
M  V30 69505 H 6478.11 -6.11803 2.94744 0
M  V30 69506 H 6476.05 -6.5182 0.739387 0
M  V30 69507 H 6475.97 -7.19047 2.33467 0
M  V30 69508 H 6477.24 -7.693 1.2569 0
M  V30 69509 N 6481.47 -0.971254 -1.24115 0
M  V30 69510 C 6482.88 -0.678366 -1.44466 0
M  V30 69511 C 6483.08 0.758604 -1.86675 0
M  V30 69512 O 6482.14 1.5321 -2.00706 0
M  V30 69513 C 6483.45 -1.66549 -2.50363 0
M  V30 69514 C 6485 -1.67851 -2.64187 0
M  V30 69515 C 6485.48 -2.65371 -3.73286 0
M  V30 69516 N 6486.97 -2.63834 -3.80717 0
M  V30 69517 C 6487.7 -3.35963 -4.64668 0
M  V30 69518 N 6487.2 -4.17621 -5.52779 0
M  V30 69519 N 6488.99 -3.24771 -4.58781 0
M  V30 69520 H 6481.14 -1.89963 -0.950149 0
M  V30 69521 H 6483.41 -0.818042 -0.479073 0
M  V30 69522 H 6483.11 -2.69269 -2.26245 0
M  V30 69523 H 6482.99 -1.44107 -3.48587 0
M  V30 69524 H 6485.37 -0.658409 -2.87661 0
M  V30 69525 H 6485.45 -1.94357 -1.6631 0
M  V30 69526 H 6485.1 -3.67518 -3.50561 0
M  V30 69527 H 6485.03 -2.36143 -4.70685 0
M  V30 69528 H 6487.52 -2.04565 -3.17744 0
M  V30 69529 H 6487.83 -4.69536 -6.13804 0
M  V30 69530 H 6486.18 -4.21715 -5.52433 0
M  V30 69531 H 6489.37 -2.60436 -3.88961 0
M  V30 69532 H 6489.54 -3.81246 -5.2398 0
M  V30 69533 N 6482.95 1.39051 -0.741796 0
M  V30 69534 C 6483.86 2.34351 -0.108028 0
M  V30 69535 C 6484.87 1.58668 0.714165 0
M  V30 69536 O 6486.05 1.90925 0.641057 0
M  V30 69537 C 6483.11 3.37733 0.783428 0
M  V30 69538 C 6482.17 4.29269 -0.0517901 0
M  V30 69539 C 6481.41 5.27712 0.797213 0
M  V30 69540 O 6481.63 5.32837 2.0357 0
M  V30 69541 O 6480.56 6.01489 0.222266 0
M  V30 69542 H 6484.39 2.9022 -0.894779 0
M  V30 69543 H 6481.98 1.40694 -0.502543 0
M  V30 69544 H 6483.86 4.01064 1.29328 0
M  V30 69545 H 6482.53 2.84238 1.54888 0
M  V30 69546 H 6481.44 3.69137 -0.607323 0
M  V30 69547 H 6482.77 4.85986 -0.779616 0
M  V30 69548 N 6484.42 0.489949 1.49791 0
M  V30 69549 C 6485.67 -0.0583574 2.02016 0
M  V30 69550 C 6485.99 -1.38502 1.37267 0
M  V30 69551 O 6485.26 -1.88755 0.524258 0
M  V30 69552 H 6483.84 -0.0245566 0.746596 0
M  V30 69553 H 6486.51 0.644673 1.83929 0
M  V30 69554 H 6485.6 -0.196118 3.11483 0
M  V30 69555 N 6485.9 -1.5601 0.223316 0
M  V30 69556 C 6487.15 -1.97957 -0.407101 0
M  V30 69557 C 6487.47 -1.11225 -1.60169 0
M  V30 69558 O 6486.74 -0.189673 -1.9498 0
M  V30 69559 H 6485.32 -0.73108 -0.153398 0
M  V30 69560 H 6487.98 -1.92311 0.316622 0
M  V30 69561 H 6487.08 -3.03389 -0.732236 0
M  V30 69562 N 6487.38 0.0500562 -1.5752 0
M  V30 69563 C 6488.31 1.08427 -2.01931 0
M  V30 69564 C 6489.33 1.33715 -0.92866 0
M  V30 69565 O 6490.51 1.31572 -1.20628 0
M  V30 69566 C 6487.61 2.43057 -2.36171 0
M  V30 69567 C 6486.79 2.37421 -3.67356 0
M  V30 69568 C 6485.85 3.54331 -3.89019 0
M  V30 69569 O 6484.87 3.34774 -4.60342 0
M  V30 69570 N 6486.07 4.75463 -3.33039 0
M  V30 69571 H 6488.84 0.705892 -2.91268 0
M  V30 69572 H 6486.4 0.238365 -1.60136 0
M  V30 69573 H 6488.39 3.19951 -2.47818 0
M  V30 69574 H 6486.96 2.72815 -1.52612 0
M  V30 69575 H 6486.18 1.45765 -3.6626 0
M  V30 69576 H 6487.47 2.30776 -4.53453 0
M  V30 69577 H 6486.87 4.94255 -2.75188 0
M  V30 69578 H 6485.43 5.49793 -3.50101 0
M  V30 69579 N 6488.86 1.54277 0.321918 0
M  V30 69580 C 6490.09 1.76271 1.0776 0
M  V30 69581 C 6490.5 0.512102 1.82138 0
M  V30 69582 O 6489.84 -0.526903 1.75981 0
M  V30 69583 C 6489.9 2.90335 2.12004 0
M  V30 69584 C 6489.57 4.29182 1.57009 0
M  V30 69585 C 6490.56 5.09975 1.01102 0
M  V30 69586 C 6488.25 4.7573 1.61203 0
M  V30 69587 C 6490.24 6.35427 0.501183 0
M  V30 69588 C 6487.93 6.01149 1.09832 0
M  V30 69589 C 6488.93 6.80831 0.543847 0
M  V30 69590 O 6488.62 8.03891 0.037868 0
M  V30 69591 H 6488.35 0.592039 0.326291 0
M  V30 69592 H 6490.9 2.01981 0.373203 0
M  V30 69593 H 6489.13 2.602 2.86064 0
M  V30 69594 H 6490.82 3.00097 2.73307 0
M  V30 69595 H 6491.59 4.75167 0.971676 0
M  V30 69596 H 6487.47 4.13751 2.033 0
M  V30 69597 H 6491.01 6.97567 0.0677397 0
M  V30 69598 H 6486.91 6.35448 1.13474 0
M  V30 69599 H 6487.67 8.18357 0.153137 0
M  V30 69600 N 6490.34 -0.584065 1.46378 0
M  V30 69601 C 6491.28 -1.69323 1.56839 0
M  V30 69602 C 6492.25 -1.60889 0.412776 0
M  V30 69603 O 6493.44 -1.80122 0.629349 0
M  V30 69604 C 6490.58 -3.07658 1.56335 0
M  V30 69605 C 6489.69 -3.26726 2.8262 0
M  V30 69606 C 6488.83 -4.55303 2.73629 0
M  V30 69607 C 6487.87 -4.67709 3.9486 0
M  V30 69608 N 6487 -5.8761 3.84264 0
M  V30 69609 H 6491.84 -1.59719 2.51583 0
M  V30 69610 H 6489.38 -0.778449 1.24814 0
M  V30 69611 H 6491.34 -3.87726 1.54028 0
M  V30 69612 H 6489.97 -3.16162 0.651242 0
M  V30 69613 H 6489.02 -2.40272 2.94913 0
M  V30 69614 H 6490.33 -3.31762 3.72472 0
M  V30 69615 H 6489.49 -5.43597 2.69421 0
M  V30 69616 H 6488.23 -4.52703 1.81415 0
M  V30 69617 H 6487.23 -3.77833 3.99402 0
M  V30 69618 H 6488.46 -4.72089 4.88169 0
M  V30 69619 H 6486.4 -5.86011 2.94835 0
M  V30 69620 H 6486.32 -5.93908 4.6777 0
M  V30 69621 H 6487.59 -6.78339 3.84027 0
M  V30 69622 N 6491.82 -1.34061 -0.828584 0
M  V30 69623 C 6492.75 -1.27807 -1.95417 0
M  V30 69624 C 6493.73 -0.156607 -1.69378 0
M  V30 69625 O 6494.91 -0.348055 -1.91056 0
M  V30 69626 C 6492.04 -1.027 -3.31768 0
M  V30 69627 C 6491 -2.11251 -3.72232 0
M  V30 69628 C 6490.32 -1.71342 -5.06504 0
M  V30 69629 C 6491.62 -3.53028 -3.84927 0
M  V30 69630 H 6493.32 -2.21984 -2.00907 0
M  V30 69631 H 6490.86 -1.06862 -0.965216 0
M  V30 69632 H 6492.81 -0.969715 -4.10091 0
M  V30 69633 H 6491.54 -0.0496362 -3.26562 0
M  V30 69634 H 6490.2 -2.16039 -2.9618 0
M  V30 69635 H 6489.85 -0.722807 -4.9778 0
M  V30 69636 H 6489.55 -2.43991 -5.34549 0
M  V30 69637 H 6491.07 -1.67098 -5.87291 0
M  V30 69638 H 6492.48 -3.50683 -4.53535 0
M  V30 69639 H 6490.88 -4.2425 -4.2442 0
M  V30 69640 H 6491.95 -3.90782 -2.87084 0
M  V30 69641 N 6493.29 1.0481 -1.17698 0
M  V30 69642 C 6494.54 1.77273 -0.962138 0
M  V30 69643 C 6494.86 1.88836 0.509925 0
M  V30 69644 O 6496.06 2.58078 0.843075 0
M  V30 69645 C 6494.52 3.18687 -1.67232 0
M  V30 69646 C 6494.13 3.15242 -3.18319 0
M  V30 69647 C 6495.87 3.9558 -1.54002 0
M  V30 69648 C 6493.78 4.51467 -3.82009 0
M  V30 69649 H 6492.71 0.664477 -0.356351 0
M  V30 69650 H 6495.36 1.17446 -1.40992 0
M  V30 69651 H 6493.74 3.78864 -1.1523 0
M  V30 69652 H 6494.91 2.64559 -3.77286 0
M  V30 69653 H 6493.23 2.51848 -3.31605 0
M  V30 69654 H 6495.83 4.96308 -1.98954 0
M  V30 69655 H 6496.17 4.13393 -0.491148 0
M  V30 69656 H 6496.7 3.4196 -2.03244 0
M  V30 69657 H 6493.44 4.3886 -4.86911 0
M  V30 69658 H 6492.96 5.02283 -3.27829 0
M  V30 69659 H 6494.64 5.20399 -3.84439 0
M  V30 69660 N 6494.77 0.977823 1.23598 0
M  V30 69661 C 6496.18 0.682634 1.73773 0
M  V30 69662 C 6496.53 -0.80126 1.79093 0
M  V30 69663 O 6495.66 -1.62675 1.42708 0
M  V30 69664 C 6496.25 1.23245 3.15589 0
M  V30 69665 C 6494.81 0.986956 3.6323 0
M  V30 69666 C 6493.96 1.36172 2.41562 0
M  V30 69667 H 6496.91 1.15197 1.09157 0
M  V30 69668 H 6496.93 0.603618 3.75682 0
M  V30 69669 H 6496.44 2.31245 3.11684 0
M  V30 69670 H 6494.54 -0.0770814 3.7252 0
M  V30 69671 H 6494.66 1.63972 4.50167 0
M  V30 69672 H 6493.02 0.780164 2.42457 0
M  V30 69673 H 6493.8 2.45144 2.40332 0
M  V30 69674 N 6496.25 -1.38656 0.749159 0
M  V30 69675 C 6497.2 -2.27805 0.0942908 0
M  V30 69676 C 6498.18 -1.44978 -0.697878 0
M  V30 69677 O 6499.38 -1.67755 -0.56456 0
M  V30 69678 C 6496.5 -3.33814 -0.801462 0
M  V30 69679 C 6495.59 -4.241 -0.0026828 0
M  V30 69680 N 6495.98 -4.95171 1.03146 0
M  V30 69681 C 6494.28 -4.45406 -0.230179 0
M  V30 69682 C 6494.98 -5.61642 1.51436 0
M  V30 69683 N 6493.96 -5.37219 0.830441 0
M  V30 69684 H 6497.76 -2.80215 0.886394 0
M  V30 69685 H 6495.27 -1.51506 0.584791 0
M  V30 69686 H 6497.27 -3.96563 -1.2862 0
M  V30 69687 H 6495.93 -2.82962 -1.59257 0
M  V30 69688 H 6496.94 -4.98247 1.41316 0
M  V30 69689 H 6493.62 -4.05471 -0.994974 0
M  V30 69690 H 6495.01 -6.28505 2.37553 0
M  V30 69691 N 6497.73 -0.497886 -1.49529 0
M  V30 69692 C 6498.68 0.295938 -2.3071 0
M  V30 69693 C 6499.67 0.965678 -1.3918 0
M  V30 69694 O 6500.88 0.893722 -1.56245 0
M  V30 69695 H 6497.25 0.114293 -0.743264 0
M  V30 69696 H 6499.22 -0.408783 -2.95587 0
M  V30 69697 C 6497.97 1.34945 -3.20445 0
M  V30 69698 H 6497.29 0.843494 -3.90801 0
M  V30 69699 H 6498.73 1.87693 -3.80194 0
M  V30 69700 C 6497.19 2.36594 -2.39844 0
M  V30 69701 O 6497.72 3.42413 -2.10039 0
M  V30 69702 N 6495.93 2.08985 -2.01925 0
M  V30 69703 H 6495.48 1.22952 -2.26364 0
M  V30 69704 H 6495.43 2.77225 -1.48303 0
M  V30 69705 N 6499.21 1.55889 -0.231587 0
M  V30 69706 C 6500.62 1.84672 0.274422 0
M  V30 69707 C 6500.97 1.15317 1.58734 0
M  V30 69708 O 6500.09 0.426264 2.1216 0
M  V30 69709 C 6500.69 3.3502 0.504688 0
M  V30 69710 C 6499.25 3.64084 0.954987 0
M  V30 69711 C 6498.39 2.7729 0.0236255 0
M  V30 69712 H 6501.34 1.52051 -0.454536 0
M  V30 69713 H 6501.37 3.5577 1.34937 0
M  V30 69714 H 6500.88 3.8547 -0.451038 0
M  V30 69715 H 6498.98 3.19099 1.92372 0
M  V30 69716 H 6499.09 4.71988 0.822449 0
M  V30 69717 H 6497.46 2.49077 0.532242 0
M  V30 69718 H 6498.24 3.30542 -0.927198 0
M  V30 69719 N 6500.68 -0.0417018 1.57545 0
M  V30 69720 C 6501.63 -1.06473 2.068 0
M  V30 69721 C 6502.63 -1.38231 0.979211 0
M  V30 69722 O 6503.83 -1.37284 1.16417 0
M  V30 69723 H 6500.21 -0.360834 0.659775 0
M  V30 69724 H 6502.18 -0.623397 2.91816 0
M  V30 69725 C 6500.93 -2.36105 2.55245 0
M  V30 69726 H 6500.25 -2.12525 3.38634 0
M  V30 69727 H 6501.69 -3.06062 2.93432 0
M  V30 69728 C 6500.15 -3.04186 1.44818 0
M  V30 69729 O 6500.68 -3.93506 0.807236 0
M  V30 69730 N 6498.88 -2.65304 1.18583 0
M  V30 69731 H 6498.43 -1.92757 1.70888 0
M  V30 69732 H 6498.39 -3.11176 0.449097 0
M  V30 69733 N 6502.16 -1.54446 -0.313732 0
M  V30 69734 C 6503.12 -1.83785 -1.36952 0
M  V30 69735 C 6504.12 -0.710104 -1.44271 0
M  V30 69736 O 6505.31 -0.978409 -1.44128 0
M  V30 69737 C 6502.45 -2.00671 -2.75579 0
M  V30 69738 H 6503.64 -2.78126 -1.12187 0
M  V30 69739 H 6501.19 -1.46313 -0.549737 0
M  V30 69740 H 6501.93 -1.08574 -3.05585 0
M  V30 69741 H 6501.71 -2.82743 -2.71659 0
M  V30 69742 H 6503.2 -2.24784 -3.5194 0
M  V30 69743 N 6503.64 0.576294 -1.46685 0
M  V30 69744 C 6504.89 1.33163 -1.52026 0
M  V30 69745 C 6505.21 1.94203 -0.176128 0
M  V30 69746 O 6504.48 1.7891 0.798006 0
M  V30 69747 H 6503.06 0.494439 -0.559945 0
M  V30 69748 H 6505.72 0.674439 -1.82859 0
M  V30 69749 H 6504.82 2.13503 -2.27646 0
M  V30 69750 N 6505.12 1.34498 0.821463 0
M  V30 69751 C 6506.05 1.28842 1.94736 0
M  V30 69752 C 6507.03 0.165588 1.69292 0
M  V30 69753 O 6508.21 0.358182 1.90868 0
M  V30 69754 C 6505.34 1.04458 3.31219 0
M  V30 69755 C 6504.3 2.13222 3.71107 0
M  V30 69756 C 6503.62 1.74025 5.05588 0
M  V30 69757 C 6504.92 3.55064 3.83049 0
M  V30 69758 H 6506.62 2.23046 1.99726 0
M  V30 69759 H 6504.16 1.07373 0.959535 0
M  V30 69760 H 6506.12 0.99145 4.09571 0
M  V30 69761 H 6504.84 0.0669539 3.26531 0
M  V30 69762 H 6503.5 2.17607 2.9503 0
M  V30 69763 H 6503.15 0.749195 4.97389 0
M  V30 69764 H 6502.85 2.46822 5.33247 0
M  V30 69765 H 6504.37 1.7021 5.86396 0
M  V30 69766 H 6505.79 3.53084 4.51669 0
M  V30 69767 H 6504.18 4.26495 4.22164 0
M  V30 69768 H 6505.25 3.92299 2.85008 0
M  V30 69769 N 6506.6 -1.04184 1.18252 0
M  V30 69770 C 6507.82 -1.81556 1.00261 0
M  V30 69771 C 6508.25 -1.82778 -0.444271 0
M  V30 69772 O 6507.6 -1.24422 -1.31867 0
M  V30 69773 C 6507.65 -3.25083 1.56055 0
M  V30 69774 O 6506.76 -4.04935 0.781114 0
M  V30 69775 H 6506.1 -0.560964 0.355268 0
M  V30 69776 H 6508.63 -1.31217 1.56981 0
M  V30 69777 H 6508.64 -3.75863 1.58717 0
M  V30 69778 H 6507.31 -3.23508 2.61372 0
M  V30 69779 H 6505.89 -3.6362 0.826721 0
M  V30 69780 N 6508.07 -0.984364 -1.23077 0
M  V30 69781 C 6509.35 -0.571708 -1.87058 0
M  V30 69782 C 6509.73 0.951119 -1.88459 0
M  V30 69783 O 6509.08 1.82949 -1.36901 0
M  V30 69784 C 6509.29 -1.18232 -3.28363 0
M  V30 69785 C 6510.64 -1.27753 -4.04925 0
M  V30 69786 O 6511.66 -1.13608 -3.37597 0
M  V30 69787 O 6510.52 -1.503 -5.25426 0
M  V30 69788 H 6507.61 -0.193055 -0.804151 0
M  V30 69789 H 6510.16 -1.0797 -1.30922 0
M  V30 69790 H 6508.93 -2.22432 -3.21931 0
M  V30 69791 H 6508.56 -0.659398 -3.92094 0
M  V30 69792 N 6509.55 1.38256 -0.756502 0
M  V30 69793 C 6510.48 2.33042 -0.14624 0
M  V30 69794 C 6511.46 1.55015 0.700318 0
M  V30 69795 O 6512.65 1.83319 0.640907 0
M  V30 69796 C 6509.78 3.39205 0.745465 0
M  V30 69797 C 6508.73 4.28 0.00140949 0
M  V30 69798 C 6508.06 5.25044 1.01156 0
M  V30 69799 C 6509.36 5.09057 -1.1687 0
M  V30 69800 H 6511.05 2.84326 -0.938034 0
M  V30 69801 H 6508.6 1.36705 -0.452526 0
M  V30 69802 H 6510.55 4.04481 1.18208 0
M  V30 69803 H 6509.28 2.8641 1.56961 0
M  V30 69804 H 6507.93 3.64234 -0.41582 0
M  V30 69805 H 6507.58 4.68536 1.82984 0
M  V30 69806 H 6507.28 5.85309 0.518348 0
M  V30 69807 H 6508.81 5.93196 1.44743 0
M  V30 69808 H 6510.22 5.67556 -0.809484 0
M  V30 69809 H 6508.62 5.78571 -1.59297 0
M  V30 69810 H 6509.69 4.42624 -1.9802 0
M  V30 69811 N 6511.03 0.505809 1.49263 0
M  V30 69812 C 6511.96 -0.316795 2.2599 0
M  V30 69813 C 6512.94 -0.966172 1.30782 0
M  V30 69814 O 6514.13 -0.995327 1.6008 0
M  V30 69815 C 6511.25 -1.44656 3.06255 0
M  V30 69816 C 6510.3 -0.911064 4.16656 0
M  V30 69817 S 6511.13 0.20198 5.35119 0
M  V30 69818 C 6512.29 -0.930834 6.1894 0
M  V30 69819 H 6512.52 0.334428 2.95413 0
M  V30 69820 H 6510.05 0.291184 1.51629 0
M  V30 69821 H 6512.01 -2.09386 3.53083 0
M  V30 69822 H 6510.67 -2.06941 2.36293 0
M  V30 69823 H 6509.87 -1.75787 4.7235 0
M  V30 69824 H 6509.47 -0.340887 3.72443 0
M  V30 69825 H 6511.76 -1.83499 6.52177 0
M  V30 69826 H 6512.7 -0.412398 7.06898 0
M  V30 69827 H 6513.11 -1.20034 5.51591 0
M  V30 69828 N 6512.51 -1.55764 0.239851 0
M  V30 69829 C 6513.73 -2.0362 -0.394171 0
M  V30 69830 C 6514.16 -1.11816 -1.51258 0
M  V30 69831 O 6513.52 -0.109764 -1.80967 0
M  V30 69832 C 6513.56 -3.49548 -0.885906 0
M  V30 69833 O 6512.67 -3.60879 -1.996 0
M  V30 69834 H 6512.01 -0.658292 -0.0868781 0
M  V30 69835 H 6514.54 -2.01339 0.363845 0
M  V30 69836 H 6514.55 -3.90231 -1.19097 0
M  V30 69837 H 6513.22 -4.15845 -0.0674422 0
M  V30 69838 H 6511.8 -3.32091 -1.69618 0
M  V30 69839 N 6513.99 0.0333462 -1.57565 0
M  V30 69840 C 6514.93 1.05375 -2.07362 0
M  V30 69841 C 6515.93 1.3771 -0.986528 0
M  V30 69842 O 6517.13 1.36665 -1.17144 0
M  V30 69843 H 6513.51 0.35733 -0.661679 0
M  V30 69844 H 6515.48 0.607913 -2.92142 0
M  V30 69845 C 6514.23 2.34748 -2.56493 0
M  V30 69846 H 6513.55 2.10726 -3.39756 0
M  V30 69847 H 6514.99 3.04502 -2.95051 0
M  V30 69848 C 6513.45 3.03414 -1.46429 0
M  V30 69849 O 6513.98 3.93072 -0.828093 0
M  V30 69850 N 6512.19 2.64672 -1.19989 0
M  V30 69851 H 6511.73 1.91848 -1.71908 0
M  V30 69852 H 6511.69 3.10933 -0.465593 0
M  V30 69853 N 6515.46 1.5461 0.305537 0
M  V30 69854 C 6516.88 1.64722 0.87883 0
M  V30 69855 C 6517.23 0.552934 1.88247 0
M  V30 69856 O 6516.35 -0.311199 2.14151 0
M  V30 69857 C 6516.95 2.98598 1.60077 0
M  V30 69858 C 6515.51 3.10847 2.12253 0
M  V30 69859 C 6514.65 2.60383 0.953731 0
M  V30 69860 H 6517.6 1.58485 0.0826517 0
M  V30 69861 H 6517.62 2.89768 2.46607 0
M  V30 69862 H 6517.14 3.78222 0.870052 0
M  V30 69863 H 6515.24 2.35934 2.88385 0
M  V30 69864 H 6515.35 4.16933 2.36017 0
M  V30 69865 H 6513.71 2.16724 1.33802 0
M  V30 69866 H 6514.5 3.42481 0.237045 0
M  V30 69867 N 6516.94 -0.568506 1.46989 0
M  V30 69868 C 6518.19 -1.32813 1.53259 0
M  V30 69869 C 6518.52 -1.93273 0.189526 0
M  V30 69870 O 6517.8 -1.77257 -0.800637 0
M  V30 69871 C 6518.08 -2.44679 2.64205 0
M  V30 69872 C 6517.93 -1.89162 4.0809 0
M  V30 69873 C 6519.25 -3.46662 2.71134 0
M  V30 69874 H 6516.37 -0.481545 0.557928 0
M  V30 69875 H 6519.01 -0.637292 1.78993 0
M  V30 69876 H 6517.16 -3.03608 2.42393 0
M  V30 69877 H 6518.83 -1.34581 4.41232 0
M  V30 69878 H 6517.08 -1.19903 4.169 0
M  V30 69879 H 6517.75 -2.69978 4.81472 0
M  V30 69880 H 6520.22 -2.97635 2.9078 0
M  V30 69881 H 6519.1 -4.22375 3.50558 0
M  V30 69882 H 6519.36 -4.04796 1.77744 0
M  V30 69883 N 6518.42 -1.34932 -0.814318 0
M  V30 69884 C 6519.83 -1.24894 -1.38774 0
M  V30 69885 C 6520.18 0.121948 -1.95821 0
M  V30 69886 O 6519.31 1.02262 -1.90713 0
M  V30 69887 C 6519.9 -2.26139 -2.52283 0
M  V30 69888 C 6518.46 -2.19866 -3.05509 0
M  V30 69889 C 6517.61 -2.12271 -1.78428 0
M  V30 69890 H 6520.56 -1.46173 -0.617994 0
M  V30 69891 H 6520.58 -1.88338 -3.30619 0
M  V30 69892 H 6520.09 -3.25903 -2.10734 0
M  V30 69893 H 6518.19 -1.23486 -3.51542 0
M  V30 69894 H 6518.31 -3.11495 -3.64016 0
M  V30 69895 H 6516.67 -1.58126 -1.9967 0
M  V30 69896 H 6517.45 -3.13883 -1.3904 0
M  V30 69897 N 6519.9 1.03555 -1.18803 0
M  V30 69898 C 6520.83 2.11249 -0.863074 0
M  V30 69899 C 6521.81 1.61633 0.177107 0
M  V30 69900 O 6522.99 1.8842 0.0549187 0
M  V30 69901 C 6520.12 3.37452 -0.290455 0
M  V30 69902 C 6519.17 4.05927 -1.30863 0
M  V30 69903 S 6520 4.52317 -2.86652 0
M  V30 69904 C 6521.16 5.81746 -2.30915 0
M  V30 69905 H 6521.39 2.38488 -1.77513 0
M  V30 69906 H 6518.92 1.16398 -1.01444 0
M  V30 69907 H 6520.88 4.10486 0.033409 0
M  V30 69908 H 6519.54 3.0832 0.599801 0
M  V30 69909 H 6518.73 4.96661 -0.856957 0
M  V30 69910 H 6518.34 3.39034 -1.579 0
M  V30 69911 H 6520.63 6.55956 -1.69494 0
M  V30 69912 H 6521.57 6.31684 -3.1997 0
M  V30 69913 H 6521.98 5.37097 -1.73743 0
M  V30 69914 N 6521.38 0.990877 1.22554 0
M  V30 69915 C 6522.79 0.701026 1.73039 0
M  V30 69916 C 6523.14 -0.78222 1.79933 0
M  V30 69917 O 6522.26 -1.61153 1.44426 0
M  V30 69918 C 6522.86 1.26585 3.14264 0
M  V30 69919 C 6521.42 1.02543 3.62163 0
M  V30 69920 C 6520.57 1.38727 2.40105 0
M  V30 69921 H 6523.52 1.16348 1.0793 0
M  V30 69922 H 6523.54 0.64343 3.7502 0
M  V30 69923 H 6523.05 2.34538 3.09214 0
M  V30 69924 H 6521.15 -0.0375663 3.72581 0
M  V30 69925 H 6521.26 1.68738 4.48402 0
M  V30 69926 H 6519.63 0.805836 2.41616 0
M  V30 69927 H 6520.41 2.47679 2.37718 0
M  V30 69928 N 6522.86 -1.37853 0.763824 0
M  V30 69929 C 6523.77 -2.3415 0.145298 0
M  V30 69930 C 6524.78 -1.59785 -0.688831 0
M  V30 69931 O 6525.96 -1.91921 -0.610601 0
M  V30 69932 C 6523.02 -3.38936 -0.729599 0
M  V30 69933 C 6522.08 -4.29132 0.120076 0
M  V30 69934 C 6521.32 -5.28914 -0.713157 0
M  V30 69935 O 6521.54 -5.36008 -1.95067 0
M  V30 69936 O 6520.47 -6.01767 -0.126546 0
M  V30 69937 H 6524.3 -2.88759 0.940837 0
M  V30 69938 H 6521.88 -1.39877 0.524863 0
M  V30 69939 H 6523.77 -4.03071 -1.22931 0
M  V30 69940 H 6522.44 -2.86667 -1.50346 0
M  V30 69941 H 6521.35 -3.68124 0.665973 0
M  V30 69942 H 6522.68 -4.84685 0.856834 0
M  V30 69943 N 6524.33 -0.513718 -1.48992 0
M  V30 69944 C 6525.58 0.0263019 -2.02783 0
M  V30 69945 C 6525.91 1.35464 -1.39152 0
M  V30 69946 O 6525.19 1.87095 -0.531577 0
M  V30 69947 C 6525.47 0.165479 -3.5972 0
M  V30 69948 C 6525.32 -1.18688 -4.33859 0
M  V30 69949 C 6526.64 0.900077 -4.30798 0
M  V30 69950 H 6523.76 0.00808453 -0.736956 0
M  V30 69951 H 6526.4 -0.667596 -1.77885 0
M  V30 69952 H 6524.55 0.756479 -3.81064 0
M  V30 69953 H 6526.23 -1.81774 -4.23976 0
M  V30 69954 H 6524.47 -1.77294 -3.95916 0
M  V30 69955 H 6525.14 -1.04267 -5.42063 0
M  V30 69956 H 6527.62 0.398717 -4.14185 0
M  V30 69957 H 6526.49 0.966324 -5.40327 0
M  V30 69958 H 6526.75 1.94671 -3.96933 0
M  V30 69959 N 6525.81 1.55635 -0.248108 0
M  V30 69960 C 6526.74 2.18765 0.683709 0
M  V30 69961 C 6527.76 1.16431 1.13787 0
M  V30 69962 O 6528.95 1.4329 1.06444 0
M  V30 69963 C 6526.05 2.77796 1.94121 0
M  V30 69964 C 6525.22 4.0556 1.63829 0
M  V30 69965 C 6524.28 4.48897 2.7455 0
M  V30 69966 O 6523.3 5.15248 2.41885 0
M  V30 69967 N 6524.51 4.16782 4.0407 0
M  V30 69968 H 6527.27 2.99356 0.143542 0
M  V30 69969 H 6524.83 1.61757 -0.0681181 0
M  V30 69970 H 6526.82 3.03745 2.67435 0
M  V30 69971 H 6525.39 2.01354 2.39113 0
M  V30 69972 H 6524.61 3.87187 0.740275 0
M  V30 69973 H 6525.9 4.88856 1.41056 0
M  V30 69974 H 6525.3 3.63517 4.33442 0
M  V30 69975 H 6523.86 4.47564 4.73846 0
M  V30 69976 N 6527.29 -0.0249897 1.5758 0
M  V30 69977 C 6528.2 -1.0412 2.10229 0
M  V30 69978 C 6529.22 -1.39363 1.04182 0
M  V30 69979 O 6530.39 -1.486 1.35941 0
M  V30 69980 C 6527.46 -2.32198 2.57458 0
M  V30 69981 C 6526.52 -2.03499 3.78003 0
M  V30 69982 C 6525.75 -3.25471 4.22971 0
M  V30 69983 O 6525.97 -4.36288 3.67435 0
M  V30 69984 O 6524.91 -3.10932 5.15369 0
M  V30 69985 H 6528.73 -0.623754 2.97225 0
M  V30 69986 H 6526.32 -0.242234 1.47423 0
M  V30 69987 H 6528.2 -3.07488 2.88148 0
M  V30 69988 H 6526.88 -2.7323 1.73571 0
M  V30 69989 H 6525.78 -1.25765 3.52327 0
M  V30 69990 H 6527.12 -1.6732 4.62887 0
M  V30 69991 N 6528.77 -1.5477 -0.297333 0
M  V30 69992 C 6529.71 -1.85975 -1.36682 0
M  V30 69993 C 6530.68 -0.708981 -1.50209 0
M  V30 69994 O 6531.87 -0.957958 -1.65009 0
M  V30 69995 C 6529.01 -2.11585 -2.72627 0
M  V30 69996 C 6528.12 -3.392 -2.67521 0
M  V30 69997 C 6527.26 -3.54635 -3.95484 0
M  V30 69998 C 6526.3 -4.76029 -3.84789 0
M  V30 69999 N 6525.43 -4.8825 -5.04536 0
M  V30 70000 H 6530.27 -2.77204 -1.09371 0
M  V30 70001 H 6527.81 -1.37262 -0.528919 0
M  V30 70002 H 6529.77 -2.2443 -3.51692 0
M  V30 70003 H 6528.4 -1.23619 -2.98192 0
M  V30 70004 H 6527.45 -3.34957 -1.803 0
M  V30 70005 H 6528.76 -4.28388 -2.5551 0
M  V30 70006 H 6527.92 -3.67164 -4.82986 0
M  V30 70007 H 6526.66 -2.63587 -4.10333 0
M  V30 70008 H 6525.66 -4.63529 -2.95671 0
M  V30 70009 H 6526.89 -5.68488 -3.71482 0
M  V30 70010 H 6524.83 -4.00126 -5.19841 0
M  V30 70011 H 6524.75 -5.71444 -4.94962 0
M  V30 70012 H 6526.02 -5.0514 -5.93678 0
M  V30 70013 N 6530.25 0.560703 -1.47288 0
M  V30 70014 C 6531.49 1.31803 -1.53734 0
M  V30 70015 C 6531.82 1.93488 -0.198147 0
M  V30 70016 O 6531.08 1.78214 0.808602 0
M  V30 70017 C 6531.37 2.45116 -2.60102 0
M  V30 70018 C 6531.04 2.01284 -4.03479 0
M  V30 70019 C 6529.7 1.89046 -4.4251 0
M  V30 70020 C 6532.05 1.67779 -4.93457 0
M  V30 70021 C 6529.38 1.41593 -5.69358 0
M  V30 70022 C 6531.73 1.21797 -6.20764 0
M  V30 70023 C 6530.4 1.08153 -6.5868 0
M  V30 70024 H 6529.67 0.482303 -0.562552 0
M  V30 70025 H 6532.32 0.629131 -1.80871 0
M  V30 70026 H 6530.62 3.19547 -2.26709 0
M  V30 70027 H 6532.32 3.03304 -2.62312 0
M  V30 70028 H 6528.91 2.11751 -3.72639 0
M  V30 70029 H 6533.09 1.76108 -4.64004 0
M  V30 70030 H 6528.35 1.29691 -5.97487 0
M  V30 70031 H 6532.52 0.949323 -6.89899 0
M  V30 70032 H 6530.15 0.711602 -7.56862 0
M  V30 70033 N 6531.72 1.35362 0.807151 0
M  V30 70034 C 6532.66 1.2409 1.92703 0
M  V30 70035 C 6533.67 0.164324 1.61969 0
M  V30 70036 O 6534.86 0.417548 1.73548 0
M  V30 70037 C 6531.96 0.887965 3.2706 0
M  V30 70038 C 6531.13 2.06279 3.85704 0
M  V30 70039 C 6530.19 1.68573 4.98467 0
M  V30 70040 O 6529.22 2.40439 5.15924 0
M  V30 70041 N 6530.42 0.60903 5.77296 0
M  V30 70042 H 6533.18 2.20572 2.02899 0
M  V30 70043 H 6530.74 1.28524 0.984544 0
M  V30 70044 H 6532.74 0.617211 3.99966 0
M  V30 70045 H 6531.31 0.0128423 3.12597 0
M  V30 70046 H 6530.53 2.49738 3.04999 0
M  V30 70047 H 6531.81 2.84811 4.21616 0
M  V30 70048 H 6531.21 0.0119263 5.65699 0
M  V30 70049 H 6529.77 0.398056 6.50583 0
M  V30 70050 N 6533.2 -1.02924 1.1935 0
M  V30 70051 C 6534.11 -2.14671 0.946237 0
M  V30 70052 C 6535.13 -1.73748 -0.0936284 0
M  V30 70053 O 6536.3 -2.01195 0.0909305 0
M  V30 70054 C 6533.37 -3.43251 0.487794 0
M  V30 70055 C 6532.43 -3.9849 1.597 0
M  V30 70056 C 6531.66 -5.20934 1.16034 0
M  V30 70057 O 6531.89 -5.70395 0.0237546 0
M  V30 70058 O 6530.82 -5.68999 1.96274 0
M  V30 70059 H 6534.65 -2.38392 1.88156 0
M  V30 70060 H 6532.23 -1.13088 0.97629 0
M  V30 70061 H 6534.11 -4.20712 0.24076 0
M  V30 70062 H 6532.79 -3.20975 -0.419098 0
M  V30 70063 H 6531.7 -3.22366 1.89818 0
M  V30 70064 H 6533.03 -4.2513 2.48044 0
M  V30 70065 N 6534.68 -0.997362 -1.22026 0
M  V30 70066 C 6535.61 -0.509619 -2.23463 0
M  V30 70067 C 6536.63 0.397691 -1.57868 0
M  V30 70068 O 6537.81 0.19911 -1.77386 0
M  V30 70069 C 6534.91 0.280218 -3.3774 0
M  V30 70070 C 6534.09 -0.624309 -4.32922 0
M  V30 70071 C 6533.15 0.114593 -5.26075 0
M  V30 70072 O 6532.17 -0.501502 -5.66986 0
M  V30 70073 N 6533.37 1.39553 -5.63476 0
M  V30 70074 H 6536.14 -1.38188 -2.6594 0
M  V30 70075 H 6533.7 -0.872602 -1.36372 0
M  V30 70076 H 6535.69 0.783296 -3.97047 0
M  V30 70077 H 6534.26 1.05361 -2.94309 0
M  V30 70078 H 6533.48 -1.30799 -3.71867 0
M  V30 70079 H 6534.77 -1.24015 -4.93455 0
M  V30 70080 H 6534.17 1.91733 -5.32217 0
M  V30 70081 H 6532.73 1.84371 -6.2518 0
M  V30 70082 N 6536.16 1.37446 -0.771123 0
M  V30 70083 C 6537.11 2.30278 -0.155159 0
M  V30 70084 C 6538.08 1.51068 0.690494 0
M  V30 70085 O 6539.26 1.79639 0.642985 0
M  V30 70086 C 6536.4 3.37538 0.718459 0
M  V30 70087 C 6535.51 4.31761 -0.143731 0
M  V30 70088 C 6534.65 5.26097 0.734534 0
M  V30 70089 C 6533.69 6.11961 -0.130228 0
M  V30 70090 N 6532.82 6.98542 0.70598 0
M  V30 70091 H 6537.66 2.82374 -0.952323 0
M  V30 70092 H 6535.2 1.39006 -0.481225 0
M  V30 70093 H 6537.16 3.98353 1.23977 0
M  V30 70094 H 6535.79 2.86809 1.48123 0
M  V30 70095 H 6534.84 3.72257 -0.782849 0
M  V30 70096 H 6536.15 4.92166 -0.810813 0
M  V30 70097 H 6535.31 5.92114 1.32236 0
M  V30 70098 H 6534.05 4.66101 1.4353 0
M  V30 70099 H 6533.05 5.44924 -0.730591 0
M  V30 70100 H 6534.28 6.74029 -0.828317 0
M  V30 70101 H 6532.22 6.41075 1.39137 0
M  V30 70102 H 6532.14 7.55939 0.0961817 0
M  V30 70103 H 6533.41 7.68949 1.27822 0
M  V30 70104 N 6537.64 0.521612 1.48718 0
M  V30 70105 C 6538.6 -0.234898 2.27993 0
M  V30 70106 C 6539.6 -0.875385 1.34884 0
M  V30 70107 O 6540.79 -0.736729 1.57854 0
M  V30 70108 C 6537.92 -1.33903 3.13501 0
M  V30 70109 H 6539.11 0.461011 2.96335 0
M  V30 70110 H 6536.67 0.27726 1.53821 0
M  V30 70111 H 6537.4 -2.06846 2.49771 0
M  V30 70112 H 6537.19 -0.884989 3.81982 0
M  V30 70113 H 6538.68 -1.87137 3.73322 0
M  V30 70114 N 6539.11 -1.55501 0.256358 0
M  V30 70115 C 6540.06 -2.21773 -0.639182 0
M  V30 70116 C 6541.03 -1.18478 -1.16414 0
M  V30 70117 O 6542.22 -1.46958 -1.21688 0
M  V30 70118 C 6539.36 -2.92825 -1.82613 0
M  V30 70119 C 6538.47 -4.10796 -1.33681 0
M  V30 70120 C 6537.6 -4.6954 -2.48406 0
M  V30 70121 C 6536.64 -5.79742 -1.96383 0
M  V30 70122 N 6535.78 -6.32628 -3.0451 0
M  V30 70123 H 6540.62 -2.97924 -0.0673724 0
M  V30 70124 H 6538.16 -1.47084 -0.0214907 0
M  V30 70125 H 6540.12 -3.32225 -2.52354 0
M  V30 70126 H 6538.75 -2.19131 -2.37027 0
M  V30 70127 H 6537.8 -3.76646 -0.53312 0
M  V30 70128 H 6539.11 -4.90324 -0.915614 0
M  V30 70129 H 6538.26 -5.11562 -3.26173 0
M  V30 70130 H 6537 -3.89248 -2.93832 0
M  V30 70131 H 6536.01 -5.37187 -1.17089 0
M  V30 70132 H 6537.23 -6.6189 -1.51915 0
M  V30 70133 H 6535.18 -5.55238 -3.49353 0
M  V30 70134 H 6535.1 -7.07375 -2.66751 0
M  V30 70135 H 6536.36 -6.79309 -3.82309 0
M  V30 70136 N 6540.59 0.0166325 -1.57591 0
M  V30 70137 C 6541.5 1.03004 -2.10778 0
M  V30 70138 C 6542.52 1.38808 -1.0492 0
M  V30 70139 O 6543.69 1.47877 -1.36727 0
M  V30 70140 C 6540.76 2.3083 -2.58686 0
M  V30 70141 C 6539.82 2.01492 -3.79077 0
M  V30 70142 C 6539.05 3.23223 -4.24691 0
M  V30 70143 O 6539.28 4.34334 -3.69744 0
M  V30 70144 O 6538.21 3.08195 -5.1701 0
M  V30 70145 H 6542.04 0.607983 -2.97552 0
M  V30 70146 H 6539.62 0.234413 -1.4755 0
M  V30 70147 H 6541.5 3.05956 -2.89774 0
M  V30 70148 H 6540.18 2.72306 -1.75017 0
M  V30 70149 H 6539.09 1.23894 -3.52989 0
M  V30 70150 H 6540.42 1.64863 -4.63768 0
M  V30 70151 N 6542.07 1.54925 0.289121 0
M  V30 70152 C 6542.98 1.89771 1.37928 0
M  V30 70153 C 6544 0.793135 1.54872 0
M  V30 70154 O 6545.17 1.09071 1.69309 0
M  V30 70155 C 6542.24 2.14833 2.72117 0
M  V30 70156 C 6541.3 3.38485 2.64057 0
M  V30 70157 C 6540.53 3.62343 3.91846 0
M  V30 70158 O 6540.75 2.88995 4.9177 0
M  V30 70159 O 6539.69 4.5587 3.93022 0
M  V30 70160 H 6543.51 2.8254 1.11378 0
M  V30 70161 H 6541.1 1.41266 0.486236 0
M  V30 70162 H 6542.98 2.3245 3.51489 0
M  V30 70163 H 6541.66 1.25249 2.98487 0
M  V30 70164 H 6540.56 3.2622 1.83116 0
M  V30 70165 H 6541.9 4.28237 2.42639 0
M  V30 70166 N 6543.55 -0.552884 1.47584 0
M  V30 70167 C 6544.46 -1.6869 1.63036 0
M  V30 70168 C 6545.47 -1.66262 0.513133 0
M  V30 70169 O 6546.65 -1.8563 0.781236 0
M  V30 70170 C 6543.72 -3.05191 1.64497 0
M  V30 70171 C 6542.78 -3.18654 2.87678 0
M  V30 70172 C 6542.01 -4.48643 2.89059 0
M  V30 70173 O 6542.23 -5.34365 1.99525 0
M  V30 70174 O 6541.17 -4.65988 3.80971 0
M  V30 70175 H 6544.99 -1.58595 2.59 0
M  V30 70176 H 6542.58 -0.723385 1.30719 0
M  V30 70177 H 6544.46 -3.86415 1.68111 0
M  V30 70178 H 6543.13 -3.15659 0.717004 0
M  V30 70179 H 6542.04 -2.36811 2.89606 0
M  V30 70180 H 6543.37 -3.13091 3.79782 0
M  V30 70181 N 6545.03 -1.35788 -0.799961 0
M  V30 70182 C 6545.97 -1.29253 -1.91213 0
M  V30 70183 C 6546.94 -0.163198 -1.65296 0
M  V30 70184 O 6548.13 -0.34799 -1.876 0
M  V30 70185 C 6545.27 -1.07709 -3.27861 0
M  V30 70186 C 6544.38 -2.29623 -3.6592 0
M  V30 70187 C 6543.52 -2.01175 -4.91632 0
M  V30 70188 C 6542.56 -3.19108 -5.22338 0
M  V30 70189 N 6541.69 -2.90393 -6.39231 0
M  V30 70190 H 6546.53 -2.24355 -1.96135 0
M  V30 70191 H 6544.07 -1.11518 -0.959277 0
M  V30 70192 H 6546.03 -0.932473 -4.06646 0
M  V30 70193 H 6544.66 -0.162659 -3.2239 0
M  V30 70194 H 6543.71 -2.54925 -2.82342 0
M  V30 70195 H 6545.02 -3.17663 -3.84567 0
M  V30 70196 H 6544.18 -1.83583 -5.78258 0
M  V30 70197 H 6542.91 -1.1043 -4.75033 0
M  V30 70198 H 6541.92 -3.3727 -4.34199 0
M  V30 70199 H 6543.14 -4.10664 -5.40862 0
M  V30 70200 H 6541.09 -2.02249 -6.24044 0
M  V30 70201 H 6541.01 -3.71969 -6.5816 0
M  V30 70202 H 6542.28 -2.76356 -7.28867 0
M  V30 70203 N 6546.5 1.0229 -1.19894 0
M  V30 70204 C 6547.41 2.14166 -0.957608 0
M  V30 70205 C 6548.43 1.73795 0.0844128 0
M  V30 70206 O 6549.61 2.01144 -0.101599 0
M  V30 70207 C 6546.67 3.42988 -0.50599 0
M  V30 70208 C 6545.73 3.97637 -1.61811 0
M  V30 70209 C 6544.97 5.20311 -1.18795 0
M  V30 70210 O 6545.19 5.70374 -0.0540037 0
M  V30 70211 O 6544.12 5.6795 -1.99288 0
M  V30 70212 H 6547.95 2.37391 -1.89418 0
M  V30 70213 H 6545.53 1.12569 -0.982273 0
M  V30 70214 H 6547.42 4.20578 -0.263068 0
M  V30 70215 H 6546.09 3.21193 0.40207 0
M  V30 70216 H 6545 3.21355 -1.91525 0
M  V30 70217 H 6546.33 4.23808 -2.50295 0
M  V30 70218 N 6547.98 1.00382 1.21496 0
M  V30 70219 C 6548.89 0.572505 2.27507 0
M  V30 70220 C 6549.91 -0.383923 1.69712 0
M  V30 70221 O 6551.09 -0.248049 1.99867 0
M  V30 70222 C 6548.15 -0.0952468 3.46569 0
M  V30 70223 C 6547.21 0.905514 4.19641 0
M  V30 70224 C 6546.44 0.269533 5.33019 0
M  V30 70225 O 6546.67 -0.933946 5.62702 0
M  V30 70226 O 6545.6 0.979871 5.9387 0
M  V30 70227 H 6549.43 1.45475 2.66591 0
M  V30 70228 H 6547.01 0.77263 1.2787 0
M  V30 70229 H 6548.89 -0.468787 4.18784 0
M  V30 70230 H 6547.57 -0.951884 3.09388 0
M  V30 70231 H 6546.48 1.33019 3.49652 0
M  V30 70232 H 6547.81 1.7317 4.60731 0
M  V30 70233 N 6549.46 -1.37035 0.778402 0
M  V30 70234 C 6550.41 -2.30192 0.167369 0
M  V30 70235 C 6551.38 -1.51432 -0.682472 0
M  V30 70236 O 6552.56 -1.79978 -0.63345 0
M  V30 70237 C 6549.7 -3.37915 -0.700549 0
M  V30 70238 C 6548.82 -4.31679 0.166626 0
M  V30 70239 C 6547.95 -5.26479 -0.706624 0
M  V30 70240 C 6546.99 -6.11884 0.16268 0
M  V30 70241 N 6546.13 -6.98906 -0.668924 0
M  V30 70242 H 6550.97 -2.81865 0.967285 0
M  V30 70243 H 6548.5 -1.38749 0.48859 0
M  V30 70244 H 6550.46 -3.99005 -1.21863 0
M  V30 70245 H 6549.09 -2.8759 -1.466 0
M  V30 70246 H 6548.14 -3.71837 0.802579 0
M  V30 70247 H 6549.46 -4.91729 0.836902 0
M  V30 70248 H 6548.61 -5.92807 -1.29094 0
M  V30 70249 H 6547.35 -4.66856 -1.41056 0
M  V30 70250 H 6546.35 -5.44529 0.759479 0
M  V30 70251 H 6547.58 -6.73581 0.864051 0
M  V30 70252 H 6545.53 -6.41804 -1.35736 0
M  V30 70253 H 6545.44 -7.55979 -0.056091 0
M  V30 70254 H 6546.71 -7.69616 -1.23742 0
M  V30 70255 N 6550.94 -0.529492 -1.48439 0
M  V30 70256 C 6551.85 0.237391 -2.33396 0
M  V30 70257 C 6552.87 0.939492 -1.46457 0
M  V30 70258 O 6554.04 0.91456 -1.79437 0
M  V30 70259 C 6551.11 1.27104 -3.22561 0
M  V30 70260 C 6550.17 0.579341 -4.25373 0
M  V30 70261 C 6549.4 1.56374 -5.10277 0
M  V30 70262 O 6549.62 2.79632 -4.97154 0
M  V30 70263 O 6548.56 1.10341 -5.917 0
M  V30 70264 H 6552.38 -0.458758 -3.00215 0
M  V30 70265 H 6549.97 -0.290421 -1.4655 0
M  V30 70266 H 6551.85 1.86839 -3.77716 0
M  V30 70267 H 6550.53 1.9496 -2.58403 0
M  V30 70268 H 6549.43 -0.0584949 -3.74054 0
M  V30 70269 H 6550.77 -0.0572751 -4.92167 0
M  V30 70270 N 6552.42 1.55363 -0.264601 0
M  V30 70271 C 6553.33 2.25765 0.637742 0
M  V30 70272 C 6554.34 1.27987 1.17878 0
M  V30 70273 O 6555.52 1.60902 1.21131 0
M  V30 70274 C 6552.58 2.95696 1.81011 0
M  V30 70275 C 6551.65 4.08927 1.30678 0
M  V30 70276 C 6550.88 4.75514 2.42327 0
M  V30 70277 O 6551.1 4.41257 3.61454 0
M  V30 70278 O 6550.04 5.63674 2.1108 0
M  V30 70279 H 6553.86 3.03624 0.0677403 0
M  V30 70280 H 6551.45 1.49365 -0.032407 0
M  V30 70281 H 6553.33 3.3968 2.4939 0
M  V30 70282 H 6552 2.20762 2.3674 0
M  V30 70283 H 6550.91 3.69422 0.589755 0
M  V30 70284 H 6552.24 4.85731 0.795371 0
M  V30 70285 N 6553.9 -0.00827481 1.57598 0
M  V30 70286 C 6555.12 -0.706054 1.9448 0
M  V30 70287 C 6555.54 -1.67765 0.866049 0
M  V30 70288 O 6554.9 -1.81834 -0.155764 0
M  V30 70289 C 6554.95 -1.44512 3.31359 0
M  V30 70290 O 6554.67 -0.512498 4.35092 0
M  V30 70291 C 6556.17 -2.23816 3.8265 0
M  V30 70292 H 6553.39 -0.197172 0.641377 0
M  V30 70293 H 6555.93 0.040385 2.0446 0
M  V30 70294 H 6554.09 -2.14326 3.22712 0
M  V30 70295 H 6554.5 -1.03303 5.14226 0
M  V30 70296 H 6555.98 -2.71038 4.80876 0
M  V30 70297 H 6556.45 -3.06137 3.14924 0
M  V30 70298 H 6557.06 -1.59035 3.94446 0
M  V30 70299 N 6555.37 -1.55076 -0.280901 0
M  V30 70300 C 6556.32 -1.87414 -1.34702 0
M  V30 70301 C 6557.29 -0.724873 -1.49448 0
M  V30 70302 O 6558.48 -0.975405 -1.63983 0
M  V30 70303 C 6555.62 -2.14465 -2.70368 0
M  V30 70304 C 6554.73 -3.42018 -2.63908 0
M  V30 70305 C 6553.86 -3.5881 -3.917 0
M  V30 70306 C 6552.9 -4.80083 -3.79719 0
M  V30 70307 N 6552.04 -4.93574 -4.99329 0
M  V30 70308 H 6556.88 -2.78348 -1.06425 0
M  V30 70309 H 6554.42 -1.37815 -0.514331 0
M  V30 70310 H 6556.37 -2.28148 -3.49291 0
M  V30 70311 H 6555 -1.26774 -2.96864 0
M  V30 70312 H 6554.06 -3.3685 -1.76738 0
M  V30 70313 H 6555.37 -4.31074 -2.50952 0
M  V30 70314 H 6554.52 -3.72267 -4.79064 0
M  V30 70315 H 6553.26 -2.67925 -4.07514 0
M  V30 70316 H 6552.27 -4.66638 -2.90738 0
M  V30 70317 H 6553.49 -5.72396 -3.65431 0
M  V30 70318 H 6551.44 -4.05617 -5.15568 0
M  V30 70319 H 6551.35 -5.76662 -4.88873 0
M  V30 70320 H 6552.62 -5.11408 -5.88287 0
M  V30 70321 N 6556.85 0.54505 -1.47875 0
M  V30 70322 C 6558.08 1.33156 -1.5901 0
M  V30 70323 C 6558.5 1.86497 -0.24507 0
M  V30 70324 O 6557.86 1.63617 0.780979 0
M  V30 70325 C 6557.91 2.46889 -2.62828 0
M  V30 70326 O 6557.01 3.49483 -2.18942 0
M  V30 70327 H 6556.35 0.395012 -0.533724 0
M  V30 70328 H 6558.88 0.657449 -1.93749 0
M  V30 70329 H 6558.89 2.93288 -2.8363 0
M  V30 70330 H 6557.57 2.07424 -3.60483 0
M  V30 70331 H 6556.14 3.09305 -2.0829 0
M  V30 70332 N 6558.33 1.3621 0.792749 0
M  V30 70333 C 6559.24 1.3241 1.93662 0
M  V30 70334 C 6560.26 0.226797 1.72516 0
M  V30 70335 O 6561.43 0.458587 1.9611 0
M  V30 70336 C 6558.5 1.10939 3.28471 0
M  V30 70337 C 6557.56 2.30113 3.62418 0
M  V30 70338 C 6556.79 2.09657 4.90795 0
M  V30 70339 O 6557.01 1.07005 5.60273 0
M  V30 70340 O 6555.95 2.97355 5.2332 0
M  V30 70341 H 6559.77 2.28707 1.99817 0
M  V30 70342 H 6557.36 1.16723 0.932525 0
M  V30 70343 H 6559.24 1.0087 4.09149 0
M  V30 70344 H 6557.92 0.177023 3.23216 0
M  V30 70345 H 6556.82 2.45751 2.82059 0
M  V30 70346 H 6558.16 3.21845 3.72393 0
M  V30 70347 N 6559.81 -1.01652 1.20435 0
M  V30 70348 C 6561.22 -1.567 1.01498 0
M  V30 70349 C 6561.57 -1.91461 -0.428605 0
M  V30 70350 O 6560.69 -1.72243 -1.31002 0
M  V30 70351 C 6561.29 -2.84728 1.83617 0
M  V30 70352 C 6559.85 -3.36304 1.69046 0
M  V30 70353 C 6559 -2.09611 1.81545 0
M  V30 70354 H 6561.95 -0.840336 1.34626 0
M  V30 70355 H 6561.97 -3.56139 1.33959 0
M  V30 70356 H 6561.48 -2.59397 2.88677 0
M  V30 70357 H 6559.58 -3.66595 0.666225 0
M  V30 70358 H 6559.69 -4.08502 2.50326 0
M  V30 70359 H 6558.06 -2.22067 1.24732 0
M  V30 70360 H 6558.84 -1.86706 2.8809 0
M  V30 70361 N 6561.29 -1.01025 -1.20962 0
M  V30 70362 C 6562.2 -0.584563 -2.272 0
M  V30 70363 C 6563.21 0.374917 -1.69913 0
M  V30 70364 O 6564.39 0.237446 -1.99995 0
M  V30 70365 C 6561.45 0.076866 -3.46615 0
M  V30 70366 C 6560.51 -0.927756 -4.19155 0
M  V30 70367 C 6559.75 -0.297796 -5.32869 0
M  V30 70368 O 6559.97 0.904091 -5.63189 0
M  V30 70369 O 6558.9 -1.01135 -5.93342 0
M  V30 70370 H 6562.73 -1.46886 -2.65816 0
M  V30 70371 H 6560.31 -0.779401 -1.27459 0
M  V30 70372 H 6562.2 0.446571 -4.19027 0
M  V30 70373 H 6560.87 0.935463 -3.09888 0
M  V30 70374 H 6559.78 -1.34871 -3.48942 0
M  V30 70375 H 6561.11 -1.75611 -4.59806 0
M  V30 70376 N 6562.76 1.36621 -0.785658 0
M  V30 70377 C 6563.71 2.301 -0.179574 0
M  V30 70378 C 6564.68 1.51791 0.674432 0
M  V30 70379 O 6565.87 1.80311 0.623896 0
M  V30 70380 C 6563.01 3.38281 0.682619 0
M  V30 70381 C 6562.12 4.31584 -0.189517 0
M  V30 70382 C 6561.25 5.26846 0.678693 0
M  V30 70383 C 6560.29 6.11789 -0.195127 0
M  V30 70384 N 6559.43 6.99251 0.63185 0
M  V30 70385 H 6564.27 2.81348 -0.982219 0
M  V30 70386 H 6561.81 1.38488 -0.495942 0
M  V30 70387 H 6563.77 3.99646 1.19745 0
M  V30 70388 H 6562.4 2.88364 1.45073 0
M  V30 70389 H 6561.45 3.71406 -0.822287 0
M  V30 70390 H 6562.76 4.91278 -0.862968 0
M  V30 70391 H 6561.91 5.93483 1.25948 0
M  V30 70392 H 6560.65 4.67597 1.38578 0
M  V30 70393 H 6559.66 5.44119 -0.788346 0
M  V30 70394 H 6560.88 6.73113 -0.89976 0
M  V30 70395 H 6558.83 6.42514 1.3233 0
M  V30 70396 H 6558.75 7.55998 0.0159988 0
M  V30 70397 H 6560.01 7.70261 1.19659 0
M  V30 70398 N 6564.24 0.537356 1.48156 0
M  V30 70399 C 6565.21 -0.210703 2.28229 0
M  V30 70400 C 6566.21 -0.86103 1.35805 0
M  V30 70401 O 6567.4 -0.719945 1.58627 0
M  V30 70402 C 6564.53 -1.3057 3.14903 0
M  V30 70403 H 6565.72 0.492415 2.9583 0
M  V30 70404 H 6563.27 0.293559 1.53518 0
M  V30 70405 H 6564.01 -2.04185 2.51951 0
M  V30 70406 H 6563.79 -0.844424 3.82899 0
M  V30 70407 H 6565.28 -1.83167 3.75286 0
M  V30 70408 N 6565.72 -1.5522 0.272837 0
M  V30 70409 C 6566.63 -2.261 -0.62576 0
M  V30 70410 C 6567.65 -1.2861 -1.17198 0
M  V30 70411 O 6568.82 -1.61542 -1.20276 0
M  V30 70412 C 6565.89 -2.96652 -1.7944 0
M  V30 70413 C 6564.95 -4.09615 -1.28508 0
M  V30 70414 C 6564.18 -4.76792 -2.39802 0
M  V30 70415 O 6564.4 -4.43167 -3.59108 0
M  V30 70416 O 6563.34 -5.64786 -2.08088 0
M  V30 70417 H 6567.16 -3.03656 -0.0516374 0
M  V30 70418 H 6564.75 -1.49346 0.0403277 0
M  V30 70419 H 6566.63 -3.40998 -2.47585 0
M  V30 70420 H 6565.31 -2.22015 -2.35566 0
M  V30 70421 H 6564.21 -3.6973 -0.570156 0
M  V30 70422 H 6565.55 -4.86146 -0.769601 0
M  V30 70423 N 6567.2 -8.31064e-05 -1.576 0
M  V30 70424 C 6568.45 0.683395 -1.90195 0
M  V30 70425 C 6568.77 1.74308 -0.874161 0
M  V30 70426 O 6568.04 1.957 0.0884206 0
M  V30 70427 H 6566.62 0.255406 -0.701981 0
M  V30 70428 H 6569.28 -0.0410287 -1.94857 0
M  V30 70429 H 6568.38 1.15459 -2.89958 0
M  V30 70430 N 6568.68 1.55223 0.272673 0
M  V30 70431 C 6569.59 1.91223 1.35908 0
M  V30 70432 C 6570.6 0.809517 1.54022 0
M  V30 70433 O 6571.78 1.10861 1.68142 0
M  V30 70434 C 6568.84 2.17707 2.69823 0
M  V30 70435 C 6567.9 3.41267 2.60452 0
M  V30 70436 C 6567.14 3.66478 3.87981 0
M  V30 70437 O 6567.36 2.94195 4.88677 0
M  V30 70438 O 6566.29 4.60013 3.88165 0
M  V30 70439 H 6570.12 2.83705 1.08375 0
M  V30 70440 H 6567.71 1.41774 0.471226 0
M  V30 70441 H 6569.59 2.36165 3.49004 0
M  V30 70442 H 6568.26 1.28408 2.97142 0
M  V30 70443 H 6567.17 3.28144 1.79646 0
M  V30 70444 H 6568.5 4.30787 2.38083 0
M  V30 70445 N 6570.15 -0.5372 1.48162 0
M  V30 70446 C 6571.43 -1.29831 1.46298 0
M  V30 70447 C 6571.81 -2.10409 0.170724 0
M  V30 70448 O 6571.16 -2.12197 -0.847635 0
M  V30 70449 C 6571.37 -2.18589 2.72066 0
M  V30 70450 C 6572.72 -2.78963 3.20101 0
M  V30 70451 O 6573.74 -2.2888 2.72933 0
M  V30 70452 O 6572.6 -3.70043 4.02157 0
M  V30 70453 H 6569.69 -0.585617 0.583937 0
M  V30 70454 H 6572.24 -0.55445 1.60387 0
M  V30 70455 H 6571.01 -1.58783 3.57636 0
M  V30 70456 H 6570.64 -3.00235 2.60662 0
M  V30 70457 N 6571.63 -1.36629 -0.785514 0
M  V30 70458 C 6572.88 -1.30816 -1.5405 0
M  V30 70459 C 6573.2 0.111055 -1.94684 0
M  V30 70460 O 6572.47 1.05216 -1.65247 0
M  V30 70461 H 6571.05 -0.481241 -0.571328 0
M  V30 70462 H 6573.71 -1.70968 -0.935731 0
M  V30 70463 H 6572.81 -1.93814 -2.44627 0
M  V30 70464 N 6573.11 1.01012 -1.20972 0
M  V30 70465 C 6574.02 2.13138 -0.980269 0
M  V30 70466 C 6575.04 1.73875 0.0659748 0
M  V30 70467 O 6576.21 2.01024 -0.122927 0
M  V30 70468 C 6573.28 3.42432 -0.54234 0
M  V30 70469 C 6572.34 3.95899 -1.6602 0
M  V30 70470 C 6571.57 5.19022 -1.24307 0
M  V30 70471 O 6571.79 5.70285 -0.114496 0
M  V30 70472 O 6570.73 5.65805 -2.05301 0
M  V30 70473 H 6574.55 2.35369 -1.91925 0
M  V30 70474 H 6572.14 1.11521 -0.994158 0
M  V30 70475 H 6574.02 4.20275 -0.307661 0
M  V30 70476 H 6572.7 3.21602 0.36798 0
M  V30 70477 H 6571.6 3.19305 -1.94923 0
M  V30 70478 H 6572.94 4.2113 -2.54776 0
M  V30 70479 N 6574.59 1.01665 1.20424 0
M  V30 70480 C 6575.54 0.58694 2.23212 0
M  V30 70481 C 6576.51 -0.393 1.61384 0
M  V30 70482 O 6577.69 -0.292426 1.88546 0
M  V30 70483 C 6574.83 -0.0685645 3.45032 0
M  V30 70484 C 6573.94 0.955946 4.2129 0
M  V30 70485 C 6573.08 0.271488 5.30506 0
M  V30 70486 C 6572.12 1.28275 5.98508 0
M  V30 70487 N 6571.25 0.624958 6.99313 0
M  V30 70488 H 6576.09 1.46809 2.59328 0
M  V30 70489 H 6573.63 0.734904 1.27427 0
M  V30 70490 H 6575.59 -0.465746 4.14592 0
M  V30 70491 H 6574.22 -0.913365 3.09609 0
M  V30 70492 H 6573.27 1.47129 3.50795 0
M  V30 70493 H 6574.58 1.72504 4.68021 0
M  V30 70494 H 6573.74 -0.18119 6.06429 0
M  V30 70495 H 6572.48 -0.529907 4.84813 0
M  V30 70496 H 6571.48 1.74582 5.21346 0
M  V30 70497 H 6572.71 2.08543 6.46287 0
M  V30 70498 H 6570.65 -0.156568 6.55813 0
M  V30 70499 H 6570.57 1.33212 7.44171 0
M  V30 70500 H 6571.84 0.195873 7.79254 0
M  V30 70501 N 6576.07 -1.36202 0.792892 0
M  V30 70502 C 6576.98 -2.33789 0.194932 0
M  V30 70503 C 6577.99 -1.6121 -0.654784 0
M  V30 70504 O 6579.17 -1.93173 -0.569754 0
M  V30 70505 C 6576.23 -3.40408 -0.657541 0
M  V30 70506 C 6575.29 -4.28781 0.211075 0
M  V30 70507 C 6574.53 -5.30307 -0.600807 0
M  V30 70508 O 6574.75 -5.40025 -1.83654 0
M  V30 70509 O 6573.68 -6.019 0.00112567 0
M  V30 70510 H 6577.51 -2.86699 1.00188 0
M  V30 70511 H 6575.1 -1.38732 0.554415 0
M  V30 70512 H 6576.98 -4.05587 -1.14354 0
M  V30 70513 H 6575.65 -2.89791 -1.44232 0
M  V30 70514 H 6574.56 -3.66629 0.743908 0
M  V30 70515 H 6575.89 -4.82758 0.95945 0
M  V30 70516 N 6577.55 -0.545206 -1.47869 0
M  V30 70517 C 6578.46 0.212623 -2.33634 0
M  V30 70518 C 6579.47 0.923905 -1.47445 0
M  V30 70519 O 6580.65 0.895477 -1.80397 0
M  V30 70520 C 6577.71 1.23676 -3.23891 0
M  V30 70521 C 6576.77 0.534192 -4.25963 0
M  V30 70522 C 6576.01 1.50953 -5.11907 0
M  V30 70523 O 6576.23 2.74343 -5.00092 0
M  V30 70524 O 6575.16 1.04059 -5.92837 0
M  V30 70525 H 6578.99 -0.490574 -2.99712 0
M  V30 70526 H 6576.57 -0.305948 -1.46234 0
M  V30 70527 H 6578.46 1.82823 -3.79676 0
M  V30 70528 H 6577.13 1.92209 -2.60456 0
M  V30 70529 H 6576.04 -0.0981651 -3.73971 0
M  V30 70530 H 6577.37 -0.109473 -4.92078 0
M  V30 70531 N 6579.02 1.55073 -0.281065 0
M  V30 70532 C 6579.97 2.22761 0.603819 0
M  V30 70533 C 6580.94 1.20315 1.14514 0
M  V30 70534 O 6582.13 1.48875 1.19335 0
M  V30 70535 C 6579.27 2.95693 1.77931 0
M  V30 70536 C 6578.38 4.12871 1.27128 0
M  V30 70537 C 6577.51 4.73432 2.40905 0
M  V30 70538 C 6576.55 5.82792 1.87135 0
M  V30 70539 N 6575.69 6.37392 2.94407 0
M  V30 70540 H 6580.53 2.97993 0.0199668 0
M  V30 70541 H 6578.07 1.471 -0.00191182 0
M  V30 70542 H 6580.02 3.36197 2.47037 0
M  V30 70543 H 6578.65 2.22874 2.3351 0
M  V30 70544 H 6577.71 3.77446 0.473132 0
M  V30 70545 H 6579.02 4.91719 0.837492 0
M  V30 70546 H 6578.17 5.16687 3.17993 0
M  V30 70547 H 6576.91 3.93874 2.87602 0
M  V30 70548 H 6575.92 5.38982 1.08528 0
M  V30 70549 H 6577.14 6.64223 1.41366 0
M  V30 70550 H 6575.09 5.60725 3.40475 0
M  V30 70551 H 6575 7.1153 2.55463 0
M  V30 70552 H 6576.27 6.85305 3.71453 0
M  V30 70553 N 6580.5 0.00844102 1.57598 0
M  V30 70554 C 6581.46 -0.965133 2.07889 0
M  V30 70555 C 6582.46 -1.26719 0.989891 0
M  V30 70556 O 6583.65 -1.21097 1.25224 0
M  V30 70557 C 6580.79 -2.28766 2.52743 0
M  V30 70558 H 6581.98 -0.529957 2.9518 0
M  V30 70559 H 6579.53 -0.239202 1.54459 0
M  V30 70560 H 6580.27 -2.76955 1.68719 0
M  V30 70561 H 6580.05 -2.0816 3.32283 0
M  V30 70562 H 6581.54 -2.9859 2.91948 0
M  V30 70563 N 6581.98 -1.55366 -0.264437 0
M  V30 70564 C 6582.93 -1.88832 -1.32707 0
M  V30 70565 C 6583.9 -0.740683 -1.48671 0
M  V30 70566 O 6585.08 -0.992743 -1.62939 0
M  V30 70567 C 6582.22 -2.17321 -2.68078 0
M  V30 70568 C 6581.33 -3.44798 -2.60265 0
M  V30 70569 C 6580.47 -3.62944 -3.87872 0
M  V30 70570 C 6579.51 -4.84084 -3.74606 0
M  V30 70571 N 6578.65 -4.98842 -4.94066 0
M  V30 70572 H 6583.49 -2.79461 -1.03467 0
M  V30 70573 H 6581.02 -1.38353 -0.499685 0
M  V30 70574 H 6582.98 -2.31839 -3.46852 0
M  V30 70575 H 6581.61 -1.29916 -2.95502 0
M  V30 70576 H 6580.66 -3.38706 -1.73155 0
M  V30 70577 H 6581.97 -4.33711 -2.46365 0
M  V30 70578 H 6581.13 -3.77327 -4.75089 0
M  V30 70579 H 6579.87 -2.72232 -4.04649 0
M  V30 70580 H 6578.87 -4.69696 -2.85772 0
M  V30 70581 H 6580.1 -5.76239 -3.5934 0
M  V30 70582 H 6578.04 -4.11063 -5.11237 0
M  V30 70583 H 6577.96 -5.81815 -4.82729 0
M  V30 70584 H 6579.23 -5.17619 -5.8283 0
M  V30 70585 N 6583.46 0.529335 -1.48445 0
M  V30 70586 C 6584.37 1.66075 -1.65699 0
M  V30 70587 C 6585.38 1.65424 -0.539519 0
M  V30 70588 O 6586.56 1.84364 -0.81067 0
M  V30 70589 C 6583.62 3.02536 -1.69331 0
M  V30 70590 C 6582.69 3.14036 -2.92711 0
M  V30 70591 C 6581.92 4.43988 -2.9616 0
M  V30 70592 O 6582.14 5.31123 -2.08001 0
M  V30 70593 O 6581.08 4.59868 -3.88337 0
M  V30 70594 H 6584.9 1.54455 -2.61491 0
M  V30 70595 H 6582.49 0.702497 -1.31853 0
M  V30 70596 H 6584.37 3.83692 -1.74237 0
M  V30 70597 H 6583.04 3.14479 -0.767132 0
M  V30 70598 H 6581.95 2.32173 -2.93337 0
M  V30 70599 H 6583.28 3.0701 -3.84715 0
M  V30 70600 N 6584.94 1.37043 0.778257 0
M  V30 70601 C 6586.21 1.22432 1.52545 0
M  V30 70602 C 6586.59 -0.184853 2.10289 0
M  V30 70603 O 6585.94 -1.19177 1.94959 0
M  V30 70604 C 6586.15 2.31518 2.61152 0
M  V30 70605 C 6587.5 2.68739 3.28732 0
M  V30 70606 O 6588.52 2.30645 2.71443 0
M  V30 70607 O 6587.38 3.34343 4.32293 0
M  V30 70608 H 6584.48 0.477362 0.675318 0
M  V30 70609 H 6587.02 1.48806 0.815781 0
M  V30 70610 H 6585.79 3.25912 2.16557 0
M  V30 70611 H 6585.42 2.06572 3.39726 0
M  V30 70612 N 6586.41 -1.00369 1.21506 0
M  V30 70613 C 6587.36 -2.09171 0.975498 0
M  V30 70614 C 6588.33 -1.65805 -0.0989741 0
M  V30 70615 O 6589.52 -1.90739 0.0484153 0
M  V30 70616 C 6586.66 -3.40726 0.547687 0
M  V30 70617 C 6585.77 -3.97497 1.69174 0
M  V30 70618 C 6584.9 -5.17166 1.21297 0
M  V30 70619 C 6583.94 -5.66049 2.32927 0
M  V30 70620 N 6583.08 -6.76966 1.86174 0
M  V30 70621 H 6587.92 -2.28999 1.90692 0
M  V30 70622 H 6585.46 -1.12283 0.950317 0
M  V30 70623 H 6587.41 -4.16253 0.280887 0
M  V30 70624 H 6586.04 -3.20932 -0.346735 0
M  V30 70625 H 6585.1 -3.18943 2.07314 0
M  V30 70626 H 6586.41 -4.29767 2.53183 0
M  V30 70627 H 6585.56 -5.99944 0.902907 0
M  V30 70628 H 6584.3 -4.86493 0.342948 0
M  V30 70629 H 6583.31 -4.81867 2.64735 0
M  V30 70630 H 6584.53 -5.98751 3.20427 0
M  V30 70631 H 6582.48 -6.48097 1.01518 0
M  V30 70632 H 6582.39 -7.08498 2.63755 0
M  V30 70633 H 6583.66 -7.63277 1.58206 0
M  V30 70634 N 6587.89 -1.02302 -1.19883 0
M  V30 70635 C 6589.14 -0.714658 -1.89042 0
M  V30 70636 C 6589.46 0.758586 -1.7964 0
M  V30 70637 O 6588.73 1.54612 -1.203 0
M  V30 70638 H 6587.31 -0.261354 -0.699788 0
M  V30 70639 H 6589.97 -1.296 -1.45568 0
M  V30 70640 H 6589.07 -1.00376 -2.95518 0
M  V30 70641 N 6589.37 1.3578 -0.800104 0
M  V30 70642 C 6590.32 2.29897 -0.203969 0
M  V30 70643 C 6591.29 1.52498 0.658294 0
M  V30 70644 O 6592.47 1.80963 0.604737 0
M  V30 70645 C 6589.61 3.38986 0.646701 0
M  V30 70646 C 6588.72 4.31359 -0.235282 0
M  V30 70647 C 6587.86 5.27537 0.622776 0
M  V30 70648 C 6586.9 6.11548 -0.260005 0
M  V30 70649 N 6586.04 6.99882 0.55765 0
M  V30 70650 H 6590.88 2.8029 -1.012 0
M  V30 70651 H 6588.41 1.37954 -0.510602 0
M  V30 70652 H 6590.37 4.00894 1.155 0
M  V30 70653 H 6589 2.89886 1.42006 0
M  V30 70654 H 6588.05 3.70513 -0.861634 0
M  V30 70655 H 6589.36 4.90335 -0.915026 0
M  V30 70656 H 6588.52 5.94785 1.19646 0
M  V30 70657 H 6587.26 4.69041 1.33611 0
M  V30 70658 H 6586.26 5.43252 -0.846013 0
M  V30 70659 H 6587.49 6.72121 -0.971102 0
M  V30 70660 H 6585.43 6.43882 1.25508 0
M  V30 70661 H 6585.35 7.55973 -0.0641858 0
M  V30 70662 H 6586.62 7.71487 1.11482 0
M  V30 70663 N 6590.85 0.55304 1.47578 0
M  V30 70664 C 6591.78 -0.234413 2.27998 0
M  V30 70665 C 6592.79 -0.883249 1.36757 0
M  V30 70666 O 6593.98 -0.757803 1.61616 0
M  V30 70667 C 6591.08 -1.34919 3.10886 0
M  V30 70668 C 6590.25 -0.797932 4.3006 0
M  V30 70669 C 6589.31 -1.79668 4.94576 0
M  V30 70670 O 6588.34 -1.34445 5.53094 0
M  V30 70671 N 6589.54 -3.12989 4.88895 0
M  V30 70672 H 6592.31 0.455411 2.9622 0
M  V30 70673 H 6589.87 0.388844 1.57161 0
M  V30 70674 H 6591.86 -2.01598 3.50914 0
M  V30 70675 H 6590.43 -1.94231 2.44935 0
M  V30 70676 H 6589.65 0.0455157 3.94174 0
M  V30 70677 H 6590.94 -0.408905 5.07154 0
M  V30 70678 H 6590.34 -3.52379 4.42545 0
M  V30 70679 H 6588.89 -3.75238 5.32954 0
M  V30 70680 N 6592.33 -1.54922 0.289285 0
M  V30 70681 C 6593.27 -2.23079 -0.591997 0
M  V30 70682 C 6594.24 -1.20921 -1.13874 0
M  V30 70683 O 6595.43 -1.49506 -1.18543 0
M  V30 70684 C 6592.57 -2.96633 -1.76361 0
M  V30 70685 C 6591.68 -4.13539 -1.24937 0
M  V30 70686 C 6590.82 -4.74703 -2.38391 0
M  V30 70687 C 6589.86 -5.83777 -1.84041 0
M  V30 70688 N 6588.99 -6.38945 -2.91023 0
M  V30 70689 H 6593.83 -2.98 -0.00416323 0
M  V30 70690 H 6591.37 -1.47097 0.00971286 0
M  V30 70691 H 6593.33 -3.37503 -2.45251 0
M  V30 70692 H 6591.96 -2.24109 -2.32325 0
M  V30 70693 H 6591.01 -3.77692 -0.453108 0
M  V30 70694 H 6592.32 -4.92156 -0.811403 0
M  V30 70695 H 6591.48 -5.18366 -3.15249 0
M  V30 70696 H 6590.21 -3.95393 -2.85509 0
M  V30 70697 H 6589.22 -5.3955 -1.05668 0
M  V30 70698 H 6590.44 -6.64964 -1.37842 0
M  V30 70699 H 6588.39 -5.62523 -3.37497 0
M  V30 70700 H 6588.31 -7.12874 -2.51686 0
M  V30 70701 H 6589.58 -6.87265 -3.67813 0
M  V30 70702 N 6593.8 -0.0167987 -1.57591 0
M  V30 70703 C 6594.73 0.967746 -2.12502 0
M  V30 70704 C 6595.72 1.34746 -1.03814 0
M  V30 70705 O 6596.9 1.42826 -1.31584 0
M  V30 70706 C 6594.03 2.25417 -2.64206 0
M  V30 70707 C 6592.98 2.01557 -3.7757 0
M  V30 70708 C 6592.31 3.36357 -4.15654 0
M  V30 70709 C 6593.61 1.36463 -5.04158 0
M  V30 70710 H 6595.3 0.510488 -2.95016 0
M  V30 70711 H 6592.85 0.244106 -1.41916 0
M  V30 70712 H 6594.8 2.94662 -3.01251 0
M  V30 70713 H 6593.53 2.73286 -1.78836 0
M  V30 70714 H 6592.19 1.34733 -3.40944 0
M  V30 70715 H 6591.83 3.81962 -3.27283 0
M  V30 70716 H 6591.53 3.21203 -4.92039 0
M  V30 70717 H 6593.06 4.06891 -4.55272 0
M  V30 70718 H 6594.47 1.95689 -5.38868 0
M  V30 70719 H 6592.87 1.31745 -5.8546 0
M  V30 70720 H 6593.94 0.335964 -4.83735 0
M  V30 70721 N 6595.28 1.55504 0.256194 0
M  V30 70722 C 6596.7 1.47719 0.604247 0
M  V30 70723 C 6596.9 0.705138 1.88759 0
M  V30 70724 O 6595.95 0.230745 2.51443 0
M  V30 70725 C 6597.27 2.92061 0.715602 0
M  V30 70726 C 6598.82 3.02376 0.808547 0
M  V30 70727 C 6599.29 4.48006 0.951541 0
M  V30 70728 N 6600.78 4.51905 1.01664 0
M  V30 70729 C 6601.52 5.61823 1.14639 0
M  V30 70730 N 6601.01 6.81572 1.24226 0
M  V30 70731 N 6602.81 5.496 1.17881 0
M  V30 70732 H 6594.96 2.04145 -0.586399 0
M  V30 70733 H 6597.22 0.926433 -0.201064 0
M  V30 70734 H 6596.93 3.51348 -0.157212 0
M  V30 70735 H 6596.8 3.42026 1.59053 0
M  V30 70736 H 6599.19 2.43175 1.67182 0
M  V30 70737 H 6599.27 2.55637 -0.0913411 0
M  V30 70738 H 6598.91 5.07815 0.0928613 0
M  V30 70739 H 6598.84 4.92418 1.86633 0
M  V30 70740 H 6601.33 3.65653 0.954275 0
M  V30 70741 H 6601.65 7.61093 1.34006 0
M  V30 70742 H 6599.99 6.84351 1.212 0
M  V30 70743 H 6603.18 4.54984 1.10033 0
M  V30 70744 H 6603.35 6.35303 1.27648 0
M  V30 70745 N 6596.76 -0.521455 1.48723 0
M  V30 70746 C 6597.69 -1.64135 1.59976 0
M  V30 70747 C 6598.71 -1.55453 0.483545 0
M  V30 70748 O 6599.89 -1.61758 0.754755 0
M  V30 70749 C 6596.99 -3.0283 1.52143 0
M  V30 70750 C 6596.17 -3.36906 2.7895 0
M  V30 70751 C 6595.23 -4.54919 2.64452 0
M  V30 70752 O 6594.25 -4.57717 3.38355 0
M  V30 70753 N 6595.45 -5.53609 1.74635 0
M  V30 70754 H 6598.22 -1.54916 2.56557 0
M  V30 70755 H 6595.78 -0.708911 1.45554 0
M  V30 70756 H 6597.77 -3.79667 1.40126 0
M  V30 70757 H 6596.34 -3.06082 0.635029 0
M  V30 70758 H 6595.56 -2.49164 3.05468 0
M  V30 70759 H 6596.85 -3.56462 3.6306 0
M  V30 70760 H 6596.25 -5.54133 1.13811 0
M  V30 70761 H 6594.81 -6.29629 1.68553 0
M  V30 70762 N 6598.24 -1.37454 -0.770978 0
M  V30 70763 C 6599.17 -1.3598 -1.8982 0
M  V30 70764 C 6600.15 -0.228305 -1.68561 0
M  V30 70765 O 6601.33 -0.428775 -1.89407 0
M  V30 70766 C 6598.46 -1.16679 -3.27114 0
M  V30 70767 C 6597.42 -2.26849 -3.62938 0
M  V30 70768 C 6596.74 -1.9267 -4.98781 0
M  V30 70769 C 6598.04 -3.69036 -3.69607 0
M  V30 70770 H 6599.74 -2.30305 -1.91311 0
M  V30 70771 H 6597.28 -1.1086 -0.919023 0
M  V30 70772 H 6599.24 -1.14278 -4.05609 0
M  V30 70773 H 6597.96 -0.188098 -3.26058 0
M  V30 70774 H 6596.62 -2.28407 -2.86751 0
M  V30 70775 H 6596.27 -0.933282 -4.94266 0
M  V30 70776 H 6595.97 -2.66443 -5.23719 0
M  V30 70777 H 6597.49 -1.91857 -5.79675 0
M  V30 70778 H 6598.91 -3.69604 -4.38253 0
M  V30 70779 H 6597.3 -4.41869 -4.06044 0
M  V30 70780 H 6598.37 -4.02607 -2.70251 0
M  V30 70781 N 6599.72 0.997234 -1.22037 0
M  V30 70782 C 6600.67 2.07084 -0.953948 0
M  V30 70783 C 6601.65 1.60626 0.0937822 0
M  V30 70784 O 6602.84 1.76618 -0.116172 0
M  V30 70785 C 6599.97 3.39201 -0.528905 0
M  V30 70786 C 6599.06 3.92305 -1.61113 0
M  V30 70787 N 6599.45 4.18684 -2.8379 0
M  V30 70788 C 6597.75 4.20664 -1.4818 0
M  V30 70789 C 6598.45 4.61783 -3.53739 0
M  V30 70790 N 6597.42 4.65219 -2.81199 0
M  V30 70791 H 6601.23 2.25414 -1.88588 0
M  V30 70792 H 6598.74 1.17861 -1.11725 0
M  V30 70793 H 6600.74 4.15675 -0.319369 0
M  V30 70794 H 6599.4 3.22274 0.39618 0
M  V30 70795 H 6600.41 4.07006 -3.2026 0
M  V30 70796 H 6597.08 4.12832 -0.622587 0
M  V30 70797 H 6598.47 4.90851 -4.58819 0
M  V30 70798 N 6601.19 1.02936 1.19339 0
M  V30 70799 C 6602.42 0.745746 1.92993 0
M  V30 70800 C 6602.84 -0.695496 1.75523 0
M  V30 70801 O 6602.19 -1.473 1.07745 0
M  V30 70802 C 6602.25 1.0881 3.44736 0
M  V30 70803 O 6601.97 2.47275 3.61645 0
M  V30 70804 C 6603.47 0.827359 4.35511 0
M  V30 70805 H 6600.69 0.272833 0.613028 0
M  V30 70806 H 6603.23 1.37398 1.51466 0
M  V30 70807 H 6601.39 0.505034 3.84094 0
M  V30 70808 H 6601.8 2.60039 4.555 0
M  V30 70809 H 6603.27 1.11687 5.40583 0
M  V30 70810 H 6603.75 -0.238205 4.38554 0
M  V30 70811 H 6604.36 1.39318 4.01834 0
M  V30 70812 N 6602.67 -1.35353 0.807294 0
M  V30 70813 C 6603.62 -2.272 0.190826 0
M  V30 70814 C 6604.61 -1.47807 -0.63576 0
M  V30 70815 O 6605.8 -1.69998 -0.492902 0
M  V30 70816 C 6602.93 -3.36912 -0.659159 0
M  V30 70817 C 6602.01 -4.2373 0.177195 0
M  V30 70818 N 6602.4 -4.90351 1.24055 0
M  V30 70819 C 6600.7 -4.45981 -0.0410602 0
M  V30 70820 C 6601.4 -5.54714 1.75121 0
M  V30 70821 N 6600.38 -5.33214 1.05755 0
M  V30 70822 H 6604.18 -2.76203 1.00445 0
M  V30 70823 H 6601.7 -1.48889 0.648523 0
M  V30 70824 H 6603.69 -4.01662 -1.11685 0
M  V30 70825 H 6602.35 -2.89462 -1.47112 0
M  V30 70826 H 6603.36 -4.91805 1.62321 0
M  V30 70827 H 6600.04 -4.09326 -0.822104 0
M  V30 70828 H 6601.43 -6.17864 2.63996 0
M  V30 70829 N 6604.15 -0.560859 -1.47283 0
M  V30 70830 C 6605.57 -0.220893 -1.58064 0
M  V30 70831 C 6605.77 1.27663 -1.55899 0
M  V30 70832 O 6604.82 2.05703 -1.46433 0
M  V30 70833 C 6606.14 -0.850777 -2.88413 0
M  V30 70834 C 6607.68 -0.822343 -3.02004 0
M  V30 70835 C 6608.16 -1.43136 -4.35059 0
M  V30 70836 N 6609.65 -1.39471 -4.41704 0
M  V30 70837 C 6610.38 -1.83553 -5.43227 0
M  V30 70838 N 6609.88 -2.35508 -6.51543 0
M  V30 70839 N 6611.67 -1.74602 -5.34294 0
M  V30 70840 H 6603.82 -1.53377 -1.46933 0
M  V30 70841 H 6606.09 -0.63982 -0.699525 0
M  V30 70842 H 6605.79 -1.90336 -2.95745 0
M  V30 70843 H 6605.67 -0.345971 -3.7561 0
M  V30 70844 H 6608.05 0.221559 -2.94267 0
M  V30 70845 H 6608.14 -1.36495 -2.1634 0
M  V30 70846 H 6607.78 -2.47435 -4.43552 0
M  V30 70847 H 6607.71 -0.864173 -5.19461 0
M  V30 70848 H 6610.2 -1.01471 -3.64022 0
M  V30 70849 H 6610.51 -2.67059 -7.25189 0
M  V30 70850 H 6608.86 -2.39521 -6.52422 0
M  V30 70851 H 6612.05 -1.33787 -4.48574 0
M  V30 70852 H 6612.22 -2.09275 -6.13277 0
M  V30 70853 N 6605.63 1.54767 -0.297496 0
M  V30 70854 C 6606.86 2.04184 0.315058 0
M  V30 70855 C 6607.27 1.17446 1.48334 0
M  V30 70856 O 6606.61 0.191987 1.82694 0
M  V30 70857 C 6606.67 3.49611 0.837398 0
M  V30 70858 C 6606.34 4.56539 -0.205152 0
M  V30 70859 C 6607.33 5.09546 -1.0324 0
M  V30 70860 C 6605.02 5.01108 -0.345842 0
M  V30 70861 C 6607.01 6.0566 -1.98632 0
M  V30 70862 C 6604.7 5.97042 -1.30321 0
M  V30 70863 C 6605.7 6.49202 -2.12193 0
M  V30 70864 O 6605.38 7.43257 -3.06307 0
M  V30 70865 H 6605.12 0.672055 0.0729292 0
M  V30 70866 H 6607.67 2.00762 -0.434013 0
M  V30 70867 H 6605.9 3.50345 1.63693 0
M  V30 70868 H 6607.59 3.82244 1.36546 0
M  V30 70869 H 6608.36 4.75911 -0.934563 0
M  V30 70870 H 6604.23 4.6014 0.281467 0
M  V30 70871 H 6607.78 6.46297 -2.62576 0
M  V30 70872 H 6603.68 6.30096 -1.40178 0
M  V30 70873 H 6604.44 7.61048 -3.01245 0
M  V30 70874 N 6607.11 0.0251559 1.5758 0
M  V30 70875 C 6608.36 -0.65305 1.91258 0
M  V30 70876 C 6608.68 -1.72896 0.901782 0
M  V30 70877 O 6607.95 -1.95816 -0.0572752 0
M  V30 70878 H 6606.53 -0.244206 0.705955 0
M  V30 70879 H 6609.19 0.0720236 1.94767 0
M  V30 70880 H 6608.28 -1.10832 2.91758 0
M  V30 70881 N 6608.59 -1.55637 -0.247944 0
M  V30 70882 C 6609.5 -1.93361 -1.32848 0
M  V30 70883 C 6610.51 -0.833918 -1.52715 0
M  V30 70884 O 6611.69 -1.13522 -1.66357 0
M  V30 70885 C 6608.75 -2.21972 -2.66325 0
M  V30 70886 C 6607.81 -3.45367 -2.5499 0
M  V30 70887 C 6607.05 -3.72605 -3.82101 0
M  V30 70888 O 6607.27 -3.01932 -4.83935 0
M  V30 70889 O 6606.2 -4.6613 -3.80797 0
M  V30 70890 H 6610.03 -2.85393 -1.03847 0
M  V30 70891 H 6607.61 -1.42506 -0.448611 0
M  V30 70892 H 6609.5 -2.41688 -3.45203 0
M  V30 70893 H 6608.17 -1.33119 -2.95061 0
M  V30 70894 H 6607.08 -3.3096 -1.74402 0
M  V30 70895 H 6608.41 -4.3452 -2.31199 0
M  V30 70896 N 6610.06 0.513561 -1.48998 0
M  V30 70897 C 6611.47 1.09529 -1.51196 0
M  V30 70898 C 6611.83 1.9403 -0.291008 0
M  V30 70899 O 6610.95 2.07905 0.60038 0
M  V30 70900 C 6611.55 1.99308 -2.73974 0
M  V30 70901 C 6610.1 2.52667 -2.78992 0
M  V30 70902 C 6609.25 1.29997 -2.44941 0
M  V30 70903 H 6612.2 0.298043 -1.55876 0
M  V30 70904 H 6612.22 2.83825 -2.53424 0
M  V30 70905 H 6611.74 1.37779 -3.6282 0
M  V30 70906 H 6609.84 3.1787 -1.94395 0
M  V30 70907 H 6609.95 2.90678 -3.80845 0
M  V30 70908 H 6608.31 1.62111 -1.96449 0
M  V30 70909 H 6609.1 0.701954 -3.36047 0
M  V30 70910 N 6611.54 1.37861 0.763678 0
M  V30 70911 C 6612.45 1.36488 1.90809 0
M  V30 70912 C 6613.47 0.263339 1.71996 0
M  V30 70913 O 6614.64 0.500082 1.95093 0
M  V30 70914 C 6611.71 1.17882 3.26044 0
M  V30 70915 C 6610.77 2.37749 3.57455 0
M  V30 70916 C 6610 2.20021 4.86237 0
M  V30 70917 O 6610.23 1.18865 5.57877 0
M  V30 70918 O 6609.16 3.08388 5.16895 0
M  V30 70919 H 6612.99 2.32894 1.94921 0
M  V30 70920 H 6610.57 1.18675 0.907556 0
M  V30 70921 H 6612.45 1.09526 4.06918 0
M  V30 70922 H 6611.13 0.245542 3.22767 0
M  V30 70923 H 6610.03 2.51678 2.76783 0
M  V30 70924 H 6611.37 3.29671 3.65483 0
M  V30 70925 N 6613.02 -0.990748 1.22564 0
M  V30 70926 C 6614.27 -1.73316 1.05306 0
M  V30 70927 C 6614.6 -1.89811 -0.410555 0
M  V30 70928 O 6613.87 -1.44284 -1.30431 0
M  V30 70929 C 6614.16 -3.13749 1.7673 0
M  V30 70930 C 6614.01 -3.0489 3.307 0
M  V30 70931 C 6615.33 -4.12966 1.52142 0
M  V30 70932 H 6612.45 -0.629086 0.383953 0
M  V30 70933 H 6615.09 -1.1541 1.50932 0
M  V30 70934 H 6613.24 -3.63186 1.37943 0
M  V30 70935 H 6614.91 -2.63057 3.78944 0
M  V30 70936 H 6613.15 -2.41642 3.60266 0
M  V30 70937 H 6613.83 -4.04274 3.75854 0
M  V30 70938 H 6616.3 -3.72295 1.85839 0
M  V30 70939 H 6615.18 -5.09339 2.04609 0
M  V30 70940 H 6615.44 -4.39758 0.454489 0
M  V30 70941 N 6614.5 -1.03568 -1.18792 0
M  V30 70942 C 6615.91 -0.764766 -1.70318 0
M  V30 70943 C 6616.26 0.7149 -1.82712 0
M  V30 70944 O 6615.38 1.55681 -1.50307 0
M  V30 70945 C 6615.98 -1.38162 -3.09349 0
M  V30 70946 C 6614.54 -1.15913 -3.58108 0
M  V30 70947 C 6613.69 -1.47542 -2.3479 0
M  V30 70948 H 6616.64 -1.20274 -1.03537 0
M  V30 70949 H 6616.66 -0.782173 -3.72374 0
M  V30 70950 H 6616.17 -2.45853 -3.00296 0
M  V30 70951 H 6614.27 -0.100741 -3.72464 0
M  V30 70952 H 6614.38 -1.85264 -4.41831 0
M  V30 70953 H 6612.75 -0.894955 -2.38459 0
M  V30 70954 H 6613.53 -2.56331 -2.28362 0
M  V30 70955 N 6615.98 1.34923 -0.814461 0
M  V30 70956 C 6616.89 2.33449 -0.232101 0
M  V30 70957 C 6617.9 1.62231 0.629054 0
M  V30 70958 O 6619.08 1.94055 0.53895 0
M  V30 70959 C 6616.14 3.41411 0.603302 0
M  V30 70960 C 6615.2 4.28391 -0.279263 0
M  V30 70961 C 6614.44 5.31196 0.516363 0
M  V30 70962 O 6614.66 5.42879 1.75039 0
M  V30 70963 O 6613.59 6.01822 -0.0968826 0
M  V30 70964 H 6617.42 2.85069 -1.04736 0
M  V30 70965 H 6615 1.37833 -0.576416 0
M  V30 70966 H 6616.89 4.07355 1.07887 0
M  V30 70967 H 6615.56 2.92049 1.39603 0
M  V30 70968 H 6614.47 3.65399 -0.802141 0
M  V30 70969 H 6615.8 4.81171 -1.03613 0
M  V30 70970 N 6617.45 0.568661 1.46983 0
M  V30 70971 C 6618.68 0.0521621 2.07334 0
M  V30 70972 C 6619.1 -1.23725 1.41681 0
M  V30 70973 O 6618.46 -1.74391 0.495715 0
M  V30 70974 C 6618.51 -0.11482 3.60417 0
M  V30 70975 O 6617.61 -1.17471 3.95315 0
M  V30 70976 H 6616.95 0.0564734 0.661594 0
M  V30 70977 H 6619.48 0.787607 1.88833 0
M  V30 70978 H 6619.49 -0.325429 4.067 0
M  V30 70979 H 6618.17 0.82689 4.07597 0
M  V30 70980 H 6616.75 -0.943679 3.60762 0
M  V30 70981 N 6618.93 -1.54607 0.3057 0
M  V30 70982 C 6619.89 -2.22367 -0.555473 0
M  V30 70983 C 6620.89 -1.21124 -1.05762 0
M  V30 70984 O 6622.08 -1.45827 -0.952895 0
M  V30 70985 C 6619.22 -2.91373 -1.76959 0
M  V30 70986 H 6620.41 -2.99878 0.0366153 0
M  V30 70987 H 6617.96 -1.56198 0.056583 0
M  V30 70988 H 6618.7 -2.17954 -2.40139 0
M  V30 70989 H 6618.48 -3.65595 -1.41713 0
M  V30 70990 H 6619.97 -3.43051 -2.3813 0
M  V30 70991 N 6620.41 -0.0335124 -1.57564 0
M  V30 70992 C 6621.66 0.644171 -1.91981 0
M  V30 70993 C 6621.98 1.71882 -0.910322 0
M  V30 70994 O 6621.24 1.95536 0.080093 0
M  V30 70995 C 6621.54 1.29486 -3.33119 0
M  V30 70996 C 6621.2 0.350151 -4.49538 0
M  V30 70997 C 6619.87 0.0901437 -4.81116 0
M  V30 70998 C 6622.22 -0.298306 -5.20346 0
M  V30 70999 C 6619.55 -0.826053 -5.80856 0
M  V30 71000 C 6621.9 -1.20258 -6.21064 0
M  V30 71001 C 6620.56 -1.47144 -6.5108 0
M  V30 71002 H 6619.83 0.235719 -0.702508 0
M  V30 71003 H 6622.48 -0.0962185 -1.91258 0
M  V30 71004 H 6620.78 2.1101 -3.30124 0
M  V30 71005 H 6622.48 1.82584 -3.57021 0
M  V30 71006 H 6619.07 0.562981 -4.24886 0
M  V30 71007 H 6623.26 -0.110496 -4.96177 0
M  V30 71008 H 6618.51 -1.04201 -6.02455 0
M  V30 71009 H 6622.69 -1.71122 -6.75048 0
M  V30 71010 H 6620.31 -2.18303 -7.28181 0
M  V30 71011 N 6621.89 1.55767 0.239687 0
M  V30 71012 C 6623.13 1.79113 0.963847 0
M  V30 71013 C 6623.49 0.603616 1.82686 0
M  V30 71014 O 6622.78 -0.402934 1.87315 0
M  V30 71015 C 6622.98 3.05682 1.85184 0
M  V30 71016 C 6622.81 4.36631 1.07628 0
M  V30 71017 C 6621.58 4.99267 0.778474 0
M  V30 71018 C 6623.77 5.12324 0.45035 0
M  V30 71019 N 6621.76 6.13897 -0.0203945 0
M  V30 71020 C 6623.13 6.19635 -0.212755 0
M  V30 71021 C 6625.18 4.96586 0.361545 0
M  V30 71022 C 6623.88 7.12917 -0.956148 0
M  V30 71023 C 6625.91 5.90252 -0.368335 0
M  V30 71024 C 6625.27 6.96975 -1.02005 0
M  V30 71025 H 6621.37 0.70729 0.333564 0
M  V30 71026 H 6623.96 1.9326 0.236323 0
M  V30 71027 H 6622.13 2.92851 2.55134 0
M  V30 71028 H 6623.86 3.17294 2.51211 0
M  V30 71029 H 6620.61 4.60838 1.09205 0
M  V30 71030 H 6621.04 6.75769 -0.408133 0
M  V30 71031 H 6625.68 4.14146 0.851067 0
M  V30 71032 H 6623.4 7.94852 -1.45725 0
M  V30 71033 H 6626.98 5.8015 -0.43781 0
M  V30 71034 H 6625.86 7.68204 -1.57581 0
M  V30 71035 N 6623.37 -0.505652 1.49268 0
M  V30 71036 C 6624.31 -1.60771 1.65594 0
M  V30 71037 C 6625.28 -1.58475 0.497479 0
M  V30 71038 O 6626.47 -1.76532 0.723943 0
M  V30 71039 C 6623.61 -2.98938 1.72423 0
M  V30 71040 C 6622.72 -3.11285 2.99542 0
M  V30 71041 C 6621.86 -4.40158 2.97379 0
M  V30 71042 C 6620.9 -4.46121 4.19097 0
M  V30 71043 N 6620.03 -5.66415 4.14871 0
M  V30 71044 H 6624.87 -1.46158 2.59696 0
M  V30 71045 H 6622.41 -0.711193 1.28765 0
M  V30 71046 H 6624.37 -3.79016 1.74364 0
M  V30 71047 H 6623 -3.12266 0.817917 0
M  V30 71048 H 6622.05 -2.24302 3.07234 0
M  V30 71049 H 6623.36 -3.11551 3.89535 0
M  V30 71050 H 6622.52 -5.28551 2.97857 0
M  V30 71051 H 6621.25 -4.4245 2.05157 0
M  V30 71052 H 6620.26 -3.56131 4.18869 0
M  V30 71053 H 6621.48 -4.45548 5.12507 0
M  V30 71054 H 6619.43 -5.69558 3.25483 0
M  V30 71055 H 6619.35 -5.68278 4.98594 0
M  V30 71056 H 6620.62 -6.57028 4.19445 0
M  V30 71057 N 6624.84 -1.38264 -0.756356 0
M  V30 71058 C 6625.79 -1.35271 -1.87004 0
M  V30 71059 C 6626.76 -0.215703 -1.64693 0
M  V30 71060 O 6627.95 -0.407498 -1.86398 0
M  V30 71061 C 6625.09 -1.18085 -3.24268 0
M  V30 71062 C 6624.2 -2.41148 -3.58429 0
M  V30 71063 C 6623.33 -2.16714 -4.84983 0
M  V30 71064 C 6622.37 -3.35564 -5.11921 0
M  V30 71065 N 6621.51 -3.10583 -6.29669 0
M  V30 71066 H 6626.35 -2.30481 -1.88898 0
M  V30 71067 H 6623.89 -1.14514 -0.923312 0
M  V30 71068 H 6625.85 -1.06137 -4.03473 0
M  V30 71069 H 6624.48 -0.265143 -3.21709 0
M  V30 71070 H 6623.53 -2.63779 -2.74089 0
M  V30 71071 H 6624.84 -3.29737 -3.74266 0
M  V30 71072 H 6623.99 -2.01887 -5.72125 0
M  V30 71073 H 6622.73 -1.25487 -4.71279 0
M  V30 71074 H 6621.74 -3.50913 -4.23249 0
M  V30 71075 H 6622.96 -4.27663 -5.27524 0
M  V30 71076 H 6620.91 -2.22 -6.17294 0
M  V30 71077 H 6620.83 -3.9272 -6.45993 0
M  V30 71078 H 6622.09 -2.99405 -7.19706 0
M  V30 71079 N 6626.32 0.984234 -1.23088 0
M  V30 71080 C 6627.57 1.71924 -1.05475 0
M  V30 71081 C 6627.88 1.91274 0.409111 0
M  V30 71082 O 6629.09 2.62185 0.705088 0
M  V30 71083 C 6627.55 3.09374 -1.8389 0
M  V30 71084 C 6627.15 2.97925 -3.34581 0
M  V30 71085 C 6628.9 3.86861 -1.74755 0
M  V30 71086 C 6626.81 4.30583 -4.05404 0
M  V30 71087 H 6625.74 0.644654 -0.391073 0
M  V30 71088 H 6628.39 1.09807 -1.47019 0
M  V30 71089 H 6626.77 3.72224 -1.3515 0
M  V30 71090 H 6627.94 2.44188 -3.9078 0
M  V30 71091 H 6626.26 2.33916 -3.44488 0
M  V30 71092 H 6628.85 4.85064 -2.24983 0
M  V30 71093 H 6629.2 4.10208 -0.709588 0
M  V30 71094 H 6629.73 3.30706 -2.21085 0
M  V30 71095 H 6626.47 4.12433 -5.09489 0
M  V30 71096 H 6625.99 4.842 -3.53993 0
M  V30 71097 H 6627.67 4.9929 -4.11484 0
M  V30 71098 N 6627.8 1.04196 1.18241 0
M  V30 71099 C 6629.05 0.741293 1.87584 0
M  V30 71100 C 6629.36 -0.73397 1.81307 0
M  V30 71101 O 6630.57 -1.14821 2.46025 0
M  V30 71102 C 6629.02 1.27573 3.36531 0
M  V30 71103 C 6628.63 2.77971 3.51335 0
M  V30 71104 C 6630.38 1.05164 4.11267 0
M  V30 71105 C 6628.28 3.24766 4.94248 0
M  V30 71106 H 6627.21 0.273602 0.702608 0
M  V30 71107 H 6629.86 1.25796 1.33595 0
M  V30 71108 H 6628.25 0.686909 3.89997 0
M  V30 71109 H 6629.42 3.42622 3.08135 0
M  V30 71110 H 6627.74 2.98807 2.90006 0
M  V30 71111 H 6630.33 1.37639 5.16681 0
M  V30 71112 H 6630.68 -0.0110579 4.16299 0
M  V30 71113 H 6631.21 1.60514 3.63978 0
M  V30 71114 H 6627.95 4.30422 4.94386 0
M  V30 71115 H 6627.47 2.64852 5.38158 0
M  V30 71116 H 6629.15 3.18864 5.6297 0
M  V30 71117 N 6629.28 -1.34489 0.821604 0
M  V30 71118 C 6630.24 -2.27855 0.247967 0
M  V30 71119 C 6631.24 -1.5023 -0.573373 0
M  V30 71120 O 6632.43 -1.69786 -0.38967 0
M  V30 71121 C 6629.56 -3.34597 -0.652521 0
M  V30 71122 H 6630.76 -2.80101 1.07161 0
M  V30 71123 H 6628.31 -1.44599 0.593367 0
M  V30 71124 H 6629.04 -2.87563 -1.49928 0
M  V30 71125 H 6628.83 -3.92046 -0.0650853 0
M  V30 71126 H 6630.32 -4.04243 -1.04772 0
M  V30 71127 N 6630.76 -0.576448 -1.46679 0
M  V30 71128 C 6631.99 -0.0649782 -2.06498 0
M  V30 71129 C 6632.39 1.24263 -1.42672 0
M  V30 71130 O 6631.74 1.76069 -0.523979 0
M  V30 71131 C 6631.8 0.181627 -3.59041 0
M  V30 71132 C 6631.46 -1.03944 -4.45022 0
M  V30 71133 C 6632.46 -1.94991 -4.81949 0
M  V30 71134 C 6630.15 -1.25952 -4.86252 0
M  V30 71135 C 6632.14 -3.064 -5.58925 0
M  V30 71136 C 6629.83 -2.37668 -5.6299 0
M  V30 71137 C 6630.82 -3.27721 -5.99239 0
M  V30 71138 O 6630.51 -4.37497 -6.74427 0
M  V30 71139 H 6630.24 -0.0516342 -0.674025 0
M  V30 71140 H 6632.8 -0.795051 -1.89389 0
M  V30 71141 H 6631.03 0.966238 -3.74434 0
M  V30 71142 H 6632.72 0.640836 -4.00809 0
M  V30 71143 H 6633.48 -1.79201 -4.50679 0
M  V30 71144 H 6629.36 -0.567689 -4.57491 0
M  V30 71145 H 6632.91 -3.76715 -5.87138 0
M  V30 71146 H 6628.8 -2.53423 -5.93672 0
M  V30 71147 H 6629.57 -4.35785 -6.92844 0
M  V30 71148 N 6632.23 1.54442 -0.313895 0
M  V30 71149 C 6633.17 2.21468 0.590308 0
M  V30 71150 C 6634.18 1.21153 1.08747 0
M  V30 71151 O 6635.37 1.47676 1.00271 0
M  V30 71152 C 6632.47 2.85779 1.82164 0
M  V30 71153 C 6631.64 4.12143 1.4648 0
M  V30 71154 C 6630.7 4.60138 2.55264 0
M  V30 71155 O 6629.73 5.25043 2.19814 0
M  V30 71156 N 6630.93 4.33545 3.8603 0
M  V30 71157 H 6633.69 2.99695 0.0164452 0
M  V30 71158 H 6631.25 1.61322 -0.136663 0
M  V30 71159 H 6633.25 3.14814 2.54311 0
M  V30 71160 H 6631.82 2.11315 2.30358 0
M  V30 71161 H 6631.04 3.89978 0.57539 0
M  V30 71162 H 6632.32 4.94399 1.20195 0
M  V30 71163 H 6631.72 3.81574 4.17634 0
M  V30 71164 H 6630.28 4.67259 4.54436 0
M  V30 71165 N 6633.71 0.0418679 1.57544 0
M  V30 71166 C 6634.64 -0.96469 2.0791 0
M  V30 71167 C 6635.66 -1.28073 1.00504 0
M  V30 71168 O 6636.85 -1.24315 1.28093 0
M  V30 71169 C 6633.95 -2.28874 2.4994 0
M  V30 71170 C 6633.12 -2.15599 3.80573 0
M  V30 71171 C 6632.18 -3.31047 4.09016 0
M  V30 71172 O 6631.2 -3.07365 4.79078 0
M  V30 71173 N 6632.41 -4.55237 3.60194 0
M  V30 71174 H 6635.17 -0.534874 2.94888 0
M  V30 71175 H 6632.73 -0.144596 1.61253 0
M  V30 71176 H 6634.72 -3.04958 2.6605 0
M  V30 71177 H 6633.29 -2.63454 1.68259 0
M  V30 71178 H 6632.51 -1.24163 3.74135 0
M  V30 71179 H 6633.8 -2.03946 4.66137 0
M  V30 71180 H 6633.2 -4.7737 3.03537 0
M  V30 71181 H 6631.76 -5.28446 3.8156 0
M  V30 71182 N 6635.19 -1.55892 -0.231423 0
M  V30 71183 C 6636.14 -1.91604 -1.28672 0
M  V30 71184 C 6637.11 -0.772052 -1.47067 0
M  V30 71185 O 6638.29 -1.02708 -1.60797 0
M  V30 71186 C 6635.43 -2.22958 -2.63408 0
M  V30 71187 C 6634.55 -3.50241 -2.52893 0
M  V30 71188 C 6633.68 -3.7109 -3.80087 0
M  V30 71189 C 6632.72 -4.91921 -3.64253 0
M  V30 71190 N 6631.86 -5.0921 -4.83373 0
M  V30 71191 H 6636.7 -2.81593 -0.975156 0
M  V30 71192 H 6634.23 -1.39382 -0.470225 0
M  V30 71193 H 6636.19 -2.39144 -3.41856 0
M  V30 71194 H 6634.82 -1.36155 -2.9268 0
M  V30 71195 H 6633.87 -3.42302 -1.65932 0
M  V30 71196 H 6635.19 -4.3884 -2.3711 0
M  V30 71197 H 6634.34 -3.87319 -4.66978 0
M  V30 71198 H 6633.08 -2.80754 -3.98784 0
M  V30 71199 H 6632.08 -4.75652 -2.75745 0
M  V30 71200 H 6633.31 -5.83732 -3.47036 0
M  V30 71201 H 6631.25 -4.21814 -5.02403 0
M  V30 71202 H 6631.17 -5.91923 -4.7028 0
M  V30 71203 H 6632.44 -5.29865 -5.7172 0
M  V30 71204 N 6636.67 0.497729 -1.49534 0
M  V30 71205 C 6637.6 1.60748 -1.69359 0
M  V30 71206 C 6638.58 1.61224 -0.542303 0
M  V30 71207 O 6639.77 1.77912 -0.77851 0
M  V30 71208 C 6636.9 2.99217 -1.76314 0
M  V30 71209 C 6635.85 3.13606 -2.91264 0
M  V30 71210 C 6635.18 4.53459 -2.83335 0
M  V30 71211 C 6636.48 2.93324 -4.32156 0
M  V30 71212 H 6638.17 1.44411 -2.6227 0
M  V30 71213 H 6635.72 0.693301 -1.26212 0
M  V30 71214 H 6637.67 3.76755 -1.88769 0
M  V30 71215 H 6636.39 3.1665 -0.800038 0
M  V30 71216 H 6635.05 2.38494 -2.78417 0
M  V30 71217 H 6634.7 4.67773 -1.84927 0
M  V30 71218 H 6634.4 4.64027 -3.60489 0
M  V30 71219 H 6635.92 5.33053 -2.97803 0
M  V30 71220 H 6637.34 3.60629 -4.45668 0
M  V30 71221 H 6635.73 3.15361 -5.10556 0
M  V30 71222 H 6636.8 1.89418 -4.46373 0
M  V30 71223 N 6638.15 1.38663 0.749013 0
M  V30 71224 C 6639.08 1.38983 1.87633 0
M  V30 71225 C 6640.06 0.255093 1.68176 0
M  V30 71226 O 6641.24 0.458853 1.88701 0
M  V30 71227 C 6638.37 1.21868 3.25216 0
M  V30 71228 C 6637.33 2.32594 3.59283 0
M  V30 71229 C 6636.65 2.00581 4.95653 0
M  V30 71230 C 6637.95 3.74869 3.6369 0
M  V30 71231 H 6639.65 2.3332 1.87622 0
M  V30 71232 H 6637.19 1.12308 0.90127 0
M  V30 71233 H 6639.15 1.20716 4.0374 0
M  V30 71234 H 6637.87 0.239947 3.25717 0
M  V30 71235 H 6636.53 2.3294 2.8308 0
M  V30 71236 H 6636.18 1.0118 4.92719 0
M  V30 71237 H 6635.88 2.74741 5.19414 0
M  V30 71238 H 6637.4 2.01055 5.7655 0
M  V30 71239 H 6638.82 3.76529 4.32318 0
M  V30 71240 H 6637.21 4.48273 3.98963 0
M  V30 71241 H 6638.28 4.06855 2.63812 0
M  V30 71242 N 6639.63 -0.977692 1.23608 0
M  V30 71243 C 6640.57 -2.09181 1.01715 0
M  V30 71244 C 6641.57 -1.69341 -0.0447321 0
M  V30 71245 O 6642.77 -1.7967 0.108997 0
M  V30 71246 H 6639.15 -0.684296 0.311839 0
M  V30 71247 H 6641.12 -2.24812 1.96219 0
M  V30 71248 C 6639.87 -3.41983 0.627927 0
M  V30 71249 H 6639.19 -3.73092 1.43675 0
M  V30 71250 H 6640.63 -4.2087 0.514275 0
M  V30 71251 C 6639.09 -3.3029 -0.664064 0
M  V30 71252 O 6639.62 -3.63369 -1.71249 0
M  V30 71253 N 6637.83 -2.83442 -0.641006 0
M  V30 71254 H 6637.37 -2.56722 0.212512 0
M  V30 71255 H 6637.33 -2.76001 -1.50568 0
M  V30 71256 N 6641.1 -1.04822 -1.17686 0
M  V30 71257 C 6642.33 -0.775229 -1.91504 0
M  V30 71258 C 6642.74 0.672436 -1.76847 0
M  V30 71259 O 6642.08 1.47077 -1.10064 0
M  V30 71260 C 6642.15 -1.07148 -3.43161 0
M  V30 71261 C 6641.81 -2.51458 -3.81599 0
M  V30 71262 C 6642.81 -3.49658 -3.84754 0
M  V30 71263 C 6640.49 -2.86369 -4.12672 0
M  V30 71264 C 6642.49 -4.80816 -4.18443 0
M  V30 71265 C 6640.17 -4.17732 -4.46031 0
M  V30 71266 C 6641.17 -5.14765 -4.48894 0
M  V30 71267 O 6640.86 -6.43771 -4.8147 0
M  V30 71268 H 6640.59 -0.281588 -0.61456 0
M  V30 71269 H 6643.15 -1.40106 -1.50198 0
M  V30 71270 H 6641.38 -0.388545 -3.84743 0
M  V30 71271 H 6643.06 -0.785093 -3.98235 0
M  V30 71272 H 6643.83 -3.24027 -3.60876 0
M  V30 71273 H 6639.71 -2.11508 -4.09616 0
M  V30 71274 H 6643.25 -5.56549 -4.20593 0
M  V30 71275 H 6639.15 -4.43128 -4.6937 0
M  V30 71276 H 6639.92 -6.48536 -4.99343 0
M  V30 71277 N 6642.58 1.34052 -0.828725 0
M  V30 71278 C 6643.83 1.98106 -0.419563 0
M  V30 71279 C 6644.16 1.65684 1.01878 0
M  V30 71280 O 6643.41 0.923603 1.72534 0
M  V30 71281 C 6643.71 3.52738 -0.575412 0
M  V30 71282 C 6643.38 4.05085 -1.98033 0
M  V30 71283 C 6642.04 4.19092 -2.36465 0
M  V30 71284 C 6644.39 4.33172 -2.89847 0
M  V30 71285 C 6641.72 4.58516 -3.66033 0
M  V30 71286 C 6644.07 4.74044 -4.18885 0
M  V30 71287 C 6642.73 4.86257 -4.57286 0
M  V30 71288 H 6642 0.724921 -0.153529 0
M  V30 71289 H 6644.65 1.59898 -1.05379 0
M  V30 71290 H 6642.96 3.91542 0.142179 0
M  V30 71291 H 6644.65 4.00286 -0.239268 0
M  V30 71292 H 6641.24 3.94649 -1.67182 0
M  V30 71293 H 6645.43 4.21883 -2.61397 0
M  V30 71294 H 6640.68 4.66163 -3.95604 0
M  V30 71295 H 6644.86 4.94736 -4.90112 0
M  V30 71296 H 6642.48 5.16563 -5.57734 0
M  V30 71297 N 6644.06 0.584219 1.46372 0
M  V30 71298 C 6645.02 -0.137987 2.28784 0
M  V30 71299 C 6646.02 -0.817389 1.38475 0
M  V30 71300 O 6647.21 -0.669114 1.60837 0
M  V30 71301 C 6644.34 -1.20486 3.18898 0
M  V30 71302 H 6645.54 0.586282 2.94113 0
M  V30 71303 H 6643.09 0.342252 1.52507 0
M  V30 71304 H 6643.83 -1.96066 2.58319 0
M  V30 71305 H 6643.61 -0.722181 3.85392 0
M  V30 71306 H 6645.1 -1.71135 3.80924 0
M  V30 71307 N 6645.54 -1.54274 0.322081 0
M  V30 71308 C 6646.95 -1.59571 -0.0306158 0
M  V30 71309 C 6647.15 -1.33865 -1.50607 0
M  V30 71310 O 6646.21 -1.12235 -2.26185 0
M  V30 71311 C 6647.52 -2.98209 0.386279 0
M  V30 71312 C 6649.07 -3.11183 0.336811 0
M  V30 71313 C 6649.55 -4.52164 0.728845 0
M  V30 71314 N 6651.04 -4.58149 0.682193 0
M  V30 71315 C 6651.77 -5.65345 0.957747 0
M  V30 71316 N 6651.27 -6.80487 1.30036 0
M  V30 71317 N 6653.06 -5.55115 0.883406 0
M  V30 71318 H 6645.21 -1.6924 1.28341 0
M  V30 71319 H 6647.47 -0.7915 0.521758 0
M  V30 71320 H 6647.18 -3.22014 1.41421 0
M  V30 71321 H 6647.05 -3.76374 -0.249464 0
M  V30 71322 H 6649.44 -2.87113 -0.681907 0
M  V30 71323 H 6649.52 -2.35125 1.00747 0
M  V30 71324 H 6649.17 -4.76965 1.74547 0
M  V30 71325 H 6649.1 -5.26588 0.0358928 0
M  V30 71326 H 6651.59 -3.75455 0.429183 0
M  V30 71327 H 6651.9 -7.58181 1.49603 0
M  V30 71328 H 6650.25 -6.81987 1.3386 0
M  V30 71329 H 6653.44 -4.64039 0.615245 0
M  V30 71330 H 6653.61 -6.38569 1.10151 0
M  V30 71331 N 6647.02 -0.0502223 -1.5752 0
M  V30 71332 C 6647.96 0.942347 -2.12656 0
M  V30 71333 C 6648.96 1.32287 -1.05814 0
M  V30 71334 O 6650.16 1.30263 -1.24223 0
M  V30 71335 H 6646.54 0.321753 -0.67969 0
M  V30 71336 H 6648.51 0.4522 -2.94954 0
M  V30 71337 C 6647.26 2.20821 -2.68576 0
M  V30 71338 H 6646.58 1.9242 -3.50449 0
M  V30 71339 H 6648.02 2.88433 -3.10777 0
M  V30 71340 C 6646.48 2.95225 -1.62307 0
M  V30 71341 O 6647.01 3.8813 -1.03529 0
M  V30 71342 N 6645.22 2.57939 -1.3385 0
M  V30 71343 H 6644.76 1.82465 -1.81835 0
M  V30 71344 H 6644.72 3.08028 -0.629757 0
M  V30 71345 N 6648.49 1.56012 0.223152 0
M  V30 71346 C 6649.74 1.78951 0.947781 0
M  V30 71347 C 6650.07 0.618705 1.84397 0
M  V30 71348 O 6649.32 -0.396992 1.91631 0
M  V30 71349 C 6649.62 3.07629 1.81932 0
M  V30 71350 C 6649.29 4.37861 1.07649 0
M  V30 71351 C 6647.95 4.73246 0.871295 0
M  V30 71352 C 6650.3 5.18271 0.551808 0
M  V30 71353 C 6647.63 5.86557 0.129482 0
M  V30 71354 C 6649.98 6.32353 -0.176654 0
M  V30 71355 C 6648.65 6.66341 -0.393121 0
M  V30 71356 H 6647.92 0.654827 0.346818 0
M  V30 71357 H 6650.56 1.90277 0.216071 0
M  V30 71358 H 6648.87 2.91418 2.61884 0
M  V30 71359 H 6650.57 3.22579 2.3821 0
M  V30 71360 H 6647.16 4.10077 1.2464 0
M  V30 71361 H 6651.34 4.9137 0.697817 0
M  V30 71362 H 6646.6 6.11381 -0.0484754 0
M  V30 71363 H 6650.77 6.9389 -0.590732 0
M  V30 71364 H 6648.4 7.53988 -0.969863 0
M  V30 71365 N 6649.97 -0.489791 1.49796 0
M  V30 71366 C 6651.2 -1.26509 1.63337 0
M  V30 71367 C 6651.61 -1.86668 0.308491 0
M  V30 71368 O 6650.95 -1.69112 -0.717423 0
M  V30 71369 C 6651.01 -2.42676 2.65233 0
M  V30 71370 C 6650.68 -2.033 4.0929 0
M  V30 71371 C 6651.68 -1.56626 4.95746 0
M  V30 71372 C 6649.36 -2.12592 4.55093 0
M  V30 71373 C 6651.35 -1.19762 6.26048 0
M  V30 71374 C 6649.04 -1.7534 5.85405 0
M  V30 71375 C 6650.04 -1.29001 6.70707 0
M  V30 71376 O 6649.73 -0.922568 7.98589 0
M  V30 71377 H 6649.46 -0.38948 0.552523 0
M  V30 71378 H 6652.01 -0.593277 1.96645 0
M  V30 71379 H 6650.24 -3.12969 2.27128 0
M  V30 71380 H 6651.93 -3.04681 2.68187 0
M  V30 71381 H 6652.7 -1.48884 4.61583 0
M  V30 71382 H 6648.58 -2.47611 3.88857 0
M  V30 71383 H 6652.12 -0.835216 6.92582 0
M  V30 71384 H 6648.02 -1.82735 6.19095 0
M  V30 71385 H 6648.79 -1.05306 8.11698 0
M  V30 71386 N 6651.45 -1.39059 -0.741649 0
M  V30 71387 C 6652.4 -1.3738 -1.87695 0
M  V30 71388 C 6653.39 -0.2579 -1.67425 0
M  V30 71389 O 6654.6 -0.427581 -1.74848 0
M  V30 71390 H 6650.97 -0.428845 -0.617735 0
M  V30 71391 H 6652.94 -2.33157 -1.86227 0
M  V30 71392 C 6651.69 -1.22758 -3.25309 0
M  V30 71393 H 6651.02 -2.07891 -3.41498 0
M  V30 71394 H 6652.46 -1.2564 -4.04958 0
M  V30 71395 C 6650.92 0.064554 -3.36838 0
M  V30 71396 O 6651.45 1.0372 -3.88079 0
M  V30 71397 N 6649.65 0.125391 -2.90329 0
M  V30 71398 H 6649.2 -0.666813 -2.4882 0
M  V30 71399 H 6649.16 0.989482 -2.98424 0
M  V30 71400 N 6652.93 0.971123 -1.24125 0
M  V30 71401 C 6653.86 2.06377 -0.973839 0
M  V30 71402 C 6654.84 1.62344 0.0911805 0
M  V30 71403 O 6656.02 1.88446 -0.0450359 0
M  V30 71404 C 6653.15 3.35438 -0.468923 0
M  V30 71405 C 6652.2 3.9842 -1.52197 0
M  V30 71406 S 6653.03 4.36486 -3.10226 0
M  V30 71407 C 6654.19 5.68688 -2.61428 0
M  V30 71408 H 6654.42 2.28743 -1.89905 0
M  V30 71409 H 6651.95 1.10857 -1.07472 0
M  V30 71410 H 6653.91 4.10086 -0.184228 0
M  V30 71411 H 6652.57 3.11066 0.435524 0
M  V30 71412 H 6651.76 4.9142 -1.11902 0
M  V30 71413 H 6651.37 3.30187 -1.75649 0
M  V30 71414 H 6653.66 6.46049 -2.04026 0
M  V30 71415 H 6654.6 6.13835 -3.53004 0
M  V30 71416 H 6655.01 5.27133 -2.01969 0
M  V30 71417 N 6654.41 1.05445 1.17129 0
M  V30 71418 C 6655.82 0.776274 1.39449 0
M  V30 71419 C 6656.02 -0.628206 1.91457 0
M  V30 71420 O 6655.08 -1.3902 2.10784 0
M  V30 71421 C 6656.39 1.83401 2.38295 0
M  V30 71422 C 6657.94 1.85652 2.51997 0
M  V30 71423 C 6658.41 2.90455 3.54118 0
M  V30 71424 N 6659.91 2.89434 3.61638 0
M  V30 71425 C 6660.64 3.67175 4.4042 0
M  V30 71426 N 6660.14 4.54709 5.22697 0
M  V30 71427 N 6661.93 3.55604 4.35319 0
M  V30 71428 H 6654.08 1.96057 0.817031 0
M  V30 71429 H 6656.34 0.849101 0.421581 0
M  V30 71430 H 6656.05 2.84215 2.07158 0
M  V30 71431 H 6655.92 1.67778 3.37832 0
M  V30 71432 H 6658.31 0.855009 2.82442 0
M  V30 71433 H 6658.39 2.05352 1.52526 0
M  V30 71434 H 6658.04 3.90794 3.24411 0
M  V30 71435 H 6657.97 2.68007 4.53299 0
M  V30 71436 H 6660.46 2.25968 3.02897 0
M  V30 71437 H 6660.77 5.10705 5.80001 0
M  V30 71438 H 6659.11 4.58769 5.22069 0
M  V30 71439 H 6662.31 2.86612 3.70096 0
M  V30 71440 H 6662.48 4.16436 4.96472 0
M  V30 71441 N 6655.88 -1.3361 0.835823 0
M  V30 71442 C 6656.82 -2.27214 0.211935 0
M  V30 71443 C 6657.8 -1.4951 -0.63917 0
M  V30 71444 O 6658.98 -1.78693 -0.600099 0
M  V30 71445 C 6656.11 -3.3133 -0.702719 0
M  V30 71446 C 6655.15 -4.26438 0.0725298 0
M  V30 71447 S 6655.99 -5.16098 1.42838 0
M  V30 71448 C 6657.14 -6.23745 0.518942 0
M  V30 71449 H 6657.37 -2.79781 1.00548 0
M  V30 71450 H 6654.91 -1.40854 0.63241 0
M  V30 71451 H 6656.87 -3.91801 -1.22484 0
M  V30 71452 H 6655.53 -2.77584 -1.4699 0
M  V30 71453 H 6654.72 -5.00131 -0.623327 0
M  V30 71454 H 6654.32 -3.70288 0.525619 0
M  V30 71455 H 6656.61 -6.76903 -0.284421 0
M  V30 71456 H 6657.56 -6.97407 1.22593 0
M  V30 71457 H 6657.96 -5.64408 0.101642 0
M  V30 71458 N 6657.36 -0.591973 -1.4606 0
M  V30 71459 C 6658.29 0.12355 -2.33173 0
M  V30 71460 C 6659.27 0.874453 -1.45902 0
M  V30 71461 O 6660.46 0.848089 -1.74703 0
M  V30 71462 C 6657.59 1.13176 -3.28342 0
M  V30 71463 C 6656.54 0.4951 -4.25127 0
M  V30 71464 C 6655.87 1.61045 -5.09871 0
M  V30 71465 C 6657.17 -0.573699 -5.1914 0
M  V30 71466 H 6658.86 -0.603801 -2.93248 0
M  V30 71467 H 6656.41 -0.291815 -1.41012 0
M  V30 71468 H 6658.36 1.64076 -3.88145 0
M  V30 71469 H 6657.09 1.88951 -2.66393 0
M  V30 71470 H 6655.74 0.0071012 -3.66599 0
M  V30 71471 H 6655.39 2.35809 -4.44301 0
M  V30 71472 H 6655.09 1.19004 -5.75423 0
M  V30 71473 H 6656.62 2.12203 -5.7254 0
M  V30 71474 H 6658.03 -0.149402 -5.73105 0
M  V30 71475 H 6656.43 -0.914948 -5.93084 0
M  V30 71476 H 6657.5 -1.45641 -4.62511 0
M  V30 71477 N 6658.84 1.54101 -0.330258 0
M  V30 71478 C 6659.8 2.23223 0.520026 0
M  V30 71479 C 6660.8 1.22792 1.03821 0
M  V30 71480 O 6661.99 1.47325 0.929574 0
M  V30 71481 C 6659.13 2.94151 1.72301 0
M  V30 71482 H 6660.32 2.99781 -0.0843186 0
M  V30 71483 H 6657.87 1.56088 -0.0814256 0
M  V30 71484 H 6658.61 2.21746 2.36641 0
M  V30 71485 H 6658.39 3.67804 1.35879 0
M  V30 71486 H 6659.88 3.46796 2.32642 0
M  V30 71487 N 6660.32 0.0585753 1.57491 0
M  V30 71488 C 6661.25 -0.911065 2.14993 0
M  V30 71489 C 6662.23 -1.31947 1.0735 0
M  V30 71490 O 6663.41 -1.39287 1.35325 0
M  V30 71491 C 6660.54 -2.18332 2.70089 0
M  V30 71492 C 6659.5 -1.91475 3.82781 0
M  V30 71493 C 6658.82 -3.25219 4.24425 0
M  V30 71494 C 6660.12 -1.23048 5.07599 0
M  V30 71495 H 6661.82 -0.43209 2.96266 0
M  V30 71496 H 6659.36 -0.206394 1.42513 0
M  V30 71497 H 6661.32 -2.86571 3.08958 0
M  V30 71498 H 6660.04 -2.68449 1.86019 0
M  V30 71499 H 6658.7 -1.25646 3.44396 0
M  V30 71500 H 6658.35 -3.7315 3.37295 0
M  V30 71501 H 6658.05 -3.08044 5.00382 0
M  V30 71502 H 6659.57 -3.94677 4.659 0
M  V30 71503 H 6660.99 -1.81334 5.43867 0
M  V30 71504 H 6659.38 -1.16176 5.88747 0
M  V30 71505 H 6660.45 -0.207592 4.84455 0
M  V30 71506 N 6661.8 -1.56128 -0.214875 0
M  V30 71507 C 6663.04 -1.79451 -0.938277 0
M  V30 71508 C 6663.37 -0.628475 -1.84066 0
M  V30 71509 O 6662.63 0.386823 -1.91839 0
M  V30 71510 C 6662.93 -3.0859 -1.80298 0
M  V30 71511 C 6662.59 -4.38426 -1.05326 0
M  V30 71512 C 6661.25 -4.73702 -0.846185 0
M  V30 71513 C 6663.61 -5.18556 -0.524315 0
M  V30 71514 C 6660.93 -5.86618 -0.0983736 0
M  V30 71515 C 6663.29 -6.32251 0.210187 0
M  V30 71516 C 6661.95 -6.66124 0.428453 0
M  V30 71517 H 6661.22 -0.656657 -0.34334 0
M  V30 71518 H 6663.87 -1.90389 -0.205977 0
M  V30 71519 H 6662.17 -2.92802 -2.60335 0
M  V30 71520 H 6663.87 -3.23837 -2.36496 0
M  V30 71521 H 6660.46 -4.10732 -1.22464 0
M  V30 71522 H 6664.64 -4.91733 -0.671749 0
M  V30 71523 H 6659.9 -6.11346 0.0808977 0
M  V30 71524 H 6664.07 -6.93567 0.627523 0
M  V30 71525 H 6661.7 -7.53463 1.00984 0
M  V30 71526 N 6663.27 0.481841 -1.50054 0
M  V30 71527 C 6664.52 1.23652 -1.60742 0
M  V30 71528 C 6664.85 1.91839 -0.301887 0
M  V30 71529 O 6664.13 1.81623 0.695929 0
M  V30 71530 C 6664.41 2.28859 -2.78021 0
M  V30 71531 C 6664.26 1.65047 -4.18425 0
M  V30 71532 C 6665.58 3.30264 -2.90884 0
M  V30 71533 H 6662.7 0.448197 -0.585054 0
M  V30 71534 H 6665.34 0.53185 -1.82404 0
M  V30 71535 H 6663.49 2.8896 -2.59682 0
M  V30 71536 H 6665.17 1.08627 -4.48328 0
M  V30 71537 H 6663.41 0.953925 -4.23182 0
M  V30 71538 H 6664.08 2.41448 -4.96394 0
M  V30 71539 H 6666.56 2.80175 -3.07638 0
M  V30 71540 H 6665.43 4.01218 -3.74587 0
M  V30 71541 H 6665.69 3.93744 -2.01042 0
M  V30 71542 N 6664.75 1.3945 0.734264 0
M  V30 71543 C 6665.72 1.38004 1.82996 0
M  V30 71544 C 6666.72 0.277022 1.58396 0
M  V30 71545 O 6667.91 0.534963 1.65782 0
M  V30 71546 C 6665.04 1.15336 3.20796 0
M  V30 71547 H 6666.23 2.35504 1.85682 0
M  V30 71548 H 6663.78 1.25026 0.937993 0
M  V30 71549 H 6664.52 0.185207 3.23771 0
M  V30 71550 H 6664.3 1.95215 3.40049 0
M  V30 71551 H 6665.79 1.17067 4.00855 0
M  V30 71552 N 6666.23 -0.964527 1.24638 0
M  V30 71553 C 6667.48 -1.70791 1.08797 0
M  V30 71554 C 6667.81 -1.90896 -0.372682 0
M  V30 71555 O 6667.06 -1.47025 -1.2916 0
M  V30 71556 C 6667.36 -3.10124 1.77646 0
M  V30 71557 C 6667.03 -3.09849 3.27573 0
M  V30 71558 C 6665.69 -3.09482 3.68476 0
M  V30 71559 C 6668.04 -3.03937 4.23405 0
M  V30 71560 C 6665.37 -3.00938 5.0364 0
M  V30 71561 C 6667.72 -2.96936 5.5858 0
M  V30 71562 C 6666.38 -2.94898 5.98825 0
M  V30 71563 H 6665.65 -0.624967 0.398117 0
M  V30 71564 H 6668.3 -1.12759 1.54782 0
M  V30 71565 H 6666.61 -3.71639 1.24064 0
M  V30 71566 H 6668.3 -3.66443 1.62852 0
M  V30 71567 H 6664.89 -3.10902 2.95022 0
M  V30 71568 H 6669.08 -3.03348 3.92803 0
M  V30 71569 H 6664.33 -2.97724 5.34014 0
M  V30 71570 H 6668.51 -2.91321 6.32539 0
M  V30 71571 H 6666.13 -2.88034 7.0352 0
M  V30 71572 N 6667.71 -1.06064 -1.16568 0
M  V30 71573 C 6668.67 -0.673507 -2.19081 0
M  V30 71574 C 6669.67 0.279564 -1.58351 0
M  V30 71575 O 6670.86 0.062257 -1.74089 0
M  V30 71576 C 6667.99 0.00936257 -3.40899 0
M  V30 71577 H 6669.19 -1.58095 -2.54845 0
M  V30 71578 H 6666.74 -0.855585 -1.30803 0
M  V30 71579 H 6667.48 0.929662 -3.10689 0
M  V30 71580 H 6667.26 -0.675934 -3.8623 0
M  V30 71581 H 6668.75 0.266025 -4.16752 0
M  V30 71582 N 6669.19 1.33165 -0.842897 0
M  V30 71583 C 6670.44 1.96913 -0.436842 0
M  V30 71584 C 6670.75 1.67497 1.01016 0
M  V30 71585 O 6671.96 2.24889 1.52108 0
M  V30 71586 C 6670.41 3.52415 -0.730206 0
M  V30 71587 C 6670.02 3.90703 -2.19215 0
M  V30 71588 C 6671.76 4.22693 -0.391299 0
M  V30 71589 C 6669.67 5.392 -2.42936 0
M  V30 71590 H 6668.6 0.736911 -0.159619 0
M  V30 71591 H 6671.25 1.51727 -1.03204 0
M  V30 71592 H 6669.63 3.95947 -0.0645843 0
M  V30 71593 H 6670.81 3.58216 -2.89859 0
M  V30 71594 H 6669.12 3.33417 -2.49443 0
M  V30 71595 H 6671.72 5.31904 -0.546097 0
M  V30 71596 H 6672.06 4.10937 0.666078 0
M  V30 71597 H 6672.6 3.84704 -1.01232 0
M  V30 71598 H 6669.33 5.55963 -3.47253 0
M  V30 71599 H 6668.85 5.73133 -1.76858 0
M  V30 71600 H 6670.53 6.06136 -2.26292 0
M  V30 71601 N 6670.67 0.599711 1.45744 0
M  V30 71602 C 6671.61 -0.136304 2.322 0
M  V30 71603 C 6672.61 -0.867506 1.45502 0
M  V30 71604 O 6673.81 -0.783965 1.62031 0
M  V30 71605 H 6670.19 -0.0628193 0.749372 0
M  V30 71606 H 6672.16 0.611435 2.92069 0
M  V30 71607 C 6670.91 -1.12549 3.2898 0
M  V30 71608 H 6670.23 -0.572275 3.95683 0
M  V30 71609 H 6671.67 -1.61056 3.9222 0
M  V30 71610 C 6670.13 -2.19509 2.55573 0
M  V30 71611 O 6670.66 -3.2713 2.33128 0
M  V30 71612 N 6668.87 -1.94578 2.15842 0
M  V30 71613 H 6668.41 -1.07066 2.34296 0
M  V30 71614 H 6668.37 -2.6635 1.67048 0
M  V30 71615 N 6672.14 -1.53923 0.338426 0
M  V30 71616 C 6673.39 -2.00828 -0.259653 0
M  V30 71617 C 6673.72 -1.22636 -1.50966 0
M  V30 71618 O 6672.97 -0.300611 -1.93377 0
M  V30 71619 C 6673.27 -3.51905 -0.624295 0
M  V30 71620 C 6672.94 -4.47795 0.528242 0
M  V30 71621 C 6671.6 -4.73731 0.844548 0
M  V30 71622 C 6673.95 -5.04683 1.3017 0
M  V30 71623 C 6671.28 -5.53811 1.93677 0
M  V30 71624 C 6673.63 -5.85954 2.38412 0
M  V30 71625 C 6672.3 -6.10186 2.70608 0
M  V30 71626 H 6671.57 -0.734883 -0.0950136 0
M  V30 71627 H 6674.21 -1.85762 0.46528 0
M  V30 71628 H 6672.52 -3.64777 -1.42987 0
M  V30 71629 H 6674.22 -3.85651 -1.09885 0
M  V30 71630 H 6670.81 -4.27738 0.271647 0
M  V30 71631 H 6674.99 -4.84615 1.07059 0
M  V30 71632 H 6670.25 -5.70812 2.19051 0
M  V30 71633 H 6674.42 -6.2905 2.98779 0
M  V30 71634 H 6672.05 -6.72025 3.55368 0
M  V30 71635 N 6673.62 -0.0669266 -1.57458 0
M  V30 71636 C 6674.87 0.602845 -1.9248 0
M  V30 71637 C 6675.18 1.71063 -0.94851 0
M  V30 71638 O 6676.39 2.43964 -1.19137 0
M  V30 71639 C 6674.85 1.12365 -3.41909 0
M  V30 71640 C 6674.45 0.0471338 -4.47975 0
M  V30 71641 C 6676.2 1.76777 -3.85941 0
M  V30 71642 C 6674.1 0.581712 -5.88532 0
M  V30 71643 H 6673.03 0.228952 -0.718399 0
M  V30 71644 H 6675.69 -0.138372 -1.82978 0
M  V30 71645 H 6674.07 1.91768 -3.46469 0
M  V30 71646 H 6675.24 -0.727218 -4.55025 0
M  V30 71647 H 6673.56 -0.500461 -4.13382 0
M  V30 71648 H 6676.15 2.17796 -4.88333 0
M  V30 71649 H 6676.5 2.62582 -3.23043 0
M  V30 71650 H 6677.03 1.04004 -3.83964 0
M  V30 71651 H 6673.77 -0.239066 -6.55064 0
M  V30 71652 H 6673.29 1.32369 -5.85011 0
M  V30 71653 H 6674.97 1.05966 -6.38263 0
M  V30 71654 N 6675.1 1.5624 0.206592 0
M  V30 71655 C 6676.03 1.96651 1.25899 0
M  V30 71656 C 6677.01 0.836812 1.48093 0
M  V30 71657 O 6678.2 1.10027 1.60024 0
M  V30 71658 C 6675.33 2.29612 2.60567 0
M  V30 71659 C 6674.28 3.45213 2.53006 0
M  V30 71660 C 6673.61 3.63819 3.91842 0
M  V30 71661 C 6674.91 4.79745 2.06499 0
M  V30 71662 H 6676.6 2.84811 0.923219 0
M  V30 71663 H 6674.15 1.37027 0.442663 0
M  V30 71664 H 6676.1 2.56476 3.34362 0
M  V30 71665 H 6674.82 1.38323 2.95862 0
M  V30 71666 H 6673.48 3.18422 1.81668 0
M  V30 71667 H 6673.13 2.6988 4.24469 0
M  V30 71668 H 6672.83 4.41581 3.8766 0
M  V30 71669 H 6674.35 3.93047 4.67275 0
M  V30 71670 H 6675.77 5.05716 2.70045 0
M  V30 71671 H 6674.16 5.60896 2.13344 0
M  V30 71672 H 6675.23 4.74099 1.01777 0
M  V30 71673 N 6676.58 -0.473876 1.50307 0
M  V30 71674 C 6677.51 -1.58033 1.71895 0
M  V30 71675 C 6678.49 -1.60341 0.567883 0
M  V30 71676 O 6679.67 -1.76651 0.806716 0
M  V30 71677 C 6676.8 -2.96374 1.81052 0
M  V30 71678 C 6675.76 -3.08933 2.96217 0
M  V30 71679 C 6675.08 -4.48894 2.90514 0
M  V30 71680 C 6676.38 -2.86411 4.36767 0
M  V30 71681 H 6678.08 -1.4022 2.64535 0
M  V30 71682 H 6675.62 -0.673134 1.27299 0
M  V30 71683 H 6677.58 -3.73704 1.94739 0
M  V30 71684 H 6676.3 -3.15337 0.850313 0
M  V30 71685 H 6674.96 -2.34035 2.82176 0
M  V30 71686 H 6674.61 -4.64771 1.92345 0
M  V30 71687 H 6674.31 -4.58233 3.67826 0
M  V30 71688 H 6675.83 -5.28248 3.06246 0
M  V30 71689 H 6677.25 -3.53493 4.51349 0
M  V30 71690 H 6675.64 -3.07198 5.15509 0
M  V30 71691 H 6676.71 -1.82292 4.4933 0
M  V30 71692 N 6678.06 -1.39838 -0.726858 0
M  V30 71693 C 6679.3 -1.37504 -1.48657 0
M  V30 71694 C 6679.63 0.0263653 -1.94482 0
M  V30 71695 O 6678.89 1.00877 -1.67697 0
M  V30 71696 C 6679.18 -2.30091 -2.73483 0
M  V30 71697 C 6678.85 -3.77568 -2.46482 0
M  V30 71698 C 6677.51 -4.17749 -2.38828 0
M  V30 71699 C 6679.86 -4.7081 -2.23579 0
M  V30 71700 C 6677.19 -5.49224 -2.06324 0
M  V30 71701 C 6679.54 -6.02571 -1.9259 0
M  V30 71702 C 6678.21 -6.41808 -1.8341 0
M  V30 71703 H 6677.48 -0.503163 -0.543974 0
M  V30 71704 H 6680.13 -1.72406 -0.833566 0
M  V30 71705 H 6678.43 -1.88335 -3.43565 0
M  V30 71706 H 6680.13 -2.25575 -3.31537 0
M  V30 71707 H 6676.72 -3.45726 -2.53321 0
M  V30 71708 H 6680.9 -4.40593 -2.28455 0
M  V30 71709 H 6676.16 -5.78539 -1.97745 0
M  V30 71710 H 6680.33 -6.74343 -1.73879 0
M  V30 71711 H 6677.96 -7.43602 -1.5799 0
M  V30 71712 N 6679.53 0.957904 -1.25148 0
M  V30 71713 C 6680.76 1.73433 -1.1227 0
M  V30 71714 C 6681.17 1.86359 0.326617 0
M  V30 71715 O 6680.51 1.35842 1.23663 0
M  V30 71716 C 6680.58 3.16775 -1.69983 0
M  V30 71717 C 6680.24 3.27289 -3.18953 0
M  V30 71718 C 6681.24 3.11855 -4.15984 0
M  V30 71719 C 6678.92 3.51215 -3.59101 0
M  V30 71720 C 6680.92 3.20188 -5.51143 0
M  V30 71721 C 6678.6 3.59184 -4.94398 0
M  V30 71722 C 6679.6 3.43684 -5.90229 0
M  V30 71723 O 6679.29 3.5133 -7.23065 0
M  V30 71724 H 6679.02 0.550378 -0.392505 0
M  V30 71725 H 6681.58 1.21059 -1.65933 0
M  V30 71726 H 6679.81 3.70498 -1.10763 0
M  V30 71727 H 6681.49 3.76264 -1.52252 0
M  V30 71728 H 6682.26 2.93243 -3.86307 0
M  V30 71729 H 6678.14 3.62341 -2.85008 0
M  V30 71730 H 6681.68 3.08007 -6.25921 0
M  V30 71731 H 6677.58 3.77312 -5.23743 0
M  V30 71732 H 6678.35 3.67982 -7.31117 0
M  V30 71733 N 6681.01 1.06681 1.16004 0
M  V30 71734 C 6681.96 0.681083 2.20522 0
M  V30 71735 C 6682.93 -0.324198 1.62905 0
M  V30 71736 O 6684.11 -0.212194 1.89616 0
M  V30 71737 C 6681.25 0.077837 3.45012 0
M  V30 71738 C 6680.37 1.13377 4.16857 0
M  V30 71739 C 6679.5 0.496249 5.28877 0
M  V30 71740 C 6678.54 1.53544 5.92529 0
M  V30 71741 N 6677.68 0.920999 6.96033 0
M  V30 71742 H 6682.52 1.57676 2.52868 0
M  V30 71743 H 6680.06 0.788288 1.24195 0
M  V30 71744 H 6682.01 -0.289484 4.16194 0
M  V30 71745 H 6680.64 -0.781228 3.13204 0
M  V30 71746 H 6679.7 1.61875 3.44239 0
M  V30 71747 H 6681.01 1.92199 4.60284 0
M  V30 71748 H 6680.16 0.0761803 6.06652 0
M  V30 71749 H 6678.9 -0.323805 4.86624 0
M  V30 71750 H 6677.91 1.96537 5.13472 0
M  V30 71751 H 6679.13 2.35766 6.3686 0
M  V30 71752 H 6677.08 0.121726 6.55887 0
M  V30 71753 H 6676.99 1.64655 7.37852 0
M  V30 71754 H 6678.26 0.526205 7.77722 0
M  V30 71755 N 6682.49 -1.32716 0.849947 0
M  V30 71756 C 6683.74 -1.97706 0.451695 0
M  V30 71757 C 6684.07 -1.67125 -0.989087 0
M  V30 71758 O 6683.34 -0.956981 -1.69328 0
M  V30 71759 C 6683.63 -3.5351 0.685784 0
M  V30 71760 C 6683.48 -3.93738 2.17464 0
M  V30 71761 C 6684.8 -4.3988 0.139106 0
M  V30 71762 H 6681.92 -0.718157 0.165588 0
M  V30 71763 H 6684.56 -1.57176 1.0675 0
M  V30 71764 H 6682.71 -3.88164 0.16162 0
M  V30 71765 H 6684.38 -3.69286 2.76452 0
M  V30 71766 H 6682.63 -3.43067 2.65495 0
M  V30 71767 H 6683.3 -5.02297 2.28914 0
M  V30 71768 H 6685.77 -4.11935 0.587285 0
M  V30 71769 H 6684.65 -5.47892 0.332502 0
M  V30 71770 H 6684.91 -4.31599 -0.957832 0
M  V30 71771 N 6683.97 -0.607431 -1.45424 0
M  V30 71772 C 6685.19 -0.107115 -2.07123 0
M  V30 71773 C 6685.62 1.19926 -1.44912 0
M  V30 71774 O 6684.98 1.73016 -0.541778 0
M  V30 71775 C 6685.02 0.0192217 -3.60595 0
M  V30 71776 O 6684.13 1.06949 -3.98291 0
M  V30 71777 H 6683.47 -0.0739945 -0.659864 0
M  V30 71778 H 6686 -0.837396 -1.86678 0
M  V30 71779 H 6686.01 0.217485 -4.0742 0
M  V30 71780 H 6684.68 -0.934666 -4.05261 0
M  V30 71781 H 6683.26 0.847697 -3.63137 0
M  V30 71782 N 6685.45 1.53742 -0.346584 0
M  V30 71783 C 6686.67 2.0538 0.250302 0
M  V30 71784 C 6687.09 1.22136 1.43973 0
M  V30 71785 O 6686.45 0.257417 1.80675 0
M  V30 71786 C 6686.5 3.5538 0.662387 0
M  V30 71787 O 6686.22 4.35465 -0.479745 0
M  V30 71788 C 6687.72 4.23202 1.31967 0
M  V30 71789 H 6684.94 0.669296 0.0477845 0
M  V30 71790 H 6687.48 1.98307 -0.499451 0
M  V30 71791 H 6685.64 3.62665 1.36208 0
M  V30 71792 H 6686.05 5.24284 -0.150646 0
M  V30 71793 H 6687.53 5.29535 1.55874 0
M  V30 71794 H 6688 3.75737 2.27417 0
M  V30 71795 H 6688.61 4.20117 0.661932 0
M  V30 71796 N 6686.92 0.075276 1.5742 0
M  V30 71797 C 6688.15 -0.605411 1.98367 0
M  V30 71798 C 6688.57 -1.62144 0.953469 0
M  V30 71799 O 6687.93 -1.81121 -0.0805097 0
M  V30 71800 C 6687.98 -1.24738 3.38338 0
M  V30 71801 O 6687.08 -2.36324 3.37971 0
M  V30 71802 H 6686.43 -0.155394 0.645561 0
M  V30 71803 H 6688.96 0.150821 2.04043 0
M  V30 71804 H 6688.97 -1.5934 3.75599 0
M  V30 71805 H 6687.64 -0.502911 4.12848 0
M  V30 71806 H 6686.22 -2.0349 3.12484 0
M  V30 71807 N 6688.4 -1.56347 -0.198304 0
M  V30 71808 C 6689.63 -1.84896 -0.939585 0
M  V30 71809 C 6690.05 -0.658462 -1.76198 0
M  V30 71810 O 6689.41 0.392757 -1.76995 0
M  V30 71811 C 6689.46 -3.11644 -1.81411 0
M  V30 71812 O 6688.56 -2.91971 -2.9125 0
M  V30 71813 H 6687.9 -0.608925 -0.264775 0
M  V30 71814 H 6690.43 -2.03575 -0.204588 0
M  V30 71815 H 6690.44 -3.42355 -2.2194 0
M  V30 71816 H 6689.12 -3.97914 -1.20983 0
M  V30 71817 H 6687.7 -2.72551 -2.545 0
M  V30 71818 N 6689.88 0.465898 -1.50556 0
M  V30 71819 C 6691.13 1.2194 -1.62045 0
M  V30 71820 C 6691.46 1.91508 -0.322217 0
M  V30 71821 O 6690.73 1.82351 0.676627 0
M  V30 71822 C 6691.02 2.25897 -2.80432 0
M  V30 71823 C 6690.87 1.606 -4.20152 0
M  V30 71824 C 6692.19 3.2716 -2.94371 0
M  V30 71825 H 6689.31 0.441967 -0.589775 0
M  V30 71826 H 6691.95 0.512473 -1.82958 0
M  V30 71827 H 6690.1 2.86189 -2.62732 0
M  V30 71828 H 6691.77 1.03865 -4.49455 0
M  V30 71829 H 6690.02 0.908988 -4.2417 0
M  V30 71830 H 6690.69 2.36169 -4.98927 0
M  V30 71831 H 6693.16 2.76896 -3.10592 0
M  V30 71832 H 6692.04 3.97222 -3.78821 0
M  V30 71833 H 6692.3 3.9159 -2.05207 0
M  V30 71834 N 6691.36 1.40221 0.719432 0
M  V30 71835 C 6692.6 1.38495 1.48145 0
M  V30 71836 C 6692.94 -0.0140843 1.94195 0
M  V30 71837 O 6692.21 -0.982008 1.67889 0
M  V30 71838 C 6692.5 2.37105 2.71022 0
M  V30 71839 C 6692.35 3.86017 2.30891 0
M  V30 71840 C 6693.67 2.33308 3.73169 0
M  V30 71841 H 6690.79 0.504385 0.537368 0
M  V30 71842 H 6693.43 1.71328 0.821382 0
M  V30 71843 H 6691.58 2.09237 3.27341 0
M  V30 71844 H 6693.25 4.24697 1.80084 0
M  V30 71845 H 6691.49 4.02037 1.62937 0
M  V30 71846 H 6692.16 4.50525 3.18954 0
M  V30 71847 H 6694.64 2.57984 3.26472 0
M  V30 71848 H 6693.52 3.04358 4.5679 0
M  V30 71849 H 6693.78 1.34339 4.21195 0
M  V30 71850 N 6692.84 -0.951253 1.25654 0
M  V30 71851 C 6693.75 -2.08218 1.08084 0
M  V30 71852 C 6694.76 -1.73992 0.0170583 0
M  V30 71853 O 6695.94 -2.00209 0.218699 0
M  V30 71854 C 6693 -3.39454 0.705101 0
M  V30 71855 C 6692.06 -3.87527 1.8472 0
M  V30 71856 C 6691.3 -5.125 1.48929 0
M  V30 71857 O 6691.52 -5.69089 0.386456 0
M  V30 71858 O 6690.45 -5.55365 2.32063 0
M  V30 71859 H 6694.28 -2.25944 2.02936 0
M  V30 71860 H 6691.87 -1.0665 1.04623 0
M  V30 71861 H 6693.75 -4.18329 0.50783 0
M  V30 71862 H 6692.42 -3.22991 -0.214121 0
M  V30 71863 H 6691.33 -3.09642 2.09935 0
M  V30 71864 H 6692.66 -4.08494 2.74578 0
M  V30 71865 N 6694.31 -1.07295 -1.15437 0
M  V30 71866 C 6695.56 -0.794194 -1.85841 0
M  V30 71867 C 6695.88 0.681712 -1.82696 0
M  V30 71868 O 6695.15 1.4937 -1.26749 0
M  V30 71869 H 6693.73 -0.290799 -0.688073 0
M  V30 71870 H 6696.4 -1.35657 -1.3994 0
M  V30 71871 H 6695.49 -1.12819 -2.90995 0
M  V30 71872 N 6695.79 1.32264 -0.856973 0
M  V30 71873 C 6696.74 2.28825 -0.301293 0
M  V30 71874 C 6697.71 1.55153 0.593022 0
M  V30 71875 O 6698.9 1.83365 0.52744 0
M  V30 71876 C 6696.04 3.41424 0.502343 0
M  V30 71877 C 6695.15 4.29973 -0.418024 0
M  V30 71878 C 6694.28 5.29703 0.398469 0
M  V30 71879 C 6693.32 6.09894 -0.519149 0
M  V30 71880 N 6692.46 7.01617 0.260304 0
M  V30 71881 H 6697.3 2.75746 -1.12997 0
M  V30 71882 H 6694.84 1.35664 -0.568654 0
M  V30 71883 H 6696.79 4.05432 0.983927 0
M  V30 71884 H 6695.42 2.95648 1.29583 0
M  V30 71885 H 6694.48 3.66525 -1.01801 0
M  V30 71886 H 6695.79 4.86013 -1.12217 0
M  V30 71887 H 6694.94 5.99325 0.943119 0
M  V30 71888 H 6693.68 4.74286 1.13597 0
M  V30 71889 H 6692.69 5.39175 -1.07566 0
M  V30 71890 H 6693.91 6.67397 -1.2553 0
M  V30 71891 H 6691.86 6.48626 0.980856 0
M  V30 71892 H 6691.77 7.5502 -0.384762 0
M  V30 71893 H 6693.04 7.75521 0.786605 0
M  V30 71894 N 6697.27 0.615135 1.45099 0
M  V30 71895 C 6698.18 -0.100911 2.34383 0
M  V30 71896 C 6699.2 -0.852505 1.51685 0
M  V30 71897 O 6700.37 -0.808387 1.84464 0
M  V30 71898 C 6697.44 -1.08081 3.29423 0
M  V30 71899 C 6696.5 -0.330351 4.28027 0
M  V30 71900 C 6695.73 -1.26358 5.18526 0
M  V30 71901 O 6695.96 -2.50171 5.12612 0
M  V30 71902 O 6694.89 -0.756552 5.97126 0
M  V30 71903 H 6698.72 0.633012 2.9703 0
M  V30 71904 H 6696.3 0.375369 1.44608 0
M  V30 71905 H 6698.18 -1.645 3.87966 0
M  V30 71906 H 6696.86 -1.79563 2.6933 0
M  V30 71907 H 6695.76 0.27648 3.73077 0
M  V30 71908 H 6697.1 0.344125 4.90996 0
M  V30 71909 N 6698.75 -1.53556 0.354732 0
M  V30 71910 C 6699.68 -2.28323 -0.488971 0
M  V30 71911 C 6700.66 -1.30322 -1.09317 0
M  V30 71912 O 6701.85 -1.59179 -1.11246 0
M  V30 71913 C 6698.98 -3.06439 -1.63439 0
M  V30 71914 C 6697.93 -4.12037 -1.15798 0
M  V30 71915 C 6697.26 -4.78173 -2.3928 0
M  V30 71916 C 6698.56 -5.21699 -0.250456 0
M  V30 71917 H 6700.25 -2.99097 0.134772 0
M  V30 71918 H 6697.8 -1.43847 0.0662585 0
M  V30 71919 H 6699.75 -3.57487 -2.23117 0
M  V30 71920 H 6698.47 -2.33337 -2.2852 0
M  V30 71921 H 6697.13 -3.61919 -0.583955 0
M  V30 71922 H 6696.78 -4.01653 -3.02793 0
M  V30 71923 H 6696.48 -5.49524 -2.0808 0
M  V30 71924 H 6698 -5.3201 -2.99663 0
M  V30 71925 H 6699.42 -5.68315 -0.754395 0
M  V30 71926 H 6697.81 -6.00093 -0.0298303 0
M  V30 71927 H 6698.88 -4.79668 0.710378 0
M  V30 71928 N 6700.23 -0.0836233 -1.57378 0
M  V30 71929 C 6701.64 0.447262 -1.81263 0
M  V30 71930 C 6701.99 1.68896 -0.99842 0
M  V30 71931 O 6701.11 2.15233 -0.224396 0
M  V30 71932 C 6701.71 0.818213 -3.28772 0
M  V30 71933 C 6700.27 1.2939 -3.53462 0
M  V30 71934 C 6699.42 0.284879 -2.75833 0
M  V30 71935 H 6702.37 -0.309197 -1.55659 0
M  V30 71936 H 6702.39 1.67869 -3.41468 0
M  V30 71937 H 6701.9 -0.0857065 -3.88005 0
M  V30 71938 H 6700 2.21592 -2.99546 0
M  V30 71939 H 6700.11 1.26366 -4.62135 0
M  V30 71940 H 6698.48 0.764639 -2.42951 0
M  V30 71941 H 6699.26 -0.611519 -3.3781 0
M  V30 71942 N 6701.71 1.5645 0.190009 0
M  V30 71943 C 6702.93 1.85037 0.925675 0
M  V30 71944 C 6703.35 0.666751 1.76635 0
M  V30 71945 O 6702.71 -0.364471 1.78824 0
M  V30 71946 C 6702.76 3.12477 1.81769 0
M  V30 71947 O 6702.48 4.26276 1.01096 0
M  V30 71948 C 6703.98 3.54279 2.66461 0
M  V30 71949 H 6701.2 0.614352 0.269839 0
M  V30 71950 H 6703.74 2.03561 0.19573 0
M  V30 71951 H 6701.9 2.95836 2.5012 0
M  V30 71952 H 6702.31 4.98878 1.61929 0
M  V30 71953 H 6703.79 4.46402 3.24698 0
M  V30 71954 H 6704.26 2.77509 3.4042 0
M  V30 71955 H 6704.87 3.73468 2.03473 0
M  V30 71956 N 6703.18 -0.457907 1.50801 0
M  V30 71957 C 6704.6 -0.792746 1.3852 0
M  V30 71958 C 6704.8 -1.96376 0.451512 0
M  V30 71959 O 6703.86 -2.52298 -0.100987 0
M  V30 71960 C 6705.17 -1.09243 2.80154 0
M  V30 71961 C 6706.72 -1.1981 2.89162 0
M  V30 71962 C 6707.19 -1.53083 4.31659 0
M  V30 71963 N 6708.68 -1.60049 4.34671 0
M  V30 71964 C 6709.42 -1.87325 5.41938 0
M  V30 71965 N 6708.91 -2.12533 6.59395 0
M  V30 71966 N 6710.71 -1.88937 5.29395 0
M  V30 71967 H 6702.86 0.313622 2.10072 0
M  V30 71968 H 6705.12 0.077836 0.944799 0
M  V30 71969 H 6704.83 -0.304899 3.50376 0
M  V30 71970 H 6704.7 -2.02533 3.18214 0
M  V30 71971 H 6707.09 -1.97628 2.19151 0
M  V30 71972 H 6707.17 -0.244687 2.54627 0
M  V30 71973 H 6706.81 -0.758002 5.02212 0
M  V30 71974 H 6706.74 -2.49596 4.63691 0
M  V30 71975 H 6709.23 -1.42555 3.49981 0
M  V30 71976 H 6709.55 -2.32658 7.36947 0
M  V30 71977 H 6707.89 -2.09898 6.62546 0
M  V30 71978 H 6711.08 -1.68749 4.36625 0
M  V30 71979 H 6711.26 -2.09858 6.13077 0
M  V30 71980 N 6704.66 -1.40601 -0.711986 0
M  V30 71981 C 6705.89 -1.42589 -1.50609 0
M  V30 71982 C 6706.31 -0.0283093 -1.88079 0
M  V30 71983 O 6705.67 0.964498 -1.53516 0
M  V30 71984 C 6705.72 -2.32595 -2.75558 0
M  V30 71985 O 6704.82 -1.77167 -3.72405 0
M  V30 71986 H 6704.16 -0.484597 -0.45394 0
M  V30 71987 H 6706.69 -1.84872 -0.876551 0
M  V30 71988 H 6706.7 -2.47906 -3.24047 0
M  V30 71989 H 6705.38 -3.34151 -2.47621 0
M  V30 71990 H 6703.95 -1.71221 -3.31267 0
M  V30 71991 N 6706.14 0.944576 -1.26157 0
M  V30 71992 C 6707.36 1.73014 -1.14372 0
M  V30 71993 C 6707.79 1.85731 0.297622 0
M  V30 71994 O 6707.15 1.34507 1.21563 0
M  V30 71995 C 6707.2 3.11654 -1.81394 0
M  V30 71996 O 6706.3 3.97447 -1.10043 0
M  V30 71997 H 6705.64 0.530958 -0.398722 0
M  V30 71998 H 6708.17 1.18328 -1.66912 0
M  V30 71999 H 6708.18 3.62062 -1.88083 0
M  V30 72000 H 6706.86 3.01715 -2.86253 0
M  V30 72001 H 6705.43 3.55901 -1.11306 0
M  V30 72002 N 6707.62 1.07905 1.14866 0
M  V30 72003 C 6708.84 0.827026 1.90197 0
M  V30 72004 C 6709.27 -0.61457 1.77777 0
M  V30 72005 O 6708.63 -1.43007 1.11439 0
M  V30 72006 C 6708.67 1.2472 3.38345 0
M  V30 72007 O 6707.78 0.395967 4.10495 0
M  V30 72008 H 6707.12 0.300813 0.591952 0
M  V30 72009 H 6709.65 1.43915 1.45429 0
M  V30 72010 H 6709.66 1.22583 3.8915 0
M  V30 72011 H 6708.33 2.29716 3.46703 0
M  V30 72012 H 6706.91 0.480312 3.69794 0
M  V30 72013 N 6709.1 -1.31808 0.863975 0
M  V30 72014 C 6710.01 -2.32427 0.318584 0
M  V30 72015 C 6711.02 -1.64454 -0.568409 0
M  V30 72016 O 6712.2 -1.95921 -0.466556 0
M  V30 72017 C 6709.26 -3.43414 -0.476174 0
M  V30 72018 C 6708.32 -4.27059 0.438065 0
M  V30 72019 C 6707.56 -5.32747 -0.318857 0
M  V30 72020 O 6707.78 -5.49001 -1.5477 0
M  V30 72021 O 6706.71 -6.01048 0.320178 0
M  V30 72022 H 6710.54 -2.80985 1.15244 0
M  V30 72023 H 6708.12 -1.35598 0.627174 0
M  V30 72024 H 6710.01 -4.11079 -0.92694 0
M  V30 72025 H 6708.68 -2.97029 -1.28668 0
M  V30 72026 H 6707.59 -3.6217 0.937204 0
M  V30 72027 H 6708.92 -4.76994 1.214 0
M  V30 72028 N 6710.57 -0.622821 -1.44771 0
M  V30 72029 C 6711.52 0.0993457 -2.32388 0
M  V30 72030 C 6712.52 0.844248 -1.46863 0
M  V30 72031 O 6713.72 0.758088 -1.63258 0
M  V30 72032 H 6710.1 0.0508895 -0.750276 0
M  V30 72033 H 6712.07 -0.657823 -2.91059 0
M  V30 72034 C 6710.82 1.07301 -3.30729 0
M  V30 72035 H 6710.14 0.509253 -3.96543 0
M  V30 72036 H 6711.58 1.54796 -3.94733 0
M  V30 72037 C 6710.04 2.15415 -2.59032 0
M  V30 72038 O 6710.57 3.2338 -2.38303 0
M  V30 72039 N 6708.78 1.91119 -2.1891 0
M  V30 72040 H 6708.32 1.03325 -2.3597 0
M  V30 72041 H 6708.28 2.63659 -1.71264 0
M  V30 72042 N 6712.05 1.53366 -0.362871 0
M  V30 72043 C 6713.02 2.24276 0.47256 0
M  V30 72044 C 6714.02 1.24966 1.01193 0
M  V30 72045 O 6715.21 1.49263 0.898115 0
M  V30 72046 C 6712.34 2.9774 1.66023 0
M  V30 72047 H 6713.53 2.99535 -0.147888 0
M  V30 72048 H 6711.08 1.5588 -0.114516 0
M  V30 72049 H 6711.82 2.26716 2.31884 0
M  V30 72050 H 6711.6 3.70603 1.28046 0
M  V30 72051 H 6713.09 3.51653 2.25233 0
M  V30 72052 N 6713.53 0.0919683 1.57331 0
M  V30 72053 C 6714.48 -0.868098 2.13852 0
M  V30 72054 C 6715.45 -1.2819 1.05624 0
M  V30 72055 O 6716.63 -1.3642 1.33395 0
M  V30 72056 C 6713.77 -2.12298 2.72073 0
M  V30 72057 C 6712.89 -1.75999 3.94523 0
M  V30 72058 C 6712.02 -2.9625 4.40919 0
M  V30 72059 C 6711.06 -2.56063 5.55966 0
M  V30 72060 N 6710.2 -3.69138 5.97228 0
M  V30 72061 H 6715.04 -0.37925 2.95577 0
M  V30 72062 H 6712.57 -0.175529 1.46049 0
M  V30 72063 H 6714.53 -2.85784 3.03946 0
M  V30 72064 H 6713.16 -2.58688 1.93081 0
M  V30 72065 H 6712.21 -0.92494 3.68984 0
M  V30 72066 H 6713.53 -1.42447 4.78027 0
M  V30 72067 H 6712.68 -3.77993 4.74559 0
M  V30 72068 H 6711.42 -3.3301 3.56309 0
M  V30 72069 H 6710.42 -1.72746 5.21957 0
M  V30 72070 H 6711.65 -2.2045 6.42323 0
M  V30 72071 H 6709.59 -4.05622 5.15564 0
M  V30 72072 H 6709.51 -3.39421 6.75522 0
M  V30 72073 H 6710.78 -4.514 6.35498 0
M  V30 72074 N 6715.01 -1.56549 -0.18171 0
M  V30 72075 C 6716.25 -1.81669 -0.901335 0
M  V30 72076 C 6716.59 -0.668172 -1.82343 0
M  V30 72077 O 6715.86 0.330514 -1.91671 0
M  V30 72078 C 6716.15 -3.17124 -1.70601 0
M  V30 72079 C 6716 -4.42488 -0.807731 0
M  V30 72080 C 6717.32 -3.49407 -2.67586 0
M  V30 72081 H 6714.44 -0.660863 -0.326235 0
M  V30 72082 H 6717.08 -1.89255 -0.168035 0
M  V30 72083 H 6715.23 -3.10787 -2.33117 0
M  V30 72084 H 6716.9 -4.60882 -0.196247 0
M  V30 72085 H 6715.14 -4.33647 -0.115182 0
M  V30 72086 H 6715.81 -5.33793 -1.40604 0
M  V30 72087 H 6718.29 -3.5613 -2.15199 0
M  V30 72088 H 6717.17 -4.45281 -3.20962 0
M  V30 72089 H 6717.43 -2.73581 -3.47284 0
M  V30 72090 N 6716.49 0.449904 -1.51042 0
M  V30 72091 C 6717.71 1.22311 -1.66876 0
M  V30 72092 C 6718.13 1.8532 -0.360825 0
M  V30 72093 O 6717.49 1.70169 0.659442 0
M  V30 72094 C 6717.54 2.31638 -2.77536 0
M  V30 72095 O 6717.26 1.71209 -4.03261 0
M  V30 72096 C 6718.76 3.22144 -3.04529 0
M  V30 72097 H 6715.98 0.369125 -0.560346 0
M  V30 72098 H 6718.52 0.534615 -1.97388 0
M  V30 72099 H 6716.68 2.96226 -2.49658 0
M  V30 72100 H 6717.09 2.43365 -4.64622 0
M  V30 72101 H 6718.57 3.95017 -3.85571 0
M  V30 72102 H 6719.04 3.82168 -2.16435 0
M  V30 72103 H 6719.65 2.63271 -3.34019 0
M  V30 72104 N 6717.96 1.40976 0.704519 0
M  V30 72105 C 6719.19 1.43386 1.49851 0
M  V30 72106 C 6719.61 0.0382832 1.88061 0
M  V30 72107 O 6718.97 -0.956343 1.54025 0
M  V30 72108 C 6719.02 2.34053 2.7432 0
M  V30 72109 O 6718.12 1.7914 3.7146 0
M  V30 72110 H 6717.47 0.486997 0.451364 0
M  V30 72111 H 6720 1.85334 0.866735 0
M  V30 72112 H 6720.01 2.49621 3.22728 0
M  V30 72113 H 6718.68 3.35459 2.45845 0
M  V30 72114 H 6717.26 1.72976 3.30354 0
M  V30 72115 N 6719.44 -0.937872 1.26656 0
M  V30 72116 C 6720.37 -2.05427 1.11004 0
M  V30 72117 C 6721.35 -1.70094 0.0143058 0
M  V30 72118 O 6722.54 -1.93298 0.186939 0
M  V30 72119 C 6719.67 -3.39199 0.74574 0
M  V30 72120 C 6718.62 -3.88606 1.79358 0
M  V30 72121 C 6717.95 -5.19067 1.28351 0
M  V30 72122 C 6719.25 -4.13121 3.19575 0
M  V30 72123 H 6720.94 -2.1878 2.04391 0
M  V30 72124 H 6718.49 -1.05126 0.984097 0
M  V30 72125 H 6720.44 -4.16768 0.623108 0
M  V30 72126 H 6719.17 -3.25832 -0.223838 0
M  V30 72127 H 6717.82 -3.13221 1.90494 0
M  V30 72128 H 6717.47 -5.02082 0.303679 0
M  V30 72129 H 6717.17 -5.53093 1.98398 0
M  V30 72130 H 6718.7 -5.99215 1.17361 0
M  V30 72131 H 6720.11 -4.81293 3.11497 0
M  V30 72132 H 6718.51 -4.58436 3.87242 0
M  V30 72133 H 6719.58 -3.18782 3.65385 0
M  V30 72134 N 6720.92 -1.08513 -1.14292 0
M  V30 72135 C 6722.2 -0.728184 -1.8154 0
M  V30 72136 C 6722.58 0.787977 -1.95842 0
M  V30 72137 O 6721.93 1.70689 -1.51913 0
M  V30 72138 C 6722.14 -1.45636 -3.17161 0
M  V30 72139 C 6723.48 -1.61611 -3.92641 0
M  V30 72140 O 6724.51 -1.4181 -3.26754 0
M  V30 72141 O 6723.37 -1.9429 -5.10797 0
M  V30 72142 H 6720.46 -0.260513 -0.784896 0
M  V30 72143 H 6723.01 -1.18677 -1.21301 0
M  V30 72144 H 6721.78 -2.48916 -3.01921 0
M  V30 72145 H 6721.4 -0.989327 -3.85095 0
M  V30 72146 N 6722.4 1.31347 -0.870953 0
M  V30 72147 C 6723.62 2.0138 -0.496063 0
M  V30 72148 C 6724.05 1.6494 0.904237 0
M  V30 72149 O 6723.41 0.85855 1.59683 0
M  V30 72150 C 6723.45 3.54478 -0.66162 0
M  V30 72151 O 6722.56 4.11317 0.298634 0
M  V30 72152 H 6721.9 0.634044 -0.197191 0
M  V30 72153 H 6724.43 1.67521 -1.17464 0
M  V30 72154 H 6724.44 4.04204 -0.555285 0
M  V30 72155 H 6723.11 3.80341 -1.68266 0
M  V30 72156 H 6721.69 3.72609 0.147172 0
M  V30 72157 N 6723.88 0.63049 1.44439 0
M  V30 72158 C 6725.1 0.140053 2.06927 0
M  V30 72159 C 6725.53 -1.17605 1.46802 0
M  V30 72160 O 6724.88 -1.72132 0.569235 0
M  V30 72161 C 6724.93 0.0381482 3.6058 0
M  V30 72162 O 6724.04 -1.00599 3.99942 0
M  V30 72163 H 6723.38 0.084483 0.658604 0
M  V30 72164 H 6725.91 0.866989 1.85323 0
M  V30 72165 H 6725.92 -0.152641 4.07714 0
M  V30 72166 H 6724.59 0.999022 4.03723 0
M  V30 72167 H 6723.17 -0.789818 3.6444 0
M  V30 72168 N 6725.36 -1.53171 0.370999 0
M  V30 72169 C 6726.58 -2.06228 -0.220184 0
M  V30 72170 C 6727.01 -1.24233 -1.41237 0
M  V30 72171 O 6726.36 -0.26274 -1.79386 0
M  V30 72172 C 6726.41 -3.55799 -0.586475 0
M  V30 72173 O 6725.52 -3.76497 -1.68298 0
M  V30 72174 H 6724.86 -0.663286 -0.0307749 0
M  V30 72175 H 6727.39 -1.97531 0.533172 0
M  V30 72176 H 6727.4 -3.9892 -0.85596 0
M  V30 72177 H 6726.07 -4.14921 0.285231 0
M  V30 72178 H 6724.65 -3.45271 -1.40863 0
M  V30 72179 N 6726.83 -0.100311 -1.5728 0
M  V30 72180 C 6727.78 0.867479 -2.10853 0
M  V30 72181 C 6728.77 1.24043 -1.02479 0
M  V30 72182 O 6729.96 1.21465 -1.28745 0
M  V30 72183 C 6727.09 2.12459 -2.69659 0
M  V30 72184 C 6726.17 1.77684 -3.85083 0
M  V30 72185 N 6726.57 1.13492 -4.92903 0
M  V30 72186 C 6724.86 2.07261 -3.94916 0
M  V30 72187 C 6725.56 0.974432 -5.7348 0
M  V30 72188 N 6724.54 1.49343 -5.22683 0
M  V30 72189 H 6728.34 0.367317 -2.91596 0
M  V30 72190 H 6725.86 0.102744 -1.62075 0
M  V30 72191 H 6727.85 2.82741 -3.06371 0
M  V30 72192 H 6726.51 2.63037 -1.90373 0
M  V30 72193 H 6727.52 0.801111 -5.11667 0
M  V30 72194 H 6724.2 2.60016 -3.26646 0
M  V30 72195 H 6725.59 0.472011 -6.7024 0
M  V30 72196 N 6728.31 1.56643 0.173405 0
M  V30 72197 C 6729.73 1.50715 0.525095 0
M  V30 72198 C 6729.93 0.804204 1.84756 0
M  V30 72199 O 6728.98 0.363706 2.49867 0
M  V30 72200 C 6730.3 2.95444 0.559781 0
M  V30 72201 C 6731.84 3.06237 0.647127 0
M  V30 72202 C 6732.32 4.5242 0.712724 0
M  V30 72203 N 6733.81 4.56659 0.77567 0
M  V30 72204 C 6734.55 5.6711 0.846965 0
M  V30 72205 N 6734.04 6.87198 0.879223 0
M  V30 72206 N 6735.83 5.55076 0.885825 0
M  V30 72207 H 6727.99 2.00749 -0.693787 0
M  V30 72208 H 6730.25 0.914472 -0.249889 0
M  V30 72209 H 6729.95 3.50021 -0.343233 0
M  V30 72210 H 6729.83 3.49976 1.407 0
M  V30 72211 H 6732.22 2.51695 1.54057 0
M  V30 72212 H 6732.3 2.54793 -0.22672 0
M  V30 72213 H 6731.94 5.07593 -0.176451 0
M  V30 72214 H 6731.87 5.01619 1.60269 0
M  V30 72215 H 6734.36 3.70197 0.759109 0
M  V30 72216 H 6734.67 7.67126 0.934739 0
M  V30 72217 H 6733.02 6.89813 0.847535 0
M  V30 72218 H 6736.21 4.60177 0.857611 0
M  V30 72219 H 6736.38 6.41176 0.937925 0
M  V30 72220 N 6729.79 -0.441887 1.51278 0
M  V30 72221 C 6731.04 -1.18862 1.62956 0
M  V30 72222 C 6731.35 -1.92454 0.349414 0
M  V30 72223 O 6732.56 -2.69293 0.345497 0
M  V30 72224 C 6731.01 -2.1614 2.8777 0
M  V30 72225 C 6730.62 -1.48217 4.22771 0
M  V30 72226 C 6732.37 -2.91274 3.08803 0
M  V30 72227 C 6730.27 -2.43952 5.38741 0
M  V30 72228 H 6729.2 -0.447374 0.606937 0
M  V30 72229 H 6731.85 -0.456111 1.77741 0
M  V30 72230 H 6730.24 -2.92807 2.66609 0
M  V30 72231 H 6731.41 -0.771395 4.54297 0
M  V30 72232 H 6729.72 -0.852526 4.07579 0
M  V30 72233 H 6732.32 -3.62981 3.92618 0
M  V30 72234 H 6732.66 -3.52358 2.21697 0
M  V30 72235 H 6733.2 -2.21715 3.30283 0
M  V30 72236 H 6729.94 -1.87564 6.28092 0
M  V30 72237 H 6729.46 -3.13096 5.11596 0
M  V30 72238 H 6731.14 -3.05177 5.70505 0
M  V30 72239 N 6731.27 -1.41348 -0.697033 0
M  V30 72240 C 6732.52 -1.39926 -1.45271 0
M  V30 72241 C 6732.83 -0.0110655 -1.95597 0
M  V30 72242 O 6734.04 0.125776 -2.71209 0
M  V30 72243 C 6732.49 -2.46021 -2.62682 0
M  V30 72244 C 6732.1 -3.9074 -2.19149 0
M  V30 72245 C 6733.84 -2.53733 -3.40323 0
M  V30 72246 C 6731.75 -4.88391 -3.33509 0
M  V30 72247 H 6730.68 -0.520352 -0.545665 0
M  V30 72248 H 6733.33 -1.67165 -0.756841 0
M  V30 72249 H 6731.71 -2.1191 -3.3453 0
M  V30 72250 H 6732.89 -4.34092 -1.546 0
M  V30 72251 H 6731.2 -3.86674 -1.54505 0
M  V30 72252 H 6733.8 -3.23873 -4.25453 0
M  V30 72253 H 6734.14 -1.5737 -3.85409 0
M  V30 72254 H 6734.68 -2.86928 -2.75531 0
M  V30 72255 H 6731.41 -5.86153 -2.93437 0
M  V30 72256 H 6730.93 -4.49689 -3.96912 0
M  V30 72257 H 6732.61 -5.0908 -3.99308 0
M  V30 72258 N 6732.75 0.931142 -1.27151 0
M  V30 72259 C 6733.71 2.01283 -1.09625 0
M  V30 72260 C 6734.71 1.60747 -0.0413429 0
M  V30 72261 O 6735.9 1.71842 -0.285635 0
M  V30 72262 C 6733.03 3.34259 -0.669623 0
M  V30 72263 H 6734.22 2.18262 -2.05674 0
M  V30 72264 H 6731.78 1.11147 -1.09891 0
M  V30 72265 H 6732.51 3.22979 0.292401 0
M  V30 72266 H 6732.3 3.65036 -1.43146 0
M  V30 72267 H 6733.79 4.13703 -0.569139 0
M  V30 72268 N 6734.22 1.09118 1.13715 0
M  V30 72269 C 6735.47 0.826512 1.85193 0
M  V30 72270 C 6735.8 -0.646222 1.83133 0
M  V30 72271 O 6735.08 -1.47556 1.26718 0
M  V30 72272 C 6735.36 1.35829 3.335 0
M  V30 72273 C 6735.21 2.8969 3.44093 0
M  V30 72274 C 6736.53 0.989483 4.28832 0
M  V30 72275 H 6733.65 0.30171 0.672414 0
M  V30 72276 H 6736.29 1.35204 1.33492 0
M  V30 72277 H 6734.44 0.911281 3.77661 0
M  V30 72278 H 6736.12 3.42816 3.08666 0
M  V30 72279 H 6734.36 3.26982 2.8507 0
M  V30 72280 H 6735.03 3.21975 4.48371 0
M  V30 72281 H 6737.51 1.37496 3.92726 0
M  V30 72282 H 6736.38 1.38866 5.31044 0
M  V30 72283 H 6736.64 -0.102691 4.41981 0
M  V30 72284 N 6735.7 -1.30884 0.877907 0
M  V30 72285 C 6736.65 -2.25869 0.310991 0
M  V30 72286 C 6737.64 -1.50969 -0.556517 0
M  V30 72287 O 6738.83 -1.72372 -0.402096 0
M  V30 72288 C 6735.96 -3.39933 -0.479642 0
M  V30 72289 C 6735.04 -4.22195 0.401556 0
M  V30 72290 N 6735.43 -4.83086 1.49873 0
M  V30 72291 C 6733.73 -4.45572 0.195402 0
M  V30 72292 C 6734.43 -5.44651 2.04279 0
M  V30 72293 N 6733.41 -5.26858 1.3387 0
M  V30 72294 H 6737.21 -2.7049 1.14944 0
M  V30 72295 H 6734.72 -1.45242 0.726534 0
M  V30 72296 H 6736.72 -4.07017 -0.902368 0
M  V30 72297 H 6735.38 -2.96853 -1.31561 0
M  V30 72298 H 6736.39 -4.8251 1.88162 0
M  V30 72299 H 6733.07 -4.13108 -0.603974 0
M  V30 72300 H 6734.46 -6.03001 2.96376 0
M  V30 72301 N 6737.18 -0.638141 -1.44102 0
M  V30 72302 C 6738.41 -0.152503 -2.06036 0
M  V30 72303 C 6738.82 1.181 -1.47814 0
M  V30 72304 O 6738.16 1.73688 -0.598184 0
M  V30 72305 C 6738.22 0.0291819 -3.59488 0
M  V30 72306 C 6737.89 -1.22725 -4.40213 0
M  V30 72307 C 6738.88 -2.15257 -4.73245 0
M  V30 72308 C 6736.57 -1.46463 -4.80473 0
M  V30 72309 C 6738.56 -3.2983 -5.45427 0
M  V30 72310 C 6736.25 -2.61332 -5.52403 0
M  V30 72311 C 6737.25 -3.52842 -5.848 0
M  V30 72312 O 6736.94 -4.65708 -6.55264 0
M  V30 72313 H 6736.67 -0.0801754 -0.671229 0
M  V30 72314 H 6739.22 -0.874661 -1.85846 0
M  V30 72315 H 6737.45 0.806559 -3.78195 0
M  V30 72316 H 6739.14 0.470262 -4.03167 0
M  V30 72317 H 6739.91 -1.98155 -4.42673 0
M  V30 72318 H 6735.79 -0.761216 -4.54672 0
M  V30 72319 H 6739.33 -4.01279 -5.70632 0
M  V30 72320 H 6735.23 -2.78375 -5.8239 0
M  V30 72321 H 6735.99 -4.64779 -6.73738 0
M  V30 72322 N 6738.66 1.52972 -0.379117 0
M  V30 72323 C 6739.9 2.01745 0.206621 0
M  V30 72324 C 6740.24 1.26547 1.47307 0
M  V30 72325 O 6739.51 0.363004 1.91083 0
M  V30 72326 C 6739.79 3.56821 0.484878 0
M  V30 72327 C 6739.65 4.42698 -0.796152 0
M  V30 72328 C 6740.97 4.21081 1.2798 0
M  V30 72329 H 6738.09 0.733314 0.073622 0
M  V30 72330 H 6740.73 1.8312 -0.506678 0
M  V30 72331 H 6738.88 3.72822 1.09252 0
M  V30 72332 H 6740.55 4.38468 -1.4333 0
M  V30 72333 H 6738.79 4.1012 -1.41365 0
M  V30 72334 H 6739.46 5.4919 -0.556237 0
M  V30 72335 H 6741.94 4.08995 0.765651 0
M  V30 72336 H 6740.82 5.29586 1.44324 0
M  V30 72337 H 6741.08 3.78038 2.29216 0
M  V30 72338 N 6740.14 0.10865 1.57225 0
M  V30 72339 C 6741.07 -0.842205 2.17782 0
M  V30 72340 C 6742.05 -1.28465 1.11494 0
M  V30 72341 O 6743.23 -1.34911 1.39688 0
M  V30 72342 C 6740.36 -2.09629 2.76899 0
M  V30 72343 C 6739.32 -1.792 3.88679 0
M  V30 72344 C 6738.64 -3.11551 4.34557 0
M  V30 72345 C 6739.94 -1.06837 5.11256 0
M  V30 72346 H 6741.64 -0.337617 2.9749 0
M  V30 72347 H 6739.18 -0.16095 1.43098 0
M  V30 72348 H 6741.14 -2.76597 3.17919 0
M  V30 72349 H 6739.86 -2.62395 1.94465 0
M  V30 72350 H 6738.52 -1.14626 3.48219 0
M  V30 72351 H 6738.17 -3.62231 3.48996 0
M  V30 72352 H 6737.87 -2.91969 5.09929 0
M  V30 72353 H 6739.39 -3.79655 4.7822 0
M  V30 72354 H 6740.8 -1.63939 5.4936 0
M  V30 72355 H 6739.2 -0.973866 5.92145 0
M  V30 72356 H 6740.27 -0.0533611 4.84871 0
M  V30 72357 N 6741.61 -1.56733 -0.165095 0
M  V30 72358 C 6742.52 -2.00131 -1.22412 0
M  V30 72359 C 6743.54 -0.913697 -1.4808 0
M  V30 72360 O 6744.72 -1.22181 -1.60106 0
M  V30 72361 C 6741.78 -2.35778 -2.54185 0
M  V30 72362 C 6740.84 -3.58398 -2.36324 0
M  V30 72363 C 6740.08 -3.92335 -3.61813 0
M  V30 72364 O 6740.3 -3.2716 -4.6725 0
M  V30 72365 O 6739.23 -4.8566 -3.55553 0
M  V30 72366 H 6743.06 -2.90497 -0.885733 0
M  V30 72367 H 6740.64 -1.44683 -0.372441 0
M  V30 72368 H 6742.53 -2.59646 -3.31906 0
M  V30 72369 H 6741.2 -1.48572 -2.8759 0
M  V30 72370 H 6740.11 -3.3974 -1.56614 0
M  V30 72371 H 6741.44 -4.46165 -2.07841 0
M  V30 72372 N 6743.09 0.433858 -1.5151 0
M  V30 72373 C 6744 1.55201 -1.75925 0
M  V30 72374 C 6745.02 1.61658 -0.643631 0
M  V30 72375 O 6746.19 1.78835 -0.926277 0
M  V30 72376 C 6743.26 2.91154 -1.88229 0
M  V30 72377 C 6742.32 2.94785 -3.1209 0
M  V30 72378 C 6741.55 4.24254 -3.23796 0
M  V30 72379 O 6741.78 5.1682 -2.41357 0
M  V30 72380 O 6740.71 4.3424 -4.16796 0
M  V30 72381 H 6744.54 1.37512 -2.70784 0
M  V30 72382 H 6742.12 0.617221 -1.36054 0
M  V30 72383 H 6744 3.71834 -1.98286 0
M  V30 72384 H 6742.68 3.08963 -0.965576 0
M  V30 72385 H 6741.59 2.13048 -3.07508 0
M  V30 72386 H 6742.92 2.81922 -4.03461 0
M  V30 72387 N 6744.57 1.41715 0.689527 0
M  V30 72388 C 6745.8 1.44967 1.48322 0
M  V30 72389 C 6746.22 0.0582274 1.8801 0
M  V30 72390 O 6745.58 -0.939953 1.55031 0
M  V30 72391 C 6745.63 2.36949 2.71823 0
M  V30 72392 O 6744.73 1.8307 3.69539 0
M  V30 72393 H 6744.07 0.491757 0.446173 0
M  V30 72394 H 6746.6 1.86243 0.847029 0
M  V30 72395 H 6746.61 2.5303 3.20062 0
M  V30 72396 H 6745.29 3.38048 2.42274 0
M  V30 72397 H 6743.86 1.7647 3.28501 0
M  V30 72398 N 6746.05 -0.924386 1.27643 0
M  V30 72399 C 6747.27 -1.71173 1.1711 0
M  V30 72400 C 6747.7 -1.8618 -0.268036 0
M  V30 72401 O 6747.06 -1.36424 -1.19408 0
M  V30 72402 C 6747.1 -3.08729 1.8633 0
M  V30 72403 O 6746.21 -3.95646 1.16352 0
M  V30 72404 H 6745.55 -0.524548 0.407118 0
M  V30 72405 H 6748.08 -1.15657 1.68774 0
M  V30 72406 H 6748.09 -3.59024 1.93819 0
M  V30 72407 H 6746.76 -2.97123 2.91017 0
M  V30 72408 H 6745.34 -3.54085 1.16954 0
M  V30 72409 N 6747.53 -1.09719 -1.13135 0
M  V30 72410 C 6748.77 -0.833435 -1.84115 0
M  V30 72411 C 6749.1 0.642806 -1.84101 0
M  V30 72412 O 6748.37 1.46648 -1.29889 0
M  V30 72413 H 6746.95 -0.305329 -0.68175 0
M  V30 72414 H 6749.61 -1.38595 -1.37031 0
M  V30 72415 H 6748.7 -1.18967 -2.88537 0
M  V30 72416 N 6749 1.30416 -0.884835 0
M  V30 72417 C 6750.23 2.00016 -0.517399 0
M  V30 72418 C 6750.64 1.66502 0.898544 0
M  V30 72419 O 6749.99 0.898266 1.6024 0
M  V30 72420 C 6750.05 3.54249 -0.612212 0
M  V30 72421 C 6749.71 4.1128 -1.99244 0
M  V30 72422 C 6750.71 4.27285 -2.96182 0
M  V30 72423 C 6748.39 4.46662 -2.29779 0
M  V30 72424 C 6750.39 4.77883 -4.21789 0
M  V30 72425 C 6748.07 4.9696 -3.55632 0
M  V30 72426 C 6749.07 5.12523 -4.51452 0
M  V30 72427 O 6748.76 5.61736 -5.75072 0
M  V30 72428 H 6748.49 0.64618 -0.198563 0
M  V30 72429 H 6751.05 1.67274 -1.19199 0
M  V30 72430 H 6749.28 3.86516 0.119357 0
M  V30 72431 H 6750.97 4.05091 -0.256072 0
M  V30 72432 H 6751.73 4.00252 -2.73903 0
M  V30 72433 H 6747.61 4.33816 -1.55965 0
M  V30 72434 H 6751.15 4.89946 -4.96587 0
M  V30 72435 H 6747.05 5.23428 -3.77748 0
M  V30 72436 H 6747.82 5.80078 -5.77452 0
M  V30 72437 N 6750.48 0.645774 1.43762 0
M  V30 72438 C 6751.42 -0.0999519 2.27981 0
M  V30 72439 C 6752.39 -0.83712 1.39395 0
M  V30 72440 O 6753.58 -0.838217 1.68838 0
M  V30 72441 C 6750.7 -1.14807 3.18649 0
M  V30 72442 C 6749.75 -0.509786 4.23442 0
M  V30 72443 S 6750.58 0.711103 5.30758 0
M  V30 72444 C 6751.74 -0.33666 6.24994 0
M  V30 72445 H 6751.97 0.614475 2.90881 0
M  V30 72446 H 6749.51 0.434382 1.48164 0
M  V30 72447 H 6751.46 -1.74779 3.71433 0
M  V30 72448 H 6750.12 -1.83477 2.54941 0
M  V30 72449 H 6749.32 -1.29965 4.86955 0
M  V30 72450 H 6748.92 0.015655 3.73997 0
M  V30 72451 H 6751.21 -1.20502 6.66697 0
M  V30 72452 H 6752.15 0.263252 7.0761 0
M  V30 72453 H 6752.56 -0.669129 5.6052 0
M  V30 72454 N 6751.96 -1.52769 0.387224 0
M  V30 72455 C 6752.87 -2.30119 -0.45632 0
M  V30 72456 C 6753.89 -1.3695 -1.07335 0
M  V30 72457 O 6755.06 -1.70018 -1.07962 0
M  V30 72458 C 6752.13 -3.09145 -1.56941 0
M  V30 72459 C 6751.19 -4.18019 -0.977695 0
M  V30 72460 C 6750.42 -4.93267 -2.03774 0
M  V30 72461 O 6750.64 -4.68584 -3.25246 0
M  V30 72462 O 6749.58 -5.78665 -1.6562 0
M  V30 72463 H 6753.4 -3.03203 0.17375 0
M  V30 72464 H 6750.99 -1.48635 0.150998 0
M  V30 72465 H 6752.87 -3.58424 -2.21609 0
M  V30 72466 H 6751.55 -2.38877 -2.18448 0
M  V30 72467 H 6750.45 -3.7294 -0.294329 0
M  V30 72468 H 6751.79 -4.90515 -0.406869 0
M  V30 72469 N 6753.44 -0.116987 -1.57165 0
M  V30 72470 C 6754.85 0.408713 -1.82171 0
M  V30 72471 C 6755.2 1.66741 -1.03402 0
M  V30 72472 O 6754.33 2.14709 -0.27 0
M  V30 72473 C 6754.92 0.748291 -3.30433 0
M  V30 72474 C 6753.48 1.21864 -3.56127 0
M  V30 72475 C 6752.63 0.226306 -2.76375 0
M  V30 72476 H 6755.58 -0.342145 -1.54968 0
M  V30 72477 H 6755.6 1.60589 -3.44951 0
M  V30 72478 H 6755.11 -0.167989 -3.87736 0
M  V30 72479 H 6753.21 2.15188 -3.04179 0
M  V30 72480 H 6753.32 1.16535 -4.64711 0
M  V30 72481 H 6751.69 0.712934 -2.44519 0
M  V30 72482 H 6752.47 -0.683036 -3.36436 0
M  V30 72483 N 6754.92 1.56818 0.156781 0
M  V30 72484 C 6756.15 1.86959 0.886217 0
M  V30 72485 C 6756.56 0.704068 1.75181 0
M  V30 72486 O 6755.92 -0.326458 1.79556 0
M  V30 72487 C 6755.97 3.16263 1.751 0
M  V30 72488 O 6755.69 4.28325 0.920311 0
M  V30 72489 C 6757.19 3.59851 2.58886 0
M  V30 72490 H 6754.41 0.619937 0.256747 0
M  V30 72491 H 6756.95 2.03931 0.152508 0
M  V30 72492 H 6755.11 3.01074 2.43789 0
M  V30 72493 H 6755.52 5.022 1.51311 0
M  V30 72494 H 6757 4.53189 3.15157 0
M  V30 72495 H 6757.47 2.84667 3.34457 0
M  V30 72496 H 6758.08 3.777 1.95506 0
M  V30 72497 N 6756.4 -0.425817 1.51738 0
M  V30 72498 C 6757.33 -1.52484 1.76835 0
M  V30 72499 C 6758.31 -1.58453 0.618607 0
M  V30 72500 O 6759.49 -1.73996 0.862508 0
M  V30 72501 C 6756.62 -2.90464 1.90389 0
M  V30 72502 C 6755.58 -2.99353 3.05895 0
M  V30 72503 C 6754.9 -4.39424 3.04648 0
M  V30 72504 C 6756.2 -2.72371 4.45658 0
M  V30 72505 H 6757.9 -1.31733 2.68862 0
M  V30 72506 H 6755.44 -0.632294 1.29376 0
M  V30 72507 H 6757.39 -3.6732 2.06529 0
M  V30 72508 H 6756.12 -3.12472 0.950205 0
M  V30 72509 H 6754.78 -2.24939 2.89479 0
M  V30 72510 H 6754.43 -4.58417 2.07034 0
M  V30 72511 H 6754.13 -4.46299 3.82218 0
M  V30 72512 H 6755.65 -5.18238 3.22896 0
M  V30 72513 H 6757.06 -3.38955 4.62366 0
M  V30 72514 H 6755.46 -2.90642 5.25021 0
M  V30 72515 H 6756.53 -1.67905 4.54902 0
M  V30 72516 N 6757.87 -1.42079 -0.682002 0
M  V30 72517 C 6759.29 -1.24847 -0.994259 0
M  V30 72518 C 6759.49 -0.147495 -2.00959 0
M  V30 72519 O 6758.55 0.483652 -2.47825 0
M  V30 72520 C 6759.86 -2.60273 -1.50593 0
M  V30 72521 C 6761.41 -2.67568 -1.62407 0
M  V30 72522 C 6761.88 -4.03345 -2.16973 0
M  V30 72523 N 6763.37 -4.05261 -2.24315 0
M  V30 72524 C 6764.11 -5.0713 -2.67594 0
M  V30 72525 N 6763.6 -6.19385 -3.10378 0
M  V30 72526 N 6765.4 -4.94488 -2.67279 0
M  V30 72527 H 6757.55 -2.12398 -0.00962707 0
M  V30 72528 H 6759.81 -0.945643 -0.0668094 0
M  V30 72529 H 6759.52 -3.41659 -0.834403 0
M  V30 72530 H 6759.39 -2.83697 -2.48587 0
M  V30 72531 H 6761.78 -1.86534 -2.28668 0
M  V30 72532 H 6761.86 -2.4794 -0.629222 0
M  V30 72533 H 6761.5 -4.84834 -1.51323 0
M  V30 72534 H 6761.43 -4.2032 -3.17236 0
M  V30 72535 H 6763.92 -3.24219 -1.9414 0
M  V30 72536 H 6764.24 -6.92972 -3.42067 0
M  V30 72537 H 6762.58 -6.22901 -3.08253 0
M  V30 72538 H 6765.77 -4.05869 -2.33212 0
M  V30 72539 H 6765.95 -5.74013 -3.00688 0
M  V30 72540 N 6759.35 0.917604 -1.28132 0
M  V30 72541 C 6760.6 1.66091 -1.1444 0
M  V30 72542 C 6760.91 1.93173 0.307145 0
M  V30 72543 O 6762.12 2.65553 0.565119 0
M  V30 72544 C 6760.58 2.99192 -2.00031 0
M  V30 72545 C 6760.18 2.79771 -3.49903 0
M  V30 72546 C 6761.93 3.77053 -1.95016 0
M  V30 72547 C 6759.83 4.08488 -4.27658 0
M  V30 72548 H 6758.76 0.623017 -0.424694 0
M  V30 72549 H 6761.42 1.0186 -1.52633 0
M  V30 72550 H 6759.8 3.64536 -1.54691 0
M  V30 72551 H 6760.97 2.2313 -4.03174 0
M  V30 72552 H 6759.29 2.15326 -3.56404 0
M  V30 72553 H 6761.88 4.72456 -2.50378 0
M  V30 72554 H 6762.23 4.0587 -0.926033 0
M  V30 72555 H 6762.76 3.18522 -2.38304 0
M  V30 72556 H 6759.5 3.84846 -5.30635 0
M  V30 72557 H 6759.02 4.64754 -3.79161 0
M  V30 72558 H 6760.7 4.76776 -4.37372 0
M  V30 72559 N 6760.83 1.10318 1.12551 0
M  V30 72560 C 6761.76 0.772914 2.20337 0
M  V30 72561 C 6762.74 -0.253561 1.682 0
M  V30 72562 O 6763.93 -0.119597 1.93831 0
M  V30 72563 C 6761.06 0.202626 3.46708 0
M  V30 72564 C 6760.01 1.15965 4.1199 0
M  V30 72565 C 6759.34 0.450626 5.32798 0
M  V30 72566 C 6760.64 2.50576 4.58267 0
M  V30 72567 H 6762.33 1.67414 2.4822 0
M  V30 72568 H 6759.88 0.806389 1.19304 0
M  V30 72569 H 6761.83 -0.040553 4.2138 0
M  V30 72570 H 6760.55 -0.733833 3.18249 0
M  V30 72571 H 6759.21 1.38826 3.39298 0
M  V30 72572 H 6758.86 -0.490267 5.00605 0
M  V30 72573 H 6758.56 1.08882 5.77424 0
M  V30 72574 H 6760.08 0.215964 6.10218 0
M  V30 72575 H 6761.5 2.31871 5.24318 0
M  V30 72576 H 6759.89 3.10269 5.13666 0
M  V30 72577 H 6760.96 3.10663 3.72312 0
M  V30 72578 N 6762.31 -1.29945 0.891739 0
M  V30 72579 C 6763.27 -2.2622 0.368399 0
M  V30 72580 C 6764.27 -1.53058 -0.492934 0
M  V30 72581 O 6765.46 -1.71613 -0.299122 0
M  V30 72582 C 6762.59 -3.37585 -0.474242 0
M  V30 72583 H 6763.79 -2.74027 1.21858 0
M  V30 72584 H 6761.34 -1.4125 0.669182 0
M  V30 72585 H 6762.07 -2.95106 -1.34474 0
M  V30 72586 H 6761.86 -3.9184 0.142821 0
M  V30 72587 H 6763.35 -4.09229 -0.831965 0
M  V30 72588 N 6763.79 -0.653389 -1.43418 0
M  V30 72589 C 6765.03 -0.164182 -2.01031 0
M  V30 72590 C 6765.35 1.22918 -1.52153 0
M  V30 72591 O 6766.55 1.81361 -2.02041 0
M  V30 72592 C 6765.01 -0.242709 -3.59081 0
M  V30 72593 C 6764.62 -1.63877 -4.16951 0
M  V30 72594 C 6766.36 0.188886 -4.2408 0
M  V30 72595 C 6764.27 -1.67121 -5.67296 0
M  V30 72596 H 6763.2 -0.0576166 -0.751795 0
M  V30 72597 H 6765.85 -0.815449 -1.64386 0
M  V30 72598 H 6764.23 0.476069 -3.93128 0
M  V30 72599 H 6765.41 -2.38291 -3.94403 0
M  V30 72600 H 6763.72 -2.01636 -3.64324 0
M  V30 72601 H 6766.32 0.184493 -5.34382 0
M  V30 72602 H 6766.66 1.22035 -3.98012 0
M  V30 72603 H 6767.19 -0.478147 -3.94916 0
M  V30 72604 H 6763.93 -2.68178 -5.98131 0
M  V30 72605 H 6763.45 -0.970327 -5.91899 0
M  V30 72606 H 6765.13 -1.41503 -6.31337 0
M  V30 72607 N 6765.26 1.52561 -0.39532 0
M  V30 72608 C 6766.19 2.29539 0.428263 0
M  V30 72609 C 6767.17 1.33174 1.05824 0
M  V30 72610 O 6768.36 1.62072 1.06987 0
M  V30 72611 C 6765.49 3.10665 1.55257 0
M  V30 72612 C 6764.44 4.14963 1.04833 0
M  V30 72613 C 6763.77 4.84349 2.26518 0
M  V30 72614 C 6765.07 5.2218 0.112049 0
M  V30 72615 H 6766.76 2.98634 -0.214024 0
M  V30 72616 H 6764.31 1.43621 -0.104374 0
M  V30 72617 H 6766.26 3.63277 2.1356 0
M  V30 72618 H 6764.99 2.39313 2.22254 0
M  V30 72619 H 6763.65 3.6334 0.487794 0
M  V30 72620 H 6763.29 4.0954 2.92037 0
M  V30 72621 H 6762.99 5.54848 1.93437 0
M  V30 72622 H 6764.52 5.39768 2.85452 0
M  V30 72623 H 6765.93 5.70115 0.603451 0
M  V30 72624 H 6764.33 5.99961 -0.129284 0
M  V30 72625 H 6765.4 4.77616 -0.837304 0
M  V30 72626 N 6766.74 0.12532 1.57101 0
M  V30 72627 C 6767.69 -0.833825 2.12206 0
M  V30 72628 C 6768.68 -1.22397 1.0444 0
M  V30 72629 O 6769.87 -1.19401 1.30661 0
M  V30 72630 C 6767 -2.08142 2.73005 0
M  V30 72631 C 6766.08 -1.71535 3.87861 0
M  V30 72632 N 6766.47 -1.05636 4.94646 0
M  V30 72633 C 6764.77 -2.00952 3.98164 0
M  V30 72634 C 6765.47 -0.883073 5.74958 0
M  V30 72635 N 6764.45 -1.41008 5.24993 0
M  V30 72636 H 6768.25 -0.320881 2.92143 0
M  V30 72637 H 6765.76 -0.0769459 1.62218 0
M  V30 72638 H 6767.76 -2.77831 3.1083 0
M  V30 72639 H 6766.42 -2.59975 1.94533 0
M  V30 72640 H 6767.43 -0.719608 5.12876 0
M  V30 72641 H 6764.11 -2.54787 3.30742 0
M  V30 72642 H 6765.5 -0.365322 6.70906 0
M  V30 72643 N 6768.22 -1.56899 -0.148462 0
M  V30 72644 C 6769.45 -1.87427 -0.87629 0
M  V30 72645 C 6769.86 -0.713348 -1.74805 0
M  V30 72646 O 6769.22 0.316931 -1.79727 0
M  V30 72647 C 6769.27 -3.17187 -1.73421 0
M  V30 72648 O 6768.99 -4.28807 -0.897583 0
M  V30 72649 C 6770.49 -3.61219 -2.56974 0
M  V30 72650 H 6767.71 -0.62129 -0.253456 0
M  V30 72651 H 6770.26 -2.04009 -0.141691 0
M  V30 72652 H 6768.41 -3.02363 -2.42189 0
M  V30 72653 H 6768.83 -5.02996 -1.48645 0
M  V30 72654 H 6770.3 -4.54854 -3.12749 0
M  V30 72655 H 6770.78 -2.86437 -3.32942 0
M  V30 72656 H 6771.38 -3.78732 -1.935 0
M  V30 72657 N 6769.7 0.417764 -1.51962 0
M  V30 72658 C 6770.94 1.16723 -1.65842 0
M  V30 72659 C 6771.28 1.90386 -0.382981 0
M  V30 72660 O 6770.55 1.84412 0.61827 0
M  V30 72661 C 6770.84 2.16861 -2.87477 0
M  V30 72662 C 6770.69 1.47152 -4.25049 0
M  V30 72663 C 6772.01 3.17629 -3.0463 0
M  V30 72664 H 6769.13 0.42298 -0.603537 0
M  V30 72665 H 6771.77 0.454007 -1.84496 0
M  V30 72666 H 6769.92 2.77686 -2.71704 0
M  V30 72667 H 6771.59 0.895137 -4.52532 0
M  V30 72668 H 6769.83 0.773581 -4.26847 0
M  V30 72669 H 6770.5 2.20177 -5.06188 0
M  V30 72670 H 6772.98 2.66875 -3.19244 0
M  V30 72671 H 6771.86 3.84969 -3.91267 0
M  V30 72672 H 6772.12 3.84863 -2.17561 0
M  V30 72673 N 6771.18 1.42439 0.674458 0
M  V30 72674 C 6772.43 1.42219 1.43027 0
M  V30 72675 C 6772.74 0.0421819 1.95555 0
M  V30 72676 O 6773.94 -0.0826127 2.71374 0
M  V30 72677 C 6772.4 2.50169 2.58735 0
M  V30 72678 C 6772.01 3.94177 2.12905 0
M  V30 72679 C 6773.75 2.59115 3.36243 0
M  V30 72680 C 6771.66 4.93635 3.25697 0
M  V30 72681 H 6770.59 0.528967 0.537317 0
M  V30 72682 H 6773.24 1.68348 0.730151 0
M  V30 72683 H 6771.62 2.17205 3.31116 0
M  V30 72684 H 6772.8 4.36496 1.47674 0
M  V30 72685 H 6771.11 3.89084 1.48334 0
M  V30 72686 H 6773.71 3.306 4.20247 0
M  V30 72687 H 6774.05 1.63482 3.82857 0
M  V30 72688 H 6774.58 2.91275 2.70931 0
M  V30 72689 H 6771.32 5.90747 2.84074 0
M  V30 72690 H 6770.84 4.55947 3.89708 0
M  V30 72691 H 6772.52 5.15368 3.91159 0
M  V30 72692 N 6772.65 -0.910796 1.28617 0
M  V30 72693 C 6773.88 -1.69921 1.18919 0
M  V30 72694 C 6774.3 -1.86454 -0.248274 0
M  V30 72695 O 6773.66 -1.37683 -1.17954 0
M  V30 72696 C 6773.71 -3.06735 1.89594 0
M  V30 72697 O 6772.81 -3.9439 1.20542 0
M  V30 72698 H 6772.16 -0.5202 0.412659 0
M  V30 72699 H 6774.69 -1.13861 1.69991 0
M  V30 72700 H 6774.7 -3.56948 1.97616 0
M  V30 72701 H 6773.37 -2.94019 2.94152 0
M  V30 72702 H 6771.95 -3.52825 1.20703 0
M  V30 72703 N 6774.13 -1.10913 -1.11965 0
M  V30 72704 C 6775.38 -0.854604 -1.83583 0
M  V30 72705 C 6775.71 0.619803 -1.8436 0
M  V30 72706 O 6774.96 1.47325 -1.28817 0
M  V30 72707 C 6775.26 -1.35443 -3.30742 0
M  V30 72708 C 6774.93 -2.84111 -3.50131 0
M  V30 72709 C 6773.59 -3.24709 -3.5513 0
M  V30 72710 C 6775.94 -3.79891 -3.56837 0
M  V30 72711 C 6773.27 -4.59826 -3.64386 0
M  V30 72712 C 6775.62 -5.14817 -3.67623 0
M  V30 72713 C 6774.29 -5.54981 -3.70881 0
M  V30 72714 H 6773.56 -0.312722 -0.671778 0
M  V30 72715 H 6776.2 -1.38659 -1.32083 0
M  V30 72716 H 6774.51 -0.742564 -3.84699 0
M  V30 72717 H 6776.2 -1.1339 -3.84634 0
M  V30 72718 H 6772.79 -2.51703 -3.46906 0
M  V30 72719 H 6776.98 -3.4963 -3.5224 0
M  V30 72720 H 6772.23 -4.90359 -3.65182 0
M  V30 72721 H 6776.41 -5.88873 -3.71755 0
M  V30 72722 H 6774.04 -6.59672 -3.77805 0
M  V30 72723 N 6775.61 1.29471 -0.898618 0
M  V30 72724 C 6776.86 1.95603 -0.523985 0
M  V30 72725 C 6777.19 1.70851 0.929518 0
M  V30 72726 O 6776.44 1.01376 1.67396 0
M  V30 72727 C 6776.74 3.49191 -0.761582 0
M  V30 72728 C 6776.41 3.94018 -2.19228 0
M  V30 72729 C 6775.07 4.05968 -2.58347 0
M  V30 72730 C 6777.42 4.17199 -3.12401 0
M  V30 72731 C 6774.75 4.38469 -3.89823 0
M  V30 72732 C 6777.1 4.51174 -4.43424 0
M  V30 72733 C 6775.76 4.61334 -4.82418 0
M  V30 72734 H 6775.03 0.715763 -0.19174 0
M  V30 72735 H 6777.68 1.54088 -1.13707 0
M  V30 72736 H 6775.99 3.91745 -0.0655687 0
M  V30 72737 H 6777.68 3.98454 -0.451115 0
M  V30 72738 H 6774.27 3.85232 -1.87867 0
M  V30 72739 H 6778.46 4.07434 -2.83392 0
M  V30 72740 H 6773.71 4.44537 -4.19758 0
M  V30 72741 H 6777.89 4.6806 -5.15648 0
M  V30 72742 H 6775.51 4.86272 -5.84332 0
M  V30 72743 N 6777.09 0.660986 1.43069 0
M  V30 72744 C 6778.33 0.181253 2.03595 0
M  V30 72745 C 6778.69 -1.18507 1.51063 0
M  V30 72746 O 6779.89 -1.75866 2.03285 0
M  V30 72747 C 6778.16 0.199298 3.56844 0
M  V30 72748 S 6779.72 -0.211453 4.3829 0
M  V30 72749 H 6776.54 0.0757851 0.70695 0
M  V30 72750 H 6779.14 0.871057 1.75022 0
M  V30 72751 H 6777.85 1.19631 3.92577 0
M  V30 72752 H 6777.38 -0.510791 3.9007 0
M  V30 72753 H 6779.39 -1.44838 4.74591 0
M  V30 72754 N 6778.57 -1.5235 0.403405 0
M  V30 72755 C 6779.82 -2.00934 -0.175562 0
M  V30 72756 C 6780.13 -1.29364 -1.46712 0
M  V30 72757 O 6781.33 -1.68735 -2.12699 0
M  V30 72758 C 6779.79 -3.5806 -0.363423 0
M  V30 72759 C 6779.4 -4.38542 0.915703 0
M  V30 72760 C 6781.14 -4.14893 -0.897991 0
M  V30 72761 C 6779.05 -5.87298 0.695345 0
M  V30 72762 H 6777.98 -0.750801 -0.0693838 0
M  V30 72763 H 6780.63 -1.7574 0.527972 0
M  V30 72764 H 6779.01 -3.79561 -1.12915 0
M  V30 72765 H 6780.19 -4.28803 1.68714 0
M  V30 72766 H 6778.5 -3.92999 1.37626 0
M  V30 72767 H 6781.1 -5.23704 -1.07879 0
M  V30 72768 H 6781.44 -3.71883 -1.87107 0
M  V30 72769 H 6781.97 -3.97339 -0.191472 0
M  V30 72770 H 6778.71 -6.34658 1.63982 0
M  V30 72771 H 6778.23 -5.99789 -0.0368953 0
M  V30 72772 H 6779.91 -6.46131 0.335311 0
M  V30 72773 N 6780.04 -0.13365 -1.57032 0
M  V30 72774 C 6781.29 0.520666 -1.94864 0
M  V30 72775 C 6781.61 1.66886 -1.02021 0
M  V30 72776 O 6782.81 2.38692 -1.29377 0
M  V30 72777 C 6781.27 0.977626 -3.46368 0
M  V30 72778 C 6780.88 -0.14291 -4.47772 0
M  V30 72779 C 6782.62 1.60249 -3.93091 0
M  V30 72780 C 6780.53 0.331572 -5.9047 0
M  V30 72781 H 6779.46 0.198276 -0.727463 0
M  V30 72782 H 6782.11 -0.215855 -1.82226 0
M  V30 72783 H 6780.49 1.76901 -3.54291 0
M  V30 72784 H 6781.66 -0.919555 -4.51532 0
M  V30 72785 H 6779.98 -0.67534 -4.10887 0
M  V30 72786 H 6782.58 1.96888 -4.97131 0
M  V30 72787 H 6782.92 2.48644 -3.33889 0
M  V30 72788 H 6783.45 0.876248 -3.88029 0
M  V30 72789 H 6780.19 -0.516686 -6.5346 0
M  V30 72790 H 6779.71 1.07438 -5.90099 0
M  V30 72791 H 6781.39 0.787993 -6.42184 0
M  V30 72792 N 6781.52 1.56976 0.14014 0
M  V30 72793 C 6782.77 1.8336 0.849908 0
M  V30 72794 C 6783.09 0.715606 1.81395 0
M  V30 72795 O 6782.36 -0.262192 1.94137 0
M  V30 72796 H 6780.94 0.676472 0.316851 0
M  V30 72797 H 6783.6 1.94449 0.132505 0
M  V30 72798 H 6782.7 2.78535 1.408 0
M  V30 72799 N 6783 -0.409699 1.52182 0
M  V30 72800 C 6784.23 -1.17673 1.69813 0
M  V30 72801 C 6784.64 -1.8477 0.407006 0
M  V30 72802 O 6783.98 -1.72677 -0.626772 0
M  V30 72803 C 6784.04 -2.28275 2.77724 0
M  V30 72804 C 6783.71 -1.81318 4.19491 0
M  V30 72805 C 6784.7 -1.30127 5.03352 0
M  V30 72806 C 6782.39 -1.88169 4.65723 0
M  V30 72807 C 6784.38 -0.864083 6.31516 0
M  V30 72808 C 6782.07 -1.44062 5.93877 0
M  V30 72809 C 6783.07 -0.932666 6.76602 0
M  V30 72810 O 6782.76 -0.497957 8.02356 0
M  V30 72811 H 6782.49 -0.359644 0.572391 0
M  V30 72812 H 6785.04 -0.488206 1.99514 0
M  V30 72813 H 6783.27 -3.00489 2.43399 0
M  V30 72814 H 6784.96 -2.90036 2.83961 0
M  V30 72815 H 6785.73 -1.24207 4.68826 0
M  V30 72816 H 6781.61 -2.2665 4.01436 0
M  V30 72817 H 6785.15 -0.466919 6.96036 0
M  V30 72818 H 6781.05 -1.49661 6.27911 0
M  V30 72819 H 6781.82 -0.621317 8.16138 0
M  V30 72820 N 6784.48 -1.42795 -0.666894 0
M  V30 72821 C 6785.71 -1.46885 -1.45287 0
M  V30 72822 C 6786.12 -0.0810858 -1.89026 0
M  V30 72823 O 6785.46 0.916162 -1.59224 0
M  V30 72824 C 6785.52 -2.34026 -2.72896 0
M  V30 72825 C 6785.19 -3.8178 -2.51183 0
M  V30 72826 C 6786.18 -4.73235 -2.15277 0
M  V30 72827 C 6783.87 -4.26129 -2.65932 0
M  V30 72828 C 6785.86 -6.07032 -1.94399 0
M  V30 72829 C 6783.55 -5.59982 -2.44669 0
M  V30 72830 C 6784.55 -6.50251 -2.08957 0
M  V30 72831 O 6784.24 -7.81631 -1.87906 0
M  V30 72832 H 6783.97 -0.501511 -0.45328 0
M  V30 72833 H 6786.52 -1.88054 -0.826133 0
M  V30 72834 H 6784.75 -1.87721 -3.38079 0
M  V30 72835 H 6786.44 -2.2948 -3.34804 0
M  V30 72836 H 6787.21 -4.40255 -2.03471 0
M  V30 72837 H 6783.09 -3.56152 -2.92706 0
M  V30 72838 H 6786.63 -6.77452 -1.66449 0
M  V30 72839 H 6782.53 -5.92534 -2.56074 0
M  V30 72840 H 6783.29 -7.9307 -2.02441 0
M  V30 72841 N 6785.96 0.903962 -1.29098 0
M  V30 72842 C 6787.2 1.66839 -1.18085 0
M  V30 72843 C 6787.56 1.90173 0.264259 0
M  V30 72844 O 6788.76 2.6416 0.497284 0
M  V30 72845 C 6787.03 2.98377 -1.96738 0
M  V30 72846 S 6788.59 3.89431 -2.02211 0
M  V30 72847 H 6785.41 0.572858 -0.421135 0
M  V30 72848 H 6788.01 1.07444 -1.63328 0
M  V30 72849 H 6786.72 2.79104 -3.0088 0
M  V30 72850 H 6786.25 3.62815 -1.52083 0
M  V30 72851 H 6788.26 4.83028 -1.1357 0
M  V30 72852 N 6787.44 1.11505 1.11375 0
M  V30 72853 C 6788.37 0.796241 2.19505 0
M  V30 72854 C 6789.35 -0.235707 1.68459 0
M  V30 72855 O 6790.53 -0.0990321 1.93947 0
M  V30 72856 C 6787.66 0.239388 3.46474 0
M  V30 72857 C 6786.62 1.20328 4.10737 0
M  V30 72858 C 6785.94 0.507111 5.3229 0
M  V30 72859 C 6787.24 2.55423 4.55584 0
M  V30 72860 H 6788.94 1.70037 2.4643 0
M  V30 72861 H 6786.48 0.818997 1.18442 0
M  V30 72862 H 6788.43 0.00414228 4.214 0
M  V30 72863 H 6787.16 -0.700037 3.19009 0
M  V30 72864 H 6785.82 1.42417 3.37806 0
M  V30 72865 H 6785.47 -0.437143 5.01097 0
M  V30 72866 H 6785.17 1.15 5.76237 0
M  V30 72867 H 6786.69 0.280673 6.09955 0
M  V30 72868 H 6788.1 2.37419 5.21829 0
M  V30 72869 H 6786.5 3.157 5.10347 0
M  V30 72870 H 6787.57 3.14594 3.68996 0
M  V30 72871 N 6788.91 -1.28992 0.905472 0
M  V30 72872 C 6789.86 -2.27549 0.386012 0
M  V30 72873 C 6790.83 -1.57247 -0.53503 0
M  V30 72874 O 6792.02 -1.85196 -0.459022 0
M  V30 72875 C 6789.16 -3.43053 -0.37528 0
M  V30 72876 C 6788.27 -4.28125 0.577317 0
M  V30 72877 C 6787.4 -5.30817 -0.201599 0
M  V30 72878 C 6786.44 -6.07547 0.74515 0
M  V30 72879 N 6785.58 -7.021 0.000275976 0
M  V30 72880 H 6790.42 -2.71362 1.23154 0
M  V30 72881 H 6787.96 -1.3346 0.618613 0
M  V30 72882 H 6789.91 -4.08804 -0.832776 0
M  V30 72883 H 6788.54 -3.00254 -1.18521 0
M  V30 72884 H 6787.6 -3.62495 1.15334 0
M  V30 72885 H 6788.91 -4.81513 1.30178 0
M  V30 72886 H 6788.06 -6.02412 -0.720033 0
M  V30 72887 H 6786.8 -4.78175 -0.959161 0
M  V30 72888 H 6785.81 -5.34811 1.27503 0
M  V30 72889 H 6787.03 -6.62278 1.50213 0
M  V30 72890 H 6784.98 -6.51819 -0.739447 0
M  V30 72891 H 6784.89 -7.53072 0.664718 0
M  V30 72892 H 6786.16 -7.77906 -0.498234 0
M  V30 72893 N 6790.39 -0.668564 -1.42716 0
M  V30 72894 C 6791.64 -0.188525 -2.01922 0
M  V30 72895 C 6791.97 1.19971 -1.52711 0
M  V30 72896 O 6791.25 1.80416 -0.726661 0
M  V30 72897 C 6791.53 -0.216274 -3.5945 0
M  V30 72898 C 6791.38 -1.63952 -4.18855 0
M  V30 72899 C 6792.7 0.438948 -4.37906 0
M  V30 72900 H 6789.82 -0.0699799 -0.73367 0
M  V30 72901 H 6792.46 -0.852166 -1.69818 0
M  V30 72902 H 6790.61 0.348808 -3.86931 0
M  V30 72903 H 6792.28 -2.25637 -4.0235 0
M  V30 72904 H 6790.53 -2.18212 -3.74921 0
M  V30 72905 H 6791.2 -1.61067 -5.27979 0
M  V30 72906 H 6793.67 -0.0420072 -4.16079 0
M  V30 72907 H 6792.55 0.388868 -5.47521 0
M  V30 72908 H 6792.81 1.51555 -4.15311 0
M  V30 72909 N 6791.87 1.52134 -0.411479 0
M  V30 72910 C 6793.28 1.86611 0.0575842 0
M  V30 72911 C 6793.63 1.33011 1.44231 0
M  V30 72912 O 6792.76 0.670336 2.05756 0
M  V30 72913 C 6793.35 3.38617 0.111269 0
M  V30 72914 C 6791.91 3.72725 0.524674 0
M  V30 72915 C 6791.06 2.7568 -0.299321 0
M  V30 72916 H 6794.01 1.45727 -0.628445 0
M  V30 72917 H 6794.03 3.69059 0.926057 0
M  V30 72918 H 6793.54 3.77599 -0.896687 0
M  V30 72919 H 6791.64 3.39323 1.53919 0
M  V30 72920 H 6791.76 4.78353 0.267429 0
M  V30 72921 H 6790.12 2.53579 0.23868 0
M  V30 72922 H 6790.9 3.17501 -1.30567 0
M  V30 72923 N 6793.35 0.141976 1.56959 0
M  V30 72924 C 6794.28 -0.795821 2.1952 0
M  V30 72925 C 6795.26 -1.26071 1.14194 0
M  V30 72926 O 6796.44 -1.31918 1.42518 0
M  V30 72927 C 6793.57 -2.03709 2.81283 0
M  V30 72928 C 6792.53 -1.70916 3.92393 0
M  V30 72929 C 6791.85 -3.02264 4.41068 0
M  V30 72930 C 6793.15 -0.959683 5.13408 0
M  V30 72931 H 6794.85 -0.274439 2.9814 0
M  V30 72932 H 6792.39 -0.130561 1.43407 0
M  V30 72933 H 6794.35 -2.69791 3.23714 0
M  V30 72934 H 6793.07 -2.58211 1.99987 0
M  V30 72935 H 6791.73 -1.07214 3.50572 0
M  V30 72936 H 6791.38 -3.54746 3.56601 0
M  V30 72937 H 6791.08 -2.81087 5.16008 0
M  V30 72938 H 6792.6 -3.69426 4.86166 0
M  V30 72939 H 6794.02 -1.52249 5.52714 0
M  V30 72940 H 6792.41 -0.848044 5.94078 0
M  V30 72941 H 6793.48 0.0494991 4.84875 0
M  V30 72942 N 6794.83 -1.57048 -0.131813 0
M  V30 72943 C 6796.07 -1.84445 -0.843082 0
M  V30 72944 C 6796.4 -0.725844 -1.80125 0
M  V30 72945 O 6795.68 0.269368 -1.92626 0
M  V30 72946 C 6795.96 -3.22391 -1.60425 0
M  V30 72947 C 6795.82 -4.44834 -0.666548 0
M  V30 72948 C 6797.13 -3.57744 -2.56335 0
M  V30 72949 H 6794.25 -0.670907 -0.305045 0
M  V30 72950 H 6796.9 -1.89694 -0.107739 0
M  V30 72951 H 6795.05 -3.18047 -2.23111 0
M  V30 72952 H 6796.72 -4.61273 -0.0495214 0
M  V30 72953 H 6794.96 -4.33794 0.0228378 0
M  V30 72954 H 6795.63 -5.37996 -1.2355 0
M  V30 72955 H 6798.11 -3.62796 -2.0376 0
M  V30 72956 H 6796.98 -4.55266 -3.06633 0
M  V30 72957 H 6797.24 -2.84491 -3.38404 0
M  V30 72958 N 6796.3 0.401623 -1.52397 0
M  V30 72959 C 6797.55 1.145 -1.6605 0
M  V30 72960 C 6797.87 1.9146 -0.400317 0
M  V30 72961 O 6799.07 2.68282 -0.416774 0
M  V30 72962 C 6797.53 2.08434 -2.93399 0
M  V30 72963 C 6797.14 1.36956 -4.26553 0
M  V30 72964 C 6798.88 2.82985 -3.16417 0
M  V30 72965 C 6796.79 2.29582 -5.45019 0
M  V30 72966 H 6795.72 0.431125 -0.618585 0
M  V30 72967 H 6798.37 0.408826 -1.78888 0
M  V30 72968 H 6796.75 2.85635 -2.74278 0
M  V30 72969 H 6797.92 0.650675 -4.56183 0
M  V30 72970 H 6796.24 0.744164 -4.09696 0
M  V30 72971 H 6798.84 3.52444 -4.02104 0
M  V30 72972 H 6799.18 3.46356 -2.30961 0
M  V30 72973 H 6799.71 2.12881 -3.36046 0
M  V30 72974 H 6796.45 1.70846 -6.32844 0
M  V30 72975 H 6795.97 2.99422 -5.19718 0
M  V30 72976 H 6797.65 2.89944 -5.78396 0
M  V30 72977 N 6797.78 1.43146 0.659312 0
M  V30 72978 C 6799.03 1.4444 1.41927 0
M  V30 72979 C 6799.36 0.0664547 1.94386 0
M  V30 72980 O 6798.61 -0.927615 1.72319 0
M  V30 72981 C 6798.91 2.42878 2.62193 0
M  V30 72982 C 6798.58 3.88898 2.28187 0
M  V30 72983 C 6797.24 4.28668 2.18625 0
M  V30 72984 C 6799.59 4.80941 2.00862 0
M  V30 72985 C 6796.92 5.58443 1.79884 0
M  V30 72986 C 6799.27 6.11074 1.63621 0
M  V30 72987 C 6797.93 6.49827 1.5258 0
M  V30 72988 H 6797.2 0.528544 0.519348 0
M  V30 72989 H 6799.85 1.76187 0.75036 0
M  V30 72990 H 6798.16 2.04513 3.34188 0
M  V30 72991 H 6799.85 2.41136 3.20397 0
M  V30 72992 H 6796.44 3.57418 2.36538 0
M  V30 72993 H 6800.63 4.50991 2.07174 0
M  V30 72994 H 6795.88 5.87314 1.69917 0
M  V30 72995 H 6800.06 6.81872 1.41507 0
M  V30 72996 H 6797.68 7.50293 1.22331 0
M  V30 72997 N 6799.26 -0.897103 1.29576 0
M  V30 72998 C 6800.21 -2.00151 1.14926 0
M  V30 72999 C 6801.18 -1.66047 0.0419025 0
M  V30 73000 O 6802.36 -1.89642 0.209893 0
M  V30 73001 C 6799.5 -3.34859 0.834483 0
M  V30 73002 C 6798.62 -3.8173 2.02254 0
M  V30 73003 C 6797.75 -5.05025 1.64691 0
M  V30 73004 C 6796.79 -5.44272 2.80062 0
M  V30 73005 N 6795.93 -6.58753 2.42878 0
M  V30 73006 H 6800.77 -2.12014 2.09414 0
M  V30 73007 H 6798.3 -1.03825 1.04206 0
M  V30 73008 H 6800.26 -4.12375 0.632653 0
M  V30 73009 H 6798.89 -3.22716 -0.0734955 0
M  V30 73010 H 6797.94 -3.00226 2.33599 0
M  V30 73011 H 6799.26 -4.06764 2.88695 0
M  V30 73012 H 6798.41 -5.90133 1.40811 0
M  V30 73013 H 6797.15 -4.81836 0.75402 0
M  V30 73014 H 6796.15 -4.57697 3.04621 0
M  V30 73015 H 6797.38 -5.69441 3.70019 0
M  V30 73016 H 6795.32 -6.37162 1.56079 0
M  V30 73017 H 6795.24 -6.83596 3.22851 0
M  V30 73018 H 6796.51 -7.47123 2.22324 0
M  V30 73019 N 6800.74 -1.12094 -1.10782 0
M  V30 73020 C 6802.15 -0.856257 -1.34686 0
M  V30 73021 C 6802.35 0.515512 -1.94794 0
M  V30 73022 O 6801.41 1.26494 -2.18531 0
M  V30 73023 C 6802.72 -1.96982 -2.27197 0
M  V30 73024 C 6804.27 -2.00028 -2.40744 0
M  V30 73025 C 6804.75 -3.10607 -3.36581 0
M  V30 73026 N 6806.24 -3.10027 -3.44148 0
M  V30 73027 C 6806.97 -3.92228 -4.18264 0
M  V30 73028 N 6806.47 -4.8441 -4.95297 0
M  V30 73029 N 6808.26 -3.80379 -4.13845 0
M  V30 73030 H 6800.41 -2.00487 -0.701334 0
M  V30 73031 H 6802.68 -0.872236 -0.371359 0
M  V30 73032 H 6802.38 -2.9581 -1.90236 0
M  V30 73033 H 6802.26 -1.87189 -3.27475 0
M  V30 73034 H 6804.64 -1.01823 -2.76977 0
M  V30 73035 H 6804.72 -2.13896 -1.40294 0
M  V30 73036 H 6804.37 -4.09043 -3.01074 0
M  V30 73037 H 6804.3 -2.93979 -4.36902 0
M  V30 73038 H 6806.79 -2.43244 -2.89208 0
M  V30 73039 H 6807.1 -5.43652 -5.49238 0
M  V30 73040 H 6805.45 -4.88426 -4.94434 0
M  V30 73041 H 6808.64 -3.07702 -3.52757 0
M  V30 73042 H 6808.81 -4.44674 -4.71348 0
M  V30 73043 N 6802.22 1.2851 -0.9123 0
M  V30 73044 C 6803.13 2.31084 -0.404628 0
M  V30 73045 C 6804.14 1.6645 0.506982 0
M  V30 73046 O 6805.32 1.97518 0.39352 0
M  V30 73047 C 6802.38 3.44945 0.34839 0
M  V30 73048 C 6801.44 4.25139 -0.596264 0
M  V30 73049 C 6800.68 5.33563 0.120912 0
M  V30 73050 O 6800.9 5.54367 1.34287 0
M  V30 73051 O 6799.83 5.99445 -0.543033 0
M  V30 73052 H 6803.66 2.76514 -1.25593 0
M  V30 73053 H 6801.25 1.33177 -0.677068 0
M  V30 73054 H 6803.13 4.14236 0.773732 0
M  V30 73055 H 6801.8 3.016 1.17555 0
M  V30 73056 H 6800.71 3.58442 -1.07098 0
M  V30 73057 H 6802.04 4.72159 -1.3902 0
M  V30 73058 N 6803.69 0.676123 1.4236 0
M  V30 73059 C 6804.64 -0.00138733 2.308 0
M  V30 73060 C 6805.61 -0.791367 1.46036 0
M  V30 73061 O 6806.8 -0.763347 1.74865 0
M  V30 73062 C 6803.94 -0.945744 3.31888 0
M  V30 73063 C 6803.05 -0.149447 4.31741 0
M  V30 73064 C 6802.18 -1.08967 5.19903 0
M  V30 73065 C 6801.22 -0.285142 6.11435 0
M  V30 73066 N 6800.36 -1.17815 6.92145 0
M  V30 73067 H 6805.2 0.758607 2.88183 0
M  V30 73068 H 6802.74 0.385835 1.4195 0
M  V30 73069 H 6804.7 -1.50711 3.89027 0
M  V30 73070 H 6803.33 -1.67235 2.76102 0
M  V30 73071 H 6802.38 0.528558 3.7671 0
M  V30 73072 H 6803.69 0.475128 4.96532 0
M  V30 73073 H 6802.84 -1.72092 5.81781 0
M  V30 73074 H 6801.58 -1.74813 4.55293 0
M  V30 73075 H 6800.59 0.359307 5.48625 0
M  V30 73076 H 6801.81 0.369241 6.78095 0
M  V30 73077 H 6799.76 -1.82298 6.30161 0
M  V30 73078 H 6799.68 -0.608685 7.53546 0
M  V30 73079 H 6800.94 -1.79682 7.58508 0
M  V30 73080 N 6805.17 -1.51913 0.419541 0
M  V30 73081 C 6806.08 -2.31035 -0.407406 0
M  V30 73082 C 6807.1 -1.39195 -1.04406 0
M  V30 73083 O 6808.27 -1.7227 -1.04331 0
M  V30 73084 C 6805.34 -3.12404 -1.50348 0
M  V30 73085 C 6804.4 -4.19998 -0.888807 0
M  V30 73086 C 6803.63 -4.97478 -1.93265 0
M  V30 73087 O 6803.86 -4.75378 -3.15234 0
M  V30 73088 O 6802.79 -5.82048 -1.53308 0
M  V30 73089 H 6806.62 -3.02766 0.238024 0
M  V30 73090 H 6804.2 -1.48281 0.182491 0
M  V30 73091 H 6806.08 -3.63044 -2.13956 0
M  V30 73092 H 6804.76 -2.43457 -2.13332 0
M  V30 73093 H 6803.67 -3.73481 -0.215156 0
M  V30 73094 H 6805 -4.91268 -0.302732 0
M  V30 73095 N 6806.65 -0.150297 -1.56882 0
M  V30 73096 C 6807.9 0.50073 -1.96521 0
M  V30 73097 C 6808.23 1.64298 -1.03536 0
M  V30 73098 O 6807.5 1.94342 -0.0783776 0
M  V30 73099 C 6807.79 1.00377 -3.45827 0
M  V30 73100 C 6807.64 -0.13722 -4.49591 0
M  V30 73101 C 6808.96 1.88446 -3.97714 0
M  V30 73102 H 6806.08 0.180543 -0.714544 0
M  V30 73103 H 6808.72 -0.23219 -1.88576 0
M  V30 73104 H 6806.87 1.62833 -3.52729 0
M  V30 73105 H 6808.54 -0.77367 -4.54766 0
M  V30 73106 H 6806.79 -0.795877 -4.26437 0
M  V30 73107 H 6807.46 0.256524 -5.51404 0
M  V30 73108 H 6809.93 1.35813 -3.93311 0
M  V30 73109 H 6808.81 2.20551 -5.02641 0
M  V30 73110 H 6809.07 2.82261 -3.40267 0
M  V30 73111 N 6808.13 1.57116 0.123482 0
M  V30 73112 C 6809.09 1.99082 1.13573 0
M  V30 73113 C 6810.09 0.880367 1.34559 0
M  V30 73114 O 6811.28 1.1465 1.31152 0
M  V30 73115 C 6808.41 2.32711 2.49116 0
M  V30 73116 H 6809.61 2.8971 0.775134 0
M  V30 73117 H 6807.16 1.51915 0.367629 0
M  V30 73118 H 6807.89 1.44949 2.90104 0
M  V30 73119 H 6807.68 3.13696 2.35238 0
M  V30 73120 H 6809.17 2.65935 3.21976 0
M  V30 73121 N 6809.61 -0.393535 1.52608 0
M  V30 73122 C 6811.02 -0.733282 1.41757 0
M  V30 73123 C 6811.22 -1.94284 0.534396 0
M  V30 73124 O 6810.28 -2.52499 0.00611185 0
M  V30 73125 C 6811.59 -0.972621 2.84536 0
M  V30 73126 C 6813.14 -1.07437 2.93983 0
M  V30 73127 C 6813.61 -1.34637 4.37763 0
M  V30 73128 N 6815.11 -1.41469 4.41068 0
M  V30 73129 C 6815.84 -1.64171 5.49395 0
M  V30 73130 N 6815.34 -1.84375 6.67816 0
M  V30 73131 N 6817.13 -1.66314 5.36932 0
M  V30 73132 H 6809.28 0.402438 2.08553 0
M  V30 73133 H 6811.54 0.117838 0.940648 0
M  V30 73134 H 6811.25 -0.156018 3.51354 0
M  V30 73135 H 6811.12 -1.88854 3.26518 0
M  V30 73136 H 6813.51 -1.88155 2.27336 0
M  V30 73137 H 6813.59 -0.13647 2.55436 0
M  V30 73138 H 6813.24 -0.544314 5.04975 0
M  V30 73139 H 6813.17 -2.29705 4.7386 0
M  V30 73140 H 6815.66 -1.27583 3.55712 0
M  V30 73141 H 6815.97 -2.01192 7.46151 0
M  V30 73142 H 6814.31 -1.81608 6.70853 0
M  V30 73143 H 6817.51 -1.50079 4.43389 0
M  V30 73144 H 6817.68 -1.83667 6.21426 0
M  V30 73145 N 6811.08 -1.43494 -0.651711 0
M  V30 73146 C 6812.03 -1.4877 -1.76455 0
M  V30 73147 C 6813 -0.337274 -1.6264 0
M  V30 73148 O 6814.19 -0.54464 -1.82861 0
M  V30 73149 C 6811.33 -1.41813 -3.14616 0
M  V30 73150 C 6810.44 -2.67071 -3.39554 0
M  V30 73151 C 6809.57 -2.52092 -4.67571 0
M  V30 73152 C 6808.61 -3.72612 -4.8562 0
M  V30 73153 N 6807.75 -3.56434 -6.04896 0
M  V30 73154 H 6812.59 -2.43858 -1.71281 0
M  V30 73155 H 6810.13 -1.21047 -0.835825 0
M  V30 73156 H 6812.09 -1.35774 -3.94489 0
M  V30 73157 H 6810.72 -0.503049 -3.18856 0
M  V30 73158 H 6809.77 -2.83383 -2.53768 0
M  V30 73159 H 6811.08 -3.56591 -3.48776 0
M  V30 73160 H 6810.23 -2.43769 -5.55573 0
M  V30 73161 H 6808.97 -1.601 -4.60673 0
M  V30 73162 H 6807.98 -3.81342 -3.96053 0
M  V30 73163 H 6809.2 -4.65615 -4.94347 0
M  V30 73164 H 6807.15 -2.67177 -5.99126 0
M  V30 73165 H 6807.07 -4.39556 -6.15083 0
M  V30 73166 H 6808.33 -3.51966 -6.95514 0
M  V30 73167 N 6812.56 0.890219 -1.30049 0
M  V30 73168 C 6813.49 2.01166 -1.18552 0
M  V30 73169 C 6814.47 1.69924 -0.0774252 0
M  V30 73170 O 6815.66 1.92471 -0.258551 0
M  V30 73171 C 6812.79 3.36198 -0.871118 0
M  V30 73172 C 6811.74 3.81682 -1.93657 0
M  V30 73173 C 6811.07 5.13945 -1.47527 0
M  V30 73174 C 6812.37 4.00976 -3.34687 0
M  V30 73175 H 6814.06 2.11043 -2.1237 0
M  V30 73176 H 6811.61 1.01401 -1.02244 0
M  V30 73177 H 6813.56 4.14168 -0.777359 0
M  V30 73178 H 6812.29 3.26438 0.102754 0
M  V30 73179 H 6810.94 3.05935 -2.01988 0
M  V30 73180 H 6810.59 5.00609 -0.489815 0
M  V30 73181 H 6810.29 5.45349 -2.18789 0
M  V30 73182 H 6811.82 5.94446 -1.3952 0
M  V30 73183 H 6813.23 4.694 -3.29145 0
M  V30 73184 H 6811.63 4.43748 -4.0399 0
M  V30 73185 H 6812.7 3.05001 -3.76965 0
M  V30 73186 N 6814.04 1.1268 1.10186 0
M  V30 73187 C 6814.95 0.810142 2.20168 0
M  V30 73188 C 6815.97 -0.202097 1.72822 0
M  V30 73189 O 6817.14 -0.0350629 2.01369 0
M  V30 73190 C 6814.21 0.272189 3.4563 0
M  V30 73191 C 6813.27 1.34469 4.07697 0
M  V30 73192 C 6812.5 0.832307 5.2717 0
M  V30 73193 O 6812.73 -0.332984 5.69427 0
M  V30 73194 O 6811.66 1.60308 5.8016 0
M  V30 73195 H 6815.49 1.7288 2.49692 0
M  V30 73196 H 6813.07 0.90366 1.18972 0
M  V30 73197 H 6814.95 -0.0227997 4.21394 0
M  V30 73198 H 6813.63 -0.618997 3.17726 0
M  V30 73199 H 6812.53 1.69288 3.33605 0
M  V30 73200 H 6813.87 2.20973 4.39809 0
M  V30 73201 N 6815.52 -1.28025 0.919102 0
M  V30 73202 C 6816.77 -1.94745 0.555037 0
M  V30 73203 C 6817.09 -1.72309 -0.902219 0
M  V30 73204 O 6816.35 -1.04026 -1.65762 0
M  V30 73205 C 6816.65 -3.47936 0.817039 0
M  V30 73206 C 6816.31 -3.9048 2.25468 0
M  V30 73207 C 6814.98 -4.01807 2.64773 0
M  V30 73208 C 6817.33 -4.12176 3.18999 0
M  V30 73209 C 6814.66 -4.32211 3.9675 0
M  V30 73210 C 6817.01 -4.44062 4.50546 0
M  V30 73211 C 6815.67 -4.536 4.89697 0
M  V30 73212 H 6814.94 -0.712622 0.203102 0
M  V30 73213 H 6817.59 -1.52259 1.16144 0
M  V30 73214 H 6815.89 -3.91591 0.127884 0
M  V30 73215 H 6817.59 -3.97686 0.514448 0
M  V30 73216 H 6814.18 -3.82195 1.93972 0
M  V30 73217 H 6818.37 -4.02874 2.89838 0
M  V30 73218 H 6813.62 -4.37803 4.26777 0
M  V30 73219 H 6817.8 -4.59798 5.23029 0
M  V30 73220 H 6815.42 -4.76914 5.91994 0
M  V30 73221 N 6817 -0.683663 -1.41999 0
M  V30 73222 C 6818.27 -0.138178 -1.95111 0
M  V30 73223 C 6818.65 1.34909 -1.62366 0
M  V30 73224 O 6818 2.08966 -0.924421 0
M  V30 73225 C 6818.21 -0.416764 -3.46503 0
M  V30 73226 C 6819.56 -0.338057 -4.23252 0
M  V30 73227 O 6820.58 -0.351007 -3.54466 0
M  V30 73228 O 6819.44 -0.287884 -5.45741 0
M  V30 73229 H 6816.54 -0.00802357 -0.826961 0
M  V30 73230 H 6819.08 -0.759004 -1.5178 0
M  V30 73231 H 6817.86 -1.44669 -3.63575 0
M  V30 73232 H 6817.48 0.23563 -3.96901 0
M  V30 73233 N 6818.48 1.51689 -0.427592 0
M  V30 73234 C 6819.72 2.01602 0.141841 0
M  V30 73235 C 6820.04 1.31422 1.4406 0
M  V30 73236 O 6819.31 0.445759 1.90761 0
M  V30 73237 H 6817.89 0.744942 0.0554075 0
M  V30 73238 H 6820.56 1.86438 -0.568066 0
M  V30 73239 H 6819.65 3.10406 0.324749 0
M  V30 73240 N 6819.95 0.158615 1.568 0
M  V30 73241 C 6820.88 -0.772493 2.20352 0
M  V30 73242 C 6821.86 -1.24852 1.15524 0
M  V30 73243 O 6823.05 -1.30399 1.43909 0
M  V30 73244 C 6820.18 -2.00714 2.83428 0
M  V30 73245 C 6819.13 -1.66744 3.94183 0
M  V30 73246 C 6818.46 -2.97569 4.44249 0
M  V30 73247 C 6819.76 -0.905176 5.14397 0
M  V30 73248 H 6821.45 -0.242801 2.98414 0
M  V30 73249 H 6819 -0.115343 1.43537 0
M  V30 73250 H 6820.95 -2.66342 3.26557 0
M  V30 73251 H 6819.68 -2.56075 2.02714 0
M  V30 73252 H 6818.34 -1.03489 3.5169 0
M  V30 73253 H 6817.98 -3.50944 3.60343 0
M  V30 73254 H 6817.68 -2.75598 5.1896 0
M  V30 73255 H 6819.21 -3.64248 4.90057 0
M  V30 73256 H 6820.62 -1.46379 5.54298 0
M  V30 73257 H 6819.02 -0.784986 5.94944 0
M  V30 73258 H 6820.09 0.100924 4.84795 0
M  V30 73259 N 6821.43 -1.57179 -0.115148 0
M  V30 73260 C 6822.66 -1.88969 -0.835124 0
M  V30 73261 C 6823.07 -0.748382 -1.7377 0
M  V30 73262 O 6822.41 0.289643 -1.81402 0
M  V30 73263 C 6822.47 -3.15813 -1.71763 0
M  V30 73264 C 6822.14 -4.46171 -0.988963 0
M  V30 73265 C 6823.14 -5.18864 -0.327989 0
M  V30 73266 C 6820.82 -4.92865 -0.968996 0
M  V30 73267 C 6822.81 -6.36475 0.343209 0
M  V30 73268 C 6820.5 -6.10392 -0.294002 0
M  V30 73269 C 6821.5 -6.82046 0.360942 0
M  V30 73270 O 6821.19 -7.97337 1.02516 0
M  V30 73271 H 6820.92 -0.629977 -0.245163 0
M  V30 73272 H 6823.47 -2.05142 -0.102922 0
M  V30 73273 H 6821.7 -2.95732 -2.49157 0
M  V30 73274 H 6823.39 -3.33593 -2.31237 0
M  V30 73275 H 6824.16 -4.83842 -0.335008 0
M  V30 73276 H 6820.04 -4.36995 -1.46821 0
M  V30 73277 H 6823.58 -6.92341 0.854994 0
M  V30 73278 H 6819.48 -6.44872 -0.284759 0
M  V30 73279 H 6820.25 -8.13199 0.930022 0
M  V30 73280 N 6822.91 0.385437 -1.52814 0
M  V30 73281 C 6824.16 1.12732 -1.67255 0
M  V30 73282 C 6824.47 1.91024 -0.420601 0
M  V30 73283 O 6825.68 2.67825 -0.445205 0
M  V30 73284 C 6824.13 2.05311 -2.95594 0
M  V30 73285 C 6823.74 1.32424 -4.27981 0
M  V30 73286 C 6825.49 2.79613 -3.19401 0
M  V30 73287 C 6823.39 2.23789 -5.47424 0
M  V30 73288 H 6822.32 0.42454 -0.623123 0
M  V30 73289 H 6824.97 0.38983 -1.79311 0
M  V30 73290 H 6823.36 2.8271 -2.77292 0
M  V30 73291 H 6824.53 0.602254 -4.56847 0
M  V30 73292 H 6822.84 0.700669 -4.10463 0
M  V30 73293 H 6825.44 3.48159 -4.05819 0
M  V30 73294 H 6825.78 3.43887 -2.34622 0
M  V30 73295 H 6826.32 2.09304 -3.38285 0
M  V30 73296 H 6823.06 1.64124 -6.34621 0
M  V30 73297 H 6822.58 2.93893 -5.22864 0
M  V30 73298 H 6824.26 2.83793 -5.81438 0
M  V30 73299 N 6824.39 1.43837 0.644092 0
M  V30 73300 C 6825.62 1.49395 1.43139 0
M  V30 73301 C 6826.03 0.114682 1.88451 0
M  V30 73302 O 6825.39 -0.876905 1.60052 0
M  V30 73303 C 6825.44 2.44762 2.66033 0
M  V30 73304 O 6825.16 3.77326 2.22613 0
M  V30 73305 C 6826.66 2.59654 3.59297 0
M  V30 73306 H 6823.88 0.5071 0.439421 0
M  V30 73307 H 6826.42 1.88673 0.78885 0
M  V30 73308 H 6824.58 2.08655 3.26407 0
M  V30 73309 H 6824.99 4.28695 3.02193 0
M  V30 73310 H 6826.47 3.3044 4.42169 0
M  V30 73311 H 6826.94 1.64449 4.07251 0
M  V30 73312 H 6827.55 2.96609 3.048 0
M  V30 73313 N 6825.87 -0.883309 1.3052 0
M  V30 73314 C 6826.78 -2.02196 1.1897 0
M  V30 73315 C 6827.79 -1.73657 0.109263 0
M  V30 73316 O 6828.97 -1.98768 0.324518 0
M  V30 73317 C 6826.03 -3.35239 0.884047 0
M  V30 73318 C 6825.09 -3.77191 2.05002 0
M  V30 73319 C 6824.33 -5.03885 1.75886 0
M  V30 73320 O 6824.55 -5.66241 0.687575 0
M  V30 73321 O 6823.48 -5.42283 2.61175 0
M  V30 73322 H 6827.31 -2.14869 2.14628 0
M  V30 73323 H 6824.89 -1.00955 1.1013 0
M  V30 73324 H 6826.78 -4.15049 0.728863 0
M  V30 73325 H 6825.45 -3.23672 -0.0426092 0
M  V30 73326 H 6824.36 -2.98078 2.26054 0
M  V30 73327 H 6825.69 -3.93365 2.95846 0
M  V30 73328 N 6827.34 -1.13263 -1.09587 0
M  V30 73329 C 6828.28 -0.766281 -2.16011 0
M  V30 73330 C 6829.29 0.211217 -1.61424 0
M  V30 73331 O 6830.48 -0.00873359 -1.78498 0
M  V30 73332 C 6827.58 -0.114841 -3.38705 0
M  V30 73333 C 6826.75 -1.12402 -4.22711 0
M  V30 73334 C 6825.81 -0.498577 -5.23833 0
M  V30 73335 O 6824.84 -1.15811 -5.57294 0
M  V30 73336 N 6826.04 0.730114 -5.7589 0
M  V30 73337 H 6828.8 -1.68206 -2.48046 0
M  V30 73338 H 6826.36 -1.02542 -1.25287 0
M  V30 73339 H 6828.36 0.315779 -4.03466 0
M  V30 73340 H 6826.93 0.70385 -3.04573 0
M  V30 73341 H 6826.15 -1.73198 -3.54113 0
M  V30 73342 H 6827.43 -1.80614 -4.75664 0
M  V30 73343 H 6826.83 1.28475 -5.50918 0
M  V30 73344 H 6825.39 1.10342 -6.42392 0
M  V30 73345 N 6828.82 1.27535 -0.925878 0
M  V30 73346 C 6830.23 1.76447 -0.610195 0
M  V30 73347 C 6830.58 1.75626 0.87463 0
M  V30 73348 O 6829.71 1.3586 1.68437 0
M  V30 73349 C 6830.3 3.20415 -1.1009 0
M  V30 73350 C 6828.86 3.67001 -0.835916 0
M  V30 73351 C 6828.01 2.46987 -1.26067 0
M  V30 73352 H 6830.96 1.13828 -1.10585 0
M  V30 73353 H 6830.98 3.77856 -0.447756 0
M  V30 73354 H 6830.49 3.2098 -2.18159 0
M  V30 73355 H 6828.6 3.71883 0.231053 0
M  V30 73356 H 6828.71 4.56562 -1.45218 0
M  V30 73357 H 6827.07 2.45476 -0.67924 0
M  V30 73358 H 6827.86 2.50263 -2.34997 0
M  V30 73359 N 6830.3 0.691184 1.41635 0
M  V30 73360 C 6831.53 0.227691 2.06146 0
M  V30 73361 C 6831.95 -1.11273 1.51657 0
M  V30 73362 O 6831.31 -1.69563 0.641729 0
M  V30 73363 C 6831.36 0.191048 3.60094 0
M  V30 73364 O 6830.46 -0.835451 4.03849 0
M  V30 73365 H 6829.8 0.112341 0.654428 0
M  V30 73366 H 6832.33 0.94481 1.81479 0
M  V30 73367 H 6832.34 0.0204221 4.07995 0
M  V30 73368 H 6831.02 1.16936 3.99123 0
M  V30 73369 H 6829.59 -0.634536 3.67462 0
M  V30 73370 N 6831.78 -1.5146 0.43563 0
M  V30 73371 C 6832.69 -2.31455 -0.382879 0
M  V30 73372 C 6833.7 -1.40295 -1.02924 0
M  V30 73373 O 6834.88 -1.73367 -1.02498 0
M  V30 73374 C 6831.95 -3.13981 -1.47026 0
M  V30 73375 C 6831.01 -4.20918 -0.844211 0
M  V30 73376 C 6830.24 -4.995 -1.87978 0
M  V30 73377 O 6830.46 -4.78694 -3.10174 0
M  V30 73378 O 6829.4 -5.83642 -1.47126 0
M  V30 73379 H 6833.22 -3.02496 0.270123 0
M  V30 73380 H 6830.81 -1.48079 0.198208 0
M  V30 73381 H 6832.69 -3.65292 -2.10094 0
M  V30 73382 H 6831.36 -2.45706 -2.10738 0
M  V30 73383 H 6830.27 -3.73688 -0.175531 0
M  V30 73384 H 6831.6 -4.91562 -0.25061 0
M  V30 73385 N 6833.26 -0.166928 -1.56713 0
M  V30 73386 C 6834.53 0.525273 -1.88415 0
M  V30 73387 C 6834.91 1.81612 -1.07612 0
M  V30 73388 O 6834.26 2.27876 -0.168741 0
M  V30 73389 C 6834.47 0.771434 -3.40367 0
M  V30 73390 C 6835.82 1.10338 -4.10013 0
M  V30 73391 O 6836.84 0.860121 -3.45659 0
M  V30 73392 O 6835.7 1.56211 -5.23699 0
M  V30 73393 H 6832.8 0.270237 -0.781601 0
M  V30 73394 H 6835.34 -0.205035 -1.68457 0
M  V30 73395 H 6834.11 -0.141299 -3.91045 0
M  V30 73396 H 6833.74 1.55522 -3.65922 0
M  V30 73397 N 6834.73 1.57238 0.106811 0
M  V30 73398 C 6836.01 1.76481 0.843433 0
M  V30 73399 C 6836.39 0.745568 1.97496 0
M  V30 73400 O 6835.74 -0.228186 2.27358 0
M  V30 73401 C 6835.95 3.2188 1.34886 0
M  V30 73402 C 6837.3 3.8473 1.79634 0
M  V30 73403 O 6838.32 3.25557 1.44537 0
M  V30 73404 O 6837.18 4.88761 2.44489 0
M  V30 73405 H 6834.27 0.723038 0.401429 0
M  V30 73406 H 6836.82 1.69463 0.0896033 0
M  V30 73407 H 6835.59 3.87589 0.537606 0
M  V30 73408 H 6835.22 3.33484 2.16504 0
M  V30 73409 N 6836.21 -0.377327 1.53016 0
M  V30 73410 C 6837.46 -1.11844 1.67851 0
M  V30 73411 C 6837.77 -1.90799 0.430726 0
M  V30 73412 O 6838.98 -2.67585 0.459403 0
M  V30 73413 C 6837.44 -2.0374 2.96678 0
M  V30 73414 C 6837.04 -1.30153 4.28677 0
M  V30 73415 C 6838.79 -2.77915 3.20879 0
M  V30 73416 C 6836.7 -2.20882 5.48603 0
M  V30 73417 H 6835.63 -0.42123 0.625365 0
M  V30 73418 H 6838.28 -0.380315 1.79516 0
M  V30 73419 H 6836.66 -2.81236 2.78788 0
M  V30 73420 H 6837.83 -0.578018 4.5716 0
M  V30 73421 H 6836.15 -0.678891 4.10828 0
M  V30 73422 H 6838.74 -3.46002 4.0766 0
M  V30 73423 H 6839.09 -3.42638 2.36442 0
M  V30 73424 H 6839.62 -2.07507 3.3939 0
M  V30 73425 H 6836.36 -1.60756 6.35482 0
M  V30 73426 H 6835.88 -2.91116 5.24415 0
M  V30 73427 H 6837.56 -2.80705 5.82935 0
M  V30 73428 N 6837.69 -1.44177 -0.636455 0
M  V30 73429 C 6838.64 -1.50633 -1.74867 0
M  V30 73430 C 6839.61 -0.354505 -1.62273 0
M  V30 73431 O 6840.79 -0.564005 -1.82273 0
M  V30 73432 C 6837.93 -1.45142 -3.13094 0
M  V30 73433 C 6837.05 -2.70658 -3.36702 0
M  V30 73434 C 6836.18 -2.57037 -4.64871 0
M  V30 73435 C 6835.22 -3.77742 -4.8164 0
M  V30 73436 N 6834.36 -3.6283 -6.01081 0
M  V30 73437 H 6839.2 -2.45661 -1.68685 0
M  V30 73438 H 6836.73 -1.21927 -0.82294 0
M  V30 73439 H 6838.69 -1.3995 -3.93027 0
M  V30 73440 H 6837.32 -0.536839 -3.18305 0
M  V30 73441 H 6836.37 -2.86059 -2.50748 0
M  V30 73442 H 6837.69 -3.6027 -3.44974 0
M  V30 73443 H 6836.84 -2.49648 -5.52956 0
M  V30 73444 H 6835.58 -1.64977 -4.58949 0
M  V30 73445 H 6834.58 -3.85521 -3.91986 0
M  V30 73446 H 6835.81 -4.70832 -4.89381 0
M  V30 73447 H 6833.75 -2.73517 -5.96259 0
M  V30 73448 H 6833.67 -4.46055 -6.10386 0
M  V30 73449 H 6834.94 -3.59323 -6.91742 0
M  V30 73450 N 6839.17 0.876375 -1.30986 0
M  V30 73451 C 6840.42 1.62568 -1.20067 0
M  V30 73452 C 6840.74 1.93482 0.242845 0
M  V30 73453 O 6840.01 1.5773 1.16181 0
M  V30 73454 H 6838.59 0.602653 -0.441382 0
M  V30 73455 H 6841.25 1.04954 -1.64228 0
M  V30 73456 H 6840.35 2.5721 -1.76776 0
M  V30 73457 N 6840.65 1.13843 1.08985 0
M  V30 73458 C 6841.58 0.777726 2.15602 0
M  V30 73459 C 6842.59 -0.202654 1.61534 0
M  V30 73460 O 6843.78 0.0181996 1.78491 0
M  V30 73461 C 6840.88 0.132801 3.3864 0
M  V30 73462 C 6840.05 1.14642 4.22109 0
M  V30 73463 C 6839.11 0.52635 5.23561 0
M  V30 73464 O 6838.14 1.18765 5.56672 0
M  V30 73465 N 6839.34 -0.699562 5.76269 0
M  V30 73466 H 6842.11 1.69519 2.47151 0
M  V30 73467 H 6839.67 1.03205 1.24741 0
M  V30 73468 H 6841.66 -0.294377 4.03628 0
M  V30 73469 H 6840.23 -0.687688 3.04942 0
M  V30 73470 H 6839.45 1.75074 3.5319 0
M  V30 73471 H 6840.74 1.83134 4.74699 0
M  V30 73472 H 6840.13 -1.25552 5.51592 0
M  V30 73473 H 6838.69 -1.06934 6.42968 0
M  V30 73474 N 6842.12 -1.27042 0.932629 0
M  V30 73475 C 6843.37 -1.94775 0.586015 0
M  V30 73476 C 6843.73 -1.71907 -0.864051 0
M  V30 73477 O 6843.02 -1.04046 -1.60888 0
M  V30 73478 C 6843.21 -3.4705 0.853896 0
M  V30 73479 C 6843.04 -3.84725 2.32845 0
M  V30 73480 C 6841.81 -4.07923 2.98206 0
M  V30 73481 C 6844.01 -3.93937 3.30633 0
M  V30 73482 N 6841.99 -4.32417 4.35763 0
M  V30 73483 C 6843.36 -4.22863 4.53417 0
M  V30 73484 C 6845.42 -3.76531 3.25774 0
M  V30 73485 C 6844.12 -4.36194 5.7195 0
M  V30 73486 C 6846.15 -3.9109 4.43624 0
M  V30 73487 C 6845.51 -4.20407 5.65188 0
M  V30 73488 H 6841.61 -0.735854 0.264656 0
M  V30 73489 H 6844.19 -1.53302 1.20027 0
M  V30 73490 H 6842.36 -3.87469 0.268761 0
M  V30 73491 H 6844.09 -4.01968 0.469414 0
M  V30 73492 H 6840.85 -4.02948 2.48857 0
M  V30 73493 H 6841.27 -4.48712 5.06939 0
M  V30 73494 H 6845.92 -3.52901 2.32854 0
M  V30 73495 H 6843.63 -4.58648 6.65332 0
M  V30 73496 H 6847.22 -3.79036 4.41388 0
M  V30 73497 H 6846.1 -4.31428 6.54859 0
M  V30 73498 N 6843.6 -0.698686 -1.41266 0
M  V30 73499 C 6844.88 -0.158865 -1.94954 0
M  V30 73500 C 6845.26 1.33179 -1.63788 0
M  V30 73501 O 6844.61 2.07974 -0.946533 0
M  V30 73502 C 6844.82 -0.453491 -3.46041 0
M  V30 73503 C 6846.17 -0.38293 -4.2287 0
M  V30 73504 O 6847.19 -0.388583 -3.54074 0
M  V30 73505 O 6846.05 -0.345751 -5.45405 0
M  V30 73506 H 6843.14 -0.0167941 -0.826829 0
M  V30 73507 H 6845.69 -0.77506 -1.50967 0
M  V30 73508 H 6844.46 -1.48518 -3.6202 0
M  V30 73509 H 6844.08 0.19352 -3.97129 0
M  V30 73510 N 6845.08 1.51226 -0.443656 0
M  V30 73511 C 6846.5 1.59309 -0.0962841 0
M  V30 73512 C 6846.7 1.45409 1.39493 0
M  V30 73513 O 6845.75 1.29854 2.1655 0
M  V30 73514 C 6847.07 2.94196 -0.62203 0
M  V30 73515 C 6848.61 3.07522 -0.583027 0
M  V30 73516 C 6849.09 4.44942 -1.08585 0
M  V30 73517 N 6850.58 4.51279 -1.0441 0
M  V30 73518 C 6851.32 5.55946 -1.40397 0
M  V30 73519 N 6850.81 6.68002 -1.837 0
M  V30 73520 N 6852.6 5.46339 -1.32174 0
M  V30 73521 H 6844.76 1.58506 -1.41384 0
M  V30 73522 H 6847.02 0.747536 -0.583004 0
M  V30 73523 H 6846.72 3.09758 -1.66562 0
M  V30 73524 H 6846.6 3.77166 -0.0504114 0
M  V30 73525 H 6848.99 2.91624 0.451595 0
M  V30 73526 H 6849.07 2.26376 -1.19112 0
M  V30 73527 H 6848.71 4.61586 -2.11897 0
M  V30 73528 H 6848.64 5.24637 -0.454233 0
M  V30 73529 H 6851.13 3.70857 -0.726181 0
M  V30 73530 H 6851.44 7.43895 -2.09379 0
M  V30 73531 H 6849.79 6.69193 -1.87631 0
M  V30 73532 H 6852.98 4.57683 -0.982049 0
M  V30 73533 H 6853.15 6.27797 -1.60547 0
M  V30 73534 N 6846.56 0.175237 1.56623 0
M  V30 73535 C 6847.49 -0.749078 2.21158 0
M  V30 73536 C 6848.47 -1.2362 1.16842 0
M  V30 73537 O 6849.66 -1.28865 1.45284 0
M  V30 73538 C 6846.79 -1.97696 2.85541 0
M  V30 73539 C 6845.74 -1.62554 3.9593 0
M  V30 73540 C 6845.07 -2.9284 4.4738 0
M  V30 73541 C 6846.37 -0.850566 5.15328 0
M  V30 73542 H 6848.06 -0.211137 2.98655 0
M  V30 73543 H 6845.61 -0.100112 1.43652 0
M  V30 73544 H 6847.56 -2.62864 3.29364 0
M  V30 73545 H 6846.28 -2.53911 2.05419 0
M  V30 73546 H 6844.94 -0.997532 3.52767 0
M  V30 73547 H 6844.59 -3.47103 3.64045 0
M  V30 73548 H 6844.29 -2.70079 5.21854 0
M  V30 73549 H 6845.81 -3.5903 4.93892 0
M  V30 73550 H 6847.23 -1.40491 5.55819 0
M  V30 73551 H 6845.62 -0.72184 5.95743 0
M  V30 73552 H 6846.69 0.152337 4.84661 0
M  V30 73553 N 6848.04 -1.57292 -0.098471 0
M  V30 73554 C 6849.28 -1.86192 -0.803769 0
M  V30 73555 C 6849.62 -0.763888 -1.78545 0
M  V30 73556 O 6848.89 0.228448 -1.93154 0
M  V30 73557 C 6849.17 -3.25721 -1.53551 0
M  V30 73558 C 6849.03 -4.46148 -0.572042 0
M  V30 73559 C 6850.35 -3.631 -2.48689 0
M  V30 73560 H 6847.47 -0.677227 -0.290746 0
M  V30 73561 H 6850.11 -1.8988 -0.0674782 0
M  V30 73562 H 6848.26 -3.22708 -2.16315 0
M  V30 73563 H 6849.93 -4.61275 0.0483327 0
M  V30 73564 H 6848.17 -4.33648 0.114847 0
M  V30 73565 H 6848.84 -5.40495 -1.12111 0
M  V30 73566 H 6851.32 -3.67036 -1.96019 0
M  V30 73567 H 6850.2 -4.61668 -2.96907 0
M  V30 73568 H 6850.46 -2.91605 -3.32293 0
M  V30 73569 N 6849.52 0.369207 -1.53214 0
M  V30 73570 C 6850.76 1.10952 -1.68441 0
M  V30 73571 C 6851.08 1.90568 -0.440838 0
M  V30 73572 O 6852.28 2.67338 -0.473587 0
M  V30 73573 C 6850.74 2.02164 -2.97755 0
M  V30 73574 C 6850.35 1.27877 -4.29362 0
M  V30 73575 C 6852.09 2.76209 -3.22349 0
M  V30 73576 C 6850 2.1797 -5.49766 0
M  V30 73577 H 6848.93 0.417907 -0.62759 0
M  V30 73578 H 6851.58 0.370789 -1.79715 0
M  V30 73579 H 6849.96 2.79753 -2.80275 0
M  V30 73580 H 6851.14 0.553766 -4.5746 0
M  V30 73581 H 6849.45 0.657094 -4.11183 0
M  V30 73582 H 6852.05 3.43835 -4.09489 0
M  V30 73583 H 6852.39 3.41379 -2.38256 0
M  V30 73584 H 6852.92 2.05705 -3.40486 0
M  V30 73585 H 6849.66 1.57384 -6.36326 0
M  V30 73586 H 6849.18 2.88331 -5.25952 0
M  V30 73587 H 6850.86 2.7761 -5.84416 0
M  V30 73588 N 6850.99 1.44512 0.6288 0
M  V30 73589 C 6851.94 1.51861 1.76185 0
M  V30 73590 C 6852.94 0.390129 1.64846 0
M  V30 73591 O 6854.14 0.565172 1.70897 0
M  V30 73592 H 6850.52 0.476577 0.581703 0
M  V30 73593 H 6852.49 2.47218 1.6711 0
M  V30 73594 C 6851.24 1.48221 3.14525 0
M  V30 73595 H 6850.56 2.34371 3.23898 0
M  V30 73596 H 6852 1.57423 3.93693 0
M  V30 73597 C 6850.46 0.203319 3.36286 0
M  V30 73598 O 6850.99 -0.725537 3.95093 0
M  V30 73599 N 6849.19 0.105716 2.90408 0
M  V30 73600 H 6848.74 0.862429 2.42734 0
M  V30 73601 H 6848.7 -0.74921 3.05343 0
M  V30 73602 N 6852.47 -0.869416 1.31449 0
M  V30 73603 C 6853.7 -1.65527 1.2413 0
M  V30 73604 C 6854.11 -1.87808 -0.193288 0
M  V30 73605 O 6853.47 -1.43662 -1.1255 0
M  V30 73606 C 6853.52 -3.02293 1.98245 0
M  V30 73607 O 6853.24 -2.81008 3.36104 0
M  V30 73608 C 6854.74 -3.96738 1.97772 0
M  V30 73609 H 6851.96 -0.516032 0.428896 0
M  V30 73610 H 6854.51 -1.08516 1.73334 0
M  V30 73611 H 6852.66 -3.55993 1.52801 0
M  V30 73612 H 6853.08 -3.67882 3.73849 0
M  V30 73613 H 6854.55 -4.90017 2.54139 0
M  V30 73614 H 6855.03 -4.28572 0.960363 0
M  V30 73615 H 6855.63 -3.48975 2.43097 0
M  V30 73616 N 6853.95 -1.14419 -1.08379 0
M  V30 73617 C 6854.88 -0.789149 -2.15186 0
M  V30 73618 C 6855.89 0.194084 -1.61639 0
M  V30 73619 O 6857.08 -0.0276652 -1.78479 0
M  V30 73620 C 6854.18 -0.150758 -3.38565 0
M  V30 73621 C 6853.36 -1.16879 -4.21495 0
M  V30 73622 C 6852.42 -0.554108 -5.23274 0
M  V30 73623 O 6851.44 -1.21715 -5.56034 0
M  V30 73624 N 6852.64 0.668992 -5.76632 0
M  V30 73625 H 6855.41 -1.70827 -2.46248 0
M  V30 73626 H 6852.97 -1.03865 -1.24192 0
M  V30 73627 H 6854.96 0.272968 -4.03778 0
M  V30 73628 H 6853.53 0.671506 -3.05302 0
M  V30 73629 H 6852.75 -1.76944 -3.52256 0
M  V30 73630 H 6854.04 -1.85649 -4.73721 0
M  V30 73631 H 6853.44 1.22625 -5.5225 0
M  V30 73632 H 6851.99 1.03522 -6.43527 0
M  V30 73633 N 6855.43 1.26546 -0.939353 0
M  V30 73634 C 6856.65 1.98468 -0.602113 0
M  V30 73635 C 6857.08 1.69501 0.815534 0
M  V30 73636 O 6856.44 0.941987 1.54907 0
M  V30 73637 C 6856.48 3.50473 -0.848591 0
M  V30 73638 O 6855.59 4.12322 0.0801835 0
M  V30 73639 H 6854.93 0.6227 -0.230523 0
M  V30 73640 H 6857.46 1.61059 -1.26179 0
M  V30 73641 H 6857.47 4.00692 -0.768764 0
M  V30 73642 H 6856.14 3.70887 -1.88191 0
M  V30 73643 H 6854.72 3.72866 -0.0505475 0
M  V30 73644 N 6856.91 0.706168 1.40894 0
M  V30 73645 C 6858.15 0.241637 2.01053 0
M  V30 73646 C 6858.48 -1.16215 1.55963 0
M  V30 73647 O 6857.74 -1.80068 0.76643 0
M  V30 73648 C 6858.03 0.259287 3.56458 0
M  V30 73649 C 6857.7 1.61206 4.21098 0
M  V30 73650 C 6856.36 1.98239 4.38469 0
M  V30 73651 C 6858.71 2.50156 4.57243 0
M  V30 73652 C 6856.04 3.23786 4.89265 0
M  V30 73653 C 6858.39 3.75046 5.09434 0
M  V30 73654 C 6857.06 4.12208 5.25015 0
M  V30 73655 H 6856.33 0.0884213 0.735706 0
M  V30 73656 H 6858.98 0.907346 1.6864 0
M  V30 73657 H 6857.28 -0.489984 3.88724 0
M  V30 73658 H 6858.98 -0.117829 4.00827 0
M  V30 73659 H 6855.57 1.31406 4.07959 0
M  V30 73660 H 6859.75 2.22824 4.43467 0
M  V30 73661 H 6855.01 3.52559 4.99512 0
M  V30 73662 H 6859.18 4.4415 5.3638 0
M  V30 73663 H 6856.81 5.09561 5.64138 0
M  V30 73664 N 6858.38 -1.50989 0.45167 0
M  V30 73665 C 6859.8 -1.86698 -0.00808726 0
M  V30 73666 C 6860.15 -1.36788 -1.40654 0
M  V30 73667 O 6859.27 -0.724653 -2.03906 0
M  V30 73668 C 6859.87 -3.38793 -0.0214517 0
M  V30 73669 C 6858.43 -3.73985 -0.425668 0
M  V30 73670 C 6857.57 -2.74789 0.372307 0
M  V30 73671 H 6860.52 -1.44009 0.666861 0
M  V30 73672 H 6860.54 -3.71384 -0.827882 0
M  V30 73673 H 6860.06 -3.75089 0.996486 0
M  V30 73674 H 6858.16 -3.43284 -1.44868 0
M  V30 73675 H 6858.27 -4.78894 -0.140508 0
M  V30 73676 H 6856.63 -2.54123 -0.171364 0
M  V30 73677 H 6857.42 -3.13928 1.38939 0
M  V30 73678 N 6859.86 -0.183541 -1.56528 0
M  V30 73679 C 6860.81 0.758729 -2.19877 0
M  V30 73680 C 6861.8 1.22843 -1.16644 0
M  V30 73681 O 6863.01 1.19267 -1.34816 0
M  V30 73682 H 6859.39 0.262992 -0.704514 0
M  V30 73683 H 6861.36 0.200598 -2.97725 0
M  V30 73684 C 6860.11 1.97265 -2.86325 0
M  V30 73685 H 6859.43 1.62027 -3.65496 0
M  V30 73686 H 6860.87 2.61057 -3.34103 0
M  V30 73687 C 6859.33 2.80408 -1.86743 0
M  V30 73688 O 6859.86 3.77959 -1.36051 0
M  V30 73689 N 6858.06 2.45667 -1.55229 0
M  V30 73690 H 6857.61 1.66398 -1.96645 0
M  V30 73691 H 6857.57 3.01583 -0.888547 0
M  V30 73692 N 6861.34 1.57342 0.090128 0
M  V30 73693 C 6862.29 2.03428 1.12782 0
M  V30 73694 C 6863.28 0.936241 1.41177 0
M  V30 73695 O 6864.49 1.12141 1.40799 0
M  V30 73696 H 6860.86 0.648367 0.380952 0
M  V30 73697 H 6862.83 2.89761 0.712837 0
M  V30 73698 C 6861.58 2.47864 2.43842 0
M  V30 73699 H 6860.91 3.31939 2.22838 0
M  V30 73700 H 6862.35 2.83881 3.1494 0
M  V30 73701 C 6860.81 1.35396 3.08496 0
M  V30 73702 O 6861.34 0.685849 3.95802 0
M  V30 73703 N 6859.54 1.10369 2.68825 0
M  V30 73704 H 6859.09 1.6488 1.9792 0
M  V30 73705 H 6859.05 0.353196 3.1241 0
M  V30 73706 N 6862.82 -0.361077 1.53408 0
M  V30 73707 C 6864.05 -1.12211 1.73471 0
M  V30 73708 C 6864.46 -1.83382 0.465583 0
M  V30 73709 O 6863.8 -1.74583 -0.571519 0
M  V30 73710 C 6863.86 -2.19324 2.84846 0
M  V30 73711 C 6863.53 -1.67881 4.25047 0
M  V30 73712 C 6864.52 -1.14047 5.07237 0
M  V30 73713 C 6862.21 -1.73258 4.71473 0
M  V30 73714 C 6864.2 -0.662733 6.33945 0
M  V30 73715 C 6861.89 -1.25095 5.98159 0
M  V30 73716 C 6862.89 -0.716938 6.79227 0
M  V30 73717 O 6862.57 -0.242441 8.03534 0
M  V30 73718 H 6862.31 -0.341252 0.583544 0
M  V30 73719 H 6864.86 -0.424485 2.00966 0
M  V30 73720 H 6863.09 -2.92594 2.52836 0
M  V30 73721 H 6864.78 -2.80856 2.93044 0
M  V30 73722 H 6865.55 -1.09229 4.7254 0
M  V30 73723 H 6861.42 -2.13764 4.08443 0
M  V30 73724 H 6864.97 -0.245245 6.97169 0
M  V30 73725 H 6860.87 -1.29609 6.32354 0
M  V30 73726 H 6861.63 -0.361354 8.17702 0
M  V30 73727 N 6864.3 -1.44844 -0.621128 0
M  V30 73728 C 6865.54 -1.49364 -1.38065 0
M  V30 73729 C 6865.9 -0.128216 -1.91972 0
M  V30 73730 O 6865.19 0.857996 -1.71315 0
M  V30 73731 C 6865.38 -2.49744 -2.55661 0
M  V30 73732 C 6865.21 -3.95913 -2.13268 0
M  V30 73733 C 6863.98 -4.64002 -2.00075 0
M  V30 73734 C 6866.18 -4.8484 -1.71564 0
M  V30 73735 N 6864.16 -5.94951 -1.5135 0
M  V30 73736 C 6865.53 -6.05312 -1.34156 0
M  V30 73737 C 6867.59 -4.71818 -1.59034 0
M  V30 73738 C 6866.29 -7.14204 -0.854708 0
M  V30 73739 C 6868.32 -5.80745 -1.11753 0
M  V30 73740 C 6867.68 -7.00364 -0.753016 0
M  V30 73741 H 6863.78 -0.601565 -0.499643 0
M  V30 73742 H 6866.36 -1.81233 -0.711513 0
M  V30 73743 H 6864.53 -2.19849 -3.20189 0
M  V30 73744 H 6866.27 -2.44497 -3.22496 0
M  V30 73745 H 6863.02 -4.18959 -2.20841 0
M  V30 73746 H 6863.45 -6.64546 -1.29258 0
M  V30 73747 H 6868.09 -3.79765 -1.85845 0
M  V30 73748 H 6865.81 -8.06058 -0.574127 0
M  V30 73749 H 6869.39 -5.72699 -1.02503 0
M  V30 73750 H 6868.27 -7.83216 -0.39277 0
M  V30 73751 N 6865.77 0.862433 -1.31908 0
M  V30 73752 C 6867.05 1.59902 -1.12653 0
M  V30 73753 C 6867.43 2.08722 0.315994 0
M  V30 73754 O 6866.78 1.87125 1.31135 0
M  V30 73755 C 6866.99 2.75119 -2.14734 0
M  V30 73756 C 6868.34 3.44894 -2.47656 0
M  V30 73757 O 6869.36 2.85335 -2.1322 0
M  V30 73758 O 6868.22 4.52354 -3.06656 0
M  V30 73759 H 6865.31 0.703848 -0.434197 0
M  V30 73760 H 6867.86 0.907239 -1.43413 0
M  V30 73761 H 6866.63 2.36513 -3.11732 0
M  V30 73762 H 6866.26 3.51979 -1.84923 0
M  V30 73763 N 6867.25 1.14992 1.07771 0
M  V30 73764 C 6868.2 0.842785 2.14862 0
M  V30 73765 C 6869.17 -0.202465 1.64861 0
M  V30 73766 O 6870.35 -0.0709563 1.90668 0
M  V30 73767 C 6867.49 0.333544 3.43484 0
M  V30 73768 C 6866.61 1.43986 4.07298 0
M  V30 73769 C 6865.74 0.88719 5.23739 0
M  V30 73770 C 6864.78 1.97074 5.79507 0
M  V30 73771 N 6863.92 1.43476 6.87284 0
M  V30 73772 H 6868.76 1.75999 2.40475 0
M  V30 73773 H 6866.3 0.878242 1.18006 0
M  V30 73774 H 6868.25 0.0200363 4.17195 0
M  V30 73775 H 6866.88 -0.546749 3.18136 0
M  V30 73776 H 6865.94 1.86964 3.31283 0
M  V30 73777 H 6867.25 2.25812 4.44759 0
M  V30 73778 H 6866.4 0.52597 6.04416 0
M  V30 73779 H 6865.14 0.0380528 4.87685 0
M  V30 73780 H 6864.15 2.34083 4.97479 0
M  V30 73781 H 6865.37 2.82358 6.17617 0
M  V30 73782 H 6863.32 0.607912 6.53177 0
M  V30 73783 H 6863.23 2.18933 7.23605 0
M  V30 73784 H 6864.5 1.10165 7.71676 0
M  V30 73785 N 6868.73 -1.26046 0.946051 0
M  V30 73786 C 6869.98 -1.93524 0.596221 0
M  V30 73787 C 6870.31 -1.74184 -0.865467 0
M  V30 73788 O 6869.56 -1.07519 -1.63518 0
M  V30 73789 C 6869.86 -3.46124 0.890657 0
M  V30 73790 C 6869.53 -3.8561 2.337 0
M  V30 73791 C 6868.19 -3.961 2.73237 0
M  V30 73792 C 6870.54 -4.05317 3.2767 0
M  V30 73793 C 6867.87 -4.23698 4.05828 0
M  V30 73794 C 6870.22 -4.34405 4.59864 0
M  V30 73795 C 6868.88 -4.43111 4.99208 0
M  V30 73796 H 6868.15 -0.708154 0.218173 0
M  V30 73797 H 6870.8 -1.49761 1.19347 0
M  V30 73798 H 6869.11 -3.91232 0.210917 0
M  V30 73799 H 6870.8 -3.96506 0.598688 0
M  V30 73800 H 6867.39 -3.77994 2.02035 0
M  V30 73801 H 6871.58 -3.96635 2.98319 0
M  V30 73802 H 6866.83 -4.28652 4.35967 0
M  V30 73803 H 6871.01 -4.486 5.32664 0
M  V30 73804 H 6868.63 -4.6425 6.01977 0
M  V30 73805 N 6870.21 -0.71363 -1.40517 0
M  V30 73806 C 6871.45 -0.25267 -2.0122 0
M  V30 73807 C 6871.79 1.15052 -1.5645 0
M  V30 73808 O 6871.06 1.78013 -0.783691 0
M  V30 73809 C 6871.35 -0.330521 -3.5858 0
M  V30 73810 C 6871.2 -1.77195 -4.13427 0
M  V30 73811 C 6872.52 0.29941 -4.3908 0
M  V30 73812 H 6869.64 -0.0932856 -0.731072 0
M  V30 73813 H 6872.28 -0.905761 -1.67021 0
M  V30 73814 H 6870.43 0.225532 -3.87845 0
M  V30 73815 H 6872.1 -2.38323 -3.94968 0
M  V30 73816 H 6870.34 -2.3003 -3.67789 0
M  V30 73817 H 6871.01 -1.77783 -5.22587 0
M  V30 73818 H 6873.49 -0.174358 -4.15735 0
M  V30 73819 H 6872.37 0.214482 -5.48481 0
M  V30 73820 H 6872.63 1.38266 -4.19923 0
M  V30 73821 N 6871.69 1.50747 -0.459671 0
M  V30 73822 C 6872.63 2.28276 0.340403 0
M  V30 73823 C 6873.6 1.32827 0.997301 0
M  V30 73824 O 6874.79 1.61755 1.01193 0
M  V30 73825 C 6871.93 3.14395 1.42301 0
M  V30 73826 C 6871.04 4.24863 0.782027 0
M  V30 73827 C 6870.18 4.98257 1.84156 0
M  V30 73828 C 6869.22 6.00614 1.18021 0
M  V30 73829 N 6868.35 6.6733 2.18209 0
M  V30 73830 H 6873.19 2.962 -0.327055 0
M  V30 73831 H 6870.73 1.46078 -0.173134 0
M  V30 73832 H 6872.69 3.62669 2.06222 0
M  V30 73833 H 6871.32 2.48541 2.05979 0
M  V30 73834 H 6870.37 3.80388 0.0305398 0
M  V30 73835 H 6871.68 4.98125 0.259401 0
M  V30 73836 H 6870.84 5.50191 2.55685 0
M  V30 73837 H 6869.57 4.24675 2.39797 0
M  V30 73838 H 6868.58 5.47951 0.450487 0
M  V30 73839 H 6869.8 6.76164 0.630845 0
M  V30 73840 H 6867.75 5.96547 2.72888 0
M  V30 73841 H 6867.67 7.3643 1.70899 0
M  V30 73842 H 6868.94 7.23886 2.89153 0
M  V30 73843 N 6873.17 0.191839 1.56428 0
M  V30 73844 C 6874.58 -0.164053 1.58755 0
M  V30 73845 C 6874.78 -1.61282 1.20791 0
M  V30 73846 O 6873.84 -2.34784 0.929123 0
M  V30 73847 C 6875.15 0.135353 3.00395 0
M  V30 73848 C 6876.7 0.0752001 3.1291 0
M  V30 73849 C 6877.17 0.347872 4.56677 0
M  V30 73850 N 6878.66 0.296375 4.62251 0
M  V30 73851 C 6879.4 0.481249 5.71377 0
M  V30 73852 N 6878.9 0.726296 6.88982 0
M  V30 73853 N 6880.69 0.415731 5.60561 0
M  V30 73854 H 6872.84 1.13727 1.79387 0
M  V30 73855 H 6875.1 0.453686 0.83239 0
M  V30 73856 H 6874.81 1.13975 3.3272 0
M  V30 73857 H 6874.68 -0.563577 3.72966 0
M  V30 73858 H 6877.07 -0.9198 2.80399 0
M  V30 73859 H 6877.15 0.807157 2.42732 0
M  V30 73860 H 6876.79 1.34017 4.899 0
M  V30 73861 H 6876.72 -0.404935 5.25041 0
M  V30 73862 H 6879.22 0.113458 3.7773 0
M  V30 73863 H 6879.53 0.856262 7.68042 0
M  V30 73864 H 6877.87 0.763152 6.90797 0
M  V30 73865 H 6881.06 0.224732 4.6756 0
M  V30 73866 H 6881.24 0.563229 6.45548 0
M  V30 73867 N 6874.64 -1.57388 -0.0817825 0
M  V30 73868 C 6875.59 -2.02996 -1.09823 0
M  V30 73869 C 6876.56 -0.908712 -1.39038 0
M  V30 73870 O 6877.75 -1.17567 -1.50275 0
M  V30 73871 C 6874.89 -2.47049 -2.40958 0
M  V30 73872 C 6874 -3.72751 -2.18359 0
M  V30 73873 C 6873.13 -4.05628 -3.42986 0
M  V30 73874 C 6872.17 -5.244 -3.15708 0
M  V30 73875 N 6871.31 -5.52964 -4.32638 0
M  V30 73876 H 6876.15 -2.89606 -0.702319 0
M  V30 73877 H 6873.69 -1.43229 -0.335234 0
M  V30 73878 H 6875.64 -2.70639 -3.17506 0
M  V30 73879 H 6874.27 -1.63431 -2.7837 0
M  V30 73880 H 6873.33 -3.56559 -1.3255 0
M  V30 73881 H 6874.64 -4.59442 -1.94203 0
M  V30 73882 H 6873.79 -4.30065 -4.27935 0
M  V30 73883 H 6872.53 -3.17485 -3.70209 0
M  V30 73884 H 6871.54 -4.99769 -2.29153 0
M  V30 73885 H 6872.76 -6.14152 -2.89818 0
M  V30 73886 H 6870.71 -4.6778 -4.59911 0
M  V30 73887 H 6870.62 -6.34053 -4.1172 0
M  V30 73888 H 6871.89 -5.81946 -5.18613 0
M  V30 73889 N 6876.12 0.352936 -1.53597 0
M  V30 73890 C 6877.37 1.09584 -1.70643 0
M  V30 73891 C 6877.7 1.88591 -0.463386 0
M  V30 73892 O 6876.98 1.86868 0.539499 0
M  V30 73893 C 6877.26 2.04473 -2.96416 0
M  V30 73894 C 6877.11 1.28992 -4.30907 0
M  V30 73895 C 6878.43 3.04423 -3.17828 0
M  V30 73896 H 6875.55 0.397001 -0.620934 0
M  V30 73897 H 6878.19 0.375348 -1.86256 0
M  V30 73898 H 6876.34 2.65912 -2.83237 0
M  V30 73899 H 6878.01 0.702398 -4.55921 0
M  V30 73900 H 6876.26 0.591845 -4.29744 0
M  V30 73901 H 6876.93 1.9851 -5.15071 0
M  V30 73902 H 6879.4 2.53095 -3.30276 0
M  V30 73903 H 6878.28 3.68028 -4.07243 0
M  V30 73904 H 6878.54 3.75289 -2.33689 0
M  V30 73905 N 6877.6 1.45171 0.613438 0
M  V30 73906 C 6878.53 1.4788 1.73801 0
M  V30 73907 C 6879.51 0.335764 1.59096 0
M  V30 73908 O 6880.69 0.535394 1.80737 0
M  V30 73909 C 6877.82 1.32829 3.11567 0
M  V30 73910 C 6876.87 2.50923 3.44877 0
M  V30 73911 S 6877.7 4.1341 3.40371 0
M  V30 73912 C 6878.86 4.00814 4.80728 0
M  V30 73913 H 6879.09 2.43032 1.71239 0
M  V30 73914 H 6876.62 1.32683 0.789588 0
M  V30 73915 H 6878.58 1.24833 3.91059 0
M  V30 73916 H 6877.24 0.391582 3.1165 0
M  V30 73917 H 6876.43 2.36303 4.45171 0
M  V30 73918 H 6876.04 2.55751 2.72887 0
M  V30 73919 H 6878.33 3.65597 5.7039 0
M  V30 73920 H 6879.27 5.01 5.00404 0
M  V30 73921 H 6879.68 3.32569 4.56134 0
M  V30 73922 N 6879.08 -0.855426 1.32364 0
M  V30 73923 C 6880.35 -1.59303 1.13499 0
M  V30 73924 C 6880.73 -2.08886 -0.30492 0
M  V30 73925 O 6880.08 -1.87818 -1.30141 0
M  V30 73926 C 6880.29 -2.73976 2.1619 0
M  V30 73927 C 6881.64 -3.43576 2.49481 0
M  V30 73928 O 6882.66 -2.842 2.1473 0
M  V30 73929 O 6881.52 -4.50722 3.0905 0
M  V30 73930 H 6878.62 -0.701535 0.437923 0
M  V30 73931 H 6881.16 -0.89962 1.43892 0
M  V30 73932 H 6879.94 -2.34857 3.12982 0
M  V30 73933 H 6879.56 -3.50993 1.86787 0
M  V30 73934 N 6880.56 -1.15562 -1.0716 0
M  V30 73935 C 6881.5 -0.854168 -2.14412 0
M  V30 73936 C 6882.47 0.193719 -1.64966 0
M  V30 73937 O 6883.66 0.0608437 -1.90703 0
M  V30 73938 C 6880.8 -0.351755 -3.43303 0
M  V30 73939 C 6879.91 -1.46144 -4.06529 0
M  V30 73940 C 6879.05 -0.914953 -5.23261 0
M  V30 73941 C 6878.08 -2.00144 -5.78454 0
M  V30 73942 N 6877.22 -1.47119 -6.86513 0
M  V30 73943 H 6882.06 -1.77272 -2.39539 0
M  V30 73944 H 6879.6 -0.884487 -1.17538 0
M  V30 73945 H 6881.56 -0.0421609 -4.17179 0
M  V30 73946 H 6880.19 0.529869 -3.18421 0
M  V30 73947 H 6879.24 -1.88718 -3.30287 0
M  V30 73948 H 6880.55 -2.28167 -4.43555 0
M  V30 73949 H 6879.7 -0.558016 -6.04128 0
M  V30 73950 H 6878.44 -0.0639154 -4.87658 0
M  V30 73951 H 6877.45 -2.36718 -4.9623 0
M  V30 73952 H 6878.67 -2.85629 -6.16111 0
M  V30 73953 H 6876.62 -0.642543 -6.52846 0
M  V30 73954 H 6876.54 -2.22767 -7.22434 0
M  V30 73955 H 6877.8 -1.14256 -7.71081 0
M  V30 73956 N 6882.03 1.25543 -0.952722 0
M  V30 73957 C 6883.26 1.96993 -0.622696 0
M  V30 73958 C 6883.67 1.71031 0.809022 0
M  V30 73959 O 6883.01 0.981942 1.55253 0
M  V30 73960 C 6883.08 3.50506 -0.799131 0
M  V30 73961 C 6882.74 4.0014 -2.20765 0
M  V30 73962 C 6883.74 4.10984 -3.18415 0
M  V30 73963 C 6881.42 4.33854 -2.53132 0
M  V30 73964 C 6883.42 4.54853 -4.46528 0
M  V30 73965 C 6881.1 4.7741 -3.81475 0
M  V30 73966 C 6882.1 4.87872 -4.77985 0
M  V30 73967 O 6881.79 5.30462 -6.0404 0
M  V30 73968 H 6881.52 0.634746 -0.232537 0
M  V30 73969 H 6884.08 1.60721 -1.27898 0
M  V30 73970 H 6882.31 3.86605 -0.0856941 0
M  V30 73971 H 6883.99 4.03165 -0.470443 0
M  V30 73972 H 6884.76 3.85171 -2.94735 0
M  V30 73973 H 6880.64 4.24938 -1.78741 0
M  V30 73974 H 6884.18 4.62934 -5.2186 0
M  V30 73975 H 6880.08 5.02668 -4.04963 0
M  V30 73976 H 6880.85 5.48653 -6.07389 0
M  V30 73977 N 6883.51 0.721072 1.40137 0
M  V30 73978 C 6884.76 0.262428 2.00389 0
M  V30 73979 C 6885.08 -1.15006 1.57476 0
M  V30 73980 O 6884.35 -1.78065 0.816676 0
M  V30 73981 H 6882.93 0.0940351 0.741058 0
M  V30 73982 H 6885.59 0.927926 1.71393 0
M  V30 73983 H 6884.69 0.299835 3.10656 0
M  V30 73984 N 6884.99 -1.50502 0.467659 0
M  V30 73985 C 6885.9 -2.32215 -0.333698 0
M  V30 73986 C 6886.92 -1.42447 -0.999248 0
M  V30 73987 O 6888.09 -1.75502 -0.987975 0
M  V30 73988 C 6885.16 -3.17029 -1.40333 0
M  V30 73989 C 6884.22 -4.22614 -0.754738 0
M  V30 73990 C 6883.45 -5.03375 -1.7734 0
M  V30 73991 O 6883.67 -4.85166 -2.9995 0
M  V30 73992 O 6882.61 -5.86631 -1.34713 0
M  V30 73993 H 6886.43 -3.01855 0.334226 0
M  V30 73994 H 6884.02 -1.47626 0.229573 0
M  V30 73995 H 6885.9 -3.69667 -2.02298 0
M  V30 73996 H 6884.58 -2.5012 -2.05479 0
M  V30 73997 H 6883.48 -3.73976 -0.0962272 0
M  V30 73998 H 6884.82 -4.91983 -0.146286 0
M  V30 73999 N 6886.47 -0.200132 -1.56324 0
M  V30 74000 C 6887.71 0.437307 -1.97722 0
M  V30 74001 C 6888.04 1.61279 -1.08717 0
M  V30 74002 O 6887.3 1.95285 -0.127364 0
M  V30 74003 C 6887.6 0.934921 -3.44955 0
M  V30 74004 C 6887.26 -0.127728 -4.50719 0
M  V30 74005 C 6885.92 -0.419704 -4.79366 0
M  V30 74006 C 6888.28 -0.847502 -5.14263 0
M  V30 74007 C 6885.6 -1.43634 -5.68846 0
M  V30 74008 C 6887.96 -1.85333 -6.04843 0
M  V30 74009 C 6886.62 -2.15245 -6.31843 0
M  V30 74010 H 6885.89 0.160022 -0.723515 0
M  V30 74011 H 6888.54 -0.298156 -1.89165 0
M  V30 74012 H 6886.84 1.74875 -3.50608 0
M  V30 74013 H 6888.54 1.43762 -3.74344 0
M  V30 74014 H 6885.13 0.110005 -4.28459 0
M  V30 74015 H 6889.31 -0.635161 -4.92219 0
M  V30 74016 H 6884.57 -1.67395 -5.88038 0
M  V30 74017 H 6888.74 -2.41625 -6.53139 0
M  V30 74018 H 6886.37 -2.94166 -7.00978 0
M  V30 74019 N 6887.95 1.57429 0.0734347 0
M  V30 74020 C 6889.18 1.91117 0.784729 0
M  V30 74021 C 6889.58 0.794191 1.71724 0
M  V30 74022 O 6888.93 -0.241446 1.82106 0
M  V30 74023 C 6888.99 3.20256 1.63329 0
M  V30 74024 C 6888.65 4.48636 0.870321 0
M  V30 74025 C 6889.65 5.19552 0.190306 0
M  V30 74026 C 6887.34 4.95261 0.837981 0
M  V30 74027 C 6889.33 6.35342 -0.511838 0
M  V30 74028 C 6887.02 6.10957 0.132064 0
M  V30 74029 C 6888.01 6.80849 -0.541647 0
M  V30 74030 O 6887.7 7.94338 -1.2362 0
M  V30 74031 H 6887.43 0.636256 0.228374 0
M  V30 74032 H 6889.99 2.05343 0.0484956 0
M  V30 74033 H 6888.22 3.02234 2.41229 0
M  V30 74034 H 6889.91 3.39606 2.22311 0
M  V30 74035 H 6890.67 4.8456 0.206608 0
M  V30 74036 H 6886.55 4.40734 1.35183 0
M  V30 74037 H 6890.1 6.8983 -1.03826 0
M  V30 74038 H 6885.99 6.454 0.113683 0
M  V30 74039 H 6886.76 8.10447 -1.1453 0
M  V30 74040 N 6889.42 -0.344785 1.53782 0
M  V30 74041 C 6890.67 -1.08302 1.70631 0
M  V30 74042 C 6890.99 -1.89213 0.471547 0
M  V30 74043 O 6890.26 -1.89023 -0.514517 0
M  V30 74044 H 6888.84 -0.402826 0.629079 0
M  V30 74045 H 6891.51 -0.386359 1.91032 0
M  V30 74046 H 6890.6 -1.76111 2.57665 0
M  V30 74047 N 6890.9 -1.45495 -0.60573 0
M  V30 74048 C 6892.32 -1.29941 -0.926682 0
M  V30 74049 C 6892.52 -0.253811 -1.99895 0
M  V30 74050 O 6891.57 0.351605 -2.5004 0
M  V30 74051 C 6892.89 -2.6789 -1.36585 0
M  V30 74052 C 6894.44 -2.75801 -1.47996 0
M  V30 74053 C 6894.91 -4.14279 -1.95287 0
M  V30 74054 N 6896.4 -4.16582 -2.02518 0
M  V30 74055 C 6897.14 -5.20602 -2.40336 0
M  V30 74056 N 6896.63 -6.34966 -2.77109 0
M  V30 74057 N 6898.43 -5.07961 -2.40691 0
M  V30 74058 H 6890.58 -2.1215 0.102974 0
M  V30 74059 H 6892.84 -0.947855 -0.016589 0
M  V30 74060 H 6892.55 -3.45601 -0.652124 0
M  V30 74061 H 6892.42 -2.96476 -2.332 0
M  V30 74062 H 6894.81 -1.98392 -2.18459 0
M  V30 74063 H 6894.89 -2.50927 -0.496909 0
M  V30 74064 H 6894.53 -4.92173 -1.2541 0
M  V30 74065 H 6894.46 -4.36545 -2.94509 0
M  V30 74066 H 6896.95 -3.34054 -1.76681 0
M  V30 74067 H 6897.27 -7.1013 -3.04853 0
M  V30 74068 H 6895.61 -6.38365 -2.74801 0
M  V30 74069 H 6898.8 -4.17661 -2.1137 0
M  V30 74070 H 6898.97 -5.89145 -2.69838 0
M  V30 74071 N 6892.38 0.848394 -1.32816 0
M  V30 74072 C 6893.66 1.58698 -1.14342 0
M  V30 74073 C 6894.04 2.09045 0.293838 0
M  V30 74074 O 6893.39 1.88506 1.29143 0
M  V30 74075 C 6893.6 2.72826 -2.1764 0
M  V30 74076 C 6894.94 3.42248 -2.513 0
M  V30 74077 O 6895.97 2.83057 -2.16234 0
M  V30 74078 O 6894.83 4.49076 -3.11436 0
M  V30 74079 H 6891.92 0.699203 -0.441638 0
M  V30 74080 H 6894.47 0.891977 -1.44367 0
M  V30 74081 H 6893.24 2.33194 -3.14223 0
M  V30 74082 H 6892.86 3.49998 -1.88646 0
M  V30 74083 N 6893.86 1.16129 1.06545 0
M  V30 74084 C 6895.27 0.905655 1.31416 0
M  V30 74085 C 6895.47 -0.44286 1.96573 0
M  V30 74086 O 6894.53 -1.18296 2.23075 0
M  V30 74087 C 6895.84 2.05279 2.1973 0
M  V30 74088 C 6897.39 2.08826 2.33154 0
M  V30 74089 C 6897.87 3.22885 3.24821 0
M  V30 74090 N 6899.36 3.22586 3.32404 0
M  V30 74091 C 6900.09 4.07482 4.03418 0
M  V30 74092 N 6899.59 5.02459 4.76977 0
M  V30 74093 N 6901.38 3.95477 3.99443 0
M  V30 74094 H 6893.53 2.02952 0.626441 0
M  V30 74095 H 6895.8 0.885418 0.338731 0
M  V30 74096 H 6895.5 3.02666 1.79126 0
M  V30 74097 H 6895.38 1.99215 3.20302 0
M  V30 74098 H 6897.76 1.12032 2.73007 0
M  V30 74099 H 6897.84 2.18955 1.32258 0
M  V30 74100 H 6897.49 4.19936 2.85686 0
M  V30 74101 H 6897.42 3.09992 4.25691 0
M  V30 74102 H 6899.91 2.5381 2.7998 0
M  V30 74103 H 6900.22 5.63662 5.28683 0
M  V30 74104 H 6898.57 5.0644 4.75965 0
M  V30 74105 H 6901.76 3.20582 3.41093 0
M  V30 74106 H 6901.93 4.61861 4.5452 0
M  V30 74107 N 6895.34 -1.25036 0.959367 0
M  V30 74108 C 6896.59 -1.9218 0.612355 0
M  V30 74109 C 6896.9 -1.75911 -0.855254 0
M  V30 74110 O 6898.1 -2.37671 -1.31243 0
M  V30 74111 C 6896.56 -3.44409 1.04453 0
M  V30 74112 C 6896.17 -3.69379 2.53501 0
M  V30 74113 C 6897.91 -4.17453 0.770275 0
M  V30 74114 C 6895.82 -5.15138 2.90495 0
M  V30 74115 H 6894.75 -0.719547 0.225317 0
M  V30 74116 H 6897.4 -1.41819 1.16445 0
M  V30 74117 H 6895.78 -3.93758 0.420807 0
M  V30 74118 H 6896.96 -3.30664 3.20933 0
M  V30 74119 H 6895.27 -3.09605 2.78449 0
M  V30 74120 H 6897.87 -5.24827 1.02277 0
M  V30 74121 H 6898.21 -4.15265 -0.293392 0
M  V30 74122 H 6898.74 -3.74027 1.35457 0
M  V30 74123 H 6895.48 -5.22441 3.95898 0
M  V30 74124 H 6895 -5.54882 2.2774 0
M  V30 74125 H 6896.68 -5.83301 2.79945 0
M  V30 74126 N 6896.81 -0.728493 -1.39752 0
M  V30 74127 C 6898.04 -0.282267 -2.0547 0
M  V30 74128 C 6898.46 1.07213 -1.54554 0
M  V30 74129 O 6897.82 1.67802 -0.68646 0
M  V30 74130 C 6897.87 -0.286453 -3.5946 0
M  V30 74131 O 6896.97 0.728084 -4.05922 0
M  V30 74132 H 6896.32 -0.129652 -0.651219 0
M  V30 74133 H 6898.85 -0.992594 -1.7891 0
M  V30 74134 H 6898.86 -0.128588 -4.07797 0
M  V30 74135 H 6897.53 -1.27476 -3.95882 0
M  V30 74136 H 6896.11 0.536887 -3.69015 0
M  V30 74137 N 6898.29 1.50251 -0.475634 0
M  V30 74138 C 6899.2 2.32388 0.321378 0
M  V30 74139 C 6900.22 1.42975 0.99168 0
M  V30 74140 O 6901.39 1.76024 0.978654 0
M  V30 74141 C 6898.46 3.17769 1.3865 0
M  V30 74142 C 6897.52 4.23008 0.732315 0
M  V30 74143 C 6896.75 5.04308 1.74668 0
M  V30 74144 O 6896.98 4.8675 2.97373 0
M  V30 74145 O 6895.91 5.87337 1.316 0
M  V30 74146 H 6899.74 3.01674 -0.35023 0
M  V30 74147 H 6897.32 1.47502 -0.237399 0
M  V30 74148 H 6899.2 3.70734 2.00335 0
M  V30 74149 H 6897.88 2.51207 2.04149 0
M  V30 74150 H 6896.79 3.74022 0.076393 0
M  V30 74151 H 6898.12 4.92053 0.120193 0
M  V30 74152 N 6899.77 0.20842 1.56216 0
M  V30 74153 C 6900.7 -0.701999 2.22698 0
M  V30 74154 C 6901.68 -1.21114 1.19438 0
M  V30 74155 O 6902.87 -1.25754 1.47985 0
M  V30 74156 C 6900 -1.91595 2.8967 0
M  V30 74157 C 6898.95 -1.54119 3.99289 0
M  V30 74158 C 6898.28 -2.83284 4.53491 0
M  V30 74159 C 6899.58 -0.741066 5.17016 0
M  V30 74160 H 6901.27 -0.14774 2.99035 0
M  V30 74161 H 6898.82 -0.0696193 1.43832 0
M  V30 74162 H 6900.77 -2.55818 3.34865 0
M  V30 74163 H 6899.49 -2.49496 2.10759 0
M  V30 74164 H 6898.15 -0.922481 3.54804 0
M  V30 74165 H 6897.8 -3.39303 3.71326 0
M  V30 74166 H 6897.5 -2.58949 5.27465 0
M  V30 74167 H 6899.02 -3.48473 5.01397 0
M  V30 74168 H 6900.44 -1.2867 5.58674 0
M  V30 74169 H 6898.84 -0.595312 5.9714 0
M  V30 74170 H 6899.91 0.255107 4.84228 0
M  V30 74171 N 6901.25 -1.57466 -0.0650849 0
M  V30 74172 C 6902.18 -2.07188 -1.07682 0
M  V30 74173 C 6903.16 -0.966747 -1.39957 0
M  V30 74174 O 6904.34 -1.23988 -1.49468 0
M  V30 74175 C 6901.47 -2.5214 -2.38836 0
M  V30 74176 C 6900.43 -3.6659 -2.20897 0
M  V30 74177 C 6899.75 -3.9762 -3.57494 0
M  V30 74178 C 6901.05 -4.96389 -1.62467 0
M  V30 74179 H 6902.75 -2.91966 -0.663045 0
M  V30 74180 H 6900.29 -1.40456 -0.317495 0
M  V30 74181 H 6902.25 -2.85538 -3.09913 0
M  V30 74182 H 6900.97 -1.64399 -2.82207 0
M  V30 74183 H 6899.63 -3.33485 -1.52261 0
M  V30 74184 H 6899.28 -3.07 -3.98447 0
M  V30 74185 H 6898.98 -4.7469 -3.46328 0
M  V30 74186 H 6900.5 -4.33521 -4.2999 0
M  V30 74187 H 6901.92 -5.27975 -2.23417 0
M  V30 74188 H 6900.31 -5.77826 -1.61979 0
M  V30 74189 H 6901.38 -4.81336 -0.586787 0
M  V30 74190 N 6902.73 0.336625 -1.53963 0
M  V30 74191 C 6903.98 1.07396 -1.71203 0
M  V30 74192 C 6904.3 1.8896 -0.481575 0
M  V30 74193 O 6903.57 1.89293 0.504485 0
M  V30 74194 H 6902.15 0.399484 -0.631206 0
M  V30 74195 H 6904.81 0.376222 -1.91234 0
M  V30 74196 H 6903.9 1.74742 -2.58596 0
M  V30 74197 N 6904.21 1.45814 0.598006 0
M  V30 74198 C 6905.14 1.49715 1.72223 0
M  V30 74199 C 6906.12 0.352619 1.5873 0
M  V30 74200 O 6907.3 0.554533 1.80159 0
M  V30 74201 C 6904.43 1.36126 3.10141 0
M  V30 74202 C 6903.47 2.54567 3.42196 0
M  V30 74203 S 6904.31 4.16997 3.35967 0
M  V30 74204 C 6905.46 4.0589 4.76449 0
M  V30 74205 H 6905.7 2.44834 1.68652 0
M  V30 74206 H 6903.23 1.33513 0.775471 0
M  V30 74207 H 6905.19 1.28974 3.89713 0
M  V30 74208 H 6903.85 0.424615 3.11217 0
M  V30 74209 H 6903.04 2.41011 4.4264 0
M  V30 74210 H 6902.64 2.58631 2.70159 0
M  V30 74211 H 6904.93 3.71626 5.66481 0
M  V30 74212 H 6905.88 5.06279 4.95062 0
M  V30 74213 H 6906.29 3.37388 4.52581 0
M  V30 74214 N 6905.68 -0.841338 1.33264 0
M  V30 74215 C 6906.96 -1.5809 1.15182 0
M  V30 74216 C 6907.34 -2.09198 -0.282748 0
M  V30 74217 O 6906.69 -1.89188 -1.28141 0
M  V30 74218 C 6906.9 -2.71668 2.19084 0
M  V30 74219 C 6908.25 -3.4091 2.53111 0
M  V30 74220 O 6909.27 -2.81906 2.17732 0
M  V30 74221 O 6908.13 -4.47419 3.13813 0
M  V30 74222 H 6905.22 -0.696851 0.44534 0
M  V30 74223 H 6907.77 -0.884308 1.44838 0
M  V30 74224 H 6906.54 -2.31524 3.15456 0
M  V30 74225 H 6906.16 -3.48992 1.905 0
M  V30 74226 N 6907.16 -1.16692 -1.05928 0
M  V30 74227 C 6908.11 -0.876861 -2.13494 0
M  V30 74228 C 6909.08 0.176212 -1.65163 0
M  V30 74229 O 6910.26 0.0406137 -1.90757 0
M  V30 74230 C 6907.4 -0.388147 -3.4291 0
M  V30 74231 C 6906.52 -1.50448 -4.04956 0
M  V30 74232 C 6905.65 -0.9704 -5.22261 0
M  V30 74233 C 6904.69 -2.06268 -5.76298 0
M  V30 74234 N 6903.83 -1.54392 -6.84914 0
M  V30 74235 H 6908.67 -1.79802 -2.37645 0
M  V30 74236 H 6906.2 -0.896904 -1.16593 0
M  V30 74237 H 6908.16 -0.0864059 -4.17111 0
M  V30 74238 H 6906.79 0.496067 -3.18966 0
M  V30 74239 H 6905.84 -1.9221 -3.28267 0
M  V30 74240 H 6907.16 -2.32859 -4.4111 0
M  V30 74241 H 6906.31 -0.622061 -6.03503 0
M  V30 74242 H 6905.05 -0.115634 -4.87563 0
M  V30 74243 H 6904.05 -2.41968 -4.93692 0
M  V30 74244 H 6905.28 -2.92148 -6.13047 0
M  V30 74245 H 6903.23 -0.711749 -6.52127 0
M  V30 74246 H 6903.14 -2.30417 -7.2003 0
M  V30 74247 H 6904.41 -1.22428 -7.69826 0
M  V30 74248 N 6908.64 1.24525 -0.965984 0
M  V30 74249 C 6909.6 2.23687 -0.499665 0
M  V30 74250 C 6910.6 1.55672 0.402858 0
M  V30 74251 O 6911.79 1.73065 0.198558 0
M  V30 74252 C 6908.92 3.39776 0.276613 0
M  V30 74253 H 6910.12 2.66456 -1.37627 0
M  V30 74254 H 6907.67 1.37109 -0.750396 0
M  V30 74255 H 6908.41 3.02444 1.17039 0
M  V30 74256 H 6908.19 3.90341 -0.371032 0
M  V30 74257 H 6909.68 4.13383 0.591957 0
M  V30 74258 N 6910.12 0.735894 1.39364 0
M  V30 74259 C 6911.08 0.104994 2.28959 0
M  V30 74260 C 6912.08 -0.666196 1.4635 0
M  V30 74261 O 6913.27 -0.495081 1.67017 0
M  V30 74262 C 6910.4 -0.860482 3.29861 0
M  V30 74263 H 6911.6 0.894355 2.86254 0
M  V30 74264 H 6909.15 0.501782 1.48026 0
M  V30 74265 H 6909.88 -1.67617 2.77624 0
M  V30 74266 H 6909.67 -0.310121 3.90872 0
M  V30 74267 H 6911.16 -1.29846 3.969 0
M  V30 74268 N 6911.6 -1.49997 0.483595 0
M  V30 74269 C 6912.53 -2.31645 -0.293707 0
M  V30 74270 C 6913.51 -1.39118 -0.978791 0
M  V30 74271 O 6914.69 -1.68034 -0.973555 0
M  V30 74272 C 6911.82 -3.19188 -1.36881 0
M  V30 74273 C 6910.78 -4.20369 -0.804611 0
M  V30 74274 C 6910.1 -4.96732 -1.97893 0
M  V30 74275 C 6911.4 -5.21945 0.192588 0
M  V30 74276 H 6913.1 -2.96878 0.387772 0
M  V30 74277 H 6910.64 -1.42768 0.187932 0
M  V30 74278 H 6912.59 -3.7511 -1.92017 0
M  V30 74279 H 6911.32 -2.51864 -2.07923 0
M  V30 74280 H 6909.98 -3.65566 -0.275126 0
M  V30 74281 H 6909.63 -4.2587 -2.67663 0
M  V30 74282 H 6909.33 -5.65182 -1.60759 0
M  V30 74283 H 6910.85 -5.55492 -2.53497 0
M  V30 74284 H 6912.26 -5.72664 -0.270031 0
M  V30 74285 H 6910.66 -5.98186 0.478858 0
M  V30 74286 H 6911.73 -4.71922 1.11434 0
M  V30 74287 N 6913.07 -0.216701 -1.56103 0
M  V30 74288 C 6914.35 0.465065 -1.89991 0
M  V30 74289 C 6914.73 1.78096 -1.13335 0
M  V30 74290 O 6914.08 2.27224 -0.241152 0
M  V30 74291 C 6914.29 0.662758 -3.42649 0
M  V30 74292 C 6915.64 0.972384 -4.13316 0
M  V30 74293 O 6916.66 0.749717 -3.48221 0
M  V30 74294 O 6915.52 1.39471 -5.28403 0
M  V30 74295 H 6912.61 0.245234 -0.789803 0
M  V30 74296 H 6915.16 -0.258525 -1.67719 0
M  V30 74297 H 6913.93 -0.265636 -3.90397 0
M  V30 74298 H 6913.55 1.43801 -3.70684 0
M  V30 74299 N 6914.55 1.57498 0.0567332 0
M  V30 74300 C 6915.8 1.87979 0.753005 0
M  V30 74301 C 6916.13 0.810443 1.76811 0
M  V30 74302 O 6915.38 -0.191887 1.94757 0
M  V30 74303 C 6915.68 3.25161 1.48342 0
M  V30 74304 C 6915.35 4.46797 0.606894 0
M  V30 74305 C 6914.01 4.79811 0.365389 0
M  V30 74306 C 6916.36 5.212 3.11369e-05 0
M  V30 74307 C 6913.69 5.84632 -0.492214 0
M  V30 74308 C 6916.04 6.2693 -0.845112 0
M  V30 74309 C 6914.7 6.58435 -1.09634 0
M  V30 74310 H 6913.97 0.687864 0.275544 0
M  V30 74311 H 6916.62 1.91495 0.0134163 0
M  V30 74312 H 6914.93 3.17505 2.29561 0
M  V30 74313 H 6916.62 3.45984 2.02721 0
M  V30 74314 H 6913.21 4.20967 0.805265 0
M  V30 74315 H 6917.4 4.95996 0.173699 0
M  V30 74316 H 6912.65 6.07432 -0.695451 0
M  V30 74317 H 6916.83 6.83737 -1.32201 0
M  V30 74318 H 6914.45 7.39483 -1.76263 0
M  V30 74319 N 6916.03 -0.328455 1.54139 0
M  V30 74320 C 6917.25 -1.09103 1.76384 0
M  V30 74321 C 6917.68 -1.81091 0.508692 0
M  V30 74322 O 6917.04 -1.73087 -0.539506 0
M  V30 74323 C 6917.09 -2.06857 2.95369 0
M  V30 74324 O 6916.19 -3.14663 2.66572 0
M  V30 74325 H 6915.53 -0.314807 0.58463 0
M  V30 74326 H 6918.06 -0.374242 2.01148 0
M  V30 74327 H 6918.07 -2.49813 3.22579 0
M  V30 74328 H 6916.75 -1.5386 3.86393 0
M  V30 74329 H 6915.32 -2.76417 2.50296 0
M  V30 74330 N 6917.51 -1.46129 -0.590264 0
M  V30 74331 C 6918.79 -1.41523 -1.35021 0
M  V30 74332 C 6919.17 -0.0947584 -2.10887 0
M  V30 74333 O 6918.51 0.923582 -2.09003 0
M  V30 74334 C 6918.72 -2.64009 -2.28255 0
M  V30 74335 C 6920.07 -3.09836 -2.90321 0
M  V30 74336 O 6921.1 -2.64504 -2.38571 0
M  V30 74337 O 6919.95 -3.88555 -3.84301 0
M  V30 74338 H 6917.05 -0.562445 -0.606287 0
M  V30 74339 H 6919.59 -1.58284 -0.61191 0
M  V30 74340 H 6918.37 -3.5168 -1.71573 0
M  V30 74341 H 6917.99 -2.49669 -3.09437 0
M  V30 74342 N 6918.99 0.834259 -1.33708 0
M  V30 74343 C 6919.95 1.92597 -1.24254 0
M  V30 74344 C 6920.95 1.59997 -0.160467 0
M  V30 74345 O 6922.14 1.6925 -0.412317 0
M  V30 74346 C 6919.27 3.28371 -0.915723 0
M  V30 74347 H 6920.46 2.02404 -2.21297 0
M  V30 74348 H 6918.02 1.0269 -1.17833 0
M  V30 74349 H 6918.75 3.24258 0.0520177 0
M  V30 74350 H 6918.54 3.53413 -1.69829 0
M  V30 74351 H 6920.03 4.08342 -0.874446 0
M  V30 74352 N 6920.46 1.17252 1.05308 0
M  V30 74353 C 6921.88 0.919542 1.30448 0
M  V30 74354 C 6922.08 -0.421986 1.97032 0
M  V30 74355 O 6921.14 -1.15923 2.24317 0
M  V30 74356 C 6922.45 2.07598 2.1754 0
M  V30 74357 C 6924 2.11287 2.30926 0
M  V30 74358 C 6924.47 3.26312 3.21379 0
M  V30 74359 N 6925.96 3.26093 3.28964 0
M  V30 74360 C 6926.7 4.11738 3.99074 0
M  V30 74361 N 6926.19 5.07489 4.71621 0
M  V30 74362 N 6927.99 3.99691 3.95226 0
M  V30 74363 H 6920.14 2.03605 0.60488 0
M  V30 74364 H 6922.4 0.888961 0.329321 0
M  V30 74365 H 6922.11 3.04549 1.75905 0
M  V30 74366 H 6921.98 2.02601 3.18171 0
M  V30 74367 H 6924.37 1.14922 2.71803 0
M  V30 74368 H 6924.45 2.20346 1.29929 0
M  V30 74369 H 6924.09 4.22942 2.81216 0
M  V30 74370 H 6924.02 3.1449 4.22379 0
M  V30 74371 H 6926.51 2.56765 2.77273 0
M  V30 74372 H 6926.83 5.69237 5.22675 0
M  V30 74373 H 6925.17 5.1146 4.70567 0
M  V30 74374 H 6928.36 3.24182 3.37674 0
M  V30 74375 H 6928.54 4.66656 4.49596 0
M  V30 74376 N 6921.94 -1.24011 0.972574 0
M  V30 74377 C 6922.85 -2.28891 0.514421 0
M  V30 74378 C 6923.87 -1.6868 -0.426989 0
M  V30 74379 O 6925.04 -1.99171 -0.298833 0
M  V30 74380 C 6922.11 -3.46214 -0.183416 0
M  V30 74381 C 6921.17 -4.2181 0.798424 0
M  V30 74382 C 6920.4 -5.33532 0.133795 0
M  V30 74383 O 6920.63 -5.60143 -1.07685 0
M  V30 74384 O 6919.56 -5.96172 0.828417 0
M  V30 74385 H 6923.39 -2.70207 1.38643 0
M  V30 74386 H 6920.97 -1.29795 0.739838 0
M  V30 74387 H 6922.85 -4.17456 -0.575213 0
M  V30 74388 H 6921.53 -3.06865 -1.03031 0
M  V30 74389 H 6920.44 -3.52924 1.24077 0
M  V30 74390 H 6921.77 -4.64989 1.61389 0
M  V30 74391 N 6923.42 -0.743275 -1.38972 0
M  V30 74392 C 6924.37 -0.108732 -2.30544 0
M  V30 74393 C 6925.34 0.72079 -1.49646 0
M  V30 74394 O 6926.52 0.679048 -1.78308 0
M  V30 74395 C 6923.66 0.786319 -3.36022 0
M  V30 74396 C 6922.78 -0.0567127 -4.31963 0
M  V30 74397 C 6921.91 0.840381 -5.2451 0
M  V30 74398 C 6920.95 -0.00690641 -6.121 0
M  V30 74399 N 6920.09 0.846575 -6.96977 0
M  V30 74400 H 6924.93 -0.895238 -2.84235 0
M  V30 74401 H 6922.46 -0.453121 -1.39947 0
M  V30 74402 H 6924.42 1.31978 -3.95775 0
M  V30 74403 H 6923.05 1.53872 -2.83766 0
M  V30 74404 H 6922.1 -0.707689 -3.73759 0
M  V30 74405 H 6923.42 -0.711489 -4.937 0
M  V30 74406 H 6922.57 1.44139 -5.89329 0
M  V30 74407 H 6921.31 1.52892 -4.63115 0
M  V30 74408 H 6920.31 -0.620654 -5.46286 0
M  V30 74409 H 6921.54 -0.692348 -6.75562 0
M  V30 74410 H 6919.48 1.52025 -6.38141 0
M  V30 74411 H 6919.4 0.248465 -7.55592 0
M  V30 74412 H 6920.67 1.43288 -7.66217 0
M  V30 74413 N 6924.9 1.49738 -0.491543 0
M  V30 74414 C 6925.85 2.28947 0.291906 0
M  V30 74415 C 6926.82 1.34913 0.968902 0
M  V30 74416 O 6928 1.63865 0.977394 0
M  V30 74417 C 6925.14 3.17343 1.356 0
M  V30 74418 C 6924.25 4.26426 0.691732 0
M  V30 74419 C 6923.39 5.02051 1.73546 0
M  V30 74420 C 6922.43 6.02982 1.05255 0
M  V30 74421 N 6921.56 6.71808 2.04004 0
M  V30 74422 H 6926.4 2.95439 -0.38981 0
M  V30 74423 H 6923.94 1.45677 -0.20408 0
M  V30 74424 H 6925.9 3.66961 1.98482 0
M  V30 74425 H 6924.53 2.52854 2.00661 0
M  V30 74426 H 6923.58 3.80367 -0.0501529 0
M  V30 74427 H 6924.89 4.98563 0.153683 0
M  V30 74428 H 6924.05 5.5549 2.43957 0
M  V30 74429 H 6922.79 4.29666 2.30735 0
M  V30 74430 H 6921.79 5.48784 0.334157 0
M  V30 74431 H 6923.02 6.7735 0.487279 0
M  V30 74432 H 6920.96 6.02201 2.60173 0
M  V30 74433 H 6920.88 7.3989 1.5524 0
M  V30 74434 H 6922.15 7.29856 2.73733 0
M  V30 74435 N 6926.38 0.224977 1.55986 0
M  V30 74436 C 6927.32 -0.683734 2.2044 0
M  V30 74437 C 6928.29 -1.18777 1.16109 0
M  V30 74438 O 6929.48 -1.24624 1.44476 0
M  V30 74439 C 6926.62 -1.88476 2.89086 0
M  V30 74440 C 6925.73 -1.4193 4.08019 0
M  V30 74441 C 6924.87 -2.57816 4.6444 0
M  V30 74442 C 6923.91 -2.08023 5.75667 0
M  V30 74443 N 6923.04 -3.17194 6.26364 0
M  V30 74444 H 6927.88 -0.127383 2.97728 0
M  V30 74445 H 6925.42 -0.0511202 1.47011 0
M  V30 74446 H 6927.38 -2.58997 3.27073 0
M  V30 74447 H 6926.01 -2.41393 2.14311 0
M  V30 74448 H 6925.06 -0.608897 3.75495 0
M  V30 74449 H 6926.37 -1.01422 4.8838 0
M  V30 74450 H 6925.53 -3.36414 5.04887 0
M  V30 74451 H 6924.26 -3.01614 3.83249 0
M  V30 74452 H 6923.27 -1.27888 5.34719 0
M  V30 74453 H 6924.49 -1.6522 6.58695 0
M  V30 74454 H 6922.44 -3.60468 5.48086 0
M  V30 74455 H 6922.36 -2.80949 7.01857 0
M  V30 74456 H 6923.63 -3.95917 6.71468 0
M  V30 74457 N 6927.85 -1.57526 -0.0483799 0
M  V30 74458 C 6929.27 -1.76884 -0.597393 0
M  V30 74459 C 6929.62 -0.853568 -1.7666 0
M  V30 74460 O 6928.74 -0.0434797 -2.16356 0
M  V30 74461 C 6929.34 -3.20771 -1.09049 0
M  V30 74462 C 6927.9 -3.41393 -1.58517 0
M  V30 74463 C 6927.04 -2.72481 -0.514724 0
M  V30 74464 H 6929.99 -1.577 0.177841 0
M  V30 74465 H 6930.01 -3.26221 -1.95858 0
M  V30 74466 H 6929.53 -3.87361 -0.239316 0
M  V30 74467 H 6927.63 -2.7995 -2.45884 0
M  V30 74468 H 6927.74 -4.49938 -1.64599 0
M  V30 74469 H 6926.1 -2.357 -0.965283 0
M  V30 74470 H 6926.89 -3.41742 0.326661 0
M  V30 74471 N 6929.33 0.320276 -1.54311 0
M  V30 74472 C 6930.28 1.39428 -1.83925 0
M  V30 74473 C 6931.25 1.51245 -0.686605 0
M  V30 74474 O 6932.43 1.66412 -0.933356 0
M  V30 74475 C 6929.57 2.75738 -2.07515 0
M  V30 74476 C 6928.69 2.72527 -3.35191 0
M  V30 74477 C 6927.82 4.00705 -3.48725 0
M  V30 74478 C 6926.86 3.91814 -4.70264 0
M  V30 74479 N 6926 5.11728 -4.80706 0
M  V30 74480 H 6930.84 1.13474 -2.7555 0
M  V30 74481 H 6928.38 0.549237 -1.36462 0
M  V30 74482 H 6930.33 3.54985 -2.19184 0
M  V30 74483 H 6928.96 2.99994 -1.19178 0
M  V30 74484 H 6928.02 1.85253 -3.32243 0
M  V30 74485 H 6929.33 2.61841 -4.24548 0
M  V30 74486 H 6928.48 4.88383 -3.59954 0
M  V30 74487 H 6927.22 4.14201 -2.57467 0
M  V30 74488 H 6926.23 3.0252 -4.59088 0
M  V30 74489 H 6927.45 3.7988 -5.6291 0
M  V30 74490 H 6925.4 5.25724 -3.92365 0
M  V30 74491 H 6925.31 5.0339 -5.64034 0
M  V30 74492 H 6926.58 6.01112 -4.96271 0
M  V30 74493 N 6930.81 1.4644 0.582507 0
M  V30 74494 C 6931.76 1.57019 1.69156 0
M  V30 74495 C 6932.73 0.414488 1.60845 0
M  V30 74496 O 6933.91 0.631266 1.80055 0
M  V30 74497 C 6931.05 1.56662 3.07491 0
M  V30 74498 C 6930.17 2.82968 3.26425 0
M  V30 74499 C 6929.3 2.74114 4.55011 0
M  V30 74500 C 6928.34 3.95358 4.67289 0
M  V30 74501 N 6927.48 3.84889 5.87201 0
M  V30 74502 H 6932.32 2.51753 1.59451 0
M  V30 74503 H 6929.85 1.24897 0.777121 0
M  V30 74504 H 6931.81 1.5444 3.87562 0
M  V30 74505 H 6930.44 0.654606 3.16093 0
M  V30 74506 H 6929.49 2.95168 2.39958 0
M  V30 74507 H 6930.81 3.72825 3.31365 0
M  V30 74508 H 6929.96 2.69999 5.4331 0
M  V30 74509 H 6928.7 1.81897 4.5251 0
M  V30 74510 H 6927.7 3.99804 3.77408 0
M  V30 74511 H 6928.93 4.88671 4.71569 0
M  V30 74512 H 6926.87 2.95458 5.85697 0
M  V30 74513 H 6926.79 4.68402 5.9341 0
M  V30 74514 H 6928.06 3.84749 6.7793 0
M  V30 74515 N 6932.29 -0.827157 1.34149 0
M  V30 74516 C 6933.57 -1.56859 1.16853 0
M  V30 74517 C 6933.95 -2.09486 -0.260544 0
M  V30 74518 O 6933.29 -1.90536 -1.26128 0
M  V30 74519 C 6933.5 -2.69329 2.21953 0
M  V30 74520 C 6934.85 -3.38207 2.56713 0
M  V30 74521 O 6935.88 -2.79581 2.2071 0
M  V30 74522 O 6934.74 -4.44065 3.18541 0
M  V30 74523 H 6931.83 -0.692089 0.452706 0
M  V30 74524 H 6934.38 -0.868896 1.45768 0
M  V30 74525 H 6933.15 -2.28165 3.17894 0
M  V30 74526 H 6932.77 -3.46952 1.9419 0
M  V30 74527 N 6933.77 -1.17809 -1.04684 0
M  V30 74528 C 6934.99 -0.994909 -1.81979 0
M  V30 74529 C 6935.42 0.452016 -1.82588 0
M  V30 74530 O 6934.78 1.32393 -1.23861 0
M  V30 74531 C 6934.82 -1.54676 -3.25742 0
M  V30 74532 O 6933.93 -0.763941 -4.05263 0
M  V30 74533 H 6933.27 -0.352887 -0.562465 0
M  V30 74534 H 6935.8 -1.56424 -1.31882 0
M  V30 74535 H 6935.81 -1.57122 -3.76533 0
M  V30 74536 H 6934.48 -2.59998 -3.24613 0
M  V30 74537 H 6933.06 -0.8113 -3.63967 0
M  V30 74538 N 6935.25 1.23494 -0.979137 0
M  V30 74539 C 6936.47 1.96451 -0.664949 0
M  V30 74540 C 6936.9 1.7201 0.761196 0
M  V30 74541 O 6936.25 0.990793 1.51832 0
M  V30 74542 C 6936.3 3.47596 -0.959662 0
M  V30 74543 O 6935.41 4.12368 -0.0510342 0
M  V30 74544 H 6934.75 0.615051 -0.250217 0
M  V30 74545 H 6937.28 1.56963 -1.31239 0
M  V30 74546 H 6937.29 3.98043 -0.895852 0
M  V30 74547 H 6935.96 3.64712 -1.99895 0
M  V30 74548 H 6934.54 3.72516 -0.169146 0
M  V30 74549 N 6936.72 0.750634 1.38576 0
M  V30 74550 C 6937.65 0.13636 2.33101 0
M  V30 74551 C 6938.63 -0.706883 1.54716 0
M  V30 74552 O 6939.82 -0.648673 1.83046 0
M  V30 74553 C 6936.95 -0.759838 3.38886 0
M  V30 74554 C 6935.9 -0.0195528 4.27996 0
M  V30 74555 C 6935.23 -1.03381 5.24611 0
M  V30 74556 C 6936.53 1.14711 5.09548 0
M  V30 74557 H 6938.22 0.925972 2.84721 0
M  V30 74558 H 6935.77 0.446727 1.36895 0
M  V30 74559 H 6937.72 -1.19922 4.03976 0
M  V30 74560 H 6936.45 -1.58174 2.85742 0
M  V30 74561 H 6935.11 0.400376 3.64407 0
M  V30 74562 H 6934.75 -1.84969 4.67756 0
M  V30 74563 H 6934.45 -0.543156 5.85084 0
M  V30 74564 H 6935.98 -1.47257 5.92577 0
M  V30 74565 H 6937.39 0.785417 5.67894 0
M  V30 74566 H 6935.79 1.56843 5.79241 0
M  V30 74567 H 6936.86 1.96142 4.4346 0
M  V30 74568 N 6938.2 -1.49476 0.499477 0
M  V30 74569 C 6939.43 -2.07352 -0.0446126 0
M  V30 74570 C 6939.85 -1.35756 -1.302 0
M  V30 74571 O 6939.21 -0.413825 -1.76514 0
M  V30 74572 C 6939.26 -3.59489 -0.282824 0
M  V30 74573 O 6938.36 -3.89405 -1.35784 0
M  V30 74574 H 6937.7 -0.663508 0.0255497 0
M  V30 74575 H 6940.23 -1.92302 0.698662 0
M  V30 74576 H 6940.24 -4.04739 -0.514794 0
M  V30 74577 H 6938.92 -4.11011 0.635853 0
M  V30 74578 H 6937.49 -3.55967 -1.11094 0
M  V30 74579 N 6939.68 -0.233246 -1.55864 0
M  V30 74580 C 6940.64 0.658599 -2.19534 0
M  V30 74581 C 6941.64 1.11297 -1.16059 0
M  V30 74582 O 6942.83 1.01988 -1.41223 0
M  V30 74583 C 6939.96 1.90359 -2.82801 0
M  V30 74584 H 6941.16 0.103312 -2.99722 0
M  V30 74585 H 6938.71 0.0163421 -1.56291 0
M  V30 74586 H 6939.45 2.50045 -2.06514 0
M  V30 74587 H 6939.23 1.58613 -3.58587 0
M  V30 74588 H 6940.72 2.53873 -3.31569 0
M  V30 74589 N 6941.16 1.57549 0.0400252 0
M  V30 74590 C 6942.4 1.89047 0.734111 0
M  V30 74591 C 6942.74 0.829628 1.75587 0
M  V30 74592 O 6942.01 -0.156603 1.93869 0
M  V30 74593 C 6942.29 3.31195 1.41356 0
M  V30 74594 C 6942.15 4.47963 0.406063 0
M  V30 74595 C 6943.47 3.7208 2.35041 0
M  V30 74596 H 6940.59 0.687551 0.26541 0
M  V30 74597 H 6943.23 1.9 -0.00304107 0
M  V30 74598 H 6941.38 3.30514 2.04189 0
M  V30 74599 H 6943.05 4.60777 -0.219498 0
M  V30 74600 H 6941.29 4.32923 -0.275713 0
M  V30 74601 H 6941.96 5.44284 0.919735 0
M  V30 74602 H 6944.44 3.74059 1.82262 0
M  V30 74603 H 6943.32 4.72369 2.79568 0
M  V30 74604 H 6943.58 3.03737 3.21242 0
M  V30 74605 N 6942.64 -0.312088 1.54479 0
M  V30 74606 C 6943.57 -1.38947 1.87659 0
M  V30 74607 C 6944.55 -1.53428 0.734439 0
M  V30 74608 O 6945.73 -1.67118 0.989198 0
M  V30 74609 C 6942.86 -2.75541 2.1141 0
M  V30 74610 C 6941.82 -2.75837 3.27258 0
M  V30 74611 C 6941.14 -4.15616 3.36404 0
M  V30 74612 C 6942.44 -2.38563 4.64634 0
M  V30 74613 H 6944.14 -1.11427 2.77893 0
M  V30 74614 H 6941.68 -0.534584 1.33709 0
M  V30 74615 H 6943.63 -3.50988 2.33207 0
M  V30 74616 H 6942.36 -3.04563 1.17937 0
M  V30 74617 H 6941.02 -2.02847 3.05367 0
M  V30 74618 H 6940.67 -4.41797 2.40468 0
M  V30 74619 H 6940.37 -4.16718 4.14271 0
M  V30 74620 H 6941.89 -4.92858 3.60448 0
M  V30 74621 H 6943.3 -3.03724 4.86235 0
M  V30 74622 H 6941.7 -2.50897 5.45134 0
M  V30 74623 H 6942.77 -1.33699 4.66104 0
M  V30 74624 N 6944.11 -1.46747 -0.574732 0
M  V30 74625 C 6945.06 -1.58295 -1.70427 0
M  V30 74626 C 6946.06 -0.451042 -1.63285 0
M  V30 74627 O 6947.26 -0.62821 -1.68682 0
M  V30 74628 H 6943.64 -0.497838 -0.563614 0
M  V30 74629 H 6945.61 -2.5325 -1.57819 0
M  V30 74630 C 6944.36 -1.59792 -3.08807 0
M  V30 74631 H 6943.68 -2.46231 -3.14977 0
M  V30 74632 H 6945.12 -1.71926 -3.87579 0
M  V30 74633 C 6943.58 -0.327989 -3.353 0
M  V30 74634 O 6944.11 0.578401 -3.97514 0
M  V30 74635 N 6942.31 -0.213426 -2.89815 0
M  V30 74636 H 6941.86 -0.951925 -2.39366 0
M  V30 74637 H 6941.82 0.635368 -3.07913 0
M  V30 74638 N 6945.59 0.820031 -1.34585 0
M  V30 74639 C 6946.82 1.61325 -1.30342 0
M  V30 74640 C 6947.24 1.87722 0.11924 0
M  V30 74641 O 6946.6 1.45481 1.08189 0
M  V30 74642 C 6946.65 2.92946 -2.10274 0
M  V30 74643 O 6945.75 3.85149 -1.47424 0
M  V30 74644 H 6945.09 0.490537 -0.447514 0
M  V30 74645 H 6947.62 1.0188 -1.77431 0
M  V30 74646 H 6947.63 3.42487 -2.21736 0
M  V30 74647 H 6946.31 2.73057 -3.13708 0
M  V30 74648 H 6944.88 3.43672 -1.44721 0
M  V30 74649 N 6947.07 1.18362 1.04058 0
M  V30 74650 C 6948.32 0.973407 1.76657 0
M  V30 74651 C 6948.63 -0.497891 1.89157 0
M  V30 74652 O 6949.84 -0.826625 2.5861 0
M  V30 74653 C 6948.29 1.69258 3.17616 0
M  V30 74654 C 6947.9 3.20319 3.13208 0
M  V30 74655 C 6949.65 1.56518 3.94591 0
M  V30 74656 C 6947.55 3.84876 4.49026 0
M  V30 74657 H 6946.48 0.360575 0.662195 0
M  V30 74658 H 6949.13 1.41737 1.16546 0
M  V30 74659 H 6947.52 1.1764 3.78123 0
M  V30 74660 H 6948.69 3.78963 2.62152 0
M  V30 74661 H 6947.01 3.33202 2.49731 0
M  V30 74662 H 6949.6 2.0211 4.95031 0
M  V30 74663 H 6949.95 0.51746 4.13071 0
M  V30 74664 H 6950.48 2.05417 3.40659 0
M  V30 74665 H 6947.22 4.89695 4.35751 0
M  V30 74666 H 6946.74 3.3102 5.00186 0
M  V30 74667 H 6948.42 3.87745 5.17941 0
M  V30 74668 N 6948.55 -1.22973 0.985673 0
M  V30 74669 C 6949.83 -1.86998 0.573698 0
M  V30 74670 C 6950.21 -1.8856 -0.949113 0
M  V30 74671 O 6949.55 -1.37095 -1.82804 0
M  V30 74672 C 6949.76 -3.28237 1.18582 0
M  V30 74673 C 6951.11 -4.04789 1.28184 0
M  V30 74674 O 6952.14 -3.37476 1.13967 0
M  V30 74675 O 6950.99 -5.25265 1.5086 0
M  V30 74676 H 6948.09 -0.803945 0.193911 0
M  V30 74677 H 6950.63 -1.30807 1.08109 0
M  V30 74678 H 6949.41 -3.21694 2.22775 0
M  V30 74679 H 6949.03 -3.92024 0.66357 0
M  V30 74680 N 6950.03 -0.757973 -1.38176 0
M  V30 74681 C 6951.27 -0.316558 -2.00314 0
M  V30 74682 C 6951.61 1.10016 -1.60031 0
M  V30 74683 O 6950.88 1.75429 -0.839928 0
M  V30 74684 C 6951.16 -0.444433 -3.57347 0
M  V30 74685 C 6951.02 -1.90258 -4.07581 0
M  V30 74686 C 6952.34 0.159568 -4.39811 0
M  V30 74687 H 6949.45 -0.116497 -0.727734 0
M  V30 74688 H 6952.1 -0.958439 -1.64055 0
M  V30 74689 H 6950.25 0.102028 -3.88366 0
M  V30 74690 H 6951.92 -2.50768 -3.87186 0
M  V30 74691 H 6950.16 -2.41614 -3.60285 0
M  V30 74692 H 6950.83 -1.94318 -5.16667 0
M  V30 74693 H 6953.31 -0.306533 -4.14969 0
M  V30 74694 H 6952.18 0.0398781 -5.48886 0
M  V30 74695 H 6952.45 1.24836 -4.24109 0
M  V30 74696 N 6951.5 1.49209 -0.507397 0
M  V30 74697 C 6952.45 2.29243 0.267607 0
M  V30 74698 C 6953.42 1.35933 0.954538 0
M  V30 74699 O 6954.61 1.64892 0.959959 0
M  V30 74700 C 6951.75 3.18763 1.32227 0
M  V30 74701 C 6950.86 4.27136 0.646465 0
M  V30 74702 C 6949.99 5.03864 1.68211 0
M  V30 74703 C 6949.03 6.04065 0.988532 0
M  V30 74704 N 6948.17 6.73934 1.96868 0
M  V30 74705 H 6953.01 2.95009 -0.421123 0
M  V30 74706 H 6950.55 1.45453 -0.21952 0
M  V30 74707 H 6952.51 3.69046 1.94579 0
M  V30 74708 H 6951.14 2.54968 1.97967 0
M  V30 74709 H 6950.19 3.80292 -0.0904931 0
M  V30 74710 H 6951.5 4.98698 0.100795 0
M  V30 74711 H 6950.65 5.58047 2.38052 0
M  V30 74712 H 6949.39 4.32089 2.26165 0
M  V30 74713 H 6948.4 5.49107 0.275932 0
M  V30 74714 H 6949.62 6.77828 0.41541 0
M  V30 74715 H 6947.57 6.04927 2.53771 0
M  V30 74716 H 6947.49 7.41494 1.47384 0
M  V30 74717 H 6948.75 7.32719 2.65977 0
M  V30 74718 N 6952.98 0.241508 1.55739 0
M  V30 74719 C 6954.21 -0.388463 2.02915 0
M  V30 74720 C 6954.62 -1.52472 1.12023 0
M  V30 74721 O 6953.96 -1.83267 0.126 0
M  V30 74722 C 6954.03 -0.962892 3.46365 0
M  V30 74723 C 6953.69 0.0404326 4.56982 0
M  V30 74724 C 6954.69 0.848037 5.12937 0
M  V30 74725 C 6952.37 0.164963 5.02029 0
M  V30 74726 C 6954.37 1.76668 6.12427 0
M  V30 74727 C 6952.05 1.08712 6.01353 0
M  V30 74728 C 6953.05 1.88651 6.5643 0
M  V30 74729 O 6952.74 2.79313 7.53817 0
M  V30 74730 H 6952.47 -0.0971099 0.668989 0
M  V30 74731 H 6955.02 0.361354 2.02196 0
M  V30 74732 H 6953.25 -1.76217 3.44216 0
M  V30 74733 H 6954.94 -1.50237 3.77072 0
M  V30 74734 H 6955.71 0.762385 4.7897 0
M  V30 74735 H 6951.59 -0.447169 4.58826 0
M  V30 74736 H 6955.13 2.39106 6.55343 0
M  V30 74737 H 6951.03 1.17371 6.34739 0
M  V30 74738 H 6951.8 2.73613 7.71413 0
M  V30 74739 N 6954.46 -1.57568 -0.0316694 0
M  V30 74740 C 6955.39 -2.03183 -1.06063 0
M  V30 74741 C 6956.41 -0.944202 -1.32622 0
M  V30 74742 O 6957.59 -1.22155 -1.30155 0
M  V30 74743 C 6954.69 -2.38991 -2.40284 0
M  V30 74744 C 6953.87 -3.70102 -2.33117 0
M  V30 74745 C 6952.93 -3.93128 -3.49767 0
M  V30 74746 O 6951.95 -4.64218 -3.29379 0
M  V30 74747 N 6953.15 -3.38565 -4.71544 0
M  V30 74748 H 6955.92 -2.92072 -0.671852 0
M  V30 74749 H 6953.48 -1.60403 -0.21966 0
M  V30 74750 H 6955.47 -2.51535 -3.17037 0
M  V30 74751 H 6954.04 -1.55786 -2.71016 0
M  V30 74752 H 6953.26 -3.67936 -1.41481 0
M  V30 74753 H 6954.55 -4.56115 -2.25469 0
M  V30 74754 H 6953.95 -2.80938 -4.9101 0
M  V30 74755 H 6952.51 -3.56493 -5.4567 0
M  V30 74756 N 6955.94 0.303891 -1.54642 0
M  V30 74757 C 6956.87 1.3992 -1.80271 0
M  V30 74758 C 6957.85 1.48879 -0.653736 0
M  V30 74759 O 6959.03 1.65985 -0.893371 0
M  V30 74760 C 6956.16 2.77856 -1.93685 0
M  V30 74761 C 6955.21 2.86334 -3.16093 0
M  V30 74762 S 6956.04 2.48725 -4.74232 0
M  V30 74763 C 6957.2 3.88695 -4.90578 0
M  V30 74764 H 6957.43 1.17972 -2.72892 0
M  V30 74765 H 6954.96 0.501841 -1.46017 0
M  V30 74766 H 6956.92 3.57304 -2.02099 0
M  V30 74767 H 6955.58 2.97075 -1.02007 0
M  V30 74768 H 6954.77 3.875 -3.22273 0
M  V30 74769 H 6954.38 2.14877 -3.06111 0
M  V30 74770 H 6956.67 4.83661 -4.74424 0
M  V30 74771 H 6957.61 3.87487 -5.92672 0
M  V30 74772 H 6958.02 3.78563 -4.18748 0
M  V30 74773 N 6957.42 1.47049 0.566942 0
M  V30 74774 C 6958.66 1.54385 1.32426 0
M  V30 74775 C 6959.02 0.199377 1.91364 0
M  V30 74776 O 6958.31 -0.793823 1.74382 0
M  V30 74777 C 6958.5 2.5906 2.46216 0
M  V30 74778 C 6958.33 4.03555 1.98427 0
M  V30 74779 C 6957.1 4.71108 1.82717 0
M  V30 74780 C 6959.3 4.90874 1.53451 0
M  V30 74781 N 6957.28 6.00158 1.29164 0
M  V30 74782 C 6958.65 6.09874 1.11598 0
M  V30 74783 C 6960.71 4.77396 1.41413 0
M  V30 74784 C 6959.41 7.16884 0.589047 0
M  V30 74785 C 6961.44 5.84493 0.90122 0
M  V30 74786 C 6960.8 7.02676 0.492562 0
M  V30 74787 H 6956.9 0.619695 0.476972 0
M  V30 74788 H 6959.48 1.83749 0.64376 0
M  V30 74789 H 6957.65 2.31581 3.11809 0
M  V30 74790 H 6959.39 2.56297 3.13199 0
M  V30 74791 H 6956.14 4.26866 2.05139 0
M  V30 74792 H 6956.57 6.68886 1.04504 0
M  V30 74793 H 6961.21 3.86401 1.71622 0
M  V30 74794 H 6958.93 8.07633 0.274568 0
M  V30 74795 H 6962.51 5.76109 0.811767 0
M  V30 74796 H 6961.39 7.84134 0.101814 0
M  V30 74797 N 6958.89 -0.812882 1.35018 0
M  V30 74798 C 6959.84 -1.92437 1.27422 0
M  V30 74799 C 6960.81 -1.65445 0.147417 0
M  V30 74800 O 6962 -1.87923 0.330073 0
M  V30 74801 C 6959.14 -3.28874 1.04575 0
M  V30 74802 C 6958.25 -3.68094 2.26121 0
M  V30 74803 C 6957.38 -4.93529 1.96475 0
M  V30 74804 C 6956.42 -5.25359 3.14109 0
M  V30 74805 N 6955.56 -6.41973 2.8428 0
M  V30 74806 H 6960.4 -1.98266 2.22473 0
M  V30 74807 H 6957.94 -0.969874 1.10598 0
M  V30 74808 H 6959.9 -4.07517 0.893628 0
M  V30 74809 H 6958.53 -3.2253 0.131889 0
M  V30 74810 H 6957.58 -2.84762 2.52219 0
M  V30 74811 H 6958.89 -3.87581 3.13979 0
M  V30 74812 H 6958.04 -5.79983 1.78057 0
M  V30 74813 H 6956.78 -4.76065 1.05892 0
M  V30 74814 H 6955.79 -4.37398 3.33112 0
M  V30 74815 H 6957.01 -5.44756 4.05484 0
M  V30 74816 H 6954.96 -6.25946 1.96285 0
M  V30 74817 H 6954.88 -6.6168 3.65672 0
M  V30 74818 H 6956.14 -7.31471 2.69389 0
M  V30 74819 N 6960.37 -1.18913 -1.03429 0
M  V30 74820 C 6961.3 -0.945561 -2.13498 0
M  V30 74821 C 6962.28 0.119099 -1.69683 0
M  V30 74822 O 6963.47 -0.0348094 -1.94169 0
M  V30 74823 C 6960.6 -0.477498 -3.44002 0
M  V30 74824 C 6959.55 -1.48337 -4.01472 0
M  V30 74825 C 6958.88 -0.872589 -5.27532 0
M  V30 74826 C 6960.18 -2.862 -4.36906 0
M  V30 74827 H 6961.87 -1.86609 -2.34131 0
M  V30 74828 H 6959.42 -0.898644 -1.12518 0
M  V30 74829 H 6961.37 -0.294426 -4.2037 0
M  V30 74830 H 6960.1 0.478616 -3.23074 0
M  V30 74831 H 6958.75 -1.6535 -3.27193 0
M  V30 74832 H 6958.4 0.09091 -5.02918 0
M  V30 74833 H 6958.1 -1.54423 -5.66946 0
M  V30 74834 H 6959.63 -0.700191 -6.06572 0
M  V30 74835 H 6961.04 -2.72802 -5.04234 0
M  V30 74836 H 6959.44 -3.50107 -4.87386 0
M  V30 74837 H 6960.51 -3.39267 -3.46448 0
M  V30 74838 N 6961.85 1.22448 -0.99218 0
M  V30 74839 C 6963.1 1.908 -0.666316 0
M  V30 74840 C 6963.42 1.77651 0.804058 0
M  V30 74841 O 6962.69 1.16326 1.57623 0
M  V30 74842 H 6961.27 0.706213 -0.24346 0
M  V30 74843 H 6963.93 1.48819 -1.25853 0
M  V30 74844 H 6963.03 2.97977 -0.928226 0
M  V30 74845 N 6963.33 0.76529 1.37772 0
M  V30 74846 C 6964.58 0.327177 2.00143 0
M  V30 74847 C 6964.91 -1.09166 1.60613 0
M  V30 74848 O 6964.18 -1.74981 0.849219 0
M  V30 74849 C 6964.47 0.463378 3.57106 0
M  V30 74850 C 6964.32 1.92417 4.06566 0
M  V30 74851 C 6965.64 -0.136241 4.39889 0
M  V30 74852 H 6962.76 0.120355 0.727106 0
M  V30 74853 H 6965.4 0.967125 1.63544 0
M  V30 74854 H 6963.55 -0.081431 3.88415 0
M  V30 74855 H 6965.22 2.52818 3.85851 0
M  V30 74856 H 6963.46 2.43522 3.58998 0
M  V30 74857 H 6964.14 1.97056 5.15629 0
M  V30 74858 H 6966.61 0.328535 4.14801 0
M  V30 74859 H 6965.49 -0.0107688 5.48899 0
M  V30 74860 H 6965.75 -1.22585 4.24765 0
M  V30 74861 N 6964.81 -1.48938 0.515303 0
M  V30 74862 C 6966.05 -2.02786 -0.0241439 0
M  V30 74863 C 6966.39 -1.39296 -1.35316 0
M  V30 74864 O 6965.66 -0.533568 -1.87038 0
M  V30 74865 C 6965.94 -3.59737 -0.161651 0
M  V30 74866 C 6965.8 -4.33732 1.1915 0
M  V30 74867 C 6967.12 -4.30893 -0.895492 0
M  V30 74868 H 6964.24 -0.736964 -0.00730028 0
M  V30 74869 H 6966.88 -1.77814 0.669489 0
M  V30 74870 H 6965.03 -3.81144 -0.752423 0
M  V30 74871 H 6966.7 -4.23783 1.82225 0
M  V30 74872 H 6964.94 -3.95727 1.77716 0
M  V30 74873 H 6965.61 -5.41952 1.04843 0
M  V30 74874 H 6968.09 -4.14227 -0.394309 0
M  V30 74875 H 6966.97 -5.4043 -0.960574 0
M  V30 74876 H 6967.23 -3.9714 -1.94249 0
M  V30 74877 N 6966.29 -0.249764 -1.55608 0
M  V30 74878 C 6967.53 0.374182 -1.99013 0
M  V30 74879 C 6967.86 1.57738 -1.13793 0
M  V30 74880 O 6967.12 1.94781 -0.189428 0
M  V30 74881 C 6967.41 0.824703 -3.47755 0
M  V30 74882 C 6967.08 -0.271056 -4.50085 0
M  V30 74883 C 6965.74 -0.571998 -4.77788 0
M  V30 74884 C 6968.09 -1.01068 -5.11307 0
M  V30 74885 C 6965.42 -1.61659 -5.63989 0
M  V30 74886 C 6967.77 -2.04481 -5.9864 0
M  V30 74887 C 6966.44 -2.35237 -6.24676 0
M  V30 74888 H 6965.71 0.136923 -0.72824 0
M  V30 74889 H 6968.36 -0.358187 -1.8812 0
M  V30 74890 H 6966.66 1.63632 -3.55994 0
M  V30 74891 H 6968.36 1.31779 -3.78728 0
M  V30 74892 H 6964.95 -0.026362 -4.28592 0
M  V30 74893 H 6969.13 -0.791435 -4.89949 0
M  V30 74894 H 6964.39 -1.86018 -5.82415 0
M  V30 74895 H 6968.56 -2.62282 -6.45121 0
M  V30 74896 H 6966.19 -3.16318 -6.91265 0
M  V30 74897 N 6967.76 1.57583 0.0233128 0
M  V30 74898 C 6968.99 1.93797 0.72458 0
M  V30 74899 C 6969.41 0.850001 1.68584 0
M  V30 74900 O 6968.76 -0.173108 1.81677 0
M  V30 74901 C 6968.81 3.29965 1.47667 0
M  V30 74902 O 6968.54 4.34583 0.553993 0
M  V30 74903 C 6970.04 3.80497 2.27457 0
M  V30 74904 H 6967.26 0.639466 0.203283 0
M  V30 74905 H 6969.8 2.04489 -0.0208732 0
M  V30 74906 H 6967.96 3.20652 2.17395 0
M  V30 74907 H 6968.37 5.13217 1.08205 0
M  V30 74908 H 6969.84 4.78268 2.75615 0
M  V30 74909 H 6970.32 3.11988 3.09128 0
M  V30 74910 H 6970.93 3.92911 1.62792 0
M  V30 74911 N 6969.24 -0.295686 1.54801 0
M  V30 74912 C 6970.52 -1.05014 1.65019 0
M  V30 74913 C 6970.9 -2.05046 0.501913 0
M  V30 74914 O 6970.25 -2.22946 -0.500751 0
M  V30 74915 C 6970.46 -1.72725 3.03261 0
M  V30 74916 C 6971.8 -2.24727 3.60254 0
M  V30 74917 O 6972.83 -1.82749 3.05747 0
M  V30 74918 O 6971.69 -3.01657 4.55703 0
M  V30 74919 H 6968.78 -0.485709 0.66934 0
M  V30 74920 H 6971.33 -0.29335 1.67145 0
M  V30 74921 H 6970.1 -1.00118 3.78275 0
M  V30 74922 H 6969.72 -2.55147 3.04936 0
M  V30 74923 N 6970.72 -1.47348 -0.559135 0
M  V30 74924 C 6971.67 -1.60094 -1.68738 0
M  V30 74925 C 6972.66 -0.468335 -1.62797 0
M  V30 74926 O 6973.87 -0.646065 -1.68006 0
M  V30 74927 H 6970.24 -0.503788 -0.558302 0
M  V30 74928 H 6972.21 -2.5491 -1.55124 0
M  V30 74929 C 6970.96 -1.63058 -3.07095 0
M  V30 74930 H 6970.29 -2.49558 -3.12347 0
M  V30 74931 H 6971.73 -1.76027 -3.85734 0
M  V30 74932 C 6970.18 -0.363534 -3.34933 0
M  V30 74933 O 6970.71 0.536206 -3.98105 0
M  V30 74934 N 6968.92 -0.244153 -2.89573 0
M  V30 74935 H 6968.47 -0.977259 -2.38343 0
M  V30 74936 H 6968.43 0.602674 -3.0857 0
M  V30 74937 N 6972.2 0.80571 -1.35448 0
M  V30 74938 C 6973.42 1.59934 -1.32045 0
M  V30 74939 C 6973.85 1.87838 0.0993225 0
M  V30 74940 O 6973.21 1.46621 1.0664 0
M  V30 74941 C 6973.25 2.90699 -2.13369 0
M  V30 74942 O 6972.36 3.83564 -1.51501 0
M  V30 74943 H 6971.7 0.485763 -0.452692 0
M  V30 74944 H 6974.23 0.999925 -1.78501 0
M  V30 74945 H 6974.24 3.40116 -2.25356 0
M  V30 74946 H 6972.91 2.69715 -3.16586 0
M  V30 74947 H 6971.49 3.42117 -1.48358 0
M  V30 74948 N 6973.68 1.1946 1.02797 0
M  V30 74949 C 6974.92 0.997786 1.76211 0
M  V30 74950 C 6975.25 -0.47134 1.88702 0
M  V30 74951 O 6974.51 -1.36622 1.40117 0
M  V30 74952 C 6974.8 1.61297 3.18933 0
M  V30 74953 C 6974.47 3.11036 3.26447 0
M  V30 74954 C 6973.13 3.51902 3.28204 0
M  V30 74955 C 6975.48 4.07045 3.25521 0
M  V30 74956 C 6972.81 4.87328 3.26694 0
M  V30 74957 C 6975.16 5.42402 3.2555 0
M  V30 74958 C 6973.83 5.82698 3.25606 0
M  V30 74959 H 6973.1 0.365116 0.644803 0
M  V30 74960 H 6975.75 1.48716 1.20647 0
M  V30 74961 H 6974.05 1.04592 3.77582 0
M  V30 74962 H 6975.75 1.43597 3.74407 0
M  V30 74963 H 6972.34 2.78474 3.25807 0
M  V30 74964 H 6976.52 3.76515 3.23342 0
M  V30 74965 H 6971.78 5.17827 3.25061 0
M  V30 74966 H 6975.95 6.16552 3.23785 0
M  V30 74967 H 6973.58 6.87608 3.2419 0
M  V30 74968 N 6975.15 -1.2192 0.99866 0
M  V30 74969 C 6976.08 -2.2634 0.573807 0
M  V30 74970 C 6977.06 -1.65276 -0.402209 0
M  V30 74971 O 6978.25 -1.91999 -0.291582 0
M  V30 74972 C 6975.38 -3.47136 -0.106656 0
M  V30 74973 C 6974.33 -4.20674 0.78849 0
M  V30 74974 C 6973.66 -5.34694 -0.0252107 0
M  V30 74975 C 6974.96 -4.78744 2.08809 0
M  V30 74976 H 6976.65 -2.62131 1.44665 0
M  V30 74977 H 6974.2 -1.26005 0.697042 0
M  V30 74978 H 6976.15 -4.19348 -0.415309 0
M  V30 74979 H 6974.88 -3.10458 -1.01408 0
M  V30 74980 H 6973.54 -3.50304 1.08087 0
M  V30 74981 H 6973.18 -4.94258 -0.933729 0
M  V30 74982 H 6972.88 -5.84822 0.570746 0
M  V30 74983 H 6974.41 -6.09719 -0.327826 0
M  V30 74984 H 6975.82 -5.42868 1.84301 0
M  V30 74985 H 6974.22 -5.39235 2.63336 0
M  V30 74986 H 6975.29 -3.98477 2.76305 0
M  V30 74987 N 6976.63 -0.772586 -1.37364 0
M  V30 74988 C 6977.86 -0.34819 -2.03645 0
M  V30 74989 C 6978.27 1.03474 -1.58398 0
M  V30 74990 O 6977.61 1.67196 -0.761009 0
M  V30 74991 C 6977.68 -0.313593 -3.5813 0
M  V30 74992 C 6977.34 -1.64125 -4.26511 0
M  V30 74993 C 6978.34 -2.59384 -4.50573 0
M  V30 74994 C 6976.02 -1.91592 -4.64325 0
M  V30 74995 C 6978.02 -3.80316 -5.11506 0
M  V30 74996 C 6975.7 -3.12794 -5.24979 0
M  V30 74997 C 6976.7 -4.06975 -5.48507 0
M  V30 74998 O 6976.39 -5.26043 -6.07893 0
M  V30 74999 H 6976.12 -0.143788 -0.660531 0
M  V30 75000 H 6978.67 -1.04782 -1.76663 0
M  V30 75001 H 6976.9 0.442414 -3.84161 0
M  V30 75002 H 6978.59 0.0838474 -4.05813 0
M  V30 75003 H 6979.36 -2.39445 -4.21771 0
M  V30 75004 H 6975.24 -1.19112 -4.45346 0
M  V30 75005 H 6978.78 -4.53841 -5.29787 0
M  V30 75006 H 6974.68 -3.32617 -5.53205 0
M  V30 75007 H 6975.45 -5.2688 -6.2637 0
M  V30 75008 N 6978.11 1.48662 -0.523194 0
M  V30 75009 C 6979.04 2.32343 0.232187 0
M  V30 75010 C 6980.02 1.41664 0.941562 0
M  V30 75011 O 6981.21 1.70557 0.928661 0
M  V30 75012 C 6978.34 3.22705 1.2837 0
M  V30 75013 C 6977.29 4.22354 0.692875 0
M  V30 75014 C 6976.62 5.01804 1.84654 0
M  V30 75015 C 6977.92 5.21251 -0.330904 0
M  V30 75016 H 6979.61 2.95746 -0.466348 0
M  V30 75017 H 6977.16 1.4222 -0.225718 0
M  V30 75018 H 6979.11 3.80069 1.82004 0
M  V30 75019 H 6977.83 2.57288 2.01172 0
M  V30 75020 H 6976.49 3.66167 0.178106 0
M  V30 75021 H 6976.14 4.32817 2.56278 0
M  V30 75022 H 6975.84 5.69245 1.45717 0
M  V30 75023 H 6977.36 5.62018 2.3868 0
M  V30 75024 H 6978.78 5.73178 0.118105 0
M  V30 75025 H 6977.18 5.96706 -0.637289 0
M  V30 75026 H 6978.25 4.68802 -1.23907 0
M  V30 75027 N 6979.59 0.258013 1.55474 0
M  V30 75028 C 6980.55 -0.62359 2.20554 0
M  V30 75029 C 6981.55 -1.09436 1.17815 0
M  V30 75030 O 6982.74 -0.997287 1.42828 0
M  V30 75031 C 6979.87 -1.85835 2.85794 0
M  V30 75032 H 6981.07 -0.0556161 2.99848 0
M  V30 75033 H 6978.62 0.00852462 1.56298 0
M  V30 75034 H 6979.35 -2.46728 2.10466 0
M  V30 75035 H 6979.14 -1.52888 3.61065 0
M  V30 75036 H 6980.63 -2.48566 3.35566 0
M  V30 75037 N 6981.07 -1.57593 -0.0149554 0
M  V30 75038 C 6982.31 -1.91034 -0.69839 0
M  V30 75039 C 6982.67 -0.858131 -1.72203 0
M  V30 75040 O 6981.96 0.131513 -1.91148 0
M  V30 75041 C 6982.15 -3.2898 -1.39668 0
M  V30 75042 C 6981.98 -4.47521 -0.442192 0
M  V30 75043 C 6980.75 -5.05267 -0.0580558 0
M  V30 75044 C 6982.95 -5.13508 0.285343 0
M  V30 75045 N 6980.93 -6.07323 0.896213 0
M  V30 75046 C 6982.3 -6.10258 1.09479 0
M  V30 75047 C 6984.36 -4.96663 0.35078 0
M  V30 75048 C 6983.06 -6.91977 1.96369 0
M  V30 75049 C 6985.09 -5.78955 1.20685 0
M  V30 75050 C 6984.45 -6.75286 2.00419 0
M  V30 75051 H 6980.55 -0.747651 -0.229221 0
M  V30 75052 H 6983.13 -1.94655 0.0418775 0
M  V30 75053 H 6981.3 -3.26261 -2.10733 0
M  V30 75054 H 6983.04 -3.49894 -2.03362 0
M  V30 75055 H 6979.79 -4.71705 -0.423257 0
M  V30 75056 H 6980.22 -6.63029 1.36827 0
M  V30 75057 H 6984.86 -4.22052 -0.251374 0
M  V30 75058 H 6982.58 -7.65923 2.57658 0
M  V30 75059 H 6986.16 -5.67966 1.2612 0
M  V30 75060 H 6985.04 -7.37856 2.6559 0
M  V30 75061 N 6982.54 0.287472 -1.54956 0
M  V30 75062 C 6983.77 1.03807 -1.78627 0
M  V30 75063 C 6984.18 1.80952 -0.552547 0
M  V30 75064 O 6983.53 1.77111 0.487572 0
M  V30 75065 C 6983.59 2.05484 -2.94986 0
M  V30 75066 C 6983.25 1.4741 -4.32573 0
M  V30 75067 C 6984.25 0.897166 -5.12101 0
M  V30 75068 C 6981.93 1.50566 -4.79203 0
M  V30 75069 C 6983.93 0.359515 -6.36385 0
M  V30 75070 C 6981.61 0.964141 -6.03446 0
M  V30 75071 C 6982.61 0.392054 -6.81874 0
M  V30 75072 O 6982.3 -0.141211 -8.03776 0
M  V30 75073 H 6982.03 0.313022 -0.599161 0
M  V30 75074 H 6984.59 0.328118 -2.02762 0
M  V30 75075 H 6982.82 2.80197 -2.66508 0
M  V30 75076 H 6984.51 2.66554 -3.06111 0
M  V30 75077 H 6985.27 0.865589 -4.77213 0
M  V30 75078 H 6981.15 1.94033 -4.18177 0
M  V30 75079 H 6984.69 -0.0876629 -6.97545 0
M  V30 75080 H 6980.59 0.992909 -6.37818 0
M  V30 75081 H 6981.36 -0.0291933 -8.18495 0
M  V30 75082 N 6984.02 1.47642 0.551313 0
M  V30 75083 C 6984.96 1.55119 1.67372 0
M  V30 75084 C 6985.93 0.402939 1.57528 0
M  V30 75085 O 6987.12 0.611569 1.78303 0
M  V30 75086 C 6984.24 1.45924 3.05653 0
M  V30 75087 C 6983.29 2.65325 3.33924 0
M  V30 75088 S 6984.12 4.27474 3.22531 0
M  V30 75089 C 6985.28 4.20843 4.63295 0
M  V30 75090 H 6985.51 2.50076 1.60777 0
M  V30 75091 H 6983.05 1.35913 0.732602 0
M  V30 75092 H 6985 1.41307 3.85412 0
M  V30 75093 H 6983.66 0.523411 3.09708 0
M  V30 75094 H 6982.86 2.54971 4.34748 0
M  V30 75095 H 6982.46 2.67095 2.61795 0
M  V30 75096 H 6984.75 3.8946 5.54371 0
M  V30 75097 H 6985.69 5.21773 4.78705 0
M  V30 75098 H 6986.1 3.51616 4.41618 0
M  V30 75099 N 6985.5 -0.798516 1.35873 0
M  V30 75100 C 6986.73 -1.58715 1.3273 0
M  V30 75101 C 6987.14 -1.88569 -0.0934637 0
M  V30 75102 O 6986.5 -1.49426 -1.04776 0
M  V30 75103 C 6986.55 -2.9136 2.1399 0
M  V30 75104 O 6986.27 -2.62797 3.50527 0
M  V30 75105 C 6987.77 -3.85697 2.18524 0
M  V30 75106 H 6984.99 -0.492572 0.455646 0
M  V30 75107 H 6987.54 -0.991749 1.78842 0
M  V30 75108 H 6985.69 -3.47392 1.71456 0
M  V30 75109 H 6986.11 -3.47548 3.92824 0
M  V30 75110 H 6987.58 -4.75857 2.79757 0
M  V30 75111 H 6988.06 -4.22878 1.18619 0
M  V30 75112 H 6988.66 -3.35599 2.61254 0
M  V30 75113 N 6986.98 -1.20003 -1.02162 0
M  V30 75114 C 6987.91 -0.887669 -2.10228 0
M  V30 75115 C 6988.89 0.158232 -1.61828 0
M  V30 75116 O 6990.07 0.0329255 -1.88471 0
M  V30 75117 C 6987.2 -0.329817 -3.3709 0
M  V30 75118 C 6986.25 -1.35592 -4.04373 0
M  V30 75119 S 6987.08 -2.91912 -4.48941 0
M  V30 75120 C 6988.24 -2.37689 -5.79012 0
M  V30 75121 H 6988.47 -1.80284 -2.364 0
M  V30 75122 H 6986 -1.02796 -1.15206 0
M  V30 75123 H 6987.96 -0.0144988 -4.10497 0
M  V30 75124 H 6986.62 0.563778 -3.08999 0
M  V30 75125 H 6985.81 -0.914861 -4.95627 0
M  V30 75126 H 6985.42 -1.61845 -3.37168 0
M  V30 75127 H 6987.71 -1.77138 -6.53933 0
M  V30 75128 H 6988.65 -3.2732 -6.27907 0
M  V30 75129 H 6989.06 -1.79999 -5.35033 0
M  V30 75130 N 6988.46 1.21389 -1.00511 0
M  V30 75131 C 6989.68 1.94997 -0.706469 0
M  V30 75132 C 6990.11 1.73586 0.724539 0
M  V30 75133 O 6989.46 1.02278 1.49696 0
M  V30 75134 C 6989.51 3.45482 -1.03318 0
M  V30 75135 O 6988.62 4.12167 -0.138492 0
M  V30 75136 H 6987.96 0.609605 -0.263207 0
M  V30 75137 H 6990.49 1.54144 -1.34539 0
M  V30 75138 H 6990.5 3.96054 -0.980081 0
M  V30 75139 H 6989.17 3.6039 -2.07586 0
M  V30 75140 H 6987.75 3.72074 -0.248124 0
M  V30 75141 N 6989.93 0.77986 1.36952 0
M  V30 75142 C 6991.18 0.348387 1.99785 0
M  V30 75143 C 6991.51 -1.07456 1.61761 0
M  V30 75144 O 6990.79 -1.74071 0.867731 0
M  V30 75145 C 6991.07 0.501228 3.56595 0
M  V30 75146 C 6990.92 1.96718 4.04502 0
M  V30 75147 C 6992.24 -0.0895777 4.40009 0
M  V30 75148 H 6989.36 0.12806 0.725789 0
M  V30 75149 H 6992 0.984417 1.62509 0
M  V30 75150 H 6990.15 -0.0402298 3.88479 0
M  V30 75151 H 6991.83 2.56896 3.83147 0
M  V30 75152 H 6990.07 2.47315 3.56395 0
M  V30 75153 H 6990.74 2.02514 5.1351 0
M  V30 75154 H 6993.22 0.372512 4.14429 0
M  V30 75155 H 6992.09 0.0474499 5.48879 0
M  V30 75156 H 6992.35 -1.18073 4.26041 0
M  V30 75157 N 6991.41 -1.48383 0.531071 0
M  V30 75158 C 6992.34 -2.32463 -0.219862 0
M  V30 75159 C 6993.32 -1.42161 -0.934036 0
M  V30 75160 O 6994.51 -1.71047 -0.919603 0
M  V30 75161 C 6991.64 -3.23381 -1.26657 0
M  V30 75162 C 6990.59 -4.22716 -0.670467 0
M  V30 75163 C 6989.92 -5.02776 -1.8199 0
M  V30 75164 C 6991.22 -5.21068 0.358543 0
M  V30 75165 H 6992.91 -2.95494 0.482026 0
M  V30 75166 H 6990.46 -1.42098 0.233257 0
M  V30 75167 H 6992.41 -3.81029 -1.79986 0
M  V30 75168 H 6991.14 -2.58352 -1.99805 0
M  V30 75169 H 6989.8 -3.66256 -0.158685 0
M  V30 75170 H 6989.44 -4.3417 -2.53979 0
M  V30 75171 H 6989.14 -5.7001 -1.42697 0
M  V30 75172 H 6990.67 -5.63276 -2.35696 0
M  V30 75173 H 6992.08 -5.73233 -0.0877059 0
M  V30 75174 H 6990.48 -5.9636 0.668925 0
M  V30 75175 H 6991.55 -4.68138 1.26392 0
M  V30 75176 N 6992.89 -0.266254 -1.55335 0
M  V30 75177 C 6994.14 0.352356 -1.99005 0
M  V30 75178 C 6994.46 1.57041 -1.156 0
M  V30 75179 O 6993.73 1.94382 -0.24337 0
M  V30 75180 H 6992.31 0.133178 -0.735032 0
M  V30 75181 H 6994.97 -0.369535 -1.91365 0
M  V30 75182 H 6994.07 0.648292 -3.05293 0
M  V30 75183 N 6994.37 1.57599 0.00659769 0
M  V30 75184 C 6995.32 2.04483 1.00849 0
M  V30 75185 C 6996.3 0.9383 1.30709 0
M  V30 75186 O 6997.5 1.2021 1.29917 0
M  V30 75187 C 6994.62 2.54628 2.3026 0
M  V30 75188 C 6993.71 3.72145 2.03394 0
M  V30 75189 N 6994.1 4.8407 1.46662 0
M  V30 75190 C 6992.4 3.79949 2.33569 0
M  V30 75191 C 6993.1 5.65551 1.36116 0
M  V30 75192 N 6992.08 5.1135 1.8445 0
M  V30 75193 H 6995.88 2.88433 0.56425 0
M  V30 75194 H 6993.39 1.61005 0.212436 0
M  V30 75195 H 6995.39 2.86488 3.0287 0
M  V30 75196 H 6994.05 1.72094 2.75343 0
M  V30 75197 H 6995.06 5.05055 1.14631 0
M  V30 75198 H 6991.74 3.08258 2.81573 0
M  V30 75199 H 6993.13 6.65495 0.925522 0
M  V30 75200 N 6995.85 -0.279251 1.55106 0
M  V30 75201 C 6997.08 -1.02858 1.79175 0
M  V30 75202 C 6997.49 -1.80656 0.562135 0
M  V30 75203 O 6996.83 -1.77367 -0.478173 0
M  V30 75204 C 6996.89 -2.03917 2.96071 0
M  V30 75205 C 6996.55 -1.45114 4.33348 0
M  V30 75206 C 6997.55 -0.869996 5.12569 0
M  V30 75207 C 6995.24 -1.48022 4.79994 0
M  V30 75208 C 6997.23 -0.325761 6.36567 0
M  V30 75209 C 6994.92 -0.932125 6.03949 0
M  V30 75210 C 6995.92 -0.355887 6.82072 0
M  V30 75211 O 6995.6 0.183836 8.0369 0
M  V30 75212 H 6995.34 -0.30984 0.600812 0
M  V30 75213 H 6997.89 -0.317361 2.02933 0
M  V30 75214 H 6996.12 -2.7878 2.6799 0
M  V30 75215 H 6997.81 -2.64927 3.0752 0
M  V30 75216 H 6998.57 -0.840269 4.77666 0
M  V30 75217 H 6994.45 -1.91813 4.192 0
M  V30 75218 H 6998 0.124654 6.97489 0
M  V30 75219 H 6993.89 -0.95907 6.38335 0
M  V30 75220 H 6994.66 0.0725997 8.18468 0
M  V30 75221 N 6997.33 -1.47933 -0.543476 0
M  V30 75222 C 6998.27 -1.61875 -1.67031 0
M  V30 75223 C 6999.27 -0.485576 -1.62291 0
M  V30 75224 O 7000.47 -0.663848 -1.67311 0
M  V30 75225 H 6996.85 -0.509681 -0.552928 0
M  V30 75226 H 6998.82 -2.56541 -1.52412 0
M  V30 75227 C 6997.57 -1.66306 -3.05348 0
M  V30 75228 H 6996.89 -2.52857 -3.09683 0
M  V30 75229 H 6998.33 -1.80108 -3.83845 0
M  V30 75230 C 6996.79 -0.399038 -3.34528 0
M  V30 75231 O 6997.32 0.493952 -3.98651 0
M  V30 75232 N 6995.53 -0.274852 -2.89297 0
M  V30 75233 H 6995.07 -1.00248 -2.37293 0
M  V30 75234 H 6995.03 0.569912 -3.09191 0
M  V30 75235 N 6998.8 0.791299 -1.36295 0
M  V30 75236 C 6999.75 1.92526 -1.30524 0
M  V30 75237 C 7000.75 1.68246 -0.197374 0
M  V30 75238 O 7001.95 1.76276 -0.364269 0
M  V30 75239 H 6998.33 0.632793 -0.406296 0
M  V30 75240 H 7000.3 1.94511 -2.26292 0
M  V30 75241 C 6999.05 3.29523 -1.10951 0
M  V30 75242 H 6998.37 3.48771 -1.95445 0
M  V30 75243 H 6999.81 4.09224 -1.10959 0
M  V30 75244 C 6998.27 3.36386 0.185945 0
M  V30 75245 O 6998.8 3.84087 1.17644 0
M  V30 75246 N 6997 2.89689 0.229976 0
M  V30 75247 H 6996.55 2.51062 -0.576678 0
M  V30 75248 H 6996.51 2.94662 1.09642 0
M  V30 75249 N 7000.28 1.20543 1.01524 0
M  V30 75250 C 7001.53 1.01642 1.75143 0
M  V30 75251 C 7001.86 -0.4513 1.89192 0
M  V30 75252 O 7001.11 -1.35129 1.41558 0
M  V30 75253 C 7001.41 1.64671 3.17204 0
M  V30 75254 C 7001.08 3.14481 3.23129 0
M  V30 75255 C 6999.74 3.55364 3.24454 0
M  V30 75256 C 7002.09 4.10475 3.21185 0
M  V30 75257 C 6999.42 4.90765 3.21507 0
M  V30 75258 C 7001.77 5.45824 3.19779 0
M  V30 75259 C 7000.43 5.86119 3.19408 0
M  V30 75260 H 6999.7 0.371934 0.640895 0
M  V30 75261 H 7002.35 1.49987 1.19063 0
M  V30 75262 H 7000.66 1.08591 3.76451 0
M  V30 75263 H 7002.35 1.4756 3.72863 0
M  V30 75264 H 6998.94 2.81914 3.22835 0
M  V30 75265 H 7003.13 3.79923 3.19331 0
M  V30 75266 H 6998.38 5.21246 3.19551 0
M  V30 75267 H 7002.56 6.19952 3.17227 0
M  V30 75268 H 7000.18 6.91008 3.16878 0
M  V30 75269 N 7001.76 -1.20854 1.01154 0
M  V30 75270 C 7003.01 -1.90091 0.697965 0
M  V30 75271 C 7003.33 -1.78526 -0.77192 0
M  V30 75272 O 7002.59 -1.16036 -1.57589 0
M  V30 75273 C 7002.89 -3.40917 1.07288 0
M  V30 75274 C 7002.55 -3.7268 2.53812 0
M  V30 75275 C 7001.22 -3.8106 2.93849 0
M  V30 75276 C 7003.57 -3.87378 3.48694 0
M  V30 75277 C 7000.9 -4.01591 4.27717 0
M  V30 75278 C 7003.25 -4.09418 4.82244 0
M  V30 75279 C 7001.91 -4.16026 5.21995 0
M  V30 75280 H 7001.18 -0.695593 0.255404 0
M  V30 75281 H 7003.83 -1.43224 1.27118 0
M  V30 75282 H 7002.13 -3.89564 0.418004 0
M  V30 75283 H 7003.83 -3.92775 0.808025 0
M  V30 75284 H 7000.42 -3.66754 2.21788 0
M  V30 75285 H 7004.61 -3.80264 3.18924 0
M  V30 75286 H 6999.86 -4.0494 4.58076 0
M  V30 75287 H 7004.04 -4.19734 5.55695 0
M  V30 75288 H 7001.66 -4.31688 6.25739 0
M  V30 75289 N 7003.24 -0.787112 -1.36537 0
M  V30 75290 C 7004.48 -0.358446 -1.99302 0
M  V30 75291 C 7004.81 1.06924 -1.62473 0
M  V30 75292 O 7004.07 1.75293 -0.870111 0
M  V30 75293 C 7004.37 -0.466672 -3.5434 0
M  V30 75294 C 7004.03 -1.85483 -4.10983 0
M  V30 75295 C 7002.69 -2.23465 -4.26165 0
M  V30 75296 C 7005.05 -2.7639 -4.4188 0
M  V30 75297 C 7002.37 -3.5176 -4.69555 0
M  V30 75298 C 7004.73 -4.0411 -4.86701 0
M  V30 75299 C 7003.39 -4.42117 -5.00089 0
M  V30 75300 H 7002.66 -0.131165 -0.729299 0
M  V30 75301 H 7005.31 -1.00412 -1.63063 0
M  V30 75302 H 7003.61 0.262513 -3.9092 0
M  V30 75303 H 7005.31 -0.116065 -4.00832 0
M  V30 75304 H 7001.9 -1.54968 -3.99604 0
M  V30 75305 H 7006.08 -2.483 -4.29722 0
M  V30 75306 H 7001.34 -3.81082 -4.78107 0
M  V30 75307 H 7005.51 -4.74667 -5.09573 0
M  V30 75308 H 7003.14 -5.41586 -5.33469 0
M  V30 75309 N 7004.72 1.48099 -0.538933 0
M  V30 75310 C 7005.68 2.28252 0.208275 0
M  V30 75311 C 7006.68 1.35896 0.859584 0
M  V30 75312 O 7007.87 1.58703 0.718256 0
M  V30 75313 C 7005 3.15042 1.30235 0
M  V30 75314 H 7006.19 2.95777 -0.495563 0
M  V30 75315 H 7003.75 1.53487 -0.295193 0
M  V30 75316 H 7004.48 2.52168 2.03917 0
M  V30 75317 H 7004.27 3.82989 0.840349 0
M  V30 75318 H 7005.76 3.75481 1.82767 0
M  V30 75319 N 7006.19 0.274488 1.55191 0
M  V30 75320 C 7007.16 -0.600162 2.21203 0
M  V30 75321 C 7008.16 -1.08181 1.18969 0
M  V30 75322 O 7009.35 -0.982082 1.43878 0
M  V30 75323 C 7006.48 -1.82794 2.87749 0
M  V30 75324 H 7007.67 -0.0238101 2.99891 0
M  V30 75325 H 7005.23 0.0251016 1.5628 0
M  V30 75326 H 7005.96 -2.44482 2.13071 0
M  V30 75327 H 7005.75 -1.4905 3.62666 0
M  V30 75328 H 7007.24 -2.44993 3.38184 0
M  V30 75329 N 7007.67 -1.576 0.00176024 0
M  V30 75330 C 7008.62 -2.05015 -0.997636 0
M  V30 75331 C 7009.61 -0.945219 -1.30209 0
M  V30 75332 O 7010.8 -1.20898 -1.29278 0
M  V30 75333 C 7007.93 -2.55845 -2.28906 0
M  V30 75334 C 7007.01 -3.73218 -2.01417 0
M  V30 75335 N 7007.4 -4.84841 -1.44093 0
M  V30 75336 C 7005.7 -3.81182 -2.31551 0
M  V30 75337 C 7006.4 -5.66264 -1.33115 0
M  V30 75338 N 7005.38 -5.12321 -1.81736 0
M  V30 75339 H 7009.18 -2.88728 -0.548945 0
M  V30 75340 H 7006.7 -1.61115 -0.203895 0
M  V30 75341 H 7008.69 -2.8809 -3.01346 0
M  V30 75342 H 7007.35 -1.73551 -2.74427 0
M  V30 75343 H 7008.36 -5.05655 -1.11951 0
M  V30 75344 H 7005.04 -3.09747 -2.79934 0
M  V30 75345 H 7006.43 -6.65977 -0.890216 0
M  V30 75346 N 7009.15 0.271021 -1.55252 0
M  V30 75347 C 7010.08 1.33923 -1.91277 0
M  V30 75348 C 7011.06 1.51426 -0.77486 0
M  V30 75349 O 7012.25 1.64437 -1.03316 0
M  V30 75350 C 7009.38 2.69839 -2.18642 0
M  V30 75351 C 7008.33 2.67064 -3.34456 0
M  V30 75352 C 7007.66 4.0655 -3.47305 0
M  V30 75353 C 7008.96 2.2616 -4.70796 0
M  V30 75354 H 7010.65 1.0402 -2.80749 0
M  V30 75355 H 7008.2 0.498946 -1.3508 0
M  V30 75356 H 7010.15 3.44681 -2.42431 0
M  V30 75357 H 7008.87 3.01329 -1.25971 0
M  V30 75358 H 7007.53 1.94679 -3.10637 0
M  V30 75359 H 7007.18 4.35266 -2.52097 0
M  V30 75360 H 7006.88 4.05588 -4.25173 0
M  V30 75361 H 7008.4 4.83128 -3.73389 0
M  V30 75362 H 7009.82 2.90725 -4.94117 0
M  V30 75363 H 7008.22 2.36355 -5.51594 0
M  V30 75364 H 7009.29 1.21294 -4.69485 0
M  V30 75365 N 7010.63 1.48219 0.535623 0
M  V30 75366 C 7011.56 1.65213 1.65006 0
M  V30 75367 C 7012.54 0.501097 1.62552 0
M  V30 75368 O 7013.72 0.732981 1.79836 0
M  V30 75369 C 7010.85 1.68642 3.03607 0
M  V30 75370 C 7009.81 2.83189 3.20917 0
M  V30 75371 C 7009.13 2.71703 4.60523 0
M  V30 75372 C 7010.43 4.24551 3.04227 0
M  V30 75373 H 7012.13 2.5851 1.51039 0
M  V30 75374 H 7009.67 1.24406 0.725196 0
M  V30 75375 H 7011.63 1.79119 3.81437 0
M  V30 75376 H 7010.35 0.719194 3.18583 0
M  V30 75377 H 7009.01 2.72257 2.45503 0
M  V30 75378 H 7008.66 1.72962 4.72327 0
M  V30 75379 H 7008.36 3.48563 4.73051 0
M  V30 75380 H 7009.88 2.8414 5.4046 0
M  V30 75381 H 7011.3 4.36346 3.71854 0
M  V30 75382 H 7009.69 5.02365 3.28252 0
M  V30 75383 H 7010.76 4.41408 2.00716 0
M  V30 75384 N 7012.11 -0.78406 1.36712 0
M  V30 75385 C 7013.38 -1.53062 1.21784 0
M  V30 75386 C 7013.76 -2.10209 -0.193765 0
M  V30 75387 O 7013.11 -1.94453 -1.20002 0
M  V30 75388 C 7013.32 -2.62131 2.30409 0
M  V30 75389 C 7014.67 -3.29868 2.67343 0
M  V30 75390 O 7015.69 -2.72418 2.29493 0
M  V30 75391 O 7014.55 -4.33706 3.32508 0
M  V30 75392 H 7011.65 -0.677336 0.474495 0
M  V30 75393 H 7014.19 -0.822082 1.48458 0
M  V30 75394 H 7012.96 -2.17936 3.24992 0
M  V30 75395 H 7012.59 -3.40599 2.0513 0
M  V30 75396 N 7013.58 -1.2108 -1.00883 0
M  V30 75397 C 7014.83 -1.0199 -1.74014 0
M  V30 75398 C 7015.15 0.447565 -1.90411 0
M  V30 75399 O 7016.35 0.757769 -2.60711 0
M  V30 75400 C 7014.81 -1.7762 -3.13016 0
M  V30 75401 C 7014.42 -3.28511 -3.04606 0
M  V30 75402 C 7016.16 -1.66925 -3.90303 0
M  V30 75403 C 7014.07 -3.96646 -4.38664 0
M  V30 75404 H 7013 -0.378005 -0.652402 0
M  V30 75405 H 7015.65 -1.44777 -1.12747 0
M  V30 75406 H 7014.03 -1.27623 -3.74871 0
M  V30 75407 H 7015.2 -3.85781 -2.52012 0
M  V30 75408 H 7013.52 -3.39706 -2.40809 0
M  V30 75409 H 7016.12 -2.15164 -4.89498 0
M  V30 75410 H 7016.46 -0.626797 -4.11554 0
M  V30 75411 H 7016.99 -2.14377 -3.35093 0
M  V30 75412 H 7013.73 -5.01076 -4.22614 0
M  V30 75413 H 7013.25 -3.44165 -4.91233 0
M  V30 75414 H 7014.93 -4.01341 -5.07479 0
M  V30 75415 N 7015.06 1.20316 -1.01793 0
M  V30 75416 C 7016.03 2.21367 -0.594089 0
M  V30 75417 C 7017.03 1.5724 0.33647 0
M  V30 75418 O 7018.22 1.73751 0.124977 0
M  V30 75419 C 7015.35 3.40643 0.132254 0
M  V30 75420 H 7016.54 2.60379 -1.48805 0
M  V30 75421 H 7014.09 1.33802 -0.807873 0
M  V30 75422 H 7014.83 3.07136 1.04106 0
M  V30 75423 H 7014.61 3.88416 -0.536255 0
M  V30 75424 H 7016.1 4.15522 0.416095 0
M  V30 75425 N 7016.54 0.794341 1.36118 0
M  V30 75426 C 7017.47 0.141965 2.27758 0
M  V30 75427 C 7018.45 -0.684843 1.47474 0
M  V30 75428 O 7019.64 -0.654764 1.76763 0
M  V30 75429 C 7016.76 -0.804272 3.29012 0
M  V30 75430 C 7015.81 -0.0586368 4.2646 0
M  V30 75431 S 7016.64 1.269 5.20247 0
M  V30 75432 C 7017.8 0.326891 6.25046 0
M  V30 75433 H 7018.03 0.918967 2.82741 0
M  V30 75434 H 7015.56 0.588797 1.42732 0
M  V30 75435 H 7017.52 -1.34475 3.87849 0
M  V30 75436 H 7016.18 -1.55456 2.72933 0
M  V30 75437 H 7015.38 -0.776825 4.97977 0
M  V30 75438 H 7014.98 0.411505 3.71729 0
M  V30 75439 H 7017.27 -0.492439 6.75708 0
M  V30 75440 H 7018.21 1.0109 7.00847 0
M  V30 75441 H 7018.62 -0.0719651 5.64454 0
M  V30 75442 N 7018.02 -1.47811 0.546779 0
M  V30 75443 C 7019.27 -2.02091 0.0188102 0
M  V30 75444 C 7019.59 -1.42454 -1.33161 0
M  V30 75445 O 7018.86 -0.595938 -1.86616 0
M  V30 75446 H 7017.44 -0.746989 0.0039647 0
M  V30 75447 H 7020.1 -1.81334 0.714423 0
M  V30 75448 H 7019.2 -3.12005 -0.0770574 0
M  V30 75449 N 7019.5 -0.282715 -1.55043 0
M  V30 75450 C 7020.74 0.331884 -1.99762 0
M  V30 75451 C 7021.07 1.55289 -1.17113 0
M  V30 75452 O 7020.33 1.94335 -0.230702 0
M  V30 75453 C 7020.63 0.750754 -3.49426 0
M  V30 75454 C 7020.29 -0.366465 -4.49408 0
M  V30 75455 C 7018.95 -0.673215 -4.76467 0
M  V30 75456 C 7021.31 -1.11891 -5.09048 0
M  V30 75457 C 7018.63 -1.73586 -5.60433 0
M  V30 75458 C 7020.99 -2.17133 -5.94168 0
M  V30 75459 C 7019.65 -2.48435 -6.19545 0
M  V30 75460 H 7018.92 0.121445 -0.73098 0
M  V30 75461 H 7021.57 -0.398009 -1.87318 0
M  V30 75462 H 7019.87 1.56044 -3.59385 0
M  V30 75463 H 7021.57 1.23716 -3.81438 0
M  V30 75464 H 7018.16 -0.117267 -4.2844 0
M  V30 75465 H 7022.34 -0.895182 -4.8816 0
M  V30 75466 H 7017.6 -1.9833 -5.78338 0
M  V30 75467 H 7021.77 -2.75907 -6.39412 0
M  V30 75468 H 7019.4 -3.3091 -6.844 0
M  V30 75469 N 7020.98 1.57597 -0.0101181 0
M  V30 75470 C 7021.92 2.09054 0.978012 0
M  V30 75471 C 7022.89 0.988229 1.33504 0
M  V30 75472 O 7024.08 1.26128 1.43165 0
M  V30 75473 C 7021.22 2.60678 2.26144 0
M  V30 75474 C 7020.33 3.84848 1.96255 0
M  V30 75475 C 7019.47 4.24935 3.18753 0
M  V30 75476 C 7018.5 5.41914 2.84597 0
M  V30 75477 N 7017.64 5.77247 3.99663 0
M  V30 75478 H 7022.48 2.93208 0.532276 0
M  V30 75479 H 7020.02 1.4494 0.251157 0
M  V30 75480 H 7021.98 2.88691 3.01187 0
M  V30 75481 H 7020.61 1.79383 2.68368 0
M  V30 75482 H 7019.66 3.63681 1.11536 0
M  V30 75483 H 7020.97 4.69983 1.67086 0
M  V30 75484 H 7020.12 4.54284 4.02133 0
M  V30 75485 H 7018.86 3.38529 3.51069 0
M  V30 75486 H 7017.87 5.12279 1.99626 0
M  V30 75487 H 7019.09 6.30004 2.53518 0
M  V30 75488 H 7017.04 4.93798 4.31856 0
M  V30 75489 H 7016.96 6.56978 3.74052 0
M  V30 75490 H 7018.22 6.11192 4.83802 0
M  V30 75491 N 7022.45 -0.262784 1.55394 0
M  V30 75492 C 7023.68 -1.01098 1.80518 0
M  V30 75493 C 7024.1 -1.79553 0.583628 0
M  V30 75494 O 7023.45 -1.76929 -0.447492 0
M  V30 75495 C 7023.5 -1.96148 3.03658 0
M  V30 75496 O 7023.23 -1.20871 4.21096 0
M  V30 75497 C 7024.73 -2.82697 3.41463 0
M  V30 75498 H 7021.95 -0.298204 0.601095 0
M  V30 75499 H 7024.49 -0.290475 2.02427 0
M  V30 75500 H 7022.65 -2.63648 2.83846 0
M  V30 75501 H 7023.06 -1.85025 4.90781 0
M  V30 75502 H 7024.53 -3.45169 4.3077 0
M  V30 75503 H 7025.01 -3.52994 2.61327 0
M  V30 75504 H 7025.62 -2.20674 3.6357 0
M  V30 75505 N 7023.93 -1.48501 -0.527755 0
M  V30 75506 C 7024.86 -1.66086 -1.64127 0
M  V30 75507 C 7025.84 -0.50971 -1.62284 0
M  V30 75508 O 7027.03 -0.742507 -1.79445 0
M  V30 75509 C 7024.16 -1.70249 -3.02708 0
M  V30 75510 C 7023.11 -2.84887 -3.19411 0
M  V30 75511 C 7022.44 -2.74142 -4.59076 0
M  V30 75512 C 7023.74 -4.26158 -3.01971 0
M  V30 75513 H 7025.43 -2.59308 -1.49666 0
M  V30 75514 H 7022.98 -1.24789 -0.718588 0
M  V30 75515 H 7024.93 -1.8114 -3.80482 0
M  V30 75516 H 7023.65 -0.736079 -3.18197 0
M  V30 75517 H 7022.31 -2.73555 -2.44055 0
M  V30 75518 H 7021.96 -1.75465 -4.71403 0
M  V30 75519 H 7021.66 -3.51067 -4.71196 0
M  V30 75520 H 7023.19 -2.87003 -5.38945 0
M  V30 75521 H 7024.6 -4.38311 -3.69535 0
M  V30 75522 H 7023 -5.04099 -3.25583 0
M  V30 75523 H 7024.07 -4.42466 -1.98372 0
M  V30 75524 N 7025.41 0.776798 -1.37126 0
M  V30 75525 C 7026.83 1.07665 -1.17815 0
M  V30 75526 C 7027.03 2.01497 -0.0108517 0
M  V30 75527 O 7026.08 2.43974 0.650628 0
M  V30 75528 C 7027.39 1.679 -2.4946 0
M  V30 75529 C 7028.94 1.80182 -2.55937 0
M  V30 75530 C 7029.42 2.43831 -3.87699 0
M  V30 75531 N 7030.91 2.51286 -3.89114 0
M  V30 75532 C 7031.64 3.01374 -4.87812 0
M  V30 75533 N 7031.14 3.51674 -5.96907 0
M  V30 75534 N 7032.93 3.00202 -4.75221 0
M  V30 75535 H 7025.08 0.153666 -2.11843 0
M  V30 75536 H 7027.35 0.130795 -0.938934 0
M  V30 75537 H 7027.05 1.06422 -3.35212 0
M  V30 75538 H 7026.93 2.67257 -2.66183 0
M  V30 75539 H 7029.31 2.40794 -1.70594 0
M  V30 75540 H 7029.39 0.795941 -2.43102 0
M  V30 75541 H 7029.04 1.83859 -4.73454 0
M  V30 75542 H 7028.97 3.45014 -3.97835 0
M  V30 75543 H 7031.46 2.15684 -3.10304 0
M  V30 75544 H 7031.77 3.8828 -6.68175 0
M  V30 75545 H 7030.12 3.49792 -6.00559 0
M  V30 75546 H 7033.31 2.60203 -3.89117 0
M  V30 75547 H 7033.48 3.38928 -5.52297 0
M  V30 75548 N 7026.89 1.21613 1.0024 0
M  V30 75549 C 7028.12 1.06098 1.77625 0
M  V30 75550 C 7028.53 -0.389062 1.84748 0
M  V30 75551 O 7027.89 -1.26987 1.31075 0
M  V30 75552 C 7027.94 1.6547 3.21406 0
M  V30 75553 O 7027.66 3.04801 3.14687 0
M  V30 75554 C 7029.16 1.55101 4.15281 0
M  V30 75555 H 7026.38 0.372449 0.558142 0
M  V30 75556 H 7028.92 1.61006 1.26085 0
M  V30 75557 H 7027.08 1.14648 3.70047 0
M  V30 75558 H 7027.49 3.33233 4.05038 0
M  V30 75559 H 7028.97 2.01382 5.13955 0
M  V30 75560 H 7029.44 0.505895 4.36277 0
M  V30 75561 H 7030.05 2.05183 3.72532 0
M  V30 75562 N 7028.37 -1.19774 1.0243 0
M  V30 75563 C 7029.61 -1.88664 0.713364 0
M  V30 75564 C 7029.93 -1.80197 -0.760805 0
M  V30 75565 O 7031.13 -2.44294 -1.1846 0
M  V30 75566 C 7029.59 -3.38388 1.22563 0
M  V30 75567 C 7029.2 -3.55422 2.72725 0
M  V30 75568 C 7030.94 -4.12783 0.990475 0
M  V30 75569 C 7028.85 -4.99015 3.17393 0
M  V30 75570 H 7027.78 -0.706592 0.263142 0
M  V30 75571 H 7030.43 -1.35447 1.23799 0
M  V30 75572 H 7028.81 -3.90974 0.628938 0
M  V30 75573 H 7029.99 -3.13187 3.3801 0
M  V30 75574 H 7028.3 -2.9441 2.94469 0
M  V30 75575 H 7030.9 -5.18668 1.29953 0
M  V30 75576 H 7031.24 -4.16236 -0.0728566 0
M  V30 75577 H 7031.77 -3.66321 1.55093 0
M  V30 75578 H 7028.51 -5.00721 4.23035 0
M  V30 75579 H 7028.03 -5.4203 2.56833 0
M  V30 75580 H 7029.71 -5.67641 3.10471 0
M  V30 75581 N 7029.84 -0.801549 -1.35694 0
M  V30 75582 C 7030.77 -0.22278 -2.32435 0
M  V30 75583 C 7031.75 0.648974 -1.57233 0
M  V30 75584 O 7032.94 0.580289 -1.85328 0
M  V30 75585 C 7030.07 0.633539 -3.41473 0
M  V30 75586 C 7029.02 -0.139308 -4.27773 0
M  V30 75587 C 7028.35 0.838387 -5.28086 0
M  V30 75588 C 7029.65 -1.33543 -5.04939 0
M  V30 75589 H 7031.34 -1.03101 -2.81088 0
M  V30 75590 H 7028.89 -0.497227 -1.35143 0
M  V30 75591 H 7030.84 1.04846 -4.08149 0
M  V30 75592 H 7029.57 1.4746 -2.91416 0
M  V30 75593 H 7028.23 -0.535347 -3.6267 0
M  V30 75594 H 7027.87 1.67481 -4.74299 0
M  V30 75595 H 7027.57 0.325631 -5.86697 0
M  V30 75596 H 7029.1 1.25162 -5.97634 0
M  V30 75597 H 7030.51 -0.995647 -5.64588 0
M  V30 75598 H 7028.91 -1.78233 -5.73021 0
M  V30 75599 H 7029.98 -2.12465 -4.35874 0
M  V30 75600 N 7031.32 1.47519 -0.55461 0
M  V30 75601 C 7032.55 2.07375 -0.0323755 0
M  V30 75602 C 7032.97 1.40494 1.25072 0
M  V30 75603 O 7032.33 0.479052 1.74856 0
M  V30 75604 C 7032.38 3.60291 0.149207 0
M  V30 75605 O 7031.48 3.94177 1.21238 0
M  V30 75606 H 7030.82 0.662103 -0.0501577 0
M  V30 75607 H 7033.35 1.89576 -0.769552 0
M  V30 75608 H 7033.36 4.06371 0.364223 0
M  V30 75609 H 7032.04 4.08368 -0.787959 0
M  V30 75610 H 7030.61 3.59845 0.97806 0
M  V30 75611 N 7032.8 0.290933 1.54891 0
M  V30 75612 C 7034.02 -0.327012 2.04806 0
M  V30 75613 C 7034.45 -1.475 1.16728 0
M  V30 75614 O 7033.81 -1.80509 0.169203 0
M  V30 75615 C 7033.86 -0.770504 3.52272 0
M  V30 75616 O 7032.96 -1.87628 3.67246 0
M  V30 75617 H 7032.3 -0.0651879 0.660792 0
M  V30 75618 H 7034.83 0.429844 2.00034 0
M  V30 75619 H 7034.84 -1.06202 3.93935 0
M  V30 75620 H 7033.52 0.0693153 4.15842 0
M  V30 75621 H 7032.09 -1.58608 3.37488 0
M  V30 75622 N 7034.28 -1.57589 0.0184757 0
M  V30 75623 C 7035.52 -1.91641 -0.663442 0
M  V30 75624 C 7035.86 -0.894224 -1.72387 0
M  V30 75625 O 7035.13 0.0845424 -1.94316 0
M  V30 75626 C 7035.41 -3.36214 -1.28967 0
M  V30 75627 C 7035.27 -4.49162 -0.239525 0
M  V30 75628 C 7036.59 -3.80547 -2.2107 0
M  V30 75629 H 7033.71 -0.696928 -0.23971 0
M  V30 75630 H 7036.35 -1.89858 0.0735561 0
M  V30 75631 H 7034.5 -3.37864 -1.91781 0
M  V30 75632 H 7036.17 -4.59645 0.390362 0
M  V30 75633 H 7034.41 -4.31601 0.4362 0
M  V30 75634 H 7035.08 -5.47322 -0.717094 0
M  V30 75635 H 7037.56 -3.80565 -1.68253 0
M  V30 75636 H 7036.44 -4.8242 -2.61844 0
M  V30 75637 H 7036.7 -3.1545 -3.09747 0
M  V30 75638 N 7035.76 0.254539 -1.55531 0
M  V30 75639 C 7036.98 1.0014 -1.81052 0
M  V30 75640 C 7037.4 1.79241 -0.593142 0
M  V30 75641 O 7036.76 1.77164 0.438103 0
M  V30 75642 C 7036.81 1.94535 -3.04694 0
M  V30 75643 O 7036.53 1.18636 -4.21731 0
M  V30 75644 C 7038.03 2.80883 -3.42957 0
M  V30 75645 H 7035.25 0.295012 -0.602668 0
M  V30 75646 H 7037.79 0.279736 -2.02578 0
M  V30 75647 H 7035.95 2.62139 -2.8524 0
M  V30 75648 H 7036.36 1.82419 -4.91755 0
M  V30 75649 H 7037.84 3.4288 -4.32594 0
M  V30 75650 H 7038.31 3.51604 -2.63195 0
M  V30 75651 H 7038.92 2.18742 -3.64735 0
M  V30 75652 N 7037.23 1.48779 0.519872 0
M  V30 75653 C 7038.18 1.6045 1.61987 0
M  V30 75654 C 7039.17 0.461072 1.54152 0
M  V30 75655 O 7040.36 0.713051 1.62002 0
M  V30 75656 C 7037.49 1.6568 3.00674 0
M  V30 75657 C 7036.58 2.85537 3.13575 0
M  V30 75658 N 7036.97 4.0984 2.96419 0
M  V30 75659 C 7035.26 2.8308 3.44647 0
M  V30 75660 C 7035.97 4.90309 3.13004 0
M  V30 75661 N 7034.94 4.23315 3.41035 0
M  V30 75662 H 7038.74 2.54295 1.47348 0
M  V30 75663 H 7036.26 1.4529 0.725572 0
M  V30 75664 H 7038.25 1.72137 3.79703 0
M  V30 75665 H 7036.91 0.729592 3.16397 0
M  V30 75666 H 7037.93 4.40119 2.72976 0
M  V30 75667 H 7034.6 1.99659 3.66664 0
M  V30 75668 H 7035.99 5.98995 3.04392 0
M  V30 75669 N 7038.71 -0.769515 1.37536 0
M  V30 75670 C 7039.66 -1.90425 1.33571 0
M  V30 75671 C 7040.65 -1.67911 0.224116 0
M  V30 75672 O 7041.86 -1.75674 0.392267 0
M  V30 75673 H 7038.24 -0.626249 0.416312 0
M  V30 75674 H 7040.21 -1.90886 2.29358 0
M  V30 75675 C 7038.96 -3.27716 1.16179 0
M  V30 75676 H 7038.28 -3.45618 2.00969 0
M  V30 75677 H 7039.72 -4.07407 1.17455 0
M  V30 75678 C 7038.18 -3.3664 -0.132406 0
M  V30 75679 O 7038.71 -3.8591 -1.11518 0
M  V30 75680 N 7036.91 -2.90018 -0.18386 0
M  V30 75681 H 7036.46 -2.50113 0.616547 0
M  V30 75682 H 7036.42 -2.96369 -1.04941 0
M  V30 75683 N 7040.19 -1.22143 -0.995934 0
M  V30 75684 C 7041.44 -1.04209 -1.73161 0
M  V30 75685 C 7041.76 0.42413 -1.90332 0
M  V30 75686 O 7041.03 1.30531 -1.46077 0
M  V30 75687 H 7039.61 -0.382614 -0.641573 0
M  V30 75688 H 7042.27 -1.53604 -1.19966 0
M  V30 75689 H 7041.37 -1.51746 -2.72726 0
M  V30 75690 N 7041.67 1.1923 -1.03063 0
M  V30 75691 C 7042.62 2.22512 -0.61295 0
M  V30 75692 C 7043.59 1.61831 0.374139 0
M  V30 75693 O 7044.77 1.88874 0.270402 0
M  V30 75694 C 7041.91 3.45088 0.0282931 0
M  V30 75695 C 7041.02 4.20146 -1.00505 0
M  V30 75696 C 7040.16 5.30153 -0.333382 0
M  V30 75697 C 7039.2 5.9697 -1.35251 0
M  V30 75698 N 7038.33 6.98536 -0.706529 0
M  V30 75699 H 7043.17 2.57597 -1.49826 0
M  V30 75700 H 7040.71 1.2656 -0.749725 0
M  V30 75701 H 7042.67 4.15107 0.417329 0
M  V30 75702 H 7041.3 3.10653 0.87717 0
M  V30 75703 H 7040.35 3.49054 -1.51213 0
M  V30 75704 H 7041.66 4.65976 -1.77954 0
M  V30 75705 H 7040.82 6.066 0.110405 0
M  V30 75706 H 7039.56 4.85398 0.473292 0
M  V30 75707 H 7038.56 5.19273 -1.80654 0
M  V30 75708 H 7039.79 6.43809 -2.16071 0
M  V30 75709 H 7037.73 6.55951 0.0800208 0
M  V30 75710 H 7037.65 7.42566 -1.41887 0
M  V30 75711 H 7038.92 7.78972 -0.286802 0
M  V30 75712 N 7043.15 0.808734 1.35267 0
M  V30 75713 C 7044.08 0.17827 2.28506 0
M  V30 75714 C 7045.09 -0.623675 1.5038 0
M  V30 75715 O 7046.28 -0.455683 1.72586 0
M  V30 75716 C 7043.38 -0.769785 3.30042 0
M  V30 75717 C 7042.55 -0.0137443 4.37398 0
M  V30 75718 C 7041.61 -0.880602 5.18779 0
M  V30 75719 O 7040.64 -0.330759 5.68238 0
M  V30 75720 N 7041.84 -2.20239 5.37099 0
M  V30 75721 H 7044.61 0.979255 2.8325 0
M  V30 75722 H 7042.17 0.664386 1.4764 0
M  V30 75723 H 7044.16 -1.35398 3.81378 0
M  V30 75724 H 7042.73 -1.47157 2.75796 0
M  V30 75725 H 7041.95 0.751672 3.86967 0
M  V30 75726 H 7043.24 0.507232 5.06265 0
M  V30 75727 H 7042.63 -2.67302 4.98564 0
M  V30 75728 H 7041.19 -2.73577 5.91607 0
M  V30 75729 N 7044.62 -1.47223 0.562426 0
M  V30 75730 C 7045.55 -2.32877 -0.170504 0
M  V30 75731 C 7046.54 -1.4411 -0.903672 0
M  V30 75732 O 7047.72 -1.72959 -0.883115 0
M  V30 75733 C 7044.85 -3.25995 -1.19769 0
M  V30 75734 C 7043.8 -4.24043 -0.580652 0
M  V30 75735 C 7043.13 -5.06523 -1.71285 0
M  V30 75736 C 7044.43 -5.2019 0.468989 0
M  V30 75737 H 7046.12 -2.94405 0.544596 0
M  V30 75738 H 7043.67 -1.41572 0.263346 0
M  V30 75739 H 7045.62 -3.84761 -1.71863 0
M  V30 75740 H 7044.35 -2.62532 -1.9428 0
M  V30 75741 H 7043.01 -3.66511 -0.0809605 0
M  V30 75742 H 7042.65 -4.3946 -2.44712 0
M  V30 75743 H 7042.35 -5.72909 -1.30574 0
M  V30 75744 H 7043.88 -5.68149 -2.23695 0
M  V30 75745 H 7045.29 -5.7329 0.0339051 0
M  V30 75746 H 7043.69 -5.94807 0.795271 0
M  V30 75747 H 7044.76 -4.65352 1.36293 0
M  V30 75748 N 7046.1 -0.299143 -1.54735 0
M  V30 75749 C 7047.35 0.311138 -2.00399 0
M  V30 75750 C 7047.68 1.53682 -1.18724 0
M  V30 75751 O 7046.96 1.9271 -0.263256 0
M  V30 75752 C 7047.24 0.669574 -3.5382 0
M  V30 75753 C 7047.09 -0.565117 -4.46236 0
M  V30 75754 C 7048.41 1.49681 -4.13864 0
M  V30 75755 H 7045.53 0.111615 -0.728499 0
M  V30 75756 H 7048.17 -0.410872 -1.85504 0
M  V30 75757 H 7046.32 1.28471 -3.66643 0
M  V30 75758 H 7047.99 -1.2036 -4.45321 0
M  V30 75759 H 7046.24 -1.19871 -4.16909 0
M  V30 75760 H 7046.91 -0.270208 -5.51338 0
M  V30 75761 H 7049.38 0.977071 -4.04466 0
M  V30 75762 H 7048.26 1.71639 -5.21375 0
M  V30 75763 H 7048.52 2.48544 -3.65621 0
M  V30 75764 N 7047.58 1.57577 -0.0268328 0
M  V30 75765 C 7048.51 2.13113 0.954195 0
M  V30 75766 C 7049.49 1.0467 1.34083 0
M  V30 75767 O 7050.68 1.32491 1.41985 0
M  V30 75768 C 7047.81 2.65636 2.2373 0
M  V30 75769 C 7046.76 3.78846 1.99148 0
M  V30 75770 C 7046.09 4.17787 3.33704 0
M  V30 75771 C 7047.39 5.05017 1.3325 0
M  V30 75772 H 7049.08 2.95335 0.491693 0
M  V30 75773 H 7046.63 1.42068 0.235065 0
M  V30 75774 H 7048.58 3.03121 2.92738 0
M  V30 75775 H 7047.3 1.80572 2.72142 0
M  V30 75776 H 7045.96 3.41795 1.32559 0
M  V30 75777 H 7045.61 3.29708 3.7987 0
M  V30 75778 H 7045.31 4.94074 3.18063 0
M  V30 75779 H 7046.83 4.57853 4.03983 0
M  V30 75780 H 7048.25 5.40103 1.92254 0
M  V30 75781 H 7046.65 5.86287 1.28014 0
M  V30 75782 H 7047.72 4.83939 0.305156 0
M  V30 75783 N 7049.06 -0.246288 1.55664 0
M  V30 75784 C 7050.29 -0.991781 1.8158 0
M  V30 75785 C 7050.7 -1.78924 0.602639 0
M  V30 75786 O 7050.06 -1.77393 -0.428701 0
M  V30 75787 C 7050.11 -1.92916 3.05721 0
M  V30 75788 O 7049.83 -1.16398 4.22354 0
M  V30 75789 C 7051.33 -2.7906 3.44442 0
M  V30 75790 H 7048.55 -0.291812 0.604224 0
M  V30 75791 H 7051.1 -0.268988 2.02723 0
M  V30 75792 H 7049.25 -2.60623 2.86626 0
M  V30 75793 H 7049.66 -1.79809 4.92716 0
M  V30 75794 H 7051.14 -3.40581 4.34406 0
M  V30 75795 H 7051.62 -3.50203 2.65056 0
M  V30 75796 H 7052.22 -2.16805 3.6589 0
M  V30 75797 N 7050.54 -1.49052 -0.511975 0
M  V30 75798 C 7051.78 -1.58218 -1.26865 0
M  V30 75799 C 7052.12 -0.263175 -1.92408 0
M  V30 75800 O 7051.39 0.732381 -1.80184 0
M  V30 75801 C 7051.67 -2.73353 -2.34414 0
M  V30 75802 C 7051.53 -4.15015 -1.73444 0
M  V30 75803 C 7052.85 -2.84171 -3.36058 0
M  V30 75804 H 7049.97 -0.575905 -0.459893 0
M  V30 75805 H 7052.61 -1.81296 -0.568492 0
M  V30 75806 H 7050.76 -2.53807 -2.94133 0
M  V30 75807 H 7052.43 -4.46048 -1.17637 0
M  V30 75808 H 7050.67 -4.21174 -1.03899 0
M  V30 75809 H 7051.34 -4.91429 -2.514 0
M  V30 75810 H 7053.82 -3.01931 -2.86316 0
M  V30 75811 H 7052.7 -3.66427 -4.08684 0
M  V30 75812 H 7052.96 -1.93068 -3.97715 0
M  V30 75813 N 7052.02 0.762211 -1.37942 0
M  V30 75814 C 7053.26 1.51808 -1.33412 0
M  V30 75815 C 7053.58 1.94844 0.0779948 0
M  V30 75816 O 7052.85 1.67009 1.02396 0
M  V30 75817 H 7051.43 0.563078 -0.490869 0
M  V30 75818 H 7054.1 0.906578 -1.72532 0
M  V30 75819 H 7053.19 2.41302 -1.97938 0
M  V30 75820 N 7053.49 1.22669 0.989443 0
M  V30 75821 C 7054.42 1.02415 2.09842 0
M  V30 75822 C 7055.4 -0.0560406 1.70008 0
M  V30 75823 O 7056.59 0.10685 1.93906 0
M  V30 75824 C 7053.72 0.604843 3.41993 0
M  V30 75825 C 7052.67 1.63136 3.9569 0
M  V30 75826 C 7052 1.06778 5.2393 0
M  V30 75827 C 7053.3 3.02219 4.25983 0
M  V30 75828 H 7054.99 1.9517 2.27044 0
M  V30 75829 H 7052.54 0.939785 1.09106 0
M  V30 75830 H 7054.49 0.450241 4.18988 0
M  V30 75831 H 7053.22 -0.358379 3.24628 0
M  V30 75832 H 7051.88 1.77379 3.2083 0
M  V30 75833 H 7051.52 0.0958074 5.02909 0
M  V30 75834 H 7051.22 1.75358 5.60824 0
M  V30 75835 H 7052.75 0.924834 6.03555 0
M  V30 75836 H 7054.16 2.91329 4.93762 0
M  V30 75837 H 7052.56 3.67954 4.74057 0
M  V30 75838 H 7053.63 3.51891 3.33618 0
M  V30 75839 N 7054.97 -1.18681 1.03694 0
M  V30 75840 C 7055.9 -2.244 0.645525 0
M  V30 75841 C 7056.88 -1.66472 -0.349424 0
M  V30 75842 O 7058.07 -1.92829 -0.230351 0
M  V30 75843 C 7055.2 -3.473 0.0038365 0
M  V30 75844 C 7054.15 -4.17953 0.921926 0
M  V30 75845 C 7053.48 -5.34504 0.144911 0
M  V30 75846 C 7054.78 -4.71859 2.23934 0
M  V30 75847 H 7056.47 -2.57396 1.52931 0
M  V30 75848 H 7054.02 -1.23724 0.736777 0
M  V30 75849 H 7055.97 -4.20457 -0.281687 0
M  V30 75850 H 7054.69 -3.13527 -0.914797 0
M  V30 75851 H 7053.35 -3.46688 1.19177 0
M  V30 75852 H 7053 -4.96978 -0.776012 0
M  V30 75853 H 7052.7 -5.8271 0.756513 0
M  V30 75854 H 7054.23 -6.10454 -0.133682 0
M  V30 75855 H 7055.64 -5.3673 2.01478 0
M  V30 75856 H 7054.04 -5.30584 2.80358 0
M  V30 75857 H 7055.11 -3.89484 2.88842 0
M  V30 75858 N 7056.45 -0.815896 -1.34837 0
M  V30 75859 C 7057.41 -0.238306 -2.27958 0
M  V30 75860 C 7058.41 0.579737 -1.49986 0
M  V30 75861 O 7059.6 0.396864 -1.69619 0
M  V30 75862 C 7056.73 0.666699 -3.34317 0
M  V30 75863 H 7057.93 -1.05973 -2.80553 0
M  V30 75864 H 7055.48 -0.587232 -1.44849 0
M  V30 75865 H 7056.22 1.51145 -2.86924 0
M  V30 75866 H 7056 0.0817038 -3.92015 0
M  V30 75867 H 7057.49 1.06484 -4.03796 0
M  V30 75868 N 7057.93 1.46922 -0.570225 0
M  V30 75869 C 7059.17 2.02736 -0.0511353 0
M  V30 75870 C 7059.51 1.44222 1.30053 0
M  V30 75871 O 7058.78 0.602618 1.84929 0
M  V30 75872 C 7059.06 3.60089 0.0280251 0
M  V30 75873 C 7058.92 4.29011 -1.35165 0
M  V30 75874 C 7060.24 4.3392 0.734952 0
M  V30 75875 H 7057.36 0.736727 -0.0200567 0
M  V30 75876 H 7060 1.75207 -0.735022 0
M  V30 75877 H 7058.15 3.83674 0.610445 0
M  V30 75878 H 7059.82 4.16728 -1.97828 0
M  V30 75879 H 7058.06 3.88858 -1.9228 0
M  V30 75880 H 7058.73 5.37687 -1.24885 0
M  V30 75881 H 7061.21 4.15406 0.2403 0
M  V30 75882 H 7060.09 5.43622 0.759335 0
M  V30 75883 H 7060.35 4.04075 1.79375 0
M  V30 75884 N 7059.41 0.307345 1.54574 0
M  V30 75885 C 7060.65 -0.300506 2.00561 0
M  V30 75886 C 7060.98 -1.5305 1.19538 0
M  V30 75887 O 7060.26 -1.92568 0.273472 0
M  V30 75888 C 7060.54 -0.650801 3.5417 0
M  V30 75889 C 7060.4 0.588774 4.4593 0
M  V30 75890 C 7061.71 -1.47484 4.14652 0
M  V30 75891 H 7058.83 -0.10775 0.729081 0
M  V30 75892 H 7061.48 0.420704 1.85284 0
M  V30 75893 H 7059.63 -1.26525 3.6732 0
M  V30 75894 H 7061.3 1.2272 4.44677 0
M  V30 75895 H 7059.54 1.2208 4.16268 0
M  V30 75896 H 7060.21 0.299443 5.51187 0
M  V30 75897 H 7062.69 -0.955607 4.04978 0
M  V30 75898 H 7061.56 -1.68871 5.22277 0
M  V30 75899 H 7061.82 -2.46601 3.66934 0
M  V30 75900 N 7060.88 -1.57561 0.0351891 0
M  V30 75901 C 7062.13 -1.92334 -0.643079 0
M  V30 75902 C 7062.46 -0.912458 -1.71429 0
M  V30 75903 O 7061.74 0.0639278 -1.94395 0
M  V30 75904 C 7062.02 -3.37563 -1.25393 0
M  V30 75905 C 7061.87 -4.49391 -0.191872 0
M  V30 75906 C 7063.19 -3.82871 -2.17021 0
M  V30 75907 H 7060.31 -0.699431 -0.232304 0
M  V30 75908 H 7062.95 -1.89769 0.0936889 0
M  V30 75909 H 7061.1 -3.39879 -1.88187 0
M  V30 75910 H 7062.78 -4.59205 0.439091 0
M  V30 75911 H 7061.02 -4.31114 0.481952 0
M  V30 75912 H 7061.69 -5.48052 -0.659003 0
M  V30 75913 H 7064.17 -3.82329 -1.64207 0
M  V30 75914 H 7063.04 -4.8517 -2.56712 0
M  V30 75915 H 7063.3 -3.18718 -3.06384 0
M  V30 75916 N 7062.36 0.238029 -1.55792 0
M  V30 75917 C 7063.59 0.980713 -1.81839 0
M  V30 75918 C 7064 1.79102 -0.609835 0
M  V30 75919 O 7063.34 1.78573 0.430979 0
M  V30 75920 C 7063.4 1.95995 -3.01374 0
M  V30 75921 C 7063.07 1.33574 -4.37044 0
M  V30 75922 C 7064.07 0.733791 -5.14696 0
M  V30 75923 C 7061.75 1.35244 -4.8375 0
M  V30 75924 C 7063.74 0.156872 -6.37207 0
M  V30 75925 C 7061.43 0.771671 -6.06208 0
M  V30 75926 C 7062.43 0.174922 -6.82776 0
M  V30 75927 O 7062.12 -0.396855 -8.0292 0
M  V30 75928 H 7061.85 0.293802 -0.608816 0
M  V30 75929 H 7064.4 0.263445 -2.03704 0
M  V30 75930 H 7062.63 2.71577 -2.75287 0
M  V30 75931 H 7064.32 2.56681 -3.14436 0
M  V30 75932 H 7065.09 0.713329 -4.79726 0
M  V30 75933 H 7060.97 1.80631 -4.24138 0
M  V30 75934 H 7064.51 -0.309537 -6.96913 0
M  V30 75935 H 7060.41 0.78949 -6.40654 0
M  V30 75936 H 7061.18 -0.289576 -8.17988 0
M  V30 75937 N 7063.84 1.49322 0.504063 0
M  V30 75938 C 7064.77 1.68676 1.61464 0
M  V30 75939 C 7065.75 0.535464 1.61452 0
M  V30 75940 O 7066.94 0.770962 1.78241 0
M  V30 75941 C 7064.07 1.75044 2.99962 0
M  V30 75942 C 7063.02 2.89932 3.14838 0
M  V30 75943 C 7062.35 2.81411 4.54656 0
M  V30 75944 C 7063.65 4.30908 2.95153 0
M  V30 75945 H 7065.34 2.61656 1.45522 0
M  V30 75946 H 7062.89 1.25916 0.698645 0
M  V30 75947 H 7064.84 1.8717 3.77552 0
M  V30 75948 H 7063.56 0.786608 3.16986 0
M  V30 75949 H 7062.22 2.77403 2.39672 0
M  V30 75950 H 7061.87 1.82942 4.68552 0
M  V30 75951 H 7061.57 3.58519 4.65551 0
M  V30 75952 H 7063.09 2.95541 5.34311 0
M  V30 75953 H 7064.51 4.44135 3.62515 0
M  V30 75954 H 7062.9 5.09215 3.17522 0
M  V30 75955 H 7063.97 4.45566 1.91308 0
M  V30 75956 N 7065.32 -0.754884 1.38345 0
M  V30 75957 C 7066.55 -1.54188 1.37513 0
M  V30 75958 C 7066.96 -1.89163 -0.0372789 0
M  V30 75959 O 7066.3 -1.53183 -1.01394 0
M  V30 75960 C 7066.36 -2.86996 2.16503 0
M  V30 75961 C 7066.03 -2.74565 3.65326 0
M  V30 75962 C 7067.02 -2.44449 4.58847 0
M  V30 75963 C 7064.71 -2.92059 4.08665 0
M  V30 75964 C 7066.7 -2.31979 5.93687 0
M  V30 75965 C 7064.39 -2.79208 5.43586 0
M  V30 75966 C 7065.39 -2.49211 6.35911 0
M  V30 75967 O 7065.07 -2.36417 7.6835 0
M  V30 75968 H 7064.81 -0.483754 0.472184 0
M  V30 75969 H 7067.36 -0.942114 1.8252 0
M  V30 75970 H 7065.59 -3.49157 1.66212 0
M  V30 75971 H 7067.28 -3.48499 2.08094 0
M  V30 75972 H 7068.05 -2.30604 4.26669 0
M  V30 75973 H 7063.92 -3.14404 3.37151 0
M  V30 75974 H 7067.47 -2.08487 6.65717 0
M  V30 75975 H 7063.37 -2.92626 5.75361 0
M  V30 75976 H 7064.13 -2.51639 7.78858 0
M  V30 75977 N 7066.8 -1.23192 -0.982923 0
M  V30 75978 C 7068.02 -1.08911 -1.75915 0
M  V30 75979 C 7068.44 0.359621 -1.85343 0
M  V30 75980 O 7067.8 1.24885 -1.33078 0
M  V30 75981 C 7067.85 -1.70562 -3.18733 0
M  V30 75982 O 7067.57 -3.09769 -3.09798 0
M  V30 75983 C 7069.07 -1.61688 -4.12761 0
M  V30 75984 H 7066.29 -0.381281 -0.552146 0
M  V30 75985 H 7068.83 -1.62991 -1.23507 0
M  V30 75986 H 7066.99 -1.20521 -3.68176 0
M  V30 75987 H 7067.4 -3.39635 -3.99686 0
M  V30 75988 H 7068.88 -2.09533 -5.10686 0
M  V30 75989 H 7069.35 -0.575239 -4.35417 0
M  V30 75990 H 7069.96 -2.11084 -3.6922 0
M  V30 75991 N 7068.27 1.1813 -1.04322 0
M  V30 75992 C 7069.52 1.88453 -0.749227 0
M  V30 75993 C 7069.85 1.80304 0.721395 0
M  V30 75994 O 7069.13 1.20508 1.5267 0
M  V30 75995 C 7069.41 3.38832 -1.21923 0
M  V30 75996 C 7069.26 3.55777 -2.75214 0
M  V30 75997 C 7070.58 4.32557 -0.811313 0
M  V30 75998 H 7067.7 0.684314 -0.273648 0
M  V30 75999 H 7070.34 1.38968 -1.29568 0
M  V30 76000 H 7068.49 3.81106 -0.754338 0
M  V30 76001 H 7070.17 3.22577 -3.2976 0
M  V30 76002 H 7068.41 2.98347 -3.14915 0
M  V30 76003 H 7069.08 4.61301 -3.03159 0
M  V30 76004 H 7071.56 3.98076 -1.21139 0
M  V30 76005 H 7070.43 5.36332 -1.16789 0
M  V30 76006 H 7070.69 4.41178 0.285363 0
M  V30 76007 N 7069.75 0.823035 1.34402 0
M  V30 76008 C 7071 0.41177 1.98576 0
M  V30 76009 C 7071.33 -1.02256 1.65098 0
M  V30 76010 O 7070.61 -1.71222 0.922671 0
M  V30 76011 C 7070.89 0.614422 3.54819 0
M  V30 76012 C 7070.74 2.09487 3.98039 0
M  V30 76013 C 7072.06 0.0504531 4.40071 0
M  V30 76014 H 7069.18 0.151085 0.721347 0
M  V30 76015 H 7071.82 1.03562 1.59295 0
M  V30 76016 H 7069.97 0.0833823 3.88411 0
M  V30 76017 H 7071.64 2.68956 3.7478 0
M  V30 76018 H 7069.89 2.58529 3.48347 0
M  V30 76019 H 7070.56 2.18748 5.06807 0
M  V30 76020 H 7073.03 0.504171 4.13034 0
M  V30 76021 H 7071.91 0.222048 5.48451 0
M  V30 76022 H 7072.17 -1.04459 4.29582 0
M  V30 76023 N 7071.23 -1.46618 0.578009 0
M  V30 76024 C 7072.19 -2.28724 -0.147684 0
M  V30 76025 C 7073.19 -1.38128 -0.823252 0
M  V30 76026 O 7074.38 -1.60552 -0.675926 0
M  V30 76027 C 7071.52 -3.18384 -1.21837 0
M  V30 76028 H 7072.71 -2.94359 0.573809 0
M  V30 76029 H 7070.26 -1.52651 0.335784 0
M  V30 76030 H 7071 -2.57486 -1.97159 0
M  V30 76031 H 7070.78 -3.85082 -0.738511 0
M  V30 76032 H 7072.27 -3.80195 -1.72748 0
M  V30 76033 N 7072.71 -0.315538 -1.54409 0
M  V30 76034 C 7073.96 0.289437 -2.00421 0
M  V30 76035 C 7074.28 1.5277 -1.20381 0
M  V30 76036 O 7073.54 1.93802 -0.271871 0
M  V30 76037 C 7073.84 0.676467 -3.5094 0
M  V30 76038 C 7073.5 -0.461709 -4.4853 0
M  V30 76039 C 7072.17 -0.774129 -4.74932 0
M  V30 76040 C 7074.52 -1.22664 -5.0656 0
M  V30 76041 C 7071.85 -1.85434 -5.56625 0
M  V30 76042 C 7074.2 -2.29688 -5.89429 0
M  V30 76043 C 7072.86 -2.6152 -6.14136 0
M  V30 76044 H 7072.13 0.105913 -0.733392 0
M  V30 76045 H 7074.78 -0.437653 -1.86432 0
M  V30 76046 H 7073.08 1.48386 -3.62614 0
M  V30 76047 H 7074.78 1.15598 -3.83977 0
M  V30 76048 H 7071.37 -0.208119 -4.28094 0
M  V30 76049 H 7075.55 -0.998527 -4.86151 0
M  V30 76050 H 7070.81 -2.10553 -5.74001 0
M  V30 76051 H 7074.98 -2.89408 -6.33416 0
M  V30 76052 H 7072.61 -3.45353 -6.77226 0
M  V30 76053 N 7074.19 1.5754 -0.0435444 0
M  V30 76054 C 7075.13 2.12255 0.951353 0
M  V30 76055 C 7076.13 1.05252 1.32734 0
M  V30 76056 O 7077.33 1.2367 1.30789 0
M  V30 76057 H 7073.71 0.67832 0.324632 0
M  V30 76058 H 7075.68 2.94759 0.464699 0
M  V30 76059 C 7074.43 2.67638 2.21958 0
M  V30 76060 H 7073.75 3.4963 1.93904 0
M  V30 76061 H 7075.19 3.09551 2.89748 0
M  V30 76062 C 7073.65 1.61054 2.95911 0
M  V30 76063 O 7074.18 1.01883 3.88565 0
M  V30 76064 N 7072.39 1.32755 2.58504 0
M  V30 76065 H 7071.93 1.8106 1.83235 0
M  V30 76066 H 7071.89 0.616694 3.08292 0
M  V30 76067 N 7075.66 -0.229763 1.55916 0
M  V30 76068 C 7076.91 -0.955358 1.78547 0
M  V30 76069 C 7077.24 -1.84658 0.610883 0
M  V30 76070 O 7076.49 -1.91461 -0.405112 0
M  V30 76071 C 7076.79 -1.83234 3.06855 0
M  V30 76072 C 7076.46 -1.09504 4.37401 0
M  V30 76073 C 7075.12 -0.891348 4.72873 0
M  V30 76074 C 7077.47 -0.573773 5.18032 0
M  V30 76075 C 7074.8 -0.154345 5.86497 0
M  V30 76076 C 7077.15 0.149846 6.32423 0
M  V30 76077 C 7075.82 0.364871 6.66502 0
M  V30 76078 H 7075.09 -0.34959 0.653351 0
M  V30 76079 H 7077.73 -0.224135 1.90184 0
M  V30 76080 H 7076.04 -2.63117 2.90305 0
M  V30 76081 H 7077.74 -2.39575 3.21566 0
M  V30 76082 H 7074.33 -1.26378 4.09544 0
M  V30 76083 H 7078.51 -0.71864 4.91069 0
M  V30 76084 H 7073.77 0.022558 6.11396 0
M  V30 76085 H 7077.94 0.561313 6.94134 0
M  V30 76086 H 7075.57 0.937892 7.54392 0
M  V30 76087 N 7077.14 -1.49587 -0.496137 0
M  V30 76088 C 7078.39 -1.59319 -1.24995 0
M  V30 76089 C 7078.72 -0.282081 -1.92444 0
M  V30 76090 O 7077.97 0.730356 -1.81561 0
M  V30 76091 C 7078.27 -2.70513 -2.33576 0
M  V30 76092 C 7077.94 -4.11849 -1.83552 0
M  V30 76093 C 7076.6 -4.5031 -1.69629 0
M  V30 76094 C 7078.95 -5.00285 -1.46166 0
M  V30 76095 C 7076.28 -5.74975 -1.16705 0
M  V30 76096 C 7078.63 -6.25473 -0.946935 0
M  V30 76097 C 7077.3 -6.62759 -0.794136 0
M  V30 76098 H 7076.57 -0.582989 -0.457389 0
M  V30 76099 H 7079.21 -1.83435 -0.549899 0
M  V30 76100 H 7077.52 -2.40387 -3.09389 0
M  V30 76101 H 7079.21 -2.75251 -2.91613 0
M  V30 76102 H 7075.8 -3.81493 -1.9535 0
M  V30 76103 H 7079.99 -4.71222 -1.55768 0
M  V30 76104 H 7075.24 -6.0256 -1.03591 0
M  V30 76105 H 7079.42 -6.93374 -0.648481 0
M  V30 76106 H 7077.05 -7.5924 -0.381871 0
M  V30 76107 N 7078.62 0.747537 -1.38743 0
M  V30 76108 C 7080.04 1.05142 -1.20073 0
M  V30 76109 C 7080.24 2.01429 -0.0535898 0
M  V30 76110 O 7079.29 2.45299 0.598731 0
M  V30 76111 C 7080.61 1.6257 -2.52965 0
M  V30 76112 C 7082.15 1.74712 -2.59701 0
M  V30 76113 C 7082.63 2.35552 -3.92784 0
M  V30 76114 N 7084.12 2.42976 -3.94356 0
M  V30 76115 C 7084.85 2.90959 -4.94095 0
M  V30 76116 N 7084.35 3.38933 -6.04232 0
M  V30 76117 N 7086.14 2.90055 -4.81482 0
M  V30 76118 H 7078.29 0.108697 -2.12122 0
M  V30 76119 H 7080.56 0.110849 -0.941497 0
M  V30 76120 H 7080.26 0.992873 -3.37394 0
M  V30 76121 H 7080.14 2.61551 -2.71792 0
M  V30 76122 H 7082.52 2.37121 -1.75663 0
M  V30 76123 H 7082.61 0.744197 -2.44735 0
M  V30 76124 H 7082.25 1.73775 -4.77247 0
M  V30 76125 H 7082.18 3.36498 -4.05064 0
M  V30 76126 H 7084.67 2.09053 -3.1481 0
M  V30 76127 H 7084.98 3.7402 -6.76261 0
M  V30 76128 H 7083.33 3.36974 -6.07843 0
M  V30 76129 H 7086.52 2.51891 -3.94548 0
M  V30 76130 H 7086.69 3.27137 -5.59362 0
M  V30 76131 N 7080.1 1.23712 0.976376 0
M  V30 76132 C 7081.05 1.02185 2.06947 0
M  V30 76133 C 7082.02 -0.0620158 1.65984 0
M  V30 76134 O 7083.2 0.0908911 1.90583 0
M  V30 76135 C 7080.34 0.623449 3.39422 0
M  V30 76136 C 7079.45 1.77987 3.9363 0
M  V30 76137 C 7078.59 1.32787 5.14336 0
M  V30 76138 C 7077.63 2.45478 5.6072 0
M  V30 76139 N 7076.77 2.01208 6.72651 0
M  V30 76140 H 7081.61 1.95746 2.24694 0
M  V30 76141 H 7079.14 0.975092 1.10138 0
M  V30 76142 H 7081.1 0.373539 4.15524 0
M  V30 76143 H 7079.73 -0.27516 3.21625 0
M  V30 76144 H 7078.78 2.14367 3.14246 0
M  V30 76145 H 7080.09 2.62693 4.24021 0
M  V30 76146 H 7079.25 1.03632 5.97784 0
M  V30 76147 H 7077.99 0.451232 4.85608 0
M  V30 76148 H 7076.99 2.75403 4.7585 0
M  V30 76149 H 7078.22 3.33685 5.91465 0
M  V30 76150 H 7076.16 1.1593 6.45675 0
M  V30 76151 H 7076.08 2.79471 7.02447 0
M  V30 76152 H 7077.35 1.75169 7.59563 0
M  V30 76153 N 7081.58 -1.17575 1.04947 0
M  V30 76154 C 7082.82 -1.87775 0.758088 0
M  V30 76155 C 7083.15 -1.80892 -0.714732 0
M  V30 76156 O 7082.41 -1.2099 -1.53817 0
M  V30 76157 C 7082.71 -3.37331 1.1808 0
M  V30 76158 C 7082.37 -3.64416 2.6554 0
M  V30 76159 C 7081.03 -3.71518 3.05823 0
M  V30 76160 C 7083.39 -3.76089 3.60842 0
M  V30 76161 C 7080.71 -3.8778 4.40277 0
M  V30 76162 C 7083.07 -3.93869 4.95025 0
M  V30 76163 C 7081.73 -3.99209 5.34966 0
M  V30 76164 H 7081 -0.687116 0.277404 0
M  V30 76165 H 7083.65 -1.39108 1.3161 0
M  V30 76166 H 7081.95 -3.88037 0.541729 0
M  V30 76167 H 7083.65 -3.90005 0.932574 0
M  V30 76168 H 7080.24 -3.59512 2.33343 0
M  V30 76169 H 7084.42 -3.69926 3.30861 0
M  V30 76170 H 7079.68 -3.90161 4.70727 0
M  V30 76171 H 7083.85 -4.01842 5.68767 0
M  V30 76172 H 7081.48 -4.11562 6.39156 0
M  V30 76173 N 7083.06 -0.830151 -1.33964 0
M  V30 76174 C 7084.29 -0.434249 -2.01985 0
M  V30 76175 C 7084.69 0.966625 -1.62644 0
M  V30 76176 O 7084.04 1.63817 -0.831238 0
M  V30 76177 C 7084.1 -0.465206 -3.56477 0
M  V30 76178 C 7083.76 -1.82067 -4.19167 0
M  V30 76179 C 7084.76 -2.78261 -4.39166 0
M  V30 76180 C 7082.44 -2.11113 -4.55781 0
M  V30 76181 C 7084.44 -4.01668 -4.94916 0
M  V30 76182 C 7082.13 -3.34779 -5.1124 0
M  V30 76183 C 7083.12 -4.29873 -5.30752 0
M  V30 76184 O 7082.81 -5.51353 -5.85034 0
M  V30 76185 H 7082.54 -0.171674 -0.653838 0
M  V30 76186 H 7085.1 -1.1218 -1.7206 0
M  V30 76187 H 7083.33 0.27908 -3.85692 0
M  V30 76188 H 7085.02 -0.0883474 -4.05804 0
M  V30 76189 H 7085.78 -2.57119 -4.11236 0
M  V30 76190 H 7081.66 -1.37893 -4.39894 0
M  V30 76191 H 7085.21 -4.75903 -5.10061 0
M  V30 76192 H 7081.1 -3.55781 -5.386 0
M  V30 76193 H 7081.87 -5.52972 -6.0346 0
M  V30 76194 N 7084.53 1.46309 -0.585776 0
M  V30 76195 C 7085.48 2.3206 0.158455 0
M  V30 76196 C 7086.48 1.44667 0.88135 0
M  V30 76197 O 7087.68 1.61275 0.799391 0
M  V30 76198 H 7084.06 0.748738 0.0699671 0
M  V30 76199 H 7086.03 2.92639 -0.583538 0
M  V30 76200 C 7084.78 3.27891 1.15683 0
M  V30 76201 H 7084.1 3.95119 0.610006 0
M  V30 76202 H 7085.54 3.90666 1.64792 0
M  V30 76203 C 7084 2.53466 2.21938 0
M  V30 76204 O 7084.53 2.29996 3.2934 0
M  V30 76205 N 7082.73 2.13976 1.96629 0
M  V30 76206 H 7082.28 2.33264 1.09297 0
M  V30 76207 H 7082.24 1.64499 2.67932 0
M  V30 76208 N 7086.01 0.323722 1.54239 0
M  V30 76209 C 7086.96 -0.542158 2.24342 0
M  V30 76210 C 7087.93 -1.11153 1.23427 0
M  V30 76211 O 7089.11 -1.15184 1.5211 0
M  V30 76212 C 7086.25 -1.69709 3.00488 0
M  V30 76213 C 7085.37 -1.15694 4.1622 0
M  V30 76214 C 7084.5 -2.27757 4.79896 0
M  V30 76215 C 7083.54 -1.70992 5.87731 0
M  V30 76216 N 7082.68 -2.76718 6.45269 0
M  V30 76217 H 7087.52 0.0622184 2.97935 0
M  V30 76218 H 7085.05 0.0424768 1.47039 0
M  V30 76219 H 7087.01 -2.37672 3.42882 0
M  V30 76220 H 7085.64 -2.27275 2.29229 0
M  V30 76221 H 7084.69 -0.368863 3.78607 0
M  V30 76222 H 7086.01 -0.701572 4.93841 0
M  V30 76223 H 7085.16 -3.03624 5.25259 0
M  V30 76224 H 7083.9 -2.76631 4.01655 0
M  V30 76225 H 7082.9 -0.936232 5.4177 0
M  V30 76226 H 7084.13 -1.22995 6.67869 0
M  V30 76227 H 7082.08 -3.24882 5.69901 0
M  V30 76228 H 7081.99 -2.35744 7.18304 0
M  V30 76229 H 7083.26 -3.52413 6.95288 0
M  V30 76230 N 7087.49 -1.57515 0.0518986 0
M  V30 76231 C 7088.71 -1.97447 -0.634792 0
M  V30 76232 C 7089.14 -0.929293 -1.63541 0
M  V30 76233 O 7088.5 0.107388 -1.80982 0
M  V30 76234 C 7088.55 -3.36449 -1.29747 0
M  V30 76235 O 7087.65 -3.34426 -2.41315 0
M  V30 76236 H 7086.99 -0.643183 -0.16496 0
M  V30 76237 H 7089.52 -2.04245 0.120514 0
M  V30 76238 H 7089.53 -3.73192 -1.64898 0
M  V30 76239 H 7088.21 -4.12056 -0.564144 0
M  V30 76240 H 7086.78 -3.09429 -2.08106 0
M  V30 76241 N 7088.97 0.221492 -1.56036 0
M  V30 76242 C 7089.88 1.29547 -1.95588 0
M  V30 76243 C 7090.89 1.51277 -0.859719 0
M  V30 76244 O 7092.07 1.64406 -1.16329 0
M  V30 76245 C 7089.13 2.62519 -2.26461 0
M  V30 76246 C 7088.2 2.49091 -3.49646 0
M  V30 76247 C 7087.43 3.75722 -3.79036 0
M  V30 76248 O 7087.65 4.78741 -3.10102 0
M  V30 76249 O 7086.59 3.72831 -4.72526 0
M  V30 76250 H 7090.41 0.989884 -2.87115 0
M  V30 76251 H 7088 0.424359 -1.43246 0
M  V30 76252 H 7089.88 3.41051 -2.47512 0
M  V30 76253 H 7088.55 2.92759 -1.38108 0
M  V30 76254 H 7087.46 1.6876 -3.33873 0
M  V30 76255 H 7088.79 2.23791 -4.38382 0
M  V30 76256 N 7090.45 1.49848 0.488197 0
M  V30 76257 C 7091.72 1.50488 1.24951 0
M  V30 76258 C 7092.1 0.239809 2.09733 0
M  V30 76259 O 7091.45 -0.777411 2.14869 0
M  V30 76260 C 7091.66 2.79106 2.09526 0
M  V30 76261 C 7093.01 3.291 2.68288 0
M  V30 76262 O 7094.03 2.80311 2.19783 0
M  V30 76263 O 7092.89 4.14106 3.56621 0
M  V30 76264 H 7089.99 0.602875 0.566102 0
M  V30 76265 H 7092.53 1.62123 0.501418 0
M  V30 76266 H 7091.3 3.62663 1.46938 0
M  V30 76267 H 7090.93 2.70392 2.91503 0
M  V30 76268 N 7091.92 -0.740169 1.39138 0
M  V30 76269 C 7093.17 -1.49666 1.35811 0
M  V30 76270 C 7093.49 -1.94943 -0.0469869 0
M  V30 76271 O 7092.76 -1.68617 -0.997258 0
M  V30 76272 H 7091.34 -0.555197 0.499765 0
M  V30 76273 H 7094 -0.879015 1.73952 0
M  V30 76274 H 7093.1 -2.38123 2.01752 0
M  V30 76275 N 7093.4 -1.24228 -0.969802 0
M  V30 76276 C 7094.68 -0.988753 -1.68769 0
M  V30 76277 C 7095.06 0.489564 -2.05345 0
M  V30 76278 O 7094.41 1.46335 -1.75494 0
M  V30 76279 C 7094.62 -1.90956 -2.92125 0
M  V30 76280 C 7095.96 -2.17923 -3.6441 0
M  V30 76281 O 7096.99 -1.88592 -3.02178 0
M  V30 76282 O 7095.85 -2.67722 -4.76432 0
M  V30 76283 H 7092.94 -0.373769 -0.737717 0
M  V30 76284 H 7095.49 -1.35317 -1.02408 0
M  V30 76285 H 7094.26 -2.90845 -2.61773 0
M  V30 76286 H 7093.88 -1.54817 -3.6622 0
M  V30 76287 N 7094.88 1.17017 -1.05569 0
M  V30 76288 C 7096.11 1.91284 -0.788551 0
M  V30 76289 C 7096.52 1.77029 0.656225 0
M  V30 76290 O 7095.88 1.10999 1.44863 0
M  V30 76291 C 7095.93 3.42226 -1.16462 0
M  V30 76292 O 7095.65 3.56047 -2.55269 0
M  V30 76293 C 7097.15 4.3356 -0.924165 0
M  V30 76294 H 7094.37 0.606798 -0.286421 0
M  V30 76295 H 7096.92 1.48368 -1.40738 0
M  V30 76296 H 7095.07 3.82874 -0.590468 0
M  V30 76297 H 7095.49 4.49594 -2.70121 0
M  V30 76298 H 7096.96 5.37961 -1.23701 0
M  V30 76299 H 7097.44 4.38975 0.140456 0
M  V30 76300 H 7098.04 3.98631 -1.48235 0
M  V30 76301 N 7096.36 0.837244 1.33521 0
M  V30 76302 C 7097.77 0.489112 1.80179 0
M  V30 76303 C 7098.12 -0.991737 1.6929 0
M  V30 76304 O 7097.25 -1.77264 1.24122 0
M  V30 76305 C 7097.84 0.881039 3.27144 0
M  V30 76306 C 7096.4 0.585069 3.71825 0
M  V30 76307 C 7095.55 1.09025 2.54969 0
M  V30 76308 H 7098.5 1.0261 1.21066 0
M  V30 76309 H 7098.52 0.19044 3.80023 0
M  V30 76310 H 7098.03 1.95886 3.35038 0
M  V30 76311 H 7096.13 -0.482755 3.69459 0
M  V30 76312 H 7096.24 1.13916 4.6536 0
M  V30 76313 H 7094.61 0.511179 2.49518 0
M  V30 76314 H 7095.39 2.17481 2.65625 0
M  V30 76315 N 7097.84 -1.45997 0.593527 0
M  V30 76316 C 7099.11 -1.95594 0.0158965 0
M  V30 76317 C 7099.49 -1.53612 -1.44799 0
M  V30 76318 O 7098.84 -0.791937 -2.14338 0
M  V30 76319 C 7099.05 -3.48431 0.199265 0
M  V30 76320 C 7100.4 -4.24538 0.0727182 0
M  V30 76321 O 7101.42 -3.55968 0.128657 0
M  V30 76322 O 7100.28 -5.46473 -0.0539544 0
M  V30 76323 H 7097.38 -0.825844 -0.0437055 0
M  V30 76324 H 7099.92 -1.56229 0.662604 0
M  V30 76325 H 7098.69 -3.7191 1.2165 0
M  V30 76326 H 7098.32 -3.94651 -0.483368 0
M  V30 76327 N 7099.31 -0.331898 -1.54066 0
M  V30 76328 C 7100.25 0.57301 -2.20889 0
M  V30 76329 C 7101.23 1.10932 -1.18882 0
M  V30 76330 O 7102.41 1.17176 -1.47655 0
M  V30 76331 C 7099.54 1.78711 -2.87715 0
M  V30 76332 C 7098.58 1.3813 -4.03512 0
M  V30 76333 S 7099.42 0.410948 -5.33921 0
M  V30 76334 C 7100.57 1.63214 -6.04245 0
M  V30 76335 H 7100.8 0.0054006 -2.973 0
M  V30 76336 H 7098.34 -0.115974 -1.53964 0
M  V30 76337 H 7100.3 2.48369 -3.26838 0
M  V30 76338 H 7098.96 2.32592 -2.11092 0
M  V30 76339 H 7098.15 2.28622 -4.49164 0
M  V30 76340 H 7097.75 0.764331 -3.66107 0
M  V30 76341 H 7100.04 2.56836 -6.2693 0
M  V30 76342 H 7100.99 1.21763 -6.97552 0
M  V30 76343 H 7101.39 1.8229 -5.34257 0
M  V30 76344 N 7100.79 1.57485 -0.0602512 0
M  V30 76345 C 7101.74 2.1206 0.911008 0
M  V30 76346 C 7102.71 1.0302 1.30292 0
M  V30 76347 O 7103.89 1.30619 1.3908 0
M  V30 76348 C 7101.03 2.6774 2.17736 0
M  V30 76349 C 7100.15 3.90897 1.83912 0
M  V30 76350 C 7099.28 4.34861 3.05073 0
M  V30 76351 C 7098.32 5.50694 2.67212 0
M  V30 76352 N 7097.46 5.8967 3.81096 0
M  V30 76353 H 7102.3 2.94753 0.438725 0
M  V30 76354 H 7099.84 1.45666 0.204919 0
M  V30 76355 H 7101.79 2.98126 2.9185 0
M  V30 76356 H 7100.42 1.8783 2.62525 0
M  V30 76357 H 7099.48 3.67045 0.999094 0
M  V30 76358 H 7100.79 4.7506 1.52049 0
M  V30 76359 H 7099.94 4.66847 3.87477 0
M  V30 76360 H 7098.68 3.49527 3.40121 0
M  V30 76361 H 7097.69 5.1837 1.83227 0
M  V30 76362 H 7098.91 6.37751 2.33347 0
M  V30 76363 H 7096.86 5.07288 4.15927 0
M  V30 76364 H 7096.77 6.68546 3.52962 0
M  V30 76365 H 7098.04 6.26275 4.64112 0
M  V30 76366 N 7102.27 -0.213214 1.56151 0
M  V30 76367 C 7103.51 -0.94334 1.8133 0
M  V30 76368 C 7103.87 -1.81194 0.63503 0
M  V30 76369 O 7105.08 -2.57646 0.766302 0
M  V30 76370 C 7103.35 -1.75317 3.11446 0
M  V30 76371 S 7104.91 -2.5378 3.57968 0
M  V30 76372 H 7101.72 -0.316732 0.636555 0
M  V30 76373 H 7104.33 -0.20821 1.94388 0
M  V30 76374 H 7103.03 -1.10536 3.95234 0
M  V30 76375 H 7102.56 -2.53045 3.01217 0
M  V30 76376 H 7104.58 -3.7756 3.21967 0
M  V30 76377 N 7103.75 -1.50105 -0.480243 0
M  V30 76378 C 7105.03 -1.51148 -1.24151 0
M  V30 76379 C 7105.41 -0.250928 -2.09603 0
M  V30 76380 O 7104.75 0.766005 -2.15278 0
M  V30 76381 C 7104.96 -2.80213 -2.08042 0
M  V30 76382 C 7106.31 -3.30518 -2.66539 0
M  V30 76383 O 7107.34 -2.81472 -2.18293 0
M  V30 76384 O 7106.19 -4.15991 -3.5442 0
M  V30 76385 H 7103.29 -0.605869 -0.562896 0
M  V30 76386 H 7105.83 -1.62387 -0.492813 0
M  V30 76387 H 7104.61 -3.63438 -1.45013 0
M  V30 76388 H 7104.23 -2.71934 -2.90065 0
M  V30 76389 N 7105.23 0.732779 -1.39528 0
M  V30 76390 C 7106.5 1.48437 -1.27381 0
M  V30 76391 C 7106.88 2.10783 0.115614 0
M  V30 76392 O 7106.23 1.98772 1.12702 0
M  V30 76393 C 7106.44 2.53399 -2.39979 0
M  V30 76394 C 7107.79 3.19719 -2.79401 0
M  V30 76395 O 7108.81 2.63713 -2.39445 0
M  V30 76396 O 7107.67 4.21066 -3.48375 0
M  V30 76397 H 7104.77 0.659259 -0.499307 0
M  V30 76398 H 7107.31 0.766416 -1.51407 0
M  V30 76399 H 7106.08 2.05724 -3.32856 0
M  V30 76400 H 7105.71 3.32751 -2.1763 0
M  V30 76401 N 7106.7 1.24741 0.9632 0
M  V30 76402 C 7107.64 0.98696 2.05753 0
M  V30 76403 C 7108.62 -0.0808416 1.62399 0
M  V30 76404 O 7109.8 0.0570341 1.88414 0
M  V30 76405 C 7106.93 0.490272 3.35133 0
M  V30 76406 C 7105.97 1.5473 3.97443 0
M  V30 76407 S 7106.81 3.12999 4.34502 0
M  V30 76408 C 7107.96 2.65044 5.67012 0
M  V30 76409 H 7108.19 1.91358 2.27529 0
M  V30 76410 H 7105.73 1.08175 1.1017 0
M  V30 76411 H 7107.69 0.210336 4.09961 0
M  V30 76412 H 7106.35 -0.415709 3.11337 0
M  V30 76413 H 7105.54 1.15029 4.90698 0
M  V30 76414 H 7105.14 1.77748 3.29062 0
M  V30 76415 H 7107.43 2.08136 6.44737 0
M  V30 76416 H 7108.38 3.56905 6.11575 0
M  V30 76417 H 7108.78 2.05322 5.25836 0
M  V30 76418 N 7108.18 -1.16455 1.06188 0
M  V30 76419 C 7109.11 -2.2298 0.692979 0
M  V30 76420 C 7110.09 -1.67176 -0.314034 0
M  V30 76421 O 7111.28 -1.93274 -0.189397 0
M  V30 76422 C 7108.41 -3.47214 0.0775031 0
M  V30 76423 C 7107.36 -4.15903 1.01037 0
M  V30 76424 C 7106.69 -5.34076 0.258254 0
M  V30 76425 C 7107.99 -4.67003 2.33893 0
M  V30 76426 H 7109.68 -2.54094 1.58356 0
M  V30 76427 H 7107.23 -1.22133 0.762855 0
M  V30 76428 H 7109.18 -4.2096 -0.192438 0
M  V30 76429 H 7107.91 -3.15397 -0.848088 0
M  V30 76430 H 7106.56 -3.44082 1.26504 0
M  V30 76431 H 7106.21 -4.98512 -0.670421 0
M  V30 76432 H 7105.91 -5.80974 0.879944 0
M  V30 76433 H 7107.44 -6.106 -0.00416589 0
M  V30 76434 H 7108.85 -5.32336 2.12818 0
M  V30 76435 H 7107.25 -5.24518 2.91549 0
M  V30 76436 H 7108.32 -3.8327 2.97039 0
M  V30 76437 N 7109.66 -0.844313 -1.33076 0
M  V30 76438 C 7110.89 -0.456309 -2.01805 0
M  V30 76439 C 7111.3 0.944044 -1.63503 0
M  V30 76440 O 7110.66 1.61439 -0.851105 0
M  V30 76441 C 7110.71 -0.573701 -3.56919 0
M  V30 76442 O 7110.43 -1.91888 -3.93841 0
M  V30 76443 C 7111.93 -0.183359 -4.42921 0
M  V30 76444 H 7109.15 -0.180512 -0.646264 0
M  V30 76445 H 7111.7 -1.13839 -1.69885 0
M  V30 76446 H 7109.85 0.0605324 -3.87353 0
M  V30 76447 H 7110.27 -1.90828 -4.88554 0
M  V30 76448 H 7111.74 -0.316531 -5.51092 0
M  V30 76449 H 7112.22 0.87525 -4.30391 0
M  V30 76450 H 7112.82 -0.792247 -4.17856 0
M  V30 76451 N 7111.14 1.4568 -0.601261 0
M  V30 76452 C 7112.38 2.0417 -0.0969114 0
M  V30 76453 C 7112.74 1.46034 1.24652 0
M  V30 76454 O 7113.94 1.95839 1.84121 0
M  V30 76455 C 7112.22 3.57363 -0.0515724 0
M  V30 76456 S 7113.77 4.37041 0.392506 0
M  V30 76457 H 7110.59 0.709479 -0.0464878 0
M  V30 76458 H 7113.19 1.78475 -0.79794 0
M  V30 76459 H 7111.9 3.97188 -1.03295 0
M  V30 76460 H 7111.43 3.87624 0.671648 0
M  V30 76461 H 7113.44 4.68196 1.64339 0
M  V30 76462 N 7112.62 0.340063 1.53887 0
M  V30 76463 C 7113.85 -0.25863 2.04975 0
M  V30 76464 C 7114.26 -1.45039 1.21492 0
M  V30 76465 O 7113.6 -1.82095 0.242296 0
M  V30 76466 C 7113.66 -0.740668 3.51787 0
M  V30 76467 C 7113.32 0.330974 4.558 0
M  V30 76468 C 7114.32 1.17253 5.06505 0
M  V30 76469 C 7112.01 0.483901 4.99964 0
M  V30 76470 C 7114 2.15259 5.99952 0
M  V30 76471 C 7111.69 1.46736 5.93222 0
M  V30 76472 C 7112.69 2.30015 6.43103 0
M  V30 76473 O 7112.37 3.26687 7.34527 0
M  V30 76474 H 7112.11 -0.0543682 0.67381 0
M  V30 76475 H 7114.66 0.489212 1.99489 0
M  V30 76476 H 7112.89 -1.5397 3.54726 0
M  V30 76477 H 7114.58 -1.25953 3.85864 0
M  V30 76478 H 7115.34 1.06545 4.73152 0
M  V30 76479 H 7111.22 -0.154467 4.60741 0
M  V30 76480 H 7114.77 2.80299 6.3881 0
M  V30 76481 H 7110.66 1.57501 6.2599 0
M  V30 76482 H 7111.43 3.22118 7.52451 0
M  V30 76483 N 7114.1 -1.57451 0.0686022 0
M  V30 76484 C 7115.03 -2.08138 -0.935626 0
M  V30 76485 C 7116.01 -0.985766 -1.29311 0
M  V30 76486 O 7117.19 -1.25893 -1.40297 0
M  V30 76487 C 7114.32 -2.53639 -2.24466 0
M  V30 76488 C 7113.36 -3.74604 -2.03897 0
M  V30 76489 S 7114.2 -5.19449 -1.30126 0
M  V30 76490 C 7115.35 -5.68279 -2.62316 0
M  V30 76491 H 7115.59 -2.92991 -0.504318 0
M  V30 76492 H 7113.12 -1.53726 -0.144088 0
M  V30 76493 H 7115.08 -2.80515 -2.99703 0
M  V30 76494 H 7113.74 -1.69059 -2.64722 0
M  V30 76495 H 7112.93 -4.0442 -3.00767 0
M  V30 76496 H 7112.53 -3.48084 -1.36797 0
M  V30 76497 H 7114.82 -5.74929 -3.58418 0
M  V30 76498 H 7115.77 -6.6722 -2.37115 0
M  V30 76499 H 7116.18 -4.96082 -2.69375 0
M  V30 76500 N 7115.57 0.204929 -1.56262 0
M  V30 76501 C 7116.82 0.926832 -1.80045 0
M  V30 76502 C 7117.15 1.83662 -0.640183 0
M  V30 76503 O 7116.4 1.92081 0.3746 0
M  V30 76504 C 7116.7 1.78329 -3.09731 0
M  V30 76505 C 7116.37 1.02532 -4.39088 0
M  V30 76506 C 7115.03 0.816005 -4.74231 0
M  V30 76507 C 7117.38 0.491286 -5.18879 0
M  V30 76508 C 7114.71 0.0610194 -5.86668 0
M  V30 76509 C 7117.06 -0.25044 -6.32104 0
M  V30 76510 C 7115.73 -0.470859 -6.65837 0
M  V30 76511 H 7115 0.339152 -0.65883 0
M  V30 76512 H 7117.64 0.19385 -1.90516 0
M  V30 76513 H 7115.95 2.58465 -2.94454 0
M  V30 76514 H 7117.65 2.34429 -3.25337 0
M  V30 76515 H 7114.24 1.19846 -4.11503 0
M  V30 76516 H 7118.42 0.640425 -4.92151 0
M  V30 76517 H 7113.68 -0.119823 -6.11283 0
M  V30 76518 H 7117.85 -0.671672 -6.93153 0
M  V30 76519 H 7115.48 -1.05779 -7.52805 0
M  V30 76520 N 7117.05 1.50357 0.472276 0
M  V30 76521 C 7118 1.65522 1.568 0
M  V30 76522 C 7118.99 0.509881 1.52607 0
M  V30 76523 O 7120.18 0.764229 1.59651 0
M  V30 76524 C 7117.31 1.75162 2.95251 0
M  V30 76525 C 7116.39 2.95369 3.04332 0
M  V30 76526 N 7116.78 4.19063 2.83231 0
M  V30 76527 C 7115.08 2.93902 3.35466 0
M  V30 76528 C 7115.78 5.00019 2.97247 0
M  V30 76529 N 7114.76 4.33951 3.27395 0
M  V30 76530 H 7118.56 2.58854 1.39183 0
M  V30 76531 H 7116.07 1.47525 0.678982 0
M  V30 76532 H 7118.07 1.8413 3.74035 0
M  V30 76533 H 7116.73 0.829882 3.13916 0
M  V30 76534 H 7117.74 4.4858 2.58836 0
M  V30 76535 H 7114.42 2.11223 3.60127 0
M  V30 76536 H 7115.81 6.08376 2.85182 0
M  V30 76537 N 7118.53 -0.72537 1.39915 0
M  V30 76538 C 7119.46 -1.8486 1.33798 0
M  V30 76539 C 7120.44 -1.61238 0.209992 0
M  V30 76540 O 7121.62 -1.84378 0.39204 0
M  V30 76541 C 7118.75 -3.21022 1.07992 0
M  V30 76542 C 7117.8 -3.63488 2.23111 0
M  V30 76543 S 7118.63 -3.71736 3.85451 0
M  V30 76544 C 7119.79 -5.10673 3.61889 0
M  V30 76545 H 7120.02 -1.89767 2.28858 0
M  V30 76546 H 7117.55 -0.891187 1.26084 0
M  V30 76547 H 7119.51 -3.99642 0.937879 0
M  V30 76548 H 7118.17 -3.1376 0.14603 0
M  V30 76549 H 7117.36 -4.62328 2.00672 0
M  V30 76550 H 7116.97 -2.92099 2.33568 0
M  V30 76551 H 7119.26 -5.97299 3.1975 0
M  V30 76552 H 7120.2 -5.38144 4.60224 0
M  V30 76553 H 7120.61 -4.80804 2.95782 0
M  V30 76554 N 7120.01 -1.2525 -0.956571 0
M  V30 76555 C 7121.24 -1.12454 -1.73314 0
M  V30 76556 C 7121.65 0.324633 -1.86394 0
M  V30 76557 O 7120.99 1.23518 -1.35974 0
M  V30 76558 C 7121.05 -1.7032 -3.16594 0
M  V30 76559 C 7120.71 -3.19301 -3.26949 0
M  V30 76560 C 7121.71 -4.16316 -3.11412 0
M  V30 76561 C 7119.4 -3.59475 -3.50832 0
M  V30 76562 C 7121.39 -5.51483 -3.19601 0
M  V30 76563 C 7119.08 -4.9478 -3.58658 0
M  V30 76564 C 7120.08 -5.90594 -3.43056 0
M  V30 76565 O 7119.76 -7.23438 -3.5056 0
M  V30 76566 H 7119.5 -0.39309 -0.54996 0
M  V30 76567 H 7122.05 -1.66062 -1.20883 0
M  V30 76568 H 7120.28 -1.11157 -3.70379 0
M  V30 76569 H 7121.97 -1.52652 -3.76101 0
M  V30 76570 H 7122.73 -3.86619 -2.92832 0
M  V30 76571 H 7118.61 -2.85394 -3.62038 0
M  V30 76572 H 7122.16 -6.26249 -3.0734 0
M  V30 76573 H 7118.05 -5.24144 -3.76754 0
M  V30 76574 H 7118.82 -7.31508 -3.67204 0
M  V30 76575 N 7121.49 1.1589 -1.06804 0
M  V30 76576 C 7122.73 1.86821 -0.789032 0
M  V30 76577 C 7123.06 1.81794 0.682988 0
M  V30 76578 O 7122.34 1.23719 1.50079 0
M  V30 76579 C 7122.62 3.36169 -1.29083 0
M  V30 76580 C 7122.48 3.49859 -2.82699 0
M  V30 76581 C 7123.79 4.30739 -0.902883 0
M  V30 76582 H 7120.91 0.678356 -0.288101 0
M  V30 76583 H 7123.56 1.36188 -1.32487 0
M  V30 76584 H 7121.71 3.7942 -0.835006 0
M  V30 76585 H 7123.38 3.1551 -3.36528 0
M  V30 76586 H 7121.62 2.916 -3.21173 0
M  V30 76587 H 7122.29 4.54767 -3.12876 0
M  V30 76588 H 7124.77 3.95417 -1.29556 0
M  V30 76589 H 7123.64 5.33734 -1.28139 0
M  V30 76590 H 7123.9 4.41684 0.191718 0
M  V30 76591 N 7122.96 0.851359 1.32626 0
M  V30 76592 C 7124.21 0.452232 1.96975 0
M  V30 76593 C 7124.53 -0.994731 1.6772 0
M  V30 76594 O 7123.8 -1.6947 0.982679 0
M  V30 76595 H 7122.38 0.16424 0.728721 0
M  V30 76596 H 7125.04 1.08706 1.61768 0
M  V30 76597 H 7124.14 0.594569 3.06384 0
M  V30 76598 N 7124.44 -1.45359 0.608979 0
M  V30 76599 C 7125.69 -2.02529 0.104869 0
M  V30 76600 C 7126.02 -1.47619 -1.26183 0
M  V30 76601 O 7125.3 -0.651437 -1.83266 0
M  V30 76602 C 7125.58 -3.60037 0.067456 0
M  V30 76603 C 7125.43 -4.25277 1.46492 0
M  V30 76604 C 7126.75 -4.35716 -0.619647 0
M  V30 76605 H 7123.87 -0.735936 0.0395827 0
M  V30 76606 H 7126.51 -1.73196 0.781217 0
M  V30 76607 H 7124.66 -3.85158 -0.508506 0
M  V30 76608 H 7126.33 -4.11336 2.08807 0
M  V30 76609 H 7124.58 -3.83624 2.02523 0
M  V30 76610 H 7125.25 -5.34187 1.39097 0
M  V30 76611 H 7127.72 -4.15897 -0.130078 0
M  V30 76612 H 7126.6 -5.45445 -0.614936 0
M  V30 76613 H 7126.86 -4.08689 -1.68599 0
M  V30 76614 N 7125.92 -0.34822 -1.53705 0
M  V30 76615 C 7127.34 0.00352718 -1.596 0
M  V30 76616 C 7127.54 1.48313 -1.36402 0
M  V30 76617 O 7126.59 2.24247 -1.16058 0
M  V30 76618 C 7127.91 -0.436839 -2.9751 0
M  V30 76619 C 7129.45 -0.38958 -3.10566 0
M  V30 76620 C 7129.93 -0.805487 -4.50861 0
M  V30 76621 N 7131.42 -0.759857 -4.56925 0
M  V30 76622 C 7132.15 -1.05357 -5.63638 0
M  V30 76623 N 7131.65 -1.41567 -6.78182 0
M  V30 76624 N 7133.44 -0.977499 -5.53535 0
M  V30 76625 H 7125.59 -1.31195 -1.67038 0
M  V30 76626 H 7127.86 -0.535117 -0.782531 0
M  V30 76627 H 7127.56 -1.46866 -3.19567 0
M  V30 76628 H 7127.44 0.185545 -3.76743 0
M  V30 76629 H 7129.82 0.633076 -2.88229 0
M  V30 76630 H 7129.91 -1.04723 -2.33381 0
M  V30 76631 H 7129.55 -1.82618 -4.73934 0
M  V30 76632 H 7129.48 -0.125266 -5.26451 0
M  V30 76633 H 7131.97 -0.492847 -3.74672 0
M  V30 76634 H 7132.28 -1.6245 -7.55533 0
M  V30 76635 H 7130.63 -1.45417 -6.79617 0
M  V30 76636 H 7133.82 -0.693919 -4.62928 0
M  V30 76637 H 7133.99 -1.20974 -6.36608 0
M  V30 76638 N 7127.4 1.57412 -0.0769512 0
M  V30 76639 C 7128.36 2.11888 0.873837 0
M  V30 76640 C 7129.36 1.04405 1.22296 0
M  V30 76641 O 7130.55 1.30371 1.15538 0
M  V30 76642 C 7127.68 2.6245 2.17561 0
M  V30 76643 H 7128.88 2.97205 0.401121 0
M  V30 76644 H 7126.43 1.55353 0.171822 0
M  V30 76645 H 7127.16 1.80601 2.69358 0
M  V30 76646 H 7126.95 3.41019 1.93516 0
M  V30 76647 H 7128.44 3.04654 2.85615 0
M  V30 76648 N 7128.88 -0.19664 1.56368 0
M  V30 76649 C 7130.12 -0.915459 1.80177 0
M  V30 76650 C 7130.45 -1.83857 0.649746 0
M  V30 76651 O 7129.72 -1.93066 -0.332009 0
M  V30 76652 H 7128.3 -0.341032 0.66461 0
M  V30 76653 H 7130.96 -0.20252 1.93845 0
M  V30 76654 H 7130.05 -1.5075 2.73278 0
M  V30 76655 N 7130.35 -1.50606 -0.464296 0
M  V30 76656 C 7131.6 -1.61615 -1.21347 0
M  V30 76657 C 7131.92 -0.321745 -1.92327 0
M  V30 76658 O 7131.19 0.661135 -1.84407 0
M  V30 76659 H 7129.77 -0.595559 -0.450908 0
M  V30 76660 H 7132.44 -1.87415 -0.534947 0
M  V30 76661 H 7131.53 -2.43064 -1.95771 0
M  V30 76662 N 7131.83 0.717939 -1.40298 0
M  V30 76663 C 7133.08 1.47486 -1.38174 0
M  V30 76664 C 7133.4 1.94993 0.0159672 0
M  V30 76665 O 7132.67 1.70182 0.970307 0
M  V30 76666 H 7131.25 0.547176 -0.508534 0
M  V30 76667 H 7133.91 0.851229 -1.75329 0
M  V30 76668 H 7133.01 2.34883 -2.05515 0
M  V30 76669 N 7133.31 1.25755 0.949916 0
M  V30 76670 C 7134.56 1.10176 1.6895 0
M  V30 76671 C 7134.87 -0.356207 1.92329 0
M  V30 76672 O 7136.08 -0.632517 2.64029 0
M  V30 76673 C 7134.53 1.92352 3.04185 0
M  V30 76674 C 7134.14 3.4267 2.88585 0
M  V30 76675 C 7135.89 1.85357 3.81894 0
M  V30 76676 C 7133.79 4.17124 4.1924 0
M  V30 76677 H 7132.72 0.408701 0.633624 0
M  V30 76678 H 7135.37 1.49991 1.05711 0
M  V30 76679 H 7133.76 1.45364 3.68355 0
M  V30 76680 H 7134.93 3.97365 2.33319 0
M  V30 76681 H 7133.25 3.50808 2.24327 0
M  V30 76682 H 7135.84 2.38274 4.78675 0
M  V30 76683 H 7136.19 0.822441 4.08095 0
M  V30 76684 H 7136.72 2.30121 3.24483 0
M  V30 76685 H 7133.46 5.20669 3.98226 0
M  V30 76686 H 7132.98 3.67211 4.74253 0
M  V30 76687 H 7134.66 4.25096 4.87752 0
M  V30 76688 N 7134.79 -1.15322 1.07418 0
M  V30 76689 C 7136.04 -1.85757 0.796171 0
M  V30 76690 C 7136.36 -1.82768 -0.679768 0
M  V30 76691 O 7135.63 -1.26908 -1.49235 0
M  V30 76692 H 7134.21 -0.687763 0.291531 0
M  V30 76693 H 7136.87 -1.39795 1.35806 0
M  V30 76694 H 7135.97 -2.90875 1.13129 0
M  V30 76695 N 7136.27 -0.85838 -1.32173 0
M  V30 76696 C 7137.54 -0.384725 -1.91779 0
M  V30 76697 C 7137.92 1.13208 -1.78177 0
M  V30 76698 O 7137.27 1.95541 -1.18219 0
M  V30 76699 C 7137.48 -0.853226 -3.3841 0
M  V30 76700 C 7138.83 -0.872578 -4.15537 0
M  V30 76701 O 7139.85 -0.798109 -3.47144 0
M  V30 76702 O 7138.71 -0.978292 -5.37672 0
M  V30 76703 H 7135.81 -0.112929 -0.819253 0
M  V30 76704 H 7138.35 -0.945527 -1.40918 0
M  V30 76705 H 7137.12 -1.8965 -3.4227 0
M  V30 76706 H 7136.75 -0.270083 -3.96682 0
M  V30 76707 N 7137.74 1.45034 -0.616679 0
M  V30 76708 C 7138.65 2.34393 0.0984165 0
M  V30 76709 C 7139.67 1.51776 0.850891 0
M  V30 76710 O 7140.85 1.8455 0.806424 0
M  V30 76711 C 7137.91 3.29538 1.07731 0
M  V30 76712 C 7136.97 4.28062 0.325796 0
M  V30 76713 C 7136.21 5.1866 1.25806 0
M  V30 76714 O 7136.43 5.12878 2.49625 0
M  V30 76715 O 7135.36 5.97207 0.750197 0
M  V30 76716 H 7139.19 2.96962 -0.636172 0
M  V30 76717 H 7136.77 1.44568 -0.376908 0
M  V30 76718 H 7138.66 3.88141 1.64087 0
M  V30 76719 H 7137.33 2.69521 1.79276 0
M  V30 76720 H 7136.24 3.73047 -0.28045 0
M  V30 76721 H 7137.57 4.90959 -0.34935 0
M  V30 76722 N 7139.22 0.356366 1.53518 0
M  V30 76723 C 7140.47 -0.237267 2.003 0
M  V30 76724 C 7140.79 -1.5062 1.24792 0
M  V30 76725 O 7141.99 -2.17787 1.62115 0
M  V30 76726 C 7140.45 -0.473357 3.56774 0
M  V30 76727 C 7140.06 0.780416 4.4115 0
M  V30 76728 C 7141.8 -1.02515 4.11936 0
M  V30 76729 C 7139.71 0.514419 5.89158 0
M  V30 76730 H 7138.64 -0.0924385 0.748312 0
M  V30 76731 H 7141.29 0.473681 1.77281 0
M  V30 76732 H 7139.67 -1.24533 3.75909 0
M  V30 76733 H 7140.84 1.55448 4.33789 0
M  V30 76734 H 7139.16 1.25476 3.97045 0
M  V30 76735 H 7141.76 -1.23933 5.20139 0
M  V30 76736 H 7142.1 -1.98454 3.65953 0
M  V30 76737 H 7142.63 -0.313565 3.96562 0
M  V30 76738 H 7139.37 1.44388 6.394 0
M  V30 76739 H 7138.89 -0.221316 5.99392 0
M  V30 76740 H 7140.57 0.136463 6.46856 0
M  V30 76741 N 7140.7 -1.57369 0.085298 0
M  V30 76742 C 7141.61 -2.16997 -0.891597 0
M  V30 76743 C 7142.63 -1.13676 -1.31734 0
M  V30 76744 O 7143.8 -1.46003 -1.38727 0
M  V30 76745 C 7140.87 -2.7307 -2.13621 0
M  V30 76746 C 7139.93 -3.91312 -1.7656 0
M  V30 76747 C 7139.16 -4.44701 -2.95087 0
M  V30 76748 O 7139.39 -3.97053 -4.09518 0
M  V30 76749 O 7138.32 -5.35856 -2.74121 0
M  V30 76750 H 7142.15 -3.00861 -0.414319 0
M  V30 76751 H 7139.73 -1.48756 -0.138519 0
M  V30 76752 H 7141.61 -3.0895 -2.86579 0
M  V30 76753 H 7140.29 -1.92258 -2.6042 0
M  V30 76754 H 7139.19 -3.60261 -1.00812 0
M  V30 76755 H 7140.53 -4.73458 -1.34532 0
M  V30 76756 N 7142.18 0.188344 -1.56471 0
M  V30 76757 C 7143.46 0.933968 -1.71862 0
M  V30 76758 C 7143.84 2.01102 -0.641973 0
M  V30 76759 O 7143.18 2.25866 0.345979 0
M  V30 76760 C 7143.39 1.51424 -3.14439 0
M  V30 76761 C 7144.74 1.99376 -3.74879 0
M  V30 76762 O 7145.77 1.61253 -3.1761 0
M  V30 76763 O 7144.63 2.69548 -4.75401 0
M  V30 76764 H 7141.72 0.438446 -0.701209 0
M  V30 76765 H 7144.27 0.17751 -1.68769 0
M  V30 76766 H 7143.04 0.738214 -3.84273 0
M  V30 76767 H 7142.66 2.33535 -3.21788 0
M  V30 76768 N 7143.66 1.5085 0.456302 0
M  V30 76769 C 7145.07 1.55268 1.03677 0
M  V30 76770 C 7145.42 0.364872 1.92777 0
M  V30 76771 O 7144.54 -0.520569 2.10045 0
M  V30 76772 C 7145.14 2.81384 1.88703 0
M  V30 76773 C 7143.7 2.88434 2.41832 0
M  V30 76774 C 7142.85 2.49726 1.2055 0
M  V30 76775 H 7145.8 1.569 0.238316 0
M  V30 76776 H 7145.82 2.64075 2.73943 0
M  V30 76777 H 7145.33 3.67816 1.23827 0
M  V30 76778 H 7143.43 2.06389 3.10217 0
M  V30 76779 H 7143.54 3.91665 2.75927 0
M  V30 76780 H 7141.91 2.02494 1.54493 0
M  V30 76781 H 7142.69 3.38482 0.573147 0
M  V30 76782 N 7145.14 -0.710489 1.40676 0
M  V30 76783 C 7146.1 -1.80628 1.4109 0
M  V30 76784 C 7147.1 -1.57903 0.303867 0
M  V30 76785 O 7148.29 -1.6485 0.563024 0
M  V30 76786 C 7145.42 -3.18793 1.20765 0
M  V30 76787 H 7146.61 -1.81658 2.38622 0
M  V30 76788 H 7144.17 -0.916637 1.266 0
M  V30 76789 H 7144.9 -3.2341 0.240135 0
M  V30 76790 H 7144.69 -3.36687 2.00958 0
M  V30 76791 H 7146.18 -3.98811 1.23854 0
M  V30 76792 N 7146.61 -1.26257 -0.943233 0
M  V30 76793 C 7147.86 -1.1146 -1.68586 0
M  V30 76794 C 7148.18 0.343022 -1.91959 0
M  V30 76795 O 7147.45 1.24218 -1.51482 0
M  V30 76796 H 7146.03 -0.409481 -0.624767 0
M  V30 76797 H 7148.69 -1.58554 -1.13343 0
M  V30 76798 H 7147.79 -1.63176 -2.66045 0
M  V30 76799 N 7148.09 1.14751 -1.08028 0
M  V30 76800 C 7149.37 1.81847 -0.720482 0
M  V30 76801 C 7149.75 1.95506 0.796272 0
M  V30 76802 O 7149.1 1.51188 1.71331 0
M  V30 76803 C 7149.31 3.17776 -1.4429 0
M  V30 76804 C 7150.65 3.93323 -1.59945 0
M  V30 76805 O 7151.68 3.27352 -1.40424 0
M  V30 76806 O 7150.54 5.11616 -1.92123 0
M  V30 76807 H 7147.63 0.785993 -0.257183 0
M  V30 76808 H 7150.18 1.21803 -1.18162 0
M  V30 76809 H 7148.95 3.02974 -2.47634 0
M  V30 76810 H 7148.57 3.85511 -0.972994 0
M  V30 76811 N 7149.57 0.865377 1.31716 0
M  V30 76812 C 7150.48 0.321057 2.32393 0
M  V30 76813 C 7151.5 -0.566659 1.64514 0
M  V30 76814 O 7152.67 -0.464471 1.95971 0
M  V30 76815 C 7149.74 -0.47252 3.43465 0
M  V30 76816 C 7148.8 0.44261 4.27012 0
M  V30 76817 C 7148.03 -0.313188 5.3278 0
M  V30 76818 O 7148.25 -1.54185 5.49166 0
M  V30 76819 O 7147.19 0.326574 6.01013 0
M  V30 76820 H 7151.01 1.15543 2.80862 0
M  V30 76821 H 7148.6 0.628617 1.35531 0
M  V30 76822 H 7150.48 -0.922564 4.11177 0
M  V30 76823 H 7149.16 -1.28351 2.97166 0
M  V30 76824 H 7148.06 0.941057 3.6207 0
M  V30 76825 H 7149.4 1.21908 4.76864 0
M  V30 76826 N 7151.05 -1.44705 0.624362 0
M  V30 76827 C 7152.28 -2.06173 0.132835 0
M  V30 76828 C 7152.69 -1.4668 -1.19505 0
M  V30 76829 O 7152.03 -0.581583 -1.74251 0
M  V30 76830 C 7152.09 -3.59444 -0.0634837 0
M  V30 76831 C 7151.75 -4.41364 1.18519 0
M  V30 76832 C 7152.75 -4.75277 2.10731 0
M  V30 76833 C 7150.44 -4.81848 1.41871 0
M  V30 76834 C 7152.43 -5.4855 3.24611 0
M  V30 76835 C 7150.12 -5.54871 2.56049 0
M  V30 76836 C 7151.12 -5.88141 3.47246 0
M  V30 76837 O 7150.8 -6.59679 4.59434 0
M  V30 76838 H 7150.54 -0.671963 0.0737668 0
M  V30 76839 H 7153.09 -1.86672 0.856888 0
M  V30 76840 H 7151.32 -3.77408 -0.84261 0
M  V30 76841 H 7153.01 -4.027 -0.508712 0
M  V30 76842 H 7153.77 -4.44544 1.93921 0
M  V30 76843 H 7149.65 -4.55378 0.717796 0
M  V30 76844 H 7153.2 -5.74435 3.95816 0
M  V30 76845 H 7149.09 -5.8502 2.72805 0
M  V30 76846 H 7149.86 -6.78142 4.58329 0
M  V30 76847 N 7152.53 -0.364502 -1.53327 0
M  V30 76848 C 7153.44 0.490431 -2.29416 0
M  V30 76849 C 7154.45 1.09356 -1.35341 0
M  V30 76850 O 7155.63 1.10474 -1.68397 0
M  V30 76851 C 7152.69 1.61513 -3.06781 0
M  V30 76852 C 7151.75 1.03964 -4.16521 0
M  V30 76853 C 7150.99 2.11074 -4.90187 0
M  V30 76854 O 7151.21 3.32166 -4.63704 0
M  V30 76855 O 7150.14 1.74192 -5.76143 0
M  V30 76856 H 7153.97 -0.12872 -3.03427 0
M  V30 76857 H 7151.55 -0.128916 -1.48843 0
M  V30 76858 H 7153.44 2.26905 -3.55094 0
M  V30 76859 H 7152.11 2.2197 -2.35608 0
M  V30 76860 H 7151.02 0.349659 -3.72462 0
M  V30 76861 H 7152.35 0.479642 -4.89857 0
M  V30 76862 N 7154 1.57322 -0.0936425 0
M  V30 76863 C 7155.25 1.93476 0.570089 0
M  V30 76864 C 7155.57 0.977408 1.69429 0
M  V30 76865 O 7156.77 1.23261 2.41907 0
M  V30 76866 C 7155.23 3.43767 1.06546 0
M  V30 76867 C 7154.84 4.47991 -0.0289086 0
M  V30 76868 C 7156.58 3.88886 1.70201 0
M  V30 76869 C 7154.49 5.89435 0.481736 0
M  V30 76870 H 7153.42 0.722181 0.216726 0
M  V30 76871 H 7156.07 1.82716 -0.169409 0
M  V30 76872 H 7154.45 3.49674 1.8586 0
M  V30 76873 H 7155.62 4.53726 -0.804345 0
M  V30 76874 H 7153.94 4.12473 -0.570553 0
M  V30 76875 H 7156.54 4.91959 2.09476 0
M  V30 76876 H 7156.88 3.27453 2.57061 0
M  V30 76877 H 7157.41 3.85674 0.974716 0
M  V30 76878 H 7154.15 6.54564 -0.350217 0
M  V30 76879 H 7153.67 5.87174 1.22421 0
M  V30 76880 H 7155.35 6.3997 0.95117 0
M  V30 76881 N 7155.48 -0.180044 1.56568 0
M  V30 76882 C 7156.71 -0.912549 1.85354 0
M  V30 76883 C 7157.12 -1.76716 0.675888 0
M  V30 76884 O 7156.46 -1.80049 -0.364406 0
M  V30 76885 C 7156.53 -1.84675 3.0844 0
M  V30 76886 C 7156.19 -1.17261 4.417 0
M  V30 76887 C 7157.19 -0.54226 5.17064 0
M  V30 76888 C 7154.87 -1.17197 4.88436 0
M  V30 76889 C 7156.87 0.0797314 6.3735 0
M  V30 76890 C 7154.55 -0.546149 6.08655 0
M  V30 76891 C 7155.55 0.0786059 6.82955 0
M  V30 76892 O 7155.24 0.69458 8.00894 0
M  V30 76893 H 7154.97 -0.271003 0.619301 0
M  V30 76894 H 7157.52 -0.18766 2.04541 0
M  V30 76895 H 7155.75 -2.61173 2.85177 0
M  V30 76896 H 7157.44 -2.44834 3.23746 0
M  V30 76897 H 7158.21 -0.534791 4.82043 0
M  V30 76898 H 7154.09 -1.64765 4.3055 0
M  V30 76899 H 7157.63 0.567979 6.95284 0
M  V30 76900 H 7153.53 -0.551171 6.43143 0
M  V30 76901 H 7154.3 0.592968 8.16349 0
M  V30 76902 N 7156.96 -1.5109 -0.448296 0
M  V30 76903 C 7158.38 -1.39022 -0.78391 0
M  V30 76904 C 7158.58 -0.464007 -1.96085 0
M  V30 76905 O 7157.63 0.0849204 -2.52357 0
M  V30 76906 C 7158.95 -2.80844 -1.07457 0
M  V30 76907 C 7160.49 -2.89919 -1.17966 0
M  V30 76908 C 7160.97 -4.32625 -1.50332 0
M  V30 76909 N 7162.46 -4.35681 -1.57278 0
M  V30 76910 C 7163.19 -5.4312 -1.83871 0
M  V30 76911 N 7162.69 -6.60735 -2.0833 0
M  V30 76912 N 7164.48 -5.30587 -1.85562 0
M  V30 76913 H 7156.63 -2.09868 0.326991 0
M  V30 76914 H 7158.9 -0.944284 0.0838504 0
M  V30 76915 H 7158.6 -3.50563 -0.282583 0
M  V30 76916 H 7158.48 -3.19498 -2.00502 0
M  V30 76917 H 7160.86 -2.20405 -1.96228 0
M  V30 76918 H 7160.95 -2.54778 -0.228469 0
M  V30 76919 H 7160.59 -5.02684 -0.726008 0
M  V30 76920 H 7160.52 -4.65271 -2.46639 0
M  V30 76921 H 7163.01 -3.50881 -1.40323 0
M  V30 76922 H 7163.32 -7.38413 -2.2796 0
M  V30 76923 H 7161.67 -6.6387 -2.05675 0
M  V30 76924 H 7164.86 -4.37691 -1.65966 0
M  V30 76925 H 7165.03 -6.14401 -2.0595 0
M  V30 76926 N 7158.44 0.703019 -1.41051 0
M  V30 76927 C 7159.69 1.45863 -1.39309 0
M  V30 76928 C 7160 1.956 -0.00277391 0
M  V30 76929 O 7161.21 2.71153 0.137271 0
M  V30 76930 C 7159.66 2.63723 -2.44905 0
M  V30 76931 C 7159.27 2.20803 -3.89808 0
M  V30 76932 C 7161.01 3.41395 -2.52288 0
M  V30 76933 C 7158.92 3.35577 -4.86973 0
M  V30 76934 H 7157.85 0.547866 -0.518034 0
M  V30 76935 H 7160.5 0.763921 -1.66843 0
M  V30 76936 H 7158.88 3.35425 -2.1049 0
M  V30 76937 H 7160.06 1.56439 -4.33432 0
M  V30 76938 H 7158.37 1.56143 -3.86016 0
M  V30 76939 H 7160.97 4.26822 -3.22066 0
M  V30 76940 H 7161.31 3.86073 -1.55735 0
M  V30 76941 H 7161.85 2.76745 -2.85757 0
M  V30 76942 H 7158.59 2.95919 -5.84904 0
M  V30 76943 H 7158.11 3.98815 -4.48003 0
M  V30 76944 H 7159.78 4.01463 -5.07382 0
M  V30 76945 N 7159.92 1.26756 0.936524 0
M  V30 76946 C 7161.17 1.11962 1.67772 0
M  V30 76947 C 7161.48 -0.335788 1.92696 0
M  V30 76948 O 7162.68 -0.604478 2.64685 0
M  V30 76949 C 7161.14 1.95567 3.02128 0
M  V30 76950 C 7160.75 3.45712 2.84934 0
M  V30 76951 C 7162.49 1.89397 3.79907 0
M  V30 76952 C 7160.4 4.21547 4.14792 0
M  V30 76953 H 7159.33 0.415399 0.629253 0
M  V30 76954 H 7161.98 1.51104 1.04114 0
M  V30 76955 H 7160.36 1.49262 3.66792 0
M  V30 76956 H 7161.54 3.99817 2.29091 0
M  V30 76957 H 7159.85 3.53168 2.20594 0
M  V30 76958 H 7162.45 2.43337 4.76121 0
M  V30 76959 H 7162.79 0.865679 4.072 0
M  V30 76960 H 7163.32 2.33549 3.22024 0
M  V30 76961 H 7160.06 5.24863 3.92681 0
M  V30 76962 H 7159.58 3.7222 4.70332 0
M  V30 76963 H 7161.26 4.30246 4.83216 0
M  V30 76964 N 7161.39 -1.14177 1.08635 0
M  V30 76965 C 7162.64 -1.85268 0.817443 0
M  V30 76966 C 7162.97 -1.83074 -0.656821 0
M  V30 76967 O 7162.22 -1.25823 -1.4989 0
M  V30 76968 C 7162.52 -3.33403 1.28752 0
M  V30 76969 C 7162.19 -3.55784 2.76999 0
M  V30 76970 C 7160.85 -3.616 3.17488 0
M  V30 76971 C 7163.2 -3.64418 3.72624 0
M  V30 76972 C 7160.53 -3.73576 4.52391 0
M  V30 76973 C 7162.88 -3.77921 5.07305 0
M  V30 76974 C 7161.55 -3.81987 5.47396 0
M  V30 76975 H 7160.82 -0.677943 0.299124 0
M  V30 76976 H 7163.46 -1.3485 1.35969 0
M  V30 76977 H 7161.77 -3.86117 0.664906 0
M  V30 76978 H 7163.47 -3.86841 1.05618 0
M  V30 76979 H 7160.06 -3.51906 2.44663 0
M  V30 76980 H 7164.24 -3.59212 3.42462 0
M  V30 76981 H 7159.5 -3.74988 4.82902 0
M  V30 76982 H 7163.67 -3.83544 5.81263 0
M  V30 76983 H 7161.3 -3.91019 6.51926 0
M  V30 76984 N 7162.87 -0.872351 -1.31255 0
M  V30 76985 C 7164.15 -0.405044 -1.9136 0
M  V30 76986 C 7164.53 1.11312 -1.79368 0
M  V30 76987 O 7163.88 1.94276 -1.20287 0
M  V30 76988 C 7164.09 -0.889071 -3.37486 0
M  V30 76989 C 7165.44 -0.916602 -4.14588 0
M  V30 76990 O 7166.46 -0.834884 -3.46278 0
M  V30 76991 O 7165.32 -1.03526 -5.36605 0
M  V30 76992 H 7162.41 -0.121612 -0.818009 0
M  V30 76993 H 7164.96 -0.96042 -1.39907 0
M  V30 76994 H 7163.73 -1.93269 -3.40239 0
M  V30 76995 H 7163.35 -0.312141 -3.96373 0
M  V30 76996 N 7164.35 1.44372 -0.632027 0
M  V30 76997 C 7165.6 2.01252 -0.13432 0
M  V30 76998 C 7165.91 1.50312 1.25163 0
M  V30 76999 O 7167.12 1.99326 1.8434 0
M  V30 77000 C 7165.57 3.59401 -0.189376 0
M  V30 77001 C 7165.18 4.19338 -1.57669 0
M  V30 77002 C 7166.93 4.23752 0.251821 0
M  V30 77003 C 7164.83 5.69714 -1.58681 0
M  V30 77004 H 7163.76 0.752568 -0.0464497 0
M  V30 77005 H 7166.41 1.65578 -0.790956 0
M  V30 77006 H 7164.8 3.92378 0.534377 0
M  V30 77007 H 7165.97 3.97897 -2.3241 0
M  V30 77008 H 7164.29 3.67277 -1.96205 0
M  V30 77009 H 7166.88 5.34049 0.263802 0
M  V30 77010 H 7167.23 3.96156 1.2793 0
M  V30 77011 H 7167.76 3.95582 -0.419468 0
M  V30 77012 H 7164.5 6.02046 -2.59269 0
M  V30 77013 H 7164.02 5.93274 -0.882352 0
M  V30 77014 H 7165.7 6.33368 -1.32116 0
M  V30 77015 N 7165.83 0.372629 1.53131 0
M  V30 77016 C 7167.06 -0.215406 2.05776 0
M  V30 77017 C 7167.47 -1.41879 1.24562 0
M  V30 77018 O 7166.83 -1.80213 0.288046 0
M  V30 77019 C 7166.88 -0.601973 3.56453 0
M  V30 77020 O 7166.6 0.553588 4.34588 0
M  V30 77021 C 7168.1 -1.24765 4.25381 0
M  V30 77022 H 7165.32 -0.0364175 0.670011 0
M  V30 77023 H 7167.87 0.533038 1.97431 0
M  V30 77024 H 7166.02 -1.30033 3.64925 0
M  V30 77025 H 7166.43 0.239612 5.23952 0
M  V30 77026 H 7167.91 -1.46863 5.32104 0
M  V30 77027 H 7168.39 -2.21006 3.79543 0
M  V30 77028 H 7168.99 -0.59053 4.2118 0
M  V30 77029 N 7167.31 -1.5727 0.101984 0
M  V30 77030 C 7168.55 -1.946 -0.560095 0
M  V30 77031 C 7168.88 -0.984189 -1.67762 0
M  V30 77032 O 7168.14 -0.00499513 -1.95699 0
M  V30 77033 C 7168.44 -3.38433 -1.14881 0
M  V30 77034 C 7168.1 -4.50636 -0.154375 0
M  V30 77035 C 7166.76 -4.81053 0.119114 0
M  V30 77036 C 7169.12 -5.18557 0.524253 0
M  V30 77037 C 7166.44 -5.76715 1.07781 0
M  V30 77038 C 7168.8 -6.15248 1.47146 0
M  V30 77039 C 7167.46 -6.44067 1.75311 0
M  V30 77040 H 7166.73 -0.712092 -0.204953 0
M  V30 77041 H 7169.38 -1.90659 0.17928 0
M  V30 77042 H 7167.68 -3.38986 -1.96458 0
M  V30 77043 H 7169.38 -3.64622 -1.6689 0
M  V30 77044 H 7165.97 -4.26932 -0.377723 0
M  V30 77045 H 7170.15 -4.95227 0.326112 0
M  V30 77046 H 7165.41 -5.97355 1.30295 0
M  V30 77047 H 7169.58 -6.6697 2.00309 0
M  V30 77048 H 7167.21 -7.18002 2.49755 0
M  V30 77049 N 7168.79 0.171738 -1.56661 0
M  V30 77050 C 7170.03 0.888433 -1.8197 0
M  V30 77051 C 7170.36 1.82263 -0.678996 0
M  V30 77052 O 7169.62 1.92833 0.333773 0
M  V30 77053 C 7169.91 1.71719 -3.13444 0
M  V30 77054 C 7169.58 0.931951 -4.41164 0
M  V30 77055 C 7168.24 0.71523 -4.75855 0
M  V30 77056 C 7170.59 0.381113 -5.19805 0
M  V30 77057 C 7167.92 -0.0634354 -5.86666 0
M  V30 77058 C 7170.27 -0.384462 -6.31431 0
M  V30 77059 C 7168.94 -0.611987 -6.64689 0
M  V30 77060 H 7168.21 0.325101 -0.665876 0
M  V30 77061 H 7170.86 0.153395 -1.90885 0
M  V30 77062 H 7169.16 2.52161 -2.9987 0
M  V30 77063 H 7170.86 2.27475 -3.30236 0
M  V30 77064 H 7167.45 1.11091 -4.13953 0
M  V30 77065 H 7171.63 0.535888 -4.93398 0
M  V30 77066 H 7166.89 -0.249458 -6.10891 0
M  V30 77067 H 7171.06 -0.818549 -6.91573 0
M  V30 77068 H 7168.69 -1.21723 -7.50392 0
M  V30 77069 N 7170.26 1.51325 0.440277 0
M  V30 77070 C 7171.51 1.63848 1.18996 0
M  V30 77071 C 7171.84 0.353311 1.91264 0
M  V30 77072 O 7171.09 -0.662468 1.84146 0
M  V30 77073 C 7171.39 2.78995 2.23375 0
M  V30 77074 C 7171.06 4.18377 1.6814 0
M  V30 77075 C 7169.72 4.56296 1.52799 0
M  V30 77076 C 7172.07 5.05365 1.27498 0
M  V30 77077 C 7169.4 5.78911 0.952852 0
M  V30 77078 C 7171.75 6.28556 0.714143 0
M  V30 77079 C 7170.42 6.6525 0.54761 0
M  V30 77080 H 7169.69 0.599563 0.435437 0
M  V30 77081 H 7172.33 1.85349 0.48144 0
M  V30 77082 H 7170.64 2.51704 3.00254 0
M  V30 77083 H 7172.34 2.85884 2.81196 0
M  V30 77084 H 7168.93 3.8848 1.81056 0
M  V30 77085 H 7173.11 4.76678 1.38172 0
M  V30 77086 H 7168.37 6.0599 0.811562 0
M  V30 77087 H 7172.54 6.95303 0.390693 0
M  V30 77088 H 7170.17 7.60134 0.0998207 0
M  V30 77089 N 7171.74 -0.695528 1.41422 0
M  V30 77090 C 7172.99 -1.45557 1.40781 0
M  V30 77091 C 7173.32 -1.94493 0.016963 0
M  V30 77092 O 7172.57 -1.69902 -0.971169 0
M  V30 77093 C 7172.87 -2.68289 2.36126 0
M  V30 77094 C 7172.54 -2.38011 3.82964 0
M  V30 77095 C 7171.2 -2.29463 4.22966 0
M  V30 77096 C 7173.55 -2.13036 4.75673 0
M  V30 77097 C 7170.88 -1.94038 5.53684 0
M  V30 77098 C 7173.23 -1.79119 6.06712 0
M  V30 77099 C 7171.89 -1.69068 6.45734 0
M  V30 77100 H 7171.16 -0.532631 0.515156 0
M  V30 77101 H 7173.81 -0.794955 1.7422 0
M  V30 77102 H 7172.12 -3.39285 1.95942 0
M  V30 77103 H 7173.81 -3.2643 2.32904 0
M  V30 77104 H 7170.4 -2.45557 3.51283 0
M  V30 77105 H 7174.59 -2.18584 4.45572 0
M  V30 77106 H 7169.84 -1.84809 5.828 0
M  V30 77107 H 7174.02 -1.58814 6.78049 0
M  V30 77108 H 7171.64 -1.41386 7.46936 0
M  V30 77109 N 7173.22 -1.2725 -0.929789 0
M  V30 77110 C 7174.47 -1.13634 -1.67974 0
M  V30 77111 C 7174.8 0.317488 -1.91587 0
M  V30 77112 O 7174.07 1.23239 -1.50474 0
M  V30 77113 C 7174.36 -1.91822 -3.04756 0
M  V30 77114 C 7174.21 -3.45177 -2.88397 0
M  V30 77115 C 7175.53 -1.72103 -4.05054 0
M  V30 77116 H 7172.65 -0.414179 -0.60961 0
M  V30 77117 H 7175.29 -1.56381 -1.07911 0
M  V30 77118 H 7173.44 -1.55493 -3.56026 0
M  V30 77119 H 7175.11 -3.91324 -2.44261 0
M  V30 77120 H 7173.35 -3.71623 -2.23783 0
M  V30 77121 H 7174.03 -3.95125 -3.85461 0
M  V30 77122 H 7176.5 -2.03776 -3.62787 0
M  V30 77123 H 7175.38 -2.29208 -4.98753 0
M  V30 77124 H 7175.64 -0.668436 -4.37018 0
M  V30 77125 N 7174.7 1.13599 -1.09239 0
M  V30 77126 C 7175.95 1.84184 -0.822147 0
M  V30 77127 C 7176.26 1.84327 0.65445 0
M  V30 77128 O 7177.47 2.50785 1.04016 0
M  V30 77129 C 7175.92 3.30667 -1.42083 0
M  V30 77130 C 7175.53 3.38917 -2.92983 0
M  V30 77131 C 7177.27 4.06306 -1.22945 0
M  V30 77132 C 7175.18 4.79661 -3.45947 0
M  V30 77133 H 7174.11 0.690048 -0.303891 0
M  V30 77134 H 7176.76 1.27999 -1.31486 0
M  V30 77135 H 7175.14 3.86642 -0.855817 0
M  V30 77136 H 7176.32 2.92947 -3.55694 0
M  V30 77137 H 7174.63 2.76741 -3.11133 0
M  V30 77138 H 7177.23 5.10209 -1.59972 0
M  V30 77139 H 7177.57 4.15953 -0.169945 0
M  V30 77140 H 7178.11 3.56655 -1.76187 0
M  V30 77141 H 7174.84 4.75205 -4.51509 0
M  V30 77142 H 7174.36 5.26134 -2.87998 0
M  V30 77143 H 7176.04 5.48574 -3.43038 0
M  V30 77144 N 7176.18 0.879299 1.3079 0
M  V30 77145 C 7177.42 0.495623 1.96651 0
M  V30 77146 C 7177.75 -0.951614 1.69287 0
M  V30 77147 O 7177.03 -1.67155 0.994462 0
M  V30 77148 C 7177.31 0.76436 3.51894 0
M  V30 77149 C 7177.17 2.26181 3.88796 0
M  V30 77150 C 7178.48 0.237057 4.39461 0
M  V30 77151 H 7175.6 0.181544 0.71429 0
M  V30 77152 H 7178.25 1.10225 1.54759 0
M  V30 77153 H 7176.4 0.248045 3.87707 0
M  V30 77154 H 7178.07 2.8461 3.63036 0
M  V30 77155 H 7176.31 2.73071 3.37068 0
M  V30 77156 H 7176.98 2.40046 4.97073 0
M  V30 77157 H 7179.46 0.678899 4.10524 0
M  V30 77158 H 7178.33 0.454465 5.47015 0
M  V30 77159 H 7178.59 -0.861454 4.33626 0
M  V30 77160 N 7177.65 -1.44034 0.639674 0
M  V30 77161 C 7178.9 -2.01178 0.144991 0
M  V30 77162 C 7179.22 -1.50974 -1.24364 0
M  V30 77163 O 7180.42 -2.00301 -1.8328 0
M  V30 77164 C 7178.88 -3.59296 0.208434 0
M  V30 77165 C 7178.49 -4.18496 1.59891 0
M  V30 77166 C 7180.23 -4.2388 -0.229344 0
M  V30 77167 C 7178.14 -5.68865 1.61701 0
M  V30 77168 H 7177.07 -0.752311 0.0504401 0
M  V30 77169 H 7179.72 -1.65156 0.799726 0
M  V30 77170 H 7178.1 -3.92656 -0.51356 0
M  V30 77171 H 7179.27 -3.96659 2.34517 0
M  V30 77172 H 7177.59 -3.66232 1.9815 0
M  V30 77173 H 7180.19 -5.34181 -0.235477 0
M  V30 77174 H 7180.53 -3.96829 -1.25827 0
M  V30 77175 H 7181.06 -3.95354 0.440441 0
M  V30 77176 H 7177.8 -6.00663 2.62458 0
M  V30 77177 H 7177.32 -5.92798 0.913802 0
M  V30 77178 H 7179 -6.32658 1.35473 0
M  V30 77179 N 7179.13 -0.380744 -1.52932 0
M  V30 77180 C 7180.06 0.450147 -2.2912 0
M  V30 77181 C 7181.04 1.0709 -1.32158 0
M  V30 77182 O 7182.23 1.08528 -1.61044 0
M  V30 77183 C 7179.36 1.58215 -3.09169 0
M  V30 77184 C 7178.31 1.08788 -4.13943 0
M  V30 77185 C 7177.64 2.31129 -4.82165 0
M  V30 77186 C 7178.94 0.161871 -5.22049 0
M  V30 77187 H 7180.63 -0.185518 -2.98825 0
M  V30 77188 H 7178.18 -0.0906644 -1.43714 0
M  V30 77189 H 7180.13 2.17017 -3.61222 0
M  V30 77190 H 7178.85 2.24527 -2.37182 0
M  V30 77191 H 7177.51 0.522442 -3.62858 0
M  V30 77192 H 7177.16 2.95932 -4.06735 0
M  V30 77193 H 7176.86 1.98723 -5.52977 0
M  V30 77194 H 7178.39 2.9059 -5.37019 0
M  V30 77195 H 7179.8 0.657825 -5.69513 0
M  V30 77196 H 7178.2 -0.0720286 -6.00057 0
M  V30 77197 H 7179.27 -0.791691 -4.78393 0
M  V30 77198 N 7180.61 1.57213 -0.110323 0
M  V30 77199 C 7181.54 2.17872 0.839887 0
M  V30 77200 C 7182.52 1.1163 1.28346 0
M  V30 77201 O 7183.71 1.39831 1.34762 0
M  V30 77202 C 7180.84 2.77122 2.09334 0
M  V30 77203 C 7179.79 3.88869 1.78787 0
M  V30 77204 C 7179.12 4.34888 3.11089 0
M  V30 77205 C 7180.42 5.1137 1.06293 0
M  V30 77206 H 7182.11 2.97526 0.334451 0
M  V30 77207 H 7179.66 1.43115 0.159427 0
M  V30 77208 H 7181.61 3.18213 2.76258 0
M  V30 77209 H 7180.33 1.94744 2.62187 0
M  V30 77210 H 7178.99 3.48341 1.14255 0
M  V30 77211 H 7178.64 3.49381 3.61859 0
M  V30 77212 H 7178.34 5.1024 2.91426 0
M  V30 77213 H 7179.86 4.78624 3.79146 0
M  V30 77214 H 7181.28 5.49535 1.63354 0
M  V30 77215 H 7179.67 5.92248 0.967564 0
M  V30 77216 H 7180.74 4.84876 0.0482012 0
M  V30 77217 N 7182.09 -0.163427 1.5675 0
M  V30 77218 C 7183.05 -1.18603 1.96128 0
M  V30 77219 C 7184.05 -1.36756 0.845837 0
M  V30 77220 O 7185.24 -1.34028 1.11276 0
M  V30 77221 C 7182.37 -2.54957 2.26295 0
M  V30 77222 H 7183.57 -0.848613 2.87643 0
M  V30 77223 H 7181.12 -0.406172 1.5093 0
M  V30 77224 H 7181.85 -2.93699 1.37519 0
M  V30 77225 H 7181.64 -2.43146 3.07608 0
M  V30 77226 H 7183.13 -3.28639 2.57655 0
M  V30 77227 N 7183.57 -1.51557 -0.432246 0
M  V30 77228 C 7184.82 -1.63709 -1.17822 0
M  V30 77229 C 7185.13 -0.361661 -1.92227 0
M  V30 77230 O 7186.33 -0.362637 -2.69067 0
M  V30 77231 C 7184.79 -2.8914 -2.14303 0
M  V30 77232 C 7184.4 -4.23707 -1.45522 0
M  V30 77233 C 7186.14 -3.10652 -2.89302 0
M  V30 77234 C 7184.05 -5.40283 -2.40516 0
M  V30 77235 H 7182.98 -0.609773 -0.443501 0
M  V30 77236 H 7185.63 -1.78028 -0.444785 0
M  V30 77237 H 7184.01 -2.68468 -2.91103 0
M  V30 77238 H 7185.19 -4.54779 -0.742453 0
M  V30 77239 H 7183.5 -4.08114 -0.826557 0
M  V30 77240 H 7186.1 -3.94921 -3.60474 0
M  V30 77241 H 7186.44 -2.23936 -3.50939 0
M  V30 77242 H 7186.97 -3.31688 -2.19608 0
M  V30 77243 H 7183.71 -6.29274 -1.83561 0
M  V30 77244 H 7183.23 -5.1358 -3.09832 0
M  V30 77245 H 7184.91 -5.72437 -3.01538 0
M  V30 77246 N 7185.04 0.688019 -1.41789 0
M  V30 77247 C 7186.29 1.44377 -1.40848 0
M  V30 77248 C 7186.61 1.95586 -0.0235197 0
M  V30 77249 O 7187.81 2.71283 0.108504 0
M  V30 77250 C 7186.27 2.6111 -2.47688 0
M  V30 77251 C 7185.88 2.16656 -3.92128 0
M  V30 77252 C 7187.62 3.387 -2.55895 0
M  V30 77253 C 7185.53 3.30393 -4.90504 0
M  V30 77254 H 7184.46 0.54234 -0.523816 0
M  V30 77255 H 7187.11 0.746182 -1.67644 0
M  V30 77256 H 7185.49 3.33174 -2.14036 0
M  V30 77257 H 7186.66 1.51833 -4.35067 0
M  V30 77258 H 7184.98 1.5204 -3.8765 0
M  V30 77259 H 7187.58 4.23382 -3.26575 0
M  V30 77260 H 7187.92 3.844 -1.59821 0
M  V30 77261 H 7188.45 2.73699 -2.88676 0
M  V30 77262 H 7185.19 2.89698 -5.88009 0
M  V30 77263 H 7184.71 3.94041 -4.52208 0
M  V30 77264 H 7186.39 3.96058 -5.11612 0
M  V30 77265 N 7186.52 1.27742 0.923027 0
M  V30 77266 C 7187.45 1.06669 2.02866 0
M  V30 77267 C 7188.47 0.0212953 1.62786 0
M  V30 77268 O 7189.66 0.26336 1.76547 0
M  V30 77269 C 7186.76 0.596996 3.336 0
M  V30 77270 C 7185.93 1.71572 4.02345 0
M  V30 77271 C 7184.99 1.24098 5.11357 0
M  V30 77272 O 7184.01 1.94151 5.35065 0
M  V30 77273 N 7185.22 0.0991505 5.80415 0
M  V30 77274 H 7187.98 2.01881 2.21505 0
M  V30 77275 H 7185.54 1.19371 1.09372 0
M  V30 77276 H 7187.53 0.263197 4.03843 0
M  V30 77277 H 7186.1 -0.262023 3.115 0
M  V30 77278 H 7185.32 2.21957 3.25774 0
M  V30 77279 H 7186.61 2.46642 4.45022 0
M  V30 77280 H 7186.01 -0.485446 5.63613 0
M  V30 77281 H 7184.57 -0.175437 6.51564 0
M  V30 77282 N 7188 -1.13018 1.0984 0
M  V30 77283 C 7189.25 -1.84026 0.835394 0
M  V30 77284 C 7189.57 -1.84169 -0.640847 0
M  V30 77285 O 7188.84 -1.30045 -1.4651 0
M  V30 77286 H 7187.42 -0.681425 0.306054 0
M  V30 77287 H 7190.08 -1.36883 1.38741 0
M  V30 77288 H 7189.18 -2.8841 1.19274 0
M  V30 77289 N 7189.48 -0.886223 -1.30322 0
M  V30 77290 C 7190.41 -0.370149 -2.30547 0
M  V30 77291 C 7191.39 0.547666 -1.61042 0
M  V30 77292 O 7192.57 0.461253 -1.88643 0
M  V30 77293 C 7189.7 0.415093 -3.4481 0
M  V30 77294 C 7188.66 -0.411074 -4.26021 0
M  V30 77295 C 7187.98 0.500847 -5.32349 0
M  V30 77296 C 7189.28 -1.65385 -4.95424 0
M  V30 77297 H 7190.98 -1.20768 -2.73962 0
M  V30 77298 H 7188.52 -0.582166 -1.31707 0
M  V30 77299 H 7190.48 0.786772 -4.1399 0
M  V30 77300 H 7189.2 1.28628 -3.00204 0
M  V30 77301 H 7187.86 -0.764908 -3.58531 0
M  V30 77302 H 7187.51 1.36978 -4.8399 0
M  V30 77303 H 7187.21 -0.0481455 -5.8758 0
M  V30 77304 H 7188.73 0.869015 -6.04384 0
M  V30 77305 H 7190.15 -1.35269 -5.57113 0
M  V30 77306 H 7188.54 -2.14314 -5.60526 0
M  V30 77307 H 7189.61 -2.39755 -4.2148 0
M  V30 77308 N 7190.96 1.43693 -0.647304 0
M  V30 77309 C 7192.21 2.01098 -0.155658 0
M  V30 77310 C 7192.52 1.51631 1.23561 0
M  V30 77311 O 7193.72 2.0127 1.82215 0
M  V30 77312 C 7192.18 3.5918 -0.227485 0
M  V30 77313 C 7191.79 4.17642 -1.62108 0
M  V30 77314 C 7193.53 4.23996 0.206862 0
M  V30 77315 C 7191.44 5.67999 -1.64715 0
M  V30 77316 H 7190.37 0.752033 -0.0544291 0
M  V30 77317 H 7193.02 1.6473 -0.808473 0
M  V30 77318 H 7191.4 3.92923 0.49273 0
M  V30 77319 H 7192.58 3.9541 -2.36617 0
M  V30 77320 H 7190.89 3.65176 -2.00089 0
M  V30 77321 H 7193.49 5.34299 0.207144 0
M  V30 77322 H 7193.83 3.97491 1.23721 0
M  V30 77323 H 7194.36 3.95115 -0.461402 0
M  V30 77324 H 7191.1 5.99263 -2.6564 0
M  V30 77325 H 7190.62 5.92305 -0.945227 0
M  V30 77326 H 7192.3 6.31931 -1.38826 0
M  V30 77327 N 7192.43 0.388849 1.52728 0
M  V30 77328 C 7193.68 -0.194727 2.00758 0
M  V30 77329 C 7194 -1.47939 1.27958 0
M  V30 77330 O 7195.2 -2.14299 1.66698 0
M  V30 77331 C 7193.66 -0.397573 3.57697 0
M  V30 77332 C 7193.27 0.873815 4.39396 0
M  V30 77333 C 7195.01 -0.93754 4.14017 0
M  V30 77334 C 7192.92 0.639272 5.87935 0
M  V30 77335 H 7191.85 -0.0765449 0.750105 0
M  V30 77336 H 7194.5 0.511179 1.76236 0
M  V30 77337 H 7192.88 -1.16532 3.78466 0
M  V30 77338 H 7194.05 1.64614 4.30394 0
M  V30 77339 H 7192.37 1.3387 3.94294 0
M  V30 77340 H 7194.97 -1.12872 5.22651 0
M  V30 77341 H 7195.31 -1.90647 3.7008 0
M  V30 77342 H 7195.84 -0.229378 3.97138 0
M  V30 77343 H 7192.58 1.57918 6.36193 0
M  V30 77344 H 7192.1 -0.0941268 5.99726 0
M  V30 77345 H 7193.78 0.27364 6.46421 0
M  V30 77346 N 7193.91 -1.57153 0.118659 0
M  V30 77347 C 7195.19 -1.86711 -0.582964 0
M  V30 77348 C 7195.57 -1.01976 -1.84835 0
M  V30 77349 O 7194.92 -0.0985877 -2.28287 0
M  V30 77350 C 7195.13 -3.37834 -0.875734 0
M  V30 77351 C 7196.48 -4.06426 -1.22894 0
M  V30 77352 O 7197.5 -3.42851 -0.966007 0
M  V30 77353 O 7196.36 -5.18647 -1.72241 0
M  V30 77354 H 7193.45 -0.772922 -0.294144 0
M  V30 77355 H 7196 -1.69008 0.153137 0
M  V30 77356 H 7194.77 -3.91294 0.020984 0
M  V30 77357 H 7194.39 -3.60966 -1.667 0
M  V30 77358 N 7195.39 0.155112 -1.56835 0
M  V30 77359 C 7196.35 1.17561 -1.96754 0
M  V30 77360 C 7197.35 1.36306 -0.853078 0
M  V30 77361 O 7198.54 1.33436 -1.11985 0
M  V30 77362 C 7195.68 2.53753 -2.27644 0
M  V30 77363 H 7196.87 0.833346 -2.88089 0
M  V30 77364 H 7194.42 0.398162 -1.51144 0
M  V30 77365 H 7195.16 2.92965 -1.39075 0
M  V30 77366 H 7194.94 2.41511 -3.08893 0
M  V30 77367 H 7196.43 3.27268 -2.59394 0
M  V30 77368 N 7196.87 1.51784 0.424202 0
M  V30 77369 C 7198.12 1.65101 1.17251 0
M  V30 77370 C 7198.44 0.373577 1.90879 0
M  V30 77371 O 7197.7 -0.642899 1.84839 0
M  V30 77372 C 7198 2.81349 2.20403 0
M  V30 77373 C 7197.66 4.20137 1.63693 0
M  V30 77374 C 7196.33 4.57891 1.47951 0
M  V30 77375 C 7198.68 5.06689 1.2213 0
M  V30 77376 C 7196.01 5.79889 0.891397 0
M  V30 77377 C 7198.36 6.29278 0.647436 0
M  V30 77378 C 7197.02 6.65793 0.47702 0
M  V30 77379 H 7196.29 0.604148 0.429053 0
M  V30 77380 H 7198.94 1.8585 0.461754 0
M  V30 77381 H 7197.24 2.54875 2.97567 0
M  V30 77382 H 7198.94 2.88851 2.78148 0
M  V30 77383 H 7195.53 3.90378 1.76926 0
M  V30 77384 H 7199.71 4.78117 1.33108 0
M  V30 77385 H 7194.97 6.06816 0.747243 0
M  V30 77386 H 7199.14 6.95678 0.316924 0
M  V30 77387 H 7196.77 7.60198 0.0191927 0
M  V30 77388 N 7198.35 -0.68049 1.42152 0
M  V30 77389 C 7199.6 -1.43771 1.42036 0
M  V30 77390 C 7199.92 -1.94967 0.0357375 0
M  V30 77391 O 7199.19 -1.72695 -0.924845 0
M  V30 77392 H 7197.77 -0.533501 0.522863 0
M  V30 77393 H 7200.43 -0.804445 1.77524 0
M  V30 77394 H 7199.52 -2.29352 2.1167 0
M  V30 77395 N 7199.83 -1.2823 -0.91624 0
M  V30 77396 C 7200.74 -1.13785 -2.05159 0
M  V30 77397 C 7201.75 -0.0650335 -1.73878 0
M  V30 77398 O 7202.93 -0.273827 -1.9953 0
M  V30 77399 C 7199.99 -0.798444 -3.37381 0
M  V30 77400 C 7199.05 -1.95336 -3.82286 0
M  V30 77401 C 7198.29 -1.63005 -5.08198 0
M  V30 77402 O 7198.51 -0.543247 -5.67807 0
M  V30 77403 O 7197.44 -2.4729 -5.48754 0
M  V30 77404 H 7201.27 -2.0909 -2.20261 0
M  V30 77405 H 7198.85 -1.07525 -1.03725 0
M  V30 77406 H 7200.74 -0.622999 -4.16769 0
M  V30 77407 H 7199.41 0.124968 -3.23459 0
M  V30 77408 H 7198.32 -2.18394 -3.03735 0
M  V30 77409 H 7199.65 -2.85739 -4.00767 0
M  V30 77410 N 7201.3 1.12434 -1.10437 0
M  V30 77411 C 7202.23 2.20254 -0.775259 0
M  V30 77412 C 7203.21 1.68226 0.251771 0
M  V30 77413 O 7204.4 1.93844 0.117534 0
M  V30 77414 C 7201.53 3.46687 -0.206316 0
M  V30 77415 C 7200.48 4.11867 -1.16404 0
M  V30 77416 C 7199.81 5.3275 -0.456295 0
M  V30 77417 C 7201.11 4.58 -2.51064 0
M  V30 77418 H 7202.8 2.48041 -1.67678 0
M  V30 77419 H 7200.35 1.19218 -0.807658 0
M  V30 77420 H 7202.3 4.21385 0.0360688 0
M  V30 77421 H 7201.03 3.18327 0.730446 0
M  V30 77422 H 7199.69 3.3915 -1.39187 0
M  V30 77423 H 7199.33 5.00657 0.484939 0
M  V30 77424 H 7199.03 5.77308 -1.09496 0
M  V30 77425 H 7200.56 6.10195 -0.222457 0
M  V30 77426 H 7201.97 5.2407 -2.32429 0
M  V30 77427 H 7200.37 5.13336 -3.10816 0
M  V30 77428 H 7201.44 3.71982 -3.11059 0
M  V30 77429 N 7202.78 0.893122 1.2985 0
M  V30 77430 C 7204.2 0.588277 1.48363 0
M  V30 77431 C 7204.4 -0.871922 1.81658 0
M  V30 77432 O 7203.45 -1.65258 1.90909 0
M  V30 77433 C 7204.77 1.50844 2.60128 0
M  V30 77434 C 7206.31 1.51294 2.74006 0
M  V30 77435 C 7206.79 2.41922 3.88893 0
M  V30 77436 N 7208.28 2.39932 3.96216 0
M  V30 77437 C 7209.02 3.06764 4.84441 0
M  V30 77438 N 7208.51 3.82851 5.77406 0
M  V30 77439 N 7210.3 2.95954 4.77878 0
M  V30 77440 H 7202.46 1.83763 1.06513 0
M  V30 77441 H 7204.72 0.787046 0.528453 0
M  V30 77442 H 7204.42 2.54852 2.4237 0
M  V30 77443 H 7204.3 1.22406 3.56786 0
M  V30 77444 H 7206.69 0.480333 2.91165 0
M  V30 77445 H 7206.77 1.83766 1.77943 0
M  V30 77446 H 7206.41 3.45273 3.7249 0
M  V30 77447 H 7206.34 2.06763 4.84311 0
M  V30 77448 H 7208.83 1.84646 3.29718 0
M  V30 77449 H 7209.14 4.30917 6.41507 0
M  V30 77450 H 7207.49 3.86958 5.77312 0
M  V30 77451 H 7210.68 2.36033 4.04235 0
M  V30 77452 H 7210.85 3.48315 5.46425 0
M  V30 77453 N 7204.26 -1.43348 0.654915 0
M  V30 77454 C 7205.54 -1.9535 0.0988401 0
M  V30 77455 C 7205.92 -1.59615 -1.38153 0
M  V30 77456 O 7205.26 -0.882132 -2.10786 0
M  V30 77457 C 7205.47 -3.47272 0.346867 0
M  V30 77458 C 7206.82 -4.23847 0.252714 0
M  V30 77459 O 7207.85 -3.55102 0.279519 0
M  V30 77460 O 7206.71 -5.4621 0.177872 0
M  V30 77461 H 7203.8 -0.826955 -0.00863929 0
M  V30 77462 H 7206.35 -1.53279 0.72827 0
M  V30 77463 H 7205.12 -3.66415 1.37315 0
M  V30 77464 H 7204.74 -3.96346 -0.315548 0
M  V30 77465 N 7205.74 -0.396943 -1.52519 0
M  V30 77466 C 7206.67 0.469696 -2.24336 0
M  V30 77467 C 7207.68 1.02037 -1.26856 0
M  V30 77468 O 7208.87 0.92139 -1.52881 0
M  V30 77469 C 7205.97 1.66445 -2.9521 0
M  V30 77470 C 7205.14 1.23981 -4.19461 0
M  V30 77471 C 7204.2 2.30011 -4.73267 0
M  V30 77472 O 7203.23 1.91103 -5.36161 0
M  V30 77473 N 7204.43 3.62023 -4.53784 0
M  V30 77474 H 7207.2 -0.145626 -2.99346 0
M  V30 77475 H 7204.76 -0.223691 -1.60347 0
M  V30 77476 H 7206.75 2.36917 -3.28104 0
M  V30 77477 H 7205.32 2.18595 -2.23461 0
M  V30 77478 H 7204.54 0.363685 -3.92519 0
M  V30 77479 H 7205.83 0.932871 -5.00175 0
M  V30 77480 H 7205.23 3.96391 -4.03597 0
M  V30 77481 H 7203.78 4.28507 -4.91147 0
M  V30 77482 N 7207.22 1.57088 -0.126992 0
M  V30 77483 C 7208.15 2.12822 0.850861 0
M  V30 77484 C 7209.16 1.07282 1.22452 0
M  V30 77485 O 7210.35 1.34628 1.17207 0
M  V30 77486 C 7207.45 2.61949 2.15025 0
M  V30 77487 C 7206.62 3.91674 1.94706 0
M  V30 77488 C 7205.68 4.26318 3.08447 0
M  V30 77489 O 7204.71 4.94996 2.81011 0
M  V30 77490 N 7205.91 3.84282 4.35095 0
M  V30 77491 H 7208.67 2.97349 0.374644 0
M  V30 77492 H 7206.24 1.61799 0.057194 0
M  V30 77493 H 7208.23 2.8215 2.90126 0
M  V30 77494 H 7206.8 1.82257 2.5397 0
M  V30 77495 H 7206.02 3.80301 1.03752 0
M  V30 77496 H 7207.31 4.76482 1.78444 0
M  V30 77497 H 7206.7 3.28904 4.60259 0
M  V30 77498 H 7205.26 4.09575 5.07042 0
M  V30 77499 N 7208.69 -0.146793 1.56915 0
M  V30 77500 C 7209.6 -1.20068 2.01546 0
M  V30 77501 C 7210.62 -1.47003 0.930916 0
M  V30 77502 O 7211.8 -1.58669 1.24041 0
M  V30 77503 C 7208.86 -2.51416 2.38728 0
M  V30 77504 C 7207.92 -2.32126 3.61132 0
M  V30 77505 C 7207.15 -3.5721 3.96531 0
M  V30 77506 O 7207.38 -4.634 3.32591 0
M  V30 77507 O 7206.31 -3.49861 4.89776 0
M  V30 77508 H 7210.14 -0.85177 2.91511 0
M  V30 77509 H 7207.72 -0.355531 1.45108 0
M  V30 77510 H 7209.6 -3.28853 2.63502 0
M  V30 77511 H 7208.28 -2.85837 1.51918 0
M  V30 77512 H 7207.19 -1.52638 3.41544 0
M  V30 77513 H 7208.52 -2.0262 4.4856 0
M  V30 77514 N 7210.17 -1.52007 -0.416147 0
M  V30 77515 C 7211.1 -1.71066 -1.52543 0
M  V30 77516 C 7212.12 -0.5911 -1.5169 0
M  V30 77517 O 7213.31 -0.866055 -1.56082 0
M  V30 77518 C 7210.41 -1.72953 -2.91446 0
M  V30 77519 C 7209.58 -3.01833 -3.16568 0
M  V30 77520 C 7208.64 -2.95626 -4.35307 0
M  V30 77521 O 7207.66 -3.69543 -4.32928 0
M  V30 77522 N 7208.87 -2.12932 -5.40037 0
M  V30 77523 H 7211.63 -2.66764 -1.3659 0
M  V30 77524 H 7209.19 -1.50157 -0.605361 0
M  V30 77525 H 7211.18 -1.66341 -3.68935 0
M  V30 77526 H 7209.75 -0.847577 -3.0089 0
M  V30 77527 H 7208.97 -3.22149 -2.27186 0
M  V30 77528 H 7210.26 -3.87105 -3.30193 0
M  V30 77529 H 7209.66 -1.52293 -5.44815 0
M  V30 77530 H 7208.22 -2.12182 -6.16297 0
M  V30 77531 N 7211.65 0.672941 -1.42511 0
M  V30 77532 C 7212.9 1.43511 -1.43291 0
M  V30 77533 C 7213.23 1.94136 -0.0497704 0
M  V30 77534 O 7212.5 1.71027 0.926278 0
M  V30 77535 C 7212.79 2.6308 -2.45888 0
M  V30 77536 C 7212.64 2.18075 -3.934 0
M  V30 77537 C 7213.96 3.65297 -2.45451 0
M  V30 77538 H 7211.08 0.520495 -0.52178 0
M  V30 77539 H 7213.72 0.764609 -1.73936 0
M  V30 77540 H 7211.87 3.20285 -2.19886 0
M  V30 77541 H 7213.54 1.66024 -4.30388 0
M  V30 77542 H 7211.78 1.49631 -4.07177 0
M  V30 77543 H 7212.46 3.03969 -4.60768 0
M  V30 77544 H 7214.93 3.17813 -2.68578 0
M  V30 77545 H 7213.81 4.46536 -3.19212 0
M  V30 77546 H 7214.07 4.16551 -1.48114 0
M  V30 77547 N 7213.13 1.28714 0.909427 0
M  V30 77548 C 7214.08 1.13011 2.01239 0
M  V30 77549 C 7215.05 0.026056 1.6608 0
M  V30 77550 O 7216.23 0.191787 1.89834 0
M  V30 77551 C 7213.37 0.802492 3.3564 0
M  V30 77552 C 7212.48 1.98602 3.83642 0
M  V30 77553 C 7211.62 1.59864 5.06574 0
M  V30 77554 C 7210.66 2.74856 5.46919 0
M  V30 77555 N 7209.79 2.36581 6.6104 0
M  V30 77556 H 7214.63 2.07381 2.14002 0
M  V30 77557 H 7212.17 1.0321 1.04814 0
M  V30 77558 H 7214.13 0.593275 4.1296 0
M  V30 77559 H 7212.76 -0.104286 3.22631 0
M  V30 77560 H 7211.81 2.30724 3.02441 0
M  V30 77561 H 7213.12 2.848 4.095 0
M  V30 77562 H 7212.28 1.35174 5.9145 0
M  V30 77563 H 7211.02 0.708007 4.82533 0
M  V30 77564 H 7210.02 3.00239 4.60583 0
M  V30 77565 H 7211.25 3.64568 5.72946 0
M  V30 77566 H 7209.19 1.49992 6.38622 0
M  V30 77567 H 7209.11 3.16314 6.86645 0
M  V30 77568 H 7210.38 2.15185 7.4921 0
M  V30 77569 N 7214.61 -1.11847 1.11032 0
M  V30 77570 C 7215.52 -2.21346 0.777369 0
M  V30 77571 C 7216.53 -1.72503 -0.22773 0
M  V30 77572 O 7217.71 -2.01295 -0.0649526 0
M  V30 77573 C 7214.77 -3.45996 0.22085 0
M  V30 77574 C 7213.83 -4.09648 1.28401 0
M  V30 77575 C 7213.07 -5.28348 0.753957 0
M  V30 77576 O 7213.29 -5.6887 -0.417479 0
M  V30 77577 O 7212.22 -5.82475 1.51677 0
M  V30 77578 H 7216.05 -2.52231 1.69155 0
M  V30 77579 H 7213.64 -1.203 0.885899 0
M  V30 77580 H 7215.52 -4.21314 -0.0853534 0
M  V30 77581 H 7214.19 -3.16773 -0.666095 0
M  V30 77582 H 7213.1 -3.36082 1.64317 0
M  V30 77583 H 7214.43 -4.43041 2.1442 0
M  V30 77584 N 7216.08 -0.899995 -1.29375 0
M  V30 77585 C 7217.36 -0.445544 -1.90458 0
M  V30 77586 C 7217.74 1.07482 -1.81689 0
M  V30 77587 O 7217.09 1.91681 -1.24381 0
M  V30 77588 C 7217.3 -0.960456 -3.35524 0
M  V30 77589 C 7218.65 -1.00434 -4.12551 0
M  V30 77590 O 7219.67 -0.908146 -3.44429 0
M  V30 77591 O 7218.53 -1.14885 -5.34288 0
M  V30 77592 H 7215.62 -0.138936 -0.815246 0
M  V30 77593 H 7218.17 -0.98988 -1.37839 0
M  V30 77594 H 7216.94 -2.00443 -3.36063 0
M  V30 77595 H 7216.57 -0.396147 -3.95622 0
M  V30 77596 N 7217.56 1.42999 -0.662508 0
M  V30 77597 C 7218.5 2.28082 0.0733388 0
M  V30 77598 C 7219.47 1.40363 0.820795 0
M  V30 77599 O 7220.66 1.69804 0.818456 0
M  V30 77600 C 7217.78 3.19967 1.1108 0
M  V30 77601 C 7216.83 4.24008 0.460333 0
M  V30 77602 S 7217.66 5.29892 -0.772997 0
M  V30 77603 C 7218.82 6.25344 0.263698 0
M  V30 77604 H 7219.05 2.90144 -0.64838 0
M  V30 77605 H 7216.59 1.47647 -0.451644 0
M  V30 77606 H 7218.54 3.73447 1.70432 0
M  V30 77607 H 7217.2 2.57065 1.80489 0
M  V30 77608 H 7216.4 4.88438 1.24273 0
M  V30 77609 H 7216 3.73953 -0.059301 0
M  V30 77610 H 7218.29 6.68058 1.12713 0
M  V30 77611 H 7219.23 7.07255 -0.345816 0
M  V30 77612 H 7219.64 5.61263 0.603668 0
M  V30 77613 N 7219.04 0.405026 1.52307 0
M  V30 77614 C 7219.95 -0.429433 2.30636 0
M  V30 77615 C 7220.97 -1.0573 1.38193 0
M  V30 77616 O 7222.14 -1.0597 1.71267 0
M  V30 77617 C 7219.21 -1.53322 3.10955 0
M  V30 77618 C 7218.27 -0.928844 4.19131 0
M  V30 77619 C 7217.5 -1.98003 4.95611 0
M  V30 77620 O 7217.72 -3.19755 4.72348 0
M  V30 77621 O 7216.66 -1.58855 5.80559 0
M  V30 77622 H 7220.48 0.209123 3.02979 0
M  V30 77623 H 7218.07 0.168334 1.48449 0
M  V30 77624 H 7219.95 -2.17411 3.60985 0
M  V30 77625 H 7218.63 -2.15645 2.4141 0
M  V30 77626 H 7217.53 -0.250785 3.73258 0
M  V30 77627 H 7218.87 -0.349596 4.90957 0
M  V30 77628 N 7220.52 -1.57018 0.135321 0
M  V30 77629 C 7221.75 -2.00103 -0.525961 0
M  V30 77630 C 7222.16 -1.01527 -1.59178 0
M  V30 77631 O 7221.52 -0.010522 -1.82497 0
M  V30 77632 C 7221.57 -3.43145 -1.13726 0
M  V30 77633 O 7221.29 -4.37952 -0.114028 0
M  V30 77634 C 7222.79 -4.01447 -1.88029 0
M  V30 77635 H 7220.01 -0.656671 -0.137927 0
M  V30 77636 H 7222.56 -2.03242 0.226467 0
M  V30 77637 H 7220.71 -3.40894 -1.84038 0
M  V30 77638 H 7221.12 -5.21499 -0.560305 0
M  V30 77639 H 7222.6 -5.03567 -2.26107 0
M  V30 77640 H 7223.08 -3.41501 -2.76176 0
M  V30 77641 H 7223.68 -4.07293 -1.22443 0
M  V30 77642 N 7222 0.138469 -1.56991 0
M  V30 77643 C 7222.94 1.1707 -1.98905 0
M  V30 77644 C 7223.91 1.42224 -0.857997 0
M  V30 77645 O 7225.1 1.54416 -1.12073 0
M  V30 77646 C 7222.24 2.49707 -2.38202 0
M  V30 77647 C 7221.35 2.31655 -3.64637 0
M  V30 77648 C 7220.49 3.57386 -3.92999 0
M  V30 77649 C 7219.53 3.34408 -5.12677 0
M  V30 77650 N 7218.66 4.52292 -5.37007 0
M  V30 77651 H 7223.5 0.806268 -2.86886 0
M  V30 77652 H 7221.04 0.386652 -1.41927 0
M  V30 77653 H 7223 3.27057 -2.59017 0
M  V30 77654 H 7221.63 2.84081 -1.5329 0
M  V30 77655 H 7220.68 1.45318 -3.51549 0
M  V30 77656 H 7221.99 2.1064 -4.52142 0
M  V30 77657 H 7221.15 4.43161 -4.14358 0
M  V30 77658 H 7219.88 3.81414 -3.03932 0
M  V30 77659 H 7218.89 2.47022 -4.91183 0
M  V30 77660 H 7220.11 3.1177 -6.03304 0
M  V30 77661 H 7218.06 4.76476 -4.50896 0
M  V30 77662 H 7217.98 4.3431 -6.18798 0
M  V30 77663 H 7219.25 5.39256 -5.62871 0
M  V30 77664 N 7223.47 1.52225 0.40808 0
M  V30 77665 C 7224.71 1.68013 1.16409 0
M  V30 77666 C 7225.08 0.401892 1.87747 0
M  V30 77667 O 7226.28 0.435883 2.65242 0
M  V30 77668 C 7224.55 2.869 2.13127 0
M  V30 77669 S 7226.11 3.23175 2.96822 0
M  V30 77670 H 7222.93 0.591621 0.394342 0
M  V30 77671 H 7225.53 1.90221 0.451249 0
M  V30 77672 H 7224.23 3.78176 1.59408 0
M  V30 77673 H 7223.76 2.66968 2.88949 0
M  V30 77674 H 7225.78 2.71879 4.15086 0
M  V30 77675 N 7224.95 -0.665374 1.42865 0
M  V30 77676 C 7226.2 -1.42538 1.43837 0
M  V30 77677 C 7226.53 -1.94413 0.0582139 0
M  V30 77678 O 7225.78 -1.71924 -0.934912 0
M  V30 77679 C 7226.08 -2.6322 2.41764 0
M  V30 77680 C 7225.75 -2.29834 3.87927 0
M  V30 77681 C 7224.41 -2.2044 4.27738 0
M  V30 77682 C 7226.76 -2.02899 4.80085 0
M  V30 77683 C 7224.09 -1.8225 5.57675 0
M  V30 77684 C 7226.44 -1.6621 6.10374 0
M  V30 77685 C 7225.11 -1.55333 6.49175 0
M  V30 77686 H 7224.38 -0.521584 0.526338 0
M  V30 77687 H 7227.02 -0.757822 1.75867 0
M  V30 77688 H 7225.33 -3.35052 2.03094 0
M  V30 77689 H 7227.02 -3.21416 2.39776 0
M  V30 77690 H 7223.61 -2.38051 3.56412 0
M  V30 77691 H 7227.8 -2.09084 4.50108 0
M  V30 77692 H 7223.05 -1.72405 5.86589 0
M  V30 77693 H 7227.23 -1.44396 6.81266 0
M  V30 77694 H 7224.86 -1.25511 7.49767 0
M  V30 77695 N 7226.43 -1.29194 -0.902588 0
M  V30 77696 C 7227.68 -1.16371 -1.64744 0
M  V30 77697 C 7227.99 0.28458 -1.93519 0
M  V30 77698 O 7229.2 0.534089 -2.66195 0
M  V30 77699 C 7227.65 -2.03509 -2.96837 0
M  V30 77700 C 7227.26 -3.53145 -2.75668 0
M  V30 77701 C 7229.01 -1.99403 -3.74752 0
M  V30 77702 C 7226.91 -4.32396 -4.0347 0
M  V30 77703 H 7225.84 -0.431936 -0.618019 0
M  V30 77704 H 7228.49 -1.53811 -1.00072 0
M  V30 77705 H 7226.88 -1.58935 -3.62706 0
M  V30 77706 H 7228.05 -4.05751 -2.1841 0
M  V30 77707 H 7226.37 -3.58892 -2.11152 0
M  V30 77708 H 7228.96 -2.55875 -4.69502 0
M  V30 77709 H 7229.31 -0.973336 -4.04761 0
M  V30 77710 H 7229.84 -2.42005 -3.15719 0
M  V30 77711 H 7226.58 -5.3509 -3.78627 0
M  V30 77712 H 7226.1 -3.84559 -4.60298 0
M  V30 77713 H 7227.78 -4.42906 -4.71639 0
M  V30 77714 N 7227.91 1.11256 -1.11624 0
M  V30 77715 C 7229.15 1.84665 -0.876251 0
M  V30 77716 C 7229.51 1.82792 0.587455 0
M  V30 77717 O 7230.71 2.51668 0.944278 0
M  V30 77718 C 7228.99 3.27772 -1.42478 0
M  V30 77719 S 7230.54 4.1841 -1.32207 0
M  V30 77720 H 7227.36 0.636762 -0.316314 0
M  V30 77721 H 7229.96 1.33938 -1.42411 0
M  V30 77722 H 7228.67 3.26701 -2.48384 0
M  V30 77723 H 7228.2 3.83567 -0.874046 0
M  V30 77724 H 7230.21 4.95364 -0.287868 0
M  V30 77725 N 7229.39 0.906844 1.28896 0
M  V30 77726 C 7230.64 0.535369 1.9488 0
M  V30 77727 C 7230.96 -0.9227 1.71788 0
M  V30 77728 O 7230.23 -1.6515 1.05367 0
M  V30 77729 H 7228.81 0.195 0.721099 0
M  V30 77730 H 7231.47 1.1547 1.57012 0
M  V30 77731 H 7230.56 0.723982 3.03587 0
M  V30 77732 N 7230.87 -1.42645 0.670082 0
M  V30 77733 C 7232.11 -2.00825 0.187632 0
M  V30 77734 C 7232.43 -1.53578 -1.21133 0
M  V30 77735 O 7233.63 -2.04144 -1.7899 0
M  V30 77736 C 7232.09 -3.58773 0.284599 0
M  V30 77737 C 7231.7 -4.1501 1.68732 0
M  V30 77738 C 7233.44 -4.24271 -0.139382 0
M  V30 77739 C 7231.35 -5.65307 1.73731 0
M  V30 77740 H 7230.28 -0.751072 0.0663864 0
M  V30 77741 H 7232.93 -1.63423 0.834578 0
M  V30 77742 H 7231.31 -3.93657 -0.430157 0
M  V30 77743 H 7232.49 -3.91595 2.42878 0
M  V30 77744 H 7230.8 -3.61946 2.05874 0
M  V30 77745 H 7233.4 -5.34561 -0.122116 0
M  V30 77746 H 7233.74 -3.99409 -1.17381 0
M  V30 77747 H 7234.27 -3.94331 0.524203 0
M  V30 77748 H 7231.01 -5.94961 2.7514 0
M  V30 77749 H 7230.53 -5.90727 1.03934 0
M  V30 77750 H 7232.21 -6.29642 1.48862 0
M  V30 77751 N 7232.34 -0.413098 -1.5209 0
M  V30 77752 C 7233.59 0.161072 -2.01457 0
M  V30 77753 C 7233.91 1.45307 -1.30041 0
M  V30 77754 O 7233.18 1.91178 -0.427536 0
M  V30 77755 H 7231.76 0.0625134 -0.74438 0
M  V30 77756 H 7234.42 -0.55025 -1.86971 0
M  V30 77757 H 7233.52 0.354354 -3.10082 0
M  V30 77758 N 7233.82 1.56944 -0.143646 0
M  V30 77759 C 7234.77 2.17875 0.814441 0
M  V30 77760 C 7235.76 1.1348 1.25772 0
M  V30 77761 O 7236.97 1.31737 1.22659 0
M  V30 77762 H 7233.34 0.697592 0.280836 0
M  V30 77763 H 7235.32 2.97118 0.276303 0
M  V30 77764 C 7234.06 2.81212 2.04488 0
M  V30 77765 H 7233.39 3.61254 1.71277 0
M  V30 77766 H 7234.83 3.27351 2.69475 0
M  V30 77767 C 7233.29 1.79547 2.85069 0
M  V30 77768 O 7233.82 1.26388 3.81299 0
M  V30 77769 N 7232.02 1.48926 2.49538 0
M  V30 77770 H 7231.57 1.92347 1.71349 0
M  V30 77771 H 7231.53 0.811508 3.03746 0
M  V30 77772 N 7235.3 -0.130141 1.57062 0
M  V30 77773 C 7236.58 -0.869539 1.7521 0
M  V30 77774 C 7236.96 -1.98581 0.716168 0
M  V30 77775 O 7236.3 -2.26994 -0.261912 0
M  V30 77776 C 7236.51 -1.39649 3.19842 0
M  V30 77777 C 7237.86 -1.85325 3.82021 0
M  V30 77778 O 7238.89 -1.49354 3.23376 0
M  V30 77779 O 7237.75 -2.51718 4.85078 0
M  V30 77780 H 7234.84 -0.412119 0.716999 0
M  V30 77781 H 7237.39 -0.11475 1.69312 0
M  V30 77782 H 7236.16 -0.595084 3.86749 0
M  V30 77783 H 7235.78 -2.21431 3.30233 0
M  V30 77784 N 7236.78 -1.52439 -0.400001 0
M  V30 77785 C 7238.01 -1.70559 -1.16589 0
M  V30 77786 C 7238.42 -0.418763 -1.84508 0
M  V30 77787 O 7237.76 0.615764 -1.73072 0
M  V30 77788 C 7237.82 -2.79172 -2.26502 0
M  V30 77789 C 7237.48 -4.20637 -1.78644 0
M  V30 77790 C 7238.48 -5.0417 -1.26919 0
M  V30 77791 C 7236.17 -4.66911 -1.852 0
M  V30 77792 C 7238.16 -6.32053 -0.823854 0
M  V30 77793 C 7235.85 -5.94782 -1.40278 0
M  V30 77794 C 7236.85 -6.77182 -0.889565 0
M  V30 77795 O 7236.53 -8.02657 -0.446858 0
M  V30 77796 H 7236.27 -0.57467 -0.355992 0
M  V30 77797 H 7238.82 -1.9982 -0.475492 0
M  V30 77798 H 7237.05 -2.45307 -2.98933 0
M  V30 77799 H 7238.74 -2.85802 -2.88222 0
M  V30 77800 H 7239.5 -4.69607 -1.21219 0
M  V30 77801 H 7235.38 -4.02871 -2.24089 0
M  V30 77802 H 7238.93 -6.96319 -0.422591 0
M  V30 77803 H 7234.82 -6.28851 -1.4566 0
M  V30 77804 H 7235.59 -8.16517 -0.569338 0
M  V30 77805 N 7238.26 0.657788 -1.43216 0
M  V30 77806 C 7239.5 1.41773 -1.44591 0
M  V30 77807 C 7239.83 1.94379 -0.0685233 0
M  V30 77808 O 7239.09 1.72417 0.925781 0
M  V30 77809 C 7239.38 2.61935 -2.43156 0
M  V30 77810 C 7239.05 2.27773 -3.8914 0
M  V30 77811 C 7237.71 2.18168 -4.28901 0
M  V30 77812 C 7240.06 2.0035 -4.81154 0
M  V30 77813 C 7237.39 1.7929 -5.58634 0
M  V30 77814 C 7239.74 1.62971 -6.11247 0
M  V30 77815 C 7238.41 1.51888 -6.49989 0
M  V30 77816 H 7237.68 0.518785 -0.529096 0
M  V30 77817 H 7240.33 0.748484 -1.76267 0
M  V30 77818 H 7238.63 3.3397 -2.04868 0
M  V30 77819 H 7240.33 3.2014 -2.41477 0
M  V30 77820 H 7236.92 2.36157 -3.5767 0
M  V30 77821 H 7241.1 2.06694 -4.51211 0
M  V30 77822 H 7236.36 1.69292 -5.87495 0
M  V30 77823 H 7240.53 1.40781 -6.82022 0
M  V30 77824 H 7238.16 1.21533 -7.50422 0
M  V30 77825 N 7239.73 1.29671 0.895724 0
M  V30 77826 C 7241.01 1.08547 1.62717 0
M  V30 77827 C 7241.39 -0.36901 2.0785 0
M  V30 77828 O 7240.74 -1.35855 1.83727 0
M  V30 77829 C 7240.95 2.07663 2.80494 0
M  V30 77830 C 7242.3 2.38798 3.51085 0
M  V30 77831 O 7243.32 2.05889 2.90669 0
M  V30 77832 O 7242.18 2.95044 4.60012 0
M  V30 77833 H 7239.27 0.416144 0.71467 0
M  V30 77834 H 7241.82 1.41058 0.943443 0
M  V30 77835 H 7240.59 3.05612 2.4437 0
M  V30 77836 H 7240.21 1.75906 3.56571 0
M  V30 77837 N 7241.21 -1.10663 1.12212 0
M  V30 77838 C 7242.44 -1.86361 0.898733 0
M  V30 77839 C 7242.85 -1.80553 -0.551896 0
M  V30 77840 O 7242.21 -1.19257 -1.38145 0
M  V30 77841 C 7242.26 -3.34854 1.36217 0
M  V30 77842 O 7241.98 -3.40558 2.75594 0
M  V30 77843 C 7243.48 -4.27434 1.17537 0
M  V30 77844 H 7240.7 -0.589067 0.321312 0
M  V30 77845 H 7243.25 -1.3991 1.49149 0
M  V30 77846 H 7241.4 -3.7878 0.812689 0
M  V30 77847 H 7241.82 -4.33081 2.95874 0
M  V30 77848 H 7243.29 -5.29834 1.54855 0
M  V30 77849 H 7243.77 -4.39048 0.115718 0
M  V30 77850 H 7244.37 -3.8931 1.71224 0
M  V30 77851 N 7242.69 -0.913667 -1.28413 0
M  V30 77852 C 7243.94 -0.547587 -1.95267 0
M  V30 77853 C 7244.27 0.906396 -1.7175 0
M  V30 77854 O 7243.54 1.64459 -1.03843 0
M  V30 77855 C 7243.83 -0.85739 -3.49744 0
M  V30 77856 C 7243.68 -2.3641 -3.82662 0
M  V30 77857 C 7245 -0.353489 -4.38678 0
M  V30 77858 H 7242.12 -0.200419 -0.709226 0
M  V30 77859 H 7244.76 -1.14289 -1.51782 0
M  V30 77860 H 7242.91 -0.350752 -3.86913 0
M  V30 77861 H 7244.58 -2.94135 -3.55362 0
M  V30 77862 H 7242.83 -2.81911 -3.2971 0
M  V30 77863 H 7243.5 -2.53141 -4.90534 0
M  V30 77864 H 7245.97 -0.787504 -4.0858 0
M  V30 77865 H 7244.85 -0.599336 -5.45618 0
M  V30 77866 H 7245.11 0.746183 -4.35757 0
M  V30 77867 N 7244.17 1.42288 -0.677638 0
M  V30 77868 C 7245.58 1.84619 -0.27801 0
M  V30 77869 C 7245.93 1.5672 1.18039 0
M  V30 77870 O 7245.06 1.02846 1.90399 0
M  V30 77871 C 7245.65 3.35123 -0.497796 0
M  V30 77872 C 7244.21 3.76092 -0.152261 0
M  V30 77873 C 7243.36 2.65843 -0.788861 0
M  V30 77874 H 7246.31 1.32094 -0.879597 0
M  V30 77875 H 7246.33 3.79683 0.24919 0
M  V30 77876 H 7245.84 3.55397 -1.55932 0
M  V30 77877 H 7243.94 3.61425 0.905706 0
M  V30 77878 H 7244.05 4.75394 -0.594764 0
M  V30 77879 H 7242.42 2.53749 -0.219947 0
M  V30 77880 H 7243.2 2.88939 -1.8539 0
M  V30 77881 N 7245.65 0.421158 1.51868 0
M  V30 77882 C 7246.6 -0.415992 2.24173 0
M  V30 77883 C 7247.58 -1.00355 1.25768 0
M  V30 77884 O 7248.77 -0.924373 1.50945 0
M  V30 77885 C 7245.9 -1.52555 3.07542 0
M  V30 77886 C 7244.99 -0.948181 4.13365 0
M  V30 77887 N 7245.38 -0.0985267 5.05704 0
M  V30 77888 C 7243.68 -1.21745 4.29062 0
M  V30 77889 C 7244.38 0.224012 5.81269 0
M  V30 77890 N 7243.35 -0.388238 5.42212 0
M  V30 77891 H 7247.16 0.23932 2.92924 0
M  V30 77892 H 7244.67 0.232276 1.6073 0
M  V30 77893 H 7246.67 -2.138 3.57904 0
M  V30 77894 H 7245.33 -2.18336 2.40332 0
M  V30 77895 H 7246.34 0.266701 5.17213 0
M  V30 77896 H 7243.01 -1.87396 3.7308 0
M  V30 77897 H 7244.4 0.914427 6.65648 0
M  V30 77898 N 7247.12 -1.56866 0.151967 0
M  V30 77899 C 7248.37 -1.95896 -0.496917 0
M  V30 77900 C 7248.69 -1.03808 -1.65072 0
M  V30 77901 O 7247.96 -0.100594 -1.95642 0
M  V30 77902 H 7246.54 -0.723327 -0.186565 0
M  V30 77903 H 7249.21 -1.93554 0.228627 0
M  V30 77904 H 7248.3 -2.99735 -0.869775 0
M  V30 77905 N 7248.6 0.12181 -1.57129 0
M  V30 77906 C 7249.85 0.830091 -1.84704 0
M  V30 77907 C 7250.18 1.80011 -0.736638 0
M  V30 77908 O 7249.43 1.93797 0.272256 0
M  V30 77909 C 7249.73 1.6166 -3.18749 0
M  V30 77910 C 7249.4 0.791127 -4.43905 0
M  V30 77911 C 7248.06 0.563479 -4.77889 0
M  V30 77912 C 7250.41 0.215548 -5.20754 0
M  V30 77913 C 7247.74 -0.250046 -5.86167 0
M  V30 77914 C 7250.09 -0.585153 -6.29888 0
M  V30 77915 C 7248.76 -0.823143 -6.62405 0
M  V30 77916 H 7248.03 0.303752 -0.675882 0
M  V30 77917 H 7250.67 0.0925885 -1.91276 0
M  V30 77918 H 7248.98 2.42493 -3.07741 0
M  V30 77919 H 7250.67 2.16854 -3.37306 0
M  V30 77920 H 7247.26 0.978647 -4.17277 0
M  V30 77921 H 7251.45 0.378646 -4.94853 0
M  V30 77922 H 7246.7 -0.443682 -6.09788 0
M  V30 77923 H 7250.88 -1.03815 -6.88618 0
M  V30 77924 H 7248.51 -1.45535 -7.46139 0
M  V30 77925 N 7250.08 1.52649 0.391911 0
M  V30 77926 C 7250.99 1.80139 1.50291 0
M  V30 77927 C 7252.01 0.687966 1.59822 0
M  V30 77928 O 7253.18 0.975242 1.76213 0
M  V30 77929 C 7250.25 1.96186 2.85853 0
M  V30 77930 C 7249.31 3.201 2.86067 0
M  V30 77931 C 7248.54 3.35373 4.15163 0
M  V30 77932 O 7248.76 2.55518 5.09968 0
M  V30 77933 O 7247.7 4.28613 4.22581 0
M  V30 77934 H 7251.52 2.74473 1.29993 0
M  V30 77935 H 7249.11 1.37705 0.579467 0
M  V30 77936 H 7250.99 2.08465 3.66225 0
M  V30 77937 H 7249.67 1.05041 3.06183 0
M  V30 77938 H 7248.57 3.13266 2.04487 0
M  V30 77939 H 7249.91 4.11082 2.70688 0
M  V30 77940 N 7251.56 -0.650184 1.43563 0
M  V30 77941 C 7252.79 -1.43771 1.48787 0
M  V30 77942 C 7253.2 -1.88498 0.106693 0
M  V30 77943 O 7252.56 -1.59679 -0.883682 0
M  V30 77944 C 7252.61 -2.67068 2.43633 0
M  V30 77945 O 7252.33 -2.24211 3.76379 0
M  V30 77946 C 7253.83 -3.60395 2.58129 0
M  V30 77947 H 7251.05 -0.441566 0.505233 0
M  V30 77948 H 7253.6 -0.796841 1.88337 0
M  V30 77949 H 7251.75 -3.27289 2.0727 0
M  V30 77950 H 7252.16 -3.04008 4.2741 0
M  V30 77951 H 7253.64 -4.43566 3.28562 0
M  V30 77952 H 7254.12 -4.07944 1.62721 0
M  V30 77953 H 7254.72 -3.06055 2.95315 0
M  V30 77954 N 7253.04 -1.30144 -0.888834 0
M  V30 77955 C 7253.99 -1.12813 -1.98134 0
M  V30 77956 C 7254.97 -0.0443985 -1.60839 0
M  V30 77957 O 7256.16 -0.267301 -1.7497 0
M  V30 77958 C 7253.29 -0.818025 -3.33412 0
M  V30 77959 C 7252.38 -1.94182 -3.77033 0
M  V30 77960 N 7252.77 -3.18671 -3.92788 0
M  V30 77961 C 7251.07 -1.83731 -4.06397 0
M  V30 77962 C 7251.77 -3.9206 -4.29725 0
M  V30 77963 N 7250.74 -3.20082 -4.39373 0
M  V30 77964 H 7254.55 -2.07236 -2.084 0
M  V30 77965 H 7252.06 -1.21427 -1.07839 0
M  V30 77966 H 7254.06 -0.674885 -4.11401 0
M  V30 77967 H 7252.72 0.118173 -3.24485 0
M  V30 77968 H 7253.73 -3.54004 -3.78023 0
M  V30 77969 H 7250.4 -0.974545 -4.05967 0
M  V30 77970 H 7251.79 -4.99247 -4.49669 0
M  V30 77971 N 7254.51 1.10066 -1.12797 0
M  V30 77972 C 7255.74 1.85882 -0.908604 0
M  V30 77973 C 7256.16 1.80844 0.542313 0
M  V30 77974 O 7255.51 1.19987 1.37511 0
M  V30 77975 C 7255.57 3.34127 -1.37991 0
M  V30 77976 O 7255.29 3.39092 -2.77396 0
M  V30 77977 C 7256.79 4.26805 -1.19802 0
M  V30 77978 H 7254.01 0.587354 -0.324431 0
M  V30 77979 H 7256.55 1.39117 -1.49889 0
M  V30 77980 H 7254.71 3.78343 -0.832766 0
M  V30 77981 H 7255.12 4.31506 -2.98166 0
M  V30 77982 H 7256.59 5.29005 -1.57662 0
M  V30 77983 H 7257.07 4.3898 -0.139 0
M  V30 77984 H 7257.68 3.88397 -1.73286 0
M  V30 77985 N 7255.99 0.920464 1.27927 0
M  V30 77986 C 7256.92 0.431145 2.29485 0
M  V30 77987 C 7257.9 -0.504776 1.62438 0
M  V30 77988 O 7259.09 -0.411076 1.89799 0
M  V30 77989 C 7256.22 -0.323526 3.4579 0
M  V30 77990 C 7255.17 0.523882 4.24782 0
M  V30 77991 C 7254.5 -0.359528 5.3349 0
M  V30 77992 C 7255.8 1.78462 4.90865 0
M  V30 77993 H 7257.49 1.27989 2.70664 0
M  V30 77994 H 7255.04 0.616881 1.30118 0
M  V30 77995 H 7256.99 -0.676733 4.15931 0
M  V30 77996 H 7255.72 -1.20624 3.03509 0
M  V30 77997 H 7254.37 0.859698 3.56377 0
M  V30 77998 H 7254.02 -1.24098 4.87451 0
M  V30 77999 H 7253.72 0.203915 5.87246 0
M  V30 78000 H 7255.25 -0.708467 6.06476 0
M  V30 78001 H 7256.66 1.49992 5.53331 0
M  V30 78002 H 7255.06 2.291 5.54647 0
M  V30 78003 H 7256.13 2.50846 4.14975 0
M  V30 78004 N 7257.47 -1.41926 0.685174 0
M  V30 78005 C 7258.4 -2.29186 -0.025747 0
M  V30 78006 C 7259.42 -1.44234 -0.755 0
M  V30 78007 O 7260.61 -1.67847 -0.607432 0
M  V30 78008 C 7257.71 -3.21884 -1.06038 0
M  V30 78009 C 7256.88 -4.35541 -0.402858 0
M  V30 78010 C 7255.94 -5.08887 -1.33869 0
M  V30 78011 O 7254.96 -5.63042 -0.835029 0
M  V30 78012 N 7256.17 -5.15373 -2.67153 0
M  V30 78013 H 7258.93 -2.9084 0.723354 0
M  V30 78014 H 7256.49 -1.52966 0.530391 0
M  V30 78015 H 7258.48 -3.67819 -1.68794 0
M  V30 78016 H 7257.05 -2.61609 -1.71112 0
M  V30 78017 H 7256.27 -3.9212 0.404392 0
M  V30 78018 H 7257.56 -5.08771 0.0547781 0
M  V30 78019 H 7256.96 -4.72804 -3.10601 0
M  V30 78020 H 7255.52 -5.6492 -3.25129 0
M  V30 78021 N 7258.95 -0.429206 -1.51643 0
M  V30 78022 C 7259.86 0.392687 -2.3129 0
M  V30 78023 C 7260.88 1.03518 -1.39857 0
M  V30 78024 O 7262.05 1.03232 -1.72931 0
M  V30 78025 C 7259.12 1.48356 -3.13355 0
M  V30 78026 C 7258.18 0.862046 -4.20556 0
M  V30 78027 C 7257.41 1.90094 -4.98698 0
M  V30 78028 O 7257.63 3.122 -4.77375 0
M  V30 78029 O 7256.57 1.49599 -5.83013 0
M  V30 78030 H 7260.39 -0.257298 -3.02608 0
M  V30 78031 H 7257.98 -0.191929 -1.48162 0
M  V30 78032 H 7259.86 2.1164 -3.64399 0
M  V30 78033 H 7258.54 2.11778 -2.4481 0
M  V30 78034 H 7257.44 0.191371 -3.7361 0
M  V30 78035 H 7258.78 0.271445 -4.91451 0
M  V30 78036 N 7260.43 1.56783 -0.160284 0
M  V30 78037 C 7261.38 2.14011 0.786348 0
M  V30 78038 C 7262.36 1.0714 1.20041 0
M  V30 78039 O 7263.55 1.33289 1.16461 0
M  V30 78040 C 7260.68 2.77574 2.02009 0
M  V30 78041 C 7259.77 3.91586 1.62853 0
M  V30 78042 N 7260.16 4.96876 0.945914 0
M  V30 78043 C 7258.46 4.02541 1.92033 0
M  V30 78044 C 7259.16 5.76782 0.75478 0
M  V30 78045 N 7258.13 5.28004 1.29279 0
M  V30 78046 H 7261.94 2.92785 0.255725 0
M  V30 78047 H 7259.45 1.62349 0.0407922 0
M  V30 78048 H 7261.45 3.16942 2.70838 0
M  V30 78049 H 7260.11 2.00276 2.55577 0
M  V30 78050 H 7261.12 5.14352 0.605184 0
M  V30 78051 H 7257.8 3.36335 2.47356 0
M  V30 78052 H 7259.19 6.71553 0.215784 0
M  V30 78053 N 7261.91 -0.113476 1.57191 0
M  V30 78054 C 7262.85 -1.15789 2.01732 0
M  V30 78055 C 7263.85 -1.42551 0.91518 0
M  V30 78056 O 7265.05 -1.42449 1.10038 0
M  V30 78057 H 7261.43 -0.390535 0.64264 0
M  V30 78058 H 7263.4 -0.755774 2.8867 0
M  V30 78059 C 7262.15 -2.47495 2.44217 0
M  V30 78060 H 7261.47 -2.27741 3.28594 0
M  V30 78061 H 7262.91 -3.1912 2.79175 0
M  V30 78062 C 7261.37 -3.10472 1.30801 0
M  V30 78063 O 7261.9 -3.96776 0.627017 0
M  V30 78064 N 7260.11 -2.70434 1.06366 0
M  V30 78065 H 7259.65 -2.00346 1.61923 0
M  V30 78066 H 7259.61 -3.129 0.306779 0
M  V30 78067 N 7263.38 -1.52855 -0.38381 0
M  V30 78068 C 7264.31 -1.80973 -1.4755 0
M  V30 78069 C 7265.29 -0.662068 -1.56687 0
M  V30 78070 O 7266.48 -0.910163 -1.71551 0
M  V30 78071 C 7263.61 -1.98327 -2.85103 0
M  V30 78072 C 7262.56 -3.14034 -2.90803 0
M  V30 78073 C 7261.89 -3.1665 -4.30856 0
M  V30 78074 C 7263.19 -4.53 -2.59977 0
M  V30 78075 H 7264.88 -2.72392 -1.24269 0
M  V30 78076 H 7262.43 -1.3107 -0.596375 0
M  V30 78077 H 7264.38 -2.1658 -3.61484 0
M  V30 78078 H 7263.11 -1.03601 -3.09733 0
M  V30 78079 H 7261.77 -2.95572 -2.16871 0
M  V30 78080 H 7261.41 -2.19597 -4.52533 0
M  V30 78081 H 7261.11 -3.9438 -4.35589 0
M  V30 78082 H 7262.64 -3.37065 -5.09136 0
M  V30 78083 H 7264.05 -4.71538 -3.26075 0
M  V30 78084 H 7262.45 -5.32837 -2.76053 0
M  V30 78085 H 7263.52 -4.59359 -1.55296 0
M  V30 78086 N 7264.86 0.642561 -1.43906 0
M  V30 78087 C 7265.82 1.7369 -1.49547 0
M  V30 78088 C 7266.82 1.56273 -0.378858 0
M  V30 78089 O 7268.01 1.61976 -0.641035 0
M  V30 78090 C 7265.15 3.12668 -1.35837 0
M  V30 78091 H 7266.34 1.70066 -2.47017 0
M  V30 78092 H 7263.89 0.855191 -1.30829 0
M  V30 78093 H 7264.63 3.21896 -0.394164 0
M  V30 78094 H 7264.41 3.26716 -2.16793 0
M  V30 78095 H 7265.9 3.92447 -1.42741 0
M  V30 78096 N 7266.34 1.30614 0.88192 0
M  V30 78097 C 7267.29 1.17165 2.00935 0
M  V30 78098 C 7268.28 0.0828047 1.69197 0
M  V30 78099 O 7269.49 0.243869 1.7834 0
M  V30 78100 H 7265.86 0.362441 0.658894 0
M  V30 78101 H 7267.83 2.12578 2.09412 0
M  V30 78102 C 7266.58 0.88345 3.36289 0
M  V30 78103 H 7265.91 1.71339 3.61224 0
M  V30 78104 H 7267.35 0.829475 4.15807 0
M  V30 78105 C 7265.8 -0.413675 3.34351 0
M  V30 78106 O 7266.33 -1.43424 3.75223 0
M  V30 78107 N 7264.54 -0.425931 2.87462 0
M  V30 78108 H 7264.09 0.405064 2.54395 0
M  V30 78109 H 7264.05 -1.29376 2.86547 0
M  V30 78110 N 7267.82 -1.09466 1.1338 0
M  V30 78111 C 7269.05 -1.85128 0.917117 0
M  V30 78112 C 7269.46 -1.81405 -0.537473 0
M  V30 78113 O 7268.8 -1.20818 -1.38379 0
M  V30 78114 C 7268.86 -3.34127 1.32664 0
M  V30 78115 C 7268.52 -3.61598 2.79456 0
M  V30 78116 C 7269.52 -3.57355 3.77615 0
M  V30 78117 C 7267.21 -3.89956 3.16606 0
M  V30 78118 C 7269.2 -3.81081 5.10936 0
M  V30 78119 C 7266.89 -4.13337 4.50106 0
M  V30 78120 C 7267.89 -4.08891 5.4708 0
M  V30 78121 O 7267.57 -4.31669 6.78172 0
M  V30 78122 H 7267.31 -0.591632 0.327028 0
M  V30 78123 H 7269.86 -1.39231 1.51009 0
M  V30 78124 H 7268.09 -3.80729 0.67692 0
M  V30 78125 H 7269.78 -3.91199 1.08249 0
M  V30 78126 H 7270.54 -3.35474 3.5026 0
M  V30 78127 H 7266.42 -3.92542 2.41727 0
M  V30 78128 H 7269.97 -3.77527 5.86617 0
M  V30 78129 H 7265.86 -4.34699 4.77186 0
M  V30 78130 H 7266.63 -4.49132 6.84268 0
M  V30 78131 N 7269.3 -0.927235 -1.27437 0
M  V30 78132 C 7270.23 -0.443309 -2.29253 0
M  V30 78133 C 7271.21 0.496154 -1.62703 0
M  V30 78134 O 7272.39 0.401004 -1.90015 0
M  V30 78135 C 7269.52 0.305184 -3.45957 0
M  V30 78136 C 7268.48 -0.546402 -4.24498 0
M  V30 78137 C 7267.8 0.331231 -5.33673 0
M  V30 78138 C 7269.1 -1.81063 -4.89912 0
M  V30 78139 H 7270.8 -1.29423 -2.69982 0
M  V30 78140 H 7268.34 -0.623773 -1.29789 0
M  V30 78141 H 7270.29 0.654666 -4.16284 0
M  V30 78142 H 7269.02 1.19013 -3.04144 0
M  V30 78143 H 7267.68 -0.878585 -3.55916 0
M  V30 78144 H 7267.33 1.21511 -4.88102 0
M  V30 78145 H 7267.03 -0.235055 -5.8713 0
M  V30 78146 H 7268.55 0.676294 -6.06843 0
M  V30 78147 H 7269.96 -1.52924 -5.52528 0
M  V30 78148 H 7268.36 -2.32038 -5.53424 0
M  V30 78149 H 7269.43 -2.53043 -4.13639 0
M  V30 78150 N 7270.77 1.41561 -0.692691 0
M  V30 78151 C 7272.02 2.01275 -0.222441 0
M  V30 78152 C 7272.35 1.54846 1.17698 0
M  V30 78153 O 7271.6 0.749213 1.80791 0
M  V30 78154 C 7271.9 3.56689 -0.225261 0
M  V30 78155 C 7271.57 4.22617 -1.57181 0
M  V30 78156 C 7270.23 4.4034 -1.94046 0
M  V30 78157 C 7272.58 4.59609 -2.45782 0
M  V30 78158 C 7269.91 4.92332 -3.19102 0
M  V30 78159 C 7272.26 5.1299 -3.70168 0
M  V30 78160 C 7270.93 5.28924 -4.0718 0
M  V30 78161 H 7270.2 0.736516 -0.081397 0
M  V30 78162 H 7272.84 1.69498 -0.891212 0
M  V30 78163 H 7271.15 3.88239 0.527055 0
M  V30 78164 H 7272.85 4.00696 0.156071 0
M  V30 78165 H 7269.44 4.09194 -1.27507 0
M  V30 78166 H 7273.62 4.45573 -2.18582 0
M  V30 78167 H 7268.88 5.02854 -3.47776 0
M  V30 78168 H 7273.05 5.40594 -4.39011 0
M  V30 78169 H 7270.68 5.68974 -5.04155 0
M  V30 78170 N 7272.25 0.437242 1.51413 0
M  V30 78171 C 7273.5 -0.129257 2.02087 0
M  V30 78172 C 7273.83 -1.42721 1.3214 0
M  V30 78173 O 7273.08 -1.91029 0.425017 0
M  V30 78174 C 7273.38 -0.395453 3.55205 0
M  V30 78175 C 7273.05 0.816673 4.43443 0
M  V30 78176 C 7271.71 1.14909 4.67279 0
M  V30 78177 C 7274.06 1.62529 4.95211 0
M  V30 78178 C 7271.39 2.2908 5.40129 0
M  V30 78179 C 7273.74 2.758 5.69313 0
M  V30 78180 C 7272.41 3.09496 5.91412 0
M  V30 78181 H 7271.68 -0.0472985 0.739489 0
M  V30 78182 H 7274.32 0.584417 1.82365 0
M  V30 78183 H 7272.63 -1.19102 3.73259 0
M  V30 78184 H 7274.32 -0.847193 3.91949 0
M  V30 78185 H 7270.91 0.547646 4.25087 0
M  V30 78186 H 7275.1 1.38169 4.76679 0
M  V30 78187 H 7270.35 2.555 5.55454 0
M  V30 78188 H 7274.53 3.38827 6.08415 0
M  V30 78189 H 7272.16 3.98076 6.47641 0
M  V30 78190 N 7273.73 -1.56696 0.168596 0
M  V30 78191 C 7274.66 -2.20839 -0.758447 0
M  V30 78192 C 7275.64 -1.16317 -1.24114 0
M  V30 78193 O 7276.83 -1.44736 -1.2948 0
M  V30 78194 C 7273.96 -2.847 -1.98905 0
M  V30 78195 C 7272.91 -3.95237 -1.64231 0
M  V30 78196 C 7272.24 -4.46135 -2.94734 0
M  V30 78197 C 7273.54 -5.14963 -0.872404 0
M  V30 78198 H 7275.23 -2.98562 -0.223795 0
M  V30 78199 H 7272.78 -1.43608 -0.106201 0
M  V30 78200 H 7274.73 -3.28247 -2.64258 0
M  V30 78201 H 7273.45 -2.04341 -2.54779 0
M  V30 78202 H 7272.11 -3.52341 -1.01248 0
M  V30 78203 H 7271.76 -3.6257 -3.48643 0
M  V30 78204 H 7271.46 -5.20704 -2.72288 0
M  V30 78205 H 7272.98 -4.92366 -3.61121 0
M  V30 78206 H 7274.4 -5.55219 -1.42846 0
M  V30 78207 H 7272.8 -5.95431 -0.747088 0
M  V30 78208 H 7273.87 -4.84721 0.131791 0
M  V30 78209 N 7275.21 0.105138 -1.57249 0
M  V30 78210 C 7276.14 1.15906 -1.96573 0
M  V30 78211 C 7277.12 1.39377 -0.837428 0
M  V30 78212 O 7278.3 1.53303 -1.09684 0
M  V30 78213 C 7275.43 2.51023 -2.27388 0
M  V30 78214 C 7274.48 2.43895 -3.49882 0
M  V30 78215 S 7275.31 1.86517 -5.01968 0
M  V30 78216 C 7276.47 3.23279 -5.35949 0
M  V30 78217 H 7276.7 0.823781 -2.85659 0
M  V30 78218 H 7274.23 0.312435 -1.51206 0
M  V30 78219 H 7276.19 3.28761 -2.45818 0
M  V30 78220 H 7274.85 2.81724 -1.38891 0
M  V30 78221 H 7274.04 3.43458 -3.68853 0
M  V30 78222 H 7273.65 1.74283 -3.3091 0
M  V30 78223 H 7275.94 4.19528 -5.3198 0
M  V30 78224 H 7276.88 3.09122 -6.37063 0
M  V30 78225 H 7277.29 3.22347 -4.63414 0
M  V30 78226 N 7276.69 1.53056 0.375699 0
M  V30 78227 C 7277.92 1.72393 1.13861 0
M  V30 78228 C 7278.32 0.448063 1.83818 0
M  V30 78229 O 7277.67 -0.588152 1.7403 0
M  V30 78230 C 7277.73 2.8274 2.22032 0
M  V30 78231 C 7277.39 4.23426 1.71929 0
M  V30 78232 C 7278.39 5.06125 1.18882 0
M  V30 78233 C 7276.08 4.69799 1.77749 0
M  V30 78234 C 7278.07 6.33284 0.723196 0
M  V30 78235 C 7275.76 5.96938 1.30798 0
M  V30 78236 C 7276.75 6.78512 0.781719 0
M  V30 78237 O 7276.44 8.03266 0.319105 0
M  V30 78238 H 7276.17 0.580261 0.346805 0
M  V30 78239 H 7278.73 2.00552 0.443642 0
M  V30 78240 H 7276.96 2.50032 2.94993 0
M  V30 78241 H 7278.65 2.90351 2.83639 0
M  V30 78242 H 7279.41 4.71476 1.13733 0
M  V30 78243 H 7275.29 4.06385 2.17652 0
M  V30 78244 H 7278.84 6.96903 0.311759 0
M  V30 78245 H 7274.73 6.31089 1.35637 0
M  V30 78246 H 7275.5 8.1732 0.439365 0
M  V30 78247 N 7278.16 -0.634921 1.44245 0
M  V30 78248 C 7279.09 -1.75832 1.53641 0
M  V30 78249 C 7280.08 -1.65576 0.38969 0
M  V30 78250 O 7281.26 -1.84394 0.609317 0
M  V30 78251 C 7278.39 -3.14346 1.47661 0
M  V30 78252 C 7277.34 -3.39386 2.6077 0
M  V30 78253 C 7276.67 -4.77891 2.39842 0
M  V30 78254 C 7277.97 -3.32322 4.02939 0
M  V30 78255 H 7279.66 -1.68225 2.47671 0
M  V30 78256 H 7277.21 -0.807906 1.19201 0
M  V30 78257 H 7279.16 -3.92708 1.52836 0
M  V30 78258 H 7277.89 -3.22727 0.501455 0
M  V30 78259 H 7276.55 -2.63403 2.54979 0
M  V30 78260 H 7276.19 -4.82971 1.40528 0
M  V30 78261 H 7275.89 -4.95603 3.15675 0
M  V30 78262 H 7277.42 -5.58487 2.46829 0
M  V30 78263 H 7278.83 -4.00593 4.10119 0
M  V30 78264 H 7277.23 -3.61569 4.78944 0
M  V30 78265 H 7278.3 -2.30193 4.26778 0
M  V30 78266 N 7279.64 -1.3108 -0.874981 0
M  V30 78267 C 7280.89 -1.19839 -1.62239 0
M  V30 78268 C 7281.2 0.243468 -1.94079 0
M  V30 78269 O 7282.41 0.477505 -2.67268 0
M  V30 78270 C 7280.87 -2.0976 -2.92453 0
M  V30 78271 C 7280.47 -3.58912 -2.68115 0
M  V30 78272 C 7282.22 -2.07307 -3.70438 0
M  V30 78273 C 7280.13 -4.40857 -3.94207 0
M  V30 78274 H 7279.06 -0.444948 -0.608718 0
M  V30 78275 H 7281.71 -1.55899 -0.967865 0
M  V30 78276 H 7280.09 -1.66593 -3.59253 0
M  V30 78277 H 7281.26 -4.10292 -2.09754 0
M  V30 78278 H 7279.58 -3.6329 -2.03492 0
M  V30 78279 H 7282.17 -2.65776 -4.63969 0
M  V30 78280 H 7282.52 -1.05897 -4.02606 0
M  V30 78281 H 7283.05 -2.48647 -3.10515 0
M  V30 78282 H 7279.79 -5.43001 -3.67192 0
M  V30 78283 H 7279.31 -3.94237 -4.52037 0
M  V30 78284 H 7280.99 -4.52811 -4.62138 0
M  V30 78285 N 7281.12 1.08863 -1.13958 0
M  V30 78286 C 7282.07 2.1775 -0.817779 0
M  V30 78287 C 7283.06 1.68187 0.202355 0
M  V30 78288 O 7284.27 1.79904 0.0589211 0
M  V30 78289 H 7280.64 0.710379 -0.246709 0
M  V30 78290 H 7282.61 2.4212 -1.74414 0
M  V30 78291 C 7281.36 3.46347 -0.306483 0
M  V30 78292 H 7280.69 3.84858 -1.0828 0
M  V30 78293 H 7282.13 4.23831 -0.119807 0
M  V30 78294 C 7280.59 3.22664 0.968988 0
M  V30 78295 O 7281.12 3.45828 2.04367 0
M  V30 78296 N 7279.32 2.76235 0.90237 0
M  V30 78297 H 7278.87 2.57585 0.0276651 0
M  V30 78298 H 7278.83 2.60768 1.75635 0
M  V30 78299 N 7282.6 0.93398 1.26943 0
M  V30 78300 C 7283.55 0.436604 2.26633 0
M  V30 78301 C 7284.52 -0.49987 1.584 0
M  V30 78302 O 7285.7 -0.417655 1.86173 0
M  V30 78303 C 7282.84 -0.29877 3.43804 0
M  V30 78304 C 7281.95 0.672541 4.26733 0
M  V30 78305 C 7281.09 -0.0833071 5.31135 0
M  V30 78306 C 7280.13 0.880298 6.05737 0
M  V30 78307 N 7279.26 0.156671 7.01925 0
M  V30 78308 H 7284.1 1.29168 2.68551 0
M  V30 78309 H 7281.64 0.648188 1.32049 0
M  V30 78310 H 7283.6 -0.741507 4.10558 0
M  V30 78311 H 7282.23 -1.11804 3.0282 0
M  V30 78312 H 7281.28 1.2338 3.59835 0
M  V30 78313 H 7282.59 1.40871 4.78494 0
M  V30 78314 H 7281.75 -0.585665 6.03867 0
M  V30 78315 H 7280.49 -0.852407 4.80193 0
M  V30 78316 H 7279.49 1.39385 5.31838 0
M  V30 78317 H 7280.72 1.64929 6.58768 0
M  V30 78318 H 7278.66 -0.594068 6.53305 0
M  V30 78319 H 7278.58 0.832303 7.51405 0
M  V30 78320 H 7279.85 -0.324828 7.78823 0
M  V30 78321 N 7284.08 -1.41192 0.700189 0
M  V30 78322 C 7285.35 -1.94937 0.160939 0
M  V30 78323 C 7285.73 -1.63929 -1.33005 0
M  V30 78324 O 7285.08 -0.948746 -2.07873 0
M  V30 78325 C 7285.29 -3.45993 0.457174 0
M  V30 78326 C 7286.64 -4.22829 0.38743 0
M  V30 78327 O 7287.66 -3.54033 0.39235 0
M  V30 78328 O 7286.52 -5.45368 0.351555 0
M  V30 78329 H 7283.62 -0.826811 0.017674 0
M  V30 78330 H 7286.16 -1.50884 0.776666 0
M  V30 78331 H 7284.93 -3.61861 1.48903 0
M  V30 78332 H 7284.56 -3.97149 -0.189294 0
M  V30 78333 N 7285.55 -0.445265 -1.51179 0
M  V30 78334 C 7286.46 0.368133 -2.31694 0
M  V30 78335 C 7287.48 1.02028 -1.40947 0
M  V30 78336 O 7288.66 1.01392 -1.74016 0
M  V30 78337 C 7285.72 1.45024 -3.14911 0
M  V30 78338 C 7284.78 0.817392 -4.21447 0
M  V30 78339 C 7284.02 1.84794 -5.00687 0
M  V30 78340 O 7284.24 3.07119 -4.8066 0
M  V30 78341 O 7283.17 1.43407 -5.84567 0
M  V30 78342 H 7287 -0.289379 -3.02318 0
M  V30 78343 H 7284.58 -0.207633 -1.4795 0
M  V30 78344 H 7286.47 2.07763 -3.66623 0
M  V30 78345 H 7285.14 2.09169 -2.47043 0
M  V30 78346 H 7284.05 0.151734 -3.73792 0
M  V30 78347 H 7285.38 0.219305 -4.91711 0
M  V30 78348 N 7287.03 1.56604 -0.176904 0
M  V30 78349 C 7288.26 2.01427 0.472722 0
M  V30 78350 C 7288.68 1.05712 1.5643 0
M  V30 78351 O 7288.03 0.0589042 1.82405 0
M  V30 78352 C 7288.08 3.4604 1.04589 0
M  V30 78353 O 7287.81 4.381 -0.0021271 0
M  V30 78354 C 7289.31 4.06292 1.77319 0
M  V30 78355 H 7286.53 0.660097 0.120468 0
M  V30 78356 H 7289.07 2.0257 -0.280273 0
M  V30 78357 H 7287.23 3.45654 1.74935 0
M  V30 78358 H 7287.64 5.22801 0.421842 0
M  V30 78359 H 7289.11 5.09385 2.12676 0
M  V30 78360 H 7289.59 3.48704 2.67025 0
M  V30 78361 H 7290.2 4.10396 1.11601 0
M  V30 78362 N 7288.51 -0.0967971 1.57302 0
M  V30 78363 C 7289.42 -1.13595 2.05264 0
M  V30 78364 C 7290.44 -1.43967 0.977213 0
M  V30 78365 O 7291.61 -1.54642 1.29026 0
M  V30 78366 C 7288.68 -2.43693 2.46606 0
M  V30 78367 C 7287.74 -2.20519 3.68334 0
M  V30 78368 C 7286.97 -3.44414 4.07695 0
M  V30 78369 O 7287.2 -4.52584 3.47165 0
M  V30 78370 O 7286.13 -3.34102 5.00659 0
M  V30 78371 H 7289.96 -0.758597 2.94073 0
M  V30 78372 H 7287.54 -0.309186 1.46166 0
M  V30 78373 H 7289.42 -3.20304 2.73831 0
M  V30 78374 H 7288.1 -2.80859 1.60935 0
M  V30 78375 H 7287 -1.41695 3.46227 0
M  V30 78376 H 7288.34 -1.88247 4.54779 0
M  V30 78377 N 7289.99 -1.53254 -0.367576 0
M  V30 78378 C 7290.94 -1.75931 -1.45025 0
M  V30 78379 C 7291.92 -0.613798 -1.48732 0
M  V30 78380 O 7293.12 -0.872394 -1.54007 0
M  V30 78381 C 7290.24 -1.95085 -2.82483 0
M  V30 78382 C 7289.33 -3.15632 -2.83262 0
M  V30 78383 N 7289.72 -4.37579 -2.53689 0
M  V30 78384 C 7288.02 -3.16313 -3.14423 0
M  V30 78385 C 7288.72 -5.19308 -2.62096 0
M  V30 78386 N 7287.7 -4.55474 -2.96723 0
M  V30 78387 H 7291.5 -2.67827 -1.21021 0
M  V30 78388 H 7289.01 -1.51852 -0.575742 0
M  V30 78389 H 7291.01 -2.09459 -3.60462 0
M  V30 78390 H 7289.67 -1.04416 -3.07453 0
M  V30 78391 H 7290.68 -4.65345 -2.27319 0
M  V30 78392 H 7287.36 -2.3553 -3.4472 0
M  V30 78393 H 7288.75 -6.26576 -2.42595 0
M  V30 78394 N 7291.47 0.627262 -1.44579 0
M  V30 78395 C 7292.7 1.41386 -1.51055 0
M  V30 78396 C 7293.11 1.88305 -0.136668 0
M  V30 78397 O 7292.47 1.61064 0.858166 0
M  V30 78398 C 7292.52 2.63158 -2.47851 0
M  V30 78399 O 7292.24 2.18195 -3.79898 0
M  V30 78400 C 7293.74 3.56243 -2.63829 0
M  V30 78401 H 7290.96 0.433473 -0.512194 0
M  V30 78402 H 7293.5 0.766778 -1.89581 0
M  V30 78403 H 7291.66 3.2395 -2.12451 0
M  V30 78404 H 7292.07 2.97169 -4.32193 0
M  V30 78405 H 7293.55 4.38283 -3.35577 0
M  V30 78406 H 7294.02 4.05304 -1.6919 0
M  V30 78407 H 7294.63 3.01318 -3.00146 0
M  V30 78408 N 7292.95 1.31542 0.868017 0
M  V30 78409 C 7294.19 1.21099 1.618 0
M  V30 78410 C 7294.51 -0.230521 1.93633 0
M  V30 78411 O 7293.78 -1.15175 1.58466 0
M  V30 78412 H 7292.36 0.44521 0.599831 0
M  V30 78413 H 7295.03 1.64893 1.03906 0
M  V30 78414 H 7294.12 1.7841 2.56079 0
M  V30 78415 N 7294.42 -1.08258 1.14534 0
M  V30 78416 C 7295.36 -2.15102 0.791438 0
M  V30 78417 C 7296.37 -1.6166 -0.192364 0
M  V30 78418 O 7297.56 -1.78476 0.0295645 0
M  V30 78419 C 7294.66 -3.38548 0.154361 0
M  V30 78420 C 7293.83 -4.2137 1.17327 0
M  V30 78421 C 7292.89 -5.23215 0.559676 0
M  V30 78422 O 7291.92 -5.55904 1.22307 0
M  V30 78423 N 7293.12 -5.76703 -0.662855 0
M  V30 78424 H 7295.88 -2.46066 1.71089 0
M  V30 78425 H 7293.44 -1.24082 1.03997 0
M  V30 78426 H 7295.44 -4.03807 -0.268671 0
M  V30 78427 H 7294.01 -3.05374 -0.668257 0
M  V30 78428 H 7293.23 -3.52068 1.77319 0
M  V30 78429 H 7294.51 -4.73524 1.86153 0
M  V30 78430 H 7293.91 -5.5238 -1.22037 0
M  V30 78431 H 7292.47 -6.43636 -1.02837 0
M  V30 78432 N 7295.9 -0.940699 -1.26446 0
M  V30 78433 C 7296.81 -0.456003 -2.30126 0
M  V30 78434 C 7297.83 0.469778 -1.67538 0
M  V30 78435 O 7299 0.349424 -1.98346 0
M  V30 78436 C 7296.07 0.271466 -3.45636 0
M  V30 78437 C 7295.13 -0.690817 -4.23705 0
M  V30 78438 C 7294.36 0.00202904 -5.337 0
M  V30 78439 O 7294.59 1.21905 -5.57221 0
M  V30 78440 O 7293.52 -0.676427 -5.98087 0
M  V30 78441 H 7297.35 -1.31721 -2.73648 0
M  V30 78442 H 7294.93 -0.706566 -1.31636 0
M  V30 78443 H 7296.81 0.681267 -4.15857 0
M  V30 78444 H 7295.49 1.10808 -3.04144 0
M  V30 78445 H 7294.39 -1.15055 -3.55968 0
M  V30 78446 H 7295.73 -1.49503 -4.68945 0
M  V30 78447 N 7297.38 1.40818 -0.707667 0
M  V30 78448 C 7298.6 2.05867 -0.251734 0
M  V30 78449 C 7299.03 1.52946 1.09495 0
M  V30 78450 O 7298.39 0.661474 1.68802 0
M  V30 78451 C 7298.44 3.59846 -0.23306 0
M  V30 78452 O 7297.54 4.04796 0.788263 0
M  V30 78453 H 7296.88 0.653072 -0.11997 0
M  V30 78454 H 7299.41 1.80364 -0.965925 0
M  V30 78455 H 7299.42 4.07943 -0.0680355 0
M  V30 78456 H 7298.1 3.97731 -1.21586 0
M  V30 78457 H 7296.67 3.68177 0.591608 0
M  V30 78458 N 7298.86 0.453276 1.50941 0
M  V30 78459 C 7300.09 -0.105872 2.06329 0
M  V30 78460 C 7300.5 -1.35627 1.31916 0
M  V30 78461 O 7299.84 -1.79796 0.376702 0
M  V30 78462 C 7299.9 -0.47768 3.56312 0
M  V30 78463 C 7299.56 0.668164 4.52089 0
M  V30 78464 C 7300.56 1.54501 4.96413 0
M  V30 78465 C 7298.25 0.853429 4.94997 0
M  V30 78466 C 7300.24 2.59169 5.82332 0
M  V30 78467 C 7297.93 1.90335 5.80703 0
M  V30 78468 C 7298.93 2.77086 6.2427 0
M  V30 78469 O 7298.61 3.80273 7.08271 0
M  V30 78470 H 7298.35 -0.00423682 0.675987 0
M  V30 78471 H 7300.9 0.635841 1.95311 0
M  V30 78472 H 7299.13 -1.27233 3.65169 0
M  V30 78473 H 7300.82 -0.969832 3.94143 0
M  V30 78474 H 7301.58 1.41349 4.63946 0
M  V30 78475 H 7297.46 0.187725 4.60618 0
M  V30 78476 H 7301.01 3.26912 6.16258 0
M  V30 78477 H 7296.9 2.03501 6.12583 0
M  V30 78478 H 7297.67 3.77046 7.26484 0
M  V30 78479 N 7300.34 -1.56508 0.185206 0
M  V30 78480 C 7301.58 -1.97588 -0.45683 0
M  V30 78481 C 7301.91 -1.0717 -1.61951 0
M  V30 78482 O 7301.19 -0.121649 -1.94119 0
M  V30 78483 C 7301.47 -3.47977 -0.926482 0
M  V30 78484 C 7301.33 -4.49173 0.237334 0
M  V30 78485 C 7302.64 -4.01813 -1.7954 0
M  V30 78486 H 7299.76 -0.718389 -0.164581 0
M  V30 78487 H 7302.41 -1.88012 0.274139 0
M  V30 78488 H 7300.56 -3.56269 -1.54935 0
M  V30 78489 H 7302.23 -4.5293 0.874779 0
M  V30 78490 H 7300.47 -4.24558 0.89067 0
M  V30 78491 H 7301.14 -5.51838 -0.133633 0
M  V30 78492 H 7303.62 -3.96239 -1.27019 0
M  V30 78493 H 7302.49 -5.07429 -2.093 0
M  V30 78494 H 7302.75 -3.4647 -2.74611 0
M  V30 78495 N 7301.81 0.0884536 -1.57352 0
M  V30 78496 C 7303.06 0.786744 -1.87568 0
M  V30 78497 C 7303.42 1.76019 -0.776867 0
M  V30 78498 O 7302.71 1.90327 0.220537 0
M  V30 78499 C 7302.9 1.54863 -3.22106 0
M  V30 78500 C 7302.73 0.650472 -4.44971 0
M  V30 78501 C 7301.5 0.293691 -5.04446 0
M  V30 78502 C 7303.7 -0.0454899 -5.1428 0
M  V30 78503 N 7301.68 -0.611931 -6.10843 0
M  V30 78504 C 7303.05 -0.808927 -6.147 0
M  V30 78505 C 7305.11 -0.118714 -4.97758 0
M  V30 78506 C 7303.81 -1.63876 -7.00384 0
M  V30 78507 C 7305.84 -0.935465 -5.83955 0
M  V30 78508 C 7305.2 -1.687 -6.839 0
M  V30 78509 H 7301.3 0.263848 -0.736144 0
M  V30 78510 H 7303.88 0.0489714 -1.94638 0
M  V30 78511 H 7302.05 2.25723 -3.16075 0
M  V30 78512 H 7303.78 2.19463 -3.40027 0
M  V30 78513 H 7300.54 0.642839 -4.69217 0
M  V30 78514 H 7300.96 -1.05749 -6.6869 0
M  V30 78515 H 7305.61 0.44798 -4.2042 0
M  V30 78516 H 7303.32 -2.21649 -7.77108 0
M  V30 78517 H 7306.91 -0.994881 -5.73231 0
M  V30 78518 H 7305.79 -2.30882 -7.49442 0
M  V30 78519 N 7303.29 1.53446 0.359444 0
M  V30 78520 C 7304.24 1.80317 1.44064 0
M  V30 78521 C 7305.21 0.647891 1.52943 0
M  V30 78522 O 7306.39 0.890703 1.68734 0
M  V30 78523 C 7303.53 2.0043 2.8093 0
M  V30 78524 C 7302.65 3.28147 2.80969 0
M  V30 78525 C 7301.78 3.38414 4.0945 0
M  V30 78526 C 7300.82 4.60141 4.03655 0
M  V30 78527 N 7299.96 4.67527 5.23796 0
M  V30 78528 H 7304.8 2.72573 1.2045 0
M  V30 78529 H 7302.34 1.3502 0.583788 0
M  V30 78530 H 7304.29 2.10079 3.60448 0
M  V30 78531 H 7302.92 1.11505 3.0293 0
M  V30 78532 H 7301.98 3.27421 1.93648 0
M  V30 78533 H 7303.29 4.17747 2.72561 0
M  V30 78534 H 7302.44 3.47408 4.97385 0
M  V30 78535 H 7301.18 2.46842 4.20619 0
M  V30 78536 H 7300.19 4.51241 3.14105 0
M  V30 78537 H 7301.41 5.5306 3.94083 0
M  V30 78538 H 7299.36 3.78859 5.35539 0
M  V30 78539 H 7299.27 5.5104 5.17582 0
M  V30 78540 H 7300.54 4.80812 6.13547 0
M  V30 78541 N 7304.77 -0.619586 1.4491 0
M  V30 78542 C 7305.7 -1.74426 1.47142 0
M  V30 78543 C 7306.68 -1.59236 0.329017 0
M  V30 78544 O 7307.87 -1.80962 0.527728 0
M  V30 78545 C 7304.99 -3.12127 1.31507 0
M  V30 78546 C 7304.04 -3.45937 2.49459 0
M  V30 78547 S 7304.87 -3.42121 4.11963 0
M  V30 78548 C 7306.03 -4.82422 3.98773 0
M  V30 78549 H 7306.26 -1.72268 2.42304 0
M  V30 78550 H 7303.79 -0.795206 1.32347 0
M  V30 78551 H 7305.75 -3.91584 1.23174 0
M  V30 78552 H 7304.41 -3.11813 0.378368 0
M  V30 78553 H 7303.61 -4.46169 2.34413 0
M  V30 78554 H 7303.21 -2.73969 2.54592 0
M  V30 78555 H 7305.5 -5.71935 3.63176 0
M  V30 78556 H 7306.44 -5.02524 4.98874 0
M  V30 78557 H 7306.85 -4.57539 3.30633 0
M  V30 78558 N 7306.25 -1.32 -0.861029 0
M  V30 78559 C 7307.48 -1.25 -1.64495 0
M  V30 78560 C 7307.89 0.185476 -1.88289 0
M  V30 78561 O 7307.23 1.13092 -1.44762 0
M  V30 78562 C 7307.29 -1.93335 -3.03087 0
M  V30 78563 C 7306.96 -3.42674 -3.02363 0
M  V30 78564 C 7307.95 -4.38268 -2.79673 0
M  V30 78565 C 7305.64 -3.84508 -3.23201 0
M  V30 78566 C 7307.63 -5.73671 -2.77813 0
M  V30 78567 C 7305.32 -5.20022 -3.20968 0
M  V30 78568 C 7306.32 -6.14414 -2.98302 0
M  V30 78569 O 7306 -7.47449 -2.95931 0
M  V30 78570 H 7305.74 -0.432802 -0.519286 0
M  V30 78571 H 7308.29 -1.74571 -1.08232 0
M  V30 78572 H 7306.52 -1.38325 -3.61114 0
M  V30 78573 H 7308.21 -1.8013 -3.63742 0
M  V30 78574 H 7308.98 -4.07276 -2.63347 0
M  V30 78575 H 7304.85 -3.11463 -3.39871 0
M  V30 78576 H 7308.4 -6.47321 -2.6004 0
M  V30 78577 H 7304.3 -5.50646 -3.36836 0
M  V30 78578 H 7305.06 -7.56731 -3.1193 0
M  V30 78579 N 7307.73 1.07649 -1.15107 0
M  V30 78580 C 7308.66 2.14679 -0.802835 0
M  V30 78581 C 7309.67 1.61759 0.183788 0
M  V30 78582 O 7310.86 1.78457 -0.0390291 0
M  V30 78583 C 7307.96 3.38462 -0.172313 0
M  V30 78584 C 7307.13 4.20742 -1.1956 0
M  V30 78585 C 7306.19 5.22911 -0.587416 0
M  V30 78586 O 7305.22 5.55248 -1.25253 0
M  V30 78587 N 7306.42 5.77047 0.632262 0
M  V30 78588 H 7309.19 2.45155 -1.72392 0
M  V30 78589 H 7306.75 1.23528 -1.04653 0
M  V30 78590 H 7308.74 4.03944 0.247252 0
M  V30 78591 H 7307.31 3.05724 0.652053 0
M  V30 78592 H 7306.53 3.51122 -1.79184 0
M  V30 78593 H 7307.82 4.7253 -1.88661 0
M  V30 78594 H 7307.21 5.53019 1.19106 0
M  V30 78595 H 7305.77 6.44173 0.994226 0
M  V30 78596 N 7309.2 0.947392 1.25945 0
M  V30 78597 C 7310.11 0.4682 2.2988 0
M  V30 78598 C 7311.13 -0.460887 1.67785 0
M  V30 78599 O 7312.31 -0.338901 1.98528 0
M  V30 78600 C 7309.37 -0.253132 3.45775 0
M  V30 78601 C 7308.43 0.713278 4.23333 0
M  V30 78602 C 7307.67 0.0262744 5.33694 0
M  V30 78603 O 7307.89 -1.18948 5.5786 0
M  V30 78604 O 7306.82 0.708135 5.9772 0
M  V30 78605 H 7310.65 1.33171 2.72945 0
M  V30 78606 H 7308.23 0.713537 1.31259 0
M  V30 78607 H 7310.12 -0.659204 4.16212 0
M  V30 78608 H 7308.79 -1.09193 3.04727 0
M  V30 78609 H 7307.7 1.16942 3.55353 0
M  V30 78610 H 7309.03 1.51988 4.68146 0
M  V30 78611 N 7310.68 -1.40441 0.715125 0
M  V30 78612 C 7312.1 -1.54796 0.388636 0
M  V30 78613 C 7312.3 -1.68655 -1.10262 0
M  V30 78614 O 7311.35 -1.67588 -1.88866 0
M  V30 78615 C 7312.67 -2.77663 1.15429 0
M  V30 78616 C 7314.22 -2.9148 1.14055 0
M  V30 78617 C 7314.69 -4.1726 1.88834 0
M  V30 78618 N 7316.18 -4.24258 1.85901 0
M  V30 78619 C 7316.92 -5.20486 2.40586 0
M  V30 78620 N 7316.41 -6.22626 3.03824 0
M  V30 78621 N 7318.21 -5.12562 2.3073 0
M  V30 78622 H 7310.36 -1.29691 1.68208 0
M  V30 78623 H 7312.62 -0.627102 0.710948 0
M  V30 78624 H 7312.33 -2.73698 2.20867 0
M  V30 78625 H 7312.2 -3.69757 0.745607 0
M  V30 78626 H 7314.59 -2.94949 0.0943552 0
M  V30 78627 H 7314.67 -2.00505 1.58844 0
M  V30 78628 H 7314.31 -4.14552 2.93443 0
M  V30 78629 H 7314.24 -5.07243 1.41465 0
M  V30 78630 H 7316.73 -3.51085 1.39813 0
M  V30 78631 H 7317.05 -6.92476 3.43069 0
M  V30 78632 H 7315.39 -6.23071 3.07908 0
M  V30 78633 H 7318.58 -4.31697 1.80984 0
M  V30 78634 H 7318.75 -5.87384 2.73649 0
M  V30 78635 N 7312.16 -0.461275 -1.50698 0
M  V30 78636 C 7313.4 0.0959597 -2.04175 0
M  V30 78637 C 7313.76 1.37861 -1.33635 0
M  V30 78638 O 7314.97 2.0176 -1.77613 0
M  V30 78639 C 7313.24 0.285488 -3.56258 0
M  V30 78640 S 7314.8 0.80269 -4.31396 0
M  V30 78641 H 7311.61 0.0205907 -0.710702 0
M  V30 78642 H 7314.22 -0.626167 -1.85201 0
M  V30 78643 H 7312.92 -0.653987 -4.05156 0
M  V30 78644 H 7312.45 1.03401 -3.79568 0
M  V30 78645 H 7314.47 2.07737 -4.50622 0
M  V30 78646 N 7313.64 1.56408 -0.193504 0
M  V30 78647 C 7314.88 1.9859 0.439725 0
M  V30 78648 C 7315.24 1.07824 1.59348 0
M  V30 78649 O 7314.53 0.122327 1.91209 0
M  V30 78650 C 7314.73 3.44556 0.949536 0
M  V30 78651 C 7314.56 4.49439 -0.153282 0
M  V30 78652 C 7313.33 5.016 -0.610384 0
M  V30 78653 C 7315.52 5.05229 -0.961664 0
M  V30 78654 N 7313.51 5.90146 -1.69119 0
M  V30 78655 C 7314.88 5.90429 -1.89191 0
M  V30 78656 C 7316.93 4.87667 -1.00426 0
M  V30 78657 C 7315.63 6.59945 -2.86121 0
M  V30 78658 C 7317.66 5.5792 -1.9616 0
M  V30 78659 C 7317.02 6.42866 -2.87929 0
M  V30 78660 H 7313.12 0.771391 0.128374 0
M  V30 78661 H 7315.71 1.92393 -0.298831 0
M  V30 78662 H 7313.88 3.51255 1.65754 0
M  V30 78663 H 7315.61 3.73707 1.55324 0
M  V30 78664 H 7312.36 4.7316 -0.204021 0
M  V30 78665 H 7312.79 6.39122 -2.23275 0
M  V30 78666 H 7317.43 4.21671 -0.308758 0
M  V30 78667 H 7315.15 7.2514 -3.56647 0
M  V30 78668 H 7318.73 5.46309 -2.00095 0
M  V30 78669 H 7317.61 6.96271 -3.60799 0
M  V30 78670 N 7315.12 -0.0801076 1.57396 0
M  V30 78671 C 7316.03 -1.11412 2.06457 0
M  V30 78672 C 7317.04 -1.42923 0.992427 0
M  V30 78673 O 7318.22 -1.53265 1.30659 0
M  V30 78674 C 7315.28 -2.41064 2.49177 0
M  V30 78675 C 7314.34 -2.166 3.70652 0
M  V30 78676 C 7313.58 -3.4007 4.11325 0
M  V30 78677 O 7313.8 -4.48877 3.51946 0
M  V30 78678 O 7312.73 -3.28773 5.04174 0
M  V30 78679 H 7316.56 -0.727364 2.94861 0
M  V30 78680 H 7314.15 -0.293666 1.46485 0
M  V30 78681 H 7316.03 -3.17381 2.77213 0
M  V30 78682 H 7314.7 -2.79136 1.63905 0
M  V30 78683 H 7313.61 -1.38015 3.47711 0
M  V30 78684 H 7314.94 -1.83413 4.5675 0
M  V30 78685 N 7316.6 -1.53635 -0.351301 0
M  V30 78686 C 7317.84 -1.70507 -1.09241 0
M  V30 78687 C 7318.17 -0.464223 -1.88879 0
M  V30 78688 O 7317.43 0.553978 -1.87695 0
M  V30 78689 C 7317.72 -2.91544 -2.06729 0
M  V30 78690 C 7317.39 -4.27469 -1.43461 0
M  V30 78691 C 7316.05 -4.64428 -1.25936 0
M  V30 78692 C 7318.4 -5.11939 -0.978166 0
M  V30 78693 C 7315.73 -5.83481 -0.613709 0
M  V30 78694 C 7318.08 -6.31651 -0.346462 0
M  V30 78695 C 7316.75 -6.67311 -0.158819 0
M  V30 78696 H 7316.02 -0.62393 -0.39974 0
M  V30 78697 H 7318.67 -1.87841 -0.372557 0
M  V30 78698 H 7316.97 -2.68782 -2.85068 0
M  V30 78699 H 7318.67 -3.01792 -2.6405 0
M  V30 78700 H 7315.26 -3.98375 -1.58099 0
M  V30 78701 H 7319.44 -4.83923 -1.10145 0
M  V30 78702 H 7314.7 -6.09691 -0.456872 0
M  V30 78703 H 7318.87 -6.96398 0.0153536 0
M  V30 78704 H 7316.5 -7.59423 0.343529 0
M  V30 78705 N 7318.07 0.611892 -1.45236 0
M  V30 78706 C 7319.32 1.37101 -1.49028 0
M  V30 78707 C 7319.65 1.94063 -0.130329 0
M  V30 78708 O 7318.9 1.75275 0.870459 0
M  V30 78709 C 7319.2 2.54066 -2.51367 0
M  V30 78710 C 7318.87 2.15278 -3.9619 0
M  V30 78711 C 7317.53 2.04413 -4.35625 0
M  V30 78712 C 7319.88 1.84941 -4.87285 0
M  V30 78713 C 7317.21 1.61427 -5.64055 0
M  V30 78714 C 7319.56 1.43442 -6.16123 0
M  V30 78715 C 7318.23 1.31132 -6.54493 0
M  V30 78716 H 7317.5 0.50169 -0.545333 0
M  V30 78717 H 7320.14 0.692027 -1.78559 0
M  V30 78718 H 7318.45 3.27284 -2.1539 0
M  V30 78719 H 7320.15 3.12296 -2.5154 0
M  V30 78720 H 7316.74 2.24659 -3.65002 0
M  V30 78721 H 7320.92 1.92234 -4.57558 0
M  V30 78722 H 7316.18 1.50516 -5.92583 0
M  V30 78723 H 7320.35 1.19012 -6.86155 0
M  V30 78724 H 7317.98 0.975972 -7.53909 0
M  V30 78725 N 7319.55 1.32455 0.854016 0
M  V30 78726 C 7320.96 1.20719 1.42421 0
M  V30 78727 C 7321.31 -0.180027 1.95372 0
M  V30 78728 O 7320.44 -1.07879 1.87593 0
M  V30 78729 C 7321.03 2.18549 2.58885 0
M  V30 78730 C 7319.59 2.10699 3.11902 0
M  V30 78731 C 7318.74 2.0688 1.84651 0
M  V30 78732 H 7321.69 1.44274 0.661116 0
M  V30 78733 H 7321.71 1.7844 3.36065 0
M  V30 78734 H 7321.22 3.19504 2.20316 0
M  V30 78735 H 7319.32 1.12995 3.55053 0
M  V30 78736 H 7319.44 3.00551 3.73103 0
M  V30 78737 H 7317.8 1.52129 2.04276 0
M  V30 78738 H 7318.58 3.09617 1.48297 0
M  V30 78739 N 7321.03 -1.07037 1.15676 0
M  V30 78740 C 7321.99 -2.12494 0.859018 0
M  V30 78741 C 7322.99 -1.60166 -0.142651 0
M  V30 78742 O 7324.18 -1.73981 0.0873595 0
M  V30 78743 C 7321.31 -3.39722 0.2832 0
M  V30 78744 H 7322.51 -2.40339 1.7938 0
M  V30 78745 H 7320.06 -1.22979 0.964673 0
M  V30 78746 H 7320.8 -3.17521 -0.659628 0
M  V30 78747 H 7320.58 -3.79005 1.00487 0
M  V30 78748 H 7322.07 -4.17497 0.0925744 0
M  V30 78749 N 7322.51 -0.954058 -1.25441 0
M  V30 78750 C 7323.76 -0.607329 -1.92759 0
M  V30 78751 C 7324.08 0.858306 -1.75095 0
M  V30 78752 O 7323.35 1.61126 -1.11424 0
M  V30 78753 H 7321.93 -0.221629 -0.713365 0
M  V30 78754 H 7324.59 -1.21217 -1.52618 0
M  V30 78755 H 7323.68 -0.836157 -3.00691 0
M  V30 78756 N 7323.99 1.4006 -0.722563 0
M  V30 78757 C 7325.26 1.94656 -0.191932 0
M  V30 78758 C 7325.64 1.66025 1.3038 0
M  V30 78759 O 7324.99 0.981696 2.06337 0
M  V30 78760 C 7325.2 3.45222 -0.51216 0
M  V30 78761 C 7326.55 4.22159 -0.454649 0
M  V30 78762 O 7327.57 3.53364 -0.448624 0
M  V30 78763 O 7326.43 5.4474 -0.438274 0
M  V30 78764 H 7323.53 0.826425 -0.0308256 0
M  V30 78765 H 7326.07 1.49629 -0.800572 0
M  V30 78766 H 7324.84 3.59447 -1.54641 0
M  V30 78767 H 7324.47 3.974 0.126087 0
M  V30 78768 N 7325.46 0.46926 1.50452 0
M  V30 78769 C 7326.7 -0.0851304 2.04223 0
M  V30 78770 C 7327.07 -1.37151 1.34364 0
M  V30 78771 O 7328.27 -2.00816 1.7868 0
M  V30 78772 C 7326.54 -0.266591 3.56404 0
M  V30 78773 S 7328.1 -0.7798 4.31815 0
M  V30 78774 H 7324.92 -0.0168214 0.710801 0
M  V30 78775 H 7327.52 0.63598 1.84866 0
M  V30 78776 H 7326.22 0.675464 4.04803 0
M  V30 78777 H 7325.75 -1.01387 3.80111 0
M  V30 78778 H 7327.77 -2.05344 4.51717 0
M  V30 78779 N 7326.94 -1.56303 0.201796 0
M  V30 78780 C 7328.19 -1.97768 -0.435203 0
M  V30 78781 C 7328.52 -1.08889 -1.61163 0
M  V30 78782 O 7327.77 -0.129443 -1.95271 0
M  V30 78783 C 7328.07 -3.45054 -0.93125 0
M  V30 78784 C 7327.74 -4.50705 0.132524 0
M  V30 78785 C 7326.4 -4.79321 0.424805 0
M  V30 78786 C 7328.75 -5.14173 0.852974 0
M  V30 78787 C 7326.08 -5.68693 1.4424 0
M  V30 78788 C 7328.43 -6.04645 1.85976 0
M  V30 78789 C 7327.09 -6.31614 2.15917 0
M  V30 78790 H 7326.36 -0.723685 -0.159252 0
M  V30 78791 H 7329.01 -1.89133 0.300169 0
M  V30 78792 H 7327.32 -3.50794 -1.74502 0
M  V30 78793 H 7329.01 -3.74497 -1.43363 0
M  V30 78794 H 7325.6 -4.2847 -0.105445 0
M  V30 78795 H 7329.79 -4.92151 0.640398 0
M  V30 78796 H 7325.04 -5.8786 1.68021 0
M  V30 78797 H 7329.22 -6.52881 2.4232 0
M  V30 78798 H 7326.84 -7.00665 2.94912 0
M  V30 78799 N 7328.42 0.0717594 -1.57437 0
M  V30 78800 C 7329.84 0.426547 -1.53794 0
M  V30 78801 C 7330.04 1.7917 -0.921981 0
M  V30 78802 O 7329.09 2.46992 -0.524504 0
M  V30 78803 C 7330.4 0.367581 -2.98445 0
M  V30 78804 C 7331.95 0.447765 -3.09781 0
M  V30 78805 C 7332.43 0.418706 -4.56082 0
M  V30 78806 N 7333.92 0.478779 -4.60719 0
M  V30 78807 C 7334.65 0.478509 -5.714 0
M  V30 78808 N 7334.15 0.433052 -6.91445 0
M  V30 78809 N 7335.94 0.525069 -5.59642 0
M  V30 78810 H 7328.09 -0.822136 -1.95843 0
M  V30 78811 H 7330.36 -0.308494 -0.896401 0
M  V30 78812 H 7330.06 -0.568833 -3.47069 0
M  V30 78813 H 7329.94 1.17776 -3.58341 0
M  V30 78814 H 7332.32 1.3746 -2.6113 0
M  V30 78815 H 7332.4 -0.390991 -2.52794 0
M  V30 78816 H 7332.05 -0.504283 -5.0539 0
M  V30 78817 H 7331.98 1.27499 -5.10932 0
M  V30 78818 H 7334.47 0.518158 -3.74331 0
M  V30 78819 H 7334.78 0.436773 -7.71565 0
M  V30 78820 H 7333.13 0.39974 -6.93849 0
M  V30 78821 H 7336.32 0.558274 -4.64759 0
M  V30 78822 H 7336.49 0.521389 -6.45899 0
M  V30 78823 N 7329.9 1.53819 0.343149 0
M  V30 78824 C 7330.84 1.81835 1.42143 0
M  V30 78825 C 7331.81 0.664076 1.52247 0
M  V30 78826 O 7333 0.90855 1.6778 0
M  V30 78827 C 7330.14 2.03399 2.78788 0
M  V30 78828 C 7329.25 3.31109 2.77472 0
M  V30 78829 C 7328.39 3.42738 4.05837 0
M  V30 78830 C 7327.43 4.64396 3.98752 0
M  V30 78831 N 7326.56 4.73057 5.18808 0
M  V30 78832 H 7331.4 2.73835 1.17552 0
M  V30 78833 H 7328.94 1.35631 0.569435 0
M  V30 78834 H 7330.9 2.1389 3.58199 0
M  V30 78835 H 7329.53 1.14712 3.0173 0
M  V30 78836 H 7328.58 3.29456 1.90165 0
M  V30 78837 H 7329.89 4.20614 2.68114 0
M  V30 78838 H 7329.05 3.52664 4.93673 0
M  V30 78839 H 7327.79 2.5129 4.17977 0
M  V30 78840 H 7326.79 4.54547 3.09301 0
M  V30 78841 H 7328.02 5.57209 3.88194 0
M  V30 78842 H 7325.96 3.84517 5.31491 0
M  V30 78843 H 7325.88 5.56499 5.11708 0
M  V30 78844 H 7327.15 4.87293 6.08413 0
M  V30 78845 N 7331.38 -0.604181 1.45559 0
M  V30 78846 C 7332.31 -1.72863 1.50503 0
M  V30 78847 C 7333.32 -1.57924 0.395451 0
M  V30 78848 O 7334.51 -1.65743 0.662691 0
M  V30 78849 C 7331.61 -3.10899 1.3489 0
M  V30 78850 C 7330.78 -3.52045 2.59583 0
M  V30 78851 C 7329.84 -4.69057 2.38478 0
M  V30 78852 O 7328.87 -4.76002 3.12107 0
M  V30 78853 N 7330.07 -5.62545 1.43258 0
M  V30 78854 H 7332.84 -1.69084 2.47449 0
M  V30 78855 H 7330.4 -0.789561 1.41342 0
M  V30 78856 H 7332.39 -3.86939 1.18576 0
M  V30 78857 H 7330.96 -3.09166 0.462076 0
M  V30 78858 H 7330.18 -2.65931 2.90988 0
M  V30 78859 H 7331.47 -3.76295 3.42461 0
M  V30 78860 H 7330.86 -5.59652 0.825009 0
M  V30 78861 H 7329.42 -6.38104 1.32915 0
M  V30 78862 N 7332.85 -1.32906 -0.84698 0
M  V30 78863 C 7334.08 -1.26738 -1.6316 0
M  V30 78864 C 7334.49 0.165495 -1.88475 0
M  V30 78865 O 7333.84 1.1155 -1.45953 0
M  V30 78866 C 7333.9 -1.96538 -3.0102 0
M  V30 78867 C 7333.56 -3.45862 -2.98712 0
M  V30 78868 C 7334.56 -4.4121 -2.75008 0
M  V30 78869 C 7332.24 -3.87915 -3.19104 0
M  V30 78870 C 7334.24 -5.76586 -2.71713 0
M  V30 78871 C 7331.92 -5.23397 -3.15435 0
M  V30 78872 C 7332.92 -6.17544 -2.91769 0
M  V30 78873 O 7332.61 -7.50546 -2.87987 0
M  V30 78874 H 7332.34 -0.438286 -0.514667 0
M  V30 78875 H 7334.9 -1.75709 -1.06374 0
M  V30 78876 H 7333.13 -1.42147 -3.59626 0
M  V30 78877 H 7334.82 -1.83977 -3.61811 0
M  V30 78878 H 7335.58 -4.10046 -2.59012 0
M  V30 78879 H 7331.46 -3.1505 -3.36548 0
M  V30 78880 H 7335 -6.50043 -2.5316 0
M  V30 78881 H 7330.9 -5.54188 -3.30977 0
M  V30 78882 H 7331.67 -7.59997 -3.03887 0
M  V30 78883 N 7334.33 1.06422 -1.16242 0
M  V30 78884 C 7335.24 2.17385 -0.882091 0
M  V30 78885 C 7336.26 1.73393 0.145168 0
M  V30 78886 O 7337.43 2.01376 -0.031162 0
M  V30 78887 C 7334.5 3.44548 -0.385678 0
M  V30 78888 C 7333.56 4.03055 -1.478 0
M  V30 78889 C 7332.79 5.24149 -1.00518 0
M  V30 78890 O 7333.02 5.70214 0.145589 0
M  V30 78891 O 7331.95 5.74575 -1.79295 0
M  V30 78892 H 7335.78 2.43873 -1.80996 0
M  V30 78893 H 7333.36 1.15937 -0.942287 0
M  V30 78894 H 7335.24 4.21241 -0.115758 0
M  V30 78895 H 7333.92 3.1959 0.5142 0
M  V30 78896 H 7332.83 3.27859 -1.80165 0
M  V30 78897 H 7334.16 4.32306 -2.35314 0
M  V30 78898 N 7335.81 0.960697 1.24933 0
M  V30 78899 C 7337.09 0.535906 1.88115 0
M  V30 78900 C 7337.47 -0.986911 1.8661 0
M  V30 78901 O 7336.82 -1.85529 1.33384 0
M  V30 78902 C 7337.03 1.11945 3.30559 0
M  V30 78903 C 7338.37 1.20003 4.07289 0
M  V30 78904 O 7339.4 1.07144 3.39704 0
M  V30 78905 O 7338.26 1.40246 5.28198 0
M  V30 78906 H 7335.35 0.177674 0.807689 0
M  V30 78907 H 7337.9 1.05452 1.32959 0
M  V30 78908 H 7336.67 2.16248 3.26117 0
M  V30 78909 H 7336.29 0.584452 3.93281 0
M  V30 78910 N 7337.29 -1.39675 0.72998 0
M  V30 78911 C 7338.22 -2.29151 0.0471797 0
M  V30 78912 C 7339.23 -1.46563 -0.708731 0
M  V30 78913 O 7340.42 -1.69694 -0.553725 0
M  V30 78914 C 7337.52 -3.25094 -0.957441 0
M  V30 78915 C 7336.7 -4.36602 -0.26409 0
M  V30 78916 C 7335.75 -5.12888 -1.17611 0
M  V30 78917 O 7334.78 -5.65413 -0.655479 0
M  V30 78918 N 7335.98 -5.23612 -2.50621 0
M  V30 78919 H 7338.75 -2.88391 0.815516 0
M  V30 78920 H 7336.31 -1.51201 0.578787 0
M  V30 78921 H 7338.3 -3.73003 -1.57006 0
M  V30 78922 H 7336.87 -2.66921 -1.62702 0
M  V30 78923 H 7336.09 -3.90635 0.528938 0
M  V30 78924 H 7337.38 -5.08339 0.216612 0
M  V30 78925 H 7336.78 -4.82446 -2.95402 0
M  V30 78926 H 7335.33 -5.74977 -3.06992 0
M  V30 78927 N 7338.77 -0.477232 -1.50201 0
M  V30 78928 C 7339.7 0.303524 -2.31519 0
M  V30 78929 C 7340.68 0.984679 -1.38701 0
M  V30 78930 O 7341.86 0.980669 -1.6762 0
M  V30 78931 C 7338.99 1.38232 -3.18605 0
M  V30 78932 C 7337.95 0.822424 -4.20024 0
M  V30 78933 C 7337.27 1.99997 -4.95888 0
M  V30 78934 C 7338.57 -0.17046 -5.22022 0
M  V30 78935 H 7340.27 -0.375184 -2.9704 0
M  V30 78936 H 7337.81 -0.181878 -1.42847 0
M  V30 78937 H 7339.77 1.93605 -3.74293 0
M  V30 78938 H 7338.49 2.08989 -2.50981 0
M  V30 78939 H 7337.15 0.29062 -3.65446 0
M  V30 78940 H 7336.8 2.69466 -4.24732 0
M  V30 78941 H 7336.5 1.63153 -5.64495 0
M  V30 78942 H 7338.02 2.55849 -5.54413 0
M  V30 78943 H 7339.43 0.294304 -5.72544 0
M  V30 78944 H 7337.83 -0.453497 -5.98384 0
M  V30 78945 H 7338.9 -1.09433 -4.7239 0
M  V30 78946 N 7340.24 1.56194 -0.210082 0
M  V30 78947 C 7341.19 2.21134 0.7213 0
M  V30 78948 C 7342.19 1.18713 1.20846 0
M  V30 78949 O 7343.39 1.36821 1.16961 0
M  V30 78950 H 7339.77 0.708876 0.250996 0
M  V30 78951 H 7341.74 2.98023 0.150036 0
M  V30 78952 C 7340.49 2.89632 1.92377 0
M  V30 78953 H 7339.81 3.68193 1.558 0
M  V30 78954 H 7341.25 3.38486 2.55349 0
M  V30 78955 C 7339.71 1.91476 2.77198 0
M  V30 78956 O 7340.24 1.42446 3.75596 0
M  V30 78957 N 7338.45 1.59376 2.42997 0
M  V30 78958 H 7337.99 1.99441 1.63037 0
M  V30 78959 H 7337.95 0.939607 3.00031 0
M  V30 78960 O 7341.76 0.073449 1.61333 0
M  V30 78961 H 7342.45 -0.532517 1.86236 0
M  V30 END ATOM
M  V30 BEGIN BOND
M  V30 END BOND
M  V30 END CTAB
M  END
$$$$
