drugbank_target|Q55813 O-methyltransferase (DB07109; DB07767)
 OpenBabel12092120393D

  0  0  0     0  0            999 V3000
M  V30 BEGIN CTAB
M  V30 COUNTS 3458 3491 0 0 0
M  V30 BEGIN ATOM
M  V30 1 H -0.908 1.98254 -0.117106 0
M  V30 2 N 0 1.576 0 0
M  V30 3 C 0.933 2.03868 1.02534 0
M  V30 4 C 1.911 0.928543 1.3348 0
M  V30 5 O 3.095 1.19667 1.45644 0
M  V30 6 C 0.222 2.43627 2.35294 0
M  V30 7 C -0.732 3.65373 2.2001 0
M  V30 8 S 0.101 5.13292 1.52614 0
M  V30 9 C 1.257 5.56322 2.86805 0
M  V30 10 H 1.49 2.90518 0.631377 0
M  V30 11 H -0.977 1.52953 0.210867 0
M  V30 12 H 0.981 2.67203 3.11629 0
M  V30 13 H -0.358 1.57376 2.7183 0
M  V30 14 H -1.165 3.90944 3.18086 0
M  V30 15 H -1.563 3.418 1.51819 0
M  V30 16 H 0.729 5.58782 3.83104 0
M  V30 17 H 1.672 6.56266 2.65933 0
M  V30 18 H 2.08 4.83886 2.90714 0
M  V30 19 N 1.4781 -0.272755 1.55222 0
M  V30 20 C 2.7261 -1.00234 1.75492 0
M  V30 21 C 3.0471 -1.8681 0.5592 0
M  V30 22 O 2.3171 -1.91215 -0.425882 0
M  V30 23 H 0.8971 -0.373076 0.647166 0
M  V30 24 H 3.5591 -0.296926 1.92625 0
M  V30 25 H 2.6551 -1.63913 2.65592 0
M  V30 26 N 2.9562 -1.48159 -0.537278 0
M  V30 27 C 3.9032 -1.62138 -1.64256 0
M  V30 28 C 4.8732 -0.463668 -1.59497 0
M  V30 29 O 6.0582 -0.686241 -1.78032 0
M  V30 30 C 3.1982 -1.66028 -3.02537 0
M  V30 31 C 2.3112 -2.92855 -3.17585 0
M  V30 32 C 1.4462 -2.87952 -4.46382 0
M  V30 33 C 0.4852 -4.09516 -4.54932 0
M  V30 34 N -0.3778 -4.02733 -5.75109 0
M  V30 35 H 4.4622 -2.56529 -1.51647 0
M  V30 36 H 1.9992 -1.27224 -0.738414 0
M  V30 37 H 3.9572 -1.66265 -3.82638 0
M  V30 38 H 2.5872 -0.751331 -3.13934 0
M  V30 39 H 1.6392 -3.02395 -2.30784 0
M  V30 40 H 2.9512 -3.82822 -3.19764 0
M  V30 41 H 2.1052 -2.8655 -5.34765 0
M  V30 42 H 0.8442 -1.95702 -4.46712 0
M  V30 43 H -0.1508 -4.11201 -3.64957 0
M  V30 44 H 1.0742 -5.02917 -4.56346 0
M  V30 45 H -0.9798 -3.13299 -5.76351 0
M  V30 46 H -1.0628 -4.86397 -5.78752 0
M  V30 47 H 0.2052 -4.05379 -6.65799 0
M  V30 48 N 4.4343 0.785586 -1.36625 0
M  V30 49 C 5.6823 1.54057 -1.30808 0
M  V30 50 C 6.0033 1.94683 0.111157 0
M  V30 51 O 5.2733 1.65241 1.05224 0
M  V30 52 H 3.8533 0.571354 -0.481211 0
M  V30 53 H 6.5153 0.935821 -1.70963 0
M  V30 54 H 5.6113 2.44637 -1.93801 0
M  V30 55 N 5.9124 1.20967 1.01018 0
M  V30 56 C 7.1614 1.01796 1.74128 0
M  V30 57 C 7.4744 -0.449691 1.90361 0
M  V30 58 O 8.6804 -0.76068 2.60626 0
M  V30 59 C 7.1364 1.7727 3.13215 0
M  V30 60 C 6.7444 3.28171 3.04972 0
M  V30 61 C 8.4884 1.66489 3.90489 0
M  V30 62 C 6.3954 3.96156 4.39107 0
M  V30 63 H 5.3254 0.377276 0.652824 0
M  V30 64 H 7.9764 1.44651 1.12909 0
M  V30 65 H 6.3584 1.27205 3.75013 0
M  V30 66 H 7.5324 3.85499 2.52443 0
M  V30 67 H 5.8474 3.39437 2.41188 0
M  V30 68 H 8.4444 2.14617 4.89738 0
M  V30 69 H 8.7874 0.6222 4.11624 0
M  V30 70 H 9.3204 2.14003 3.35332 0
M  V30 71 H 6.0594 5.00604 4.23174 0
M  V30 72 H 5.5794 3.43617 4.91617 0
M  V30 73 H 7.2584 4.00774 5.07926 0
M  V30 74 N 7.3905 -1.2043 1.01659 0
M  V30 75 C 8.6185 -1.93777 0.725132 0
M  V30 76 C 9.0335 -1.74772 -0.714166 0
M  V30 77 O 8.3905 -1.06169 -1.4844 0
M  V30 78 C 8.4415 -3.45876 1.05129 0
M  V30 79 O 8.1625 -3.6426 2.43406 0
M  V30 80 C 9.6635 -4.36368 0.780891 0
M  V30 81 H 6.8835 -0.615901 0.266284 0
M  V30 82 H 9.4275 -1.52922 1.35776 0
M  V30 83 H 7.5825 -3.8461 0.464065 0
M  V30 84 H 7.9965 -4.58246 2.55169 0
M  V30 85 H 9.4705 -5.41743 1.05918 0
M  V30 86 H 9.9475 -4.38275 -0.284937 0
M  V30 87 H 10.5535 -4.03296 1.35027 0
M  V30 88 N 8.8686 -0.792821 -1.36206 0
M  V30 89 C 10.1166 -0.366062 -1.98757 0
M  V30 90 C 10.4376 1.0668 -1.63231 0
M  V30 91 O 9.7076 1.73587 -0.907978 0
M  V30 92 H 8.2876 -0.132364 -0.735179 0
M  V30 93 H 10.9496 -1.01562 -1.66347 0
M  V30 94 H 10.0456 -0.460638 -3.08682 0
M  V30 95 N 10.3467 1.47872 -0.545128 0
M  V30 96 C 11.5937 2.02493 -0.0165858 0
M  V30 97 C 11.9217 1.42073 1.32836 0
M  V30 98 O 11.1767 0.561459 1.87473 0
M  V30 99 C 11.4757 3.57131 0.13867 0
M  V30 100 C 11.1417 4.36411 -1.13384 0
M  V30 101 C 9.8037 4.57792 -1.48256 0
M  V30 102 C 12.1557 4.82223 -1.97764 0
M  V30 103 C 9.4837 5.22233 -2.67376 0
M  V30 104 C 11.8357 5.47977 -3.16076 0
M  V30 105 C 10.4997 5.67593 -3.51275 0
M  V30 106 H 9.7697 0.740975 -0.00606918 0
M  V30 107 H 12.4167 1.77683 -0.714207 0
M  V30 108 H 10.7217 3.80865 0.919172 0
M  V30 109 H 12.4187 3.97031 0.562782 0
M  V30 110 H 9.0087 4.2004 -0.852297 0
M  V30 111 H 13.1927 4.65493 -1.72132 0
M  V30 112 H 8.4487 5.35616 -2.94831 0
M  V30 113 H 12.6227 5.8244 -3.81755 0
M  V30 114 H 10.2497 6.17298 -4.43675 0
M  V30 115 N 11.8248 0.280983 1.55075 0
M  V30 116 C 13.1018 -0.386207 1.91749 0
M  V30 117 C 13.4818 -1.73264 1.20594 0
M  V30 118 O 12.8298 -2.26034 0.334784 0
M  V30 119 C 13.0398 -0.520687 3.45094 0
M  V30 120 C 14.3878 -0.800865 4.16979 0
M  V30 121 O 15.4118 -0.605271 3.5102 0
M  V30 122 O 14.2708 -1.1753 5.33712 0
M  V30 123 H 11.3648 -0.212408 0.799257 0
M  V30 124 H 13.9108 0.327568 1.66509 0
M  V30 125 H 12.6828 0.426633 3.88967 0
M  V30 126 H 12.3058 -1.2837 3.76307 0
M  V30 127 N 13.3029 -1.57598 0.00835791 0
M  V30 128 C 14.7139 -1.7892 -0.53333 0
M  V30 129 C 15.0649 -0.916609 -1.73473 0
M  V30 130 O 14.1899 -0.121336 -2.1606 0
M  V30 131 C 14.7849 -3.24488 -0.974313 0
M  V30 132 C 13.3439 -3.46878 -1.46125 0
M  V30 133 C 12.4909 -2.74157 -0.416302 0
M  V30 134 H 15.4419 -1.56958 0.234495 0
M  V30 135 H 15.4629 -3.3306 -1.83988 0
M  V30 136 H 14.9749 -3.87972 -0.099718 0
M  V30 137 H 13.0759 -2.8862 -2.35646 0
M  V30 138 H 13.1889 -4.55572 -1.48295 0
M  V30 139 H 11.5529 -2.39022 -0.87981 0
M  V30 140 H 12.3359 -3.40345 0.44947 0
M  V30 141 N 14.781 0.264519 -1.55364 0
M  V30 142 C 16.006 1.01726 -1.80739 0
M  V30 143 C 16.431 1.78836 -0.583044 0
M  V30 144 O 15.789 1.75167 0.467566 0
M  V30 145 C 15.837 1.94482 -3.03659 0
M  V30 146 O 14.941 3.03386 -2.7934 0
M  V30 147 H 14.282 0.290395 -0.597132 0
M  V30 148 H 16.812 0.290854 -2.02522 0
M  V30 149 H 16.822 2.36278 -3.32621 0
M  V30 150 H 15.497 1.37772 -3.92418 0
M  V30 151 H 14.074 2.65844 -2.61498 0
M  V30 152 N 16.2591 1.48442 0.529413 0
M  V30 153 C 17.1891 1.65902 1.64313 0
M  V30 154 C 18.1701 0.507897 1.6234 0
M  V30 155 O 19.3551 0.740503 1.79528 0
M  V30 156 C 16.4851 1.69911 3.02898 0
M  V30 157 C 15.4391 2.8453 3.19729 0
M  V30 158 C 14.7651 2.73629 4.59381 0
M  V30 159 C 16.0651 4.25821 3.02447 0
M  V30 160 H 17.7591 2.5914 1.49955 0
M  V30 161 H 15.3051 1.24709 0.719982 0
M  V30 162 H 17.2581 1.80715 3.80684 0
M  V30 163 H 15.9821 0.732524 3.18279 0
M  V30 164 H 14.6411 2.73283 2.44361 0
M  V30 165 H 14.2891 1.74938 4.71599 0
M  V30 166 H 13.9891 3.50541 4.71588 0
M  V30 167 H 15.5131 2.86401 5.39265 0
M  V30 168 H 16.9271 4.37898 3.70024 0
M  V30 169 H 15.3241 5.03735 3.26146 0
M  V30 170 H 16.3941 4.42244 1.98867 0
M  V30 171 N 17.7372 -0.778329 1.37039 0
M  V30 172 C 18.9672 -1.56507 1.34868 0
M  V30 173 C 19.3752 -1.89072 -0.0694802 0
M  V30 174 O 18.7182 -1.51434 -1.03987 0
M  V30 175 C 18.7802 -2.90641 2.11585 0
M  V30 176 C 18.4442 -2.80746 3.60598 0
M  V30 177 C 19.4412 -2.52226 4.54618 0
M  V30 178 C 17.1262 -2.98974 4.03633 0
M  V30 179 C 19.1202 -2.42054 5.89651 0
M  V30 180 C 16.8072 -2.88423 5.38754 0
M  V30 181 C 17.8052 -2.60002 6.31576 0
M  V30 182 O 17.4932 -2.49465 7.64214 0
M  V30 183 H 17.2252 -0.491723 0.463879 0
M  V30 184 H 19.7792 -0.973053 1.80889 0
M  V30 185 H 18.0092 -3.51936 1.60243 0
M  V30 186 H 19.6982 -3.51992 2.0213 0
M  V30 187 H 20.4642 -2.37835 4.22681 0
M  V30 188 H 16.3432 -3.20099 3.31749 0
M  V30 189 H 19.8872 -2.19791 6.62071 0
M  V30 190 H 15.7842 -3.0238 5.70295 0
M  V30 191 H 16.5522 -2.64864 7.74461 0
M  V30 192 N 19.2153 -1.21501 -1.00376 0
M  V30 193 C 20.4403 -1.05977 -1.78279 0
M  V30 194 C 20.8653 0.385994 -1.84097 0
M  V30 195 O 20.2233 1.27849 -1.28547 0
M  V30 196 C 20.2713 -1.66302 -3.19963 0
M  V30 197 O 19.3753 -0.909333 -4.0225 0
M  V30 198 H 18.7163 -0.372906 -0.549397 0
M  V30 199 H 21.2463 -1.6107 -1.26165 0
M  V30 200 H 21.2563 -1.70574 -3.70632 0
M  V30 201 H 19.9313 -2.71515 -3.15043 0
M  V30 202 H 18.5083 -0.941795 -3.60811 0
M  V30 203 N 20.6934 1.19889 -1.02296 0
M  V30 204 C 21.9234 1.93109 -0.734332 0
M  V30 205 C 22.3314 1.75377 0.709889 0
M  V30 206 O 21.6744 1.06912 1.49384 0
M  V30 207 C 21.7364 3.45362 -0.99827 0
M  V30 208 C 21.4004 3.8686 -2.43287 0
M  V30 209 C 22.3974 3.92102 -3.41397 0
M  V30 210 C 20.0824 4.18668 -2.77529 0
M  V30 211 C 22.0764 4.28573 -4.71809 0
M  V30 212 C 19.7634 4.54813 -4.08153 0
M  V30 213 C 20.7614 4.59739 -5.05103 0
M  V30 214 O 20.4494 4.95051 -6.33388 0
M  V30 215 H 20.1814 0.620409 -0.268456 0
M  V30 216 H 22.7354 1.53144 -1.3688 0
M  V30 217 H 20.9654 3.85482 -0.306645 0
M  V30 218 H 22.6544 3.99814 -0.700234 0
M  V30 219 H 23.4204 3.67685 -3.1628 0
M  V30 220 H 19.2994 4.14021 -2.0275 0
M  V30 221 H 22.8434 4.32333 -5.4748 0
M  V30 222 H 18.7404 4.78687 -4.33047 0
M  V30 223 H 19.5084 5.1302 -6.37772 0
M  V30 224 N 22.1715 0.800033 1.35784 0
M  V30 225 C 23.1015 0.220184 2.3246 0
M  V30 226 C 24.0825 -0.65073 1.57161 0
M  V30 227 O 25.2675 -0.582359 1.85263 0
M  V30 228 C 22.3975 -0.637353 3.41402 0
M  V30 229 C 21.3515 0.134531 4.27789 0
M  V30 230 C 20.6775 -0.844285 5.27992 0
M  V30 231 C 21.9775 1.32979 5.05088 0
M  V30 232 H 23.6715 1.02787 2.81203 0
M  V30 233 H 21.2175 0.495717 1.35199 0
M  V30 234 H 23.1705 -1.05302 4.08031 0
M  V30 235 H 21.8945 -1.47785 2.91251 0
M  V30 236 H 20.5535 0.531296 3.6273 0
M  V30 237 H 20.2015 -1.68011 4.74111 0
M  V30 238 H 19.9015 -0.332184 5.8666 0
M  V30 239 H 21.4255 -1.2583 5.97494 0
M  V30 240 H 22.8395 0.98934 5.64699 0
M  V30 241 H 21.2365 1.77593 5.7322 0
M  V30 242 H 22.3065 2.11978 4.36111 0
M  V30 243 N 23.6496 -1.47581 0.552962 0
M  V30 244 C 24.5816 -2.27997 -0.234533 0
M  V30 245 C 25.5946 -1.36753 -0.883321 0
M  V30 246 O 26.7836 -1.61612 -0.757889 0
M  V30 247 C 23.8836 -3.10879 -1.34935 0
M  V30 248 C 23.0566 -4.30056 -0.798158 0
M  V30 249 C 22.1156 -4.94567 -1.79694 0
M  V30 250 O 21.1416 -5.53087 -1.34474 0
M  V30 251 N 22.3436 -4.88878 -3.13015 0
M  V30 252 H 25.1086 -2.96222 0.455255 0
M  V30 253 H 22.6696 -1.57163 0.388761 0
M  V30 254 H 24.6616 -3.50903 -2.01616 0
M  V30 255 H 23.2316 -2.44924 -1.94244 0
M  V30 256 H 22.4516 -3.94174 0.0453079 0
M  V30 257 H 23.7396 -5.07152 -0.409173 0
M  V30 258 H 23.1376 -4.42526 -3.52402 0
M  V30 259 H 21.6946 -5.32934 -3.75266 0
M  V30 260 N 25.1277 -0.289203 -1.54924 0
M  V30 261 C 26.3527 0.329299 -2.04769 0
M  V30 262 C 26.7777 1.4763 -1.16564 0
M  V30 263 O 26.1357 1.80527 -0.167186 0
M  V30 264 C 26.1837 0.774438 -3.52186 0
M  V30 265 O 25.2877 1.88038 -3.67036 0
M  V30 266 H 24.6287 0.0659259 -0.660719 0
M  V30 267 H 27.1587 -0.42761 -2.00082 0
M  V30 268 H 27.1687 1.06642 -3.93816 0
M  V30 269 H 25.8437 -0.0646707 -4.1585 0
M  V30 270 H 24.4207 1.58985 -3.3731 0
M  V30 271 N 26.6058 1.57591 -0.0167156 0
M  V30 272 C 27.8548 1.90461 0.663877 0
M  V30 273 C 28.1678 0.893515 1.73999 0
M  V30 274 O 29.3738 1.11302 2.47637 0
M  V30 275 C 27.8298 3.38155 1.23204 0
M  V30 276 C 27.4378 4.47597 0.189866 0
M  V30 277 C 29.1818 3.80111 1.88986 0
M  V30 278 C 27.0888 5.86379 0.768964 0
M  V30 279 H 26.0188 0.710738 0.251729 0
M  V30 280 H 28.6698 1.83326 -0.0799926 0
M  V30 281 H 27.0518 3.40182 2.02712 0
M  V30 282 H 28.2258 4.57112 -0.581846 0
M  V30 283 H 26.5408 4.14766 -0.368475 0
M  V30 284 H 29.1378 4.81145 2.33247 0
M  V30 285 H 29.4808 3.14511 2.72743 0
M  V30 286 H 30.0138 3.80454 1.16187 0
M  V30 287 H 26.7528 6.55493 -0.0301957 0
M  V30 288 H 26.2728 5.80496 1.50945 0
M  V30 289 H 27.9518 6.34563 1.26251 0
M  V30 290 N 28.0839 -0.256276 1.55502 0
M  V30 291 C 29.3089 -1.00766 1.81276 0
M  V30 292 C 29.7339 -1.78524 0.59252 0
M  V30 293 O 29.0919 -1.75413 -0.45827 0
M  V30 294 C 29.1399 -1.92869 3.04687 0
M  V30 295 O 28.2439 -3.019 2.80945 0
M  V30 296 H 27.5849 -0.287224 0.598664 0
M  V30 297 H 30.1149 -0.280109 2.02674 0
M  V30 298 H 30.1249 -2.34511 3.33869 0
M  V30 299 H 28.7999 -1.35689 3.93143 0
M  V30 300 H 27.3769 -2.64454 2.62904 0
M  V30 301 N 29.562 -1.4872 -0.521534 0
M  V30 302 C 30.525 -1.63379 -1.60748 0
M  V30 303 C 31.525 -0.50661 -1.52611 0
M  V30 304 O 32.715 -0.772601 -1.5613 0
M  V30 305 C 29.847 -1.61192 -3.00383 0
M  V30 306 H 31.04 -2.60217 -1.49087 0
M  V30 307 H 28.593 -1.37444 -0.744235 0
M  V30 308 H 29.328 -0.65863 -3.17541 0
M  V30 309 H 29.113 -2.43032 -3.07698 0
M  V30 310 H 30.603 -1.7466 -3.7932 0
M  V30 311 N 31.0401 0.771051 -1.3745 0
M  V30 312 C 32.3171 1.519 -1.23231 0
M  V30 313 C 32.6971 2.10383 0.173809 0
M  V30 314 O 32.0451 1.95583 1.18151 0
M  V30 315 C 32.2551 2.59933 -2.32886 0
M  V30 316 C 33.6031 3.27316 -2.70461 0
M  V30 317 O 34.6271 2.70228 -2.32068 0
M  V30 318 O 33.4861 4.30531 -3.36608 0
M  V30 319 H 30.5801 0.672803 -0.480901 0
M  V30 320 H 33.1261 0.807957 -1.49232 0
M  V30 321 H 31.8981 2.14842 -3.27045 0
M  V30 322 H 31.5211 3.38637 -2.08353 0
M  V30 323 N 32.5182 1.22032 0.997298 0
M  V30 324 C 33.7952 0.950823 1.70935 0
M  V30 325 C 34.1752 -0.535292 2.042 0
M  V30 326 O 33.5232 -1.50217 1.72183 0
M  V30 327 C 33.7332 1.84386 2.96315 0
M  V30 328 C 35.0812 2.09732 3.69185 0
M  V30 329 O 36.1052 1.81798 3.06314 0
M  V30 330 O 34.9642 2.57018 4.82291 0
M  V30 331 H 32.0582 0.357204 0.745878 0
M  V30 332 H 34.6042 1.32997 1.05404 0
M  V30 333 H 33.3762 2.84928 2.68201 0
M  V30 334 H 32.9992 1.46602 3.69586 0
M  V30 335 N 33.9963 -1.19345 1.0293 0
M  V30 336 C 35.2213 -1.93538 0.745511 0
M  V30 337 C 35.6463 -1.75007 -0.689511 0
M  V30 338 O 35.0043 -1.05265 -1.47611 0
M  V30 339 C 35.0523 -3.43336 1.10239 0
M  V30 340 O 34.1563 -4.11806 0.221289 0
M  V30 341 H 33.4973 -0.604193 0.275404 0
M  V30 342 H 36.0273 -1.5141 1.37609 0
M  V30 343 H 36.0373 -3.94004 1.05947 0
M  V30 344 H 34.7123 -3.56146 2.14786 0
M  V30 345 H 33.2893 -3.715 0.322842 0
M  V30 346 N 35.4744 -0.807222 -1.35358 0
M  V30 347 C 36.7214 -0.387888 -1.9875 0
M  V30 348 C 37.0494 1.04509 -1.64037 0
M  V30 349 O 36.3044 1.73986 -0.895946 0
M  V30 350 C 36.6034 -0.519036 -3.53611 0
M  V30 351 C 36.2694 -1.91542 -4.08194 0
M  V30 352 C 34.9314 -2.29745 -4.22813 0
M  V30 353 C 37.2834 -2.82896 -4.37744 0
M  V30 354 C 34.6114 -3.58668 -4.643 0
M  V30 355 C 36.9634 -4.11265 -4.8067 0
M  V30 356 C 35.6274 -4.49466 -4.93494 0
M  V30 357 H 34.8974 -0.141938 -0.727279 0
M  V30 358 H 37.5444 -1.02814 -1.6156 0
M  V30 359 H 35.8494 0.204658 -3.91265 0
M  V30 360 H 37.5464 -0.175345 -4.00616 0
M  V30 361 H 34.1364 -1.60862 -3.97268 0
M  V30 362 H 38.3204 -2.54629 -4.26002 0
M  V30 363 H 33.5764 -3.88113 -4.72418 0
M  V30 364 H 37.7504 -4.82153 -5.02496 0
M  V30 365 H 35.3774 -5.49418 -5.25399 0
M  V30 366 N 36.9525 1.47285 -0.560781 0
M  V30 367 C 38.1825 2.06555 -0.0429638 0
M  V30 368 C 38.5905 1.41339 1.25777 0
M  V30 369 O 37.9335 0.505182 1.76617 0
M  V30 370 C 37.9955 3.58827 0.219887 0
M  V30 371 C 37.6595 4.46105 -0.991944 0
M  V30 372 C 38.6565 4.84 -1.89843 0
M  V30 373 C 36.3415 4.87567 -1.20762 0
M  V30 374 C 38.3355 5.6216 -3.00425 0
M  V30 375 C 36.0225 5.65491 -2.31653 0
M  V30 376 C 37.0205 6.02699 -3.21315 0
M  V30 377 O 36.7085 6.79052 -4.30283 0
M  V30 378 H 36.4405 0.674537 -0.0444468 0
M  V30 379 H 38.9945 1.90225 -0.774818 0
M  V30 380 H 37.2245 3.73383 1.00609 0
M  V30 381 H 38.9135 4.00103 0.683522 0
M  V30 382 H 39.6795 4.52564 -1.74387 0
M  V30 383 H 35.5585 4.5807 -0.518893 0
M  V30 384 H 39.1025 5.9112 -3.70436 0
M  V30 385 H 34.9995 5.9634 -2.47081 0
M  V30 386 H 35.7675 6.9745 -4.28376 0
M  V30 387 N 38.4306 0.297415 1.54768 0
M  V30 388 C 39.3606 -0.573494 2.26348 0
M  V30 389 C 40.3416 -1.14085 1.26169 0
M  V30 390 O 41.5266 -1.17086 1.54934 0
M  V30 391 C 38.6566 -1.74716 3.00153 0
M  V30 392 C 37.6106 -1.31032 4.07449 0
M  V30 393 C 36.9366 -2.56887 4.68949 0
M  V30 394 C 38.2366 -0.444183 5.20408 0
M  V30 395 H 39.9306 0.0235131 2.99391 0
M  V30 396 H 37.4766 0.0127488 1.43994 0
M  V30 397 H 39.4296 -2.3625 3.48947 0
M  V30 398 H 38.1536 -2.37035 2.24682 0
M  V30 399 H 36.8126 -0.718066 3.59499 0
M  V30 400 H 36.4606 -3.17512 3.90122 0
M  V30 401 H 36.1606 -2.2836 5.41411 0
M  V30 402 H 37.6846 -3.19229 5.20505 0
M  V30 403 H 39.0986 -0.9651 5.65118 0
M  V30 404 H 37.4956 -0.252846 5.99567 0
M  V30 405 H 38.5656 0.531609 4.81977 0
M  V30 406 N 39.9087 -1.5758 0.0250728 0
M  V30 407 C 40.8717 -2.08896 -0.943139 0
M  V30 408 C 41.8717 -1.00321 -1.25668 0
M  V30 409 O 43.0617 -1.26495 -1.19769 0
M  V30 410 C 40.1937 -2.55143 -2.26086 0
M  V30 411 H 41.3867 -2.95723 -0.498775 0
M  V30 412 H 38.9397 -1.54703 -0.222888 0
M  V30 413 H 39.6747 -1.71633 -2.75159 0
M  V30 414 H 39.4597 -3.34461 -2.04641 0
M  V30 415 H 40.9497 -2.95083 -2.95492 0
M  V30 416 N 41.3868 0.248026 -1.55636 0
M  V30 417 C 42.3188 1.32993 -1.8667 0
M  V30 418 C 43.3318 1.44345 -0.752877 0
M  V30 419 O 44.5208 1.45715 -1.03098 0
M  V30 420 C 41.6208 2.70863 -2.03682 0
M  V30 421 C 40.7938 2.81792 -3.34532 0
M  V30 422 C 39.8528 4.005 -3.41301 0
M  V30 423 O 38.8788 3.9008 -4.14519 0
M  V30 424 N 40.0808 5.13618 -2.70512 0
M  V30 425 H 42.8458 1.06707 -2.8006 0
M  V30 426 H 40.4068 0.438129 -1.55859 0
M  V30 427 H 42.3988 3.48612 -2.05553 0
M  V30 428 H 40.9688 2.89862 -1.17041 0
M  V30 429 H 40.1888 1.90729 -3.44987 0
M  V30 430 H 41.4768 2.86043 -4.20781 0
M  V30 431 H 40.8748 5.24975 -2.10755 0
M  V30 432 H 39.4318 5.89505 -2.78077 0
M  V30 433 N 42.8649 1.48995 0.513639 0
M  V30 434 C 43.7949 1.67636 1.62544 0
M  V30 435 C 44.7759 0.525087 1.61793 0
M  V30 436 O 45.9609 0.759502 1.78732 0
M  V30 437 C 43.0909 1.73114 3.01079 0
M  V30 438 C 42.0449 2.87905 3.16693 0
M  V30 439 C 41.3709 2.78486 4.56453 0
M  V30 440 C 42.6709 4.29005 2.97913 0
M  V30 441 H 44.3649 2.60716 1.47198 0
M  V30 442 H 41.9109 1.25465 0.706714 0
M  V30 443 H 43.8639 1.84742 3.78746 0
M  V30 444 H 42.5879 0.766241 3.17484 0
M  V30 445 H 41.2469 2.75859 2.41448 0
M  V30 446 H 40.8949 1.7993 4.69717 0
M  V30 447 H 40.5949 3.55523 4.67843 0
M  V30 448 H 42.1189 2.92104 5.36197 0
M  V30 449 H 43.5329 4.41798 3.65359 0
M  V30 450 H 41.9299 5.07166 3.20785 0
M  V30 451 H 42.9999 4.44329 1.94165 0
M  V30 452 N 44.343 -0.763751 1.37857 0
M  V30 453 C 45.759 -1.06542 1.18832 0
M  V30 454 C 45.959 -2.01478 0.0299722 0
M  V30 455 O 45.015 -2.4458 -0.627447 0
M  V30 456 C 46.328 -1.65525 2.51042 0
M  V30 457 C 47.876 -1.77745 2.57635 0
M  V30 458 C 48.351 -2.4014 3.89996 0
M  V30 459 N 49.842 -2.47582 3.91481 0
M  V30 460 C 50.577 -2.96732 4.9065 0
M  V30 461 N 50.073 -3.45993 6.00217 0
M  V30 462 N 51.866 -2.95679 4.78048 0
M  V30 463 H 44.017 -0.133556 2.1198 0
M  V30 464 H 46.28 -0.121879 0.940133 0
M  V30 465 H 45.986 -1.03236 3.36207 0
M  V30 466 H 45.86 -2.64719 2.68707 0
M  V30 467 H 48.247 -2.39164 1.72872 0
M  V30 468 H 48.328 -0.772836 2.43846 0
M  V30 469 H 47.972 -1.79358 4.75177 0
M  V30 470 H 47.902 -3.41223 4.01092 0
M  V30 471 H 50.393 -2.1273 3.12337 0
M  V30 472 H 50.706 -3.81922 6.7183 0
M  V30 473 H 49.051 -3.44077 6.03851 0
M  V30 474 H 52.242 -2.56499 3.91568 0
M  V30 475 H 52.415 -3.33672 5.55488 0
M  V30 476 N 45.8211 -1.22559 -0.990812 0
M  V30 477 C 47.2371 -0.985996 -1.255 0
M  V30 478 C 47.4371 0.319173 -1.98956 0
M  V30 479 O 46.4931 1.04127 -2.3003 0
M  V30 480 C 47.8061 -2.18607 -2.06474 0
M  V30 481 C 49.3541 -2.22985 -2.19651 0
M  V30 482 C 49.8291 -3.4255 -3.04012 0
M  V30 483 N 51.3201 -3.42725 -3.11599 0
M  V30 484 C 52.0551 -4.31892 -3.7717 0
M  V30 485 N 51.5511 -5.31279 -4.44651 0
M  V30 486 N 53.3441 -4.19662 -3.73952 0
M  V30 487 H 45.4951 -2.06469 -0.49841 0
M  V30 488 H 47.7581 -0.904853 -0.282747 0
M  V30 489 H 47.4641 -3.13267 -1.59865 0
M  V30 490 H 47.3381 -2.18838 -3.07229 0
M  V30 491 H 49.7251 -1.28871 -2.65474 0
M  V30 492 H 49.8061 -2.26791 -1.18319 0
M  V30 493 H 49.4501 -4.36965 -2.58889 0
M  V30 494 H 49.3801 -3.35984 -4.0549 0
M  V30 495 H 51.8711 -2.70807 -2.63575 0
M  V30 496 H 52.1841 -5.95593 -4.92431 0
M  V30 497 H 50.5291 -5.3519 -4.43392 0
M  V30 498 H 53.7201 -3.41268 -3.20396 0
M  V30 499 H 53.8931 -4.89358 -4.24774 0
M  V30 500 N 47.2992 1.18797 -1.03562 0
M  V30 501 C 48.2092 2.25913 -0.632505 0
M  V30 502 C 49.2252 1.70668 0.338882 0
M  V30 503 O 50.4012 2.00453 0.195076 0
M  V30 504 C 47.4662 3.467 0.00350942 0
M  V30 505 C 46.5272 4.17098 -1.01624 0
M  V30 506 C 45.7602 5.32119 -0.410478 0
M  V30 507 O 45.9832 5.64976 0.784725 0
M  V30 508 O 44.9172 5.9107 -1.13667 0
M  V30 509 H 48.7432 2.62648 -1.52478 0
M  V30 510 H 46.3282 1.25781 -0.806195 0
M  V30 511 H 48.2102 4.19878 0.35781 0
M  V30 512 H 46.8852 3.11798 0.869686 0
M  V30 513 H 45.7922 3.4601 -1.42224 0
M  V30 514 H 47.1252 4.55987 -1.85301 0
M  V30 515 N 48.7773 0.814389 1.34928 0
M  V30 516 C 50.0053 0.411136 2.02774 0
M  V30 517 C 50.4203 -0.980316 1.61354 0
M  V30 518 O 49.7773 -1.63299 0.814847 0
M  V30 519 C 49.8283 0.493865 3.58111 0
M  V30 520 O 49.5493 1.83047 3.98027 0
M  V30 521 C 51.0503 0.0844174 4.4322 0
M  V30 522 H 48.2703 0.166037 0.650133 0
M  V30 523 H 50.8143 1.10018 1.72384 0
M  V30 524 H 48.9693 -0.147006 3.87121 0
M  V30 525 H 49.3833 1.79872 4.92693 0
M  V30 526 H 50.8573 0.193404 5.51661 0
M  V30 527 H 51.3343 -0.97113 4.28329 0
M  V30 528 H 51.9403 0.69875 4.19521 0
M  V30 529 N 50.2554 -1.46986 0.568584 0
M  V30 530 C 51.2184 -2.28624 -0.162366 0
M  V30 531 C 52.2184 -1.37596 -0.832103 0
M  V30 532 O 53.4084 -1.60115 -0.68622 0
M  V30 533 C 50.5404 -3.17596 -1.23878 0
M  V30 534 H 51.7334 -2.94722 0.554899 0
M  V30 535 H 49.2864 -1.52863 0.325976 0
M  V30 536 H 50.0214 -2.56214 -1.98808 0
M  V30 537 H 49.8064 -3.846 -0.763219 0
M  V30 538 H 51.2964 -3.79078 -1.75185 0
M  V30 539 N 51.7335 -0.305618 -1.54608 0
M  V30 540 C 52.6835 0.583595 -2.20405 0
M  V30 541 C 53.6675 1.09539 -1.17856 0
M  V30 542 O 54.8595 1.0354 -1.43557 0
M  V30 543 C 51.9885 1.75277 -2.95183 0
M  V30 544 C 51.0745 1.25672 -4.05052 0
M  V30 545 N 51.4655 0.478998 -5.03527 0
M  V30 546 C 49.7635 1.53704 -4.18678 0
M  V30 547 C 50.4645 0.214269 -5.81305 0
M  V30 548 N 49.4405 0.795374 -5.3775 0
M  V30 549 H 53.2425 -0.0180946 -2.93894 0
M  V30 550 H 50.7565 -0.110601 -1.62023 0
M  V30 551 H 52.7535 2.4014 -3.40791 0
M  V30 552 H 51.4135 2.35812 -2.23211 0
M  V30 553 H 52.4245 0.123473 -5.17753 0
M  V30 554 H 49.1015 2.14954 -3.57912 0
M  V30 555 H 50.4915 -0.410656 -6.70644 0
M  V30 556 N 53.2116 1.57565 -0.0334293 0
M  V30 557 C 54.1416 2.13511 0.945265 0
M  V30 558 C 55.1226 1.05231 1.33643 0
M  V30 559 O 56.3076 1.33084 1.41429 0
M  V30 560 C 53.4376 2.6657 2.22616 0
M  V30 561 C 52.3916 3.79676 1.97561 0
M  V30 562 C 51.7176 4.1918 3.31952 0
M  V30 563 C 53.0176 5.0557 1.31135 0
M  V30 564 H 54.7116 2.95538 0.479325 0
M  V30 565 H 52.2576 1.42166 0.229115 0
M  V30 566 H 54.2106 3.04344 2.91466 0
M  V30 567 H 52.9346 1.8171 2.71384 0
M  V30 568 H 51.5936 3.42347 1.31127 0
M  V30 569 H 51.2416 3.31296 3.78487 0
M  V30 570 H 50.9416 4.95402 3.15992 0
M  V30 571 H 52.4656 4.59541 4.02063 0
M  V30 572 H 53.8796 5.40903 1.89992 0
M  V30 573 H 52.2766 5.86818 1.25559 0
M  V30 574 H 53.3466 4.84062 0.284894 0
M  V30 575 N 54.6897 -0.239769 1.55765 0
M  V30 576 C 56.1007 -0.808263 1.68297 0
M  V30 577 C 56.4517 -1.85736 0.632181 0
M  V30 578 O 55.5767 -2.15277 -0.220204 0
M  V30 579 C 56.1717 -1.47284 3.05111 0
M  V30 580 C 54.7307 -1.98895 3.19559 0
M  V30 581 C 53.8777 -0.842575 2.64189 0
M  V30 582 H 56.8287 -0.0154422 1.58692 0
M  V30 583 H 56.8497 -2.34111 2.99954 0
M  V30 584 H 56.3617 -0.709053 3.81568 0
M  V30 585 H 54.4627 -2.78132 2.47938 0
M  V30 586 H 54.5757 -2.18143 4.26556 0
M  V30 587 H 52.9397 -1.24501 2.22197 0
M  V30 588 H 53.7227 -0.0917552 3.43177 0
M  V30 589 N 56.1678 -1.49265 -0.50573 0
M  V30 590 C 57.4158 -1.582 -1.25766 0
M  V30 591 C 57.7368 -0.268482 -1.93143 0
M  V30 592 O 57.0068 0.711833 -1.8251 0
M  V30 593 H 55.5868 -0.582873 -0.467191 0
M  V30 594 H 58.2488 -1.85865 -0.586525 0
M  V30 595 H 57.3448 -2.37563 -2.02412 0
M  V30 596 N 57.6459 0.756429 -1.3826 0
M  V30 597 C 58.6089 1.85176 -1.35065 0
M  V30 598 C 59.6089 1.58818 -0.251703 0
M  V30 599 O 60.7989 1.66615 -0.508433 0
M  V30 600 C 57.9309 3.22596 -1.10201 0
M  V30 601 H 59.1239 1.89417 -2.3251 0
M  V30 602 H 56.6769 0.95783 -1.23512 0
M  V30 603 H 57.4119 3.24025 -0.133504 0
M  V30 604 H 57.1969 3.43122 -1.89762 0
M  V30 605 H 58.6869 4.02673 -1.10654 0
M  V30 606 N 59.124 1.23083 0.984299 0
M  V30 607 C 60.535 1.05609 1.5396 0
M  V30 608 C 60.886 -0.377793 1.92528 0
M  V30 609 O 60.011 -1.26398 1.75649 0
M  V30 610 C 60.606 1.91087 2.7977 0
M  V30 611 C 59.165 1.77885 3.31713 0
M  V30 612 C 58.312 1.87028 2.04733 0
M  V30 613 H 61.263 1.36802 0.804419 0
M  V30 614 H 61.284 1.43336 3.5247 0
M  V30 615 H 60.796 2.9544 2.51668 0
M  V30 616 H 58.897 0.762995 3.64704 0
M  V30 617 H 59.01 2.61047 4.01735 0
M  V30 618 H 57.374 1.30565 2.18689 0
M  V30 619 H 58.157 2.92929 1.79017 0
M  V30 620 N 60.6021 -1.18246 1.0419 0
M  V30 621 C 61.5351 -2.20746 0.578474 0
M  V30 622 C 62.5131 -1.57912 -0.387624 0
M  V30 623 O 63.6971 -1.86071 -0.301634 0
M  V30 624 C 60.8241 -3.38346 -0.154762 0
M  V30 625 C 59.8701 -4.19587 0.764782 0
M  V30 626 S 60.7031 -4.86014 2.24835 0
M  V30 627 C 61.8591 -6.07012 1.526 0
M  V30 628 H 62.0921 -2.59715 1.44691 0
M  V30 629 H 59.6251 -1.287 0.85297 0
M  V30 630 H 61.5831 -4.065 -0.571641 0
M  V30 631 H 60.2441 -2.97786 -0.999105 0
M  V30 632 H 59.4371 -5.03611 0.197976 0
M  V30 633 H 59.0391 -3.56818 1.12057 0
M  V30 634 H 61.3311 -6.72523 0.819733 0
M  V30 635 H 62.2741 -6.68202 2.34333 0
M  V30 636 H 62.6821 -5.55249 1.01779 0
M  V30 637 N 62.0802 -0.821533 -1.34494 0
M  V30 638 C 63.0122 -0.199946 -2.28326 0
M  V30 639 C 64.0252 0.609377 -1.50965 0
M  V30 640 O 65.2142 0.439285 -1.7301 0
M  V30 641 C 62.3142 0.738431 -3.30757 0
M  V30 642 C 61.4872 -0.0277632 -4.37391 0
M  V30 643 C 60.5462 0.831332 -5.19591 0
M  V30 644 O 59.5722 0.276822 -5.68526 0
M  V30 645 N 60.7742 2.15132 -5.39165 0
M  V30 646 H 63.5392 -1.00609 -2.82308 0
M  V30 647 H 61.1002 -0.678366 -1.47003 0
M  V30 648 H 63.0922 1.31773 -3.82646 0
M  V30 649 H 61.6622 1.44533 -2.7718 0
M  V30 650 H 60.8822 -0.788359 -3.86236 0
M  V30 651 H 62.1702 -0.555251 -5.05761 0
M  V30 652 H 61.5682 2.62559 -5.01078 0
M  V30 653 H 60.1252 2.6795 -5.94177 0
M  V30 654 N 63.5583 1.46682 -0.576371 0
M  V30 655 C 64.8073 2.01619 -0.0572825 0
M  V30 656 C 65.1203 1.45417 1.30818 0
M  V30 657 O 66.3263 1.92133 1.91825 0
M  V30 658 C 64.7823 3.59863 -0.0518371 0
M  V30 659 C 64.3903 4.25059 -1.41523 0
M  V30 660 C 66.1343 4.2248 0.413639 0
M  V30 661 C 64.0413 5.75364 -1.36785 0
M  V30 662 H 62.9713 0.753794 -0.0176448 0
M  V30 663 H 65.6223 1.68481 -0.727076 0
M  V30 664 H 64.0043 3.90048 0.683994 0
M  V30 665 H 65.1783 4.06491 -2.17029 0
M  V30 666 H 63.4933 3.7451 -1.8202 0
M  V30 667 H 66.0903 5.3265 0.467779 0
M  V30 668 H 66.4333 3.90976 1.42982 0
M  V30 669 H 66.9663 3.96897 -0.267929 0
M  V30 670 H 63.7053 6.11518 -2.36063 0
M  V30 671 H 63.2253 5.96214 -0.654895 0
M  V30 672 H 64.9043 6.37955 -1.07805 0
M  V30 673 N 65.0364 0.313813 1.54444 0
M  V30 674 C 66.2614 -0.296681 2.05267 0
M  V30 675 C 66.6864 -1.45757 1.18897 0
M  V30 676 O 66.0444 -1.80239 0.195886 0
M  V30 677 C 66.0924 -0.71831 3.53373 0
M  V30 678 O 65.1964 -1.82175 3.69981 0
M  V30 679 H 64.5374 -0.0554061 0.661684 0
M  V30 680 H 67.0674 0.459387 1.99376 0
M  V30 681 H 67.0774 -1.00364 3.95463 0
M  V30 682 H 65.7524 0.130821 4.15694 0
M  V30 683 H 64.3294 -1.53598 3.39797 0
M  V30 684 N 66.5145 -1.57545 0.0417849 0
M  V30 685 C 67.9255 -1.80011 -0.495259 0
M  V30 686 C 68.2765 -0.953199 -1.71489 0
M  V30 687 O 67.4015 -0.167138 -2.15754 0
M  V30 688 C 67.9965 -3.26482 -0.905265 0
M  V30 689 C 66.5555 -3.499 -1.38734 0
M  V30 690 C 65.7025 -2.74979 -0.358056 0
M  V30 691 H 68.6535 -1.56425 0.267736 0
M  V30 692 H 68.6745 -3.36887 -1.76882 0
M  V30 693 H 68.1865 -3.88096 -0.017401 0
M  V30 694 H 66.2875 -2.93553 -2.29471 0
M  V30 695 H 66.4005 -4.58615 -1.38598 0
M  V30 696 H 64.7645 -2.40834 -0.828912 0
M  V30 697 H 65.5475 -3.39315 0.521561 0
M  V30 698 N 67.9926 0.231505 -1.5589 0
M  V30 699 C 68.9026 1.308 -1.94752 0
M  V30 700 C 69.9186 1.51826 -0.849989 0
M  V30 701 O 71.0946 1.6515 -1.15271 0
M  V30 702 C 68.1596 2.63968 -2.24771 0
M  V30 703 C 67.2206 2.51331 -3.48039 0
M  V30 704 C 66.4536 3.78148 -3.76616 0
M  V30 705 O 66.6766 4.80722 -3.07022 0
M  V30 706 O 65.6106 3.75857 -4.70123 0
M  V30 707 H 69.4366 1.0083 -2.86474 0
M  V30 708 H 67.0216 0.433547 -1.42971 0
M  V30 709 H 68.9036 3.42633 -2.45318 0
M  V30 710 H 67.5786 2.9364 -1.36225 0
M  V30 711 H 66.4856 1.709 -3.32782 0
M  V30 712 H 67.8186 2.26601 -4.36936 0
M  V30 713 N 69.4707 1.49531 0.497807 0
M  V30 714 C 70.4027 1.62559 1.61578 0
M  V30 715 C 71.4157 0.508134 1.54667 0
M  V30 716 O 72.6047 0.780309 1.60541 0
M  V30 717 C 69.7047 1.56925 3.00379 0
M  V30 718 C 68.8777 2.84257 3.3244 0
M  V30 719 C 67.9367 2.71632 4.50669 0
M  V30 720 O 66.9627 3.4557 4.52294 0
M  V30 721 N 68.1647 1.83391 5.5077 0
M  V30 722 H 70.9297 2.58981 1.50828 0
M  V30 723 H 68.4907 1.4666 0.685743 0
M  V30 724 H 70.4827 1.46129 3.77397 0
M  V30 725 H 69.0527 0.683483 3.05037 0
M  V30 726 H 68.2727 3.09381 2.44289 0
M  V30 727 H 69.5607 3.68666 3.5066 0
M  V30 728 H 68.9587 1.22583 5.52259 0
M  V30 729 H 67.5157 1.78515 6.26878 0
M  V30 730 N 70.9488 -0.749086 1.3866 0
M  V30 731 C 71.9118 -1.84457 1.36045 0
M  V30 732 C 72.9118 -1.58682 0.260122 0
M  V30 733 O 74.1018 -1.66343 0.517261 0
M  V30 734 C 71.2338 -3.22008 1.11911 0
M  V30 735 H 72.4268 -1.88182 2.33512 0
M  V30 736 H 69.9798 -0.951266 1.24019 0
M  V30 737 H 70.7148 -3.2395 0.150686 0
M  V30 738 H 70.4998 -3.42111 1.91579 0
M  V30 739 H 71.9898 -4.0208 1.12788 0
M  V30 740 N 72.4269 -1.23603 -0.977757 0
M  V30 741 C 73.3589 -0.977369 -2.07317 0
M  V30 742 C 74.3719 0.0495845 -1.62724 0
M  V30 743 O 75.5609 -0.186261 -1.77526 0
M  V30 744 C 72.6609 -0.451216 -3.35883 0
M  V30 745 C 71.8339 -1.53896 -4.09432 0
M  V30 746 C 70.8929 -1.01721 -5.16274 0
M  V30 747 O 69.9189 -1.70676 -5.43009 0
M  V30 748 N 71.1209 0.153594 -5.80297 0
M  V30 749 H 73.8859 -1.92047 -2.30082 0
M  V30 750 H 71.4469 -1.14497 -1.14465 0
M  V30 751 H 73.4389 -0.0871574 -4.04606 0
M  V30 752 H 72.0089 0.397368 -3.10064 0
M  V30 753 H 71.2289 -2.07566 -3.35127 0
M  V30 754 H 72.5169 -2.27037 -4.55337 0
M  V30 755 H 71.9149 0.730323 -5.60966 0
M  V30 756 H 70.4719 0.458892 -6.50183 0
M  V30 757 N 73.905 1.17692 -1.04816 0
M  V30 758 C 75.152 1.87859 -0.75599 0
M  V30 759 C 75.48 1.80812 0.716752 0
M  V30 760 O 74.735 1.20819 1.53952 0
M  V30 761 C 75.034 3.37462 -1.17703 0
M  V30 762 C 74.7 3.64713 -2.65133 0
M  V30 763 C 73.362 3.71859 -3.05408 0
M  V30 764 C 75.714 3.76492 -3.60421 0
M  V30 765 C 73.042 3.88271 -4.39843 0
M  V30 766 C 75.394 3.94421 -4.94585 0
M  V30 767 C 74.058 3.99806 -5.3452 0
M  V30 768 H 73.328 0.687425 -0.276636 0
M  V30 769 H 75.975 1.39255 -1.31455 0
M  V30 770 H 74.28 3.88097 -0.537395 0
M  V30 771 H 75.977 3.90109 -0.928218 0
M  V30 772 H 72.567 3.59772 -2.32942 0
M  V30 773 H 76.751 3.70295 -3.30447 0
M  V30 774 H 72.007 3.90687 -4.70291 0
M  V30 775 H 76.181 4.02477 -5.68318 0
M  V30 776 H 73.808 4.12276 -6.38696 0
M  V30 777 N 75.3831 0.828654 1.34056 0
M  V30 778 C 76.3131 0.269443 2.3194 0
M  V30 779 C 77.2941 -0.617247 1.58506 0
M  V30 780 O 78.4791 -0.542931 1.86456 0
M  V30 781 C 75.6091 -0.564793 3.42677 0
M  V30 782 C 74.5631 0.225241 4.27407 0
M  V30 783 C 73.8891 -0.7321 5.29664 0
M  V30 784 C 75.1891 1.43663 5.02154 0
M  V30 785 H 76.8831 1.08728 2.7896 0
M  V30 786 H 74.4291 0.524283 1.34117 0
M  V30 787 H 76.3821 -0.966233 4.10173 0
M  V30 788 H 75.1061 -1.41574 2.9432 0
M  V30 789 H 73.7651 0.608117 3.61521 0
M  V30 790 H 73.4131 -1.57916 4.77568 0
M  V30 791 H 73.1131 -0.20767 5.87233 0
M  V30 792 H 74.6371 -1.13128 6.00029 0
M  V30 793 H 76.0511 1.1089 5.62473 0
M  V30 794 H 74.4481 1.89711 5.69324 0
M  V30 795 H 75.5181 2.21181 4.31517 0
M  V30 796 N 76.8612 -1.46375 0.584142 0
M  V30 797 C 78.1092 -2.01978 0.0701287 0
M  V30 798 C 78.4302 -1.4579 -1.295 0
M  V30 799 O 77.7002 -0.64314 -1.85042 0
M  V30 800 H 76.2802 -0.746648 0.0229345 0
M  V30 801 H 78.9422 -1.79461 0.760245 0
M  V30 802 H 78.0382 -3.121 0.0022064 0
M  V30 803 N 78.3393 -0.321999 -1.54275 0
M  V30 804 C 79.2693 0.537411 -2.27231 0
M  V30 805 C 80.2503 1.12064 -1.27968 0
M  V30 806 O 81.4353 1.14606 -1.56777 0
M  V30 807 C 78.5653 1.69919 -3.02894 0
M  V30 808 C 77.5193 1.24534 -4.09482 0
M  V30 809 C 76.8453 2.49394 -4.72977 0
M  V30 810 C 78.1453 0.361335 -5.21049 0
M  V30 811 H 79.8393 -0.0711406 -2.99315 0
M  V30 812 H 77.3853 -0.0356555 -1.43956 0
M  V30 813 H 79.3383 2.30668 -3.52662 0
M  V30 814 H 78.0623 2.33431 -2.28424 0
M  V30 815 H 76.7213 0.660782 -3.60596 0
M  V30 816 H 76.3693 3.11265 -3.95124 0
M  V30 817 H 76.0693 2.19718 -5.44975 0
M  V30 818 H 77.5933 3.10908 -5.25517 0
M  V30 819 H 79.0073 0.875072 -5.66582 0
M  V30 820 H 77.4043 0.157428 -5.99893 0
M  V30 821 H 78.4743 -0.60822 -4.8107 0
M  V30 822 N 79.8174 1.5752 -0.0501392 0
M  V30 823 C 80.7474 2.14502 0.922566 0
M  V30 824 C 81.7284 1.06642 1.3252 0
M  V30 825 O 82.9134 1.34577 1.4001 0
M  V30 826 C 80.0434 2.68916 2.19776 0
M  V30 827 C 78.9974 3.8175 1.93523 0
M  V30 828 C 78.3234 4.22677 3.27487 0
M  V30 829 C 79.6234 5.06932 1.25765 0
M  V30 830 H 81.3174 2.9603 0.447952 0
M  V30 831 H 78.8634 1.42401 0.214024 0
M  V30 832 H 80.8164 3.07419 2.88222 0
M  V30 833 H 79.5404 1.84578 2.69441 0
M  V30 834 H 78.1994 3.43718 1.27489 0
M  V30 835 H 77.8474 3.35291 3.74952 0
M  V30 836 H 77.5474 4.98725 3.1072 0
M  V30 837 H 79.0714 4.63779 3.97166 0
M  V30 838 H 80.4854 5.42888 1.84244 0
M  V30 839 H 78.8824 5.88116 1.19328 0
M  V30 840 H 79.9524 4.84337 0.233536 0
M  V30 841 N 81.2955 -0.223234 1.56011 0
M  V30 842 C 82.5445 -0.945912 1.78144 0
M  V30 843 C 82.8575 -1.85567 0.618396 0
M  V30 844 O 84.0635 -2.61688 0.723318 0
M  V30 845 C 82.5195 -1.73216 3.15475 0
M  V30 846 C 82.1275 -0.868619 4.39499 0
M  V30 847 C 83.8715 -2.44615 3.46935 0
M  V30 848 C 81.7785 -1.65212 5.67855 0
M  V30 849 H 80.7085 -0.356929 0.664167 0
M  V30 850 H 83.3595 -0.199845 1.82409 0
M  V30 851 H 81.7415 -2.52107 3.05382 0
M  V30 852 H 82.9155 -0.120366 4.60643 0
M  V30 853 H 81.2305 -0.26683 4.15544 0
M  V30 854 H 83.8275 -3.03732 4.40058 0
M  V30 855 H 84.1705 -3.17417 2.69355 0
M  V30 856 H 84.7035 -1.72715 3.58349 0
M  V30 857 H 81.4425 -0.967407 6.48322 0
M  V30 858 H 80.9625 -2.37503 5.50774 0
M  V30 859 H 82.6415 -2.21322 6.07968 0
M  V30 860 N 82.7736 -1.49793 -0.48987 0
M  V30 861 C 83.9986 -1.63836 -1.27172 0
M  V30 862 C 84.4236 -0.31402 -1.8546 0
M  V30 863 O 83.7816 0.719803 -1.66399 0
M  V30 864 C 83.8296 -2.71797 -2.36978 0
M  V30 865 O 82.9336 -2.31744 -3.41128 0
M  V30 866 H 82.2746 -0.547997 -0.37496 0
M  V30 867 H 84.8046 -1.96053 -0.585191 0
M  V30 868 H 84.8146 -2.94305 -2.82575 0
M  V30 869 H 83.4896 -3.67923 -1.93921 0
M  V30 870 H 82.0666 -2.1961 -3.01373 0
M  V30 871 N 84.2517 0.741722 -1.39055 0
M  V30 872 C 85.1817 1.869 -1.39966 0
M  V30 873 C 86.1627 1.6804 -0.26392 0
M  V30 874 O 87.3477 1.88458 -0.468755 0
M  V30 875 C 84.4777 3.24572 -1.23574 0
M  V30 876 C 83.4317 3.58056 -2.34477 0
M  V30 877 C 82.7577 4.94593 -2.0318 0
M  V30 878 C 84.0577 3.61716 -3.76774 0
M  V30 879 H 85.7517 1.86395 -2.34302 0
M  V30 880 H 83.2977 0.895361 -1.1278 0
M  V30 881 H 85.2507 4.031 -1.22834 0
M  V30 882 H 83.9747 3.25587 -0.257045 0
M  V30 883 H 82.6337 2.81854 -2.34423 0
M  V30 884 H 82.2817 4.92181 -1.03765 0
M  V30 885 H 81.9817 5.17964 -2.77465 0
M  V30 886 H 83.5057 5.75486 -2.04079 0
M  V30 887 H 84.9197 4.30335 -3.78794 0
M  V30 888 H 83.3167 3.96603 -4.50362 0
M  V30 889 H 84.3867 2.61672 -4.08235 0
M  V30 890 N 85.7298 1.2412 0.971189 0
M  V30 891 C 86.9578 1.10575 1.74874 0
M  V30 892 C 87.3728 -0.342017 1.85676 0
M  V30 893 O 86.7298 -1.23617 1.34258 0
M  V30 894 C 86.7808 1.73579 3.171 0
M  V30 895 O 86.5018 3.12695 3.06844 0
M  V30 896 C 88.0028 1.65598 4.11208 0
M  V30 897 H 85.2228 0.386504 0.548503 0
M  V30 898 H 87.7668 1.64156 1.21955 0
M  V30 899 H 85.9218 1.24009 3.67016 0
M  V30 900 H 86.3358 3.43412 3.96445 0
M  V30 901 H 87.8098 2.1437 5.08674 0
M  V30 902 H 88.2868 0.616532 4.34851 0
M  V30 903 H 88.8928 2.14578 3.67201 0
M  V30 904 N 87.2079 -1.17134 1.05439 0
M  V30 905 C 88.4559 -1.87085 0.764429 0
M  V30 906 C 88.7769 -1.81584 -0.710787 0
M  V30 907 O 88.0469 -1.24349 -1.51374 0
M  V30 908 H 86.6269 -0.692627 0.279779 0
M  V30 909 H 89.2889 -1.42087 1.33406 0
M  V30 910 H 88.3849 -2.92759 1.0816 0
M  V30 911 N 88.686 -0.835752 -1.33615 0
M  V30 912 C 89.649 -0.272 -2.2758 0
M  V30 913 C 90.649 0.557487 -1.50827 0
M  V30 914 O 91.839 0.37173 -1.70188 0
M  V30 915 C 88.971 0.617173 -3.35267 0
M  V30 916 H 90.164 -1.10111 -2.78954 0
M  V30 917 H 87.717 -0.608594 -1.43965 0
M  V30 918 H 88.452 1.46884 -2.89129 0
M  V30 919 H 88.237 0.0237066 -3.92093 0
M  V30 920 H 89.727 1.005 -4.05326 0
M  V30 921 N 90.1641 1.46063 -0.591896 0
M  V30 922 C 91.1111 2.30399 0.136069 0
M  V30 923 C 92.0811 1.41169 0.875238 0
M  V30 924 O 93.2661 1.70112 0.86409 0
M  V30 925 C 90.4061 3.25804 1.13781 0
M  V30 926 C 89.5191 4.30134 0.401137 0
M  V30 927 C 88.6541 5.12659 1.39121 0
M  V30 928 C 87.6931 6.0873 0.641462 0
M  V30 929 N 86.8301 6.8409 1.58004 0
M  V30 930 H 91.6701 2.92118 -0.589144 0
M  V30 931 H 89.2071 1.43959 -0.302342 0
M  V30 932 H 91.1651 3.79569 1.73156 0
M  V30 933 H 89.7951 2.65872 1.83062 0
M  V30 934 H 88.8471 3.79152 -0.307826 0
M  V30 935 H 90.1591 4.98458 -0.184565 0
M  V30 936 H 89.3131 5.70747 2.05749 0
M  V30 937 H 88.0521 4.44316 2.01084 0
M  V30 938 H 87.0571 5.49786 -0.0385419 0
M  V30 939 H 88.2821 6.79095 0.0270945 0
M  V30 940 H 86.2281 6.18449 2.18761 0
M  V30 941 H 86.1451 7.48709 1.04738 0
M  V30 942 H 87.4131 7.4673 2.23639 0
M  V30 943 N 91.6422 0.330177 1.54103 0
M  V30 944 C 92.5742 -0.566902 2.22079 0
M  V30 945 C 93.5872 -1.07462 1.22294 0
M  V30 946 O 94.7762 -0.987065 1.48726 0
M  V30 947 C 91.8762 -1.79138 2.87685 0
M  V30 948 C 91.0492 -1.42123 4.13666 0
M  V30 949 C 90.1082 -2.50394 4.62806 0
M  V30 950 O 89.1342 -2.14261 5.27334 0
M  V30 951 N 90.3362 -3.81433 4.37595 0
M  V30 952 H 93.1012 0.0151844 2.99696 0
M  V30 953 H 90.6622 0.153681 1.61169 0
M  V30 954 H 92.6542 -2.50975 3.1748 0
M  V30 955 H 91.2242 -2.28115 2.13734 0
M  V30 956 H 90.4442 -0.534201 3.90564 0
M  V30 957 H 91.7322 -1.14971 4.9564 0
M  V30 958 H 91.1302 -4.13584 3.8596 0
M  V30 959 H 89.6872 -4.4948 4.72029 0
M  V30 960 N 93.1203 -1.57491 0.0584922 0
M  V30 961 C 94.3663 -1.93264 -0.614558 0
M  V30 962 C 94.6993 -0.937717 -1.7006 0
M  V30 963 O 93.9743 0.0351652 -1.94468 0
M  V30 964 C 94.2573 -3.3938 -1.20386 0
M  V30 965 C 94.1103 -4.49625 -0.125375 0
M  V30 966 C 95.4293 -3.86039 -2.11334 0
M  V30 967 H 92.5483 -0.702791 -0.221933 0
M  V30 968 H 95.1903 -1.8961 0.12175 0
M  V30 969 H 93.3403 -3.42626 -1.83139 0
M  V30 970 H 95.0123 -4.58506 0.506971 0
M  V30 971 H 93.2553 -4.30354 0.545672 0
M  V30 972 H 93.9263 -5.48967 -0.577861 0
M  V30 973 H 96.4023 -3.84716 -1.58534 0
M  V30 974 H 95.2783 -4.88914 -2.49507 0
M  V30 975 H 95.5393 -3.23215 -3.01636 0
M  V30 976 N 94.5984 0.214957 -1.56127 0
M  V30 977 C 95.5284 1.2695 -1.95974 0
M  V30 978 C 96.5094 1.48539 -0.828868 0
M  V30 979 O 97.6944 1.60611 -1.09168 0
M  V30 980 C 94.8244 2.61794 -2.28214 0
M  V30 981 C 93.7784 2.54851 -3.43853 0
M  V30 982 C 93.1044 3.93785 -3.61715 0
M  V30 983 C 94.4044 2.09065 -4.78632 0
M  V30 984 H 96.0984 0.93846 -2.84312 0
M  V30 985 H 93.6444 0.449996 -1.36788 0
M  V30 986 H 95.5974 3.35731 -2.54682 0
M  V30 987 H 94.3214 2.96599 -1.36736 0
M  V30 988 H 92.9804 1.8337 -3.17444 0
M  V30 989 H 92.6284 4.25908 -2.67602 0
M  V30 990 H 92.3284 3.90019 -4.39498 0
M  V30 991 H 93.8524 4.69374 -3.90539 0
M  V30 992 H 95.2664 2.7275 -5.04262 0
M  V30 993 H 93.6634 2.16346 -5.59745 0
M  V30 994 H 94.7334 1.04315 -4.73547 0
M  V30 995 N 96.0765 1.50051 0.48192 0
M  V30 996 C 96.9865 1.7089 1.60728 0
M  V30 997 C 98.0025 0.591788 1.63627 0
M  V30 998 O 99.1785 0.868817 1.81696 0
M  V30 999 C 96.2435 1.78855 2.97005 0
M  V30 1000 C 95.3045 3.02537 3.04581 0
M  V30 1001 C 94.5375 3.10112 4.34357 0
M  V30 1002 O 94.7605 2.24765 5.24249 0
M  V30 1003 O 93.6945 4.02747 4.47301 0
M  V30 1004 H 97.5205 2.66264 1.46072 0
M  V30 1005 H 95.1055 1.34018 0.660264 0
M  V30 1006 H 96.9875 1.86336 3.77964 0
M  V30 1007 H 95.6625 0.866628 3.11883 0
M  V30 1008 H 94.5695 3.00563 2.22739 0
M  V30 1009 H 95.9025 3.94272 2.94636 0
M  V30 1010 N 97.5546 -0.734337 1.39446 0
M  V30 1011 C 98.8036 -1.48937 1.36017 0
M  V30 1012 C 99.1166 -1.95557 -0.0409005 0
M  V30 1013 O 100.323 -2.70779 -0.19778 0
M  V30 1014 C 98.7786 -2.69125 2.38955 0
M  V30 1015 C 98.3866 -2.29452 3.8478 0
M  V30 1016 C 100.131 -3.46944 2.44603 0
M  V30 1017 C 98.0376 -3.46366 4.79358 0
M  V30 1018 H 96.9676 -0.559296 0.505672 0
M  V30 1019 H 99.6186 -0.800983 1.65095 0
M  V30 1020 H 98.0006 -3.40041 2.02948 0
M  V30 1021 H 99.1746 -1.66077 4.29831 0
M  V30 1022 H 97.4896 -1.64723 3.82433 0
M  V30 1023 H 100.087 -4.33907 3.12456 0
M  V30 1024 H 100.43 -3.89454 1.47076 0
M  V30 1025 H 100.963 -2.83056 2.79507 0
M  V30 1026 H 97.7016 -3.08905 5.78151 0
M  V30 1027 H 97.2216 -4.08719 4.38986 0
M  V30 1028 H 98.9006 -4.12691 4.98292 0
M  V30 1029 N 99.0327 -1.24633 -0.964593 0
M  V30 1030 C 100.281 -1.08573 -1.70459 0
M  V30 1031 C 100.602 0.375655 -1.91347 0
M  V30 1032 O 99.8717 1.26779 -1.49345 0
M  V30 1033 H 98.4517 -0.398784 -0.631649 0
M  V30 1034 H 101.114 -1.56601 -1.16026 0
M  V30 1035 H 100.21 -1.58623 -2.68785 0
M  V30 1036 N 100.511 1.16574 -1.06058 0
M  V30 1037 C 101.757 1.87324 -0.777022 0
M  V30 1038 C 102.09 1.81351 0.694645 0
M  V30 1039 O 101.365 1.22753 1.50871 0
M  V30 1040 C 101.648 3.36991 -1.26922 0
M  V30 1041 C 101.501 3.51667 -2.80447 0
M  V30 1042 C 102.82 4.3131 -0.87521 0
M  V30 1043 H 99.9388 0.680191 -0.28374 0
M  V30 1044 H 102.581 1.37036 -1.3161 0
M  V30 1045 H 100.731 3.79949 -0.81063 0
M  V30 1046 H 102.403 3.17664 -3.34495 0
M  V30 1047 H 100.646 2.93656 -3.19294 0
M  V30 1048 H 101.317 4.56766 -3.0995 0
M  V30 1049 H 103.793 3.9624 -1.27014 0
M  V30 1050 H 102.669 5.34545 -1.2471 0
M  V30 1051 H 102.93 4.41552 0.220071 0
M  V30 1052 N 101.989 0.842826 1.3317 0
M  V30 1053 C 103.236 0.440447 1.97652 0
M  V30 1054 C 103.564 -1.00123 1.6675 0
M  V30 1055 O 102.819 -1.7155 0.941761 0
M  V30 1056 C 103.118 0.612607 3.52111 0
M  V30 1057 C 102.784 2.02297 4.02972 0
M  V30 1058 C 101.446 2.40874 4.16573 0
M  V30 1059 C 103.798 2.94402 4.30089 0
M  V30 1060 C 101.126 3.70852 4.54627 0
M  V30 1061 C 103.478 4.23865 4.69597 0
M  V30 1062 C 102.142 4.62392 4.81404 0
M  V30 1063 H 101.412 0.161171 0.72326 0
M  V30 1064 H 104.059 1.07061 1.58777 0
M  V30 1065 H 102.364 -0.100849 3.9167 0
M  V30 1066 H 104.061 0.2815 4.00011 0
M  V30 1067 H 100.651 1.71338 3.92863 0
M  V30 1068 H 104.835 2.65835 4.19101 0
M  V30 1069 H 100.091 4.00501 4.61962 0
M  V30 1070 H 104.265 4.95306 4.89536 0
M  V30 1071 H 101.892 5.63154 5.10648 0
M  V30 1072 N 103.467 -1.45747 0.599634 0
M  V30 1073 C 104.883 -1.57424 0.26264 0
M  V30 1074 C 105.083 -1.59222 -1.23493 0
M  V30 1075 O 104.139 -1.51825 -2.01756 0
M  V30 1076 C 105.452 -2.86061 0.926795 0
M  V30 1077 C 107 -2.99722 0.901967 0
M  V30 1078 C 107.475 -4.31119 1.54598 0
M  V30 1079 N 108.966 -4.37858 1.5111 0
M  V30 1080 C 109.701 -5.3818 1.97863 0
M  V30 1081 N 109.197 -6.45083 2.52666 0
M  V30 1082 N 110.99 -5.29487 1.88679 0
M  V30 1083 H 103.141 -1.42823 1.57211 0
M  V30 1084 H 105.404 -0.68235 0.658105 0
M  V30 1085 H 105.11 -2.90605 1.98095 0
M  V30 1086 H 104.984 -3.74563 0.445238 0
M  V30 1087 H 107.371 -2.9475 -0.143617 0
M  V30 1088 H 107.452 -2.12652 1.42171 0
M  V30 1089 H 107.096 -4.36849 2.59085 0
M  V30 1090 H 107.026 -5.16992 1.00132 0
M  V30 1091 H 109.517 -3.61209 1.11068 0
M  V30 1092 H 109.83 -7.17869 2.86155 0
M  V30 1093 H 108.175 -6.45856 2.56701 0
M  V30 1094 H 111.366 -4.44877 1.4561 0
M  V30 1095 H 111.539 -6.07524 2.25429 0
M  V30 1096 N 104.945 -0.338344 -1.53925 0
M  V30 1097 C 106.193 0.259245 -2.0043 0
M  V30 1098 C 106.514 1.51484 -1.22791 0
M  V30 1099 O 105.784 1.93037 -0.33368 0
M  V30 1100 H 104.364 0.0987845 -0.740439 0
M  V30 1101 H 107.026 -0.458302 -1.89435 0
M  V30 1102 H 106.122 0.505334 -3.07982 0
M  V30 1103 N 106.423 1.57458 -0.0668435 0
M  V30 1104 C 107.653 1.97337 0.611677 0
M  V30 1105 C 108.061 0.943744 1.63982 0
M  V30 1106 O 107.404 -0.0785584 1.83532 0
M  V30 1107 C 107.466 3.33511 1.34205 0
M  V30 1108 C 107.13 4.54598 0.467941 0
M  V30 1109 C 108.127 5.19186 -0.272439 0
M  V30 1110 C 105.812 5.0075 0.39427 0
M  V30 1111 C 107.806 6.28274 -1.07476 0
M  V30 1112 C 105.493 6.09711 -0.411729 0
M  V30 1113 C 106.491 6.73335 -1.14492 0
M  V30 1114 O 106.179 7.80199 -1.93763 0
M  V30 1115 H 105.911 0.654042 0.170893 0
M  V30 1116 H 108.465 2.04961 -0.134289 0
M  V30 1117 H 106.695 3.22487 2.13398 0
M  V30 1118 H 108.384 3.58029 1.91233 0
M  V30 1119 H 109.15 4.84477 -0.225086 0
M  V30 1120 H 105.029 4.51009 0.954569 0
M  V30 1121 H 108.573 6.77866 -1.64755 0
M  V30 1122 H 104.47 6.43854 -0.460664 0
M  V30 1123 H 105.238 7.97053 -1.86142 0
M  V30 1124 N 107.901 -0.206675 1.56239 0
M  V30 1125 C 109.126 -0.949474 1.8439 0
M  V30 1126 C 109.551 -1.76549 0.649016 0
M  V30 1127 O 108.909 -1.76782 -0.402231 0
M  V30 1128 C 108.957 -1.83078 3.10668 0
M  V30 1129 O 108.061 -2.9281 2.90407 0
M  V30 1130 H 107.402 -0.268033 0.607499 0
M  V30 1131 H 109.932 -0.215488 2.03462 0
M  V30 1132 H 109.942 -2.2377 3.41161 0
M  V30 1133 H 108.617 -1.23112 3.97261 0
M  V30 1134 H 107.194 -2.55956 2.71184 0
M  V30 1135 N 109.379 -1.50304 -0.473955 0
M  V30 1136 C 110.342 -1.6841 -1.55469 0
M  V30 1137 C 111.342 -0.554905 -1.50922 0
M  V30 1138 O 112.532 -0.821882 -1.53593 0
M  V30 1139 C 109.664 -1.70667 -2.95102 0
M  V30 1140 H 110.857 -2.64828 -1.40733 0
M  V30 1141 H 108.41 -1.39742 -0.700132 0
M  V30 1142 H 109.145 -0.75932 -3.15285 0
M  V30 1143 H 108.93 -2.52698 -2.9981 0
M  V30 1144 H 110.42 -1.8664 -3.73571 0
M  V30 1145 N 110.857 0.726932 -1.39834 0
M  V30 1146 C 111.787 1.85405 -1.41941 0
M  V30 1147 C 112.768 1.67751 -0.281728 0
M  V30 1148 O 113.953 1.8795 -0.488717 0
M  V30 1149 C 111.083 3.23243 -1.2701 0
M  V30 1150 C 110.037 3.55549 -2.38262 0
M  V30 1151 C 109.363 4.9241 -2.08415 0
M  V30 1152 C 110.663 3.577 -3.80589 0
M  V30 1153 H 112.357 1.83899 -2.36266 0
M  V30 1154 H 109.903 0.883349 -1.13723 0
M  V30 1155 H 111.856 4.01775 -1.27103 0
M  V30 1156 H 110.58 3.25296 -0.291564 0
M  V30 1157 H 109.239 2.79351 -2.37399 0
M  V30 1158 H 108.887 4.91052 -1.0898 0
M  V30 1159 H 108.587 5.14992 -2.82943 0
M  V30 1160 H 110.111 5.73289 -2.10171 0
M  V30 1161 H 111.525 4.26293 -3.83337 0
M  V30 1162 H 109.922 3.91804 -4.54543 0
M  V30 1163 H 110.992 2.57328 -4.10987 0
M  V30 1164 N 112.336 1.25143 0.95797 0
M  V30 1165 C 113.299 1.05321 2.03569 0
M  V30 1166 C 114.299 0.007152 1.60798 0
M  V30 1167 O 115.489 0.24903 1.72411 0
M  V30 1168 C 112.621 0.598394 3.35607 0
M  V30 1169 H 113.814 2.00986 2.22586 0
M  V30 1170 H 111.367 1.07502 1.13459 0
M  V30 1171 H 112.102 -0.361014 3.22284 0
M  V30 1172 H 111.887 1.35351 3.67998 0
M  V30 1173 H 113.377 0.48104 4.1482 0
M  V30 1174 N 113.814 -1.1601 1.06675 0
M  V30 1175 C 114.747 -2.1947 0.625168 0
M  V30 1176 C 115.725 -1.58699 -0.354041 0
M  V30 1177 O 116.909 -1.86669 -0.262098 0
M  V30 1178 C 114.036 -3.38598 -0.0829593 0
M  V30 1179 C 113.082 -4.1787 0.853611 0
M  V30 1180 S 113.915 -4.81135 2.35094 0
M  V30 1181 C 115.071 -6.03639 1.65441 0
M  V30 1182 H 115.304 -2.56587 1.50168 0
M  V30 1183 H 112.837 -1.26862 0.880078 0
M  V30 1184 H 114.795 -4.07621 -0.485288 0
M  V30 1185 H 113.456 -2.99839 -0.935716 0
M  V30 1186 H 112.649 -5.03078 0.304755 0
M  V30 1187 H 112.251 -3.54361 1.196 0
M  V30 1188 H 114.543 -6.70632 0.962201 0
M  V30 1189 H 115.486 -6.63081 2.48454 0
M  V30 1190 H 115.894 -5.52965 1.13534 0
M  V30 1191 N 115.292 -0.849877 -1.32721 0
M  V30 1192 C 116.255 -0.296122 -2.27279 0
M  V30 1193 C 117.255 0.541458 -1.5141 0
M  V30 1194 O 118.445 0.353658 -1.70572 0
M  V30 1195 C 115.577 0.581579 -3.35902 0
M  V30 1196 H 116.77 -1.13064 -2.77771 0
M  V30 1197 H 114.323 -0.62383 -1.43311 0
M  V30 1198 H 115.058 1.43809 -2.9067 0
M  V30 1199 H 114.843 -0.0178814 -3.92096 0
M  V30 1200 H 116.333 0.961951 -4.0637 0
M  V30 1201 N 116.77 1.45427 -0.607355 0
M  V30 1202 C 117.7 2.3329 0.0989352 0
M  V30 1203 C 118.681 1.46816 0.859007 0
M  V30 1204 O 119.866 1.75588 0.829604 0
M  V30 1205 C 116.996 3.29518 1.09705 0
M  V30 1206 C 115.95 4.25626 0.450206 0
M  V30 1207 C 115.276 5.11542 1.55655 0
M  V30 1208 C 116.576 5.18505 -0.628455 0
M  V30 1209 H 118.27 2.92595 -0.634716 0
M  V30 1210 H 115.816 1.40696 -0.306681 0
M  V30 1211 H 117.769 3.89855 1.59971 0
M  V30 1212 H 116.493 2.68372 1.86129 0
M  V30 1213 H 115.152 3.66586 -0.0315886 0
M  V30 1214 H 114.8 4.46765 2.31107 0
M  V30 1215 H 114.5 5.76647 1.12925 0
M  V30 1216 H 116.024 5.74748 2.06148 0
M  V30 1217 H 117.438 5.72916 -0.209877 0
M  V30 1218 H 115.835 5.92085 -0.977489 0
M  V30 1219 H 116.905 4.60948 -1.50514 0
M  V30 1220 N 118.248 0.346503 1.53744 0
M  V30 1221 C 119.18 -0.543316 2.22667 0
M  V30 1222 C 120.193 -1.06159 1.23427 0
M  V30 1223 O 121.382 -0.971235 1.49764 0
M  V30 1224 C 118.482 -1.76076 2.89569 0
M  V30 1225 C 117.655 -1.37727 4.15151 0
M  V30 1226 C 116.714 -2.45471 4.65436 0
M  V30 1227 O 115.74 -2.08655 5.29577 0
M  V30 1228 N 116.942 -3.7677 4.41616 0
M  V30 1229 H 119.707 0.0469703 2.99663 0
M  V30 1230 H 117.268 0.170766 1.60997 0
M  V30 1231 H 119.26 -2.47593 3.20125 0
M  V30 1232 H 117.83 -2.25835 2.16142 0
M  V30 1233 H 117.05 -0.492746 3.91108 0
M  V30 1234 H 118.338 -1.09708 4.96832 0
M  V30 1235 H 117.736 -4.09467 3.90325 0
M  V30 1236 H 116.293 -4.44448 4.7677 0
M  V30 1237 N 119.726 -1.57421 0.075193 0
M  V30 1238 C 120.656 -2.15942 -0.888324 0
M  V30 1239 C 121.637 -1.08737 -1.30806 0
M  V30 1240 O 122.822 -1.36787 -1.37851 0
M  V30 1241 C 119.952 -2.72379 -2.1547 0
M  V30 1242 C 118.906 -3.8478 -1.87425 0
M  V30 1243 C 118.232 -4.27834 -3.20721 0
M  V30 1244 C 119.532 -5.08869 -1.17684 0
M  V30 1245 H 121.226 -2.96705 -0.400799 0
M  V30 1246 H 118.772 -1.42723 -0.191342 0
M  V30 1247 H 120.725 -3.11965 -2.83295 0
M  V30 1248 H 119.449 -1.88841 -2.6647 0
M  V30 1249 H 118.108 -3.45703 -1.22004 0
M  V30 1250 H 117.756 -3.41214 -3.6957 0
M  V30 1251 H 117.456 -5.03605 -3.02746 0
M  V30 1252 H 118.98 -4.70039 -3.89738 0
M  V30 1253 H 120.394 -5.4575 -1.75584 0
M  V30 1254 H 118.791 -5.8994 -1.09956 0
M  V30 1255 H 119.861 -4.84648 -0.156453 0
M  V30 1256 N 121.204 0.198386 -1.56346 0
M  V30 1257 C 122.615 0.763358 -1.70381 0
M  V30 1258 C 122.966 1.83995 -0.681203 0
M  V30 1259 O 122.091 2.15785 0.16305 0
M  V30 1260 C 122.686 1.39143 -3.08909 0
M  V30 1261 C 121.245 1.90352 -3.2472 0
M  V30 1262 C 120.392 0.772233 -2.6633 0
M  V30 1263 H 123.343 -0.0266377 -1.58678 0
M  V30 1264 H 123.364 2.26076 -3.06055 0
M  V30 1265 H 122.876 0.607638 -3.83314 0
M  V30 1266 H 120.977 2.71461 -2.55225 0
M  V30 1267 H 121.09 2.06757 -4.3219 0
M  V30 1268 H 119.454 1.18566 -2.2542 0
M  V30 1269 H 120.237 0.00073556 -3.433 0
M  V30 1270 N 122.682 1.50554 0.465978 0
M  V30 1271 C 124.093 1.54599 1.04671 0
M  V30 1272 C 124.444 0.352488 1.93008 0
M  V30 1273 O 123.569 -0.534044 2.09707 0
M  V30 1274 C 124.164 2.80166 1.90505 0
M  V30 1275 C 122.723 2.86876 2.43678 0
M  V30 1276 C 121.87 2.48947 1.22151 0
M  V30 1277 H 124.821 1.56744 0.248384 0
M  V30 1278 H 124.842 2.62311 2.75633 0
M  V30 1279 H 124.354 3.67013 1.26186 0
M  V30 1280 H 122.455 2.04393 3.11536 0
M  V30 1281 H 122.568 3.89885 2.78436 0
M  V30 1282 H 120.932 2.01498 1.5579 0
M  V30 1283 H 121.715 3.38107 0.594866 0
M  V30 1284 N 124.16 -0.719506 1.40217 0
M  V30 1285 C 125.437 -1.47221 1.28784 0
M  V30 1286 C 125.817 -2.10883 -0.0956067 0
M  V30 1287 O 125.165 -1.99833 -1.10811 0
M  V30 1288 C 125.375 -2.5111 2.42373 0
M  V30 1289 C 126.723 -3.17053 2.82423 0
M  V30 1290 O 127.747 -2.61429 2.41937 0
M  V30 1291 O 126.606 -4.17742 3.52355 0
M  V30 1292 H 123.7 -0.654491 0.50554 0
M  V30 1293 H 126.246 -0.752014 1.52128 0
M  V30 1294 H 125.018 -2.02556 3.34793 0
M  V30 1295 H 124.641 -3.3067 2.20778 0
M  V30 1296 N 125.638 -1.25649 -0.95132 0
M  V30 1297 C 126.886 -1.10375 -1.69298 0
M  V30 1298 C 127.207 0.355339 -1.91735 0
M  V30 1299 O 126.477 1.25188 -1.50681 0
M  V30 1300 H 125.057 -0.405461 -0.627384 0
M  V30 1301 H 127.719 -1.57823 -1.14358 0
M  V30 1302 H 126.815 -1.61465 -2.67087 0
M  V30 1303 N 127.117 1.15442 -1.07289 0
M  V30 1304 C 128.049 2.19773 -0.650585 0
M  V30 1305 C 129.062 1.60076 0.296572 0
M  V30 1306 O 130.251 1.78293 0.0859905 0
M  V30 1307 C 127.351 3.38838 0.0650398 0
M  V30 1308 C 126.524 4.2808 -0.898141 0
M  V30 1309 C 125.583 5.2574 -0.219926 0
M  V30 1310 O 124.609 5.62654 -0.860773 0
M  V30 1311 N 125.811 5.71205 1.03466 0
M  V30 1312 H 128.576 2.56622 -1.54808 0
M  V30 1313 H 126.137 1.30551 -0.957494 0
M  V30 1314 H 128.129 4.01222 0.529415 0
M  V30 1315 H 126.699 3.00409 0.864466 0
M  V30 1316 H 125.919 3.62804 -1.54165 0
M  V30 1317 H 127.207 4.84577 -1.5512 0
M  V30 1318 H 126.605 5.43325 1.57526 0
M  V30 1319 H 125.162 6.35633 1.44272 0
M  V30 1320 N 128.595 0.856903 1.32268 0
M  V30 1321 C 129.844 0.457599 1.96441 0
M  V30 1322 C 130.157 -0.992426 1.68553 0
M  V30 1323 O 131.363 -1.49727 2.26482 0
M  V30 1324 C 129.819 0.767358 3.51624 0
M  V30 1325 C 129.427 2.23326 3.88367 0
M  V30 1326 C 131.171 0.435887 4.22256 0
M  V30 1327 C 129.078 2.48613 5.36606 0
M  V30 1328 H 128.008 0.167387 0.735185 0
M  V30 1329 H 130.659 1.048 1.5063 0
M  V30 1330 H 129.041 0.106367 3.95857 0
M  V30 1331 H 130.215 2.93623 3.55137 0
M  V30 1332 H 128.53 2.52948 3.30766 0
M  V30 1333 H 131.127 0.602202 5.31298 0
M  V30 1334 H 131.47 -0.622672 4.11617 0
M  V30 1335 H 132.003 1.05286 3.83614 0
M  V30 1336 H 128.742 3.53101 5.52268 0
M  V30 1337 H 128.262 1.82896 5.71235 0
M  V30 1338 H 129.941 2.32676 6.03714 0
M  V30 1339 N 130.073 -1.45103 0.615059 0
M  V30 1340 C 131.322 -2.01396 0.110718 0
M  V30 1341 C 131.635 -1.48834 -1.26916 0
M  V30 1342 O 132.841 -1.97152 -1.86664 0
M  V30 1343 C 131.297 -3.59599 0.14723 0
M  V30 1344 C 130.905 -4.21158 1.52743 0
M  V30 1345 C 132.649 -4.23428 -0.30148 0
M  V30 1346 C 130.556 -5.71535 1.51992 0
M  V30 1347 H 129.486 -0.753061 0.0376241 0
M  V30 1348 H 132.137 -1.66494 0.77149 0
M  V30 1349 H 130.519 -3.91724 -0.580339 0
M  V30 1350 H 131.693 -4.00594 2.2773 0
M  V30 1351 H 130.008 -3.69552 1.91886 0
M  V30 1352 H 132.605 -5.33703 -0.326392 0
M  V30 1353 H 132.948 -3.94629 -1.32565 0
M  V30 1354 H 133.481 -3.96047 0.373065 0
M  V30 1355 H 130.22 -6.05044 2.52193 0
M  V30 1356 H 129.74 -5.94268 0.81274 0
M  V30 1357 H 131.419 -6.34873 1.24681 0
M  V30 1358 N 131.551 -0.354651 -1.53558 0
M  V30 1359 C 132.514 0.484566 -2.24019 0
M  V30 1360 C 133.514 1.01861 -1.24422 0
M  V30 1361 O 134.704 0.906097 -1.4878 0
M  V30 1362 C 131.836 1.67615 -2.96847 0
M  V30 1363 H 133.029 -0.131843 -2.9961 0
M  V30 1364 H 130.582 -0.106165 -1.55939 0
M  V30 1365 H 131.317 2.33095 -2.25471 0
M  V30 1366 H 131.102 1.30029 -3.69912 0
M  V30 1367 H 132.592 2.27114 -3.50441 0
M  V30 1368 N 133.029 1.57378 -0.0835403 0
M  V30 1369 C 134.269 1.95808 0.586381 0
M  V30 1370 C 134.633 0.963706 1.66062 0
M  V30 1371 O 135.834 1.23608 2.38693 0
M  V30 1372 C 134.105 3.38808 1.13771 0
M  V30 1373 S 135.664 3.99225 1.82112 0
M  V30 1374 H 132.482 0.684675 0.191679 0
M  V30 1375 H 135.084 1.94843 -0.160194 0
M  V30 1376 H 133.788 4.08954 0.344197 0
M  V30 1377 H 133.319 3.43344 1.92038 0
M  V30 1378 H 135.334 3.87087 3.10449 0
M  V30 1379 N 134.507 -0.190092 1.56449 0
M  V30 1380 C 135.784 -0.935886 1.71757 0
M  V30 1381 C 136.164 -2.01173 0.639726 0
M  V30 1382 O 135.512 -2.25827 -0.348502 0
M  V30 1383 C 135.722 -1.51775 3.1427 0
M  V30 1384 C 137.07 -1.99794 3.74656 0
M  V30 1385 O 138.094 -1.61607 3.1743 0
M  V30 1386 O 136.953 -2.70079 4.751 0
M  V30 1387 H 134.047 -0.439229 0.700719 0
M  V30 1388 H 136.593 -0.179395 1.68749 0
M  V30 1389 H 135.365 -0.742505 3.84191 0
M  V30 1390 H 134.988 -2.33894 3.21527 0
M  V30 1391 N 135.985 -1.50799 -0.457987 0
M  V30 1392 C 136.917 -1.66786 -1.57211 0
M  V30 1393 C 137.93 -0.548962 -1.53265 0
M  V30 1394 O 139.119 -0.8226 -1.58416 0
M  V30 1395 C 136.219 -1.64834 -2.96113 0
M  V30 1396 C 135.392 -2.92971 -3.24787 0
M  V30 1397 C 134.451 -2.83485 -4.43309 0
M  V30 1398 O 133.477 -3.5744 -4.42973 0
M  V30 1399 N 134.679 -1.97929 -5.45714 0
M  V30 1400 H 137.444 -2.62889 -1.43909 0
M  V30 1401 H 135.005 -1.48427 -0.646617 0
M  V30 1402 H 136.997 -1.56084 -3.7339 0
M  V30 1403 H 135.567 -0.764118 -3.03117 0
M  V30 1404 H 134.787 -3.15749 -2.36 0
M  V30 1405 H 136.075 -3.77834 -3.40762 0
M  V30 1406 H 135.473 -1.37182 -5.48815 0
M  V30 1407 H 134.03 -1.95073 -6.21924 0
M  V30 1408 N 137.463 0.71206 -1.40597 0
M  V30 1409 C 138.74 1.46536 -1.29563 0
M  V30 1410 C 139.12 2.10931 0.0844217 0
M  V30 1411 O 138.468 2.00418 1.0975 0
M  V30 1412 C 138.678 2.49821 -2.43701 0
M  V30 1413 C 140.026 3.15551 -2.841 0
M  V30 1414 O 141.05 2.60142 -2.4332 0
M  V30 1415 O 139.909 4.15867 -3.54566 0
M  V30 1416 H 137.003 0.651801 -0.509004 0
M  V30 1417 H 139.549 0.743935 -1.52524 0
M  V30 1418 H 138.321 2.00778 -3.35863 0
M  V30 1419 H 137.944 3.29495 -2.22528 0
M  V30 1420 N 138.941 1.26152 0.944643 0
M  V30 1421 C 140.352 1.10454 1.50522 0
M  V30 1422 C 140.703 -0.31635 1.93633 0
M  V30 1423 O 139.828 -1.20746 1.79581 0
M  V30 1424 C 140.423 1.99891 2.73549 0
M  V30 1425 C 138.982 1.88348 3.25886 0
M  V30 1426 C 138.129 1.93447 1.9868 0
M  V30 1427 H 141.08 1.39292 0.760489 0
M  V30 1428 H 141.101 1.54477 3.47732 0
M  V30 1429 H 140.613 3.03297 2.42141 0
M  V30 1430 H 138.714 0.878636 3.62092 0
M  V30 1431 H 138.827 2.73696 3.93227 0
M  V30 1432 H 137.191 1.37456 2.14425 0
M  V30 1433 H 137.974 2.98476 1.69607 0
M  V30 1434 N 140.419 -1.14872 1.07899 0
M  V30 1435 C 141.367 -2.21857 0.698727 0
M  V30 1436 C 142.361 -1.66845 -0.293086 0
M  V30 1437 O 143.567 -1.79321 -0.156204 0
M  V30 1438 H 139.942 -0.722691 0.207899 0
M  V30 1439 H 141.913 -2.51205 1.61054 0
M  V30 1440 C 140.662 -3.47498 0.11858 0
M  V30 1441 H 139.985 -3.90154 0.872914 0
M  V30 1442 H 141.425 -4.23858 -0.109759 0
M  V30 1443 C 139.884 -3.16947 -1.1422 0
M  V30 1444 O 140.414 -3.3426 -2.22785 0
M  V30 1445 N 138.62 -2.70946 -1.05055 0
M  V30 1446 H 138.167 -2.57058 -0.167038 0
M  V30 1447 H 138.125 -2.50879 -1.89491 0
M  V30 1448 N 141.898 -0.863906 -1.31812 0
M  V30 1449 C 142.861 -0.320212 -2.26952 0
M  V30 1450 C 143.861 0.525369 -1.51975 0
M  V30 1451 O 145.051 0.335547 -1.70938 0
M  V30 1452 C 142.183 0.545919 -3.365 0
M  V30 1453 H 143.376 -1.16004 -2.76556 0
M  V30 1454 H 140.929 -0.638995 -1.42641 0
M  V30 1455 H 141.664 1.40718 -2.92179 0
M  V30 1456 H 141.449 -0.0594674 -3.92055 0
M  V30 1457 H 142.939 0.918796 -4.07367 0
M  V30 1458 N 143.376 1.44774 -0.622745 0
M  V30 1459 C 144.604 2.06487 -0.130722 0
M  V30 1460 C 145.019 1.46476 1.19123 0
M  V30 1461 O 144.376 0.584502 1.72887 0
M  V30 1462 C 144.427 3.615 -0.000807207 0
M  V30 1463 O 144.148 4.19274 -1.27048 0
M  V30 1464 C 145.649 4.40229 0.520898 0
M  V30 1465 H 142.869 0.666704 -0.0758106 0
M  V30 1466 H 145.413 1.85779 -0.854774 0
M  V30 1467 H 143.568 3.81498 0.673643 0
M  V30 1468 H 143.982 5.12622 -1.1099 0
M  V30 1469 H 145.456 5.49144 0.560838 0
M  V30 1470 H 145.933 4.1108 1.54627 0
M  V30 1471 H 146.539 4.25131 -0.120018 0
M  V30 1472 N 144.854 0.36279 1.53368 0
M  V30 1473 C 145.817 -0.472679 2.24273 0
M  V30 1474 C 146.817 -1.012 1.24961 0
M  V30 1475 O 148.007 -0.898194 1.49259 0
M  V30 1476 C 145.139 -1.66039 2.97731 0
M  V30 1477 H 146.332 0.14773 2.99536 0
M  V30 1478 H 143.885 0.114434 1.55881 0
M  V30 1479 H 144.62 -2.31896 2.26704 0
M  V30 1480 H 144.405 -1.28066 3.70596 0
M  V30 1481 H 145.895 -2.25252 3.51641 0
M  V30 1482 N 146.332 -1.57332 0.0918853 0
M  V30 1483 C 147.581 -1.93412 -0.572249 0
M  V30 1484 C 147.894 -0.975515 -1.69538 0
M  V30 1485 O 149.1 -1.22991 -2.42045 0
M  V30 1486 C 147.556 -3.43648 -1.0693 0
M  V30 1487 C 147.164 -4.47994 0.0239049 0
M  V30 1488 C 148.908 -3.88695 -1.70635 0
M  V30 1489 C 146.815 -5.89381 -0.488319 0
M  V30 1490 H 145.745 -0.721939 -0.217532 0
M  V30 1491 H 148.396 -1.82735 0.167369 0
M  V30 1492 H 146.778 -3.49466 -1.8625 0
M  V30 1493 H 147.952 -4.53815 0.799277 0
M  V30 1494 H 146.267 -4.12536 0.565946 0
M  V30 1495 H 148.864 -4.91725 -2.10025 0
M  V30 1496 H 149.207 -3.27166 -2.57426 0
M  V30 1497 H 149.74 -3.85564 -0.979023 0
M  V30 1498 H 146.479 -6.54602 0.342906 0
M  V30 1499 H 145.999 -5.87037 -1.23077 0
M  V30 1500 H 147.678 -6.39863 -0.958317 0
M  V30 1501 N 147.81 0.181792 -1.56548 0
M  V30 1502 C 148.773 1.20894 -1.94724 0
M  V30 1503 C 149.773 1.37738 -0.829747 0
M  V30 1504 O 150.963 1.35323 -1.09697 0
M  V30 1505 C 148.095 2.57593 -2.23291 0
M  V30 1506 H 149.288 0.882275 -2.86629 0
M  V30 1507 H 146.841 0.423838 -1.50444 0
M  V30 1508 H 147.576 2.95291 -1.34067 0
M  V30 1509 H 147.361 2.46735 -3.04736 0
M  V30 1510 H 148.851 3.31637 -2.53785 0
M  V30 1511 N 149.288 1.51039 0.449983 0
M  V30 1512 C 150.235 1.71439 1.54523 0
M  V30 1513 C 151.205 0.555871 1.56522 0
M  V30 1514 O 152.39 0.788871 1.73728 0
M  V30 1515 C 149.53 1.83384 2.92343 0
M  V30 1516 C 148.643 3.10873 2.9997 0
M  V30 1517 C 147.778 3.13488 4.28834 0
M  V30 1518 C 146.817 4.35343 4.30282 0
M  V30 1519 N 145.954 4.35579 5.5065 0
M  V30 1520 H 150.794 2.64934 1.36433 0
M  V30 1521 H 148.331 1.31312 0.662982 0
M  V30 1522 H 150.289 1.88291 3.72293 0
M  V30 1523 H 148.919 0.933086 3.0902 0
M  V30 1524 H 147.971 3.15336 2.12761 0
M  V30 1525 H 149.283 4.00814 2.96901 0
M  V30 1526 H 148.437 3.17241 5.17149 0
M  V30 1527 H 147.176 2.21414 4.34543 0
M  V30 1528 H 146.181 4.3178 3.40362 0
M  V30 1529 H 147.406 5.28668 4.26248 0
M  V30 1530 H 145.352 3.46369 5.57104 0
M  V30 1531 H 145.269 5.19313 5.49409 0
M  V30 1532 H 146.537 4.43507 6.41032 0
M  V30 1533 N 150.766 -0.704594 1.40972 0
M  V30 1534 C 151.713 -1.81862 1.42109 0
M  V30 1535 C 152.683 -1.63781 0.276593 0
M  V30 1536 O 153.868 -1.84759 0.4763 0
M  V30 1537 C 151.008 -3.19669 1.30022 0
M  V30 1538 C 150.121 -3.49246 2.54267 0
M  V30 1539 C 149.256 -4.76618 2.3454 0
M  V30 1540 C 148.295 -4.99133 3.54306 0
M  V30 1541 N 147.432 -6.17726 3.33706 0
M  V30 1542 H 152.272 -1.80226 2.37324 0
M  V30 1543 H 149.809 -0.880238 1.17857 0
M  V30 1544 H 151.767 -3.99263 1.21018 0
M  V30 1545 H 150.397 -3.20506 0.384192 0
M  V30 1546 H 149.449 -2.64125 2.73756 0
M  V30 1547 H 150.761 -3.61788 3.43381 0
M  V30 1548 H 149.915 -5.64249 2.22952 0
M  V30 1549 H 148.654 -4.66305 1.42867 0
M  V30 1550 H 147.659 -4.09953 3.66359 0
M  V30 1551 H 148.884 -5.11311 4.4692 0
M  V30 1552 H 146.83 -6.08642 2.44725 0
M  V30 1553 H 146.747 -6.30995 4.16391 0
M  V30 1554 H 148.015 -7.08115 3.25873 0
M  V30 1555 N 152.244 -1.26651 -0.937939 0
M  V30 1556 C 153.474 -1.15006 -1.71631 0
M  V30 1557 C 153.882 0.297026 -1.86854 0
M  V30 1558 O 153.225 1.21493 -1.37786 0
M  V30 1559 C 153.287 -1.74984 -3.14039 0
M  V30 1560 C 152.951 -3.24103 -3.2219 0
M  V30 1561 C 153.948 -4.20877 -3.05219 0
M  V30 1562 C 151.633 -3.64625 -3.45476 0
M  V30 1563 C 153.627 -5.56151 -3.11408 0
M  V30 1564 C 151.314 -5.00032 -3.513 0
M  V30 1565 C 152.312 -5.95604 -3.34282 0
M  V30 1566 O 152 -7.28545 -3.3982 0
M  V30 1567 H 151.732 -0.401183 -0.544085 0
M  V30 1568 H 154.286 -1.67832 -1.18413 0
M  V30 1569 H 152.516 -1.16624 -3.68695 0
M  V30 1570 H 154.205 -1.58199 -3.73802 0
M  V30 1571 H 154.971 -3.90908 -2.87081 0
M  V30 1572 H 150.85 -2.90718 -3.57777 0
M  V30 1573 H 154.394 -6.30727 -2.98043 0
M  V30 1574 H 150.291 -5.29659 -3.68959 0
M  V30 1575 H 151.059 -7.3686 -3.56343 0
M  V30 1576 N 153.722 1.14298 -1.08507 0
M  V30 1577 C 154.968 1.85854 -0.826438 0
M  V30 1578 C 155.323 1.81413 0.640878 0
M  V30 1579 O 154.616 1.23463 1.46518 0
M  V30 1580 C 154.81 3.33547 -1.28379 0
M  V30 1581 C 154.639 3.52369 -2.79403 0
M  V30 1582 C 153.409 3.67159 -3.47164 0
M  V30 1583 C 155.607 3.49203 -3.77573 0
M  V30 1584 N 153.589 3.74149 -4.86709 0
M  V30 1585 C 154.96 3.6245 -5.03021 0
M  V30 1586 C 157.015 3.32547 -3.70563 0
M  V30 1587 C 155.718 3.60761 -6.2229 0
M  V30 1588 C 157.744 3.32162 -4.89308 0
M  V30 1589 C 157.106 3.45949 -6.13595 0
M  V30 1590 H 153.205 0.696705 -0.355143 0
M  V30 1591 H 155.789 1.36981 -1.38362 0
M  V30 1592 H 153.96 3.81008 -0.754166 0
M  V30 1593 H 155.692 3.92867 -0.971469 0
M  V30 1594 H 152.447 3.68433 -2.9758 0
M  V30 1595 H 152.871 3.81359 -5.5937 0
M  V30 1596 H 157.513 3.20797 -2.75407 0
M  V30 1597 H 155.231 3.71286 -7.17755 0
M  V30 1598 H 158.817 3.20485 -4.85573 0
M  V30 1599 H 157.697 3.456 -7.03939 0
M  V30 1600 N 155.201 0.870884 1.31352 0
M  V30 1601 C 156.133 0.28455 2.27427 0
M  V30 1602 C 157.146 -0.552927 1.53123 0
M  V30 1603 O 158.335 -0.374771 1.74521 0
M  V30 1604 C 155.435 -0.615164 3.3327 0
M  V30 1605 C 154.608 0.190079 4.36987 0
M  V30 1606 C 153.667 -0.637917 5.22319 0
M  V30 1607 O 152.693 -0.065626 5.69162 0
M  V30 1608 N 153.895 -1.94973 5.46778 0
M  V30 1609 H 156.66 1.11017 2.7838 0
M  V30 1610 H 154.221 0.732458 1.44384 0
M  V30 1611 H 156.213 -1.1748 3.87273 0
M  V30 1612 H 154.783 -1.34146 2.82354 0
M  V30 1613 H 154.003 0.931165 3.83044 0
M  V30 1614 H 155.291 0.742579 5.03352 0
M  V30 1615 H 154.689 -2.4378 5.10478 0
M  V30 1616 H 153.246 -2.45713 6.03712 0
M  V30 1617 N 156.679 -1.44442 0.630414 0
M  V30 1618 C 157.626 -2.30678 -0.0749355 0
M  V30 1619 C 158.596 -1.4344 -0.837502 0
M  V30 1620 O 159.781 -1.72343 -0.818684 0
M  V30 1621 C 156.921 -3.28706 -1.05103 0
M  V30 1622 C 156.034 -4.31046 -0.286954 0
M  V30 1623 C 155.169 -5.16167 -1.2548 0
M  V30 1624 C 154.208 -6.10216 -0.479843 0
M  V30 1625 N 153.345 -6.88039 -1.39811 0
M  V30 1626 H 158.185 -2.90454 0.666386 0
M  V30 1627 H 155.722 -1.43107 0.340404 0
M  V30 1628 H 157.68 -3.84027 -1.63031 0
M  V30 1629 H 156.31 -2.70632 -1.75949 0
M  V30 1630 H 155.362 -3.78203 0.408243 0
M  V30 1631 H 156.674 -4.97794 0.316657 0
M  V30 1632 H 155.828 -5.76002 -1.90544 0
M  V30 1633 H 154.567 -4.49491 -1.89233 0
M  V30 1634 H 153.572 -5.49491 0.184295 0
M  V30 1635 H 154.797 -6.78928 0.152965 0
M  V30 1636 H 152.743 -6.24032 -2.02287 0
M  V30 1637 H 152.66 -7.51223 -0.848508 0
M  V30 1638 H 153.928 -7.52397 -2.03762 0
M  V30 1639 N 158.157 -0.370918 -1.53173 0
M  V30 1640 C 159.12 0.460778 -2.24521 0
M  V30 1641 C 160.12 1.00536 -1.25496 0
M  V30 1642 O 161.31 0.890266 -1.49733 0
M  V30 1643 C 158.442 1.64457 -2.98608 0
M  V30 1644 H 159.635 -0.163613 -2.99453 0
M  V30 1645 H 157.188 -0.122699 -1.55818 0
M  V30 1646 H 157.923 2.30691 -2.2793 0
M  V30 1647 H 157.708 1.26099 -3.7127 0
M  V30 1648 H 159.198 2.23384 -3.5283 0
M  V30 1649 N 159.635 1.57281 -0.100228 0
M  V30 1650 C 160.883 1.94153 0.561157 0
M  V30 1651 C 161.204 0.983157 1.68401 0
M  V30 1652 O 160.474 0.0361132 1.95867 0
M  V30 1653 H 159.054 0.716791 0.210283 0
M  V30 1654 H 161.716 1.94202 -0.164765 0
M  V30 1655 H 160.812 2.96709 0.968008 0
M  V30 1656 N 161.113 -0.173488 1.56642 0
M  V30 1657 C 162.359 -0.891784 1.8214 0
M  V30 1658 C 162.692 -1.8199 0.677736 0
M  V30 1659 O 161.967 -1.91842 -0.320446 0
M  V30 1660 C 162.25 -1.68933 3.18015 0
M  V30 1661 C 162.103 -0.784487 4.42906 0
M  V30 1662 C 163.422 -2.65748 3.50808 0
M  V30 1663 H 160.541 -0.322761 0.662567 0
M  V30 1664 H 163.183 -0.158095 1.89341 0
M  V30 1665 H 161.333 -2.31482 3.12007 0
M  V30 1666 H 163.005 -0.172046 4.60979 0
M  V30 1667 H 161.248 -0.0924117 4.33702 0
M  V30 1668 H 161.919 -1.37799 5.34524 0
M  V30 1669 H 164.395 -2.13327 3.57255 0
M  V30 1670 H 163.271 -3.18619 4.4696 0
M  V30 1671 H 163.532 -3.45842 2.75401 0
M  V30 1672 N 162.591 -1.51276 -0.441967 0
M  V30 1673 C 163.554 -1.7167 -1.51862 0
M  V30 1674 C 164.554 -0.586793 -1.49711 0
M  V30 1675 O 165.744 -0.854276 -1.51815 0
M  V30 1676 C 162.876 -1.76889 -2.91416 0
M  V30 1677 H 164.069 -2.67754 -1.35084 0
M  V30 1678 H 161.622 -1.41196 -0.670333 0
M  V30 1679 H 162.357 -0.826026 -3.13604 0
M  V30 1680 H 162.142 -2.59001 -2.94382 0
M  V30 1681 H 163.632 -1.94522 -3.69528 0
M  V30 1682 N 164.069 0.697108 -1.41344 0
M  V30 1683 C 164.979 1.84088 -1.45427 0
M  V30 1684 C 165.995 1.70545 -0.34501 0
M  V30 1685 O 167.171 1.92488 -0.592492 0
M  V30 1686 C 164.236 3.20056 -1.33286 0
M  V30 1687 C 163.297 3.45718 -2.54514 0
M  V30 1688 C 162.53 4.75199 -2.42944 0
M  V30 1689 O 162.753 5.51579 -1.45318 0
M  V30 1690 O 161.687 5.0161 -3.32672 0
M  V30 1691 H 165.513 1.836 -2.41919 0
M  V30 1692 H 163.098 0.849966 -1.22866 0
M  V30 1693 H 164.98 4.01236 -1.28794 0
M  V30 1694 H 163.655 3.2123 -0.39909 0
M  V30 1695 H 162.562 2.64474 -2.64583 0
M  V30 1696 H 163.895 3.49356 -3.46715 0
M  V30 1697 N 165.547 1.27147 0.931209 0
M  V30 1698 C 166.494 1.09568 2.03134 0
M  V30 1699 C 167.464 -0.00222433 1.661 0
M  V30 1700 O 168.649 0.159439 1.90133 0
M  V30 1701 C 165.789 0.745231 3.36957 0
M  V30 1702 C 164.902 1.92041 3.86968 0
M  V30 1703 C 164.037 1.51216 5.09222 0
M  V30 1704 C 163.076 2.65504 5.5152 0
M  V30 1705 N 162.213 2.25291 6.64972 0
M  V30 1706 H 167.053 2.03708 2.17502 0
M  V30 1707 H 164.59 1.01411 1.06556 0
M  V30 1708 H 166.548 0.522878 4.1391 0
M  V30 1709 H 165.178 -0.159202 3.22407 0
M  V30 1710 H 164.23 2.25541 3.06326 0
M  V30 1711 H 165.542 2.77787 4.1429 0
M  V30 1712 H 164.696 1.25084 5.93666 0
M  V30 1713 H 163.435 0.625749 4.83669 0
M  V30 1714 H 162.44 2.92354 4.65628 0
M  V30 1715 H 163.665 3.54761 5.7907 0
M  V30 1716 H 161.611 1.39098 6.41083 0
M  V30 1717 H 161.528 3.04577 6.91931 0
M  V30 1718 H 162.796 2.02398 7.52765 0
M  V30 1719 N 167.025 -1.13721 1.09112 0
M  V30 1720 C 168.274 -1.84275 0.82009 0
M  V30 1721 C 168.587 -1.84253 -0.656509 0
M  V30 1722 O 169.793 -2.50668 -1.04296 0
M  V30 1723 C 168.249 -3.30825 1.41714 0
M  V30 1724 C 167.857 -3.39244 2.92605 0
M  V30 1725 C 169.601 -4.06443 1.22492 0
M  V30 1726 C 167.508 -4.80047 3.45411 0
M  V30 1727 H 166.438 -0.690387 0.30312 0
M  V30 1728 H 169.089 -1.28146 1.31343 0
M  V30 1729 H 167.471 -3.86737 0.851498 0
M  V30 1730 H 168.645 -2.93344 3.55367 0
M  V30 1731 H 166.96 -2.77088 3.10823 0
M  V30 1732 H 169.557 -5.10387 1.59402 0
M  V30 1733 H 169.9 -4.15972 0.165299 0
M  V30 1734 H 170.433 -3.56852 1.75788 0
M  V30 1735 H 167.172 -4.75709 4.50978 0
M  V30 1736 H 166.692 -5.26455 2.87411 0
M  V30 1737 H 168.371 -5.48957 3.42425 0
M  V30 1738 N 168.503 -0.877838 -1.30888 0
M  V30 1739 C 169.728 -0.506629 -2.01117 0
M  V30 1740 C 170.153 0.895564 -1.65412 0
M  V30 1741 O 169.511 1.5923 -0.866922 0
M  V30 1742 C 169.559 -0.680223 -3.54126 0
M  V30 1743 O 168.663 0.277033 -4.11468 0
M  V30 1744 H 168.004 -0.200518 -0.633 0
M  V30 1745 H 170.534 -1.18342 -1.66902 0
M  V30 1746 H 170.544 -0.5765 -4.03907 0
M  V30 1747 H 169.219 -1.70261 -3.79452 0
M  V30 1748 H 167.796 0.127606 -3.72682 0
M  V30 1749 N 169.982 1.44106 -0.638065 0
M  V30 1750 C 170.912 2.33448 0.0494287 0
M  V30 1751 C 171.893 1.48606 0.827672 0
M  V30 1752 O 173.078 1.77308 0.792173 0
M  V30 1753 C 170.208 3.31771 1.02691 0
M  V30 1754 C 169.162 4.26485 0.359823 0
M  V30 1755 C 168.488 5.14729 1.44769 0
M  V30 1756 C 169.788 5.17056 -0.738296 0
M  V30 1757 H 171.482 2.91183 -0.696636 0
M  V30 1758 H 169.028 1.40014 -0.336456 0
M  V30 1759 H 170.981 3.93161 1.51666 0
M  V30 1760 H 169.705 2.7226 1.80395 0
M  V30 1761 H 168.364 3.66437 -0.10934 0
M  V30 1762 H 168.012 4.51566 2.21578 0
M  V30 1763 H 167.712 5.78913 1.00668 0
M  V30 1764 H 169.236 5.78991 1.93911 0
M  V30 1765 H 170.65 5.72342 -0.331354 0
M  V30 1766 H 169.047 5.89879 -1.10286 0
M  V30 1767 H 170.117 4.57652 -1.60258 0
M  V30 1768 N 171.46 0.379036 1.52974 0
M  V30 1769 C 172.876 0.0285448 1.59574 0
M  V30 1770 C 173.076 -1.45542 1.39355 0
M  V30 1771 O 172.132 -2.2187 1.20541 0
M  V30 1772 C 173.445 0.496535 2.96572 0
M  V30 1773 C 174.993 0.451909 3.0972 0
M  V30 1774 C 175.468 0.895924 4.49152 0
M  V30 1775 N 176.959 0.851522 4.55306 0
M  V30 1776 C 177.694 1.16661 5.61407 0
M  V30 1777 N 177.19 1.55166 6.752 0
M  V30 1778 N 178.983 1.08853 5.51459 0
M  V30 1779 H 171.134 1.34525 1.64367 0
M  V30 1780 H 173.397 0.550733 0.771619 0
M  V30 1781 H 173.103 1.53258 3.16552 0
M  V30 1782 H 172.977 -0.109802 3.7704 0
M  V30 1783 H 175.364 -0.575029 2.89443 0
M  V30 1784 H 175.445 1.09392 2.3123 0
M  V30 1785 H 175.089 1.92104 4.70168 0
M  V30 1786 H 175.019 0.23103 5.26093 0
M  V30 1787 H 177.51 0.568038 3.73606 0
M  V30 1788 H 177.823 1.776 7.52116 0
M  V30 1789 H 176.168 1.59044 6.76557 0
M  V30 1790 H 179.359 0.786803 4.6144 0
M  V30 1791 H 179.532 1.33742 6.34048 0
M  V30 1792 N 172.938 -1.57226 0.108567 0
M  V30 1793 C 173.868 -2.17778 -0.84232 0
M  V30 1794 C 174.849 -1.11487 -1.2847 0
M  V30 1795 O 176.034 -1.39681 -1.34918 0
M  V30 1796 C 173.164 -2.76888 -2.09644 0
M  V30 1797 C 172.118 -3.88669 -1.79221 0
M  V30 1798 C 171.444 -4.34541 -3.11574 0
M  V30 1799 C 172.744 -5.11251 -1.06864 0
M  V30 1800 H 174.438 -2.97489 -0.337774 0
M  V30 1801 H 171.984 -1.43097 -0.161025 0
M  V30 1802 H 173.937 -3.17904 -2.76614 0
M  V30 1803 H 172.661 -1.94451 -2.62405 0
M  V30 1804 H 171.32 -3.48213 -1.14644 0
M  V30 1805 H 170.968 -3.48977 -3.62249 0
M  V30 1806 H 170.668 -5.09914 -2.91996 0
M  V30 1807 H 172.192 -4.782 -3.7968 0
M  V30 1808 H 173.606 -5.49352 -1.63968 0
M  V30 1809 H 172.003 -5.9214 -0.974178 0
M  V30 1810 H 173.073 -4.8487 -0.0536168 0
M  V30 1811 N 174.416 0.165178 -1.56732 0
M  V30 1812 C 175.664 0.879068 -1.8198 0
M  V30 1813 C 175.985 1.82514 -0.686561 0
M  V30 1814 O 175.255 1.93694 0.293146 0
M  V30 1815 H 173.835 0.327608 -0.671329 0
M  V30 1816 H 176.497 0.163526 -1.94213 0
M  V30 1817 H 175.593 1.45228 -2.76252 0
M  V30 1818 N 175.894 1.51508 0.433938 0
M  V30 1819 C 177.305 1.56784 1.01369 0
M  V30 1820 C 177.656 0.393349 1.92217 0
M  V30 1821 O 176.781 -0.489441 2.10792 0
M  V30 1822 C 177.376 2.84144 1.8452 0
M  V30 1823 C 175.935 2.9198 2.37539 0
M  V30 1824 C 175.082 2.51482 1.16843 0
M  V30 1825 H 178.033 1.57236 0.215081 0
M  V30 1826 H 178.054 2.68098 2.70007 0
M  V30 1827 H 177.566 3.69607 1.18373 0
M  V30 1828 H 175.667 2.10955 3.0713 0
M  V30 1829 H 175.78 3.95704 2.70103 0
M  V30 1830 H 174.144 2.04758 1.51481 0
M  V30 1831 H 174.927 3.39293 0.523015 0
M  V30 1832 N 177.372 -0.689602 1.41712 0
M  V30 1833 C 178.335 -1.78521 1.43746 0
M  V30 1834 C 179.335 -1.57436 0.327191 0
M  V30 1835 O 180.525 -1.64 0.587348 0
M  V30 1836 C 177.657 -3.16971 1.25467 0
M  V30 1837 H 178.85 -1.78108 2.41283 0
M  V30 1838 H 176.403 -0.89781 1.27942 0
M  V30 1839 H 177.138 -3.23019 0.287948 0
M  V30 1840 H 176.923 -3.33678 2.05917 0
M  V30 1841 H 178.413 -3.96935 1.2974 0
M  V30 1842 N 178.85 -1.27639 -0.924453 0
M  V30 1843 C 179.78 -1.13166 -2.04244 0
M  V30 1844 C 180.761 -0.032256 -1.70069 0
M  V30 1845 O 181.946 -0.207328 -1.9309 0
M  V30 1846 C 179.076 -0.781496 -3.38393 0
M  V30 1847 C 178.03 -1.83449 -3.86692 0
M  V30 1848 C 177.356 -1.33822 -5.17683 0
M  V30 1849 C 178.656 -3.23917 -4.09726 0
M  V30 1850 H 180.35 -2.06689 -2.1661 0
M  V30 1851 H 177.896 -0.995136 -1.04082 0
M  V30 1852 H 179.849 -0.667057 -4.16087 0
M  V30 1853 H 178.573 0.189439 -3.2605 0
M  V30 1854 H 177.232 -1.93789 -3.11193 0
M  V30 1855 H 176.88 -0.35665 -5.01734 0
M  V30 1856 H 176.58 -2.04224 -5.50968 0
M  V30 1857 H 178.104 -1.23679 -5.97943 0
M  V30 1858 H 179.518 -3.16559 -4.77978 0
M  V30 1859 H 177.915 -3.92059 -4.54324 0
M  V30 1860 H 178.985 -3.68729 -3.14908 0
M  V30 1861 N 180.328 1.1314 -1.09713 0
M  V30 1862 C 181.291 2.16831 -0.742751 0
M  V30 1863 C 182.291 1.59159 0.229129 0
M  V30 1864 O 183.481 1.74199 0.00693237 0
M  V30 1865 C 180.613 3.40756 -0.0989168 0
M  V30 1866 H 181.806 2.49695 -1.66109 0
M  V30 1867 H 179.359 1.2802 -0.896699 0
M  V30 1868 H 180.094 3.13485 0.830514 0
M  V30 1869 H 179.879 3.83888 -0.798265 0
M  V30 1870 H 181.369 4.17386 0.133524 0
M  V30 1871 N 181.806 0.884767 1.30421 0
M  V30 1872 C 183.034 0.518044 2.0031 0
M  V30 1873 C 183.449 -0.893408 1.66324 0
M  V30 1874 O 182.806 -1.5875 0.900262 0
M  V30 1875 C 182.857 0.682997 3.54989 0
M  V30 1876 O 182.578 2.03888 3.87764 0
M  V30 1877 C 184.079 0.31924 4.42149 0
M  V30 1878 H 181.299 0.200265 0.640418 0
M  V30 1879 H 183.843 1.19001 1.6631 0
M  V30 1880 H 181.998 0.0584052 3.87356 0
M  V30 1881 H 182.412 2.05735 4.82466 0
M  V30 1882 H 183.886 0.485555 5.4986 0
M  V30 1883 H 184.363 -0.742717 4.32875 0
M  V30 1884 H 184.969 0.920147 4.15227 0
M  V30 1885 N 183.284 -1.43765 0.645699 0
M  V30 1886 C 184.214 -2.33471 -0.0370477 0
M  V30 1887 C 185.195 -1.49042 -0.819779 0
M  V30 1888 O 186.38 -1.77726 -0.782758 0
M  V30 1889 C 183.51 -3.32311 -1.0093 0
M  V30 1890 C 182.464 -4.2667 -0.337201 0
M  V30 1891 C 181.79 -5.1549 -1.42037 0
M  V30 1892 C 183.09 -5.16657 0.765706 0
M  V30 1893 H 184.784 -2.90809 0.712069 0
M  V30 1894 H 182.33 -1.39834 0.343876 0
M  V30 1895 H 184.283 -3.9396 -1.49578 0
M  V30 1896 H 183.007 -2.73213 -1.78948 0
M  V30 1897 H 181.666 -3.66374 0.128771 0
M  V30 1898 H 181.314 -4.52735 -2.1918 0
M  V30 1899 H 181.014 -5.79438 -0.975966 0
M  V30 1900 H 182.538 -5.80012 -1.90838 0
M  V30 1901 H 183.952 -5.72158 0.361702 0
M  V30 1902 H 182.349 -5.89286 1.13413 0
M  V30 1903 H 183.419 -4.56796 1.62683 0
M  V30 1904 N 184.763 -0.387143 -1.52771 0
M  V30 1905 C 185.673 0.456442 -2.30117 0
M  V30 1906 C 186.689 1.07342 -1.36944 0
M  V30 1907 O 187.865 1.07971 -1.70013 0
M  V30 1908 C 184.93 1.56957 -3.09136 0
M  V30 1909 C 183.991 0.977916 -4.18014 0
M  V30 1910 C 183.224 2.038 -4.93256 0
M  V30 1911 O 183.447 3.25271 -4.68567 0
M  V30 1912 O 182.381 1.6565 -5.78657 0
M  V30 1913 H 186.207 -0.17359 -3.03203 0
M  V30 1914 H 183.792 -0.150919 -1.48636 0
M  V30 1915 H 185.674 2.21628 -3.58412 0
M  V30 1916 H 184.349 2.18461 -2.38865 0
M  V30 1917 H 183.256 0.294525 -3.72939 0
M  V30 1918 H 184.589 0.407128 -4.90513 0
M  V30 1919 N 186.241 1.57166 -0.116904 0
M  V30 1920 C 187.173 2.12271 0.864507 0
M  V30 1921 C 188.186 1.06494 1.23138 0
M  V30 1922 O 189.375 1.33873 1.18069 0
M  V30 1923 C 186.475 2.60564 2.16702 0
M  V30 1924 C 185.648 3.90416 1.97216 0
M  V30 1925 C 184.707 4.24329 3.11178 0
M  V30 1926 O 183.733 4.93182 2.84184 0
M  V30 1927 N 184.935 3.8148 4.37554 0
M  V30 1928 H 187.7 2.97102 0.393726 0
M  V30 1929 H 185.261 1.61759 0.0675805 0
M  V30 1930 H 187.253 2.80282 2.91932 0
M  V30 1931 H 185.823 1.80623 2.55135 0
M  V30 1932 H 185.043 3.79627 1.06192 0
M  V30 1933 H 186.331 4.75327 1.81499 0
M  V30 1934 H 185.729 3.25943 4.62361 0
M  V30 1935 H 184.286 4.06311 5.09661 0
M  V30 1936 N 187.719 -0.156864 1.56817 0
M  V30 1937 C 188.649 -1.19589 2.00551 0
M  V30 1938 C 189.63 -1.4536 0.883426 0
M  V30 1939 O 190.815 -1.56449 1.15054 0
M  V30 1940 C 187.945 -2.53143 2.37773 0
M  V30 1941 C 186.899 -2.41913 3.53075 0
M  V30 1942 C 186.225 -3.80088 3.76081 0
M  V30 1943 C 187.525 -1.91157 4.86062 0
M  V30 1944 H 189.219 -0.832293 2.87599 0
M  V30 1945 H 186.765 -0.398918 1.38364 0
M  V30 1946 H 188.718 -3.26047 2.66967 0
M  V30 1947 H 187.442 -2.91319 1.4765 0
M  V30 1948 H 186.101 -1.71462 3.24031 0
M  V30 1949 H 185.749 -4.15683 2.83225 0
M  V30 1950 H 185.449 -3.73439 4.53671 0
M  V30 1951 H 186.973 -4.54556 4.0769 0
M  V30 1952 H 188.387 -2.53846 5.14038 0
M  V30 1953 H 186.784 -1.95422 5.67389 0
M  V30 1954 H 187.854 -0.866673 4.77092 0
M  V30 1955 N 189.197 -1.51736 -0.425897 0
M  V30 1956 C 190.425 -1.68794 -1.1965 0
M  V30 1957 C 190.84 -0.390164 -1.84725 0
M  V30 1958 O 190.197 0.632376 -1.71194 0
M  V30 1959 C 190.248 -2.81174 -2.27208 0
M  V30 1960 O 189.969 -4.05925 -1.64793 0
M  V30 1961 C 191.47 -3.09599 -3.17275 0
M  V30 1962 H 188.69 -0.566128 -0.360194 0
M  V30 1963 H 191.234 -1.98211 -0.503249 0
M  V30 1964 H 189.389 -2.54324 -2.9223 0
M  V30 1965 H 189.803 -4.68423 -2.35967 0
M  V30 1966 H 191.277 -3.91786 -3.88854 0
M  V30 1967 H 191.754 -2.22468 -3.78688 0
M  V30 1968 H 192.36 -3.38151 -2.57941 0
M  V30 1969 N 190.675 0.682077 -1.42076 0
M  V30 1970 C 191.607 1.80755 -1.40926 0
M  V30 1971 C 192.62 1.59833 -0.309398 0
M  V30 1972 O 193.809 1.69087 -0.572014 0
M  V30 1973 C 190.909 3.17744 -1.17865 0
M  V30 1974 C 190.082 3.65578 -2.40149 0
M  V30 1975 C 189.141 4.81277 -2.12742 0
M  V30 1976 O 188.167 4.92197 -2.85887 0
M  V30 1977 N 189.369 5.69474 -1.12602 0
M  V30 1978 H 192.134 1.82229 -2.37935 0
M  V30 1979 H 189.695 0.864903 -1.36861 0
M  V30 1980 H 191.687 3.9279 -0.9746 0
M  V30 1981 H 190.257 3.11214 -0.294068 0
M  V30 1982 H 189.477 2.81291 -2.76169 0
M  V30 1983 H 190.765 3.94278 -3.21593 0
M  V30 1984 H 190.163 5.63297 -0.520899 0
M  V30 1985 H 188.72 6.44363 -0.981842 0
M  V30 1986 N 192.153 1.28127 0.917671 0
M  V30 1987 C 193.401 1.14825 1.66312 0
M  V30 1988 C 193.722 -0.304379 1.9261 0
M  V30 1989 O 192.992 -1.21149 1.53947 0
M  V30 1990 H 191.572 0.421953 0.616413 0
M  V30 1991 H 194.234 1.608 1.10134 0
M  V30 1992 H 193.33 1.68489 2.62712 0
M  V30 1993 N 193.631 -1.12557 1.10312 0
M  V30 1994 C 194.578 -2.18247 0.750781 0
M  V30 1995 C 195.548 -1.63853 -0.272293 0
M  V30 1996 O 196.733 -1.90195 -0.151862 0
M  V30 1997 C 193.873 -3.44591 0.187379 0
M  V30 1998 C 192.986 -4.13046 1.2656 0
M  V30 1999 C 192.121 -5.27034 0.663978 0
M  V30 2000 C 191.16 -5.87353 1.72287 0
M  V30 2001 N 190.297 -6.92757 1.1416 0
M  V30 2002 H 195.137 -2.47732 1.65628 0
M  V30 2003 H 192.674 -1.21629 0.827337 0
M  V30 2004 H 194.632 -4.16904 -0.157148 0
M  V30 2005 H 193.262 -3.15527 -0.681355 0
M  V30 2006 H 192.314 -3.38924 1.72727 0
M  V30 2007 H 193.626 -4.53947 2.06721 0
M  V30 2008 H 192.78 -6.06104 0.268824 0
M  V30 2009 H 191.519 -4.87407 -0.169082 0
M  V30 2010 H 190.524 -5.06971 2.12746 0
M  V30 2011 H 191.749 -6.29051 2.55875 0
M  V30 2012 H 189.695 -6.5517 0.329984 0
M  V30 2013 H 189.612 -7.3225 1.88007 0
M  V30 2014 H 190.88 -7.75658 0.772956 0
M  V30 2015 N 195.109 -0.891671 -1.2995 0
M  V30 2016 C 196.52 -0.563104 -1.78006 0
M  V30 2017 C 196.871 0.920978 -1.73241 0
M  V30 2018 O 195.996 1.71987 -1.31337 0
M  V30 2019 C 196.591 -1.01539 -3.23226 0
M  V30 2020 C 195.15 -0.738124 -3.69092 0
M  V30 2021 C 194.297 -1.19461 -2.50249 0
M  V30 2022 H 197.248 -1.07522 -1.16725 0
M  V30 2023 H 197.269 -0.347217 -3.78912 0
M  V30 2024 H 196.781 -2.09555 -3.26662 0
M  V30 2025 H 194.882 0.329766 -3.71138 0
M  V30 2026 H 194.995 -1.33037 -4.60259 0
M  V30 2027 H 193.359 -0.613787 -2.47194 0
M  V30 2028 H 194.142 -2.28265 -2.56417 0
M  V30 2029 N 196.587 1.43421 -0.653314 0
M  V30 2030 C 197.517 2.33487 0.0246656 0
M  V30 2031 C 198.498 1.49475 0.811863 0
M  V30 2032 O 199.683 1.78139 0.773322 0
M  V30 2033 C 196.813 3.32841 0.99166 0
M  V30 2034 C 195.767 4.26842 0.314568 0
M  V30 2035 C 195.093 5.16236 1.39302 0
M  V30 2036 C 196.393 5.16243 -0.793095 0
M  V30 2037 H 198.087 2.90427 -0.727481 0
M  V30 2038 H 195.633 1.39649 -0.351287 0
M  V30 2039 H 197.586 3.94747 1.47487 0
M  V30 2040 H 196.31 2.74158 1.77497 0
M  V30 2041 H 194.969 3.663 -0.148199 0
M  V30 2042 H 194.617 4.53891 2.16776 0
M  V30 2043 H 194.317 5.79948 0.945223 0
M  V30 2044 H 195.841 5.81015 1.87759 0
M  V30 2045 H 197.255 5.71958 -0.392039 0
M  V30 2046 H 195.652 5.88676 -1.16536 0
M  V30 2047 H 196.722 4.55927 -1.65103 0
M  V30 2048 N 198.065 0.39524 1.52563 0
M  V30 2049 C 199.476 -0.0774719 1.86539 0
M  V30 2050 C 199.827 -1.45641 1.31466 0
M  V30 2051 O 198.952 -2.06459 0.648367 0
M  V30 2052 C 199.547 -0.147356 3.38479 0
M  V30 2053 C 198.106 -0.564373 3.72145 0
M  V30 2054 C 197.253 0.269919 2.75983 0
M  V30 2055 H 200.204 0.612876 1.46388 0
M  V30 2056 H 200.225 -0.965343 3.68051 0
M  V30 2057 H 199.737 0.856387 3.78534 0
M  V30 2058 H 197.838 -1.57527 3.37663 0
M  V30 2059 H 197.951 -0.318402 4.78041 0
M  V30 2060 H 196.315 -0.265696 2.5331 0
M  V30 2061 H 197.098 1.27175 3.18875 0
M  V30 2062 N 199.544 -1.57102 0.125237 0
M  V30 2063 C 200.454 -2.19191 -0.8362 0
M  V30 2064 C 201.47 -1.16985 -1.28805 0
M  V30 2065 O 202.646 -1.49479 -1.34974 0
M  V30 2066 C 199.711 -2.78407 -2.06617 0
M  V30 2067 C 198.772 -3.9567 -1.66565 0
M  V30 2068 C 198.005 -4.52052 -2.83698 0
M  V30 2069 O 198.228 -4.07326 -3.99302 0
M  V30 2070 O 197.162 -5.42645 -2.60423 0
M  V30 2071 H 200.988 -3.01816 -0.337776 0
M  V30 2072 H 198.573 -1.4906 -0.100695 0
M  V30 2073 H 200.455 -3.16129 -2.7864 0
M  V30 2074 H 199.13 -1.9881 -2.55453 0
M  V30 2075 H 198.037 -3.62705 -0.916296 0
M  V30 2076 H 199.37 -4.76722 -1.22464 0
M  V30 2077 N 201.022 0.148545 -1.56898 0
M  V30 2078 C 202.269 0.861418 -1.83264 0
M  V30 2079 C 202.597 1.81239 -0.705883 0
M  V30 2080 O 201.852 1.93305 0.305212 0
M  V30 2081 C 202.151 1.67064 -3.1595 0
M  V30 2082 C 201.817 0.866591 -4.42494 0
M  V30 2083 C 200.479 0.644762 -4.76861 0
M  V30 2084 C 202.831 0.30418 -5.20312 0
M  V30 2085 C 200.159 -0.15021 -5.86508 0
M  V30 2086 C 202.511 -0.477824 -6.30793 0
M  V30 2087 C 201.175 -0.710244 -6.63711 0
M  V30 2088 H 200.445 0.315215 -0.670612 0
M  V30 2089 H 203.092 0.125142 -1.91091 0
M  V30 2090 H 201.397 2.47698 -3.03567 0
M  V30 2091 H 203.094 2.22566 -3.33565 0
M  V30 2092 H 199.684 1.04955 -4.15551 0
M  V30 2093 H 203.868 0.462844 -4.94137 0
M  V30 2094 H 199.124 -0.339796 -6.10455 0
M  V30 2095 H 203.298 -0.92076 -6.90286 0
M  V30 2096 H 200.925 -1.3281 -7.48509 0
M  V30 2097 N 202.5 1.5196 0.417844 0
M  V30 2098 C 203.777 1.56146 1.17803 0
M  V30 2099 C 204.157 0.337275 2.08388 0
M  V30 2100 O 203.505 -0.676447 2.18258 0
M  V30 2101 C 203.715 2.88566 1.96293 0
M  V30 2102 C 205.063 3.41244 2.52662 0
M  V30 2103 O 206.087 2.90247 2.06483 0
M  V30 2104 O 204.946 4.30273 3.36938 0
M  V30 2105 H 202.04 0.628598 0.537395 0
M  V30 2106 H 204.586 1.64283 0.425331 0
M  V30 2107 H 203.358 3.69116 1.2988 0
M  V30 2108 H 202.981 2.83681 2.78587 0
M  V30 2109 N 203.978 -0.674533 1.42435 0
M  V30 2110 C 204.908 -1.80009 1.48724 0
M  V30 2111 C 205.889 -1.6659 0.343793 0
M  V30 2112 O 207.074 -1.86007 0.558137 0
M  V30 2113 C 204.204 -3.18306 1.38919 0
M  V30 2114 C 203.158 -3.46461 2.51294 0
M  V30 2115 C 202.484 -4.84335 2.26547 0
M  V30 2116 C 203.784 -3.43328 3.93603 0
M  V30 2117 H 205.478 -1.75004 2.42928 0
M  V30 2118 H 203.024 -0.840533 1.16923 0
M  V30 2119 H 204.977 -3.9678 1.41927 0
M  V30 2120 H 203.701 -3.2399 0.412094 0
M  V30 2121 H 202.36 -2.70348 2.47604 0
M  V30 2122 H 202.008 -4.86669 1.2713 0
M  V30 2123 H 201.708 -5.04136 3.01861 0
M  V30 2124 H 203.232 -5.65094 2.31304 0
M  V30 2125 H 204.646 -4.11772 3.98894 0
M  V30 2126 H 203.043 -3.74664 4.68771 0
M  V30 2127 H 204.113 -2.41897 4.20255 0
M  V30 2128 N 205.456 -1.28612 -0.910864 0
M  V30 2129 C 206.705 -1.15311 -1.65488 0
M  V30 2130 C 207.018 0.296999 -1.93332 0
M  V30 2131 O 208.224 0.551168 -2.65847 0
M  V30 2132 C 206.68 -2.01599 -2.98137 0
M  V30 2133 C 206.288 -3.51367 -2.7793 0
M  V30 2134 C 208.032 -1.96993 -3.76024 0
M  V30 2135 C 205.939 -4.29797 -4.06237 0
M  V30 2136 H 204.869 -0.42796 -0.620779 0
M  V30 2137 H 207.52 -1.53166 -1.01057 0
M  V30 2138 H 205.902 -1.56603 -3.63719 0
M  V30 2139 H 207.076 -4.0434 -2.21011 0
M  V30 2140 H 205.391 -3.57529 -2.13452 0
M  V30 2141 H 207.988 -2.52856 -4.71135 0
M  V30 2142 H 208.331 -0.94733 -4.05378 0
M  V30 2143 H 208.864 -2.39973 -3.17266 0
M  V30 2144 H 205.603 -5.32648 -3.82055 0
M  V30 2145 H 205.123 -3.81596 -4.62757 0
M  V30 2146 H 206.802 -4.39869 -4.74473 0
M  V30 2147 N 206.934 1.1197 -1.10907 0
M  V30 2148 C 208.181 1.83588 -0.854507 0
M  V30 2149 C 208.509 1.84357 0.6199 0
M  V30 2150 O 207.764 1.28809 1.47332 0
M  V30 2151 C 208.063 3.30749 -1.35425 0
M  V30 2152 C 207.729 3.50146 -2.84093 0
M  V30 2153 C 206.391 3.55148 -3.2469 0
M  V30 2154 C 208.743 3.56857 -3.79872 0
M  V30 2155 C 206.071 3.6441 -4.59806 0
M  V30 2156 C 208.423 3.6765 -5.14797 0
M  V30 2157 C 207.087 3.7091 -5.54961 0
M  V30 2158 H 206.357 0.671795 -0.312686 0
M  V30 2159 H 209.004 1.32091 -1.38652 0
M  V30 2160 H 207.309 3.84703 -0.742361 0
M  V30 2161 H 209.006 3.8464 -1.1337 0
M  V30 2162 H 205.596 3.46919 -2.51685 0
M  V30 2163 H 209.78 3.52258 -3.49611 0
M  V30 2164 H 205.036 3.65208 -4.9034 0
M  V30 2165 H 209.21 3.71786 -5.88853 0
M  V30 2166 H 206.837 3.7784 -6.59652 0
M  V30 2167 N 208.412 0.89855 1.29475 0
M  V30 2168 C 209.661 0.519863 1.94885 0
M  V30 2169 C 209.974 -0.9383 1.71625 0
M  V30 2170 O 211.18 -1.42445 2.31131 0
M  V30 2171 C 209.636 0.878836 3.49005 0
M  V30 2172 C 209.244 2.35569 3.81066 0
M  V30 2173 C 210.988 0.570004 4.20656 0
M  V30 2174 C 208.895 2.65558 5.28425 0
M  V30 2175 H 207.825 0.190692 0.729488 0
M  V30 2176 H 210.476 1.09539 1.47219 0
M  V30 2177 H 208.858 0.232253 3.95318 0
M  V30 2178 H 210.032 3.04773 3.45616 0
M  V30 2179 H 208.347 2.63343 3.22552 0
M  V30 2180 H 210.944 0.770925 5.29113 0
M  V30 2181 H 211.287 -0.491404 4.1339 0
M  V30 2182 H 211.82 1.17438 3.8007 0
M  V30 2183 H 208.559 3.70493 5.40754 0
M  V30 2184 H 208.079 2.00977 5.65127 0
M  V30 2185 H 209.758 2.51765 5.96006 0
M  V30 2186 N 209.89 -1.43072 0.660911 0
M  V30 2187 C 211.167 -1.95307 0.107017 0
M  V30 2188 C 211.547 -1.60192 -1.37484 0
M  V30 2189 O 210.895 -0.890949 -2.10415 0
M  V30 2190 C 211.105 -3.47124 0.361402 0
M  V30 2191 C 212.453 -4.23738 0.270455 0
M  V30 2192 O 213.477 -3.54981 0.294382 0
M  V30 2193 O 212.336 -5.46131 0.200737 0
M  V30 2194 H 209.43 -0.826984 -0.00517729 0
M  V30 2195 H 211.976 -1.52972 0.734681 0
M  V30 2196 H 210.748 -3.65837 1.38848 0
M  V30 2197 H 210.371 -3.96475 -0.298953 0
M  V30 2198 N 211.368 -0.403325 -1.52352 0
M  V30 2199 C 212.331 0.413051 -2.25447 0
M  V30 2200 C 213.331 0.978513 -1.276 0
M  V30 2201 O 214.521 0.858305 -1.51587 0
M  V30 2202 C 211.653 1.58087 -3.02029 0
M  V30 2203 H 212.846 -0.227094 -2.99039 0
M  V30 2204 H 210.399 -0.155722 -1.55522 0
M  V30 2205 H 211.134 2.25804 -2.32772 0
M  V30 2206 H 210.919 1.18195 -3.73861 0
M  V30 2207 H 212.409 2.1585 -3.57489 0
M  V30 2208 N 212.846 1.57033 -0.133567 0
M  V30 2209 C 214.123 1.87256 0.56522 0
M  V30 2210 C 214.503 1.03726 1.83859 0
M  V30 2211 O 213.851 0.120247 2.28183 0
M  V30 2212 C 214.061 3.3865 0.843636 0
M  V30 2213 C 215.409 4.07574 1.19032 0
M  V30 2214 O 216.433 3.43752 0.933429 0
M  V30 2215 O 215.292 5.20259 1.67312 0
M  V30 2216 H 212.386 0.775678 0.286796 0
M  V30 2217 H 214.932 1.68855 -0.169168 0
M  V30 2218 H 213.704 3.91257 -0.0581149 0
M  V30 2219 H 213.327 3.62532 1.63268 0
M  V30 2220 N 214.325 -0.140222 1.56975 0
M  V30 2221 C 215.272 -1.17292 1.98774 0
M  V30 2222 C 216.242 -1.4232 0.856408 0
M  V30 2223 O 217.427 -1.54541 1.119 0
M  V30 2224 C 214.567 -2.49973 2.37923 0
M  V30 2225 C 213.68 -2.32062 3.64378 0
M  V30 2226 C 212.815 -3.57825 3.926 0
M  V30 2227 C 211.854 -3.3498 5.12303 0
M  V30 2228 N 210.991 -4.52891 5.36502 0
M  V30 2229 H 215.831 -0.809472 2.86795 0
M  V30 2230 H 213.368 -0.388237 1.41884 0
M  V30 2231 H 215.326 -3.27346 2.58652 0
M  V30 2232 H 213.956 -2.84252 1.52972 0
M  V30 2233 H 213.008 -1.45711 3.51387 0
M  V30 2234 H 214.32 -2.11145 4.51906 0
M  V30 2235 H 213.474 -4.43624 4.13863 0
M  V30 2236 H 212.213 -3.81753 3.03506 0
M  V30 2237 H 211.218 -2.4757 4.90906 0
M  V30 2238 H 212.443 -3.12444 6.02956 0
M  V30 2239 H 210.389 -4.76979 4.50363 0
M  V30 2240 H 210.306 -4.35001 6.18312 0
M  V30 2241 H 211.574 -5.39884 5.62268 0
M  V30 2242 N 215.803 -1.52179 -0.40978 0
M  V30 2243 C 217.219 -1.40968 -0.74835 0
M  V30 2244 C 217.419 -0.513657 -1.94843 0
M  V30 2245 O 216.475 0.0208026 -2.52491 0
M  V30 2246 C 217.788 -2.83483 -1.0029 0
M  V30 2247 C 219.336 -2.92821 -1.10565 0
M  V30 2248 C 219.811 -4.36303 -1.39296 0
M  V30 2249 N 221.302 -4.39535 -1.46162 0
M  V30 2250 C 222.037 -5.47614 -1.70018 0
M  V30 2251 N 221.533 -6.65812 -1.91483 0
M  V30 2252 N 223.326 -5.35129 -1.72027 0
M  V30 2253 H 215.477 -2.0897 0.380186 0
M  V30 2254 H 217.74 -0.94185 0.107805 0
M  V30 2255 H 217.446 -3.51168 -0.193461 0
M  V30 2256 H 217.32 -3.24487 -1.92323 0
M  V30 2257 H 219.707 -2.25318 -1.90568 0
M  V30 2258 H 219.788 -2.55276 -0.16369 0
M  V30 2259 H 219.432 -5.04366 -0.598109 0
M  V30 2260 H 219.362 -4.71385 -2.34743 0
M  V30 2261 H 221.853 -3.54332 -1.31367 0
M  V30 2262 H 222.166 -7.43964 -2.09134 0
M  V30 2263 H 220.511 -6.68879 -1.88749 0
M  V30 2264 H 223.702 -4.41764 -1.54796 0
M  V30 2265 H 223.875 -6.19433 -1.9028 0
M  V30 2266 N 217.281 0.66697 -1.42791 0
M  V30 2267 C 218.229 1.80157 -1.47127 0
M  V30 2268 C 219.223 1.65825 -0.346199 0
M  V30 2269 O 220.429 1.72338 -0.519572 0
M  V30 2270 H 216.804 0.594158 -0.460956 0
M  V30 2271 H 218.775 1.73619 -2.42692 0
M  V30 2272 C 217.524 3.18351 -1.39813 0
M  V30 2273 H 216.847 3.3001 -2.25684 0
M  V30 2274 H 218.287 3.97736 -1.46908 0
M  V30 2275 C 216.746 3.36707 -0.11391 0
M  V30 2276 O 217.276 3.93027 0.830241 0
M  V30 2277 N 215.482 2.90586 -0.0285295 0
M  V30 2278 H 215.029 2.4494 -0.79764 0
M  V30 2279 H 214.987 3.03245 0.830063 0
M  V30 2280 N 218.759 1.29093 0.90403 0
M  V30 2281 C 219.989 1.19516 1.68522 0
M  V30 2282 C 220.397 -0.24738 1.87576 0
M  V30 2283 O 219.74 -1.17798 1.40959 0
M  V30 2284 C 219.802 1.83249 3.0929 0
M  V30 2285 C 219.466 3.32531 3.13484 0
M  V30 2286 C 220.463 4.28821 2.93953 0
M  V30 2287 C 218.148 3.73656 3.35688 0
M  V30 2288 C 220.142 5.64212 2.96553 0
M  V30 2289 C 217.829 5.0917 3.37919 0
M  V30 2290 C 218.827 6.04258 3.18373 0
M  V30 2291 O 218.515 7.37298 3.20385 0
M  V30 2292 H 218.247 0.415467 0.533257 0
M  V30 2293 H 220.801 1.70912 1.13922 0
M  V30 2294 H 219.031 1.26358 3.65473 0
M  V30 2295 H 220.72 1.68054 3.69476 0
M  V30 2296 H 221.486 3.98382 2.76616 0
M  V30 2297 H 217.365 3.00101 3.49943 0
M  V30 2298 H 220.909 6.38407 2.81216 0
M  V30 2299 H 216.806 5.39256 3.54787 0
M  V30 2300 H 217.574 7.46048 3.36681 0
M  V30 2301 N 220.237 -1.11381 1.11499 0
M  V30 2302 C 221.648 -1.6465 0.880191 0
M  V30 2303 C 221.999 -1.87199 -0.587434 0
M  V30 2304 O 221.124 -1.60667 -1.44966 0
M  V30 2305 C 221.719 -2.99105 1.59128 0
M  V30 2306 C 220.278 -3.49279 1.40289 0
M  V30 2307 C 219.425 -2.24077 1.63354 0
M  V30 2308 H 222.376 -0.950123 1.27116 0
M  V30 2309 H 222.397 -3.66107 1.03664 0
M  V30 2310 H 221.909 -2.82661 2.65941 0
M  V30 2311 H 220.01 -3.70887 0.356888 0
M  V30 2312 H 220.123 -4.2803 2.15238 0
M  V30 2313 H 218.487 -2.31733 1.05698 0
M  V30 2314 H 219.27 -2.10175 2.71443 0
M  V30 2315 N 221.715 -0.905404 -1.28997 0
M  V30 2316 C 223.131 -0.60233 -1.47798 0
M  V30 2317 C 223.331 0.854645 -1.82478 0
M  V30 2318 O 222.387 1.63439 -1.92468 0
M  V30 2319 C 223.7 -1.53306 -2.58685 0
M  V30 2320 C 225.248 -1.53887 -2.72558 0
M  V30 2321 C 225.723 -2.45602 -3.86579 0
M  V30 2322 N 227.214 -2.43681 -3.93921 0
M  V30 2323 C 227.949 -3.11347 -4.81509 0
M  V30 2324 N 227.445 -3.88313 -5.73746 0
M  V30 2325 N 229.238 -3.00476 -4.75048 0
M  V30 2326 H 221.389 -1.84765 -1.04764 0
M  V30 2327 H 223.652 -0.792025 -0.520961 0
M  V30 2328 H 223.358 -2.57141 -2.39941 0
M  V30 2329 H 223.232 -1.25787 -3.55609 0
M  V30 2330 H 225.619 -0.507941 -2.90696 0
M  V30 2331 H 225.7 -1.85447 -1.76191 0
M  V30 2332 H 225.344 -3.48792 -3.69197 0
M  V30 2333 H 225.274 -2.11349 -4.82327 0
M  V30 2334 H 227.765 -1.87767 -3.27951 0
M  V30 2335 H 228.078 -4.36985 -6.37389 0
M  V30 2336 H 226.423 -3.92419 -5.73614 0
M  V30 2337 H 229.614 -2.39858 -4.01977 0
M  V30 2338 H 229.787 -3.53485 -5.43095 0
M  V30 2339 N 223.193 1.4272 -0.668489 0
M  V30 2340 C 224.423 2.05668 -0.196063 0
M  V30 2341 C 224.831 1.5028 1.14946 0
M  V30 2342 O 224.174 0.6348 1.72383 0
M  V30 2343 C 224.236 3.59469 -0.0468879 0
M  V30 2344 C 223.9 4.37518 -1.32012 0
M  V30 2345 C 224.897 4.68584 -2.25222 0
M  V30 2346 C 222.582 4.77266 -1.56596 0
M  V30 2347 C 224.576 5.38326 -3.41297 0
M  V30 2348 C 222.263 5.4675 -2.72962 0
M  V30 2349 C 223.261 5.77204 -3.65137 0
M  V30 2350 O 222.949 6.45264 -4.79468 0
M  V30 2351 H 222.681 0.669382 -0.0943599 0
M  V30 2352 H 225.235 1.83954 -0.913788 0
M  V30 2353 H 223.465 3.79817 0.726357 0
M  V30 2354 H 225.154 4.04071 0.384852 0
M  V30 2355 H 225.92 4.38382 -2.07477 0
M  V30 2356 H 221.799 4.52959 -0.857249 0
M  V30 2357 H 225.343 5.62014 -4.13263 0
M  V30 2358 H 221.24 5.76369 -2.90635 0
M  V30 2359 H 222.008 6.63753 -4.78931 0
M  V30 2360 N 224.671 0.411399 1.52136 0
M  V30 2361 C 225.901 -0.16284 2.05957 0
M  V30 2362 C 226.309 -1.3922 1.28119 0
M  V30 2363 O 225.652 -1.80768 0.326881 0
M  V30 2364 C 225.714 -0.575946 3.54856 0
M  V30 2365 C 225.378 0.542998 4.53763 0
M  V30 2366 C 226.375 1.40726 5.00492 0
M  V30 2367 C 224.06 0.716337 4.97166 0
M  V30 2368 C 226.054 2.4298 5.8927 0
M  V30 2369 C 223.741 1.74218 5.8574 0
M  V30 2370 C 224.739 2.59731 6.31687 0
M  V30 2371 O 224.427 3.60558 7.18507 0
M  V30 2372 H 224.159 -0.0229125 0.675612 0
M  V30 2373 H 226.713 0.581634 1.96993 0
M  V30 2374 H 224.943 -1.37274 3.61515 0
M  V30 2375 H 226.632 -1.07836 3.91313 0
M  V30 2376 H 227.398 1.28476 4.67674 0
M  V30 2377 H 223.277 0.0603857 4.6096 0
M  V30 2378 H 226.821 3.0976 6.25055 0
M  V30 2379 H 222.718 1.86498 6.17971 0
M  V30 2380 H 223.486 3.56829 7.36624 0
M  V30 2381 N 226.149 -1.5696 0.141893 0
M  V30 2382 C 227.059 -2.20066 -0.812905 0
M  V30 2383 C 228.075 -1.18344 -1.27557 0
M  V30 2384 O 229.251 -1.50902 -1.33381 0
M  V30 2385 C 226.316 -2.80583 -2.03652 0
M  V30 2386 C 225.377 -3.97414 -1.62359 0
M  V30 2387 C 224.61 -4.55036 -2.78887 0
M  V30 2388 O 224.833 -4.11538 -3.94959 0
M  V30 2389 O 223.767 -5.45376 -2.54653 0
M  V30 2390 H 227.593 -3.02157 -0.305746 0
M  V30 2391 H 225.178 -1.49159 -0.0848799 0
M  V30 2392 H 227.06 -3.19067 -2.75272 0
M  V30 2393 H 225.735 -2.01508 -2.5333 0
M  V30 2394 H 224.642 -3.63656 -0.877775 0
M  V30 2395 H 225.975 -4.77994 -1.17401 0
M  V30 2396 N 227.627 0.131896 -1.57047 0
M  V30 2397 C 228.876 0.84044 -1.83356 0
M  V30 2398 C 229.189 1.81646 -0.725535 0
M  V30 2399 O 230.395 2.57025 -0.874659 0
M  V30 2400 C 228.851 1.54528 -3.25037 0
M  V30 2401 C 228.459 0.610902 -4.43815 0
M  V30 2402 C 230.203 2.23972 -3.60606 0
M  V30 2403 C 228.11 1.31823 -5.76521 0
M  V30 2404 H 227.04 0.317599 -0.683847 0
M  V30 2405 H 229.691 0.0931561 -1.83263 0
M  V30 2406 H 228.073 2.33873 -3.19561 0
M  V30 2407 H 229.247 -0.148407 -4.60561 0
M  V30 2408 H 227.562 0.0241016 -4.16393 0
M  V30 2409 H 230.159 2.77558 -4.57018 0
M  V30 2410 H 230.502 3.01173 -2.87403 0
M  V30 2411 H 231.035 1.51529 -3.6781 0
M  V30 2412 H 227.774 0.587771 -6.52859 0
M  V30 2413 H 227.294 2.04987 -5.63685 0
M  V30 2414 H 228.973 1.855 -6.19838 0
M  V30 2415 N 229.106 1.52395 0.401703 0
M  V30 2416 C 230.354 1.66488 1.14569 0
M  V30 2417 C 230.675 0.400897 1.90835 0
M  V30 2418 O 229.945 -0.584415 1.8698 0
M  V30 2419 H 228.525 0.613672 0.425929 0
M  V30 2420 H 231.187 1.89464 0.457093 0
M  V30 2421 H 230.283 2.50942 1.85566 0
M  V30 2422 N 230.584 -0.659388 1.43143 0
M  V30 2423 C 231.514 -1.78422 1.50625 0
M  V30 2424 C 232.495 -1.66216 0.361443 0
M  V30 2425 O 233.68 -1.85404 0.577834 0
M  V30 2426 C 230.81 -3.16815 1.42287 0
M  V30 2427 C 229.764 -3.43777 2.54954 0
M  V30 2428 C 229.09 -4.81905 2.31671 0
M  V30 2429 C 230.39 -3.39134 3.97222 0
M  V30 2430 H 232.084 -1.72417 2.44771 0
M  V30 2431 H 229.63 -0.828084 1.17808 0
M  V30 2432 H 231.583 -3.95253 1.46127 0
M  V30 2433 H 230.307 -3.23534 0.446435 0
M  V30 2434 H 228.966 -2.67707 2.50457 0
M  V30 2435 H 228.614 -4.85294 1.32284 0
M  V30 2436 H 228.314 -5.00906 3.07192 0
M  V30 2437 H 229.838 -5.62609 2.37284 0
M  V30 2438 H 231.252 -4.07518 4.03239 0
M  V30 2439 H 229.649 -3.69671 4.72719 0
M  V30 2440 H 230.719 -2.37426 4.22797 0
M  V30 2441 N 232.062 -1.29571 -0.897171 0
M  V30 2442 C 233.01 -1.14802 -2.02295 0
M  V30 2443 C 234.004 -0.0629637 -1.69283 0
M  V30 2444 O 235.21 -0.222945 -1.78614 0
M  V30 2445 H 231.585 -0.354692 -0.663097 0
M  V30 2446 H 233.556 -2.10108 -2.11889 0
M  V30 2447 C 232.305 -0.843966 -3.37302 0
M  V30 2448 H 231.628 -1.67093 -3.63208 0
M  V30 2449 H 233.068 -0.780672 -4.16751 0
M  V30 2450 C 231.527 0.452843 -3.33843 0
M  V30 2451 O 232.057 1.47813 -3.73516 0
M  V30 2452 N 230.263 0.459601 -2.86943 0
M  V30 2453 H 229.81 -0.375213 -2.54853 0
M  V30 2454 H 229.768 1.32726 -2.85011 0
M  V30 2455 N 233.54 1.10788 -1.12088 0
M  V30 2456 C 234.47 2.19083 -0.807755 0
M  V30 2457 C 235.451 1.6858 0.226859 0
M  V30 2458 O 236.636 1.93997 0.0888475 0
M  V30 2459 C 233.766 3.46344 -0.257576 0
M  V30 2460 C 232.72 4.101 -1.22483 0
M  V30 2461 C 232.046 5.32016 -0.535052 0
M  V30 2462 C 233.346 4.54236 -2.57811 0
M  V30 2463 H 235.04 2.45534 -1.71328 0
M  V30 2464 H 232.586 1.1801 -0.825205 0
M  V30 2465 H 234.539 4.21392 -0.0262679 0
M  V30 2466 H 233.263 3.19373 0.683278 0
M  V30 2467 H 231.922 3.37054 -1.44189 0
M  V30 2468 H 231.57 5.01319 0.410827 0
M  V30 2469 H 231.27 5.75625 -1.18024 0
M  V30 2470 H 232.794 6.09799 -0.312695 0
M  V30 2471 H 234.208 5.20575 -2.40155 0
M  V30 2472 H 232.605 5.08682 -3.18375 0
M  V30 2473 H 233.675 3.6734 -3.16528 0
M  V30 2474 N 235.018 0.912232 1.28515 0
M  V30 2475 C 235.948 0.416403 2.29757 0
M  V30 2476 C 236.929 -0.515194 1.6211 0
M  V30 2477 O 238.114 -0.423253 1.89532 0
M  V30 2478 C 235.244 -0.34572 3.45575 0
M  V30 2479 C 234.198 0.496599 4.25109 0
M  V30 2480 C 233.524 -0.393771 5.33248 0
M  V30 2481 C 234.824 1.75307 4.92001 0
M  V30 2482 H 236.518 1.26249 2.7148 0
M  V30 2483 H 234.064 0.608515 1.30511 0
M  V30 2484 H 236.017 -0.703422 4.15488 0
M  V30 2485 H 234.741 -1.2257 3.02728 0
M  V30 2486 H 233.4 0.8368 3.56922 0
M  V30 2487 H 233.048 -1.27225 4.86644 0
M  V30 2488 H 232.748 0.166209 5.87365 0
M  V30 2489 H 234.272 -0.747389 6.06009 0
M  V30 2490 H 235.686 1.46437 5.54283 0
M  V30 2491 H 234.083 2.25534 5.56106 0
M  V30 2492 H 235.153 2.48176 4.16577 0
M  V30 2493 N 236.496 -1.42363 0.676048 0
M  V30 2494 C 237.912 -1.55811 0.345718 0
M  V30 2495 C 238.112 -1.65544 -1.14879 0
M  V30 2496 O 237.168 -1.62306 -1.93424 0
M  V30 2497 C 238.481 -2.80746 1.07713 0
M  V30 2498 C 240.029 -2.9452 1.05958 0
M  V30 2499 C 240.504 -4.22318 1.77233 0
M  V30 2500 N 241.995 -4.29233 1.74108 0
M  V30 2501 C 242.73 -5.26935 2.26113 0
M  V30 2502 N 242.226 -6.30783 2.86505 0
M  V30 2503 N 244.019 -5.18741 2.1648 0
M  V30 2504 H 236.17 -1.34289 1.6456 0
M  V30 2505 H 238.433 -0.646506 0.69335 0
M  V30 2506 H 238.139 -2.79696 2.13221 0
M  V30 2507 H 238.013 -3.71676 0.64316 0
M  V30 2508 H 240.4 -2.95097 0.0128255 0
M  V30 2509 H 240.481 -2.04817 1.53244 0
M  V30 2510 H 240.125 -4.22502 2.81877 0
M  V30 2511 H 240.055 -5.10958 1.27396 0
M  V30 2512 H 242.546 -3.54814 1.30059 0
M  V30 2513 H 242.859 -7.01691 3.23805 0
M  V30 2514 H 241.204 -6.31341 2.90575 0
M  V30 2515 H 244.395 -4.36533 1.68987 0
M  V30 2516 H 244.568 -5.94721 2.57316 0
M  V30 2517 N 237.974 -0.419461 -1.51915 0
M  V30 2518 C 239.39 -0.0708431 -1.59443 0
M  V30 2519 C 239.59 1.41796 -1.43164 0
M  V30 2520 O 238.646 2.18596 -1.26381 0
M  V30 2521 C 239.959 -0.574991 -2.95151 0
M  V30 2522 C 241.507 -0.533867 -3.08413 0
M  V30 2523 C 241.982 -1.01469 -4.46618 0
M  V30 2524 N 243.473 -0.971939 -4.52888 0
M  V30 2525 C 244.208 -1.31505 -5.58116 0
M  V30 2526 N 243.704 -1.73014 -6.70849 0
M  V30 2527 N 245.497 -1.23436 -5.48379 0
M  V30 2528 H 237.648 -1.38836 -1.60743 0
M  V30 2529 H 239.911 -0.570998 -0.756747 0
M  V30 2530 H 239.617 -1.61597 -3.12377 0
M  V30 2531 H 239.491 0.00979777 -3.77199 0
M  V30 2532 H 241.878 0.498086 -2.90866 0
M  V30 2533 H 241.959 -1.15484 -2.28248 0
M  V30 2534 H 241.603 -2.04502 -4.6491 0
M  V30 2535 H 241.533 -0.370433 -5.25295 0
M  V30 2536 H 244.024 -0.666893 -3.71969 0
M  V30 2537 H 244.337 -1.97479 -7.47143 0
M  V30 2538 H 242.682 -1.76926 -6.72103 0
M  V30 2539 H 245.873 -0.908869 -4.59192 0
M  V30 2540 H 246.046 -1.50506 -6.30279 0
M  V30 2541 N 239.452 1.56882 -0.150215 0
M  V30 2542 C 240.7 1.9584 0.499105 0
M  V30 2543 C 241.021 1.03623 1.65188 0
M  V30 2544 O 240.291 0.0984084 1.95653 0
M  V30 2545 H 238.871 0.723119 0.187373 0
M  V30 2546 H 241.533 1.9358 -0.226466 0
M  V30 2547 H 240.629 2.99638 0.873122 0
M  V30 2548 N 240.93 -0.123565 1.57115 0
M  V30 2549 C 242.178 -0.83051 1.84247 0
M  V30 2550 C 242.499 -1.80629 0.73471 0
M  V30 2551 O 241.769 -1.94403 -0.241688 0
M  V30 2552 H 240.349 -0.309694 0.679778 0
M  V30 2553 H 243.011 -0.111976 1.94578 0
M  V30 2554 H 242.107 -1.37852 2.80006 0
M  V30 2555 N 242.408 -1.52605 -0.393616 0
M  V30 2556 C 243.338 -1.80022 -1.48709 0
M  V30 2557 C 244.319 -0.651995 -1.57108 0
M  V30 2558 O 245.504 -0.89913 -1.72132 0
M  V30 2559 C 242.634 -1.96492 -2.86371 0
M  V30 2560 C 241.588 -3.12161 -2.92813 0
M  V30 2561 C 240.914 -3.13877 -4.3288 0
M  V30 2562 C 242.214 -4.51322 -2.6288 0
M  V30 2563 H 243.908 -2.71589 -1.26015 0
M  V30 2564 H 241.454 -1.30684 -0.604778 0
M  V30 2565 H 243.407 -2.14255 -3.62867 0
M  V30 2566 H 242.131 -1.01611 -3.10391 0
M  V30 2567 H 240.79 -2.94173 -2.18764 0
M  V30 2568 H 240.438 -2.16687 -4.53933 0
M  V30 2569 H 240.138 -3.91576 -4.38112 0
M  V30 2570 H 241.662 -3.33789 -5.1129 0
M  V30 2571 H 243.076 -4.69435 -3.29096 0
M  V30 2572 H 241.473 -5.31053 -2.79468 0
M  V30 2573 H 242.543 -4.58353 -1.58242 0
M  V30 2574 N 243.887 0.651787 -1.4349 0
M  V30 2575 C 244.82 1.77668 -1.43211 0
M  V30 2576 C 245.798 1.59931 -0.29338 0
M  V30 2577 O 246.982 1.82095 -0.487191 0
M  V30 2578 C 244.109 3.14986 -1.24505 0
M  V30 2579 C 243.155 3.51421 -2.41673 0
M  V30 2580 S 243.988 3.51234 -4.04222 0
M  V30 2581 C 245.144 4.91206 -3.87902 0
M  V30 2582 H 245.377 1.77635 -2.38397 0
M  V30 2583 H 242.91 0.824558 -1.30539 0
M  V30 2584 H 244.868 3.94237 -1.144 0
M  V30 2585 H 243.529 3.1258 -0.308651 0
M  V30 2586 H 242.722 4.51291 -2.24393 0
M  V30 2587 H 242.324 2.79585 -2.48411 0
M  V30 2588 H 244.616 5.79902 -3.50315 0
M  V30 2589 H 245.559 5.13537 -4.8753 0
M  V30 2590 H 245.967 4.64808 -3.20334 0
M  V30 2591 N 245.365 1.30045 0.890287 0
M  V30 2592 C 246.611 1.18737 1.64406 0
M  V30 2593 C 246.944 -0.258525 1.92472 0
M  V30 2594 O 246.219 -1.18562 1.54186 0
M  V30 2595 C 246.502 2.01087 2.98724 0
M  V30 2596 C 246.355 3.53867 2.77665 0
M  V30 2597 C 247.674 1.84457 3.9958 0
M  V30 2598 H 244.793 0.432698 0.596608 0
M  V30 2599 H 247.435 1.5962 1.0306 0
M  V30 2600 H 245.585 1.66349 3.51084 0
M  V30 2601 H 247.257 3.98637 2.32133 0
M  V30 2602 H 245.5 3.78318 2.12269 0
M  V30 2603 H 246.171 4.06772 3.7315 0
M  V30 2604 H 248.647 2.14817 3.56361 0
M  V30 2605 H 247.523 2.44411 4.91482 0
M  V30 2606 H 247.784 0.802276 4.3476 0
M  V30 2607 N 246.843 -1.10192 1.12674 0
M  V30 2608 C 248.092 -1.81573 0.8783 0
M  V30 2609 C 248.405 -1.86249 -0.597557 0
M  V30 2610 O 249.611 -2.5386 -0.962681 0
M  V30 2611 C 248.067 -3.26149 1.52167 0
M  V30 2612 C 247.675 -3.29763 3.03249 0
M  V30 2613 C 249.419 -4.0234 1.3536 0
M  V30 2614 C 247.326 -4.68815 3.60508 0
M  V30 2615 H 246.256 -0.680394 0.324931 0
M  V30 2616 H 248.907 -1.23902 1.35353 0
M  V30 2617 H 247.289 -3.83832 0.974104 0
M  V30 2618 H 248.463 -2.8189 3.6452 0
M  V30 2619 H 246.778 -2.67059 3.19481 0
M  V30 2620 H 249.375 -5.05058 1.75559 0
M  V30 2621 H 249.718 -4.15235 0.297554 0
M  V30 2622 H 250.251 -3.51079 1.87052 0
M  V30 2623 H 246.99 -4.61121 4.65884 0
M  V30 2624 H 246.51 -5.17045 3.04014 0
M  V30 2625 H 248.189 -5.37785 3.59717 0
M  V30 2626 N 248.321 -0.919034 -1.28029 0
M  V30 2627 C 249.598 -0.473668 -1.89778 0
M  V30 2628 C 249.978 1.04783 -1.83259 0
M  V30 2629 O 249.326 1.8982 -1.27202 0
M  V30 2630 C 249.536 -1.00998 -3.34066 0
M  V30 2631 C 250.884 -1.06525 -4.1102 0
M  V30 2632 O 251.908 -0.958996 -3.43048 0
M  V30 2633 O 250.767 -1.22776 -5.3253 0
M  V30 2634 H 247.861 -0.15098 -0.813101 0
M  V30 2635 H 250.407 -1.01016 -1.36359 0
M  V30 2636 H 249.179 -2.05392 -3.33061 0
M  V30 2637 H 248.802 -0.454626 -3.94992 0
M  V30 2638 N 249.799 1.42003 -0.683588 0
M  V30 2639 C 250.747 2.326 0.000815408 0
M  V30 2640 C 251.741 1.50308 0.781278 0
M  V30 2641 O 252.947 1.66322 0.688251 0
M  V30 2642 H 249.322 0.751758 0.0190616 0
M  V30 2643 H 251.293 2.88011 -0.780528 0
M  V30 2644 C 250.042 3.34978 0.93195 0
M  V30 2645 H 249.365 3.98345 0.340817 0
M  V30 2646 H 250.805 4.00936 1.37936 0
M  V30 2647 C 249.264 2.67925 2.04249 0
M  V30 2648 O 249.794 2.51788 3.12995 0
M  V30 2649 N 248 2.2681 1.81675 0
M  V30 2650 H 247.547 2.40135 0.932363 0
M  V30 2651 H 247.505 1.8228 2.56167 0
M  V30 2652 N 251.277 0.427512 1.51691 0
M  V30 2653 C 252.523 -0.142439 2.02299 0
M  V30 2654 C 252.856 -1.43214 1.31162 0
M  V30 2655 O 252.131 -1.89833 0.423511 0
M  V30 2656 C 252.414 -0.371301 3.58181 0
M  V30 2657 C 252.267 0.936358 4.39946 0
M  V30 2658 C 253.586 -1.14542 4.24933 0
M  V30 2659 H 250.705 -0.0502937 0.735282 0
M  V30 2660 H 253.347 0.564584 1.81418 0
M  V30 2661 H 251.497 -0.973559 3.76104 0
M  V30 2662 H 253.169 1.57184 4.33694 0
M  V30 2663 H 251.412 1.5432 4.05423 0
M  V30 2664 H 252.083 0.730388 5.47147 0
M  V30 2665 H 254.559 -0.635362 4.11221 0
M  V30 2666 H 253.435 -1.27431 5.33903 0
M  V30 2667 H 253.696 -2.17093 3.85127 0
M  V30 2668 N 252.755 -1.56801 0.158532 0
M  V30 2669 C 253.685 -2.20347 -0.772609 0
M  V30 2670 C 254.666 -1.15518 -1.24859 0
M  V30 2671 O 255.851 -1.43902 -1.30406 0
M  V30 2672 C 252.981 -2.83417 -2.00729 0
M  V30 2673 C 251.935 -3.94174 -1.66765 0
M  V30 2674 C 251.261 -4.44233 -2.97592 0
M  V30 2675 C 252.561 -5.14392 -0.905447 0
M  V30 2676 H 254.255 -2.98413 -0.242959 0
M  V30 2677 H 251.801 -1.43537 -0.115419 0
M  V30 2678 H 253.754 -3.26543 -2.6636 0
M  V30 2679 H 252.478 -2.02701 -2.56086 0
M  V30 2680 H 251.137 -3.51684 -1.03508 0
M  V30 2681 H 250.785 -3.60325 -3.50963 0
M  V30 2682 H 250.485 -5.18945 -2.75626 0
M  V30 2683 H 252.009 -4.90037 -3.64274 0
M  V30 2684 H 253.423 -5.5429 -1.46408 0
M  V30 2685 H 251.82 -5.9494 -0.7853 0
M  V30 2686 H 252.89 -4.84795 0.100668 0
M  V30 2687 N 254.233 0.115231 -1.57178 0
M  V30 2688 C 255.479 0.818565 -1.86202 0
M  V30 2689 C 255.834 1.77316 -0.746785 0
M  V30 2690 O 255.127 1.89923 0.25291 0
M  V30 2691 C 255.321 1.60324 -3.19423 0
M  V30 2692 C 255.15 0.726138 -4.43799 0
M  V30 2693 C 253.92 0.379535 -5.03873 0
M  V30 2694 C 256.118 0.0420774 -5.14283 0
M  V30 2695 N 254.1 -0.507841 -6.11796 0
M  V30 2696 C 255.471 -0.704152 -6.15988 0
M  V30 2697 C 257.526 -0.0339486 -4.97888 0
M  V30 2698 C 256.229 -1.51927 -7.03072 0
M  V30 2699 C 258.255 -0.835906 -5.85463 0
M  V30 2700 C 257.617 -1.57031 -6.86673 0
M  V30 2701 H 253.716 0.276343 -0.731545 0
M  V30 2702 H 256.3 0.0821032 -1.94527 0
M  V30 2703 H 254.471 2.31072 -3.12186 0
M  V30 2704 H 256.203 2.2522 -3.36241 0
M  V30 2705 H 252.958 0.722634 -4.68054 0
M  V30 2706 H 253.382 -0.94349 -6.70393 0
M  V30 2707 H 258.024 0.519496 -4.19596 0
M  V30 2708 H 255.742 -2.08386 -7.80769 0
M  V30 2709 H 259.328 -0.89714 -5.74841 0
M  V30 2710 H 258.208 -2.18088 -7.53264 0
M  V30 2711 N 255.711 1.52812 0.385517 0
M  V30 2712 C 256.661 1.74219 1.47078 0
M  V30 2713 C 257.645 0.59632 1.49442 0
M  V30 2714 O 258.837 0.85428 1.5502 0
M  V30 2715 C 255.966 1.9176 2.84751 0
M  V30 2716 C 255.052 3.12289 2.86943 0
M  V30 2717 N 255.443 4.34575 2.58802 0
M  V30 2718 C 253.741 3.12605 3.1811 0
M  V30 2719 C 254.442 5.162 2.68166 0
M  V30 2720 N 253.418 4.51964 3.02043 0
M  V30 2721 H 257.22 2.6639 1.24152 0
M  V30 2722 H 254.734 1.51166 0.593504 0
M  V30 2723 H 256.731 2.05218 3.62893 0
M  V30 2724 H 255.391 1.00805 3.08656 0
M  V30 2725 H 256.402 4.62649 2.32759 0
M  V30 2726 H 253.079 2.31472 3.47458 0
M  V30 2727 H 254.469 6.23689 2.49923 0
M  V30 2728 N 257.189 -0.644168 1.43834 0
M  V30 2729 C 258.437 -1.40117 1.45642 0
M  V30 2730 C 258.758 -1.94814 0.0852413 0
M  V30 2731 O 258.028 -1.74988 -0.880688 0
M  V30 2732 H 256.608 -0.52005 0.536243 0
M  V30 2733 H 259.27 -0.7591 1.7951 0
M  V30 2734 H 258.366 -2.23902 2.17427 0
M  V30 2735 N 258.668 -1.30515 -0.883378 0
M  V30 2736 C 259.615 -1.17032 -1.98927 0
M  V30 2737 C 260.585 -0.0594241 -1.65994 0
M  V30 2738 O 261.77 -0.229895 -1.8941 0
M  V30 2739 C 258.91 -0.869777 -3.33959 0
M  V30 2740 C 258.023 -2.06271 -3.79574 0
M  V30 2741 C 257.158 -1.70011 -5.03259 0
M  V30 2742 C 256.197 -2.8579 -5.41286 0
M  V30 2743 N 255.334 -2.49816 -6.56153 0
M  V30 2744 H 260.174 -2.1164 -2.09792 0
M  V30 2745 H 257.711 -1.05296 -1.02719 0
M  V30 2746 H 259.669 -0.676138 -4.11685 0
M  V30 2747 H 258.299 0.0394332 -3.22776 0
M  V30 2748 H 257.351 -2.36755 -2.97744 0
M  V30 2749 H 258.663 -2.92971 -4.03694 0
M  V30 2750 H 257.817 -1.47032 -5.88614 0
M  V30 2751 H 256.556 -0.804829 -4.81013 0
M  V30 2752 H 255.561 -3.09434 -4.54456 0
M  V30 2753 H 256.786 -3.76008 -5.65504 0
M  V30 2754 H 254.732 -1.62795 -6.35479 0
M  V30 2755 H 254.649 -3.30048 -6.8015 0
M  V30 2756 H 255.917 -2.30197 -7.44735 0
M  V30 2757 N 260.146 1.09593 -1.13257 0
M  V30 2758 C 261.392 1.82003 -0.89458 0
M  V30 2759 C 261.725 1.85402 0.577906 0
M  V30 2760 O 261 1.32099 1.42759 0
M  V30 2761 C 261.283 3.28237 -1.48096 0
M  V30 2762 C 261.136 3.3312 -3.02244 0
M  V30 2763 C 262.455 4.24871 -1.14774 0
M  V30 2764 H 259.574 0.66077 -0.326424 0
M  V30 2765 H 262.216 1.28389 -1.40058 0
M  V30 2766 H 260.366 3.74024 -1.05062 0
M  V30 2767 H 262.038 2.95748 -3.54021 0
M  V30 2768 H 260.281 2.72756 -3.37323 0
M  V30 2769 H 260.952 4.3613 -3.38371 0
M  V30 2770 H 263.428 3.87361 -1.51957 0
M  V30 2771 H 262.304 5.25532 -1.58452 0
M  V30 2772 H 262.565 4.42058 -0.0611849 0
M  V30 2773 N 261.624 0.925811 1.2754 0
M  V30 2774 C 262.852 0.581509 1.9856 0
M  V30 2775 C 263.267 -0.840041 1.69082 0
M  V30 2776 O 262.624 -1.55805 0.950312 0
M  V30 2777 C 262.675 0.795589 3.52637 0
M  V30 2778 O 262.396 2.16121 3.81082 0
M  V30 2779 C 263.897 0.459744 4.4091 0
M  V30 2780 H 261.117 0.220538 0.633722 0
M  V30 2781 H 263.661 1.24232 1.6244 0
M  V30 2782 H 261.816 0.18161 3.86974 0
M  V30 2783 H 262.23 2.2098 4.75676 0
M  V30 2784 H 263.704 0.660244 5.48037 0
M  V30 2785 H 264.181 -0.604625 4.35018 0
M  V30 2786 H 264.787 1.05178 4.12089 0
M  V30 2787 N 263.102 -1.41638 0.69111 0
M  V30 2788 C 264.012 -2.34588 0.0233487 0
M  V30 2789 C 265.028 -1.55987 -0.770984 0
M  V30 2790 O 266.204 -1.88486 -0.709569 0
M  V30 2791 C 263.269 -3.34684 -0.904851 0
M  V30 2792 C 262.33 -4.29176 -0.103225 0
M  V30 2793 C 261.563 -5.2449 -0.987216 0
M  V30 2794 O 261.786 -5.2514 -2.22674 0
M  V30 2795 O 260.72 -6.00295 -0.439281 0
M  V30 2796 H 264.546 -2.93261 0.789416 0
M  V30 2797 H 262.131 -1.42417 0.45142 0
M  V30 2798 H 264.013 -3.96133 -1.43724 0
M  V30 2799 H 262.688 -2.78461 -1.65049 0
M  V30 2800 H 261.595 -3.71089 0.473655 0
M  V30 2801 H 262.928 -4.88484 0.60365 0
M  V30 2802 N 264.58 -0.43555 -1.51462 0
M  V30 2803 C 265.826 0.131709 -2.02372 0
M  V30 2804 C 266.159 1.42516 -1.3192 0
M  V30 2805 O 265.434 1.89606 -0.433573 0
M  V30 2806 C 265.717 0.352301 -3.58373 0
M  V30 2807 C 265.57 -0.959676 -4.39443 0
M  V30 2808 C 266.889 1.12286 -4.25535 0
M  V30 2809 H 264.008 0.0463936 -0.735538 0
M  V30 2810 H 266.65 -0.574197 -1.81116 0
M  V30 2811 H 264.8 0.9536 -3.76615 0
M  V30 2812 H 266.472 -1.59482 -4.32855 0
M  V30 2813 H 264.715 -1.56468 -4.04599 0
M  V30 2814 H 265.386 -0.759394 -5.46752 0
M  V30 2815 H 267.862 0.613545 -4.11552 0
M  V30 2816 H 266.738 1.24598 -5.34571 0
M  V30 2817 H 266.999 2.15048 -3.86273 0
M  V30 2818 N 266.058 1.56714 -0.166846 0
M  V30 2819 C 267.335 1.88412 0.525373 0
M  V30 2820 C 267.715 1.07602 1.81618 0
M  V30 2821 O 267.063 0.168621 2.27877 0
M  V30 2822 C 267.273 3.40363 0.771613 0
M  V30 2823 C 268.621 4.10007 1.1036 0
M  V30 2824 O 269.645 3.45655 0.860304 0
M  V30 2825 O 268.504 5.2369 1.56239 0
M  V30 2826 H 265.598 0.781587 0.270278 0
M  V30 2827 H 268.144 1.68458 -0.204946 0
M  V30 2828 H 266.916 3.91046 -0.141093 0
M  V30 2829 H 266.539 3.65914 1.55541 0
M  V30 2830 N 267.536 -0.106894 1.57237 0
M  V30 2831 C 268.947 -0.662723 1.74542 0
M  V30 2832 C 269.298 -1.7971 0.787319 0
M  V30 2833 O 268.423 -2.16368 -0.0369636 0
M  V30 2834 C 269.018 -1.20896 3.16496 0
M  V30 2835 C 267.577 -1.71096 3.35266 0
M  V30 2836 C 266.724 -0.615642 2.7038 0
M  V30 2837 H 269.675 0.119106 1.58252 0
M  V30 2838 H 269.696 -2.07847 3.18716 0
M  V30 2839 H 269.208 -0.383122 3.86204 0
M  V30 2840 H 267.309 -2.56119 2.70618 0
M  V30 2841 H 267.422 -1.81208 4.43509 0
M  V30 2842 H 265.786 -1.05222 2.31949 0
M  V30 2843 H 266.569 0.199419 3.4272 0
M  V30 2844 N 269.014 -1.53014 -0.377408 0
M  V30 2845 C 269.946 -1.74884 -1.48149 0
M  V30 2846 C 270.959 -0.629433 -1.5014 0
M  V30 2847 O 272.148 -0.905416 -1.53833 0
M  V30 2848 C 269.248 -1.80299 -2.86959 0
M  V30 2849 C 268.421 -3.09776 -3.08801 0
M  V30 2850 C 267.48 -3.06586 -4.27658 0
M  V30 2851 O 266.506 -3.80419 -4.23403 0
M  V30 2852 N 267.708 -2.26578 -5.34455 0
M  V30 2853 H 270.473 -2.70147 -1.29771 0
M  V30 2854 H 268.034 -1.51646 -0.56703 0
M  V30 2855 H 270.026 -1.75657 -3.64591 0
M  V30 2856 H 268.596 -0.92372 -2.98641 0
M  V30 2857 H 267.816 -3.27815 -2.18931 0
M  V30 2858 H 269.104 -3.95366 -3.20255 0
M  V30 2859 H 268.502 -1.66081 -5.40771 0
M  V30 2860 H 267.059 -2.27766 -6.10709 0
M  V30 2861 N 270.492 0.636531 -1.44174 0
M  V30 2862 C 271.402 1.77754 -1.53103 0
M  V30 2863 C 272.418 1.68928 -0.417034 0
M  V30 2864 O 273.594 1.89801 -0.6736 0
M  V30 2865 C 270.659 3.14115 -1.46741 0
M  V30 2866 C 269.72 3.34612 -2.68948 0
M  V30 2867 C 268.953 4.64467 -2.6288 0
M  V30 2868 O 269.176 5.44919 -1.68581 0
M  V30 2869 O 268.11 4.87049 -3.53648 0
M  V30 2870 H 271.936 1.73174 -2.49489 0
M  V30 2871 H 269.521 0.79709 -1.2636 0
M  V30 2872 H 271.403 3.95412 -1.45696 0
M  V30 2873 H 270.078 3.19249 -0.534975 0
M  V30 2874 H 268.985 2.53014 -2.75562 0
M  V30 2875 H 270.318 3.34336 -3.61221 0
M  V30 2876 N 271.97 1.30982 0.876444 0
M  V30 2877 C 272.933 1.18054 1.96459 0
M  V30 2878 C 273.933 0.109399 1.60427 0
M  V30 2879 O 275.123 0.358173 1.70478 0
M  V30 2880 C 272.255 0.810616 3.31122 0
M  V30 2881 H 273.448 2.14735 2.09354 0
M  V30 2882 H 271.001 1.145 1.06392 0
M  V30 2883 H 271.736 -0.155322 3.23928 0
M  V30 2884 H 271.521 1.58481 3.58645 0
M  V30 2885 H 273.011 0.743876 4.10921 0
M  V30 2886 N 273.449 -1.08991 1.13837 0
M  V30 2887 C 274.381 -2.15606 0.777612 0
M  V30 2888 C 275.394 -1.61533 -0.202739 0
M  V30 2889 O 276.583 -1.78491 0.0181055 0
M  V30 2890 C 273.683 -3.3864 0.132623 0
M  V30 2891 C 272.856 -4.22115 1.1462 0
M  V30 2892 C 271.915 -5.23564 0.526074 0
M  V30 2893 O 270.941 -5.56678 1.18735 0
M  V30 2894 N 272.143 -5.76266 -0.699866 0
M  V30 2895 H 274.908 -2.47159 1.69506 0
M  V30 2896 H 272.469 -1.24747 1.03198 0
M  V30 2897 H 274.461 -4.03626 -0.29459 0
M  V30 2898 H 273.031 -3.04938 -0.687849 0
M  V30 2899 H 272.251 -3.53199 1.75055 0
M  V30 2900 H 273.539 -4.74709 1.83109 0
M  V30 2901 H 272.937 -5.51585 -1.25581 0
M  V30 2902 H 271.494 -6.42963 -1.06968 0
M  V30 2903 N 274.927 -0.932562 -1.27047 0
M  V30 2904 C 276.155 -0.592031 -1.98249 0
M  V30 2905 C 276.57 0.831062 -1.69525 0
M  V30 2906 O 275.927 1.55299 -0.958561 0
M  V30 2907 C 275.978 -0.814279 -3.5221 0
M  V30 2908 O 275.699 -2.18139 -3.7993 0
M  V30 2909 C 277.2 -0.483121 -4.4066 0
M  V30 2910 H 274.42 -0.223896 -0.632544 0
M  V30 2911 H 276.964 -1.25091 -1.61779 0
M  V30 2912 H 275.119 -0.20213 -3.86872 0
M  V30 2913 H 275.533 -2.235 -4.74498 0
M  V30 2914 H 277.007 -0.689298 -5.47679 0
M  V30 2915 H 277.484 0.581546 -4.35333 0
M  V30 2916 H 278.09 -1.07362 -4.11526 0
M  V30 2917 N 276.405 1.4127 -0.698611 0
M  V30 2918 C 277.337 2.292 0.00399731 0
M  V30 2919 C 278.35 1.44944 0.741279 0
M  V30 2920 O 279.539 1.68416 0.591477 0
M  V30 2921 C 276.639 3.22875 1.02979 0
M  V30 2922 C 275.812 4.35904 0.36151 0
M  V30 2923 C 274.871 5.10134 1.29033 0
M  V30 2924 O 273.897 5.63809 0.781562 0
M  V30 2925 N 275.099 5.17885 2.6225 0
M  V30 2926 H 277.864 2.9014 -0.750921 0
M  V30 2927 H 275.425 1.52455 -0.544882 0
M  V30 2928 H 277.417 3.69404 1.65296 0
M  V30 2929 H 275.987 2.63221 1.68622 0
M  V30 2930 H 275.207 3.91719 -0.441584 0
M  V30 2931 H 276.495 5.08696 -0.103055 0
M  V30 2932 H 275.893 4.7573 3.061 0
M  V30 2933 H 274.45 5.6798 3.19754 0
M  V30 2934 N 277.883 0.443576 1.51229 0
M  V30 2935 C 279.129 -0.120975 2.02439 0
M  V30 2936 C 279.462 -1.41815 1.32674 0
M  V30 2937 O 278.737 -1.89373 0.443622 0
M  V30 2938 C 279.02 -0.333291 3.58554 0
M  V30 2939 C 278.873 0.982968 4.38928 0
M  V30 2940 C 280.192 -1.10028 4.26124 0
M  V30 2941 H 277.311 -0.0424923 0.735774 0
M  V30 2942 H 279.953 0.583794 1.80809 0
M  V30 2943 H 278.103 -0.933614 3.77115 0
M  V30 2944 H 279.775 1.61775 4.32003 0
M  V30 2945 H 278.018 1.58611 4.03763 0
M  V30 2946 H 278.689 0.788379 5.46341 0
M  V30 2947 H 281.165 -0.591711 4.11871 0
M  V30 2948 H 280.041 -1.21761 5.35225 0
M  V30 2949 H 280.302 -2.12996 3.87408 0
M  V30 2950 N 279.361 -1.56624 0.175154 0
M  V30 2951 C 280.291 -2.21155 -0.749195 0
M  V30 2952 C 281.272 -1.16836 -1.23626 0
M  V30 2953 O 282.457 -1.45277 -1.28873 0
M  V30 2954 C 279.587 -2.8553 -1.97711 0
M  V30 2955 C 278.541 -3.95921 -1.62575 0
M  V30 2956 C 277.867 -4.47365 -2.92864 0
M  V30 2957 C 279.167 -5.15323 -0.850838 0
M  V30 2958 H 280.861 -2.98653 -0.211295 0
M  V30 2959 H 278.407 -1.43651 -0.100188 0
M  V30 2960 H 280.36 -3.2935 -2.62881 0
M  V30 2961 H 279.084 -2.05406 -2.53921 0
M  V30 2962 H 277.743 -3.52762 -0.997719 0
M  V30 2963 H 277.391 -3.64027 -3.47122 0
M  V30 2964 H 277.091 -5.21839 -2.70106 0
M  V30 2965 H 278.615 -4.93873 -3.59056 0
M  V30 2966 H 280.029 -5.55812 -1.40521 0
M  V30 2967 H 278.426 -5.95739 -0.722154 0
M  V30 2968 H 279.496 -4.84661 0.152082 0
M  V30 2969 N 280.839 0.0985539 -1.57292 0
M  V30 2970 C 281.771 1.14595 -1.98496 0
M  V30 2971 C 282.784 1.36512 -0.887031 0
M  V30 2972 O 283.973 1.35225 -1.16518 0
M  V30 2973 C 281.073 2.50216 -2.28572 0
M  V30 2974 C 280.246 2.48624 -3.59868 0
M  V30 2975 C 279.305 3.66146 -3.7792 0
M  V30 2976 O 278.331 3.48795 -4.49812 0
M  V30 2977 N 279.533 4.85496 -3.18235 0
M  V30 2978 H 282.298 0.795277 -2.88956 0
M  V30 2979 H 279.859 0.287579 -1.59325 0
M  V30 2980 H 281.851 3.27432 -2.37845 0
M  V30 2981 H 280.421 2.77387 -1.44136 0
M  V30 2982 H 279.641 1.56978 -3.61596 0
M  V30 2983 H 280.929 2.44635 -4.46129 0
M  V30 2984 H 280.327 5.02497 -2.59833 0
M  V30 2985 H 278.884 5.60317 -3.32999 0
M  V30 2986 N 282.317 1.53212 0.369288 0
M  V30 2987 C 283.249 1.75668 1.47219 0
M  V30 2988 C 284.262 0.637387 1.49804 0
M  V30 2989 O 285.451 0.913561 1.5335 0
M  V30 2990 C 282.551 1.81818 2.85999 0
M  V30 2991 C 281.724 3.11409 3.07153 0
M  V30 2992 C 280.783 3.08849 4.26026 0
M  V30 2993 O 279.809 3.82659 4.2138 0
M  V30 2994 N 281.011 2.29409 5.33246 0
M  V30 2995 H 283.776 2.70832 1.28337 0
M  V30 2996 H 281.337 1.51944 0.55898 0
M  V30 2997 H 283.329 1.77588 3.63655 0
M  V30 2998 H 281.899 0.939544 2.98146 0
M  V30 2999 H 281.119 3.28971 2.1719 0
M  V30 3000 H 282.407 3.97059 3.18154 0
M  V30 3001 H 281.805 1.68946 5.39883 0
M  V30 3002 H 280.362 2.31001 6.09493 0
M  V30 3003 N 283.795 -0.628877 1.44509 0
M  V30 3004 C 285.042 -1.38839 1.47411 0
M  V30 3005 C 285.37 -1.94202 0.10757 0
M  V30 3006 O 284.625 -1.74243 -0.890947 0
M  V30 3007 C 284.924 -2.56995 2.48371 0
M  V30 3008 C 284.59 -2.19908 3.93639 0
M  V30 3009 C 283.252 -2.09506 4.33198 0
M  V30 3010 C 285.604 -1.9064 4.85083 0
M  V30 3011 C 282.932 -1.68028 5.62124 0
M  V30 3012 C 285.284 -1.50655 6.14399 0
M  V30 3013 C 283.948 -1.38796 6.5291 0
M  V30 3014 H 283.218 -0.508048 0.539414 0
M  V30 3015 H 285.865 -0.712913 1.77735 0
M  V30 3016 H 284.17 -3.29786 2.11538 0
M  V30 3017 H 285.867 -3.15223 2.47861 0
M  V30 3018 H 282.457 -2.28922 3.62343 0
M  V30 3019 H 286.641 -1.97585 4.55273 0
M  V30 3020 H 281.897 -1.57452 5.90778 0
M  V30 3021 H 286.071 -1.27048 6.84713 0
M  V30 3022 H 283.698 -1.06429 7.52713 0
M  V30 3023 N 285.273 -1.31445 -0.869486 0
M  V30 3024 C 286.221 -1.19067 -1.99814 0
M  V30 3025 C 287.215 -0.0988569 -1.69111 0
M  V30 3026 O 288.421 -0.260781 -1.78101 0
M  V30 3027 H 284.796 -0.368677 -0.655425 0
M  V30 3028 H 286.767 -2.14555 -2.07385 0
M  V30 3029 C 285.516 -0.915323 -3.35436 0
M  V30 3030 H 284.839 -1.74759 -3.59582 0
M  V30 3031 H 286.279 -0.868895 -4.15001 0
M  V30 3032 C 284.738 0.381928 -3.34728 0
M  V30 3033 O 285.268 1.39857 -3.76567 0
M  V30 3034 N 283.474 0.398633 -2.87853 0
M  V30 3035 H 283.021 -0.429186 -2.54 0
M  V30 3036 H 282.979 1.26651 -2.87762 0
M  V30 3037 N 286.751 1.08385 -1.14413 0
M  V30 3038 C 288.167 1.32844 -0.884563 0
M  V30 3039 C 288.367 1.95841 0.474181 0
M  V30 3040 O 287.423 2.21158 1.21842 0
M  V30 3041 C 288.736 2.22978 -2.01745 0
M  V30 3042 C 290.284 2.36458 -2.05077 0
M  V30 3043 C 290.759 3.29934 -3.1766 0
M  V30 3044 N 292.25 3.37511 -3.17239 0
M  V30 3045 C 292.985 4.09871 -4.0099 0
M  V30 3046 N 292.481 4.84936 -4.94781 0
M  V30 3047 N 294.274 4.05704 -3.89051 0
M  V30 3048 H 286.425 0.658756 -2.01926 0
M  V30 3049 H 288.688 0.352821 -0.879899 0
M  V30 3050 H 288.394 1.83934 -2.99769 0
M  V30 3051 H 288.268 3.23441 -1.94077 0
M  V30 3052 H 290.655 2.7476 -1.0766 0
M  V30 3053 H 290.736 1.35736 -2.16816 0
M  V30 3054 H 290.38 2.92352 -4.15322 0
M  V30 3055 H 290.31 4.30584 -3.03158 0
M  V30 3056 H 292.801 2.83996 -2.49308 0
M  V30 3057 H 293.114 5.37612 -5.55151 0
M  V30 3058 H 291.459 4.83988 -4.98779 0
M  V30 3059 H 294.65 3.46167 -3.15097 0
M  V30 3060 H 294.823 4.61834 -4.54547 0
M  V30 3061 N 288.23 0.939286 1.26551 0
M  V30 3062 C 289.507 0.5038 1.89001 0
M  V30 3063 C 289.887 -1.01854 1.84903 0
M  V30 3064 O 289.235 -1.87773 1.30206 0
M  V30 3065 C 289.445 1.063 3.32417 0
M  V30 3066 C 290.793 1.13051 4.09273 0
M  V30 3067 O 291.817 1.01345 3.41479 0
M  V30 3068 O 290.676 1.31233 5.30509 0
M  V30 3069 H 287.77 0.163897 0.810597 0
M  V30 3070 H 290.316 1.03173 1.34735 0
M  V30 3071 H 289.088 2.10665 3.29752 0
M  V30 3072 H 288.711 0.517408 3.94219 0
M  V30 3073 N 289.708 -1.40897 0.706093 0
M  V30 3074 C 290.638 -2.33418 0.0620085 0
M  V30 3075 C 291.619 -1.52385 -0.755827 0
M  V30 3076 O 292.804 -1.80886 -0.706674 0
M  V30 3077 C 289.934 -3.36293 -0.867445 0
M  V30 3078 C 288.888 -4.27716 -0.155932 0
M  V30 3079 C 288.214 -5.2105 -1.20046 0
M  V30 3080 C 289.514 -5.12944 0.984149 0
M  V30 3081 H 291.208 -2.87527 0.83477 0
M  V30 3082 H 288.754 -1.38249 0.402875 0
M  V30 3083 H 290.707 -3.99949 -1.32735 0
M  V30 3084 H 289.431 -2.80556 -1.67199 0
M  V30 3085 H 288.09 -3.65498 0.284047 0
M  V30 3086 H 287.738 -4.61624 -1.99781 0
M  V30 3087 H 287.438 -5.83056 -0.729328 0
M  V30 3088 H 288.962 -5.87584 -1.66066 0
M  V30 3089 H 290.376 -5.70109 0.604048 0
M  V30 3090 H 288.773 -5.83945 1.38304 0
M  V30 3091 H 289.843 -4.49485 1.81911 0
M  V30 3092 N 291.186 -0.45159 -1.50991 0
M  V30 3093 C 292.149 0.341117 -2.26647 0
M  V30 3094 C 293.149 0.937422 -1.30649 0
M  V30 3095 O 294.339 0.809644 -1.54241 0
M  V30 3096 C 291.471 1.48398 -3.06905 0
M  V30 3097 H 292.664 -0.322117 -2.98165 0
M  V30 3098 H 290.217 -0.205122 -1.54948 0
M  V30 3099 H 290.952 2.18284 -2.39838 0
M  V30 3100 H 290.737 1.06241 -3.77432 0
M  V30 3101 H 292.227 2.04367 -3.64176 0
M  V30 3102 N 292.664 1.56529 -0.183458 0
M  V30 3103 C 293.596 2.15747 0.773697 0
M  V30 3104 C 294.609 1.1162 1.1851 0
M  V30 3105 O 295.798 1.3876 1.12285 0
M  V30 3106 C 292.898 2.6952 2.05456 0
M  V30 3107 C 292.071 3.98429 1.8048 0
M  V30 3108 C 291.13 4.37145 2.92901 0
M  V30 3109 O 290.156 5.04791 2.6301 0
M  V30 3110 N 291.358 3.99695 4.2098 0
M  V30 3111 H 294.123 2.98505 0.26736 0
M  V30 3112 H 291.684 1.619 -0.0010878 0
M  V30 3113 H 293.676 2.92412 2.79781 0
M  V30 3114 H 292.246 1.91282 2.47245 0
M  V30 3115 H 291.466 3.8379 0.899947 0
M  V30 3116 H 292.754 4.82597 1.61175 0
M  V30 3117 H 292.152 3.4526 4.48121 0
M  V30 3118 H 290.709 4.27562 4.9197 0
M  V30 3119 N 294.142 -0.090211 1.57342 0
M  V30 3120 C 295.419 -0.824761 1.77361 0
M  V30 3121 C 295.799 -1.96698 0.76637 0
M  V30 3122 O 295.147 -2.27586 -0.204179 0
M  V30 3123 C 295.357 -1.31481 3.23286 0
M  V30 3124 C 296.705 -1.75563 3.86604 0
M  V30 3125 O 297.729 -1.41093 3.27065 0
M  V30 3126 O 296.588 -2.39317 4.91314 0
M  V30 3127 H 293.682 -0.393776 0.727234 0
M  V30 3128 H 296.228 -0.0717138 1.69548 0
M  V30 3129 H 295 -0.496671 3.88135 0
M  V30 3130 H 294.623 -2.12973 3.35751 0
M  V30 3131 N 295.62 -1.53406 -0.361157 0
M  V30 3132 C 296.53 -1.83122 -1.4664 0
M  V30 3133 C 297.546 -0.719943 -1.58407 0
M  V30 3134 O 298.722 -1.01046 -1.74218 0
M  V30 3135 C 295.787 -2.01891 -2.81853 0
M  V30 3136 C 294.848 -3.25784 -2.79577 0
M  V30 3137 C 294.081 -3.43648 -4.0834 0
M  V30 3138 O 294.304 -2.65714 -5.0473 0
M  V30 3139 O 293.238 -4.37018 -4.13883 0
M  V30 3140 H 297.064 -2.7703 -1.24451 0
M  V30 3141 H 294.649 -1.38841 -0.551678 0
M  V30 3142 H 296.531 -2.15782 -3.61962 0
M  V30 3143 H 295.206 -1.11173 -3.0401 0
M  V30 3144 H 294.113 -3.17312 -1.98151 0
M  V30 3145 H 295.446 -4.16439 -2.62373 0
M  V30 3146 N 297.098 0.621204 -1.44841 0
M  V30 3147 C 298.514 0.94048 -1.28946 0
M  V30 3148 C 298.714 2.00154 -0.23249 0
M  V30 3149 O 297.77 2.49651 0.378237 0
M  V30 3150 C 299.083 1.39433 -2.66419 0
M  V30 3151 C 300.631 1.50927 -2.74208 0
M  V30 3152 C 301.106 1.99692 -4.12174 0
M  V30 3153 N 302.597 2.06947 -4.144 0
M  V30 3154 C 303.332 2.45871 -5.1801 0
M  V30 3155 N 302.828 2.83862 -6.31977 0
M  V30 3156 N 304.621 2.46092 -5.05366 0
M  V30 3157 H 296.772 -0.0803548 -2.12248 0
M  V30 3158 H 299.035 0.0266913 -0.947624 0
M  V30 3159 H 298.741 0.688925 -3.44887 0
M  V30 3160 H 298.615 2.36347 -2.93973 0
M  V30 3161 H 301.002 2.20561 -1.96053 0
M  V30 3162 H 301.083 0.523627 -2.50383 0
M  V30 3163 H 300.727 1.30649 -4.90809 0
M  V30 3164 H 300.657 2.99146 -4.33381 0
M  V30 3165 H 303.148 1.80232 -3.32152 0
M  V30 3166 H 303.461 3.12405 -7.0684 0
M  V30 3167 H 301.806 2.8159 -6.35399 0
M  V30 3168 H 304.997 2.1581 -4.15384 0
M  V30 3169 H 305.17 2.76102 -5.86235 0
M  V30 3170 N 298.576 1.31904 0.862503 0
M  V30 3171 C 299.822 1.22197 1.61851 0
M  V30 3172 C 300.155 -0.217641 1.92977 0
M  V30 3173 O 299.43 -1.15264 1.56666 0
M  V30 3174 C 299.713 2.07378 2.94391 0
M  V30 3175 C 299.566 3.59678 2.70096 0
M  V30 3176 C 300.885 1.92891 3.95577 0
M  V30 3177 H 298.004 0.445255 0.587296 0
M  V30 3178 H 300.646 1.6177 0.99651 0
M  V30 3179 H 298.796 1.73758 3.47477 0
M  V30 3180 H 300.468 4.03472 2.23625 0
M  V30 3181 H 298.711 3.82735 2.04197 0
M  V30 3182 H 299.382 4.14595 3.64438 0
M  V30 3183 H 301.858 2.22327 3.51724 0
M  V30 3184 H 300.734 2.54781 4.86187 0
M  V30 3185 H 300.995 0.894315 4.3296 0
M  V30 3186 N 300.054 -1.07777 1.14986 0
M  V30 3187 C 301.47 -1.32373 0.891596 0
M  V30 3188 C 301.67 -1.9609 -0.463788 0
M  V30 3189 O 300.726 -2.21801 -1.20667 0
M  V30 3190 C 302.039 -2.21905 2.02925 0
M  V30 3191 C 303.587 -2.35367 2.06329 0
M  V30 3192 C 304.062 -3.28245 3.19405 0
M  V30 3193 N 305.553 -3.35824 3.19024 0
M  V30 3194 C 306.288 -4.07739 4.03158 0
M  V30 3195 N 305.784 -4.82306 4.97346 0
M  V30 3196 N 307.577 -4.03635 3.91197 0
M  V30 3197 H 299.728 -0.648039 2.02273 0
M  V30 3198 H 301.991 -0.348149 0.881757 0
M  V30 3199 H 301.697 -1.82342 3.0074 0
M  V30 3200 H 301.571 -3.22407 1.95789 0
M  V30 3201 H 303.958 -2.74186 1.09116 0
M  V30 3202 H 304.039 -1.34585 2.17533 0
M  V30 3203 H 303.683 -2.90146 4.16867 0
M  V30 3204 H 303.613 -4.28971 3.05437 0
M  V30 3205 H 306.104 -2.8267 2.50811 0
M  V30 3206 H 306.417 -5.34661 5.57994 0
M  V30 3207 H 304.762 -4.81337 5.01338 0
M  V30 3208 H 307.953 -3.44491 3.16928 0
M  V30 3209 H 308.126 -4.59417 4.5699 0
M  V30 3210 N 301.532 -0.945985 -1.26051 0
M  V30 3211 C 302.781 -0.591836 -1.92822 0
M  V30 3212 C 303.094 0.873956 -1.7499 0
M  V30 3213 O 304.3 1.33769 -2.36259 0
M  V30 3214 C 302.756 -1.00776 -3.45503 0
M  V30 3215 C 302.364 -2.4955 -3.7206 0
M  V30 3216 C 304.108 -0.725735 -4.1825 0
M  V30 3217 C 302.015 -2.84988 -5.18205 0
M  V30 3218 H 300.945 -0.217635 -0.721908 0
M  V30 3219 H 303.596 -1.14927 -1.43052 0
M  V30 3220 H 301.978 -0.378812 -3.94184 0
M  V30 3221 H 303.152 -3.1739 -3.34066 0
M  V30 3222 H 301.467 -2.75133 -3.12555 0
M  V30 3223 H 304.064 -0.966771 -5.25887 0
M  V30 3224 H 304.407 0.337639 -4.14929 0
M  V30 3225 H 304.94 -1.31463 -3.7545 0
M  V30 3226 H 301.679 -3.90307 -5.26631 0
M  V30 3227 H 301.199 -2.21813 -5.57278 0
M  V30 3228 H 302.878 -2.73712 -5.86252 0
M  V30 3229 N 303.011 1.40521 -0.713556 0
M  V30 3230 C 304.236 2.05759 -0.26035 0
M  V30 3231 C 304.661 1.53403 1.08854 0
M  V30 3232 O 304.019 0.668535 1.68524 0
M  V30 3233 C 304.067 3.59745 -0.248122 0
M  V30 3234 O 303.171 4.05123 0.77131 0
M  V30 3235 H 302.512 0.652564 -0.122703 0
M  V30 3236 H 305.042 1.79958 -0.973467 0
M  V30 3237 H 305.052 4.07911 -0.0851129 0
M  V30 3238 H 303.727 3.97218 -1.2325 0
M  V30 3239 H 302.304 3.68422 0.57619 0
M  V30 3240 N 304.489 0.459591 1.5075 0
M  V30 3241 C 305.735 -0.0994966 2.02556 0
M  V30 3242 C 306.068 -1.40399 1.3417 0
M  V30 3243 O 305.343 -1.88892 0.463683 0
M  V30 3244 C 305.626 -0.295242 3.58888 0
M  V30 3245 C 305.479 1.02947 4.37861 0
M  V30 3246 C 306.798 -1.05502 4.27267 0
M  V30 3247 H 303.917 -0.034686 0.736183 0
M  V30 3248 H 306.559 0.602938 1.8018 0
M  V30 3249 H 304.709 -0.893563 3.78084 0
M  V30 3250 H 306.381 1.66348 4.30263 0
M  V30 3251 H 304.624 1.62885 4.02058 0
M  V30 3252 H 305.295 0.846281 5.45474 0
M  V30 3253 H 307.771 -0.547993 4.12476 0
M  V30 3254 H 306.647 -1.16077 5.36486 0
M  V30 3255 H 306.908 -2.08875 3.89645 0
M  V30 3256 N 305.967 -1.56429 0.191757 0
M  V30 3257 C 307.216 -1.9666 -0.448088 0
M  V30 3258 C 307.529 -1.08136 -1.62991 0
M  V30 3259 O 308.735 -1.38135 -2.33733 0
M  V30 3260 C 307.191 -3.49753 -0.848585 0
M  V30 3261 C 306.799 -4.46935 0.308764 0
M  V30 3262 C 308.543 -3.9876 -1.4557 0
M  V30 3263 C 306.45 -5.91293 -0.112506 0
M  V30 3264 H 305.38 -0.734312 -0.171179 0
M  V30 3265 H 308.031 -1.81301 0.283242 0
M  V30 3266 H 306.413 -3.60604 -1.63649 0
M  V30 3267 H 307.587 -4.47813 1.08627 0
M  V30 3268 H 305.902 -4.08102 0.827158 0
M  V30 3269 H 308.499 -5.04086 -1.78328 0
M  V30 3270 H 308.842 -3.42875 -2.36099 0
M  V30 3271 H 309.375 -3.9101 -0.731836 0
M  V30 3272 H 306.114 -6.51097 0.758514 0
M  V30 3273 H 305.634 -5.93676 -0.854941 0
M  V30 3274 H 307.313 -6.44663 -0.549448 0
M  V30 3275 N 307.445 0.0818655 -1.57387 0
M  V30 3276 C 308.856 0.634871 -1.75574 0
M  V30 3277 C 309.207 1.78435 -0.815809 0
M  V30 3278 O 308.332 2.164 0.0025366 0
M  V30 3279 C 308.927 1.15845 -3.18379 0
M  V30 3280 C 307.486 1.65741 -3.37945 0
M  V30 3281 C 306.633 0.572549 -2.71325 0
M  V30 3282 H 309.584 -0.144268 -1.58043 0
M  V30 3283 H 309.605 2.02751 -3.21982 0
M  V30 3284 H 309.117 0.321631 -3.86765 0
M  V30 3285 H 307.218 2.51781 -2.74658 0
M  V30 3286 H 307.331 1.74129 -4.46336 0
M  V30 3287 H 305.695 1.01518 -2.33594 0
M  V30 3288 H 306.478 -0.253918 -3.4236 0
M  V30 3289 N 308.923 1.53595 0.353017 0
M  V30 3290 C 309.853 1.83902 1.43883 0
M  V30 3291 C 310.834 0.693421 1.55324 0
M  V30 3292 O 312.019 0.944452 1.69687 0
M  V30 3293 C 309.149 2.04016 2.8106 0
M  V30 3294 C 308.103 3.19814 2.84434 0
M  V30 3295 C 307.429 3.25244 4.24406 0
M  V30 3296 C 308.729 4.58133 2.50822 0
M  V30 3297 H 310.423 2.74835 1.1877 0
M  V30 3298 H 307.969 1.32242 0.569917 0
M  V30 3299 H 309.922 2.238 3.57059 0
M  V30 3300 H 308.646 1.09804 3.07588 0
M  V30 3301 H 307.305 2.9987 2.10887 0
M  V30 3302 H 306.953 2.28646 4.48029 0
M  V30 3303 H 306.653 4.03054 4.27576 0
M  V30 3304 H 308.177 3.47228 5.0226 0
M  V30 3305 H 309.591 4.77995 3.16534 0
M  V30 3306 H 307.988 5.38276 2.6529 0
M  V30 3307 H 309.058 4.62387 1.46034 0
M  V30 3308 N 310.401 -0.613514 1.45168 0
M  V30 3309 C 311.649 -1.36997 1.48581 0
M  V30 3310 C 311.97 -1.94589 0.126545 0
M  V30 3311 O 311.24 -1.76816 -0.843372 0
M  V30 3312 H 309.82 -0.508558 0.547154 0
M  V30 3313 H 312.482 -0.720853 1.81079 0
M  V30 3314 H 311.578 -2.1924 2.22127 0
M  V30 3315 N 311.879 -1.3236 -0.855495 0
M  V30 3316 C 313.156 -1.13491 -1.59309 0
M  V30 3317 C 313.536 0.30503 -2.08885 0
M  V30 3318 O 312.884 1.30151 -1.87811 0
M  V30 3319 C 313.094 -2.16176 -2.73987 0
M  V30 3320 C 314.442 -2.49463 -3.43589 0
M  V30 3321 O 315.466 -2.14715 -2.84211 0
M  V30 3322 O 314.325 -3.09027 -4.50738 0
M  V30 3323 H 311.419 -0.437887 -0.701559 0
M  V30 3324 H 313.965 -1.43887 -0.899696 0
M  V30 3325 H 312.737 -3.1297 -2.34873 0
M  V30 3326 H 312.36 -1.86769 -3.51003 0
M  V30 3327 N 313.357 1.07166 -1.15556 0
M  V30 3328 C 314.605 1.79443 -0.929764 0
M  V30 3329 C 314.926 1.87246 0.544414 0
M  V30 3330 O 314.196 1.37473 1.39564 0
M  V30 3331 H 312.776 0.664625 -0.341003 0
M  V30 3332 H 315.438 1.29499 -1.45657 0
M  V30 3333 H 314.534 2.81832 -1.34079 0
M  V30 3334 N 314.835 0.952656 1.25548 0
M  V30 3335 C 315.768 0.415525 2.24385 0
M  V30 3336 C 316.746 -0.502046 1.54655 0
M  V30 3337 O 317.93 -0.436875 1.83368 0
M  V30 3338 C 315.057 -0.401734 3.36309 0
M  V30 3339 C 314.103 0.455949 4.24056 0
M  V30 3340 S 314.936 1.88698 5.01152 0
M  V30 3341 C 316.092 1.07809 6.16545 0
M  V30 3342 H 316.325 1.25315 2.69599 0
M  V30 3343 H 313.858 0.756587 1.34592 0
M  V30 3344 H 315.816 -0.867329 4.01233 0
M  V30 3345 H 314.477 -1.21416 2.89684 0
M  V30 3346 H 313.67 -0.170776 5.03711 0
M  V30 3347 H 313.272 0.856675 3.64056 0
M  V30 3348 H 315.564 0.325816 6.76716 0
M  V30 3349 H 316.507 1.84849 6.83547 0
M  V30 3350 H 316.915 0.60909 5.61204 0
M  V30 3351 N 316.313 -1.40141 0.720998 0
M  V30 3352 C 317.541 -2.05096 0.272656 0
M  V30 3353 C 317.956 -1.54334 -1.0875 0
M  V30 3354 O 317.313 -0.702211 -1.6845 0
M  V30 3355 C 317.364 -3.60636 0.249835 0
M  V30 3356 O 317.085 -4.09526 1.55629 0
M  V30 3357 C 318.586 -4.42772 -0.216396 0
M  V30 3358 H 315.806 -0.659897 0.121558 0
M  V30 3359 H 318.35 -1.79449 0.980723 0
M  V30 3360 H 316.505 -3.85232 -0.409237 0
M  V30 3361 H 316.919 -5.03758 1.4604 0
M  V30 3362 H 318.393 -5.51702 -0.181212 0
M  V30 3363 H 318.87 -4.20756 -1.25941 0
M  V30 3364 H 319.476 -4.23294 0.412596 0
M  V30 3365 N 317.792 -0.46758 -1.50504 0
M  V30 3366 C 318.722 0.318381 -2.31319 0
M  V30 3367 C 319.703 0.993564 -1.38066 0
M  V30 3368 O 320.888 0.991411 -1.66987 0
M  V30 3369 C 318.018 1.40275 -3.17711 0
M  V30 3370 C 316.972 0.849373 -4.19487 0
M  V30 3371 C 316.298 2.03177 -4.94594 0
M  V30 3372 C 317.598 -0.136942 -5.2212 0
M  V30 3373 H 319.292 -0.356106 -2.97275 0
M  V30 3374 H 316.838 -0.172703 -1.42961 0
M  V30 3375 H 318.791 1.96004 -3.73042 0
M  V30 3376 H 317.515 2.10596 -2.49634 0
M  V30 3377 H 316.174 0.314076 -3.65252 0
M  V30 3378 H 315.822 2.72187 -4.22993 0
M  V30 3379 H 315.522 1.66774 -5.63436 0
M  V30 3380 H 317.046 2.59403 -5.52759 0
M  V30 3381 H 318.46 0.331056 -5.72343 0
M  V30 3382 H 316.857 -0.41507 -5.98663 0
M  V30 3383 H 317.927 -1.06398 -4.73083 0
M  V30 3384 N 319.27 1.56325 -0.20005 0
M  V30 3385 C 320.233 2.18084 0.705132 0
M  V30 3386 C 321.233 1.13666 1.1374 0
M  V30 3387 O 322.423 1.39023 1.04968 0
M  V30 3388 C 319.555 2.78689 1.96329 0
M  V30 3389 H 320.748 2.99435 0.167023 0
M  V30 3390 H 318.301 1.56221 0.0495725 0
M  V30 3391 H 319.036 2.0115 2.5438 0
M  V30 3392 H 318.821 3.55133 1.66202 0
M  V30 3393 H 320.311 3.26096 2.60866 0
M  V30 3394 N 320.748 -0.0735177 1.57428 0
M  V30 3395 C 321.678 -1.0879 2.06608 0
M  V30 3396 C 322.659 -1.40473 0.959237 0
M  V30 3397 O 323.844 -1.5013 1.23185 0
M  V30 3398 C 320.974 -2.40183 2.50857 0
M  V30 3399 C 319.928 -2.22858 3.65402 0
M  V30 3400 C 319.254 -3.59619 3.957 0
M  V30 3401 C 320.554 -1.65123 4.95511 0
M  V30 3402 H 322.248 -0.678673 2.91607 0
M  V30 3403 H 319.794 -0.325013 1.40284 0
M  V30 3404 H 321.747 -3.11437 2.83874 0
M  V30 3405 H 320.471 -2.83083 1.62885 0
M  V30 3406 H 319.13 -1.54045 3.32664 0
M  V30 3407 H 318.778 -4.00086 3.04861 0
M  V30 3408 H 318.478 -3.48866 4.72828 0
M  V30 3409 H 320.002 -4.32306 4.31212 0
M  V30 3410 H 321.416 -2.26241 5.26771 0
M  V30 3411 H 319.813 -1.65071 5.7695 0
M  V30 3412 H 320.883 -0.612559 4.81015 0
M  V30 3413 N 322.226 -1.5378 -0.344866 0
M  V30 3414 C 323.173 -1.81676 -1.42346 0
M  V30 3415 C 324.143 -0.662376 -1.52321 0
M  V30 3416 O 325.328 -0.906675 -1.67881 0
M  V30 3417 C 322.468 -2.03087 -2.79015 0
M  V30 3418 C 321.581 -3.30799 -2.77842 0
M  V30 3419 C 320.716 -3.42285 -4.0622 0
M  V30 3420 C 319.755 -4.6395 -3.9927 0
M  V30 3421 N 318.892 -4.72477 -5.19336 0
M  V30 3422 H 323.732 -2.73703 -1.17858 0
M  V30 3423 H 321.269 -1.35568 -0.570949 0
M  V30 3424 H 323.227 -2.1349 -3.58438 0
M  V30 3425 H 321.857 -1.14375 -3.01858 0
M  V30 3426 H 320.909 -3.29244 -1.90533 0
M  V30 3427 H 322.221 -4.20314 -2.68584 0
M  V30 3428 H 321.375 -3.52113 -4.94066 0
M  V30 3429 H 320.114 -2.50823 -4.18258 0
M  V30 3430 H 319.119 -4.54201 -3.09809 0
M  V30 3431 H 320.344 -5.56775 -3.88817 0
M  V30 3432 H 318.29 -3.83924 -5.3192 0
M  V30 3433 H 318.207 -5.55927 -5.12329 0
M  V30 3434 H 319.475 -4.86613 -6.08957 0
M  V30 3435 N 323.704 0.605807 -1.45491 0
M  V30 3436 C 324.651 1.7164 -1.54299 0
M  V30 3437 C 325.621 1.61486 -0.388761 0
M  V30 3438 O 326.806 1.81039 -0.602445 0
M  V30 3439 C 323.946 3.09953 -1.51734 0
M  V30 3440 C 323.059 3.309 -2.77721 0
M  V30 3441 C 322.194 4.59329 -2.66816 0
M  V30 3442 C 321.233 4.7354 -3.87848 0
M  V30 3443 N 320.37 5.9327 -3.75467 0
M  V30 3444 H 325.21 1.63449 -2.49176 0
M  V30 3445 H 322.747 0.796957 -1.23641 0
M  V30 3446 H 324.705 3.89977 -1.48235 0
M  V30 3447 H 323.335 3.17098 -0.604068 0
M  V30 3448 H 322.387 2.44639 -2.913 0
M  V30 3449 H 323.699 3.37274 -3.67488 0
M  V30 3450 H 322.853 5.4755 -2.61292 0
M  V30 3451 H 321.592 4.55355 -1.74651 0
M  V30 3452 H 320.597 3.83741 -3.93729 0
M  V30 3453 H 321.822 4.79309 -4.81082 0
M  V30 3454 H 319.768 5.90338 -2.86072 0
M  V30 3455 H 319.685 6.00811 -4.5887 0
M  V30 3456 H 320.953 6.83984 -3.73879 0
M  V30 3457 O 325.221 1.43044 0.749719 0
M  V30 3458 H 325.912 1.3401 1.3986 0
M  V30 END ATOM
M  V30 BEGIN BOND
M  V30 END BOND
M  V30 END CTAB
M  END
$$$$
