drugbank_target|P35558 Phosphoenolpyruvate carboxykinase, cytosolic [GTP] (DB01819; DB02008; DB03267; DB03725)
 OpenBabel12092119423D

  0  0  0     0  0            999 V3000
M  V30 BEGIN CTAB
M  V30 COUNTS 9667 9793 0 0 0
M  V30 BEGIN ATOM
M  V30 1 H -0.908 1.98254 -0.117106 0
M  V30 2 N 0 1.576 0 0
M  V30 3 C 0.933 2.03868 1.02534 0
M  V30 4 C 1.911 0.928543 1.3348 0
M  V30 5 O 3.095 1.19667 1.45644 0
M  V30 6 C 0.222 2.43627 2.35294 0
M  V30 7 C -0.732 3.65373 2.2001 0
M  V30 8 S 0.101 5.13292 1.52614 0
M  V30 9 C 1.257 5.56322 2.86805 0
M  V30 10 H 1.49 2.90518 0.631377 0
M  V30 11 H -0.977 1.52953 0.210867 0
M  V30 12 H 0.981 2.67203 3.11629 0
M  V30 13 H -0.358 1.57376 2.7183 0
M  V30 14 H -1.165 3.90944 3.18086 0
M  V30 15 H -1.563 3.418 1.51819 0
M  V30 16 H 0.729 5.58782 3.83104 0
M  V30 17 H 1.672 6.56266 2.65933 0
M  V30 18 H 2.08 4.83886 2.90714 0
M  V30 19 N 1.4781 -0.272755 1.55222 0
M  V30 20 C 2.8891 -0.84378 1.66545 0
M  V30 21 C 3.2401 -1.87035 0.592641 0
M  V30 22 O 2.3651 -2.14761 -0.265818 0
M  V30 23 C 2.9601 -1.53723 3.01918 0
M  V30 24 C 1.5191 -2.05628 3.15268 0
M  V30 25 C 0.6661 -0.898424 2.62343 0
M  V30 26 H 3.6171 -0.0490998 1.58624 0
M  V30 27 H 3.6381 -2.40421 2.94921 0
M  V30 28 H 3.1501 -0.78983 3.79978 0
M  V30 29 H 1.2511 -2.83329 2.41983 0
M  V30 30 H 1.3641 -2.27142 4.21833 0
M  V30 31 H -0.2719 -1.29186 2.19506 0
M  V30 32 H 0.5111 -0.164528 3.42906 0
M  V30 33 N 2.9562 -1.48159 -0.537278 0
M  V30 34 C 4.3672 -1.49429 -1.11928 0
M  V30 35 C 4.7182 -0.26 -1.9447 0
M  V30 36 O 3.8432 0.633489 -2.0692 0
M  V30 37 C 4.4382 -2.70758 -2.03656 0
M  V30 38 C 2.9972 -2.74923 -2.57088 0
M  V30 39 C 2.1442 -2.42835 -1.3389 0
M  V30 40 H 5.0952 -1.55381 -0.322886 0
M  V30 41 H 5.1162 -2.48861 -2.87834 0
M  V30 42 H 4.6282 -3.60575 -1.43553 0
M  V30 43 H 2.7292 -1.89296 -3.20933 0
M  V30 44 H 2.8422 -3.76157 -2.9672 0
M  V30 45 H 1.2062 -1.93836 -1.65226 0
M  V30 46 H 1.9892 -3.34884 -0.755504 0
M  V30 47 N 4.4343 0.785586 -1.36625 0
M  V30 48 C 5.3663 1.90711 -1.2713 0
M  V30 49 C 6.3793 1.61688 -0.189986 0
M  V30 50 O 7.5683 1.72864 -0.445014 0
M  V30 51 C 4.6683 3.25611 -0.939713 0
M  V30 52 C 3.8413 3.82385 -2.12369 0
M  V30 53 C 2.9003 4.95732 -1.76456 0
M  V30 54 O 1.9263 5.12047 -2.48589 0
M  V30 55 N 3.1283 5.76258 -0.700492 0
M  V30 56 H 5.8933 1.99376 -2.23762 0
M  V30 57 H 3.4543 0.964041 -1.30069 0
M  V30 58 H 5.4463 3.98937 -0.680554 0
M  V30 59 H 4.0163 3.12538 -0.0624074 0
M  V30 60 H 3.2363 3.01001 -2.54543 0
M  V30 61 H 4.5243 4.17047 -2.9146 0
M  V30 62 H 3.9223 5.65609 -0.101624 0
M  V30 63 H 2.4793 6.4987 -0.501165 0
M  V30 64 N 5.9124 1.20967 1.01018 0
M  V30 65 C 6.8424 0.988272 2.11555 0
M  V30 66 C 7.8234 -0.0849778 1.69888 0
M  V30 67 O 9.0084 0.0738202 1.9406 0
M  V30 68 C 6.1384 0.546528 3.42973 0
M  V30 69 C 5.0924 1.56375 3.9841 0
M  V30 70 C 4.4184 0.97842 5.25672 0
M  V30 71 C 5.7184 2.94922 4.31066 0
M  V30 72 H 7.4124 1.91276 2.30334 0
M  V30 73 H 4.9584 0.921073 1.1069 0
M  V30 74 H 6.9114 0.378839 4.19694 0
M  V30 75 H 5.6354 -0.413598 3.23971 0
M  V30 76 H 4.2944 1.71891 3.23804 0
M  V30 77 H 3.9424 0.0101688 5.02999 0
M  V30 78 H 3.6424 1.65784 5.63728 0
M  V30 79 H 5.1664 0.821939 6.05043 0
M  V30 80 H 6.5804 2.8288 4.9865 0
M  V30 81 H 4.9774 3.5983 4.80253 0
M  V30 82 H 6.0474 3.4616 3.39561 0
M  V30 83 N 7.3905 -1.2043 1.01659 0
M  V30 84 C 8.3225 -2.22626 0.544988 0
M  V30 85 C 9.3355 -1.58479 -0.372609 0
M  V30 86 O 10.5245 -1.77679 -0.170958 0
M  V30 87 C 7.6245 -3.38141 -0.22663 0
M  V30 88 C 6.7975 -4.31877 0.692876 0
M  V30 89 C 5.8565 -5.26191 -0.0311616 0
M  V30 90 O 4.8825 -5.6612 0.591343 0
M  V30 91 N 6.0845 -5.65618 -1.30601 0
M  V30 92 H 8.8495 -2.63716 1.42388 0
M  V30 93 H 6.4105 -1.34971 0.894116 0
M  V30 94 H 8.4025 -3.98239 -0.72024 0
M  V30 95 H 6.9725 -2.95943 -1.00681 0
M  V30 96 H 6.1925 -3.69746 1.36679 0
M  V30 97 H 7.4805 -4.91426 1.31824 0
M  V30 98 H 6.8785 -5.3519 -1.83269 0
M  V30 99 H 5.4355 -6.28025 -1.74435 0
M  V30 100 N 8.8686 -0.792821 -1.36206 0
M  V30 101 C 9.8166 -0.181555 -2.3189 0
M  V30 102 C 10.8106 0.661025 -1.55971 0
M  V30 103 O 12.0166 0.555728 -1.71206 0
M  V30 104 H 8.3916 -0.0399382 -0.750939 0
M  V30 105 H 10.3626 -1.00394 -2.81005 0
M  V30 106 C 9.1116 0.666444 -3.41253 0
M  V30 107 H 8.4346 0.0274489 -3.99791 0
M  V30 108 H 9.8746 1.06076 -4.10517 0
M  V30 109 C 8.3336 1.82614 -2.83114 0
M  V30 110 O 8.8636 2.9229 -2.75553 0
M  V30 111 N 7.0696 1.63333 -2.40356 0
M  V30 112 H 6.6166 0.741217 -2.46706 0
M  V30 113 H 6.5746 2.41087 -2.01803 0
M  V30 114 N 10.3467 1.47872 -0.545128 0
M  V30 115 C 11.5947 2.02093 -0.016553 0
M  V30 116 C 11.9157 1.42305 1.3332 0
M  V30 117 O 11.1857 0.593853 1.86682 0
M  V30 118 H 9.7657 0.746993 -0.00313038 0
M  V30 119 H 12.4277 1.81414 -0.712397 0
M  V30 120 H 11.5237 3.11996 0.0805422 0
M  V30 121 N 11.8248 0.280983 1.55075 0
M  V30 122 C 12.7548 -0.597469 2.25727 0
M  V30 123 C 13.7358 -1.15417 1.24952 0
M  V30 124 O 14.9208 -1.18722 1.53684 0
M  V30 125 C 12.0508 -1.7789 2.98283 0
M  V30 126 C 11.0048 -1.35347 4.06036 0
M  V30 127 C 10.3308 -2.61846 4.66198 0
M  V30 128 C 11.6308 -0.499354 5.19907 0
M  V30 129 H 13.3248 -0.00824265 2.99399 0
M  V30 130 H 10.8708 -0.0025244 1.44 0
M  V30 131 H 12.8238 -2.39937 3.46422 0
M  V30 132 H 11.5478 -2.39405 2.22155 0
M  V30 133 H 10.2068 -0.756156 3.58717 0
M  V30 134 H 9.8548 -3.21632 3.86732 0
M  V30 135 H 9.5548 -2.3409 5.38958 0
M  V30 136 H 11.0788 -3.24732 5.1709 0
M  V30 137 H 12.4928 -1.02498 5.64063 0
M  V30 138 H 10.8898 -0.316424 5.99265 0
M  V30 139 H 11.9598 0.480459 4.82514 0
M  V30 140 N 13.3029 -1.57598 0.00835791 0
M  V30 141 C 14.2509 -2.10078 -0.998508 0
M  V30 142 C 15.2449 -1.02262 -1.35051 0
M  V30 143 O 16.4509 -1.20719 -1.33518 0
M  V30 144 H 12.8259 -0.670903 -0.339696 0
M  V30 145 H 14.7969 -2.93648 -0.530398 0
M  V30 146 C 13.5459 -2.62615 -2.27879 0
M  V30 147 H 12.8689 -3.45213 -2.01662 0
M  V30 148 H 14.3089 -3.03004 -2.96588 0
M  V30 149 C 12.7679 -1.54407 -2.99433 0
M  V30 150 O 13.2979 -0.931812 -3.90743 0
M  V30 151 N 11.5039 -1.2695 -2.61404 0
M  V30 152 H 11.0509 -1.76924 -1.87232 0
M  V30 153 H 11.0089 -0.547704 -3.09593 0
M  V30 154 N 14.781 0.264519 -1.55364 0
M  V30 155 C 15.711 1.33121 -1.91836 0
M  V30 156 C 16.692 1.51101 -0.781192 0
M  V30 157 O 17.877 1.64003 -1.04003 0
M  V30 158 C 15.007 2.68921 -2.19769 0
M  V30 159 C 13.961 2.65661 -3.35571 0
M  V30 160 C 13.287 4.05093 -3.49004 0
M  V30 161 C 14.587 2.24187 -4.71739 0
M  V30 162 H 16.281 1.02844 -2.81182 0
M  V30 163 H 13.827 0.493286 -1.35287 0
M  V30 164 H 15.78 3.43663 -2.43872 0
M  V30 165 H 14.504 3.00799 -1.27231 0
M  V30 166 H 13.163 1.93377 -3.1145 0
M  V30 167 H 12.811 4.34206 -2.53917 0
M  V30 168 H 12.511 4.03804 -4.26868 0
M  V30 169 H 14.035 4.81561 -3.75408 0
M  V30 170 H 15.449 2.88654 -4.9533 0
M  V30 171 H 13.846 2.34044 -5.52579 0
M  V30 172 H 14.916 1.19327 -4.69988 0
M  V30 173 N 16.2591 1.48442 0.529413 0
M  V30 174 C 17.4841 1.60406 1.31471 0
M  V30 175 C 17.9091 0.264738 1.86228 0
M  V30 176 O 17.2671 -0.763668 1.64432 0
M  V30 177 C 17.3151 2.65419 2.44101 0
M  V30 178 O 16.4191 2.22618 3.47153 0
M  V30 179 H 15.7601 0.537863 0.389357 0
M  V30 180 H 18.2901 1.94432 0.636965 0
M  V30 181 H 18.3001 2.86709 2.90279 0
M  V30 182 H 16.9751 3.62652 2.03608 0
M  V30 183 H 15.5521 2.11543 3.0709 0
M  V30 184 N 17.7372 -0.778329 1.37039 0
M  V30 185 C 18.7002 -1.87301 1.32102 0
M  V30 186 C 19.7002 -1.59198 0.226405 0
M  V30 187 O 20.8902 -1.67403 0.481861 0
M  V30 188 C 18.0222 -3.24309 1.05055 0
M  V30 189 H 19.2152 -1.93093 2.29467 0
M  V30 190 H 16.7682 -0.977358 1.21973 0
M  V30 191 H 17.5032 -3.24196 0.0819373 0
M  V30 192 H 17.2882 -3.46098 1.84279 0
M  V30 193 H 18.7782 -4.04382 1.04234 0
M  V30 194 N 19.2153 -1.21501 -1.00376 0
M  V30 195 C 20.1623 -0.975387 -2.09177 0
M  V30 196 C 21.1323 0.0990615 -1.65804 0
M  V30 197 O 22.3173 -0.0483147 -1.90739 0
M  V30 198 C 19.4573 -0.547507 -3.40729 0
M  V30 199 C 18.5703 -1.69153 -3.97506 0
M  V30 200 C 17.7053 -1.2127 -5.17172 0
M  V30 201 C 16.7443 -2.32897 -5.66061 0
M  V30 202 N 15.8813 -1.86138 -6.76976 0
M  V30 203 H 20.7213 -1.9068 -2.29009 0
M  V30 204 H 18.2583 -0.950257 -1.12288 0
M  V30 205 H 20.2163 -0.280667 -4.16255 0
M  V30 206 H 18.8463 0.346904 -3.20931 0
M  V30 207 H 17.8983 -2.07298 -3.18954 0
M  V30 208 H 19.2103 -2.5316 -4.29781 0
M  V30 209 H 18.3643 -0.902591 -5.99948 0
M  V30 210 H 17.1033 -0.342692 -4.86495 0
M  V30 211 H 16.1083 -2.64709 -4.81881 0
M  V30 212 H 17.3333 -3.20396 -5.98768 0
M  V30 213 H 15.2793 -1.01484 -6.48103 0
M  V30 214 H 15.1963 -2.63717 -7.08512 0
M  V30 215 H 16.4643 -1.58165 -7.63285 0
M  V30 216 N 20.6934 1.19889 -1.02296 0
M  V30 217 C 21.9394 1.89701 -0.717033 0
M  V30 218 C 22.2724 1.7905 0.751989 0
M  V30 219 O 21.5474 1.17891 1.547 0
M  V30 220 C 21.8304 3.40858 -1.16136 0
M  V30 221 C 21.6834 3.60411 -2.69117 0
M  V30 222 C 23.0024 4.33876 -0.737549 0
M  V30 223 H 20.1214 0.688874 -0.261957 0
M  V30 224 H 22.7634 1.41154 -1.27183 0
M  V30 225 H 20.9134 3.82335 -0.689342 0
M  V30 226 H 22.5854 3.28145 -3.2422 0
M  V30 227 H 20.8284 3.03665 -3.0979 0
M  V30 228 H 21.4994 4.66396 -2.95261 0
M  V30 229 H 23.9754 4.00081 -1.14344 0
M  V30 230 H 22.8514 5.38242 -1.0764 0
M  V30 231 H 23.1124 4.40628 0.360436 0
M  V30 232 N 22.1715 0.800033 1.35784 0
M  V30 233 C 23.4175 0.377901 1.99248 0
M  V30 234 C 23.7505 -1.05052 1.63333 0
M  V30 235 O 23.0255 -1.72768 0.893385 0
M  V30 236 C 23.3085 0.553922 3.55814 0
M  V30 237 C 23.1615 2.0268 4.01548 0
M  V30 238 C 24.4805 -0.0244802 4.40093 0
M  V30 239 H 21.5995 0.138782 0.723815 0
M  V30 240 H 24.2415 1.00835 1.61035 0
M  V30 241 H 22.3915 0.0172398 3.88496 0
M  V30 242 H 24.0635 2.62536 3.79305 0
M  V30 243 H 22.3065 2.5256 3.52698 0
M  V30 244 H 22.9775 2.10087 5.10458 0
M  V30 245 H 25.4535 0.433775 4.13833 0
M  V30 246 H 24.3295 0.128637 5.48749 0
M  V30 247 H 24.5905 -1.11758 4.27741 0
M  V30 248 N 23.6496 -1.47581 0.552962 0
M  V30 249 C 24.5816 -2.27997 -0.234533 0
M  V30 250 C 25.5946 -1.36753 -0.883321 0
M  V30 251 O 26.7836 -1.61612 -0.757889 0
M  V30 252 C 23.8836 -3.10879 -1.34935 0
M  V30 253 C 23.0566 -4.30056 -0.798158 0
M  V30 254 C 22.1156 -4.94567 -1.79694 0
M  V30 255 O 21.1416 -5.53087 -1.34474 0
M  V30 256 N 22.3436 -4.88878 -3.13015 0
M  V30 257 H 25.1086 -2.96222 0.455255 0
M  V30 258 H 22.6696 -1.57163 0.388761 0
M  V30 259 H 24.6616 -3.50903 -2.01616 0
M  V30 260 H 23.2316 -2.44924 -1.94244 0
M  V30 261 H 22.4516 -3.94174 0.0453079 0
M  V30 262 H 23.7396 -5.07152 -0.409173 0
M  V30 263 H 23.1376 -4.42526 -3.52402 0
M  V30 264 H 21.6946 -5.32934 -3.75266 0
M  V30 265 N 25.1277 -0.289203 -1.54924 0
M  V30 266 C 26.3757 0.322879 -1.99504 0
M  V30 267 C 26.6967 1.55313 -1.1791 0
M  V30 268 O 25.9667 1.94001 -0.272097 0
M  V30 269 H 24.5467 0.122291 -0.736922 0
M  V30 270 H 27.2087 -0.397802 -1.90797 0
M  V30 271 H 26.3047 0.603061 -3.06218 0
M  V30 272 N 26.6058 1.57591 -0.0167156 0
M  V30 273 C 27.8308 1.9598 0.67872 0
M  V30 274 C 28.2558 0.892546 1.65575 0
M  V30 275 O 27.6138 -0.147772 1.80697 0
M  V30 276 C 27.6618 3.33468 1.37227 0
M  V30 277 O 26.7658 3.28954 2.48722 0
M  V30 278 H 26.1068 0.639339 0.17928 0
M  V30 279 H 28.6368 2.04463 -0.0748802 0
M  V30 280 H 28.6468 3.69417 1.7319 0
M  V30 281 H 27.3218 4.10694 0.656007 0
M  V30 282 H 25.8988 3.04705 2.14963 0
M  V30 283 N 28.0839 -0.256276 1.55502 0
M  V30 284 C 29.0139 -1.32102 1.92539 0
M  V30 285 C 29.9949 -1.50684 0.789194 0
M  V30 286 O 31.1799 -1.63449 1.04872 0
M  V30 287 C 28.3099 -2.67752 2.21192 0
M  V30 288 C 27.2639 -2.63878 3.36975 0
M  V30 289 C 26.5899 -4.03236 3.51147 0
M  V30 290 C 27.8899 -2.21682 4.72921 0
M  V30 291 H 29.5839 -1.01351 2.81724 0
M  V30 292 H 27.1299 -0.486105 1.35547 0
M  V30 293 H 29.0829 -3.42365 2.45691 0
M  V30 294 H 27.8069 -3.0012 1.28824 0
M  V30 295 H 26.4659 -1.91722 3.12471 0
M  V30 296 H 26.1139 -4.32854 2.56216 0
M  V30 297 H 25.8139 -4.01535 4.29003 0
M  V30 298 H 27.3379 -4.79563 3.77957 0
M  V30 299 H 28.7519 -2.86023 4.96854 0
M  V30 300 H 27.1489 -2.3111 5.53812 0
M  V30 301 H 28.2189 -1.16833 4.70615 0
M  V30 302 N 29.562 -1.4872 -0.521534 0
M  V30 303 C 30.839 -1.4766 -1.2828 0
M  V30 304 C 31.219 -0.19292 -2.10217 0
M  V30 305 O 30.567 0.825193 -2.13079 0
M  V30 306 C 30.777 -2.74358 -2.15705 0
M  V30 307 C 32.125 -3.23028 -2.75569 0
M  V30 308 O 33.149 -2.75333 -2.25987 0
M  V30 309 O 32.008 -4.0604 -3.65778 0
M  V30 310 H 29.102 -0.590085 -0.579421 0
M  V30 311 H 31.648 -1.60963 -0.537492 0
M  V30 312 H 30.42 -3.59292 -1.54999 0
M  V30 313 H 30.043 -2.63816 -2.97467 0
M  V30 314 N 31.0401 0.771051 -1.3745 0
M  V30 315 C 32.2651 1.56529 -1.36065 0
M  V30 316 C 32.6901 1.88029 0.0515859 0
M  V30 317 O 32.0481 1.49282 1.02882 0
M  V30 318 C 32.0961 2.85187 -2.20683 0
M  V30 319 O 31.2001 3.79593 -1.61193 0
M  V30 320 H 30.5411 0.47411 -0.464883 0
M  V30 321 H 33.0711 0.954269 -1.80983 0
M  V30 322 H 33.0811 3.34283 -2.33921 0
M  V30 323 H 31.7561 2.61588 -3.23334 0
M  V30 324 H 30.3331 3.38239 -1.56999 0
M  V30 325 N 32.5182 1.22032 0.997298 0
M  V30 326 C 33.4482 1.01065 2.10495 0
M  V30 327 C 34.4292 -0.0669542 1.69968 0
M  V30 328 O 35.6142 0.0943987 1.9397 0
M  V30 329 C 32.7442 0.582874 3.42374 0
M  V30 330 C 31.6982 1.60592 3.96729 0
M  V30 331 C 31.0242 1.03412 5.24605 0
M  V30 332 C 32.3242 2.99478 4.27914 0
M  V30 333 H 34.0182 1.93708 2.28292 0
M  V30 334 H 31.5642 0.932761 1.09707 0
M  V30 335 H 33.5172 0.423332 4.19268 0
M  V30 336 H 32.2412 -0.379213 3.24391 0
M  V30 337 H 30.9002 1.75316 3.21963 0
M  V30 338 H 30.5482 0.063518 5.0296 0
M  V30 339 H 30.2482 1.71754 5.61938 0
M  V30 340 H 31.7722 0.886066 6.04137 0
M  V30 341 H 33.1862 2.88153 4.95622 0
M  V30 342 H 31.5832 3.64903 4.76409 0
M  V30 343 H 32.6532 3.49742 3.3587 0
M  V30 344 N 33.9963 -1.19345 1.0293 0
M  V30 345 C 35.4073 -1.70725 0.755633 0
M  V30 346 C 35.7583 -1.82326 -0.724676 0
M  V30 347 O 34.8833 -1.49471 -1.56484 0
M  V30 348 C 35.4783 -3.10084 1.36503 0
M  V30 349 C 34.0373 -3.58723 1.13994 0
M  V30 350 C 33.1843 -2.35577 1.46283 0
M  V30 351 H 36.1353 -1.0418 1.19718 0
M  V30 352 H 36.1563 -3.72787 0.762217 0
M  V30 353 H 35.6683 -3.01609 2.44241 0
M  V30 354 H 33.7693 -3.72512 0.0807901 0
M  V30 355 H 33.8823 -4.42816 1.82894 0
M  V30 356 H 32.2463 -2.38935 0.88217 0
M  V30 357 H 33.0293 -2.29731 2.55105 0
M  V30 358 N 35.4744 -0.807222 -1.35358 0
M  V30 359 C 36.4064 -0.175717 -2.28525 0
M  V30 360 C 37.4194 0.625354 -1.5031 0
M  V30 361 O 38.6084 0.457611 -1.72535 0
M  V30 362 C 35.7084 0.773471 -3.29956 0
M  V30 363 C 34.8814 0.0186296 -4.37396 0
M  V30 364 C 33.9404 0.886395 -5.18681 0
M  V30 365 O 32.9664 0.337106 -5.68201 0
M  V30 366 N 34.1684 2.20839 -5.36852 0
M  V30 367 H 36.9334 -0.976091 -2.83359 0
M  V30 368 H 34.4944 -0.662737 -1.47714 0
M  V30 369 H 36.4864 1.35824 -3.81227 0
M  V30 370 H 35.0564 1.47465 -2.75632 0
M  V30 371 H 34.2764 -0.747349 -3.87051 0
M  V30 372 H 35.5644 -0.501577 -5.06322 0
M  V30 373 H 34.9624 2.67858 -4.98265 0
M  V30 374 H 33.5194 2.74237 -5.91301 0
M  V30 375 N 36.9525 1.47285 -0.560781 0
M  V30 376 C 37.9155 2.28535 0.174488 0
M  V30 377 C 38.9155 1.37153 0.839388 0
M  V30 378 O 40.1055 1.59748 0.694702 0
M  V30 379 C 37.2375 3.16934 1.25561 0
M  V30 380 H 38.4305 2.95012 -0.539262 0
M  V30 381 H 35.9835 1.53034 -0.317865 0
M  V30 382 H 36.7185 2.55157 2.00164 0
M  V30 383 H 36.5035 3.8419 0.783604 0
M  V30 384 H 37.9935 3.78143 1.77193 0
M  V30 385 N 38.4306 0.297415 1.54768 0
M  V30 386 C 39.6766 -0.313376 2.00364 0
M  V30 387 C 40.0096 -1.53815 1.18553 0
M  V30 388 O 39.2846 -1.92739 0.261103 0
M  V30 389 C 39.5676 -0.673525 3.53745 0
M  V30 390 C 39.4206 0.560133 4.46299 0
M  V30 391 C 40.7396 -1.50143 4.13697 0
M  V30 392 H 37.8586 -0.112428 0.728374 0
M  V30 393 H 40.5006 0.4088 1.8555 0
M  V30 394 H 38.6506 -1.28881 3.665 0
M  V30 395 H 40.3226 1.19863 4.45455 0
M  V30 396 H 38.5656 1.19405 4.17043 0
M  V30 397 H 39.2366 0.26405 5.51368 0
M  V30 398 H 41.7126 -0.981588 4.04356 0
M  V30 399 H 40.5886 -1.72221 5.21182 0
M  V30 400 H 40.8496 -2.48952 3.65343 0
M  V30 401 N 39.9087 -1.5758 0.0250728 0
M  V30 402 C 41.3247 -1.56124 -0.331282 0
M  V30 403 C 41.5247 -1.03029 -1.73169 0
M  V30 404 O 40.5807 -0.675215 -2.43305 0
M  V30 405 C 41.8937 -3.00139 -0.183584 0
M  V30 406 C 43.4417 -3.11946 -0.256654 0
M  V30 407 C 43.9167 -4.57793 -0.137792 0
M  V30 408 N 45.4077 -4.6279 -0.194904 0
M  V30 409 C 46.1427 -5.7326 -0.126655 0
M  V30 410 N 45.6387 -6.928 -0.00755288 0
M  V30 411 N 47.4317 -5.61811 -0.180348 0
M  V30 412 H 39.5827 -1.90424 0.94087 0
M  V30 413 H 41.8457 -0.875761 0.362968 0
M  V30 414 H 41.5517 -3.4292 0.780927 0
M  V30 415 H 41.4257 -3.64899 -0.955448 0
M  V30 416 H 43.8127 -2.69079 -1.21162 0
M  V30 417 H 43.8937 -2.49915 0.545517 0
M  V30 418 H 43.5377 -5.01339 0.813739 0
M  V30 419 H 43.4677 -5.17798 -0.958775 0
M  V30 420 H 45.9587 -3.76807 -0.287267 0
M  V30 421 H 46.2717 -7.72791 0.0379428 0
M  V30 422 H 44.6167 -6.94995 0.0271731 0
M  V30 423 H 47.8077 -4.6731 -0.271767 0
M  V30 424 H 47.9807 -6.47882 -0.123697 0
M  V30 425 N 41.3868 0.248026 -1.55636 0
M  V30 426 C 42.2968 1.32859 -1.93354 0
M  V30 427 C 43.3128 1.52719 -0.833838 0
M  V30 428 O 44.4888 1.66363 -1.13513 0
M  V30 429 C 41.5538 2.66337 -2.21958 0
M  V30 430 C 40.6148 2.55008 -3.45354 0
M  V30 431 C 39.8478 3.82121 -3.72584 0
M  V30 432 O 40.0708 4.83951 -3.01907 0
M  V30 433 O 39.0048 3.80822 -4.6611 0
M  V30 434 H 42.8308 1.03862 -2.85388 0
M  V30 435 H 40.4158 0.448686 -1.42503 0
M  V30 436 H 42.2978 3.45216 -2.4167 0
M  V30 437 H 40.9728 2.95068 -1.33103 0
M  V30 438 H 39.8798 1.7442 -3.30951 0
M  V30 439 H 41.2128 2.31222 -4.34508 0
M  V30 440 N 42.8649 1.48995 0.513639 0
M  V30 441 C 44.1119 1.57843 1.26854 0
M  V30 442 C 44.4399 0.259501 1.92761 0
M  V30 443 O 43.6949 -0.75159 1.80692 0
M  V30 444 C 43.9939 2.67756 2.36731 0
M  V30 445 C 43.6599 4.09669 1.88368 0
M  V30 446 C 42.3219 4.48291 1.74896 0
M  V30 447 C 44.6739 4.98537 1.52021 0
M  V30 448 C 42.0019 5.73568 1.23438 0
M  V30 449 C 44.3539 6.24319 1.0202 0
M  V30 450 C 43.0179 6.61783 0.871778 0
M  V30 451 H 42.2879 0.577587 0.464192 0
M  V30 452 H 44.9349 1.82778 0.571366 0
M  V30 453 H 43.2399 2.36743 3.12185 0
M  V30 454 H 44.9369 2.71813 2.9482 0
M  V30 455 H 41.5269 3.79176 1.99808 0
M  V30 456 H 45.7109 4.69363 1.61281 0
M  V30 457 H 40.9669 6.01304 1.10648 0
M  V30 458 H 45.1409 6.92566 0.729722 0
M  V30 459 H 42.7679 7.5874 0.470852 0
M  V30 460 N 44.343 -0.763751 1.37857 0
M  V30 461 C 45.273 -1.89103 1.36975 0
M  V30 462 C 46.254 -1.68439 0.237152 0
M  V30 463 O 47.439 -1.8918 0.438713 0
M  V30 464 C 44.569 -3.26496 1.18395 0
M  V30 465 C 43.523 -3.61741 2.28751 0
M  V30 466 C 42.849 -4.97762 1.95286 0
M  V30 467 C 44.149 -3.67665 3.70972 0
M  V30 468 H 45.843 -1.90099 2.31307 0
M  V30 469 H 43.389 -0.91319 1.11341 0
M  V30 470 H 45.342 -4.05003 1.16406 0
M  V30 471 H 44.066 -3.25955 0.205215 0
M  V30 472 H 42.725 -2.85547 2.29909 0
M  V30 473 H 42.373 -4.93769 0.959221 0
M  V30 474 H 42.073 -5.22313 2.69189 0
M  V30 475 H 43.597 -5.7866 1.94898 0
M  V30 476 H 45.011 -4.36307 3.719 0
M  V30 477 H 43.408 -4.03718 4.43995 0
M  V30 478 H 44.478 -2.68134 4.0402 0
M  V30 479 N 45.8211 -1.22559 -0.990812 0
M  V30 480 C 46.7311 -1.01394 -2.11557 0
M  V30 481 C 47.7471 0.0383962 -1.73958 0
M  V30 482 O 48.9231 -0.154787 -2.00804 0
M  V30 483 C 45.9881 -0.596569 -3.41529 0
M  V30 484 C 45.0491 -1.72276 -3.93217 0
M  V30 485 C 44.2821 -1.32521 -5.16985 0
M  V30 486 O 44.5051 -0.204909 -5.70032 0
M  V30 487 O 43.4391 -2.14247 -5.62478 0
M  V30 488 H 47.2651 -1.95633 -2.32296 0
M  V30 489 H 44.8501 -1.01172 -1.0993 0
M  V30 490 H 46.7321 -0.374263 -4.19735 0
M  V30 491 H 45.4071 0.316939 -3.22145 0
M  V30 492 H 44.3141 -1.99961 -3.16174 0
M  V30 493 H 45.6471 -2.61421 -4.17037 0
M  V30 494 N 47.2992 1.18797 -1.03562 0
M  V30 495 C 48.2472 2.24297 -0.615905 0
M  V30 496 C 49.2412 1.65643 0.354808 0
M  V30 497 O 50.4472 1.78618 0.22265 0
M  V30 498 H 46.8222 0.729909 -0.180934 0
M  V30 499 H 48.7932 2.5701 -1.5162 0
M  V30 500 C 47.5422 3.47698 0.0104735 0
M  V30 501 H 46.8652 3.93125 -0.727509 0
M  V30 502 H 48.3052 4.23159 0.266995 0
M  V30 503 C 46.7642 3.12489 1.25905 0
M  V30 504 O 47.2942 3.25761 2.35038 0
M  V30 505 N 45.5002 2.6686 1.15039 0
M  V30 506 H 45.0472 2.56261 0.262328 0
M  V30 507 H 45.0052 2.43674 1.98672 0
M  V30 508 N 48.7773 0.814389 1.34928 0
M  V30 509 C 49.7253 0.218424 2.31572 0
M  V30 510 C 50.7193 -0.636128 1.57002 0
M  V30 511 O 51.9253 -0.52842 1.72069 0
M  V30 512 H 48.3003 0.0518799 0.750208 0
M  V30 513 H 50.2713 1.04852 2.79372 0
M  V30 514 C 49.0203 -0.61207 3.4227 0
M  V30 515 H 48.3433 0.0361578 3.99784 0
M  V30 516 H 49.7833 -0.995317 4.12152 0
M  V30 517 C 48.2423 -1.78087 2.85984 0
M  V30 518 O 48.7723 -2.8787 2.80168 0
M  V30 519 N 46.9783 -1.59488 2.42924 0
M  V30 520 H 46.5253 -0.701874 2.47854 0
M  V30 521 H 46.4833 -2.37846 2.05613 0
M  V30 522 N 50.2554 -1.46986 0.568584 0
M  V30 523 C 51.2184 -2.28624 -0.162366 0
M  V30 524 C 52.2184 -1.37596 -0.832103 0
M  V30 525 O 53.4084 -1.60115 -0.68622 0
M  V30 526 C 50.5404 -3.17596 -1.23878 0
M  V30 527 H 51.7334 -2.94722 0.554899 0
M  V30 528 H 49.2864 -1.52863 0.325976 0
M  V30 529 H 50.0214 -2.56214 -1.98808 0
M  V30 530 H 49.8064 -3.846 -0.763219 0
M  V30 531 H 51.2964 -3.79078 -1.75185 0
M  V30 532 N 51.7335 -0.305618 -1.54608 0
M  V30 533 C 52.6435 0.57778 -2.27374 0
M  V30 534 C 53.6595 1.14451 -1.31061 0
M  V30 535 O 54.8355 1.16831 -1.6405 0
M  V30 536 C 51.9005 1.73123 -3.00382 0
M  V30 537 C 50.9615 1.19812 -4.12242 0
M  V30 538 C 50.1945 2.2966 -4.81759 0
M  V30 539 O 50.4175 3.49651 -4.50666 0
M  V30 540 O 49.3515 1.96091 -5.69062 0
M  V30 541 H 53.1775 -0.012624 -3.03697 0
M  V30 542 H 50.7625 -0.0719184 -1.49227 0
M  V30 543 H 52.6445 2.40315 -3.4616 0
M  V30 544 H 51.3195 2.30815 -2.26949 0
M  V30 545 H 50.2265 0.491798 -3.70853 0
M  V30 546 H 51.5595 0.666566 -4.87666 0
M  V30 547 N 53.2116 1.57565 -0.0334293 0
M  V30 548 C 54.1416 2.13511 0.945265 0
M  V30 549 C 55.1226 1.05231 1.33643 0
M  V30 550 O 56.3076 1.33084 1.41429 0
M  V30 551 C 53.4376 2.6657 2.22616 0
M  V30 552 C 52.3916 3.79676 1.97561 0
M  V30 553 C 51.7176 4.1918 3.31952 0
M  V30 554 C 53.0176 5.0557 1.31135 0
M  V30 555 H 54.7116 2.95538 0.479325 0
M  V30 556 H 52.2576 1.42166 0.229115 0
M  V30 557 H 54.2106 3.04344 2.91466 0
M  V30 558 H 52.9346 1.8171 2.71384 0
M  V30 559 H 51.5936 3.42347 1.31127 0
M  V30 560 H 51.2416 3.31296 3.78487 0
M  V30 561 H 50.9416 4.95402 3.15992 0
M  V30 562 H 52.4656 4.59541 4.02063 0
M  V30 563 H 53.8796 5.40903 1.89992 0
M  V30 564 H 52.2766 5.86818 1.25559 0
M  V30 565 H 53.3466 4.84062 0.284894 0
M  V30 566 N 54.6897 -0.239769 1.55765 0
M  V30 567 C 55.9297 -0.974076 1.79697 0
M  V30 568 C 56.2937 -1.82249 0.604088 0
M  V30 569 O 57.4947 -2.58913 0.722324 0
M  V30 570 C 55.7657 -1.80595 3.08416 0
M  V30 571 S 57.3247 -2.59838 3.53596 0
M  V30 572 H 54.1427 -0.327524 0.63107 0
M  V30 573 H 56.7447 -0.241277 1.94005 0
M  V30 574 H 55.4487 -1.17249 3.93295 0
M  V30 575 H 54.9797 -2.58137 2.96865 0
M  V30 576 H 56.9947 -3.82987 3.15492 0
M  V30 577 N 56.1678 -1.49265 -0.50573 0
M  V30 578 C 57.0998 -1.617 -1.62437 0
M  V30 579 C 58.1128 -0.499924 -1.54934 0
M  V30 580 O 59.3018 -0.771785 -1.60953 0
M  V30 581 C 56.4018 -1.5533 -3.01207 0
M  V30 582 C 55.5748 -2.8249 -3.33943 0
M  V30 583 C 54.6338 -2.69238 -4.52103 0
M  V30 584 O 53.6598 -3.43167 -4.5412 0
M  V30 585 N 54.8618 -1.80468 -5.51735 0
M  V30 586 H 57.6268 -2.58177 -1.52199 0
M  V30 587 H 55.1878 -1.46294 -0.693511 0
M  V30 588 H 57.1798 -1.44125 -3.78167 0
M  V30 589 H 55.7498 -0.667297 -3.05395 0
M  V30 590 H 54.9698 -3.08081 -2.45926 0
M  V30 591 H 56.2578 -3.66802 -3.5261 0
M  V30 592 H 55.6558 -1.19653 -5.52901 0
M  V30 593 H 54.2128 -1.75188 -6.27816 0
M  V30 594 N 57.6459 0.756429 -1.3826 0
M  V30 595 C 59.0569 1.33359 -1.30661 0
M  V30 596 C 59.4079 1.96161 0.0388875 0
M  V30 597 O 58.5329 1.94874 0.940918 0
M  V30 598 C 59.1279 2.42477 -2.36622 0
M  V30 599 C 57.6869 2.95922 -2.3261 0
M  V30 600 C 56.8339 1.69275 -2.19639 0
M  V30 601 H 59.7849 0.55552 -1.4866 0
M  V30 602 H 59.8059 3.22345 -2.02174 0
M  V30 603 H 59.3179 1.96739 -3.34538 0
M  V30 604 H 57.4189 3.45996 -1.38267 0
M  V30 605 H 57.5319 3.50494 -3.26636 0
M  V30 606 H 55.8959 1.92793 -1.66442 0
M  V30 607 H 56.6789 1.25619 -3.19491 0
M  V30 608 N 59.124 1.23083 0.984299 0
M  V30 609 C 60.401 0.9689 1.69917 0
M  V30 610 C 60.781 -0.513604 2.04757 0
M  V30 611 O 60.129 -1.48383 1.73767 0
M  V30 612 C 60.339 1.87518 2.94343 0
M  V30 613 C 61.687 2.13636 3.6694 0
M  V30 614 O 62.711 1.85036 3.04368 0
M  V30 615 O 61.57 2.62119 4.79537 0
M  V30 616 H 58.664 0.365095 0.742048 0
M  V30 617 H 61.21 1.34107 1.03987 0
M  V30 618 H 59.982 2.87756 2.65164 0
M  V30 619 H 59.605 1.50514 3.6801 0
M  V30 620 N 60.6021 -1.18246 1.0419 0
M  V30 621 C 61.5521 -2.19843 0.604392 0
M  V30 622 C 62.5361 -1.56962 -0.353814 0
M  V30 623 O 63.7281 -1.76156 -0.17267 0
M  V30 624 C 60.8571 -3.43287 -0.0298975 0
M  V30 625 C 59.9431 -4.13288 0.951531 0
M  V30 626 N 60.3341 -4.59271 2.11906 0
M  V30 627 C 58.6321 -4.39165 0.7778 0
M  V30 628 C 59.3331 -5.13173 2.73912 0
M  V30 629 N 58.3091 -5.04763 2.01779 0
M  V30 630 H 62.1111 -2.53089 1.4941 0
M  V30 631 H 59.6251 -1.34465 0.910658 0
M  V30 632 H 61.6221 -4.15334 -0.361037 0
M  V30 633 H 60.2821 -3.11537 -0.915127 0
M  V30 634 H 61.2931 -4.5368 2.49789 0
M  V30 635 H 57.9701 -4.17461 -0.0572331 0
M  V30 636 H 59.3601 -5.58947 3.72864 0
M  V30 637 N 62.0802 -0.821533 -1.34494 0
M  V30 638 C 63.3292 -0.405355 -1.97585 0
M  V30 639 C 63.6422 1.03677 -1.65863 0
M  V30 640 O 64.8482 1.55679 -2.22433 0
M  V30 641 C 63.3042 -0.673861 -3.53535 0
M  V30 642 C 62.9122 -2.12951 -3.94152 0
M  V30 643 C 64.6562 -0.32378 -4.23263 0
M  V30 644 C 62.5632 -2.34298 -5.43009 0
M  V30 645 H 61.4932 -0.147836 -0.739365 0
M  V30 646 H 64.1442 -1.00769 -1.53355 0
M  V30 647 H 62.5262 -0.00137554 -3.96 0
M  V30 648 H 63.7002 -2.84104 -3.62797 0
M  V30 649 H 62.0152 -2.44089 -3.37356 0
M  V30 650 H 64.6122 -0.461126 -5.32708 0
M  V30 651 H 64.9552 0.731586 -4.09821 0
M  V30 652 H 65.4882 -0.950786 -3.8627 0
M  V30 653 H 62.2272 -3.38335 -5.61435 0
M  V30 654 H 61.7472 -1.67687 -5.75883 0
M  V30 655 H 63.4262 -2.16588 -6.09671 0
M  V30 656 N 63.5583 1.46682 -0.576371 0
M  V30 657 C 64.5083 2.27278 0.181288 0
M  V30 658 C 65.4923 1.35497 0.867721 0
M  V30 659 O 66.6843 1.59717 0.762863 0
M  V30 660 C 63.8133 3.21703 1.19841 0
M  V30 661 C 62.8993 4.20969 0.51442 0
M  V30 662 N 63.2903 5.03999 -0.426407 0
M  V30 663 C 61.5883 4.39373 0.765963 0
M  V30 664 C 62.2893 5.75812 -0.825565 0
M  V30 665 N 61.2653 5.43315 -0.176116 0
M  V30 666 H 65.0673 2.88863 -0.541785 0
M  V30 667 H 62.5813 1.57455 -0.397697 0
M  V30 668 H 64.5783 3.78145 1.75533 0
M  V30 669 H 63.2383 2.61677 1.92238 0
M  V30 670 H 64.2493 5.11659 -0.8016 0
M  V30 671 H 60.9263 3.90502 1.47698 0
M  V30 672 H 62.3163 6.52577 -1.59976 0
M  V30 673 N 65.0364 0.313813 1.54444 0
M  V30 674 C 66.2854 -0.292519 1.99568 0
M  V30 675 C 66.5984 -1.54011 1.20582 0
M  V30 676 O 67.8044 -2.22183 1.56035 0
M  V30 677 C 66.2604 -0.571752 3.55329 0
M  V30 678 C 65.8684 0.658229 4.43138 0
M  V30 679 C 67.6124 -1.13857 4.08946 0
M  V30 680 C 65.5194 0.351439 5.90355 0
M  V30 681 H 64.4494 -0.113079 0.745472 0
M  V30 682 H 67.1004 0.424518 1.78522 0
M  V30 683 H 65.4824 -1.34872 3.72325 0
M  V30 684 H 66.6564 1.43403 4.37918 0
M  V30 685 H 64.9714 1.14458 4.0036 0
M  V30 686 H 67.5684 -1.38257 5.16516 0
M  V30 687 H 67.9114 -2.08489 3.6033 0
M  V30 688 H 68.4444 -0.423015 3.95544 0
M  V30 689 H 65.1834 1.26667 6.43145 0
M  V30 690 H 64.7034 -0.386842 5.98551 0
M  V30 691 H 66.3824 -0.0423134 6.46986 0
M  V30 692 N 66.5145 -1.57545 0.0417849 0
M  V30 693 C 67.7545 -1.94185 -0.63809 0
M  V30 694 C 68.1185 -0.919339 -1.68559 0
M  V30 695 O 69.3195 -1.17236 -2.41886 0
M  V30 696 C 67.5905 -3.35672 -1.22714 0
M  V30 697 S 69.1495 -3.94256 -1.92633 0
M  V30 698 H 65.9675 -0.679353 -0.209764 0
M  V30 699 H 68.5695 -1.95199 0.108479 0
M  V30 700 H 67.2735 -4.07898 -0.452503 0
M  V30 701 H 66.8045 -3.38132 -2.01073 0
M  V30 702 H 68.8195 -3.7872 -3.20602 0
M  V30 703 N 67.9926 0.231505 -1.5589 0
M  V30 704 C 69.2696 0.981096 -1.69215 0
M  V30 705 C 69.6496 2.02799 -0.586164 0
M  V30 706 O 68.9976 2.24823 0.408253 0
M  V30 707 C 69.2076 1.60054 -3.10135 0
M  V30 708 C 70.5556 2.09658 -3.69227 0
M  V30 709 O 71.5796 1.69967 -3.13033 0
M  V30 710 O 70.4386 2.8258 -4.67772 0
M  V30 711 H 67.5326 0.457653 -0.688827 0
M  V30 712 H 70.0786 0.224073 -1.68214 0
M  V30 713 H 68.8506 0.844105 -3.82087 0
M  V30 714 H 68.4736 2.42336 -3.15212 0
M  V30 715 N 69.4707 1.49531 0.497807 0
M  V30 716 C 70.7187 1.58865 1.24926 0
M  V30 717 C 71.0397 0.278721 1.92998 0
M  V30 718 O 70.3097 -0.702144 1.82885 0
M  V30 719 H 68.8897 0.585343 0.464094 0
M  V30 720 H 71.5517 1.86174 0.57666 0
M  V30 721 H 70.6477 2.38633 2.01149 0
M  V30 722 N 70.9488 -0.749086 1.3866 0
M  V30 723 C 72.1738 -1.54344 1.38538 0
M  V30 724 C 72.5988 -1.88088 -0.0216655 0
M  V30 725 O 71.9568 -1.50899 -1.00494 0
M  V30 726 C 72.0048 -2.8164 2.25192 0
M  V30 727 O 71.1088 -3.7698 1.67212 0
M  V30 728 H 70.4498 -0.466654 0.472367 0
M  V30 729 H 72.9798 -0.925355 1.82478 0
M  V30 730 H 72.9898 -3.30519 2.3921 0
M  V30 731 H 71.6648 -2.56411 3.27454 0
M  V30 732 H 70.2418 -3.35699 1.6236 0
M  V30 733 N 72.4269 -1.23603 -0.977757 0
M  V30 734 C 73.3369 -1.03632 -2.1047 0
M  V30 735 C 74.3529 0.0199435 -1.73989 0
M  V30 736 O 75.5289 -0.176076 -2.00629 0
M  V30 737 C 72.5939 -0.63276 -3.40877 0
M  V30 738 C 71.6549 -1.76437 -3.91367 0
M  V30 739 C 70.8879 -1.37997 -5.15551 0
M  V30 740 O 71.1109 -0.265357 -5.69782 0
M  V30 741 O 70.0449 -2.20201 -5.60174 0
M  V30 742 H 73.8709 -1.98086 -2.30208 0
M  V30 743 H 71.4559 -1.02332 -1.08851 0
M  V30 744 H 73.3379 -0.418761 -4.19314 0
M  V30 745 H 72.0129 0.282754 -3.22463 0
M  V30 746 H 70.9199 -2.03304 -3.14036 0
M  V30 747 H 72.2529 -2.6583 -4.14241 0
M  V30 748 N 73.905 1.17692 -1.04816 0
M  V30 749 C 74.815 2.25229 -0.65643 0
M  V30 750 C 75.831 1.71018 0.320761 0
M  V30 751 O 77.007 2.00649 0.173805 0
M  V30 752 C 74.072 3.46684 -0.0332629 0
M  V30 753 C 73.133 4.15997 -1.06042 0
M  V30 754 C 72.366 5.31654 -0.466893 0
M  V30 755 O 72.589 5.65777 0.724758 0
M  V30 756 O 71.523 5.89831 -1.1993 0
M  V30 757 H 75.349 2.61016 -1.55255 0
M  V30 758 H 72.934 1.24919 -0.81949 0
M  V30 759 H 74.816 4.20234 0.313256 0
M  V30 760 H 73.491 3.12703 0.836566 0
M  V30 761 H 72.398 3.44482 -1.45886 0
M  V30 762 H 73.731 4.53996 -1.90127 0
M  V30 763 N 75.3831 0.828654 1.34056 0
M  V30 764 C 76.2931 0.256725 2.33191 0
M  V30 765 C 77.3091 -0.611898 1.62886 0
M  V30 766 O 78.4851 -0.51844 1.94613 0
M  V30 767 C 75.5501 -0.567238 3.42028 0
M  V30 768 C 74.6111 0.324458 4.28072 0
M  V30 769 C 73.8441 -0.460274 5.31712 0
M  V30 770 O 74.0671 -1.693 5.44696 0
M  V30 771 O 73.0011 0.160391 6.01686 0
M  V30 772 H 76.8271 1.07739 2.83947 0
M  V30 773 H 74.4121 0.59093 1.37217 0
M  V30 774 H 76.2941 -1.03582 4.08471 0
M  V30 775 H 74.9691 -1.36513 2.93506 0
M  V30 776 H 73.8761 0.840659 3.64532 0
M  V30 777 H 75.2091 1.08685 4.8005 0
M  V30 778 N 76.8612 -1.46375 0.584142 0
M  V30 779 C 77.8092 -2.32042 -0.161047 0
M  V30 780 C 78.8032 -1.44569 -0.882966 0
M  V30 781 O 80.0092 -1.61186 -0.801191 0
M  V30 782 H 76.3842 -0.748659 -0.0708033 0
M  V30 783 H 78.3552 -2.92704 0.580269 0
M  V30 784 C 77.1042 -3.27762 -1.1605 0
M  V30 785 H 76.4272 -3.95051 -0.614419 0
M  V30 786 H 77.8672 -3.90481 -1.65228 0
M  V30 787 C 76.3262 -2.53218 -2.22221 0
M  V30 788 O 76.8562 -2.29628 -3.29597 0
M  V30 789 N 75.0622 -2.13756 -1.96868 0
M  V30 790 H 74.6092 -2.33142 -1.09557 0
M  V30 791 H 74.5672 -1.642 -2.68115 0
M  V30 792 N 78.3393 -0.321999 -1.54275 0
M  V30 793 C 79.5873 0.280489 -2.00144 0
M  V30 794 C 79.9083 1.52777 -1.21178 0
M  V30 795 O 79.1783 1.9338 -0.313187 0
M  V30 796 H 77.7583 0.106632 -0.73935 0
M  V30 797 H 80.4203 -0.438184 -1.8991 0
M  V30 798 H 79.5163 0.537972 -3.07428 0
M  V30 799 N 79.8174 1.5752 -0.0501392 0
M  V30 800 C 81.2334 1.56631 0.306402 0
M  V30 801 C 81.4334 1.0577 1.71508 0
M  V30 802 O 80.4894 0.713837 2.422 0
M  V30 803 C 81.8024 3.00393 0.135811 0
M  V30 804 C 83.3504 3.12315 0.206993 0
M  V30 805 C 83.8254 4.57954 0.064944 0
M  V30 806 N 85.3164 4.63041 0.121254 0
M  V30 807 C 86.0514 5.73389 0.0354381 0
M  V30 808 N 85.5474 6.92724 -0.102666 0
M  V30 809 N 87.3404 5.62026 0.090946 0
M  V30 810 H 79.4914 1.88903 -0.971046 0
M  V30 811 H 81.7544 0.869876 -0.376855 0
M  V30 812 H 81.4604 3.41635 -0.835384 0
M  V30 813 H 81.3344 3.66373 0.897275 0
M  V30 814 H 83.7214 2.70973 1.16866 0
M  V30 815 H 83.8024 2.49016 -0.585208 0
M  V30 816 H 83.4464 4.99981 -0.893394 0
M  V30 817 H 83.3764 5.19258 0.876277 0
M  V30 818 H 85.8674 3.77216 0.227284 0
M  V30 819 H 86.1804 7.72633 -0.160882 0
M  V30 820 H 84.5254 6.94864 -0.137737 0
M  V30 821 H 87.7164 4.67684 0.197388 0
M  V30 822 H 87.8894 6.47997 0.0206089 0
M  V30 823 N 81.2955 -0.223234 1.56011 0
M  V30 824 C 82.2255 -1.27988 1.95298 0
M  V30 825 C 83.2065 -1.48976 0.820979 0
M  V30 826 O 84.3915 -1.61188 1.08315 0
M  V30 827 C 81.5215 -2.63 2.26822 0
M  V30 828 C 80.4755 -2.56671 3.42497 0
M  V30 829 C 79.8015 -3.95697 3.59622 0
M  V30 830 C 81.1015 -2.11601 4.77517 0
M  V30 831 H 82.7955 -0.953525 2.8381 0
M  V30 832 H 80.3415 -0.457244 1.36548 0
M  V30 833 H 82.2945 -3.37077 2.52898 0
M  V30 834 H 81.0185 -2.9732 1.35161 0
M  V30 835 H 79.6775 -1.85051 3.16467 0
M  V30 836 H 79.3255 -4.27322 2.6534 0
M  V30 837 H 79.0255 -3.92345 4.37424 0
M  V30 838 H 80.5495 -4.71438 3.88044 0
M  V30 839 H 81.9635 -2.7542 5.02809 0
M  V30 840 H 80.3605 -2.19311 5.5859 0
M  V30 841 H 81.4305 -1.06824 4.72987 0
M  V30 842 N 82.7736 -1.49793 -0.48987 0
M  V30 843 C 83.7036 -1.70201 -1.59856 0
M  V30 844 C 84.6846 -0.55076 -1.60937 0
M  V30 845 O 85.8696 -0.787841 -1.77501 0
M  V30 846 C 82.9996 -1.77882 -2.98287 0
M  V30 847 C 81.9536 -2.92907 -3.12073 0
M  V30 848 C 81.2796 -2.85712 -4.51965 0
M  V30 849 C 82.5796 -4.3369 -2.91051 0
M  V30 850 H 84.2736 -2.63025 -1.43032 0
M  V30 851 H 81.8196 -1.26574 -0.686664 0
M  V30 852 H 83.7726 -1.90744 -3.75759 0
M  V30 853 H 82.4966 -0.816653 -3.16225 0
M  V30 854 H 81.1556 -2.79665 -2.37029 0
M  V30 855 H 80.8036 -1.8738 -4.66795 0
M  V30 856 H 80.5036 -3.62921 -4.62128 0
M  V30 857 H 82.0276 -3.00598 -5.31482 0
M  V30 858 H 83.4416 -4.47555 -3.58284 0
M  V30 859 H 81.8386 -5.12205 -3.12675 0
M  V30 860 H 82.9086 -4.47362 -1.87071 0
M  V30 861 N 84.2517 0.741722 -1.39055 0
M  V30 862 C 85.4997 1.49818 -1.35643 0
M  V30 863 C 85.8207 1.94938 0.0491642 0
M  V30 864 O 85.0907 1.68505 0.999141 0
M  V30 865 H 83.6707 0.555755 -0.499144 0
M  V30 866 H 86.3327 0.880957 -1.73854 0
M  V30 867 H 85.4287 2.38348 -2.01486 0
M  V30 868 N 85.7298 1.2412 0.971189 0
M  V30 869 C 86.6618 0.988349 2.06795 0
M  V30 870 C 87.6748 -0.0409541 1.62748 0
M  V30 871 O 88.8638 0.195673 1.77424 0
M  V30 872 C 85.9638 0.469023 3.35639 0
M  V30 873 C 85.1368 1.56065 4.08611 0
M  V30 874 C 84.1958 1.04458 5.15728 0
M  V30 875 O 83.2218 1.73553 5.42096 0
M  V30 876 N 84.4238 -0.122817 5.8037 0
M  V30 877 H 87.1888 1.93265 2.29061 0
M  V30 878 H 84.7498 1.15102 1.13856 0
M  V30 879 H 86.7418 0.108613 4.04554 0
M  V30 880 H 85.3118 -0.380919 3.1027 0
M  V30 881 H 84.5318 2.09341 3.34021 0
M  V30 882 H 85.8198 2.29449 4.54126 0
M  V30 883 H 85.2178 -0.700563 5.61345 0
M  V30 884 H 83.7748 -0.424404 6.50417 0
M  V30 885 N 87.2079 -1.17134 1.05439 0
M  V30 886 C 88.1409 -2.2012 0.601855 0
M  V30 887 C 89.1189 -1.58314 -0.370854 0
M  V30 888 O 90.3029 -1.8638 -0.281882 0
M  V30 889 C 87.4299 -3.38491 -0.118868 0
M  V30 890 C 86.4759 -4.18752 0.809242 0
M  V30 891 S 87.3089 -4.83602 2.29977 0
M  V30 892 C 88.4649 -6.0536 1.59029 0
M  V30 893 H 88.6979 -2.58165 1.47438 0
M  V30 894 H 86.2309 -1.27788 0.866573 0
M  V30 895 H 88.1889 -4.07084 -0.528495 0
M  V30 896 H 86.8499 -2.98829 -0.967465 0
M  V30 897 H 86.0429 -5.03373 0.251379 0
M  V30 898 H 85.6449 -3.5561 1.15835 0
M  V30 899 H 87.9369 -6.71615 0.891017 0
M  V30 900 H 88.8799 -6.65679 2.41407 0
M  V30 901 H 89.2879 -5.54138 1.07663 0
M  V30 902 N 88.686 -0.835752 -1.33615 0
M  V30 903 C 89.596 -0.269088 -2.33052 0
M  V30 904 C 90.612 0.603251 -1.63208 0
M  V30 905 O 91.788 0.508112 -1.94885 0
M  V30 906 C 88.853 0.549091 -3.42324 0
M  V30 907 C 87.914 -0.347156 -4.27894 0
M  V30 908 C 87.147 0.43207 -5.31948 0
M  V30 909 O 87.37 1.66409 -5.45586 0
M  V30 910 O 86.304 -0.192298 -6.01593 0
M  V30 911 H 90.13 -1.09243 -2.83372 0
M  V30 912 H 87.715 -0.598198 -1.36901 0
M  V30 913 H 89.597 1.01414 -4.09015 0
M  V30 914 H 88.272 1.34955 -2.94226 0
M  V30 915 H 87.179 -0.859979 -3.64081 0
M  V30 916 H 88.512 -1.1123 -4.79467 0
M  V30 917 N 90.1641 1.46063 -0.591896 0
M  V30 918 C 91.0741 2.34192 0.13831 0
M  V30 919 C 92.0901 1.50305 0.876608 0
M  V30 920 O 93.2661 1.8315 0.837728 0
M  V30 921 C 90.3311 3.27656 1.13326 0
M  V30 922 C 89.3921 4.27445 0.39863 0
M  V30 923 C 88.6251 5.16443 1.34618 0
M  V30 924 O 88.8481 5.08553 2.58321 0
M  V30 925 O 87.7821 5.95843 0.851768 0
M  V30 926 H 91.6081 2.98002 -0.58552 0
M  V30 927 H 89.1931 1.45188 -0.352239 0
M  V30 928 H 91.0751 3.85291 1.70671 0
M  V30 929 H 89.7501 2.6643 1.83839 0
M  V30 930 H 88.6571 3.73471 -0.216895 0
M  V30 931 H 89.9901 4.91482 -0.265709 0
M  V30 932 N 91.6422 0.330177 1.54103 0
M  V30 933 C 92.5522 -0.541534 2.28264 0
M  V30 934 C 93.5682 -1.12351 1.32866 0
M  V30 935 O 94.7442 -1.14206 1.65888 0
M  V30 936 C 91.8092 -1.68322 3.03098 0
M  V30 937 C 90.8702 -1.13238 4.14096 0
M  V30 938 C 90.1032 -2.21966 4.85352 0
M  V30 939 O 90.3262 -3.42437 4.56172 0
M  V30 940 O 89.2602 -1.87013 5.7211 0
M  V30 941 H 93.0862 0.060938 3.03639 0
M  V30 942 H 90.6712 0.09565 1.49093 0
M  V30 943 H 92.5532 -2.34777 3.49939 0
M  V30 944 H 91.2282 -2.27176 2.30593 0
M  V30 945 H 90.1352 -0.432736 3.71589 0
M  V30 946 H 91.4682 -0.588898 4.88664 0
M  V30 947 N 93.1203 -1.57491 0.0584922 0
M  V30 948 C 94.3683 -1.92597 -0.612436 0
M  V30 949 C 94.6893 -0.938162 -1.70949 0
M  V30 950 O 93.9593 0.0158301 -1.95894 0
M  V30 951 H 92.5393 -0.710964 -0.229214 0
M  V30 952 H 95.2013 -1.94571 0.113218 0
M  V30 953 H 94.2973 -2.94038 -1.04633 0
M  V30 954 N 94.5984 0.214957 -1.56127 0
M  V30 955 C 95.8474 0.936451 -1.78643 0
M  V30 956 C 96.1604 1.85237 -0.628229 0
M  V30 957 O 97.3664 2.613 -0.737186 0
M  V30 958 C 95.8224 1.7154 -3.16389 0
M  V30 959 C 95.4304 0.845299 -4.39953 0
M  V30 960 C 97.1744 2.42772 -3.48227 0
M  V30 961 C 95.0814 1.62198 -5.68723 0
M  V30 962 H 94.0114 0.353401 -0.666051 0
M  V30 963 H 96.6624 0.190169 -1.82512 0
M  V30 964 H 95.0444 2.50484 -3.06715 0
M  V30 965 H 96.2184 0.0959353 -4.607 0
M  V30 966 H 94.5334 0.244789 -4.1568 0
M  V30 967 H 97.1304 3.01394 -4.41663 0
M  V30 968 H 97.4734 3.15984 -2.71035 0
M  V30 969 H 98.0064 1.70813 -3.5926 0
M  V30 970 H 94.7454 0.933011 -6.48826 0
M  V30 971 H 94.2654 2.34579 -5.52026 0
M  V30 972 H 95.9444 2.18095 -6.09133 0
M  V30 973 N 96.0765 1.50051 0.48192 0
M  V30 974 C 97.0065 1.71046 1.58951 0
M  V30 975 C 97.9875 0.559288 1.60642 0
M  V30 976 O 99.1725 0.797243 1.77081 0
M  V30 977 C 96.3025 1.79462 2.97339 0
M  V30 978 C 95.2565 2.94558 3.10515 0
M  V30 979 C 94.5825 2.88105 4.50444 0
M  V30 980 C 95.8825 4.35227 2.88747 0
M  V30 981 H 97.5765 2.6378 1.41635 0
M  V30 982 H 95.1225 1.26936 0.679942 0
M  V30 983 H 97.0755 1.92734 3.74742 0
M  V30 984 H 95.7995 0.833412 3.15788 0
M  V30 985 H 94.4585 2.80918 2.35543 0
M  V30 986 H 94.1065 1.89853 4.65795 0
M  V30 987 H 93.8065 3.65366 4.60197 0
M  V30 988 H 95.3305 3.03412 5.29881 0
M  V30 989 H 96.7445 4.49449 3.55905 0
M  V30 990 H 95.1415 5.13856 3.09955 0
M  V30 991 H 96.2115 4.48347 1.84696 0
M  V30 992 N 97.5546 -0.734337 1.39446 0
M  V30 993 C 98.9706 -1.03997 1.21065 0
M  V30 994 C 99.1706 -2.01369 0.0727019 0
M  V30 995 O 98.2266 -2.45856 -0.575426 0
M  V30 996 C 99.5396 -1.60163 2.54496 0
M  V30 997 C 101.088 -1.7224 2.61347 0
M  V30 998 C 101.563 -2.31814 3.95002 0
M  V30 999 N 103.054 -2.39223 3.96644 0
M  V30 1000 C 103.789 -2.86258 4.96834 0
M  V30 1001 N 103.285 -3.33184 6.07421 0
M  V30 1002 N 105.078 -2.85473 4.84213 0
M  V30 1003 H 97.2286 -0.0885624 2.12215 0
M  V30 1004 H 99.4916 -0.10191 0.942506 0
M  V30 1005 H 99.1976 -0.960811 3.38321 0
M  V30 1006 H 99.0716 -2.5896 2.74262 0
M  V30 1007 H 101.459 -2.35443 1.77906 0
M  V30 1008 H 101.54 -0.720939 2.4543 0
M  V30 1009 H 101.184 -1.69238 4.78875 0
M  V30 1010 H 101.114 -3.32638 4.08239 0
M  V30 1011 H 103.605 -2.06057 3.16779 0
M  V30 1012 H 103.918 -3.67586 6.7978 0
M  V30 1013 H 102.263 -3.31191 6.11013 0
M  V30 1014 H 105.454 -2.48136 3.96921 0
M  V30 1015 H 105.627 -3.21814 5.62441 0
M  V30 1016 N 99.0327 -1.24633 -0.964593 0
M  V30 1017 C 100.449 -1.01239 -1.2338 0
M  V30 1018 C 100.649 0.2769 -1.99588 0
M  V30 1019 O 99.7047 0.992241 -2.32187 0
M  V30 1020 C 101.018 -2.22937 -2.01791 0
M  V30 1021 C 102.566 -2.27594 -2.14872 0
M  V30 1022 C 103.041 -3.48921 -2.96678 0
M  V30 1023 N 104.532 -3.49257 -3.04259 0
M  V30 1024 C 105.267 -4.39795 -3.67924 0
M  V30 1025 N 104.763 -5.40591 -4.33281 0
M  V30 1026 N 106.556 -4.275 -3.64966 0
M  V30 1027 H 98.7067 -2.0748 -0.454502 0
M  V30 1028 H 100.97 -0.910647 -0.26349 0
M  V30 1029 H 100.676 -3.16587 -1.53184 0
M  V30 1030 H 100.55 -2.25306 -3.02518 0
M  V30 1031 H 102.937 -1.34473 -2.6268 0
M  V30 1032 H 103.018 -2.2925 -1.13482 0
M  V30 1033 H 102.662 -4.42359 -2.49562 0
M  V30 1034 H 102.592 -3.4451 -3.98272 0
M  V30 1035 H 105.083 -2.76337 -2.57771 0
M  V30 1036 H 105.396 -6.05904 -4.79687 0
M  V30 1037 H 103.741 -5.44475 -4.3194 0
M  V30 1038 H 106.932 -3.47987 -3.13086 0
M  V30 1039 H 107.105 -4.98258 -4.14298 0
M  V30 1040 N 100.511 1.16574 -1.06058 0
M  V30 1041 C 101.441 2.23057 -0.690488 0
M  V30 1042 C 102.422 1.67141 0.315901 0
M  V30 1043 O 103.607 1.93253 0.191556 0
M  V30 1044 C 100.737 3.47222 -0.073625 0
M  V30 1045 C 99.6908 4.16016 -1.00573 0
M  V30 1046 C 99.0168 5.34104 -0.252289 0
M  V30 1047 C 100.317 4.67264 -2.33371 0
M  V30 1048 H 102.011 2.54271 -1.58072 0
M  V30 1049 H 99.5568 1.22218 -0.76149 0
M  V30 1050 H 101.51 4.20939 0.19714 0
M  V30 1051 H 100.234 3.15302 0.85161 0
M  V30 1052 H 98.8928 3.44223 -1.2612 0
M  V30 1053 H 98.5408 4.98437 0.675988 0
M  V30 1054 H 98.2408 5.81072 -0.873455 0
M  V30 1055 H 99.7648 6.10599 0.0109857 0
M  V30 1056 H 101.179 5.32573 -2.12223 0
M  V30 1057 H 99.5758 5.24843 -2.90963 0
M  V30 1058 H 100.646 3.83602 -2.96611 0
M  V30 1059 N 101.989 0.842826 1.3317 0
M  V30 1060 C 102.936 0.276885 2.29133 0
M  V30 1061 C 103.906 -0.609527 1.54512 0
M  V30 1062 O 105.091 -0.546955 1.82792 0
M  V30 1063 C 102.231 -0.538707 3.40869 0
M  V30 1064 C 101.344 0.372169 4.30394 0
M  V30 1065 C 100.479 -0.454908 5.29249 0
M  V30 1066 C 99.5179 0.45411 6.10413 0
M  V30 1067 N 98.6549 -0.335075 7.013 0
M  V30 1068 H 103.495 1.10052 2.76934 0
M  V30 1069 H 101.032 0.554161 1.36262 0
M  V30 1070 H 102.99 -1.02709 4.0436 0
M  V30 1071 H 101.62 -1.32727 2.9425 0
M  V30 1072 H 100.672 0.97888 3.6759 0
M  V30 1073 H 101.984 1.0703 4.87182 0
M  V30 1074 H 101.138 -1.00695 5.98285 0
M  V30 1075 H 99.8769 -1.18646 4.73048 0
M  V30 1076 H 98.8819 1.01813 5.40291 0
M  V30 1077 H 100.107 1.18409 6.68697 0
M  V30 1078 H 98.0529 -1.04994 6.47543 0
M  V30 1079 H 97.9699 0.304262 7.55387 0
M  V30 1080 H 99.2379 -0.869224 7.74638 0
M  V30 1081 N 103.467 -1.45747 0.599634 0
M  V30 1082 C 104.414 -2.30467 -0.123849 0
M  V30 1083 C 105.384 -1.41632 -0.86774 0
M  V30 1084 O 106.569 -1.70568 -0.855056 0
M  V30 1085 C 103.709 -3.26402 -1.12051 0
M  V30 1086 C 102.822 -4.3034 -0.37832 0
M  V30 1087 C 101.957 -5.13389 -1.364 0
M  V30 1088 C 100.996 -6.09061 -0.609171 0
M  V30 1089 N 100.133 -6.84918 -1.54374 0
M  V30 1090 H 104.973 -2.91802 0.604627 0
M  V30 1091 H 102.51 -1.43797 0.309972 0
M  V30 1092 H 104.468 -3.80482 -1.7114 0
M  V30 1093 H 103.098 -2.66839 -1.8165 0
M  V30 1094 H 102.15 -3.78984 0.327929 0
M  V30 1095 H 103.462 -4.98354 0.210997 0
M  V30 1096 H 102.616 -5.7183 -2.02719 0
M  V30 1097 H 101.355 -4.45376 -1.98725 0
M  V30 1098 H 100.36 -5.49758 0.0676979 0
M  V30 1099 H 101.585 -6.79099 0.00891991 0
M  V30 1100 H 99.531 -6.19601 -2.15478 0
M  V30 1101 H 99.448 -7.49254 -1.00766 0
M  V30 1102 H 100.716 -7.47906 -2.19676 0
M  V30 1103 N 104.945 -0.338344 -1.53925 0
M  V30 1104 C 106.175 0.260919 -2.04946 0
M  V30 1105 C 106.583 1.45174 -1.2133 0
M  V30 1106 O 105.926 1.82122 -0.240262 0
M  V30 1107 C 105.988 0.744596 -3.51704 0
M  V30 1108 C 105.652 -0.325883 -4.55837 0
M  V30 1109 C 106.649 -1.16687 -5.06636 0
M  V30 1110 C 104.334 -0.478317 -5.00017 0
M  V30 1111 C 106.328 -2.14588 -6.00192 0
M  V30 1112 C 104.015 -1.46073 -5.93385 0
M  V30 1113 C 105.013 -2.29297 -6.4336 0
M  V30 1114 O 104.701 -3.25867 -7.34892 0
M  V30 1115 H 104.433 0.0551207 -0.673749 0
M  V30 1116 H 106.987 -0.486984 -1.99544 0
M  V30 1117 H 105.217 1.54366 -3.54553 0
M  V30 1118 H 106.906 1.26383 -3.85723 0
M  V30 1119 H 107.672 -1.06016 -4.73271 0
M  V30 1120 H 103.551 0.159613 -4.60724 0
M  V30 1121 H 107.095 -2.79585 -6.39123 0
M  V30 1122 H 102.992 -1.56802 -6.26166 0
M  V30 1123 H 103.76 -3.21278 -7.5281 0
M  V30 1124 N 106.423 1.57458 -0.0668435 0
M  V30 1125 C 107.7 1.8469 0.644132 0
M  V30 1126 C 108.08 0.958343 1.88093 0
M  V30 1127 O 107.428 0.0233579 2.28488 0
M  V30 1128 C 107.638 3.34767 0.986509 0
M  V30 1129 C 108.986 4.02159 1.36212 0
M  V30 1130 O 110.01 3.39484 1.07839 0
M  V30 1131 O 108.869 5.12694 1.89227 0
M  V30 1132 H 105.963 0.762816 0.319437 0
M  V30 1133 H 108.509 1.6942 -0.0973986 0
M  V30 1134 H 107.281 3.91151 0.107883 0
M  V30 1135 H 106.904 3.55281 1.78497 0
M  V30 1136 N 107.901 -0.206675 1.56239 0
M  V30 1137 C 108.849 -1.27571 1.94495 0
M  V30 1138 C 109.843 -1.47737 0.828862 0
M  V30 1139 O 111.049 -1.48735 1.0138 0
M  V30 1140 H 107.424 -0.428029 0.6183 0
M  V30 1141 H 109.395 -0.925961 2.8367 0
M  V30 1142 C 108.144 -2.61568 2.29079 0
M  V30 1143 H 107.467 -2.46863 3.14482 0
M  V30 1144 H 108.907 -3.35144 2.5972 0
M  V30 1145 C 107.366 -3.17695 1.12123 0
M  V30 1146 O 107.896 -3.99801 0.390153 0
M  V30 1147 N 106.102 -2.76276 0.901097 0
M  V30 1148 H 105.649 -2.09613 1.49733 0
M  V30 1149 H 105.607 -3.1417 0.120319 0
M  V30 1150 N 109.379 -1.50304 -0.473955 0
M  V30 1151 C 110.619 -1.62786 -1.23612 0
M  V30 1152 C 110.983 -0.319786 -1.89318 0
M  V30 1153 O 112.184 -0.320012 -2.66888 0
M  V30 1154 C 110.455 -2.77351 -2.25414 0
M  V30 1155 S 112.014 -3.09948 -3.10608 0
M  V30 1156 H 108.832 -0.573895 -0.419721 0
M  V30 1157 H 111.434 -1.88076 -0.533623 0
M  V30 1158 H 110.138 -3.70879 -1.75719 0
M  V30 1159 H 109.669 -2.54137 -3.00296 0
M  V30 1160 H 111.684 -2.53553 -4.26527 0
M  V30 1161 N 110.857 0.726932 -1.39834 0
M  V30 1162 C 112.103 1.48771 -1.38704 0
M  V30 1163 C 112.458 1.92394 0.0146387 0
M  V30 1164 O 111.751 1.64474 0.982797 0
M  V30 1165 C 111.945 2.73495 -2.30077 0
M  V30 1166 C 111.774 2.42068 -3.78989 0
M  V30 1167 C 110.544 2.33966 -4.4787 0
M  V30 1168 C 112.742 2.0708 -4.70768 0
M  V30 1169 N 110.724 1.95095 -5.82075 0
M  V30 1170 C 112.095 1.78719 -5.93683 0
M  V30 1171 C 114.15 1.93618 -4.58712 0
M  V30 1172 C 112.853 1.3825 -7.05889 0
M  V30 1173 C 114.879 1.54553 -5.70848 0
M  V30 1174 C 114.241 1.27082 -6.92842 0
M  V30 1175 H 110.34 0.542919 -0.562817 0
M  V30 1176 H 112.924 0.84408 -1.75452 0
M  V30 1177 H 111.095 3.35625 -1.95474 0
M  V30 1178 H 112.827 3.39755 -2.19883 0
M  V30 1179 H 109.582 2.51331 -4.0141 0
M  V30 1180 H 110.006 1.7823 -6.53118 0
M  V30 1181 H 114.648 2.13522 -3.64922 0
M  V30 1182 H 112.366 1.17088 -7.99572 0
M  V30 1183 H 115.952 1.44731 -5.6351 0
M  V30 1184 H 114.832 0.973069 -7.78139 0
M  V30 1185 N 112.336 1.25143 0.95797 0
M  V30 1186 C 113.266 1.07711 2.07173 0
M  V30 1187 C 114.247 -0.0128462 1.70095 0
M  V30 1188 O 115.432 0.156061 1.93572 0
M  V30 1189 C 112.562 0.691503 3.40346 0
M  V30 1190 C 111.516 1.73132 3.9142 0
M  V30 1191 C 110.842 1.20049 5.21049 0
M  V30 1192 C 112.142 3.1294 4.1817 0
M  V30 1193 H 113.836 2.00873 2.22014 0
M  V30 1194 H 111.382 0.967191 1.06684 0
M  V30 1195 H 113.335 0.556505 4.17709 0
M  V30 1196 H 112.059 -0.275819 3.25433 0
M  V30 1197 H 110.718 1.8547 3.16222 0
M  V30 1198 H 110.366 0.223499 5.02503 0
M  V30 1199 H 110.066 1.89545 5.56189 0
M  V30 1200 H 111.59 1.07782 6.01012 0
M  V30 1201 H 113.004 3.03775 4.86203 0
M  V30 1202 H 111.401 3.79875 4.64559 0
M  V30 1203 H 112.471 3.6025 3.24573 0
M  V30 1204 N 113.814 -1.1601 1.06675 0
M  V30 1205 C 114.777 -2.18724 0.685001 0
M  V30 1206 C 115.777 -1.58496 -0.271246 0
M  V30 1207 O 116.967 -1.74119 -0.0531156 0
M  V30 1208 C 114.099 -3.40899 0.00853648 0
M  V30 1209 H 115.292 -2.54011 1.59431 0
M  V30 1210 H 112.845 -1.30352 0.862441 0
M  V30 1211 H 113.58 -3.11173 -0.913337 0
M  V30 1212 H 113.365 -3.8587 0.696204 0
M  V30 1213 H 114.855 -4.16886 -0.24414 0
M  V30 1214 N 115.292 -0.849877 -1.32721 0
M  V30 1215 C 116.222 -0.306308 -2.31482 0
M  V30 1216 C 117.203 0.591952 -1.59468 0
M  V30 1217 O 118.388 0.513199 -1.87296 0
M  V30 1218 C 115.518 0.510204 -3.43532 0
M  V30 1219 C 114.472 -0.293209 -4.26994 0
M  V30 1220 C 113.798 0.647743 -5.30762 0
M  V30 1221 C 115.098 -1.51634 -4.99804 0
M  V30 1222 H 116.792 -1.13153 -2.77195 0
M  V30 1223 H 114.338 -0.545553 -1.33266 0
M  V30 1224 H 116.291 0.900856 -4.11658 0
M  V30 1225 H 115.015 1.36874 -2.96535 0
M  V30 1226 H 113.674 -0.665555 -3.60508 0
M  V30 1227 H 113.322 1.50299 -4.8002 0
M  V30 1228 H 113.022 0.11422 -5.87489 0
M  V30 1229 H 114.546 1.03567 -6.01753 0
M  V30 1230 H 115.96 -1.19824 -5.60638 0
M  V30 1231 H 114.357 -1.98745 -5.66234 0
M  V30 1232 H 115.427 -2.28018 -4.27943 0
M  V30 1233 N 116.77 1.45427 -0.607355 0
M  V30 1234 C 117.998 2.06614 -0.108814 0
M  V30 1235 C 118.413 1.45204 1.2067 0
M  V30 1236 O 117.77 0.566132 1.73497 0
M  V30 1237 C 117.821 3.61481 0.0375347 0
M  V30 1238 O 117.542 4.20598 -1.22593 0
M  V30 1239 C 119.043 4.39652 0.567561 0
M  V30 1240 H 116.263 0.66747 -0.0687351 0
M  V30 1241 H 118.807 1.86675 -0.835022 0
M  V30 1242 H 116.962 3.80762 0.714068 0
M  V30 1243 H 117.376 5.1377 -1.05547 0
M  V30 1244 H 118.85 5.48518 0.61905 0
M  V30 1245 H 119.327 4.09417 1.58978 0
M  V30 1246 H 119.933 4.25234 -0.0749202 0
M  V30 1247 N 118.248 0.346503 1.53744 0
M  V30 1248 C 119.525 -0.304532 1.93215 0
M  V30 1249 C 119.905 -1.67993 1.27834 0
M  V30 1250 O 119.253 -2.24411 0.430352 0
M  V30 1251 C 119.463 -0.373852 3.46992 0
M  V30 1252 C 120.811 -0.62329 4.2 0
M  V30 1253 O 121.835 -0.455847 3.53271 0
M  V30 1254 O 120.694 -0.947879 5.38217 0
M  V30 1255 H 117.788 -0.178318 0.807547 0
M  V30 1256 H 120.334 0.397895 1.64969 0
M  V30 1257 H 119.106 0.591224 3.86808 0
M  V30 1258 H 118.729 -1.12294 3.81413 0
M  V30 1259 N 119.726 -1.57421 0.075193 0
M  V30 1260 C 121.137 -1.81021 -0.456964 0
M  V30 1261 C 121.488 -0.98936 -1.69429 0
M  V30 1262 O 120.613 -0.212865 -2.15351 0
M  V30 1263 C 121.208 -3.28329 -0.83581 0
M  V30 1264 C 119.767 -3.52764 -1.31281 0
M  V30 1265 C 118.914 -2.75676 -0.299648 0
M  V30 1266 H 121.865 -1.55822 0.300856 0
M  V30 1267 H 121.886 -3.40564 -1.69696 0
M  V30 1268 H 121.398 -3.88046 0.0649238 0
M  V30 1269 H 119.499 -2.98355 -2.23193 0
M  V30 1270 H 119.612 -4.61451 -1.28839 0
M  V30 1271 H 117.976 -2.42538 -0.777641 0
M  V30 1272 H 118.759 -3.38132 0.593417 0
M  V30 1273 N 121.204 0.198386 -1.56346 0
M  V30 1274 C 122.62 0.549085 -1.49857 0
M  V30 1275 C 122.82 1.86016 -0.774611 0
M  V30 1276 O 121.876 2.50416 -0.323776 0
M  V30 1277 C 123.189 0.606868 -2.94512 0
M  V30 1278 C 124.737 0.695925 -3.05165 0
M  V30 1279 C 125.212 0.784848 -4.51225 0
M  V30 1280 N 126.703 0.848463 -4.55363 0
M  V30 1281 C 127.438 0.937378 -5.65686 0
M  V30 1282 N 126.934 0.9888 -6.85707 0
M  V30 1283 N 128.727 0.974312 -5.53592 0
M  V30 1284 H 120.878 -0.661655 -2.01831 0
M  V30 1285 H 123.141 -0.235261 -0.918344 0
M  V30 1286 H 122.847 -0.28732 -3.50524 0
M  V30 1287 H 122.721 1.46268 -3.47686 0
M  V30 1288 H 125.108 1.58055 -2.49204 0
M  V30 1289 H 125.189 -0.186022 -2.55123 0
M  V30 1290 H 124.833 -0.0954072 -5.0781 0
M  V30 1291 H 124.763 1.68255 -4.98997 0
M  V30 1292 H 127.254 0.818103 -3.68938 0
M  V30 1293 H 127.567 1.05707 -7.65536 0
M  V30 1294 H 125.912 0.957534 -6.88372 0
M  V30 1295 H 129.103 0.930954 -4.58749 0
M  V30 1296 H 129.276 1.04015 -6.39597 0
M  V30 1297 N 122.682 1.50554 0.465978 0
M  V30 1298 C 123.959 1.5232 1.22712 0
M  V30 1299 C 124.339 0.270807 2.09356 0
M  V30 1300 O 123.687 -0.745541 2.15995 0
M  V30 1301 C 123.897 2.82175 2.05374 0
M  V30 1302 C 125.245 3.33033 2.6339 0
M  V30 1303 O 126.269 2.83531 2.15612 0
M  V30 1304 O 125.128 4.19336 3.50456 0
M  V30 1305 H 122.222 0.611183 0.557122 0
M  V30 1306 H 124.768 1.62847 0.477381 0
M  V30 1307 H 123.54 3.64797 1.41558 0
M  V30 1308 H 123.163 2.74675 2.87471 0
M  V30 1309 N 124.16 -0.719506 1.40217 0
M  V30 1310 C 125.406 -1.48152 1.38488 0
M  V30 1311 C 125.739 -1.94195 -0.0141867 0
M  V30 1312 O 125.014 -1.67884 -0.982096 0
M  V30 1313 C 125.297 -2.71035 2.37091 0
M  V30 1314 C 125.15 -2.30912 3.86005 0
M  V30 1315 C 126.469 -3.73182 2.33288 0
M  V30 1316 H 123.588 -0.537395 0.504357 0
M  V30 1317 H 126.23 -0.821472 1.71324 0
M  V30 1318 H 124.38 -3.27352 2.0922 0
M  V30 1319 H 126.052 -1.80107 4.24687 0
M  V30 1320 H 124.295 -1.62958 4.02029 0
M  V30 1321 H 124.966 -3.18978 4.50508 0
M  V30 1322 H 127.442 -3.26485 2.57966 0
M  V30 1323 H 126.318 -4.56806 3.04334 0
M  V30 1324 H 126.579 -4.21202 1.34317 0
M  V30 1325 N 125.638 -1.25649 -0.95132 0
M  V30 1326 C 126.601 -1.06399 -2.03007 0
M  V30 1327 C 127.601 -0.0156794 -1.60792 0
M  V30 1328 O 128.791 -0.25817 -1.72276 0
M  V30 1329 C 125.923 -0.616184 -3.35285 0
M  V30 1330 H 127.116 -2.02164 -2.21517 0
M  V30 1331 H 124.669 -1.08103 -1.12887 0
M  V30 1332 H 125.404 0.343917 -3.22471 0
M  V30 1333 H 125.189 -1.37301 -3.67275 0
M  V30 1334 H 126.679 -0.503032 -4.14559 0
M  V30 1335 N 127.117 1.15442 -1.07289 0
M  V30 1336 C 128.533 1.38201 -0.798288 0
M  V30 1337 C 128.733 1.92429 0.597769 0
M  V30 1338 O 127.789 2.12962 1.3566 0
M  V30 1339 C 129.102 2.35357 -1.87156 0
M  V30 1340 C 130.65 2.49021 -1.89624 0
M  V30 1341 C 131.125 3.49468 -2.96034 0
M  V30 1342 N 132.616 3.57003 -2.95132 0
M  V30 1343 C 133.351 4.34543 -3.74112 0
M  V30 1344 N 132.847 5.15421 -4.6294 0
M  V30 1345 N 134.64 4.29625 -3.62462 0
M  V30 1346 H 126.791 0.78584 -1.97328 0
M  V30 1347 H 129.054 0.408065 -0.855679 0
M  V30 1348 H 128.76 2.02626 -2.87464 0
M  V30 1349 H 128.634 3.35129 -1.73114 0
M  V30 1350 H 131.021 2.81051 -0.899687 0
M  V30 1351 H 131.102 1.4925 -2.07745 0
M  V30 1352 H 130.746 3.18173 -3.95889 0
M  V30 1353 H 130.676 4.48992 -2.75161 0
M  V30 1354 H 133.167 2.99276 -2.30743 0
M  V30 1355 H 133.48 5.7183 -5.19837 0
M  V30 1356 H 131.825 5.14729 -4.66989 0
M  V30 1357 H 135.016 3.65505 -2.92444 0
M  V30 1358 H 135.189 4.89807 -4.24256 0
M  V30 1359 N 128.595 0.856903 1.32268 0
M  V30 1360 C 129.844 0.457599 1.96441 0
M  V30 1361 C 130.157 -0.992426 1.68553 0
M  V30 1362 O 131.363 -1.49727 2.26482 0
M  V30 1363 C 129.819 0.767358 3.51624 0
M  V30 1364 C 129.427 2.23326 3.88367 0
M  V30 1365 C 131.171 0.435887 4.22256 0
M  V30 1366 C 129.078 2.48613 5.36606 0
M  V30 1367 H 128.008 0.167387 0.735185 0
M  V30 1368 H 130.659 1.048 1.5063 0
M  V30 1369 H 129.041 0.106367 3.95857 0
M  V30 1370 H 130.215 2.93623 3.55137 0
M  V30 1371 H 128.53 2.52948 3.30766 0
M  V30 1372 H 131.127 0.602202 5.31298 0
M  V30 1373 H 131.47 -0.622672 4.11617 0
M  V30 1374 H 132.003 1.05286 3.83614 0
M  V30 1375 H 128.742 3.53101 5.52268 0
M  V30 1376 H 128.262 1.82896 5.71235 0
M  V30 1377 H 129.941 2.32676 6.03714 0
M  V30 1378 N 130.073 -1.45103 0.615059 0
M  V30 1379 C 130.983 -2.34382 -0.101034 0
M  V30 1380 C 131.999 -1.51681 -0.852585 0
M  V30 1381 O 133.175 -1.8446 -0.808484 0
M  V30 1382 C 130.24 -3.29417 -1.08099 0
M  V30 1383 C 129.301 -4.28025 -0.330577 0
M  V30 1384 C 128.534 -5.1852 -1.26385 0
M  V30 1385 O 128.757 -5.12598 -2.50198 0
M  V30 1386 O 127.691 -5.97122 -0.756866 0
M  V30 1387 H 131.517 -2.97033 0.632855 0
M  V30 1388 H 129.102 -1.4461 0.375293 0
M  V30 1389 H 130.984 -3.87958 -1.6452 0
M  V30 1390 H 129.659 -2.69321 -1.79577 0
M  V30 1391 H 128.566 -3.73078 0.276283 0
M  V30 1392 H 129.899 -4.90997 0.343866 0
M  V30 1393 N 131.551 -0.354651 -1.53558 0
M  V30 1394 C 132.776 0.242153 -2.05981 0
M  V30 1395 C 133.201 1.42553 -1.2272 0
M  V30 1396 O 132.559 1.79656 -0.243604 0
M  V30 1397 C 132.607 0.624367 -3.55154 0
M  V30 1398 O 131.711 1.72301 -3.74681 0
M  V30 1399 H 131.052 0.0378432 -0.662921 0
M  V30 1400 H 133.582 -0.512087 -1.98088 0
M  V30 1401 H 133.592 0.898433 -3.97985 0
M  V30 1402 H 132.267 -0.240989 -4.15201 0
M  V30 1403 H 130.844 1.44535 -3.4375 0
M  V30 1404 N 133.029 1.57378 -0.0835403 0
M  V30 1405 C 133.976 2.13384 0.879539 0
M  V30 1406 C 134.946 1.04936 1.28754 0
M  V30 1407 O 136.131 1.32662 1.37133 0
M  V30 1408 C 133.271 2.70932 2.13752 0
M  V30 1409 C 132.384 3.93575 1.7811 0
M  V30 1410 C 131.519 4.39326 2.98607 0
M  V30 1411 C 130.558 5.54587 2.59037 0
M  V30 1412 N 129.695 5.95243 3.72331 0
M  V30 1413 H 134.535 2.9537 0.395076 0
M  V30 1414 H 132.072 1.45953 0.183349 0
M  V30 1415 H 134.03 3.02411 2.87408 0
M  V30 1416 H 132.66 1.91693 2.59718 0
M  V30 1417 H 131.712 3.68483 0.94469 0
M  V30 1418 H 133.024 4.77258 1.45005 0
M  V30 1419 H 132.178 4.72528 3.80529 0
M  V30 1420 H 130.917 3.5452 3.34913 0
M  V30 1421 H 129.922 5.21024 1.75539 0
M  V30 1422 H 131.147 6.41133 2.23887 0
M  V30 1423 H 129.093 5.13385 4.08378 0
M  V30 1424 H 129.01 6.73694 3.43034 0
M  V30 1425 H 130.278 6.33072 4.54797 0
M  V30 1426 N 134.507 -0.190092 1.56449 0
M  V30 1427 C 135.735 -0.925772 1.85033 0
M  V30 1428 C 136.15 -1.76638 0.666658 0
M  V30 1429 O 135.507 -1.78822 -0.364565 0
M  V30 1430 C 135.558 -1.81786 3.12468 0
M  V30 1431 O 135.279 -1.01118 4.26271 0
M  V30 1432 C 136.78 -2.6648 3.54265 0
M  V30 1433 H 134 -0.269872 0.614337 0
M  V30 1434 H 136.544 -0.195837 2.0356 0
M  V30 1435 H 134.699 -2.50136 2.95822 0
M  V30 1436 H 135.113 -1.61956 4.98869 0
M  V30 1437 H 136.587 -3.24722 4.46385 0
M  V30 1438 H 137.064 -3.40434 2.77491 0
M  V30 1439 H 137.67 -2.03493 3.73458 0
M  V30 1440 N 135.985 -1.50799 -0.457987 0
M  V30 1441 C 137.231 -1.62683 -1.21088 0
M  V30 1442 C 137.564 -0.332268 -1.91336 0
M  V30 1443 O 136.839 0.667043 -1.82704 0
M  V30 1444 C 137.122 -2.81615 -2.24422 0
M  V30 1445 C 136.975 -4.20989 -1.58392 0
M  V30 1446 C 138.294 -2.96085 -3.2561 0
M  V30 1447 H 135.413 -0.592087 -0.438864 0
M  V30 1448 H 138.055 -1.83225 -0.50286 0
M  V30 1449 H 136.205 -2.64231 -2.84806 0
M  V30 1450 H 137.877 -4.49994 -1.01504 0
M  V30 1451 H 136.12 -4.24641 -0.886704 0
M  V30 1452 H 136.791 -5.0016 -2.33547 0
M  V30 1453 H 139.267 -3.12042 -2.75262 0
M  V30 1454 H 138.143 -3.80902 -3.95228 0
M  V30 1455 H 138.404 -2.0726 -3.90507 0
M  V30 1456 N 137.463 0.71206 -1.40597 0
M  V30 1457 C 138.712 1.46754 -1.38369 0
M  V30 1458 C 139.025 1.95598 0.0097839 0
M  V30 1459 O 140.231 2.71059 0.154677 0
M  V30 1460 C 138.687 2.65289 -2.43207 0
M  V30 1461 C 138.295 2.23301 -3.88382 0
M  V30 1462 C 140.039 3.43008 -2.50091 0
M  V30 1463 C 137.946 3.38696 -4.84808 0
M  V30 1464 H 136.876 0.55118 -0.514506 0
M  V30 1465 H 139.527 0.774616 -1.66349 0
M  V30 1466 H 137.909 3.36769 -2.08332 0
M  V30 1467 H 139.083 1.59218 -4.32419 0
M  V30 1468 H 137.398 1.58618 -3.85006 0
M  V30 1469 H 139.995 4.28881 -3.1932 0
M  V30 1470 H 140.338 3.87065 -1.53253 0
M  V30 1471 H 140.871 2.78574 -2.83974 0
M  V30 1472 H 137.61 2.99668 -5.82992 0
M  V30 1473 H 137.13 4.01683 -4.45433 0
M  V30 1474 H 138.809 4.04712 -5.04794 0
M  V30 1475 N 138.941 1.26152 0.944643 0
M  V30 1476 C 140.187 1.11657 1.69294 0
M  V30 1477 C 140.52 -0.339926 1.91202 0
M  V30 1478 O 139.795 -1.24994 1.49019 0
M  V30 1479 C 140.078 1.88236 3.06984 0
M  V30 1480 C 139.931 3.41772 2.92424 0
M  V30 1481 C 141.25 1.67343 4.07043 0
M  V30 1482 H 138.369 0.407004 0.614424 0
M  V30 1483 H 141.011 1.55106 1.09737 0
M  V30 1484 H 139.161 1.51308 3.57824 0
M  V30 1485 H 140.833 3.88433 2.48832 0
M  V30 1486 H 139.076 3.68974 2.28124 0
M  V30 1487 H 139.747 3.90579 3.90067 0
M  V30 1488 H 142.223 1.99509 3.65151 0
M  V30 1489 H 141.099 2.23346 5.01406 0
M  V30 1490 H 141.36 0.617158 4.37771 0
M  V30 1491 N 140.419 -1.14872 1.07899 0
M  V30 1492 C 141.647 -1.89661 0.82683 0
M  V30 1493 C 142.062 -1.78312 -0.620519 0
M  V30 1494 O 141.419 -1.13888 -1.42604 0
M  V30 1495 C 141.47 -3.39817 1.23316 0
M  V30 1496 O 141.191 -3.50845 2.62372 0
M  V30 1497 C 142.692 -4.31615 1.0111 0
M  V30 1498 H 139.912 -0.60092 0.298557 0
M  V30 1499 H 142.456 -1.4551 1.43691 0
M  V30 1500 H 140.611 -3.8161 0.667286 0
M  V30 1501 H 141.025 -4.44076 2.79101 0
M  V30 1502 H 142.499 -5.35367 1.34486 0
M  V30 1503 H 142.976 -4.39169 -0.0522168 0
M  V30 1504 H 143.582 -3.95572 1.56215 0
M  V30 1505 N 141.898 -0.863906 -1.31812 0
M  V30 1506 C 142.83 -0.272485 -2.27575 0
M  V30 1507 C 143.843 0.56104 -1.52827 0
M  V30 1508 O 145.032 0.384021 -1.7432 0
M  V30 1509 C 142.132 0.63283 -3.32939 0
M  V30 1510 C 141.305 -0.166902 -4.37081 0
M  V30 1511 C 140.364 0.665608 -5.21973 0
M  V30 1512 O 139.39 0.0958091 -5.69119 0
M  V30 1513 N 140.592 1.9787 -5.45736 0
M  V30 1514 H 143.357 -1.0954 -2.78964 0
M  V30 1515 H 140.918 -0.724791 -1.4477 0
M  V30 1516 H 142.91 1.19532 -3.86645 0
M  V30 1517 H 141.48 1.35642 -2.81638 0
M  V30 1518 H 140.7 -0.910838 -3.83533 0
M  V30 1519 H 141.988 -0.715874 -5.03739 0
M  V30 1520 H 141.386 2.46484 -5.09178 0
M  V30 1521 H 139.943 2.48911 -6.024 0
M  V30 1522 N 143.376 1.44774 -0.622745 0
M  V30 1523 C 144.286 2.34433 0.0886031 0
M  V30 1524 C 145.302 1.52131 0.844529 0
M  V30 1525 O 146.478 1.84886 0.798691 0
M  V30 1526 C 143.543 3.29986 1.0635 0
M  V30 1527 C 142.604 4.28195 0.307873 0
M  V30 1528 C 141.837 5.19183 1.23633 0
M  V30 1529 O 142.06 5.13918 2.47476 0
M  V30 1530 O 140.994 5.97515 0.725189 0
M  V30 1531 H 144.82 2.96693 -0.648599 0
M  V30 1532 H 142.405 1.44408 -0.382957 0
M  V30 1533 H 144.287 3.88825 1.6246 0
M  V30 1534 H 142.962 2.70269 1.78146 0
M  V30 1535 H 141.869 3.72927 -0.296064 0
M  V30 1536 H 143.202 4.90808 -0.3699 0
M  V30 1537 N 144.854 0.36279 1.53368 0
M  V30 1538 C 145.786 -0.519668 2.23231 0
M  V30 1539 C 146.799 -1.04844 1.24546 0
M  V30 1540 O 147.988 -0.955296 1.50786 0
M  V30 1541 C 145.088 -1.72995 2.9142 0
M  V30 1542 C 144.261 -1.33316 4.16588 0
M  V30 1543 C 143.32 -2.40521 4.68013 0
M  V30 1544 O 142.346 -2.03027 5.3176 0
M  V30 1545 N 143.548 -3.72065 4.45587 0
M  V30 1546 H 146.313 0.078751 2.99597 0
M  V30 1547 H 143.874 0.187833 1.60807 0
M  V30 1548 H 145.866 -2.44184 3.22733 0
M  V30 1549 H 144.436 -2.2353 2.18525 0
M  V30 1550 H 143.656 -0.451236 3.91609 0
M  V30 1551 H 144.944 -1.04432 4.97967 0
M  V30 1552 H 144.342 -4.05304 3.94646 0
M  V30 1553 H 142.899 -4.39366 4.81457 0
M  V30 1554 N 146.332 -1.57332 0.0918853 0
M  V30 1555 C 147.748 -1.57389 -0.264766 0
M  V30 1556 C 147.948 -1.10281 -1.68643 0
M  V30 1557 O 147.004 -0.777801 -2.40222 0
M  V30 1558 C 148.317 -3.00648 -0.0561195 0
M  V30 1559 C 149.865 -3.12754 -0.124116 0
M  V30 1560 C 150.34 -4.57965 0.0564972 0
M  V30 1561 N 151.831 -4.632 0.00155611 0
M  V30 1562 C 152.566 -5.73281 0.116598 0
M  V30 1563 N 152.062 -6.92208 0.286294 0
M  V30 1564 N 153.855 -5.6207 0.0580973 0
M  V30 1565 H 146.006 -1.86262 1.02079 0
M  V30 1566 H 148.269 -0.859579 0.399786 0
M  V30 1567 H 147.975 -3.393 0.925669 0
M  V30 1568 H 147.849 -3.68623 -0.799823 0
M  V30 1569 H 150.236 -2.73976 -1.09641 0
M  V30 1570 H 150.317 -2.47377 0.651024 0
M  V30 1571 H 149.961 -4.97436 1.02564 0
M  V30 1572 H 149.891 -5.21399 -0.738297 0
M  V30 1573 H 152.382 -3.77686 -0.127192 0
M  V30 1574 H 152.695 -7.71934 0.365676 0
M  V30 1575 H 151.04 -6.94254 0.32192 0
M  V30 1576 H 154.231 -4.68043 -0.0733204 0
M  V30 1577 H 154.404 -6.47824 0.151203 0
M  V30 1578 N 147.81 0.181792 -1.56548 0
M  V30 1579 C 149.087 0.926765 -1.72251 0
M  V30 1580 C 149.467 2.00831 -0.650386 0
M  V30 1581 O 148.815 2.26008 0.336521 0
M  V30 1582 C 149.025 1.50106 -3.1507 0
M  V30 1583 C 150.373 1.97805 -3.75711 0
M  V30 1584 O 151.397 1.59922 -3.18282 0
M  V30 1585 O 150.256 2.67555 -4.76525 0
M  V30 1586 H 147.35 0.435506 -0.703039 0
M  V30 1587 H 149.896 0.170443 -1.68842 0
M  V30 1588 H 148.668 0.72212 -3.84579 0
M  V30 1589 H 148.291 2.32186 -3.22763 0
M  V30 1590 N 149.288 1.51039 0.449983 0
M  V30 1591 C 150.516 1.66869 1.2232 0
M  V30 1592 C 150.931 0.360727 1.85322 0
M  V30 1593 O 150.288 -0.659531 1.70166 0
M  V30 1594 C 150.339 2.77524 2.31652 0
M  V30 1595 O 150.06 4.03252 1.7123 0
M  V30 1596 C 151.561 3.04512 3.2216 0
M  V30 1597 H 148.781 0.560326 0.369155 0
M  V30 1598 H 151.325 1.97385 0.534719 0
M  V30 1599 H 149.48 2.49642 2.96239 0
M  V30 1600 H 149.894 4.64609 2.43389 0
M  V30 1601 H 151.368 3.85551 3.95038 0
M  V30 1602 H 151.845 2.16415 3.8218 0
M  V30 1603 H 152.451 3.34005 2.63288 0
M  V30 1604 N 150.766 -0.704594 1.40972 0
M  V30 1605 C 152.012 -1.46675 1.40051 0
M  V30 1606 C 152.345 -1.94199 0.00641102 0
M  V30 1607 O 151.62 -1.68916 -0.964235 0
M  V30 1608 C 151.903 -2.68505 2.39952 0
M  V30 1609 C 151.756 -2.26805 3.88432 0
M  V30 1610 C 153.075 -3.70686 2.37233 0
M  V30 1611 H 150.194 -0.532015 0.510028 0
M  V30 1612 H 152.836 -0.803255 1.72185 0
M  V30 1613 H 150.986 -3.25114 2.1268 0
M  V30 1614 H 152.658 -1.75592 4.26574 0
M  V30 1615 H 150.901 -1.58685 4.03734 0
M  V30 1616 H 151.572 -3.14181 4.53866 0
M  V30 1617 H 154.048 -3.23731 2.61415 0
M  V30 1618 H 152.924 -4.53553 3.09162 0
M  V30 1619 H 153.185 -4.19754 1.38777 0
M  V30 1620 N 152.244 -1.26651 -0.937939 0
M  V30 1621 C 153.655 -1.1125 -1.49934 0
M  V30 1622 C 154.006 0.306077 -1.93798 0
M  V30 1623 O 153.131 1.19792 -1.80219 0
M  V30 1624 C 153.726 -2.01339 -2.72485 0
M  V30 1625 C 152.285 -1.90074 -3.24883 0
M  V30 1626 C 151.432 -1.94498 -1.97651 0
M  V30 1627 H 154.383 -1.39693 -0.753091 0
M  V30 1628 H 154.404 -1.56319 -3.46907 0
M  V30 1629 H 153.916 -3.04577 -2.40529 0
M  V30 1630 H 152.017 -0.897827 -3.61621 0
M  V30 1631 H 152.13 -2.75778 -3.9177 0
M  V30 1632 H 150.494 -1.38591 -2.13693 0
M  V30 1633 H 151.277 -2.99372 -1.68022 0
M  V30 1634 N 153.722 1.14298 -1.08507 0
M  V30 1635 C 154.971 1.84708 -0.810305 0
M  V30 1636 C 155.284 1.83903 0.666271 0
M  V30 1637 O 156.49 2.50112 1.05624 0
M  V30 1638 C 154.946 3.31572 -1.39957 0
M  V30 1639 C 154.554 3.40791 -2.90801 0
M  V30 1640 C 156.298 4.07087 -1.20334 0
M  V30 1641 C 154.205 4.81872 -3.4286 0
M  V30 1642 H 153.135 0.691985 -0.299454 0
M  V30 1643 H 155.786 1.28841 -1.30661 0
M  V30 1644 H 154.168 3.87183 -0.830976 0
M  V30 1645 H 155.342 2.95225 -3.53806 0
M  V30 1646 H 153.657 2.78732 -3.0935 0
M  V30 1647 H 156.254 5.11225 -1.56693 0
M  V30 1648 H 156.597 4.16054 -0.143237 0
M  V30 1649 H 157.13 3.57779 -1.73893 0
M  V30 1650 H 153.869 4.78094 -4.48449 0
M  V30 1651 H 153.389 5.27972 -2.84615 0
M  V30 1652 H 155.068 5.50765 -3.39509 0
M  V30 1653 N 155.201 0.870884 1.31352 0
M  V30 1654 C 156.612 0.534714 1.78879 0
M  V30 1655 C 156.963 -0.948423 1.71754 0
M  V30 1656 O 156.088 -1.74055 1.28584 0
M  V30 1657 C 156.683 0.963839 3.24801 0
M  V30 1658 C 155.242 0.679311 3.70219 0
M  V30 1659 C 154.389 1.15465 2.52117 0
M  V30 1660 H 157.34 1.05651 1.18421 0
M  V30 1661 H 157.361 0.286892 3.79417 0
M  V30 1662 H 156.873 2.04332 3.29955 0
M  V30 1663 H 154.974 -0.388769 3.70566 0
M  V30 1664 H 155.087 1.25698 4.62317 0
M  V30 1665 H 153.451 0.574383 2.48139 0
M  V30 1666 H 154.234 2.24157 2.60016 0
M  V30 1667 N 156.679 -1.44442 0.630414 0
M  V30 1668 C 157.626 -2.30678 -0.0749355 0
M  V30 1669 C 158.596 -1.4344 -0.837502 0
M  V30 1670 O 159.781 -1.72343 -0.818684 0
M  V30 1671 C 156.921 -3.28706 -1.05103 0
M  V30 1672 C 156.034 -4.31046 -0.286954 0
M  V30 1673 C 155.169 -5.16167 -1.2548 0
M  V30 1674 C 154.208 -6.10216 -0.479843 0
M  V30 1675 N 153.345 -6.88039 -1.39811 0
M  V30 1676 H 158.185 -2.90454 0.666386 0
M  V30 1677 H 155.722 -1.43107 0.340404 0
M  V30 1678 H 157.68 -3.84027 -1.63031 0
M  V30 1679 H 156.31 -2.70632 -1.75949 0
M  V30 1680 H 155.362 -3.78203 0.408243 0
M  V30 1681 H 156.674 -4.97794 0.316657 0
M  V30 1682 H 155.828 -5.76002 -1.90544 0
M  V30 1683 H 154.567 -4.49491 -1.89233 0
M  V30 1684 H 153.572 -5.49491 0.184295 0
M  V30 1685 H 154.797 -6.78928 0.152965 0
M  V30 1686 H 152.743 -6.24032 -2.02287 0
M  V30 1687 H 152.66 -7.51223 -0.848508 0
M  V30 1688 H 153.928 -7.52397 -2.03762 0
M  V30 1689 N 158.157 -0.370918 -1.53173 0
M  V30 1690 C 159.385 0.217704 -2.05751 0
M  V30 1691 C 159.8 1.42018 -1.24404 0
M  V30 1692 O 159.157 1.80245 -0.286033 0
M  V30 1693 C 159.208 0.605954 -3.56385 0
M  V30 1694 O 158.929 -0.548734 -4.3465 0
M  V30 1695 C 160.43 1.2524 -4.25241 0
M  V30 1696 H 157.65 0.0371659 -0.66997 0
M  V30 1697 H 160.194 -0.530832 -1.9749 0
M  V30 1698 H 158.349 1.3044 -3.6478 0
M  V30 1699 H 158.763 -0.23376 -5.23979 0
M  V30 1700 H 160.237 1.47458 -5.3194 0
M  V30 1701 H 160.714 2.2143 -3.79296 0
M  V30 1702 H 161.32 0.595233 -4.21114 0
M  V30 1703 N 159.635 1.57281 -0.100228 0
M  V30 1704 C 160.883 1.94153 0.561157 0
M  V30 1705 C 161.204 0.983157 1.68401 0
M  V30 1706 O 160.474 0.0361132 1.95867 0
M  V30 1707 H 159.054 0.716791 0.210283 0
M  V30 1708 H 161.716 1.94202 -0.164765 0
M  V30 1709 H 160.812 2.96709 0.968008 0
M  V30 1710 N 161.113 -0.173488 1.56642 0
M  V30 1711 C 162.043 -1.2171 1.99271 0
M  V30 1712 C 163.024 -1.46289 0.867959 0
M  V30 1713 O 164.209 -1.5766 1.13388 0
M  V30 1714 C 161.339 -2.55651 2.35074 0
M  V30 1715 C 160.293 -2.45645 3.50489 0
M  V30 1716 C 159.619 -3.84056 3.72028 0
M  V30 1717 C 160.919 -1.96302 4.84007 0
M  V30 1718 H 162.613 -0.86275 2.867 0
M  V30 1719 H 160.159 -0.413571 1.37933 0
M  V30 1720 H 162.112 -3.2886 2.63494 0
M  V30 1721 H 160.836 -2.92869 1.44552 0
M  V30 1722 H 159.495 -1.7489 3.22194 0
M  V30 1723 H 159.143 -4.18664 2.788 0
M  V30 1724 H 158.843 -3.7823 4.49684 0
M  V30 1725 H 160.367 -4.58854 4.02846 0
M  V30 1726 H 161.781 -2.59284 5.11317 0
M  V30 1727 H 160.178 -2.01429 5.65284 0
M  V30 1728 H 161.248 -0.917226 4.76146 0
M  V30 1729 N 162.591 -1.51276 -0.441967 0
M  V30 1730 C 163.816 -1.67799 -1.21895 0
M  V30 1731 C 164.241 -0.372864 -1.84367 0
M  V30 1732 O 163.599 0.666501 -1.68604 0
M  V30 1733 C 163.647 -2.79199 -2.28211 0
M  V30 1734 O 162.751 -2.42479 -3.33583 0
M  V30 1735 H 162.092 -0.559649 -0.357336 0
M  V30 1736 H 164.622 -1.97815 -0.522522 0
M  V30 1737 H 164.632 -3.03146 -2.73069 0
M  V30 1738 H 163.307 -3.73906 -1.82118 0
M  V30 1739 H 161.884 -2.29087 -2.94234 0
M  V30 1740 N 164.069 0.697108 -1.41344 0
M  V30 1741 C 165.001 1.8224 -1.39001 0
M  V30 1742 C 166.014 1.60152 -0.292428 0
M  V30 1743 O 167.203 1.69684 -0.554048 0
M  V30 1744 C 164.303 3.18976 -1.14489 0
M  V30 1745 C 163.476 3.68105 -2.36258 0
M  V30 1746 C 162.535 4.83506 -2.07625 0
M  V30 1747 O 161.561 4.95201 -2.8065 0
M  V30 1748 N 162.763 5.70637 -1.06555 0
M  V30 1749 H 165.528 1.84742 -2.35988 0
M  V30 1750 H 163.089 0.87937 -1.35936 0
M  V30 1751 H 165.081 3.93801 -0.932885 0
M  V30 1752 H 163.651 3.11508 -0.261043 0
M  V30 1753 H 162.871 2.84204 -2.7317 0
M  V30 1754 H 164.159 3.97667 -3.17393 0
M  V30 1755 H 163.557 5.63817 -0.461125 0
M  V30 1756 H 162.114 6.45368 -0.913444 0
M  V30 1757 N 165.547 1.27147 0.931209 0
M  V30 1758 C 166.477 1.12081 2.04842 0
M  V30 1759 C 167.458 0.0232364 1.70084 0
M  V30 1760 O 168.643 0.197085 1.93197 0
M  V30 1761 C 165.773 0.76354 3.38803 0
M  V30 1762 C 164.727 1.81396 3.87659 0
M  V30 1763 C 164.053 1.31075 5.18385 0
M  V30 1764 C 165.353 3.21739 4.11438 0
M  V30 1765 H 167.047 2.05537 2.17703 0
M  V30 1766 H 164.593 0.989603 1.04608 0
M  V30 1767 H 166.546 0.644982 4.16435 0
M  V30 1768 H 165.27 -0.206727 3.25945 0
M  V30 1769 H 163.929 1.92136 3.12217 0
M  V30 1770 H 163.577 0.330037 5.01916 0
M  V30 1771 H 163.277 2.013 5.52044 0
M  V30 1772 H 164.801 1.20506 5.98591 0
M  V30 1773 H 166.215 3.14019 4.79651 0
M  V30 1774 H 164.612 3.89644 4.56397 0
M  V30 1775 H 165.682 3.67054 3.16859 0
M  V30 1776 N 167.025 -1.13721 1.09112 0
M  V30 1777 C 168.273 -1.84559 0.823562 0
M  V30 1778 C 168.594 -1.83754 -0.652658 0
M  V30 1779 O 167.864 -1.29102 -1.47342 0
M  V30 1780 H 166.444 -0.683376 0.301673 0
M  V30 1781 H 169.106 -1.37771 1.37859 0
M  V30 1782 H 168.202 -2.8917 1.17419 0
M  V30 1783 N 168.503 -0.877838 -1.30888 0
M  V30 1784 C 169.919 -0.570844 -1.49042 0
M  V30 1785 C 170.119 0.893159 -1.80624 0
M  V30 1786 O 169.175 1.67485 -1.88958 0
M  V30 1787 C 170.488 -1.47784 -2.61878 0
M  V30 1788 C 172.036 -1.48071 -2.75761 0
M  V30 1789 C 172.511 -2.37347 -3.91702 0
M  V30 1790 N 174.002 -2.35271 -3.99001 0
M  V30 1791 C 174.737 -3.01063 -4.88004 0
M  V30 1792 N 174.233 -3.76055 -5.81854 0
M  V30 1793 N 176.026 -2.90332 -4.81315 0
M  V30 1794 H 168.177 -1.82502 -1.0866 0
M  V30 1795 H 170.44 -0.780797 -0.537644 0
M  V30 1796 H 170.146 -2.51993 -2.45341 0
M  V30 1797 H 170.02 -1.18215 -3.58197 0
M  V30 1798 H 172.407 -0.446166 -2.91708 0
M  V30 1799 H 172.488 -1.81668 -1.80085 0
M  V30 1800 H 172.132 -3.40883 -3.76512 0
M  V30 1801 H 172.062 -2.01071 -4.86701 0
M  V30 1802 H 174.553 -1.80768 -3.3186 0
M  V30 1803 H 174.866 -4.23366 -6.46514 0
M  V30 1804 H 173.211 -3.80163 -5.81808 0
M  V30 1805 H 176.402 -2.31278 -4.06974 0
M  V30 1806 H 176.575 -3.41885 -5.50471 0
M  V30 1807 N 169.982 1.44106 -0.638065 0
M  V30 1808 C 171.228 2.02815 -0.15409 0
M  V30 1809 C 171.583 1.49342 1.21304 0
M  V30 1810 O 170.876 0.670699 1.79478 0
M  V30 1811 C 171.07 3.5729 -0.0887327 0
M  V30 1812 C 170.899 4.2575 -1.44799 0
M  V30 1813 C 169.669 4.62443 -2.03653 0
M  V30 1814 C 171.867 4.55746 -2.38327 0
M  V30 1815 N 169.849 5.15903 -3.32741 0
M  V30 1816 C 171.22 5.10364 -3.52036 0
M  V30 1817 C 173.275 4.37703 -2.3732 0
M  V30 1818 C 171.978 5.48837 -4.64941 0
M  V30 1819 C 174.004 4.77229 -3.49294 0
M  V30 1820 C 173.366 5.31966 -4.61726 0
M  V30 1821 H 169.465 0.775519 -0.100466 0
M  V30 1822 H 172.049 1.755 -0.843071 0
M  V30 1823 H 170.22 3.84201 0.569548 0
M  V30 1824 H 171.952 4.02671 0.404711 0
M  V30 1825 H 168.707 4.46987 -1.56523 0
M  V30 1826 H 169.131 5.47102 -3.98758 0
M  V30 1827 H 173.773 3.94671 -1.51641 0
M  V30 1828 H 171.491 5.9082 -5.51323 0
M  V30 1829 H 175.077 4.64976 -3.49698 0
M  V30 1830 H 173.957 5.61986 -5.46939 0
M  V30 1831 N 171.46 0.379036 1.52974 0
M  V30 1832 C 172.393 -0.504932 2.22544 0
M  V30 1833 C 173.371 -1.0723 1.22231 0
M  V30 1834 O 174.555 -1.12589 1.51182 0
M  V30 1835 C 171.682 -1.69794 2.93066 0
M  V30 1836 C 170.728 -1.25678 4.07563 0
M  V30 1837 S 171.561 -0.246852 5.34931 0
M  V30 1838 C 172.717 -1.44588 6.08971 0
M  V30 1839 H 172.95 0.0858666 2.97176 0
M  V30 1840 H 170.483 0.163183 1.53535 0
M  V30 1841 H 172.441 -2.38219 3.34308 0
M  V30 1842 H 171.102 -2.26002 2.18133 0
M  V30 1843 H 170.295 -2.14725 4.5597 0
M  V30 1844 H 169.897 -0.651584 3.6828 0
M  V30 1845 H 172.189 -2.37469 6.34519 0
M  V30 1846 H 173.132 -1.00292 7.00962 0
M  V30 1847 H 173.54 -1.65804 5.39601 0
M  V30 1848 N 172.938 -1.57226 0.108567 0
M  V30 1849 C 174.163 -1.99604 -0.563303 0
M  V30 1850 C 174.588 -0.987563 -1.6009 0
M  V30 1851 O 173.946 0.0421687 -1.81251 0
M  V30 1852 C 173.994 -3.40902 -1.17552 0
M  V30 1853 O 173.098 -3.42896 -2.2912 0
M  V30 1854 H 172.439 -0.648704 -0.1417 0
M  V30 1855 H 174.969 -2.03679 0.193961 0
M  V30 1856 H 174.979 -3.78886 -1.51357 0
M  V30 1857 H 173.654 -4.1382 -0.415445 0
M  V30 1858 H 172.231 -3.1672 -1.96832 0
M  V30 1859 N 174.416 0.165178 -1.56732 0
M  V30 1860 C 175.326 1.22423 -2.00125 0
M  V30 1861 C 176.342 1.48084 -0.913619 0
M  V30 1862 O 177.518 1.60112 -1.22172 0
M  V30 1863 C 174.583 2.54197 -2.35764 0
M  V30 1864 C 173.644 2.36343 -3.58386 0
M  V30 1865 C 172.877 3.61834 -3.92316 0
M  V30 1866 O 173.1 4.67267 -3.27135 0
M  V30 1867 O 172.034 3.55579 -4.85641 0
M  V30 1868 H 175.86 0.885886 -2.90492 0
M  V30 1869 H 173.445 0.372518 -1.44681 0
M  V30 1870 H 175.327 3.3192 -2.59629 0
M  V30 1871 H 174.002 2.87598 -1.48557 0
M  V30 1872 H 172.909 1.56632 -3.39731 0
M  V30 1873 H 174.242 2.07865 -4.46154 0
M  V30 1874 N 175.894 1.51508 0.433938 0
M  V30 1875 C 176.804 1.75917 1.5521 0
M  V30 1876 C 177.82 0.643545 1.61662 0
M  V30 1877 O 178.996 0.926183 1.7884 0
M  V30 1878 C 176.061 1.88213 2.91164 0
M  V30 1879 C 175.122 3.12074 2.94802 0
M  V30 1880 C 174.355 3.23774 4.24271 0
M  V30 1881 O 174.578 2.4133 5.16833 0
M  V30 1882 O 173.512 4.16774 4.34262 0
M  V30 1883 H 177.338 2.70777 1.37527 0
M  V30 1884 H 174.923 1.36051 0.617293 0
M  V30 1885 H 176.805 1.98267 3.71845 0
M  V30 1886 H 175.48 0.965413 3.08968 0
M  V30 1887 H 174.387 3.07497 2.13065 0
M  V30 1888 H 175.72 4.03446 2.81943 0
M  V30 1889 N 177.372 -0.689602 1.41712 0
M  V30 1890 C 178.649 -1.44457 1.31877 0
M  V30 1891 C 179.029 -2.11039 -0.0508537 0
M  V30 1892 O 178.377 -2.02138 -1.06547 0
M  V30 1893 C 178.587 -2.45913 2.47645 0
M  V30 1894 C 179.935 -3.10991 2.89084 0
M  V30 1895 O 180.959 -2.56238 2.47428 0
M  V30 1896 O 179.818 -4.10174 3.61137 0
M  V30 1897 H 176.912 -0.64362 0.519309 0
M  V30 1898 H 179.458 -0.719576 1.53689 0
M  V30 1899 H 178.23 -1.95409 3.39015 0
M  V30 1900 H 177.853 -3.25913 2.27742 0
M  V30 1901 N 178.85 -1.27639 -0.924453 0
M  V30 1902 C 180.097 -1.14167 -1.67249 0
M  V30 1903 C 180.425 0.311863 -1.91984 0
M  V30 1904 O 179.68 1.24425 -1.51053 0
M  V30 1905 C 179.979 -1.87407 -3.04325 0
M  V30 1906 C 179.645 -3.37249 -2.99289 0
M  V30 1907 C 178.307 -3.7812 -2.97622 0
M  V30 1908 C 180.659 -4.32845 -2.90336 0
M  V30 1909 C 177.987 -5.12944 -2.8479 0
M  V30 1910 C 180.339 -5.6773 -2.79045 0
M  V30 1911 C 179.003 -6.07889 -2.7573 0
M  V30 1912 H 178.273 -0.417766 -0.612007 0
M  V30 1913 H 180.92 -1.58286 -1.07786 0
M  V30 1914 H 179.225 -1.35805 -3.67511 0
M  V30 1915 H 180.922 -1.74408 -3.61086 0
M  V30 1916 H 177.512 -3.04748 -3.01374 0
M  V30 1917 H 181.696 -4.02239 -2.90719 0
M  V30 1918 H 176.952 -5.432 -2.80612 0
M  V30 1919 H 181.126 -6.41472 -2.71083 0
M  V30 1920 H 178.753 -7.12314 -2.65544 0
M  V30 1921 N 180.328 1.1314 -1.09713 0
M  V30 1922 C 181.238 2.22242 -0.751367 0
M  V30 1923 C 182.254 1.72224 0.247938 0
M  V30 1924 O 183.43 2.01205 0.0885463 0
M  V30 1925 C 180.495 3.46231 -0.180274 0
M  V30 1926 C 179.556 4.11125 -1.2359 0
M  V30 1927 C 178.789 5.29195 -0.691966 0
M  V30 1928 O 179.012 5.68342 0.48414 0
M  V30 1929 O 177.946 5.84214 -1.44838 0
M  V30 1930 H 181.772 2.54197 -1.66186 0
M  V30 1931 H 179.357 1.21331 -0.871735 0
M  V30 1932 H 181.239 4.21185 0.134739 0
M  V30 1933 H 179.914 3.1597 0.703185 0
M  V30 1934 H 178.821 3.37985 -1.60366 0
M  V30 1935 H 180.154 4.45524 -2.09211 0
M  V30 1936 N 181.806 0.884767 1.30421 0
M  V30 1937 C 182.753 0.349642 2.28136 0
M  V30 1938 C 183.723 -0.560061 1.56373 0
M  V30 1939 O 184.908 -0.488524 1.8444 0
M  V30 1940 C 182.048 -0.42999 3.42411 0
M  V30 1941 C 181.161 0.508907 4.28992 0
M  V30 1942 C 180.296 -0.286301 5.30428 0
M  V30 1943 C 179.335 0.648079 6.08659 0
M  V30 1944 N 178.472 -0.111792 7.02011 0
M  V30 1945 H 183.312 1.18807 2.73293 0
M  V30 1946 H 180.849 0.597231 1.3443 0
M  V30 1947 H 182.807 -0.897923 4.07423 0
M  V30 1948 H 181.437 -1.23299 2.98324 0
M  V30 1949 H 180.489 1.09533 3.64289 0
M  V30 1950 H 181.801 1.22475 4.8353 0
M  V30 1951 H 180.955 -0.816098 6.01186 0
M  V30 1952 H 179.694 -1.03536 4.76583 0
M  V30 1953 H 178.699 1.18951 5.36778 0
M  V30 1954 H 179.924 1.39623 6.64592 0
M  V30 1955 H 177.87 -0.843395 6.50556 0
M  V30 1956 H 177.787 0.544429 7.54037 0
M  V30 1957 H 179.055 -0.622339 7.77012 0
M  V30 1958 N 183.284 -1.43765 0.645699 0
M  V30 1959 C 184.247 -2.29163 -0.0409488 0
M  V30 1960 C 185.247 -1.41813 -0.757996 0
M  V30 1961 O 186.437 -1.63527 -0.600382 0
M  V30 1962 C 183.569 -3.23716 -1.06869 0
M  V30 1963 H 184.762 -2.91366 0.710345 0
M  V30 1964 H 182.315 -1.5092 0.406547 0
M  V30 1965 H 183.05 -2.66393 -1.84947 0
M  V30 1966 H 182.835 -3.88105 -0.558277 0
M  V30 1967 H 184.325 -3.87831 -1.54845 0
M  V30 1968 N 184.763 -0.387143 -1.52771 0
M  V30 1969 C 186.01 0.195735 -2.01552 0
M  V30 1970 C 186.338 1.46995 -1.27369 0
M  V30 1971 O 185.593 1.92325 -0.361879 0
M  V30 1972 C 185.892 0.512209 -3.53711 0
M  V30 1973 C 185.558 -0.670202 -4.45891 0
M  V30 1974 C 184.22 -0.994586 -4.70809 0
M  V30 1975 C 186.572 -1.46134 -5.00294 0
M  V30 1976 C 183.9 -2.11169 -5.4738 0
M  V30 1977 C 186.252 -2.56903 -5.78086 0
M  V30 1978 C 184.916 -2.89852 -6.01284 0
M  V30 1979 H 184.186 0.0716246 -0.73753 0
M  V30 1980 H 186.833 -0.524046 -1.8419 0
M  V30 1981 H 185.138 1.31329 -3.69134 0
M  V30 1982 H 186.835 0.975804 -3.88946 0
M  V30 1983 H 183.425 -0.407366 -4.2666 0
M  V30 1984 H 187.609 -1.22397 -4.80971 0
M  V30 1985 H 182.865 -2.3707 -5.63567 0
M  V30 1986 H 187.039 -3.18608 -6.19243 0
M  V30 1987 H 184.666 -3.76533 -6.60399 0
M  V30 1988 N 186.241 1.57166 -0.116904 0
M  V30 1989 C 187.189 2.16457 0.851418 0
M  V30 1990 C 188.183 1.11323 1.27686 0
M  V30 1991 O 189.389 1.2963 1.24884 0
M  V30 1992 H 185.764 0.69271 0.292672 0
M  V30 1993 H 187.735 2.96605 0.32685 0
M  V30 1994 C 186.484 2.77689 2.09246 0
M  V30 1995 H 185.807 3.58285 1.77402 0
M  V30 1996 H 187.247 3.22716 2.7501 0
M  V30 1997 C 185.706 1.74667 2.88085 0
M  V30 1998 O 186.236 1.19877 3.83396 0
M  V30 1999 N 184.442 1.44656 2.52038 0
M  V30 2000 H 183.989 1.89402 1.74599 0
M  V30 2001 H 183.947 0.759675 3.05084 0
M  V30 2002 N 187.719 -0.156864 1.56817 0
M  V30 2003 C 188.682 -1.17781 1.96622 0
M  V30 2004 C 189.682 -1.36401 0.851555 0
M  V30 2005 O 190.872 -1.33561 1.11836 0
M  V30 2006 C 188.004 -2.54008 2.27361 0
M  V30 2007 H 189.197 -0.836564 2.87996 0
M  V30 2008 H 186.75 -0.39985 1.51099 0
M  V30 2009 H 187.485 -2.9312 1.38748 0
M  V30 2010 H 187.27 -2.41856 3.08623 0
M  V30 2011 H 188.76 -3.27558 2.59029 0
M  V30 2012 N 189.197 -1.51736 -0.425897 0
M  V30 2013 C 190.613 -1.40166 -0.76326 0
M  V30 2014 C 190.813 -0.492962 -1.95377 0
M  V30 2015 O 189.869 0.0475815 -2.52455 0
M  V30 2016 C 191.182 -2.82403 -1.03291 0
M  V30 2017 C 192.73 -2.91632 -1.13665 0
M  V30 2018 C 193.205 -4.34801 -1.43916 0
M  V30 2019 N 194.696 -4.3796 -1.50816 0
M  V30 2020 C 195.431 -5.4578 -1.75817 0
M  V30 2021 N 194.927 -6.63744 -1.98534 0
M  V30 2022 N 196.72 -5.33274 -1.77694 0
M  V30 2023 H 188.871 -2.09361 0.358 0
M  V30 2024 H 191.134 -0.942941 0.0978094 0
M  V30 2025 H 190.84 -3.50943 -0.230696 0
M  V30 2026 H 190.714 -3.22428 -1.95754 0
M  V30 2027 H 193.101 -2.23284 -1.92947 0
M  V30 2028 H 193.182 -2.55088 -0.190756 0
M  V30 2029 H 192.826 -5.03703 -0.65157 0
M  V30 2030 H 192.756 -4.68868 -2.39729 0
M  V30 2031 H 195.247 -3.52919 -1.35118 0
M  V30 2032 H 195.56 -7.41704 -2.17013 0
M  V30 2033 H 193.905 -6.66839 -1.95832 0
M  V30 2034 H 197.096 -4.40098 -1.59473 0
M  V30 2035 H 197.269 -6.1738 -1.9684 0
M  V30 2036 N 190.675 0.682077 -1.42076 0
M  V30 2037 C 191.922 1.44215 -1.42156 0
M  V30 2038 C 192.25 1.94468 -0.0354186 0
M  V30 2039 O 191.505 1.70816 0.955002 0
M  V30 2040 C 191.804 2.66036 -2.38662 0
M  V30 2041 C 191.47 2.34366 -3.85206 0
M  V30 2042 C 190.132 2.25439 -4.25124 0
M  V30 2043 C 192.484 2.08513 -4.77673 0
M  V30 2044 C 189.812 1.88775 -5.55501 0
M  V30 2045 C 192.164 1.73354 -6.08384 0
M  V30 2046 C 190.828 1.62933 -6.47309 0
M  V30 2047 H 190.098 0.527718 -0.520187 0
M  V30 2048 H 192.745 0.778387 -1.74967 0
M  V30 2049 H 191.05 3.3741 -1.99152 0
M  V30 2050 H 192.747 3.24205 -2.35991 0
M  V30 2051 H 189.337 2.42213 -3.53597 0
M  V30 2052 H 193.521 2.14346 -4.47626 0
M  V30 2053 H 188.777 1.7927 -5.84527 0
M  V30 2054 H 192.951 1.52373 -6.79526 0
M  V30 2055 H 190.578 1.34292 -7.48244 0
M  V30 2056 N 192.153 1.28127 0.917671 0
M  V30 2057 C 193.564 1.13622 1.48145 0
M  V30 2058 C 193.915 -0.275207 1.9426 0
M  V30 2059 O 193.04 -1.1691 1.82102 0
M  V30 2060 C 193.635 2.05648 2.69248 0
M  V30 2061 C 192.194 1.95219 3.21818 0
M  V30 2062 C 191.341 1.97618 1.94532 0
M  V30 2063 H 194.292 1.40874 0.730772 0
M  V30 2064 H 194.313 1.61818 3.44377 0
M  V30 2065 H 193.825 3.08365 2.35653 0
M  V30 2066 H 191.926 0.955244 3.60147 0
M  V30 2067 H 192.039 2.81976 3.87333 0
M  V30 2068 H 190.403 1.41973 2.11461 0
M  V30 2069 H 191.186 3.02007 1.63238 0
M  V30 2070 N 193.631 -1.12557 1.10312 0
M  V30 2071 C 194.879 -1.83675 0.843091 0
M  V30 2072 C 195.2 -1.84435 -0.633131 0
M  V30 2073 O 194.47 -1.30657 -1.45964 0
M  V30 2074 H 193.05 -0.680138 0.308904 0
M  V30 2075 H 195.712 -1.36301 1.39313 0
M  V30 2076 H 194.808 -2.87908 1.2048 0
M  V30 2077 N 195.109 -0.891671 -1.2995 0
M  V30 2078 C 196.349 -0.520296 -1.97667 0
M  V30 2079 C 196.713 0.914797 -1.68806 0
M  V30 2080 O 197.914 1.39263 -2.29911 0
M  V30 2081 C 196.185 -0.795222 -3.48441 0
M  V30 2082 S 197.744 -0.526953 -4.35624 0
M  V30 2083 H 194.562 -0.19333 -0.684211 0
M  V30 2084 H 197.164 -1.15238 -1.57926 0
M  V30 2085 H 195.868 -1.83805 -3.66938 0
M  V30 2086 H 195.399 -0.15095 -3.9311 0
M  V30 2087 H 197.414 0.631533 -4.92165 0
M  V30 2088 N 196.587 1.43421 -0.653314 0
M  V30 2089 C 197.52 2.2803 0.0879804 0
M  V30 2090 C 198.498 1.39833 0.82979 0
M  V30 2091 O 199.682 1.69275 0.829341 0
M  V30 2092 C 196.809 3.19247 1.13132 0
M  V30 2093 C 195.855 4.23704 0.487546 0
M  V30 2094 S 196.688 5.30377 -0.738961 0
M  V30 2095 C 197.844 6.25162 0.30384 0
M  V30 2096 H 198.077 2.90554 -0.629739 0
M  V30 2097 H 195.61 1.47934 -0.442156 0
M  V30 2098 H 197.568 3.72346 1.72827 0
M  V30 2099 H 196.229 2.55901 1.82136 0
M  V30 2100 H 195.422 4.87631 1.27407 0
M  V30 2101 H 195.024 3.73983 -0.0352915 0
M  V30 2102 H 197.316 6.67321 1.17 0
M  V30 2103 H 198.259 7.07463 -0.300402 0
M  V30 2104 H 198.667 5.60864 0.63969 0
M  V30 2105 N 198.065 0.39524 1.52563 0
M  V30 2106 C 199.012 -0.437036 2.26624 0
M  V30 2107 C 199.982 -1.05281 1.28472 0
M  V30 2108 O 201.167 -1.07971 1.57311 0
M  V30 2109 C 198.307 -1.55524 3.08069 0
M  V30 2110 C 197.42 -0.961745 4.21158 0
M  V30 2111 C 196.555 -2.05149 4.89987 0
M  V30 2112 C 195.594 -1.4342 5.95061 0
M  V30 2113 N 194.731 -2.46351 6.57462 0
M  V30 2114 H 199.571 0.200976 2.97322 0
M  V30 2115 H 197.108 0.110944 1.46681 0
M  V30 2116 H 199.066 -2.21437 3.53584 0
M  V30 2117 H 197.696 -2.16348 2.3957 0
M  V30 2118 H 196.748 -0.192048 3.79915 0
M  V30 2119 H 198.06 -0.470701 4.96574 0
M  V30 2120 H 197.214 -2.78819 5.38837 0
M  V30 2121 H 195.953 -2.57615 4.14109 0
M  V30 2122 H 194.958 -0.682774 5.45544 0
M  V30 2123 H 196.183 -0.917416 6.72875 0
M  V30 2124 H 194.129 -2.97975 5.8442 0
M  V30 2125 H 194.046 -2.02019 7.28508 0
M  V30 2126 H 195.314 -3.19633 7.10954 0
M  V30 2127 N 199.544 -1.57102 0.125237 0
M  V30 2128 C 200.792 -1.95021 -0.530198 0
M  V30 2129 C 201.113 -1.00982 -1.66816 0
M  V30 2130 O 200.383 -0.0672693 -1.95784 0
M  V30 2131 H 198.963 -0.720046 -0.198853 0
M  V30 2132 H 201.625 -1.93916 0.19564 0
M  V30 2133 H 200.721 -2.98211 -0.920681 0
M  V30 2134 N 201.022 0.148545 -1.56898 0
M  V30 2135 C 202.438 0.501131 -1.51528 0
M  V30 2136 C 202.638 1.83458 -0.833399 0
M  V30 2137 O 201.694 2.49259 -0.40328 0
M  V30 2138 C 203.007 0.512864 -2.96294 0
M  V30 2139 C 204.555 0.598487 -3.07225 0
M  V30 2140 C 205.03 0.640897 -4.53494 0
M  V30 2141 N 206.521 0.703163 -4.57832 0
M  V30 2142 C 207.256 0.756935 -5.68382 0
M  V30 2143 N 206.752 0.770147 -6.88506 0
M  V30 2144 N 208.545 0.797698 -5.56411 0
M  V30 2145 H 200.696 -0.725532 -1.99624 0
M  V30 2146 H 202.959 -0.264358 -0.910395 0
M  V30 2147 H 202.665 -0.398691 -3.49433 0
M  V30 2148 H 202.539 1.35133 -3.52163 0
M  V30 2149 H 204.926 1.50046 -2.54106 0
M  V30 2150 H 205.007 -0.267093 -2.54402 0
M  V30 2151 H 204.651 -0.256915 -5.0725 0
M  V30 2152 H 204.581 1.52295 -5.04097 0
M  V30 2153 H 207.072 0.700314 -3.71354 0
M  V30 2154 H 207.385 0.812983 -7.68512 0
M  V30 2155 H 205.73 0.738049 -6.9107 0
M  V30 2156 H 208.921 0.784535 -4.61479 0
M  V30 2157 H 209.094 0.83614 -6.42583 0
M  V30 2158 N 202.5 1.5196 0.417844 0
M  V30 2159 C 203.728 1.69426 1.18753 0
M  V30 2160 C 204.143 0.399955 1.84515 0
M  V30 2161 O 203.5 -0.623288 1.71527 0
M  V30 2162 C 203.551 2.82375 2.25714 0
M  V30 2163 O 203.272 4.06793 1.62638 0
M  V30 2164 C 204.773 3.11277 3.15628 0
M  V30 2165 H 201.993 0.568031 0.357186 0
M  V30 2166 H 204.537 1.98475 0.49273 0
M  V30 2167 H 202.692 2.5587 2.90877 0
M  V30 2168 H 203.106 4.69667 2.3348 0
M  V30 2169 H 204.58 3.93843 3.86771 0
M  V30 2170 H 205.057 2.24473 3.77503 0
M  V30 2171 H 205.663 3.39515 2.56144 0
M  V30 2172 N 203.978 -0.674533 1.42435 0
M  V30 2173 C 204.911 -1.79924 1.40366 0
M  V30 2174 C 205.889 -1.60378 0.267899 0
M  V30 2175 O 207.073 -1.82847 0.458159 0
M  V30 2176 C 204.2 -3.16927 1.19478 0
M  V30 2177 C 203.246 -3.55221 2.36051 0
M  V30 2178 S 204.079 -3.5762 3.98583 0
M  V30 2179 C 205.235 -4.97315 3.80038 0
M  V30 2180 H 205.468 -1.81405 2.35541 0
M  V30 2181 H 203.001 -0.845221 1.29211 0
M  V30 2182 H 204.959 -3.96007 1.08114 0
M  V30 2183 H 203.62 -3.13031 0.258883 0
M  V30 2184 H 202.813 -4.54804 2.17185 0
M  V30 2185 H 202.415 -2.83502 2.43932 0
M  V30 2186 H 204.707 -5.85401 3.41045 0
M  V30 2187 H 205.65 -5.21228 4.79298 0
M  V30 2188 H 206.058 -4.69845 3.12899 0
M  V30 2189 N 205.456 -1.28612 -0.910864 0
M  V30 2190 C 206.686 -1.1862 -1.69153 0
M  V30 2191 C 207.094 0.257324 -1.87442 0
M  V30 2192 O 206.437 1.18543 -1.40332 0
M  V30 2193 C 206.499 -1.81606 -3.10257 0
M  V30 2194 C 206.163 -3.30864 -3.15243 0
M  V30 2195 C 207.16 -4.27256 -2.96223 0
M  V30 2196 C 204.845 -3.71871 -3.37664 0
M  V30 2197 C 206.839 -5.62631 -2.99541 0
M  V30 2198 C 204.526 -5.07371 -3.40614 0
M  V30 2199 C 205.524 -6.02561 -3.21573 0
M  V30 2200 O 205.212 -7.35589 -3.2429 0
M  V30 2201 H 204.944 -0.412633 -0.535453 0
M  V30 2202 H 207.498 -1.70306 -1.14827 0
M  V30 2203 H 205.728 -1.24418 -3.66138 0
M  V30 2204 H 207.417 -1.66092 -3.70362 0
M  V30 2205 H 208.183 -3.9691 -2.78725 0
M  V30 2206 H 204.062 -2.98241 -3.5153 0
M  V30 2207 H 207.606 -6.36907 -2.84597 0
M  V30 2208 H 203.503 -5.37366 -3.57642 0
M  V30 2209 H 204.271 -7.44252 -3.40633 0
M  V30 2210 N 206.934 1.1197 -1.10907 0
M  V30 2211 C 208.18 1.8386 -0.855773 0
M  V30 2212 C 208.513 1.84134 0.617103 0
M  V30 2213 O 207.788 1.29041 1.45529 0
M  V30 2214 C 208.071 3.31305 -1.411 0
M  V30 2215 C 207.924 3.39456 -2.9511 0
M  V30 2216 C 209.243 4.2721 -1.05736 0
M  V30 2217 H 206.362 0.667545 -0.312334 0
M  V30 2218 H 209.004 1.31331 -1.37303 0
M  V30 2219 H 207.154 3.76169 -0.97105 0
M  V30 2220 H 208.826 3.03191 -3.47668 0
M  V30 2221 H 207.069 2.79849 -3.31462 0
M  V30 2222 H 207.74 4.43209 -3.29044 0
M  V30 2223 H 210.216 3.90497 -1.43706 0
M  V30 2224 H 209.092 5.28775 -1.47269 0
M  V30 2225 H 209.353 4.42088 0.0325958 0
M  V30 2226 N 208.412 0.89855 1.29475 0
M  V30 2227 C 209.661 0.519863 1.94885 0
M  V30 2228 C 209.974 -0.9383 1.71625 0
M  V30 2229 O 211.18 -1.42445 2.31131 0
M  V30 2230 C 209.636 0.878836 3.49005 0
M  V30 2231 C 209.244 2.35569 3.81066 0
M  V30 2232 C 210.988 0.570004 4.20656 0
M  V30 2233 C 208.895 2.65558 5.28425 0
M  V30 2234 H 207.825 0.190692 0.729488 0
M  V30 2235 H 210.476 1.09539 1.47219 0
M  V30 2236 H 208.858 0.232253 3.95318 0
M  V30 2237 H 210.032 3.04773 3.45616 0
M  V30 2238 H 208.347 2.63343 3.22552 0
M  V30 2239 H 210.944 0.770925 5.29113 0
M  V30 2240 H 211.287 -0.491404 4.1339 0
M  V30 2241 H 211.82 1.17438 3.8007 0
M  V30 2242 H 208.559 3.70493 5.40754 0
M  V30 2243 H 208.079 2.00977 5.65127 0
M  V30 2244 H 209.758 2.51765 5.96006 0
M  V30 2245 N 209.89 -1.43072 0.660911 0
M  V30 2246 C 211.301 -1.84932 0.256348 0
M  V30 2247 C 211.652 -1.55325 -1.19868 0
M  V30 2248 O 210.777 -1.00607 -1.91591 0
M  V30 2249 C 211.372 -3.35684 0.458475 0
M  V30 2250 C 209.931 -3.76245 0.108161 0
M  V30 2251 C 209.078 -2.66749 0.757641 0
M  V30 2252 H 212.029 -1.33116 0.864051 0
M  V30 2253 H 212.05 -3.79365 -0.293683 0
M  V30 2254 H 211.562 -3.572 1.51755 0
M  V30 2255 H 209.663 -3.60338 -0.948014 0
M  V30 2256 H 209.776 -4.76058 0.538992 0
M  V30 2257 H 208.14 -2.53989 0.190185 0
M  V30 2258 H 208.923 -2.91092 1.81989 0
M  V30 2259 N 211.368 -0.403325 -1.52352 0
M  V30 2260 C 212.615 0.174347 -2.01748 0
M  V30 2261 C 212.943 1.45636 -1.2892 0
M  V30 2262 O 212.198 1.9193 -0.382258 0
M  V30 2263 C 212.497 0.474665 -3.54234 0
M  V30 2264 C 212.163 -0.717458 -4.45155 0
M  V30 2265 C 210.825 -1.04447 -4.69728 0
M  V30 2266 C 213.177 -1.51432 -4.98716 0
M  V30 2267 C 210.505 -2.16963 -5.45109 0
M  V30 2268 C 212.857 -2.6302 -5.75329 0
M  V30 2269 C 211.521 -2.96213 -5.98175 0
M  V30 2270 H 210.791 0.0637981 -0.738248 0
M  V30 2271 H 213.438 -0.543553 -1.83624 0
M  V30 2272 H 211.743 1.27406 -3.70506 0
M  V30 2273 H 213.44 0.934496 -3.89959 0
M  V30 2274 H 210.03 -0.452596 -4.26204 0
M  V30 2275 H 214.214 -1.27491 -4.79645 0
M  V30 2276 H 209.47 -2.43034 -5.61021 0
M  V30 2277 H 213.644 -3.25158 -6.15829 0
M  V30 2278 H 211.271 -3.83516 -6.56368 0
M  V30 2279 N 212.846 1.57033 -0.133567 0
M  V30 2280 C 214.071 2.00475 0.531477 0
M  V30 2281 C 214.496 1.01291 1.58499 0
M  V30 2282 O 213.854 -0.0133279 1.81295 0
M  V30 2283 C 213.902 3.42729 1.12113 0
M  V30 2284 O 213.006 3.46498 2.23636 0
M  V30 2285 H 212.347 0.650876 0.131362 0
M  V30 2286 H 214.877 2.03344 -0.22634 0
M  V30 2287 H 214.887 3.81246 1.4531 0
M  V30 2288 H 213.562 4.14428 0.349557 0
M  V30 2289 H 212.139 3.19811 1.91769 0
M  V30 2290 N 214.325 -0.140222 1.56975 0
M  V30 2291 C 215.258 -1.20266 1.93936 0
M  V30 2292 C 216.236 -1.41212 0.806099 0
M  V30 2293 O 217.42 -1.55713 1.06234 0
M  V30 2294 C 214.547 -2.56037 2.21726 0
M  V30 2295 C 213.593 -2.51646 3.44349 0
M  V30 2296 S 214.426 -1.97678 4.97678 0
M  V30 2297 C 215.582 -3.35165 5.28597 0
M  V30 2298 H 215.815 -0.887358 2.83749 0
M  V30 2299 H 213.348 -0.346119 1.50471 0
M  V30 2300 H 215.306 -3.34167 2.38416 0
M  V30 2301 H 213.967 -2.84755 1.32566 0
M  V30 2302 H 213.16 -3.51608 3.61092 0
M  V30 2303 H 212.762 -1.81628 3.26936 0
M  V30 2304 H 215.054 -4.31302 5.2248 0
M  V30 2305 H 215.997 -3.23269 6.30002 0
M  V30 2306 H 216.405 -3.32614 4.56101 0
M  V30 2307 N 215.803 -1.52179 -0.40978 0
M  V30 2308 C 217.051 -1.65878 -1.15451 0
M  V30 2309 C 217.372 -0.390771 -1.91044 0
M  V30 2310 O 216.642 0.594323 -1.86667 0
M  V30 2311 H 215.222 -0.611405 -0.429177 0
M  V30 2312 H 217.884 -1.89219 -0.467134 0
M  V30 2313 H 216.98 -2.49954 -1.86894 0
M  V30 2314 N 217.281 0.66697 -1.42791 0
M  V30 2315 C 218.692 1.2478 -1.38877 0
M  V30 2316 C 219.043 1.96012 -0.0859426 0
M  V30 2317 O 218.168 2.00463 0.815081 0
M  V30 2318 C 218.763 2.26938 -2.51564 0
M  V30 2319 C 217.322 2.80529 -2.50959 0
M  V30 2320 C 216.469 1.54965 -2.29959 0
M  V30 2321 H 219.42 0.459853 -1.51892 0
M  V30 2322 H 219.441 3.08834 -2.22265 0
M  V30 2323 H 218.953 1.75065 -3.46372 0
M  V30 2324 H 217.054 3.36502 -1.59991 0
M  V30 2325 H 217.167 3.29012 -3.48265 0
M  V30 2326 H 215.531 1.81817 -1.78366 0
M  V30 2327 H 216.314 1.05047 -3.26833 0
M  V30 2328 N 218.759 1.29093 0.90403 0
M  V30 2329 C 219.689 1.16401 2.02418 0
M  V30 2330 C 220.67 0.0593085 1.69997 0
M  V30 2331 O 221.855 0.238021 1.92736 0
M  V30 2332 C 218.985 0.835233 3.37107 0
M  V30 2333 C 217.939 1.89578 3.83724 0
M  V30 2334 C 217.265 1.42041 5.15489 0
M  V30 2335 C 218.565 3.30394 4.04521 0
M  V30 2336 H 220.259 2.10109 2.13295 0
M  V30 2337 H 217.805 1.01157 1.02486 0
M  V30 2338 H 219.758 0.733169 4.14973 0
M  V30 2339 H 218.482 -0.137543 3.2631 0
M  V30 2340 H 217.141 1.98715 3.08071 0
M  V30 2341 H 216.789 0.436426 5.01103 0
M  V30 2342 H 216.489 2.12964 5.4765 0
M  V30 2343 H 218.013 1.33176 5.959 0
M  V30 2344 H 219.427 3.24123 4.72882 0
M  V30 2345 H 217.824 3.99237 4.48029 0
M  V30 2346 H 218.894 3.73692 3.09002 0
M  V30 2347 N 220.237 -1.11381 1.11499 0
M  V30 2348 C 221.485 -1.8277 0.862524 0
M  V30 2349 C 221.806 -1.85097 -0.613534 0
M  V30 2350 O 221.076 -1.32198 -1.4457 0
M  V30 2351 H 219.656 -0.676823 0.316101 0
M  V30 2352 H 222.318 -1.34816 1.4075 0
M  V30 2353 H 221.414 -2.86614 1.23527 0
M  V30 2354 N 221.715 -0.905404 -1.28997 0
M  V30 2355 C 222.94 -0.549175 -1.99997 0
M  V30 2356 C 223.365 0.860276 -1.67275 0
M  V30 2357 O 222.723 1.57355 -0.900502 0
M  V30 2358 C 222.771 -0.755185 -3.52604 0
M  V30 2359 O 221.875 0.189692 -4.11964 0
M  V30 2360 H 221.216 -0.213899 -0.628604 0
M  V30 2361 H 223.746 -1.21856 -1.64354 0
M  V30 2362 H 223.756 -0.662045 -4.02593 0
M  V30 2363 H 222.431 -1.78271 -3.75755 0
M  V30 2364 H 221.008 0.0485257 -3.72868 0
M  V30 2365 N 223.193 1.4272 -0.668489 0
M  V30 2366 C 224.604 1.84793 -0.266151 0
M  V30 2367 C 224.955 1.55959 1.19043 0
M  V30 2368 O 224.08 1.01622 1.91055 0
M  V30 2369 C 224.675 3.35436 -0.476271 0
M  V30 2370 C 223.234 3.76182 -0.128113 0
M  V30 2371 C 222.381 2.66344 -0.771777 0
M  V30 2372 H 225.332 1.32656 -0.871098 0
M  V30 2373 H 225.353 3.79515 0.273561 0
M  V30 2374 H 224.865 3.5639 -1.53647 0
M  V30 2375 H 222.966 3.60836 0.928891 0
M  V30 2376 H 223.079 4.75766 -0.564231 0
M  V30 2377 H 221.443 2.53885 -0.203652 0
M  V30 2378 H 222.226 2.90123 -1.83531 0
M  V30 2379 N 224.671 0.411399 1.52136 0
M  V30 2380 C 225.601 -0.404015 2.29978 0
M  V30 2381 C 226.582 -1.04412 1.34284 0
M  V30 2382 O 227.767 -1.0527 1.63192 0
M  V30 2383 C 224.897 -1.5197 3.12286 0
M  V30 2384 C 223.851 -1.00448 4.16046 0
M  V30 2385 C 223.177 -2.21393 4.86712 0
M  V30 2386 C 224.477 -0.0569336 5.22269 0
M  V30 2387 H 226.171 0.245529 2.98392 0
M  V30 2388 H 223.717 0.119525 1.43503 0
M  V30 2389 H 225.67 -2.09715 3.6551 0
M  V30 2390 H 224.394 -2.19716 2.41646 0
M  V30 2391 H 223.053 -0.449421 3.63835 0
M  V30 2392 H 222.701 -2.87699 4.12599 0
M  V30 2393 H 222.401 -1.87571 5.56858 0
M  V30 2394 H 223.925 -2.7974 5.4275 0
M  V30 2395 H 225.339 -0.54325 5.7072 0
M  V30 2396 H 223.736 0.192594 5.99791 0
M  V30 2397 H 224.806 0.887663 4.76706 0
M  V30 2398 N 226.149 -1.5696 0.141893 0
M  V30 2399 C 227.374 -2.00754 -0.520838 0
M  V30 2400 C 227.799 -1.0213 -1.57959 0
M  V30 2401 O 227.157 0.00371324 -1.813 0
M  V30 2402 C 227.205 -3.43318 -1.10294 0
M  V30 2403 O 226.309 -3.47679 -2.21795 0
M  V30 2404 H 225.65 -0.651564 -0.127908 0
M  V30 2405 H 228.18 -2.03221 0.23712 0
M  V30 2406 H 228.19 -3.82012 -1.43287 0
M  V30 2407 H 226.865 -4.14608 -0.327574 0
M  V30 2408 H 225.442 -3.20824 -1.9007 0
M  V30 2409 N 227.627 0.131896 -1.57047 0
M  V30 2410 C 228.574 1.16236 -1.99393 0
M  V30 2411 C 229.544 1.41863 -0.863943 0
M  V30 2412 O 230.729 1.53946 -1.12718 0
M  V30 2413 C 227.869 2.48708 -2.39245 0
M  V30 2414 C 226.982 2.30127 -3.65603 0
M  V30 2415 C 226.117 3.55738 -3.94492 0
M  V30 2416 C 225.156 3.32259 -5.14073 0
M  V30 2417 N 224.293 4.50039 -5.38896 0
M  V30 2418 H 229.133 0.794251 -2.87221 0
M  V30 2419 H 226.67 0.380707 -1.42088 0
M  V30 2420 H 228.628 3.25969 -2.60384 0
M  V30 2421 H 227.258 2.83437 -1.54478 0
M  V30 2422 H 226.31 1.43845 -3.52154 0
M  V30 2423 H 227.622 2.08746 -4.5302 0
M  V30 2424 H 226.776 4.41423 -4.1621 0
M  V30 2425 H 225.515 3.80138 -3.05526 0
M  V30 2426 H 224.52 2.44963 -4.92212 0
M  V30 2427 H 225.745 3.09242 -6.04604 0
M  V30 2428 H 223.691 4.74584 -4.52886 0
M  V30 2429 H 223.608 4.31716 -6.2061 0
M  V30 2430 H 224.876 5.36895 -5.65123 0
M  V30 2431 N 229.106 1.52395 0.401703 0
M  V30 2432 C 230.355 1.66044 1.14509 0
M  V30 2433 C 230.668 0.400216 1.91462 0
M  V30 2434 O 231.874 0.416632 2.68284 0
M  V30 2435 C 230.33 2.93388 2.0845 0
M  V30 2436 C 229.938 4.26545 1.36978 0
M  V30 2437 C 231.682 3.16402 2.83001 0
M  V30 2438 C 229.589 5.45007 2.29611 0
M  V30 2439 H 228.519 0.618562 0.431158 0
M  V30 2440 H 231.17 1.78886 0.40892 0
M  V30 2441 H 229.552 2.74263 2.8565 0
M  V30 2442 H 230.726 4.56179 0.650916 0
M  V30 2443 H 229.041 4.09692 0.74438 0
M  V30 2444 H 231.638 4.02085 3.52465 0
M  V30 2445 H 231.981 2.30943 3.46368 0
M  V30 2446 H 232.514 3.36034 2.12898 0
M  V30 2447 H 229.253 6.32835 1.70879 0
M  V30 2448 H 228.773 5.19702 2.9945 0
M  V30 2449 H 230.452 5.7838 2.89974 0
M  V30 2450 N 230.584 -0.659388 1.43143 0
M  V30 2451 C 231.832 -1.41654 1.44147 0
M  V30 2452 C 232.153 -1.94893 0.0645739 0
M  V30 2453 O 231.423 -1.74044 -0.899198 0
M  V30 2454 H 230.003 -0.525708 0.530697 0
M  V30 2455 H 232.665 -0.778097 1.78694 0
M  V30 2456 H 231.761 -2.26195 2.1504 0
M  V30 2457 N 232.062 -1.29571 -0.897171 0
M  V30 2458 C 233.311 -1.1706 -1.64256 0
M  V30 2459 C 233.624 0.276476 -1.93636 0
M  V30 2460 O 234.83 0.52294 -2.66416 0
M  V30 2461 C 233.286 -2.0475 -2.95982 0
M  V30 2462 C 232.894 -3.54295 -2.74187 0
M  V30 2463 C 234.638 -2.0097 -3.73914 0
M  V30 2464 C 232.545 -4.34081 -4.01656 0
M  V30 2465 H 231.475 -0.43452 -0.616205 0
M  V30 2466 H 234.126 -1.54229 -0.994268 0
M  V30 2467 H 232.508 -1.60452 -3.62038 0
M  V30 2468 H 233.682 -4.06662 -2.1671 0
M  V30 2469 H 231.997 -3.59773 -2.09648 0
M  V30 2470 H 234.594 -2.57838 -4.68427 0
M  V30 2471 H 234.937 -0.990273 -4.0435 0
M  V30 2472 H 235.47 -2.43325 -3.14703 0
M  V30 2473 H 232.209 -5.36671 -3.76384 0
M  V30 2474 H 231.729 -3.86483 -4.58684 0
M  V30 2475 H 233.408 -4.44877 -4.69781 0
M  V30 2476 N 233.54 1.10788 -1.12088 0
M  V30 2477 C 234.45 2.20599 -0.798338 0
M  V30 2478 C 235.466 1.72712 0.21135 0
M  V30 2479 O 236.642 2.01348 0.0458477 0
M  V30 2480 C 233.707 3.45771 -0.253674 0
M  V30 2481 C 232.768 4.08411 -1.32283 0
M  V30 2482 C 232.001 5.27608 -0.80406 0
M  V30 2483 O 232.224 5.69241 0.363478 0
M  V30 2484 O 231.158 5.8101 -1.57198 0
M  V30 2485 H 234.984 2.50614 -1.7154 0
M  V30 2486 H 232.569 1.19454 -0.897275 0
M  V30 2487 H 234.451 4.21376 0.0453691 0
M  V30 2488 H 233.126 3.1739 0.636005 0
M  V30 2489 H 232.033 3.34507 -1.67499 0
M  V30 2490 H 233.366 4.40986 -2.18614 0
M  V30 2491 N 235.018 0.912232 1.28515 0
M  V30 2492 C 235.948 0.416403 2.29757 0
M  V30 2493 C 236.929 -0.515194 1.6211 0
M  V30 2494 O 238.114 -0.423253 1.89532 0
M  V30 2495 C 235.244 -0.34572 3.45575 0
M  V30 2496 C 234.198 0.496599 4.25109 0
M  V30 2497 C 233.524 -0.393771 5.33248 0
M  V30 2498 C 234.824 1.75307 4.92001 0
M  V30 2499 H 236.518 1.26249 2.7148 0
M  V30 2500 H 234.064 0.608515 1.30511 0
M  V30 2501 H 236.017 -0.703422 4.15488 0
M  V30 2502 H 234.741 -1.2257 3.02728 0
M  V30 2503 H 233.4 0.8368 3.56922 0
M  V30 2504 H 233.048 -1.27225 4.86644 0
M  V30 2505 H 232.748 0.166209 5.87365 0
M  V30 2506 H 234.272 -0.747389 6.06009 0
M  V30 2507 H 235.686 1.46437 5.54283 0
M  V30 2508 H 234.083 2.25534 5.56106 0
M  V30 2509 H 235.153 2.48176 4.16577 0
M  V30 2510 N 236.496 -1.42363 0.676048 0
M  V30 2511 C 237.724 -2.05859 0.207268 0
M  V30 2512 C 238.139 -1.50796 -1.13605 0
M  V30 2513 O 237.496 -0.648265 -1.70598 0
M  V30 2514 C 237.547 -3.61248 0.134975 0
M  V30 2515 O 237.268 -4.1427 1.42521 0
M  V30 2516 C 238.769 -4.41859 -0.357151 0
M  V30 2517 H 235.989 -0.663431 0.100503 0
M  V30 2518 H 238.533 -1.82479 0.923136 0
M  V30 2519 H 236.688 -3.83735 -0.531588 0
M  V30 2520 H 237.102 -5.0815 1.29939 0
M  V30 2521 H 238.576 -5.50847 -0.356641 0
M  V30 2522 H 239.053 -4.16536 -1.39264 0
M  V30 2523 H 239.659 -4.24392 0.27772 0
M  V30 2524 N 237.974 -0.419461 -1.51915 0
M  V30 2525 C 239.251 0.211999 -1.94448 0
M  V30 2526 C 239.631 1.61703 -1.35703 0
M  V30 2527 O 238.979 2.22102 -0.536931 0
M  V30 2528 C 239.189 0.207872 -3.4838 0
M  V30 2529 C 240.537 0.422192 -4.22496 0
M  V30 2530 O 241.561 0.286778 -3.55044 0
M  V30 2531 O 240.42 0.690009 -5.42126 0
M  V30 2532 H 237.514 0.139586 -0.815135 0
M  V30 2533 H 240.06 -0.476151 -1.62883 0
M  V30 2534 H 238.832 -0.775102 -3.83546 0
M  V30 2535 H 238.455 0.939688 -3.86336 0
M  V30 2536 N 239.452 1.56882 -0.150215 0
M  V30 2537 C 240.677 2.01027 0.510184 0
M  V30 2538 C 241.102 1.02966 1.57415 0
M  V30 2539 O 240.46 0.00590158 1.81299 0
M  V30 2540 C 240.508 3.43899 1.08472 0
M  V30 2541 O 239.612 3.4885 2.19948 0
M  V30 2542 H 238.953 0.652233 0.124451 0
M  V30 2543 H 241.483 2.03093 -0.247894 0
M  V30 2544 H 241.493 3.82766 1.41259 0
M  V30 2545 H 240.168 4.14776 0.305582 0
M  V30 2546 H 238.745 3.21827 1.88366 0
M  V30 2547 N 240.93 -0.123565 1.57115 0
M  V30 2548 C 242.341 -0.681198 1.73829 0
M  V30 2549 C 242.692 -1.80535 0.768214 0
M  V30 2550 O 241.817 -2.16317 -0.0599103 0
M  V30 2551 C 242.412 -1.24246 3.15196 0
M  V30 2552 C 240.971 -1.74643 3.33432 0
M  V30 2553 C 240.118 -0.644284 2.69711 0
M  V30 2554 H 243.069 0.102315 1.5837 0
M  V30 2555 H 243.09 -2.11216 3.16493 0
M  V30 2556 H 242.602 -0.424062 3.85776 0
M  V30 2557 H 240.703 -2.58974 2.67886 0
M  V30 2558 H 240.816 -1.85902 4.41562 0
M  V30 2559 H 239.18 -1.07676 2.3082 0
M  V30 2560 H 239.963 0.163058 3.42913 0
M  V30 2561 N 242.408 -1.52605 -0.393616 0
M  V30 2562 C 243.638 -1.71046 -1.15874 0
M  V30 2563 C 244.046 -0.426483 -1.84331 0
M  V30 2564 O 243.389 0.608513 -1.73329 0
M  V30 2565 C 243.451 -2.80118 -2.25332 0
M  V30 2566 C 243.115 -4.21381 -1.76881 0
M  V30 2567 C 244.112 -5.04697 -1.24808 0
M  V30 2568 C 241.797 -4.67683 -1.83244 0
M  V30 2569 C 243.791 -6.32393 -0.797387 0
M  V30 2570 C 241.478 -5.95364 -1.37787 0
M  V30 2571 C 242.476 -6.77549 -0.861208 0
M  V30 2572 O 242.164 -8.02837 -0.413252 0
M  V30 2573 H 241.896 -0.576155 -0.353583 0
M  V30 2574 H 244.45 -2.00018 -0.467123 0
M  V30 2575 H 242.68 -2.46557 -2.97904 0
M  V30 2576 H 244.369 -2.87006 -2.87023 0
M  V30 2577 H 245.135 -4.70111 -1.19252 0
M  V30 2578 H 241.014 -4.03805 -2.22401 0
M  V30 2579 H 244.558 -6.9649 -0.393437 0
M  V30 2580 H 240.455 -6.29455 -1.43026 0
M  V30 2581 H 241.223 -8.16749 -0.53515 0
M  V30 2582 N 243.887 0.651787 -1.4349 0
M  V30 2583 C 245.133 1.41376 -1.45398 0
M  V30 2584 C 245.466 1.94041 -0.0784823 0
M  V30 2585 O 244.741 1.72379 0.900878 0
M  V30 2586 C 245.024 2.59414 -2.49752 0
M  V30 2587 C 244.877 2.12232 -3.96582 0
M  V30 2588 C 246.196 3.61626 -2.50827 0
M  V30 2589 H 243.315 0.512719 -0.529422 0
M  V30 2590 H 245.957 0.738796 -1.75048 0
M  V30 2591 H 244.107 3.16997 -2.246 0
M  V30 2592 H 245.779 1.59639 -4.32797 0
M  V30 2593 H 244.022 1.43592 -4.09346 0
M  V30 2594 H 244.693 2.9712 -4.65214 0
M  V30 2595 H 247.169 3.13805 -2.7325 0
M  V30 2596 H 246.045 4.41766 -3.25783 0
M  V30 2597 H 246.306 4.14314 -1.5426 0
M  V30 2598 N 245.365 1.30045 0.890287 0
M  V30 2599 C 246.611 1.18737 1.64406 0
M  V30 2600 C 246.944 -0.258525 1.92472 0
M  V30 2601 O 246.219 -1.18562 1.54186 0
M  V30 2602 C 246.502 2.01087 2.98724 0
M  V30 2603 C 246.355 3.53867 2.77665 0
M  V30 2604 C 247.674 1.84457 3.9958 0
M  V30 2605 H 244.793 0.432698 0.596608 0
M  V30 2606 H 247.435 1.5962 1.0306 0
M  V30 2607 H 245.585 1.66349 3.51084 0
M  V30 2608 H 247.257 3.98637 2.32133 0
M  V30 2609 H 245.5 3.78318 2.12269 0
M  V30 2610 H 246.171 4.06772 3.7315 0
M  V30 2611 H 248.647 2.14817 3.56361 0
M  V30 2612 H 247.523 2.44411 4.91482 0
M  V30 2613 H 247.784 0.802276 4.3476 0
M  V30 2614 N 246.843 -1.10192 1.12674 0
M  V30 2615 C 247.806 -2.14786 0.799979 0
M  V30 2616 C 248.806 -1.59711 -0.18685 0
M  V30 2617 O 249.996 -1.74156 0.0392558 0
M  V30 2618 C 247.128 -3.40374 0.189228 0
M  V30 2619 H 248.321 -2.45203 1.72671 0
M  V30 2620 H 245.874 -1.25597 0.930326 0
M  V30 2621 H 246.609 -3.15577 -0.747107 0
M  V30 2622 H 246.394 -3.81637 0.899766 0
M  V30 2623 H 247.884 -4.17594 -0.0228143 0
M  V30 2624 N 248.321 -0.919034 -1.28029 0
M  V30 2625 C 249.546 -0.570357 -1.99403 0
M  V30 2626 C 249.971 0.842486 -1.68178 0
M  V30 2627 O 249.329 1.56391 -0.917141 0
M  V30 2628 C 249.377 -0.792541 -3.51783 0
M  V30 2629 O 248.481 0.145988 -4.12142 0
M  V30 2630 H 247.822 -0.220555 -0.6263 0
M  V30 2631 H 250.352 -1.23592 -1.63053 0
M  V30 2632 H 250.362 -0.704708 -4.01868 0
M  V30 2633 H 249.037 -1.82247 -3.73844 0
M  V30 2634 H 247.614 0.00897528 -3.72899 0
M  V30 2635 N 249.799 1.42003 -0.683588 0
M  V30 2636 C 250.732 2.28166 0.039592 0
M  V30 2637 C 251.71 1.41562 0.799942 0
M  V30 2638 O 252.894 1.70997 0.793248 0
M  V30 2639 C 250.021 3.21575 1.06335 0
M  V30 2640 C 249.067 4.24643 0.397562 0
M  V30 2641 S 249.9 5.2869 -0.851296 0
M  V30 2642 C 251.056 6.25666 0.171166 0
M  V30 2643 H 251.289 2.89153 -0.691229 0
M  V30 2644 H 248.822 1.46962 -0.473435 0
M  V30 2645 H 250.78 3.75928 1.6489 0
M  V30 2646 H 249.441 2.59707 1.76667 0
M  V30 2647 H 248.634 4.90223 1.17035 0
M  V30 2648 H 248.236 3.73824 -0.114611 0
M  V30 2649 H 250.528 6.69653 1.02819 0
M  V30 2650 H 251.471 7.06666 -0.450397 0
M  V30 2651 H 251.879 5.62095 0.520578 0
M  V30 2652 N 251.277 0.427512 1.51691 0
M  V30 2653 C 252.693 0.0792977 1.59403 0
M  V30 2654 C 252.893 -1.41035 1.43914 0
M  V30 2655 O 251.949 -2.17922 1.27539 0
M  V30 2656 C 253.262 0.590636 2.94842 0
M  V30 2657 C 254.81 0.550215 3.08126 0
M  V30 2658 C 255.285 1.03836 4.46074 0
M  V30 2659 N 256.776 0.995943 4.52366 0
M  V30 2660 C 257.511 1.34463 5.57411 0
M  V30 2661 N 257.007 1.76569 6.69922 0
M  V30 2662 N 258.8 1.26343 5.47717 0
M  V30 2663 H 250.951 1.39687 1.60004 0
M  V30 2664 H 253.214 0.575003 0.753708 0
M  V30 2665 H 252.92 1.63251 3.11516 0
M  V30 2666 H 252.794 0.0102061 3.77199 0
M  V30 2667 H 255.181 -0.482654 2.91126 0
M  V30 2668 H 255.262 1.16693 2.27632 0
M  V30 2669 H 254.906 2.06965 4.63819 0
M  V30 2670 H 254.836 0.398286 5.25092 0
M  V30 2671 H 257.327 0.68661 3.7161 0
M  V30 2672 H 257.64 2.01438 7.46085 0
M  V30 2673 H 255.985 1.80488 6.71155 0
M  V30 2674 H 259.176 0.933209 4.58703 0
M  V30 2675 H 259.349 1.53846 6.29472 0
M  V30 2676 N 252.755 -1.56801 0.158532 0
M  V30 2677 C 254.004 -1.95665 -0.489702 0
M  V30 2678 C 254.317 -1.04654 -1.65248 0
M  V30 2679 O 255.523 -1.33146 -2.3661 0
M  V30 2680 C 253.979 -3.47874 -0.922582 0
M  V30 2681 C 253.587 -4.47489 0.213893 0
M  V30 2682 C 255.331 -3.95583 -1.53996 0
M  V30 2683 C 253.238 -5.90921 -0.237903 0
M  V30 2684 H 252.168 -0.730516 -0.186716 0
M  V30 2685 H 254.819 -1.81861 0.244722 0
M  V30 2686 H 253.201 -3.57051 -1.71261 0
M  V30 2687 H 254.375 -4.50017 0.991036 0
M  V30 2688 H 252.69 -4.09764 0.740407 0
M  V30 2689 H 255.287 -5.0019 -1.8898 0
M  V30 2690 H 255.63 -3.37789 -2.43319 0
M  V30 2691 H 256.163 -3.8937 -0.814611 0
M  V30 2692 H 252.902 -6.52559 0.620236 0
M  V30 2693 H 252.422 -5.91729 -0.980676 0
M  V30 2694 H 254.101 -6.43352 -0.686067 0
M  V30 2695 N 254.233 0.115231 -1.57178 0
M  V30 2696 C 255.166 1.17166 -1.95825 0
M  V30 2697 C 256.144 1.39912 -0.828463 0
M  V30 2698 O 257.328 1.54004 -1.08697 0
M  V30 2699 C 254.455 2.52478 -2.25771 0
M  V30 2700 C 253.501 2.46136 -3.48309 0
M  V30 2701 S 254.334 1.89736 -5.0076 0
M  V30 2702 C 255.49 3.26713 -5.33863 0
M  V30 2703 H 255.723 0.842103 -2.85124 0
M  V30 2704 H 253.256 0.322136 -1.51002 0
M  V30 2705 H 255.214 3.30332 -2.43702 0
M  V30 2706 H 253.875 2.82609 -1.37079 0
M  V30 2707 H 253.068 3.45819 -3.66641 0
M  V30 2708 H 252.67 1.76404 -3.29784 0
M  V30 2709 H 254.962 4.22935 -5.29275 0
M  V30 2710 H 255.905 3.13205 -6.35065 0
M  V30 2711 H 256.313 3.25316 -4.61335 0
M  V30 2712 N 255.711 1.52812 0.385517 0
M  V30 2713 C 256.939 1.71907 1.15133 0
M  V30 2714 C 257.354 0.439004 1.83625 0
M  V30 2715 O 256.711 -0.586765 1.7281 0
M  V30 2716 C 256.762 2.87099 2.19673 0
M  V30 2717 O 256.483 4.10151 1.53973 0
M  V30 2718 C 257.984 3.17902 3.08955 0
M  V30 2719 H 255.204 0.575479 0.345057 0
M  V30 2720 H 257.748 1.99476 0.45052 0
M  V30 2721 H 255.903 2.61982 2.85384 0
M  V30 2722 H 256.317 4.74514 2.23465 0
M  V30 2723 H 257.791 4.01959 3.7833 0
M  V30 2724 H 258.268 2.3243 3.72657 0
M  V30 2725 H 258.874 3.44871 2.48885 0
M  V30 2726 N 257.189 -0.644168 1.43834 0
M  V30 2727 C 258.605 -0.960875 1.27434 0
M  V30 2728 C 258.805 -2.00499 0.200618 0
M  V30 2729 O 257.861 -2.49018 -0.417906 0
M  V30 2730 C 259.174 -1.43653 2.64167 0
M  V30 2731 C 260.722 -1.55271 2.71772 0
M  V30 2732 C 261.197 -2.06224 4.08944 0
M  V30 2733 N 262.688 -2.13513 4.11055 0
M  V30 2734 C 263.423 -2.54081 5.14033 0
M  V30 2735 N 262.919 -2.9388 6.27381 0
M  V30 2736 N 264.712 -2.54101 5.01387 0
M  V30 2737 H 256.863 0.0465779 2.12349 0
M  V30 2738 H 259.126 -0.0417638 0.94708 0
M  V30 2739 H 258.832 -0.743706 3.43747 0
M  V30 2740 H 258.706 -2.40993 2.90176 0
M  V30 2741 H 261.093 -2.23653 1.92519 0
M  V30 2742 H 261.174 -0.563395 2.49519 0
M  V30 2743 H 260.818 -1.38441 4.88668 0
M  V30 2744 H 260.748 -3.06003 4.28567 0
M  V30 2745 H 263.239 -1.85493 3.29242 0
M  V30 2746 H 263.552 -3.2361 7.01781 0
M  V30 2747 H 261.897 -2.91663 6.30839 0
M  V30 2748 H 265.088 -2.22391 4.11898 0
M  V30 2749 H 265.261 -2.85394 5.81768 0
M  V30 2750 N 258.668 -1.30515 -0.883378 0
M  V30 2751 C 259.601 -1.11359 -1.99184 0
M  V30 2752 C 260.579 -0.0207858 -1.62587 0
M  V30 2753 O 261.763 -0.174646 -1.87689 0
M  V30 2754 C 258.89 -0.69871 -3.31415 0
M  V30 2755 C 257.936 -1.79261 -3.86998 0
M  V30 2756 S 258.769 -3.39536 -4.14096 0
M  V30 2757 C 259.925 -2.99954 -5.49344 0
M  V30 2758 H 260.158 -2.052 -2.15128 0
M  V30 2759 H 257.691 -1.14847 -1.03196 0
M  V30 2760 H 259.649 -0.466075 -4.07846 0
M  V30 2761 H 258.31 0.220368 -3.13326 0
M  V30 2762 H 257.503 -1.45464 -4.82552 0
M  V30 2763 H 257.105 -1.97961 -3.17313 0
M  V30 2764 H 259.397 -2.48013 -6.30473 0
M  V30 2765 H 260.34 -3.9442 -5.8808 0
M  V30 2766 H 260.748 -2.37775 -5.1198 0
M  V30 2767 N 260.146 1.09593 -1.13257 0
M  V30 2768 C 261.394 1.81375 -0.891492 0
M  V30 2769 C 261.715 1.86049 0.584009 0
M  V30 2770 O 260.985 1.34481 1.42449 0
M  V30 2771 H 259.565 0.671708 -0.326828 0
M  V30 2772 H 262.227 1.3256 -1.42877 0
M  V30 2773 H 261.323 2.84612 -1.28071 0
M  V30 2774 N 261.624 0.925811 1.2754 0
M  V30 2775 C 262.852 0.581509 1.9856 0
M  V30 2776 C 263.267 -0.840041 1.69082 0
M  V30 2777 O 262.624 -1.55805 0.950312 0
M  V30 2778 C 262.675 0.795589 3.52637 0
M  V30 2779 O 262.396 2.16121 3.81082 0
M  V30 2780 C 263.897 0.459744 4.4091 0
M  V30 2781 H 261.117 0.220538 0.633722 0
M  V30 2782 H 263.661 1.24232 1.6244 0
M  V30 2783 H 261.816 0.18161 3.86974 0
M  V30 2784 H 262.23 2.2098 4.75676 0
M  V30 2785 H 263.704 0.660244 5.48037 0
M  V30 2786 H 264.181 -0.604625 4.35018 0
M  V30 2787 H 264.787 1.05178 4.12089 0
M  V30 2788 N 263.102 -1.41638 0.69111 0
M  V30 2789 C 264.513 -1.84346 0.295517 0
M  V30 2790 C 264.864 -1.57833 -1.16547 0
M  V30 2791 O 263.989 -1.04648 -1.89414 0
M  V30 2792 C 264.584 -3.34636 0.529575 0
M  V30 2793 C 263.143 -3.7593 0.187944 0
M  V30 2794 C 262.29 -2.65082 0.814052 0
M  V30 2795 H 265.241 -1.31253 0.892092 0
M  V30 2796 H 265.262 -3.79903 -0.213148 0
M  V30 2797 H 264.774 -3.53901 1.59297 0
M  V30 2798 H 262.875 -3.62268 -0.871367 0
M  V30 2799 H 262.988 -4.74808 0.63985 0
M  V30 2800 H 261.352 -2.53528 0.244017 0
M  V30 2801 H 262.135 -2.87167 1.88123 0
M  V30 2802 N 264.58 -0.43555 -1.51462 0
M  V30 2803 C 265.826 0.131709 -2.02372 0
M  V30 2804 C 266.159 1.42516 -1.3192 0
M  V30 2805 O 265.434 1.89606 -0.433573 0
M  V30 2806 C 265.717 0.352301 -3.58373 0
M  V30 2807 C 265.57 -0.959676 -4.39443 0
M  V30 2808 C 266.889 1.12286 -4.25535 0
M  V30 2809 H 264.008 0.0463936 -0.735538 0
M  V30 2810 H 266.65 -0.574197 -1.81116 0
M  V30 2811 H 264.8 0.9536 -3.76615 0
M  V30 2812 H 266.472 -1.59482 -4.32855 0
M  V30 2813 H 264.715 -1.56468 -4.04599 0
M  V30 2814 H 265.386 -0.759394 -5.46752 0
M  V30 2815 H 267.862 0.613545 -4.11552 0
M  V30 2816 H 266.738 1.24598 -5.34571 0
M  V30 2817 H 266.999 2.15048 -3.86273 0
M  V30 2818 N 266.058 1.56714 -0.166846 0
M  V30 2819 C 266.988 2.20754 0.760913 0
M  V30 2820 C 267.969 1.16178 1.24244 0
M  V30 2821 O 269.154 1.44592 1.29641 0
M  V30 2822 C 266.284 2.84478 1.99223 0
M  V30 2823 C 265.238 3.95053 1.64672 0
M  V30 2824 C 264.564 4.45805 2.95232 0
M  V30 2825 C 265.864 5.14865 0.878155 0
M  V30 2826 H 267.558 2.98537 0.22713 0
M  V30 2827 H 265.104 1.43596 0.107805 0
M  V30 2828 H 267.057 3.27951 2.64624 0
M  V30 2829 H 265.781 2.04056 2.55007 0
M  V30 2830 H 264.44 3.52228 1.01641 0
M  V30 2831 H 264.088 3.62181 3.49047 0
M  V30 2832 H 263.788 5.204 2.7287 0
M  V30 2833 H 265.312 4.91962 3.6167 0
M  V30 2834 H 266.726 5.55059 1.43466 0
M  V30 2835 H 265.123 5.95348 0.753738 0
M  V30 2836 H 266.193 4.84735 -0.126377 0
M  V30 2837 N 267.536 -0.106894 1.57237 0
M  V30 2838 C 268.446 -1.14911 2.0453 0
M  V30 2839 C 269.462 -1.44592 0.96795 0
M  V30 2840 O 270.638 -1.55468 1.2803 0
M  V30 2841 C 267.703 -2.45272 2.45036 0
M  V30 2842 C 266.764 -2.22879 3.66911 0
M  V30 2843 C 265.997 -3.47024 4.05475 0
M  V30 2844 O 266.22 -4.54804 3.44252 0
M  V30 2845 O 265.154 -3.3731 4.98504 0
M  V30 2846 H 268.98 -0.777461 2.9358 0
M  V30 2847 H 266.565 -0.318563 1.45964 0
M  V30 2848 H 268.447 -3.22055 2.71769 0
M  V30 2849 H 267.122 -2.81886 1.59129 0
M  V30 2850 H 266.029 -1.43915 3.45311 0
M  V30 2851 H 267.362 -1.91163 4.53561 0
M  V30 2852 N 269.014 -1.53014 -0.377408 0
M  V30 2853 C 269.977 -1.77957 -1.44444 0
M  V30 2854 C 270.977 -0.649763 -1.47087 0
M  V30 2855 O 272.167 -0.917897 -1.48055 0
M  V30 2856 C 269.299 -1.89089 -2.83651 0
M  V30 2857 H 270.492 -2.73243 -1.23606 0
M  V30 2858 H 268.045 -1.43912 -0.609844 0
M  V30 2859 H 268.78 -0.958293 -3.09818 0
M  V30 2860 H 268.565 -2.71254 -2.83132 0
M  V30 2861 H 270.055 -2.1002 -3.60945 0
M  V30 2862 N 270.492 0.636531 -1.44174 0
M  V30 2863 C 271.738 1.39826 -1.4689 0
M  V30 2864 C 272.071 1.93947 -0.0990585 0
M  V30 2865 O 271.346 1.73325 0.882544 0
M  V30 2866 C 271.629 2.56751 -2.5249 0
M  V30 2867 C 271.482 2.08014 -3.98811 0
M  V30 2868 C 272.801 3.58946 -2.54649 0
M  V30 2869 H 269.92 0.507075 -0.53483 0
M  V30 2870 H 272.562 0.720188 -1.75822 0
M  V30 2871 H 270.712 3.14597 -2.2795 0
M  V30 2872 H 272.384 1.5504 -4.34466 0
M  V30 2873 H 270.627 1.39242 -4.10846 0
M  V30 2874 H 271.298 2.92169 -4.68339 0
M  V30 2875 H 273.774 3.1089 -2.76563 0
M  V30 2876 H 272.65 4.38286 -3.3045 0
M  V30 2877 H 272.911 4.12655 -1.58646 0
M  V30 2878 N 271.97 1.30982 0.876444 0
M  V30 2879 C 273.218 1.20058 1.62575 0
M  V30 2880 C 273.539 -0.242947 1.93481 0
M  V30 2881 O 272.809 -1.1619 1.57724 0
M  V30 2882 H 271.389 0.44135 0.602677 0
M  V30 2883 H 274.051 1.64222 1.04962 0
M  V30 2884 H 273.147 1.76762 2.57219 0
M  V30 2885 N 273.449 -1.08991 1.13837 0
M  V30 2886 C 274.726 -1.77863 0.813876 0
M  V30 2887 C 275.106 -1.99375 -0.693746 0
M  V30 2888 O 274.454 -1.59875 -1.63255 0
M  V30 2889 C 274.664 -3.0986 1.60586 0
M  V30 2890 C 276.012 -3.84493 1.8014 0
M  V30 2891 O 277.036 -3.19624 1.57222 0
M  V30 2892 O 275.895 -5.00957 2.18413 0
M  V30 2893 H 272.989 -0.771589 0.297624 0
M  V30 2894 H 275.535 -1.15507 1.24323 0
M  V30 2895 H 274.307 -2.89715 2.63022 0
M  V30 2896 H 273.93 -3.79942 1.17173 0
M  V30 2897 N 274.927 -0.932562 -1.27047 0
M  V30 2898 C 276.175 -0.574422 -1.93765 0
M  V30 2899 C 276.496 0.887993 -1.73608 0
M  V30 2900 O 275.766 1.62999 -1.08665 0
M  V30 2901 H 274.346 -0.209451 -0.717035 0
M  V30 2902 H 277.008 -1.18601 -1.5466 0
M  V30 2903 H 276.104 -0.784841 -3.02071 0
M  V30 2904 N 276.405 1.4127 -0.698611 0
M  V30 2905 C 277.315 2.34573 -0.0357891 0
M  V30 2906 C 278.331 1.56393 0.762701 0
M  V30 2907 O 279.507 1.8886 0.699564 0
M  V30 2908 C 276.572 3.35159 0.887089 0
M  V30 2909 C 275.633 4.29225 0.0804634 0
M  V30 2910 C 274.866 5.25006 0.959387 0
M  V30 2911 O 275.089 5.26314 2.19886 0
M  V30 2912 O 274.023 6.00519 0.407439 0
M  V30 2913 H 277.849 2.92838 -0.804957 0
M  V30 2914 H 275.434 1.42175 -0.458966 0
M  V30 2915 H 277.316 3.9689 1.41621 0
M  V30 2916 H 275.991 2.79333 1.6357 0
M  V30 2917 H 274.898 3.70833 -0.493328 0
M  V30 2918 H 276.231 4.88157 -0.629547 0
M  V30 2919 N 277.883 0.443576 1.51229 0
M  V30 2920 C 279.13 -0.120796 2.02139 0
M  V30 2921 C 279.458 -1.42166 1.32736 0
M  V30 2922 O 278.713 -1.90849 0.43301 0
M  V30 2923 C 279.012 -0.380579 3.55368 0
M  V30 2924 C 278.678 0.83523 4.43097 0
M  V30 2925 C 277.34 1.16864 4.66794 0
M  V30 2926 C 279.692 1.64601 4.94526 0
M  V30 2927 C 277.02 2.31339 5.39165 0
M  V30 2928 C 279.372 2.78181 5.68153 0
M  V30 2929 C 278.036 3.11969 5.90112 0
M  V30 2930 H 277.306 -0.0442023 0.73968 0
M  V30 2931 H 279.953 0.592046 1.82118 0
M  V30 2932 H 278.258 -1.17538 3.73754 0
M  V30 2933 H 279.955 -0.830777 3.923 0
M  V30 2934 H 276.545 0.565437 4.24854 0
M  V30 2935 H 280.729 1.40163 4.76097 0
M  V30 2936 H 275.985 2.57823 5.5438 0
M  V30 2937 H 280.159 3.41371 6.06992 0
M  V30 2938 H 277.786 4.00784 6.45969 0
M  V30 2939 N 279.361 -1.56624 0.175154 0
M  V30 2940 C 280.607 -1.9729 -0.469506 0
M  V30 2941 C 280.94 -1.06128 -1.62636 0
M  V30 2942 O 280.215 -0.109183 -1.94193 0
M  V30 2943 C 280.498 -3.47375 -0.948804 0
M  V30 2944 C 280.351 -4.49317 0.208491 0
M  V30 2945 C 281.67 -4.00652 -1.82116 0
M  V30 2946 H 278.789 -0.717317 -0.16919 0
M  V30 2947 H 281.431 -1.88184 0.262062 0
M  V30 2948 H 279.581 -3.55267 -1.57219 0
M  V30 2949 H 281.253 -4.53482 0.845682 0
M  V30 2950 H 279.496 -4.25121 0.863395 0
M  V30 2951 H 280.167 -5.51741 -0.169059 0
M  V30 2952 H 282.643 -3.95416 -1.2956 0
M  V30 2953 H 281.519 -5.06075 -2.12554 0
M  V30 2954 H 281.78 -3.44699 -2.7683 0
M  V30 2955 N 280.839 0.0985539 -1.57292 0
M  V30 2956 C 281.786 1.11981 -2.01814 0
M  V30 2957 C 282.756 1.39999 -0.89384 0
M  V30 2958 O 283.941 1.5152 -1.15958 0
M  V30 2959 C 281.081 2.43577 -2.44467 0
M  V30 2960 C 280.194 2.2232 -3.70402 0
M  V30 2961 C 279.329 3.4729 -4.01949 0
M  V30 2962 C 278.368 3.2128 -5.21005 0
M  V30 2963 N 277.505 4.38507 -5.48321 0
M  V30 2964 H 282.345 0.733149 -2.88841 0
M  V30 2965 H 279.882 0.350482 -1.42864 0
M  V30 2966 H 281.84 3.20373 -2.6724 0
M  V30 2967 H 280.47 2.80097 -1.60455 0
M  V30 2968 H 279.522 1.36343 -3.55126 0
M  V30 2969 H 280.834 1.99089 -4.57345 0
M  V30 2970 H 279.988 4.32495 -4.25479 0
M  V30 2971 H 278.727 3.73572 -3.13521 0
M  V30 2972 H 277.732 2.34468 -4.97298 0
M  V30 2973 H 278.957 2.96348 -6.11028 0
M  V30 2974 H 276.903 4.64871 -4.62851 0
M  V30 2975 H 276.82 4.18455 -6.29628 0
M  V30 2976 H 278.088 5.24787 -5.76385 0
M  V30 2977 N 282.317 1.53212 0.369288 0
M  V30 2978 C 283.557 1.70915 1.12105 0
M  V30 2979 C 283.921 0.449444 1.86665 0
M  V30 2980 O 285.122 0.503105 2.6405 0
M  V30 2981 C 283.393 2.9222 2.05772 0
M  V30 2982 S 284.952 3.30609 2.88519 0
M  V30 2983 H 281.77 0.601445 0.379189 0
M  V30 2984 H 284.372 1.91306 0.402794 0
M  V30 2985 H 283.076 3.82103 1.49752 0
M  V30 2986 H 282.607 2.7422 2.82076 0
M  V30 2987 H 284.622 2.82333 4.08047 0
M  V30 2988 N 283.795 -0.628877 1.44509 0
M  V30 2989 C 284.725 -1.75187 1.54376 0
M  V30 2990 C 285.706 -1.65411 0.396618 0
M  V30 2991 O 286.891 -1.84137 0.617031 0
M  V30 2992 C 284.021 -3.13725 1.48976 0
M  V30 2993 C 282.975 -3.38291 2.62189 0
M  V30 2994 C 282.301 -4.76883 2.41841 0
M  V30 2995 C 283.601 -3.30632 4.04326 0
M  V30 2996 H 285.295 -1.67187 2.48373 0
M  V30 2997 H 282.841 -0.802909 1.19538 0
M  V30 2998 H 284.794 -3.92064 1.54478 0
M  V30 2999 H 283.518 -3.22515 0.514961 0
M  V30 3000 H 282.177 -2.62334 2.56079 0
M  V30 3001 H 281.825 -4.82378 1.42548 0
M  V30 3002 H 281.525 -4.94278 3.17747 0
M  V30 3003 H 283.049 -5.57449 2.49165 0
M  V30 3004 H 284.463 -3.98873 4.11793 0
M  V30 3005 H 282.86 -3.59561 4.80454 0
M  V30 3006 H 283.93 -2.28404 4.27738 0
M  V30 3007 N 285.273 -1.31445 -0.869486 0
M  V30 3008 C 286.223 -1.15731 -1.96444 0
M  V30 3009 C 287.207 -0.0681855 -1.60755 0
M  V30 3010 O 288.399 -0.293154 -1.74555 0
M  V30 3011 C 285.528 -0.867255 -3.32165 0
M  V30 3012 C 284.614 -1.99738 -3.74119 0
M  V30 3013 N 285.005 -3.24447 -3.88031 0
M  V30 3014 C 283.303 -1.89723 -4.03635 0
M  V30 3015 C 284.004 -3.98374 -4.23879 0
M  V30 3016 N 282.98 -3.26547 -4.3459 0
M  V30 3017 H 286.782 -2.10296 -2.05312 0
M  V30 3018 H 284.296 -1.23009 -1.06031 0
M  V30 3019 H 286.293 -0.735668 -4.10358 0
M  V30 3020 H 284.953 0.0701614 -3.24624 0
M  V30 3021 H 285.964 -3.59557 -3.72746 0
M  V30 3022 H 282.641 -1.03449 -4.04481 0
M  V30 3023 H 284.031 -5.05844 -4.42235 0
M  V30 3024 N 286.751 1.08385 -1.14413 0
M  V30 3025 C 287.976 1.85057 -0.936413 0
M  V30 3026 C 288.401 1.81055 0.509971 0
M  V30 3027 O 287.759 1.1958 1.36273 0
M  V30 3028 C 287.807 3.30505 -1.44217 0
M  V30 3029 O 286.911 4.07491 -0.634409 0
M  V30 3030 H 286.252 0.573425 -0.334784 0
M  V30 3031 H 288.782 1.36799 -1.52142 0
M  V30 3032 H 288.792 3.81348 -1.45043 0
M  V30 3033 H 287.467 3.32734 -2.49522 0
M  V30 3034 H 286.044 3.66368 -0.694902 0
M  V30 3035 N 288.23 0.939286 1.26551 0
M  V30 3036 C 289.476 0.586715 1.94128 0
M  V30 3037 C 289.809 -0.8717 1.73537 0
M  V30 3038 O 289.084 -1.62339 1.07127 0
M  V30 3039 C 289.367 0.927497 3.4795 0
M  V30 3040 C 289.22 2.44052 3.77834 0
M  V30 3041 C 290.539 0.441569 4.37879 0
M  V30 3042 H 287.658 0.21463 0.705055 0
M  V30 3043 H 290.3 1.17316 1.49455 0
M  V30 3044 H 288.45 0.428431 3.8613 0
M  V30 3045 H 290.122 3.01216 3.4938 0
M  V30 3046 H 288.365 2.8848 3.23978 0
M  V30 3047 H 289.036 2.62947 4.85348 0
M  V30 3048 H 291.512 0.869448 4.06915 0
M  V30 3049 H 290.388 0.708856 5.44304 0
M  V30 3050 H 290.649 -0.658467 4.37169 0
M  V30 3051 N 289.708 -1.40897 0.706093 0
M  V30 3052 C 290.956 -2.00657 0.241054 0
M  V30 3053 C 291.277 -1.56241 -1.16678 0
M  V30 3054 O 290.547 -0.79765 -1.78926 0
M  V30 3055 H 289.127 -0.742018 0.0861308 0
M  V30 3056 H 291.789 -1.72372 0.909604 0
M  V30 3057 H 290.885 -3.10958 0.266705 0
M  V30 3058 N 291.186 -0.45159 -1.50991 0
M  V30 3059 C 292.426 0.109066 -2.04109 0
M  V30 3060 C 292.79 1.38716 -1.32747 0
M  V30 3061 O 293.991 2.02896 -1.76314 0
M  V30 3062 C 292.262 0.308354 -3.56067 0
M  V30 3063 S 293.821 0.830369 -4.30872 0
M  V30 3064 H 290.639 0.0251531 -0.710555 0
M  V30 3065 H 293.241 -0.614264 -1.85599 0
M  V30 3066 H 291.945 -0.627962 -4.05567 0
M  V30 3067 H 291.476 1.05836 -3.78896 0
M  V30 3068 H 293.491 2.10626 -4.49279 0
M  V30 3069 N 292.664 1.56529 -0.183458 0
M  V30 3070 C 294.075 1.83739 0.331177 0
M  V30 3071 C 294.426 1.10373 1.62211 0
M  V30 3072 O 293.551 0.36071 2.13373 0
M  V30 3073 C 294.146 3.33306 0.607646 0
M  V30 3074 C 292.705 3.60969 1.06668 0
M  V30 3075 C 291.852 2.77086 0.109029 0
M  V30 3076 H 294.803 1.53379 -0.407484 0
M  V30 3077 H 294.824 3.51444 1.45832 0
M  V30 3078 H 294.336 3.86677 -0.332086 0
M  V30 3079 H 292.437 3.13021 2.0211 0
M  V30 3080 H 292.55 4.69231 0.967447 0
M  V30 3081 H 290.914 2.47319 0.608714 0
M  V30 3082 H 291.697 3.33241 -0.82494 0
M  V30 3083 N 294.142 -0.090211 1.57342 0
M  V30 3084 C 295.072 -1.10976 2.05443 0
M  V30 3085 C 296.053 -1.41482 0.944284 0
M  V30 3086 O 297.238 -1.51428 1.21586 0
M  V30 3087 C 294.368 -2.42831 2.48295 0
M  V30 3088 C 293.322 -2.26721 3.63018 0
M  V30 3089 C 292.648 -3.63796 3.91863 0
M  V30 3090 C 293.948 -1.7037 4.93732 0
M  V30 3091 H 295.642 -0.709564 2.9087 0
M  V30 3092 H 293.188 -0.339874 1.39932 0
M  V30 3093 H 295.141 -3.14431 2.80555 0
M  V30 3094 H 293.865 -2.84795 1.59873 0
M  V30 3095 H 292.524 -1.57565 3.31012 0
M  V30 3096 H 292.172 -4.03297 3.00601 0
M  V30 3097 H 291.872 -3.53861 4.69101 0
M  V30 3098 H 293.396 -4.36855 4.26603 0
M  V30 3099 H 294.81 -2.31816 5.24342 0
M  V30 3100 H 293.207 -1.71181 5.75167 0
M  V30 3101 H 294.277 -0.663542 4.80339 0
M  V30 3102 N 295.62 -1.53406 -0.361157 0
M  V30 3103 C 297.031 -1.61442 -0.937728 0
M  V30 3104 C 297.382 -0.48461 -1.90121 0
M  V30 3105 O 296.507 0.388312 -2.12888 0
M  V30 3106 C 297.102 -2.92624 -1.70753 0
M  V30 3107 C 295.661 -3.02981 -2.23337 0
M  V30 3108 C 294.808 -2.5677 -1.04712 0
M  V30 3109 H 297.759 -1.58083 -0.139816 0
M  V30 3110 H 297.78 -2.80675 -2.56908 0
M  V30 3111 H 297.292 -3.74834 -1.00604 0
M  V30 3112 H 295.393 -2.25368 -2.96715 0
M  V30 3113 H 295.506 -4.0814 -2.50916 0
M  V30 3114 H 293.87 -2.11752 -1.41539 0
M  V30 3115 H 294.653 -3.41402 -0.360539 0
M  V30 3116 N 297.098 0.621204 -1.44841 0
M  V30 3117 C 298.028 1.74366 -1.55303 0
M  V30 3118 C 299.009 1.65199 -0.405385 0
M  V30 3119 O 300.194 1.83807 -0.626787 0
M  V30 3120 C 297.324 3.12931 -1.50637 0
M  V30 3121 C 296.278 3.36896 -2.63979 0
M  V30 3122 C 295.604 4.75594 -2.44366 0
M  V30 3123 C 296.904 3.28483 -4.06074 0
M  V30 3124 H 298.598 1.65867 -2.49256 0
M  V30 3125 H 296.144 0.796558 -1.19962 0
M  V30 3126 H 298.097 3.9124 -1.56555 0
M  V30 3127 H 296.821 3.22237 -0.532057 0
M  V30 3128 H 295.48 2.60972 -2.57467 0
M  V30 3129 H 295.128 4.81616 -1.45105 0
M  V30 3130 H 294.828 4.92586 -3.20364 0
M  V30 3131 H 296.352 5.5612 -2.52117 0
M  V30 3132 H 297.766 3.96684 -4.13902 0
M  V30 3133 H 296.163 3.57008 -4.82354 0
M  V30 3134 H 297.233 2.26133 -4.28943 0
M  V30 3135 N 298.576 1.31904 0.862503 0
M  V30 3136 C 299.508 1.16005 1.97675 0
M  V30 3137 C 300.521 0.0971234 1.6251 0
M  V30 3138 O 301.71 0.345337 1.75128 0
M  V30 3139 C 298.81 0.751791 3.30456 0
M  V30 3140 C 297.983 1.90133 3.93914 0
M  V30 3141 C 297.042 1.4779 5.05019 0
M  V30 3142 O 296.068 2.18872 5.25437 0
M  V30 3143 N 297.27 0.369491 5.79323 0
M  V30 3144 H 300.035 2.11982 2.11857 0
M  V30 3145 H 297.596 1.24337 1.03691 0
M  V30 3146 H 299.588 0.451084 4.02178 0
M  V30 3147 H 298.158 -0.116593 3.12382 0
M  V30 3148 H 297.378 2.36896 3.15078 0
M  V30 3149 H 298.666 2.67111 4.33047 0
M  V30 3150 H 298.064 -0.222299 5.65263 0
M  V30 3151 H 296.621 0.128354 6.51674 0
M  V30 3152 N 300.054 -1.07777 1.14986 0
M  V30 3153 C 301.001 -2.14867 0.842672 0
M  V30 3154 C 301.971 -1.6486 -0.202552 0
M  V30 3155 O 303.156 -1.90668 -0.0710568 0
M  V30 3156 C 300.296 -3.43486 0.333363 0
M  V30 3157 C 299.409 -4.07306 1.43965 0
M  V30 3158 C 298.544 -5.23744 0.886914 0
M  V30 3159 C 297.583 -5.79517 1.97043 0
M  V30 3160 N 296.72 -6.87291 1.4344 0
M  V30 3161 H 301.56 -2.40485 1.75986 0
M  V30 3162 H 299.097 -1.1801 0.878179 0
M  V30 3163 H 301.055 -4.17195 0.0198163 0
M  V30 3164 H 299.685 -3.18133 -0.546916 0
M  V30 3165 H 298.737 -3.31293 1.86946 0
M  V30 3166 H 300.049 -4.44771 2.25788 0
M  V30 3167 H 299.203 -6.04419 0.525651 0
M  V30 3168 H 297.942 -4.87685 0.0377957 0
M  V30 3169 H 296.947 -4.97491 2.34057 0
M  V30 3170 H 298.172 -6.17632 2.82325 0
M  V30 3171 H 296.118 -6.5318 0.607567 0
M  V30 3172 H 296.035 -7.23617 2.18895 0
M  V30 3173 H 297.303 -7.71682 1.10124 0
M  V30 3174 N 301.532 -0.945985 -1.26051 0
M  V30 3175 C 302.943 -0.638096 -1.75457 0
M  V30 3176 C 303.294 0.846672 -1.76991 0
M  V30 3177 O 302.419 1.66262 -1.38513 0
M  V30 3178 C 303.014 -1.15157 -3.18629 0
M  V30 3179 C 301.573 -0.894004 -3.65629 0
M  V30 3180 C 300.72 -1.29967 -2.44957 0
M  V30 3181 H 303.671 -1.12376 -1.1206 0
M  V30 3182 H 303.692 -0.507615 -3.77099 0
M  V30 3183 H 303.204 -2.23222 -3.1748 0
M  V30 3184 H 301.305 0.172057 -3.72203 0
M  V30 3185 H 301.418 -1.52439 -4.54202 0
M  V30 3186 H 299.782 -0.718078 -2.44368 0
M  V30 3187 H 300.565 -2.38935 -2.46505 0
M  V30 3188 N 303.011 1.40521 -0.713556 0
M  V30 3189 C 303.941 2.33381 -0.0743864 0
M  V30 3190 C 304.922 1.52784 0.747735 0
M  V30 3191 O 306.107 1.81258 0.697071 0
M  V30 3192 C 303.237 3.36748 0.849598 0
M  V30 3193 C 302.191 4.27793 0.133247 0
M  V30 3194 C 301.517 5.21679 1.17281 0
M  V30 3195 C 302.817 5.12415 -1.01134 0
M  V30 3196 H 304.511 2.87081 -0.850007 0
M  V30 3197 H 302.057 1.38034 -0.410201 0
M  V30 3198 H 304.01 4.00648 1.30612 0
M  V30 3199 H 302.734 2.81439 1.65709 0
M  V30 3200 H 301.393 3.65342 -0.303426 0
M  V30 3201 H 301.041 4.62677 1.9733 0
M  V30 3202 H 300.741 5.83435 0.698397 0
M  V30 3203 H 302.265 5.88456 1.62947 0
M  V30 3204 H 303.679 5.69781 -0.634274 0
M  V30 3205 H 302.076 5.83203 -1.41399 0
M  V30 3206 H 303.146 4.48514 -1.84292 0
M  V30 3207 N 304.489 0.459591 1.5075 0
M  V30 3208 C 305.735 -0.0994966 2.02556 0
M  V30 3209 C 306.068 -1.40399 1.3417 0
M  V30 3210 O 305.343 -1.88892 0.463683 0
M  V30 3211 C 305.626 -0.295242 3.58888 0
M  V30 3212 C 305.479 1.02947 4.37861 0
M  V30 3213 C 306.798 -1.05502 4.27267 0
M  V30 3214 H 303.917 -0.034686 0.736183 0
M  V30 3215 H 306.559 0.602938 1.8018 0
M  V30 3216 H 304.709 -0.893563 3.78084 0
M  V30 3217 H 306.381 1.66348 4.30263 0
M  V30 3218 H 304.624 1.62885 4.02058 0
M  V30 3219 H 305.295 0.846281 5.45474 0
M  V30 3220 H 307.771 -0.547993 4.12476 0
M  V30 3221 H 306.647 -1.16077 5.36486 0
M  V30 3222 H 306.908 -2.08875 3.89645 0
M  V30 3223 N 305.967 -1.56429 0.191757 0
M  V30 3224 C 306.915 -2.20273 -0.747174 0
M  V30 3225 C 307.909 -1.17288 -1.22229 0
M  V30 3226 O 309.115 -1.35441 -1.18557 0
M  V30 3227 H 305.49 -0.705885 -0.259289 0
M  V30 3228 H 307.461 -2.97826 -0.184963 0
M  V30 3229 C 306.21 -2.87356 -1.95759 0
M  V30 3230 H 305.533 -3.66341 -1.60106 0
M  V30 3231 H 306.973 -3.3547 -2.59299 0
M  V30 3232 C 305.432 -1.88213 -2.79423 0
M  V30 3233 O 305.962 -1.38033 -3.7724 0
M  V30 3234 N 304.168 -1.56516 -2.44849 0
M  V30 3235 H 303.715 -1.97516 -1.65364 0
M  V30 3236 H 303.673 -0.904369 -3.01112 0
M  V30 3237 N 307.445 0.0818655 -1.57387 0
M  V30 3238 C 308.393 1.11712 -2.04018 0
M  V30 3239 C 309.387 1.40683 -0.94364 0
M  V30 3240 O 310.593 1.40209 -1.12878 0
M  V30 3241 H 306.968 0.377542 -0.650358 0
M  V30 3242 H 308.939 0.697614 -2.90131 0
M  V30 3243 C 307.688 2.42537 -2.49141 0
M  V30 3244 H 307.011 2.21092 -3.33104 0
M  V30 3245 H 308.451 3.13446 -2.85531 0
M  V30 3246 C 306.91 3.0778 -1.37014 0
M  V30 3247 O 307.44 3.95436 -0.706621 0
M  V30 3248 N 305.646 2.68242 -1.11779 0
M  V30 3249 H 305.193 1.97052 -1.65917 0
M  V30 3250 H 305.151 3.1222 -0.369594 0
M  V30 3251 N 308.923 1.53595 0.353017 0
M  V30 3252 C 310.169 1.71581 1.09232 0
M  V30 3253 C 310.524 0.468328 1.86613 0
M  V30 3254 O 309.817 -0.538911 1.83865 0
M  V30 3255 C 310.011 2.91313 2.07054 0
M  V30 3256 C 309.84 4.27585 1.39287 0
M  V30 3257 C 308.61 4.92233 1.1417 0
M  V30 3258 C 310.808 5.07656 0.824005 0
M  V30 3259 N 308.79 6.124 0.428841 0
M  V30 3260 C 310.161 6.19531 0.241195 0
M  V30 3261 C 312.216 4.92609 0.723922 0
M  V30 3262 C 310.919 7.18002 -0.431952 0
M  V30 3263 C 312.945 5.91365 0.0645334 0
M  V30 3264 C 312.307 7.02571 -0.507347 0
M  V30 3265 H 308.406 0.680987 0.384422 0
M  V30 3266 H 310.99 1.91013 0.377096 0
M  V30 3267 H 309.161 2.73398 2.75877 0
M  V30 3268 H 310.893 2.98062 2.73753 0
M  V30 3269 H 307.648 4.51612 1.42631 0
M  V30 3270 H 308.072 6.76944 0.0874131 0
M  V30 3271 H 312.714 4.06808 1.15181 0
M  V30 3272 H 310.432 8.03384 -0.871758 0
M  V30 3273 H 314.018 5.81799 -0.0121469 0
M  V30 3274 H 312.898 7.77675 -1.0095 0
M  V30 3275 N 310.401 -0.613514 1.45168 0
M  V30 3276 C 311.812 -1.19539 1.43413 0
M  V30 3277 C 312.163 -1.95558 0.158632 0
M  V30 3278 O 311.288 -2.0335 -0.740119 0
M  V30 3279 C 311.883 -2.17445 2.59813 0
M  V30 3280 C 310.442 -2.71022 2.61197 0
M  V30 3281 C 309.589 -1.46323 2.35552 0
M  V30 3282 H 312.54 -0.403163 1.53494 0
M  V30 3283 H 312.561 -3.00373 2.33574 0
M  V30 3284 H 312.073 -1.62089 3.52631 0
M  V30 3285 H 310.174 -3.30332 1.7237 0
M  V30 3286 H 310.287 -3.15859 3.60236 0
M  V30 3287 H 308.651 -1.75072 1.84992 0
M  V30 3288 H 309.434 -0.92844 3.30507 0
M  V30 3289 N 311.879 -1.3236 -0.855495 0
M  V30 3290 C 313.119 -1.24187 -1.62348 0
M  V30 3291 C 313.483 0.193597 -1.91021 0
M  V30 3292 O 314.684 0.39904 -2.65822 0
M  V30 3293 C 312.955 -2.07661 -2.90881 0
M  V30 3294 S 314.514 -2.16505 -3.81669 0
M  V30 3295 H 311.332 -0.442076 -0.556857 0
M  V30 3296 H 313.934 -1.67198 -1.01317 0
M  V30 3297 H 312.638 -3.11018 -2.67761 0
M  V30 3298 H 312.169 -1.65425 -3.56929 0
M  V30 3299 H 314.184 -1.31394 -4.78487 0
M  V30 3300 N 313.357 1.07166 -1.15556 0
M  V30 3301 C 314.305 2.16517 -0.8499 0
M  V30 3302 C 315.299 1.68468 0.177454 0
M  V30 3303 O 316.505 1.79971 0.0323026 0
M  V30 3304 H 312.88 0.706652 -0.25719 0
M  V30 3305 H 314.851 2.39514 -1.77976 0
M  V30 3306 C 313.6 3.45855 -0.357682 0
M  V30 3307 H 312.923 3.83214 -1.13961 0
M  V30 3308 H 314.363 4.23607 -0.182489 0
M  V30 3309 C 312.822 3.24062 0.921152 0
M  V30 3310 O 313.352 3.48813 1.9923 0
M  V30 3311 N 311.558 2.77539 0.86141 0
M  V30 3312 H 311.105 2.57598 -0.0104408 0
M  V30 3313 H 311.063 2.63337 1.71758 0
M  V30 3314 N 314.835 0.952656 1.25548 0
M  V30 3315 C 316.246 0.647392 1.75116 0
M  V30 3316 C 316.597 -0.837274 1.77438 0
M  V30 3317 O 315.722 -1.65525 1.39393 0
M  V30 3318 C 316.317 1.16845 3.18014 0
M  V30 3319 C 314.876 0.913382 3.6515 0
M  V30 3320 C 314.023 1.31265 2.44264 0
M  V30 3321 H 316.974 1.12968 1.11462 0
M  V30 3322 H 316.995 0.527606 3.76824 0
M  V30 3323 H 316.507 2.24902 3.16292 0
M  V30 3324 H 314.608 -0.152316 3.72289 0
M  V30 3325 H 314.721 1.54845 4.53387 0
M  V30 3326 H 313.085 0.731028 2.43984 0
M  V30 3327 H 313.868 2.40239 2.45234 0
M  V30 3328 N 316.313 -1.40141 0.720998 0
M  V30 3329 C 317.223 -2.34486 0.0731031 0
M  V30 3330 C 318.239 -1.57587 -0.737723 0
M  V30 3331 O 319.415 -1.89949 -0.669429 0
M  V30 3332 C 316.48 -3.36528 -0.833656 0
M  V30 3333 C 315.541 -4.29298 -0.0121673 0
M  V30 3334 C 314.774 -5.26466 -0.875742 0
M  V30 3335 O 314.997 -5.29745 -2.11485 0
M  V30 3336 O 313.931 -6.01092 -0.31185 0
M  V30 3337 H 317.757 -2.9152 0.851444 0
M  V30 3338 H 315.342 -1.41427 0.481527 0
M  V30 3339 H 317.224 -3.99093 -1.35289 0
M  V30 3340 H 315.899 -2.81899 -1.59105 0
M  V30 3341 H 314.806 -3.70001 0.552262 0
M  V30 3342 H 316.139 -4.87094 0.707129 0
M  V30 3343 N 317.792 -0.46758 -1.50504 0
M  V30 3344 C 318.722 0.318381 -2.31319 0
M  V30 3345 C 319.703 0.993564 -1.38066 0
M  V30 3346 O 320.888 0.991411 -1.66987 0
M  V30 3347 C 318.018 1.40275 -3.17711 0
M  V30 3348 C 316.972 0.849373 -4.19487 0
M  V30 3349 C 316.298 2.03177 -4.94594 0
M  V30 3350 C 317.598 -0.136942 -5.2212 0
M  V30 3351 H 319.292 -0.356106 -2.97275 0
M  V30 3352 H 316.838 -0.172703 -1.42961 0
M  V30 3353 H 318.791 1.96004 -3.73042 0
M  V30 3354 H 317.515 2.10596 -2.49634 0
M  V30 3355 H 316.174 0.314076 -3.65252 0
M  V30 3356 H 315.822 2.72187 -4.22993 0
M  V30 3357 H 315.522 1.66774 -5.63436 0
M  V30 3358 H 317.046 2.59403 -5.52759 0
M  V30 3359 H 318.46 0.331056 -5.72343 0
M  V30 3360 H 316.857 -0.41507 -5.98663 0
M  V30 3361 H 317.927 -1.06398 -4.73083 0
M  V30 3362 N 319.27 1.56325 -0.20005 0
M  V30 3363 C 320.498 2.02105 0.442874 0
M  V30 3364 C 320.913 1.08014 1.5485 0
M  V30 3365 O 320.27 0.0858797 1.82298 0
M  V30 3366 C 320.321 3.47549 0.994583 0
M  V30 3367 O 320.042 4.38049 -0.0669322 0
M  V30 3368 C 321.543 4.0887 1.7129 0
M  V30 3369 H 318.763 0.661807 0.110691 0
M  V30 3370 H 321.307 2.02134 -0.310207 0
M  V30 3371 H 319.462 3.48204 1.69803 0
M  V30 3372 H 319.876 5.23368 0.344462 0
M  V30 3373 H 321.35 5.12475 2.05118 0
M  V30 3374 H 321.827 3.52615 2.61838 0
M  V30 3375 H 322.433 4.12002 1.05518 0
M  V30 3376 N 320.748 -0.0735177 1.57428 0
M  V30 3377 C 321.678 -1.0879 2.06608 0
M  V30 3378 C 322.659 -1.40473 0.959237 0
M  V30 3379 O 323.844 -1.5013 1.23185 0
M  V30 3380 C 320.974 -2.40183 2.50857 0
M  V30 3381 C 319.928 -2.22858 3.65402 0
M  V30 3382 C 319.254 -3.59619 3.957 0
M  V30 3383 C 320.554 -1.65123 4.95511 0
M  V30 3384 H 322.248 -0.678673 2.91607 0
M  V30 3385 H 319.794 -0.325013 1.40284 0
M  V30 3386 H 321.747 -3.11437 2.83874 0
M  V30 3387 H 320.471 -2.83083 1.62885 0
M  V30 3388 H 319.13 -1.54045 3.32664 0
M  V30 3389 H 318.778 -4.00086 3.04861 0
M  V30 3390 H 318.478 -3.48866 4.72828 0
M  V30 3391 H 320.002 -4.32306 4.31212 0
M  V30 3392 H 321.416 -2.26241 5.26771 0
M  V30 3393 H 319.813 -1.65071 5.7695 0
M  V30 3394 H 320.883 -0.612559 4.81015 0
M  V30 3395 N 322.226 -1.5378 -0.344866 0
M  V30 3396 C 323.475 -1.7018 -1.08267 0
M  V30 3397 C 323.788 -0.471 -1.89845 0
M  V30 3398 O 324.994 -0.515917 -2.66553 0
M  V30 3399 C 323.45 -3.00923 -1.97417 0
M  V30 3400 C 323.058 -4.31335 -1.21053 0
M  V30 3401 C 324.802 -3.26688 -2.71063 0
M  V30 3402 C 322.709 -5.53153 -2.09225 0
M  V30 3403 H 321.639 -0.634138 -0.407903 0
M  V30 3404 H 324.29 -1.8028 -0.342246 0
M  V30 3405 H 322.672 -2.84676 -2.75274 0
M  V30 3406 H 323.846 -4.58281 -0.481159 0
M  V30 3407 H 322.161 -4.12173 -0.591813 0
M  V30 3408 H 324.758 -4.1489 -3.37299 0
M  V30 3409 H 325.101 -2.43639 -3.37558 0
M  V30 3410 H 325.634 -3.43705 -2.0028 0
M  V30 3411 H 322.373 -6.38741 -1.47274 0
M  V30 3412 H 321.893 -5.30458 -2.79955 0
M  V30 3413 H 323.572 -5.88744 -2.68308 0
M  V30 3414 N 323.704 0.605807 -1.45491 0
M  V30 3415 C 324.667 1.69836 -1.5391 0
M  V30 3416 C 325.667 1.55261 -0.418424 0
M  V30 3417 O 326.857 1.60296 -0.681965 0
M  V30 3418 C 323.989 3.09117 -1.43734 0
M  V30 3419 H 325.182 1.63738 -2.51257 0
M  V30 3420 H 322.735 0.821689 -1.32959 0
M  V30 3421 H 323.47 3.20791 -0.475788 0
M  V30 3422 H 323.255 3.21104 -2.25021 0
M  V30 3423 H 324.745 3.88696 -1.52661 0
M  V30 3424 N 325.182 1.32811 0.848464 0
M  V30 3425 C 326.132 1.18842 1.94578 0
M  V30 3426 C 327.116 0.0937517 1.60627 0
M  V30 3427 O 328.308 0.320887 1.74067 0
M  V30 3428 C 325.437 0.91999 3.30743 0
M  V30 3429 C 324.523 2.05665 3.70894 0
M  V30 3430 N 324.914 3.30579 3.8282 0
M  V30 3431 C 323.212 1.9612 4.00566 0
M  V30 3432 C 323.913 4.05067 4.17487 0
M  V30 3433 N 322.889 3.33419 4.2934 0
M  V30 3434 H 326.691 2.13536 2.0194 0
M  V30 3435 H 324.205 1.2468 1.0406 0
M  V30 3436 H 326.202 0.800859 4.09136 0
M  V30 3437 H 324.862 -0.0185076 3.24695 0
M  V30 3438 H 325.873 3.65441 3.66978 0
M  V30 3439 H 322.55 1.09871 4.02784 0
M  V30 3440 H 323.94 5.12815 4.34131 0
M  V30 3441 N 326.66 -1.06551 1.16123 0
M  V30 3442 C 327.59 -2.15935 0.88851 0
M  V30 3443 C 328.571 -1.69306 -0.164135 0
M  V30 3444 O 329.756 -1.94193 -0.0167857 0
M  V30 3445 C 326.886 -3.45149 0.385942 0
M  V30 3446 C 325.84 -4.05271 1.3762 0
M  V30 3447 C 325.166 -5.29664 0.732137 0
M  V30 3448 C 326.466 -4.44355 2.74493 0
M  V30 3449 H 328.16 -2.39006 1.80323 0
M  V30 3450 H 325.706 -1.14866 0.868435 0
M  V30 3451 H 327.659 -4.21004 0.182647 0
M  V30 3452 H 326.383 -3.21689 -0.564274 0
M  V30 3453 H 325.042 -3.3147 1.56599 0
M  V30 3454 H 324.69 -5.02499 -0.224483 0
M  V30 3455 H 324.39 -5.70848 1.39307 0
M  V30 3456 H 325.914 -6.08218 0.538802 0
M  V30 3457 H 327.328 -5.11303 2.59311 0
M  V30 3458 H 325.725 -4.96515 3.37035 0
M  V30 3459 H 326.795 -3.55339 3.29943 0
M  V30 3460 N 328.138 -0.959301 -1.25041 0
M  V30 3461 C 329.549 -0.65667 -1.74771 0
M  V30 3462 C 329.9 0.827852 -1.77879 0
M  V30 3463 O 329.025 1.64783 -1.40269 0
M  V30 3464 C 329.62 -1.1853 -3.1739 0
M  V30 3465 C 328.179 -0.932734 -3.6466 0
M  V30 3466 C 327.326 -1.32558 -2.43564 0
M  V30 3467 H 330.277 -1.13558 -1.10862 0
M  V30 3468 H 330.298 -0.547582 -3.76539 0
M  V30 3469 H 329.81 -2.26576 -3.15095 0
M  V30 3470 H 327.911 0.13257 -3.72364 0
M  V30 3471 H 328.024 -1.57248 -4.52559 0
M  V30 3472 H 326.388 -0.743956 -2.43593 0
M  V30 3473 H 327.171 -2.41537 -2.43957 0
M  V30 3474 N 329.616 1.39756 -0.72842 0
M  V30 3475 C 330.893 1.94574 -0.200079 0
M  V30 3476 C 331.273 1.66569 1.29684 0
M  V30 3477 O 330.621 0.990326 2.05924 0
M  V30 3478 C 330.831 3.45004 -0.526608 0
M  V30 3479 C 332.179 4.21965 -0.472318 0
M  V30 3480 O 333.203 3.53173 -0.463413 0
M  V30 3481 O 332.062 5.44552 -0.461075 0
M  V30 3482 H 329.156 0.826289 -0.0342851 0
M  V30 3483 H 331.702 1.49293 -0.806829 0
M  V30 3484 H 330.474 3.58796 -1.56144 0
M  V30 3485 H 330.097 3.97449 0.109449 0
M  V30 3486 N 331.094 0.475555 1.50254 0
M  V30 3487 C 332.51 0.12997 1.5907 0
M  V30 3488 C 332.71 -1.36385 1.48328 0
M  V30 3489 O 331.766 -2.13754 1.34407 0
M  V30 3490 C 333.079 0.684139 2.92814 0
M  V30 3491 C 334.627 0.647965 3.0622 0
M  V30 3492 C 335.102 1.17975 4.42545 0
M  V30 3493 N 336.593 1.13936 4.48969 0
M  V30 3494 C 337.328 1.52129 5.52851 0
M  V30 3495 N 336.824 1.97793 6.63965 0
M  V30 3496 N 338.617 1.43704 5.4342 0
M  V30 3497 H 330.768 1.44706 1.55479 0
M  V30 3498 H 333.031 0.598691 0.735033 0
M  V30 3499 H 332.737 1.73079 3.06164 0
M  V30 3500 H 332.611 0.130204 3.76975 0
M  V30 3501 H 334.998 -0.38979 2.92514 0
M  V30 3502 H 335.079 1.23876 2.23805 0
M  V30 3503 H 334.723 2.21616 4.57 0
M  V30 3504 H 334.653 0.565138 5.23559 0
M  V30 3505 H 337.144 0.804488 3.69238 0
M  V30 3506 H 337.457 2.25072 7.39299 0
M  V30 3507 H 335.802 2.01749 6.65073 0
M  V30 3508 H 338.993 1.07867 4.55502 0
M  V30 3509 H 339.166 1.73794 6.24259 0
M  V30 3510 N 332.573 -1.56217 0.208337 0
M  V30 3511 C 333.989 -1.58919 -0.14729 0
M  V30 3512 C 334.189 -1.22486 -1.59998 0
M  V30 3513 O 333.245 -0.953849 -2.3379 0
M  V30 3514 C 334.558 -3.00236 0.167048 0
M  V30 3515 C 336.106 -3.12813 0.108219 0
M  V30 3516 C 336.581 -4.56284 0.396049 0
M  V30 3517 N 338.072 -4.61912 0.345142 0
M  V30 3518 C 338.807 -5.70837 0.541523 0
M  V30 3519 N 338.303 -6.88178 0.798968 0
M  V30 3520 N 340.096 -5.60091 0.474867 0
M  V30 3521 H 332.247 -1.78177 1.15614 0
M  V30 3522 H 334.51 -0.827555 0.462446 0
M  V30 3523 H 334.216 -3.31499 1.1748 0
M  V30 3524 H 334.09 -3.7354 -0.524184 0
M  V30 3525 H 336.477 -2.81354 -0.890157 0
M  V30 3526 H 336.558 -2.41866 0.832729 0
M  V30 3527 H 336.202 -4.88458 1.3918 0
M  V30 3528 H 336.132 -5.25439 -0.349502 0
M  V30 3529 H 338.623 -3.77589 0.153316 0
M  V30 3530 H 338.936 -7.67095 0.93727 0
M  V30 3531 H 337.281 -6.89953 0.836013 0
M  V30 3532 H 340.472 -4.67297 0.274064 0
M  V30 3533 H 340.645 -6.44917 0.631326 0
M  V30 3534 N 334.051 0.0651679 -1.57465 0
M  V30 3535 C 334.961 1.09448 -2.07505 0
M  V30 3536 C 335.977 1.41974 -1.00595 0
M  V30 3537 O 337.153 1.52018 -1.32107 0
M  V30 3538 C 334.218 2.38689 -2.51453 0
M  V30 3539 C 333.279 2.13073 -3.72691 0
M  V30 3540 C 332.512 3.36152 -4.14533 0
M  V30 3541 O 332.735 4.45517 -3.56189 0
M  V30 3542 O 331.669 3.23974 -5.07272 0
M  V30 3543 H 335.495 0.69935 -2.95538 0
M  V30 3544 H 333.08 0.279752 -1.46757 0
M  V30 3545 H 334.962 3.14736 -2.80212 0
M  V30 3546 H 333.637 2.77568 -1.66546 0
M  V30 3547 H 332.544 1.34709 -3.49005 0
M  V30 3548 H 333.877 1.79071 -4.5847 0
M  V30 3549 N 335.529 1.53961 0.336706 0
M  V30 3550 C 336.778 1.70751 1.07363 0
M  V30 3551 C 337.091 0.481061 1.89592 0
M  V30 3552 O 338.297 0.530046 2.66276 0
M  V30 3553 C 336.753 3.01965 1.95818 0
M  V30 3554 C 336.361 4.31971 1.18764 0
M  V30 3555 C 338.105 3.28121 2.69327 0
M  V30 3556 C 336.012 5.54255 2.06289 0
M  V30 3557 H 334.942 0.636292 0.404535 0
M  V30 3558 H 337.593 1.80459 0.332681 0
M  V30 3559 H 335.975 2.86132 2.7376 0
M  V30 3560 H 337.149 4.5853 0.456849 0
M  V30 3561 H 335.464 4.12481 0.569946 0
M  V30 3562 H 338.061 4.16673 3.35094 0
M  V30 3563 H 338.404 2.45426 3.36261 0
M  V30 3564 H 338.937 3.44762 1.98454 0
M  V30 3565 H 335.676 6.39513 1.43885 0
M  V30 3566 H 335.196 5.31935 2.77138 0
M  V30 3567 H 336.875 5.90159 2.65182 0
M  V30 3568 N 337.007 -0.598083 1.45811 0
M  V30 3569 C 338.256 -1.35295 1.49594 0
M  V30 3570 C 338.569 -1.95057 0.145679 0
M  V30 3571 O 339.775 -2.71431 0.0612099 0
M  V30 3572 C 338.231 -2.45124 2.63519 0
M  V30 3573 C 337.839 -1.91732 4.04899 0
M  V30 3574 C 339.583 -3.2205 2.76558 0
M  V30 3575 C 337.49 -2.991 5.1019 0
M  V30 3576 H 336.42 -0.508552 0.556679 0
M  V30 3577 H 339.071 -0.639977 1.71978 0
M  V30 3578 H 337.453 -3.19149 2.34435 0
M  V30 3579 H 338.627 -1.24352 4.43704 0
M  V30 3580 H 336.942 -1.27522 3.96393 0
M  V30 3581 H 339.539 -4.0215 3.52391 0
M  V30 3582 H 339.882 -3.73663 1.83526 0
M  V30 3583 H 340.415 -2.55127 3.05213 0
M  V30 3584 H 337.154 -2.52393 6.04961 0
M  V30 3585 H 336.674 -3.65017 4.75944 0
M  V30 3586 H 338.353 -3.63318 5.35359 0
M  V30 3587 N 338.485 -1.33259 -0.841409 0
M  V30 3588 C 339.71 -1.2775 -1.63385 0
M  V30 3589 C 340.135 0.149188 -1.87507 0
M  V30 3590 O 339.493 1.10498 -1.43736 0
M  V30 3591 C 339.541 -2.05571 -2.96265 0
M  V30 3592 O 338.645 -1.41257 -3.87453 0
M  V30 3593 H 337.986 -0.439627 -0.497618 0
M  V30 3594 H 340.516 -1.75782 -1.04699 0
M  V30 3595 H 340.526 -2.16241 -3.45982 0
M  V30 3596 H 339.201 -3.09309 -2.7803 0
M  V30 3597 H 337.778 -1.39217 -3.45938 0
M  V30 3598 N 339.963 1.05934 -1.16686 0
M  V30 3599 C 341.21 1.788 -0.950622 0
M  V30 3600 C 341.538 1.87384 0.521305 0
M  V30 3601 O 340.793 1.36438 1.40297 0
M  V30 3602 C 341.092 3.23105 -1.52767 0
M  V30 3603 C 340.758 3.34594 -3.02254 0
M  V30 3604 C 339.42 3.37437 -3.43059 0
M  V30 3605 C 341.772 3.36219 -3.98254 0
M  V30 3606 C 339.1 3.39525 -4.78477 0
M  V30 3607 C 341.452 3.39845 -5.33562 0
M  V30 3608 C 340.116 3.40971 -5.73842 0
M  V30 3609 H 339.386 0.654275 -0.347857 0
M  V30 3610 H 342.033 1.24555 -1.45459 0
M  V30 3611 H 340.338 3.80227 -0.94524 0
M  V30 3612 H 342.035 3.7809 -1.336 0
M  V30 3613 H 338.625 3.3309 -2.6972 0
M  V30 3614 H 342.809 3.33231 -3.67792 0
M  V30 3615 H 338.065 3.38703 -5.09009 0
M  V30 3616 H 342.239 3.4005 -6.07733 0
M  V30 3617 H 339.866 3.42342 -6.78753 0
M  V30 3618 N 341.441 0.965919 1.2453 0
M  V30 3619 C 342.689 0.625593 1.92174 0
M  V30 3620 C 343.01 -0.841652 1.75901 0
M  V30 3621 O 342.28 -1.60061 1.12948 0
M  V30 3622 H 340.86 0.228388 0.71123 0
M  V30 3623 H 343.522 1.2266 1.51461 0
M  V30 3624 H 342.618 0.864653 2.99884 0
M  V30 3625 N 342.919 -1.39368 0.735821 0
M  V30 3626 C 344.144 -2.05319 0.293052 0
M  V30 3627 C 344.569 -1.55115 -1.064 0
M  V30 3628 O 343.927 -0.695261 -1.67439 0
M  V30 3629 C 343.975 -3.59305 0.305323 0
M  V30 3630 O 343.079 -4.06299 -0.706761 0
M  V30 3631 H 342.42 -0.650529 0.13307 0
M  V30 3632 H 344.95 -1.78386 1.00197 0
M  V30 3633 H 344.96 -4.07724 0.149997 0
M  V30 3634 H 343.635 -3.95207 1.29553 0
M  V30 3635 H 342.212 -3.69292 -0.517504 0
M  V30 3636 N 344.397 -0.483516 -1.5 0
M  V30 3637 C 345.645 0.067027 -2.01989 0
M  V30 3638 C 345.966 1.3909 -1.36671 0
M  V30 3639 O 345.236 1.88978 -0.516152 0
M  V30 3640 H 343.816 0.0277606 -0.746484 0
M  V30 3641 H 346.478 -0.636773 -1.84204 0
M  V30 3642 H 345.574 0.209484 -3.11396 0
M  V30 3643 N 345.875 1.56104 -0.216619 0
M  V30 3644 C 347.105 2.02269 0.420802 0
M  V30 3645 C 347.513 1.09575 1.5424 0
M  V30 3646 O 346.856 0.0967308 1.83445 0
M  V30 3647 C 346.918 3.44784 1.01806 0
M  V30 3648 C 346.582 4.56988 0.0325154 0
M  V30 3649 C 347.579 5.14225 -0.766055 0
M  V30 3650 C 345.264 5.02228 -0.0848092 0
M  V30 3651 C 347.258 6.15169 -1.6687 0
M  V30 3652 C 344.945 6.03011 -0.990994 0
M  V30 3653 C 345.943 6.59357 -1.78149 0
M  V30 3654 O 345.631 7.58179 -2.67245 0
M  V30 3655 H 345.363 0.667353 0.107776 0
M  V30 3656 H 347.917 2.02747 -0.329034 0
M  V30 3657 H 346.147 3.41359 1.81689 0
M  V30 3658 H 347.836 3.74626 1.56237 0
M  V30 3659 H 348.602 4.80126 -0.685836 0
M  V30 3660 H 344.481 4.58054 0.520349 0
M  V30 3661 H 348.025 6.59076 -2.28615 0
M  V30 3662 H 343.922 6.36532 -1.07225 0
M  V30 3663 H 344.69 7.75682 -2.61265 0
M  V30 3664 N 347.353 -0.0568162 1.57498 0
M  V30 3665 C 348.601 -0.751617 1.87604 0
M  V30 3666 C 348.922 -1.77351 0.81066 0
M  V30 3667 O 348.192 -1.95254 -0.159018 0
M  V30 3668 H 346.772 -0.280583 0.692302 0
M  V30 3669 H 349.434 -0.0293483 1.94878 0
M  V30 3670 H 348.53 -1.25852 2.856 0
M  V30 3671 N 348.832 -1.54138 -0.328536 0
M  V30 3672 C 350.08 -1.71765 -1.06496 0
M  V30 3673 C 350.401 -0.49149 -1.88704 0
M  V30 3674 O 349.671 0.494539 -1.89555 0
M  V30 3675 H 348.251 -0.633295 -0.396164 0
M  V30 3676 H 350.913 -1.91429 -0.366176 0
M  V30 3677 H 350.009 -2.5951 -1.73381 0
M  V30 3678 N 350.31 0.590341 -1.46126 0
M  V30 3679 C 351.258 1.72105 -1.5647 0
M  V30 3680 C 352.252 1.63756 -0.433612 0
M  V30 3681 O 353.458 1.69342 -0.610194 0
M  V30 3682 H 349.833 0.568889 -0.491802 0
M  V30 3683 H 351.804 1.6051 -2.51553 0
M  V30 3684 C 350.553 3.10493 -1.56491 0
M  V30 3685 H 349.876 3.17583 -2.4286 0
M  V30 3686 H 351.316 3.8939 -1.67785 0
M  V30 3687 C 349.775 3.3563 -0.292231 0
M  V30 3688 O 350.305 3.96875 0.620739 0
M  V30 3689 N 348.511 2.90026 -0.182523 0
M  V30 3690 H 348.058 2.40367 -0.926356 0
M  V30 3691 H 348.016 3.07218 0.668152 0
M  V30 3692 N 351.788 1.33704 0.83433 0
M  V30 3693 C 353.013 1.28615 1.62705 0
M  V30 3694 C 353.438 -0.139242 1.87584 0
M  V30 3695 O 352.796 -1.09734 1.4432 0
M  V30 3696 C 352.844 2.07139 2.95171 0
M  V30 3697 O 351.948 1.4331 3.86699 0
M  V30 3698 H 351.289 0.44226 0.49528 0
M  V30 3699 H 353.819 1.76335 1.03766 0
M  V30 3700 H 353.829 2.18073 3.44831 0
M  V30 3701 H 352.504 3.10779 2.76386 0
M  V30 3702 H 351.081 1.4105 3.45195 0
M  V30 3703 N 353.266 -1.05314 1.17247 0
M  V30 3704 C 354.196 -2.1498 0.911362 0
M  V30 3705 C 355.177 -1.69471 -0.146169 0
M  V30 3706 O 356.362 -1.942 0.003812 0
M  V30 3707 C 353.492 -3.4472 0.422528 0
M  V30 3708 C 352.446 -4.03789 1.4191 0
M  V30 3709 C 351.772 -5.28858 0.788274 0
M  V30 3710 C 353.072 -4.41418 2.7919 0
M  V30 3711 H 354.766 -2.3708 1.82848 0
M  V30 3712 H 352.312 -1.13938 0.880569 0
M  V30 3713 H 354.265 -4.20787 0.227289 0
M  V30 3714 H 352.989 -3.22269 -0.530123 0
M  V30 3715 H 351.648 -3.2979 1.60106 0
M  V30 3716 H 351.296 -5.02709 -0.171173 0
M  V30 3717 H 350.996 -5.69338 1.45353 0
M  V30 3718 H 352.52 -6.07612 0.603282 0
M  V30 3719 H 353.934 -5.08524 2.64719 0
M  V30 3720 H 352.331 -4.92913 3.42282 0
M  V30 3721 H 353.401 -3.51819 3.33693 0
M  V30 3722 N 354.744 -0.972509 -1.24016 0
M  V30 3723 C 355.674 -0.525548 -2.27509 0
M  V30 3724 C 356.655 0.437262 -1.64384 0
M  V30 3725 O 357.84 0.332343 -1.91335 0
M  V30 3726 C 354.97 0.180448 -3.46831 0
M  V30 3727 C 353.924 -0.698859 -4.22256 0
M  V30 3728 C 353.25 0.138903 -5.3452 0
M  V30 3729 C 354.55 -1.98582 -4.83076 0
M  V30 3730 H 356.244 -1.39058 -2.65148 0
M  V30 3731 H 353.79 -0.67009 -1.27459 0
M  V30 3732 H 355.743 0.504387 -4.18371 0
M  V30 3733 H 354.467 1.07987 -3.08231 0
M  V30 3734 H 353.126 -1.00614 -3.52523 0
M  V30 3735 H 352.774 1.03862 -4.9216 0
M  V30 3736 H 352.474 -0.446259 -5.85903 0
M  V30 3737 H 353.998 0.457404 -6.08884 0
M  V30 3738 H 355.412 -1.72715 -5.46665 0
M  V30 3739 H 353.809 -2.5181 -5.44713 0
M  V30 3740 H 354.879 -2.67769 -4.04262 0
M  V30 3741 N 356.222 1.38976 -0.743202 0
M  V30 3742 C 357.47 1.99948 -0.29417 0
M  V30 3743 C 357.791 1.59279 1.12495 0
M  V30 3744 O 357.061 0.844808 1.76748 0
M  V30 3745 H 355.641 0.739473 -0.105774 0
M  V30 3746 H 358.303 1.699 -0.954986 0
M  V30 3747 H 357.399 3.10142 -0.349056 0
M  V30 3748 N 357.7 0.491464 1.49741 0
M  V30 3749 C 358.647 -0.292027 2.28945 0
M  V30 3750 C 359.617 -0.968973 1.34908 0
M  V30 3751 O 360.802 -0.97748 1.6386 0
M  V30 3752 C 357.942 -1.35617 3.17336 0
M  V30 3753 C 357.055 -0.691957 4.26422 0
M  V30 3754 C 356.19 -1.73572 5.02042 0
M  V30 3755 C 355.229 -1.05286 6.02977 0
M  V30 3756 N 354.366 -2.0404 6.71798 0
M  V30 3757 H 359.206 0.389654 2.95442 0
M  V30 3758 H 356.743 0.204003 1.45679 0
M  V30 3759 H 358.701 -1.98502 3.66951 0
M  V30 3760 H 357.331 -2.00674 2.52844 0
M  V30 3761 H 356.383 0.0499523 3.80367 0
M  V30 3762 H 357.695 -0.153946 4.98562 0
M  V30 3763 H 356.849 -2.43987 5.55478 0
M  V30 3764 H 355.588 -2.30757 4.29654 0
M  V30 3765 H 354.593 -0.334446 5.48782 0
M  V30 3766 H 355.818 -0.487636 6.77347 0
M  V30 3767 H 353.764 -2.60205 6.02187 0
M  V30 3768 H 353.681 -1.55279 7.39881 0
M  V30 3769 H 354.949 -2.73772 7.29842 0
M  V30 3770 N 359.178 -1.55987 0.224894 0
M  V30 3771 C 360.125 -2.20436 -0.68385 0
M  V30 3772 C 361.095 -1.16102 -1.18783 0
M  V30 3773 O 362.28 -1.4447 -1.24632 0
M  V30 3774 C 359.42 -2.89076 -1.88491 0
M  V30 3775 C 358.533 -4.08012 -1.41951 0
M  V30 3776 C 357.668 -4.64426 -2.5784 0
M  V30 3777 C 356.707 -5.75656 -2.08053 0
M  V30 3778 N 355.844 -6.26347 -3.17227 0
M  V30 3779 H 360.684 -2.97727 -0.12754 0
M  V30 3780 H 358.221 -1.47011 -0.0511978 0
M  V30 3781 H 360.179 -3.27059 -2.59014 0
M  V30 3782 H 358.809 -2.14298 -2.41405 0
M  V30 3783 H 357.861 -3.75492 -0.609095 0
M  V30 3784 H 359.173 -4.88375 -1.01447 0
M  V30 3785 H 358.327 -5.04869 -3.3644 0
M  V30 3786 H 357.066 -3.83233 -3.01635 0
M  V30 3787 H 356.071 -5.34712 -1.27916 0
M  V30 3788 H 357.296 -6.58686 -1.65255 0
M  V30 3789 H 355.242 -5.48067 -3.60497 0
M  V30 3790 H 355.159 -7.01843 -2.80986 0
M  V30 3791 H 356.427 -6.71447 -3.95953 0
M  V30 3792 N 360.656 0.0484629 -1.57525 0
M  V30 3793 C 361.896 0.748196 -1.90214 0
M  V30 3794 C 362.26 1.73545 -0.821347 0
M  V30 3795 O 363.461 2.48201 -1.03198 0
M  V30 3796 C 361.732 1.41727 -3.28098 0
M  V30 3797 S 363.291 2.14884 -3.82584 0
M  V30 3798 H 360.109 0.248307 -0.666232 0
M  V30 3799 H 362.711 0.00343188 -1.955 0
M  V30 3800 H 361.415 0.685244 -4.04639 0
M  V30 3801 H 360.946 2.20099 -3.26068 0
M  V30 3802 H 362.961 3.41755 -3.59747 0
M  V30 3803 N 362.134 1.5431 0.320358 0
M  V30 3804 C 363.381 1.72668 1.05792 0
M  V30 3805 C 363.709 0.502084 1.87908 0
M  V30 3806 O 362.964 -0.516149 1.88771 0
M  V30 3807 C 363.263 2.95639 2.00828 0
M  V30 3808 C 362.929 4.30265 1.34843 0
M  V30 3809 C 361.591 4.66865 1.16578 0
M  V30 3810 C 363.943 5.13801 0.875095 0
M  V30 3811 C 361.271 5.84597 0.496336 0
M  V30 3812 C 363.623 6.32219 0.219463 0
M  V30 3813 C 362.287 6.67495 0.0246915 0
M  V30 3814 H 361.557 0.631837 0.387121 0
M  V30 3815 H 364.204 1.88552 0.334735 0
M  V30 3816 H 362.509 2.74456 2.79609 0
M  V30 3817 H 364.206 3.07038 2.57932 0
M  V30 3818 H 360.796 4.01472 1.50061 0
M  V30 3819 H 364.98 4.86039 1.00398 0
M  V30 3820 H 360.236 6.10486 0.334264 0
M  V30 3821 H 364.41 6.96227 -0.155291 0
M  V30 3822 H 362.037 7.5858 -0.496065 0
M  V30 3823 N 363.613 -0.582584 1.46437 0
M  V30 3824 C 364.576 -1.67366 1.56592 0
M  V30 3825 C 365.576 -1.54575 0.443072 0
M  V30 3826 O 366.766 -1.59191 0.707381 0
M  V30 3827 C 363.898 -3.06791 1.48634 0
M  V30 3828 H 365.091 -1.5972 2.5383 0
M  V30 3829 H 362.644 -0.800432 1.34249 0
M  V30 3830 H 363.379 -3.19993 0.526763 0
M  V30 3831 H 363.164 -3.17484 2.30101 0
M  V30 3832 H 364.654 -3.86218 1.58826 0
M  V30 3833 N 365.091 -1.34144 -0.827227 0
M  V30 3834 C 366.021 -1.28005 -1.95287 0
M  V30 3835 C 367.002 -0.158321 -1.69362 0
M  V30 3836 O 368.187 -0.349987 -1.9102 0
M  V30 3837 C 365.317 -1.03036 -3.31664 0
M  V30 3838 C 364.271 -2.11628 -3.72019 0
M  V30 3839 C 363.597 -1.71854 -5.0633 0
M  V30 3840 C 364.897 -3.53417 -3.8457 0
M  V30 3841 H 366.591 -2.22187 -2.00682 0
M  V30 3842 H 364.137 -1.0696 -0.964135 0
M  V30 3843 H 366.09 -0.973863 -4.09993 0
M  V30 3844 H 364.814 -0.0529391 -3.26557 0
M  V30 3845 H 363.473 -2.16339 -2.95961 0
M  V30 3846 H 363.121 -0.727841 -4.97706 0
M  V30 3847 H 362.821 -2.44531 -5.34302 0
M  V30 3848 H 364.345 -1.67692 -5.87122 0
M  V30 3849 H 365.759 -3.51142 -4.5318 0
M  V30 3850 H 364.156 -4.24679 -4.2399 0
M  V30 3851 H 365.226 -3.91072 -2.86689 0
M  V30 3852 N 366.569 1.04691 -1.17803 0
M  V30 3853 C 367.985 1.29963 -0.926379 0
M  V30 3854 C 368.185 1.97251 0.411635 0
M  V30 3855 O 367.241 2.24922 1.14744 0
M  V30 3856 C 368.554 2.16447 -2.08737 0
M  V30 3857 C 370.102 2.29814 -2.12496 0
M  V30 3858 C 370.577 3.19661 -3.27995 0
M  V30 3859 N 372.068 3.27247 -3.27816 0
M  V30 3860 C 372.803 3.96906 -4.13827 0
M  V30 3861 N 372.299 4.6895 -5.09959 0
M  V30 3862 N 374.092 3.93122 -4.01761 0
M  V30 3863 H 366.243 0.594182 -2.0392 0
M  V30 3864 H 368.506 0.324649 -0.890678 0
M  V30 3865 H 368.212 1.74304 -3.05469 0
M  V30 3866 H 368.086 3.17103 -2.04268 0
M  V30 3867 H 370.473 2.71196 -1.16347 0
M  V30 3868 H 370.554 1.2877 -2.21025 0
M  V30 3869 H 370.198 2.78991 -4.24413 0
M  V30 3870 H 370.128 4.20722 -3.16703 0
M  V30 3871 H 372.619 2.75921 -2.58217 0
M  V30 3872 H 372.932 5.19679 -5.71974 0
M  V30 3873 H 371.277 4.67875 -5.13924 0
M  V30 3874 H 374.468 3.35967 -3.2595 0
M  V30 3875 H 374.641 4.47139 -4.6901 0
M  V30 3876 N 368.047 0.979072 1.23499 0
M  V30 3877 C 368.98 0.463027 2.23453 0
M  V30 3878 C 369.958 -0.469128 1.55685 0
M  V30 3879 O 371.142 -0.397882 1.84253 0
M  V30 3880 C 368.269 -0.330308 3.37086 0
M  V30 3881 C 367.315 0.545795 4.22993 0
M  V30 3882 S 368.148 1.99285 4.97037 0
M  V30 3883 C 369.304 1.20862 6.1412 0
M  V30 3884 H 369.537 1.31005 2.6688 0
M  V30 3885 H 367.07 0.784965 1.32957 0
M  V30 3886 H 369.028 -0.782027 4.02982 0
M  V30 3887 H 367.689 -1.15244 2.92194 0
M  V30 3888 H 366.882 -0.0638928 5.03959 0
M  V30 3889 H 366.484 0.933705 3.62157 0
M  V30 3890 H 368.776 0.469284 6.75873 0
M  V30 3891 H 369.719 1.99307 6.79472 0
M  V30 3892 H 370.127 0.727992 5.59786 0
M  V30 3893 N 369.525 -1.3858 0.750561 0
M  V30 3894 C 370.488 -2.28836 0.129152 0
M  V30 3895 C 371.488 -1.47045 -0.650714 0
M  V30 3896 O 372.678 -1.6753 -0.477428 0
M  V30 3897 C 369.81 -3.30751 -0.825622 0
M  V30 3898 H 371.003 -2.85294 0.924516 0
M  V30 3899 H 368.556 -1.47489 0.517376 0
M  V30 3900 H 369.291 -2.79378 -1.64677 0
M  V30 3901 H 369.076 -3.91177 -0.268852 0
M  V30 3902 H 370.566 -3.98249 -1.2565 0
M  V30 3903 N 371.003 -0.499398 -1.49478 0
M  V30 3904 C 372.228 0.044722 -2.07352 0
M  V30 3905 C 372.653 1.30207 -1.35749 0
M  V30 3906 O 372.011 1.76516 -0.413732 0
M  V30 3907 C 372.059 0.283013 -3.59488 0
M  V30 3908 O 371.163 1.35804 -3.89398 0
M  V30 3909 H 370.504 -0.0255147 -0.66351 0
M  V30 3910 H 373.034 -0.698561 -1.92305 0
M  V30 3911 H 373.044 0.515007 -4.04737 0
M  V30 3912 H 371.719 -0.635636 -4.11014 0
M  V30 3913 H 370.296 1.11113 -3.55961 0
M  V30 3914 N 372.481 1.55866 -0.233164 0
M  V30 3915 C 373.897 1.59133 0.121988 0
M  V30 3916 C 374.097 1.25016 1.58029 0
M  V30 3917 O 373.153 0.990922 2.32243 0
M  V30 3918 C 374.466 2.99932 -0.214792 0
M  V30 3919 C 376.014 3.12601 -0.157971 0
M  V30 3920 C 376.489 4.55597 -0.46859 0
M  V30 3921 N 377.98 4.61305 -0.418585 0
M  V30 3922 C 378.715 5.69903 -0.63227 0
M  V30 3923 N 378.211 6.86819 -0.90835 0
M  V30 3924 N 380.004 5.59264 -0.563913 0
M  V30 3925 H 372.155 1.76315 -1.18434 0
M  V30 3926 H 374.418 0.820093 -0.475553 0
M  V30 3927 H 374.124 3.29588 -1.22739 0
M  V30 3928 H 373.998 3.74327 0.464691 0
M  V30 3929 H 376.385 2.82735 0.845283 0
M  V30 3930 H 376.466 2.40511 -0.871102 0
M  V30 3931 H 376.11 4.86182 -1.46934 0
M  V30 3932 H 376.04 5.25928 0.265865 0
M  V30 3933 H 378.531 3.77297 -0.213368 0
M  V30 3934 H 378.844 7.65507 -1.05919 0
M  V30 3935 H 377.189 6.88536 -0.945673 0
M  V30 3936 H 380.38 4.66802 -0.348372 0
M  V30 3937 H 380.553 6.43831 -0.733847 0
M  V30 3938 N 373.959 -0.0401083 1.57549 0
M  V30 3939 C 374.889 -1.04384 2.08869 0
M  V30 3940 C 375.87 -1.38407 0.988817 0
M  V30 3941 O 377.055 -1.47483 1.26342 0
M  V30 3942 C 374.185 -2.34808 2.55895 0
M  V30 3943 C 373.139 -2.15057 3.70047 0
M  V30 3944 C 372.465 -3.51145 4.03239 0
M  V30 3945 C 373.765 -1.54576 4.98902 0
M  V30 3946 H 375.459 -0.616666 2.92981 0
M  V30 3947 H 373.005 -0.295184 1.40942 0
M  V30 3948 H 374.958 -3.05346 2.90417 0
M  V30 3949 H 373.682 -2.79565 1.68853 0
M  V30 3950 H 372.341 -1.46954 3.35857 0
M  V30 3951 H 371.989 -3.93529 3.13279 0
M  V30 3952 H 371.689 -3.38758 4.80122 0
M  V30 3953 H 373.213 -4.23062 4.40285 0
M  V30 3954 H 374.627 -2.15017 5.31451 0
M  V30 3955 H 373.024 -1.52796 5.80322 0
M  V30 3956 H 374.094 -0.51039 4.82206 0
M  V30 3957 N 375.437 -1.54477 -0.31217 0
M  V30 3958 C 376.4 -1.83923 -1.36766 0
M  V30 3959 C 377.4 -0.711563 -1.44199 0
M  V30 3960 O 378.59 -0.979866 -1.44029 0
M  V30 3961 C 375.722 -2.0095 -2.75376 0
M  V30 3962 H 376.915 -2.78239 -1.11906 0
M  V30 3963 H 374.468 -1.46369 -0.548257 0
M  V30 3964 H 375.203 -1.08883 -3.05475 0
M  V30 3965 H 374.988 -2.83018 -2.71373 0
M  V30 3966 H 376.478 -2.2514 -3.51713 0
M  V30 3967 N 376.915 0.57481 -1.46744 0
M  V30 3968 C 377.862 1.68329 -1.57905 0
M  V30 3969 C 378.832 1.60625 -0.422927 0
M  V30 3970 O 380.017 1.79721 -0.640711 0
M  V30 3971 C 377.157 3.06665 -1.58274 0
M  V30 3972 C 376.27 3.24935 -2.84678 0
M  V30 3973 C 375.405 4.53566 -2.76499 0
M  V30 3974 C 374.444 4.65207 -3.97806 0
M  V30 3975 N 373.581 5.85172 -3.87967 0
M  V30 3976 H 378.421 1.58127 -2.52587 0
M  V30 3977 H 375.958 0.770552 -1.25303 0
M  V30 3978 H 377.916 3.86745 -1.56473 0
M  V30 3979 H 376.546 3.15745 -0.671194 0
M  V30 3980 H 375.598 2.38405 -2.96424 0
M  V30 3981 H 376.91 3.29403 -3.7456 0
M  V30 3982 H 376.064 5.41885 -2.72848 0
M  V30 3983 H 374.803 4.51548 -1.8427 0
M  V30 3984 H 373.808 3.75304 -4.0178 0
M  V30 3985 H 375.033 4.68997 -4.9114 0
M  V30 3986 H 372.979 5.84137 -2.98529 0
M  V30 3987 H 372.896 5.90943 -4.71511 0
M  V30 3988 H 374.164 6.759 -3.88303 0
M  V30 3989 N 378.394 1.34581 0.820102 0
M  V30 3990 C 379.304 1.28471 1.96297 0
M  V30 3991 C 380.32 0.191902 1.72939 0
M  V30 3992 O 381.496 0.418879 1.96996 0
M  V30 3993 C 378.561 1.04281 3.30645 0
M  V30 3994 C 377.622 2.22745 3.66992 0
M  V30 3995 C 376.855 1.997 4.9493 0
M  V30 3996 O 377.078 0.956656 5.6232 0
M  V30 3997 O 376.012 2.86723 5.2922 0
M  V30 3998 H 379.838 2.24624 2.04396 0
M  V30 3999 H 377.423 1.14816 0.955913 0
M  V30 4000 H 379.305 0.925841 4.11104 0
M  V30 4001 H 377.98 0.111697 3.23507 0
M  V30 4002 H 376.887 2.40003 2.86966 0
M  V30 4003 H 378.22 3.14257 3.78819 0
M  V30 4004 N 379.872 -1.04064 1.18357 0
M  V30 4005 C 380.782 -2.15569 0.925596 0
M  V30 4006 C 381.798 -1.7365 -0.110295 0
M  V30 4007 O 382.974 -2.01273 0.0716218 0
M  V30 4008 C 380.039 -3.43704 0.454836 0
M  V30 4009 C 379.1 -4.00004 1.55869 0
M  V30 4010 C 378.333 -5.22023 1.1103 0
M  V30 4011 O 378.556 -5.70392 -0.0309756 0
M  V30 4012 O 377.49 -5.70856 1.90805 0
M  V30 4013 H 381.316 -2.40187 1.8586 0
M  V30 4014 H 378.901 -1.1402 0.965394 0
M  V30 4015 H 380.783 -4.20923 0.200382 0
M  V30 4016 H 379.458 -3.20559 -0.449876 0
M  V30 4017 H 378.365 -3.24172 1.86716 0
M  V30 4018 H 379.698 -4.2749 2.43953 0
M  V30 4019 N 381.35 -0.985608 -1.22978 0
M  V30 4020 C 382.598 -0.656087 -1.91154 0
M  V30 4021 C 382.919 0.813561 -1.77218 0
M  V30 4022 O 382.189 1.58244 -1.1548 0
M  V30 4023 H 380.769 -0.239674 -0.707506 0
M  V30 4024 H 383.431 -1.25054 -1.49491 0
M  V30 4025 H 382.527 -0.912253 -2.9847 0
M  V30 4026 N 382.828 1.3818 -0.7579 0
M  V30 4027 C 384.074 2.0078 -0.325423 0
M  V30 4028 C 384.429 1.59085 1.08211 0
M  V30 4029 O 383.722 0.820394 1.73148 0
M  V30 4030 C 383.916 3.55252 -0.391218 0
M  V30 4031 C 383.745 4.11947 -1.8036 0
M  V30 4032 C 382.515 4.43519 -2.42113 0
M  V30 4033 C 384.713 4.33908 -2.76095 0
M  V30 4034 N 382.695 4.85847 -3.75267 0
M  V30 4035 C 384.066 4.78692 -3.94023 0
M  V30 4036 C 386.121 4.16015 -2.73561 0
M  V30 4037 C 384.824 5.07459 -5.09782 0
M  V30 4038 C 386.85 4.45909 -3.88483 0
M  V30 4039 C 386.212 4.90921 -5.0515 0
M  V30 4040 H 382.311 0.764215 -0.165831 0
M  V30 4041 H 384.895 1.67724 -0.988776 0
M  V30 4042 H 383.066 3.87646 0.241886 0
M  V30 4043 H 384.798 4.04653 0.061989 0
M  V30 4044 H 381.553 4.32113 -1.93842 0
M  V30 4045 H 381.977 5.11339 -4.4369 0
M  V30 4046 H 386.619 3.80399 -1.84544 0
M  V30 4047 H 384.337 5.4197 -5.99412 0
M  V30 4048 H 387.923 4.33666 -3.87847 0
M  V30 4049 H 386.803 5.1361 -5.92599 0
M  V30 4050 N 384.306 0.507319 1.49211 0
M  V30 4051 C 385.236 -0.256939 2.32082 0
M  V30 4052 C 386.217 -0.956609 1.40652 0
M  V30 4053 O 387.402 -0.946788 1.69557 0
M  V30 4054 C 384.532 -1.31802 3.21318 0
M  V30 4055 C 383.486 -0.737855 4.21592 0
M  V30 4056 C 382.812 -1.89992 4.99807 0
M  V30 4057 C 384.112 0.275325 5.21574 0
M  V30 4058 H 385.806 0.434798 2.96226 0
M  V30 4059 H 383.352 0.210546 1.42452 0
M  V30 4060 H 385.305 -1.86045 3.78107 0
M  V30 4061 H 384.029 -2.03903 2.5513 0
M  V30 4062 H 382.688 -0.217126 3.65956 0
M  V30 4063 H 382.336 -2.60877 4.30061 0
M  V30 4064 H 382.036 -1.51777 5.6766 0
M  V30 4065 H 383.56 -2.44657 5.59442 0
M  V30 4066 H 384.974 -0.179193 5.7302 0
M  V30 4067 H 383.371 0.573649 5.97352 0
M  V30 4068 H 384.441 1.18903 4.70096 0
M  V30 4069 N 385.784 -1.5574 0.241426 0
M  V30 4070 C 386.747 -2.19877 -0.647063 0
M  V30 4071 C 387.747 -1.16642 -1.10686 0
M  V30 4072 O 388.937 -1.41757 -1.01245 0
M  V30 4073 C 386.069 -2.83797 -1.88871 0
M  V30 4074 H 387.262 -2.99772 -0.087574 0
M  V30 4075 H 384.815 -1.56298 -0.00813574 0
M  V30 4076 H 385.55 -2.07824 -2.48957 0
M  V30 4077 H 385.335 -3.59414 -1.56728 0
M  V30 4078 H 386.825 -3.32898 -2.52129 0
M  V30 4079 N 387.262 0.0317525 -1.57568 0
M  V30 4080 C 388.172 1.05021 -2.0978 0
M  V30 4081 C 389.188 1.39809 -1.03583 0
M  V30 4082 O 390.364 1.49182 -1.35302 0
M  V30 4083 C 387.429 2.33301 -2.56459 0
M  V30 4084 C 386.49 2.0512 -3.77127 0
M  V30 4085 C 385.723 3.27283 -4.2157 0
M  V30 4086 O 385.946 4.37861 -3.65559 0
M  V30 4087 O 384.88 3.13141 -5.14029 0
M  V30 4088 H 388.706 0.636505 -2.96955 0
M  V30 4089 H 386.291 0.248559 -1.47318 0
M  V30 4090 H 388.173 3.08722 -2.86825 0
M  V30 4091 H 386.848 2.73973 -1.72397 0
M  V30 4092 H 385.755 1.27276 -3.51784 0
M  V30 4093 H 387.088 1.69305 -4.62165 0
M  V30 4094 N 388.74 1.54641 0.303973 0
M  V30 4095 C 389.69 1.8177 1.37636 0
M  V30 4096 C 390.674 0.674697 1.46071 0
M  V30 4097 O 391.866 0.935251 1.50273 0
M  V30 4098 C 388.995 2.06584 2.74186 0
M  V30 4099 C 388.081 3.2706 2.69986 0
M  V30 4100 N 388.472 4.47682 2.35402 0
M  V30 4101 C 386.77 3.29028 3.01092 0
M  V30 4102 C 387.471 5.29689 2.40426 0
M  V30 4103 N 386.447 4.67339 2.7766 0
M  V30 4104 H 390.249 2.72596 1.09857 0
M  V30 4105 H 387.763 1.541 0.51254 0
M  V30 4106 H 389.76 2.24166 3.51504 0
M  V30 4107 H 388.42 1.17024 3.02879 0
M  V30 4108 H 389.431 4.74336 2.07908 0
M  V30 4109 H 386.108 2.49565 3.34699 0
M  V30 4110 H 387.498 6.3606 2.16512 0
M  V30 4111 N 390.218 -0.567019 1.47046 0
M  V30 4112 C 391.151 -1.69016 1.53326 0
M  V30 4113 C 392.129 -1.57949 0.386126 0
M  V30 4114 O 393.313 -1.78945 0.592529 0
M  V30 4115 C 390.44 -3.07191 1.42658 0
M  V30 4116 C 389.486 -3.36733 2.6175 0
M  V30 4117 S 390.319 -3.27069 4.24012 0
M  V30 4118 C 391.475 -4.67755 4.1588 0
M  V30 4119 H 391.708 -1.63434 2.48348 0
M  V30 4120 H 389.241 -0.747048 1.35124 0
M  V30 4121 H 391.199 -3.86897 1.37191 0
M  V30 4122 H 389.86 -3.10249 0.490369 0
M  V30 4123 H 389.053 -4.37441 2.50323 0
M  V30 4124 H 388.655 -2.64627 2.64289 0
M  V30 4125 H 390.947 -5.58491 3.83529 0
M  V30 4126 H 391.89 -4.84239 5.16641 0
M  V30 4127 H 392.298 -4.45341 3.46889 0
M  V30 4128 N 391.696 -1.35014 -0.812953 0
M  V30 4129 C 392.626 -1.30069 -1.93919 0
M  V30 4130 C 393.607 -0.176275 -1.69184 0
M  V30 4131 O 394.792 -0.370227 -1.90638 0
M  V30 4132 C 391.922 -1.06547 -3.30552 0
M  V30 4133 C 390.876 -2.15561 -3.69753 0
M  V30 4134 C 390.202 -1.77214 -5.04479 0
M  V30 4135 C 391.502 -3.57476 -3.808 0
M  V30 4136 H 393.196 -2.24303 -1.98314 0
M  V30 4137 H 390.742 -1.07977 -0.952736 0
M  V30 4138 H 392.695 -1.01729 -4.08937 0
M  V30 4139 H 391.419 -0.0875719 -3.26483 0
M  V30 4140 H 390.078 -2.19466 -2.9365 0
M  V30 4141 H 389.726 -0.780589 -4.96906 0
M  V30 4142 H 389.426 -2.50184 -5.31678 0
M  V30 4143 H 390.95 -1.7391 -5.8531 0
M  V30 4144 H 392.364 -3.55929 -4.4943 0
M  V30 4145 H 390.761 -4.29152 -4.19462 0
M  V30 4146 H 391.831 -3.94091 -2.82525 0
M  V30 4147 N 393.175 1.03435 -1.18907 0
M  V30 4148 C 394.424 1.76143 -0.982669 0
M  V30 4149 C 394.737 1.89416 0.487953 0
M  V30 4150 O 395.943 2.59041 0.813036 0
M  V30 4151 C 394.399 3.16722 -1.70924 0
M  V30 4152 C 394.007 3.11522 -3.21959 0
M  V30 4153 C 395.751 3.93764 -1.58588 0
M  V30 4154 C 393.658 4.46999 -3.87228 0
M  V30 4155 H 392.588 0.660292 -0.364047 0
M  V30 4156 H 395.239 1.158 -1.42347 0
M  V30 4157 H 393.621 3.775 -1.19623 0
M  V30 4158 H 394.795 2.60158 -3.80335 0
M  V30 4159 H 393.11 2.47978 -3.34508 0
M  V30 4160 H 395.707 4.93963 -2.04707 0
M  V30 4161 H 396.05 4.12794 -0.539142 0
M  V30 4162 H 396.583 3.39576 -2.07203 0
M  V30 4163 H 393.322 4.33174 -4.91976 0
M  V30 4164 H 392.842 4.98441 -3.33642 0
M  V30 4165 H 394.521 5.15898 -3.90459 0
M  V30 4166 N 394.653 0.992116 1.22453 0
M  V30 4167 C 395.583 0.561677 2.26644 0
M  V30 4168 C 396.564 -0.411055 1.65059 0
M  V30 4169 O 397.749 -0.301861 1.9184 0
M  V30 4170 C 394.879 -0.125247 3.47074 0
M  V30 4171 C 393.833 0.765948 4.21091 0
M  V30 4172 C 393.159 -0.0538484 5.34673 0
M  V30 4173 C 394.459 2.06242 4.79856 0
M  V30 4174 H 396.153 1.43259 2.62902 0
M  V30 4175 H 393.699 0.690283 1.26377 0
M  V30 4176 H 395.652 -0.437764 4.1912 0
M  V30 4177 H 394.376 -1.03069 3.0991 0
M  V30 4178 H 393.035 1.0621 3.50878 0
M  V30 4179 H 392.683 -0.960188 4.9375 0
M  V30 4180 H 392.383 0.539415 5.85119 0
M  V30 4181 H 393.907 -0.360477 6.09535 0
M  V30 4182 H 395.321 1.8139 5.43848 0
M  V30 4183 H 393.718 2.60444 5.40638 0
M  V30 4184 H 394.788 2.74167 3.99951 0
M  V30 4185 N 396.131 -1.37776 0.765217 0
M  V30 4186 C 397.379 -1.99454 0.325943 0
M  V30 4187 C 397.7 -1.61049 -1.09947 0
M  V30 4188 O 396.97 -0.872821 -1.75381 0
M  V30 4189 H 395.55 -0.737697 0.117525 0
M  V30 4190 H 398.212 -1.68359 0.981895 0
M  V30 4191 H 397.308 -3.09547 0.398353 0
M  V30 4192 N 397.609 -0.515225 -1.4894 0
M  V30 4193 C 398.858 0.0261361 -2.01683 0
M  V30 4194 C 399.171 1.36719 -1.39883 0
M  V30 4195 O 400.377 1.99606 -1.84037 0
M  V30 4196 C 398.833 0.0970111 -3.59769 0
M  V30 4197 C 398.441 -1.23825 -4.30548 0
M  V30 4198 C 400.185 0.587981 -4.20408 0
M  V30 4199 C 398.092 -1.12877 -5.80528 0
M  V30 4200 H 397.022 0.0135398 -0.753878 0
M  V30 4201 H 399.673 -0.656787 -1.71343 0
M  V30 4202 H 398.055 0.844694 -3.86886 0
M  V30 4203 H 399.229 -2.00034 -4.15118 0
M  V30 4204 H 397.544 -1.66379 -3.81716 0
M  V30 4205 H 400.141 0.68763 -5.3026 0
M  V30 4206 H 400.484 1.59026 -3.84729 0
M  V30 4207 H 401.017 -0.103582 -3.97665 0
M  V30 4208 H 397.756 -2.10575 -6.20756 0
M  V30 4209 H 397.276 -0.407799 -5.98412 0
M  V30 4210 H 398.955 -0.813332 -6.41868 0
M  V30 4211 N 399.087 1.5561 -0.249682 0
M  V30 4212 C 400.315 2.03411 0.378352 0
M  V30 4213 C 400.73 1.12886 1.51335 0
M  V30 4214 O 400.087 0.143833 1.81932 0
M  V30 4215 C 400.138 3.50537 0.88351 0
M  V30 4216 O 399.859 4.37614 -0.20626 0
M  V30 4217 C 401.36 4.14113 1.58195 0
M  V30 4218 H 398.58 0.664994 0.08958 0
M  V30 4219 H 401.124 2.01044 -0.374357 0
M  V30 4220 H 399.279 3.5343 1.58639 0
M  V30 4221 H 399.693 5.24199 0.177782 0
M  V30 4222 H 401.167 5.18741 1.8871 0
M  V30 4223 H 401.644 3.60767 2.50487 0
M  V30 4224 H 402.25 4.15151 0.923573 0
M  V30 4225 N 400.565 -0.0233959 1.57583 0
M  V30 4226 C 401.513 -1.04063 2.08023 0
M  V30 4227 C 402.507 -1.37084 0.995204 0
M  V30 4228 O 403.713 -1.35923 1.18004 0
M  V30 4229 H 400.088 -0.353144 0.663922 0
M  V30 4230 H 402.059 -0.589453 2.9252 0
M  V30 4231 C 400.808 -2.33123 2.57971 0
M  V30 4232 H 400.131 -2.08577 3.4108 0
M  V30 4233 H 401.571 -3.02632 2.96967 0
M  V30 4234 C 400.03 -3.02483 1.48342 0
M  V30 4235 O 400.56 -3.92541 0.852898 0
M  V30 4236 N 398.766 -2.63909 1.21658 0
M  V30 4237 H 398.313 -1.90758 1.73116 0
M  V30 4238 H 398.271 -3.10633 0.485218 0
M  V30 4239 N 402.043 -1.548 -0.295768 0
M  V30 4240 C 403.454 -1.65274 -0.868411 0
M  V30 4241 C 403.805 -0.56481 -1.87894 0
M  V30 4242 O 402.93 0.29767 -2.14343 0
M  V30 4243 C 403.525 -2.99603 -1.58188 0
M  V30 4244 C 402.084 -3.12181 -2.10286 0
M  V30 4245 C 401.231 -2.6098 -0.93727 0
M  V30 4246 H 404.182 -1.58534 -0.0726422 0
M  V30 4247 H 404.203 -2.91319 -2.44772 0
M  V30 4248 H 403.715 -3.78764 -0.846151 0
M  V30 4249 H 401.816 -2.3775 -2.8689 0
M  V30 4250 H 401.929 -4.18415 -2.33379 0
M  V30 4251 H 400.293 -2.17564 -1.32431 0
M  V30 4252 H 401.076 -3.42623 -0.215414 0
M  V30 4253 N 403.521 0.559213 -1.47345 0
M  V30 4254 C 404.431 1.69388 -1.62311 0
M  V30 4255 C 405.447 1.6648 -0.505993 0
M  V30 4256 O 406.623 1.85964 -0.773262 0
M  V30 4257 C 403.688 3.05894 -1.63185 0
M  V30 4258 C 402.749 3.19885 -2.86307 0
M  V30 4259 C 401.982 4.49879 -2.87131 0
M  V30 4260 O 402.205 5.35217 -1.97229 0
M  V30 4261 O 401.139 4.67618 -3.78968 0
M  V30 4262 H 404.965 1.59706 -2.58317 0
M  V30 4263 H 402.55 0.728989 -1.30407 0
M  V30 4264 H 404.432 3.87133 -1.66451 0
M  V30 4265 H 403.107 3.15964 -0.70345 0
M  V30 4266 H 402.014 2.38052 -2.88587 0
M  V30 4267 H 403.347 3.14718 -3.78435 0
M  V30 4268 N 404.999 1.35443 0.805782 0
M  V30 4269 C 406.247 1.28507 1.55982 0
M  V30 4270 C 406.568 -0.140046 1.94496 0
M  V30 4271 O 405.838 -1.07666 1.63661 0
M  V30 4272 H 404.418 0.472676 0.578434 0
M  V30 4273 H 407.08 1.69555 0.961098 0
M  V30 4274 H 406.176 1.90148 2.47488 0
M  V30 4275 N 406.477 -1.02803 1.19454 0
M  V30 4276 C 407.387 -2.14575 0.948408 0
M  V30 4277 C 408.403 -1.73757 -0.091871 0
M  V30 4278 O 409.579 -2.01185 0.0929654 0
M  V30 4279 C 406.644 -3.43202 0.491265 0
M  V30 4280 C 405.705 -3.98328 1.60103 0
M  V30 4281 C 404.938 -5.20816 1.16561 0
M  V30 4282 O 405.161 -5.70392 0.0295238 0
M  V30 4283 O 404.095 -5.68801 1.96849 0
M  V30 4284 H 407.921 -2.38202 1.88397 0
M  V30 4285 H 405.506 -1.12989 0.977433 0
M  V30 4286 H 407.388 -4.20687 0.245015 0
M  V30 4287 H 406.063 -3.21018 -0.415851 0
M  V30 4288 H 404.97 -3.22174 1.90144 0
M  V30 4289 H 406.303 -4.24879 2.48473 0
M  V30 4290 N 407.956 -0.998596 -1.21925 0
M  V30 4291 C 408.903 -0.553621 -2.24062 0
M  V30 4292 C 409.873 0.416999 -1.6078 0
M  V30 4293 O 411.058 0.320482 -1.88089 0
M  V30 4294 C 408.198 0.119959 -3.44891 0
M  V30 4295 C 407.311 -0.893077 -4.22668 0
M  V30 4296 C 406.446 -0.192424 -5.30851 0
M  V30 4297 C 405.485 -1.19344 -6.00353 0
M  V30 4298 N 404.622 -0.520707 -7.00166 0
M  V30 4299 H 409.462 -1.4293 -2.61486 0
M  V30 4300 H 406.999 -0.715838 -1.28507 0
M  V30 4301 H 408.957 0.527459 -4.13852 0
M  V30 4302 H 407.587 0.959389 -3.08214 0
M  V30 4303 H 406.639 -1.41886 -3.52948 0
M  V30 4304 H 407.951 -1.65512 -4.70539 0
M  V30 4305 H 407.105 0.271515 -6.06092 0
M  V30 4306 H 405.844 0.602075 -4.83969 0
M  V30 4307 H 404.849 -1.66795 -5.23889 0
M  V30 4308 H 406.074 -1.98891 -6.49322 0
M  V30 4309 H 404.02 0.254252 -6.55507 0
M  V30 4310 H 403.937 -1.2211 -7.46073 0
M  V30 4311 H 405.205 -0.0797596 -7.79459 0
M  V30 4312 N 409.434 1.37368 -0.772513 0
M  V30 4313 C 410.381 2.30262 -0.157488 0
M  V30 4314 C 411.351 1.51137 0.688965 0
M  V30 4315 O 412.536 1.79704 0.641168 0
M  V30 4316 C 409.676 3.37611 0.715045 0
M  V30 4317 C 408.789 4.31746 -0.148098 0
M  V30 4318 C 407.924 5.26171 0.729213 0
M  V30 4319 C 406.963 6.11948 -0.136418 0
M  V30 4320 N 406.1 6.98613 0.698914 0
M  V30 4321 H 410.94 2.82277 -0.955179 0
M  V30 4322 H 408.477 1.38957 -0.482631 0
M  V30 4323 H 410.435 3.98479 1.23575 0
M  V30 4324 H 409.065 2.86959 1.47833 0
M  V30 4325 H 408.117 3.72178 -0.786613 0
M  V30 4326 H 409.429 4.92084 -0.81579 0
M  V30 4327 H 408.583 5.92247 1.31637 0
M  V30 4328 H 407.322 4.66246 1.43059 0
M  V30 4329 H 406.327 5.4485 -0.736102 0
M  V30 4330 H 407.552 6.73945 -0.835134 0
M  V30 4331 H 405.498 6.41215 1.38489 0
M  V30 4332 H 405.415 7.55948 0.0885358 0
M  V30 4333 H 406.683 7.69077 1.27044 0
M  V30 4334 N 410.912 0.523116 1.48665 0
M  V30 4335 C 412.142 -0.00961724 2.06598 0
M  V30 4336 C 412.55 -1.29333 1.38093 0
M  V30 4337 O 411.893 -1.77846 0.46007 0
M  V30 4338 C 411.955 -0.311135 3.58151 0
M  V30 4339 C 411.619 0.878092 4.48485 0
M  V30 4340 C 412.616 1.77464 4.88674 0
M  V30 4341 C 410.301 1.08315 4.90483 0
M  V30 4342 C 412.295 2.86021 5.69623 0
M  V30 4343 C 409.982 2.17187 5.71203 0
M  V30 4344 C 410.98 3.05873 6.10681 0
M  V30 4345 O 410.668 4.12862 6.89783 0
M  V30 4346 H 410.4 0.0272658 0.67545 0
M  V30 4347 H 412.954 0.726156 1.92136 0
M  V30 4348 H 411.184 -1.10079 3.70701 0
M  V30 4349 H 412.873 -0.785125 3.98234 0
M  V30 4350 H 413.639 1.62813 4.56855 0
M  V30 4351 H 409.518 0.402149 4.59243 0
M  V30 4352 H 413.062 3.55272 6.00356 0
M  V30 4353 H 408.959 2.31824 6.02435 0
M  V30 4354 H 409.727 4.10487 7.08126 0
M  V30 4355 N 412.39 -1.55475 0.257931 0
M  V30 4356 C 413.32 -2.24815 -0.630912 0
M  V30 4357 C 414.301 -1.23224 -1.17259 0
M  V30 4358 O 415.486 -1.51904 -1.20991 0
M  V30 4359 C 412.616 -2.95609 -1.82298 0
M  V30 4360 C 411.57 -4.03982 -1.41359 0
M  V30 4361 C 410.896 -4.6226 -2.68738 0
M  V30 4362 C 412.196 -5.19109 -0.57648 0
M  V30 4363 H 413.89 -2.99354 -0.0526878 0
M  V30 4364 H 411.436 -1.4398 -0.023901 0
M  V30 4365 H 413.389 -3.42822 -2.45054 0
M  V30 4366 H 412.113 -2.18577 -2.42676 0
M  V30 4367 H 410.772 -3.57555 -0.809324 0
M  V30 4368 H 410.42 -3.81915 -3.27338 0
M  V30 4369 H 410.12 -5.35424 -2.42065 0
M  V30 4370 H 411.644 -5.12212 -3.32372 0
M  V30 4371 H 413.058 -5.62479 -1.10861 0
M  V30 4372 H 411.455 -5.98729 -0.405351 0
M  V30 4373 H 412.525 -4.83174 0.408776 0
M  V30 4374 N 413.868 0.0150385 -1.57593 0
M  V30 4375 C 414.831 0.995996 -2.06428 0
M  V30 4376 C 415.831 1.2818 -0.970903 0
M  V30 4377 O 417.021 1.22949 -1.23406 0
M  V30 4378 C 414.153 2.32506 -2.49307 0
M  V30 4379 H 415.346 0.573873 -2.94358 0
M  V30 4380 H 412.899 0.262186 -1.54085 0
M  V30 4381 H 413.634 2.79438 -1.64575 0
M  V30 4382 H 413.419 2.13087 -3.29145 0
M  V30 4383 H 414.909 3.02906 -2.87468 0
M  V30 4384 N 415.346 1.54954 0.287554 0
M  V30 4385 C 416.309 1.86076 1.33823 0
M  V30 4386 C 417.309 0.734414 1.43049 0
M  V30 4387 O 418.499 1.00266 1.42452 0
M  V30 4388 C 415.631 2.05305 2.72144 0
M  V30 4389 H 416.824 2.79984 1.07465 0
M  V30 4390 H 414.377 1.47223 0.524902 0
M  V30 4391 H 415.112 1.1373 3.03704 0
M  V30 4392 H 414.897 2.873 2.66836 0
M  V30 4393 H 416.387 2.30706 3.48087 0
M  V30 4394 N 416.824 -0.551391 1.4764 0
M  V30 4395 C 417.787 -1.64007 1.60107 0
M  V30 4396 C 418.787 -1.53601 0.47576 0
M  V30 4397 O 419.977 -1.57655 0.740988 0
M  V30 4398 C 417.109 -3.03569 1.55108 0
M  V30 4399 H 418.302 -1.543 2.57161 0
M  V30 4400 H 415.855 -0.771776 1.35917 0
M  V30 4401 H 416.59 -3.18804 0.594519 0
M  V30 4402 H 416.375 -3.12532 2.36783 0
M  V30 4403 H 417.865 -3.82762 1.66982 0
M  V30 4404 N 418.302 -1.35869 -0.798587 0
M  V30 4405 C 419.549 -1.29588 -1.55606 0
M  V30 4406 C 419.877 0.127456 -1.94082 0
M  V30 4407 O 419.132 1.09461 -1.62225 0
M  V30 4408 C 419.431 -2.1556 -2.85077 0
M  V30 4409 C 419.097 -3.6424 -2.65781 0
M  V30 4410 C 417.759 -4.04766 -2.60227 0
M  V30 4411 C 420.111 -4.58547 -2.47758 0
M  V30 4412 C 417.439 -5.37753 -2.34603 0
M  V30 4413 C 419.791 -5.91742 -2.23662 0
M  V30 4414 C 418.455 -6.31402 -2.16534 0
M  V30 4415 H 417.725 -0.474197 -0.569402 0
M  V30 4416 H 420.372 -1.67839 -0.922086 0
M  V30 4417 H 418.677 -1.70216 -3.52893 0
M  V30 4418 H 420.374 -2.08031 -3.42818 0
M  V30 4419 H 416.964 -3.32086 -2.70956 0
M  V30 4420 H 421.148 -4.28117 -2.51056 0
M  V30 4421 H 416.404 -5.67474 -2.2756 0
M  V30 4422 H 420.578 -6.6439 -2.08708 0
M  V30 4423 H 418.205 -7.34381 -1.96441 0
M  V30 4424 N 419.78 1.02168 -1.19998 0
M  V30 4425 C 421.191 1.57135 -1.00825 0
M  V30 4426 C 421.542 1.91276 0.436818 0
M  V30 4427 O 420.667 1.71679 1.3174 0
M  V30 4428 C 421.262 2.85514 -1.82393 0
M  V30 4429 C 419.821 3.37027 -1.67601 0
M  V30 4430 C 418.968 2.10388 -1.80644 0
M  V30 4431 H 421.919 0.846106 -1.34264 0
M  V30 4432 H 421.94 3.56711 -1.32429 0
M  V30 4433 H 421.452 2.60634 -2.87561 0
M  V30 4434 H 419.553 3.66878 -0.650485 0
M  V30 4435 H 419.666 4.09572 -2.4857 0
M  V30 4436 H 418.03 2.22601 -1.23778 0
M  V30 4437 H 418.813 1.8794 -2.87286 0
M  V30 4438 N 421.258 1.00505 1.21394 0
M  V30 4439 C 422.483 0.706367 1.95001 0
M  V30 4440 C 422.908 -0.72463 1.73582 0
M  V30 4441 O 422.266 -1.49702 1.0227 0
M  V30 4442 C 422.314 1.03299 3.45487 0
M  V30 4443 O 421.418 0.138275 4.12168 0
M  V30 4444 H 420.759 0.263175 0.609619 0
M  V30 4445 H 423.289 1.34531 1.54151 0
M  V30 4446 H 423.299 0.979872 3.96059 0
M  V30 4447 H 421.974 2.07567 3.60401 0
M  V30 4448 H 420.551 0.247928 3.72075 0
M  V30 4449 N 422.737 -1.36956 0.779787 0
M  V30 4450 C 423.7 -2.2851 0.177662 0
M  V30 4451 C 424.7 -1.48393 -0.619377 0
M  V30 4452 O 425.89 -1.68505 -0.441785 0
M  V30 4453 C 423.022 -3.32428 -0.755279 0
M  V30 4454 H 424.215 -2.83269 0.984823 0
M  V30 4455 H 421.768 -1.46358 0.548544 0
M  V30 4456 H 422.503 -2.82808 -1.58714 0
M  V30 4457 H 422.288 -3.91659 -0.185817 0
M  V30 4458 H 423.778 -4.00824 -1.17174 0
M  V30 4459 N 424.215 -0.530993 -1.48385 0
M  V30 4460 C 425.455 0.000718982 -2.044 0
M  V30 4461 C 425.819 1.31485 -1.39913 0
M  V30 4462 O 427.02 1.93265 -1.86821 0
M  V30 4463 C 425.291 0.119177 -3.57201 0
M  V30 4464 S 426.85 0.600806 -4.34667 0
M  V30 4465 H 423.668 -0.0125473 -0.710889 0
M  V30 4466 H 426.27 -0.711783 -1.82082 0
M  V30 4467 H 424.974 -0.842061 -4.01668 0
M  V30 4468 H 424.505 0.856026 -3.83974 0
M  V30 4469 H 426.52 1.86514 -4.59812 0
M  V30 4470 N 425.693 1.55336 -0.266172 0
M  V30 4471 C 426.941 1.99003 0.35246 0
M  V30 4472 C 427.262 1.15591 1.57047 0
M  V30 4473 O 426.532 0.243268 1.94384 0
M  V30 4474 H 425.112 0.735025 0.133217 0
M  V30 4475 H 427.774 1.91367 -0.369434 0
M  V30 4476 H 426.87 3.05289 0.648453 0
M  V30 4477 N 427.171 -0.0066808 1.57599 0
M  V30 4478 C 428.118 -1.00024 2.08 0
M  V30 4479 C 429.088 -1.34549 0.973943 0
M  V30 4480 O 430.273 -1.44502 1.24595 0
M  V30 4481 C 427.413 -2.2891 2.58252 0
M  V30 4482 C 426.526 -2.00346 3.82734 0
M  V30 4483 C 425.661 -3.23265 4.21513 0
M  V30 4484 C 424.7 -2.90357 5.3885 0
M  V30 4485 N 423.837 -4.05793 5.72954 0
M  V30 4486 H 428.677 -0.563499 2.92624 0
M  V30 4487 H 426.214 -0.266592 1.44664 0
M  V30 4488 H 428.172 -3.04247 2.85464 0
M  V30 4489 H 426.802 -2.70265 1.76512 0
M  V30 4490 H 425.854 -1.15406 3.62471 0
M  V30 4491 H 427.166 -1.72086 4.68175 0
M  V30 4492 H 426.32 -4.06953 4.49971 0
M  V30 4493 H 425.059 -3.54657 3.34768 0
M  V30 4494 H 424.064 -2.05075 5.10122 0
M  V30 4495 H 425.289 -2.60219 6.27266 0
M  V30 4496 H 423.235 -4.37094 4.89167 0
M  V30 4497 H 423.152 -3.81034 6.52954 0
M  V30 4498 H 424.42 -4.90289 6.06001 0
M  V30 4499 N 428.649 -1.55105 -0.279332 0
M  V30 4500 C 429.877 -1.7943 -1.03017 0
M  V30 4501 C 430.292 -0.564456 -1.80165 0
M  V30 4502 O 429.649 0.466326 -1.76442 0
M  V30 4503 C 429.7 -3.0155 -1.99374 0
M  V30 4504 O 429.421 -4.19784 -1.25352 0
M  V30 4505 C 430.922 -3.3843 -2.86321 0
M  V30 4506 H 428.142 -0.597882 -0.304594 0
M  V30 4507 H 430.686 -2.02105 -0.312035 0
M  V30 4508 H 428.841 -2.81019 -2.66659 0
M  V30 4509 H 429.255 -4.88781 -1.90246 0
M  V30 4510 H 430.729 -4.27066 -3.49741 0
M  V30 4511 H 431.206 -2.57549 -3.5576 0
M  V30 4512 H 431.812 -3.61197 -2.24536 0
M  V30 4513 N 430.127 0.543554 -1.4793 0
M  V30 4514 C 431.075 1.67039 -1.61866 0
M  V30 4515 C 432.069 1.62294 -0.48549 0
M  V30 4516 O 433.275 1.67315 -0.66376 0
M  V30 4517 H 429.65 0.552954 -0.509652 0
M  V30 4518 H 431.621 1.52426 -2.56533 0
M  V30 4519 C 430.37 3.05357 -1.6629 0
M  V30 4520 H 429.693 3.09696 -2.5284 0
M  V30 4521 H 431.133 3.83855 -1.80088 0
M  V30 4522 C 429.592 3.34531 -0.398861 0
M  V30 4523 O 430.122 3.98649 0.494162 0
M  V30 4524 N 428.328 2.89299 -0.2747 0
M  V30 4525 H 427.875 2.37298 -1.00236 0
M  V30 4526 H 427.833 3.09188 0.570075 0
M  V30 4527 N 431.605 1.3629 0.791371 0
M  V30 4528 C 432.535 1.33137 1.91825 0
M  V30 4529 C 433.516 0.203168 1.68882 0
M  V30 4530 O 434.701 0.400509 1.90025 0
M  V30 4531 C 431.831 1.11793 3.28816 0
M  V30 4532 C 430.785 2.21417 3.66277 0
M  V30 4533 C 430.111 1.85218 5.01596 0
M  V30 4534 C 431.411 3.63489 3.75064 0
M  V30 4535 H 433.105 2.2743 1.9472 0
M  V30 4536 H 430.651 1.09479 0.935437 0
M  V30 4537 H 432.604 1.08222 4.07266 0
M  V30 4538 H 431.328 0.139501 3.26302 0
M  V30 4539 H 429.987 2.2411 2.90121 0
M  V30 4540 H 429.635 0.859544 4.95602 0
M  V30 4541 H 429.335 2.58611 5.27631 0
M  V30 4542 H 430.859 1.832 5.82469 0
M  V30 4543 H 432.273 3.63034 4.43711 0
M  V30 4544 H 430.67 4.35771 4.12582 0
M  V30 4545 H 431.74 3.98536 2.76219 0
M  V30 4546 N 433.083 -1.0153 1.20538 0
M  V30 4547 C 434.046 -2.0826 0.957098 0
M  V30 4548 C 435.046 -1.60657 -0.0678655 0
M  V30 4549 O 436.236 -1.73385 0.168332 0
M  V30 4550 C 433.368 -3.38033 0.441188 0
M  V30 4551 H 434.561 -2.31719 1.90384 0
M  V30 4552 H 432.114 -1.1835 1.02093 0
M  V30 4553 H 432.849 -3.20249 -0.510961 0
M  V30 4554 H 432.634 -3.73911 1.18038 0
M  V30 4555 H 434.124 -4.16613 0.287009 0
M  V30 4556 N 434.561 -1.01147 -1.20859 0
M  V30 4557 C 435.494 -0.522108 -2.22147 0
M  V30 4558 C 436.472 0.427686 -1.56874 0
M  V30 4559 O 437.656 0.34889 -1.85243 0
M  V30 4560 C 434.783 0.240819 -3.37843 0
M  V30 4561 C 433.829 -0.657752 -4.21398 0
M  V30 4562 S 434.662 -2.12393 -4.91578 0
M  V30 4563 C 435.818 -1.37102 -6.10699 0
M  V30 4564 H 436.051 -1.38035 -2.63313 0
M  V30 4565 H 433.584 -0.819941 -1.30829 0
M  V30 4566 H 435.542 0.674908 -4.04914 0
M  V30 4567 H 434.203 1.07457 -2.95147 0
M  V30 4568 H 433.396 -0.0697456 -5.03952 0
M  V30 4569 H 432.998 -1.0294 -3.59555 0
M  V30 4570 H 435.29 -0.648315 -6.74391 0
M  V30 4571 H 436.233 -2.17252 -6.73949 0
M  V30 4572 H 436.641 -0.876154 -5.57659 0
M  V30 4573 N 436.039 1.36541 -0.78704 0
M  V30 4574 C 436.972 2.27831 -0.129765 0
M  V30 4575 C 437.95 1.47105 0.692732 0
M  V30 4576 O 439.134 1.7641 0.664222 0
M  V30 4577 C 436.261 3.28577 0.821883 0
M  V30 4578 C 435.307 4.26422 0.0814771 0
M  V30 4579 S 436.14 5.20919 -1.24112 0
M  V30 4580 C 437.296 6.25212 -0.293409 0
M  V30 4581 H 437.529 2.83229 -0.903811 0
M  V30 4582 H 435.062 1.43046 -0.581144 0
M  V30 4583 H 437.02 3.87123 1.3655 0
M  V30 4584 H 435.681 2.72096 1.56916 0
M  V30 4585 H 434.874 4.97554 0.803485 0
M  V30 4586 H 434.476 3.71944 -0.391589 0
M  V30 4587 H 436.768 6.75435 0.528622 0
M  V30 4588 H 437.711 7.01378 -0.973344 0
M  V30 4589 H 438.119 5.64407 0.102196 0
M  V30 4590 N 437.518 0.538854 1.48102 0
M  V30 4591 C 438.466 -0.232325 2.31437 0
M  V30 4592 C 439.46 -0.927004 1.41785 0
M  V30 4593 O 440.666 -0.850378 1.58646 0
M  V30 4594 H 437.041 -0.0937916 0.746128 0
M  V30 4595 H 439.012 0.489986 2.9435 0
M  V30 4596 C 437.761 -1.26074 3.24038 0
M  V30 4597 H 437.084 -0.735609 3.92974 0
M  V30 4598 H 438.524 -1.77157 3.85216 0
M  V30 4599 C 436.983 -2.29902 2.46265 0
M  V30 4600 O 437.513 -3.36502 2.19384 0
M  V30 4601 N 435.719 -2.03348 2.07601 0
M  V30 4602 H 435.266 -1.16675 2.29662 0
M  V30 4603 H 435.224 -2.73038 1.55877 0
M  V30 4604 N 438.996 -1.55193 0.274407 0
M  V30 4605 C 440.407 -1.85358 -0.223488 0
M  V30 4606 C 440.758 -1.19642 -1.555 0
M  V30 4607 O 439.883 -0.484498 -2.10907 0
M  V30 4608 C 440.478 -3.36282 -0.412285 0
M  V30 4609 C 439.037 -3.66574 -0.854413 0
M  V30 4610 C 438.184 -2.7725 0.0527056 0
M  V30 4611 H 441.135 -1.50743 0.496215 0
M  V30 4612 H 441.156 -3.59349 -1.25094 0
M  V30 4613 H 440.668 -3.84083 0.556965 0
M  V30 4614 H 438.769 -3.24273 -1.83516 0
M  V30 4615 H 438.882 -4.74073 -0.692226 0
M  V30 4616 H 437.246 -2.50447 -0.463484 0
M  V30 4617 H 438.029 -3.27865 1.01783 0
M  V30 4618 N 440.474 -0.00167713 -1.576 0
M  V30 4619 C 441.699 0.69739 -1.95323 0
M  V30 4620 C 442.124 1.6642 -0.876706 0
M  V30 4621 O 441.482 1.80548 0.165007 0
M  V30 4622 C 441.53 1.40403 -3.32144 0
M  V30 4623 O 440.634 2.5185 -3.26566 0
M  V30 4624 H 439.975 0.185373 -0.637599 0
M  V30 4625 H 442.505 -0.0553665 -2.04525 0
M  V30 4626 H 442.515 1.76707 -3.67748 0
M  V30 4627 H 441.19 0.695167 -4.10049 0
M  V30 4628 H 439.767 2.17861 -3.0264 0
M  V30 4629 N 441.952 1.55251 0.271103 0
M  V30 4630 C 442.882 1.9127 1.33933 0
M  V30 4631 C 443.863 0.77478 1.5143 0
M  V30 4632 O 445.048 1.03307 1.64442 0
M  V30 4633 C 442.178 2.18627 2.69851 0
M  V30 4634 C 441.132 3.34442 2.67081 0
M  V30 4635 C 440.458 3.47284 4.06569 0
M  V30 4636 C 441.758 4.70784 2.26185 0
M  V30 4637 H 443.452 2.80744 1.04035 0
M  V30 4638 H 440.998 1.35077 0.499017 0
M  V30 4639 H 442.951 2.42413 3.44694 0
M  V30 4640 H 441.675 1.25955 3.01335 0
M  V30 4641 H 440.334 3.10627 1.94695 0
M  V30 4642 H 439.982 2.52074 4.35279 0
M  V30 4643 H 439.682 4.25152 4.0561 0
M  V30 4644 H 441.206 3.73363 4.83148 0
M  V30 4645 H 442.62 4.94102 2.90751 0
M  V30 4646 H 441.017 5.51582 2.36384 0
M  V30 4647 H 442.087 4.69478 1.21319 0
M  V30 4648 N 443.43 -0.535701 1.48216 0
M  V30 4649 C 444.841 -1.11769 1.49548 0
M  V30 4650 C 445.192 -1.94442 0.26207 0
M  V30 4651 O 444.317 -2.06987 -0.631287 0
M  V30 4652 C 444.912 -2.03367 2.70975 0
M  V30 4653 C 443.471 -2.56795 2.75196 0
M  V30 4654 C 442.618 -1.33631 2.42977 0
M  V30 4655 H 445.569 -0.321232 1.55415 0
M  V30 4656 H 445.59 -2.87569 2.49167 0
M  V30 4657 H 445.102 -1.43169 3.60727 0
M  V30 4658 H 443.203 -3.20731 1.89638 0
M  V30 4659 H 443.316 -2.9632 3.76472 0
M  V30 4660 H 441.68 -1.6502 1.94012 0
M  V30 4661 H 442.463 -0.75194 3.34964 0
M  V30 4662 N 444.908 -1.36708 -0.784132 0
M  V30 4663 C 446.156 -1.30972 -1.53918 0
M  V30 4664 C 446.477 0.109086 -1.94695 0
M  V30 4665 O 445.747 1.05048 -1.65353 0
M  V30 4666 H 444.327 -0.481819 -0.570841 0
M  V30 4667 H 446.989 -1.71063 -0.934002 0
M  V30 4668 H 446.085 -1.94061 -2.44431 0
M  V30 4669 N 446.386 1.0089 -1.21074 0
M  V30 4670 C 447.632 1.7497 -1.03717 0
M  V30 4671 C 447.987 1.8764 0.425344 0
M  V30 4672 O 447.28 1.39679 1.3115 0
M  V30 4673 C 447.474 3.16335 -1.66334 0
M  V30 4674 C 447.303 3.17449 -3.18522 0
M  V30 4675 C 446.073 3.2425 -3.87543 0
M  V30 4676 C 448.271 3.02877 -4.15656 0
M  V30 4677 N 446.253 3.14949 -5.26954 0
M  V30 4678 C 447.624 3.0143 -5.41793 0
M  V30 4679 C 449.679 2.8715 -4.06755 0
M  V30 4680 C 448.382 2.85869 -6.60054 0
M  V30 4681 C 450.408 2.72944 -5.24648 0
M  V30 4682 C 449.77 2.72171 -6.49694 0
M  V30 4683 H 445.869 0.650627 -0.43383 0
M  V30 4684 H 448.453 1.19944 -1.53367 0
M  V30 4685 H 446.624 3.69638 -1.19256 0
M  V30 4686 H 448.356 3.78888 -1.42219 0
M  V30 4687 H 445.111 3.31288 -3.38446 0
M  V30 4688 H 445.535 3.13651 -5.9996 0
M  V30 4689 H 450.177 2.86557 -3.10878 0
M  V30 4690 H 447.895 2.8521 -7.56096 0
M  V30 4691 H 451.481 2.61782 -5.19578 0
M  V30 4692 H 450.361 2.61307 -7.39384 0
M  V30 4693 N 447.864 1.01787 1.20321 0
M  V30 4694 C 448.811 0.589197 2.23153 0
M  V30 4695 C 449.781 -0.391367 1.61423 0
M  V30 4696 O 450.966 -0.290518 1.88575 0
M  V30 4697 C 448.106 -0.0650747 3.45039 0
M  V30 4698 C 447.219 0.960207 4.21194 0
M  V30 4699 C 446.354 0.276854 5.30478 0
M  V30 4700 C 445.393 1.2888 5.98378 0
M  V30 4701 N 444.53 0.632031 6.99249 0
M  V30 4702 H 449.37 1.47071 2.59179 0
M  V30 4703 H 446.907 0.736192 1.27352 0
M  V30 4704 H 448.865 -0.461552 4.14639 0
M  V30 4705 H 447.495 -0.910233 3.09701 0
M  V30 4706 H 446.547 1.47484 3.50646 0
M  V30 4707 H 447.859 1.72977 4.67847 0
M  V30 4708 H 447.013 -0.175056 6.06447 0
M  V30 4709 H 445.752 -0.525004 4.84866 0
M  V30 4710 H 444.757 1.75109 5.21169 0
M  V30 4711 H 445.982 2.09196 6.46076 0
M  V30 4712 H 443.928 -0.149935 6.55829 0
M  V30 4713 H 443.845 1.33964 7.44036 0
M  V30 4714 H 445.113 0.203755 7.79234 0
M  V30 4715 N 449.342 -1.36122 0.79427 0
M  V30 4716 C 450.588 -1.99406 0.369452 0
M  V30 4717 C 450.921 -1.62886 -1.05743 0
M  V30 4718 O 450.196 -0.886053 -1.73145 0
M  V30 4719 C 450.479 -3.56046 0.538833 0
M  V30 4720 C 450.332 -4.02404 2.00976 0
M  V30 4721 C 451.651 -4.40079 -0.0431359 0
M  V30 4722 H 448.77 -0.724397 0.135712 0
M  V30 4723 H 451.412 -1.61461 1.00151 0
M  V30 4724 H 449.562 -3.885 0.000771004 0
M  V30 4725 H 451.234 -3.80415 2.60926 0
M  V30 4726 H 449.477 -3.53765 2.51063 0
M  V30 4727 H 450.148 -5.11344 2.07922 0
M  V30 4728 H 452.624 -4.14013 0.416228 0
M  V30 4729 H 451.5 -5.48799 0.105374 0
M  V30 4730 H 451.761 -4.27264 -1.13571 0
M  V30 4731 N 450.82 -0.546701 -1.47814 0
M  V30 4732 C 451.73 0.21026 -2.33656 0
M  V30 4733 C 452.746 0.922413 -1.47538 0
M  V30 4734 O 453.922 0.893652 -1.80488 0
M  V30 4735 C 450.987 1.23348 -3.24016 0
M  V30 4736 C 450.048 0.529883 -4.26017 0
M  V30 4737 C 449.281 1.50435 -5.12059 0
M  V30 4738 O 449.504 2.73837 -5.00369 0
M  V30 4739 O 448.438 1.03459 -5.92942 0
M  V30 4740 H 452.264 -0.493605 -2.99662 0
M  V30 4741 H 449.849 -0.307427 -1.46203 0
M  V30 4742 H 451.731 1.82438 -3.79861 0
M  V30 4743 H 450.406 1.91945 -2.60651 0
M  V30 4744 H 449.313 -0.101948 -3.73961 0
M  V30 4745 H 450.646 -0.11445 -4.92067 0
M  V30 4746 N 452.299 1.55045 -0.282633 0
M  V30 4747 C 453.539 2.01668 0.333088 0
M  V30 4748 C 453.903 1.1667 1.52486 0
M  V30 4749 O 455.104 1.52907 2.21072 0
M  V30 4750 C 453.375 3.50509 0.698442 0
M  V30 4751 S 454.934 4.19112 1.29963 0
M  V30 4752 H 451.752 0.703468 0.103219 0
M  V30 4753 H 454.354 1.91233 -0.406222 0
M  V30 4754 H 453.058 4.10015 -0.177693 0
M  V30 4755 H 452.589 3.64943 1.46902 0
M  V30 4756 H 454.604 4.23362 2.58803 0
M  V30 4757 N 453.777 0.010035 1.57597 0
M  V30 4758 C 455.023 -0.673697 1.91283 0
M  V30 4759 C 455.356 -1.72863 0.884979 0
M  V30 4760 O 454.631 -1.94268 -0.0949487 0
M  V30 4761 C 454.914 -1.30766 3.35518 0
M  V30 4762 C 454.767 -0.263578 4.49027 0
M  V30 4763 C 456.086 -2.23105 3.79358 0
M  V30 4764 H 453.205 -0.243439 0.695634 0
M  V30 4765 H 455.847 0.0633864 1.89894 0
M  V30 4766 H 453.997 -1.93588 3.36832 0
M  V30 4767 H 455.669 0.365738 4.59848 0
M  V30 4768 H 453.912 0.413077 4.31829 0
M  V30 4769 H 454.583 -0.746398 5.4693 0
M  V30 4770 H 457.059 -1.70289 3.79659 0
M  V30 4771 H 455.935 -2.64424 4.81011 0
M  V30 4772 H 456.196 -3.11433 3.13787 0
M  V30 4773 N 455.255 -1.55392 -0.262866 0
M  V30 4774 C 456.503 -1.76127 -0.991147 0
M  V30 4775 C 456.824 -0.571083 -1.8645 0
M  V30 4776 O 456.094 0.413698 -1.91482 0
M  V30 4777 H 454.674 -0.649528 -0.368948 0
M  V30 4778 H 457.336 -1.9281 -0.284655 0
M  V30 4779 H 456.432 -2.6663 -1.62219 0
M  V30 4780 N 456.733 0.527833 -1.48498 0
M  V30 4781 C 458.01 1.28905 -1.47115 0
M  V30 4782 C 458.39 2.10297 -0.184007 0
M  V30 4783 O 457.738 2.12728 0.834218 0
M  V30 4784 C 457.948 2.16866 -2.73441 0
M  V30 4785 C 459.296 2.76936 -3.21857 0
M  V30 4786 O 460.32 2.27152 -2.74373 0
M  V30 4787 O 459.179 3.67496 -4.04486 0
M  V30 4788 H 456.273 0.581918 -0.587623 0
M  V30 4789 H 458.819 0.544311 -1.60734 0
M  V30 4790 H 457.591 1.56521 -3.58632 0
M  V30 4791 H 457.214 2.98583 -2.62553 0
M  V30 4792 N 458.211 1.37122 0.776871 0
M  V30 4793 C 459.488 1.22586 1.52421 0
M  V30 4794 C 459.868 -0.182726 2.10308 0
M  V30 4795 O 459.216 -1.18979 1.9508 0
M  V30 4796 C 459.426 2.31782 2.60918 0
M  V30 4797 C 460.774 2.69071 3.2846 0
M  V30 4798 O 461.798 2.3092 2.71209 0
M  V30 4799 O 460.657 3.3478 4.31954 0
M  V30 4800 H 457.751 0.478045 0.674835 0
M  V30 4801 H 460.297 1.48888 0.814275 0
M  V30 4802 H 459.069 3.26131 2.16227 0
M  V30 4803 H 458.692 2.06916 3.39517 0
M  V30 4804 N 459.689 -1.00246 1.21608 0
M  V30 4805 C 460.938 -1.73476 1.02902 0
M  V30 4806 C 461.251 -1.90643 -0.437561 0
M  V30 4807 O 462.457 -2.61105 -0.74407 0
M  V30 4808 C 460.913 -3.12079 1.79261 0
M  V30 4809 C 460.521 -3.02877 3.30106 0
M  V30 4810 C 462.265 -3.89421 1.68972 0
M  V30 4811 C 460.172 -4.36575 3.98944 0
M  V30 4812 H 459.102 -0.650408 0.381425 0
M  V30 4813 H 461.753 -1.11985 1.45367 0
M  V30 4814 H 460.135 -3.74196 1.2959 0
M  V30 4815 H 461.309 -2.49983 3.87098 0
M  V30 4816 H 459.624 -2.39022 3.40965 0
M  V30 4817 H 462.221 -4.88362 2.17731 0
M  V30 4818 H 462.564 -4.1122 0.648397 0
M  V30 4819 H 463.097 -3.33963 2.16133 0
M  V30 4820 H 459.836 -4.19978 5.03288 0
M  V30 4821 H 459.356 -4.8942 3.4674 0
M  V30 4822 H 461.035 -5.05364 4.04 0
M  V30 4823 N 461.167 -1.02423 -1.1978 0
M  V30 4824 C 462.13 -0.605703 -2.21052 0
M  V30 4825 C 463.13 0.328209 -1.57415 0
M  V30 4826 O 464.32 0.115853 -1.73814 0
M  V30 4827 C 461.452 0.114366 -3.40708 0
M  V30 4828 H 462.645 -1.5017 -2.59594 0
M  V30 4829 H 460.198 -0.814888 -1.33376 0
M  V30 4830 H 460.933 1.02492 -3.07678 0
M  V30 4831 H 460.718 -0.556641 -3.88129 0
M  V30 4832 H 462.208 0.394272 -4.15735 0
M  V30 4833 N 462.645 1.35699 -0.801477 0
M  V30 4834 C 463.891 1.99643 -0.389135 0
M  V30 4835 C 464.246 1.62447 1.03095 0
M  V30 4836 O 463.539 0.875064 1.7045 0
M  V30 4837 C 463.733 3.53828 -0.504041 0
M  V30 4838 C 463.562 4.06 -1.93375 0
M  V30 4839 C 462.332 4.35592 -2.561 0
M  V30 4840 C 464.53 4.24905 -2.89759 0
M  V30 4841 N 462.512 4.73663 -3.90534 0
M  V30 4842 C 463.883 4.65914 -4.09052 0
M  V30 4843 C 465.938 4.07101 -2.86658 0
M  V30 4844 C 464.641 4.90984 -5.25669 0
M  V30 4845 C 466.667 4.33324 -4.02472 0
M  V30 4846 C 466.029 4.74601 -5.20512 0
M  V30 4847 H 462.128 0.758552 -0.19006 0
M  V30 4848 H 464.712 1.64493 -1.04164 0
M  V30 4849 H 462.883 3.88219 0.118437 0
M  V30 4850 H 464.615 4.04645 -0.0667794 0
M  V30 4851 H 461.37 4.25728 -2.07492 0
M  V30 4852 H 461.794 4.96965 -4.59734 0
M  V30 4853 H 466.436 3.74335 -1.96552 0
M  V30 4854 H 464.154 5.22626 -6.1635 0
M  V30 4855 H 467.74 4.21107 -4.01447 0
M  V30 4856 H 466.62 4.94497 -6.08639 0
M  V30 4857 N 464.123 0.554532 1.47522 0
M  V30 4858 C 465.056 -0.242442 2.26908 0
M  V30 4859 C 466.034 -0.922722 1.33883 0
M  V30 4860 O 467.218 -0.942244 1.63261 0
M  V30 4861 C 464.345 -1.34525 3.10839 0
M  V30 4862 C 463.391 -0.773805 4.19422 0
M  V30 4863 S 464.224 0.377525 5.34168 0
M  V30 4864 C 465.38 -0.727164 6.21662 0
M  V30 4865 H 465.613 0.431218 2.94156 0
M  V30 4866 H 463.146 0.3408 1.50592 0
M  V30 4867 H 465.104 -1.97683 3.59766 0
M  V30 4868 H 463.765 -1.99073 2.42958 0
M  V30 4869 H 462.958 -1.60187 4.77866 0
M  V30 4870 H 462.56 -0.218448 3.73361 0
M  V30 4871 H 464.852 -1.61992 6.57849 0
M  V30 4872 H 465.795 -0.180135 7.07871 0
M  V30 4873 H 466.203 -1.01863 5.55233 0
M  V30 4874 N 465.601 -1.54893 0.290851 0
M  V30 4875 C 466.548 -2.23138 -0.58974 0
M  V30 4876 C 467.518 -1.21036 -1.13752 0
M  V30 4877 O 468.703 -1.49626 -1.18392 0
M  V30 4878 C 465.843 -2.96811 -1.76061 0
M  V30 4879 C 464.956 -4.13665 -1.24519 0
M  V30 4880 C 464.091 -4.74944 -2.3791 0
M  V30 4881 C 463.13 -5.83963 -1.83451 0
M  V30 4882 N 462.267 -6.39239 -2.90376 0
M  V30 4883 H 467.107 -2.98 -0.00114915 0
M  V30 4884 H 464.644 -1.47096 0.0112006 0
M  V30 4885 H 466.602 -3.37751 -2.44909 0
M  V30 4886 H 465.232 -2.24344 -2.32098 0
M  V30 4887 H 464.284 -3.77737 -0.449288 0
M  V30 4888 H 465.596 -4.92238 -0.806424 0
M  V30 4889 H 464.75 -5.18684 -3.14724 0
M  V30 4890 H 463.489 -3.95682 -2.85109 0
M  V30 4891 H 462.494 -5.39657 -1.05122 0
M  V30 4892 H 463.719 -6.65103 -1.37169 0
M  V30 4893 H 461.665 -5.62864 -3.36927 0
M  V30 4894 H 461.582 -7.13129 -2.50965 0
M  V30 4895 H 462.85 -6.87637 -3.67118 0
M  V30 4896 N 467.08 -0.0183926 -1.57589 0
M  V30 4897 C 468.327 0.662562 -1.91354 0
M  V30 4898 C 468.655 1.72747 -0.893788 0
M  V30 4899 O 467.91 1.9545 0.0988509 0
M  V30 4900 C 468.209 1.32676 -3.31861 0
M  V30 4901 C 467.875 0.393267 -4.49182 0
M  V30 4902 C 466.537 0.136302 -4.81007 0
M  V30 4903 C 468.889 -0.248366 -5.20608 0
M  V30 4904 C 466.217 -0.770282 -5.81621 0
M  V30 4905 C 468.569 -1.14294 -6.22189 0
M  V30 4906 C 467.233 -1.4089 -6.52462 0
M  V30 4907 H 466.503 0.242448 -0.700214 0
M  V30 4908 H 469.15 -0.0778629 -1.91342 0
M  V30 4909 H 467.455 2.14168 -3.28084 0
M  V30 4910 H 469.152 1.86001 -3.55253 0
M  V30 4911 H 465.742 0.603723 -4.24327 0
M  V30 4912 H 469.926 -0.062883 -4.9626 0
M  V30 4913 H 465.182 -0.984154 -6.03427 0
M  V30 4914 H 469.356 -1.64637 -6.76659 0
M  V30 4915 H 466.983 -2.11306 -7.30242 0
M  V30 4916 N 468.558 1.5553 0.254621 0
M  V30 4917 C 469.835 1.6774 1.00611 0
M  V30 4918 C 470.215 0.555993 2.03647 0
M  V30 4919 O 469.563 -0.441583 2.24193 0
M  V30 4920 C 469.773 3.07725 1.6464 0
M  V30 4921 C 471.121 3.66074 2.15116 0
M  V30 4922 O 472.145 3.10476 1.74595 0
M  V30 4923 O 471.004 4.63526 2.89493 0
M  V30 4924 H 468.098 0.681958 0.467828 0
M  V30 4925 H 470.644 1.67863 0.24902 0
M  V30 4926 H 469.416 3.80792 0.900734 0
M  V30 4927 H 469.039 3.1158 2.46989 0
M  V30 4928 N 470.036 -0.519951 1.48776 0
M  V30 4929 C 470.999 -1.60574 1.6355 0
M  V30 4930 C 471.999 -1.52557 0.508234 0
M  V30 4931 O 473.189 -1.56047 0.774262 0
M  V30 4932 C 470.321 -3.00211 1.61512 0
M  V30 4933 H 471.514 -1.4881 2.60376 0
M  V30 4934 H 469.067 -0.742772 1.37523 0
M  V30 4935 H 469.802 -3.17471 0.662009 0
M  V30 4936 H 469.587 -3.07439 2.43359 0
M  V30 4937 H 471.077 -3.79134 1.75064 0
M  V30 4938 N 471.514 -1.37532 -0.769588 0
M  V30 4939 C 472.446 -1.29347 -1.89214 0
M  V30 4940 C 473.459 -0.208842 -1.61455 0
M  V30 4941 O 474.648 -0.465158 -1.72333 0
M  V30 4942 C 471.748 -0.977649 -3.24492 0
M  V30 4943 C 470.921 -2.16817 -3.7988 0
M  V30 4944 C 469.98 -1.82229 -4.93639 0
M  V30 4945 O 469.006 -2.54548 -5.09111 0
M  V30 4946 N 470.208 -0.767696 -5.75401 0
M  V30 4947 H 472.973 -2.26073 -1.96751 0
M  V30 4948 H 470.534 -1.31185 -0.948795 0
M  V30 4949 H 472.526 -0.727065 -3.98115 0
M  V30 4950 H 471.096 -0.0988777 -3.12444 0
M  V30 4951 H 470.316 -2.58038 -2.9801 0
M  V30 4952 H 471.604 -2.96308 -4.13617 0
M  V30 4953 H 471.002 -0.167626 -5.65452 0
M  V30 4954 H 469.559 -0.576973 -6.49241 0
M  V30 4955 N 472.992 0.995999 -1.22138 0
M  V30 4956 C 474.24 1.73167 -1.042 0
M  V30 4957 C 474.561 1.90329 0.42423 0
M  V30 4958 O 473.831 1.4607 1.30539 0
M  V30 4959 H 472.411 0.641593 -0.38258 0
M  V30 4960 H 475.073 1.19974 -1.53598 0
M  V30 4961 H 474.169 2.72734 -1.51731 0
M  V30 4962 N 474.47 1.03057 1.19235 0
M  V30 4963 C 475.42 0.583386 2.2041 0
M  V30 4964 C 476.404 -0.368776 1.56617 0
M  V30 4965 O 477.596 -0.189471 1.75983 0
M  V30 4966 C 474.725 -0.0626534 3.43243 0
M  V30 4967 C 473.811 0.91205 4.14177 0
M  V30 4968 N 474.202 2.07514 4.61272 0
M  V30 4969 C 472.5 0.735859 4.39888 0
M  V30 4970 C 473.201 2.69003 5.15764 0
M  V30 4971 N 472.177 1.96954 5.06666 0
M  V30 4972 H 475.979 1.46988 2.54503 0
M  V30 4973 H 473.493 0.897785 1.35328 0
M  V30 4974 H 475.49 -0.400653 4.1497 0
M  V30 4975 H 474.15 -0.944813 3.1065 0
M  V30 4976 H 475.161 2.45448 4.56043 0
M  V30 4977 H 471.838 -0.0970656 4.17387 0
M  V30 4978 H 473.228 3.67514 5.6248 0
M  V30 4979 N 475.948 -1.35272 0.808662 0
M  V30 4980 C 476.878 -2.32315 0.234981 0
M  V30 4981 C 477.859 -1.57572 -0.64071 0
M  V30 4982 O 479.044 -1.8563 -0.570551 0
M  V30 4983 C 476.174 -3.41801 -0.615601 0
M  V30 4984 C 475.128 -4.27694 0.161767 0
M  V30 4985 C 474.454 -5.28519 -0.810649 0
M  V30 4986 C 475.754 -5.04231 1.36193 0
M  V30 4987 H 477.448 -2.80543 1.04575 0
M  V30 4988 H 474.994 -1.3488 0.504315 0
M  V30 4989 H 476.947 -4.08693 -1.02702 0
M  V30 4990 H 475.671 -2.92186 -1.45928 0
M  V30 4991 H 474.33 -3.62384 0.554382 0
M  V30 4992 H 473.978 -4.75171 -1.64988 0
M  V30 4993 H 473.678 -5.8686 -0.294822 0
M  V30 4994 H 475.202 -5.98283 -1.22023 0
M  V30 4995 H 476.616 -5.64058 1.02528 0
M  V30 4996 H 475.013 -5.72077 1.81239 0
M  V30 4997 H 476.083 -4.34753 2.14751 0
M  V30 4998 N 477.426 -0.562348 -1.47226 0
M  V30 4999 C 478.842 -0.222492 -1.58042 0
M  V30 5000 C 479.042 1.27505 -1.56028 0
M  V30 5001 O 478.098 2.05555 -1.46641 0
M  V30 5002 C 479.411 -0.853694 -2.88327 0
M  V30 5003 C 480.959 -0.825397 -3.01921 0
M  V30 5004 C 481.434 -1.43576 -4.34914 0
M  V30 5005 N 482.925 -1.39918 -4.41562 0
M  V30 5006 C 483.66 -1.84103 -5.43041 0
M  V30 5007 N 483.156 -2.36167 -6.51304 0
M  V30 5008 N 484.949 -1.75142 -5.34118 0
M  V30 5009 H 477.1 -1.53525 -1.46778 0
M  V30 5010 H 479.363 -0.640527 -0.698877 0
M  V30 5011 H 479.069 -1.90635 -2.95552 0
M  V30 5012 H 478.943 -0.34977 -3.75575 0
M  V30 5013 H 481.33 0.218583 -2.94289 0
M  V30 5014 H 481.411 -1.36713 -2.16202 0
M  V30 5015 H 481.055 -2.47884 -4.43301 0
M  V30 5016 H 480.985 -0.869427 -5.19373 0
M  V30 5017 H 483.476 -1.0184 -3.63919 0
M  V30 5018 H 483.789 -2.67793 -7.24919 0
M  V30 5019 H 482.134 -2.40181 -6.52179 0
M  V30 5020 H 485.325 -1.34241 -4.48439 0
M  V30 5021 H 485.498 -2.09895 -6.13065 0
M  V30 5022 N 478.904 1.54736 -0.299062 0
M  V30 5023 C 479.867 2.22127 0.565012 0
M  V30 5024 C 480.867 1.20669 1.06281 0
M  V30 5025 O 482.057 1.45417 0.959145 0
M  V30 5026 C 479.189 2.90611 1.78208 0
M  V30 5027 H 480.382 2.99891 -0.0237448 0
M  V30 5028 H 477.935 1.5622 -0.0498788 0
M  V30 5029 H 478.67 2.16921 2.41072 0
M  V30 5030 H 478.455 3.64984 1.43281 0
M  V30 5031 H 479.945 3.42026 2.396 0
M  V30 5032 N 480.382 0.0267497 1.57577 0
M  V30 5033 C 481.631 -0.651736 1.9088 0
M  V30 5034 C 481.944 -1.73427 0.904576 0
M  V30 5035 O 483.15 -2.46923 1.12877 0
M  V30 5036 C 481.606 -1.21048 3.38933 0
M  V30 5037 C 481.214 -0.161362 4.47709 0
M  V30 5038 C 482.958 -1.86562 3.81307 0
M  V30 5039 C 480.865 -0.731611 5.86857 0
M  V30 5040 H 479.795 -0.247198 0.712326 0
M  V30 5041 H 482.446 0.0916641 1.83271 0
M  V30 5042 H 480.828 -2.00542 3.41466 0
M  V30 5043 H 482.002 0.61094 4.56732 0
M  V30 5044 H 480.317 0.394877 4.14523 0
M  V30 5045 H 482.914 -2.30178 4.8262 0
M  V30 5046 H 483.257 -2.70735 3.16241 0
M  V30 5047 H 483.79 -1.13762 3.81186 0
M  V30 5048 H 480.529 0.0719329 6.55461 0
M  V30 5049 H 480.049 -1.47245 5.81445 0
M  V30 5050 H 481.728 -1.22208 6.35354 0
M  V30 5051 N 481.861 -1.55662 -0.24637 0
M  V30 5052 C 482.809 -1.91186 -1.3248 0
M  V30 5053 C 483.803 -0.790996 -1.49799 0
M  V30 5054 O 485.009 -0.975617 -1.51267 0
M  V30 5055 H 481.384 -0.607207 -0.443626 0
M  V30 5056 H 483.355 -2.81221 -0.997853 0
M  V30 5057 C 482.104 -2.22349 -2.67313 0
M  V30 5058 H 481.427 -3.08097 -2.54786 0
M  V30 5059 H 482.867 -2.51107 -3.41645 0
M  V30 5060 C 481.326 -1.04001 -3.20446 0
M  V30 5061 O 481.856 -0.28828 -4.00664 0
M  V30 5062 N 480.062 -0.830494 -2.7848 0
M  V30 5063 H 479.609 -1.4435 -2.13356 0
M  V30 5064 H 479.567 -0.0403258 -3.14374 0
M  V30 5065 N 483.339 0.512053 -1.4905 0
M  V30 5066 C 484.75 1.09376 -1.51307 0
M  V30 5067 C 485.101 1.94 -0.292971 0
M  V30 5068 O 484.226 2.07965 0.598277 0
M  V30 5069 C 484.821 1.99031 -2.74176 0
M  V30 5070 C 483.38 2.52385 -2.79247 0
M  V30 5071 C 482.527 1.29749 -2.45073 0
M  V30 5072 H 485.478 0.296467 -1.55906 0
M  V30 5073 H 485.499 2.83569 -2.53711 0
M  V30 5074 H 485.011 1.37412 -3.62959 0
M  V30 5075 H 483.112 3.17673 -1.94716 0
M  V30 5076 H 483.225 2.90293 -3.81139 0
M  V30 5077 H 481.589 1.61912 -1.96612 0
M  V30 5078 H 482.372 0.698555 -3.36118 0
M  V30 5079 N 484.817 1.37938 0.762283 0
M  V30 5080 C 485.727 1.36681 1.90671 0
M  V30 5081 C 486.743 0.265078 1.71969 0
M  V30 5082 O 487.919 0.502055 1.95042 0
M  V30 5083 C 484.984 1.18211 3.25925 0
M  V30 5084 C 484.045 2.3811 3.57214 0
M  V30 5085 C 483.278 2.20512 4.86014 0
M  V30 5086 O 483.501 1.19429 5.57757 0
M  V30 5087 O 482.435 3.08911 5.16583 0
M  V30 5088 H 486.261 2.33091 1.94685 0
M  V30 5089 H 483.846 1.18767 0.906356 0
M  V30 5090 H 485.728 1.09937 4.06807 0
M  V30 5091 H 484.403 0.248807 3.22742 0
M  V30 5092 H 483.31 2.51958 2.76529 0
M  V30 5093 H 484.643 3.30041 3.65149 0
M  V30 5094 N 486.295 -0.989507 1.22664 0
M  V30 5095 C 487.243 -2.10148 0.997035 0
M  V30 5096 C 488.237 -1.6929 -0.0609783 0
M  V30 5097 O 489.443 -1.79766 0.0917523 0
M  V30 5098 H 485.818 -0.687256 0.305259 0
M  V30 5099 H 487.789 -2.26685 1.94053 0
M  V30 5100 C 486.538 -3.4257 0.595085 0
M  V30 5101 H 485.861 -3.74453 1.40089 0
M  V30 5102 H 487.301 -4.21344 0.473869 0
M  V30 5103 C 485.76 -3.29638 -0.695725 0
M  V30 5104 O 486.29 -3.61709 -1.74727 0
M  V30 5105 N 484.496 -2.82814 -0.668173 0
M  V30 5106 H 484.043 -2.56914 0.18787 0
M  V30 5107 H 484.001 -2.74544 -1.5321 0
M  V30 5108 N 487.773 -1.03688 -1.18687 0
M  V30 5109 C 489.021 -0.736572 -1.88199 0
M  V30 5110 C 489.342 0.737665 -1.80509 0
M  V30 5111 O 488.612 1.53204 -1.22088 0
M  V30 5112 H 487.192 -0.269466 -0.696704 0
M  V30 5113 H 489.854 -1.31282 -1.44052 0
M  V30 5114 H 488.95 -1.03802 -2.94332 0
M  V30 5115 N 489.251 1.34841 -0.815825 0
M  V30 5116 C 490.498 1.98499 -0.400535 0
M  V30 5117 C 490.826 1.64699 1.03463 0
M  V30 5118 O 490.081 0.907006 1.73412 0
M  V30 5119 C 490.38 3.53273 -0.541541 0
M  V30 5120 C 490.046 4.06966 -1.94138 0
M  V30 5121 C 488.708 4.21341 -2.32433 0
M  V30 5122 C 491.06 4.35933 -2.85677 0
M  V30 5123 C 488.388 4.62007 -3.61617 0
M  V30 5124 C 490.74 4.78042 -4.14317 0
M  V30 5125 C 489.404 4.90622 -4.52599 0
M  V30 5126 H 488.674 0.72636 -0.146566 0
M  V30 5127 H 491.321 1.60902 -1.0384 0
M  V30 5128 H 489.626 3.91387 0.179741 0
M  V30 5129 H 491.323 4.00497 -0.20085 0
M  V30 5130 H 487.913 3.96235 -1.63388 0
M  V30 5131 H 492.097 4.24372 -2.57337 0
M  V30 5132 H 487.353 4.69937 -3.91113 0
M  V30 5133 H 491.527 4.99415 -4.85342 0
M  V30 5134 H 489.154 5.2189 -5.52752 0
M  V30 5135 N 490.729 0.570148 1.46925 0
M  V30 5136 C 491.976 0.0509529 2.02436 0
M  V30 5137 C 492.304 -1.30405 1.44308 0
M  V30 5138 O 491.559 -1.86493 0.593198 0
M  V30 5139 C 491.858 -0.0780336 3.57315 0
M  V30 5140 C 491.524 1.20775 4.34424 0
M  V30 5141 C 490.186 1.56004 4.5521 0
M  V30 5142 C 492.538 2.0592 4.78797 0
M  V30 5143 C 489.866 2.76201 5.17619 0
M  V30 5144 C 492.218 3.25332 5.42533 0
M  V30 5145 C 490.882 3.60859 5.61549 0
M  V30 5146 H 490.152 0.018645 0.740765 0
M  V30 5147 H 492.799 0.744262 1.76445 0
M  V30 5148 H 491.104 -0.854394 3.82371 0
M  V30 5149 H 492.801 -0.495312 3.97929 0
M  V30 5150 H 489.391 0.923469 4.18533 0
M  V30 5151 H 493.575 1.80008 4.62505 0
M  V30 5152 H 488.831 3.0388 5.30535 0
M  V30 5153 H 493.005 3.91586 5.75876 0
M  V30 5154 H 490.632 4.54088 6.09678 0
M  V30 5155 N 492.207 -1.54576 0.307264 0
M  V30 5156 C 493.455 -1.99867 -0.299574 0
M  V30 5157 C 493.776 -1.19714 -1.53927 0
M  V30 5158 O 493.046 -0.29472 -1.9367 0
M  V30 5159 H 491.626 -0.738299 -0.113683 0
M  V30 5160 H 494.288 -1.9032 0.420042 0
M  V30 5161 H 493.384 -3.06901 -0.567283 0
M  V30 5162 N 493.685 -0.035106 -1.57561 0
M  V30 5163 C 494.931 0.64318 -1.92331 0
M  V30 5164 C 495.264 1.71434 -0.912368 0
M  V30 5165 O 494.539 1.94395 0.0640303 0
M  V30 5166 C 494.822 1.25411 -3.37556 0
M  V30 5167 C 494.675 0.192109 -4.4939 0
M  V30 5168 C 495.994 2.17041 -3.82859 0
M  V30 5169 H 493.113 0.232341 -0.699419 0
M  V30 5170 H 495.755 -0.0935889 -1.89769 0
M  V30 5171 H 493.905 1.88205 -3.39869 0
M  V30 5172 H 495.577 -0.438849 -4.59208 0
M  V30 5173 H 493.82 -0.481725 -4.31117 0
M  V30 5174 H 494.491 0.659292 -5.48049 0
M  V30 5175 H 496.967 1.64228 -3.8232 0
M  V30 5176 H 495.843 2.56738 -4.85157 0
M  V30 5177 H 496.104 3.06401 -3.18702 0
M  V30 5178 N 495.163 1.55791 0.238111 0
M  V30 5179 C 496.126 1.90239 1.27835 0
M  V30 5180 C 497.126 0.779552 1.4064 0
M  V30 5181 O 498.316 1.04747 1.3919 0
M  V30 5182 C 495.448 2.13859 2.65475 0
M  V30 5183 H 496.641 2.83262 0.985034 0
M  V30 5184 H 494.194 1.48818 0.477799 0
M  V30 5185 H 494.929 1.23334 2.99932 0
M  V30 5186 H 494.714 2.95643 2.57561 0
M  V30 5187 H 496.204 2.41664 3.40571 0
M  V30 5188 N 496.642 -0.504142 1.49319 0
M  V30 5189 C 498.053 -1.08572 1.51885 0
M  V30 5190 C 498.404 -1.93842 0.303255 0
M  V30 5191 O 497.529 -2.0828 -0.58724 0
M  V30 5192 C 498.124 -1.97574 2.75227 0
M  V30 5193 C 496.683 -2.509 2.80581 0
M  V30 5194 C 495.83 -1.28447 2.45757 0
M  V30 5195 H 498.781 -0.288194 1.56061 0
M  V30 5196 H 498.802 -2.82219 2.55211 0
M  V30 5197 H 498.314 -1.35486 3.63683 0
M  V30 5198 H 496.415 -3.16636 1.96398 0
M  V30 5199 H 496.528 -2.88268 3.82673 0
M  V30 5200 H 494.892 -1.60868 1.97468 0
M  V30 5201 H 495.675 -0.68072 3.36483 0
M  V30 5202 N 498.12 -1.38341 -0.754957 0
M  V30 5203 C 499.368 -1.34208 -1.51105 0
M  V30 5204 C 499.689 0.0677634 -1.94882 0
M  V30 5205 O 498.959 1.01517 -1.67544 0
M  V30 5206 H 497.539 -0.493819 -0.560493 0
M  V30 5207 H 500.201 -1.73005 -0.897507 0
M  V30 5208 H 499.297 -1.99203 -2.4026 0
M  V30 5209 N 499.598 0.982988 -1.23187 0
M  V30 5210 C 500.826 1.75921 -1.08901 0
M  V30 5211 C 501.241 1.85341 0.359719 0
M  V30 5212 O 500.598 1.33072 1.24892 0
M  V30 5213 C 500.649 3.18742 -1.70545 0
M  V30 5214 O 500.37 3.09814 -3.09753 0
M  V30 5215 C 501.871 4.1277 -1.61667 0
M  V30 5216 H 499.091 0.552166 -0.381252 0
M  V30 5217 H 501.635 1.23516 -1.62985 0
M  V30 5218 H 499.79 3.68182 -1.20501 0
M  V30 5219 H 500.204 3.99703 -3.39614 0
M  V30 5220 H 501.678 5.10697 -2.09506 0
M  V30 5221 H 502.155 4.3542 -0.575009 0
M  V30 5222 H 502.761 3.69232 -2.11064 0
M  V30 5223 N 501.076 1.04316 1.18135 0
M  V30 5224 C 502.301 0.768047 1.92655 0
M  V30 5225 C 502.726 -0.66904 1.758 0
M  V30 5226 O 502.084 -1.46372 1.06981 0
M  V30 5227 C 502.132 1.14239 3.42026 0
M  V30 5228 O 501.236 0.269333 4.1152 0
M  V30 5229 H 500.577 0.282436 0.600937 0
M  V30 5230 H 503.107 1.39367 1.49793 0
M  V30 5231 H 503.117 1.10538 3.92741 0
M  V30 5232 H 501.792 2.18928 3.53615 0
M  V30 5233 H 500.369 0.366175 3.71098 0
M  V30 5234 N 502.554 -1.34406 0.822964 0
M  V30 5235 C 503.8 -1.98578 0.411666 0
M  V30 5236 C 504.133 -1.65093 -1.02264 0
M  V30 5237 O 503.408 -0.92258 -1.71227 0
M  V30 5238 C 503.691 -3.54823 0.614235 0
M  V30 5239 C 503.544 -3.9805 2.09466 0
M  V30 5240 C 504.863 -4.40071 0.050221 0
M  V30 5241 H 501.982 -0.721355 0.151047 0
M  V30 5242 H 504.624 -1.59301 1.03554 0
M  V30 5243 H 502.774 -3.88411 0.0831774 0
M  V30 5244 H 504.446 -3.74795 2.68936 0
M  V30 5245 H 502.689 -3.4836 2.5851 0
M  V30 5246 H 503.36 -5.06819 2.18721 0
M  V30 5247 H 505.836 -4.13037 0.503953 0
M  V30 5248 H 504.712 -5.48452 0.221759 0
M  V30 5249 H 504.973 -4.29576 -1.04482 0
M  V30 5250 N 504.032 -0.577932 -1.46621 0
M  V30 5251 C 504.979 0.158048 -2.30258 0
M  V30 5252 C 505.949 0.888669 -1.40328 0
M  V30 5253 O 507.134 0.880283 -1.6928 0
M  V30 5254 C 504.274 1.16884 -3.24703 0
M  V30 5255 C 503.387 0.442163 -4.29731 0
M  V30 5256 C 502.522 1.44007 -5.11308 0
M  V30 5257 C 501.561 0.69952 -6.0809 0
M  V30 5258 N 500.698 1.64525 -6.82551 0
M  V30 5259 H 505.538 -0.561242 -2.92667 0
M  V30 5260 H 503.075 -0.288591 -1.44241 0
M  V30 5261 H 505.033 1.7677 -3.779 0
M  V30 5262 H 503.663 1.85591 -2.64113 0
M  V30 5263 H 502.715 -0.271632 -3.79429 0
M  V30 5264 H 504.027 -0.136992 -4.98612 0
M  V30 5265 H 503.181 2.11186 -5.68758 0
M  V30 5266 H 501.92 2.05315 -4.42377 0
M  V30 5267 H 500.925 0.0139217 -5.49798 0
M  V30 5268 H 502.15 0.091894 -6.79038 0
M  V30 5269 H 500.096 2.24653 -6.16334 0
M  V30 5270 H 500.013 1.11878 -7.47676 0
M  V30 5271 H 501.281 2.30754 -7.44562 0
M  V30 5272 N 505.51 1.54411 -0.315457 0
M  V30 5273 C 506.738 2.04833 0.291738 0
M  V30 5274 C 507.153 1.19203 1.46411 0
M  V30 5275 O 506.51 0.220867 1.81159 0
M  V30 5276 C 506.561 3.53969 0.73404 0
M  V30 5277 O 506.282 4.36346 -0.391682 0
M  V30 5278 C 507.783 4.2045 1.40489 0
M  V30 5279 H 505.003 0.668195 0.0612947 0
M  V30 5280 H 507.547 1.99276 -0.45929 0
M  V30 5281 H 505.702 3.5984 1.43506 0
M  V30 5282 H 506.116 5.24481 -0.0447088 0
M  V30 5283 H 507.59 5.26278 1.66539 0
M  V30 5284 H 508.067 3.71067 2.3496 0
M  V30 5285 H 508.673 4.18694 0.746662 0
M  V30 5286 N 506.988 0.0434614 1.5754 0
M  V30 5287 C 507.936 -0.951465 2.1225 0
M  V30 5288 C 508.93 -1.3274 1.05245 0
M  V30 5289 O 510.136 -1.30795 1.23663 0
M  V30 5290 H 506.511 -0.324667 0.678303 0
M  V30 5291 H 508.482 -0.464855 2.94757 0
M  V30 5292 C 507.231 -2.21972 2.67626 0
M  V30 5293 H 506.554 -1.93923 3.4962 0
M  V30 5294 H 507.994 -2.89765 3.09536 0
M  V30 5295 C 506.453 -2.95919 1.61038 0
M  V30 5296 O 506.983 -3.8857 1.01862 0
M  V30 5297 N 505.189 -2.58511 1.32741 0
M  V30 5298 H 504.736 -1.83244 1.81051 0
M  V30 5299 H 504.694 -3.08296 0.616531 0
M  V30 5300 N 508.466 -1.55915 -0.229846 0
M  V30 5301 C 509.877 -1.68809 -0.797531 0
M  V30 5302 C 510.228 -0.643995 -1.8533 0
M  V30 5303 O 509.353 0.206492 -2.15413 0
M  V30 5304 C 509.948 -3.06043 -1.45338 0
M  V30 5305 C 508.507 -3.20819 -1.96856 0
M  V30 5306 C 507.654 -2.6472 -0.825736 0
M  V30 5307 H 510.605 -1.58699 -0.00533733 0
M  V30 5308 H 510.626 -3.01438 -2.32196 0
M  V30 5309 H 510.138 -3.82012 -0.684743 0
M  V30 5310 H 508.239 -2.49704 -2.76548 0
M  V30 5311 H 508.352 -4.27937 -2.15423 0
M  V30 5312 H 506.716 -2.22985 -1.23084 0
M  V30 5313 H 507.499 -3.43229 -0.0699019 0
M  V30 5314 N 509.944 0.496216 -1.49584 0
M  V30 5315 C 510.892 1.61805 -1.67098 0
M  V30 5316 C 511.886 1.60667 -0.536877 0
M  V30 5317 O 513.092 1.65118 -0.716654 0
M  V30 5318 H 509.467 0.53646 -0.526986 0
M  V30 5319 H 511.438 1.44187 -2.61252 0
M  V30 5320 C 510.187 2.99912 -1.75921 0
M  V30 5321 H 509.51 3.01496 -2.62565 0
M  V30 5322 H 510.95 3.77931 -1.92209 0
M  V30 5323 C 509.409 3.33092 -0.505088 0
M  V30 5324 O 509.939 4.00019 0.367085 0
M  V30 5325 N 508.145 2.88278 -0.366599 0
M  V30 5326 H 507.692 2.33989 -1.07735 0
M  V30 5327 H 507.65 3.10846 0.47142 0
M  V30 5328 N 511.423 1.38739 0.74761 0
M  V30 5329 C 512.386 1.36241 1.84312 0
M  V30 5330 C 513.386 0.261811 1.58654 0
M  V30 5331 O 514.576 0.519031 1.66288 0
M  V30 5332 C 511.708 1.12253 3.21888 0
M  V30 5333 H 512.901 2.33712 1.87933 0
M  V30 5334 H 510.454 1.2412 0.949946 0
M  V30 5335 H 511.189 0.154133 3.23934 0
M  V30 5336 H 510.974 1.91943 3.41907 0
M  V30 5337 H 512.464 1.13215 4.0196 0
M  V30 5338 N 512.901 -0.976442 1.23707 0
M  V30 5339 C 514.15 -1.71254 1.06559 0
M  V30 5340 C 514.463 -1.91528 -0.397024 0
M  V30 5341 O 515.669 -2.62625 -0.688518 0
M  V30 5342 C 514.125 -3.08207 1.8584 0
M  V30 5343 C 513.733 -2.95806 3.36456 0
M  V30 5344 C 515.477 -3.85749 1.77194 0
M  V30 5345 C 513.384 -4.28015 4.08114 0
M  V30 5346 H 512.314 -0.642171 0.395136 0
M  V30 5347 H 514.965 -1.08877 1.4771 0
M  V30 5348 H 513.347 -3.71363 1.37498 0
M  V30 5349 H 514.521 -2.41716 3.92314 0
M  V30 5350 H 512.836 -2.31736 3.45959 0
M  V30 5351 H 515.433 -4.83633 2.28041 0
M  V30 5352 H 515.776 -4.09752 0.735477 0
M  V30 5353 H 516.309 -3.29303 2.23169 0
M  V30 5354 H 513.048 -4.09208 5.12083 0
M  V30 5355 H 512.568 -4.81955 3.57043 0
M  V30 5356 H 514.247 -4.96681 4.14629 0
M  V30 5357 N 514.379 -1.04941 -1.1758 0
M  V30 5358 C 515.326 -0.648155 -2.21512 0
M  V30 5359 C 516.296 0.348431 -1.62404 0
M  V30 5360 O 517.481 0.240419 -1.89279 0
M  V30 5361 C 514.621 -0.0264291 -3.4509 0
M  V30 5362 C 513.734 -1.07154 -4.185 0
M  V30 5363 C 512.869 -0.417403 -5.29558 0
M  V30 5364 C 511.908 -1.447 -5.94751 0
M  V30 5365 N 511.045 -0.817203 -6.97328 0
M  V30 5366 H 515.885 -1.53891 -2.55189 0
M  V30 5367 H 513.422 -0.769699 -1.25356 0
M  V30 5368 H 515.38 0.351456 -4.15717 0
M  V30 5369 H 514.01 0.827802 -3.12005 0
M  V30 5370 H 513.062 -1.56728 -3.46613 0
M  V30 5371 H 514.374 -1.8532 -4.63096 0
M  V30 5372 H 513.528 0.0142061 -6.06698 0
M  V30 5373 H 512.267 0.396265 -4.86087 0
M  V30 5374 H 511.272 -1.88865 -5.16343 0
M  V30 5375 H 512.497 -2.26252 -6.40302 0
M  V30 5376 H 510.443 -0.0239995 -6.55996 0
M  V30 5377 H 510.36 -1.53644 -7.40223 0
M  V30 5378 H 511.628 -0.410283 -7.7842 0
M  V30 5379 N 515.857 1.33968 -0.830081 0
M  V30 5380 C 517.085 2.0228 -0.434773 0
M  V30 5381 C 517.5 1.62487 0.961419 0
M  V30 5382 O 516.857 0.833849 1.62337 0
M  V30 5383 C 516.908 3.5751 -0.535625 0
M  V30 5384 O 516.629 3.95864 -1.87679 0
M  V30 5385 C 518.13 4.43091 -0.136137 0
M  V30 5386 H 515.35 0.648151 -0.173613 0
M  V30 5387 H 517.894 1.71089 -1.12022 0
M  V30 5388 H 516.049 3.87266 0.101817 0
M  V30 5389 H 516.463 4.9056 -1.85609 0
M  V30 5390 H 517.937 5.51398 -0.257772 0
M  V30 5391 H 518.414 4.29433 0.921076 0
M  V30 5392 H 519.02 4.18677 -0.747662 0
M  V30 5393 N 517.335 0.585699 1.46312 0
M  V30 5394 C 518.584 0.0701192 2.01578 0
M  V30 5395 C 518.897 -1.29889 1.46247 0
M  V30 5396 O 520.103 -1.90598 1.93351 0
M  V30 5397 C 518.559 0.0747499 3.59822 0
M  V30 5398 C 518.167 1.44226 4.24149 0
M  V30 5399 C 519.911 -0.38673 4.22735 0
M  V30 5400 C 517.818 1.40446 5.74481 0
M  V30 5401 H 516.748 0.0224441 0.753666 0
M  V30 5402 H 519.399 0.737789 1.68015 0
M  V30 5403 H 517.781 -0.659144 3.90476 0
M  V30 5404 H 518.955 2.19612 4.05101 0
M  V30 5405 H 517.27 1.84401 3.73343 0
M  V30 5406 H 519.867 -0.433853 5.32937 0
M  V30 5407 H 520.21 -1.40489 3.91878 0
M  V30 5408 H 520.743 0.293195 3.96718 0
M  V30 5409 H 517.482 2.39952 6.10003 0
M  V30 5410 H 517.002 0.692845 5.95785 0
M  V30 5411 H 518.681 1.11865 6.37256 0
M  V30 5412 N 518.813 -1.54241 0.323641 0
M  V30 5413 C 519.745 -2.21836 -0.576311 0
M  V30 5414 C 520.758 -1.21837 -1.07979 0
M  V30 5415 O 521.947 -1.48306 -0.99336 0
M  V30 5416 C 519.047 -2.86923 -1.80356 0
M  V30 5417 C 518.22 -4.1306 -1.43875 0
M  V30 5418 C 517.279 -4.6174 -2.52353 0
M  V30 5419 O 516.305 -5.26421 -2.16494 0
M  V30 5420 N 517.507 -4.35974 -3.83284 0
M  V30 5421 H 520.272 -2.997 0.00247987 0
M  V30 5422 H 517.833 -1.61233 0.146848 0
M  V30 5423 H 519.825 -3.16414 -2.52318 0
M  V30 5424 H 518.395 -2.12765 -2.29019 0
M  V30 5425 H 517.615 -3.90334 -0.550752 0
M  V30 5426 H 518.903 -4.95148 -1.17071 0
M  V30 5427 H 518.301 -3.84203 -4.15216 0
M  V30 5428 H 516.858 -4.70119 -4.51477 0
M  V30 5429 N 520.291 -0.0518155 -1.57515 0
M  V30 5430 C 521.238 0.922352 -2.11569 0
M  V30 5431 C 522.208 1.30842 -1.02321 0
M  V30 5432 O 523.393 1.39778 -1.29872 0
M  V30 5433 C 520.533 2.19167 -2.6657 0
M  V30 5434 C 519.646 1.86003 -3.89906 0
M  V30 5435 C 518.781 3.07398 -4.33221 0
M  V30 5436 C 517.82 2.70158 -5.49255 0
M  V30 5437 N 516.957 3.84248 -5.8762 0
M  V30 5438 H 521.797 0.454506 -2.94514 0
M  V30 5439 H 519.334 0.212718 -1.45554 0
M  V30 5440 H 521.292 2.93443 -2.96559 0
M  V30 5441 H 519.922 2.63528 -1.86421 0
M  V30 5442 H 518.974 1.01874 -3.66505 0
M  V30 5443 H 520.286 1.54592 -4.74239 0
M  V30 5444 H 519.44 3.89972 -4.64765 0
M  V30 5445 H 518.179 3.41988 -3.477 0
M  V30 5446 H 517.184 1.86001 -5.17382 0
M  V30 5447 H 518.409 2.36759 -6.36492 0
M  V30 5448 H 516.355 4.18638 -5.05053 0
M  V30 5449 H 516.272 3.56538 -6.66646 0
M  V30 5450 H 517.54 4.6746 -6.2378 0
M  V30 5451 N 521.769 1.56035 0.221574 0
M  V30 5452 C 522.717 1.93269 1.29421 0
M  V30 5453 C 523.711 0.814727 1.48521 0
M  V30 5454 O 524.917 0.999559 1.49696 0
M  V30 5455 H 521.292 0.614188 0.43391 0
M  V30 5456 H 523.263 2.82773 0.952987 0
M  V30 5457 C 522.012 2.26573 2.63742 0
M  V30 5458 H 521.335 3.12112 2.49853 0
M  V30 5459 H 522.775 2.5651 3.37607 0
M  V30 5460 C 521.234 1.09086 3.1875 0
M  V30 5461 O 521.764 0.351985 4.00155 0
M  V30 5462 N 519.97 0.874693 2.77124 0
M  V30 5463 H 519.517 1.47726 2.11033 0
M  V30 5464 H 519.475 0.0903349 3.1427 0
M  V30 5465 N 523.247 -0.488276 1.49845 0
M  V30 5466 C 524.475 -1.26527 1.63702 0
M  V30 5467 C 524.89 -1.8618 0.313447 0
M  V30 5468 O 524.247 -1.68432 -0.702624 0
M  V30 5469 C 524.298 -2.3864 2.71538 0
M  V30 5470 O 524.019 -1.81437 3.98763 0
M  V30 5471 C 525.52 -3.29805 2.96215 0
M  V30 5472 H 522.74 -0.383295 0.55075 0
M  V30 5473 H 525.284 -0.584779 1.95961 0
M  V30 5474 H 523.439 -3.02496 2.42023 0
M  V30 5475 H 523.853 -2.55135 4.58265 0
M  V30 5476 H 525.327 -4.04722 3.75372 0
M  V30 5477 H 525.804 -3.87563 2.06619 0
M  V30 5478 H 526.41 -2.71703 3.27196 0
M  V30 5479 N 524.725 -1.39134 -0.740242 0
M  V30 5480 C 525.974 -1.35384 -1.49512 0
M  V30 5481 C 526.287 0.04919 -1.95538 0
M  V30 5482 O 527.493 0.209257 -2.70692 0
M  V30 5483 C 525.949 -2.37812 -2.70136 0
M  V30 5484 C 525.557 -3.83804 -2.31081 0
M  V30 5485 C 527.301 -2.4313 -3.47977 0
M  V30 5486 C 525.208 -4.77886 -3.48395 0
M  V30 5487 H 524.138 -0.503297 -0.561434 0
M  V30 5488 H 526.789 -1.64754 -0.807974 0
M  V30 5489 H 525.171 -2.01505 -3.40899 0
M  V30 5490 H 526.345 -4.29123 -1.67898 0
M  V30 5491 H 524.66 -3.81732 -1.66343 0
M  V30 5492 H 527.257 -3.10614 -4.35228 0
M  V30 5493 H 527.6 -1.45423 -3.90074 0
M  V30 5494 H 528.133 -2.78304 -2.84239 0
M  V30 5495 H 524.872 -5.76836 -3.11353 0
M  V30 5496 H 524.392 -4.3725 -4.10576 0
M  V30 5497 H 526.071 -4.96538 -4.148 0
M  V30 5498 N 526.204 0.969867 -1.24223 0
M  V30 5499 C 527.451 1.71256 -1.08063 0
M  V30 5500 C 527.779 1.90734 0.380872 0
M  V30 5501 O 527.034 1.46469 1.29789 0
M  V30 5502 C 527.333 3.10883 -1.76314 0
M  V30 5503 C 526.999 3.11252 -3.26241 0
M  V30 5504 C 525.661 3.1106 -3.67144 0
M  V30 5505 C 528.013 3.05751 -4.22097 0
M  V30 5506 C 525.341 3.03097 -5.02344 0
M  V30 5507 C 527.693 2.9933 -5.57301 0
M  V30 5508 C 526.357 2.97466 -5.97554 0
M  V30 5509 H 525.627 0.62667 -0.395431 0
M  V30 5510 H 528.274 1.13422 -1.54297 0
M  V30 5511 H 526.579 3.72168 -1.22468 0
M  V30 5512 H 528.276 3.67138 -1.61277 0
M  V30 5513 H 524.866 3.12165 -2.93685 0
M  V30 5514 H 529.05 3.05031 -3.91497 0
M  V30 5515 H 524.306 3.00013 -5.32731 0
M  V30 5516 H 528.48 2.94033 -6.31283 0
M  V30 5517 H 526.107 2.91051 -7.02277 0
M  V30 5518 N 527.682 1.05563 1.17022 0
M  V30 5519 C 528.91 0.78845 1.91288 0
M  V30 5520 C 529.325 -0.656318 1.77025 0
M  V30 5521 O 528.682 -1.44869 1.10992 0
M  V30 5522 C 528.733 1.16444 3.42232 0
M  V30 5523 O 528.454 2.5525 3.5606 0
M  V30 5524 C 529.955 0.923937 4.33565 0
M  V30 5525 H 527.175 0.286389 0.606813 0
M  V30 5526 H 529.719 1.4073 1.48375 0
M  V30 5527 H 527.874 0.590266 3.82877 0
M  V30 5528 H 528.288 2.70097 4.49609 0
M  V30 5529 H 529.762 1.23672 5.37968 0
M  V30 5530 H 530.239 -0.140688 4.38975 0
M  V30 5531 H 530.845 1.48214 3.98639 0
M  V30 5532 N 529.16 -1.33526 0.837174 0
M  V30 5533 C 530.108 -2.31168 0.257698 0
M  V30 5534 C 531.102 -1.5806 -0.609388 0
M  V30 5535 O 532.308 -1.72941 -0.499139 0
M  V30 5536 H 528.683 -0.74922 0.0646058 0
M  V30 5537 H 530.654 -2.77552 1.09578 0
M  V30 5538 C 529.403 -3.4326 -0.553887 0
M  V30 5539 H 528.726 -3.99665 0.104008 0
M  V30 5540 H 530.166 -4.13782 -0.925219 0
M  V30 5541 C 528.625 -2.88965 -1.73207 0
M  V30 5542 O 529.155 -2.85013 -2.83073 0
M  V30 5543 N 527.361 -2.45596 -1.55342 0
M  V30 5544 H 526.908 -2.49009 -0.659705 0
M  V30 5545 H 526.866 -2.0962 -2.34322 0
M  V30 5546 N 530.638 -0.59345 -1.46 0
M  V30 5547 C 531.884 -0.0832754 -2.02629 0
M  V30 5548 C 532.217 1.27749 -1.46266 0
M  V30 5549 O 531.492 1.8395 -0.631866 0
M  V30 5550 C 531.775 -0.0290756 -3.60088 0
M  V30 5551 C 531.628 -1.41951 -4.26814 0
M  V30 5552 C 532.947 0.666055 -4.35031 0
M  V30 5553 H 530.066 -0.031736 -0.736316 0
M  V30 5554 H 532.708 -0.762711 -1.74019 0
M  V30 5555 H 530.858 0.549532 -3.84594 0
M  V30 5556 H 532.53 -2.04411 -4.13538 0
M  V30 5557 H 530.773 -1.98422 -3.8576 0
M  V30 5558 H 531.444 -1.33395 -5.3564 0
M  V30 5559 H 533.92 0.174401 -4.15734 0
M  V30 5560 H 532.796 0.673041 -5.44758 0
M  V30 5561 H 533.057 1.72946 -4.06869 0
M  V30 5562 N 532.116 1.54067 -0.331816 0
M  V30 5563 C 533.079 2.23275 0.517768 0
M  V30 5564 C 534.079 1.22897 1.03697 0
M  V30 5565 O 535.269 1.47419 0.928084 0
M  V30 5566 C 532.401 2.94326 1.72004 0
M  V30 5567 H 533.594 2.99773 -0.0873507 0
M  V30 5568 H 531.147 1.56079 -0.0830042 0
M  V30 5569 H 531.882 2.21986 2.36417 0
M  V30 5570 H 531.667 3.67941 1.35507 0
M  V30 5571 H 533.157 3.47031 2.32291 0
M  V30 5572 N 533.594 0.0601682 1.57485 0
M  V30 5573 C 534.504 -0.926121 2.15546 0
M  V30 5574 C 535.52 -1.33532 1.11558 0
M  V30 5575 O 536.696 -1.4104 1.4377 0
M  V30 5576 C 533.761 -2.17952 2.69625 0
M  V30 5577 C 532.822 -1.82783 3.88444 0
M  V30 5578 C 532.055 -3.02148 4.39935 0
M  V30 5579 O 532.278 -4.15803 3.90466 0
M  V30 5580 O 531.212 -2.82639 5.31412 0
M  V30 5581 H 535.038 -0.462289 3.00161 0
M  V30 5582 H 532.623 -0.162246 1.48516 0
M  V30 5583 H 534.505 -2.91474 3.04337 0
M  V30 5584 H 533.18 -2.63456 1.88077 0
M  V30 5585 H 532.087 -1.06549 3.58606 0
M  V30 5586 H 533.42 -1.42072 4.7125 0
M  V30 5587 N 535.072 -1.5615 -0.213296 0
M  V30 5588 C 536.3 -1.83638 -0.953139 0
M  V30 5589 C 536.715 -0.640362 -1.77609 0
M  V30 5590 O 536.072 0.391071 -1.78261 0
M  V30 5591 C 536.123 -3.09735 -1.86405 0
M  V30 5592 O 535.844 -4.24723 -1.07435 0
M  V30 5593 C 537.345 -3.5027 -2.71709 0
M  V30 5594 H 534.565 -0.610263 -0.278962 0
M  V30 5595 H 537.109 -2.03247 -0.226035 0
M  V30 5596 H 535.264 -2.92077 -2.545 0
M  V30 5597 H 535.678 -4.9641 -1.69343 0
M  V30 5598 H 537.152 -4.41515 -3.31313 0
M  V30 5599 H 537.629 -2.72406 -3.44516 0
M  V30 5600 H 538.235 -3.70396 -2.09015 0
M  V30 5601 N 536.55 0.480323 -1.50102 0
M  V30 5602 C 537.775 1.26126 -1.64642 0
M  V30 5603 C 538.2 1.85257 -0.325823 0
M  V30 5604 O 537.558 1.66854 0.709194 0
M  V30 5605 C 537.606 2.35243 -2.73301 0
M  V30 5606 O 536.71 3.39646 -2.33911 0
M  V30 5607 H 536.051 0.371463 -0.550374 0
M  V30 5608 H 538.581 0.572696 -1.96421 0
M  V30 5609 H 538.591 2.80695 -2.96098 0
M  V30 5610 H 537.266 1.91574 -3.6915 0
M  V30 5611 H 535.843 2.99969 -2.21525 0
M  V30 5612 N 538.028 1.39524 0.732853 0
M  V30 5613 C 539.305 1.27373 1.48444 0
M  V30 5614 C 539.685 -0.115725 2.10783 0
M  V30 5615 O 539.033 -1.12713 1.98766 0
M  V30 5616 C 539.243 2.39966 2.53412 0
M  V30 5617 C 540.591 2.79384 3.19733 0
M  V30 5618 O 541.615 2.39431 2.63725 0
M  V30 5619 O 540.474 3.48353 4.21085 0
M  V30 5620 H 537.568 0.499272 0.659285 0
M  V30 5621 H 540.114 1.51403 0.766496 0
M  V30 5622 H 538.886 3.32845 2.05742 0
M  V30 5623 H 538.509 2.17612 3.32762 0
M  V30 5624 N 539.506 -0.963266 1.24736 0
M  V30 5625 C 540.754 -1.70343 1.08755 0
M  V30 5626 C 541.075 -1.91387 -0.373619 0
M  V30 5627 O 540.345 -1.4948 -1.2662 0
M  V30 5628 H 538.925 -0.631224 0.399456 0
M  V30 5629 H 541.587 -1.15859 1.56725 0
M  V30 5630 H 540.683 -2.68616 1.58909 0
M  V30 5631 N 540.985 -1.06182 -1.16461 0
M  V30 5632 C 542.233 -0.776326 -1.86595 0
M  V30 5633 C 542.554 0.69921 -1.82033 0
M  V30 5634 O 541.824 1.50579 -1.2531 0
M  V30 5635 H 540.404 -0.284184 -0.690832 0
M  V30 5636 H 543.066 -1.34308 -1.41235 0
M  V30 5637 H 542.162 -1.10022 -2.92064 0
M  V30 5638 N 542.463 1.3308 -0.844243 0
M  V30 5639 C 543.709 1.97898 -0.443206 0
M  V30 5640 C 544.042 1.66699 0.99625 0
M  V30 5641 O 543.317 0.949704 1.69738 0
M  V30 5642 C 543.6 3.53801 -0.670606 0
M  V30 5643 C 543.453 3.94667 -2.15772 0
M  V30 5644 C 544.772 4.39936 -0.120226 0
M  V30 5645 H 541.891 0.718861 -0.162504 0
M  V30 5646 H 544.533 1.57633 -1.06075 0
M  V30 5647 H 542.683 3.88229 -0.14496 0
M  V30 5648 H 544.355 3.70469 -2.74865 0
M  V30 5649 H 542.598 3.44203 -2.6402 0
M  V30 5650 H 543.269 5.03275 -2.26757 0
M  V30 5651 H 545.745 4.12183 -0.5696 0
M  V30 5652 H 544.621 5.4803 -0.308984 0
M  V30 5653 H 544.882 4.31184 0.976347 0
M  V30 5654 N 543.941 0.601185 1.45683 0
M  V30 5655 C 545.171 0.0999093 2.06358 0
M  V30 5656 C 545.579 -1.21831 1.44754 0
M  V30 5657 O 544.922 -1.75157 0.553695 0
M  V30 5658 C 544.984 -0.12085 3.59297 0
M  V30 5659 C 544.648 1.11459 4.432 0
M  V30 5660 C 545.645 2.03118 4.7858 0
M  V30 5661 C 543.33 1.34162 4.84051 0
M  V30 5662 C 545.324 3.15814 5.53661 0
M  V30 5663 C 543.011 2.4716 5.58888 0
M  V30 5664 C 544.009 3.37814 5.93608 0
M  V30 5665 O 543.697 4.48846 6.66928 0
M  V30 5666 H 543.429 0.0630316 0.673055 0
M  V30 5667 H 545.983 0.826982 1.88016 0
M  V30 5668 H 544.213 -0.902744 3.76015 0
M  V30 5669 H 545.902 -0.572925 4.01836 0
M  V30 5670 H 546.668 1.86801 4.47583 0
M  V30 5671 H 542.547 0.645018 4.56465 0
M  V30 5672 H 546.091 3.86596 5.8068 0
M  V30 5673 H 541.988 2.63432 5.89299 0
M  V30 5674 H 542.756 4.47446 6.85371 0
M  V30 5675 N 545.419 -1.53889 0.339982 0
M  V30 5676 C 546.665 -2.01849 -0.250694 0
M  V30 5677 C 547.02 -1.22356 -1.48482 0
M  V30 5678 O 546.313 -0.301906 -1.89206 0
M  V30 5679 C 546.507 -3.51968 -0.620735 0
M  V30 5680 C 546.336 -4.45996 0.575981 0
M  V30 5681 C 545.106 -4.93619 1.08019 0
M  V30 5682 C 547.304 -4.93923 1.43332 0
M  V30 5683 N 545.286 -5.7159 2.2396 0
M  V30 5684 C 546.657 -5.69982 2.43969 0
M  V30 5685 C 548.712 -4.76038 1.45918 0
M  V30 5686 C 547.415 -6.30057 3.47016 0
M  V30 5687 C 549.441 -5.36961 2.47845 0
M  V30 5688 C 548.803 -6.12884 3.47208 0
M  V30 5689 H 544.902 -0.780054 -0.0551368 0
M  V30 5690 H 547.486 -1.88722 0.478741 0
M  V30 5691 H 545.657 -3.65308 -1.31928 0
M  V30 5692 H 547.389 -3.86677 -1.19429 0
M  V30 5693 H 544.144 -4.69134 0.64884 0
M  V30 5694 H 544.568 -6.15247 2.82489 0
M  V30 5695 H 549.21 -4.16887 0.704608 0
M  V30 5696 H 546.928 -6.88319 4.23371 0
M  V30 5697 H 550.514 -5.2503 2.50668 0
M  V30 5698 H 549.394 -6.59187 4.24785 0
M  V30 5699 N 546.897 -0.0685191 -1.57451 0
M  V30 5700 C 547.807 0.914677 -2.16034 0
M  V30 5701 C 548.823 1.32938 -1.12265 0
M  V30 5702 O 549.999 1.40275 -1.44516 0
M  V30 5703 C 547.064 2.16519 -2.70777 0
M  V30 5704 C 546.125 1.80721 -3.89408 0
M  V30 5705 C 545.358 2.9981 -4.41531 0
M  V30 5706 O 545.581 4.13727 -3.92666 0
M  V30 5707 O 544.515 2.79817 -5.32903 0
M  V30 5708 H 548.341 0.446364 -3.00402 0
M  V30 5709 H 545.926 0.154367 -1.486 0
M  V30 5710 H 547.808 2.89856 -3.05878 0
M  V30 5711 H 546.483 2.62454 -1.89471 0
M  V30 5712 H 545.39 1.04646 -3.59166 0
M  V30 5713 H 546.723 1.39571 -4.71997 0
M  V30 5714 N 548.375 1.56261 0.205012 0
M  V30 5715 C 549.623 1.79684 0.925096 0
M  V30 5716 C 549.944 0.63989 1.84202 0
M  V30 5717 O 549.214 -0.342345 1.92885 0
M  V30 5718 H 547.794 0.662774 0.344587 0
M  V30 5719 H 550.456 1.93734 0.212899 0
M  V30 5720 H 549.552 2.72467 1.52211 0
M  V30 5721 N 549.853 -0.472356 1.50355 0
M  V30 5722 C 551.102 -1.2213 1.60522 0
M  V30 5723 C 551.415 -1.9312 0.310466 0
M  V30 5724 O 552.621 -2.69936 0.291029 0
M  V30 5725 C 551.077 -2.21909 2.83345 0
M  V30 5726 C 550.685 -1.56727 4.19691 0
M  V30 5727 C 552.429 -2.97453 3.02856 0
M  V30 5728 C 550.336 -2.54785 5.33703 0
M  V30 5729 H 549.266 -0.459543 0.597776 0
M  V30 5730 H 551.917 -0.491922 1.76783 0
M  V30 5731 H 550.299 -2.98133 2.60639 0
M  V30 5732 H 551.473 -0.863007 4.52646 0
M  V30 5733 H 549.788 -0.934685 4.05774 0
M  V30 5734 H 552.385 -3.70838 3.85205 0
M  V30 5735 H 552.728 -3.56764 2.14534 0
M  V30 5736 H 553.261 -2.28342 3.25737 0
M  V30 5737 H 550 -2.00214 6.24175 0
M  V30 5738 H 549.52 -3.23367 5.05167 0
M  V30 5739 H 551.199 -3.16639 5.64224 0
M  V30 5740 N 551.331 -1.39911 -0.725443 0
M  V30 5741 C 552.608 -1.28158 -1.47766 0
M  V30 5742 C 552.988 0.104545 -2.10841 0
M  V30 5743 O 552.336 1.11657 -1.99361 0
M  V30 5744 C 552.546 -2.41306 -2.52135 0
M  V30 5745 C 553.894 -2.81076 -3.18247 0
M  V30 5746 O 554.918 -2.40827 -2.62452 0
M  V30 5747 O 553.777 -3.50581 -4.19231 0
M  V30 5748 H 550.871 -0.502761 -0.656628 0
M  V30 5749 H 553.417 -1.51808 -0.758456 0
M  V30 5750 H 552.189 -3.33932 -2.03974 0
M  V30 5751 H 551.812 -2.19374 -3.31603 0
M  V30 5752 N 552.809 0.956637 -1.25245 0
M  V30 5753 C 553.719 2.0868 -1.0719 0
M  V30 5754 C 554.735 1.73997 -0.00959074 0
M  V30 5755 O 555.911 2.00301 -0.210104 0
M  V30 5756 C 552.976 3.39754 -0.690526 0
M  V30 5757 C 552.037 3.88316 -1.83055 0
M  V30 5758 C 551.27 5.13134 -1.46728 0
M  V30 5759 O 551.493 5.6925 -0.362029 0
M  V30 5760 O 550.427 5.56356 -2.29677 0
M  V30 5761 H 554.253 2.26813 -2.01965 0
M  V30 5762 H 551.838 1.07098 -1.04165 0
M  V30 5763 H 553.72 4.18543 -0.489871 0
M  V30 5764 H 552.395 3.22896 0.227981 0
M  V30 5765 H 551.302 3.1054 -2.08604 0
M  V30 5766 H 552.635 4.09669 -2.72822 0
M  V30 5767 N 554.287 1.06798 1.15896 0
M  V30 5768 C 555.698 0.811355 1.68149 0
M  V30 5769 C 556.049 -0.664339 1.8461 0
M  V30 5770 O 555.174 -1.51485 1.54535 0
M  V30 5771 C 555.769 1.46624 3.05429 0
M  V30 5772 C 554.328 1.25726 3.54781 0
M  V30 5773 C 553.475 1.53949 2.3064 0
M  V30 5774 H 556.426 1.23078 1.00187 0
M  V30 5775 H 556.447 0.88437 3.7008 0
M  V30 5776 H 555.959 2.54025 2.93416 0
M  V30 5777 H 554.06 0.20322 3.72045 0
M  V30 5778 H 554.173 1.97354 4.36564 0
M  V30 5779 H 552.537 0.96025 2.35905 0
M  V30 5780 H 553.32 2.6252 2.2122 0
M  V30 5781 N 555.766 -1.3263 0.851289 0
M  V30 5782 C 556.696 -2.31449 0.308771 0
M  V30 5783 C 557.677 -1.59531 -0.590255 0
M  V30 5784 O 558.862 -1.87351 -0.511205 0
M  V30 5785 C 555.992 -3.43586 -0.506548 0
M  V30 5786 C 554.946 -4.26963 0.297753 0
M  V30 5787 C 554.272 -5.30831 -0.642094 0
M  V30 5788 C 555.572 -4.99643 1.52166 0
M  V30 5789 H 557.266 -2.77074 1.13447 0
M  V30 5790 H 554.812 -1.33207 0.546971 0
M  V30 5791 H 556.765 -4.11754 -0.896474 0
M  V30 5792 H 555.489 -2.96681 -1.36558 0
M  V30 5793 H 554.148 -3.60437 0.669391 0
M  V30 5794 H 553.796 -4.8018 -1.49788 0
M  V30 5795 H 553.496 -5.87501 -0.107968 0
M  V30 5796 H 555.02 -6.01862 -1.02927 0
M  V30 5797 H 556.434 -5.6051 1.20421 0
M  V30 5798 H 554.831 -5.66022 1.99347 0
M  V30 5799 H 555.901 -4.27701 2.28474 0
M  V30 5800 N 557.244 -0.608902 -1.45362 0
M  V30 5801 C 558.207 0.0992563 -2.28985 0
M  V30 5802 C 559.207 0.793841 -1.39838 0
M  V30 5803 O 560.397 0.641804 -1.61946 0
M  V30 5804 C 557.529 1.15073 -3.20891 0
M  V30 5805 H 558.722 -0.635964 -2.93079 0
M  V30 5806 H 556.275 -0.368007 -1.51906 0
M  V30 5807 H 557.01 1.91667 -2.616 0
M  V30 5808 H 556.795 0.656867 -3.86559 0
M  V30 5809 H 558.285 1.64665 -3.83765 0
M  V30 5810 N 558.722 1.53707 -0.348139 0
M  V30 5811 C 559.947 2.05877 0.250883 0
M  V30 5812 C 560.372 1.22115 1.43072 0
M  V30 5813 O 559.73 0.235986 1.79758 0
M  V30 5814 C 559.778 3.54886 0.639416 0
M  V30 5815 O 558.882 3.73948 1.73888 0
M  V30 5816 H 558.223 0.662754 0.040653 0
M  V30 5817 H 560.753 1.98303 -0.503685 0
M  V30 5818 H 560.763 3.97601 0.915295 0
M  V30 5819 H 559.438 4.153 -0.223386 0
M  V30 5820 H 558.015 3.43134 1.45991 0
M  V30 5821 N 560.2 0.0768682 1.57412 0
M  V30 5822 C 561.448 -0.589918 1.93299 0
M  V30 5823 C 561.769 -1.69842 0.958049 0
M  V30 5824 O 561.039 -1.95899 0.00703261 0
M  V30 5825 H 559.619 -0.220901 0.713591 0
M  V30 5826 H 562.281 0.135917 1.94425 0
M  V30 5827 H 561.377 -1.01195 2.95239 0
M  V30 5828 N 561.678 -1.56367 -0.196722 0
M  V30 5829 C 562.924 -1.80796 -0.918725 0
M  V30 5830 C 563.257 -0.650645 -1.82976 0
M  V30 5831 O 562.532 0.348889 -1.91345 0
M  V30 5832 C 562.815 -3.15472 -1.73636 0
M  V30 5833 C 562.668 -4.41693 -0.85015 0
M  V30 5834 C 563.987 -3.46824 -2.70927 0
M  V30 5835 H 561.106 -0.657702 -0.332561 0
M  V30 5836 H 563.748 -1.89086 -0.186186 0
M  V30 5837 H 561.898 -3.08536 -2.36088 0
M  V30 5838 H 563.57 -4.60673 -0.240459 0
M  V30 5839 H 561.813 -4.33517 -0.156785 0
M  V30 5840 H 562.484 -5.32419 -1.45719 0
M  V30 5841 H 564.96 -3.54049 -2.18607 0
M  V30 5842 H 563.836 -4.4218 -3.25219 0
M  V30 5843 H 564.097 -2.70236 -3.49893 0
M  V30 5844 N 563.156 0.464375 -1.50603 0
M  V30 5845 C 564.384 1.23907 -1.65695 0
M  V30 5846 C 564.799 1.85658 -0.343027 0
M  V30 5847 O 564.156 1.69529 0.675739 0
M  V30 5848 C 564.207 2.3429 -2.75301 0
M  V30 5849 O 563.928 1.7507 -4.01599 0
M  V30 5850 C 565.429 3.25051 -3.01424 0
M  V30 5851 H 562.649 0.374485 -0.556778 0
M  V30 5852 H 565.193 0.55353 -1.96866 0
M  V30 5853 H 563.348 2.98607 -2.46804 0
M  V30 5854 H 563.762 2.47812 -4.62266 0
M  V30 5855 H 565.236 3.98699 -3.81763 0
M  V30 5856 H 565.713 3.84227 -2.12758 0
M  V30 5857 H 566.319 2.66463 -3.31477 0
M  V30 5858 N 564.634 1.40294 0.718013 0
M  V30 5859 C 565.883 1.37746 1.4734 0
M  V30 5860 C 566.196 -0.0180754 1.95592 0
M  V30 5861 O 567.402 -0.166166 2.70991 0
M  V30 5862 C 565.858 2.4208 2.66318 0
M  V30 5863 C 565.466 3.87432 2.24945 0
M  V30 5864 C 567.21 2.48635 3.44065 0
M  V30 5865 C 565.117 4.83368 3.40748 0
M  V30 5866 H 564.047 0.512165 0.553356 0
M  V30 5867 H 566.698 1.66019 0.781661 0
M  V30 5868 H 565.08 2.06903 3.3765 0
M  V30 5869 H 566.254 4.3174 1.6105 0
M  V30 5870 H 564.569 3.8433 1.60249 0
M  V30 5871 H 567.166 3.17499 4.30231 0
M  V30 5872 H 567.509 1.51611 3.87711 0
M  V30 5873 H 568.042 2.82791 2.79775 0
M  V30 5874 H 564.781 5.81716 3.02136 0
M  V30 5875 H 564.301 4.43726 4.03568 0
M  V30 5876 H 565.98 5.03074 4.06848 0
M  V30 5877 N 566.112 -0.949982 1.2575 0
M  V30 5878 C 567.34 -1.72972 1.13527 0
M  V30 5879 C 567.755 -1.8623 -0.310453 0
M  V30 5880 O 567.112 -1.36336 -1.2132 0
M  V30 5881 C 567.163 -3.14108 1.78936 0
M  V30 5882 O 566.884 -3.01493 3.17858 0
M  V30 5883 C 568.385 -4.08338 1.72554 0
M  V30 5884 H 565.605 -0.541864 0.395758 0
M  V30 5885 H 568.149 -1.19151 1.66202 0
M  V30 5886 H 566.304 -3.64858 1.30221 0
M  V30 5887 H 566.718 -3.90559 3.50092 0
M  V30 5888 H 568.192 -5.04963 2.22973 0
M  V30 5889 H 568.669 -4.33742 0.690251 0
M  V30 5890 H 569.275 -3.63506 2.2078 0
M  V30 5891 N 567.59 -1.07411 -1.15328 0
M  V30 5892 C 568.815 -0.818856 -1.90551 0
M  V30 5893 C 569.24 0.622194 -1.77512 0
M  V30 5894 O 568.598 1.43484 -1.10824 0
M  V30 5895 C 568.646 -1.23267 -3.38877 0
M  V30 5896 O 567.75 -0.378345 -4.10661 0
M  V30 5897 H 567.091 -0.29827 -0.593238 0
M  V30 5898 H 569.621 -1.43289 -1.46046 0
M  V30 5899 H 569.631 -1.20912 -3.89672 0
M  V30 5900 H 568.306 -2.28226 -3.47686 0
M  V30 5901 H 566.883 -0.464437 -3.69996 0
M  V30 5902 N 569.068 1.32177 -0.85831 0
M  V30 5903 C 570.314 1.97813 -0.47346 0
M  V30 5904 C 570.669 1.66674 0.961122 0
M  V30 5905 O 569.962 0.94657 1.66585 0
M  V30 5906 C 570.156 3.51372 -0.653658 0
M  V30 5907 C 569.985 3.97433 -2.1042 0
M  V30 5908 C 568.755 4.24338 -2.74345 0
M  V30 5909 C 570.953 4.12233 -3.0752 0
M  V30 5910 N 568.935 4.56672 -4.10272 0
M  V30 5911 C 570.306 4.48146 -4.28445 0
M  V30 5912 C 572.361 3.94577 -3.03667 0
M  V30 5913 C 571.064 4.68246 -5.4602 0
M  V30 5914 C 573.09 4.15864 -4.20489 0
M  V30 5915 C 572.452 4.52098 -5.40173 0
M  V30 5916 H 568.551 0.749808 -0.222061 0
M  V30 5917 H 571.135 1.59927 -1.11047 0
M  V30 5918 H 569.306 3.88372 -0.0463267 0
M  V30 5919 H 571.038 4.03998 -0.238343 0
M  V30 5920 H 567.793 4.16544 -2.25362 0
M  V30 5921 H 568.217 4.77019 -4.80398 0
M  V30 5922 H 572.859 3.65662 -2.12252 0
M  V30 5923 H 570.577 4.96014 -6.37962 0
M  V30 5924 H 574.163 4.03702 -4.18947 0
M  V30 5925 H 573.043 4.68238 -6.29065 0
M  V30 5926 N 570.547 0.616602 1.45037 0
M  V30 5927 C 571.494 -0.0969439 2.30596 0
M  V30 5928 C 572.464 -0.851151 1.42635 0
M  V30 5929 O 573.649 -0.835092 1.71554 0
M  V30 5930 C 570.789 -1.08234 3.27688 0
M  V30 5931 C 569.902 -0.328072 4.30752 0
M  V30 5932 C 569.037 -1.30399 5.14946 0
M  V30 5933 C 568.076 -0.538049 6.09731 0
M  V30 5934 N 567.213 -1.46371 6.86673 0
M  V30 5935 H 572.053 0.63864 2.91076 0
M  V30 5936 H 569.59 0.326733 1.43425 0
M  V30 5937 H 571.548 -1.66688 3.82454 0
M  V30 5938 H 570.178 -1.78523 2.68941 0
M  V30 5939 H 569.23 0.372136 3.78575 0
M  V30 5940 H 570.542 0.269142 4.98073 0
M  V30 5941 H 569.696 -1.96032 5.74157 0
M  V30 5942 H 568.435 -1.93514 4.47665 0
M  V30 5943 H 567.44 0.131852 5.49642 0
M  V30 5944 H 568.665 0.0881732 6.79043 0
M  V30 5945 H 566.611 -2.08233 6.22073 0
M  V30 5946 H 566.528 -0.920152 7.50379 0
M  V30 5947 H 567.796 -2.10932 7.50418 0
M  V30 5948 N 572.025 -1.5352 0.356285 0
M  V30 5949 C 572.973 -2.26945 -0.50978 0
M  V30 5950 C 573.967 -1.29569 -1.09125 0
M  V30 5951 O 575.173 -1.47231 -1.03552 0
M  V30 5952 H 571.548 -0.729368 -0.183102 0
M  V30 5953 H 573.519 -2.98111 0.131374 0
M  V30 5954 C 572.268 -3.06466 -1.64237 0
M  V30 5955 H 571.591 -3.81233 -1.20423 0
M  V30 5956 H 573.031 -3.61035 -2.22327 0
M  V30 5957 C 571.49 -2.16737 -2.57928 0
M  V30 5958 O 572.02 -1.77195 -3.60507 0
M  V30 5959 N 570.226 -1.81558 -2.26903 0
M  V30 5960 H 569.773 -2.13913 -1.43524 0
M  V30 5961 H 569.731 -1.21806 -2.89846 0
M  V30 5962 N 573.503 -0.0852151 -1.57369 0
M  V30 5963 C 574.45 0.877268 -2.13478 0
M  V30 5964 C 575.42 1.28642 -1.05073 0
M  V30 5965 O 576.605 1.36992 -1.32808 0
M  V30 5966 C 573.745 2.13464 -2.71159 0
M  V30 5967 C 572.858 1.77691 -3.93764 0
M  V30 5968 C 571.993 2.98139 -4.39643 0
M  V30 5969 C 571.032 2.58447 -5.54862 0
M  V30 5970 N 570.169 3.71698 -5.95639 0
M  V30 5971 H 575.009 0.391933 -2.95411 0
M  V30 5972 H 572.546 0.181796 -1.45972 0
M  V30 5973 H 574.504 2.87086 -3.02717 0
M  V30 5974 H 573.134 2.59514 -1.91969 0
M  V30 5975 H 572.186 0.940768 -3.68583 0
M  V30 5976 H 573.498 1.44497 -4.77412 0
M  V30 5977 H 572.652 3.80026 -4.72933 0
M  V30 5978 H 571.391 3.34536 -3.54876 0
M  V30 5979 H 570.396 1.74984 -5.21211 0
M  V30 5980 H 571.621 2.23205 -6.41371 0
M  V30 5981 H 569.567 4.07831 -5.13819 0
M  V30 5982 H 569.484 3.42317 -6.74059 0
M  V30 5983 H 570.752 4.54123 -6.33555 0
M  V30 5984 N 574.981 1.5647 0.188427 0
M  V30 5985 C 575.891 1.98285 1.2538 0
M  V30 5986 C 576.907 0.891535 1.49424 0
M  V30 5987 O 578.083 1.19782 1.61908 0
M  V30 5988 C 575.148 2.31965 2.57669 0
M  V30 5989 C 574.209 3.54838 2.41638 0
M  V30 5990 C 573.442 3.86901 3.67618 0
M  V30 5991 O 573.665 3.20163 4.72072 0
M  V30 5992 O 572.599 4.80309 3.62749 0
M  V30 5993 H 576.425 2.89145 0.928912 0
M  V30 5994 H 574.01 1.44112 0.393955 0
M  V30 5995 H 575.892 2.54673 3.35737 0
M  V30 5996 H 574.567 1.44271 2.89771 0
M  V30 5997 H 573.474 3.37369 1.61658 0
M  V30 5998 H 574.807 4.43019 2.14465 0
M  V30 5999 N 576.459 -0.456382 1.50847 0
M  V30 6000 C 577.705 -1.20618 1.63777 0
M  V30 6001 C 578.06 -1.8936 0.340677 0
M  V30 6002 O 577.353 -1.79786 -0.662378 0
M  V30 6003 C 577.547 -2.26336 2.76599 0
M  V30 6004 C 577.376 -1.67968 4.17153 0
M  V30 6005 C 576.146 -1.47293 4.83356 0
M  V30 6006 C 578.344 -1.16643 5.00898 0
M  V30 6007 N 576.326 -0.843222 6.08081 0
M  V30 6008 C 577.697 -0.660843 6.16468 0
M  V30 6009 C 579.752 -1.05637 4.86565 0
M  V30 6010 C 578.455 -0.0560365 7.19278 0
M  V30 6011 C 580.481 -0.465485 5.89565 0
M  V30 6012 C 579.843 0.0296516 7.04394 0
M  V30 6013 H 575.942 -0.429725 0.653345 0
M  V30 6014 H 578.526 -0.505784 1.88016 0
M  V30 6015 H 576.697 -2.93785 2.54056 0
M  V30 6016 H 578.429 -2.9334 2.78808 0
M  V30 6017 H 575.184 -1.72934 4.40898 0
M  V30 6018 H 575.608 -0.546357 6.74792 0
M  V30 6019 H 580.25 -1.42508 3.98059 0
M  V30 6020 H 577.968 0.324845 8.07447 0
M  V30 6021 H 581.554 -0.382493 5.80541 0
M  V30 6022 H 580.434 0.479705 7.82731 0
M  V30 6023 N 577.937 -1.40673 -0.710563 0
M  V30 6024 C 579.162 -1.42741 -1.50465 0
M  V30 6025 C 579.587 -0.0302116 -1.88076 0
M  V30 6026 O 578.945 0.962945 -1.53613 0
M  V30 6027 C 578.993 -2.32873 -2.75322 0
M  V30 6028 O 578.097 -1.77544 -3.72226 0
M  V30 6029 H 577.438 -0.485056 -0.45345 0
M  V30 6030 H 579.968 -1.84961 -0.874681 0
M  V30 6031 H 579.978 -2.48233 -3.23797 0
M  V30 6032 H 578.653 -3.34401 -2.47283 0
M  V30 6033 H 577.23 -1.71556 -3.31093 0
M  V30 6034 N 579.415 0.9433 -1.26252 0
M  V30 6035 C 580.64 1.72898 -1.14547 0
M  V30 6036 C 581.065 1.85761 0.295743 0
M  V30 6037 O 580.423 1.3463 1.21427 0
M  V30 6038 C 580.471 3.11471 -1.8171 0
M  V30 6039 O 579.575 3.97336 -1.10445 0
M  V30 6040 H 578.916 0.530555 -0.399259 0
M  V30 6041 H 581.446 1.18159 -1.67032 0
M  V30 6042 H 581.456 3.61872 -1.88449 0
M  V30 6043 H 580.131 3.01425 -2.86558 0
M  V30 6044 H 578.708 3.55788 -1.11666 0
M  V30 6045 N 580.893 1.08022 1.14757 0
M  V30 6046 C 581.803 0.718292 2.23333 0
M  V30 6047 C 582.819 -0.273477 1.71837 0
M  V30 6048 O 583.995 -0.118406 2.01052 0
M  V30 6049 C 581.06 0.128855 3.4646 0
M  V30 6050 C 580.121 1.17473 4.12915 0
M  V30 6051 C 579.354 0.61333 5.30164 0
M  V30 6052 O 579.577 -0.568458 5.6756 0
M  V30 6053 O 578.511 1.3615 5.86299 0
M  V30 6054 H 582.337 1.62394 2.56636 0
M  V30 6055 H 579.922 0.853628 1.22611 0
M  V30 6056 H 581.804 -0.197249 4.20938 0
M  V30 6057 H 580.479 -0.750014 3.14891 0
M  V30 6058 H 579.386 1.5533 3.40328 0
M  V30 6059 H 580.719 2.02574 4.48581 0
M  V30 6060 N 582.371 -1.3172 0.865308 0
M  V30 6061 C 583.648 -1.91574 0.394789 0
M  V30 6062 C 584.028 -1.78769 -1.12271 0
M  V30 6063 O 583.376 -1.19245 -1.94918 0
M  V30 6064 C 583.586 -3.37957 0.870982 0
M  V30 6065 C 584.934 -4.15073 0.894384 0
M  V30 6066 O 585.958 -3.4672 0.816325 0
M  V30 6067 O 584.817 -5.37151 1.00651 0
M  V30 6068 H 581.911 -0.818649 0.117229 0
M  V30 6069 H 584.457 -1.4042 0.952913 0
M  V30 6070 H 583.229 -3.41269 1.91444 0
M  V30 6071 H 582.852 -3.96534 0.290907 0
M  V30 6072 N 583.85 -0.624285 -1.44708 0
M  V30 6073 C 585.098 -0.125802 -2.01708 0
M  V30 6074 C 585.418 1.2543 -1.49306 0
M  V30 6075 O 584.689 1.83198 -0.693924 0
M  V30 6076 H 583.269 -0.0435161 -0.745731 0
M  V30 6077 H 585.931 -0.809446 -1.77296 0
M  V30 6078 H 585.027 -0.0882734 -3.11975 0
M  V30 6079 N 585.328 1.53329 -0.364422 0
M  V30 6080 C 586.238 2.29414 0.490552 0
M  V30 6081 C 587.254 1.35335 1.09363 0
M  V30 6082 O 588.43 1.68391 1.10483 0
M  V30 6083 C 585.495 3.06772 1.61529 0
M  V30 6084 C 584.556 4.16516 1.03986 0
M  V30 6085 C 583.789 4.90176 2.111 0
M  V30 6086 O 584.012 4.63687 3.32191 0
M  V30 6087 O 582.946 5.76134 1.74222 0
M  V30 6088 H 586.772 3.03428 -0.12856 0
M  V30 6089 H 584.357 1.48843 -0.128837 0
M  V30 6090 H 586.239 3.55082 2.26924 0
M  V30 6091 H 584.914 2.35596 2.21983 0
M  V30 6092 H 583.821 3.7246 0.349856 0
M  V30 6093 H 585.154 4.89855 0.4799 0
M  V30 6094 N 586.806 0.0935595 1.57322 0
M  V30 6095 C 588.217 -0.435807 1.81542 0
M  V30 6096 C 588.568 -1.68263 1.00907 0
M  V30 6097 O 587.693 -2.15087 0.237983 0
M  V30 6098 C 588.288 -0.797436 3.29282 0
M  V30 6099 C 586.847 -1.27155 3.54272 0
M  V30 6100 C 585.994 -0.267455 2.76007 0
M  V30 6101 H 588.945 0.31902 1.5546 0
M  V30 6102 H 588.966 -1.6571 3.42521 0
M  V30 6103 H 588.478 0.110206 3.87943 0
M  V30 6104 H 586.579 -2.19696 3.00939 0
M  V30 6105 H 586.692 -1.23445 4.62923 0
M  V30 6106 H 585.056 -0.749282 2.43429 0
M  V30 6107 H 585.839 0.632839 3.37417 0
M  V30 6108 N 588.284 -1.56567 -0.180126 0
M  V30 6109 C 589.524 -1.83285 -0.904761 0
M  V30 6110 C 589.888 -0.673226 -1.7981 0
M  V30 6111 O 591.089 -0.820645 -2.55967 0
M  V30 6112 C 589.36 -3.15086 -1.68688 0
M  V30 6113 S 590.919 -3.63258 -2.46149 0
M  V30 6114 H 587.737 -0.643114 -0.303193 0
M  V30 6115 H 590.339 -1.94785 -0.167034 0
M  V30 6116 H 589.043 -3.97484 -1.02148 0
M  V30 6117 H 588.574 -3.06504 -2.46615 0
M  V30 6118 H 590.589 -3.29884 -3.70663 0
M  V30 6119 N 589.762 0.448376 -1.51087 0
M  V30 6120 C 590.725 1.52588 -1.71025 0
M  V30 6121 C 591.725 1.49958 -0.580442 0
M  V30 6122 O 592.915 1.52176 -0.847833 0
M  V30 6123 C 590.047 2.92163 -1.75652 0
M  V30 6124 H 591.24 1.36218 -2.67179 0
M  V30 6125 H 588.793 0.676313 -1.4091 0
M  V30 6126 H 589.528 3.13951 -0.812724 0
M  V30 6127 H 589.313 2.95478 -2.57751 0
M  V30 6128 H 590.803 3.70349 -1.92953 0
M  V30 6129 N 591.24 1.41047 0.703093 0
M  V30 6130 C 592.19 1.38774 1.80903 0
M  V30 6131 C 593.174 0.263275 1.58731 0
M  V30 6132 O 594.366 0.503362 1.69692 0
M  V30 6133 C 591.495 1.26497 3.19145 0
M  V30 6134 C 590.581 2.43775 3.47037 0
M  V30 6135 N 590.972 3.69249 3.45672 0
M  V30 6136 C 589.27 2.37425 3.77552 0
M  V30 6137 C 589.971 4.46989 3.72258 0
M  V30 6138 N 588.947 3.76998 3.91629 0
M  V30 6139 H 592.749 2.33714 1.78199 0
M  V30 6140 H 590.263 1.34996 0.902762 0
M  V30 6141 H 592.26 1.2295 3.98358 0
M  V30 6142 H 590.92 0.32534 3.23066 0
M  V30 6143 H 591.931 4.02239 3.26228 0
M  V30 6144 H 588.608 1.51895 3.88888 0
M  V30 6145 H 589.998 5.55894 3.77402 0
M  V30 6146 N 592.718 -0.936591 1.26751 0
M  V30 6147 C 594.129 -1.49816 1.1141 0
M  V30 6148 C 594.48 -1.9383 -0.304015 0
M  V30 6149 O 593.605 -1.80346 -1.196 0
M  V30 6150 C 594.2 -2.72271 2.01629 0
M  V30 6151 C 592.759 -3.2468 1.9042 0
M  V30 6152 C 591.906 -1.97444 1.94708 0
M  V30 6153 H 594.857 -0.751604 1.39773 0
M  V30 6154 H 594.878 -3.46741 1.56688 0
M  V30 6155 H 594.39 -2.40205 3.04833 0
M  V30 6156 H 592.491 -3.61525 0.901674 0
M  V30 6157 H 592.604 -3.91476 2.76195 0
M  V30 6158 H 590.968 -2.13545 1.38818 0
M  V30 6159 H 591.751 -1.67703 2.9955 0
M  V30 6160 N 594.196 -1.08629 -1.14182 0
M  V30 6161 C 595.144 -0.71284 -2.21408 0
M  V30 6162 C 596.138 0.282457 -1.67029 0
M  V30 6163 O 597.344 0.144783 -1.79417 0
M  V30 6164 H 593.719 -0.212497 -0.721352 0
M  V30 6165 H 595.69 -1.6265 -2.50175 0
M  V30 6166 C 594.439 -0.140704 -3.47415 0
M  V30 6167 H 593.762 -0.897739 -3.8959 0
M  V30 6168 H 595.202 0.0827677 -4.23919 0
M  V30 6169 C 593.661 1.122 -3.17668 0
M  V30 6170 O 594.191 2.20652 -3.35672 0
M  V30 6171 N 592.397 1.03328 -2.71609 0
M  V30 6172 H 591.944 0.150666 -2.57159 0
M  V30 6173 H 591.902 1.8789 -2.52081 0
M  V30 6174 N 595.674 1.31259 -0.872281 0
M  V30 6175 C 596.899 2.0133 -0.498099 0
M  V30 6176 C 597.324 1.65031 0.902568 0
M  V30 6177 O 596.682 0.860164 1.59596 0
M  V30 6178 C 596.73 3.54411 -0.665205 0
M  V30 6179 O 595.834 4.11347 0.294473 0
M  V30 6180 H 595.175 0.633844 -0.197832 0
M  V30 6181 H 597.705 1.67402 -1.17633 0
M  V30 6182 H 597.715 4.04147 -0.559373 0
M  V30 6183 H 596.39 3.80171 -1.68651 0
M  V30 6184 H 594.967 3.72624 0.143403 0
M  V30 6185 N 597.152 0.631951 1.44375 0
M  V30 6186 C 598.568 0.297642 1.568 0
M  V30 6187 C 598.768 -1.19916 1.61934 0
M  V30 6188 O 597.824 -1.98324 1.56281 0
M  V30 6189 C 599.137 0.990286 2.83926 0
M  V30 6190 C 600.685 0.968507 2.97639 0
M  V30 6191 C 601.16 1.64163 4.27568 0
M  V30 6192 N 602.651 1.60826 4.34384 0
M  V30 6193 C 603.386 2.09802 5.33639 0
M  V30 6194 N 602.882 2.66973 6.39294 0
M  V30 6195 N 604.675 2.00426 5.25153 0
M  V30 6196 H 596.826 1.60353 1.39286 0
M  V30 6197 H 599.089 0.673142 0.667521 0
M  V30 6198 H 598.795 2.04519 2.8612 0
M  V30 6199 H 598.669 0.528563 3.73478 0
M  V30 6200 H 601.056 -0.0779247 2.94997 0
M  V30 6201 H 601.137 1.46873 2.09433 0
M  V30 6202 H 600.781 2.68752 4.3097 0
M  V30 6203 H 600.711 1.11624 5.14634 0
M  V30 6204 H 603.202 1.19087 3.58646 0
M  V30 6205 H 603.515 3.02074 7.11316 0
M  V30 6206 H 601.86 2.71024 6.39977 0
M  V30 6207 H 605.051 1.55483 4.41523 0
M  V30 6208 H 605.224 2.38906 6.02352 0
M  V30 6209 N 598.631 -1.53133 0.372548 0
M  V30 6210 C 599.878 -2.01356 -0.214959 0
M  V30 6211 C 600.206 -1.2596 -1.48204 0
M  V30 6212 O 599.461 -0.343511 -1.92662 0
M  V30 6213 C 599.76 -3.53206 -0.545938 0
M  V30 6214 C 599.426 -4.46511 0.627624 0
M  V30 6215 C 598.088 -4.71737 0.949615 0
M  V30 6216 C 600.44 -5.01666 1.41353 0
M  V30 6217 C 597.768 -5.4937 2.05936 0
M  V30 6218 C 600.12 -5.80511 2.51375 0
M  V30 6219 C 598.784 -6.04022 2.84101 0
M  V30 6220 H 598.054 -0.736813 -0.078659 0
M  V30 6221 H 600.701 -1.84682 0.506447 0
M  V30 6222 H 599.006 -3.67864 -1.34845 0
M  V30 6223 H 600.703 -3.87997 -1.01287 0
M  V30 6224 H 597.293 -4.27029 0.366635 0
M  V30 6225 H 601.477 -4.82117 1.17802 0
M  V30 6226 H 596.733 -5.65803 2.31682 0
M  V30 6227 H 600.907 -6.22255 3.12684 0
M  V30 6228 H 598.534 -6.63962 3.70214 0
M  V30 6229 N 600.109 -0.101901 -1.5727 0
M  V30 6230 C 601.349 0.563489 -1.96479 0
M  V30 6231 C 601.713 1.64926 -0.983021 0
M  V30 6232 O 602.914 2.37234 -1.26386 0
M  V30 6233 C 601.185 1.09809 -3.40113 0
M  V30 6234 S 602.744 1.7744 -4.01323 0
M  V30 6235 H 599.562 0.183675 -0.686866 0
M  V30 6236 H 602.164 -0.182922 -1.94642 0
M  V30 6237 H 600.868 0.296447 -4.09328 0
M  V30 6238 H 600.399 1.88018 -3.45562 0
M  V30 6239 H 602.414 3.0591 -3.90683 0
M  V30 6240 N 601.587 1.56661 0.17182 0
M  V30 6241 C 602.815 1.861 0.904115 0
M  V30 6242 C 603.23 0.687227 1.75848 0
M  V30 6243 O 602.587 -0.343671 1.79235 0
M  V30 6244 C 602.638 3.14568 1.78127 0
M  V30 6245 O 602.359 4.27422 0.961366 0
M  V30 6246 C 603.86 3.5735 2.62327 0
M  V30 6247 H 601.08 0.617445 0.262684 0
M  V30 6248 H 603.624 2.03775 0.172068 0
M  V30 6249 H 601.779 2.98721 2.46666 0
M  V30 6250 H 602.193 5.00725 1.56123 0
M  V30 6251 H 603.667 4.50144 3.1949 0
M  V30 6252 H 604.144 2.81445 3.37173 0
M  V30 6253 H 604.75 3.75807 1.99121 0
M  V30 6254 N 603.065 -0.440357 1.51323 0
M  V30 6255 C 604.476 -1.02032 1.56353 0
M  V30 6256 C 604.827 -1.92382 0.385197 0
M  V30 6257 O 603.952 -2.10583 -0.498373 0
M  V30 6258 C 604.547 -1.85723 2.83359 0
M  V30 6259 C 603.106 -2.38774 2.90971 0
M  V30 6260 C 602.253 -1.17908 2.50984 0
M  V30 6261 H 605.204 -0.221744 1.57143 0
M  V30 6262 H 605.225 -2.71141 2.66951 0
M  V30 6263 H 604.737 -1.19939 3.69102 0
M  V30 6264 H 602.838 -3.08021 2.09651 0
M  V30 6265 H 602.951 -2.71778 3.94555 0
M  V30 6266 H 601.315 -1.52347 2.04114 0
M  V30 6267 H 602.098 -0.537393 3.39068 0
M  V30 6268 N 604.543 -1.41418 -0.695603 0
M  V30 6269 C 605.506 -1.42988 -1.79129 0
M  V30 6270 C 606.506 -0.320514 -1.57573 0
M  V30 6271 O 607.696 -0.58039 -1.64247 0
M  V30 6272 C 604.828 -1.24122 -3.175 0
M  V30 6273 H 606.021 -2.40526 -1.7913 0
M  V30 6274 H 603.574 -1.2756 -0.903225 0
M  V30 6275 H 604.309 -0.274253 -3.23138 0
M  V30 6276 H 604.094 -2.045 -3.34547 0
M  V30 6277 H 605.584 -1.28056 -3.97481 0
M  V30 6278 N 606.021 0.929856 -1.27246 0
M  V30 6279 C 607.246 1.71674 -1.16374 0
M  V30 6280 C 607.671 1.86064 0.276024 0
M  V30 6281 O 607.029 1.3591 1.19992 0
M  V30 6282 C 607.077 3.09526 -1.85003 0
M  V30 6283 O 606.181 3.96142 -1.14653 0
M  V30 6284 H 605.522 0.52629 -0.404863 0
M  V30 6285 H 608.052 1.16381 -1.68276 0
M  V30 6286 H 608.062 3.59852 -1.92276 0
M  V30 6287 H 606.737 2.98369 -2.89739 0
M  V30 6288 H 605.314 3.54584 -1.15433 0
M  V30 6289 N 607.499 1.09233 1.13605 0
M  V30 6290 C 608.431 0.687794 2.18637 0
M  V30 6291 C 609.444 -0.26936 1.60556 0
M  V30 6292 O 610.633 -0.0557162 1.78413 0
M  V30 6293 C 607.733 -0.00751901 3.38899 0
M  V30 6294 C 606.906 0.97067 4.26494 0
M  V30 6295 C 605.965 0.309129 5.25291 0
M  V30 6296 O 604.991 0.956149 5.61112 0
M  V30 6297 N 606.193 -0.937555 5.72879 0
M  V30 6298 H 608.958 1.59141 2.53957 0
M  V30 6299 H 606.519 0.979515 1.28907 0
M  V30 6300 H 608.511 -0.461238 4.02063 0
M  V30 6301 H 607.081 -0.813353 3.01833 0
M  V30 6302 H 606.301 1.603 3.60135 0
M  V30 6303 H 607.589 1.63323 4.81875 0
M  V30 6304 H 606.987 -1.48281 5.4592 0
M  V30 6305 H 605.544 -1.33463 6.3799 0
M  V30 6306 N 608.977 -1.30795 0.87923 0
M  V30 6307 C 610.217 -1.98155 0.50141 0
M  V30 6308 C 610.581 -1.67925 -0.930863 0
M  V30 6309 O 611.782 -2.28572 -1.41451 0
M  V30 6310 C 610.053 -3.49184 0.761937 0
M  V30 6311 S 611.612 -4.36107 0.485361 0
M  V30 6312 H 608.43 -0.686025 0.186792 0
M  V30 6313 H 611.032 -1.59018 1.13726 0
M  V30 6314 H 609.736 -3.68676 1.80295 0
M  V30 6315 H 609.267 -3.93236 0.113432 0
M  V30 6316 H 611.282 -4.9154 -0.678467 0
M  V30 6317 N 610.455 -0.639598 -1.44038 0
M  V30 6318 C 611.866 -0.228866 -1.85292 0
M  V30 6319 C 612.217 1.22161 -1.53529 0
M  V30 6320 O 611.342 1.93064 -0.977518 0
M  V30 6321 C 611.937 -0.408592 -3.36327 0
M  V30 6322 C 610.496 -0.0522953 -3.76364 0
M  V30 6323 C 609.643 -0.717959 -2.67844 0
M  V30 6324 H 612.594 -0.844194 -1.34384 0
M  V30 6325 H 612.615 0.349968 -3.78887 0
M  V30 6326 H 612.127 -1.46435 -3.59414 0
M  V30 6327 H 610.228 1.0014 -3.58891 0
M  V30 6328 H 610.341 -0.468261 -4.76806 0
M  V30 6329 H 608.705 -0.152459 -2.54243 0
M  V30 6330 H 609.488 -1.77648 -2.93762 0
M  V30 6331 N 611.933 1.52934 -0.380664 0
M  V30 6332 C 613.182 2.00651 0.205477 0
M  V30 6333 C 613.495 1.27164 1.48623 0
M  V30 6334 O 614.701 1.65547 2.15189 0
M  V30 6335 C 613.157 3.57479 0.416726 0
M  V30 6336 C 612.765 4.39857 -0.850268 0
M  V30 6337 C 614.509 4.13509 0.959702 0
M  V30 6338 C 612.416 5.88269 -0.607773 0
M  V30 6339 H 611.346 0.749684 0.0805614 0
M  V30 6340 H 613.997 1.76508 -0.501732 0
M  V30 6341 H 612.379 3.77836 1.18557 0
M  V30 6342 H 613.553 4.31269 -1.62307 0
M  V30 6343 H 611.868 3.95005 -1.31756 0
M  V30 6344 H 614.465 5.22039 1.15669 0
M  V30 6345 H 614.808 3.69054 1.92626 0
M  V30 6346 H 615.341 3.9701 0.250645 0
M  V30 6347 H 612.08 6.3703 -1.54509 0
M  V30 6348 H 611.6 5.99667 0.126247 0
M  V30 6349 H 613.279 6.46558 -0.239014 0
M  V30 6350 N 613.412 0.11024 1.57214 0
M  V30 6351 C 614.661 -0.549638 1.94067 0
M  V30 6352 C 614.974 -1.68388 0.995234 0
M  V30 6353 O 616.18 -2.40593 1.25807 0
M  V30 6354 C 614.636 -1.02912 3.44873 0
M  V30 6355 C 614.244 0.0761861 4.47935 0
M  V30 6356 C 615.988 -1.66087 3.9066 0
M  V30 6357 C 613.895 -0.419502 5.8991 0
M  V30 6358 H 612.825 -0.209092 0.724428 0
M  V30 6359 H 615.476 0.188683 1.82527 0
M  V30 6360 H 613.858 -1.82159 3.51616 0
M  V30 6361 H 615.032 0.852185 4.52851 0
M  V30 6362 H 613.347 0.614052 4.11847 0
M  V30 6363 H 615.944 -2.04272 4.94143 0
M  V30 6364 H 616.287 -2.53591 3.30148 0
M  V30 6365 H 616.82 -0.933959 3.86681 0
M  V30 6366 H 613.559 0.419277 6.54158 0
M  V30 6367 H 613.079 -1.16217 5.88433 0
M  V30 6368 H 614.758 -0.883577 6.40938 0
M  V30 6369 N 614.89 -1.56749 -0.16351 0
M  V30 6370 C 616.167 -1.73321 -0.906599 0
M  V30 6371 C 616.547 -0.673779 -2.00059 0
M  V30 6372 O 615.895 0.310121 -2.26386 0
M  V30 6373 C 616.105 -3.168 -1.46419 0
M  V30 6374 C 617.453 -3.77993 -1.93407 0
M  V30 6375 O 618.477 -3.20127 -1.56196 0
M  V30 6376 O 617.336 -4.79615 -2.61976 0
M  V30 6377 H 614.43 -0.708073 -0.427272 0
M  V30 6378 H 616.976 -1.69029 -0.150727 0
M  V30 6379 H 615.748 -3.85396 -0.677189 0
M  V30 6380 H 615.371 -3.2545 -2.28403 0
M  V30 6381 N 616.368 0.432326 -1.51554 0
M  V30 6382 C 617.331 1.50765 -1.72634 0
M  V30 6383 C 618.331 1.49334 -0.596314 0
M  V30 6384 O 619.521 1.51268 -0.863925 0
M  V30 6385 C 616.653 2.90284 -1.7874 0
M  V30 6386 H 617.846 1.33377 -2.68609 0
M  V30 6387 H 615.399 0.661329 -1.4162 0
M  V30 6388 H 616.134 3.13071 -0.845977 0
M  V30 6389 H 615.919 2.92727 -2.6087 0
M  V30 6390 H 617.409 3.68282 -1.96871 0
M  V30 6391 N 617.846 1.41785 0.688094 0
M  V30 6392 C 618.809 1.43936 1.78368 0
M  V30 6393 C 619.809 0.328866 1.57401 0
M  V30 6394 O 620.999 0.589093 1.63937 0
M  V30 6395 C 618.131 1.25804 3.16838 0
M  V30 6396 H 619.324 2.41472 1.77852 0
M  V30 6397 H 616.877 1.28037 0.896448 0
M  V30 6398 H 617.612 0.291386 3.22988 0
M  V30 6399 H 617.397 2.06272 3.33458 0
M  V30 6400 H 618.887 1.30162 3.96797 0
M  V30 6401 N 619.324 -0.923095 1.27737 0
M  V30 6402 C 620.57 -1.67409 1.15524 0
M  V30 6403 C 620.925 -1.90124 -0.295072 0
M  V30 6404 O 620.218 -1.48382 -1.21216 0
M  V30 6405 C 620.412 -3.04125 1.8773 0
M  V30 6406 C 620.241 -2.94752 3.39634 0
M  V30 6407 C 619.011 -2.96783 4.0896 0
M  V30 6408 C 621.209 -2.73524 4.35533 0
M  V30 6409 N 619.191 -2.779 5.47398 0
M  V30 6410 C 620.562 -2.63391 5.61271 0
M  V30 6411 C 622.617 -2.58447 4.2557 0
M  V30 6412 C 621.32 -2.3972 6.78179 0
M  V30 6413 C 623.346 -2.36154 5.42204 0
M  V30 6414 C 622.708 -2.26768 6.669 0
M  V30 6415 H 618.807 -0.619196 0.477619 0
M  V30 6416 H 621.391 -1.09094 1.61266 0
M  V30 6417 H 619.562 -3.60545 1.44436 0
M  V30 6418 H 621.294 -3.6819 1.67982 0
M  V30 6419 H 618.049 -3.07186 3.60463 0
M  V30 6420 H 618.473 -2.71576 6.20141 0
M  V30 6421 H 623.115 -2.6446 3.2988 0
M  V30 6422 H 620.833 -2.32447 7.73947 0
M  V30 6423 H 624.419 -2.25367 5.36378 0
M  V30 6424 H 623.299 -2.09751 7.55628 0
M  V30 6425 N 620.802 -1.09834 -1.13024 0
M  V30 6426 C 621.712 -0.753731 -2.22162 0
M  V30 6427 C 622.728 0.246105 -1.72251 0
M  V30 6428 O 623.904 0.0864051 -2.01215 0
M  V30 6429 C 620.969 -0.183958 -3.46212 0
M  V30 6430 C 620.03 -1.24028 -4.10993 0
M  V30 6431 C 619.263 -0.697597 -5.29121 0
M  V30 6432 O 619.486 0.478092 -5.68393 0
M  V30 6433 O 618.42 -1.4546 -5.84059 0
M  V30 6434 H 622.246 -1.66456 -2.5402 0
M  V30 6435 H 619.831 -0.873026 -1.21238 0
M  V30 6436 H 621.713 0.130257 -4.21199 0
M  V30 6437 H 620.388 0.699823 -3.16045 0
M  V30 6438 H 619.295 -1.60725 -3.37814 0
M  V30 6439 H 620.628 -2.09685 -4.45301 0
M  V30 6440 N 622.28 1.30327 -0.886154 0
M  V30 6441 C 623.505 2.0079 -0.519425 0
M  V30 6442 C 623.93 1.65979 0.885013 0
M  V30 6443 O 623.288 0.877043 1.58675 0
M  V30 6444 C 623.336 3.53686 -0.702758 0
M  V30 6445 O 622.44 4.11637 0.250828 0
M  V30 6446 H 621.781 0.63171 -0.204544 0
M  V30 6447 H 624.311 1.66145 -1.19402 0
M  V30 6448 H 624.321 4.03531 -0.602207 0
M  V30 6449 H 622.996 3.78361 -1.72673 0
M  V30 6450 H 621.573 3.72755 0.103873 0
M  V30 6451 N 623.758 0.647228 1.43697 0
M  V30 6452 C 625.169 0.238689 1.85168 0
M  V30 6453 C 625.52 -1.21345 1.54175 0
M  V30 6454 O 624.645 -1.92542 0.987743 0
M  V30 6455 C 625.24 0.426422 3.36106 0
M  V30 6456 C 623.799 0.0722541 3.76331 0
M  V30 6457 C 622.946 0.732153 2.6746 0
M  V30 6458 H 625.897 0.851309 1.33934 0
M  V30 6459 H 625.918 -0.32987 3.79067 0
M  V30 6460 H 625.43 1.48339 3.58632 0
M  V30 6461 H 623.531 -0.982355 3.59417 0
M  V30 6462 H 623.644 0.493541 4.76551 0
M  V30 6463 H 622.008 0.16594 2.54159 0
M  V30 6464 H 622.791 1.79204 2.92816 0
M  V30 6465 N 625.236 -1.5273 0.388769 0
M  V30 6466 C 626.146 -2.30165 -0.453993 0
M  V30 6467 C 627.162 -1.37058 -1.07197 0
M  V30 6468 O 628.338 -1.70127 -1.0779 0
M  V30 6469 C 625.403 -3.09303 -1.56628 0
M  V30 6470 C 624.464 -4.18117 -0.973467 0
M  V30 6471 C 623.697 -4.93472 -2.03275 0
M  V30 6472 O 623.92 -4.68913 -3.24772 0
M  V30 6473 O 622.854 -5.78833 -1.65034 0
M  V30 6474 H 626.68 -3.03185 0.176816 0
M  V30 6475 H 624.265 -1.4862 0.152501 0
M  V30 6476 H 626.147 -3.58648 -2.21246 0
M  V30 6477 H 624.822 -2.39098 -2.18206 0
M  V30 6478 H 623.729 -3.7297 -0.290556 0
M  V30 6479 H 625.062 -4.90556 -0.401908 0
M  V30 6480 N 626.714 -0.118576 -1.57153 0
M  V30 6481 C 627.962 0.538461 -1.94795 0
M  V30 6482 C 628.283 1.67243 -1.00274 0
M  V30 6483 O 627.553 1.95811 -0.0589692 0
M  V30 6484 H 626.133 0.201904 -0.719197 0
M  V30 6485 H 628.795 -0.187418 -1.93997 0
M  V30 6486 H 627.891 0.933315 -2.97818 0
M  V30 6487 N 628.193 1.56834 0.155195 0
M  V30 6488 C 629.439 1.83169 0.870467 0
M  V30 6489 C 629.772 0.698929 1.81187 0
M  V30 6490 O 629.047 -0.298035 1.92203 0
M  V30 6491 C 629.33 3.19965 1.65211 0
M  V30 6492 C 629.183 4.43792 0.732744 0
M  V30 6493 C 630.502 3.53885 2.61636 0
M  V30 6494 H 627.621 0.666288 0.315006 0
M  V30 6495 H 630.263 1.89513 0.135988 0
M  V30 6496 H 628.413 3.14687 2.27825 0
M  V30 6497 H 630.085 4.61148 0.118236 0
M  V30 6498 H 628.328 4.3378 0.0417906 0
M  V30 6499 H 628.999 5.36095 1.31552 0
M  V30 6500 H 631.475 3.5972 2.09143 0
M  V30 6501 H 630.351 4.50648 3.13381 0
M  V30 6502 H 630.612 2.79418 3.42605 0
M  V30 6503 N 629.671 -0.424282 1.51781 0
M  V30 6504 C 631.082 -1.00368 1.57427 0
M  V30 6505 C 631.433 -1.91962 0.40558 0
M  V30 6506 O 630.558 -2.111 -0.47601 0
M  V30 6507 C 631.153 -1.82707 2.85313 0
M  V30 6508 C 629.712 -2.35675 2.93487 0
M  V30 6509 C 628.859 -1.1524 2.5222 0
M  V30 6510 H 631.81 -0.205064 1.5737 0
M  V30 6511 H 631.831 -2.68294 2.69812 0
M  V30 6512 H 631.343 -1.16017 3.70353 0
M  V30 6513 H 629.444 -3.05781 2.12906 0
M  V30 6514 H 629.557 -2.67578 3.97415 0
M  V30 6515 H 627.921 -1.50174 2.05718 0
M  V30 6516 H 628.704 -0.5014 3.39619 0
M  V30 6517 N 631.149 -1.42148 -0.680565 0
M  V30 6518 C 632.398 -1.41604 -1.43636 0
M  V30 6519 C 632.711 -0.0337887 -1.95571 0
M  V30 6520 O 633.917 0.0942588 -2.71336 0
M  V30 6521 C 632.373 -2.49056 -2.59806 0
M  V30 6522 C 631.981 -3.9326 -2.14594 0
M  V30 6523 C 633.725 -2.5767 -3.37352 0
M  V30 6524 C 631.632 -4.92232 -3.27813 0
M  V30 6525 H 630.562 -0.526656 -0.539583 0
M  V30 6526 H 633.213 -1.68033 -0.737369 0
M  V30 6527 H 631.595 -2.15782 -3.32045 0
M  V30 6528 H 632.769 -4.35858 -1.49546 0
M  V30 6529 H 631.084 -3.88443 -1.50002 0
M  V30 6530 H 633.681 -3.28794 -4.21662 0
M  V30 6531 H 634.024 -1.61837 -3.83555 0
M  V30 6532 H 634.557 -2.90109 -2.72179 0
M  V30 6533 H 631.296 -5.89522 -2.86607 0
M  V30 6534 H 630.816 -4.5427 -3.91661 0
M  V30 6535 H 632.495 -5.13684 -3.93367 0
M  V30 6536 N 632.627 0.916307 -1.28225 0
M  V30 6537 C 633.537 2.05165 -1.13775 0
M  V30 6538 C 634.553 1.73879 -0.0649418 0
M  V30 6539 O 635.729 1.99531 -0.273722 0
M  V30 6540 C 632.794 3.37385 -0.798267 0
M  V30 6541 C 631.855 3.82296 -1.95316 0
M  V30 6542 C 631.088 5.08206 -1.62978 0
M  V30 6543 O 631.311 5.6781 -0.542948 0
M  V30 6544 O 630.245 5.48768 -2.47261 0
M  V30 6545 H 634.071 2.20273 -2.09078 0
M  V30 6546 H 631.656 1.0373 -1.07519 0
M  V30 6547 H 633.538 4.16773 -0.62278 0
M  V30 6548 H 632.213 3.23458 0.125139 0
M  V30 6549 H 631.12 3.03746 -2.18378 0
M  V30 6550 H 632.453 4.00782 -2.85718 0
M  V30 6551 N 634.105 1.10431 1.1244 0
M  V30 6552 C 635.353 0.845045 1.83585 0
M  V30 6553 C 635.674 -0.631168 1.84503 0
M  V30 6554 O 634.944 -1.45825 1.30813 0
M  V30 6555 H 633.524 0.309628 0.679809 0
M  V30 6556 H 636.186 1.39458 1.36153 0
M  V30 6557 H 635.282 1.20786 2.8778 0
M  V30 6558 N 635.583 -1.29855 0.893053 0
M  V30 6559 C 636.832 -1.95104 0.511597 0
M  V30 6560 C 637.145 -1.71226 -0.945567 0
M  V30 6561 O 638.351 -2.30525 -1.43424 0
M  V30 6562 C 636.807 -3.49374 0.864034 0
M  V30 6563 C 636.415 -3.82061 2.33952 0
M  V30 6564 C 638.159 -4.20894 0.552167 0
M  V30 6565 C 636.066 -5.29546 2.63316 0
M  V30 6566 H 634.996 -0.73029 0.187597 0
M  V30 6567 H 637.647 -1.47682 1.08914 0
M  V30 6568 H 636.029 -3.95413 0.215493 0
M  V30 6569 H 637.203 -3.46904 3.03305 0
M  V30 6570 H 635.518 -3.23665 2.61973 0
M  V30 6571 H 638.115 -5.29435 0.748489 0
M  V30 6572 H 638.458 -4.13178 -0.508924 0
M  V30 6573 H 638.991 -3.80564 1.15825 0
M  V30 6574 H 635.73 -5.4232 3.68197 0
M  V30 6575 H 635.25 -5.65974 1.9858 0
M  V30 6576 H 636.929 -5.97068 2.49236 0
M  V30 6577 N 637.061 -0.65484 -1.43351 0
M  V30 6578 C 638.31 -0.166215 -2.01014 0
M  V30 6579 C 638.623 1.22764 -1.52278 0
M  V30 6580 O 639.829 1.81156 -2.02224 0
M  V30 6581 C 638.285 -0.246341 -3.59056 0
M  V30 6582 C 637.893 -1.64299 -4.16785 0
M  V30 6583 C 639.637 0.184597 -4.24098 0
M  V30 6584 C 637.544 -1.67695 -5.67126 0
M  V30 6585 H 636.474 -0.0583769 -0.751737 0
M  V30 6586 H 639.125 -0.817111 -1.64303 0
M  V30 6587 H 637.507 0.472092 -3.93176 0
M  V30 6588 H 638.681 -2.3869 -3.94162 0
M  V30 6589 H 636.996 -2.02004 -3.6412 0
M  V30 6590 H 639.593 0.179088 -5.344 0
M  V30 6591 H 639.936 1.21632 -3.98135 0
M  V30 6592 H 640.469 -0.482141 -3.94867 0
M  V30 6593 H 637.208 -2.68783 -5.9786 0
M  V30 6594 H 636.728 -0.976313 -5.91801 0
M  V30 6595 H 638.407 -1.42142 -6.31193 0
M  V30 6596 N 638.539 1.52521 -0.396863 0
M  V30 6597 C 639.786 2.01672 0.182898 0
M  V30 6598 C 640.114 1.28302 1.46181 0
M  V30 6599 O 639.369 0.374118 1.92091 0
M  V30 6600 C 639.668 3.5403 0.489677 0
M  V30 6601 C 639.334 4.45456 -0.698581 0
M  V30 6602 C 637.996 4.70166 -1.02454 0
M  V30 6603 C 640.348 4.99354 -1.49316 0
M  V30 6604 C 637.676 5.46024 -2.1465 0
M  V30 6605 C 640.028 5.76439 -2.60579 0
M  V30 6606 C 638.692 5.99426 -2.93675 0
M  V30 6607 H 637.962 0.737971 0.066927 0
M  V30 6608 H 640.609 1.83853 -0.535764 0
M  V30 6609 H 638.914 3.69963 1.28976 0
M  V30 6610 H 640.611 3.8956 0.951018 0
M  V30 6611 H 637.201 4.26392 -0.434525 0
M  V30 6612 H 641.385 4.80182 -1.25457 0
M  V30 6613 H 636.641 5.62046 -2.40654 0
M  V30 6614 H 640.815 6.17202 -3.22544 0
M  V30 6615 H 638.442 6.57988 -3.80731 0
M  V30 6616 N 640.017 0.126909 1.57088 0
M  V30 6617 C 641.265 -0.528123 1.95078 0
M  V30 6618 C 641.586 -1.66708 1.0116 0
M  V30 6619 O 640.856 -1.95777 0.0693527 0
M  V30 6620 H 639.436 -0.198087 0.720257 0
M  V30 6621 H 642.098 0.197703 1.93895 0
M  V30 6622 H 641.194 -0.917507 2.98309 0
M  V30 6623 N 641.495 -1.56914 -0.146875 0
M  V30 6624 C 642.743 -1.82994 -0.85777 0
M  V30 6625 C 643.064 -0.707814 -1.817 0
M  V30 6626 O 642.334 0.270521 -1.94023 0
M  V30 6627 H 640.914 -0.675106 -0.319751 0
M  V30 6628 H 643.576 -1.9439 -0.140849 0
M  V30 6629 H 642.672 -2.77928 -1.41994 0
M  V30 6630 N 642.974 0.416227 -1.52004 0
M  V30 6631 C 644.39 0.754319 -1.40649 0
M  V30 6632 C 644.59 1.95059 -0.505392 0
M  V30 6633 O 643.646 2.5248 0.0315057 0
M  V30 6634 C 644.959 1.0149 -2.83055 0
M  V30 6635 C 646.507 1.11805 -2.9235 0
M  V30 6636 C 646.982 1.41144 -4.35709 0
M  V30 6637 N 648.473 1.48024 -4.38911 0
M  V30 6638 C 649.208 1.72338 -5.46889 0
M  V30 6639 N 648.704 1.94303 -6.64995 0
M  V30 6640 N 650.497 1.74294 -5.34395 0
M  V30 6641 H 642.648 -0.371324 -2.09129 0
M  V30 6642 H 644.911 -0.103811 -0.942299 0
M  V30 6643 H 644.617 0.208345 -3.51082 0
M  V30 6644 H 644.491 1.93697 -3.23668 0
M  V30 6645 H 646.878 1.91521 -2.24508 0
M  V30 6646 H 646.959 0.17451 -2.55204 0
M  V30 6647 H 646.603 0.619484 -5.04108 0
M  V30 6648 H 646.533 2.36739 -4.70385 0
M  V30 6649 H 649.024 1.32868 -3.53772 0
M  V30 6650 H 649.337 2.12286 -7.43071 0
M  V30 6651 H 647.682 1.91582 -6.68073 0
M  V30 6652 H 650.873 1.56667 -4.41104 0
M  V30 6653 H 651.046 1.92904 -6.18621 0
M  V30 6654 N 644.452 1.42507 0.673017 0
M  V30 6655 C 645.868 1.25472 0.986355 0
M  V30 6656 C 646.068 0.160181 2.00862 0
M  V30 6657 O 645.124 -0.467993 2.48125 0
M  V30 6658 C 646.437 2.61219 1.48947 0
M  V30 6659 C 647.985 2.68589 1.60715 0
M  V30 6660 C 648.46 4.04707 2.14422 0
M  V30 6661 N 649.951 4.0667 2.21752 0
M  V30 6662 C 650.686 5.0881 2.64386 0
M  V30 6663 N 650.182 6.21332 3.0646 0
M  V30 6664 N 651.975 4.96166 2.64151 0
M  V30 6665 H 644.126 2.124 -0.00378532 0
M  V30 6666 H 646.389 0.946046 0.0608367 0
M  V30 6667 H 646.095 3.42179 0.812812 0
M  V30 6668 H 645.969 2.85261 2.46791 0
M  V30 6669 H 648.356 1.87974 2.27486 0
M  V30 6670 H 648.437 2.48333 0.613552 0
M  V30 6671 H 648.081 4.8578 1.48258 0
M  V30 6672 H 648.011 4.22315 3.14575 0
M  V30 6673 H 650.502 3.25438 1.92089 0
M  V30 6674 H 650.815 6.95118 3.37684 0
M  V30 6675 H 649.16 6.24835 3.04313 0
M  V30 6676 H 652.351 4.07334 2.30644 0
M  V30 6677 H 652.524 5.759 2.97057 0
M  V30 6678 N 645.93 -0.909495 1.28709 0
M  V30 6679 C 647.341 -1.47419 1.14563 0
M  V30 6680 C 647.692 -1.94432 -0.262832 0
M  V30 6681 O 646.817 -1.82842 -1.15748 0
M  V30 6682 C 647.412 -2.67933 2.07358 0
M  V30 6683 C 645.971 -3.20568 1.97264 0
M  V30 6684 C 645.118 -1.93269 1.98852 0
M  V30 6685 H 648.069 -0.721787 1.41336 0
M  V30 6686 H 648.09 -3.43339 1.64007 0
M  V30 6687 H 647.602 -2.33685 3.09859 0
M  V30 6688 H 645.703 -3.59531 0.978157 0
M  V30 6689 H 645.816 -3.85529 2.84436 0
M  V30 6690 H 644.18 -2.10553 1.43317 0
M  V30 6691 H 644.963 -1.61312 3.0304 0
M  V30 6692 N 647.408 -1.11026 -1.11852 0
M  V30 6693 C 648.371 -0.768006 -2.1595 0
M  V30 6694 C 649.371 0.210538 -1.59416 0
M  V30 6695 O 650.561 -0.0133978 -1.74195 0
M  V30 6696 C 647.693 -0.138678 -3.40618 0
M  V30 6697 H 648.886 -1.69012 -2.4774 0
M  V30 6698 H 646.439 -0.911578 -1.26964 0
M  V30 6699 H 647.174 0.793872 -3.14433 0
M  V30 6700 H 646.959 -0.843012 -3.8293 0
M  V30 6701 H 648.449 0.0848039 -4.17514 0
M  V30 6702 N 648.886 1.2938 -0.899927 0
M  V30 6703 C 650.134 1.95164 -0.524924 0
M  V30 6704 C 650.455 1.71292 0.931888 0
M  V30 6705 O 649.725 1.04481 1.65712 0
M  V30 6706 H 648.305 0.722133 -0.191135 0
M  V30 6707 H 650.967 1.57628 -1.14627 0
M  V30 6708 H 650.063 3.0397 -0.707711 0
M  V30 6709 N 650.364 0.662433 1.43002 0
M  V30 6710 C 651.61 0.179857 2.02001 0
M  V30 6711 C 651.943 -1.20625 1.52195 0
M  V30 6712 O 651.218 -1.80726 0.718911 0
M  V30 6713 C 651.501 0.200845 3.59539 0
M  V30 6714 C 651.354 1.62153 4.19555 0
M  V30 6715 C 652.673 -0.457738 4.37713 0
M  V30 6716 H 649.792 0.0668305 0.733964 0
M  V30 6717 H 652.434 0.84487 1.70182 0
M  V30 6718 H 650.584 -0.365411 3.86778 0
M  V30 6719 H 652.256 2.23908 4.03315 0
M  V30 6720 H 650.499 2.16601 3.75854 0
M  V30 6721 H 651.17 1.58799 5.28665 0
M  V30 6722 H 653.646 0.0241495 4.16093 0
M  V30 6723 H 652.522 -0.412363 5.47349 0
M  V30 6724 H 652.783 -1.53336 4.14657 0
M  V30 6725 N 651.842 -1.52309 0.404946 0
M  V30 6726 C 653.253 -1.86585 -0.0655926 0
M  V30 6727 C 653.604 -1.3239 -1.44801 0
M  V30 6728 O 652.729 -0.6615 -2.06042 0
M  V30 6729 C 653.324 -3.38566 -0.125801 0
M  V30 6730 C 651.883 -3.72497 -0.540666 0
M  V30 6731 C 651.03 -2.75806 0.287487 0
M  V30 6732 H 653.981 -1.45995 0.622185 0
M  V30 6733 H 654.002 -3.68658 -0.941888 0
M  V30 6734 H 653.514 -3.77981 0.880473 0
M  V30 6735 H 651.615 -3.38659 -1.55373 0
M  V30 6736 H 651.728 -4.78234 -0.287956 0
M  V30 6737 H 650.092 -2.53474 -0.249561 0
M  V30 6738 H 650.875 -3.18059 1.29203 0
M  V30 6739 N 653.32 -0.135238 -1.57019 0
M  V30 6740 C 654.25 0.805235 -2.19176 0
M  V30 6741 C 655.231 1.2656 -1.13651 0
M  V30 6742 O 656.416 1.32528 -1.4195 0
M  V30 6743 C 653.546 2.04914 -2.80406 0
M  V30 6744 C 652.5 1.72598 -3.91655 0
M  V30 6745 C 651.826 3.04154 -4.39766 0
M  V30 6746 C 653.126 0.981709 -5.12991 0
M  V30 6747 H 654.82 0.287232 -2.98019 0
M  V30 6748 H 652.366 0.136714 -1.4335 0
M  V30 6749 H 654.319 2.71178 -3.22553 0
M  V30 6750 H 653.043 2.59067 -1.98877 0
M  V30 6751 H 651.702 1.08717 -3.50109 0
M  V30 6752 H 651.35 3.56274 -3.55075 0
M  V30 6753 H 651.05 2.83299 -5.14796 0
M  V30 6754 H 652.574 3.71509 -4.84576 0
M  V30 6755 H 653.988 1.5462 -5.52056 0
M  V30 6756 H 652.385 0.873533 -5.93708 0
M  V30 6757 H 653.455 -0.0286887 -4.84892 0
M  V30 6758 N 654.798 1.5699 0.138552 0
M  V30 6759 C 656.044 1.84081 0.85099 0
M  V30 6760 C 656.377 0.718107 1.80435 0
M  V30 6761 O 655.652 -0.277633 1.92508 0
M  V30 6762 C 655.935 3.21699 1.61808 0
M  V30 6763 C 655.788 4.44544 0.685633 0
M  V30 6764 C 657.107 3.5664 2.57868 0
M  V30 6765 H 654.226 0.669592 0.307922 0
M  V30 6766 H 656.868 1.89646 0.11588 0
M  V30 6767 H 655.018 3.17086 2.24474 0
M  V30 6768 H 656.69 4.61248 0.0693179 0
M  V30 6769 H 654.933 4.338 -0.00421993 0
M  V30 6770 H 655.604 5.3746 1.25858 0
M  V30 6771 H 658.08 3.61918 2.05316 0
M  V30 6772 H 656.956 4.53946 3.08584 0
M  V30 6773 H 657.217 2.83036 3.39622 0
M  V30 6774 N 656.276 -0.40816 1.52223 0
M  V30 6775 C 657.506 -1.17501 1.69932 0
M  V30 6776 C 657.914 -1.84729 0.408874 0
M  V30 6777 O 657.257 -1.7274 -0.625025 0
M  V30 6778 C 657.319 -2.27994 2.77955 0
M  V30 6779 C 656.983 -1.80894 4.19674 0
M  V30 6780 C 657.98 -1.29618 5.03483 0
M  V30 6781 C 655.665 -1.87698 4.65913 0
M  V30 6782 C 657.659 -0.857695 6.31603 0
M  V30 6783 C 655.346 -1.43461 5.94022 0
M  V30 6784 C 656.344 -0.925822 6.76696 0
M  V30 6785 O 656.032 -0.489841 8.02406 0
M  V30 6786 H 655.764 -0.359065 0.572755 0
M  V30 6787 H 658.318 -0.486188 1.99563 0
M  V30 6788 H 656.548 -3.00243 2.43703 0
M  V30 6789 H 658.237 -2.89749 2.84254 0
M  V30 6790 H 659.003 -1.23733 4.68951 0
M  V30 6791 H 654.882 -2.26244 4.01665 0
M  V30 6792 H 658.426 -0.459879 6.96083 0
M  V30 6793 H 654.323 -1.49026 6.28062 0
M  V30 6794 H 655.091 -0.613062 8.16201 0
M  V30 6795 N 657.755 -1.42862 -0.66545 0
M  V30 6796 C 658.665 -1.49491 -1.80803 0
M  V30 6797 C 659.681 -0.382914 -1.69734 0
M  V30 6798 O 660.857 -0.635223 -1.9112 0
M  V30 6799 C 657.922 -1.40383 -3.17007 0
M  V30 6800 C 656.983 -2.62152 -3.39963 0
M  V30 6801 C 656.216 -2.53469 -4.69669 0
M  V30 6802 O 656.439 -1.57568 -5.48205 0
M  V30 6803 O 655.373 -3.43763 -4.94075 0
M  V30 6804 H 659.199 -2.45949 -1.78165 0
M  V30 6805 H 656.784 -1.24728 -0.822387 0
M  V30 6806 H 658.666 -1.377 -3.98267 0
M  V30 6807 H 657.341 -0.470546 -3.20262 0
M  V30 6808 H 656.248 -2.70409 -2.58515 0
M  V30 6809 H 657.581 -3.54411 -3.41546 0
M  V30 6810 N 659.233 0.902656 -1.29189 0
M  V30 6811 C 660.196 1.98797 -1.14071 0
M  V30 6812 C 661.196 1.60615 -0.0770549 0
M  V30 6813 O 662.386 1.71165 -0.323753 0
M  V30 6814 C 659.518 3.32688 -0.743739 0
M  V30 6815 H 660.711 2.13637 -2.10473 0
M  V30 6816 H 658.264 1.08678 -1.12334 0
M  V30 6817 H 658.999 3.23549 0.220554 0
M  V30 6818 H 658.784 3.61765 -1.51223 0
M  V30 6819 H 660.274 4.12337 -0.660935 0
M  V30 6820 N 660.711 1.11618 1.11262 0
M  V30 6821 C 661.641 0.79846 2.19424 0
M  V30 6822 C 662.622 -0.234003 1.68483 0
M  V30 6823 O 663.807 -0.0970704 1.93957 0
M  V30 6824 C 660.937 0.242892 3.4645 0
M  V30 6825 C 659.891 1.20744 4.10615 0
M  V30 6826 C 659.217 0.512494 5.32238 0
M  V30 6827 C 660.517 2.55884 4.55325 0
M  V30 6828 H 662.211 1.70286 2.46258 0
M  V30 6829 H 659.757 0.820195 1.18359 0
M  V30 6830 H 661.71 0.00840447 4.21399 0
M  V30 6831 H 660.434 -0.696811 3.1908 0
M  V30 6832 H 659.093 1.42759 3.37662 0
M  V30 6833 H 658.741 -0.432075 5.01141 0
M  V30 6834 H 658.441 1.15583 5.7612 0
M  V30 6835 H 659.965 0.286842 6.09926 0
M  V30 6836 H 661.379 2.37946 5.21588 0
M  V30 6837 H 659.776 3.16216 5.10027 0
M  V30 6838 H 660.846 3.14968 3.68678 0
M  V30 6839 N 662.189 -1.289 0.906776 0
M  V30 6840 C 663.414 -1.99939 0.551303 0
M  V30 6841 C 663.839 -1.67366 -0.858496 0
M  V30 6842 O 663.197 -0.902176 -1.57259 0
M  V30 6843 C 663.245 -3.52523 0.758937 0
M  V30 6844 O 662.349 -4.11983 -0.185308 0
M  V30 6845 H 661.69 -0.628376 0.214568 0
M  V30 6846 H 664.22 -1.64225 1.2203 0
M  V30 6847 H 664.23 -4.02522 0.666329 0
M  V30 6848 H 662.905 -3.75566 1.78671 0
M  V30 6849 H 661.482 -3.72873 -0.0445577 0
M  V30 6850 N 663.667 -0.670007 -1.42649 0
M  V30 6851 C 664.913 -0.19923 -2.02422 0
M  V30 6852 C 665.268 1.17947 -1.52007 0
M  V30 6853 O 664.561 1.77939 -0.710512 0
M  V30 6854 C 664.755 -0.168298 -3.57004 0
M  V30 6855 C 664.584 -1.54246 -4.22419 0
M  V30 6856 C 663.354 -2.13904 -4.57792 0
M  V30 6857 C 665.552 -2.4842 -4.50324 0
M  V30 6858 N 663.534 -3.44151 -5.08364 0
M  V30 6859 C 664.905 -3.63317 -5.02395 0
M  V30 6860 C 666.96 -2.47011 -4.32308 0
M  V30 6861 C 665.663 -4.77051 -5.38345 0
M  V30 6862 C 667.689 -3.59838 -4.6933 0
M  V30 6863 C 667.051 -4.73462 -5.21549 0
M  V30 6864 H 663.15 -0.117717 -0.773089 0
M  V30 6865 H 665.734 -0.881955 -1.73579 0
M  V30 6866 H 663.905 0.483824 -3.85375 0
M  V30 6867 H 665.637 0.314914 -4.03473 0
M  V30 6868 H 662.392 -1.66441 -4.4339 0
M  V30 6869 H 662.816 -4.10846 -5.38084 0
M  V30 6870 H 667.458 -1.60394 -3.91195 0
M  V30 6871 H 665.176 -5.64347 -5.78393 0
M  V30 6872 H 668.762 -3.59969 -4.57071 0
M  V30 6873 H 667.642 -5.59321 -5.49663 0
M  V30 6874 N 665.145 1.52092 -0.413018 0
M  V30 6875 C 666.077 2.24819 0.445994 0
M  V30 6876 C 667.09 1.27925 1.00692 0
M  V30 6877 O 668.279 1.53845 0.905204 0
M  V30 6878 C 665.379 2.96951 1.6332 0
M  V30 6879 C 664.552 4.20746 1.19548 0
M  V30 6880 C 663.611 4.75668 2.25003 0
M  V30 6881 O 662.637 5.38148 1.85434 0
M  V30 6882 N 663.839 4.57579 3.57214 0
M  V30 6883 H 666.604 2.99176 -0.177209 0
M  V30 6884 H 664.165 1.60102 -0.240601 0
M  V30 6885 H 666.157 3.30586 2.33441 0
M  V30 6886 H 664.727 2.25756 2.16225 0
M  V30 6887 H 663.947 3.92881 0.32224 0
M  V30 6888 H 665.235 5.01132 0.880033 0
M  V30 6889 H 664.633 4.07758 3.92109 0
M  V30 6890 H 663.19 4.95642 4.23299 0
M  V30 6891 N 666.623 0.143563 1.56945 0
M  V30 6892 C 667.573 -0.809115 2.1316 0
M  V30 6893 C 668.557 -1.21176 1.05855 0
M  V30 6894 O 669.749 -1.17875 1.3204 0
M  V30 6895 C 666.878 -2.04957 2.75405 0
M  V30 6896 C 665.964 -1.67018 3.89828 0
M  V30 6897 N 666.355 -0.998822 4.9584 0
M  V30 6898 C 664.653 -1.96313 4.00471 0
M  V30 6899 C 665.354 -0.816217 5.75945 0
M  V30 6900 N 664.33 -1.349 5.26596 0
M  V30 6901 H 668.132 -0.286919 2.92496 0
M  V30 6902 H 665.646 -0.0580948 1.62296 0
M  V30 6903 H 667.643 -2.74201 3.14037 0
M  V30 6904 H 666.303 -2.57697 1.97541 0
M  V30 6905 H 667.314 -0.659975 5.13678 0
M  V30 6906 H 663.991 -2.50927 3.33679 0
M  V30 6907 H 665.381 -0.287353 6.71285 0
M  V30 6908 N 668.101 -1.57061 -0.130224 0
M  V30 6909 C 669.349 -1.83893 -0.838313 0
M  V30 6910 C 669.67 -0.727046 -1.80939 0
M  V30 6911 O 668.94 0.249927 -1.94299 0
M  V30 6912 H 667.52 -0.67846 -0.312573 0
M  V30 6913 H 670.182 -1.94529 -0.120224 0
M  V30 6914 H 669.278 -2.79419 -1.39038 0
M  V30 6915 N 669.579 0.400081 -1.52437 0
M  V30 6916 C 670.825 1.14788 -1.67187 0
M  V30 6917 C 671.158 1.89928 -0.405074 0
M  V30 6918 O 670.433 1.85118 0.596804 0
M  V30 6919 C 670.716 2.13507 -2.89977 0
M  V30 6920 C 670.569 1.42204 -4.2673 0
M  V30 6921 C 671.888 3.14069 -3.083 0
M  V30 6922 H 669.007 0.415939 -0.608411 0
M  V30 6923 H 671.649 0.432542 -1.85011 0
M  V30 6924 H 669.799 2.7451 -2.74912 0
M  V30 6925 H 671.471 0.842503 -4.53541 0
M  V30 6926 H 669.714 0.723939 -4.27717 0
M  V30 6927 H 670.385 2.14281 -5.08712 0
M  V30 6928 H 672.861 2.63148 -3.22323 0
M  V30 6929 H 671.737 3.80398 -3.95713 0
M  V30 6930 H 671.998 3.82309 -2.22018 0
M  V30 6931 N 671.057 1.43213 0.657864 0
M  V30 6932 C 672.304 1.44584 1.41781 0
M  V30 6933 C 672.632 0.0684208 1.9438 0
M  V30 6934 O 671.887 -0.925872 1.72413 0
M  V30 6935 C 672.186 2.43143 2.61947 0
M  V30 6936 C 671.852 3.89128 2.27794 0
M  V30 6937 C 670.514 4.28889 2.18191 0
M  V30 6938 C 672.866 4.81144 2.00375 0
M  V30 6939 C 670.194 5.58625 1.79319 0
M  V30 6940 C 672.546 6.11239 1.63003 0
M  V30 6941 C 671.21 6.49981 1.51922 0
M  V30 6942 H 670.48 0.529069 0.518813 0
M  V30 6943 H 673.127 1.76263 0.748577 0
M  V30 6944 H 671.432 2.04851 3.33981 0
M  V30 6945 H 673.129 2.4146 3.20153 0
M  V30 6946 H 669.719 3.57657 2.36176 0
M  V30 6947 H 673.903 4.512 2.06718 0
M  V30 6948 H 669.159 5.87486 1.69323 0
M  V30 6949 H 673.333 6.82014 1.40817 0
M  V30 6950 H 670.96 7.50416 1.21572 0
M  V30 6951 N 672.536 -0.895792 1.29666 0
M  V30 6952 C 673.782 -1.64908 1.18039 0
M  V30 6953 C 674.115 -1.9236 -0.266682 0
M  V30 6954 O 673.39 -1.53682 -1.19214 0
M  V30 6955 C 673.673 -2.99574 1.99819 0
M  V30 6956 C 673.526 -2.79163 3.52687 0
M  V30 6957 C 674.845 -4.00358 1.82761 0
M  V30 6958 H 671.964 -0.598437 0.430165 0
M  V30 6959 H 674.606 -1.03736 1.59182 0
M  V30 6960 H 672.756 -3.51786 1.64859 0
M  V30 6961 H 674.428 -2.33821 3.9765 0
M  V30 6962 H 672.671 -2.13871 3.77414 0
M  V30 6963 H 673.342 -3.74871 4.05186 0
M  V30 6964 H 675.818 -3.57268 2.13304 0
M  V30 6965 H 674.694 -4.92514 2.42325 0
M  V30 6966 H 674.955 -4.35096 0.783839 0
M  V30 6967 N 674.014 -1.12206 -1.10668 0
M  V30 6968 C 675.262 -0.874144 -1.82217 0
M  V30 6969 C 675.583 0.601736 -1.85484 0
M  V30 6970 O 674.853 1.43725 -1.33116 0
M  V30 6971 H 673.433 -0.320404 -0.674797 0
M  V30 6972 H 676.095 -1.41606 -1.33917 0
M  V30 6973 H 675.191 -1.25349 -2.85822 0
M  V30 6974 N 675.492 1.28418 -0.913599 0
M  V30 6975 C 676.455 2.25564 -0.406624 0
M  V30 6976 C 677.455 1.5387 0.466965 0
M  V30 6977 O 678.645 1.72094 0.270042 0
M  V30 6978 C 675.777 3.38339 0.417053 0
M  V30 6979 H 676.97 2.71926 -1.26477 0
M  V30 6980 H 674.523 1.40098 -0.692986 0
M  V30 6981 H 675.258 2.97339 1.29461 0
M  V30 6982 H 675.043 3.91542 -0.209102 0
M  V30 6983 H 676.533 4.10578 0.762602 0
M  V30 6984 N 676.97 0.677563 1.42291 0
M  V30 6985 C 677.933 0.0101085 2.29198 0
M  V30 6986 C 678.933 -0.726219 1.43467 0
M  V30 6987 O 680.123 -0.563807 1.64824 0
M  V30 6988 C 677.255 -0.996316 3.26016 0
M  V30 6989 H 678.448 0.775071 2.89711 0
M  V30 6990 H 676.001 0.440065 1.49977 0
M  V30 6991 H 676.736 -1.78967 2.70446 0
M  V30 6992 H 676.521 -0.471687 3.89253 0
M  V30 6993 H 678.011 -1.46167 3.91184 0
M  V30 6994 N 678.448 -1.51871 0.421078 0
M  V30 6995 C 679.381 -2.23851 -0.443369 0
M  V30 6996 C 680.359 -1.25142 -1.03818 0
M  V30 6997 O 681.543 -1.5423 -1.08377 0
M  V30 6998 C 678.67 -2.97637 -1.61648 0
M  V30 6999 C 677.716 -4.10873 -1.14391 0
M  V30 7000 S 678.549 -5.35408 -0.0992403 0
M  V30 7001 C 679.705 -6.12726 -1.27739 0
M  V30 7002 H 679.938 -2.96826 0.167786 0
M  V30 7003 H 677.471 -1.53027 0.205461 0
M  V30 7004 H 679.429 -3.40751 -2.28909 0
M  V30 7005 H 678.09 -2.24282 -2.199 0
M  V30 7006 H 677.283 -4.61718 -2.02069 0
M  V30 7007 H 676.885 -3.69937 -0.549775 0
M  V30 7008 H 679.177 -6.40827 -2.19881 0
M  V30 7009 H 680.12 -7.03461 -0.809239 0
M  V30 7010 H 680.528 -5.43968 -1.5086 0
M  V30 7011 N 679.926 -0.151884 -1.56866 0
M  V30 7012 C 681.342 0.204486 -1.58285 0
M  V30 7013 C 681.542 1.6431 -1.16639 0
M  V30 7014 O 680.598 2.37077 -0.868946 0
M  V30 7015 C 681.911 -0.0587019 -3.00643 0
M  V30 7016 C 683.459 0.00462303 -3.13 0
M  V30 7017 C 683.934 -0.231297 -4.57416 0
M  V30 7018 N 685.425 -0.178394 -4.62856 0
M  V30 7019 C 686.16 -0.335379 -5.72418 0
M  V30 7020 N 685.656 -0.550355 -6.90611 0
M  V30 7021 N 687.449 -0.272641 -5.61438 0
M  V30 7022 H 679.6 -1.09116 -1.82229 0
M  V30 7023 H 681.863 -0.432311 -0.843689 0
M  V30 7024 H 681.569 -1.05453 -3.35518 0
M  V30 7025 H 681.443 0.658508 -3.71407 0
M  V30 7026 H 683.83 0.991009 -2.77962 0
M  V30 7027 H 683.911 -0.744992 -2.44711 0
M  V30 7028 H 683.555 -1.2148 -4.93158 0
M  V30 7029 H 683.485 0.5387 -5.23837 0
M  V30 7030 H 685.976 -0.0170923 -3.77896 0
M  V30 7031 H 686.289 -0.660116 -7.69976 0
M  V30 7032 H 684.634 -0.586736 -6.92519 0
M  V30 7033 H 687.825 -0.105421 -4.67981 0
M  V30 7034 H 687.998 -0.398418 -6.46774 0
M  V30 7035 N 681.404 1.57128 0.121893 0
M  V30 7036 C 682.629 1.89254 0.848385 0
M  V30 7037 C 683.054 0.743527 1.72781 0
M  V30 7038 O 682.412 -0.306056 1.78698 0
M  V30 7039 C 682.46 3.20113 1.66012 0
M  V30 7040 O 681.564 3.05815 2.76679 0
M  V30 7041 H 680.905 0.621103 0.234793 0
M  V30 7042 H 683.435 2.0433 0.10516 0
M  V30 7043 H 683.445 3.52761 2.04996 0
M  V30 7044 H 682.12 4.03336 1.01452 0
M  V30 7045 H 680.697 2.84627 2.40918 0
M  V30 7046 N 682.882 -0.391992 1.52647 0
M  V30 7047 C 683.792 -1.503 1.80131 0
M  V30 7048 C 684.808 -1.59825 0.687882 0
M  V30 7049 O 685.984 -1.76218 0.975149 0
M  V30 7050 C 683.049 -2.85863 1.96171 0
M  V30 7051 C 682.11 -2.86084 3.20085 0
M  V30 7052 C 681.343 -4.15181 3.35351 0
M  V30 7053 O 681.566 -5.09981 2.55491 0
M  V30 7054 O 680.5 -4.22603 4.28591 0
M  V30 7055 H 684.326 -1.30007 2.74466 0
M  V30 7056 H 681.911 -0.579539 1.37701 0
M  V30 7057 H 683.793 -3.66236 2.08445 0
M  V30 7058 H 682.468 -3.06189 1.05025 0
M  V30 7059 H 681.375 -2.04504 3.13256 0
M  V30 7060 H 682.708 -2.7071 4.11068 0
M  V30 7061 N 684.36 -1.4356 -0.65026 0
M  V30 7062 C 685.323 -1.48615 -1.74489 0
M  V30 7063 C 686.323 -0.370483 -1.56474 0
M  V30 7064 O 687.513 -0.632351 -1.62317 0
M  V30 7065 C 684.645 -1.34161 -3.13391 0
M  V30 7066 H 685.838 -2.46103 -1.71387 0
M  V30 7067 H 683.391 -1.30369 -0.862186 0
M  V30 7068 H 684.126 -0.376918 -3.22102 0
M  V30 7069 H 683.911 -2.1504 -3.27872 0
M  V30 7070 H 685.401 -1.40637 -3.93206 0
M  V30 7071 N 685.838 0.888903 -1.30139 0
M  V30 7072 C 687.066 1.67358 -1.21651 0
M  V30 7073 C 687.481 1.87499 0.221246 0
M  V30 7074 O 686.838 1.41969 1.14677 0
M  V30 7075 C 686.889 3.05213 -1.93719 0
M  V30 7076 O 686.61 2.85984 -3.31881 0
M  V30 7077 C 688.111 3.9964 -1.9184 0
M  V30 7078 H 685.331 0.522365 -0.42116 0
M  V30 7079 H 687.875 1.11086 -1.71698 0
M  V30 7080 H 686.03 3.5823 -1.4748 0
M  V30 7081 H 686.444 3.73411 -3.68327 0
M  V30 7082 H 687.918 4.93749 -2.46811 0
M  V30 7083 H 688.395 4.29955 -0.896409 0
M  V30 7084 H 689.001 3.52558 -2.37872 0
M  V30 7085 N 687.317 1.12792 1.10072 0
M  V30 7086 C 688.28 0.802264 2.14701 0
M  V30 7087 C 689.28 -0.18515 1.59731 0
M  V30 7088 O 690.47 0.041109 1.74151 0
M  V30 7089 C 687.602 0.19285 3.40354 0
M  V30 7090 H 688.795 1.72932 2.45019 0
M  V30 7091 H 686.348 0.931662 1.25498 0
M  V30 7092 H 687.083 -0.743748 3.15656 0
M  V30 7093 H 686.868 0.903827 3.81541 0
M  V30 7094 H 688.358 -0.0183704 4.17596 0
M  V30 7095 N 688.795 -1.27931 0.920396 0
M  V30 7096 C 689.758 -2.25345 0.41858 0
M  V30 7097 C 690.758 -1.54116 -0.458798 0
M  V30 7098 O 691.948 -1.72235 -0.260912 0
M  V30 7099 C 689.08 -3.38556 -0.399104 0
M  V30 7100 H 690.273 -2.71251 1.27918 0
M  V30 7101 H 687.826 -1.39728 0.700406 0
M  V30 7102 H 688.561 -2.98021 -1.27882 0
M  V30 7103 H 688.346 -3.91426 0.229863 0
M  V30 7104 H 689.836 -4.10976 -0.740817 0
M  V30 7105 N 690.273 -0.685099 -1.4193 0
M  V30 7106 C 691.236 -0.0222632 -2.29189 0
M  V30 7107 C 692.236 0.7186 -1.4385 0
M  V30 7108 O 693.426 0.555058 -1.6512 0
M  V30 7109 C 690.558 0.979013 -3.2654 0
M  V30 7110 H 691.751 -0.790424 -2.89296 0
M  V30 7111 H 689.304 -0.448012 -1.49742 0
M  V30 7112 H 690.039 1.77531 -2.71392 0
M  V30 7113 H 689.824 0.451037 -3.89497 0
M  V30 7114 H 691.314 1.44091 -3.91954 0
M  V30 7115 N 691.751 1.51645 -0.429126 0
M  V30 7116 C 692.661 2.31288 0.392809 0
M  V30 7117 C 693.677 1.39852 1.03525 0
M  V30 7118 O 694.853 1.72926 1.03241 0
M  V30 7119 C 691.918 3.13347 1.48372 0
M  V30 7120 C 690.979 4.20551 0.862268 0
M  V30 7121 C 690.212 4.98688 1.9012 0
M  V30 7122 O 690.435 4.77359 3.12225 0
M  V30 7123 O 689.369 5.83005 1.4963 0
M  V30 7124 H 693.195 3.02609 -0.257138 0
M  V30 7125 H 690.78 1.48163 -0.191851 0
M  V30 7126 H 692.662 3.64387 2.1166 0
M  V30 7127 H 691.337 2.44799 2.1179 0
M  V30 7128 H 690.244 3.73609 0.191568 0
M  V30 7129 H 691.577 4.91449 0.271704 0
M  V30 7130 N 693.229 0.160201 1.56784 0
M  V30 7131 C 694.179 -0.786461 2.14007 0
M  V30 7132 C 695.163 -1.20046 1.07134 0
M  V30 7133 O 696.355 -1.16468 1.33283 0
M  V30 7134 C 693.484 -2.02024 2.77563 0
M  V30 7135 C 692.57 -1.62874 3.91578 0
M  V30 7136 N 692.961 -0.946176 4.96871 0
M  V30 7137 C 691.259 -1.92054 4.02531 0
M  V30 7138 C 691.96 -0.755084 5.76778 0
M  V30 7139 N 690.936 -1.29307 5.27997 0
M  V30 7140 H 694.738 -0.255879 2.92784 0
M  V30 7141 H 692.252 -0.0408778 1.62349 0
M  V30 7142 H 694.249 -2.70855 3.16928 0
M  V30 7143 H 692.909 -2.55587 2.00263 0
M  V30 7144 H 693.92 -0.605455 5.14349 0
M  V30 7145 H 690.597 -2.47374 3.36322 0
M  V30 7146 H 691.987 -0.216138 6.71552 0
M  V30 7147 N 694.707 -1.5719 -0.113559 0
M  V30 7148 C 695.654 -2.00736 -1.13901 0
M  V30 7149 C 696.624 -0.88044 -1.40846 0
M  V30 7150 O 697.809 -1.14507 -1.5262 0
M  V30 7151 C 694.949 -2.42132 -2.45899 0
M  V30 7152 C 694.062 -3.68264 -2.25844 0
M  V30 7153 C 693.197 -3.98617 -3.5111 0
M  V30 7154 C 692.236 -5.17915 -3.26236 0
M  V30 7155 N 691.373 -5.44111 -4.4372 0
M  V30 7156 H 696.213 -2.88128 -0.760677 0
M  V30 7157 H 693.75 -1.42523 -0.364099 0
M  V30 7158 H 695.708 -2.6417 -3.22908 0
M  V30 7159 H 694.338 -1.57775 -2.81615 0
M  V30 7160 H 693.39 -3.53809 -1.39726 0
M  V30 7161 H 694.702 -4.55425 -2.03444 0
M  V30 7162 H 693.856 -4.21333 -4.36536 0
M  V30 7163 H 692.595 -3.09942 -3.76546 0
M  V30 7164 H 691.6 -4.95038 -2.39202 0
M  V30 7165 H 692.825 -6.08172 -3.02165 0
M  V30 7166 H 690.771 -4.58394 -4.69266 0
M  V30 7167 H 690.688 -6.25606 -4.24444 0
M  V30 7168 H 691.956 -5.71351 -5.30263 0
M  V30 7169 N 696.185 0.383891 -1.52853 0
M  V30 7170 C 697.433 1.12619 -1.67814 0
M  V30 7171 C 697.754 1.90354 -0.423141 0
M  V30 7172 O 697.024 1.87649 0.562554 0
M  V30 7173 H 695.604 0.418738 -0.618601 0
M  V30 7174 H 698.266 0.43495 -1.89985 0
M  V30 7175 H 697.362 1.82624 -2.5309 0
M  V30 7176 N 697.663 1.43903 0.642637 0
M  V30 7177 C 698.61 1.49881 1.75512 0
M  V30 7178 C 699.58 0.347538 1.62423 0
M  V30 7179 O 700.765 0.556177 1.82514 0
M  V30 7180 C 697.905 1.43797 3.13714 0
M  V30 7181 C 697.018 2.6921 3.37861 0
M  V30 7182 C 696.153 2.5504 4.6597 0
M  V30 7183 C 695.192 3.75671 4.83257 0
M  V30 7184 N 694.329 3.60247 6.02633 0
M  V30 7185 H 699.169 2.44935 1.69737 0
M  V30 7186 H 696.706 1.21572 0.828165 0
M  V30 7187 H 698.664 1.38262 3.93624 0
M  V30 7188 H 697.294 0.523173 3.18532 0
M  V30 7189 H 696.346 2.8498 2.51973 0
M  V30 7190 H 697.658 3.58786 3.46517 0
M  V30 7191 H 696.812 2.47273 5.54023 0
M  V30 7192 H 695.551 1.63006 4.59653 0
M  V30 7193 H 694.556 3.83836 3.93637 0
M  V30 7194 H 695.781 4.68728 4.91397 0
M  V30 7195 H 693.727 2.70955 5.97427 0
M  V30 7196 H 693.644 4.43431 6.12295 0
M  V30 7197 H 694.912 3.56351 6.93278 0
M  V30 7198 N 699.141 -0.881989 1.30609 0
M  V30 7199 C 700.39 -1.62878 1.18969 0
M  V30 7200 C 700.703 -1.93946 -0.253859 0
M  V30 7201 O 701.909 -2.67008 -0.491813 0
M  V30 7202 C 700.365 -2.93573 2.0819 0
M  V30 7203 C 699.973 -2.70034 3.57471 0
M  V30 7204 C 701.717 -3.71543 2.0532 0
M  V30 7205 C 699.624 -3.96563 4.38739 0
M  V30 7206 H 698.554 -0.611092 0.441682 0
M  V30 7207 H 701.205 -0.976201 1.55379 0
M  V30 7208 H 699.587 -3.6014 1.64666 0
M  V30 7209 H 700.761 -2.11949 4.09163 0
M  V30 7210 H 699.076 -2.05435 3.62195 0
M  V30 7211 H 701.673 -4.65386 2.63288 0
M  V30 7212 H 702.016 -4.03167 1.03739 0
M  V30 7213 H 702.549 -3.11842 2.46981 0
M  V30 7214 H 699.288 -3.70095 5.41027 0
M  V30 7215 H 698.808 -4.54142 3.9181 0
M  V30 7216 H 700.487 -4.64557 4.50329 0
M  V30 7217 N 700.619 -1.13374 -1.09472 0
M  V30 7218 C 701.868 -0.889844 -1.8101 0
M  V30 7219 C 702.181 0.585686 -1.86625 0
M  V30 7220 O 703.387 0.946497 -2.54467 0
M  V30 7221 C 701.843 -1.54241 -3.25174 0
M  V30 7222 C 701.451 -3.05343 -3.27826 0
M  V30 7223 C 703.195 -1.37919 -4.0147 0
M  V30 7224 C 701.102 -3.63486 -4.6651 0
M  V30 7225 H 700.032 -0.329256 -0.678311 0
M  V30 7226 H 702.683 -1.36139 -1.23038 0
M  V30 7227 H 701.065 -0.998525 -3.83204 0
M  V30 7228 H 702.239 -3.66307 -2.79563 0
M  V30 7229 H 700.554 -3.21175 -2.65019 0
M  V30 7230 H 703.151 -1.78771 -5.03929 0
M  V30 7231 H 703.494 -0.323987 -4.15037 0
M  V30 7232 H 704.027 -1.89284 -3.49881 0
M  V30 7233 H 700.766 -4.68811 -4.58145 0
M  V30 7234 H 700.286 -3.073 -5.15099 0
M  V30 7235 H 701.965 -3.63134 -5.35484 0
M  V30 7236 N 702.098 1.27442 -0.927168 0
M  V30 7237 C 703.031 2.25177 -0.370232 0
M  V30 7238 C 704.009 1.53612 0.533103 0
M  V30 7239 O 705.193 1.8245 0.47373 0
M  V30 7240 C 702.32 3.35431 0.469411 0
M  V30 7241 C 701.366 4.24888 -0.370419 0
M  V30 7242 S 702.199 5.04852 -1.78562 0
M  V30 7243 C 703.355 6.18592 -0.953651 0
M  V30 7244 H 703.588 2.72069 -1.19858 0
M  V30 7245 H 701.121 1.36089 -0.729316 0
M  V30 7246 H 703.079 3.99404 0.947992 0
M  V30 7247 H 701.74 2.87179 1.27228 0
M  V30 7248 H 700.933 5.03264 0.272226 0
M  V30 7249 H 700.535 3.65709 -0.783153 0
M  V30 7250 H 702.827 6.77235 -0.189408 0
M  V30 7251 H 703.77 6.87132 -1.7104 0
M  V30 7252 H 704.178 5.62318 -0.495897 0
M  V30 7253 N 703.576 0.692616 1.41565 0
M  V30 7254 C 704.526 0.00231847 2.28 0
M  V30 7255 C 705.51 -0.755793 1.42044 0
M  V30 7256 O 706.702 -0.631772 1.65341 0
M  V30 7257 C 703.831 -0.935468 3.30309 0
M  V30 7258 C 702.917 -0.173761 4.23744 0
M  V30 7259 N 703.308 0.830872 4.98929 0
M  V30 7260 C 701.606 -0.409666 4.44115 0
M  V30 7261 C 702.307 1.28656 5.67294 0
M  V30 7262 N 701.283 0.613053 5.40132 0
M  V30 7263 H 705.085 0.772635 2.83562 0
M  V30 7264 H 702.599 0.523198 1.53741 0
M  V30 7265 H 704.596 -1.44513 3.91052 0
M  V30 7266 H 703.256 -1.70542 2.76307 0
M  V30 7267 H 704.267 1.21101 5.03542 0
M  V30 7268 H 700.944 -1.15773 4.01127 0
M  V30 7269 H 702.334 2.12006 6.37576 0
M  V30 7270 N 705.054 -1.51416 0.437162 0
M  V30 7271 C 706.331 -1.94682 -0.189292 0
M  V30 7272 C 706.711 -1.37581 -1.60108 0
M  V30 7273 O 706.059 -0.562815 -2.2146 0
M  V30 7274 C 706.269 -3.48599 -0.167201 0
M  V30 7275 C 707.617 -4.2296 -0.372856 0
M  V30 7276 O 708.641 -3.55354 -0.245323 0
M  V30 7277 O 707.5 -5.42895 -0.626693 0
M  V30 7278 H 704.594 -0.816708 -0.130063 0
M  V30 7279 H 707.14 -1.62316 0.495128 0
M  V30 7280 H 705.912 -3.82616 0.81981 0
M  V30 7281 H 705.535 -3.87406 -0.894537 0
M  V30 7282 N 706.532 -0.168513 -1.56696 0
M  V30 7283 C 707.943 0.348694 -1.83415 0
M  V30 7284 C 708.294 1.63257 -1.0882 0
M  V30 7285 O 707.419 2.13707 -0.340333 0
M  V30 7286 C 708.014 0.639423 -3.32711 0
M  V30 7287 C 706.573 1.10108 -3.59935 0
M  V30 7288 C 705.72 0.135464 -2.76969 0
M  V30 7289 H 708.671 -0.392829 -1.53761 0
M  V30 7290 H 708.692 1.49179 -3.50037 0
M  V30 7291 H 708.204 -0.295173 -3.86976 0
M  V30 7292 H 706.305 2.05088 -3.11079 0
M  V30 7293 H 706.418 1.01218 -4.68286 0
M  V30 7294 H 704.782 0.632286 -2.46727 0
M  V30 7295 H 705.565 -0.793104 -3.34013 0
M  V30 7296 N 708.01 1.57248 0.105221 0
M  V30 7297 C 709.257 1.8557 0.810552 0
M  V30 7298 C 709.585 0.755595 1.79223 0
M  V30 7299 O 708.84 -0.251788 1.94073 0
M  V30 7300 C 709.139 3.20437 1.58287 0
M  V30 7301 C 708.805 4.44716 0.744235 0
M  V30 7302 C 707.467 4.78458 0.513013 0
M  V30 7303 C 709.819 5.20953 0.160578 0
M  V30 7304 C 707.147 5.8587 -0.311894 0
M  V30 7305 C 709.499 6.29235 -0.651596 0
M  V30 7306 C 708.163 6.615 -0.893005 0
M  V30 7307 H 707.433 0.67905 0.296602 0
M  V30 7308 H 710.08 1.91363 0.0723968 0
M  V30 7309 H 708.385 3.10283 2.39232 0
M  V30 7310 H 710.082 3.39576 2.13282 0
M  V30 7311 H 706.672 4.18287 0.934555 0
M  V30 7312 H 710.856 4.95226 0.3264 0
M  V30 7313 H 706.112 6.09286 -0.508012 0
M  V30 7314 H 710.286 6.87484 -1.11077 0
M  V30 7315 H 707.913 7.44562 -1.53401 0
M  V30 7316 N 709.488 -0.375779 1.53054 0
M  V30 7317 C 710.451 -1.44254 1.7811 0
M  V30 7318 C 711.451 -1.47018 0.651328 0
M  V30 7319 O 712.641 -1.47957 0.919472 0
M  V30 7320 C 709.773 -2.8345 1.89391 0
M  V30 7321 H 710.966 -1.23316 2.73374 0
M  V30 7322 H 708.519 -0.608312 1.43977 0
M  V30 7323 H 709.254 -3.09716 0.961589 0
M  V30 7324 H 709.039 -2.82844 2.71555 0
M  V30 7325 H 710.529 -3.60722 2.10404 0
M  V30 7326 N 710.966 -1.44241 -0.634997 0
M  V30 7327 C 711.899 -1.45274 -1.75985 0
M  V30 7328 C 712.877 -0.312025 -1.59578 0
M  V30 7329 O 714.061 -0.508409 -1.81514 0
M  V30 7330 C 711.188 -1.28173 -3.13511 0
M  V30 7331 C 710.234 -2.45757 -3.48576 0
M  V30 7332 S 711.067 -4.08293 -3.46492 0
M  V30 7333 C 712.223 -3.93608 -4.86645 0
M  V30 7334 H 712.456 -2.40454 -1.74841 0
M  V30 7335 H 709.989 -1.31492 -0.809268 0
M  V30 7336 H 711.947 -1.18993 -3.92875 0
M  V30 7337 H 710.608 -0.34511 -3.12198 0
M  V30 7338 H 709.801 -2.29644 -4.48642 0
M  V30 7339 H 709.403 -2.51657 -2.76667 0
M  V30 7340 H 711.695 -3.57059 -5.75774 0
M  V30 7341 H 712.638 -4.9349 -5.07813 0
M  V30 7342 H 713.046 -3.25737 -4.61038 0
M  V30 7343 N 712.444 0.87505 -1.31075 0
M  V30 7344 C 713.86 1.15997 -1.09622 0
M  V30 7345 C 714.06 2.01036 0.136611 0
M  V30 7346 O 713.116 2.38559 0.827397 0
M  V30 7347 C 714.429 1.85702 -2.36506 0
M  V30 7348 C 715.977 1.98425 -2.42067 0
M  V30 7349 C 716.452 2.71544 -3.68819 0
M  V30 7350 N 717.943 2.79084 -3.69684 0
M  V30 7351 C 718.678 3.36259 -4.64454 0
M  V30 7352 N 718.174 3.94406 -5.69575 0
M  V30 7353 N 719.967 3.34169 -4.51982 0
M  V30 7354 H 712.118 0.308258 -2.10151 0
M  V30 7355 H 714.381 0.199145 -0.926847 0
M  V30 7356 H 714.087 1.30663 -3.26527 0
M  V30 7357 H 713.961 2.86017 -2.45915 0
M  V30 7358 H 716.348 2.5263 -1.52518 0
M  V30 7359 H 716.429 0.971682 -2.36626 0
M  V30 7360 H 716.073 2.18008 -4.58732 0
M  V30 7361 H 716.003 3.73198 -3.71525 0
M  V30 7362 H 718.494 2.3781 -2.93691 0
M  V30 7363 H 718.807 4.36129 -6.37974 0
M  V30 7364 H 717.152 3.92797 -5.73355 0
M  V30 7365 H 720.343 2.87977 -3.69035 0
M  V30 7366 H 720.516 3.78431 -5.26017 0
M  V30 7367 N 713.922 1.13953 1.08869 0
M  V30 7368 C 715.333 0.916649 1.62648 0
M  V30 7369 C 715.684 -0.545589 1.88462 0
M  V30 7370 O 714.809 -1.41351 1.63856 0
M  V30 7371 C 715.404 1.65751 2.95486 0
M  V30 7372 C 713.963 1.48034 3.46068 0
M  V30 7373 C 713.11 1.68305 2.20383 0
M  V30 7374 H 716.061 1.292 0.921572 0
M  V30 7375 H 716.082 1.11794 3.63707 0
M  V30 7376 H 715.594 2.72171 2.76667 0
M  V30 7377 H 713.695 0.439416 3.7 0
M  V30 7378 H 713.808 2.24719 4.23129 0
M  V30 7379 H 712.172 1.10833 2.29321 0
M  V30 7380 H 712.955 2.76057 2.04077 0
M  V30 7381 N 715.4 -1.26948 0.933913 0
M  V30 7382 C 716.647 -1.94087 0.577625 0
M  V30 7383 C 716.975 -1.73345 -0.88214 0
M  V30 7384 O 716.23 -1.05945 -1.64542 0
M  V30 7385 C 716.529 -3.46963 0.857406 0
M  V30 7386 C 716.195 -3.87834 2.2999 0
M  V30 7387 C 714.857 -3.98704 2.69423 0
M  V30 7388 C 717.209 -4.08442 3.23766 0
M  V30 7389 C 714.537 -4.27573 4.01744 0
M  V30 7390 C 716.889 -4.38798 4.55675 0
M  V30 7391 C 715.553 -4.47881 4.94934 0
M  V30 7392 H 714.823 -0.710215 0.211368 0
M  V30 7393 H 717.47 -1.50899 1.17905 0
M  V30 7394 H 715.775 -3.91416 0.173369 0
M  V30 7395 H 717.472 -3.97062 0.560615 0
M  V30 7396 H 714.062 -3.79916 1.98399 0
M  V30 7397 H 718.246 -3.99479 2.94499 0
M  V30 7398 H 713.502 -4.32815 4.31834 0
M  V30 7399 H 717.676 -4.5369 5.28335 0
M  V30 7400 H 715.303 -4.70005 5.97495 0
M  V30 7401 N 716.879 -0.700114 -1.41195 0
M  V30 7402 C 718.126 -0.233006 -2.01155 0
M  V30 7403 C 718.454 1.16883 -1.55462 0
M  V30 7404 O 717.709 1.80395 -0.758695 0
M  V30 7405 C 718.008 -0.243986 -3.56566 0
M  V30 7406 C 717.674 -1.59397 -4.21786 0
M  V30 7407 C 716.336 -1.96355 -4.39316 0
M  V30 7408 C 718.688 -2.48192 -4.58312 0
M  V30 7409 C 716.016 -3.21683 -4.9065 0
M  V30 7410 C 718.368 -3.72857 -5.11039 0
M  V30 7411 C 717.032 -4.09951 -5.26779 0
M  V30 7412 H 716.302 -0.085263 -0.736078 0
M  V30 7413 H 718.949 -0.9001 -1.69028 0
M  V30 7414 H 717.254 0.506663 -3.8851 0
M  V30 7415 H 718.951 0.135031 -4.00773 0
M  V30 7416 H 715.541 -1.29654 -4.08519 0
M  V30 7417 H 719.725 -2.20918 -4.4442 0
M  V30 7418 H 714.981 -3.50412 -5.01021 0
M  V30 7419 H 719.155 -4.41844 -5.38282 0
M  V30 7420 H 716.782 -5.07136 -5.66319 0
M  V30 7421 N 718.357 1.51182 -0.445186 0
M  V30 7422 C 719.605 2.01753 0.11841 0
M  V30 7423 C 719.926 1.33087 1.42523 0
M  V30 7424 O 719.196 0.467891 1.9023 0
M  V30 7425 H 717.776 0.745536 0.0467492 0
M  V30 7426 H 720.438 1.85765 -0.589688 0
M  V30 7427 H 719.534 3.10762 0.288665 0
M  V30 7428 N 719.835 0.176821 1.56605 0
M  V30 7429 C 721.065 -0.472142 2.01133 0
M  V30 7430 C 721.473 -1.56979 1.05614 0
M  V30 7431 O 720.816 -1.83632 0.0500137 0
M  V30 7432 C 720.878 -1.10547 3.42081 0
M  V30 7433 C 720.542 -0.148806 4.56758 0
M  V30 7434 C 721.539 0.634939 5.16008 0
M  V30 7435 C 719.224 -0.0430325 5.02282 0
M  V30 7436 C 721.218 1.5116 6.19217 0
M  V30 7437 C 718.905 0.83721 6.05338 0
M  V30 7438 C 719.903 1.61311 6.63677 0
M  V30 7439 O 719.591 2.47863 7.64735 0
M  V30 7440 H 719.323 -0.124725 0.664394 0
M  V30 7441 H 721.877 0.277329 2.03519 0
M  V30 7442 H 720.107 -1.90318 3.36625 0
M  V30 7443 H 721.796 -1.6572 3.70529 0
M  V30 7444 H 722.562 0.563424 4.81716 0
M  V30 7445 H 718.441 -0.636753 4.56581 0
M  V30 7446 H 721.985 2.11767 6.64681 0
M  V30 7447 H 717.882 0.909908 6.39055 0
M  V30 7448 H 718.65 2.4144 7.8208 0
M  V30 7449 N 721.313 -1.57302 -0.09688 0
M  V30 7450 C 722.261 -2.02942 -1.13654 0
M  V30 7451 C 723.255 -0.930173 -1.41577 0
M  V30 7452 O 724.461 -1.11535 -1.41279 0
M  V30 7453 H 720.836 -0.646726 -0.383731 0
M  V30 7454 H 722.807 -2.89452 -0.725267 0
M  V30 7455 C 721.556 -2.46815 -2.44903 0
M  V30 7456 H 720.879 -3.30979 -2.24261 0
M  V30 7457 H 722.319 -2.82527 -3.16156 0
M  V30 7458 C 720.778 -1.34071 -3.09074 0
M  V30 7459 O 721.308 -0.668856 -3.96092 0
M  V30 7460 N 719.514 -1.09214 -2.69296 0
M  V30 7461 H 719.061 -1.64029 -1.98626 0
M  V30 7462 H 719.019 -0.339785 -3.12559 0
M  V30 7463 N 722.791 0.367657 -1.53252 0
M  V30 7464 C 724.038 1.11052 -1.69333 0
M  V30 7465 C 724.366 1.89363 -0.444064 0
M  V30 7466 O 723.621 1.87094 0.573953 0
M  V30 7467 C 723.92 2.09825 -2.89324 0
M  V30 7468 C 723.586 1.4801 -4.25915 0
M  V30 7469 C 722.248 1.30879 -4.6306 0
M  V30 7470 C 724.6 1.03268 -5.10867 0
M  V30 7471 C 721.928 0.675868 -5.82794 0
M  V30 7472 C 724.28 0.41377 -6.31245 0
M  V30 7473 C 722.944 0.229939 -6.67104 0
M  V30 7474 H 722.214 0.406367 -0.619634 0
M  V30 7475 H 724.861 0.392558 -1.87433 0
M  V30 7476 H 723.166 2.87917 -2.65728 0
M  V30 7477 H 724.863 2.67252 -2.98961 0
M  V30 7478 H 721.453 1.62336 -3.96667 0
M  V30 7479 H 725.637 1.15297 -4.82722 0
M  V30 7480 H 720.893 0.521833 -6.09169 0
M  V30 7481 H 725.067 0.0588768 -6.96375 0
M  V30 7482 H 722.694 -0.262562 -7.59746 0
M  V30 7483 N 724.269 1.44576 0.627338 0
M  V30 7484 C 725.517 1.47267 1.38408 0
M  V30 7485 C 725.838 0.107971 1.94701 0
M  V30 7486 O 725.108 -0.860206 1.76004 0
M  V30 7487 H 723.688 0.542276 0.513756 0
M  V30 7488 H 726.35 1.80383 0.738099 0
M  V30 7489 H 725.446 2.20025 2.21349 0
M  V30 7490 N 725.747 -0.868086 1.31537 0
M  V30 7491 C 726.694 -1.97548 1.19346 0
M  V30 7492 C 727.664 -1.65913 0.0787922 0
M  V30 7493 O 728.849 -1.89129 0.251985 0
M  V30 7494 C 725.989 -3.32922 0.908692 0
M  V30 7495 C 725.102 -3.77141 2.10687 0
M  V30 7496 C 724.237 -5.01241 1.75873 0
M  V30 7497 C 723.276 -5.37914 2.92088 0
M  V30 7498 N 722.413 -6.53192 2.57457 0
M  V30 7499 H 727.253 -2.07307 2.14074 0
M  V30 7500 H 724.79 -1.01483 1.06487 0
M  V30 7501 H 726.748 -4.10867 0.724138 0
M  V30 7502 H 725.378 -3.228 -0.0017611 0
M  V30 7503 H 724.43 -2.94961 2.40213 0
M  V30 7504 H 725.742 -4.00248 2.97663 0
M  V30 7505 H 724.896 -5.86858 1.53891 0
M  V30 7506 H 723.635 -4.80041 0.86091 0
M  V30 7507 H 722.64 -4.50814 3.14717 0
M  V30 7508 H 723.865 -5.61077 3.82582 0
M  V30 7509 H 721.811 -6.33536 1.702 0
M  V30 7510 H 721.728 -6.76252 3.37963 0
M  V30 7511 H 722.996 -7.41997 2.38873 0
M  V30 7512 N 727.225 -1.14528 -1.08264 0
M  V30 7513 C 728.455 -0.936604 -1.8415 0
M  V30 7514 C 728.863 0.518298 -1.81962 0
M  V30 7515 O 728.206 1.37096 -1.22272 0
M  V30 7516 C 728.268 -1.36182 -3.32708 0
M  V30 7517 C 727.932 -2.83257 -3.58629 0
M  V30 7518 C 728.929 -3.81366 -3.5335 0
M  V30 7519 C 726.614 -3.20704 -3.86593 0
M  V30 7520 C 728.608 -5.14929 -3.75668 0
M  V30 7521 C 726.295 -4.54443 -4.08564 0
M  V30 7522 C 727.293 -5.51365 -4.03095 0
M  V30 7523 O 726.981 -6.8269 -4.24488 0
M  V30 7524 H 726.713 -0.333254 -0.588148 0
M  V30 7525 H 729.267 -1.5247 -1.3763 0
M  V30 7526 H 727.497 -0.717063 -3.79994 0
M  V30 7527 H 729.186 -1.12372 -3.90035 0
M  V30 7528 H 729.952 -3.53781 -3.31759 0
M  V30 7529 H 725.831 -2.45857 -3.89969 0
M  V30 7530 H 729.375 -5.90568 -3.71315 0
M  V30 7531 H 725.272 -4.81747 -4.29639 0
M  V30 7532 H 726.04 -6.8897 -4.41886 0
M  V30 7533 N 728.703 1.26451 -0.940633 0
M  V30 7534 C 729.633 2.28773 -0.467479 0
M  V30 7535 C 730.614 1.63218 0.478955 0
M  V30 7536 O 731.799 1.90427 0.380929 0
M  V30 7537 C 728.929 3.46259 0.268656 0
M  V30 7538 C 727.883 4.23898 -0.591171 0
M  V30 7539 C 727.209 5.33993 0.274891 0
M  V30 7540 C 728.509 4.87974 -1.86223 0
M  V30 7541 H 730.203 2.68601 -1.32265 0
M  V30 7542 H 727.749 1.29123 -0.637436 0
M  V30 7543 H 729.702 4.16951 0.610696 0
M  V30 7544 H 728.426 3.05383 1.15796 0
M  V30 7545 H 727.085 3.54969 -0.916098 0
M  V30 7546 H 726.733 4.89358 1.16353 0
M  V30 7547 H 726.433 5.86849 -0.297006 0
M  V30 7548 H 727.957 6.07523 0.612213 0
M  V30 7549 H 729.371 5.50883 -1.58747 0
M  V30 7550 H 727.768 5.50945 -2.37866 0
M  V30 7551 H 728.838 4.10945 -2.57394 0
M  V30 7552 N 730.181 0.707592 1.40822 0
M  V30 7553 C 731.144 0.0587224 2.29125 0
M  V30 7554 C 732.144 -0.695624 1.44975 0
M  V30 7555 O 733.334 -0.528718 1.65983 0
M  V30 7556 C 730.466 -0.926939 3.28056 0
M  V30 7557 H 731.659 0.836349 2.88002 0
M  V30 7558 H 729.212 0.471778 1.4901 0
M  V30 7559 H 729.947 -1.7319 2.74182 0
M  V30 7560 H 729.732 -0.389015 3.90165 0
M  V30 7561 H 731.222 -1.37837 3.94196 0
M  V30 7562 N 731.66 -1.50943 0.453197 0
M  V30 7563 C 732.61 -2.25003 -0.368467 0
M  V30 7564 C 733.594 -1.27864 -0.976714 0
M  V30 7565 O 734.786 -1.52867 -0.892228 0
M  V30 7566 C 731.915 -3.10701 -1.46014 0
M  V30 7567 C 731.001 -4.15278 -0.860506 0
M  V30 7568 N 731.392 -5.05799 0.00849611 0
M  V30 7569 C 729.69 -4.31542 -1.1264 0
M  V30 7570 C 730.391 -5.80664 0.346951 0
M  V30 7571 N 729.367 -5.42912 -0.273426 0
M  V30 7572 H 733.169 -2.92352 0.301246 0
M  V30 7573 H 730.683 -1.60203 0.266233 0
M  V30 7574 H 732.68 -3.62348 -2.06179 0
M  V30 7575 H 731.34 -2.44898 -2.13202 0
M  V30 7576 H 732.351 -5.16533 0.376077 0
M  V30 7577 H 729.028 -3.76962 -1.7946 0
M  V30 7578 H 730.418 -6.63565 1.05507 0
M  V30 7579 N 733.138 -0.185124 -1.56509 0
M  V30 7580 C 734.384 0.450356 -1.98352 0
M  V30 7581 C 734.739 1.59923 -1.06969 0
M  V30 7582 O 734.032 1.91272 -0.112084 0
M  V30 7583 C 734.226 0.967977 -3.44042 0
M  V30 7584 C 734.055 -0.129208 -4.49514 0
M  V30 7585 C 732.825 -0.58351 -5.0192 0
M  V30 7586 C 735.023 -0.93459 -5.05737 0
M  V30 7587 N 733.005 -1.65956 -5.91043 0
M  V30 7588 C 734.376 -1.86026 -5.91434 0
M  V30 7589 C 736.431 -0.978125 -4.88198 0
M  V30 7590 C 735.134 -2.82582 -6.61468 0
M  V30 7591 C 737.16 -1.93169 -5.58963 0
M  V30 7592 C 736.522 -2.84481 -6.44399 0
M  V30 7593 H 732.621 0.132504 -0.770692 0
M  V30 7594 H 735.205 -0.288523 -1.9255 0
M  V30 7595 H 733.376 1.67633 -3.50362 0
M  V30 7596 H 735.108 1.57323 -3.72869 0
M  V30 7597 H 731.863 -0.178676 -4.73263 0
M  V30 7598 H 732.287 -2.19848 -6.40309 0
M  V30 7599 H 736.929 -0.286169 -4.2183 0
M  V30 7600 H 734.647 -3.52758 -7.2704 0
M  V30 7601 H 738.233 -1.97166 -5.47373 0
M  V30 7602 H 737.113 -3.57065 -6.98194 0
M  V30 7603 N 734.616 1.57351 0.0885366 0
M  V30 7604 C 735.546 2.05561 1.10757 0
M  V30 7605 C 736.527 0.945789 1.41382 0
M  V30 7606 O 737.712 1.21747 1.51299 0
M  V30 7607 C 734.842 2.48554 2.42566 0
M  V30 7608 C 733.796 3.63259 2.26334 0
M  V30 7609 C 733.122 3.9225 3.63378 0
M  V30 7610 C 734.422 4.93913 1.69844 0
M  V30 7611 H 736.116 2.90946 0.706468 0
M  V30 7612 H 733.662 1.39968 0.338385 0
M  V30 7613 H 735.615 2.8089 3.14132 0
M  V30 7614 H 734.339 1.60176 2.84625 0
M  V30 7615 H 732.998 3.31179 1.57213 0
M  V30 7616 H 732.646 3.0103 4.02976 0
M  V30 7617 H 732.346 4.69478 3.53362 0
M  V30 7618 H 733.87 4.27067 4.36401 0
M  V30 7619 H 735.284 5.24588 2.31258 0
M  V30 7620 H 733.681 5.75349 1.70569 0
M  V30 7621 H 734.751 4.80409 0.65843 0
M  V30 7622 N 736.094 -0.359525 1.53444 0
M  V30 7623 C 737.319 -1.12644 1.74144 0
M  V30 7624 C 737.744 -1.82082 0.472007 0
M  V30 7625 O 737.102 -1.71962 -0.57436 0
M  V30 7626 C 737.15 -2.12781 2.9113 0
M  V30 7627 O 736.254 -3.19984 2.60162 0
M  V30 7628 H 735.595 -0.326553 0.578152 0
M  V30 7629 H 738.125 -0.414798 2.00351 0
M  V30 7630 H 738.135 -2.56278 3.17467 0
M  V30 7631 H 736.81 -1.61634 3.83207 0
M  V30 7632 H 735.387 -2.81417 2.44661 0
M  V30 7633 N 737.572 -1.44907 -0.619662 0
M  V30 7634 C 738.505 -1.47133 -1.74434 0
M  V30 7635 C 739.483 -0.328933 -1.59238 0
M  V30 7636 O 740.667 -0.527632 -1.80965 0
M  V30 7637 C 737.794 -1.31491 -3.12134 0
M  V30 7638 C 736.84 -2.49441 -3.4595 0
M  V30 7639 S 737.673 -4.11945 -3.42142 0
M  V30 7640 C 738.829 -3.98747 -4.82443 0
M  V30 7641 H 739.062 -2.42295 -1.7228 0
M  V30 7642 H 736.595 -1.32343 -0.795276 0
M  V30 7643 H 738.553 -1.23153 -3.91591 0
M  V30 7644 H 737.214 -0.378203 -3.11815 0
M  V30 7645 H 736.407 -2.3439 -4.46181 0
M  V30 7646 H 736.009 -2.54577 -2.73982 0
M  V30 7647 H 738.301 -3.63145 -5.71954 0
M  V30 7648 H 739.244 -4.98848 -5.0255 0
M  V30 7649 H 739.652 -3.30608 -4.57557 0
M  V30 7650 N 739.05 0.861098 -1.31996 0
M  V30 7651 C 740.013 1.95068 -1.20338 0
M  V30 7652 C 741.013 1.60289 -0.128114 0
M  V30 7653 O 742.203 1.70048 -0.378044 0
M  V30 7654 C 739.335 3.30153 -0.849205 0
M  V30 7655 H 740.528 2.06833 -2.17164 0
M  V30 7656 H 738.081 1.05049 -1.15734 0
M  V30 7657 H 738.816 3.24087 0.117508 0
M  V30 7658 H 738.601 3.56771 -1.62655 0
M  V30 7659 H 740.091 4.10025 -0.791782 0
M  V30 7660 N 740.528 1.15101 1.07655 0
M  V30 7661 C 741.46 0.802722 2.14684 0
M  V30 7662 C 742.473 -0.183874 1.61758 0
M  V30 7663 O 743.662 0.0389349 1.78458 0
M  V30 7664 C 740.762 0.172135 3.38463 0
M  V30 7665 C 739.935 1.19538 4.20749 0
M  V30 7666 C 738.994 0.58714 5.22914 0
M  V30 7667 O 738.02 1.25224 5.55255 0
M  V30 7668 N 739.222 -0.632566 5.77043 0
M  V30 7669 H 741.987 1.72379 2.45164 0
M  V30 7670 H 739.548 1.04647 1.23534 0
M  V30 7671 H 741.54 -0.247465 4.03943 0
M  V30 7672 H 740.11 -0.652214 3.0572 0
M  V30 7673 H 739.33 1.79165 3.51132 0
M  V30 7674 H 740.618 1.88636 4.7254 0
M  V30 7675 H 740.016 -1.19135 5.53013 0
M  V30 7676 H 738.573 -0.994566 6.44167 0
M  V30 7677 N 742.006 -1.2595 0.947325 0
M  V30 7678 C 742.956 -2.23859 0.432547 0
M  V30 7679 C 743.94 -1.53755 -0.474154 0
M  V30 7680 O 745.132 -1.74293 -0.308397 0
M  V30 7681 C 742.261 -3.42027 -0.295318 0
M  V30 7682 C 741.347 -4.19409 0.62903 0
M  V30 7683 N 741.738 -4.74284 1.7575 0
M  V30 7684 C 740.036 -4.43866 0.435805 0
M  V30 7685 C 740.737 -5.32821 2.33401 0
M  V30 7686 N 739.713 -5.18858 1.62135 0
M  V30 7687 H 743.515 -2.63886 1.29388 0
M  V30 7688 H 741.029 -1.41105 0.80393 0
M  V30 7689 H 743.026 -4.11297 -0.681188 0
M  V30 7690 H 741.686 -3.03526 -1.15334 0
M  V30 7691 H 742.697 -4.71641 2.13952 0
M  V30 7692 H 739.374 -4.15768 -0.37994 0
M  V30 7693 H 740.764 -5.86111 3.28517 0
M  V30 7694 N 743.484 -0.715051 -1.40445 0
M  V30 7695 C 744.895 -0.326763 -1.83818 0
M  V30 7696 C 745.246 1.13851 -1.59789 0
M  V30 7697 O 744.371 1.87611 -1.07848 0
M  V30 7698 C 744.966 -0.586297 -3.33688 0
M  V30 7699 C 743.525 -0.251724 -3.75557 0
M  V30 7700 C 742.672 -0.858928 -2.63662 0
M  V30 7701 H 745.623 -0.914241 -1.2972 0
M  V30 7702 H 745.644 0.148636 -3.8021 0
M  V30 7703 H 745.156 -1.65281 -3.51146 0
M  V30 7704 H 743.257 0.809754 -3.63695 0
M  V30 7705 H 743.37 -0.720348 -4.73654 0
M  V30 7706 H 741.734 -0.287013 -2.53078 0
M  V30 7707 H 742.517 -1.9297 -2.83932 0
M  V30 7708 N 744.962 1.50701 -0.461195 0
M  V30 7709 C 745.925 2.2686 0.326679 0
M  V30 7710 C 746.925 1.31243 0.929085 0
M  V30 7711 O 748.115 1.54754 0.799807 0
M  V30 7712 C 745.247 3.07844 1.46441 0
M  V30 7713 H 746.44 2.97954 -0.341095 0
M  V30 7714 H 743.993 1.54814 -0.214984 0
M  V30 7715 H 744.728 2.41223 2.16753 0
M  V30 7716 H 744.513 3.78101 1.03836 0
M  V30 7717 H 746.003 3.65469 2.02044 0
M  V30 7718 N 746.441 0.193421 1.56409 0
M  V30 7719 C 747.404 -0.714371 2.17783 0
M  V30 7720 C 748.404 -1.1422 1.13183 0
M  V30 7721 O 749.594 -1.05557 1.38576 0
M  V30 7722 C 746.726 -1.97509 2.77855 0
M  V30 7723 H 747.919 -0.179714 2.99361 0
M  V30 7724 H 745.472 -0.0561944 1.56199 0
M  V30 7725 H 746.207 -2.5523 2.0007 0
M  V30 7726 H 745.992 -1.67706 3.54425 0
M  V30 7727 H 747.482 -2.62246 3.24987 0
M  V30 7728 N 747.919 -1.57396 -0.0801906 0
M  V30 7729 C 748.866 -2.03107 -1.09618 0
M  V30 7730 C 749.836 -0.910118 -1.38946 0
M  V30 7731 O 751.021 -1.17719 -1.50156 0
M  V30 7732 C 748.161 -2.47293 -2.40708 0
M  V30 7733 C 747.274 -3.72972 -2.17982 0
M  V30 7734 C 746.409 -4.05975 -3.42576 0
M  V30 7735 C 745.448 -5.24719 -3.15177 0
M  V30 7736 N 744.585 -5.53401 -4.32078 0
M  V30 7737 H 749.425 -2.89677 -0.69939 0
M  V30 7738 H 746.962 -1.43263 -0.333785 0
M  V30 7739 H 748.92 -2.7096 -3.17232 0
M  V30 7740 H 747.55 -1.63713 -2.78205 0
M  V30 7741 H 746.602 -3.56693 -1.32189 0
M  V30 7742 H 747.914 -4.59638 -1.93738 0
M  V30 7743 H 747.068 -4.30498 -4.275 0
M  V30 7744 H 745.807 -3.17859 -3.69887 0
M  V30 7745 H 744.812 -5 -2.28648 0
M  V30 7746 H 746.037 -6.14445 -2.89197 0
M  V30 7747 H 743.983 -4.68245 -4.59437 0
M  V30 7748 H 743.9 -6.34469 -4.11078 0
M  V30 7749 H 745.168 -5.8247 -5.18024 0
M  V30 7750 N 749.397 0.351382 -1.53633 0
M  V30 7751 C 750.327 1.43688 -1.84055 0
M  V30 7752 C 751.308 1.55251 -0.695073 0
M  V30 7753 O 752.493 1.69587 -0.946257 0
M  V30 7754 C 749.623 2.80843 -2.04315 0
M  V30 7755 C 748.577 2.84094 -3.20117 0
M  V30 7756 C 747.903 4.2406 -3.25696 0
M  V30 7757 C 749.203 2.50334 -4.58399 0
M  V30 7758 H 750.897 1.18478 -2.74961 0
M  V30 7759 H 748.443 0.568509 -1.32303 0
M  V30 7760 H 750.396 3.56821 -2.2418 0
M  V30 7761 H 749.12 3.07471 -1.10132 0
M  V30 7762 H 747.779 2.10568 -3.00094 0
M  V30 7763 H 747.427 4.47785 -2.29123 0
M  V30 7764 H 747.127 4.27147 -4.03509 0
M  V30 7765 H 748.651 5.0189 -3.47762 0
M  V30 7766 H 750.065 3.16025 -4.78332 0
M  V30 7767 H 748.462 2.64717 -5.38558 0
M  V30 7768 H 749.532 1.45542 -4.62543 0
M  V30 7769 N 750.875 1.45233 0.611969 0
M  V30 7770 C 752.286 1.4354 1.19387 0
M  V30 7771 C 752.637 0.160713 1.95541 0
M  V30 7772 O 751.762 -0.737954 2.03429 0
M  V30 7773 C 752.357 2.60045 2.17169 0
M  V30 7774 C 750.916 2.61486 2.70744 0
M  V30 7775 C 750.063 2.35708 1.46072 0
M  V30 7776 H 753.014 1.53536 0.401529 0
M  V30 7777 H 753.035 2.33893 3.00124 0
M  V30 7778 H 752.547 3.52803 1.61714 0
M  V30 7779 H 750.648 1.72721 3.30149 0
M  V30 7780 H 750.761 3.60572 3.15476 0
M  V30 7781 H 749.125 1.85178 1.74875 0
M  V30 7782 H 749.908 3.30606 0.924922 0
M  V30 7783 N 752.353 -0.854086 1.3245 0
M  V30 7784 C 753.3 -1.96271 1.21434 0
M  V30 7785 C 754.27 -1.6582 0.0963851 0
M  V30 7786 O 755.455 -1.88851 0.27203 0
M  V30 7787 C 752.595 -3.31939 0.943952 0
M  V30 7788 C 751.708 -3.74885 2.14675 0
M  V30 7789 C 750.843 -4.99347 1.81179 0
M  V30 7790 C 749.882 -5.34785 2.97777 0
M  V30 7791 N 749.019 -6.50425 2.6437 0
M  V30 7792 H 753.859 -2.05025 2.16261 0
M  V30 7793 H 751.396 -1.00348 1.07558 0
M  V30 7794 H 753.354 -4.10076 0.767675 0
M  V30 7795 H 751.984 -3.22784 0.0324763 0
M  V30 7796 H 751.036 -2.92396 2.43328 0
M  V30 7797 H 752.348 -3.97068 3.01891 0
M  V30 7798 H 751.502 -5.85193 1.60107 0
M  V30 7799 H 750.241 -4.79101 0.911777 0
M  V30 7800 H 749.246 -4.47451 3.1948 0
M  V30 7801 H 750.471 -5.56988 3.88511 0
M  V30 7802 H 748.417 -6.31695 1.7691 0
M  V30 7803 H 748.334 -6.7263 3.45116 0
M  V30 7804 H 749.602 -7.39422 2.46729 0
M  V30 7805 N 753.831 -1.1567 -1.07043 0
M  V30 7806 C 755.08 -0.928039 -1.79082 0
M  V30 7807 C 755.393 0.545968 -1.87826 0
M  V30 7808 O 756.599 0.892308 -2.56418 0
M  V30 7809 C 755.055 -1.61103 -3.21829 0
M  V30 7810 C 754.663 -3.12228 -3.21275 0
M  V30 7811 C 756.407 -1.46404 -3.98455 0
M  V30 7812 C 754.314 -3.733 -4.58695 0
M  V30 7813 H 753.244 -0.34357 -0.671175 0
M  V30 7814 H 755.895 -1.38718 -1.20123 0
M  V30 7815 H 754.277 -1.07958 -3.81 0
M  V30 7816 H 755.451 -3.72155 -2.71731 0
M  V30 7817 H 753.766 -3.26725 -2.58147 0
M  V30 7818 H 756.363 -1.8942 -5.00024 0
M  V30 7819 H 756.706 -0.41195 -4.14257 0
M  V30 7820 H 757.239 -1.96663 -3.45787 0
M  V30 7821 H 753.978 -4.78423 -4.48098 0
M  V30 7822 H 753.498 -3.18157 -5.08465 0
M  V30 7823 H 755.177 -3.7441 -5.27661 0
M  V30 7824 N 755.309 1.25446 -0.953992 0
M  V30 7825 C 756.556 1.93143 -0.608429 0
M  V30 7826 C 756.884 1.74727 0.854451 0
M  V30 7827 O 756.139 1.0855 1.62836 0
M  V30 7828 C 756.438 3.45555 -0.912496 0
M  V30 7829 C 756.104 3.84126 -2.36131 0
M  V30 7830 C 754.766 3.94367 -2.75732 0
M  V30 7831 C 757.118 4.0324 -3.30223 0
M  V30 7832 C 754.446 4.21127 -4.08496 0
M  V30 7833 C 756.798 4.31493 -4.62598 0
M  V30 7834 C 755.462 4.3995 -5.01996 0
M  V30 7835 H 754.732 0.706762 -0.22264 0
M  V30 7836 H 757.379 1.49005 -1.20291 0
M  V30 7837 H 755.684 3.91091 -0.235618 0
M  V30 7838 H 757.381 3.9612 -0.623714 0
M  V30 7839 H 753.971 3.76711 -2.04418 0
M  V30 7840 H 758.155 3.94744 -3.00817 0
M  V30 7841 H 753.411 4.2589 -4.38665 0
M  V30 7842 H 757.585 4.45227 -5.35486 0
M  V30 7843 H 755.212 4.60439 -6.04896 0
M  V30 7844 N 756.787 0.722489 1.40064 0
M  V30 7845 C 757.737 0.0506801 2.27944 0
M  V30 7846 C 758.721 -0.725493 1.43615 0
M  V30 7847 O 759.913 -0.596559 1.66644 0
M  V30 7848 C 757.042 -0.865195 3.32219 0
M  V30 7849 C 756.128 -0.0838393 4.24017 0
M  V30 7850 N 756.519 0.936516 4.97054 0
M  V30 7851 C 754.817 -0.315371 4.44884 0
M  V30 7852 C 755.518 1.4066 5.64437 0
M  V30 7853 N 754.494 0.727485 5.3871 0
M  V30 7854 H 758.296 0.832609 2.8186 0
M  V30 7855 H 755.81 0.555691 1.52597 0
M  V30 7856 H 757.807 -1.36186 3.94029 0
M  V30 7857 H 756.467 -1.64642 2.79862 0
M  V30 7858 H 757.478 1.31755 5.0086 0
M  V30 7859 H 754.155 -1.07238 4.03492 0
M  V30 7860 H 755.545 2.25482 6.32936 0
M  V30 7861 N 758.265 -1.50454 0.469181 0
M  V30 7862 C 759.511 -2.02615 -0.0865971 0
M  V30 7863 C 759.844 -1.35062 -1.39542 0
M  V30 7864 O 759.119 -0.475701 -1.88593 0
M  V30 7865 C 759.402 -3.59068 -0.272385 0
M  V30 7866 C 759.255 -4.37196 1.05733 0
M  V30 7867 C 760.574 -4.2793 -1.0278 0
M  V30 7868 H 757.693 -0.736389 -0.0299977 0
M  V30 7869 H 760.335 -1.79792 0.614399 0
M  V30 7870 H 758.485 -3.78646 -0.869471 0
M  V30 7871 H 760.157 -4.29195 1.69084 0
M  V30 7872 H 758.4 -4.01013 1.65442 0
M  V30 7873 H 759.071 -5.44924 0.880997 0
M  V30 7874 H 761.547 -4.12816 -0.521718 0
M  V30 7875 H 760.423 -5.37214 -1.12659 0
M  V30 7876 H 760.684 -3.90968 -2.0639 0
M  V30 7877 N 759.743 -0.201713 -1.56304 0
M  V30 7878 C 760.691 0.733133 -2.20744 0
M  V30 7879 C 761.685 1.2148 -1.18064 0
M  V30 7880 O 762.891 1.17692 -1.36193 0
M  V30 7881 H 759.266 0.254789 -0.707521 0
M  V30 7882 H 761.237 0.165996 -2.97938 0
M  V30 7883 C 759.986 1.93925 -2.88597 0
M  V30 7884 H 759.309 1.5777 -3.67353 0
M  V30 7885 H 760.749 2.57158 -3.37114 0
M  V30 7886 C 759.208 2.78219 -1.89989 0
M  V30 7887 O 759.738 3.76353 -1.40432 0
M  V30 7888 N 757.944 2.43847 -1.58072 0
M  V30 7889 H 757.491 1.64103 -1.98565 0
M  V30 7890 H 757.449 3.0053 -0.923524 0
M  V30 7891 N 761.222 1.57436 0.0718424 0
M  V30 7892 C 762.468 1.88388 0.766904 0
M  V30 7893 C 762.823 0.7954 1.75189 0
M  V30 7894 O 762.116 -0.200438 1.90549 0
M  V30 7895 C 762.31 3.23723 1.51455 0
M  V30 7896 C 762.139 4.45632 0.603475 0
M  V30 7897 C 760.909 5.04728 0.240437 0
M  V30 7898 C 763.107 5.14203 -0.0997624 0
M  V30 7899 N 761.089 6.10163 -0.676363 0
M  V30 7900 C 762.46 6.13812 -0.873755 0
M  V30 7901 C 764.515 4.97605 -0.171238 0
M  V30 7902 C 763.218 6.98615 -1.71258 0
M  V30 7903 C 765.244 5.82935 -0.997041 0
M  V30 7904 C 764.606 6.82082 -1.75908 0
M  V30 7905 H 760.705 0.738888 0.256064 0
M  V30 7906 H 763.289 1.94679 0.0284273 0
M  V30 7907 H 761.46 3.1844 2.22375 0
M  V30 7908 H 763.192 3.42324 2.15862 0
M  V30 7909 H 759.947 4.69869 0.593284 0
M  V30 7910 H 760.371 6.67537 -1.12801 0
M  V30 7911 H 765.013 4.20869 0.403586 0
M  V30 7912 H 762.731 7.74726 -2.29838 0
M  V30 7913 H 766.317 5.72149 -1.05532 0
M  V30 7914 H 765.197 7.46964 -2.38778 0
M  V30 7915 N 762.7 -0.34323 1.53817 0
M  V30 7916 C 763.947 -1.08344 1.71079 0
M  V30 7917 C 764.275 -1.88633 0.474133 0
M  V30 7918 O 763.53 -1.87984 -0.544116 0
M  V30 7919 C 763.829 -2.05195 2.92626 0
M  V30 7920 C 763.495 -1.41215 4.28216 0
M  V30 7921 C 762.157 -1.23495 4.65083 0
M  V30 7922 C 764.509 -0.951273 5.12445 0
M  V30 7923 C 761.837 -0.583065 5.83796 0
M  V30 7924 C 764.189 -0.313292 6.31824 0
M  V30 7925 C 762.853 -0.123779 6.67385 0
M  V30 7926 H 762.123 -0.396458 0.626021 0
M  V30 7927 H 764.77 -0.362689 1.88034 0
M  V30 7928 H 763.075 -2.83653 2.70275 0
M  V30 7929 H 764.772 -2.62462 3.03175 0
M  V30 7930 H 761.362 -1.56005 3.992 0
M  V30 7931 H 765.546 -1.07602 4.84495 0
M  V30 7932 H 760.802 -0.424854 6.09922 0
M  V30 7933 H 764.976 0.0519179 6.96381 0
M  V30 7934 H 762.603 0.383398 7.59233 0
M  V30 7935 N 764.178 -1.45556 -0.604258 0
M  V30 7936 C 765.594 -1.30035 -0.925368 0
M  V30 7937 C 765.794 -0.255833 -1.99869 0
M  V30 7938 O 764.85 0.349076 -2.50075 0
M  V30 7939 C 766.163 -2.68028 -1.36314 0
M  V30 7940 C 767.711 -2.75951 -1.47717 0
M  V30 7941 C 768.186 -4.14476 -1.94868 0
M  V30 7942 N 769.677 -4.16787 -2.02097 0
M  V30 7943 C 770.412 -5.20845 -2.39809 0
M  V30 7944 N 769.908 -6.35246 -2.76467 0
M  V30 7945 N 771.701 -5.08204 -2.40177 0
M  V30 7946 H 763.852 -2.1214 0.10512 0
M  V30 7947 H 766.115 -0.947871 -0.0156303 0
M  V30 7948 H 765.821 -3.45667 -0.648628 0
M  V30 7949 H 765.695 -2.96711 -2.329 0
M  V30 7950 H 768.082 -1.98613 -2.18258 0
M  V30 7951 H 768.163 -2.50977 -0.494371 0
M  V30 7952 H 767.807 -4.923 -1.24912 0
M  V30 7953 H 767.737 -4.36843 -2.94068 0
M  V30 7954 H 770.228 -3.34233 -1.76343 0
M  V30 7955 H 770.541 -7.10438 -3.04134 0
M  V30 7956 H 768.886 -6.38642 -2.74155 0
M  V30 7957 H 772.077 -4.17874 -2.10947 0
M  V30 7958 H 772.25 -5.89417 -2.69242 0
M  V30 7959 N 765.656 0.84705 -1.32902 0
M  V30 7960 C 766.603 1.95624 -1.22473 0
M  V30 7961 C 767.573 1.65767 -0.105178 0
M  V30 7962 O 768.758 1.88704 -0.282042 0
M  V30 7963 C 765.898 3.31434 -0.961542 0
M  V30 7964 C 765.011 3.73741 -2.1666 0
M  V30 7965 C 764.146 4.98379 -1.83825 0
M  V30 7966 C 763.185 5.33199 -3.00609 0
M  V30 7967 N 762.322 6.49014 -2.67816 0
M  V30 7968 H 767.162 2.03875 -2.17345 0
M  V30 7969 H 764.699 0.997764 -1.08088 0
M  V30 7970 H 766.657 4.09663 -0.789411 0
M  V30 7971 H 765.287 3.22762 -0.0495938 0
M  V30 7972 H 764.339 2.91102 -2.44875 0
M  V30 7973 H 765.651 3.95462 -3.03993 0
M  V30 7974 H 764.805 5.84336 -1.63208 0
M  V30 7975 H 763.544 4.78611 -0.937172 0
M  V30 7976 H 762.549 4.4575 -3.21849 0
M  V30 7977 H 763.774 5.5492 -3.9146 0
M  V30 7978 H 761.72 6.30748 -1.80258 0
M  V30 7979 H 761.637 6.7079 -3.48679 0
M  V30 7980 H 762.905 7.38103 -2.50647 0
M  V30 7981 N 767.134 1.16236 1.06428 0
M  V30 7982 C 768.411 0.853294 1.76006 0
M  V30 7983 C 768.791 -0.649162 2.00871 0
M  V30 7984 O 768.139 -1.59653 1.63472 0
M  V30 7985 C 768.349 1.67448 3.06206 0
M  V30 7986 C 769.697 1.8866 3.80385 0
M  V30 7987 O 770.721 1.64303 3.16043 0
M  V30 7988 O 769.58 2.29518 4.95968 0
M  V30 7989 H 766.674 0.314737 0.764767 0
M  V30 7990 H 769.22 1.26865 1.12709 0
M  V30 7991 H 767.992 2.69411 2.83784 0
M  V30 7992 H 767.615 1.25608 3.77238 0
M  V30 7993 N 768.612 -1.24939 0.960631 0
M  V30 7994 C 769.559 -2.25658 0.484459 0
M  V30 7995 C 770.529 -1.59422 -0.466242 0
M  V30 7996 O 771.714 -1.87015 -0.378169 0
M  V30 7997 C 768.854 -3.44359 -0.225958 0
M  V30 7998 C 767.967 -4.25214 0.762682 0
M  V30 7999 C 767.102 -5.31192 0.0290931 0
M  V30 8000 C 766.141 -6.03739 1.00827 0
M  V30 8001 N 765.278 -7.01437 0.305155 0
M  V30 8002 H 770.118 -2.65758 1.34821 0
M  V30 8003 H 767.655 -1.30648 0.675983 0
M  V30 8004 H 769.613 -4.12035 -0.654472 0
M  V30 8005 H 768.243 -3.05118 -1.05371 0
M  V30 8006 H 767.295 -3.57144 1.30966 0
M  V30 8007 H 768.607 -4.75406 1.50964 0
M  V30 8008 H 767.761 -6.04971 -0.457763 0
M  V30 8009 H 766.5 -4.81889 -0.750614 0
M  V30 8010 H 765.505 -5.2877 1.50607 0
M  V30 8011 H 766.73 -6.55131 1.7883 0
M  V30 8012 H 764.676 -6.54415 -0.455704 0
M  V30 8013 H 764.593 -7.49475 0.991104 0
M  V30 8014 H 765.861 -7.79336 -0.159966 0
M  V30 8015 N 770.09 -0.729906 -1.39679 0
M  V30 8016 C 771 -0.0880322 -2.34435 0
M  V30 8017 C 772.016 0.727674 -1.58053 0
M  V30 8018 O 773.192 0.657321 -1.90371 0
M  V30 8019 C 770.257 0.812211 -3.37052 0
M  V30 8020 C 769.318 -0.0151681 -4.29297 0
M  V30 8021 C 768.551 0.842202 -5.27013 0
M  V30 8022 O 768.774 2.08108 -5.31081 0
M  V30 8023 O 767.708 0.27357 -6.01278 0
M  V30 8024 H 771.534 -0.869989 -2.90972 0
M  V30 8025 H 769.119 -0.490522 -1.41118 0
M  V30 8026 H 771.001 1.32745 -3.99946 0
M  V30 8027 H 769.676 1.57307 -2.82907 0
M  V30 8028 H 768.583 -0.575811 -3.69642 0
M  V30 8029 H 769.916 -0.738129 -4.86634 0
M  V30 8030 N 771.568 1.50203 -0.477153 0
M  V30 8031 C 772.816 2.01959 0.0755889 0
M  V30 8032 C 773.137 1.3608 1.39668 0
M  V30 8033 O 772.407 0.508136 1.89195 0
M  V30 8034 H 770.987 0.74636 0.0309248 0
M  V30 8035 H 773.649 1.84473 -0.628959 0
M  V30 8036 H 772.745 3.11305 0.222683 0
M  V30 8037 N 773.046 0.209999 1.56195 0
M  V30 8038 C 773.993 -0.704854 2.19774 0
M  V30 8039 C 774.963 -1.19886 1.14964 0
M  V30 8040 O 776.148 -1.26005 1.43274 0
M  V30 8041 C 773.288 -1.91241 2.87265 0
M  V30 8042 C 772.401 -1.45838 4.06639 0
M  V30 8043 C 771.536 -2.6226 4.61945 0
M  V30 8044 C 770.575 -2.13537 5.73645 0
M  V30 8045 N 769.712 -3.2319 6.23292 0
M  V30 8046 H 774.552 -0.155944 2.97592 0
M  V30 8047 H 772.089 -0.0652235 1.46955 0
M  V30 8048 H 774.047 -2.62123 3.24573 0
M  V30 8049 H 772.677 -2.43439 2.11985 0
M  V30 8050 H 771.729 -0.644897 3.74894 0
M  V30 8051 H 773.041 -1.06103 4.87384 0
M  V30 8052 H 772.195 -3.41243 5.01636 0
M  V30 8053 H 770.934 -3.05278 3.80338 0
M  V30 8054 H 769.939 -1.33013 5.33468 0
M  V30 8055 H 771.164 -1.71533 6.57079 0
M  V30 8056 H 769.11 -3.65711 5.44602 0
M  V30 8057 H 769.027 -2.8767 6.99129 0
M  V30 8058 H 770.295 -4.02342 6.67639 0
M  V30 8059 N 774.524 -1.57472 -0.0634922 0
M  V30 8060 C 775.771 -1.87654 -0.761066 0
M  V30 8061 C 776.099 -0.802847 -1.77157 0
M  V30 8062 O 775.354 0.200244 -1.94673 0
M  V30 8063 C 775.653 -3.24521 -1.49736 0
M  V30 8064 C 775.319 -4.46532 -0.626065 0
M  V30 8065 C 773.981 -4.7965 -0.385978 0
M  V30 8066 C 776.333 -5.21195 -0.0224001 0
M  V30 8067 C 773.661 -5.84837 0.467118 0
M  V30 8068 C 776.013 -6.27286 0.818198 0
M  V30 8069 C 774.677 -6.58899 1.06808 0
M  V30 8070 H 773.947 -0.686675 -0.278494 0
M  V30 8071 H 776.594 -1.91488 -0.0216348 0
M  V30 8072 H 774.899 -3.16516 -2.30921 0
M  V30 8073 H 776.596 -3.45111 -2.04204 0
M  V30 8074 H 773.186 -4.20618 -0.823325 0
M  V30 8075 H 777.37 -4.95917 -0.194985 0
M  V30 8076 H 772.626 -6.07725 0.669375 0
M  V30 8077 H 776.8 -6.84298 1.29265 0
M  V30 8078 H 774.427 -7.40233 1.73088 0
M  V30 8079 N 776.003 0.335068 -1.53997 0
M  V30 8080 C 776.933 1.41727 -1.85568 0
M  V30 8081 C 777.914 1.54505 -0.7115 0
M  V30 8082 O 779.099 1.68573 -0.964191 0
M  V30 8083 C 776.229 2.7866 -2.07282 0
M  V30 8084 C 775.183 2.80682 -3.23112 0
M  V30 8085 C 774.509 4.20581 -3.30175 0
M  V30 8086 C 775.809 2.45458 -4.61029 0
M  V30 8087 H 777.503 1.15555 -2.76202 0
M  V30 8088 H 775.049 0.554445 -1.32898 0
M  V30 8089 H 777.002 3.54423 -2.27952 0
M  V30 8090 H 775.726 3.06286 -1.13387 0
M  V30 8091 H 774.385 2.07373 -3.02311 0
M  V30 8092 H 774.033 4.4533 -2.33859 0
M  V30 8093 H 773.733 4.22843 -4.08016 0
M  V30 8094 H 775.257 4.98174 -3.53066 0
M  V30 8095 H 776.671 3.10934 -4.81656 0
M  V30 8096 H 775.068 2.5899 -5.41336 0
M  V30 8097 H 776.138 1.40628 -4.6406 0
M  V30 8098 N 777.481 1.45874 0.596531 0
M  V30 8099 C 778.727 1.51679 1.35518 0
M  V30 8100 C 779.082 0.160681 1.91728 0
M  V30 8101 O 778.375 -0.828886 1.72743 0
M  V30 8102 C 778.569 2.54034 2.51399 0
M  V30 8103 C 778.398 3.99465 2.06538 0
M  V30 8104 C 777.168 4.67321 1.92196 0
M  V30 8105 C 779.366 4.87674 1.63336 0
M  V30 8106 N 777.348 5.97427 1.41261 0
M  V30 8107 C 778.719 6.07495 1.23895 0
M  V30 8108 C 780.774 4.74442 1.51028 0
M  V30 8109 C 779.477 7.15548 0.733739 0
M  V30 8110 C 781.503 5.82553 1.0191 0
M  V30 8111 C 780.865 7.01537 0.634403 0
M  V30 8112 H 776.964 0.609933 0.489393 0
M  V30 8113 H 779.548 1.82411 0.680746 0
M  V30 8114 H 777.719 2.25235 3.16424 0
M  V30 8115 H 779.451 2.49918 3.18313 0
M  V30 8116 H 776.206 4.22635 2.1372 0
M  V30 8117 H 776.63 6.66638 1.17995 0
M  V30 8118 H 781.272 3.82855 1.79393 0
M  V30 8119 H 778.99 8.06914 0.437656 0
M  V30 8120 H 782.576 5.74352 0.927977 0
M  V30 8121 H 781.456 7.83768 0.26019 0
M  V30 8122 N 778.959 -0.83999 1.33349 0
M  V30 8123 C 780.37 -1.41139 1.22216 0
M  V30 8124 C 780.721 -1.95551 -0.159398 0
M  V30 8125 O 779.846 -1.88721 -1.05893 0
M  V30 8126 C 780.441 -2.56564 2.21269 0
M  V30 8127 C 779 -3.09661 2.13979 0
M  V30 8128 C 778.147 -1.82457 2.08818 0
M  V30 8129 H 781.098 -0.645853 1.44964 0
M  V30 8130 H 781.119 -3.34163 1.81976 0
M  V30 8131 H 780.631 -2.16932 3.21811 0
M  V30 8132 H 778.732 -3.53841 1.16736 0
M  V30 8133 H 778.845 -3.6991 3.04472 0
M  V30 8134 H 777.209 -2.0266 1.54276 0
M  V30 8135 H 777.992 -1.45022 3.11165 0
M  V30 8136 N 780.437 -1.16799 -1.0581 0
M  V30 8137 C 781.685 -0.950642 -1.78346 0
M  V30 8138 C 782.006 0.522524 -1.87869 0
M  V30 8139 O 781.276 1.3795 -1.39092 0
M  V30 8140 H 779.856 -0.348736 -0.6606 0
M  V30 8141 H 782.518 -1.47158 -1.27791 0
M  V30 8142 H 781.614 -1.37359 -2.80248 0
M  V30 8143 N 781.915 1.24427 -0.967243 0
M  V30 8144 C 783.162 1.92487 -0.62888 0
M  V30 8145 C 783.49 1.75623 0.835871 0
M  V30 8146 O 782.745 1.1027 1.61675 0
M  V30 8147 C 783.044 3.44568 -0.949096 0
M  V30 8148 C 782.71 3.816 -2.40192 0
M  V30 8149 C 781.372 3.9142 -2.799 0
M  V30 8150 C 783.724 3.99715 -3.34481 0
M  V30 8151 C 781.052 4.16771 -4.12939 0
M  V30 8152 C 783.404 4.26562 -4.67148 0
M  V30 8153 C 782.068 4.34601 -5.06634 0
M  V30 8154 H 781.338 0.704361 -0.230124 0
M  V30 8155 H 783.985 1.4772 -1.21864 0
M  V30 8156 H 782.29 3.90819 -0.277085 0
M  V30 8157 H 783.987 3.95436 -0.665692 0
M  V30 8158 H 780.577 3.74522 -2.08402 0
M  V30 8159 H 784.761 3.91531 -3.04987 0
M  V30 8160 H 780.017 4.21214 -4.43158 0
M  V30 8161 H 784.191 4.39523 -5.40178 0
M  V30 8162 H 781.818 4.53998 -6.09746 0
M  V30 8163 N 783.393 0.737304 1.3929 0
M  V30 8164 C 784.641 0.285691 2.00071 0
M  V30 8165 C 784.962 -1.13169 1.58801 0
M  V30 8166 O 784.232 -1.77104 0.837308 0
M  V30 8167 H 782.812 0.102638 0.739915 0
M  V30 8168 H 785.474 0.947775 1.70303 0
M  V30 8169 H 784.57 0.335906 3.10287 0
M  V30 8170 N 784.871 -1.49948 0.485112 0
M  V30 8171 C 785.781 -2.32587 -0.306697 0
M  V30 8172 C 786.797 -1.43598 -0.982632 0
M  V30 8173 O 787.973 -1.76638 -0.967519 0
M  V30 8174 C 785.038 -3.18638 -1.3664 0
M  V30 8175 C 784.099 -4.23462 -0.705589 0
M  V30 8176 C 783.332 -5.05401 -1.7148 0
M  V30 8177 O 783.555 -4.88618 -2.94293 0
M  V30 8178 O 782.489 -5.88157 -1.27889 0
M  V30 8179 H 786.315 -3.01447 0.369272 0
M  V30 8180 H 783.9 -1.47349 0.246709 0
M  V30 8181 H 785.782 -3.71992 -1.9799 0
M  V30 8182 H 784.457 -2.52491 -2.02559 0
M  V30 8183 H 783.364 -3.74063 -0.0527733 0
M  V30 8184 H 784.697 -4.92119 -0.0891187 0
M  V30 8185 N 786.349 -0.21828 -1.56081 0
M  V30 8186 C 787.297 0.709679 -2.21509 0
M  V30 8187 C 788.291 1.20221 -1.19346 0
M  V30 8188 O 789.497 1.16241 -1.37433 0
M  V30 8189 H 785.872 0.247271 -0.710184 0
M  V30 8190 H 787.843 0.134386 -2.98097 0
M  V30 8191 C 786.592 1.90853 -2.90638 0
M  V30 8192 H 785.915 1.53865 -3.69006 0
M  V30 8193 H 787.355 2.53568 -3.39822 0
M  V30 8194 C 785.814 2.76189 -1.92929 0
M  V30 8195 O 786.344 3.74842 -1.44416 0
M  V30 8196 N 784.55 2.42157 -1.6065 0
M  V30 8197 H 784.097 1.61987 -2.00294 0
M  V30 8198 H 784.055 2.99534 -0.955347 0
M  V30 8199 N 787.827 1.57504 0.0551401 0
M  V30 8200 C 789.052 1.92682 0.767352 0
M  V30 8201 C 789.477 0.81614 1.69472 0
M  V30 8202 O 788.835 -0.229989 1.79835 0
M  V30 8203 C 788.883 3.26866 1.52286 0
M  V30 8204 O 787.987 3.17274 2.63459 0
M  V30 8205 H 787.328 0.630502 0.208238 0
M  V30 8206 H 789.858 2.04592 0.0184026 0
M  V30 8207 H 789.868 3.61138 1.8985 0
M  V30 8208 H 788.543 4.07276 0.842541 0
M  V30 8209 H 787.12 2.94589 2.2863 0
M  V30 8210 N 789.305 -0.326896 1.54172 0
M  V30 8211 C 790.721 -0.671034 1.44808 0
M  V30 8212 C 790.921 -1.91781 0.618258 0
M  V30 8213 O 789.977 -2.52235 0.115751 0
M  V30 8214 C 791.29 -0.848147 2.88491 0
M  V30 8215 C 792.838 -0.945702 2.98371 0
M  V30 8216 C 793.313 -1.15501 4.43197 0
M  V30 8217 N 794.804 -1.22183 4.46795 0
M  V30 8218 C 795.539 -1.4016 5.56006 0
M  V30 8219 N 795.035 -1.55202 6.75192 0
M  V30 8220 N 796.828 -1.42841 5.43648 0
M  V30 8221 H 788.979 0.49262 2.06608 0
M  V30 8222 H 791.242 0.158574 0.934643 0
M  V30 8223 H 790.948 -0.00329969 3.517 0
M  V30 8224 H 790.822 -1.74497 3.34411 0
M  V30 8225 H 793.209 -1.78106 2.35292 0
M  V30 8226 H 793.29 -0.0254215 2.55787 0
M  V30 8227 H 792.934 -0.324521 5.06862 0
M  V30 8228 H 792.864 -2.08911 4.83388 0
M  V30 8229 H 795.355 -1.12016 3.60917 0
M  V30 8230 H 795.668 -1.68601 7.54184 0
M  V30 8231 H 794.013 -1.52306 6.78106 0
M  V30 8232 H 797.204 -1.30683 4.49488 0
M  V30 8233 H 797.377 -1.56509 6.28816 0
M  V30 8234 N 790.784 -1.46188 -0.588786 0
M  V30 8235 C 792.03 -1.51407 -1.34921 0
M  V30 8236 C 792.363 -0.162771 -1.93517 0
M  V30 8237 O 791.638 0.825082 -1.76132 0
M  V30 8238 C 791.921 -2.60795 -2.48311 0
M  V30 8239 C 791.774 -4.05435 -1.94789 0
M  V30 8240 C 793.093 -2.66313 -3.50379 0
M  V30 8241 H 790.212 -0.551213 -0.489217 0
M  V30 8242 H 792.854 -1.78095 -0.661993 0
M  V30 8243 H 791.004 -2.3817 -3.06932 0
M  V30 8244 H 792.676 -4.39328 -1.40672 0
M  V30 8245 H 790.919 -4.15202 -1.25659 0
M  V30 8246 H 791.59 -4.77691 -2.76613 0
M  V30 8247 H 794.066 -2.86634 -3.01629 0
M  V30 8248 H 792.942 -3.44681 -4.27184 0
M  V30 8249 H 793.203 -1.72127 -4.07216 0
M  V30 8250 N 792.262 0.832906 -1.33792 0
M  V30 8251 C 793.192 1.95828 -1.27176 0
M  V30 8252 C 794.173 1.69427 -0.15114 0
M  V30 8253 O 795.358 1.91167 -0.341886 0
M  V30 8254 C 792.488 3.32098 -1.01629 0
M  V30 8255 C 791.442 3.72912 -2.10049 0
M  V30 8256 C 790.768 5.07054 -1.69706 0
M  V30 8257 C 792.068 3.86064 -3.51783 0
M  V30 8258 H 793.762 2.01622 -2.21334 0
M  V30 8259 H 791.308 0.96866 -1.0655 0
M  V30 8260 H 793.261 4.10402 -0.956474 0
M  V30 8261 H 791.985 3.26577 -0.0390956 0
M  V30 8262 H 790.644 2.96876 -2.15082 0
M  V30 8263 H 790.292 4.9801 -0.706737 0
M  V30 8264 H 789.992 5.35333 -2.42264 0
M  V30 8265 H 791.516 5.87827 -1.65202 0
M  V30 8266 H 792.93 4.54665 -3.49218 0
M  V30 8267 H 791.327 4.25787 -4.22878 0
M  V30 8268 H 792.397 2.88344 -3.89854 0
M  V30 8269 N 793.74 1.17359 1.05189 0
M  V30 8270 C 794.65 0.904984 2.16442 0
M  V30 8271 C 795.666 -0.12686 1.73537 0
M  V30 8272 O 796.842 0.0524127 2.01332 0
M  V30 8273 C 793.907 0.422019 3.44122 0
M  V30 8274 C 792.968 1.52045 4.01473 0
M  V30 8275 C 792.201 1.06044 5.23059 0
M  V30 8276 O 792.424 -0.0854023 5.70336 0
M  V30 8277 O 791.358 1.85349 5.72651 0
M  V30 8278 H 795.184 1.8356 2.41949 0
M  V30 8279 H 792.769 0.95447 1.14936 0
M  V30 8280 H 794.651 0.160208 4.21095 0
M  V30 8281 H 793.326 -0.480444 3.20115 0
M  V30 8282 H 792.233 1.83615 3.25939 0
M  V30 8283 H 793.566 2.39863 4.29798 0
M  V30 8284 N 795.218 -1.23913 0.973828 0
M  V30 8285 C 796.464 -1.92747 0.649635 0
M  V30 8286 C 796.819 -1.7465 -0.807157 0
M  V30 8287 O 796.112 -1.09271 -1.57386 0
M  V30 8288 C 796.306 -3.4406 0.967356 0
M  V30 8289 C 796.135 -3.76874 2.45348 0
M  V30 8290 C 794.905 -3.97915 3.11435 0
M  V30 8291 C 797.103 -3.82871 3.43386 0
M  V30 8292 N 795.085 -4.1788 4.49722 0
M  V30 8293 C 796.456 -4.07751 4.67053 0
M  V30 8294 C 798.511 -3.65634 3.37958 0
M  V30 8295 C 797.214 -4.17185 5.8596 0
M  V30 8296 C 799.24 -3.76317 4.56223 0
M  V30 8297 C 798.602 -4.01628 5.78683 0
M  V30 8298 H 794.701 -0.72677 0.288667 0
M  V30 8299 H 797.285 -1.4928 1.24994 0
M  V30 8300 H 795.456 -3.86378 0.395804 0
M  V30 8301 H 797.188 -4.00211 0.601108 0
M  V30 8302 H 793.943 -3.94562 2.61949 0
M  V30 8303 H 794.367 -4.31829 5.21395 0
M  V30 8304 H 799.009 -3.45067 2.44312 0
M  V30 8305 H 796.727 -4.36562 6.80029 0
M  V30 8306 H 800.313 -3.64343 4.53592 0
M  V30 8307 H 799.193 -4.09699 6.68667 0
M  V30 8308 N 796.696 -0.74468 -1.38897 0
M  V30 8309 C 797.629 -0.0596441 -2.28122 0
M  V30 8310 C 798.607 0.73764 -1.44906 0
M  V30 8311 O 799.791 0.718155 -1.74284 0
M  V30 8312 C 796.918 0.922533 -3.25894 0
M  V30 8313 C 795.964 0.212566 -4.2597 0
M  V30 8314 S 796.797 -1.08035 -5.24489 0
M  V30 8315 C 797.953 -0.101014 -6.25818 0
M  V30 8316 H 798.186 -0.816289 -2.85874 0
M  V30 8317 H 795.719 -0.536882 -1.44765 0
M  V30 8318 H 797.677 1.4839 -3.82741 0
M  V30 8319 H 796.338 1.65209 -2.67142 0
M  V30 8320 H 795.531 0.956106 -4.94848 0
M  V30 8321 H 795.133 -0.277029 -3.72973 0
M  V30 8322 H 797.425 0.736072 -6.7349 0
M  V30 8323 H 798.368 -0.757206 -7.0404 0
M  V30 8324 H 798.776 0.275706 -5.63826 0
M  V30 8325 N 798.174 1.49689 -0.493057 0
M  V30 8326 C 799.421 2.02427 0.0542714 0
M  V30 8327 C 799.749 1.37339 1.37725 0
M  V30 8328 O 799.004 0.495523 1.89323 0
M  V30 8329 C 799.303 3.56427 0.263536 0
M  V30 8330 C 798.969 4.40111 -0.98046 0
M  V30 8331 C 797.631 4.62699 -1.32148 0
M  V30 8332 C 799.983 4.88847 -1.80771 0
M  V30 8333 C 797.311 5.31268 -2.48941 0
M  V30 8334 C 799.663 5.587 -2.96711 0
M  V30 8335 C 798.327 5.79536 -3.31202 0
M  V30 8336 H 797.597 0.740734 0.0198593 0
M  V30 8337 H 800.244 1.80073 -0.651603 0
M  V30 8338 H 798.549 3.77416 1.05186 0
M  V30 8339 H 800.246 3.94819 0.701348 0
M  V30 8340 H 796.836 4.22765 -0.704814 0
M  V30 8341 H 801.02 4.71231 -1.55741 0
M  V30 8342 H 796.276 5.45603 -2.75911 0
M  V30 8343 H 800.45 5.9544 -3.61143 0
M  V30 8344 H 798.077 6.32443 -4.21805 0
M  V30 8345 N 799.652 0.226554 1.55963 0
M  V30 8346 C 800.6 -0.697922 2.21882 0
M  V30 8347 C 801.594 -1.19586 1.19981 0
M  V30 8348 O 802.8 -1.15511 1.38048 0
M  V30 8349 H 799.175 -0.243501 0.711485 0
M  V30 8350 H 801.146 -0.118576 2.98164 0
M  V30 8351 C 799.895 -1.89309 2.91646 0
M  V30 8352 H 799.218 -1.51906 3.69817 0
M  V30 8353 H 800.658 -2.51762 3.41162 0
M  V30 8354 C 799.117 -2.75162 1.94391 0
M  V30 8355 O 799.647 -3.74071 1.46402 0
M  V30 8356 N 797.853 -2.41302 1.61932 0
M  V30 8357 H 797.4 -1.60923 2.01151 0
M  V30 8358 H 797.358 -2.99023 0.971219 0
M  V30 8359 N 801.13 -1.57531 -0.0467866 0
M  V30 8360 C 802.546 -1.54451 -0.402107 0
M  V30 8361 C 802.746 -0.950275 -1.77685 0
M  V30 8362 O 801.802 -0.563602 -2.4613 0
M  V30 8363 C 803.115 -2.9899 -0.320212 0
M  V30 8364 C 804.663 -3.10452 -0.398588 0
M  V30 8365 C 805.138 -4.56689 -0.346335 0
M  V30 8366 N 806.629 -4.6142 -0.405666 0
M  V30 8367 C 807.364 -5.72087 -0.387845 0
M  V30 8368 N 806.86 -6.92045 -0.32336 0
M  V30 8369 N 808.653 -5.60404 -0.436263 0
M  V30 8370 H 800.804 -1.94515 0.853087 0
M  V30 8371 H 803.067 -0.891397 0.322669 0
M  V30 8372 H 802.773 -3.46124 0.623794 0
M  V30 8373 H 802.647 -3.60164 -1.1208 0
M  V30 8374 H 805.034 -2.63276 -1.33302 0
M  V30 8375 H 805.115 -2.52142 0.431026 0
M  V30 8376 H 804.759 -5.04527 0.584356 0
M  V30 8377 H 804.689 -5.12889 -1.19382 0
M  V30 8378 H 807.18 -3.75105 -0.458737 0
M  V30 8379 H 807.493 -7.7216 -0.314375 0
M  V30 8380 H 805.838 -6.94396 -0.28967 0
M  V30 8381 H 809.029 -4.65586 -0.48451 0
M  V30 8382 H 809.202 -6.46645 -0.418907 0
M  V30 8383 N 802.608 0.318715 -1.54344 0
M  V30 8384 C 803.857 1.05363 -1.71993 0
M  V30 8385 C 804.17 1.89018 -0.503155 0
M  V30 8386 O 805.376 2.65639 -0.561085 0
M  V30 8387 C 803.832 1.92281 -3.0423 0
M  V30 8388 C 803.44 1.13715 -4.33328 0
M  V30 8389 C 805.184 2.65479 -3.31242 0
M  V30 8390 C 803.091 1.99806 -5.56625 0
M  V30 8391 H 802.021 0.397081 -0.64097 0
M  V30 8392 H 804.672 0.311598 -1.80835 0
M  V30 8393 H 803.054 2.70402 -2.89307 0
M  V30 8394 H 804.228 0.403305 -4.59032 0
M  V30 8395 H 802.543 0.521769 -4.13118 0
M  V30 8396 H 805.14 3.30209 -4.20555 0
M  V30 8397 H 805.483 3.33374 -2.49334 0
M  V30 8398 H 806.016 1.94417 -3.47054 0
M  V30 8399 H 802.755 1.36411 -6.41149 0
M  V30 8400 H 802.275 2.70911 -5.35133 0
M  V30 8401 H 803.954 2.58277 -5.93213 0
M  V30 8402 N 804.086 1.46499 0.581025 0
M  V30 8403 C 805.363 1.42372 1.34125 0
M  V30 8404 C 805.743 0.108073 2.10823 0
M  V30 8405 O 805.091 -0.910366 2.09582 0
M  V30 8406 C 805.301 2.65445 2.26583 0
M  V30 8407 C 806.649 3.11664 2.88359 0
M  V30 8408 O 807.673 2.66006 2.36896 0
M  V30 8409 O 806.532 3.90974 3.81839 0
M  V30 8410 H 803.626 0.566262 0.602724 0
M  V30 8411 H 806.172 1.58667 0.601903 0
M  V30 8412 H 804.944 3.52756 1.69348 0
M  V30 8413 H 804.567 2.51618 3.07854 0
M  V30 8414 N 805.565 -0.825799 1.34232 0
M  V30 8415 C 806.813 -1.57873 1.26177 0
M  V30 8416 C 807.134 -1.94267 -0.168904 0
M  V30 8417 O 806.404 -1.62045 -1.10084 0
M  V30 8418 H 804.984 -0.585388 0.464037 0
M  V30 8419 H 807.646 -0.986163 1.6811 0
M  V30 8420 H 806.742 -2.50283 1.86453 0
M  V30 8421 N 807.043 -1.17915 -1.04565 0
M  V30 8422 C 807.99 -0.901605 -2.12461 0
M  V30 8423 C 808.96 0.157011 -1.65356 0
M  V30 8424 O 810.145 0.0184494 -1.90791 0
M  V30 8425 C 807.285 -0.42796 -3.42436 0
M  V30 8426 C 806.398 -1.55142 -4.03181 0
M  V30 8427 C 805.533 -1.03101 -5.21098 0
M  V30 8428 C 804.572 -2.1295 -5.73863 0
M  V30 8429 N 803.709 -1.62339 -6.83074 0
M  V30 8430 H 808.549 -1.82551 -2.3554 0
M  V30 8431 H 806.086 -0.910389 -1.15544 0
M  V30 8432 H 808.044 -0.134859 -4.16982 0
M  V30 8433 H 806.674 0.458977 -3.1952 0
M  V30 8434 H 805.726 -1.96011 -3.26012 0
M  V30 8435 H 807.038 -2.37968 -4.38375 0
M  V30 8436 H 806.192 -0.692132 -6.02739 0
M  V30 8437 H 804.931 -0.17227 -4.87396 0
M  V30 8438 H 803.936 -2.47687 -4.90847 0
M  V30 8439 H 805.161 -2.9925 -6.09611 0
M  V30 8440 H 803.107 -0.787464 -6.51256 0
M  V30 8441 H 803.024 -2.38767 -7.17305 0
M  V30 8442 H 804.292 -1.31363 -7.68351 0
M  V30 8443 N 808.521 1.23394 -0.980386 0
M  V30 8444 C 809.484 2.23092 -0.525619 0
M  V30 8445 C 810.484 1.56129 0.384745 0
M  V30 8446 O 811.674 1.73284 0.178439 0
M  V30 8447 C 808.806 3.40074 0.23712 0
M  V30 8448 H 809.999 2.64839 -1.40714 0
M  V30 8449 H 807.552 1.36227 -0.766275 0
M  V30 8450 H 808.287 3.03783 1.13518 0
M  V30 8451 H 808.072 3.89883 -0.416356 0
M  V30 8452 H 809.562 4.14043 0.543892 0
M  V30 8453 N 809.999 0.752036 1.385 0
M  V30 8454 C 811.224 0.316993 2.04963 0
M  V30 8455 C 811.649 -1.04582 1.56346 0
M  V30 8456 O 811.007 -1.66616 0.714755 0
M  V30 8457 C 811.055 0.347235 3.58924 0
M  V30 8458 O 810.159 -0.659296 4.07096 0
M  V30 8459 H 809.5 0.140652 0.648932 0
M  V30 8460 H 812.03 1.02272 1.77205 0
M  V30 8461 H 812.04 0.19757 4.07521 0
M  V30 8462 H 810.715 1.34157 3.93668 0
M  V30 8463 H 809.292 -0.474371 3.6987 0
M  V30 8464 N 811.477 -1.49425 0.500989 0
M  V30 8465 C 812.705 -2.06861 -0.0403443 0
M  V30 8466 C 813.12 -1.36132 -1.30819 0
M  V30 8467 O 812.477 -0.439647 -1.77125 0
M  V30 8468 C 812.528 -3.6027 -0.297902 0
M  V30 8469 O 812.249 -4.28338 0.919686 0
M  V30 8470 C 813.75 -4.34419 -0.882876 0
M  V30 8471 H 810.97 -0.670688 0.0204619 0
M  V30 8472 H 813.514 -1.92207 0.698342 0
M  V30 8473 H 811.669 -3.74627 -0.98657 0
M  V30 8474 H 812.083 -5.2004 0.682528 0
M  V30 8475 H 813.557 -5.42631 -1.01268 0
M  V30 8476 H 814.034 -3.96898 -1.88066 0
M  V30 8477 H 814.64 -4.24669 -0.231677 0
M  V30 8478 N 812.955 -0.234822 -1.55841 0
M  V30 8479 C 813.902 0.6698 -2.20867 0
M  V30 8480 C 814.872 1.18042 -1.16856 0
M  V30 8481 O 816.057 1.23709 -1.45261 0
M  V30 8482 C 813.197 1.86646 -2.90271 0
M  V30 8483 C 812.31 1.39351 -4.08908 0
M  V30 8484 C 811.445 2.54878 -4.66059 0
M  V30 8485 C 810.484 2.04384 -5.76969 0
M  V30 8486 N 809.621 3.13233 -6.28355 0
M  V30 8487 H 814.461 0.10858 -2.97802 0
M  V30 8488 H 811.998 0.041836 -1.4704 0
M  V30 8489 H 813.956 2.56926 -3.28702 0
M  V30 8490 H 812.586 2.40035 -2.15831 0
M  V30 8491 H 811.638 0.585173 -3.75872 0
M  V30 8492 H 812.95 0.983356 -4.89011 0
M  V30 8493 H 812.104 3.33219 -5.07001 0
M  V30 8494 H 810.843 2.99188 -3.85146 0
M  V30 8495 H 809.848 1.24509 -5.35516 0
M  V30 8496 H 811.073 1.61057 -6.59725 0
M  V30 8497 H 809.019 3.57 -5.50352 0
M  V30 8498 H 808.936 2.76511 -7.03618 0
M  V30 8499 H 810.204 3.91669 -6.73955 0
M  V30 8500 N 814.433 1.57553 0.0384317 0
M  V30 8501 C 815.363 2.0898 1.04161 0
M  V30 8502 C 816.344 0.99029 1.38301 0
M  V30 8503 O 817.529 1.26499 1.47349 0
M  V30 8504 C 814.659 2.56145 2.34536 0
M  V30 8505 C 813.613 3.70275 2.14663 0
M  V30 8506 C 812.939 4.03612 3.50715 0
M  V30 8507 C 814.239 4.99067 1.54045 0
M  V30 8508 H 815.933 2.93046 0.613548 0
M  V30 8509 H 813.479 1.40973 0.293684 0
M  V30 8510 H 815.432 2.90741 3.05037 0
M  V30 8511 H 814.156 1.6915 2.79385 0
M  V30 8512 H 812.815 3.36013 1.46597 0
M  V30 8513 H 812.463 3.13698 3.93195 0
M  V30 8514 H 812.163 4.80482 3.38247 0
M  V30 8515 H 813.687 4.40735 4.22593 0
M  V30 8516 H 815.101 5.3168 2.14451 0
M  V30 8517 H 813.498 5.80484 1.52178 0
M  V30 8518 H 814.568 4.8226 0.505259 0
M  V30 8519 N 815.911 -0.310526 1.54511 0
M  V30 8520 C 817.139 -1.06611 1.77318 0
M  V30 8521 C 817.554 -1.81265 0.528043 0
M  V30 8522 O 816.911 -1.75466 -0.50178 0
M  V30 8523 C 816.962 -2.05409 2.97472 0
M  V30 8524 O 816.683 -1.33785 4.17173 0
M  V30 8525 C 818.184 -2.93082 3.32593 0
M  V30 8526 H 815.404 -0.316578 0.591624 0
M  V30 8527 H 817.948 -0.352691 2.01436 0
M  V30 8528 H 816.103 -2.72266 2.7559 0
M  V30 8529 H 816.517 -2.00055 4.84849 0
M  V30 8530 H 817.991 -3.58274 4.19933 0
M  V30 8531 H 818.468 -3.60877 2.50329 0
M  V30 8532 H 819.074 -2.31768 3.566 0
M  V30 8533 N 817.389 -1.46805 -0.573248 0
M  V30 8534 C 818.8 -1.46655 -1.15539 0
M  V30 8535 C 819.151 -0.2125 -1.95046 0
M  V30 8536 O 818.276 0.683759 -2.05314 0
M  V30 8537 C 818.871 -2.65711 -2.10198 0
M  V30 8538 C 817.43 -2.68572 -2.63716 0
M  V30 8539 C 816.577 -2.39498 -1.39772 0
M  V30 8540 H 819.528 -1.54547 -0.36068 0
M  V30 8541 H 819.549 -2.41768 -2.93817 0
M  V30 8542 H 819.061 -3.56967 -1.52303 0
M  V30 8543 H 817.162 -1.81414 -3.25453 0
M  V30 8544 H 817.275 -3.68809 -3.05805 0
M  V30 8545 H 815.639 -1.89749 -1.69904 0
M  V30 8546 H 816.422 -3.32942 -0.836943 0
M  V30 8547 N 818.867 0.818669 -1.34668 0
M  V30 8548 C 820.116 1.57017 -1.26604 0
M  V30 8549 C 820.429 1.94936 0.161036 0
M  V30 8550 O 821.635 2.69051 0.36386 0
M  V30 8551 C 820.091 2.83305 -2.2196 0
M  V30 8552 C 819.699 2.52671 -3.69948 0
M  V30 8553 C 821.443 3.61324 -2.22813 0
M  V30 8554 C 819.35 3.75178 -4.5716 0
M  V30 8555 H 818.28 0.589323 -0.470335 0
M  V30 8556 H 820.931 0.900956 -1.59859 0
M  V30 8557 H 819.313 3.51874 -1.81661 0
M  V30 8558 H 820.487 1.92186 -4.18809 0
M  V30 8559 H 818.802 1.8792 -3.71584 0
M  V30 8560 H 821.399 4.52294 -2.85192 0
M  V30 8561 H 821.742 3.97759 -1.22857 0
M  V30 8562 H 822.275 2.99703 -2.61578 0
M  V30 8563 H 819.014 3.43861 -5.58068 0
M  V30 8564 H 818.534 4.34931 -4.13031 0
M  V30 8565 H 820.213 4.42542 -4.71981 0
M  V30 8566 N 820.346 1.18468 1.03938 0
M  V30 8567 C 821.594 0.978895 1.76811 0
M  V30 8568 C 821.915 -0.49257 1.88676 0
M  V30 8569 O 821.185 -1.3572 1.41269 0
M  V30 8570 H 819.765 0.359201 0.654968 0
M  V30 8571 H 822.427 1.49173 1.25433 0
M  V30 8572 H 821.523 1.418 2.78027 0
M  V30 8573 N 821.824 -1.22873 0.986916 0
M  V30 8574 C 823.054 -1.95204 0.67668 0
M  V30 8575 C 823.462 -1.73193 -0.761641 0
M  V30 8576 O 822.805 -1.0243 -1.52492 0
M  V30 8577 C 822.867 -3.48173 0.895302 0
M  V30 8578 C 822.531 -3.93912 2.31695 0
M  V30 8579 C 823.528 -4.02064 3.29607 0
M  V30 8580 C 821.213 -4.26722 2.64978 0
M  V30 8581 C 823.207 -4.42391 4.58878 0
M  V30 8582 C 820.894 -4.66729 3.94471 0
M  V30 8583 C 821.892 -4.74531 4.91232 0
M  V30 8584 O 821.58 -5.13636 6.18412 0
M  V30 8585 H 821.312 -0.628105 0.24992 0
M  V30 8586 H 823.866 -1.5714 1.32274 0
M  V30 8587 H 822.096 -3.86223 0.192072 0
M  V30 8588 H 823.785 -4.01717 0.581233 0
M  V30 8589 H 824.551 -3.76912 3.05225 0
M  V30 8590 H 820.43 -4.19858 1.9037 0
M  V30 8591 H 823.974 -4.48395 5.34404 0
M  V30 8592 H 819.871 -4.91332 4.18645 0
M  V30 8593 H 820.639 -5.31728 6.2226 0
M  V30 8594 N 823.302 -0.75937 -1.38099 0
M  V30 8595 C 824.551 -0.314864 -1.99227 0
M  V30 8596 C 824.864 1.1113 -1.60964 0
M  V30 8597 O 826.07 1.65657 -2.15105 0
M  V30 8598 C 824.526 -0.512001 -3.56239 0
M  V30 8599 C 824.134 -1.94762 -4.0345 0
M  V30 8600 C 825.878 -0.130497 -4.24299 0
M  V30 8601 C 823.785 -2.09301 -5.53125 0
M  V30 8602 H 822.715 -0.113978 -0.745335 0
M  V30 8603 H 825.366 -0.936736 -1.57789 0
M  V30 8604 H 823.748 0.179144 -3.95595 0
M  V30 8605 H 824.922 -2.67271 -3.75371 0
M  V30 8606 H 823.237 -2.28457 -3.48133 0
M  V30 8607 H 825.834 -0.21781 -5.34256 0
M  V30 8608 H 826.177 0.917644 -4.0606 0
M  V30 8609 H 826.71 -0.773716 -3.90203 0
M  V30 8610 H 823.449 -3.1239 -5.76275 0
M  V30 8611 H 822.969 -1.41261 -5.82928 0
M  V30 8612 H 824.648 -1.88571 -6.1891 0
M  V30 8613 N 824.78 1.49157 -0.508906 0
M  V30 8614 C 826.191 1.86593 -0.0630975 0
M  V30 8615 C 826.542 1.42051 1.35337 0
M  V30 8616 O 825.667 0.801866 2.00995 0
M  V30 8617 C 826.262 3.38629 -0.107729 0
M  V30 8618 C 824.821 3.75336 0.282776 0
M  V30 8619 C 823.968 2.7317 -0.4768 0
M  V30 8620 H 826.919 1.41362 -0.72128 0
M  V30 8621 H 826.94 3.74271 0.685689 0
M  V30 8622 H 826.452 3.71017 -1.13876 0
M  V30 8623 H 824.553 3.48558 1.31675 0
M  V30 8624 H 824.666 4.79081 -0.0421728 0
M  V30 8625 H 823.03 2.54591 0.0743552 0
M  V30 8626 H 823.813 3.08403 -1.50807 0
M  V30 8627 N 826.258 0.243083 1.55714 0
M  V30 8628 C 827.205 -0.658078 2.21219 0
M  V30 8629 C 828.175 -1.1742 1.17481 0
M  V30 8630 O 829.36 -1.22937 1.45915 0
M  V30 8631 C 826.5 -1.85104 2.91257 0
M  V30 8632 C 825.613 -1.3718 4.09641 0
M  V30 8633 C 824.748 -2.52403 4.67404 0
M  V30 8634 C 823.787 -2.01321 5.78045 0
M  V30 8635 N 822.924 -3.09896 6.30007 0
M  V30 8636 H 827.764 -0.0927854 2.97856 0
M  V30 8637 H 825.301 -0.0340375 1.47061 0
M  V30 8638 H 827.259 -2.55179 3.3006 0
M  V30 8639 H 825.889 -2.38887 2.17101 0
M  V30 8640 H 824.941 -0.565232 3.76177 0
M  V30 8641 H 826.253 -0.957409 4.89525 0
M  V30 8642 H 825.407 -3.30525 5.08761 0
M  V30 8643 H 824.146 -2.97142 3.86728 0
M  V30 8644 H 823.151 -1.21667 5.36169 0
M  V30 8645 H 824.376 -1.57556 6.6057 0
M  V30 8646 H 822.322 -3.54077 5.52237 0
M  V30 8647 H 822.239 -2.72776 7.05074 0
M  V30 8648 H 823.507 -3.8809 6.76023 0
M  V30 8649 N 827.736 -1.57571 -0.0300757 0
M  V30 8650 C 828.646 -2.09892 -1.04798 0
M  V30 8651 C 829.662 -1.03732 -1.39698 0
M  V30 8652 O 830.838 -1.35461 -1.49038 0
M  V30 8653 C 827.903 -2.56707 -2.33028 0
M  V30 8654 C 826.964 -3.77345 -2.04718 0
M  V30 8655 C 826.197 -4.21918 -3.26834 0
M  V30 8656 O 826.42 -3.66025 -4.37472 0
M  V30 8657 O 825.354 -5.14362 -3.12594 0
M  V30 8658 H 829.18 -2.97023 -0.633344 0
M  V30 8659 H 826.765 -1.47344 -0.246991 0
M  V30 8660 H 828.647 -2.87154 -3.08417 0
M  V30 8661 H 827.322 -1.72688 -2.73789 0
M  V30 8662 H 826.229 -3.51919 -1.26901 0
M  V30 8663 H 827.562 -4.62345 -1.68813 0
M  V30 8664 N 829.214 0.302327 -1.54673 0
M  V30 8665 C 830.491 1.05721 -1.64567 0
M  V30 8666 C 830.871 2.0526 -0.493108 0
M  V30 8667 O 830.219 2.22729 0.510315 0
M  V30 8668 C 830.429 1.74025 -3.02517 0
M  V30 8669 C 831.777 2.26271 -3.59286 0
M  V30 8670 O 832.801 1.8406 -3.0496 0
M  V30 8671 O 831.66 3.0361 -4.54404 0
M  V30 8672 H 828.754 0.488577 -0.667249 0
M  V30 8673 H 831.3 0.300521 -1.67018 0
M  V30 8674 H 830.072 1.0174 -3.77842 0
M  V30 8675 H 829.695 2.56454 -3.03838 0
M  V30 8676 N 830.692 1.47107 0.565454 0
M  V30 8677 C 831.655 1.58535 1.65527 0
M  V30 8678 C 832.655 0.461081 1.54048 0
M  V30 8679 O 833.845 0.725911 1.58355 0
M  V30 8680 C 830.977 1.52204 3.05036 0
M  V30 8681 H 832.17 2.55676 1.56747 0
M  V30 8682 H 829.723 1.35174 0.78471 0
M  V30 8683 H 830.458 0.564071 3.19357 0
M  V30 8684 H 830.243 2.3379 3.14777 0
M  V30 8685 H 831.733 1.63322 3.84338 0
M  V30 8686 N 832.17 -0.811516 1.35101 0
M  V30 8687 C 833.1 -1.9378 1.30275 0
M  V30 8688 C 834.081 -1.69165 0.178075 0
M  V30 8689 O 835.266 -1.90599 0.372256 0
M  V30 8690 C 832.396 -3.30439 1.06899 0
M  V30 8691 C 831.35 -3.69523 2.15955 0
M  V30 8692 C 830.676 -5.0429 1.77751 0
M  V30 8693 C 831.976 -3.80419 3.57881 0
M  V30 8694 H 833.67 -1.98075 2.24514 0
M  V30 8695 H 831.216 -0.951586 1.08078 0
M  V30 8696 H 833.169 -4.08828 1.02164 0
M  V30 8697 H 831.893 -3.26473 0.0910462 0
M  V30 8698 H 830.552 -2.93416 2.19778 0
M  V30 8699 H 830.2 -4.96823 0.785876 0
M  V30 8700 H 829.9 -5.31411 2.5075 0
M  V30 8701 H 831.424 -5.85125 1.74533 0
M  V30 8702 H 832.838 -4.49051 3.56407 0
M  V30 8703 H 831.235 -4.19005 4.29598 0
M  V30 8704 H 832.305 -2.82105 3.94391 0
M  V30 8705 N 833.648 -1.19017 -1.03309 0
M  V30 8706 C 834.596 -0.920627 -2.13605 0
M  V30 8707 C 835.59 0.121969 -1.6896 0
M  V30 8708 O 836.796 -0.0268854 -1.7998 0
M  V30 8709 H 833.171 -0.280284 -0.697814 0
M  V30 8710 H 835.142 -1.85755 -2.33533 0
M  V30 8711 C 833.891 -0.471198 -3.44492 0
M  V30 8712 H 833.214 -1.26499 -3.7926 0
M  V30 8713 H 834.654 -0.321663 -4.22778 0
M  V30 8714 C 833.113 0.81411 -3.26916 0
M  V30 8715 O 833.643 1.87654 -3.55175 0
M  V30 8716 N 831.849 0.769695 -2.80221 0
M  V30 8717 H 831.396 -0.0951278 -2.57424 0
M  V30 8718 H 831.354 1.63008 -2.68842 0
M  V30 8719 N 835.127 1.22348 -0.993418 0
M  V30 8720 C 836.057 2.26584 -0.564088 0
M  V30 8721 C 837.038 1.65102 0.409298 0
M  V30 8722 O 838.223 1.91872 0.299819 0
M  V30 8723 C 835.353 3.47087 0.121554 0
M  V30 8724 C 834.307 4.21009 -0.770429 0
M  V30 8725 C 833.633 5.34678 0.0481586 0
M  V30 8726 C 834.933 4.79636 -2.06752 0
M  V30 8727 H 836.627 2.62749 -1.43538 0
M  V30 8728 H 834.173 1.26303 -0.691628 0
M  V30 8729 H 836.126 4.19166 0.433303 0
M  V30 8730 H 834.85 3.1002 1.0274 0
M  V30 8731 H 833.509 3.50764 -1.06583 0
M  V30 8732 H 833.157 4.93852 0.954933 0
M  V30 8733 H 832.857 5.85061 -0.545641 0
M  V30 8734 H 834.381 6.09573 0.353991 0
M  V30 8735 H 835.795 5.43654 -1.81969 0
M  V30 8736 H 834.192 5.4036 -2.61019 0
M  V30 8737 H 835.262 3.99659 -2.74592 0
M  V30 8738 N 836.605 0.766683 1.37694 0
M  V30 8739 C 837.552 0.147725 2.30327 0
M  V30 8740 C 838.522 -0.695366 1.50844 0
M  V30 8741 O 839.707 -0.64878 1.79431 0
M  V30 8742 C 836.847 -0.72935 3.37305 0
M  V30 8743 C 835.96 0.129795 4.31805 0
M  V30 8744 C 835.095 -0.751511 5.25857 0
M  V30 8745 C 834.134 0.110475 6.12 0
M  V30 8746 N 833.271 -0.728522 6.9831 0
M  V30 8747 H 838.111 0.943204 2.82679 0
M  V30 8748 H 835.648 0.476736 1.3916 0
M  V30 8749 H 837.606 -1.25263 3.97951 0
M  V30 8750 H 836.236 -1.49048 2.86329 0
M  V30 8751 H 835.288 0.770829 3.72508 0
M  V30 8752 H 836.6 0.794923 4.92425 0
M  V30 8753 H 835.754 -1.34146 5.91684 0
M  V30 8754 H 834.493 -1.45034 4.65636 0
M  V30 8755 H 833.498 0.712999 5.45157 0
M  V30 8756 H 834.723 0.806557 6.74293 0
M  V30 8757 H 832.669 -1.41206 6.40622 0
M  V30 8758 H 832.586 -0.12058 7.55904 0
M  V30 8759 H 833.854 -1.30303 7.68532 0
M  V30 8760 N 838.083 -1.48885 0.516809 0
M  V30 8761 C 839.331 -2.02088 -0.0220166 0
M  V30 8762 C 839.652 -1.39735 -1.36011 0
M  V30 8763 O 838.922 -0.558119 -1.87781 0
M  V30 8764 H 837.502 -0.746917 -0.0111255 0
M  V30 8765 H 840.164 -1.8274 0.677647 0
M  V30 8766 H 839.26 -3.11786 -0.140067 0
M  V30 8767 N 839.561 -0.251338 -1.55583 0
M  V30 8768 C 840.491 0.640437 -2.24545 0
M  V30 8769 C 841.472 1.17781 -1.22726 0
M  V30 8770 O 842.657 1.21633 -1.5139 0
M  V30 8771 C 839.787 1.8355 -2.94834 0
M  V30 8772 C 838.741 1.4307 -4.03379 0
M  V30 8773 C 838.067 2.70695 -4.61116 0
M  V30 8774 C 839.367 0.59848 -5.1886 0
M  V30 8775 H 841.061 0.0653772 -2.99329 0
M  V30 8776 H 838.607 0.0300042 -1.43969 0
M  V30 8777 H 840.56 2.46505 -3.4178 0
M  V30 8778 H 839.284 2.43601 -2.17546 0
M  V30 8779 H 837.943 0.824474 -3.57209 0
M  V30 8780 H 837.591 3.28954 -3.80524 0
M  V30 8781 H 837.291 2.44332 -5.34393 0
M  V30 8782 H 838.815 3.34541 -5.10798 0
M  V30 8783 H 840.229 1.13244 -5.62004 0
M  V30 8784 H 838.626 0.430728 -5.98552 0
M  V30 8785 H 839.696 -0.38829 -4.83343 0
M  V30 8786 N 841.039 1.57585 0.0217189 0
M  V30 8787 C 842.287 1.89231 0.709641 0
M  V30 8788 C 842.608 0.849964 1.75501 0
M  V30 8789 O 841.878 -0.115485 1.95559 0
M  V30 8790 H 840.458 0.69838 0.265092 0
M  V30 8791 H 843.12 1.94895 -0.0140688 0
M  V30 8792 H 842.216 2.88333 1.19459 0
M  V30 8793 N 842.517 -0.29412 1.54831 0
M  V30 8794 C 843.467 -1.36476 1.82643 0
M  V30 8795 C 844.451 -1.45638 0.683984 0
M  V30 8796 O 845.643 -1.49675 0.944801 0
M  V30 8797 C 842.772 -2.72865 2.08326 0
M  V30 8798 C 841.858 -2.67898 3.28773 0
M  V30 8799 N 842.249 -2.32547 4.49172 0
M  V30 8800 C 840.547 -2.98991 3.30939 0
M  V30 8801 C 841.248 -2.37048 5.31209 0
M  V30 8802 N 840.224 -2.74679 4.69097 0
M  V30 8803 H 844.026 -1.08119 2.7329 0
M  V30 8804 H 841.54 -0.502718 1.54423 0
M  V30 8805 H 843.537 -3.5007 2.264 0
M  V30 8806 H 842.197 -3.02127 1.1895 0
M  V30 8807 H 843.208 -2.04883 4.7565 0
M  V30 8808 H 839.885 -3.33104 2.51691 0
M  V30 8809 H 841.275 -2.12457 6.37426 0
M  V30 8810 N 843.995 -1.47404 -0.557645 0
M  V30 8811 C 845.244 -1.53268 -1.31118 0
M  V30 8812 C 845.557 -0.199414 -1.94581 0
M  V30 8813 O 846.763 -0.136039 -2.71159 0
M  V30 8814 C 845.219 -2.70178 -2.37764 0
M  V30 8815 C 844.827 -4.10032 -1.80493 0
M  V30 8816 C 846.571 -2.85334 -3.14301 0
M  V30 8817 C 844.478 -5.18244 -2.84916 0
M  V30 8818 H 843.408 -0.570491 -0.493007 0
M  V30 8819 H 846.059 -1.73678 -0.592308 0
M  V30 8820 H 844.441 -2.43147 -3.12563 0
M  V30 8821 H 845.615 -4.46964 -1.12069 0
M  V30 8822 H 843.93 -3.99759 -1.16542 0
M  V30 8823 H 846.527 -3.63347 -3.92279 0
M  V30 8824 H 846.87 -1.93761 -3.68459 0
M  V30 8825 H 847.403 -3.12133 -2.46613 0
M  V30 8826 H 844.142 -6.11691 -2.35614 0
M  V30 8827 H 843.662 -4.85829 -3.51753 0
M  V30 8828 H 845.341 -5.45174 -3.48417 0
M  V30 8829 N 845.473 0.80434 -1.35529 0
M  V30 8830 C 846.421 1.93769 -1.28671 0
M  V30 8831 C 847.415 1.68428 -0.181222 0
M  V30 8832 O 848.621 1.76617 -0.347338 0
M  V30 8833 H 844.996 0.636663 -0.400206 0
M  V30 8834 H 846.967 1.96673 -2.24415 0
M  V30 8835 C 845.716 3.30572 -1.07784 0
M  V30 8836 H 845.039 3.5063 -1.9209 0
M  V30 8837 H 846.479 4.1027 -1.07027 0
M  V30 8838 C 844.938 3.36193 0.218213 0
M  V30 8839 O 845.468 3.82941 1.21323 0
M  V30 8840 N 843.674 2.89455 0.257761 0
M  V30 8841 H 843.221 2.51604 -0.552562 0
M  V30 8842 H 843.179 2.93597 1.12465 0
M  V30 8843 N 846.951 1.19563 1.02676 0
M  V30 8844 C 847.884 0.878638 2.10607 0
M  V30 8845 C 848.862 -0.165176 1.61759 0
M  V30 8846 O 850.046 -0.041014 1.88455 0
M  V30 8847 C 847.173 0.315347 3.37229 0
M  V30 8848 C 846.219 1.33855 4.04951 0
M  V30 8849 S 847.052 2.89982 4.50189 0
M  V30 8850 C 848.208 2.35202 5.80027 0
M  V30 8851 H 848.441 1.79268 2.37171 0
M  V30 8852 H 845.974 1.023 1.15646 0
M  V30 8853 H 847.932 -0.00311911 4.105 0
M  V30 8854 H 846.593 -0.577035 3.08754 0
M  V30 8855 H 845.786 0.893581 4.96015 0
M  V30 8856 H 845.388 1.60397 3.37859 0
M  V30 8857 H 847.68 1.74329 6.54687 0
M  V30 8858 H 848.623 3.24622 6.29306 0
M  V30 8859 H 849.031 1.77702 5.35801 0
M  V30 8860 N 848.429 -1.21819 0.999893 0
M  V30 8861 C 849.362 -2.22635 0.500887 0
M  V30 8862 C 850.34 -1.56459 -0.442636 0
M  V30 8863 O 851.524 -1.84902 -0.366551 0
M  V30 8864 C 848.651 -3.37598 -0.273046 0
M  V30 8865 C 847.697 -4.22006 0.617511 0
M  V30 8866 S 848.53 -4.93583 2.07693 0
M  V30 8867 C 849.686 -6.1198 1.31269 0
M  V30 8868 H 849.919 -2.64618 1.35516 0
M  V30 8869 H 847.452 -1.31606 0.807419 0
M  V30 8870 H 849.41 -4.04251 -0.713515 0
M  V30 8871 H 848.071 -2.94108 -1.10268 0
M  V30 8872 H 847.264 -5.03995 0.0216543 0
M  V30 8873 H 846.866 -3.6052 0.99504 0
M  V30 8874 H 849.158 -6.74979 0.583933 0
M  V30 8875 H 850.101 -6.75991 2.10811 0
M  V30 8876 H 850.509 -5.5847 0.822901 0
M  V30 8877 N 849.908 -0.773975 -1.37286 0
M  V30 8878 C 850.818 -0.162571 -2.34036 0
M  V30 8879 C 851.834 0.677022 -1.60289 0
M  V30 8880 O 853.01 0.596423 -1.92366 0
M  V30 8881 C 850.075 0.70457 -3.39465 0
M  V30 8882 C 849.136 -0.151738 -4.29032 0
M  V30 8883 C 848.369 0.674111 -5.29426 0
M  V30 8884 O 848.592 1.91107 -5.37433 0
M  V30 8885 O 847.526 0.0821398 -6.01844 0
M  V30 8886 H 851.352 -0.962119 -2.88057 0
M  V30 8887 H 848.937 -0.53517 -1.39486 0
M  V30 8888 H 850.819 1.19954 -4.03967 0
M  V30 8889 H 849.494 1.48227 -2.87768 0
M  V30 8890 H 848.401 -0.693118 -3.67623 0
M  V30 8891 H 849.734 -0.892575 -4.84039 0
M  V30 8892 N 851.386 1.48609 -0.524698 0
M  V30 8893 C 852.316 2.32366 0.229837 0
M  V30 8894 C 853.297 1.41759 0.940129 0
M  V30 8895 O 854.482 1.7065 0.926936 0
M  V30 8896 C 851.612 3.22835 1.28043 0
M  V30 8897 C 850.566 4.22424 0.688603 0
M  V30 8898 C 849.892 5.0199 1.84146 0
M  V30 8899 C 851.192 5.21217 -0.336176 0
M  V30 8900 H 852.886 2.95698 -0.469339 0
M  V30 8901 H 850.432 1.42197 -0.227156 0
M  V30 8902 H 852.385 3.80253 1.8162 0
M  V30 8903 H 851.109 2.57492 2.00912 0
M  V30 8904 H 849.768 3.66185 0.174402 0
M  V30 8905 H 849.416 4.33076 2.5584 0
M  V30 8906 H 849.116 5.69392 1.45142 0
M  V30 8907 H 850.64 5.62259 2.38111 0
M  V30 8908 H 852.054 5.7319 0.112307 0
M  V30 8909 H 850.451 5.96642 -0.643324 0
M  V30 8910 H 851.521 4.68676 -1.24381 0
M  V30 8911 N 852.864 0.259585 1.55447 0
M  V30 8912 C 854.111 -0.361607 1.99245 0
M  V30 8913 C 854.439 -1.57017 1.14787 0
M  V30 8914 O 853.694 -1.94658 0.201724 0
M  V30 8915 C 853.993 -0.802727 3.48269 0
M  V30 8916 C 853.659 0.299472 4.49904 0
M  V30 8917 C 852.321 0.602157 4.77418 0
M  V30 8918 C 854.673 1.04295 5.10658 0
M  V30 8919 C 852.001 1.65217 5.62957 0
M  V30 8920 C 854.353 2.08257 5.97337 0
M  V30 8921 C 853.017 2.39177 6.23178 0
M  V30 8922 H 852.287 -0.132322 0.72909 0
M  V30 8923 H 854.934 0.370059 1.8789 0
M  V30 8924 H 853.239 -1.61381 3.5702 0
M  V30 8925 H 854.936 -1.29385 3.79553 0
M  V30 8926 H 851.526 0.0534256 4.28567 0
M  V30 8927 H 855.71 0.822358 4.89439 0
M  V30 8928 H 850.966 1.89692 5.81229 0
M  V30 8929 H 855.14 2.6635 6.43452 0
M  V30 8930 H 852.767 3.20677 6.89253 0
M  V30 8931 N 854.342 -1.57594 -0.0133615 0
M  V30 8932 C 855.567 -1.94649 -0.715996 0
M  V30 8933 C 855.992 -0.860786 -1.67249 0
M  V30 8934 O 855.35 0.182228 -1.80382 0
M  V30 8935 C 855.398 -3.30789 -1.43566 0
M  V30 8936 O 854.502 -3.24148 -2.54955 0
M  V30 8937 H 853.843 -0.635801 -0.191449 0
M  V30 8938 H 856.373 -2.04569 0.0358478 0
M  V30 8939 H 856.383 -3.66045 -1.80208 0
M  V30 8940 H 855.058 -4.09367 -0.734263 0
M  V30 8941 H 853.635 -3.00548 -2.20739 0
M  V30 8942 N 855.82 0.285905 -1.54985 0
M  V30 8943 C 857.069 1.01691 -1.74189 0
M  V30 8944 C 857.382 1.87908 -0.543135 0
M  V30 8945 O 858.588 2.64389 -0.617305 0
M  V30 8946 C 857.044 1.85785 -3.0824 0
M  V30 8947 C 856.652 1.04497 -4.35642 0
M  V30 8948 C 858.396 2.58393 -3.36798 0
M  V30 8949 C 856.303 1.87955 -5.60738 0
M  V30 8950 H 855.233 0.383396 -0.649248 0
M  V30 8951 H 857.884 0.27317 -1.81455 0
M  V30 8952 H 856.266 2.64205 -2.94978 0
M  V30 8953 H 857.44 0.305847 -4.59784 0
M  V30 8954 H 855.755 0.434023 -4.14132 0
M  V30 8955 H 858.352 3.21214 -4.27464 0
M  V30 8956 H 858.695 3.28011 -2.56349 0
M  V30 8957 H 859.228 1.87012 -3.511 0
M  V30 8958 H 855.967 1.22781 -6.43898 0
M  V30 8959 H 855.487 2.59499 -5.40759 0
M  V30 8960 H 857.166 2.45636 -5.98558 0
M  V30 8961 N 857.298 1.47698 0.54982 0
M  V30 8962 C 858.523 1.58579 1.33669 0
M  V30 8963 C 858.948 0.239049 1.86575 0
M  V30 8964 O 858.306 -0.786256 1.63364 0
M  V30 8965 C 858.354 2.62029 2.47736 0
M  V30 8966 O 857.458 2.17813 3.50188 0
M  V30 8967 H 856.799 0.532447 0.396732 0
M  V30 8968 H 859.329 1.93536 0.6637 0
M  V30 8969 H 859.339 2.82682 2.94202 0
M  V30 8970 H 858.014 3.59812 2.08586 0
M  V30 8971 H 856.591 2.07291 3.09976 0
M  V30 8972 N 858.776 -0.797141 1.35954 0
M  V30 8973 C 859.723 -1.90944 1.2965 0
M  V30 8974 C 860.693 -1.65262 0.166628 0
M  V30 8975 O 861.878 -1.87527 0.351883 0
M  V30 8976 C 859.018 -3.27637 1.08389 0
M  V30 8977 C 858.131 -3.65442 2.30382 0
M  V30 8978 C 857.266 -4.91213 2.02195 0
M  V30 8979 C 856.305 -5.21674 3.20191 0
M  V30 8980 N 855.442 -6.38627 2.91719 0
M  V30 8981 H 860.282 -1.95668 2.24762 0
M  V30 8982 H 857.819 -0.95696 1.11717 0
M  V30 8983 H 859.777 -4.06451 0.940912 0
M  V30 8984 H 858.407 -3.22355 0.169351 0
M  V30 8985 H 857.459 -2.81813 2.55511 0
M  V30 8986 H 858.771 -3.83907 3.18461 0
M  V30 8987 H 857.925 -5.77876 1.84783 0
M  V30 8988 H 856.664 -4.74803 1.11416 0
M  V30 8989 H 855.669 -4.33498 3.38171 0
M  V30 8990 H 856.894 -5.40009 4.11786 0
M  V30 8991 H 854.84 -6.23623 2.03543 0
M  V30 8992 H 854.757 -6.57387 3.73334 0
M  V30 8993 H 856.025 -7.28292 2.77868 0
M  V30 8994 N 860.254 -1.20106 -1.0204 0
M  V30 8995 C 861.164 -0.962051 -2.13967 0
M  V30 8996 C 862.18 0.0808053 -1.73812 0
M  V30 8997 O 863.356 -0.105774 -2.01122 0
M  V30 8998 C 860.421 -0.513108 -3.42882 0
M  V30 8999 C 859.482 -1.62636 -3.97301 0
M  V30 9000 C 858.715 -1.19875 -5.20063 0
M  V30 9001 O 858.938 -0.0658423 -5.70362 0
M  V30 9002 O 857.872 -2.00467 -5.67536 0
M  V30 9003 H 861.698 -1.8991 -2.36998 0
M  V30 9004 H 859.283 -0.984608 -1.12365 0
M  V30 9005 H 861.165 -0.271797 -4.20523 0
M  V30 9006 H 859.84 0.395402 -3.21276 0
M  V30 9007 H 858.747 -1.92192 -3.20957 0
M  V30 9008 H 860.08 -2.51174 -4.23288 0
M  V30 9009 N 861.732 1.21287 -1.00634 0
M  V30 9010 C 862.979 1.90389 -0.6898 0
M  V30 9011 C 863.307 1.78193 0.779574 0
M  V30 9012 O 862.562 1.15358 1.58085 0
M  V30 9013 C 862.861 3.41374 -1.05824 0
M  V30 9014 C 862.527 3.73766 -2.5221 0
M  V30 9015 C 861.189 3.82317 -2.92211 0
M  V30 9016 C 863.541 3.88871 -3.47028 0
M  V30 9017 C 860.869 4.03423 -4.2599 0
M  V30 9018 C 863.221 4.11484 -4.80483 0
M  V30 9019 C 861.885 4.18263 -5.20204 0
M  V30 9020 H 861.155 0.696683 -0.252416 0
M  V30 9021 H 863.802 1.43769 -1.26502 0
M  V30 9022 H 862.107 3.8974 -0.401281 0
M  V30 9023 H 863.804 3.93118 -0.79116 0
M  V30 9024 H 860.394 3.67702 -2.20212 0
M  V30 9025 H 864.578 3.8163 -3.17289 0
M  V30 9026 H 859.834 4.06902 -4.56334 0
M  V30 9027 H 864.008 4.22115 -5.53888 0
M  V30 9028 H 861.635 4.34369 -6.23881 0
M  V30 9029 N 863.21 0.781244 1.36873 0
M  V30 9030 C 864.456 0.359455 2.00199 0
M  V30 9031 C 864.811 -1.05495 1.60899 0
M  V30 9032 O 864.104 -1.7173 0.849664 0
M  V30 9033 C 864.298 0.45146 3.54537 0
M  V30 9034 C 864.127 1.87326 4.08826 0
M  V30 9035 C 862.897 2.49606 4.39346 0
M  V30 9036 C 865.095 2.8342 4.29159 0
M  V30 9037 N 863.077 3.8346 4.79408 0
M  V30 9038 C 864.448 4.02091 4.71935 0
M  V30 9039 C 866.503 2.80583 4.11312 0
M  V30 9040 C 865.206 5.18322 4.98733 0
M  V30 9041 C 867.232 3.95995 4.39251 0
M  V30 9042 C 866.594 5.13409 4.82276 0
M  V30 9043 H 862.693 0.178778 0.76129 0
M  V30 9044 H 865.277 1.0171 1.66022 0
M  V30 9045 H 863.448 -0.176055 3.88001 0
M  V30 9046 H 865.18 0.00670219 4.04699 0
M  V30 9047 H 861.935 2.01149 4.28761 0
M  V30 9048 H 862.359 4.52306 5.03735 0
M  V30 9049 H 867.001 1.90974 3.77212 0
M  V30 9050 H 864.719 6.08524 5.31718 0
M  V30 9051 H 868.305 3.95152 4.2702 0
M  V30 9052 H 867.185 6.01232 5.03478 0
M  V30 9053 N 864.689 -1.48329 0.532571 0
M  V30 9054 C 865.599 -2.33445 -0.232546 0
M  V30 9055 C 866.615 -1.46651 -0.93645 0
M  V30 9056 O 867.791 -1.79627 -0.910834 0
M  V30 9057 C 864.856 -3.22824 -1.26434 0
M  V30 9058 C 863.917 -4.25492 -0.570511 0
M  V30 9059 C 863.15 -5.10601 -1.55315 0
M  V30 9060 O 863.373 -4.97733 -2.78599 0
M  V30 9061 O 862.307 -5.91927 -1.09112 0
M  V30 9062 H 866.133 -3.00119 0.464988 0
M  V30 9063 H 863.718 -1.46489 0.293462 0
M  V30 9064 H 865.6 -3.78103 -1.86055 0
M  V30 9065 H 864.275 -2.58807 -1.94424 0
M  V30 9066 H 863.182 -3.74041 0.0662587 0
M  V30 9067 H 864.515 -4.92154 0.0674904 0
M  V30 9068 N 866.167 -0.267825 -1.55308 0
M  V30 9069 C 867.114 0.6228 -2.22238 0
M  V30 9070 C 868.084 1.15536 -1.19334 0
M  V30 9071 O 869.269 1.206 -1.47852 0
M  V30 9072 C 866.409 1.80447 -2.94164 0
M  V30 9073 C 865.522 1.30646 -4.11771 0
M  V30 9074 C 864.657 2.44935 -4.7136 0
M  V30 9075 C 863.696 1.92099 -5.81175 0
M  V30 9076 N 862.833 2.99834 -6.34857 0
M  V30 9077 H 867.673 0.0453874 -2.97965 0
M  V30 9078 H 865.21 0.0106371 -1.47096 0
M  V30 9079 H 867.168 2.49896 -3.34078 0
M  V30 9080 H 865.798 2.35403 -2.20874 0
M  V30 9081 H 864.85 0.505314 -3.77029 0
M  V30 9082 H 866.162 0.879409 -4.90987 0
M  V30 9083 H 865.316 3.2239 -5.13955 0
M  V30 9084 H 864.055 2.90951 -3.91406 0
M  V30 9085 H 863.06 1.13122 -5.38037 0
M  V30 9086 H 864.285 1.47027 -6.62993 0
M  V30 9087 H 862.231 3.45246 -5.578 0
M  V30 9088 H 862.148 2.61524 -7.09324 0
M  V30 9089 H 863.416 3.77286 -6.82111 0
M  V30 9090 N 867.645 1.57599 0.00500368 0
M  V30 9091 C 868.555 2.11532 1.01446 0
M  V30 9092 C 869.571 1.05941 1.3803 0
M  V30 9093 O 870.747 1.37815 1.46864 0
M  V30 9094 C 867.812 2.60382 2.28915 0
M  V30 9095 C 866.873 3.80554 1.98689 0
M  V30 9096 C 866.106 4.27064 3.20081 0
M  V30 9097 O 866.329 3.72939 4.31593 0
M  V30 9098 O 865.263 5.1927 3.04371 0
M  V30 9099 H 869.089 2.97993 0.586011 0
M  V30 9100 H 866.674 1.47718 0.223519 0
M  V30 9101 H 868.556 2.92024 3.03809 0
M  V30 9102 H 867.231 1.77022 2.71007 0
M  V30 9103 H 866.138 3.53893 1.21286 0
M  V30 9104 H 867.471 4.64972 1.61437 0
M  V30 9105 N 869.123 -0.277682 1.55134 0
M  V30 9106 C 870.369 -1.0114 1.7578 0
M  V30 9107 C 870.702 -1.86109 0.554719 0
M  V30 9108 O 869.977 -1.89275 -0.447813 0
M  V30 9109 C 870.26 -1.89789 3.06027 0
M  V30 9110 C 870.113 -1.07844 4.3668 0
M  V30 9111 C 871.432 -2.88577 3.32282 0
M  V30 9112 H 868.551 -0.366277 0.639539 0
M  V30 9113 H 871.193 -0.284155 1.87863 0
M  V30 9114 H 869.343 -2.51796 2.95856 0
M  V30 9115 H 871.015 -0.479432 4.58802 0
M  V30 9116 H 869.258 -0.381764 4.32117 0
M  V30 9117 H 869.929 -1.73179 5.24131 0
M  V30 9118 H 872.405 -2.36702 3.42215 0
M  V30 9119 H 871.281 -3.47749 4.2469 0
M  V30 9120 H 871.542 -3.63458 2.51696 0
M  V30 9121 N 870.601 -1.47988 -0.541979 0
M  V30 9122 C 871.511 -1.64276 -1.67483 0
M  V30 9123 C 872.527 -0.525387 -1.65879 0
M  V30 9124 O 873.703 -0.794912 -1.85049 0
M  V30 9125 C 870.768 -1.66744 -3.03969 0
M  V30 9126 C 869.829 -2.90021 -3.16522 0
M  V30 9127 C 869.062 -2.92362 -4.46498 0
M  V30 9128 O 869.285 -2.03462 -5.32878 0
M  V30 9129 O 868.219 -3.84399 -4.63164 0
M  V30 9130 H 872.045 -2.60164 -1.5668 0
M  V30 9131 H 869.63 -1.31249 -0.71372 0
M  V30 9132 H 871.512 -1.70958 -3.85164 0
M  V30 9133 H 870.187 -0.740277 -3.15122 0
M  V30 9134 H 869.094 -2.91345 -2.34667 0
M  V30 9135 H 870.427 -3.82082 -3.10281 0
M  V30 9136 N 872.079 0.78992 -1.36375 0
M  V30 9137 C 873.356 1.53584 -1.21126 0
M  V30 9138 C 873.736 2.10124 0.202785 0
M  V30 9139 O 873.084 1.93936 1.20835 0
M  V30 9140 C 873.294 2.63117 -2.29282 0
M  V30 9141 C 874.642 3.31013 -2.65924 0
M  V30 9142 O 875.666 2.734 -2.28321 0
M  V30 9143 O 874.525 4.35129 -3.30643 0
M  V30 9144 H 871.619 0.679366 -0.471583 0
M  V30 9145 H 874.165 0.828446 -1.48104 0
M  V30 9146 H 872.937 2.19329 -3.24053 0
M  V30 9147 H 872.56 3.41476 -2.03666 0
M  V30 9148 N 873.557 1.20646 1.01402 0
M  V30 9149 C 874.806 1.01242 1.7445 0
M  V30 9150 C 875.119 -0.455732 1.90217 0
M  V30 9151 O 876.325 -0.768951 2.60383 0
M  V30 9152 C 874.781 1.76275 3.13776 0
M  V30 9153 C 874.389 3.27201 3.06013 0
M  V30 9154 C 876.133 1.65248 3.91016 0
M  V30 9155 C 874.04 3.9476 4.40362 0
M  V30 9156 H 872.97 0.375202 0.654018 0
M  V30 9157 H 875.621 1.44292 1.13367 0
M  V30 9158 H 874.003 1.26013 3.75415 0
M  V30 9159 H 875.177 3.84695 2.53665 0
M  V30 9160 H 873.492 3.38669 2.42265 0
M  V30 9161 H 876.089 2.13061 4.90417 0
M  V30 9162 H 876.432 0.609128 4.1182 0
M  V30 9163 H 876.965 2.12937 3.3601 0
M  V30 9164 H 873.704 4.99258 4.24761 0
M  V30 9165 H 873.224 3.42054 4.92706 0
M  V30 9166 H 874.903 3.99159 5.09196 0
M  V30 9167 N 875.035 -1.20752 1.01276 0
M  V30 9168 C 875.945 -2.27079 0.589277 0
M  V30 9169 C 876.961 -1.6999 -0.371389 0
M  V30 9170 O 878.137 -2.00044 -0.233294 0
M  V30 9171 C 875.202 -3.4663 -0.0696715 0
M  V30 9172 C 874.263 -4.18962 0.936454 0
M  V30 9173 C 873.496 -5.32806 0.308856 0
M  V30 9174 O 873.719 -5.63376 -0.8924 0
M  V30 9175 O 872.653 -5.93131 1.02367 0
M  V30 9176 H 876.479 -2.6551 1.47438 0
M  V30 9177 H 874.064 -1.27297 0.782045 0
M  V30 9178 H 875.946 -4.19119 -0.437873 0
M  V30 9179 H 874.621 -3.10082 -0.929029 0
M  V30 9180 H 873.528 -3.48661 1.35595 0
M  V30 9181 H 874.861 -4.59441 1.76565 0
M  V30 9182 N 876.513 -0.788492 -1.36457 0
M  V30 9183 C 877.46 -0.18435 -2.30063 0
M  V30 9184 C 878.43 0.67128 -1.51931 0
M  V30 9185 O 879.615 0.620152 -1.8044 0
M  V30 9186 C 876.755 0.675596 -3.38422 0
M  V30 9187 C 875.868 -0.198475 -4.31544 0
M  V30 9188 C 875.003 0.667757 -5.26986 0
M  V30 9189 C 874.042 -0.207825 -6.11747 0
M  V30 9190 N 873.179 0.617335 -6.99381 0
M  V30 9191 H 878.019 -0.988056 -2.81143 0
M  V30 9192 H 875.556 -0.498815 -1.38384 0
M  V30 9193 H 877.514 1.18916 -3.99894 0
M  V30 9194 H 876.144 1.44474 -2.88664 0
M  V30 9195 H 875.196 -0.829995 -3.71235 0
M  V30 9196 H 876.508 -0.873163 -4.91098 0
M  V30 9197 H 875.662 1.24716 -5.93743 0
M  V30 9198 H 874.401 1.37607 -4.67884 0
M  V30 9199 H 873.406 -0.799638 -5.43954 0
M  V30 9200 H 874.631 -0.913729 -6.72925 0
M  V30 9201 H 872.577 1.30996 -6.42788 0
M  V30 9202 H 872.494 0.000307255 -7.56 0
M  V30 9203 H 873.762 1.1806 -7.70508 0
M  V30 9204 N 877.991 1.48044 -0.54043 0
M  V30 9205 C 879.221 2.06595 -0.0144943 0
M  V30 9206 C 879.629 1.39593 1.27713 0
M  V30 9207 O 878.972 0.480794 1.77297 0
M  V30 9208 C 879.034 3.5849 0.269316 0
M  V30 9209 C 878.698 4.47429 -0.930372 0
M  V30 9210 C 879.695 4.8657 -1.83155 0
M  V30 9211 C 877.38 4.89185 -1.14032 0
M  V30 9212 C 879.374 5.66246 -2.92649 0
M  V30 9213 C 877.061 5.6863 -2.23838 0
M  V30 9214 C 878.059 6.07069 -3.12979 0
M  V30 9215 O 877.747 6.84917 -4.20884 0
M  V30 9216 H 877.479 0.675086 -0.0351467 0
M  V30 9217 H 880.033 1.91275 -0.74853 0
M  V30 9218 H 878.263 3.71961 1.05745 0
M  V30 9219 H 879.952 3.99124 0.738595 0
M  V30 9220 H 880.718 4.54924 -1.68134 0
M  V30 9221 H 876.597 4.58742 -0.455717 0
M  V30 9222 H 880.141 5.96169 -3.62254 0
M  V30 9223 H 876.038 5.99688 -2.38839 0
M  V30 9224 H 876.806 7.03287 -4.18723 0
M  V30 9225 N 879.47 0.276058 1.55163 0
M  V30 9226 C 880.4 -0.604633 2.25536 0
M  V30 9227 C 881.381 -1.15813 1.24585 0
M  V30 9228 O 882.566 -1.1921 1.53306 0
M  V30 9229 C 879.696 -1.78836 2.97716 0
M  V30 9230 C 878.65 -1.36635 4.05604 0
M  V30 9231 C 877.976 -2.63325 4.65364 0
M  V30 9232 C 879.276 -0.515858 5.19746 0
M  V30 9233 H 880.97 -0.0177483 2.99395 0
M  V30 9234 H 878.516 -0.00709627 1.43998 0
M  V30 9235 H 880.469 -2.41036 3.45658 0
M  V30 9236 H 879.193 -2.40109 2.21394 0
M  V30 9237 H 877.852 -0.767541 3.58475 0
M  V30 9238 H 877.5 -3.22858 3.85709 0
M  V30 9239 H 877.2 -2.358 5.38212 0
M  V30 9240 H 878.724 -3.26372 5.16056 0
M  V30 9241 H 880.138 -1.04289 5.63735 0
M  V30 9242 H 878.535 -0.335449 5.99162 0
M  V30 9243 H 879.605 0.465137 4.82664 0
M  V30 9244 N 880.948 -1.576 0.00335426 0
M  V30 9245 C 881.858 -2.12067 -1.00322 0
M  V30 9246 C 882.874 -1.06672 -1.37467 0
M  V30 9247 O 884.05 -1.38592 -1.46131 0
M  V30 9248 C 881.115 -2.61593 -2.27531 0
M  V30 9249 C 880.176 -3.81602 -1.96668 0
M  V30 9250 C 879.409 -4.28756 -3.17811 0
M  V30 9251 O 879.632 -3.75222 -4.2961 0
M  V30 9252 O 878.566 -5.20877 -3.01613 0
M  V30 9253 H 882.392 -2.98299 -0.570199 0
M  V30 9254 H 879.977 -1.47835 -0.215682 0
M  V30 9255 H 881.859 -2.93631 -3.02256 0
M  V30 9256 H 880.534 -1.78457 -2.70065 0
M  V30 9257 H 879.441 -3.54531 -1.19408 0
M  V30 9258 H 880.774 -4.65822 -1.58968 0
M  V30 9259 N 882.426 0.269451 -1.5528 0
M  V30 9260 C 883.703 1.02207 -1.66773 0
M  V30 9261 C 884.083 2.04168 -0.536536 0
M  V30 9262 O 883.431 2.23761 0.462956 0
M  V30 9263 C 883.641 1.67569 -3.0614 0
M  V30 9264 C 884.989 2.18599 -3.64005 0
M  V30 9265 O 886.013 1.7755 -3.08795 0
M  V30 9266 O 884.872 2.93903 -4.60742 0
M  V30 9267 H 881.966 0.474314 -0.677462 0
M  V30 9268 H 884.512 0.265026 -1.67618 0
M  V30 9269 H 883.284 0.937029 -3.79915 0
M  V30 9270 H 882.907 2.49951 -3.09209 0
M  V30 9271 N 883.904 1.48273 0.534124 0
M  V30 9272 C 884.836 1.5857 1.65494 0
M  V30 9273 C 885.849 0.470266 1.5586 0
M  V30 9274 O 887.038 0.740928 1.62396 0
M  V30 9275 C 884.138 1.49554 3.04117 0
M  V30 9276 C 883.311 2.76066 3.39273 0
M  V30 9277 C 882.37 2.60562 4.57159 0
M  V30 9278 O 881.396 3.34438 4.60587 0
M  V30 9279 N 882.598 1.69906 5.55079 0
M  V30 9280 H 885.363 2.55226 1.57099 0
M  V30 9281 H 882.924 1.44944 0.721303 0
M  V30 9282 H 884.916 1.36882 3.80848 0
M  V30 9283 H 883.486 0.608895 3.06613 0
M  V30 9284 H 882.706 3.03332 2.51761 0
M  V30 9285 H 883.994 3.60006 3.59546 0
M  V30 9286 H 883.392 1.09079 5.55084 0
M  V30 9287 H 881.949 1.63175 6.31044 0
M  V30 9288 N 885.382 -0.782676 1.36792 0
M  V30 9289 C 886.628 -1.54311 1.3159 0
M  V30 9290 C 886.961 -1.93928 -0.102696 0
M  V30 9291 O 886.236 -1.63233 -1.05761 0
M  V30 9292 C 886.519 -2.81561 2.24489 0
M  V30 9293 C 886.372 -2.48268 3.75078 0
M  V30 9294 C 887.691 -3.83428 2.16034 0
M  V30 9295 H 884.81 -0.559828 0.479335 0
M  V30 9296 H 887.452 -0.898717 1.67401 0
M  V30 9297 H 885.602 -3.36549 1.9408 0
M  V30 9298 H 887.274 -1.99279 4.16036 0
M  V30 9299 H 885.517 -1.81116 3.94182 0
M  V30 9300 H 886.188 -3.39183 4.35499 0
M  V30 9301 H 888.664 -3.37905 2.42815 0
M  V30 9302 H 887.54 -4.70204 2.83194 0
M  V30 9303 H 887.801 -4.26887 1.14976 0
M  V30 9304 N 886.86 -1.21182 -1.00761 0
M  V30 9305 C 887.808 -0.965728 -2.11604 0
M  V30 9306 C 888.802 0.0861028 -1.69181 0
M  V30 9307 O 890.008 -0.0650558 -1.79882 0
M  V30 9308 H 886.383 -0.295023 -0.691712 0
M  V30 9309 H 888.354 -1.90667 -2.2954 0
M  V30 9310 C 887.103 -0.544164 -3.43415 0
M  V30 9311 H 886.426 -1.34515 -3.76491 0
M  V30 9312 H 887.866 -0.411268 -4.22001 0
M  V30 9313 C 886.325 0.744583 -3.28569 0
M  V30 9314 O 886.855 1.80078 -3.59075 0
M  V30 9315 N 885.061 0.710083 -2.81791 0
M  V30 9316 H 884.608 -0.14971 -2.57165 0
M  V30 9317 H 884.566 1.57268 -2.72239 0
M  V30 9318 N 888.338 1.20213 -1.01915 0
M  V30 9319 C 889.301 2.21307 -0.596327 0
M  V30 9320 C 890.301 1.57274 0.334879 0
M  V30 9321 O 891.491 1.73764 0.12322 0
M  V30 9322 C 888.623 3.40657 0.128808 0
M  V30 9323 H 889.816 2.60228 -1.49068 0
M  V30 9324 H 887.369 1.33721 -0.809226 0
M  V30 9325 H 888.104 3.07241 1.03796 0
M  V30 9326 H 887.889 3.88361 -0.540183 0
M  V30 9327 H 889.379 4.15564 0.411892 0
M  V30 9328 N 889.816 0.795718 1.36037 0
M  V30 9329 C 891.093 0.294743 1.93367 0
M  V30 9330 C 891.473 -1.21406 1.72696 0
M  V30 9331 O 890.821 -2.00849 1.08959 0
M  V30 9332 C 891.031 0.694254 3.42025 0
M  V30 9333 C 892.379 0.677566 4.19159 0
M  V30 9334 O 893.403 0.635119 3.50492 0
M  V30 9335 O 892.262 0.726127 5.41655 0
M  V30 9336 H 889.356 0.0745459 0.823633 0
M  V30 9337 H 891.902 0.878685 1.4518 0
M  V30 9338 H 890.674 1.73458 3.50753 0
M  V30 9339 H 890.297 0.0845338 3.9751 0
M  V30 9340 N 891.294 -1.47756 0.548274 0
M  V30 9341 C 892.224 -2.32702 -0.19284 0
M  V30 9342 C 893.205 -1.43237 -0.917457 0
M  V30 9343 O 894.39 -1.72103 -0.89967 0
M  V30 9344 C 891.52 -3.24831 -1.22891 0
M  V30 9345 C 890.474 -4.23466 -0.621312 0
M  V30 9346 C 889.8 -5.04856 -1.76137 0
M  V30 9347 C 891.1 -5.20616 0.419055 0
M  V30 9348 H 892.794 -2.94914 0.516323 0
M  V30 9349 H 890.34 -1.41818 0.24975 0
M  V30 9350 H 892.293 -3.83094 -1.75547 0
M  V30 9351 H 891.017 -2.60656 -1.9679 0
M  V30 9352 H 889.676 -3.66416 -0.116123 0
M  V30 9353 H 889.324 -4.37091 -2.48918 0
M  V30 9354 H 889.024 -5.71629 -1.36065 0
M  V30 9355 H 890.548 -5.65976 -2.29136 0
M  V30 9356 H 891.962 -5.73296 -0.0211034 0
M  V30 9357 H 890.359 -5.95543 0.738163 0
M  V30 9358 H 891.429 -4.66638 1.31822 0
M  V30 9359 N 892.772 -0.284283 -1.55015 0
M  V30 9360 C 894.183 0.211681 -1.85496 0
M  V30 9361 C 894.534 1.54735 -1.2063 0
M  V30 9362 O 893.659 2.10594 -0.497918 0
M  V30 9363 C 894.254 0.390864 -3.36538 0
M  V30 9364 C 892.813 0.831055 -3.67111 0
M  V30 9365 C 891.96 -0.0703581 -2.77211 0
M  V30 9366 H 894.911 -0.505803 -1.50424 0
M  V30 9367 H 894.932 1.22803 -3.60138 0
M  V30 9368 H 894.444 -0.581409 -3.8372 0
M  V30 9369 H 892.545 1.81447 -3.25434 0
M  V30 9370 H 892.658 0.662026 -4.74504 0
M  V30 9371 H 891.022 0.447528 -2.50737 0
M  V30 9372 H 891.805 -1.03868 -3.2721 0
M  V30 9373 N 894.251 1.57596 -0.0117121 0
M  V30 9374 C 895.491 1.92932 0.675031 0
M  V30 9375 C 895.855 0.887004 1.70283 0
M  V30 9376 O 897.056 1.12599 2.4408 0
M  V30 9377 C 895.327 3.3327 1.29098 0
M  V30 9378 S 896.886 3.90509 2.00121 0
M  V30 9379 H 893.704 0.675226 0.22269 0
M  V30 9380 H 896.306 1.9537 -0.071208 0
M  V30 9381 H 895.01 4.0696 0.530262 0
M  V30 9382 H 894.541 3.34233 2.0749 0
M  V30 9383 H 896.556 3.72532 3.27771 0
M  V30 9384 N 895.729 -0.261212 1.5542 0
M  V30 9385 C 896.639 -1.34493 1.92221 0
M  V30 9386 C 897.655 -1.53421 0.82086 0
M  V30 9387 O 898.831 -1.6732 1.12099 0
M  V30 9388 C 895.896 -2.68209 2.19692 0
M  V30 9389 C 894.957 -2.57927 3.43179 0
M  V30 9390 C 894.19 -3.85266 3.69331 0
M  V30 9391 O 894.413 -4.86493 2.97793 0
M  V30 9392 O 893.347 -3.8476 4.62865 0
M  V30 9393 H 897.173 -1.06278 2.84497 0
M  V30 9394 H 894.758 -0.460752 1.42118 0
M  V30 9395 H 896.64 -3.47252 2.38734 0
M  V30 9396 H 895.315 -2.96186 1.30597 0
M  V30 9397 H 894.222 -1.77219 3.2946 0
M  V30 9398 H 895.555 -2.34898 4.32532 0
M  V30 9399 N 897.207 -1.48554 -0.526253 0
M  V30 9400 C 898.456 -1.56014 -1.27837 0
M  V30 9401 C 898.769 -0.240643 -1.94114 0
M  V30 9402 O 899.975 -0.193525 -2.70809 0
M  V30 9403 C 898.431 -2.75161 -2.31979 0
M  V30 9404 C 898.039 -4.13768 -1.71755 0
M  V30 9405 C 899.783 -2.91936 -3.08178 0
M  V30 9406 C 897.69 -5.24171 -2.7386 0
M  V30 9407 H 896.62 -0.58082 -0.480795 0
M  V30 9408 H 899.271 -1.74895 -0.555335 0
M  V30 9409 H 897.653 -2.49722 -3.07335 0
M  V30 9410 H 898.827 -4.49241 -1.02563 0
M  V30 9411 H 897.142 -4.02141 -1.08036 0
M  V30 9412 H 899.739 -3.71586 -3.84484 0
M  V30 9413 H 900.082 -2.01533 -3.64267 0
M  V30 9414 H 900.615 -3.17294 -2.39937 0
M  V30 9415 H 897.354 -6.16552 -2.22586 0
M  V30 9416 H 896.874 -4.93181 -3.41368 0
M  V30 9417 H 898.553 -5.52442 -3.36774 0
M  V30 9418 N 898.685 0.775411 -1.37205 0
M  V30 9419 C 899.595 1.91967 -1.34855 0
M  V30 9420 C 900.611 1.72214 -0.248656 0
M  V30 9421 O 901.787 1.95512 -0.483421 0
M  V30 9422 C 898.852 3.27038 -1.15096 0
M  V30 9423 C 897.913 3.5947 -2.34691 0
M  V30 9424 C 897.146 4.88097 -2.15865 0
M  V30 9425 O 897.369 5.58871 -1.14102 0
M  V30 9426 O 896.303 5.19507 -3.03967 0
M  V30 9427 H 900.129 1.969 -2.31223 0
M  V30 9428 H 897.714 0.917647 -1.17897 0
M  V30 9429 H 899.596 4.07837 -1.0605 0
M  V30 9430 H 898.271 3.22965 -0.217999 0
M  V30 9431 H 897.178 2.7892 -2.49308 0
M  V30 9432 H 898.511 3.68282 -3.26541 0
M  V30 9433 N 900.163 1.21714 1.00117 0
M  V30 9434 C 901.579 0.97532 1.26332 0
M  V30 9435 C 901.779 -0.336029 1.98678 0
M  V30 9436 O 900.835 -1.06073 2.29139 0
M  V30 9437 C 902.148 2.16848 2.0832 0
M  V30 9438 C 903.696 2.21115 2.21533 0
M  V30 9439 C 904.171 3.3996 3.06906 0
M  V30 9440 N 905.662 3.40071 3.14494 0
M  V30 9441 C 906.397 4.28678 3.80818 0
M  V30 9442 N 905.893 5.2749 4.49139 0
M  V30 9443 N 907.686 4.16476 3.77497 0
M  V30 9444 H 899.837 2.06039 0.515897 0
M  V30 9445 H 902.1 0.902423 0.290408 0
M  V30 9446 H 901.806 3.119 1.62515 0
M  V30 9447 H 901.68 2.16226 3.09073 0
M  V30 9448 H 904.067 1.26616 2.66557 0
M  V30 9449 H 904.148 2.2578 1.20238 0
M  V30 9450 H 903.792 4.34755 2.62585 0
M  V30 9451 H 903.722 3.32534 4.08324 0
M  V30 9452 H 906.213 2.68563 2.65861 0
M  V30 9453 H 906.526 5.91397 4.97463 0
M  V30 9454 H 904.871 5.31412 4.47914 0
M  V30 9455 H 908.062 3.38539 3.23278 0
M  V30 9456 H 908.235 4.85739 4.28908 0
M  V30 9457 N 901.641 -1.19671 1.02551 0
M  V30 9458 C 902.551 -2.26441 0.613329 0
M  V30 9459 C 903.567 -1.70375 -0.353339 0
M  V30 9460 O 904.743 -2.0028 -0.212064 0
M  V30 9461 C 901.808 -3.46684 -0.0329028 0
M  V30 9462 C 900.869 -4.17945 0.980837 0
M  V30 9463 C 900.102 -5.32448 0.36535 0
M  V30 9464 O 900.325 -5.64291 -0.832596 0
M  V30 9465 O 899.259 -5.92012 1.08652 0
M  V30 9466 H 903.085 -2.63932 1.50246 0
M  V30 9467 H 900.67 -1.2646 0.795502 0
M  V30 9468 H 902.552 -4.1956 -0.393395 0
M  V30 9469 H 901.227 -3.1105 -0.896089 0
M  V30 9470 H 900.134 -3.47204 1.39286 0
M  V30 9471 H 901.467 -4.57542 1.81428 0
M  V30 9472 N 903.119 -0.802921 -1.35613 0
M  V30 9473 C 904.368 -0.378087 -1.98125 0
M  V30 9474 C 904.681 1.05953 -1.64418 0
M  V30 9475 O 905.887 1.58729 -2.20266 0
M  V30 9476 C 904.343 -0.625077 -3.5443 0
M  V30 9477 C 903.951 -2.07499 -3.97049 0
M  V30 9478 C 905.695 -0.265419 -4.23669 0
M  V30 9479 C 903.602 -2.26793 -5.46186 0
M  V30 9480 H 902.532 -0.137633 -0.741332 0
M  V30 9481 H 905.183 -0.986461 -1.54729 0
M  V30 9482 H 903.565 0.0531975 -3.95964 0
M  V30 9483 H 904.739 -2.79077 -3.66678 0
M  V30 9484 H 903.054 -2.39417 -3.40688 0
M  V30 9485 H 905.651 -0.387669 -5.33293 0
M  V30 9486 H 905.994 0.787994 -4.08774 0
M  V30 9487 H 906.527 -0.897464 -3.87544 0
M  V30 9488 H 903.266 -3.30566 -5.66045 0
M  V30 9489 H 902.786 -1.59735 -5.78139 0
M  V30 9490 H 904.465 -2.08165 -6.12598 0
M  V30 9491 N 904.597 1.47463 -0.556102 0
M  V30 9492 C 905.527 2.32801 0.180497 0
M  V30 9493 C 906.508 1.43721 0.909848 0
M  V30 9494 O 907.693 1.72578 0.89053 0
M  V30 9495 C 904.823 3.25478 1.21167 0
M  V30 9496 C 903.777 4.2379 0.598846 0
M  V30 9497 C 903.103 5.05783 1.73457 0
M  V30 9498 C 904.403 5.20387 -0.446659 0
M  V30 9499 H 906.097 2.94636 -0.531956 0
M  V30 9500 H 903.643 1.41683 -0.257267 0
M  V30 9501 H 905.596 3.8402 1.73513 0
M  V30 9502 H 904.32 2.61695 1.95405 0
M  V30 9503 H 902.979 3.66472 0.0966897 0
M  V30 9504 H 902.627 4.38405 2.46596 0
M  V30 9505 H 902.327 5.72343 1.33031 0
M  V30 9506 H 903.851 5.67183 2.26131 0
M  V30 9507 H 905.265 5.73299 -0.00930019 0
M  V30 9508 H 903.662 5.95143 -0.769735 0
M  V30 9509 H 904.732 4.65932 -1.34295 0
M  V30 9510 N 906.075 0.2925 1.54862 0
M  V30 9511 C 907.038 -0.574423 2.21885 0
M  V30 9512 C 908.038 -1.06791 1.20218 0
M  V30 9513 O 909.228 -0.9653 1.45009 0
M  V30 9514 C 906.36 -1.79438 2.89853 0
M  V30 9515 H 907.553 0.0110319 2.99898 0
M  V30 9516 H 905.106 0.043256 1.5624 0
M  V30 9517 H 905.841 -2.4199 2.15897 0
M  V30 9518 H 905.626 -1.44827 3.64373 0
M  V30 9519 H 907.116 -2.41048 3.41007 0
M  V30 9520 N 907.553 -1.57587 0.0200696 0
M  V30 9521 C 908.483 -2.12702 -0.963333 0
M  V30 9522 C 909.464 -1.04094 -1.34531 0
M  V30 9523 O 910.649 -1.31881 -1.42552 0
M  V30 9524 C 907.779 -2.64673 -2.24868 0
M  V30 9525 C 906.733 -3.77987 -2.00772 0
M  V30 9526 C 906.059 -4.16351 -3.35494 0
M  V30 9527 C 907.359 -5.0444 -1.35416 0
M  V30 9528 H 909.053 -2.95121 -0.504363 0
M  V30 9529 H 906.599 -1.41966 -0.24116 0
M  V30 9530 H 908.552 -3.01862 -2.94036 0
M  V30 9531 H 907.276 -1.79403 -2.72914 0
M  V30 9532 H 905.935 -3.41223 -1.34025 0
M  V30 9533 H 905.583 -3.28075 -3.81282 0
M  V30 9534 H 905.283 -4.92705 -3.20181 0
M  V30 9535 H 906.807 -4.56115 -4.05945 0
M  V30 9536 H 908.221 -5.39273 -1.94571 0
M  V30 9537 H 906.618 -5.85732 -1.30529 0
M  V30 9538 H 907.688 -4.83803 -0.325923 0
M  V30 9539 N 909.032 0.252966 -1.55557 0
M  V30 9540 C 909.979 1.3131 -1.89806 0
M  V30 9541 C 910.949 1.48121 -0.751633 0
M  V30 9542 O 912.134 1.62202 -1.00474 0
M  V30 9543 C 909.274 2.66467 -2.19293 0
M  V30 9544 C 908.387 2.57714 -3.46709 0
M  V30 9545 C 907.522 3.85184 -3.65796 0
M  V30 9546 C 906.561 3.71023 -4.86835 0
M  V30 9547 N 905.698 4.90371 -5.02474 0
M  V30 9548 H 910.538 1.01402 -2.80217 0
M  V30 9549 H 908.075 0.489462 -1.38718 0
M  V30 9550 H 910.033 3.45132 -2.34392 0
M  V30 9551 H 908.663 2.94536 -1.32093 0
M  V30 9552 H 907.715 1.70651 -3.39974 0
M  V30 9553 H 909.027 2.43158 -4.35517 0
M  V30 9554 H 908.181 4.72292 -3.80822 0
M  V30 9555 H 906.92 4.0263 -2.7521 0
M  V30 9556 H 905.925 2.82299 -4.71792 0
M  V30 9557 H 907.15 3.55078 -5.78875 0
M  V30 9558 H 905.096 5.0819 -4.14824 0
M  V30 9559 H 905.013 4.78423 -5.85361 0
M  V30 9560 H 906.281 5.78995 -5.21905 0
M  V30 9561 N 910.51 1.48831 0.518367 0
M  V30 9562 C 911.442 1.60317 1.63802 0
M  V30 9563 C 912.455 0.486771 1.55352 0
M  V30 9564 O 913.644 0.758111 1.61601 0
M  V30 9565 C 910.744 1.52771 3.02513 0
M  V30 9566 C 909.917 2.79649 3.36326 0
M  V30 9567 C 908.976 2.65396 4.54369 0
M  V30 9568 O 908.002 3.39304 4.57013 0
M  V30 9569 N 909.204 1.75784 5.53245 0
M  V30 9570 H 911.969 2.56878 1.54383 0
M  V30 9571 H 909.53 1.45701 0.705889 0
M  V30 9572 H 911.522 1.40914 3.79375 0
M  V30 9573 H 910.092 0.641381 3.05949 0
M  V30 9574 H 909.312 3.05985 2.48529 0
M  V30 9575 H 910.6 3.63799 3.55707 0
M  V30 9576 H 909.998 1.14961 5.53896 0
M  V30 9577 H 908.555 1.69859 6.29278 0
M  V30 9578 N 911.988 -0.768124 1.37614 0
M  V30 9579 C 913.404 -1.06919 1.18493 0
M  V30 9580 C 913.604 -2.01486 0.0235753 0
M  V30 9581 O 912.66 -2.4438 -0.635209 0
M  V30 9582 C 913.973 -1.66321 2.50515 0
M  V30 9583 C 915.521 -1.78562 2.57069 0
M  V30 9584 C 915.996 -2.41377 3.89231 0
M  V30 9585 N 917.487 -2.48824 3.90693 0
M  V30 9586 C 918.222 -2.98288 4.89706 0
M  V30 9587 N 917.718 -3.47897 5.99115 0
M  V30 9588 N 919.511 -2.97196 4.77107 0
M  V30 9589 H 911.662 -0.140286 2.11936 0
M  V30 9590 H 913.925 -0.124863 0.939741 0
M  V30 9591 H 913.631 -1.04303 3.35878 0
M  V30 9592 H 913.505 -2.65571 2.67866 0
M  V30 9593 H 915.892 -2.39712 1.72111 0
M  V30 9594 H 915.973 -0.780574 2.43599 0
M  V30 9595 H 915.617 -1.80866 4.74605 0
M  V30 9596 H 915.547 -3.42495 4.00006 0
M  V30 9597 H 918.038 -2.1372 3.1166 0
M  V30 9598 H 918.351 -3.84053 6.70614 0
M  V30 9599 H 916.696 -3.45993 6.02755 0
M  V30 9600 H 919.887 -2.57741 3.90752 0
M  V30 9601 H 920.06 -3.35434 5.54426 0
M  V30 9602 N 913.466 -1.22244 -0.994698 0
M  V30 9603 C 914.715 -1.04005 -1.72817 0
M  V30 9604 C 915.028 0.425413 -1.90918 0
M  V30 9605 O 916.234 0.727429 -2.61574 0
M  V30 9606 C 914.69 -1.81244 -3.10932 0
M  V30 9607 C 914.298 -3.32028 -3.00768 0
M  V30 9608 C 916.042 -1.71448 -3.88337 0
M  V30 9609 C 913.949 -4.01716 -4.34026 0
M  V30 9610 H 912.879 -0.385559 -0.647966 0
M  V30 9611 H 915.53 -1.46077 -1.11058 0
M  V30 9612 H 913.912 -1.3197 -3.73363 0
M  V30 9613 H 915.086 -3.88682 -2.47513 0
M  V30 9614 H 913.401 -3.4248 -2.36846 0
M  V30 9615 H 915.998 -2.20836 -4.86965 0
M  V30 9616 H 916.341 -0.674568 -4.10798 0
M  V30 9617 H 916.874 -2.18256 -3.3258 0
M  V30 9618 H 913.613 -5.05952 -4.16765 0
M  V30 9619 H 913.133 -3.49849 -4.87202 0
M  V30 9620 H 914.812 -4.0721 -5.02782 0
M  V30 9621 N 914.944 1.19125 -1.03184 0
M  V30 9622 C 916.169 1.93379 -0.749628 0
M  V30 9623 C 916.594 1.75153 0.685785 0
M  V30 9624 O 915.952 1.05579 1.47386 0
M  V30 9625 C 916 3.43101 -1.1097 0
M  V30 9626 O 915.104 4.11758 -0.230053 0
M  V30 9627 H 914.445 0.603605 -0.276689 0
M  V30 9628 H 916.975 1.51116 -1.37931 0
M  V30 9629 H 916.985 3.93778 -1.06785 0
M  V30 9630 H 915.66 3.55688 -2.15544 0
M  V30 9631 H 914.237 3.7143 -0.330748 0
M  V30 9632 N 916.422 0.810101 1.35185 0
M  V30 9633 C 917.354 0.180581 2.28488 0
M  V30 9634 C 918.367 -0.622154 1.50443 0
M  V30 9635 O 919.556 -0.453938 1.72632 0
M  V30 9636 C 916.656 -0.766447 3.30119 0
M  V30 9637 C 915.829 -0.00932028 4.37399 0
M  V30 9638 C 914.888 -0.875354 5.18868 0
M  V30 9639 O 913.914 -0.325012 5.68271 0
M  V30 9640 N 915.116 -2.19695 5.37321 0
M  V30 9641 H 917.881 0.98212 2.83151 0
M  V30 9642 H 915.442 0.665879 1.47573 0
M  V30 9643 H 917.434 -1.35012 3.81515 0
M  V30 9644 H 916.004 -1.46878 2.75945 0
M  V30 9645 H 915.224 0.755585 3.86891 0
M  V30 9646 H 916.512 0.512352 5.06214 0
M  V30 9647 H 915.91 -2.66797 4.98834 0
M  V30 9648 H 914.467 -2.72978 5.91884 0
M  V30 9649 N 917.9 -1.47166 0.563914 0
M  V30 9650 C 918.833 -2.27058 -0.227989 0
M  V30 9651 C 919.811 -1.34468 -0.914179 0
M  V30 9652 O 920.995 -1.63857 -0.931829 0
M  V30 9653 C 918.122 -3.11689 -1.32543 0
M  V30 9654 C 917.168 -4.19906 -0.747084 0
M  V30 9655 S 918.001 -5.33916 0.41153 0
M  V30 9656 C 919.157 -6.22112 -0.687566 0
M  V30 9657 H 919.39 -2.93876 0.449939 0
M  V30 9658 H 916.923 -1.50372 0.350382 0
M  V30 9659 H 918.881 -3.61017 -1.95389 0
M  V30 9660 H 917.542 -2.44221 -1.97522 0
M  V30 9661 H 916.735 -4.78876 -1.57141 0
M  V30 9662 H 916.337 -3.73493 -0.194671 0
M  V30 9663 H 918.629 -6.58867 -1.578 0
M  V30 9664 H 919.572 -7.07971 -0.135058 0
M  V30 9665 H 919.98 -5.55871 -0.983255 0
M  V30 9666 O 919.417 -0.442777 -1.55312 0
M  V30 9667 H 920.108 0.0896089 -1.93493 0
M  V30 END ATOM
M  V30 BEGIN BOND
M  V30 END BOND
M  V30 END CTAB
M  END
$$$$
