drugbank_target|P47775 G-protein coupled receptor 12 (DB09061; DB14009; DB14011)
 OpenBabel12092121093D

  0  0  0     0  0            999 V3000
M  V30 BEGIN CTAB
M  V30 COUNTS 5230 5288 0 0 0
M  V30 BEGIN ATOM
M  V30 1 H -0.908 1.98254 -0.117106 0
M  V30 2 N 0 1.576 0 0
M  V30 3 C 0.933 2.03868 1.02534 0
M  V30 4 C 1.911 0.928543 1.3348 0
M  V30 5 O 3.095 1.19667 1.45644 0
M  V30 6 C 0.222 2.43627 2.35294 0
M  V30 7 C -0.732 3.65373 2.2001 0
M  V30 8 S 0.101 5.13292 1.52614 0
M  V30 9 C 1.257 5.56322 2.86805 0
M  V30 10 H 1.49 2.90518 0.631377 0
M  V30 11 H -0.977 1.52953 0.210867 0
M  V30 12 H 0.981 2.67203 3.11629 0
M  V30 13 H -0.358 1.57376 2.7183 0
M  V30 14 H -1.165 3.90944 3.18086 0
M  V30 15 H -1.563 3.418 1.51819 0
M  V30 16 H 0.729 5.58782 3.83104 0
M  V30 17 H 1.672 6.56266 2.65933 0
M  V30 18 H 2.08 4.83886 2.90714 0
M  V30 19 N 1.4781 -0.272755 1.55222 0
M  V30 20 C 2.4261 -1.35705 1.88909 0
M  V30 21 C 3.4201 -1.5112 0.765456 0
M  V30 22 O 4.6261 -1.52901 0.949802 0
M  V30 23 H 1.0011 -0.453868 0.59959 0
M  V30 24 H 2.9721 -1.04544 2.79487 0
M  V30 25 C 1.7211 -2.71049 2.17779 0
M  V30 26 H 1.0441 -2.59979 3.03728 0
M  V30 27 H 2.4841 -3.45858 2.45272 0
M  V30 28 C 0.9431 -3.22165 0.985473 0
M  V30 29 O 1.4731 -4.01096 0.220233 0
M  V30 30 N -0.3209 -2.7985 0.783108 0
M  V30 31 H -0.7739 -2.15775 1.40708 0
M  V30 32 H -0.8159 -3.14397 -0.0130392 0
M  V30 33 N 2.9562 -1.48159 -0.537278 0
M  V30 34 C 3.8662 -1.64807 -1.6696 0
M  V30 35 C 4.8822 -0.530651 -1.65711 0
M  V30 36 O 6.0582 -0.800784 -1.84796 0
M  V30 37 C 3.1232 -1.67708 -3.03438 0
M  V30 38 C 2.1842 -2.91025 -3.156 0
M  V30 39 C 1.4172 -2.93778 -4.45567 0
M  V30 40 O 1.6402 -2.05153 -5.3223 0
M  V30 41 O 0.5742 -3.85868 -4.61941 0
M  V30 42 H 4.4002 -2.6066 -1.55853 0
M  V30 43 H 1.9852 -1.31475 -0.709549 0
M  V30 44 H 3.8672 -1.7218 -3.84619 0
M  V30 45 H 2.5422 -0.750278 -3.14885 0
M  V30 46 H 1.4492 -2.92089 -2.33741 0
M  V30 47 H 2.7822 -3.83065 -3.09066 0
M  V30 48 N 4.4343 0.785586 -1.36625 0
M  V30 49 C 5.7113 1.53198 -1.21613 0
M  V30 50 C 6.0913 2.10187 0.196113 0
M  V30 51 O 5.4393 1.94318 1.20219 0
M  V30 52 C 5.6493 2.62388 -2.30116 0
M  V30 53 C 6.9973 3.30167 -2.66974 0
M  V30 54 O 8.0213 2.72674 -2.29188 0
M  V30 55 O 6.8803 4.34077 -3.32023 0
M  V30 56 H 3.9743 0.677865 -0.473738 0
M  V30 57 H 6.5203 0.823739 -1.48367 0
M  V30 58 H 5.2923 2.18299 -3.24748 0
M  V30 59 H 4.9153 3.40827 -2.0475 0
M  V30 60 N 5.9124 1.20967 1.01018 0
M  V30 61 C 6.8424 0.988272 2.11555 0
M  V30 62 C 7.8234 -0.0849778 1.69888 0
M  V30 63 O 9.0084 0.0738202 1.9406 0
M  V30 64 C 6.1384 0.546528 3.42973 0
M  V30 65 C 5.0924 1.56375 3.9841 0
M  V30 66 C 4.4184 0.97842 5.25672 0
M  V30 67 C 5.7184 2.94922 4.31066 0
M  V30 68 H 7.4124 1.91276 2.30334 0
M  V30 69 H 4.9584 0.921073 1.1069 0
M  V30 70 H 6.9114 0.378839 4.19694 0
M  V30 71 H 5.6354 -0.413598 3.23971 0
M  V30 72 H 4.2944 1.71891 3.23804 0
M  V30 73 H 3.9424 0.0101688 5.02999 0
M  V30 74 H 3.6424 1.65784 5.63728 0
M  V30 75 H 5.1664 0.821939 6.05043 0
M  V30 76 H 6.5804 2.8288 4.9865 0
M  V30 77 H 4.9774 3.5983 4.80253 0
M  V30 78 H 6.0474 3.4616 3.39561 0
M  V30 79 N 7.3905 -1.2043 1.01659 0
M  V30 80 C 8.3375 -2.23215 0.586822 0
M  V30 81 C 9.3075 -1.61382 -0.393085 0
M  V30 82 O 10.4925 -1.88544 -0.292525 0
M  V30 83 C 7.6325 -3.45032 -0.0687464 0
M  V30 84 C 6.7455 -4.21296 0.955724 0
M  V30 85 C 5.8805 -5.30507 0.271208 0
M  V30 86 C 4.9195 -5.98515 1.28244 0
M  V30 87 N 4.0565 -6.99316 0.62459 0
M  V30 88 H 8.8965 -2.59336 1.46796 0
M  V30 89 H 6.4335 -1.27431 0.734836 0
M  V30 90 H 8.3915 -4.1459 -0.465965 0
M  V30 91 H 7.0215 -3.09604 -0.913529 0
M  V30 92 H 6.0735 -3.50803 1.4711 0
M  V30 93 H 7.3855 -4.6803 1.72479 0
M  V30 94 H 6.5395 -6.06428 -0.18151 0
M  V30 95 H 5.2785 -4.8481 -0.530163 0
M  V30 96 H 4.2835 -5.21355 1.74554 0
M  V30 97 H 5.5085 -6.46298 2.08509 0
M  V30 98 H 3.4545 -6.55812 -0.156914 0
M  V30 99 H 3.3715 -7.44178 1.33172 0
M  V30 100 H 4.6395 -7.79255 0.195462 0
M  V30 101 N 8.8686 -0.792821 -1.36206 0
M  V30 102 C 10.1146 -0.36733 -1.99446 0
M  V30 103 C 10.4476 1.05917 -1.62774 0
M  V30 104 O 9.7226 1.7324 -0.88421 0
M  V30 105 C 10.0056 -0.535044 -3.56103 0
M  V30 106 C 9.8586 -2.00548 -4.02617 0
M  V30 107 C 11.1776 0.0478191 -4.40074 0
M  V30 108 H 8.2966 -0.134941 -0.724541 0
M  V30 109 H 10.9386 -0.999794 -1.61568 0
M  V30 110 H 9.0886 0.00336329 -3.885 0
M  V30 111 H 10.7606 -2.60521 -3.80692 0
M  V30 112 H 9.0036 -2.50686 -3.54032 0
M  V30 113 H 9.6746 -2.07377 -5.11565 0
M  V30 114 H 12.1506 -0.411822 -4.14057 0
M  V30 115 H 11.0266 -0.0995336 -5.4881 0
M  V30 116 H 11.2876 1.14025 -4.27142 0
M  V30 117 N 10.3467 1.47872 -0.545128 0
M  V30 118 C 11.2947 2.31533 0.222512 0
M  V30 119 C 12.2887 1.42177 0.920985 0
M  V30 120 O 13.4947 1.59005 0.843645 0
M  V30 121 H 9.8697 0.746519 0.0906278 0
M  V30 122 H 11.8407 2.94139 -0.50246 0
M  V30 123 C 10.5897 3.2457 1.24699 0
M  V30 124 H 9.9127 3.93283 0.718944 0
M  V30 125 H 11.3527 3.85963 1.75523 0
M  V30 126 C 9.8117 2.47237 2.28856 0
M  V30 127 O 10.3417 2.20808 3.35569 0
M  V30 128 N 8.5477 2.08461 2.02466 0
M  V30 129 H 8.0947 2.30155 1.157 0
M  V30 130 H 8.0527 1.57033 2.72375 0
M  V30 131 N 11.8248 0.280983 1.55075 0
M  V30 132 C 12.7548 -0.597469 2.25727 0
M  V30 133 C 13.7358 -1.15417 1.24952 0
M  V30 134 O 14.9208 -1.18722 1.53684 0
M  V30 135 C 12.0508 -1.7789 2.98283 0
M  V30 136 C 11.0048 -1.35347 4.06036 0
M  V30 137 C 10.3308 -2.61846 4.66198 0
M  V30 138 C 11.6308 -0.499354 5.19907 0
M  V30 139 H 13.3248 -0.00824265 2.99399 0
M  V30 140 H 10.8708 -0.0025244 1.44 0
M  V30 141 H 12.8238 -2.39937 3.46422 0
M  V30 142 H 11.5478 -2.39405 2.22155 0
M  V30 143 H 10.2068 -0.756156 3.58717 0
M  V30 144 H 9.8548 -3.21632 3.86732 0
M  V30 145 H 9.5548 -2.3409 5.38958 0
M  V30 146 H 11.0788 -3.24732 5.1709 0
M  V30 147 H 12.4928 -1.02498 5.64063 0
M  V30 148 H 10.8898 -0.316424 5.99265 0
M  V30 149 H 11.9598 0.480459 4.82514 0
M  V30 150 N 13.3029 -1.57598 0.00835791 0
M  V30 151 C 14.5279 -1.95617 -0.689103 0
M  V30 152 C 14.9529 -0.883753 -1.66046 0
M  V30 153 O 14.3109 0.157352 -1.80616 0
M  V30 154 C 14.3589 -3.32736 -1.38994 0
M  V30 155 O 13.4629 -3.27631 -2.50463 0
M  V30 156 H 12.8039 -0.638379 -0.182668 0
M  V30 157 H 15.3339 -2.045 0.064036 0
M  V30 158 H 15.3439 -3.68494 -1.75147 0
M  V30 159 H 14.0189 -4.1034 -0.677778 0
M  V30 160 H 12.5959 -3.03561 -2.16576 0
M  V30 161 N 14.781 0.264519 -1.55364 0
M  V30 162 C 16.029 0.993021 -1.76021 0
M  V30 163 C 16.35 1.86511 -0.569099 0
M  V30 164 O 15.62 1.91438 0.415735 0
M  V30 165 H 14.2 0.369639 -0.649135 0
M  V30 166 H 16.862 0.286707 -1.9278 0
M  V30 167 H 15.958 1.62502 -2.66457 0
M  V30 168 N 16.2591 1.48442 0.529413 0
M  V30 169 C 17.1891 1.65902 1.64313 0
M  V30 170 C 18.1701 0.507897 1.6234 0
M  V30 171 O 19.3551 0.740503 1.79528 0
M  V30 172 C 16.4851 1.69911 3.02898 0
M  V30 173 C 15.4391 2.8453 3.19729 0
M  V30 174 C 14.7651 2.73629 4.59381 0
M  V30 175 C 16.0651 4.25821 3.02447 0
M  V30 176 H 17.7591 2.5914 1.49955 0
M  V30 177 H 15.3051 1.24709 0.719982 0
M  V30 178 H 17.2581 1.80715 3.80684 0
M  V30 179 H 15.9821 0.732524 3.18279 0
M  V30 180 H 14.6411 2.73283 2.44361 0
M  V30 181 H 14.2891 1.74938 4.71599 0
M  V30 182 H 13.9891 3.50541 4.71588 0
M  V30 183 H 15.5131 2.86401 5.39265 0
M  V30 184 H 16.9271 4.37898 3.70024 0
M  V30 185 H 15.3241 5.03735 3.26146 0
M  V30 186 H 16.3941 4.42244 1.98867 0
M  V30 187 N 17.7372 -0.778329 1.37039 0
M  V30 188 C 19.1482 -1.35421 1.28523 0
M  V30 189 C 19.4992 -1.96075 -0.0700901 0
M  V30 190 O 18.6242 -1.93352 -0.971801 0
M  V30 191 C 19.2192 -2.46211 2.32735 0
M  V30 192 C 17.7782 -2.99585 2.27873 0
M  V30 193 C 16.9252 -1.72748 2.16918 0
M  V30 194 H 19.8762 -0.5791 1.47757 0
M  V30 195 H 19.8972 -3.2552 1.9702 0
M  V30 196 H 19.4092 -2.02036 3.31365 0
M  V30 197 H 17.5102 -3.48152 1.32745 0
M  V30 198 H 17.6232 -3.55646 3.21018 0
M  V30 199 H 15.9872 -1.95416 1.63354 0
M  V30 200 H 16.7702 -1.30686 3.17452 0
M  V30 201 N 19.2153 -1.21501 -1.00376 0
M  V30 202 C 20.6313 -0.972629 -1.26539 0
M  V30 203 C 20.8313 0.340257 -1.98606 0
M  V30 204 O 19.8873 1.06561 -2.28913 0
M  V30 205 C 21.2003 -2.16404 -2.08781 0
M  V30 206 C 22.7483 -2.20643 -2.22004 0
M  V30 207 C 23.2233 -3.39306 -3.07629 0
M  V30 208 N 24.7143 -3.39401 -3.15217 0
M  V30 209 C 25.4493 -4.27867 -3.81729 0
M  V30 210 N 24.9453 -5.26533 -4.5026 0
M  V30 211 N 26.7383 -4.15672 -3.78382 0
M  V30 212 H 18.8893 -2.05929 -0.520281 0
M  V30 213 H 21.1523 -0.901803 -0.292328 0
M  V30 214 H 20.8583 -3.11554 -1.63178 0
M  V30 215 H 20.7323 -2.15567 -3.09533 0
M  V30 216 H 23.1193 -1.26048 -2.66825 0
M  V30 217 H 23.2003 -2.25523 -1.20718 0
M  V30 218 H 22.8443 -4.34195 -2.63509 0
M  V30 219 H 22.7743 -3.31665 -4.09031 0
M  V30 220 H 25.2653 -2.67997 -2.66432 0
M  V30 221 H 25.5783 -5.90337 -4.98721 0
M  V30 222 H 23.9233 -5.30457 -4.49044 0
M  V30 223 H 27.1143 -3.3785 -3.23998 0
M  V30 224 H 27.2873 -4.84825 -4.2994 0
M  V30 225 N 20.6934 1.19889 -1.02296 0
M  V30 226 C 21.9704 1.85148 -0.630832 0
M  V30 227 C 22.3504 1.91385 0.890782 0
M  V30 228 O 21.6984 1.42642 1.78509 0
M  V30 229 C 21.9084 3.24442 -1.28602 0
M  V30 230 C 23.2564 4.00663 -1.4055 0
M  V30 231 O 24.2804 3.33818 -1.24273 0
M  V30 232 O 23.1394 5.20387 -1.66913 0
M  V30 233 H 20.2334 0.797613 -0.218499 0
M  V30 234 H 22.7794 1.27427 -1.12074 0
M  V30 235 H 21.5514 3.14704 -2.32545 0
M  V30 236 H 21.1744 3.89802 -0.7836 0
M  V30 237 N 22.1715 0.800033 1.35784 0
M  V30 238 C 23.4015 0.389041 2.02904 0
M  V30 239 C 23.8095 -1.0027 1.60445 0
M  V30 240 O 23.1525 -1.65633 0.794453 0
M  V30 241 C 23.2145 0.385495 3.57427 0
M  V30 242 C 22.8785 1.72662 4.23127 0
M  V30 243 C 23.8755 2.68385 4.4527 0
M  V30 244 C 21.5605 2.00883 4.60381 0
M  V30 245 C 23.5545 3.90517 5.03761 0
M  V30 246 C 21.2415 3.2328 5.18588 0
M  V30 247 C 22.2395 4.17915 5.40218 0
M  V30 248 O 21.9275 5.38153 5.97199 0
M  V30 249 H 21.6595 0.157032 0.657508 0
M  V30 250 H 24.2135 1.08311 1.74522 0
M  V30 251 H 22.4435 -0.365128 3.84972 0
M  V30 252 H 24.1325 -0.00228296 4.059 0
M  V30 253 H 24.8985 2.47872 4.16874 0
M  V30 254 H 20.7775 1.28037 4.42863 0
M  V30 255 H 24.3215 4.64395 5.2056 0
M  V30 256 H 20.2185 3.43667 5.4641 0
M  V30 257 H 20.9865 5.3936 6.15656 0
M  V30 258 N 23.6496 -1.47581 0.552962 0
M  V30 259 C 24.5796 -2.32762 -0.185451 0
M  V30 260 C 25.5606 -1.43527 -0.912905 0
M  V30 261 O 26.7456 -1.72388 -0.894201 0
M  V30 262 C 23.8756 -3.25219 -1.21859 0
M  V30 263 C 22.8296 -4.23661 -0.607864 0
M  V30 264 C 22.1556 -5.05413 -1.74533 0
M  V30 265 C 23.4556 -5.20481 0.435582 0
M  V30 266 H 25.1496 -2.94749 0.525684 0
M  V30 267 H 22.6956 -1.41738 0.254251 0
M  V30 268 H 24.6486 -3.8365 -1.7433 0
M  V30 269 H 23.3726 -2.61279 -1.95961 0
M  V30 270 H 22.0316 -3.66451 -0.104489 0
M  V30 271 H 21.6796 -4.3788 -2.47529 0
M  V30 272 H 21.3796 -5.72059 -1.34249 0
M  V30 273 H 22.9036 -5.66701 -2.27338 0
M  V30 274 H 24.3176 -5.733 -0.00290157 0
M  V30 275 H 22.7146 -5.95305 0.757067 0
M  V30 276 H 23.7846 -4.66217 1.33303 0
M  V30 277 N 25.1277 -0.289203 -1.54924 0
M  V30 278 C 26.4047 0.376032 -1.91951 0
M  V30 279 C 26.7847 1.72622 -1.21511 0
M  V30 280 O 26.1327 2.25853 -0.346767 0
M  V30 281 C 26.3427 0.502378 -3.45365 0
M  V30 282 C 27.6907 0.778741 -4.17398 0
M  V30 283 O 28.7147 0.586647 -3.51336 0
M  V30 284 O 27.5737 1.14698 -5.34328 0
M  V30 285 H 24.6677 0.208167 -0.800372 0
M  V30 286 H 27.2137 -0.336394 -1.66332 0
M  V30 287 H 25.9857 -0.447255 -3.88736 0
M  V30 288 H 25.6087 1.26373 -3.76982 0
M  V30 289 N 26.6058 1.57591 -0.0167156 0
M  V30 290 C 27.5688 2.08393 0.954204 0
M  V30 291 C 28.5688 0.996531 1.26198 0
M  V30 292 O 29.7588 1.25858 1.20438 0
M  V30 293 C 26.8908 2.5394 2.27436 0
M  V30 294 H 28.0838 2.95455 0.514451 0
M  V30 295 H 25.6368 1.54582 0.231089 0
M  V30 296 H 26.3718 1.70171 2.76066 0
M  V30 297 H 26.1568 3.33371 2.06412 0
M  V30 298 H 27.6468 2.93512 2.97053 0
M  V30 299 N 28.0839 -0.256276 1.55502 0
M  V30 300 C 29.0469 -1.30047 1.88734 0
M  V30 301 C 30.0469 -1.4154 0.763086 0
M  V30 302 O 31.2369 -1.40403 1.03115 0
M  V30 303 C 28.3689 -2.67953 2.10747 0
M  V30 304 H 29.5619 -1.01802 2.82093 0
M  V30 305 H 27.1149 -0.495134 1.4825 0
M  V30 306 H 27.8499 -3.01351 1.19825 0
M  V30 307 H 27.6349 -2.60993 2.92617 0
M  V30 308 H 29.1249 -3.43368 2.37673 0
M  V30 309 N 29.562 -1.4872 -0.521534 0
M  V30 310 C 30.525 -1.63379 -1.60748 0
M  V30 311 C 31.525 -0.50661 -1.52611 0
M  V30 312 O 32.715 -0.772601 -1.5613 0
M  V30 313 C 29.847 -1.61192 -3.00383 0
M  V30 314 H 31.04 -2.60217 -1.49087 0
M  V30 315 H 28.593 -1.37444 -0.744235 0
M  V30 316 H 29.328 -0.65863 -3.17541 0
M  V30 317 H 29.113 -2.43032 -3.07698 0
M  V30 318 H 30.603 -1.7466 -3.7932 0
M  V30 319 N 31.0401 0.771051 -1.3745 0
M  V30 320 C 32.0031 1.86598 -1.33093 0
M  V30 321 C 33.0031 1.59076 -0.234845 0
M  V30 322 O 34.1931 1.67145 -0.490732 0
M  V30 323 C 31.3251 3.23747 -1.06773 0
M  V30 324 H 32.5181 1.91873 -2.30488 0
M  V30 325 H 30.0711 0.970876 -1.2249 0
M  V30 326 H 30.8061 3.24148 -0.099129 0
M  V30 327 H 30.5911 3.45115 -1.86112 0
M  V30 328 H 32.0811 4.03824 -1.06377 0
M  V30 329 N 32.5182 1.22032 0.997298 0
M  V30 330 C 33.4282 1.00271 2.12092 0
M  V30 331 C 34.4442 -0.047621 1.73935 0
M  V30 332 O 35.6202 0.144136 2.00884 0
M  V30 333 C 32.6852 0.578449 3.4184 0
M  V30 334 C 31.7462 1.70189 3.94125 0
M  V30 335 C 30.9792 1.29778 5.17681 0
M  V30 336 O 31.2022 0.174676 5.70132 0
M  V30 337 O 30.1362 2.11261 5.63607 0
M  V30 338 H 33.9622 1.94398 2.3333 0
M  V30 339 H 31.5472 1.00587 1.10465 0
M  V30 340 H 33.4292 0.351998 4.19927 0
M  V30 341 H 32.1042 -0.334019 3.21972 0
M  V30 342 H 31.0112 1.98282 3.1723 0
M  V30 343 H 32.3442 2.59206 4.18417 0
M  V30 344 N 33.9963 -1.19345 1.0293 0
M  V30 345 C 34.9443 -2.24621 0.604001 0
M  V30 346 C 35.9383 -1.65452 -0.363587 0
M  V30 347 O 37.1443 -1.78497 -0.23212 0
M  V30 348 H 33.5193 -0.730858 0.177061 0
M  V30 349 H 35.4903 -2.5781 1.50255 0
M  V30 350 C 34.2393 -3.47688 -0.0289127 0
M  V30 351 H 33.5623 -3.93505 0.706651 0
M  V30 352 H 35.0023 -4.23011 -0.289432 0
M  V30 353 C 33.4613 -3.11817 -1.2756 0
M  V30 354 O 33.9913 -3.2451 -2.36762 0
M  V30 355 N 32.1973 -2.66246 -1.16453 0
M  V30 356 H 31.7443 -2.56118 -0.275914 0
M  V30 357 H 31.7023 -2.42617 -1.99961 0
M  V30 358 N 35.4744 -0.807222 -1.35358 0
M  V30 359 C 36.7234 -0.384376 -1.98004 0
M  V30 360 C 37.0364 1.0543 -1.64754 0
M  V30 361 O 38.2424 1.58029 -2.20769 0
M  V30 362 C 36.6984 -0.636326 -3.5423 0
M  V30 363 C 36.3064 -2.08759 -3.96388 0
M  V30 364 C 38.0504 -0.278869 -4.23583 0
M  V30 365 C 35.9574 -2.28525 -5.45463 0
M  V30 366 H 34.8874 -0.139986 -0.740891 0
M  V30 367 H 37.5384 -0.991369 -1.54415 0
M  V30 368 H 35.9204 0.0406256 -3.95979 0
M  V30 369 H 37.0944 -2.8024 -3.6579 0
M  V30 370 H 35.4094 -2.40497 -3.39926 0
M  V30 371 H 38.0064 -0.404599 -5.33167 0
M  V30 372 H 38.3494 0.775012 -4.09022 0
M  V30 373 H 38.8824 -0.909764 -3.87257 0
M  V30 374 H 35.6214 -3.32361 -5.64992 0
M  V30 375 H 35.1414 -1.61569 -5.77629 0
M  V30 376 H 36.8204 -2.10109 -6.11934 0
M  V30 377 N 36.9525 1.47285 -0.560781 0
M  V30 378 C 38.1775 2.07359 -0.0410566 0
M  V30 379 C 38.6025 1.41017 1.24483 0
M  V30 380 O 37.9605 0.486368 1.74654 0
M  V30 381 C 38.0085 3.6035 0.134123 0
M  V30 382 O 37.1125 3.94681 1.19587 0
M  V30 383 H 36.4535 0.661887 -0.0529291 0
M  V30 384 H 38.9835 1.89252 -0.777482 0
M  V30 385 H 38.9935 4.0652 0.347207 0
M  V30 386 H 37.6685 4.08034 -0.805047 0
M  V30 387 H 36.2455 3.60251 0.962987 0
M  V30 388 N 38.4306 0.297415 1.54768 0
M  V30 389 C 39.3936 -0.567375 2.22066 0
M  V30 390 C 40.3936 -1.06409 1.20556 0
M  V30 391 O 41.5836 -0.960691 1.45315 0
M  V30 392 C 38.7156 -1.78517 2.90421 0
M  V30 393 H 39.9086 0.0205534 2.99893 0
M  V30 394 H 37.4616 0.0482163 1.56226 0
M  V30 395 H 38.1966 -2.41303 2.16664 0
M  V30 396 H 37.9816 -1.43669 3.64831 0
M  V30 397 H 39.4716 -2.39964 3.41771 0
M  V30 398 N 39.9087 -1.5758 0.0250728 0
M  V30 399 C 40.8717 -2.08896 -0.943139 0
M  V30 400 C 41.8717 -1.00321 -1.25668 0
M  V30 401 O 43.0617 -1.26495 -1.19769 0
M  V30 402 C 40.1937 -2.55143 -2.26086 0
M  V30 403 H 41.3867 -2.95723 -0.498775 0
M  V30 404 H 38.9397 -1.54703 -0.222888 0
M  V30 405 H 39.6747 -1.71633 -2.75159 0
M  V30 406 H 39.4597 -3.34461 -2.04641 0
M  V30 407 H 40.9497 -2.95083 -2.95492 0
M  V30 408 N 41.3868 0.248026 -1.55636 0
M  V30 409 C 42.6328 0.97767 -1.77678 0
M  V30 410 C 42.9658 1.85016 -0.590135 0
M  V30 411 O 42.2408 1.90095 0.411611 0
M  V30 412 C 42.5238 1.83914 -3.09593 0
M  V30 413 C 42.3768 0.99491 -4.38659 0
M  V30 414 C 43.6958 2.82183 -3.37729 0
M  V30 415 H 40.8148 0.354005 -0.646413 0
M  V30 416 H 43.4568 0.248253 -1.88371 0
M  V30 417 H 41.6068 2.46104 -3.00608 0
M  V30 418 H 43.2788 0.391789 -4.59633 0
M  V30 419 H 41.5218 0.299231 -4.32767 0
M  V30 420 H 42.1928 1.63145 -5.2734 0
M  V30 421 H 44.6688 2.30129 -3.4667 0
M  V30 422 H 43.5448 3.39582 -4.31249 0
M  V30 423 H 43.8058 3.58588 -2.58586 0
M  V30 424 N 42.8649 1.48995 0.513639 0
M  V30 425 C 44.0899 1.61792 1.29762 0
M  V30 426 C 44.5149 0.284475 1.85936 0
M  V30 427 O 43.8729 -0.746185 1.65232 0
M  V30 428 C 43.9209 2.67993 2.41272 0
M  V30 429 O 43.0249 2.26287 3.44772 0
M  V30 430 H 42.3659 0.541963 0.38363 0
M  V30 431 H 44.8959 1.95097 0.616307 0
M  V30 432 H 44.9059 2.89772 2.87221 0
M  V30 433 H 43.5809 3.64791 1.9975 0
M  V30 434 H 42.1579 2.14788 3.04829 0
M  V30 435 N 44.343 -0.763751 1.37857 0
M  V30 436 C 45.568 -1.55805 1.36893 0
M  V30 437 C 45.993 -1.88054 -0.0416135 0
M  V30 438 O 45.351 -1.49825 -1.02089 0
M  V30 439 C 45.399 -2.84012 2.22192 0
M  V30 440 O 44.503 -3.78732 1.63204 0
M  V30 441 H 43.844 -0.471638 0.46739 0
M  V30 442 H 46.374 -0.944657 1.81487 0
M  V30 443 H 46.384 -3.33037 2.35691 0
M  V30 444 H 45.059 -2.59869 3.24716 0
M  V30 445 H 43.636 -3.37402 1.58791 0
M  V30 446 N 45.8211 -1.22559 -0.990812 0
M  V30 447 C 47.2371 -0.985996 -1.255 0
M  V30 448 C 47.4371 0.319173 -1.98956 0
M  V30 449 O 46.4931 1.04127 -2.3003 0
M  V30 450 C 47.8061 -2.18607 -2.06474 0
M  V30 451 C 49.3541 -2.22985 -2.19651 0
M  V30 452 C 49.8291 -3.4255 -3.04012 0
M  V30 453 N 51.3201 -3.42725 -3.11599 0
M  V30 454 C 52.0551 -4.31892 -3.7717 0
M  V30 455 N 51.5511 -5.31279 -4.44651 0
M  V30 456 N 53.3441 -4.19662 -3.73952 0
M  V30 457 H 45.4951 -2.06469 -0.49841 0
M  V30 458 H 47.7581 -0.904853 -0.282747 0
M  V30 459 H 47.4641 -3.13267 -1.59865 0
M  V30 460 H 47.3381 -2.18838 -3.07229 0
M  V30 461 H 49.7251 -1.28871 -2.65474 0
M  V30 462 H 49.8061 -2.26791 -1.18319 0
M  V30 463 H 49.4501 -4.36965 -2.58889 0
M  V30 464 H 49.3801 -3.35984 -4.0549 0
M  V30 465 H 51.8711 -2.70807 -2.63575 0
M  V30 466 H 52.1841 -5.95593 -4.92431 0
M  V30 467 H 50.5291 -5.3519 -4.43392 0
M  V30 468 H 53.7201 -3.41268 -3.20396 0
M  V30 469 H 53.8931 -4.89358 -4.24774 0
M  V30 470 N 47.2992 1.18797 -1.03562 0
M  V30 471 C 48.5452 1.8893 -0.737113 0
M  V30 472 C 48.8782 1.79837 0.732956 0
M  V30 473 O 48.1532 1.19525 1.5344 0
M  V30 474 C 48.4362 3.39607 -1.19745 0
M  V30 475 C 48.2892 3.57537 -2.72924 0
M  V30 476 C 49.6082 4.33069 -0.783526 0
M  V30 477 H 46.7272 0.686057 -0.269249 0
M  V30 478 H 49.3692 1.39797 -1.28673 0
M  V30 479 H 47.5192 3.81583 -0.729855 0
M  V30 480 H 49.1912 3.24688 -3.27682 0
M  V30 481 H 47.4342 3.00363 -3.12993 0
M  V30 482 H 48.1052 4.63238 -3.00191 0
M  V30 483 H 50.5812 3.98846 -1.18581 0
M  V30 484 H 49.4572 5.3707 -1.13343 0
M  V30 485 H 49.7182 4.40986 0.313681 0
M  V30 486 N 48.7773 0.814389 1.34928 0
M  V30 487 C 50.1883 0.458364 1.80986 0
M  V30 488 C 50.5393 -1.02042 1.67577 0
M  V30 489 O 49.6643 -1.79352 1.21086 0
M  V30 490 C 50.2593 0.825212 3.28597 0
M  V30 491 C 48.8183 0.521677 3.72767 0
M  V30 492 C 47.9653 1.04668 2.56788 0
M  V30 493 H 50.9163 1.00533 1.22795 0
M  V30 494 H 50.9373 0.12571 3.80292 0
M  V30 495 H 50.4493 1.90154 3.38324 0
M  V30 496 H 48.5503 -0.545589 3.68584 0
M  V30 497 H 48.6633 1.05977 4.67232 0
M  V30 498 H 47.0273 0.468622 2.50352 0
M  V30 499 H 47.8103 2.12927 2.6929 0
M  V30 500 N 50.2554 -1.46986 0.568584 0
M  V30 501 C 51.2184 -2.28624 -0.162366 0
M  V30 502 C 52.2184 -1.37596 -0.832103 0
M  V30 503 O 53.4084 -1.60115 -0.68622 0
M  V30 504 C 50.5404 -3.17596 -1.23878 0
M  V30 505 H 51.7334 -2.94722 0.554899 0
M  V30 506 H 49.2864 -1.52863 0.325976 0
M  V30 507 H 50.0214 -2.56214 -1.98808 0
M  V30 508 H 49.8064 -3.846 -0.763219 0
M  V30 509 H 51.2964 -3.79078 -1.75185 0
M  V30 510 N 51.7335 -0.305618 -1.54608 0
M  V30 511 C 52.9795 0.302746 -2.00528 0
M  V30 512 C 53.3125 1.53184 -1.19367 0
M  V30 513 O 52.5875 1.92598 -0.271321 0
M  V30 514 C 52.8705 0.654756 -3.54097 0
M  V30 515 C 52.7235 -0.583793 -4.45995 0
M  V30 516 C 54.0425 1.47947 -4.14487 0
M  V30 517 H 51.1615 0.108564 -0.72896 0
M  V30 518 H 53.8035 -0.418634 -1.85331 0
M  V30 519 H 51.9535 1.26935 -3.67178 0
M  V30 520 H 53.6255 -1.22224 -4.44814 0
M  V30 521 H 51.8685 -1.21615 -4.16404 0
M  V30 522 H 52.5395 -0.293287 -5.5122 0
M  V30 523 H 55.0155 0.96013 -4.04871 0
M  V30 524 H 53.8915 1.69454 -5.22088 0
M  V30 525 H 54.1525 2.47011 -3.66658 0
M  V30 526 N 53.2116 1.57565 -0.0334293 0
M  V30 527 C 54.1216 2.13943 0.962572 0
M  V30 528 C 55.1376 1.09276 1.35406 0
M  V30 529 O 56.3136 1.41355 1.4346 0
M  V30 530 C 53.3786 2.65887 2.22497 0
M  V30 531 C 52.4396 3.85286 1.8935 0
M  V30 532 C 51.6726 4.34743 3.09571 0
M  V30 533 O 51.8956 3.83352 4.22371 0
M  V30 534 O 50.8296 5.26538 2.91618 0
M  V30 535 H 54.6556 2.99333 0.513169 0
M  V30 536 H 52.2406 1.4822 0.18743 0
M  V30 537 H 54.1226 2.99346 2.96598 0
M  V30 538 H 52.7976 1.83578 2.6661 0
M  V30 539 H 51.7046 3.56746 1.1262 0
M  V30 540 H 53.0376 4.68771 1.5005 0
M  V30 541 N 54.6897 -0.239769 1.55765 0
M  V30 542 C 56.1007 -0.808263 1.68297 0
M  V30 543 C 56.4517 -1.85736 0.632181 0
M  V30 544 O 55.5767 -2.15277 -0.220204 0
M  V30 545 C 56.1717 -1.47284 3.05111 0
M  V30 546 C 54.7307 -1.98895 3.19559 0
M  V30 547 C 53.8777 -0.842575 2.64189 0
M  V30 548 H 56.8287 -0.0154422 1.58692 0
M  V30 549 H 56.8497 -2.34111 2.99954 0
M  V30 550 H 56.3617 -0.709053 3.81568 0
M  V30 551 H 54.4627 -2.78132 2.47938 0
M  V30 552 H 54.5757 -2.18143 4.26556 0
M  V30 553 H 52.9397 -1.24501 2.22197 0
M  V30 554 H 53.7227 -0.0917552 3.43177 0
M  V30 555 N 56.1678 -1.49265 -0.50573 0
M  V30 556 C 57.0778 -1.68312 -1.63427 0
M  V30 557 C 58.0938 -0.565682 -1.64548 0
M  V30 558 O 59.2698 -0.839801 -1.83055 0
M  V30 559 C 56.3348 -1.74107 -2.99813 0
M  V30 560 C 55.3958 -2.97653 -3.09356 0
M  V30 561 C 54.6288 -3.03163 -4.39236 0
M  V30 562 O 54.8518 -2.16396 -5.27758 0
M  V30 563 O 53.7858 -3.9558 -4.53652 0
M  V30 564 H 57.6118 -2.63907 -1.50289 0
M  V30 565 H 55.1968 -1.32951 -0.681502 0
M  V30 566 H 57.0788 -1.803 -3.80881 0
M  V30 567 H 55.7538 -0.816901 -3.13223 0
M  V30 568 H 54.6608 -2.96981 -2.27493 0
M  V30 569 H 55.9938 -3.89535 -3.00871 0
M  V30 570 N 57.6459 0.756429 -1.3826 0
M  V30 571 C 59.0569 1.33359 -1.30661 0
M  V30 572 C 59.4079 1.96161 0.0388875 0
M  V30 573 O 58.5329 1.94874 0.940918 0
M  V30 574 C 59.1279 2.42477 -2.36622 0
M  V30 575 C 57.6869 2.95922 -2.3261 0
M  V30 576 C 56.8339 1.69275 -2.19639 0
M  V30 577 H 59.7849 0.55552 -1.4866 0
M  V30 578 H 59.8059 3.22345 -2.02174 0
M  V30 579 H 59.3179 1.96739 -3.34538 0
M  V30 580 H 57.4189 3.45996 -1.38267 0
M  V30 581 H 57.5319 3.50494 -3.26636 0
M  V30 582 H 55.8959 1.92793 -1.66442 0
M  V30 583 H 56.6789 1.25619 -3.19491 0
M  V30 584 N 59.124 1.23083 0.984299 0
M  V30 585 C 60.034 1.02515 2.11016 0
M  V30 586 C 61.05 -0.0291702 1.73976 0
M  V30 587 O 62.226 0.165434 2.00719 0
M  V30 588 C 59.291 0.614673 3.41208 0
M  V30 589 C 58.352 1.74359 3.92297 0
M  V30 590 C 57.585 1.35261 5.16275 0
M  V30 591 O 57.808 0.235136 5.69915 0
M  V30 592 O 56.742 2.17227 5.61334 0
M  V30 593 H 60.568 1.96862 2.31255 0
M  V30 594 H 58.153 1.01753 1.09392 0
M  V30 595 H 60.035 0.396518 4.1953 0
M  V30 596 H 58.71 -0.299851 3.22308 0
M  V30 597 H 57.617 2.01635 3.1511 0
M  V30 598 H 58.95 2.63629 4.15645 0
M  V30 599 N 60.6021 -1.18246 1.0419 0
M  V30 600 C 61.5321 -2.24127 0.654914 0
M  V30 601 C 62.5131 -1.66617 -0.342451 0
M  V30 602 O 63.6981 -1.92924 -0.222277 0
M  V30 603 C 60.8281 -3.47295 0.0183757 0
M  V30 604 C 59.7821 -4.17563 0.939414 0
M  V30 605 C 59.1081 -5.34438 0.167286 0
M  V30 606 C 60.4081 -4.70917 2.25908 0
M  V30 607 H 62.1021 -2.56753 1.54007 0
M  V30 608 H 59.6481 -1.23414 0.74195 0
M  V30 609 H 61.6011 -4.20572 -0.264082 0
M  V30 610 H 60.3251 -3.13907 -0.901664 0
M  V30 611 H 58.9841 -3.46186 1.20628 0
M  V30 612 H 58.6321 -4.97298 -0.7552 0
M  V30 613 H 58.3321 -5.82388 0.780901 0
M  V30 614 H 59.8561 -6.10504 -0.108125 0
M  V30 615 H 61.2701 -5.35882 2.03724 0
M  V30 616 H 59.6671 -5.29406 2.82577 0
M  V30 617 H 60.7371 -3.88272 2.9047 0
M  V30 618 N 62.0802 -0.821533 -1.34494 0
M  V30 619 C 63.3262 -0.409552 -1.98622 0
M  V30 620 C 63.6592 1.0244 -1.64984 0
M  V30 621 O 62.9342 1.71325 -0.920758 0
M  V30 622 C 63.2172 -0.610458 -3.54888 0
M  V30 623 C 63.0702 -2.09043 -3.98273 0
M  V30 624 C 64.3892 -0.0455379 -4.40076 0
M  V30 625 H 61.5082 -0.15028 -0.721516 0
M  V30 626 H 64.1502 -1.03384 -1.59411 0
M  V30 627 H 62.3002 -0.079044 -3.8842 0
M  V30 628 H 63.9722 -2.68537 -3.75081 0
M  V30 629 H 62.2152 -2.58139 -3.48635 0
M  V30 630 H 62.8862 -2.18182 -5.07051 0
M  V30 631 H 65.3622 -0.499557 -4.1309 0
M  V30 632 H 64.2382 -0.215922 -5.48475 0
M  V30 633 H 64.4992 1.04939 -4.29465 0
M  V30 634 N 63.5583 1.46682 -0.576371 0
M  V30 635 C 64.8043 2.02712 -0.0596221 0
M  V30 636 C 65.1373 1.44765 1.29448 0
M  V30 637 O 64.4123 0.610355 1.84675 0
M  V30 638 C 64.6953 3.60098 0.0129503 0
M  V30 639 C 64.5483 4.28441 -1.3696 0
M  V30 640 C 65.8673 4.34224 0.71678 0
M  V30 641 H 62.9863 0.736637 -0.0231407 0
M  V30 642 H 65.6283 1.74898 -0.742351 0
M  V30 643 H 63.7783 3.83926 0.594378 0
M  V30 644 H 65.4503 4.15896 -1.9957 0
M  V30 645 H 63.6933 3.8805 -1.93907 0
M  V30 646 H 64.3643 5.3716 -1.27135 0
M  V30 647 H 66.8403 4.15503 0.222908 0
M  V30 648 H 65.7163 5.43936 0.73657 0
M  V30 649 H 65.9773 4.04823 1.77682 0
M  V30 650 N 65.0364 0.313813 1.54444 0
M  V30 651 C 65.9844 -0.572171 2.25453 0
M  V30 652 C 66.9784 -1.12657 1.2651 0
M  V30 653 O 68.1844 -1.07573 1.44319 0
M  V30 654 H 64.5594 -0.203146 0.724041 0
M  V30 655 H 66.5304 0.0491145 2.9836 0
M  V30 656 C 65.2794 -1.72626 3.0182 0
M  V30 657 H 64.6024 -1.30891 3.77767 0
M  V30 658 H 66.0424 -2.32199 3.54767 0
M  V30 659 C 64.5014 -2.63806 2.09542 0
M  V30 660 O 65.0314 -3.65256 1.67185 0
M  V30 661 N 63.2374 -2.31824 1.75232 0
M  V30 662 H 62.7844 -1.49368 2.09873 0
M  V30 663 H 62.7424 -2.93095 1.13767 0
M  V30 664 N 66.5145 -1.57545 0.0417849 0
M  V30 665 C 67.9255 -1.80011 -0.495259 0
M  V30 666 C 68.2765 -0.953199 -1.71489 0
M  V30 667 O 67.4015 -0.167138 -2.15754 0
M  V30 668 C 67.9965 -3.26482 -0.905265 0
M  V30 669 C 66.5555 -3.499 -1.38734 0
M  V30 670 C 65.7025 -2.74979 -0.358056 0
M  V30 671 H 68.6535 -1.56425 0.267736 0
M  V30 672 H 68.6745 -3.36887 -1.76882 0
M  V30 673 H 68.1865 -3.88096 -0.017401 0
M  V30 674 H 66.2875 -2.93553 -2.29471 0
M  V30 675 H 66.4005 -4.58615 -1.38598 0
M  V30 676 H 64.7645 -2.40834 -0.828912 0
M  V30 677 H 65.5475 -3.39315 0.521561 0
M  V30 678 N 67.9926 0.231505 -1.5589 0
M  V30 679 C 69.2386 0.954429 -1.79617 0
M  V30 680 C 69.5936 1.82367 -0.613199 0
M  V30 681 O 68.8866 1.87524 0.393094 0
M  V30 682 C 69.0806 1.83577 -3.0665 0
M  V30 683 C 68.9096 1.05334 -4.3719 0
M  V30 684 C 67.6796 0.75225 -4.99669 0
M  V30 685 C 69.8776 0.423444 -5.12554 0
M  V30 686 N 67.8596 -0.052627 -6.13877 0
M  V30 687 C 69.2306 -0.245287 -6.19515 0
M  V30 688 C 71.2856 0.335466 -4.96769 0
M  V30 689 C 69.9886 -0.993566 -7.12405 0
M  V30 690 C 72.0146 -0.399321 -5.9005 0
M  V30 691 C 71.3766 -1.05663 -6.9643 0
M  V30 692 H 67.4756 0.329846 -0.709031 0
M  V30 693 H 70.0596 0.226172 -1.93382 0
M  V30 694 H 68.2306 2.53592 -2.94186 0
M  V30 695 H 69.9626 2.49541 -3.18608 0
M  V30 696 H 66.7176 1.06783 -4.61405 0
M  V30 697 H 67.1416 -0.443609 -6.75545 0
M  V30 698 H 71.7836 0.829311 -4.14587 0
M  V30 699 H 69.5016 -1.49896 -7.94076 0
M  V30 700 H 73.0876 -0.468265 -5.79913 0
M  V30 701 H 71.9676 -1.61612 -7.67366 0
M  V30 702 N 69.4707 1.49531 0.497807 0
M  V30 703 C 70.7477 1.49682 1.25915 0
M  V30 704 C 71.1277 0.226339 2.09883 0
M  V30 705 O 70.4757 -0.791189 2.14365 0
M  V30 706 C 70.6857 2.77755 2.11313 0
M  V30 707 C 72.0337 3.27371 2.70395 0
M  V30 708 O 73.0577 2.78894 2.21578 0
M  V30 709 O 71.9167 4.11808 3.59272 0
M  V30 710 H 69.0107 0.599228 0.56996 0
M  V30 711 H 71.5567 1.61798 0.511816 0
M  V30 712 H 70.3287 3.61713 1.49264 0
M  V30 713 H 69.9517 2.68515 2.93233 0
M  V30 714 N 70.9488 -0.749086 1.3866 0
M  V30 715 C 72.1978 -1.50371 1.3443 0
M  V30 716 C 72.5108 -1.95503 -0.0616397 0
M  V30 717 O 73.7168 -2.70554 -0.226489 0
M  V30 718 C 72.1728 -2.71644 2.36088 0
M  V30 719 C 71.7808 -2.3352 3.82325 0
M  V30 720 C 73.5248 -3.49518 2.40909 0
M  V30 721 C 71.4318 -3.51431 4.75658 0
M  V30 722 H 70.3618 -0.564628 0.499712 0
M  V30 723 H 73.0128 -0.818449 1.64237 0
M  V30 724 H 71.3948 -3.42175 1.9933 0
M  V30 725 H 72.5688 -1.70627 4.28046 0
M  V30 726 H 70.8838 -1.6877 3.80665 0
M  V30 727 H 73.4808 -4.37197 3.07836 0
M  V30 728 H 73.8238 -3.90992 1.42937 0
M  V30 729 H 74.3568 -2.86005 2.76489 0
M  V30 730 H 71.0958 -3.15019 5.74842 0
M  V30 731 H 70.6158 -4.13352 4.34627 0
M  V30 732 H 72.2948 -4.17953 4.93887 0
M  V30 733 N 72.4269 -1.23603 -0.977757 0
M  V30 734 C 73.6729 -1.07129 -1.72195 0
M  V30 735 C 74.0059 0.390501 -1.90233 0
M  V30 736 O 73.2809 1.28902 -1.45653 0
M  V30 737 C 73.5639 -1.80031 -3.11867 0
M  V30 738 C 73.4169 -3.33899 -3.01383 0
M  V30 739 C 74.7359 -1.56492 -4.11337 0
M  V30 740 H 71.8549 -0.390571 -0.624999 0
M  V30 741 H 74.4969 -1.52142 -1.13811 0
M  V30 742 H 72.6469 -1.41768 -3.6171 0
M  V30 743 H 74.3189 -3.81699 -2.59043 0
M  V30 744 H 72.5619 -3.62796 -2.37827 0
M  V30 745 H 73.2329 -3.801 -4.00285 0
M  V30 746 H 75.7089 -1.89757 -3.70313 0
M  V30 747 H 74.5849 -2.09973 -5.07151 0
M  V30 748 H 74.8459 -0.500874 -4.39254 0
M  V30 749 N 73.905 1.17692 -1.04816 0
M  V30 750 C 74.835 2.23777 -0.666791 0
M  V30 751 C 75.816 1.66796 0.33361 0
M  V30 752 O 77.001 1.93039 0.212042 0
M  V30 753 C 74.131 3.47281 -0.0367933 0
M  V30 754 C 73.085 4.17059 -0.961546 0
M  V30 755 C 72.411 5.34342 -0.195626 0
M  V30 756 C 73.711 4.69713 -2.28402 0
M  V30 757 H 75.405 2.55933 -1.55367 0
M  V30 758 H 72.951 1.23019 -0.748484 0
M  V30 759 H 74.904 4.20706 0.241775 0
M  V30 760 H 73.628 3.14381 0.885004 0
M  V30 761 H 72.287 3.45541 -1.22462 0
M  V30 762 H 71.935 4.97692 0.728816 0
M  V30 763 H 71.635 5.81966 -0.811775 0
M  V30 764 H 73.159 6.10553 0.0757473 0
M  V30 765 H 74.573 5.34794 -2.06563 0
M  V30 766 H 72.97 5.279 -2.8538 0
M  V30 767 H 74.04 3.86726 -2.92525 0
M  V30 768 N 75.3831 0.828654 1.34056 0
M  V30 769 C 76.6231 0.425394 1.99924 0
M  V30 770 C 76.9871 -0.994294 1.64249 0
M  V30 771 O 78.1881 -1.50074 2.23005 0
M  V30 772 C 76.4591 0.628071 3.51838 0
M  V30 773 S 78.0181 0.318511 4.37642 0
M  V30 774 H 74.8361 0.160465 0.692656 0
M  V30 775 H 77.4381 1.07572 1.63244 0
M  V30 776 H 76.1421 1.66089 3.7529 0
M  V30 777 H 75.6731 -0.0367799 3.93383 0
M  V30 778 H 77.6881 -0.865632 4.88591 0
M  V30 779 N 76.8612 -1.46375 0.584142 0
M  V30 780 C 78.0892 -2.06761 0.0759296 0
M  V30 781 C 78.5042 -1.43266 -1.22965 0
M  V30 782 O 77.8612 -0.538458 -1.74376 0
M  V30 783 C 77.9122 -3.61375 -0.0950384 0
M  V30 784 O 77.6332 -4.22495 1.15887 0
M  V30 785 C 79.1342 -4.38693 -0.637434 0
M  V30 786 H 76.3542 -0.668479 0.0581075 0
M  V30 787 H 78.8982 -1.8798 0.805218 0
M  V30 788 H 77.0532 -3.79578 -0.774554 0
M  V30 789 H 77.4672 -5.15385 0.973598 0
M  V30 790 H 78.9412 -5.47464 -0.706237 0
M  V30 791 H 79.4182 -4.06836 -1.65472 0
M  V30 792 H 80.0242 -4.25299 0.00725967 0
M  V30 793 N 78.3393 -0.321999 -1.54275 0
M  V30 794 C 79.5643 0.285791 -2.05422 0
M  V30 795 C 79.9893 1.45124 -1.19669 0
M  V30 796 O 79.3473 1.80132 -0.205441 0
M  V30 797 C 79.3953 0.69956 -3.53749 0
M  V30 798 O 78.4993 1.8021 -3.70942 0
M  V30 799 H 77.8403 0.0518962 -0.661969 0
M  V30 800 H 80.3703 -0.469954 -1.9913 0
M  V30 801 H 80.3803 0.982649 -3.9599 0
M  V30 802 H 79.0553 -0.152864 -4.15619 0
M  V30 803 H 77.6323 1.51794 -3.40607 0
M  V30 804 N 79.8174 1.5752 -0.0501392 0
M  V30 805 C 81.0654 1.9227 0.622642 0
M  V30 806 C 81.3864 0.929083 1.71444 0
M  V30 807 O 80.6564 -0.0262186 1.95882 0
M  V30 808 H 79.2364 0.709739 0.232981 0
M  V30 809 H 81.8984 1.94628 -0.102898 0
M  V30 810 H 80.9944 2.93479 1.06191 0
M  V30 811 N 81.2955 -0.223234 1.56011 0
M  V30 812 C 82.5235 -0.964812 1.83027 0
M  V30 813 C 82.9385 -1.78013 0.62904 0
M  V30 814 O 82.2955 -1.78008 -0.402414 0
M  V30 815 C 82.3465 -1.88373 3.08542 0
M  V30 816 O 82.0675 -1.10137 4.2403 0
M  V30 817 C 83.5685 -2.73934 3.48533 0
M  V30 818 H 80.7885 -0.282842 0.608475 0
M  V30 819 H 83.3325 -0.238971 2.03099 0
M  V30 820 H 81.4875 -2.56354 2.9045 0
M  V30 821 H 81.9015 -1.72501 4.95322 0
M  V30 822 H 83.3755 -3.34117 4.39397 0
M  V30 823 H 83.8525 -3.46244 2.70207 0
M  V30 824 H 84.4585 -2.11369 3.69057 0
M  V30 825 N 82.7736 -1.49793 -0.48987 0
M  V30 826 C 83.7036 -1.70201 -1.59856 0
M  V30 827 C 84.6846 -0.55076 -1.60937 0
M  V30 828 O 85.8696 -0.787841 -1.77501 0
M  V30 829 C 82.9996 -1.77882 -2.98287 0
M  V30 830 C 81.9536 -2.92907 -3.12073 0
M  V30 831 C 81.2796 -2.85712 -4.51965 0
M  V30 832 C 82.5796 -4.3369 -2.91051 0
M  V30 833 H 84.2736 -2.63025 -1.43032 0
M  V30 834 H 81.8196 -1.26574 -0.686664 0
M  V30 835 H 83.7726 -1.90744 -3.75759 0
M  V30 836 H 82.4966 -0.816653 -3.16225 0
M  V30 837 H 81.1556 -2.79665 -2.37029 0
M  V30 838 H 80.8036 -1.8738 -4.66795 0
M  V30 839 H 80.5036 -3.62921 -4.62128 0
M  V30 840 H 82.0276 -3.00598 -5.31482 0
M  V30 841 H 83.4416 -4.47555 -3.58284 0
M  V30 842 H 81.8386 -5.12205 -3.12675 0
M  V30 843 H 82.9086 -4.47362 -1.87071 0
M  V30 844 N 84.2517 0.741722 -1.39055 0
M  V30 845 C 85.5007 1.49656 -1.35225 0
M  V30 846 C 85.8137 1.95533 0.0512708 0
M  V30 847 O 87.0197 2.7067 0.212138 0
M  V30 848 C 85.4757 2.70389 -2.37525 0
M  V30 849 C 85.0837 2.31489 -3.83558 0
M  V30 850 C 86.8277 3.48236 -2.42759 0
M  V30 851 C 84.7347 3.48903 -4.77515 0
M  V30 852 H 83.6647 0.56197 -0.502699 0
M  V30 853 H 86.3157 0.809727 -1.64668 0
M  V30 854 H 84.6977 3.41113 -2.01142 0
M  V30 855 H 85.8717 1.68354 -4.28945 0
M  V30 856 H 84.1867 1.66749 -3.81554 0
M  V30 857 H 86.7837 4.35558 -3.1015 0
M  V30 858 H 87.1267 3.90229 -1.45008 0
M  V30 859 H 87.6597 2.84535 -2.78002 0
M  V30 860 H 84.3987 3.11966 -5.76504 0
M  V30 861 H 83.9187 4.11041 -4.36813 0
M  V30 862 H 85.5977 4.15328 -4.96096 0
M  V30 863 N 85.7298 1.2412 0.971189 0
M  V30 864 C 86.9548 1.10667 1.75407 0
M  V30 865 C 87.3798 -0.337048 1.85056 0
M  V30 866 O 86.7378 -1.24396 1.31892 0
M  V30 867 C 86.7858 1.74726 3.15441 0
M  V30 868 O 85.8898 1.01566 3.99697 0
M  V30 869 H 85.2308 0.387341 0.539317 0
M  V30 870 H 87.7608 1.64358 1.2185 0
M  V30 871 H 87.7708 1.80341 3.6598 0
M  V30 872 H 86.4458 2.79773 3.07734 0
M  V30 873 H 85.0228 1.03713 3.58187 0
M  V30 874 N 87.2079 -1.17134 1.05439 0
M  V30 875 C 88.4479 -1.89137 0.77502 0
M  V30 876 C 88.8119 -1.79345 -0.685526 0
M  V30 877 O 90.0129 -2.46188 -1.0791 0
M  V30 878 C 88.2839 -3.35003 1.2453 0
M  V30 879 S 89.8429 -4.24952 1.09367 0
M  V30 880 H 86.6609 -0.652949 0.281387 0
M  V30 881 H 89.2629 -1.4145 1.34953 0
M  V30 882 H 87.9669 -3.39666 2.30338 0
M  V30 883 H 87.4979 -3.87736 0.665166 0
M  V30 884 H 89.5129 -4.96196 0.0193397 0
M  V30 885 N 88.686 -0.835752 -1.33615 0
M  V30 886 C 89.596 -0.269088 -2.33052 0
M  V30 887 C 90.612 0.603251 -1.63208 0
M  V30 888 O 91.788 0.508112 -1.94885 0
M  V30 889 C 88.853 0.549091 -3.42324 0
M  V30 890 C 87.914 -0.347156 -4.27894 0
M  V30 891 C 87.147 0.43207 -5.31948 0
M  V30 892 O 87.37 1.66409 -5.45586 0
M  V30 893 O 86.304 -0.192298 -6.01593 0
M  V30 894 H 90.13 -1.09243 -2.83372 0
M  V30 895 H 87.715 -0.598198 -1.36901 0
M  V30 896 H 89.597 1.01414 -4.09015 0
M  V30 897 H 88.272 1.34955 -2.94226 0
M  V30 898 H 87.179 -0.859979 -3.64081 0
M  V30 899 H 88.512 -1.1123 -4.79467 0
M  V30 900 N 90.1641 1.46063 -0.591896 0
M  V30 901 C 91.1121 2.32124 0.148739 0
M  V30 902 C 92.1061 1.45035 0.875286 0
M  V30 903 O 93.3121 1.61609 0.792632 0
M  V30 904 H 89.6871 0.749024 0.066832 0
M  V30 905 H 91.6581 2.92392 -0.595783 0
M  V30 906 C 90.4071 3.28373 1.1431 0
M  V30 907 H 89.7301 3.95371 0.59346 0
M  V30 908 H 91.1701 3.91352 1.63155 0
M  V30 909 C 89.6291 2.54393 2.20875 0
M  V30 910 O 90.1591 2.31373 3.28374 0
M  V30 911 N 88.3651 2.14797 1.95731 0
M  V30 912 H 87.9121 2.33719 1.08319 0
M  V30 913 H 87.8701 1.65619 2.67241 0
M  V30 914 N 91.6422 0.330177 1.54103 0
M  V30 915 C 92.6052 -0.520144 2.2322 0
M  V30 916 C 93.6052 -1.03828 1.22786 0
M  V30 917 O 94.7952 -0.929652 1.4732 0
M  V30 918 C 91.9272 -1.72317 2.94142 0
M  V30 919 H 93.1202 0.0841605 2.99782 0
M  V30 920 H 90.6732 0.0813433 1.56088 0
M  V30 921 H 91.4082 -2.36653 2.21734 0
M  V30 922 H 91.1932 -1.35898 3.67796 0
M  V30 923 H 92.6832 -2.3266 3.46784 0
M  V30 924 N 93.1203 -1.57491 0.0584922 0
M  V30 925 C 94.3693 -1.92155 -0.613146 0
M  V30 926 C 94.6823 -0.939334 -1.71569 0
M  V30 927 O 95.8883 -1.17829 -2.44599 0
M  V30 928 C 94.3443 -3.41303 -1.14195 0
M  V30 929 C 93.9523 -4.47944 -0.0711265 0
M  V30 930 C 95.6963 -3.84988 -1.78841 0
M  V30 931 C 93.6033 -5.88212 -0.613225 0
M  V30 932 H 92.5333 -0.717162 -0.232796 0
M  V30 933 H 95.1843 -1.83049 0.12857 0
M  V30 934 H 93.5663 -3.45437 -1.93621 0
M  V30 935 H 94.7403 -4.55408 0.702836 0
M  V30 936 H 93.0553 -4.13644 0.478313 0
M  V30 937 H 95.6523 -4.87159 -2.20408 0
M  V30 938 H 95.9953 -3.21632 -2.64308 0
M  V30 939 H 96.5283 -3.83401 -1.06059 0
M  V30 940 H 93.2673 -6.55183 0.203978 0
M  V30 941 H 92.7873 -5.84294 -1.35501 0
M  V30 942 H 94.4663 -6.37687 -1.09383 0
M  V30 943 N 94.5984 0.214957 -1.56127 0
M  V30 944 C 95.8444 0.939762 -1.79712 0
M  V30 945 C 96.1774 1.83723 -0.629247 0
M  V30 946 O 95.4524 1.90925 0.371197 0
M  V30 947 C 95.7354 1.77306 -3.13424 0
M  V30 948 C 95.5884 0.90164 -4.40671 0
M  V30 949 C 96.9074 2.74956 -3.43638 0
M  V30 950 H 94.0264 0.340214 -0.653776 0
M  V30 951 H 96.6684 0.20824 -1.88855 0
M  V30 952 H 94.8184 2.39673 -3.0576 0
M  V30 953 H 96.4904 0.294206 -4.60361 0
M  V30 954 H 94.7334 0.207368 -4.33304 0
M  V30 955 H 95.4044 1.51923 -5.30682 0
M  V30 956 H 97.8804 2.22724 -3.51473 0
M  V30 957 H 96.7564 3.30358 -4.38355 0
M  V30 958 H 97.0174 3.53023 -2.66134 0
M  V30 959 N 96.0765 1.50051 0.48192 0
M  V30 960 C 97.3225 1.60736 1.2366 0
M  V30 961 C 97.6555 0.301786 1.91841 0
M  V30 962 O 96.9305 -0.696025 1.8162 0
M  V30 963 C 97.2135 2.78009 2.28874 0
M  V30 964 C 97.0665 4.18416 1.65069 0
M  V30 965 C 98.3855 2.90867 3.30279 0
M  V30 966 H 95.5045 0.585031 0.448228 0
M  V30 967 H 98.1465 1.82402 0.531946 0
M  V30 968 H 96.2965 2.59667 2.88973 0
M  V30 969 H 97.9685 4.48322 1.0865 0
M  V30 970 H 96.2115 4.23177 0.954148 0
M  V30 971 H 96.8825 4.96381 2.41474 0
M  V30 972 H 99.3585 3.07623 2.80191 0
M  V30 973 H 98.2345 3.74566 4.01238 0
M  V30 974 H 98.4955 2.01021 3.93755 0
M  V30 975 N 97.5546 -0.734337 1.39446 0
M  V30 976 C 98.4846 -1.86155 1.40955 0
M  V30 977 C 99.4656 -1.67898 0.272827 0
M  V30 978 O 100.651 -1.88207 0.478743 0
M  V30 979 C 97.7806 -3.23912 1.25294 0
M  V30 980 C 96.7346 -3.56808 2.36373 0
M  V30 981 C 96.0606 -4.93508 2.058 0
M  V30 982 C 97.3606 -3.59713 3.78687 0
M  V30 983 H 99.0546 -1.8515 2.35287 0
M  V30 984 H 96.6006 -0.889367 1.13253 0
M  V30 985 H 98.5536 -4.02443 1.2497 0
M  V30 986 H 97.2776 -3.25446 0.274308 0
M  V30 987 H 95.9366 -2.80606 2.35914 0
M  V30 988 H 95.5846 -4.91623 1.06374 0
M  V30 989 H 95.2846 -5.16486 2.80208 0
M  V30 990 H 96.8086 -5.74396 2.07128 0
M  V30 991 H 98.2226 -4.2832 3.81071 0
M  V30 992 H 96.6196 -3.94209 4.52459 0
M  V30 993 H 97.6896 -2.59504 4.09617 0
M  V30 994 N 99.0327 -1.24633 -0.964593 0
M  V30 995 C 100.282 -1.08188 -1.7023 0
M  V30 996 C 100.595 0.37873 -1.91898 0
M  V30 997 O 101.801 0.663427 -2.6327 0
M  V30 998 C 100.257 -1.88773 -3.06419 0
M  V30 999 C 99.8647 -3.39263 -2.92582 0
M  V30 1000 C 101.609 -1.80867 -3.84041 0
M  V30 1001 C 99.5157 -4.1218 -4.24101 0
M  V30 1002 H 98.4457 -0.401245 -0.638372 0
M  V30 1003 H 101.097 -1.48742 -1.07462 0
M  V30 1004 H 99.4787 -1.41035 -3.70034 0
M  V30 1005 H 100.653 -3.94603 -2.37961 0
M  V30 1006 H 98.9677 -3.48154 -2.28424 0
M  V30 1007 H 101.565 -2.32646 -4.81435 0
M  V30 1008 H 101.908 -0.774543 -4.09031 0
M  V30 1009 H 102.441 -2.26301 -3.27159 0
M  V30 1010 H 99.1797 -5.15965 -4.04303 0
M  V30 1011 H 98.6997 -3.61626 -4.78526 0
M  V30 1012 H 100.379 -4.19349 -4.92702 0
M  V30 1013 N 100.511 1.16574 -1.06058 0
M  V30 1014 C 101.76 1.86385 -0.770944 0
M  V30 1015 C 102.073 1.82448 0.705129 0
M  V30 1016 O 103.279 2.47815 1.10905 0
M  V30 1017 C 101.735 3.34466 -1.32893 0
M  V30 1018 C 101.343 3.46883 -2.83507 0
M  V30 1019 C 103.087 4.09548 -1.11672 0
M  V30 1020 C 100.994 4.89036 -3.32562 0
M  V30 1021 H 99.9238 0.698181 -0.284709 0
M  V30 1022 H 102.575 1.31583 -1.27899 0
M  V30 1023 H 100.957 3.88859 -0.748662 0
M  V30 1024 H 102.131 3.02663 -3.47465 0
M  V30 1025 H 100.446 2.85232 -3.03368 0
M  V30 1026 H 103.043 5.14434 -1.45814 0
M  V30 1027 H 103.386 4.16264 -0.0549535 0
M  V30 1028 H 103.919 3.61387 -1.66265 0
M  V30 1029 H 100.658 4.87499 -4.38207 0
M  V30 1030 H 100.178 5.3389 -2.73351 0
M  V30 1031 H 101.857 5.57843 -3.2775 0
M  V30 1032 N 101.989 0.842826 1.3317 0
M  V30 1033 C 103.236 0.440447 1.97652 0
M  V30 1034 C 103.564 -1.00123 1.6675 0
M  V30 1035 O 102.819 -1.7155 0.941761 0
M  V30 1036 C 103.118 0.612607 3.52111 0
M  V30 1037 C 102.784 2.02297 4.02972 0
M  V30 1038 C 101.446 2.40874 4.16573 0
M  V30 1039 C 103.798 2.94402 4.30089 0
M  V30 1040 C 101.126 3.70852 4.54627 0
M  V30 1041 C 103.478 4.23865 4.69597 0
M  V30 1042 C 102.142 4.62392 4.81404 0
M  V30 1043 H 101.412 0.161171 0.72326 0
M  V30 1044 H 104.059 1.07061 1.58777 0
M  V30 1045 H 102.364 -0.100849 3.9167 0
M  V30 1046 H 104.061 0.2815 4.00011 0
M  V30 1047 H 100.651 1.71338 3.92863 0
M  V30 1048 H 104.835 2.65835 4.19101 0
M  V30 1049 H 100.091 4.00501 4.61962 0
M  V30 1050 H 104.265 4.95306 4.89536 0
M  V30 1051 H 101.892 5.63154 5.10648 0
M  V30 1052 N 103.467 -1.45747 0.599634 0
M  V30 1053 C 104.417 -2.27538 -0.145107 0
M  V30 1054 C 105.401 -1.3686 -0.846055 0
M  V30 1055 O 106.593 -1.6091 -0.737357 0
M  V30 1056 C 103.722 -3.23569 -1.14708 0
M  V30 1057 C 102.808 -4.21734 -0.447383 0
M  V30 1058 N 103.199 -5.03257 0.506535 0
M  V30 1059 C 101.497 -4.40536 -0.695966 0
M  V30 1060 C 102.198 -5.74426 0.917068 0
M  V30 1061 N 101.174 -5.42966 0.26253 0
M  V30 1062 H 104.976 -2.87965 0.587672 0
M  V30 1063 H 102.49 -1.56803 0.422697 0
M  V30 1064 H 104.487 -3.8089 -1.69495 0
M  V30 1065 H 103.147 -2.64702 -1.8805 0
M  V30 1066 H 104.158 -5.10319 0.882899 0
M  V30 1067 H 100.835 -3.92802 -1.41467 0
M  V30 1068 H 102.225 -6.4995 1.70338 0
M  V30 1069 N 104.945 -0.338344 -1.53925 0
M  V30 1070 C 105.893 0.536231 -2.26335 0
M  V30 1071 C 106.887 1.1063 -1.28286 0
M  V30 1072 O 108.093 1.05264 -1.46012 0
M  V30 1073 H 104.468 0.191602 -0.727181 0
M  V30 1074 H 106.439 -0.0965747 -2.98244 0
M  V30 1075 C 105.188 1.67803 -3.04528 0
M  V30 1076 H 104.511 1.24864 -3.79801 0
M  V30 1077 H 105.951 2.26526 -3.58416 0
M  V30 1078 C 104.41 2.60439 -2.13712 0
M  V30 1079 O 104.94 3.6255 -1.72975 0
M  V30 1080 N 103.146 2.29006 -1.78898 0
M  V30 1081 H 102.693 1.46011 -2.12223 0
M  V30 1082 H 102.651 2.91248 -1.18416 0
M  V30 1083 N 106.423 1.57458 -0.0668435 0
M  V30 1084 C 107.834 1.80776 0.466558 0
M  V30 1085 C 108.185 0.980361 1.69951 0
M  V30 1086 O 107.31 0.201441 2.1546 0
M  V30 1087 C 107.905 3.27881 0.85321 0
M  V30 1088 C 106.464 3.52062 1.3315 0
M  V30 1089 C 105.611 2.75513 0.314264 0
M  V30 1090 H 108.562 1.5598 -0.292588 0
M  V30 1091 H 108.583 3.39659 1.715 0
M  V30 1092 H 108.095 3.88075 -0.0443439 0
M  V30 1093 H 106.196 2.97167 2.24772 0
M  V30 1094 H 106.309 4.60762 1.31285 0
M  V30 1095 H 104.673 2.42123 0.790492 0
M  V30 1096 H 105.456 3.38442 -0.575477 0
M  V30 1097 N 107.901 -0.206675 1.56239 0
M  V30 1098 C 109.126 -0.949474 1.8439 0
M  V30 1099 C 109.551 -1.76549 0.649016 0
M  V30 1100 O 108.909 -1.76782 -0.402231 0
M  V30 1101 C 108.957 -1.83078 3.10668 0
M  V30 1102 O 108.061 -2.9281 2.90407 0
M  V30 1103 H 107.402 -0.268033 0.607499 0
M  V30 1104 H 109.932 -0.215488 2.03462 0
M  V30 1105 H 109.942 -2.2377 3.41161 0
M  V30 1106 H 108.617 -1.23112 3.97261 0
M  V30 1107 H 107.194 -2.55956 2.71184 0
M  V30 1108 N 109.379 -1.50304 -0.473955 0
M  V30 1109 C 110.309 -1.71886 -1.58042 0
M  V30 1110 C 111.29 -0.567799 -1.60344 0
M  V30 1111 O 112.475 -0.806623 -1.76656 0
M  V30 1112 C 109.605 -1.81036 -2.96384 0
M  V30 1113 C 108.559 -2.962 -3.08949 0
M  V30 1114 C 107.885 -2.9049 -4.48909 0
M  V30 1115 C 109.185 -4.36752 -2.86434 0
M  V30 1116 H 110.879 -2.64527 -1.40234 0
M  V30 1117 H 108.425 -1.27295 -0.673201 0
M  V30 1118 H 110.378 -1.94719 -3.73714 0
M  V30 1119 H 109.102 -0.850147 -3.15341 0
M  V30 1120 H 107.761 -2.82164 -2.3405 0
M  V30 1121 H 107.409 -1.92321 -4.64781 0
M  V30 1122 H 107.109 -3.67802 -4.58253 0
M  V30 1123 H 108.633 -3.06218 -5.28264 0
M  V30 1124 H 110.047 -4.5133 -3.53517 0
M  V30 1125 H 108.444 -5.15493 -3.07225 0
M  V30 1126 H 109.514 -4.49321 -1.82316 0
M  V30 1127 N 110.857 0.726932 -1.39834 0
M  V30 1128 C 112.273 1.03354 -1.21615 0
M  V30 1129 C 112.473 2.01327 -0.08338 0
M  V30 1130 O 111.529 2.46158 0.56238 0
M  V30 1131 C 112.842 1.58811 -2.55342 0
M  V30 1132 C 114.39 1.70851 -2.62257 0
M  V30 1133 C 114.865 2.29716 -3.96225 0
M  V30 1134 N 116.356 2.37116 -3.97907 0
M  V30 1135 C 117.091 2.83619 -4.98345 0
M  V30 1136 N 116.587 3.29958 -6.09179 0
M  V30 1137 N 118.38 2.82901 -4.8572 0
M  V30 1138 H 110.531 0.0773069 -2.12259 0
M  V30 1139 H 112.794 0.0969102 -0.943034 0
M  V30 1140 H 112.5 0.942855 -3.38826 0
M  V30 1141 H 112.374 2.57502 -2.75632 0
M  V30 1142 H 114.761 2.34497 -1.79152 0
M  V30 1143 H 114.842 0.707913 -2.45809 0
M  V30 1144 H 114.486 1.66696 -4.79765 0
M  V30 1145 H 114.416 3.30469 -4.09997 0
M  V30 1146 H 116.907 2.04374 -3.17868 0
M  V30 1147 H 117.22 3.63976 -6.8172 0
M  V30 1148 H 115.565 3.27946 -6.12761 0
M  V30 1149 H 118.756 2.46027 -3.98231 0
M  V30 1150 H 118.929 3.18827 -5.6414 0
M  V30 1151 N 112.336 1.25143 0.95797 0
M  V30 1152 C 113.299 1.05321 2.03569 0
M  V30 1153 C 114.299 0.007152 1.60798 0
M  V30 1154 O 115.489 0.24903 1.72411 0
M  V30 1155 C 112.621 0.598394 3.35607 0
M  V30 1156 H 113.814 2.00986 2.22586 0
M  V30 1157 H 111.367 1.07502 1.13459 0
M  V30 1158 H 112.102 -0.361014 3.22284 0
M  V30 1159 H 111.887 1.35351 3.67998 0
M  V30 1160 H 113.377 0.48104 4.1482 0
M  V30 1161 N 113.814 -1.1601 1.06675 0
M  V30 1162 C 115.225 -1.68235 0.809565 0
M  V30 1163 C 115.576 -1.8454 -0.666303 0
M  V30 1164 O 114.701 -1.54374 -1.5165 0
M  V30 1165 C 115.296 -3.05585 1.46299 0
M  V30 1166 C 113.855 -3.54915 1.25349 0
M  V30 1167 C 113.002 -2.30804 1.53703 0
M  V30 1168 H 115.953 -1.00318 1.22971 0
M  V30 1169 H 115.974 -3.70174 0.880431 0
M  V30 1170 H 115.486 -2.93686 2.53713 0
M  V30 1171 H 113.587 -3.72067 0.199261 0
M  V30 1172 H 113.7 -4.36774 1.9689 0
M  V30 1173 H 112.064 -2.36007 0.957739 0
M  V30 1174 H 112.847 -2.21499 2.62284 0
M  V30 1175 N 115.292 -0.849877 -1.32721 0
M  V30 1176 C 116.225 -0.235903 -2.26977 0
M  V30 1177 C 117.203 0.623355 -1.50177 0
M  V30 1178 O 118.387 0.581207 -1.79316 0
M  V30 1179 C 115.514 0.667712 -3.32053 0
M  V30 1180 C 114.56 -0.11753 -4.26338 0
M  V30 1181 S 115.393 -1.48277 -5.14562 0
M  V30 1182 C 116.549 -0.584741 -6.23163 0
M  V30 1183 H 116.782 -1.03495 -2.78704 0
M  V30 1184 H 114.315 -0.64724 -1.40179 0
M  V30 1185 H 116.273 1.18343 -3.93072 0
M  V30 1186 H 114.934 1.44052 -2.7912 0
M  V30 1187 H 114.127 0.57051 -5.00761 0
M  V30 1188 H 113.729 -0.564668 -3.69713 0
M  V30 1189 H 116.021 0.212968 -6.77165 0
M  V30 1190 H 116.964 -1.29947 -6.96074 0
M  V30 1191 H 117.372 -0.161202 -5.6427 0
M  V30 1192 N 116.77 1.45427 -0.607355 0
M  V30 1193 C 118.017 2.02241 -0.102455 0
M  V30 1194 C 118.345 1.4758 1.26691 0
M  V30 1195 O 117.6 0.640468 1.84923 0
M  V30 1196 C 117.899 3.57398 -0.0129263 0
M  V30 1197 C 117.565 4.3121 -1.31792 0
M  V30 1198 C 116.227 4.51092 -1.67539 0
M  V30 1199 C 118.579 4.73401 -2.18039 0
M  V30 1200 C 115.907 5.10422 -2.89285 0
M  V30 1201 C 118.259 5.34078 -3.39034 0
M  V30 1202 C 116.923 5.52184 -3.75033 0
M  V30 1203 H 116.193 0.740051 -0.037491 0
M  V30 1204 H 118.84 1.74494 -0.788926 0
M  V30 1205 H 117.145 3.84421 0.756806 0
M  V30 1206 H 118.842 3.99061 0.393881 0
M  V30 1207 H 115.432 4.16047 -1.02968 0
M  V30 1208 H 119.616 4.57774 -1.91721 0
M  V30 1209 H 114.872 5.22629 -3.17283 0
M  V30 1210 H 119.046 5.65724 -4.06115 0
M  V30 1211 H 116.673 5.97925 -4.69457 0
M  V30 1212 N 118.248 0.346503 1.53744 0
M  V30 1213 C 119.178 -0.501193 2.28058 0
M  V30 1214 C 120.159 -1.10014 1.29734 0
M  V30 1215 O 121.344 -1.12097 1.58581 0
M  V30 1216 C 118.474 -1.65078 3.05559 0
M  V30 1217 C 117.428 -1.18003 4.11411 0
M  V30 1218 C 116.754 -2.41837 4.76884 0
M  V30 1219 C 118.054 -0.278394 5.21558 0
M  V30 1220 H 119.748 0.11875 2.99164 0
M  V30 1221 H 117.294 0.0585531 1.43881 0
M  V30 1222 H 119.247 -2.25028 3.56287 0
M  V30 1223 H 117.971 -2.29767 2.32109 0
M  V30 1224 H 116.63 -0.603331 3.61601 0
M  V30 1225 H 116.278 -3.0494 4.00026 0
M  V30 1226 H 115.978 -2.1102 5.48402 0
M  V30 1227 H 117.502 -3.02508 5.30397 0
M  V30 1228 H 118.916 -0.784823 5.67903 0
M  V30 1229 H 117.313 -0.0619707 6.00068 0
M  V30 1230 H 118.383 0.684677 4.80042 0
M  V30 1231 N 119.726 -1.57421 0.075193 0
M  V30 1232 C 120.656 -2.15942 -0.888324 0
M  V30 1233 C 121.637 -1.08737 -1.30806 0
M  V30 1234 O 122.822 -1.36787 -1.37851 0
M  V30 1235 C 119.952 -2.72379 -2.1547 0
M  V30 1236 C 118.906 -3.8478 -1.87425 0
M  V30 1237 C 118.232 -4.27834 -3.20721 0
M  V30 1238 C 119.532 -5.08869 -1.17684 0
M  V30 1239 H 121.226 -2.96705 -0.400799 0
M  V30 1240 H 118.772 -1.42723 -0.191342 0
M  V30 1241 H 120.725 -3.11965 -2.83295 0
M  V30 1242 H 119.449 -1.88841 -2.6647 0
M  V30 1243 H 118.108 -3.45703 -1.22004 0
M  V30 1244 H 117.756 -3.41214 -3.6957 0
M  V30 1245 H 117.456 -5.03605 -3.02746 0
M  V30 1246 H 118.98 -4.70039 -3.89738 0
M  V30 1247 H 120.394 -5.4575 -1.75584 0
M  V30 1248 H 118.791 -5.8994 -1.09956 0
M  V30 1249 H 119.861 -4.84648 -0.156453 0
M  V30 1250 N 121.204 0.198386 -1.56346 0
M  V30 1251 C 122.453 0.917451 -1.79627 0
M  V30 1252 C 122.766 1.8456 -0.64784 0
M  V30 1253 O 123.972 2.60504 -0.764859 0
M  V30 1254 C 122.428 1.68175 -3.18191 0
M  V30 1255 C 122.036 0.798589 -4.40825 0
M  V30 1256 C 123.78 2.39065 -3.50782 0
M  V30 1257 C 121.687 1.56157 -5.70411 0
M  V30 1258 H 120.617 0.346317 -0.669762 0
M  V30 1259 H 123.268 0.170801 -1.82703 0
M  V30 1260 H 121.65 2.47216 -3.09354 0
M  V30 1261 H 122.824 0.0470665 -4.60776 0
M  V30 1262 H 121.139 0.200686 -4.15916 0
M  V30 1263 H 123.736 2.96692 -4.44835 0
M  V30 1264 H 124.079 3.13091 -2.74371 0
M  V30 1265 H 124.612 1.66993 -3.61052 0
M  V30 1266 H 121.351 0.864142 -6.49779 0
M  V30 1267 H 120.871 2.2871 -5.54483 0
M  V30 1268 H 122.55 2.11622 -6.11412 0
M  V30 1269 N 122.682 1.50554 0.465978 0
M  V30 1270 C 123.93 1.61479 1.21528 0
M  V30 1271 C 124.251 0.319596 1.92363 0
M  V30 1272 O 123.521 -0.663194 1.84333 0
M  V30 1273 H 122.101 0.595055 0.451573 0
M  V30 1274 H 124.763 1.87355 0.53704 0
M  V30 1275 H 123.859 2.42846 1.96042 0
M  V30 1276 N 124.16 -0.719506 1.40217 0
M  V30 1277 C 125.385 -1.51371 1.4178 0
M  V30 1278 C 125.81 -1.88091 0.0182355 0
M  V30 1279 O 125.168 -1.52997 -0.972707 0
M  V30 1280 C 125.216 -2.768 2.31115 0
M  V30 1281 O 124.32 -3.73349 1.7517 0
M  V30 1282 H 123.661 -0.456529 0.482159 0
M  V30 1283 H 126.191 -0.88644 1.844 0
M  V30 1284 H 126.201 -3.25371 2.46167 0
M  V30 1285 H 124.876 -2.49407 3.3282 0
M  V30 1286 H 123.453 -3.32179 1.69444 0
M  V30 1287 N 125.638 -1.25649 -0.95132 0
M  V30 1288 C 126.568 -1.08808 -2.06599 0
M  V30 1289 C 127.549 0.00382547 -1.701 0
M  V30 1290 O 128.734 -0.166325 -1.93486 0
M  V30 1291 C 125.864 -0.709542 -3.39975 0
M  V30 1292 C 124.818 -1.75206 -3.90496 0
M  V30 1293 C 124.144 -1.22811 -5.20405 0
M  V30 1294 C 125.444 -3.15153 -4.16504 0
M  V30 1295 H 127.138 -2.02048 -2.20946 0
M  V30 1296 H 124.684 -0.972835 -1.06169 0
M  V30 1297 H 126.637 -0.578649 -4.17408 0
M  V30 1298 H 125.361 0.258556 -3.25575 0
M  V30 1299 H 124.02 -1.87145 -3.15234 0
M  V30 1300 H 123.668 -0.250145 -5.02378 0
M  V30 1301 H 123.368 -1.92492 -5.55176 0
M  V30 1302 H 124.892 -1.10968 -6.00432 0
M  V30 1303 H 126.306 -3.06349 -4.84586 0
M  V30 1304 H 124.703 -3.82333 -4.62538 0
M  V30 1305 H 125.773 -3.61966 -3.22658 0
M  V30 1306 N 127.117 1.15442 -1.07289 0
M  V30 1307 C 128.08 2.18358 -0.696591 0
M  V30 1308 C 129.08 1.58637 0.262837 0
M  V30 1309 O 130.27 1.74145 0.0438809 0
M  V30 1310 C 127.402 3.4089 -0.0266151 0
M  V30 1311 H 128.595 2.53162 -1.60776 0
M  V30 1312 H 126.148 1.29893 -0.869342 0
M  V30 1313 H 126.883 3.11653 0.896822 0
M  V30 1314 H 126.668 3.85495 -0.716657 0
M  V30 1315 H 128.158 4.17009 0.222028 0
M  V30 1316 N 128.595 0.856903 1.32268 0
M  V30 1317 C 129.525 0.31858 2.31316 0
M  V30 1318 C 130.506 -0.583487 1.59779 0
M  V30 1319 O 131.691 -0.503259 1.87566 0
M  V30 1320 C 128.821 -0.491979 3.43798 0
M  V30 1321 C 127.775 0.315849 4.26833 0
M  V30 1322 C 127.101 -0.619586 5.31098 0
M  V30 1323 C 128.401 1.54282 4.98993 0
M  V30 1324 H 130.095 1.14621 2.76591 0
M  V30 1325 H 127.641 0.552613 1.32974 0
M  V30 1326 H 129.594 -0.879012 4.1213 0
M  V30 1327 H 128.318 -1.35299 2.97257 0
M  V30 1328 H 126.977 0.684664 3.6015 0
M  V30 1329 H 126.625 -1.47751 4.8081 0
M  V30 1330 H 126.325 -0.0830621 5.87541 0
M  V30 1331 H 127.849 -1.00375 6.02293 0
M  V30 1332 H 129.263 1.22796 5.59995 0
M  V30 1333 H 127.66 2.01745 5.65172 0
M  V30 1334 H 128.73 2.30285 4.26728 0
M  V30 1335 N 130.073 -1.45103 0.615059 0
M  V30 1336 C 131.036 -2.29025 -0.0895485 0
M  V30 1337 C 132.036 -1.40174 -0.787906 0
M  V30 1338 O 133.226 -1.62217 -0.634933 0
M  V30 1339 C 130.358 -3.21376 -1.13711 0
M  V30 1340 H 131.551 -2.92807 0.648382 0
M  V30 1341 H 129.104 -1.51749 0.374444 0
M  V30 1342 H 129.839 -2.6241 -1.90556 0
M  V30 1343 H 129.624 -3.86834 -0.640475 0
M  V30 1344 H 131.114 -3.84459 -1.63036 0
M  V30 1345 N 131.551 -0.354651 -1.53558 0
M  V30 1346 C 132.828 0.294281 -1.93374 0
M  V30 1347 C 133.208 1.67313 -1.28723 0
M  V30 1348 O 132.556 2.24179 -0.442247 0
M  V30 1349 C 132.766 0.355445 -3.47185 0
M  V30 1350 C 134.114 0.601007 -4.20325 0
M  V30 1351 O 135.138 0.437106 -3.53508 0
M  V30 1352 O 133.997 0.919322 -5.38712 0
M  V30 1353 H 131.091 0.174033 -0.808481 0
M  V30 1354 H 133.637 -0.406638 -1.64756 0
M  V30 1355 H 132.409 -0.611729 -3.86489 0
M  V30 1356 H 132.032 1.1027 -3.82003 0
M  V30 1357 N 133.029 1.57378 -0.0835403 0
M  V30 1358 C 133.959 2.1641 0.87686 0
M  V30 1359 C 134.94 1.09429 1.30228 0
M  V30 1360 O 136.125 1.37516 1.37124 0
M  V30 1361 C 133.255 2.73517 2.14022 0
M  V30 1362 C 132.209 3.85769 1.85381 0
M  V30 1363 C 131.535 4.29529 3.18448 0
M  V30 1364 C 132.835 5.09486 1.14984 0
M  V30 1365 H 134.529 2.96914 0.385059 0
M  V30 1366 H 132.075 1.42823 0.18377 0
M  V30 1367 H 134.028 3.13463 2.81636 0
M  V30 1368 H 132.752 1.90252 2.65465 0
M  V30 1369 H 131.411 3.46345 1.20169 0
M  V30 1370 H 131.059 3.43169 3.67755 0
M  V30 1371 H 130.759 5.05204 3.00071 0
M  V30 1372 H 132.283 4.72099 3.8724 0
M  V30 1373 H 133.697 5.46674 1.72687 0
M  V30 1374 H 132.094 5.90515 1.06826 0
M  V30 1375 H 133.164 4.84724 0.130749 0
M  V30 1376 N 134.507 -0.190092 1.56449 0
M  V30 1377 C 135.437 -1.23816 1.97969 0
M  V30 1378 C 136.418 -1.47201 0.852395 0
M  V30 1379 O 137.603 -1.58854 1.1171 0
M  V30 1380 C 134.733 -2.5813 2.3235 0
M  V30 1381 C 133.687 -2.49348 3.47864 0
M  V30 1382 C 133.013 -3.8798 3.67934 0
M  V30 1383 C 134.313 -2.01424 4.81898 0
M  V30 1384 H 136.007 -0.89311 2.85769 0
M  V30 1385 H 133.553 -0.428177 1.37487 0
M  V30 1386 H 135.506 -3.31637 2.59991 0
M  V30 1387 H 134.23 -2.94386 1.41438 0
M  V30 1388 H 132.889 -1.78297 3.20321 0
M  V30 1389 H 132.537 -4.21597 2.74344 0
M  V30 1390 H 132.237 -3.82978 4.45648 0
M  V30 1391 H 133.761 -4.63101 3.97957 0
M  V30 1392 H 135.175 -2.64693 5.08538 0
M  V30 1393 H 133.572 -2.07413 5.63116 0
M  V30 1394 H 134.642 -0.967677 4.75146 0
M  V30 1395 N 135.985 -1.50799 -0.457987 0
M  V30 1396 C 136.948 -1.7005 -1.53674 0
M  V30 1397 C 137.948 -0.570881 -1.50325 0
M  V30 1398 O 139.138 -0.838126 -1.52712 0
M  V30 1399 C 136.27 -1.73788 -2.93276 0
M  V30 1400 H 137.463 -2.66306 -1.37917 0
M  V30 1401 H 135.016 -1.40477 -0.685271 0
M  V30 1402 H 135.751 -0.792717 -3.14462 0
M  V30 1403 H 135.536 -2.55864 -2.97113 0
M  V30 1404 H 137.026 -1.90591 -3.71571 0
M  V30 1405 N 137.463 0.71206 -1.40597 0
M  V30 1406 C 138.711 1.46907 -1.38791 0
M  V30 1407 C 139.032 1.94998 0.00780391 0
M  V30 1408 O 138.302 1.70587 0.963174 0
M  V30 1409 H 136.882 0.545043 -0.51082 0
M  V30 1410 H 139.544 0.843882 -1.75683 0
M  V30 1411 H 138.64 2.34021 -2.06496 0
M  V30 1412 N 138.941 1.26152 0.944643 0
M  V30 1413 C 140.19 1.10883 1.68487 0
M  V30 1414 C 140.503 -0.348153 1.92477 0
M  V30 1415 O 141.709 -0.621459 2.64292 0
M  V30 1416 C 140.165 1.93624 3.03377 0
M  V30 1417 C 139.773 3.43875 2.87148 0
M  V30 1418 C 141.517 1.86954 3.81115 0
M  V30 1419 C 139.424 4.18875 4.1749 0
M  V30 1420 H 138.354 0.41135 0.631907 0
M  V30 1421 H 141.005 1.50433 1.05082 0
M  V30 1422 H 139.387 1.46904 3.67743 0
M  V30 1423 H 140.561 3.98338 2.31653 0
M  V30 1424 H 138.876 3.51744 2.22856 0
M  V30 1425 H 141.473 2.40275 4.77673 0
M  V30 1426 H 141.816 0.839518 4.07747 0
M  V30 1427 H 142.349 2.31477 3.23517 0
M  V30 1428 H 139.088 5.22332 3.96043 0
M  V30 1429 H 138.608 3.69193 4.72712 0
M  V30 1430 H 140.287 4.27134 4.85968 0
M  V30 1431 N 140.419 -1.14872 1.07899 0
M  V30 1432 C 141.667 -1.85422 0.803941 0
M  V30 1433 C 141.988 -1.83051 -0.67211 0
M  V30 1434 O 141.258 -1.27532 -1.48703 0
M  V30 1435 H 139.838 -0.686537 0.294408 0
M  V30 1436 H 142.5 -1.39226 1.3639 0
M  V30 1437 H 141.596 -2.90399 1.14346 0
M  V30 1438 N 141.898 -0.863906 -1.31812 0
M  V30 1439 C 142.828 -0.330843 -2.31144 0
M  V30 1440 C 143.809 0.575005 -1.60087 0
M  V30 1441 O 144.994 0.493304 -1.8783 0
M  V30 1442 C 142.124 0.47374 -3.44054 0
M  V30 1443 C 141.078 -0.338481 -4.26659 0
M  V30 1444 C 140.404 0.591412 -5.31419 0
M  V30 1445 C 141.704 -1.56926 -4.98168 0
M  V30 1446 H 143.398 -1.16086 -2.75979 0
M  V30 1447 H 140.944 -0.559657 -1.32679 0
M  V30 1448 H 142.897 0.857143 -4.12591 0
M  V30 1449 H 141.621 1.33721 -2.9797 0
M  V30 1450 H 140.28 -0.703754 -3.59782 0
M  V30 1451 H 139.928 1.45199 -4.81587 0
M  V30 1452 H 139.628 0.0519022 -5.87577 0
M  V30 1453 H 141.152 0.97179 -6.02817 0
M  V30 1454 H 142.566 -1.25764 -5.59336 0
M  V30 1455 H 140.963 -2.04739 -5.64094 0
M  V30 1456 H 142.033 -2.32544 -4.25501 0
M  V30 1457 N 143.376 1.44774 -0.622745 0
M  V30 1458 C 144.625 2.01334 -0.121397 0
M  V30 1459 C 144.938 1.49505 1.26125 0
M  V30 1460 O 146.144 1.98139 1.85616 0
M  V30 1461 C 144.6 3.59516 -0.166298 0
M  V30 1462 C 144.208 4.20342 -1.54974 0
M  V30 1463 C 145.952 4.23582 0.279021 0
M  V30 1464 C 143.859 5.70721 -1.55021 0
M  V30 1465 H 142.789 0.752851 -0.0416172 0
M  V30 1466 H 145.44 1.66083 -0.780309 0
M  V30 1467 H 143.822 3.92027 0.559557 0
M  V30 1468 H 144.996 3.99381 -2.29851 0
M  V30 1469 H 143.311 3.68529 -1.93843 0
M  V30 1470 H 145.908 5.33868 0.298083 0
M  V30 1471 H 146.251 3.95327 1.30471 0
M  V30 1472 H 146.784 3.95843 -0.394063 0
M  V30 1473 H 143.523 6.03698 -2.55399 0
M  V30 1474 H 143.043 5.93829 -0.844245 0
M  V30 1475 H 144.722 6.34203 -1.28047 0
M  V30 1476 N 144.854 0.36279 1.53368 0
M  V30 1477 C 146.082 -0.228613 2.05633 0
M  V30 1478 C 146.497 -1.42676 1.23649 0
M  V30 1479 O 145.854 -1.80394 0.27647 0
M  V30 1480 C 145.905 -0.624845 3.56059 0
M  V30 1481 O 145.626 0.525675 4.34935 0
M  V30 1482 C 147.127 -1.27493 4.24571 0
M  V30 1483 H 144.347 -0.0407183 0.669763 0
M  V30 1484 H 146.891 0.520352 1.97769 0
M  V30 1485 H 145.046 -1.32373 3.64083 0
M  V30 1486 H 145.46 0.205969 5.24095 0
M  V30 1487 H 146.934 -1.50277 5.31151 0
M  V30 1488 H 147.411 -2.23439 3.78116 0
M  V30 1489 H 148.017 -0.617558 4.20792 0
M  V30 1490 N 146.332 -1.57332 0.0918853 0
M  V30 1491 C 147.28 -2.15075 -0.885747 0
M  V30 1492 C 148.274 -1.09277 -1.29441 0
M  V30 1493 O 149.48 -1.27627 -1.26931 0
M  V30 1494 H 145.855 -0.687966 -0.303656 0
M  V30 1495 H 147.826 -2.96047 -0.373995 0
M  V30 1496 C 146.575 -2.74325 -2.13638 0
M  V30 1497 H 145.898 -3.55418 -1.8308 0
M  V30 1498 H 147.338 -3.183 -2.80109 0
M  V30 1499 C 145.797 -1.70062 -2.90827 0
M  V30 1500 O 146.327 -1.13763 -3.85254 0
M  V30 1501 N 144.533 -1.40628 -2.54307 0
M  V30 1502 H 144.08 -1.866 -1.7759 0
M  V30 1503 H 144.038 -0.711043 -3.06254 0
M  V30 1504 N 147.81 0.181792 -1.56548 0
M  V30 1505 C 149.057 0.900097 -1.81396 0
M  V30 1506 C 149.385 1.82695 -0.667281 0
M  V30 1507 O 148.64 1.92614 0.346146 0
M  V30 1508 C 148.939 1.73728 -3.12335 0
M  V30 1509 C 148.605 0.960255 -4.40556 0
M  V30 1510 C 147.267 0.745766 -4.75386 0
M  V30 1511 C 149.619 0.414477 -5.19549 0
M  V30 1512 C 146.947 -0.0257694 -5.86694 0
M  V30 1513 C 149.299 -0.343916 -6.31664 0
M  V30 1514 C 147.963 -0.569301 -6.65068 0
M  V30 1515 H 147.233 0.329369 -0.663775 0
M  V30 1516 H 149.88 0.165647 -1.90782 0
M  V30 1517 H 148.185 2.54081 -2.98245 0
M  V30 1518 H 149.882 2.29591 -3.28769 0
M  V30 1519 H 146.472 1.13746 -4.13231 0
M  V30 1520 H 150.656 0.567554 -4.93044 0
M  V30 1521 H 145.912 -0.210233 -6.11038 0
M  V30 1522 H 150.086 -0.774133 -6.92084 0
M  V30 1523 H 147.713 -1.16903 -7.51158 0
M  V30 1524 N 149.288 1.51039 0.449983 0
M  V30 1525 C 150.534 1.63322 1.20223 0
M  V30 1526 C 150.867 0.34241 1.91158 0
M  V30 1527 O 150.142 -0.657344 1.83055 0
M  V30 1528 C 150.425 2.82801 2.22925 0
M  V30 1529 C 150.278 4.21823 1.56157 0
M  V30 1530 C 151.597 2.97807 3.24035 0
M  V30 1531 H 148.716 0.594407 0.435718 0
M  V30 1532 H 151.358 1.83489 0.493136 0
M  V30 1533 H 149.508 2.65738 2.834 0
M  V30 1534 H 151.18 4.50526 0.991162 0
M  V30 1535 H 149.423 4.25105 0.864172 0
M  V30 1536 H 150.094 5.01391 2.30891 0
M  V30 1537 H 152.57 3.13497 2.73603 0
M  V30 1538 H 151.446 3.82992 3.93202 0
M  V30 1539 H 151.707 2.09328 3.89402 0
M  V30 1540 N 150.766 -0.704594 1.40972 0
M  V30 1541 C 152.013 -1.46458 1.39844 0
M  V30 1542 C 152.341 -1.94499 0.00447594 0
M  V30 1543 O 151.596 -1.69275 -0.982057 0
M  V30 1544 C 151.895 -2.698 2.34399 0
M  V30 1545 C 151.561 -2.40464 3.81429 0
M  V30 1546 C 150.223 -2.32174 4.21484 0
M  V30 1547 C 152.575 -2.16086 4.74296 0
M  V30 1548 C 149.903 -1.97589 5.52427 0
M  V30 1549 C 152.255 -1.83011 6.05549 0
M  V30 1550 C 150.919 -1.7321 6.44635 0
M  V30 1551 H 150.189 -0.535927 0.511725 0
M  V30 1552 H 152.836 -0.806124 1.73706 0
M  V30 1553 H 151.141 -3.40536 1.93759 0
M  V30 1554 H 152.838 -3.27919 2.30804 0
M  V30 1555 H 149.428 -2.47808 3.49699 0
M  V30 1556 H 153.612 -2.2144 4.4416 0
M  V30 1557 H 148.868 -1.88547 5.81601 0
M  V30 1558 H 153.042 -1.63164 6.77016 0
M  V30 1559 H 150.669 -1.46179 7.46013 0
M  V30 1560 N 152.244 -1.26651 -0.937939 0
M  V30 1561 C 153.207 -1.08546 -2.01867 0
M  V30 1562 C 154.207 -0.0327327 -1.60767 0
M  V30 1563 O 155.397 -0.276427 -1.71993 0
M  V30 1564 C 152.529 -0.651711 -3.34613 0
M  V30 1565 H 153.722 -2.04502 -2.1936 0
M  V30 1566 H 151.275 -1.09294 -1.11734 0
M  V30 1567 H 152.01 0.309696 -3.22818 0
M  V30 1568 H 151.795 -1.41189 -3.65798 0
M  V30 1569 H 153.285 -0.546973 -4.14002 0
M  V30 1570 N 153.722 1.14298 -1.08507 0
M  V30 1571 C 154.952 1.88945 -0.835663 0
M  V30 1572 C 155.36 1.78894 0.615928 0
M  V30 1573 O 154.703 1.1468 1.43506 0
M  V30 1574 C 154.765 3.39585 -1.17994 0
M  V30 1575 C 154.429 3.7342 -2.63451 0
M  V30 1576 C 155.426 3.73454 -3.61702 0
M  V30 1577 C 153.111 4.03368 -2.99332 0
M  V30 1578 C 155.105 4.02961 -4.93864 0
M  V30 1579 C 152.792 4.32538 -4.31687 0
M  V30 1580 C 153.79 4.32318 -5.28763 0
M  V30 1581 O 153.478 4.6078 -6.58739 0
M  V30 1582 H 153.21 0.605307 -0.300965 0
M  V30 1583 H 155.764 1.45673 -1.44806 0
M  V30 1584 H 153.994 3.83315 -0.51055 0
M  V30 1585 H 155.683 3.9554 -0.911182 0
M  V30 1586 H 156.449 3.50403 -3.35325 0
M  V30 1587 H 152.328 4.02692 -2.24411 0
M  V30 1588 H 155.872 4.02704 -5.69627 0
M  V30 1589 H 151.769 4.55059 -4.57812 0
M  V30 1590 H 152.537 4.78492 -6.64069 0
M  V30 1591 N 155.201 0.870884 1.31352 0
M  V30 1592 C 156.131 0.343096 2.30966 0
M  V30 1593 C 157.112 -0.566507 1.60389 0
M  V30 1594 O 158.297 -0.483336 1.88089 0
M  V30 1595 C 155.427 -0.455487 3.443 0
M  V30 1596 C 154.381 0.361103 4.26474 0
M  V30 1597 C 153.707 -0.563221 5.31725 0
M  V30 1598 C 155.007 1.59566 4.97329 0
M  V30 1599 H 156.701 1.17548 2.75359 0
M  V30 1600 H 154.247 0.566686 1.32381 0
M  V30 1601 H 156.2 -0.83525 4.13039 0
M  V30 1602 H 154.924 -1.32139 2.98675 0
M  V30 1603 H 153.583 0.722825 3.59403 0
M  V30 1604 H 153.231 -1.42643 4.82351 0
M  V30 1605 H 152.931 -0.0207409 5.87596 0
M  V30 1606 H 154.455 -0.939808 6.03324 0
M  V30 1607 H 155.869 1.28728 5.58661 0
M  V30 1608 H 154.266 2.07728 5.63 0
M  V30 1609 H 155.336 2.34798 4.24262 0
M  V30 1610 N 156.679 -1.44442 0.630414 0
M  V30 1611 C 157.609 -2.33418 -0.0618083 0
M  V30 1612 C 158.59 -1.48165 -0.835541 0
M  V30 1613 O 159.775 -1.76886 -0.801564 0
M  V30 1614 C 156.905 -3.31222 -1.04449 0
M  V30 1615 C 155.859 -4.26288 -0.382436 0
M  V30 1616 C 155.185 -5.13954 -1.47497 0
M  V30 1617 C 156.485 -5.1744 0.710865 0
M  V30 1618 H 158.179 -2.91548 0.681184 0
M  V30 1619 H 155.725 -1.40191 0.329026 0
M  V30 1620 H 157.678 -3.92351 -1.53748 0
M  V30 1621 H 156.402 -2.71299 -1.81836 0
M  V30 1622 H 155.061 -3.6649 0.0899054 0
M  V30 1623 H 154.709 -4.50385 -2.2397 0
M  V30 1624 H 154.409 -5.7837 -1.03737 0
M  V30 1625 H 155.933 -5.77955 -1.96979 0
M  V30 1626 H 157.347 -5.72509 0.300996 0
M  V30 1627 H 155.744 -5.90455 1.07156 0
M  V30 1628 H 156.814 -4.58496 1.57829 0
M  V30 1629 N 158.157 -0.370918 -1.53173 0
M  V30 1630 C 159.089 0.507823 -2.23503 0
M  V30 1631 C 160.102 1.04182 -1.251 0
M  V30 1632 O 161.291 0.947286 -1.5129 0
M  V30 1633 C 158.391 1.71447 -2.92334 0
M  V30 1634 C 157.564 1.31105 -4.17289 0
M  V30 1635 C 156.623 2.38035 -4.69282 0
M  V30 1636 O 155.649 2.00204 -5.32829 0
M  V30 1637 N 156.851 3.69697 -4.47554 0
M  V30 1638 H 159.616 -0.0946382 -2.99551 0
M  V30 1639 H 157.177 -0.196358 -1.60705 0
M  V30 1640 H 159.169 2.42469 -3.24023 0
M  V30 1641 H 157.739 2.22368 -2.19707 0
M  V30 1642 H 156.959 0.430462 -3.91843 0
M  V30 1643 H 158.247 1.0179 -4.98514 0
M  V30 1644 H 157.645 4.03205 -3.9679 0
M  V30 1645 H 156.202 4.36807 -4.8378 0
M  V30 1646 N 159.635 1.57281 -0.100228 0
M  V30 1647 C 160.86 1.99302 0.573881 0
M  V30 1648 C 161.285 0.979059 1.60611 0
M  V30 1649 O 160.643 -0.0517803 1.81226 0
M  V30 1650 C 160.691 3.40274 1.19358 0
M  V30 1651 O 159.795 3.41676 2.30935 0
M  V30 1652 H 159.136 0.647944 0.145138 0
M  V30 1653 H 161.666 2.03779 -0.183156 0
M  V30 1654 H 161.676 3.78078 1.53365 0
M  V30 1655 H 160.351 4.13594 0.437385 0
M  V30 1656 H 158.928 3.15672 1.98509 0
M  V30 1657 N 161.113 -0.173488 1.56642 0
M  V30 1658 C 162.023 -1.23482 1.99473 0
M  V30 1659 C 163.039 -1.48567 0.905752 0
M  V30 1660 O 164.215 -1.60758 1.21321 0
M  V30 1661 C 161.28 -2.55444 2.34413 0
M  V30 1662 C 160.341 -2.38241 3.57127 0
M  V30 1663 C 159.574 -3.63909 3.90392 0
M  V30 1664 O 159.797 -4.68996 3.24653 0
M  V30 1665 O 158.731 -3.58149 4.83749 0
M  V30 1666 H 162.557 -0.901279 2.90018 0
M  V30 1667 H 160.142 -0.380185 1.44482 0
M  V30 1668 H 162.024 -3.33292 2.57865 0
M  V30 1669 H 160.699 -2.88382 1.4703 0
M  V30 1670 H 159.606 -1.58431 3.38896 0
M  V30 1671 H 160.939 -2.10228 4.45045 0
M  V30 1672 N 162.591 -1.51276 -0.441967 0
M  V30 1673 C 163.554 -1.7167 -1.51862 0
M  V30 1674 C 164.554 -0.586793 -1.49711 0
M  V30 1675 O 165.744 -0.854276 -1.51815 0
M  V30 1676 C 162.876 -1.76889 -2.91416 0
M  V30 1677 H 164.069 -2.67754 -1.35084 0
M  V30 1678 H 161.622 -1.41196 -0.670333 0
M  V30 1679 H 162.357 -0.826026 -3.13604 0
M  V30 1680 H 162.142 -2.59001 -2.94382 0
M  V30 1681 H 163.632 -1.94522 -3.69528 0
M  V30 1682 N 164.069 0.697108 -1.41344 0
M  V30 1683 C 165.297 1.48593 -1.43972 0
M  V30 1684 C 165.712 1.88747 -0.0445612 0
M  V30 1685 O 165.069 1.56682 0.935785 0
M  V30 1686 C 165.12 2.74946 -2.34706 0
M  V30 1687 O 164.841 2.36484 -3.68791 0
M  V30 1688 C 166.342 3.687 -2.46121 0
M  V30 1689 H 163.562 0.457964 -0.490418 0
M  V30 1690 H 166.106 0.858429 -1.8561 0
M  V30 1691 H 164.261 3.33937 -1.9638 0
M  V30 1692 H 164.675 3.17918 -4.17167 0
M  V30 1693 H 166.149 4.54145 -3.13777 0
M  V30 1694 H 166.626 4.13081 -1.49199 0
M  V30 1695 H 167.232 3.15613 -2.85076 0
M  V30 1696 N 165.547 1.27147 0.931209 0
M  V30 1697 C 166.494 1.09568 2.03134 0
M  V30 1698 C 167.464 -0.00222433 1.661 0
M  V30 1699 O 168.649 0.159439 1.90133 0
M  V30 1700 C 165.789 0.745231 3.36957 0
M  V30 1701 C 164.902 1.92041 3.86968 0
M  V30 1702 C 164.037 1.51216 5.09222 0
M  V30 1703 C 163.076 2.65504 5.5152 0
M  V30 1704 N 162.213 2.25291 6.64972 0
M  V30 1705 H 167.053 2.03708 2.17502 0
M  V30 1706 H 164.59 1.01411 1.06556 0
M  V30 1707 H 166.548 0.522878 4.1391 0
M  V30 1708 H 165.178 -0.159202 3.22407 0
M  V30 1709 H 164.23 2.25541 3.06326 0
M  V30 1710 H 165.542 2.77787 4.1429 0
M  V30 1711 H 164.696 1.25084 5.93666 0
M  V30 1712 H 163.435 0.625749 4.83669 0
M  V30 1713 H 162.44 2.92354 4.65628 0
M  V30 1714 H 163.665 3.54761 5.7907 0
M  V30 1715 H 161.611 1.39098 6.41083 0
M  V30 1716 H 161.528 3.04577 6.91931 0
M  V30 1717 H 162.796 2.02398 7.52765 0
M  V30 1718 N 167.025 -1.13721 1.09112 0
M  V30 1719 C 167.955 -2.21148 0.749385 0
M  V30 1720 C 168.936 -1.6792 -0.271475 0
M  V30 1721 O 170.121 -1.93693 -0.140251 0
M  V30 1722 C 167.251 -3.46905 0.165659 0
M  V30 1723 C 166.205 -4.13203 1.11567 0
M  V30 1724 C 165.531 -5.33248 0.393809 0
M  V30 1725 C 166.831 -4.60912 2.45678 0
M  V30 1726 H 168.525 -2.4999 1.64758 0
M  V30 1727 H 166.071 -1.20156 0.793626 0
M  V30 1728 H 168.024 -4.21313 -0.085466 0
M  V30 1729 H 166.748 -3.17449 -0.767714 0
M  V30 1730 H 165.407 -3.40758 1.35202 0
M  V30 1731 H 165.055 -5.00054 -0.543599 0
M  V30 1732 H 164.755 -5.78552 1.02721 0
M  V30 1733 H 166.279 -6.10413 0.150908 0
M  V30 1734 H 167.693 -5.26759 2.26269 0
M  V30 1735 H 166.09 -5.16944 3.04776 0
M  V30 1736 H 167.16 -3.75603 3.06677 0
M  V30 1737 N 168.503 -0.877838 -1.30888 0
M  V30 1738 C 169.749 -0.493426 -1.96706 0
M  V30 1739 C 170.082 0.953504 -1.6918 0
M  V30 1740 O 169.357 1.67266 -0.992594 0
M  V30 1741 C 169.64 -0.760429 -3.51979 0
M  V30 1742 C 169.493 -2.25747 -3.89048 0
M  V30 1743 C 170.812 -0.232148 -4.39487 0
M  V30 1744 H 167.931 -0.180746 -0.714493 0
M  V30 1745 H 170.573 -1.10052 -1.54882 0
M  V30 1746 H 168.723 -0.243715 -3.87735 0
M  V30 1747 H 170.395 -2.84204 -3.63354 0
M  V30 1748 H 168.638 -2.72694 -3.37373 0
M  V30 1749 H 169.309 -2.39491 -4.97341 0
M  V30 1750 H 171.785 -0.674314 -4.106 0
M  V30 1751 H 170.661 -0.448355 -5.47066 0
M  V30 1752 H 170.922 0.866297 -4.33529 0
M  V30 1753 N 169.982 1.44106 -0.638065 0
M  V30 1754 C 171.21 2.06336 -0.152615 0
M  V30 1755 C 171.625 1.47731 1.17563 0
M  V30 1756 O 170.982 0.602806 1.72257 0
M  V30 1757 C 171.033 3.61479 -0.0391491 0
M  V30 1758 O 170.754 4.17903 -1.31487 0
M  V30 1759 C 172.255 4.40757 0.474176 0
M  V30 1760 H 169.475 0.665862 -0.0828776 0
M  V30 1761 H 172.019 1.84862 -0.87443 0
M  V30 1762 H 170.174 3.82191 0.633142 0
M  V30 1763 H 170.588 5.11416 -1.16421 0
M  V30 1764 H 172.062 5.49707 0.502562 0
M  V30 1765 H 172.539 4.12697 1.50258 0
M  V30 1766 H 173.145 4.24979 -0.165102 0
M  V30 1767 N 171.46 0.379036 1.52974 0
M  V30 1768 C 172.709 -0.207612 2.00629 0
M  V30 1769 C 173.022 -1.48758 1.27006 0
M  V30 1770 O 174.228 -2.15365 1.65318 0
M  V30 1771 C 172.684 -0.42053 3.57435 0
M  V30 1772 C 172.292 0.845587 4.39948 0
M  V30 1773 C 174.036 -0.964102 4.13407 0
M  V30 1774 C 171.943 0.601513 5.88333 0
M  V30 1775 H 170.873 -0.0813591 0.749598 0
M  V30 1776 H 173.524 0.499853 1.76561 0
M  V30 1777 H 171.906 -1.18959 3.7771 0
M  V30 1778 H 173.08 1.61848 4.31442 0
M  V30 1779 H 171.395 1.31336 3.95145 0
M  V30 1780 H 173.992 -1.16225 5.21916 0
M  V30 1781 H 174.335 -1.93019 3.68849 0
M  V30 1782 H 174.868 -0.25487 3.96983 0
M  V30 1783 H 171.607 1.53831 6.37194 0
M  V30 1784 H 171.127 -0.132628 5.99653 0
M  V30 1785 H 172.806 0.232134 6.46583 0
M  V30 1786 N 172.938 -1.57226 0.108567 0
M  V30 1787 C 174.186 -1.94448 -0.550853 0
M  V30 1788 C 174.507 -0.992074 -1.67878 0
M  V30 1789 O 173.777 -0.0465 -1.95845 0
M  V30 1790 H 172.357 -0.717897 -0.206479 0
M  V30 1791 H 175.019 -1.94112 0.175062 0
M  V30 1792 H 174.115 -2.97218 -0.952259 0
M  V30 1793 N 174.416 0.165178 -1.56732 0
M  V30 1794 C 175.346 1.20651 -1.99914 0
M  V30 1795 C 176.327 1.45827 -0.875705 0
M  V30 1796 O 177.512 1.57057 -1.14223 0
M  V30 1797 C 174.642 2.54401 -2.36427 0
M  V30 1798 C 173.596 2.43782 -3.51787 0
M  V30 1799 C 172.922 3.82078 -3.7406 0
M  V30 1800 C 174.222 1.93732 -4.85041 0
M  V30 1801 H 175.916 0.847534 -2.87154 0
M  V30 1802 H 173.462 0.40625 -1.38151 0
M  V30 1803 H 175.415 3.27458 -2.65234 0
M  V30 1804 H 174.139 2.92098 -1.46103 0
M  V30 1805 H 172.798 1.73178 -3.23117 0
M  V30 1806 H 172.446 4.17179 -2.81017 0
M  V30 1807 H 172.146 3.7584 -4.51684 0
M  V30 1808 H 173.67 4.56712 -4.05274 0
M  V30 1809 H 175.084 2.56569 -5.12684 0
M  V30 1810 H 173.481 1.98428 -5.66345 0
M  V30 1811 H 174.551 0.891962 -4.76626 0
M  V30 1812 N 175.894 1.51508 0.433938 0
M  V30 1813 C 177.143 1.63578 1.18005 0
M  V30 1814 C 177.456 0.359514 1.92268 0
M  V30 1815 O 178.662 0.359632 2.69108 0
M  V30 1816 C 177.118 2.88901 2.14626 0
M  V30 1817 C 176.726 4.23544 1.45995 0
M  V30 1818 C 178.47 3.10328 2.89649 0
M  V30 1819 C 176.377 5.40014 2.4112 0
M  V30 1820 H 175.307 0.609277 0.444182 0
M  V30 1821 H 177.958 1.77978 0.446773 0
M  V30 1822 H 176.34 2.68142 2.91403 0
M  V30 1823 H 177.514 4.54696 0.747532 0
M  V30 1824 H 175.829 4.08021 0.831115 0
M  V30 1825 H 178.426 3.94518 3.60915 0
M  V30 1826 H 178.769 2.23544 3.51189 0
M  V30 1827 H 179.302 3.31443 2.19978 0
M  V30 1828 H 176.041 6.29068 1.84264 0
M  V30 1829 H 175.561 5.13233 3.10406 0
M  V30 1830 H 177.24 5.72099 3.02177 0
M  V30 1831 N 177.372 -0.689602 1.41712 0
M  V30 1832 C 178.618 -1.45181 1.41599 0
M  V30 1833 C 178.951 -1.94181 0.0270081 0
M  V30 1834 O 178.226 -1.6993 -0.946265 0
M  V30 1835 C 178.509 -2.65945 2.42787 0
M  V30 1836 C 178.362 -2.22672 3.90816 0
M  V30 1837 C 179.681 -3.68149 2.41151 0
M  V30 1838 H 176.8 -0.526576 0.515642 0
M  V30 1839 H 179.442 -0.784947 1.73028 0
M  V30 1840 H 177.592 -3.2284 2.16116 0
M  V30 1841 H 179.264 -1.71058 4.28412 0
M  V30 1842 H 177.507 -1.54394 4.05395 0
M  V30 1843 H 178.178 -3.0935 4.57172 0
M  V30 1844 H 180.654 -3.2094 2.64834 0
M  V30 1845 H 179.53 -4.50248 3.13955 0
M  V30 1846 H 179.791 -4.18259 1.43221 0
M  V30 1847 N 178.85 -1.27639 -0.924453 0
M  V30 1848 C 179.813 -1.10681 -2.00705 0
M  V30 1849 C 180.813 -0.0497823 -1.60723 0
M  V30 1850 O 182.003 -0.294654 -1.7169 0
M  V30 1851 C 179.135 -0.687164 -3.33902 0
M  V30 1852 H 180.328 -2.06817 -2.17179 0
M  V30 1853 H 177.881 -1.10473 -1.10569 0
M  V30 1854 H 178.616 0.275439 -3.23128 0
M  V30 1855 H 178.401 -1.45061 -3.6428 0
M  V30 1856 H 179.891 -0.590853 -4.13399 0
M  V30 1857 N 180.328 1.1314 -1.09713 0
M  V30 1858 C 181.553 1.88862 -0.857081 0
M  V30 1859 C 181.978 1.78729 0.586304 0
M  V30 1860 O 181.336 1.13692 1.41222 0
M  V30 1861 C 181.384 3.36325 -1.30069 0
M  V30 1862 O 180.488 4.09815 -0.461007 0
M  V30 1863 H 179.829 0.587108 -0.310162 0
M  V30 1864 H 182.359 1.43129 -1.46203 0
M  V30 1865 H 182.369 3.87157 -1.28738 0
M  V30 1866 H 181.044 3.43017 -2.35185 0
M  V30 1867 H 179.621 3.68986 -0.538888 0
M  V30 1868 N 181.806 0.884767 1.30421 0
M  V30 1869 C 183.053 0.503105 1.96151 0
M  V30 1870 C 183.381 -0.947676 1.69851 0
M  V30 1871 O 182.636 -1.68467 0.995861 0
M  V30 1872 C 182.935 0.724318 3.49983 0
M  V30 1873 C 182.601 2.15015 3.96332 0
M  V30 1874 C 181.263 2.54005 4.08699 0
M  V30 1875 C 183.615 3.07936 4.20505 0
M  V30 1876 C 180.943 3.85128 4.42599 0
M  V30 1877 C 183.295 4.3859 4.55874 0
M  V30 1878 C 181.959 4.77474 4.66449 0
M  V30 1879 H 181.229 0.184099 0.717766 0
M  V30 1880 H 183.876 1.12058 1.55291 0
M  V30 1881 H 182.181 0.0238086 3.91793 0
M  V30 1882 H 183.878 0.408617 3.98913 0
M  V30 1883 H 180.468 1.8375 3.87213 0
M  V30 1884 H 184.652 2.79033 4.10431 0
M  V30 1885 H 179.908 4.14996 4.48986 0
M  V30 1886 H 184.082 5.10629 4.7353 0
M  V30 1887 H 181.709 5.79115 4.92473 0
M  V30 1888 N 183.284 -1.43765 0.645699 0
M  V30 1889 C 184.509 -2.06767 0.161883 0
M  V30 1890 C 184.934 -1.48034 -1.16049 0
M  V30 1891 O 184.292 -0.587369 -1.71522 0
M  V30 1892 C 184.34 -3.60519 0.0762003 0
M  V30 1893 O 183.444 -4.00982 -0.963721 0
M  V30 1894 H 182.785 -0.657675 0.091429 0
M  V30 1895 H 185.315 -1.84397 0.886499 0
M  V30 1896 H 185.325 -4.07853 -0.109604 0
M  V30 1897 H 184 -4.02646 1.04157 0
M  V30 1898 H 182.577 -3.65253 -0.751312 0
M  V30 1899 N 184.763 -0.387143 -1.52771 0
M  V30 1900 C 185.726 0.436939 -2.24997 0
M  V30 1901 C 186.726 0.991991 -1.26555 0
M  V30 1902 O 187.916 0.874335 -1.50669 0
M  V30 1903 C 185.048 1.61281 -3.00335 0
M  V30 1904 H 186.241 -0.195365 -2.99263 0
M  V30 1905 H 183.794 -0.139218 -1.55679 0
M  V30 1906 H 184.529 2.2826 -2.30364 0
M  V30 1907 H 184.314 1.22154 -3.72587 0
M  V30 1908 H 185.804 2.19629 -3.5518 0
M  V30 1909 N 186.241 1.57166 -0.116904 0
M  V30 1910 C 187.466 1.999 0.55271 0
M  V30 1911 C 187.891 0.996039 1.59564 0
M  V30 1912 O 187.249 -0.032556 1.81271 0
M  V30 1913 C 187.297 3.4152 1.15742 0
M  V30 1914 O 186.401 3.44106 2.27299 0
M  V30 1915 H 185.742 0.649447 0.138258 0
M  V30 1916 H 188.272 2.03573 -0.204759 0
M  V30 1917 H 188.282 3.79684 1.49346 0
M  V30 1918 H 186.957 4.14034 0.393493 0
M  V30 1919 H 185.534 3.17759 1.9515 0
M  V30 1920 N 187.719 -0.156864 1.56817 0
M  V30 1921 C 188.965 -0.872416 1.83076 0
M  V30 1922 C 189.298 -1.81261 0.697001 0
M  V30 1923 O 188.573 -1.92171 -0.30008 0
M  V30 1924 C 188.856 -1.65551 3.19789 0
M  V30 1925 C 188.709 -0.737467 4.43713 0
M  V30 1926 C 190.028 -2.62012 3.53606 0
M  V30 1927 H 187.147 -0.315715 0.665953 0
M  V30 1928 H 189.789 -0.138004 1.89498 0
M  V30 1929 H 187.939 -2.28159 3.14445 0
M  V30 1930 H 189.611 -0.123143 4.61136 0
M  V30 1931 H 187.854 -0.0464067 4.33775 0
M  V30 1932 H 188.525 -1.32122 5.35955 0
M  V30 1933 H 191.001 -2.09525 3.59497 0
M  V30 1934 H 189.877 -3.13861 4.50314 0
M  V30 1935 H 190.138 -3.42902 2.79053 0
M  V30 1936 N 189.197 -1.51736 -0.425897 0
M  V30 1937 C 190.437 -1.66636 -1.18371 0
M  V30 1938 C 190.801 -0.379854 -1.88205 0
M  V30 1939 O 192.002 -0.404758 -2.65735 0
M  V30 1940 C 190.273 -2.84382 -2.16476 0
M  V30 1941 S 191.832 -3.19673 -3.0059 0
M  V30 1942 H 188.65 -0.586957 -0.40125 0
M  V30 1943 H 191.252 -1.89679 -0.473518 0
M  V30 1944 H 189.956 -3.76281 -1.63831 0
M  V30 1945 H 189.487 -2.63562 -2.92059 0
M  V30 1946 H 191.502 -2.66994 -4.18245 0
M  V30 1947 N 190.675 0.682077 -1.42076 0
M  V30 1948 C 191.9 1.47558 -1.45744 0
M  V30 1949 C 192.325 1.87977 -0.0680981 0
M  V30 1950 O 191.683 1.55522 0.9318 0
M  V30 1951 C 191.731 2.70575 -2.38373 0
M  V30 1952 O 190.835 3.68573 -1.85007 0
M  V30 1953 H 190.176 0.443585 -0.494093 0
M  V30 1954 H 192.706 0.837238 -1.86686 0
M  V30 1955 H 192.716 3.18729 -2.54707 0
M  V30 1956 H 191.391 2.40495 -3.39315 0
M  V30 1957 H 189.968 3.2757 -1.78192 0
M  V30 1958 N 192.153 1.28127 0.917671 0
M  V30 1959 C 193.083 1.14248 2.03641 0
M  V30 1960 C 194.064 0.0412748 1.7005 0
M  V30 1961 O 195.249 0.217566 1.92977 0
M  V30 1962 C 192.379 0.799431 3.37974 0
M  V30 1963 C 191.333 1.85497 3.85713 0
M  V30 1964 C 190.659 1.36565 5.16966 0
M  V30 1965 C 191.959 3.26085 4.08002 0
M  V30 1966 H 193.653 2.07835 2.15511 0
M  V30 1967 H 191.199 1.00064 1.03553 0
M  V30 1968 H 193.152 0.689114 4.15727 0
M  V30 1969 H 191.876 -0.172145 3.26146 0
M  V30 1970 H 190.535 1.95437 3.10161 0
M  V30 1971 H 190.183 0.383253 5.01538 0
M  V30 1972 H 189.883 2.07143 5.49878 0
M  V30 1973 H 191.407 1.26848 5.97279 0
M  V30 1974 H 192.821 3.19089 4.76293 0
M  V30 1975 H 191.218 3.94462 4.52238 0
M  V30 1976 H 192.288 3.70394 3.12948 0
M  V30 1977 N 193.631 -1.12557 1.10312 0
M  V30 1978 C 194.561 -2.20341 0.772798 0
M  V30 1979 C 195.542 -1.68198 -0.25365 0
M  V30 1980 O 196.727 -1.93831 -0.119699 0
M  V30 1981 C 193.857 -3.46709 0.202443 0
M  V30 1982 C 192.811 -4.11996 1.15943 0
M  V30 1983 C 192.137 -5.328 0.450345 0
M  V30 1984 C 193.437 -4.5828 2.50552 0
M  V30 1985 H 195.131 -2.48229 1.674 0
M  V30 1986 H 192.677 -1.19308 0.806326 0
M  V30 1987 H 194.63 -4.2138 -0.0407752 0
M  V30 1988 H 193.354 -3.18245 -0.734001 0
M  V30 1989 H 192.013 -3.39305 1.38808 0
M  V30 1990 H 191.661 -5.00602 -0.490531 0
M  V30 1991 H 191.361 -5.7743 1.08851 0
M  V30 1992 H 192.885 -6.10219 0.215642 0
M  V30 1993 H 194.299 -5.2433 2.31843 0
M  V30 1994 H 192.696 -5.13683 3.10242 0
M  V30 1995 H 193.766 -3.72329 3.10643 0
M  V30 1996 N 195.109 -0.891671 -1.2995 0
M  V30 1997 C 196.072 -0.36828 -2.26222 0
M  V30 1998 C 197.072 0.493014 -1.53056 0
M  V30 1999 O 198.262 0.299213 -1.71611 0
M  V30 2000 C 195.394 0.47442 -3.37583 0
M  V30 2001 H 196.587 -1.21844 -2.74033 0
M  V30 2002 H 194.14 -0.669107 -1.41254 0
M  V30 2003 H 194.875 1.34489 -2.95099 0
M  V30 2004 H 194.66 -0.142615 -3.91841 0
M  V30 2005 H 196.15 0.83218 -4.09224 0
M  V30 2006 N 196.587 1.43421 -0.653314 0
M  V30 2007 C 197.836 2.01032 -0.164076 0
M  V30 2008 C 198.149 1.52147 1.22926 0
M  V30 2009 O 199.355 2.02031 1.81371 0
M  V30 2010 C 197.811 3.59082 -0.24252 0
M  V30 2011 C 197.419 4.1696 -1.63855 0
M  V30 2012 C 199.163 4.24079 0.18911 0
M  V30 2013 C 197.07 5.67304 -1.67092 0
M  V30 2014 H 196 0.751798 -0.0575769 0
M  V30 2015 H 198.651 1.6439 -0.815362 0
M  V30 2016 H 197.033 3.93125 0.476276 0
M  V30 2017 H 198.207 3.94416 -2.38271 0
M  V30 2018 H 196.522 3.64335 -2.01616 0
M  V30 2019 H 199.119 5.34381 0.184775 0
M  V30 2020 H 199.462 3.98005 1.22056 0
M  V30 2021 H 199.995 3.94918 -0.477938 0
M  V30 2022 H 196.734 5.98145 -2.68146 0
M  V30 2023 H 196.254 5.91904 -0.970014 0
M  V30 2024 H 197.933 6.31344 -1.4147 0
M  V30 2025 N 198.065 0.39524 1.52563 0
M  V30 2026 C 199.293 -0.184943 2.06072 0
M  V30 2027 C 199.708 -1.40021 1.26647 0
M  V30 2028 O 199.065 -1.79767 0.314672 0
M  V30 2029 C 199.116 -0.549179 3.57304 0
M  V30 2030 O 198.837 0.617813 4.33722 0
M  V30 2031 C 200.338 -1.18459 4.2718 0
M  V30 2032 H 197.558 -0.0265025 0.670476 0
M  V30 2033 H 200.102 0.562184 1.96621 0
M  V30 2034 H 198.257 -1.2462 3.66809 0
M  V30 2035 H 198.671 0.317091 5.23541 0
M  V30 2036 H 200.145 -1.38976 5.34219 0
M  V30 2037 H 200.622 -2.15368 3.82771 0
M  V30 2038 H 201.228 -0.528163 4.22008 0
M  V30 2039 N 199.544 -1.57102 0.125237 0
M  V30 2040 C 200.79 -1.95697 -0.532035 0
M  V30 2041 C 201.123 -1.009 -1.6593 0
M  V30 2042 O 200.398 -0.047347 -1.94442 0
M  V30 2043 C 200.681 -3.44181 -1.05884 0
M  V30 2044 C 200.534 -4.49752 0.0654392 0
M  V30 2045 C 201.853 -3.94655 -1.9477 0
M  V30 2046 H 198.972 -0.711571 -0.191925 0
M  V30 2047 H 201.614 -1.88923 0.20206 0
M  V30 2048 H 199.764 -3.50085 -1.68442 0
M  V30 2049 H 201.436 -4.55943 0.700982 0
M  V30 2050 H 199.679 -4.27653 0.727709 0
M  V30 2051 H 200.35 -5.50924 -0.344505 0
M  V30 2052 H 202.826 -3.91094 -1.42074 0
M  V30 2053 H 201.702 -4.99057 -2.28546 0
M  V30 2054 H 201.963 -3.35718 -2.87656 0
M  V30 2055 N 201.022 0.148545 -1.56898 0
M  V30 2056 C 202.299 0.890019 -1.74178 0
M  V30 2057 C 202.679 1.99407 -0.692839 0
M  V30 2058 O 202.027 2.26671 0.288505 0
M  V30 2059 C 202.237 1.43389 -3.18183 0
M  V30 2060 C 203.585 1.89791 -3.79822 0
M  V30 2061 O 204.609 1.53134 -3.21603 0
M  V30 2062 O 203.468 2.57387 -4.82093 0
M  V30 2063 H 200.562 0.420496 -0.712118 0
M  V30 2064 H 203.108 0.134591 -1.69165 0
M  V30 2065 H 201.88 0.640383 -3.86024 0
M  V30 2066 H 201.503 2.25287 -3.27615 0
M  V30 2067 N 202.5 1.5196 0.417844 0
M  V30 2068 C 203.916 1.40569 0.755816 0
M  V30 2069 C 204.116 0.503316 1.95113 0
M  V30 2070 O 203.172 -0.0341925 2.52477 0
M  V30 2071 C 204.485 2.82947 1.01791 0
M  V30 2072 C 206.033 2.92231 1.12116 0
M  V30 2073 C 206.508 4.35559 1.41608 0
M  V30 2074 N 207.999 4.38753 1.48491 0
M  V30 2075 C 208.734 5.46705 1.7292 0
M  V30 2076 N 208.23 6.64788 1.95011 0
M  V30 2077 N 210.023 5.34209 1.74863 0
M  V30 2078 H 202.174 2.09168 -0.369098 0
M  V30 2079 H 204.437 0.942409 -0.102809 0
M  V30 2080 H 204.143 3.5106 0.212081 0
M  V30 2081 H 204.017 3.23462 1.94042 0
M  V30 2082 H 206.404 2.24304 1.9176 0
M  V30 2083 H 206.485 2.55185 0.177225 0
M  V30 2084 H 206.129 5.04042 0.624848 0
M  V30 2085 H 206.059 4.70133 2.37239 0
M  V30 2086 H 208.55 3.5363 1.33244 0
M  V30 2087 H 208.863 7.42845 2.13076 0
M  V30 2088 H 207.208 6.67869 1.92293 0
M  V30 2089 H 210.399 4.40937 1.57137 0
M  V30 2090 H 210.572 6.18415 1.93563 0
M  V30 2091 N 203.978 -0.674533 1.42435 0
M  V30 2092 C 205.208 -1.46071 1.46105 0
M  V30 2093 C 205.616 -1.89067 0.0709605 0
M  V30 2094 O 204.959 -1.58731 -0.924677 0
M  V30 2095 C 205.021 -2.74145 2.32561 0
M  V30 2096 C 204.685 -2.53224 3.8043 0
M  V30 2097 C 205.682 -2.17809 4.72075 0
M  V30 2098 C 203.367 -2.6821 4.24698 0
M  V30 2099 C 205.361 -1.97648 6.05982 0
M  V30 2100 C 203.048 -2.47665 5.58664 0
M  V30 2101 C 204.046 -2.12437 6.49122 0
M  V30 2102 O 203.734 -1.9209 7.80613 0
M  V30 2103 H 203.466 -0.455959 0.499076 0
M  V30 2104 H 206.02 -0.836193 1.87609 0
M  V30 2105 H 204.25 -3.3908 1.85908 0
M  V30 2106 H 205.939 -3.36028 2.27683 0
M  V30 2107 H 206.705 -2.05826 4.39159 0
M  V30 2108 H 202.584 -2.94609 3.54579 0
M  V30 2109 H 206.128 -1.70075 6.7655 0
M  V30 2110 H 202.025 -2.59244 5.91154 0
M  V30 2111 H 202.793 -2.06686 7.91974 0
M  V30 2112 N 205.456 -1.28612 -0.910864 0
M  V30 2113 C 206.386 -1.15326 -2.03032 0
M  V30 2114 C 207.367 -0.0502924 -1.70026 0
M  V30 2115 O 208.552 -0.227797 -1.92859 0
M  V30 2116 C 205.682 -0.817343 -3.37545 0
M  V30 2117 C 204.636 -1.8754 -3.84724 0
M  V30 2118 C 203.962 -1.39305 -5.16235 0
M  V30 2119 C 205.262 -3.28244 -4.06267 0
M  V30 2120 H 206.956 -2.08975 -2.14406 0
M  V30 2121 H 204.502 -1.00612 -1.03021 0
M  V30 2122 H 206.455 -0.711151 -4.15356 0
M  V30 2123 H 205.179 0.154846 -3.26233 0
M  V30 2124 H 203.838 -1.97079 -3.09121 0
M  V30 2125 H 203.486 -0.409846 -5.01328 0
M  V30 2126 H 203.186 -2.10057 -5.48771 0
M  V30 2127 H 204.71 -1.30014 -5.96598 0
M  V30 2128 H 206.124 -3.21611 -4.74594 0
M  V30 2129 H 204.521 -3.96855 -4.5014 0
M  V30 2130 H 205.591 -3.72048 -3.10979 0
M  V30 2131 N 206.934 1.1197 -1.10907 0
M  V30 2132 C 208.159 1.87942 -0.877064 0
M  V30 2133 C 208.584 1.79341 0.567314 0
M  V30 2134 O 207.942 1.15184 1.40009 0
M  V30 2135 C 207.99 3.34926 -1.33629 0
M  V30 2136 O 207.094 4.09303 -0.504447 0
M  V30 2137 H 206.435 0.583785 -0.316371 0
M  V30 2138 H 208.965 1.4157 -1.47712 0
M  V30 2139 H 208.975 3.8577 -1.32837 0
M  V30 2140 H 207.65 3.40504 -2.3881 0
M  V30 2141 H 206.227 3.68393 -0.577993 0
M  V30 2142 N 208.412 0.89855 1.29475 0
M  V30 2143 C 209.342 0.39201 2.30186 0
M  V30 2144 C 210.323 -0.532359 1.61555 0
M  V30 2145 O 211.508 -0.443331 1.89072 0
M  V30 2146 C 208.638 -0.382353 3.45189 0
M  V30 2147 C 207.592 0.451483 4.25612 0
M  V30 2148 C 206.918 -0.450307 5.328 0
M  V30 2149 C 208.218 1.70079 4.93832 0
M  V30 2150 H 209.912 1.23362 2.72804 0
M  V30 2151 H 207.458 0.594638 1.31149 0
M  V30 2152 H 209.411 -0.747451 4.14718 0
M  V30 2153 H 208.135 -1.25774 3.01411 0
M  V30 2154 H 206.794 0.798897 3.57789 0
M  V30 2155 H 206.442 -1.32379 4.85268 0
M  V30 2156 H 206.142 0.103902 5.87508 0
M  V30 2157 H 207.666 -0.811623 6.05182 0
M  V30 2158 H 209.08 1.40549 5.55805 0
M  V30 2159 H 207.477 2.19623 5.58467 0
M  V30 2160 H 208.547 2.43744 4.19186 0
M  V30 2161 N 209.89 -1.43072 0.660911 0
M  V30 2162 C 211.12 -2.05769 0.185153 0
M  V30 2163 C 211.528 -1.49668 -1.15742 0
M  V30 2164 O 210.871 -0.625649 -1.72717 0
M  V30 2165 C 210.933 -3.59489 0.0278237 0
M  V30 2166 C 210.597 -4.38212 1.2969 0
M  V30 2167 C 211.594 -4.69772 2.22734 0
M  V30 2168 C 209.279 -4.7809 1.54063 0
M  V30 2169 C 211.273 -5.40129 3.38437 0
M  V30 2170 C 208.96 -5.4819 2.70058 0
M  V30 2171 C 209.958 -5.79132 3.62071 0
M  V30 2172 O 209.646 -6.47798 4.76039 0
M  V30 2173 H 209.378 -0.669873 0.0908086 0
M  V30 2174 H 211.932 -1.84436 0.90402 0
M  V30 2175 H 210.162 -3.79426 -0.746489 0
M  V30 2176 H 211.851 -4.03862 -0.406275 0
M  V30 2177 H 212.617 -4.39476 2.05149 0
M  V30 2178 H 208.496 -4.53408 0.833215 0
M  V30 2179 H 212.04 -5.64198 4.10277 0
M  V30 2180 H 207.937 -5.77902 2.87574 0
M  V30 2181 H 208.705 -6.66283 4.75404 0
M  V30 2182 N 211.368 -0.403325 -1.52352 0
M  V30 2183 C 212.598 0.17376 -2.05868 0
M  V30 2184 C 213.006 1.39898 -1.27378 0
M  V30 2185 O 212.349 1.80939 -0.31729 0
M  V30 2186 C 212.411 0.594756 -3.54546 0
M  V30 2187 C 212.075 -0.518926 -4.54044 0
M  V30 2188 C 213.072 -1.3807 -5.01231 0
M  V30 2189 C 210.757 -0.689961 -4.97539 0
M  V30 2190 C 212.751 -2.39852 -5.90551 0
M  V30 2191 C 210.438 -1.71109 -5.86656 0
M  V30 2192 C 211.436 -2.56378 -6.33056 0
M  V30 2193 O 211.124 -3.56743 -7.20409 0
M  V30 2194 H 210.856 0.0264951 -0.675481 0
M  V30 2195 H 213.41 -0.571179 -1.97299 0
M  V30 2196 H 211.64 1.39189 -3.60782 0
M  V30 2197 H 213.329 1.0991 -3.90736 0
M  V30 2198 H 214.095 -1.25994 -4.68349 0
M  V30 2199 H 209.974 -0.035939 -4.60986 0
M  V30 2200 H 213.518 -3.06441 -6.26689 0
M  V30 2201 H 209.415 -1.83218 -6.18952 0
M  V30 2202 H 210.183 -3.52918 -7.38506 0
M  V30 2203 N 212.846 1.57033 -0.133567 0
M  V30 2204 C 213.809 2.14897 0.796995 0
M  V30 2205 C 214.809 1.0874 1.18458 0
M  V30 2206 O 215.999 1.34446 1.1077 0
M  V30 2207 C 213.131 2.70112 2.07973 0
M  V30 2208 H 214.324 2.98457 0.293873 0
M  V30 2209 H 211.877 1.55871 0.115787 0
M  V30 2210 H 212.612 1.9018 2.62682 0
M  V30 2211 H 212.397 3.47764 1.81115 0
M  V30 2212 H 213.887 3.14738 2.74462 0
M  V30 2213 N 214.325 -0.140222 1.56975 0
M  V30 2214 C 215.255 -1.17456 2.01808 0
M  V30 2215 C 216.236 -1.44415 0.898794 0
M  V30 2216 O 217.421 -1.5522 1.16707 0
M  V30 2217 C 214.551 -2.50607 2.40444 0
M  V30 2218 C 213.505 -2.38155 3.55621 0
M  V30 2219 C 212.831 -3.76078 3.80091 0
M  V30 2220 C 214.131 -1.85991 4.88062 0
M  V30 2221 H 215.825 -0.801743 2.88466 0
M  V30 2222 H 213.371 -0.38422 1.38779 0
M  V30 2223 H 215.324 -3.23197 2.7041 0
M  V30 2224 H 214.048 -2.89737 1.50732 0
M  V30 2225 H 212.707 -1.68016 3.25832 0
M  V30 2226 H 212.355 -4.12656 2.87618 0
M  V30 2227 H 212.055 -3.68606 4.57606 0
M  V30 2228 H 213.579 -4.50206 4.12488 0
M  V30 2229 H 214.993 -2.4838 5.16701 0
M  V30 2230 H 213.39 -1.89393 5.6943 0
M  V30 2231 H 214.46 -0.816023 4.77984 0
M  V30 2232 N 215.803 -1.52179 -0.40978 0
M  V30 2233 C 217.031 -1.70054 -1.17853 0
M  V30 2234 C 217.446 -0.409735 -1.843 0
M  V30 2235 O 216.803 0.614183 -1.71855 0
M  V30 2236 C 216.854 -2.83568 -2.24213 0
M  V30 2237 O 216.575 -4.0765 -1.60478 0
M  V30 2238 C 218.076 -3.12947 -3.13973 0
M  V30 2239 H 215.296 -0.569917 -0.354169 0
M  V30 2240 H 217.84 -1.98734 -0.482198 0
M  V30 2241 H 215.995 -2.57409 -2.89516 0
M  V30 2242 H 216.409 -4.70899 -2.30986 0
M  V30 2243 H 217.883 -3.95889 -3.84677 0
M  V30 2244 H 218.36 -2.26472 -3.76307 0
M  V30 2245 H 218.966 -3.40868 -2.5434 0
M  V30 2246 N 217.281 0.66697 -1.42791 0
M  V30 2247 C 218.511 1.45294 -1.46878 0
M  V30 2248 C 218.919 1.89027 -0.0809861 0
M  V30 2249 O 218.262 1.59219 0.916246 0
M  V30 2250 C 218.324 2.72908 -2.34012 0
M  V30 2251 C 217.988 2.51203 -3.81767 0
M  V30 2252 C 218.985 2.15302 -4.73224 0
M  V30 2253 C 216.67 2.65954 -4.26115 0
M  V30 2254 C 218.664 1.94431 -6.07022 0
M  V30 2255 C 216.351 2.44699 -5.59969 0
M  V30 2256 C 217.349 2.08992 -6.5024 0
M  V30 2257 O 217.037 1.87948 -7.81621 0
M  V30 2258 H 216.769 0.453306 -0.501487 0
M  V30 2259 H 219.323 0.826232 -1.88049 0
M  V30 2260 H 217.553 3.38089 -1.87703 0
M  V30 2261 H 219.242 3.34816 -2.29462 0
M  V30 2262 H 220.008 2.03495 -4.40244 0
M  V30 2263 H 215.887 2.92724 -3.56137 0
M  V30 2264 H 219.431 1.66484 -6.77443 0
M  V30 2265 H 215.328 2.56105 -5.9252 0
M  V30 2266 H 216.096 2.02483 -7.93059 0
M  V30 2267 N 218.759 1.29093 0.90403 0
M  V30 2268 C 219.709 1.10482 1.99443 0
M  V30 2269 C 220.693 0.0255401 1.6088 0
M  V30 2270 O 221.885 0.24677 1.75271 0
M  V30 2271 C 219.014 0.778882 3.34348 0
M  V30 2272 C 218.1 1.89749 3.79284 0
M  V30 2273 N 218.491 3.14045 3.96497 0
M  V30 2274 C 216.789 1.78955 4.08523 0
M  V30 2275 C 217.49 3.86996 4.34292 0
M  V30 2276 N 216.466 3.14909 4.43095 0
M  V30 2277 H 220.268 2.04778 2.10815 0
M  V30 2278 H 217.782 1.20155 1.09255 0
M  V30 2279 H 219.779 0.62661 4.12164 0
M  V30 2280 H 218.439 -0.156205 3.24324 0
M  V30 2281 H 219.45 3.49548 3.82148 0
M  V30 2282 H 216.127 0.926886 4.07081 0
M  V30 2283 H 217.517 4.93941 4.55491 0
M  V30 2284 N 220.237 -1.11381 1.11499 0
M  V30 2285 C 221.462 -1.87475 0.887019 0
M  V30 2286 C 221.887 -1.79639 -0.557796 0
M  V30 2287 O 221.245 -1.15924 -1.39396 0
M  V30 2288 C 221.293 -3.34213 1.35403 0
M  V30 2289 O 220.397 -4.0903 0.526146 0
M  V30 2290 H 219.738 -0.582099 0.319463 0
M  V30 2291 H 222.268 -1.40785 1.48461 0
M  V30 2292 H 222.278 -3.8506 1.34881 0
M  V30 2293 H 220.953 -3.39232 2.40612 0
M  V30 2294 H 219.53 -3.68082 0.597522 0
M  V30 2295 N 221.715 -0.905404 -1.28997 0
M  V30 2296 C 222.625 -0.392246 -2.31298 0
M  V30 2297 C 223.641 0.515889 -1.66176 0
M  V30 2298 O 224.817 0.404093 -1.97304 0
M  V30 2299 C 221.882 0.36686 -3.44754 0
M  V30 2300 C 220.943 -0.573485 -4.25452 0
M  V30 2301 C 220.176 0.149488 -5.33491 0
M  V30 2302 O 220.399 1.37255 -5.5364 0
M  V30 2303 O 219.333 -0.510919 -5.99728 0
M  V30 2304 H 223.159 -1.2411 -2.77183 0
M  V30 2305 H 220.744 -0.669926 -1.33538 0
M  V30 2306 H 222.626 0.795907 -4.13816 0
M  V30 2307 H 221.301 1.19169 -3.00966 0
M  V30 2308 H 220.208 -1.05176 -3.59011 0
M  V30 2309 H 221.541 -1.36489 -4.72897 0
M  V30 2310 N 223.193 1.4272 -0.668489 0
M  V30 2311 C 224.609 1.55992 -0.33745 0
M  V30 2312 C 224.809 1.64933 1.15756 0
M  V30 2313 O 223.865 1.61278 1.94282 0
M  V30 2314 C 225.178 2.81314 -1.06222 0
M  V30 2315 C 226.726 2.95078 -1.04394 0
M  V30 2316 C 227.201 4.23252 -1.74991 0
M  V30 2317 N 228.692 4.3015 -1.71829 0
M  V30 2318 C 229.427 5.28127 -2.23315 0
M  V30 2319 N 228.923 6.32293 -2.83156 0
M  V30 2320 N 230.716 5.19882 -2.13726 0
M  V30 2321 H 222.867 1.3516 -1.63846 0
M  V30 2322 H 225.13 0.650174 -0.689912 0
M  V30 2323 H 224.836 2.80823 -2.11734 0
M  V30 2324 H 224.71 3.72012 -0.62344 0
M  V30 2325 H 227.097 2.951 0.0028244 0
M  V30 2326 H 227.178 2.05627 -1.52155 0
M  V30 2327 H 226.822 4.2399 -2.79633 0
M  V30 2328 H 226.752 5.11626 -1.24685 0
M  V30 2329 H 229.243 3.55499 -1.28175 0
M  V30 2330 H 229.556 7.03398 -3.20079 0
M  V30 2331 H 227.901 6.32873 -2.87223 0
M  V30 2332 H 231.092 4.37423 -1.66669 0
M  V30 2333 H 231.265 5.96077 -2.54158 0
M  V30 2334 N 224.671 0.411399 1.52136 0
M  V30 2335 C 225.899 -0.163076 2.06256 0
M  V30 2336 C 226.314 -1.3867 1.28125 0
M  V30 2337 O 225.671 -1.79423 0.333721 0
M  V30 2338 C 225.722 -0.511252 3.57867 0
M  V30 2339 O 225.443 0.66378 4.33042 0
M  V30 2340 C 226.944 -1.13921 4.28412 0
M  V30 2341 H 224.164 -0.0193897 0.67072 0
M  V30 2342 H 226.708 0.583007 1.96013 0
M  V30 2343 H 224.863 -1.20723 3.6811 0
M  V30 2344 H 225.277 0.372601 5.23175 0
M  V30 2345 H 226.751 -1.33302 5.35663 0
M  V30 2346 H 227.228 -2.11296 3.85033 0
M  V30 2347 H 227.834 -0.483373 4.22544 0
M  V30 2348 N 226.149 -1.5696 0.141893 0
M  V30 2349 C 227.395 -1.9625 -0.511248 0
M  V30 2350 C 227.728 -1.02654 -1.64851 0
M  V30 2351 O 227.003 -0.0679676 -1.94381 0
M  V30 2352 C 227.286 -3.45285 -1.02227 0
M  V30 2353 C 227.139 -4.49658 0.113138 0
M  V30 2354 C 228.458 -3.96698 -1.90574 0
M  V30 2355 H 225.577 -0.713567 -0.184367 0
M  V30 2356 H 228.219 -1.88698 0.222087 0
M  V30 2357 H 226.369 -3.51852 -1.64719 0
M  V30 2358 H 228.041 -4.55174 0.749302 0
M  V30 2359 H 226.284 -4.26857 0.773026 0
M  V30 2360 H 226.955 -5.51258 -0.286053 0
M  V30 2361 H 229.431 -3.92578 -1.37918 0
M  V30 2362 H 228.307 -5.01453 -2.2324 0
M  V30 2363 H 228.568 -3.3875 -2.84079 0
M  V30 2364 N 227.627 0.131896 -1.57047 0
M  V30 2365 C 228.855 0.856461 -1.88341 0
M  V30 2366 C 229.27 1.74042 -0.731757 0
M  V30 2367 O 228.627 1.80051 0.297945 0
M  V30 2368 C 228.678 1.70064 -3.18999 0
M  V30 2369 O 228.399 0.852278 -4.2973 0
M  V30 2370 C 229.9 2.53148 -3.63911 0
M  V30 2371 H 227.12 0.246885 -0.62393 0
M  V30 2372 H 229.664 0.120152 -2.04147 0
M  V30 2373 H 227.819 2.38984 -3.04902 0
M  V30 2374 H 228.233 1.43329 -5.04537 0
M  V30 2375 H 229.707 3.07931 -4.58129 0
M  V30 2376 H 230.184 3.29901 -2.89935 0
M  V30 2377 H 230.79 1.89492 -3.80753 0
M  V30 2378 N 229.106 1.52395 0.401703 0
M  V30 2379 C 230.353 1.66817 1.14796 0
M  V30 2380 C 230.681 0.401772 1.90305 0
M  V30 2381 O 229.936 -0.615487 1.85769 0
M  V30 2382 C 230.235 2.84578 2.16217 0
M  V30 2383 C 229.901 4.22513 1.5746 0
M  V30 2384 C 228.563 4.60029 1.41161 0
M  V30 2385 C 230.915 5.0844 1.14622 0
M  V30 2386 C 228.243 5.81144 0.80552 0
M  V30 2387 C 230.595 6.30167 0.55428 0
M  V30 2388 C 229.259 6.66426 0.378482 0
M  V30 2389 H 228.529 0.610428 0.420069 0
M  V30 2390 H 231.176 1.86512 0.434212 0
M  V30 2391 H 229.481 2.59248 2.93764 0
M  V30 2392 H 231.178 2.92933 2.73845 0
M  V30 2393 H 227.768 3.92953 1.71132 0
M  V30 2394 H 231.952 4.80034 1.26021 0
M  V30 2395 H 227.208 6.07855 0.657399 0
M  V30 2396 H 231.382 6.96071 0.213983 0
M  V30 2397 H 229.009 7.60143 -0.0932606 0
M  V30 2398 N 230.584 -0.659388 1.43143 0
M  V30 2399 C 231.812 -1.44723 1.47861 0
M  V30 2400 C 232.227 -1.88563 0.0945886 0
M  V30 2401 O 231.584 -1.59108 -0.893915 0
M  V30 2402 C 231.635 -2.68627 2.41913 0
M  V30 2403 O 231.356 -2.26623 3.74932 0
M  V30 2404 C 232.857 -3.62045 2.55809 0
M  V30 2405 H 230.077 -0.444801 0.502387 0
M  V30 2406 H 232.621 -0.808916 1.87821 0
M  V30 2407 H 230.776 -3.28613 2.05164 0
M  V30 2408 H 231.19 -3.06745 4.2545 0
M  V30 2409 H 232.664 -4.45666 3.25708 0
M  V30 2410 H 233.141 -4.08981 1.60099 0
M  V30 2411 H 233.747 -3.07944 2.93344 0
M  V30 2412 N 232.062 -1.29571 -0.897171 0
M  V30 2413 C 233.292 -1.20408 -1.67886 0
M  V30 2414 C 233.7 0.237429 -1.87704 0
M  V30 2415 O 233.043 1.17048 -1.41582 0
M  V30 2416 C 233.105 -1.84887 -3.08314 0
M  V30 2417 C 232.769 -3.34189 -3.11716 0
M  V30 2418 C 233.766 -4.30374 -2.91675 0
M  V30 2419 C 231.451 -3.75431 -3.33701 0
M  V30 2420 C 233.445 -5.65776 -2.93557 0
M  V30 2421 C 231.132 -5.10955 -3.35214 0
M  V30 2422 C 232.13 -6.05938 -3.15164 0
M  V30 2423 O 231.818 -7.38987 -3.1647 0
M  V30 2424 H 231.55 -0.418289 -0.531046 0
M  V30 2425 H 234.104 -1.71514 -1.13014 0
M  V30 2426 H 232.334 -1.28295 -3.64798 0
M  V30 2427 H 234.023 -1.70011 -3.6858 0
M  V30 2428 H 234.789 -3.99844 -2.74499 0
M  V30 2429 H 230.668 -3.01953 -3.48347 0
M  V30 2430 H 234.212 -6.39889 -2.77826 0
M  V30 2431 H 230.109 -5.4113 -3.51922 0
M  V30 2432 H 230.877 -7.47823 -3.3272 0
M  V30 2433 N 233.54 1.10788 -1.12088 0
M  V30 2434 C 234.786 1.82942 -0.875226 0
M  V30 2435 C 235.119 1.84779 0.597538 0
M  V30 2436 O 234.394 1.30578 1.44152 0
M  V30 2437 C 234.677 3.29789 -1.44606 0
M  V30 2438 C 234.53 3.36307 -2.98693 0
M  V30 2439 C 235.849 4.26064 -1.10261 0
M  V30 2440 H 232.968 0.664195 -0.319397 0
M  V30 2441 H 235.61 1.29867 -1.38689 0
M  V30 2442 H 233.76 3.75118 -1.01089 0
M  V30 2443 H 235.432 2.99487 -3.50864 0
M  V30 2444 H 233.675 2.76318 -3.34411 0
M  V30 2445 H 234.346 4.39694 -3.33726 0
M  V30 2446 H 236.822 3.88951 -1.4784 0
M  V30 2447 H 235.698 5.27183 -1.52869 0
M  V30 2448 H 235.959 4.42098 -0.0142953 0
M  V30 2449 N 235.018 0.912232 1.28515 0
M  V30 2450 C 235.951 0.343928 2.25593 0
M  V30 2451 C 236.929 -0.550994 1.5298 0
M  V30 2452 O 238.113 -0.494991 1.81885 0
M  V30 2453 C 235.24 -0.508525 3.34861 0
M  V30 2454 C 234.286 0.320808 4.25292 0
M  V30 2455 S 235.119 1.72658 5.06902 0
M  V30 2456 C 236.275 0.881394 6.19663 0
M  V30 2457 H 236.508 1.16674 2.73449 0
M  V30 2458 H 234.041 0.713384 1.36931 0
M  V30 2459 H 235.999 -0.994539 3.9827 0
M  V30 2460 H 234.66 -1.30571 2.85675 0
M  V30 2461 H 233.853 -0.330941 5.02912 0
M  V30 2462 H 233.455 0.74042 3.66598 0
M  V30 2463 H 235.747 0.110359 6.7741 0
M  V30 2464 H 236.69 1.63009 6.89082 0
M  V30 2465 H 237.098 0.430239 5.62858 0
M  V30 2466 N 236.496 -1.42363 0.676048 0
M  V30 2467 C 237.426 -2.33497 0.0124832 0
M  V30 2468 C 238.407 -1.50748 -0.787981 0
M  V30 2469 O 239.592 -1.79346 -0.744884 0
M  V30 2470 C 236.722 -3.34377 -0.938582 0
M  V30 2471 C 235.676 -4.27289 -0.246622 0
M  V30 2472 C 235.002 -5.18386 -1.31071 0
M  V30 2473 C 236.302 -5.14916 0.875125 0
M  V30 2474 H 237.996 -2.89233 0.773593 0
M  V30 2475 H 235.542 -1.39073 0.37346 0
M  V30 2476 H 237.495 -3.97044 -1.41188 0
M  V30 2477 H 236.219 -2.76947 -1.73113 0
M  V30 2478 H 234.878 -3.66018 0.206456 0
M  V30 2479 H 234.526 -4.57282 -2.09528 0
M  V30 2480 H 234.226 -5.81378 -0.852839 0
M  V30 2481 H 235.75 -5.83929 -1.78492 0
M  V30 2482 H 237.164 -5.71262 0.482983 0
M  V30 2483 H 235.561 -5.86747 1.25887 0
M  V30 2484 H 236.631 -4.53242 1.72335 0
M  V30 2485 N 237.974 -0.419461 -1.51915 0
M  V30 2486 C 239.22 0.153166 -2.02221 0
M  V30 2487 C 239.553 1.43907 -1.30401 0
M  V30 2488 O 238.828 1.90055 -0.413438 0
M  V30 2489 C 239.111 0.390291 -3.57979 0
M  V30 2490 C 238.964 -0.913014 -4.40436 0
M  V30 2491 C 240.283 1.16794 -4.2432 0
M  V30 2492 H 237.402 0.0541924 -0.735005 0
M  V30 2493 H 240.044 -0.554955 -1.81715 0
M  V30 2494 H 238.194 0.993491 -3.75582 0
M  V30 2495 H 239.866 -1.54882 -4.34522 0
M  V30 2496 H 238.109 -1.52168 -4.06236 0
M  V30 2497 H 238.78 -0.701361 -5.47526 0
M  V30 2498 H 241.256 0.657161 -4.10878 0
M  V30 2499 H 240.132 1.3026 -5.3322 0
M  V30 2500 H 240.393 2.19132 -3.83971 0
M  V30 2501 N 239.452 1.56882 -0.150215 0
M  V30 2502 C 240.385 2.12712 0.826358 0
M  V30 2503 C 241.363 1.05154 1.24022 0
M  V30 2504 O 242.547 1.33004 1.33575 0
M  V30 2505 C 239.674 2.64945 2.11002 0
M  V30 2506 C 238.72 3.8468 1.84183 0
M  V30 2507 S 239.553 5.25502 1.02995 0
M  V30 2508 C 240.709 5.81125 2.32474 0
M  V30 2509 H 240.942 2.95214 0.351598 0
M  V30 2510 H 238.475 1.54267 0.0641211 0
M  V30 2511 H 240.433 2.95689 2.84742 0
M  V30 2512 H 239.094 1.82568 2.55593 0
M  V30 2513 H 238.287 4.19482 2.79375 0
M  V30 2514 H 237.889 3.54714 1.1855 0
M  V30 2515 H 240.181 5.92753 3.281 0
M  V30 2516 H 241.124 6.78625 2.02171 0
M  V30 2517 H 241.532 5.09392 2.43269 0
M  V30 2518 N 240.93 -0.123565 1.57115 0
M  V30 2519 C 241.86 -1.15309 2.03042 0
M  V30 2520 C 242.841 -1.43454 0.914061 0
M  V30 2521 O 244.026 -1.53973 1.18347 0
M  V30 2522 C 241.156 -2.48043 2.43089 0
M  V30 2523 C 240.11 -2.3437 3.58127 0
M  V30 2524 C 239.436 -3.72026 3.84059 0
M  V30 2525 C 240.736 -1.80804 4.90007 0
M  V30 2526 H 242.43 -0.771102 2.893 0
M  V30 2527 H 239.976 -0.369479 1.39179 0
M  V30 2528 H 241.929 -3.20311 2.73823 0
M  V30 2529 H 240.653 -2.88122 1.53796 0
M  V30 2530 H 239.312 -1.64551 3.27595 0
M  V30 2531 H 238.96 -4.09582 2.91979 0
M  V30 2532 H 238.66 -3.63732 4.6149 0
M  V30 2533 H 240.184 -4.45806 4.1724 0
M  V30 2534 H 241.598 -2.42886 5.19307 0
M  V30 2535 H 239.995 -1.83343 5.71407 0
M  V30 2536 H 241.065 -0.76528 4.78823 0
M  V30 2537 N 242.408 -1.52605 -0.393616 0
M  V30 2538 C 243.654 -1.68624 -1.13743 0
M  V30 2539 C 244.009 -0.418687 -1.87789 0
M  V30 2540 O 243.302 0.58747 -1.82371 0
M  V30 2541 C 243.496 -2.85721 -2.14705 0
M  V30 2542 C 243.325 -4.23742 -1.50575 0
M  V30 2543 C 242.095 -4.89033 -1.2718 0
M  V30 2544 C 244.293 -5.05293 -0.958311 0
M  V30 2545 N 242.275 -6.11048 -0.591058 0
M  V30 2546 C 243.646 -6.18673 -0.405367 0
M  V30 2547 C 245.701 -4.90517 -0.854274 0
M  V30 2548 C 244.404 -7.18895 0.241434 0
M  V30 2549 C 246.43 -5.90986 -0.221301 0
M  V30 2550 C 245.792 -7.03669 0.320894 0
M  V30 2551 H 241.891 -0.670556 -0.402342 0
M  V30 2552 H 244.475 -1.89946 -0.427607 0
M  V30 2553 H 242.646 -2.65987 -2.83029 0
M  V30 2554 H 244.378 -2.90699 -2.8156 0
M  V30 2555 H 241.133 -4.47672 -1.54554 0
M  V30 2556 H 241.557 -6.76474 -0.266862 0
M  V30 2557 H 246.199 -4.03612 -1.25926 0
M  V30 2558 H 243.917 -8.05413 0.658448 0
M  V30 2559 H 247.503 -5.81626 -0.142111 0
M  V30 2560 H 246.383 -7.80078 0.802956 0
M  V30 2561 N 243.887 0.651787 -1.4349 0
M  V30 2562 C 245.135 1.40888 -1.44897 0
M  V30 2563 C 245.456 1.94856 -0.0749086 0
M  V30 2564 O 244.726 1.74518 0.889956 0
M  V30 2565 H 243.306 0.522887 -0.533478 0
M  V30 2566 H 245.968 0.768609 -1.79104 0
M  V30 2567 H 245.064 2.25052 -2.16236 0
M  V30 2568 N 245.365 1.30045 0.890287 0
M  V30 2569 C 246.593 1.21472 1.67487 0
M  V30 2570 C 247.008 -0.223241 1.87476 0
M  V30 2571 O 246.365 -1.14828 1.41847 0
M  V30 2572 C 246.416 1.93394 3.05419 0
M  V30 2573 O 246.137 3.31576 2.86337 0
M  V30 2574 C 247.638 1.91414 3.99844 0
M  V30 2575 H 244.858 0.420604 0.522813 0
M  V30 2576 H 247.402 1.7158 1.11268 0
M  V30 2577 H 245.557 1.47099 3.58386 0
M  V30 2578 H 245.971 3.67929 3.73802 0
M  V30 2579 H 247.445 2.46285 4.94012 0
M  V30 2580 H 247.922 0.891833 4.3005 0
M  V30 2581 H 248.528 2.37496 3.52811 0
M  V30 2582 N 246.843 -1.10192 1.12674 0
M  V30 2583 C 248.068 -1.86523 0.906853 0
M  V30 2584 C 248.493 -1.80221 -0.538711 0
M  V30 2585 O 247.851 -1.17396 -1.38158 0
M  V30 2586 C 247.899 -3.32758 1.3894 0
M  V30 2587 O 247.003 -4.08449 0.5695 0
M  V30 2588 H 246.344 -0.578678 0.325619 0
M  V30 2589 H 248.874 -1.39203 1.49946 0
M  V30 2590 H 248.884 -3.83608 1.38958 0
M  V30 2591 H 247.559 -3.36661 2.44197 0
M  V30 2592 H 246.136 -3.67427 0.636528 0
M  V30 2593 N 248.321 -0.919034 -1.28029 0
M  V30 2594 C 249.57 -0.550802 -1.94034 0
M  V30 2595 C 249.883 0.910877 -1.73096 0
M  V30 2596 O 251.089 1.3875 -2.33368 0
M  V30 2597 C 249.545 -0.934249 -3.47563 0
M  V30 2598 C 249.153 -2.41602 -3.7727 0
M  V30 2599 C 250.897 -0.636854 -4.19696 0
M  V30 2600 C 248.804 -2.73932 -5.24133 0
M  V30 2601 H 247.734 -0.202273 -0.726362 0
M  V30 2602 H 250.385 -1.11867 -1.45458 0
M  V30 2603 H 248.767 -0.295115 -3.94899 0
M  V30 2604 H 249.941 -3.10233 -3.40723 0
M  V30 2605 H 248.256 -2.68441 -3.18321 0
M  V30 2606 H 250.853 -0.855005 -5.2782 0
M  V30 2607 H 251.196 0.425575 -4.14119 0
M  V30 2608 H 251.729 -1.23469 -3.78154 0
M  V30 2609 H 248.468 -3.79049 -5.34792 0
M  V30 2610 H 247.988 -2.09942 -5.61858 0
M  V30 2611 H 249.667 -2.61215 -5.91925 0
M  V30 2612 N 249.799 1.42003 -0.683588 0
M  V30 2613 C 251.039 2.03282 -0.213513 0
M  V30 2614 C 251.403 1.52924 1.16097 0
M  V30 2615 O 252.604 2.06048 1.7262 0
M  V30 2616 C 250.875 3.56483 -0.255856 0
M  V30 2617 S 252.434 4.3857 0.14193 0
M  V30 2618 H 249.252 0.705659 -0.0869853 0
M  V30 2619 H 251.854 1.73619 -0.8987 0
M  V30 2620 H 250.558 3.90631 -1.25841 0
M  V30 2621 H 250.089 3.90831 0.448875 0
M  V30 2622 H 252.104 4.76828 1.37295 0
M  V30 2623 N 251.277 0.427512 1.51691 0
M  V30 2624 C 252.207 -0.3796 2.30394 0
M  V30 2625 C 253.188 -1.02982 1.35384 0
M  V30 2626 O 254.373 -1.03534 1.643 0
M  V30 2627 C 251.503 -1.48649 3.1388 0
M  V30 2628 C 250.457 -0.960294 4.17088 0
M  V30 2629 C 249.783 -2.16219 4.89033 0
M  V30 2630 C 251.083 -0.00153679 5.223 0
M  V30 2631 H 252.777 0.277164 2.98114 0
M  V30 2632 H 250.323 0.134739 1.43368 0
M  V30 2633 H 252.276 -2.05826 3.67714 0
M  V30 2634 H 251 -2.1714 2.43962 0
M  V30 2635 H 249.659 -0.410806 3.64291 0
M  V30 2636 H 249.307 -2.83307 4.15628 0
M  V30 2637 H 249.007 -1.81654 5.58816 0
M  V30 2638 H 250.531 -2.73968 5.45687 0
M  V30 2639 H 251.945 -0.482687 5.71264 0
M  V30 2640 H 250.342 0.256199 5.99553 0
M  V30 2641 H 251.412 0.938174 4.75738 0
M  V30 2642 N 252.755 -1.56801 0.158532 0
M  V30 2643 C 254.003 -1.96102 -0.488712 0
M  V30 2644 C 254.324 -1.04498 -1.64636 0
M  V30 2645 O 253.594 -0.108783 -1.95598 0
M  V30 2646 H 252.174 -0.724102 -0.183535 0
M  V30 2647 H 254.836 -1.93457 0.236728 0
M  V30 2648 H 253.932 -3.00097 -0.857219 0
M  V30 2649 N 254.233 0.115231 -1.57178 0
M  V30 2650 C 255.163 1.1423 -2.03651 0
M  V30 2651 C 256.144 1.42967 -0.921655 0
M  V30 2652 O 257.329 1.53343 -1.19162 0
M  V30 2653 C 254.459 2.4675 -2.44401 0
M  V30 2654 C 253.413 2.32467 -3.59365 0
M  V30 2655 C 252.739 3.69984 -3.86026 0
M  V30 2656 C 254.039 1.78203 -4.90959 0
M  V30 2657 H 255.733 0.755749 -2.89705 0
M  V30 2658 H 253.279 0.362093 -1.39373 0
M  V30 2659 H 255.232 3.18854 -2.75517 0
M  V30 2660 H 253.956 2.87302 -1.55322 0
M  V30 2661 H 252.615 1.62811 -3.28463 0
M  V30 2662 H 252.263 4.08028 -2.94147 0
M  V30 2663 H 251.963 3.61279 -4.63412 0
M  V30 2664 H 253.487 4.43587 -4.19599 0
M  V30 2665 H 254.901 2.40128 -5.20587 0
M  V30 2666 H 253.298 1.8031 -5.72371 0
M  V30 2667 H 254.368 0.739876 -4.79222 0
M  V30 2668 N 255.711 1.52812 0.385517 0
M  V30 2669 C 256.641 1.80808 1.47752 0
M  V30 2670 C 257.622 0.660318 1.5676 0
M  V30 2671 O 258.807 0.908246 1.71652 0
M  V30 2672 C 255.937 1.98008 2.85324 0
M  V30 2673 C 254.891 3.13709 2.91154 0
M  V30 2674 C 254.217 3.16169 4.31209 0
M  V30 2675 C 255.517 4.52709 2.60483 0
M  V30 2676 H 257.211 2.72253 1.24573 0
M  V30 2677 H 254.757 1.31003 0.597839 0
M  V30 2678 H 256.71 2.16176 3.61726 0
M  V30 2679 H 255.434 1.03255 3.09848 0
M  V30 2680 H 254.093 2.95329 2.17201 0
M  V30 2681 H 253.741 2.19092 4.52778 0
M  V30 2682 H 253.441 3.93894 4.36029 0
M  V30 2683 H 254.965 3.36496 5.09512 0
M  V30 2684 H 256.379 4.71173 3.26602 0
M  V30 2685 H 254.776 5.32528 2.76648 0
M  V30 2686 H 255.846 4.59186 1.55809 0
M  V30 2687 N 257.189 -0.644168 1.43834 0
M  V30 2688 C 258.6 -1.22554 1.40845 0
M  V30 2689 C 258.951 -1.9585 0.117115 0
M  V30 2690 O 258.076 -2.01734 -0.783086 0
M  V30 2691 C 258.671 -2.22907 2.55143 0
M  V30 2692 C 257.23 -2.76501 2.5539 0
M  V30 2693 C 256.377 -1.51287 2.32396 0
M  V30 2694 H 259.328 -0.43563 1.52604 0
M  V30 2695 H 259.349 -3.05259 2.2715 0
M  V30 2696 H 258.861 -1.69533 3.49114 0
M  V30 2697 H 256.962 -3.33914 1.65324 0
M  V30 2698 H 257.075 -3.23429 3.53455 0
M  V30 2699 H 255.439 -1.78957 1.81236 0
M  V30 2700 H 256.222 -0.998336 3.28463 0
M  V30 2701 N 258.668 -1.30515 -0.883378 0
M  V30 2702 C 259.914 -1.19607 -1.63774 0
M  V30 2703 C 260.247 0.248314 -1.92606 0
M  V30 2704 O 259.522 1.17742 -1.54813 0
M  V30 2705 C 259.805 -2.02669 -2.97653 0
M  V30 2706 C 259.658 -3.55335 -2.75784 0
M  V30 2707 C 260.977 -1.86573 -3.98596 0
M  V30 2708 H 258.096 -0.435856 -0.594305 0
M  V30 2709 H 260.738 -1.60165 -1.02212 0
M  V30 2710 H 258.888 -1.68208 -3.50197 0
M  V30 2711 H 260.56 -3.99863 -2.30016 0
M  V30 2712 H 258.803 -3.79438 -2.1026 0
M  V30 2713 H 259.474 -4.08745 -3.70988 0
M  V30 2714 H 261.95 -2.16703 -3.55217 0
M  V30 2715 H 260.826 -2.47014 -4.90179 0
M  V30 2716 H 261.087 -0.825321 -4.34328 0
M  V30 2717 N 260.146 1.09593 -1.13257 0
M  V30 2718 C 261.079 2.15451 -0.752061 0
M  V30 2719 C 262.057 1.60493 0.260913 0
M  V30 2720 O 263.241 1.8788 0.152819 0
M  V30 2721 C 260.368 3.38506 -0.114594 0
M  V30 2722 C 259.414 4.12183 -1.09579 0
M  V30 2723 S 260.247 4.6661 -2.62745 0
M  V30 2724 C 261.403 5.92966 -2.00354 0
M  V30 2725 H 261.636 2.47395 -1.64872 0
M  V30 2726 H 259.169 1.21515 -0.952545 0
M  V30 2727 H 261.127 4.09757 0.246808 0
M  V30 2728 H 259.788 3.04784 0.759309 0
M  V30 2729 H 258.981 5.00445 -0.597545 0
M  V30 2730 H 258.583 3.46785 -1.40057 0
M  V30 2731 H 260.875 6.63882 -1.35156 0
M  V30 2732 H 261.818 6.47467 -2.86691 0
M  V30 2733 H 262.226 5.45405 -1.4558 0
M  V30 2734 N 261.624 0.925811 1.2754 0
M  V30 2735 C 262.872 0.564138 1.94067 0
M  V30 2736 C 263.193 -0.897188 1.73134 0
M  V30 2737 O 262.463 -1.63573 1.07799 0
M  V30 2738 H 261.043 0.205645 0.718136 0
M  V30 2739 H 263.705 1.1778 1.55287 0
M  V30 2740 H 262.801 0.76881 3.02483 0
M  V30 2741 N 263.102 -1.41638 0.69111 0
M  V30 2742 C 264.348 -2.02104 0.229258 0
M  V30 2743 C 264.703 -1.53741 -1.15678 0
M  V30 2744 O 263.996 -0.736849 -1.76865 0
M  V30 2745 C 264.19 -3.56714 0.221277 0
M  V30 2746 C 264.019 -4.20083 1.605 0
M  V30 2747 C 262.789 -4.54566 2.20676 0
M  V30 2748 C 264.987 -4.46587 2.55078 0
M  V30 2749 N 262.969 -5.03199 3.5166 0
M  V30 2750 C 264.34 -4.96946 3.70735 0
M  V30 2751 C 266.395 -4.28593 2.53401 0
M  V30 2752 C 265.098 -5.31203 4.8499 0
M  V30 2753 C 267.124 -4.63936 3.66765 0
M  V30 2754 C 266.486 -5.14463 4.81152 0
M  V30 2755 H 262.585 -0.771256 0.12918 0
M  V30 2756 H 265.169 -1.72251 0.907626 0
M  V30 2757 H 263.34 -3.86051 -0.426562 0
M  V30 2758 H 265.072 -4.03896 -0.254983 0
M  V30 2759 H 261.827 -4.4087 1.73005 0
M  V30 2760 H 262.251 -5.31926 4.18789 0
M  V30 2761 H 266.893 -3.88771 1.66184 0
M  V30 2762 H 264.611 -5.69951 5.72871 0
M  V30 2763 H 268.197 -4.51677 3.66714 0
M  V30 2764 H 267.077 -5.41299 5.67419 0
M  V30 2765 N 264.58 -0.43555 -1.51462 0
M  V30 2766 C 265.528 0.391205 -2.29287 0
M  V30 2767 C 266.522 1.02247 -1.35062 0
M  V30 2768 O 267.728 0.957646 -1.52411 0
M  V30 2769 H 264.103 0.144968 -0.737895 0
M  V30 2770 H 266.074 -0.286051 -2.97026 0
M  V30 2771 C 264.823 1.48096 -3.14583 0
M  V30 2772 H 264.146 1.00457 -3.86973 0
M  V30 2773 H 265.586 2.03273 -3.72097 0
M  V30 2774 C 264.045 2.46321 -2.29843 0
M  V30 2775 O 264.575 3.50815 -1.95682 0
M  V30 2776 N 262.781 2.17166 -1.931 0
M  V30 2777 H 262.328 1.32218 -2.21079 0
M  V30 2778 H 262.286 2.83127 -1.36698 0
M  V30 2779 N 266.058 1.56714 -0.166846 0
M  V30 2780 C 267.298 1.98641 0.481763 0
M  V30 2781 C 267.662 1.05038 1.6072 0
M  V30 2782 O 268.863 1.36087 2.31805 0
M  V30 2783 C 267.134 3.44362 0.956517 0
M  V30 2784 S 268.693 4.08317 1.60694 0
M  V30 2785 H 265.511 0.693873 0.155116 0
M  V30 2786 H 268.113 1.93719 -0.263251 0
M  V30 2787 H 266.817 4.10204 0.126936 0
M  V30 2788 H 266.348 3.53041 1.73568 0
M  V30 2789 H 268.363 4.02999 2.89494 0
M  V30 2790 N 267.536 -0.106894 1.57237 0
M  V30 2791 C 268.466 -1.13148 2.04254 0
M  V30 2792 C 269.447 -1.42476 0.929224 0
M  V30 2793 O 270.632 -1.52709 1.19973 0
M  V30 2794 C 267.762 -2.4545 2.45706 0
M  V30 2795 C 266.716 -2.30558 3.60592 0
M  V30 2796 C 266.042 -3.67931 3.87983 0
M  V30 2797 C 267.342 -1.75597 4.91897 0
M  V30 2798 H 269.036 -0.740374 2.90101 0
M  V30 2799 H 266.582 -0.354696 1.39563 0
M  V30 2800 H 268.535 -3.17389 2.77205 0
M  V30 2801 H 267.259 -2.86475 1.56843 0
M  V30 2802 H 265.918 -1.61067 3.29322 0
M  V30 2803 H 265.566 -4.06462 2.96306 0
M  V30 2804 H 265.266 -3.58817 4.65322 0
M  V30 2805 H 266.79 -4.41356 4.21945 0
M  V30 2806 H 268.204 -2.37364 5.21854 0
M  V30 2807 H 266.601 -1.77272 5.73319 0
M  V30 2808 H 267.671 -0.714451 4.79608 0
M  V30 2809 N 269.014 -1.53014 -0.377408 0
M  V30 2810 C 270.43 -1.42523 -0.718281 0
M  V30 2811 C 270.63 -0.55487 -1.9371 0
M  V30 2812 O 269.686 -0.0327593 -2.52479 0
M  V30 2813 C 270.999 -2.85546 -0.942539 0
M  V30 2814 C 272.547 -2.95101 -1.04329 0
M  V30 2815 C 273.022 -4.3916 -1.3001 0
M  V30 2816 N 274.513 -4.42536 -1.36806 0
M  V30 2817 C 275.248 -5.51097 -1.58364 0
M  V30 2818 N 274.744 -6.69724 -1.77317 0
M  V30 2819 N 276.537 -5.38657 -1.60638 0
M  V30 2820 H 268.688 -2.08116 0.424426 0
M  V30 2821 H 270.951 -0.939352 0.127759 0
M  V30 2822 H 270.657 -3.51499 -0.118929 0
M  V30 2823 H 270.531 -3.28493 -1.85397 0
M  V30 2824 H 272.918 -2.29309 -1.85745 0
M  V30 2825 H 272.999 -2.55566 -0.109505 0
M  V30 2826 H 272.643 -5.05521 -0.490991 0
M  V30 2827 H 272.573 -4.76258 -2.24691 0
M  V30 2828 H 275.064 -3.57039 -1.23821 0
M  V30 2829 H 275.377 -7.48233 -1.93306 0
M  V30 2830 H 273.722 -6.72732 -1.74518 0
M  V30 2831 H 276.913 -4.44948 -1.45391 0
M  V30 2832 H 277.086 -6.2333 -1.77098 0
M  V30 2833 N 270.492 0.636531 -1.44174 0
M  V30 2834 C 271.769 1.39463 -1.37148 0
M  V30 2835 C 272.149 2.11082 -0.027507 0
M  V30 2836 O 271.497 2.05954 0.989716 0
M  V30 2837 C 271.707 2.36552 -2.56601 0
M  V30 2838 C 273.055 3.00048 -3.00427 0
M  V30 2839 O 274.079 2.46878 -2.56767 0
M  V30 2840 O 272.938 3.96488 -3.76111 0
M  V30 2841 H 270.032 0.623903 -0.542839 0
M  V30 2842 H 272.578 0.662039 -1.56253 0
M  V30 2843 H 271.35 1.82692 -3.46034 0
M  V30 2844 H 270.973 3.17236 -2.39681 0
M  V30 2845 N 271.97 1.30982 0.876444 0
M  V30 2846 C 272.88 1.2003 2.01569 0
M  V30 2847 C 273.896 0.11838 1.73597 0
M  V30 2848 O 275.072 0.33495 1.98595 0
M  V30 2849 C 272.137 0.901637 3.34771 0
M  V30 2850 C 271.198 2.06979 3.76109 0
M  V30 2851 C 270.431 1.78529 5.02954 0
M  V30 2852 O 270.654 0.717296 5.65872 0
M  V30 2853 O 269.588 2.64019 5.40905 0
M  V30 2854 H 273.414 2.15753 2.13739 0
M  V30 2855 H 270.999 1.10658 1.00375 0
M  V30 2856 H 272.881 0.750645 4.1466 0
M  V30 2857 H 271.556 -0.0256141 3.2369 0
M  V30 2858 H 270.463 2.27616 2.96887 0
M  V30 2859 H 271.796 2.97907 3.91807 0
M  V30 2860 N 273.449 -1.08991 1.13837 0
M  V30 2861 C 274.674 -1.85551 0.926585 0
M  V30 2862 C 275.099 -1.80782 -0.519566 0
M  V30 2863 O 274.457 -1.18855 -1.36906 0
M  V30 2864 C 274.505 -3.31266 1.42462 0
M  V30 2865 O 273.609 -4.07822 0.612789 0
M  V30 2866 H 272.95 -0.575192 0.331738 0
M  V30 2867 H 275.48 -1.37604 1.51414 0
M  V30 2868 H 275.49 -3.82112 1.43019 0
M  V30 2869 H 274.165 -3.34052 2.47754 0
M  V30 2870 H 272.742 -3.66731 0.675463 0
M  V30 2871 N 274.927 -0.932562 -1.27047 0
M  V30 2872 C 276.155 -0.592031 -1.98249 0
M  V30 2873 C 276.57 0.831062 -1.69525 0
M  V30 2874 O 275.927 1.55299 -0.958561 0
M  V30 2875 C 275.978 -0.814279 -3.5221 0
M  V30 2876 O 275.699 -2.18139 -3.7993 0
M  V30 2877 C 277.2 -0.483121 -4.4066 0
M  V30 2878 H 274.42 -0.223896 -0.632544 0
M  V30 2879 H 276.964 -1.25091 -1.61779 0
M  V30 2880 H 275.119 -0.20213 -3.86872 0
M  V30 2881 H 275.533 -2.235 -4.74498 0
M  V30 2882 H 277.007 -0.689298 -5.47679 0
M  V30 2883 H 277.484 0.581546 -4.35333 0
M  V30 2884 H 278.09 -1.07362 -4.11526 0
M  V30 2885 N 276.405 1.4127 -0.698611 0
M  V30 2886 C 277.645 2.03044 -0.235062 0
M  V30 2887 C 278.009 1.54146 1.14468 0
M  V30 2888 O 279.21 2.07867 1.70425 0
M  V30 2889 C 277.481 3.56192 -0.293651 0
M  V30 2890 S 279.04 4.38696 0.0954053 0
M  V30 2891 H 275.858 0.704697 -0.0944648 0
M  V30 2892 H 278.46 1.72656 -0.917064 0
M  V30 2893 H 277.164 3.89274 -1.29977 0
M  V30 2894 H 276.695 3.91285 0.407397 0
M  V30 2895 H 278.71 4.78257 1.3223 0
M  V30 2896 N 277.883 0.443576 1.51229 0
M  V30 2897 C 279.108 -0.121648 2.07043 0
M  V30 2898 C 279.533 -1.35156 1.30823 0
M  V30 2899 O 278.891 -1.7793 0.347934 0
M  V30 2900 C 278.939 -0.41624 3.5819 0
M  V30 2901 O 278.043 -1.50163 3.8409 0
M  V30 2902 H 277.384 0.000871367 0.663999 0
M  V30 2903 H 279.914 0.626706 1.94765 0
M  V30 2904 H 279.924 -0.664867 4.02546 0
M  V30 2905 H 278.599 0.482653 4.1309 0
M  V30 2906 H 277.176 -1.24248 3.51592 0
M  V30 2907 N 279.361 -1.56624 0.175154 0
M  V30 2908 C 280.607 -1.9729 -0.469506 0
M  V30 2909 C 280.94 -1.06128 -1.62636 0
M  V30 2910 O 280.215 -0.109183 -1.94193 0
M  V30 2911 C 280.498 -3.47375 -0.948804 0
M  V30 2912 C 280.351 -4.49317 0.208491 0
M  V30 2913 C 281.67 -4.00652 -1.82116 0
M  V30 2914 H 278.789 -0.717317 -0.16919 0
M  V30 2915 H 281.431 -1.88184 0.262062 0
M  V30 2916 H 279.581 -3.55267 -1.57219 0
M  V30 2917 H 281.253 -4.53482 0.845682 0
M  V30 2918 H 279.496 -4.25121 0.863395 0
M  V30 2919 H 280.167 -5.51741 -0.169059 0
M  V30 2920 H 282.643 -3.95416 -1.2956 0
M  V30 2921 H 281.519 -5.06075 -2.12554 0
M  V30 2922 H 281.78 -3.44699 -2.7683 0
M  V30 2923 N 280.839 0.0985539 -1.57292 0
M  V30 2924 C 282.085 0.803867 -1.86188 0
M  V30 2925 C 282.418 1.78549 -0.763794 0
M  V30 2926 O 281.693 1.93153 0.22855 0
M  V30 2927 C 281.976 1.53568 -3.25713 0
M  V30 2928 C 281.829 0.572277 -4.46145 0
M  V30 2929 C 283.148 2.48708 -3.63087 0
M  V30 2930 H 280.267 0.290781 -0.677211 0
M  V30 2931 H 282.909 0.0675783 -1.8988 0
M  V30 2932 H 281.059 2.16332 -3.22696 0
M  V30 2933 H 282.731 -0.0480894 -4.61275 0
M  V30 2934 H 280.974 -0.114618 -4.33649 0
M  V30 2935 H 281.645 1.12139 -5.40489 0
M  V30 2936 H 284.121 1.96039 -3.67026 0
M  V30 2937 H 282.997 2.96932 -4.61652 0
M  V30 2938 H 283.258 3.32309 -2.91588 0
M  V30 2939 N 282.317 1.53212 0.369288 0
M  V30 2940 C 283.733 1.42902 0.710712 0
M  V30 2941 C 283.933 0.565135 1.93413 0
M  V30 2942 O 282.989 0.0461484 2.52458 0
M  V30 2943 C 284.302 2.86042 0.927382 0
M  V30 2944 C 285.85 2.9565 1.02762 0
M  V30 2945 C 286.325 4.39843 1.27679 0
M  V30 2946 N 287.816 4.43256 1.34457 0
M  V30 2947 C 288.551 5.51929 1.55439 0
M  V30 2948 N 288.047 6.70655 1.73762 0
M  V30 2949 N 289.84 5.39502 1.57779 0
M  V30 2950 H 281.991 2.07888 -0.435457 0
M  V30 2951 H 284.254 0.938661 -0.132739 0
M  V30 2952 H 283.96 3.51557 0.100287 0
M  V30 2953 H 283.834 3.29472 1.83653 0
M  V30 2954 H 286.221 2.30291 1.84527 0
M  V30 2955 H 286.302 2.5562 0.0959504 0
M  V30 2956 H 285.946 5.05774 0.464175 0
M  V30 2957 H 285.876 4.77443 2.22162 0
M  V30 2958 H 288.367 3.5769 1.21926 0
M  V30 2959 H 288.68 7.49248 1.89335 0
M  V30 2960 H 287.025 6.73648 1.70948 0
M  V30 2961 H 290.216 4.45713 1.43029 0
M  V30 2962 H 290.389 6.2426 1.7379 0
M  V30 2963 N 283.795 -0.628877 1.44509 0
M  V30 2964 C 285.206 -1.21054 1.42137 0
M  V30 2965 C 285.557 -1.95715 0.137881 0
M  V30 2966 O 284.682 -2.02554 -0.761645 0
M  V30 2967 C 285.277 -2.20189 2.57493 0
M  V30 2968 C 283.836 -2.73777 2.58308 0
M  V30 2969 C 282.983 -1.48813 2.33987 0
M  V30 2970 H 285.934 -0.41942 1.53057 0
M  V30 2971 H 285.955 -3.02833 2.30375 0
M  V30 2972 H 285.467 -1.6582 3.50892 0
M  V30 2973 H 283.568 -3.32142 1.68856 0
M  V30 2974 H 283.681 -3.19662 3.56865 0
M  V30 2975 H 282.045 -1.77024 1.83124 0
M  V30 2976 H 282.828 -0.963442 3.29504 0
M  V30 2977 N 285.273 -1.31445 -0.869486 0
M  V30 2978 C 286.203 -1.21727 -1.99261 0
M  V30 2979 C 287.184 -0.104359 -1.6978 0
M  V30 2980 O 288.369 -0.289038 -1.92037 0
M  V30 2981 C 285.499 -0.924317 -3.34774 0
M  V30 2982 C 284.453 -1.99685 -3.78563 0
M  V30 2983 C 283.779 -1.55658 -5.11541 0
M  V30 2984 C 285.079 -3.41003 -3.95619 0
M  V30 2985 H 286.773 -2.1569 -2.07649 0
M  V30 2986 H 284.319 -1.03839 -0.997675 0
M  V30 2987 H 286.272 -0.842934 -4.12883 0
M  V30 2988 H 284.996 0.0509793 -3.2656 0
M  V30 2989 H 283.655 -2.06813 -3.02694 0
M  V30 2990 H 283.303 -0.569132 -4.9977 0
M  V30 2991 H 283.003 -2.27409 -5.41811 0
M  V30 2992 H 284.527 -1.48928 -5.92159 0
M  V30 2993 H 285.941 -3.36547 -4.64122 0
M  V30 2994 H 284.338 -4.10975 -4.37286 0
M  V30 2995 H 285.408 -3.81754 -2.98985 0
M  V30 2996 N 286.751 1.08385 -1.14413 0
M  V30 2997 C 287.979 1.84517 -0.936001 0
M  V30 2998 C 288.394 1.81626 0.515503 0
M  V30 2999 O 287.751 1.22008 1.35721 0
M  V30 3000 C 287.802 3.32049 -1.42918 0
M  V30 3001 O 287.523 3.34951 -2.82381 0
M  V30 3002 C 289.024 4.24986 -1.26103 0
M  V30 3003 H 286.244 0.582491 -0.333084 0
M  V30 3004 H 288.788 1.36885 -1.5193 0
M  V30 3005 H 286.943 3.7707 -0.888641 0
M  V30 3006 H 287.357 4.27048 -3.04517 0
M  V30 3007 H 288.831 5.26615 -1.6547 0
M  V30 3008 H 289.308 4.38726 -0.20392 0
M  V30 3009 H 289.914 3.85791 -1.79012 0
M  V30 3010 N 288.23 0.939286 1.26551 0
M  V30 3011 C 289.177 0.446088 2.26448 0
M  V30 3012 C 290.147 -0.493234 1.58608 0
M  V30 3013 O 291.332 -0.409857 1.86346 0
M  V30 3014 C 288.472 -0.284375 3.43926 0
M  V30 3015 C 287.585 0.690399 4.26448 0
M  V30 3016 C 286.72 -0.0610712 5.31165 0
M  V30 3017 C 285.759 0.905649 6.05363 0
M  V30 3018 N 284.896 0.186055 7.01853 0
M  V30 3019 H 289.736 1.30291 2.68008 0
M  V30 3020 H 287.273 0.65371 1.31776 0
M  V30 3021 H 289.231 -0.724313 4.10864 0
M  V30 3022 H 287.861 -1.10535 3.03285 0
M  V30 3023 H 286.913 1.24885 3.59316 0
M  V30 3024 H 288.225 1.42873 4.779 0
M  V30 3025 H 287.379 -0.56038 6.04106 0
M  V30 3026 H 286.118 -0.832297 4.80546 0
M  V30 3027 H 285.123 1.4161 5.3125 0
M  V30 3028 H 286.348 1.67685 6.58072 0
M  V30 3029 H 284.294 -0.566714 6.53548 0
M  V30 3030 H 284.211 0.863752 7.51049 0
M  V30 3031 H 285.479 -0.292221 7.78952 0
M  V30 3032 N 289.708 -1.40897 0.706093 0
M  V30 3033 C 290.656 -2.32572 0.0361893 0
M  V30 3034 C 291.65 -1.51532 -0.757266 0
M  V30 3035 O 292.856 -1.67396 -0.661703 0
M  V30 3036 H 289.231 -0.751966 -0.00709935 0
M  V30 3037 H 291.202 -2.86733 0.826249 0
M  V30 3038 C 289.951 -3.36418 -0.87854 0
M  V30 3039 H 289.274 -3.98836 -0.277401 0
M  V30 3040 H 290.714 -4.0308 -1.3154 0
M  V30 3041 C 289.173 -2.71141 -1.99961 0
M  V30 3042 O 289.703 -2.56735 -3.0895 0
M  V30 3043 N 287.909 -2.29671 -1.78043 0
M  V30 3044 H 287.456 -2.41588 -0.894042 0
M  V30 3045 H 287.414 -1.86332 -2.53235 0
M  V30 3046 N 291.186 -0.45159 -1.50991 0
M  V30 3047 C 292.134 0.366864 -2.29689 0
M  V30 3048 C 293.128 1.00809 -1.36139 0
M  V30 3049 O 294.334 0.941427 -1.53418 0
M  V30 3050 H 290.709 0.137133 -0.739391 0
M  V30 3051 H 292.68 -0.317538 -2.96706 0
M  V30 3052 C 291.429 1.44751 -3.16137 0
M  V30 3053 H 290.752 0.963473 -3.88017 0
M  V30 3054 H 292.192 1.99315 -3.74232 0
M  V30 3055 C 290.651 2.43869 -2.32442 0
M  V30 3056 O 291.181 3.4872 -1.99392 0
M  V30 3057 N 289.387 2.15105 -1.95392 0
M  V30 3058 H 288.934 1.29866 -2.22469 0
M  V30 3059 H 288.892 2.81661 -1.39693 0
M  V30 3060 N 292.664 1.56529 -0.183458 0
M  V30 3061 C 293.627 2.17324 0.728223 0
M  V30 3062 C 294.627 1.12453 1.14939 0
M  V30 3063 O 295.817 1.37902 1.06437 0
M  V30 3064 C 292.949 2.76591 1.99274 0
M  V30 3065 H 294.142 2.99241 0.198772 0
M  V30 3066 H 291.695 1.5616 0.0661391 0
M  V30 3067 H 292.43 1.98441 2.56499 0
M  V30 3068 H 292.215 3.5335 1.69959 0
M  V30 3069 H 293.705 3.23311 2.6431 0
M  V30 3070 N 294.142 -0.090211 1.57342 0
M  V30 3071 C 295.105 -1.09335 2.01441 0
M  V30 3072 C 296.105 -1.32666 0.908641 0
M  V30 3073 O 297.295 -1.28697 1.174 0
M  V30 3074 C 294.427 -2.44136 2.3793 0
M  V30 3075 H 295.62 -0.713662 2.91285 0
M  V30 3076 H 293.173 -0.335404 1.52659 0
M  V30 3077 H 293.908 -2.86972 1.51055 0
M  V30 3078 H 293.693 -2.28548 3.18603 0
M  V30 3079 H 295.183 -3.16277 2.72688 0
M  V30 3080 N 295.62 -1.53406 -0.361157 0
M  V30 3081 C 296.869 -1.69022 -1.10066 0
M  V30 3082 C 297.182 -0.450838 -1.90333 0
M  V30 3083 O 298.388 -0.487617 -2.67085 0
M  V30 3084 C 296.844 -2.98812 -2.00598 0
M  V30 3085 C 296.452 -4.30027 -1.25621 0
M  V30 3086 C 298.196 -3.23795 -2.74513 0
M  V30 3087 C 296.103 -5.50903 -2.1508 0
M  V30 3088 H 295.033 -0.629776 -0.414606 0
M  V30 3089 H 297.684 -1.79907 -0.361348 0
M  V30 3090 H 296.066 -2.8174 -2.78278 0
M  V30 3091 H 297.24 -4.57745 -0.529739 0
M  V30 3092 H 295.555 -4.11522 -0.635496 0
M  V30 3093 H 298.152 -4.11289 -3.41681 0
M  V30 3094 H 298.495 -2.40045 -3.40123 0
M  V30 3095 H 299.028 -3.41561 -2.03914 0
M  V30 3096 H 295.767 -6.37143 -1.54041 0
M  V30 3097 H 295.287 -5.27459 -2.85565 0
M  V30 3098 H 296.966 -5.85865 -2.74538 0
M  V30 3099 N 297.098 0.621204 -1.44841 0
M  V30 3100 C 298.028 1.74366 -1.55303 0
M  V30 3101 C 299.009 1.65199 -0.405385 0
M  V30 3102 O 300.194 1.83807 -0.626787 0
M  V30 3103 C 297.324 3.12931 -1.50637 0
M  V30 3104 C 296.278 3.36896 -2.63979 0
M  V30 3105 C 295.604 4.75594 -2.44366 0
M  V30 3106 C 296.904 3.28483 -4.06074 0
M  V30 3107 H 298.598 1.65867 -2.49256 0
M  V30 3108 H 296.144 0.796558 -1.19962 0
M  V30 3109 H 298.097 3.9124 -1.56555 0
M  V30 3110 H 296.821 3.22237 -0.532057 0
M  V30 3111 H 295.48 2.60972 -2.57467 0
M  V30 3112 H 295.128 4.81616 -1.45105 0
M  V30 3113 H 294.828 4.92586 -3.20364 0
M  V30 3114 H 296.352 5.5612 -2.52117 0
M  V30 3115 H 297.766 3.96684 -4.13902 0
M  V30 3116 H 296.163 3.57008 -4.82354 0
M  V30 3117 H 297.233 2.26133 -4.28943 0
M  V30 3118 N 298.576 1.31904 0.862503 0
M  V30 3119 C 299.801 1.25135 1.65397 0
M  V30 3120 C 300.226 -0.179 1.87246 0
M  V30 3121 O 299.584 -1.1277 1.4196 0
M  V30 3122 C 299.632 2.00832 2.99498 0
M  V30 3123 O 298.736 1.35075 3.89652 0
M  V30 3124 H 298.077 0.431655 0.504549 0
M  V30 3125 H 300.607 1.74094 1.07483 0
M  V30 3126 H 300.617 2.10709 3.49379 0
M  V30 3127 H 299.292 3.04847 2.82916 0
M  V30 3128 H 297.869 1.33696 3.48109 0
M  V30 3129 N 300.054 -1.07777 1.14986 0
M  V30 3130 C 301.3 -1.80557 0.923422 0
M  V30 3131 C 301.633 -1.86298 -0.548337 0
M  V30 3132 O 300.908 -1.34354 -1.40639 0
M  V30 3133 C 301.191 -3.25839 1.53299 0
M  V30 3134 C 301.044 -3.28269 3.07505 0
M  V30 3135 C 302.363 -4.22991 1.21518 0
M  V30 3136 H 299.482 -0.655493 0.336894 0
M  V30 3137 H 302.124 -1.26144 1.42083 0
M  V30 3138 H 300.274 -3.72306 1.10999 0
M  V30 3139 H 301.946 -2.90079 3.58681 0
M  V30 3140 H 300.189 -2.67355 3.4162 0
M  V30 3141 H 300.86 -4.30691 3.45266 0
M  V30 3142 H 303.336 -3.84894 1.581 0
M  V30 3143 H 302.212 -5.22945 1.66793 0
M  V30 3144 H 302.473 -4.41904 0.131505 0
M  V30 3145 N 301.532 -0.945985 -1.26051 0
M  V30 3146 C 302.757 -0.612525 -1.98149 0
M  V30 3147 C 303.182 0.806623 -1.69927 0
M  V30 3148 O 302.54 1.54411 -0.950108 0
M  V30 3149 C 302.588 -0.866981 -3.50023 0
M  V30 3150 O 301.692 0.0585333 -4.12358 0
M  V30 3151 H 301.033 -0.23379 -0.621481 0
M  V30 3152 H 303.563 -1.27023 -1.60395 0
M  V30 3153 H 303.573 -0.789792 -4.00283 0
M  V30 3154 H 302.248 -1.90135 -3.69894 0
M  V30 3155 H 300.825 -0.0701241 -3.72834 0
M  V30 3156 N 303.011 1.40521 -0.713556 0
M  V30 3157 C 304.258 2.00923 -0.25219 0
M  V30 3158 C 304.586 1.56571 1.15395 0
M  V30 3159 O 303.841 0.775874 1.79663 0
M  V30 3160 C 304.14 3.56317 -0.278 0
M  V30 3161 C 303.806 4.20246 -1.63415 0
M  V30 3162 C 302.468 4.37422 -2.00538 0
M  V30 3163 C 304.82 4.55923 -2.52554 0
M  V30 3164 C 302.148 4.87558 -3.2635 0
M  V30 3165 C 304.5 5.07458 -3.77716 0
M  V30 3166 C 303.164 5.22843 -4.14959 0
M  V30 3167 H 302.434 0.735231 -0.0922829 0
M  V30 3168 H 305.081 1.68161 -0.916188 0
M  V30 3169 H 303.386 3.88976 0.469567 0
M  V30 3170 H 305.083 4.00883 0.0967819 0
M  V30 3171 H 301.673 4.07263 -1.33546 0
M  V30 3172 H 305.857 4.42291 -2.25149 0
M  V30 3173 H 301.113 4.97654 -3.55176 0
M  V30 3174 H 305.287 5.34041 -4.4696 0
M  V30 3175 H 302.914 5.61454 -5.12516 0
M  V30 3176 N 304.489 0.459591 1.5075 0
M  V30 3177 C 305.419 -0.330644 2.31147 0
M  V30 3178 C 306.4 -1.00087 1.37538 0
M  V30 3179 O 307.585 -1.00025 1.66459 0
M  V30 3180 C 304.715 -1.41958 3.16962 0
M  V30 3181 C 303.669 -0.871608 4.19031 0
M  V30 3182 C 302.995 -2.05797 4.9351 0
M  V30 3183 C 304.295 0.109251 5.22186 0
M  V30 3184 H 305.989 0.340336 2.97459 0
M  V30 3185 H 303.535 0.165119 1.4305 0
M  V30 3186 H 305.488 -1.9798 3.71997 0
M  V30 3187 H 304.212 -2.11917 2.48513 0
M  V30 3188 H 302.871 -0.333442 3.6508 0
M  V30 3189 H 302.519 -2.74427 4.21544 0
M  V30 3190 H 302.219 -1.6976 5.62544 0
M  V30 3191 H 303.743 -2.62331 5.51375 0
M  V30 3192 H 305.157 -0.361405 5.7216 0
M  V30 3193 H 303.554 0.383316 5.98875 0
M  V30 3194 H 304.624 1.03887 4.73641 0
M  V30 3195 N 305.967 -1.56429 0.191757 0
M  V30 3196 C 307.214 -1.97485 -0.447891 0
M  V30 3197 C 307.542 -1.07852 -1.61859 0
M  V30 3198 O 306.797 -0.116903 -1.95351 0
M  V30 3199 C 307.096 -3.44449 -0.953384 0
M  V30 3200 C 306.762 -4.50781 0.103586 0
M  V30 3201 C 305.424 -4.79584 0.394023 0
M  V30 3202 C 307.776 -5.1471 0.819946 0
M  V30 3203 C 305.104 -5.69607 1.40585 0
M  V30 3204 C 307.456 -6.05827 1.8209 0
M  V30 3205 C 306.12 -6.32987 2.11857 0
M  V30 3206 H 305.39 -0.722648 -0.163895 0
M  V30 3207 H 308.037 -1.89322 0.28802 0
M  V30 3208 H 306.342 -3.49666 -1.76751 0
M  V30 3209 H 308.039 -3.73569 -1.45765 0
M  V30 3210 H 304.629 -4.28394 -0.132951 0
M  V30 3211 H 308.813 -4.92552 0.608789 0
M  V30 3212 H 304.069 -5.88926 1.64243 0
M  V30 3213 H 308.243 -6.54424 2.38123 0
M  V30 3214 H 305.87 -7.02544 2.90407 0
M  V30 3215 N 307.445 0.0818655 -1.57387 0
M  V30 3216 C 308.378 1.12986 -1.98266 0
M  V30 3217 C 309.356 1.38123 -0.857954 0
M  V30 3218 O 310.54 1.51663 -1.1194 0
M  V30 3219 C 307.667 2.47632 -2.31076 0
M  V30 3220 C 306.713 2.38693 -3.53452 0
M  V30 3221 S 307.546 1.79071 -5.04672 0
M  V30 3222 C 308.702 3.15316 -5.40673 0
M  V30 3223 H 308.935 0.781435 -2.86846 0
M  V30 3224 H 306.468 0.290034 -1.51651 0
M  V30 3225 H 308.426 3.25089 -2.50654 0
M  V30 3226 H 307.087 2.79638 -1.43043 0
M  V30 3227 H 306.28 3.37964 -3.73893 0
M  V30 3228 H 305.882 1.69369 -3.33452 0
M  V30 3229 H 308.174 4.11613 -5.38127 0
M  V30 3230 H 309.117 2.99664 -6.41566 0
M  V30 3231 H 309.525 3.15457 -4.68132 0
M  V30 3232 N 308.923 1.53595 0.353017 0
M  V30 3233 C 310.17 1.70385 1.09431 0
M  V30 3234 C 310.498 0.462113 1.88931 0
M  V30 3235 O 309.753 -0.556074 1.87633 0
M  V30 3236 C 310.052 2.91313 2.07054 0
M  V30 3237 C 309.718 4.27308 1.43939 0
M  V30 3238 C 308.38 4.64287 1.26454 0
M  V30 3239 C 310.732 5.11829 0.983883 0
M  V30 3240 C 308.06 5.83412 0.620226 0
M  V30 3241 C 310.412 6.31611 0.353516 0
M  V30 3242 C 309.076 6.67293 0.166272 0
M  V30 3243 H 308.346 0.623484 0.400436 0
M  V30 3244 H 310.993 1.87799 0.374655 0
M  V30 3245 H 309.298 2.68463 2.85368 0
M  V30 3246 H 310.995 3.01497 2.64387 0
M  V30 3247 H 307.585 3.98198 1.58543 0
M  V30 3248 H 311.769 4.838 1.10685 0
M  V30 3249 H 307.025 6.09639 0.463681 0
M  V30 3250 H 311.199 6.964 -0.00757555 0
M  V30 3251 H 308.826 7.59461 -0.335047 0
M  V30 3252 N 310.401 -0.613514 1.45168 0
M  V30 3253 C 311.364 -1.7065 1.53007 0
M  V30 3254 C 312.364 -1.5548 0.410184 0
M  V30 3255 O 313.554 -1.60656 0.673455 0
M  V30 3256 C 310.686 -3.09875 1.42093 0
M  V30 3257 H 311.879 -1.65068 2.50385 0
M  V30 3258 H 309.432 -0.828728 1.32521 0
M  V30 3259 H 310.167 -3.21039 0.458769 0
M  V30 3260 H 309.952 -3.22293 2.23315 0
M  V30 3261 H 311.442 -3.895 1.50598 0
M  V30 3262 N 311.879 -1.3236 -0.855495 0
M  V30 3263 C 312.809 -1.23833 -1.97958 0
M  V30 3264 C 313.79 -0.122361 -1.69659 0
M  V30 3265 O 314.975 -0.30939 -1.9172 0
M  V30 3266 C 312.105 -0.959772 -3.33775 0
M  V30 3267 C 311.059 -2.03689 -3.76424 0
M  V30 3268 C 310.385 -1.61075 -5.09862 0
M  V30 3269 C 311.685 -3.4518 -3.9198 0
M  V30 3270 H 313.379 -2.1788 -2.0535 0
M  V30 3271 H 310.925 -1.04891 -0.986605 0
M  V30 3272 H 312.878 -0.886678 -4.11966 0
M  V30 3273 H 311.602 0.0163404 -3.26596 0
M  V30 3274 H 310.261 -2.10012 -3.00484 0
M  V30 3275 H 309.909 -0.622107 -4.99138 0
M  V30 3276 H 309.609 -2.33143 -5.39368 0
M  V30 3277 H 311.133 -1.55201 -5.90546 0
M  V30 3278 H 312.547 -3.4145 -4.60526 0
M  V30 3279 H 310.944 -4.1559 -4.32903 0
M  V30 3280 H 312.014 -3.84903 -2.94919 0
M  V30 3281 N 313.357 1.07166 -1.15556 0
M  V30 3282 C 314.29 2.13808 -0.797593 0
M  V30 3283 C 315.268 1.6101 0.226812 0
M  V30 3284 O 316.452 1.88161 0.112932 0
M  V30 3285 C 313.579 3.38187 -0.186371 0
M  V30 3286 C 312.625 4.09766 -1.18297 0
M  V30 3287 S 313.458 4.60932 -2.72584 0
M  V30 3288 C 314.614 5.88583 -2.12886 0
M  V30 3289 H 314.847 2.43843 -1.70083 0
M  V30 3290 H 312.38 1.19467 -0.978106 0
M  V30 3291 H 314.338 4.10189 0.159837 0
M  V30 3292 H 312.999 3.06326 0.694489 0
M  V30 3293 H 312.192 4.99065 -0.703562 0
M  V30 3294 H 311.794 3.43736 -1.47381 0
M  V30 3295 H 314.086 6.60866 -1.49208 0
M  V30 3296 H 315.029 6.41241 -3.0036 0
M  V30 3297 H 315.437 5.42194 -1.57116 0
M  V30 3298 N 314.835 0.952656 1.25548 0
M  V30 3299 C 315.765 0.489287 2.28316 0
M  V30 3300 C 316.746 -0.463359 1.63667 0
M  V30 3301 O 317.931 -0.36274 1.90782 0
M  V30 3302 C 315.061 -0.235603 3.465 0
M  V30 3303 C 314.015 0.631593 4.23314 0
M  V30 3304 C 313.341 -0.223923 5.34231 0
M  V30 3305 C 314.641 1.90871 4.86174 0
M  V30 3306 H 316.335 1.34822 2.67326 0
M  V30 3307 H 313.881 0.649728 1.28509 0
M  V30 3308 H 315.834 -0.570882 4.17515 0
M  V30 3309 H 314.558 -1.12877 3.06474 0
M  V30 3310 H 313.217 0.949929 3.54079 0
M  V30 3311 H 312.865 -1.11678 4.90446 0
M  V30 3312 H 312.565 0.35299 5.86539 0
M  V30 3313 H 314.089 -0.554214 6.0808 0
M  V30 3314 H 315.503 1.63997 5.49343 0
M  V30 3315 H 313.9 2.43112 5.4865 0
M  V30 3316 H 314.97 2.61304 4.08471 0
M  V30 3317 N 316.313 -1.40141 0.720998 0
M  V30 3318 C 317.245 -2.29177 0.0324669 0
M  V30 3319 C 318.258 -1.46105 -0.718126 0
M  V30 3320 O 319.447 -1.69335 -0.564608 0
M  V30 3321 C 316.547 -3.24473 -0.978292 0
M  V30 3322 C 315.72 -4.36423 -0.292115 0
M  V30 3323 C 314.779 -5.12122 -1.20901 0
M  V30 3324 O 313.805 -5.64981 -0.691766 0
M  V30 3325 N 315.007 -5.21992 -2.53978 0
M  V30 3326 H 317.772 -2.88909 0.796984 0
M  V30 3327 H 315.333 -1.51569 0.569068 0
M  V30 3328 H 317.325 -3.71987 -1.59398 0
M  V30 3329 H 315.895 -2.65871 -1.64413 0
M  V30 3330 H 315.115 -3.90967 0.503847 0
M  V30 3331 H 316.403 -5.08467 0.183971 0
M  V30 3332 H 315.801 -4.8054 -2.98493 0
M  V30 3333 H 314.358 -5.72995 -3.10677 0
M  V30 3334 N 317.792 -0.46758 -1.50504 0
M  V30 3335 C 318.722 0.318381 -2.31319 0
M  V30 3336 C 319.703 0.993564 -1.38066 0
M  V30 3337 O 320.888 0.991411 -1.66987 0
M  V30 3338 C 318.018 1.40275 -3.17711 0
M  V30 3339 C 316.972 0.849373 -4.19487 0
M  V30 3340 C 316.298 2.03177 -4.94594 0
M  V30 3341 C 317.598 -0.136942 -5.2212 0
M  V30 3342 H 319.292 -0.356106 -2.97275 0
M  V30 3343 H 316.838 -0.172703 -1.42961 0
M  V30 3344 H 318.791 1.96004 -3.73042 0
M  V30 3345 H 317.515 2.10596 -2.49634 0
M  V30 3346 H 316.174 0.314076 -3.65252 0
M  V30 3347 H 315.822 2.72187 -4.22993 0
M  V30 3348 H 315.522 1.66774 -5.63436 0
M  V30 3349 H 317.046 2.59403 -5.52759 0
M  V30 3350 H 318.46 0.331056 -5.72343 0
M  V30 3351 H 316.857 -0.41507 -5.98663 0
M  V30 3352 H 317.927 -1.06398 -4.73083 0
M  V30 3353 N 319.27 1.56325 -0.20005 0
M  V30 3354 C 320.5 2.01811 0.442232 0
M  V30 3355 C 320.908 1.07932 1.55394 0
M  V30 3356 O 320.251 0.0772685 1.83537 0
M  V30 3357 C 320.313 3.43685 1.05457 0
M  V30 3358 C 319.977 4.56928 0.0809833 0
M  V30 3359 C 320.974 5.15009 -0.711471 0
M  V30 3360 C 318.659 5.0229 -0.0315364 0
M  V30 3361 C 320.653 6.16904 -1.60336 0
M  V30 3362 C 318.34 6.04028 -0.926981 0
M  V30 3363 C 319.338 6.6121 -1.71146 0
M  V30 3364 O 319.026 7.60971 -2.59189 0
M  V30 3365 H 318.758 0.666173 0.114848 0
M  V30 3366 H 321.312 2.03085 -0.307511 0
M  V30 3367 H 319.542 3.39413 1.85299 0
M  V30 3368 H 321.231 3.72948 1.60201 0
M  V30 3369 H 321.997 4.80827 -0.634873 0
M  V30 3370 H 317.876 4.57476 0.568902 0
M  V30 3371 H 321.42 6.61464 -2.21611 0
M  V30 3372 H 317.317 6.37634 -1.00468 0
M  V30 3373 H 318.085 7.7841 -2.53023 0
M  V30 3374 N 320.748 -0.0735177 1.57428 0
M  V30 3375 C 321.997 -0.771809 1.86349 0
M  V30 3376 C 322.31 -1.78828 0.792452 0
M  V30 3377 O 323.516 -2.53602 0.96945 0
M  V30 3378 C 321.972 -1.42358 3.30548 0
M  V30 3379 C 321.58 -0.445761 4.45777 0
M  V30 3380 C 323.324 -2.10434 3.6867 0
M  V30 3381 C 321.231 -1.10335 5.81016 0
M  V30 3382 H 320.161 -0.291999 0.695164 0
M  V30 3383 H 322.812 -0.0250749 1.83483 0
M  V30 3384 H 321.194 -2.21852 3.28021 0
M  V30 3385 H 322.368 0.319239 4.59693 0
M  V30 3386 H 320.683 0.130457 4.16196 0
M  V30 3387 H 323.28 -2.60405 4.67004 0
M  V30 3388 H 323.623 -2.90298 2.98383 0
M  V30 3389 H 324.156 -1.37773 3.7318 0
M  V30 3390 H 320.895 -0.345061 6.54591 0
M  V30 3391 H 320.415 -1.83925 5.70904 0
M  V30 3392 H 322.094 -1.62367 6.26295 0
M  V30 3393 N 322.226 -1.5378 -0.344866 0
M  V30 3394 C 323.158 -1.77988 -1.44406 0
M  V30 3395 C 324.171 -0.661138 -1.48771 0
M  V30 3396 O 325.36 -0.937842 -1.51877 0
M  V30 3397 C 322.46 -1.86345 -2.8307 0
M  V30 3398 C 321.633 -3.16256 -3.0216 0
M  V30 3399 C 320.692 -3.15588 -4.21059 0
M  V30 3400 O 319.718 -3.89314 -4.15239 0
M  V30 3401 N 320.92 -2.37864 -5.29529 0
M  V30 3402 H 323.685 -2.72839 -1.24012 0
M  V30 3403 H 321.246 -1.52814 -0.534737 0
M  V30 3404 H 323.238 -1.83351 -3.60783 0
M  V30 3405 H 321.808 -0.986858 -2.96614 0
M  V30 3406 H 321.028 -3.32385 -2.11929 0
M  V30 3407 H 322.316 -4.0207 -3.11797 0
M  V30 3408 H 321.714 -1.77514 -5.37127 0
M  V30 3409 H 320.271 -2.40668 -6.05741 0
M  V30 3410 N 323.704 0.605807 -1.45491 0
M  V30 3411 C 324.953 1.36086 -1.48874 0
M  V30 3412 C 325.266 1.95131 -0.135333 0
M  V30 3413 O 326.472 2.7146 -0.0468144 0
M  V30 3414 C 324.928 2.46518 -2.62215 0
M  V30 3415 C 324.536 1.93877 -4.03876 0
M  V30 3416 C 326.28 3.23512 -2.74846 0
M  V30 3417 C 324.187 3.01801 -5.08596 0
M  V30 3418 H 323.117 0.511497 -0.553974 0
M  V30 3419 H 325.768 0.649089 -1.71636 0
M  V30 3420 H 324.15 3.20388 -2.32739 0
M  V30 3421 H 325.324 1.26704 -4.43038 0
M  V30 3422 H 323.639 1.29622 -3.95711 0
M  V30 3423 H 326.236 4.04013 -3.50253 0
M  V30 3424 H 326.579 3.74631 -1.81542 0
M  V30 3425 H 327.112 2.56742 -3.03856 0
M  V30 3426 H 323.851 2.55597 -6.03614 0
M  V30 3427 H 323.371 3.67535 -4.74002 0
M  V30 3428 H 325.05 3.66152 -5.33424 0
M  V30 3429 N 325.182 1.32811 0.848464 0
M  V30 3430 C 326.422 1.25046 1.61687 0
M  V30 3431 C 326.786 -0.183464 1.91121 0
M  V30 3432 O 327.987 -0.384937 2.66029 0
M  V30 3433 C 326.258 2.09201 2.89775 0
M  V30 3434 S 327.817 2.18526 3.80515 0
M  V30 3435 H 324.635 0.445023 0.554505 0
M  V30 3436 H 327.237 1.67733 1.00429 0
M  V30 3437 H 325.941 3.12433 2.66108 0
M  V30 3438 H 325.472 1.67315 3.56047 0
M  V30 3439 H 327.487 1.3393 4.77784 0
M  V30 3440 N 326.66 -1.06551 1.16123 0
M  V30 3441 C 327.607 -2.13961 0.865414 0
M  V30 3442 C 328.577 -1.65066 -0.185055 0
M  V30 3443 O 329.762 -1.90732 -0.05083 0
M  V30 3444 C 326.902 -3.43113 0.369776 0
M  V30 3445 C 326.015 -4.05756 1.48276 0
M  V30 3446 C 325.15 -5.22773 0.942414 0
M  V30 3447 C 324.189 -5.77395 2.03179 0
M  V30 3448 N 323.326 -6.85731 1.50721 0
M  V30 3449 H 328.166 -2.38605 1.78527 0
M  V30 3450 H 325.703 -1.17072 0.890646 0
M  V30 3451 H 327.661 -4.17151 0.0640643 0
M  V30 3452 H 326.291 -3.18695 -0.513143 0
M  V30 3453 H 325.343 -3.29292 1.9045 0
M  V30 3454 H 326.655 -4.42351 2.30493 0
M  V30 3455 H 325.809 -6.03827 0.589729 0
M  V30 3456 H 324.548 -4.87618 0.0895191 0
M  V30 3457 H 323.553 -4.94981 2.3932 0
M  V30 3458 H 324.778 -6.14603 2.8886 0
M  V30 3459 H 322.724 -6.52499 0.676811 0
M  V30 3460 H 322.641 -7.21254 2.26557 0
M  V30 3461 H 323.909 -7.7047 1.18303 0
M  V30 3462 N 328.138 -0.959301 -1.25041 0
M  V30 3463 C 329.387 -0.612254 -1.92183 0
M  V30 3464 C 329.7 0.855347 -1.75907 0
M  V30 3465 O 330.906 1.31256 -2.37664 0
M  V30 3466 C 329.362 -1.04435 -3.44414 0
M  V30 3467 C 328.97 -2.53482 -3.69393 0
M  V30 3468 C 330.714 -0.770055 -4.17457 0
M  V30 3469 C 328.621 -2.90468 -5.15153 0
M  V30 3470 H 327.551 -0.225279 -0.719559 0
M  V30 3471 H 330.202 -1.16438 -1.41825 0
M  V30 3472 H 328.584 -0.4206 -3.9376 0
M  V30 3473 H 329.758 -3.20916 -3.30681 0
M  V30 3474 H 328.073 -2.78432 -3.0962 0
M  V30 3475 H 330.67 -1.02249 -5.24832 0
M  V30 3476 H 331.013 0.293611 -4.15263 0
M  V30 3477 H 331.546 -1.35437 -3.74034 0
M  V30 3478 H 328.285 -3.95871 -5.22462 0
M  V30 3479 H 327.805 -2.27711 -5.54894 0
M  V30 3480 H 329.484 -2.79914 -5.83315 0
M  V30 3481 N 329.616 1.39756 -0.72842 0
M  V30 3482 C 330.862 2.00942 -0.273892 0
M  V30 3483 C 331.195 1.57656 1.13394 0
M  V30 3484 O 330.47 0.802434 1.77176 0
M  V30 3485 C 330.753 3.58211 -0.368346 0
M  V30 3486 C 330.606 4.11534 -1.81548 0
M  V30 3487 C 331.925 4.39372 0.253054 0
M  V30 3488 H 329.044 0.730047 -0.100996 0
M  V30 3489 H 331.686 1.66056 -0.923337 0
M  V30 3490 H 329.836 3.88061 0.184588 0
M  V30 3491 H 331.508 3.92431 -2.42478 0
M  V30 3492 H 329.751 3.65341 -2.33898 0
M  V30 3493 H 330.422 5.20682 -1.83288 0
M  V30 3494 H 332.898 4.15527 -0.218224 0
M  V30 3495 H 331.774 5.48677 0.156585 0
M  V30 3496 H 332.035 4.21358 1.33826 0
M  V30 3497 N 331.094 0.475555 1.50254 0
M  V30 3498 C 332.027 -0.362381 2.25304 0
M  V30 3499 C 333.005 -0.992393 1.28803 0
M  V30 3500 O 334.189 -1.02746 1.58036 0
M  V30 3501 C 331.316 -1.50813 3.03271 0
M  V30 3502 C 330.362 -0.995044 4.1473 0
M  V30 3503 S 331.195 0.0938436 5.35418 0
M  V30 3504 C 332.351 -1.05567 6.16933 0
M  V30 3505 H 332.584 0.274686 2.96028 0
M  V30 3506 H 330.117 0.260495 1.52187 0
M  V30 3507 H 332.075 -2.16476 3.48781 0
M  V30 3508 H 330.736 -2.11672 2.32064 0
M  V30 3509 H 329.929 -1.85293 4.68703 0
M  V30 3510 H 329.531 -0.416052 3.71679 0
M  V30 3511 H 331.823 -1.96636 6.48337 0
M  V30 3512 H 332.766 -0.555109 7.05921 0
M  V30 3513 H 333.174 -1.31151 5.49053 0
M  V30 3514 N 332.573 -1.56217 0.208337 0
M  V30 3515 C 333.989 -1.58919 -0.14729 0
M  V30 3516 C 334.189 -1.22486 -1.59998 0
M  V30 3517 O 333.245 -0.953849 -2.3379 0
M  V30 3518 C 334.558 -3.00236 0.167048 0
M  V30 3519 C 336.106 -3.12813 0.108219 0
M  V30 3520 C 336.581 -4.56284 0.396049 0
M  V30 3521 N 338.072 -4.61912 0.345142 0
M  V30 3522 C 338.807 -5.70837 0.541523 0
M  V30 3523 N 338.303 -6.88178 0.798968 0
M  V30 3524 N 340.096 -5.60091 0.474867 0
M  V30 3525 H 332.247 -1.78177 1.15614 0
M  V30 3526 H 334.51 -0.827555 0.462446 0
M  V30 3527 H 334.216 -3.31499 1.1748 0
M  V30 3528 H 334.09 -3.7354 -0.524184 0
M  V30 3529 H 336.477 -2.81354 -0.890157 0
M  V30 3530 H 336.558 -2.41866 0.832729 0
M  V30 3531 H 336.202 -4.88458 1.3918 0
M  V30 3532 H 336.132 -5.25439 -0.349502 0
M  V30 3533 H 338.623 -3.77589 0.153316 0
M  V30 3534 H 338.936 -7.67095 0.93727 0
M  V30 3535 H 337.281 -6.89953 0.836013 0
M  V30 3536 H 340.472 -4.67297 0.274064 0
M  V30 3537 H 340.645 -6.44917 0.631326 0
M  V30 3538 N 334.051 0.0651679 -1.57465 0
M  V30 3539 C 335.001 1.0838 -2.00594 0
M  V30 3540 C 335.985 1.34106 -0.889071 0
M  V30 3541 O 337.177 1.34295 -1.15299 0
M  V30 3542 C 334.306 2.39565 -2.45894 0
M  V30 3543 C 333.392 2.17085 -3.64328 0
M  V30 3544 N 333.783 1.64553 -4.78285 0
M  V30 3545 C 332.081 2.4753 -3.71006 0
M  V30 3546 C 332.782 1.57042 -5.60101 0
M  V30 3547 N 331.758 2.03328 -5.04141 0
M  V30 3548 H 335.56 0.671062 -2.86136 0
M  V30 3549 H 333.074 0.27213 -1.60104 0
M  V30 3550 H 335.071 3.13308 -2.75034 0
M  V30 3551 H 333.731 2.81549 -1.61741 0
M  V30 3552 H 334.742 1.33323 -5.00445 0
M  V30 3553 H 331.419 2.92835 -2.9758 0
M  V30 3554 H 332.809 1.17223 -6.61595 0
M  V30 3555 N 335.529 1.53961 0.336706 0
M  V30 3556 C 336.492 1.81724 1.39675 0
M  V30 3557 C 337.492 0.688532 1.45313 0
M  V30 3558 O 338.682 0.956829 1.45569 0
M  V30 3559 C 335.814 1.96543 2.78538 0
M  V30 3560 H 337.007 2.76424 1.16318 0
M  V30 3561 H 334.56 1.45478 0.571474 0
M  V30 3562 H 335.295 1.0401 3.07168 0
M  V30 3563 H 335.08 2.78665 2.75841 0
M  V30 3564 H 336.57 2.19516 3.5525 0
M  V30 3565 N 337.007 -0.598083 1.45811 0
M  V30 3566 C 337.957 -1.70272 1.51629 0
M  V30 3567 C 338.941 -1.56382 0.378629 0
M  V30 3568 O 340.133 -1.65557 0.626087 0
M  V30 3569 C 337.262 -3.09042 1.49493 0
M  V30 3570 C 336.348 -3.28284 2.68496 0
M  V30 3571 N 336.739 -3.17748 3.93535 0
M  V30 3572 C 335.037 -3.59182 2.64394 0
M  V30 3573 C 335.738 -3.38579 4.7301 0
M  V30 3574 N 334.714 -3.63016 4.04624 0
M  V30 3575 H 338.516 -1.60634 2.46118 0
M  V30 3576 H 336.03 -0.801642 1.41235 0
M  V30 3577 H 338.027 -3.88302 1.51747 0
M  V30 3578 H 336.687 -3.19823 0.560683 0
M  V30 3579 H 337.698 -2.95944 4.25014 0
M  V30 3580 H 334.375 -3.76742 1.79922 0
M  V30 3581 H 335.765 -3.35747 5.82 0
M  V30 3582 N 338.485 -1.33259 -0.841409 0
M  V30 3583 C 339.417 -1.19136 -1.95804 0
M  V30 3584 C 340.43 -0.122965 -1.62335 0
M  V30 3585 O 341.619 -0.373154 -1.74556 0
M  V30 3586 C 338.719 -0.804268 -3.29218 0
M  V30 3587 C 337.892 -1.96376 -3.90839 0
M  V30 3588 C 336.951 -1.55806 -5.02604 0
M  V30 3589 O 335.977 -2.27203 -5.21888 0
M  V30 3590 N 337.179 -0.461609 -5.78662 0
M  V30 3591 H 339.944 -2.15326 -2.08458 0
M  V30 3592 H 337.505 -1.25971 -1.017 0
M  V30 3593 H 339.497 -0.51501 -4.0141 0
M  V30 3594 H 338.067 0.0668809 -3.12528 0
M  V30 3595 H 337.287 -2.41879 -3.11269 0
M  V30 3596 H 338.575 -2.73966 -4.28742 0
M  V30 3597 H 337.973 0.132343 -5.65545 0
M  V30 3598 H 336.53 -0.232013 -6.51387 0
M  V30 3599 N 339.963 1.05934 -1.16686 0
M  V30 3600 C 341.212 1.78188 -0.945085 0
M  V30 3601 C 341.525 1.88338 0.528021 0
M  V30 3602 O 342.731 2.57258 0.867799 0
M  V30 3603 C 341.187 3.20277 -1.64167 0
M  V30 3604 C 340.795 3.18281 -3.15279 0
M  V30 3605 C 342.539 3.97039 -1.502 0
M  V30 3606 C 340.446 4.55112 -3.7766 0
M  V30 3607 H 339.376 0.667866 -0.349959 0
M  V30 3608 H 342.027 1.18794 -1.39858 0
M  V30 3609 H 340.409 3.79952 -1.11589 0
M  V30 3610 H 341.583 2.68167 -3.74731 0
M  V30 3611 H 339.898 2.55018 -3.29173 0
M  V30 3612 H 342.495 4.98194 -1.94183 0
M  V30 3613 H 342.838 4.13845 -0.451461 0
M  V30 3614 H 343.371 3.43894 -1.99954 0
M  V30 3615 H 340.11 4.43512 -4.82677 0
M  V30 3616 H 339.63 5.05406 -3.22994 0
M  V30 3617 H 341.309 5.24064 -3.79428 0
M  V30 3618 N 341.441 0.965919 1.2453 0
M  V30 3619 C 342.404 0.499547 2.2369 0
M  V30 3620 C 343.404 -0.40294 1.5567 0
M  V30 3621 O 344.594 -0.19865 1.73064 0
M  V30 3622 C 341.726 -0.276792 3.39774 0
M  V30 3623 H 342.919 1.37613 2.66463 0
M  V30 3624 H 340.472 0.750324 1.37112 0
M  V30 3625 H 341.207 -1.17055 3.02438 0
M  V30 3626 H 340.992 0.370826 3.90343 0
M  V30 3627 H 342.482 -0.592175 4.1338 0
M  V30 3628 N 342.919 -1.39368 0.735821 0
M  V30 3629 C 343.849 -2.33234 0.111506 0
M  V30 3630 C 344.83 -1.53954 -0.723334 0
M  V30 3631 O 346.015 -1.82344 -0.668147 0
M  V30 3632 C 343.145 -3.38057 -0.795917 0
M  V30 3633 C 342.099 -4.2795 -0.065172 0
M  V30 3634 C 341.425 -5.23479 -1.08967 0
M  V30 3635 C 342.725 -5.10741 1.09273 0
M  V30 3636 H 344.419 -2.85692 0.895571 0
M  V30 3637 H 341.965 -1.37364 0.432109 0
M  V30 3638 H 343.918 -4.02675 -1.24221 0
M  V30 3639 H 342.642 -2.8404 -1.61211 0
M  V30 3640 H 341.301 -3.64813 0.361511 0
M  V30 3641 H 340.949 -4.65758 -1.89944 0
M  V30 3642 H 340.649 -5.84472 -0.605489 0
M  V30 3643 H 342.173 -5.90974 -1.53565 0
M  V30 3644 H 343.587 -5.68699 0.724841 0
M  V30 3645 H 341.984 -5.8088 1.50659 0
M  V30 3646 H 343.054 -4.45525 1.91404 0
M  V30 3647 N 344.397 -0.483516 -1.5 0
M  V30 3648 C 345.329 0.340634 -2.26655 0
M  V30 3649 C 346.342 0.946152 -1.32483 0
M  V30 3650 O 347.531 0.832453 -1.579 0
M  V30 3651 C 344.631 1.4929 -3.04246 0
M  V30 3652 C 343.804 0.997903 -4.25865 0
M  V30 3653 C 342.863 2.02569 -4.85646 0
M  V30 3654 O 341.889 1.60128 -5.46212 0
M  V30 3655 N 343.091 3.3548 -4.73744 0
M  V30 3656 H 345.856 -0.316577 -2.98023 0
M  V30 3657 H 343.417 -0.315024 -1.58806 0
M  V30 3658 H 345.409 2.17766 -3.41116 0
M  V30 3659 H 343.979 2.05458 -2.35597 0
M  V30 3660 H 343.199 0.138617 -3.93956 0
M  V30 3661 H 344.487 0.645305 -5.04691 0
M  V30 3662 H 343.885 3.72661 -4.25605 0
M  V30 3663 H 342.442 3.99718 -5.14848 0
M  V30 3664 N 345.875 1.56104 -0.216619 0
M  V30 3665 C 346.825 2.16703 0.708798 0
M  V30 3666 C 347.809 1.11392 1.16106 0
M  V30 3667 O 349.001 1.37395 1.11587 0
M  V30 3668 C 346.13 2.84666 1.91886 0
M  V30 3669 C 345.216 3.97195 1.48651 0
M  V30 3670 N 345.607 4.99959 0.766434 0
M  V30 3671 C 343.905 4.09193 1.77418 0
M  V30 3672 C 344.606 5.79126 0.546659 0
M  V30 3673 N 343.582 5.32315 1.10188 0
M  V30 3674 H 347.384 2.93516 0.150162 0
M  V30 3675 H 344.898 1.6239 -0.0176768 0
M  V30 3676 H 346.895 3.26486 2.59253 0
M  V30 3677 H 345.555 2.09347 2.48202 0
M  V30 3678 H 346.566 5.16197 0.419634 0
M  V30 3679 H 343.243 3.45021 2.35088 0
M  V30 3680 H 344.633 6.71895 -0.026103 0
M  V30 3681 N 347.353 -0.0568162 1.57498 0
M  V30 3682 C 348.303 -1.07315 2.01166 0
M  V30 3683 C 349.287 -1.33632 0.896171 0
M  V30 3684 O 350.479 -1.33682 1.16009 0
M  V30 3685 C 347.608 -2.38257 2.47161 0
M  V30 3686 C 346.694 -2.1515 3.65474 0
M  V30 3687 N 347.085 -1.62014 4.7915 0
M  V30 3688 C 345.383 -2.45559 3.72313 0
M  V30 3689 C 346.084 -1.54069 5.60926 0
M  V30 3690 N 345.06 -2.00652 5.05213 0
M  V30 3691 H 348.862 -0.655878 2.86488 0
M  V30 3692 H 346.376 -0.263635 1.60246 0
M  V30 3693 H 348.373 -3.11845 2.76691 0
M  V30 3694 H 347.033 -2.80687 1.63232 0
M  V30 3695 H 348.044 -1.30667 5.01145 0
M  V30 3696 H 344.721 -2.91253 2.99129 0
M  V30 3697 H 346.111 -1.13712 6.62208 0
M  V30 3698 N 348.832 -1.54138 -0.328536 0
M  V30 3699 C 350.079 -1.72105 -1.06706 0
M  V30 3700 C 350.407 -0.492111 -1.88171 0
M  V30 3701 O 349.662 0.526153 -1.88494 0
M  V30 3702 C 349.961 -2.9457 -2.02393 0
M  V30 3703 C 349.627 -4.29544 -1.37122 0
M  V30 3704 C 348.289 -4.6624 -1.19052 0
M  V30 3705 C 350.641 -5.1333 -0.902331 0
M  V30 3706 C 347.969 -5.84325 -0.527331 0
M  V30 3707 C 350.321 -6.32094 -0.252988 0
M  V30 3708 C 348.985 -6.67473 -0.0600901 0
M  V30 3709 H 348.255 -0.629775 -0.390466 0
M  V30 3710 H 350.902 -1.88372 -0.34473 0
M  V30 3711 H 349.207 -2.72969 -2.81061 0
M  V30 3712 H 350.904 -3.05665 -2.59557 0
M  V30 3713 H 347.494 -4.0067 -1.52188 0
M  V30 3714 H 351.678 -4.855 -1.02974 0
M  V30 3715 H 346.934 -6.103 -0.366634 0
M  V30 3716 H 351.108 -6.96299 0.118366 0
M  V30 3717 H 348.735 -7.58832 0.455828 0
M  V30 3718 N 350.31 0.590341 -1.46126 0
M  V30 3719 C 351.24 1.71032 -1.58966 0
M  V30 3720 C 352.221 1.64302 -0.440335 0
M  V30 3721 O 353.406 1.82436 -0.665634 0
M  V30 3722 C 350.536 3.09665 -1.57241 0
M  V30 3723 C 349.49 3.31221 -2.71066 0
M  V30 3724 C 348.816 4.70303 -2.54399 0
M  V30 3725 C 350.116 3.19796 -4.1295 0
M  V30 3726 H 351.81 1.60543 -2.52718 0
M  V30 3727 H 349.356 0.770933 -1.21625 0
M  V30 3728 H 351.309 3.87831 -1.64819 0
M  V30 3729 H 350.033 3.21036 -0.600289 0
M  V30 3730 H 348.692 2.55452 -2.62944 0
M  V30 3731 H 348.34 4.78429 -1.55288 0
M  V30 3732 H 348.04 4.85679 -3.30741 0
M  V30 3733 H 349.564 5.50647 -2.63857 0
M  V30 3734 H 350.978 3.87815 -4.22223 0
M  V30 3735 H 349.375 3.46696 -4.89818 0
M  V30 3736 H 350.445 2.16983 -4.33643 0
M  V30 3737 N 351.788 1.33704 0.83433 0
M  V30 3738 C 352.751 1.24244 1.92603 0
M  V30 3739 C 353.751 0.160383 1.59998 0
M  V30 3740 O 354.941 0.412228 1.69252 0
M  V30 3741 C 352.073 0.91555 3.28376 0
M  V30 3742 H 353.266 2.21287 2.02416 0
M  V30 3743 H 350.819 1.17827 1.02696 0
M  V30 3744 H 351.554 -0.0521886 3.24258 0
M  V30 3745 H 351.339 1.69811 3.53422 0
M  V30 3746 H 352.829 0.874231 4.08347 0
M  V30 3747 N 353.266 -1.05314 1.17247 0
M  V30 3748 C 354.494 -1.81971 0.984593 0
M  V30 3749 C 354.909 -1.82929 -0.467166 0
M  V30 3750 O 354.266 -1.25564 -1.32438 0
M  V30 3751 C 354.317 -3.28143 1.51672 0
M  V30 3752 O 354.038 -3.27347 2.91163 0
M  V30 3753 C 355.539 -4.21493 1.37326 0
M  V30 3754 H 352.759 -0.573455 0.348411 0
M  V30 3755 H 355.303 -1.32808 1.55506 0
M  V30 3756 H 353.458 -3.74582 0.988302 0
M  V30 3757 H 353.872 -4.18824 3.15732 0
M  V30 3758 H 355.346 -5.22043 1.79375 0
M  V30 3759 H 355.823 -4.38031 0.320169 0
M  V30 3760 H 356.429 -3.80909 1.89178 0
M  V30 3761 N 354.744 -0.972509 -1.24016 0
M  V30 3762 C 355.969 -0.654417 -1.96805 0
M  V30 3763 C 356.394 0.770398 -1.716 0
M  V30 3764 O 355.752 1.52361 -0.982647 0
M  V30 3765 C 355.8 -0.941031 -3.48105 0
M  V30 3766 O 354.904 -0.0289472 -4.1239 0
M  V30 3767 H 354.245 -0.24692 -0.616382 0
M  V30 3768 H 356.775 -1.30396 -1.57664 0
M  V30 3769 H 356.785 -0.87452 -3.98517 0
M  V30 3770 H 355.46 -1.97939 -3.65777 0
M  V30 3771 H 354.037 -0.149192 -3.72601 0
M  V30 3772 N 356.222 1.38976 -0.743202 0
M  V30 3773 C 357.172 2.27843 -0.084513 0
M  V30 3774 C 358.156 1.44677 0.704094 0
M  V30 3775 O 359.348 1.67511 0.571755 0
M  V30 3776 C 356.477 3.33466 0.815781 0
M  V30 3777 C 355.563 4.24095 0.0208844 0
M  V30 3778 N 355.954 4.95609 -1.0102 0
M  V30 3779 C 354.252 4.45303 0.249293 0
M  V30 3780 C 354.953 5.62287 -1.49024 0
M  V30 3781 N 353.929 5.37571 -0.807377 0
M  V30 3782 H 357.731 2.80593 -0.87436 0
M  V30 3783 H 355.245 1.51755 -0.578283 0
M  V30 3784 H 357.242 3.96008 1.30321 0
M  V30 3785 H 355.902 2.82276 1.6047 0
M  V30 3786 H 356.913 4.98849 -1.39176 0
M  V30 3787 H 353.59 4.0504 1.01237 0
M  V30 3788 H 354.98 6.29519 -2.34853 0
M  V30 3789 N 357.7 0.491464 1.49741 0
M  V30 3790 C 358.93 -0.0534375 2.06531 0
M  V30 3791 C 359.338 -1.32233 1.35318 0
M  V30 3792 O 358.681 -1.78781 0.422243 0
M  V30 3793 C 358.743 -0.387034 3.57411 0
M  V30 3794 C 358.407 0.782764 4.50246 0
M  V30 3795 C 359.404 1.67059 4.92329 0
M  V30 3796 C 357.089 0.978866 4.9267 0
M  V30 3797 C 359.083 2.73874 5.75562 0
M  V30 3798 C 356.77 2.05022 5.75682 0
M  V30 3799 C 357.768 2.92851 6.17031 0
M  V30 3800 O 357.456 3.98138 6.98385 0
M  V30 3801 H 357.188 0.0129324 0.675876 0
M  V30 3802 H 359.742 0.685238 1.93633 0
M  V30 3803 H 357.972 -1.17918 3.68283 0
M  V30 3804 H 359.661 -0.869419 3.96479 0
M  V30 3805 H 360.427 1.53086 4.60206 0
M  V30 3806 H 356.306 0.304646 4.59992 0
M  V30 3807 H 359.85 3.42458 6.07757 0
M  V30 3808 H 355.747 2.18993 6.07217 0
M  V30 3809 H 356.515 3.95374 7.16674 0
M  V30 3810 N 359.178 -1.55987 0.224894 0
M  V30 3811 C 360.424 -1.98684 -0.406502 0
M  V30 3812 C 360.757 -1.11248 -1.59177 0
M  V30 3813 O 360.032 -0.170909 -1.93748 0
M  V30 3814 C 360.315 -3.50218 -0.837808 0
M  V30 3815 C 360.168 -4.48426 0.351332 0
M  V30 3816 C 361.487 -4.06243 -1.69278 0
M  V30 3817 H 358.606 -0.722337 -0.146283 0
M  V30 3818 H 361.248 -1.87255 0.321799 0
M  V30 3819 H 359.398 -3.60089 -1.45837 0
M  V30 3820 H 361.07 -4.50562 0.989526 0
M  V30 3821 H 359.313 -4.22159 0.998207 0
M  V30 3822 H 359.984 -5.52 0.00655905 0
M  V30 3823 H 362.46 -3.99337 -1.16914 0
M  V30 3824 H 361.336 -5.12581 -1.96346 0
M  V30 3825 H 361.597 -3.53332 -2.65723 0
M  V30 3826 N 360.656 0.0484629 -1.57525 0
M  V30 3827 C 361.884 0.755421 -1.92616 0
M  V30 3828 C 362.299 1.69919 -0.822984 0
M  V30 3829 O 361.656 1.81378 0.202085 0
M  V30 3830 C 361.707 1.52915 -3.27566 0
M  V30 3831 O 361.428 0.62329 -4.33644 0
M  V30 3832 C 362.929 2.33502 -3.76818 0
M  V30 3833 H 360.149 0.213465 -0.63614 0
M  V30 3834 H 362.693 0.0117698 -2.04497 0
M  V30 3835 H 360.848 2.22486 -3.17142 0
M  V30 3836 H 361.262 1.16383 -5.11425 0
M  V30 3837 H 362.736 2.83214 -4.73808 0
M  V30 3838 H 363.213 3.14068 -3.07014 0
M  V30 3839 H 363.819 1.69043 -3.90262 0
M  V30 3840 N 362.134 1.5431 0.320358 0
M  V30 3841 C 363.362 1.76636 1.07738 0
M  V30 3842 C 363.777 0.51649 1.81598 0
M  V30 3843 O 363.134 -0.512942 1.75143 0
M  V30 3844 C 363.185 2.96158 2.07299 0
M  V30 3845 O 362.906 4.16313 1.36438 0
M  V30 3846 C 364.407 3.3072 2.95193 0
M  V30 3847 H 361.627 0.589597 0.320339 0
M  V30 3848 H 364.171 2.01207 0.36551 0
M  V30 3849 H 362.326 2.73851 2.74016 0
M  V30 3850 H 362.74 4.83565 2.03138 0
M  V30 3851 H 364.214 4.17643 3.60941 0
M  V30 3852 H 364.691 2.48026 3.62463 0
M  V30 3853 H 365.297 3.55117 2.34034 0
M  V30 3854 N 363.613 -0.582584 1.46437 0
M  V30 3855 C 365.029 -0.905962 1.31394 0
M  V30 3856 C 365.229 -1.99468 0.285476 0
M  V30 3857 O 364.285 -2.50566 -0.311914 0
M  V30 3858 C 365.598 -1.3232 2.70022 0
M  V30 3859 C 367.146 -1.43604 2.78113 0
M  V30 3860 C 367.621 -1.88694 4.17323 0
M  V30 3861 N 369.112 -1.95887 4.19741 0
M  V30 3862 C 369.847 -2.32051 5.24347 0
M  V30 3863 N 369.343 -2.67006 6.39281 0
M  V30 3864 N 371.136 -2.32606 5.11713 0
M  V30 3865 H 363.287 0.1366 2.1196 0
M  V30 3866 H 365.55 -0.00155736 0.947999 0
M  V30 3867 H 365.256 -0.597242 3.46592 0
M  V30 3868 H 365.13 -2.28469 3.00136 0
M  V30 3869 H 367.517 -2.15286 2.01832 0
M  V30 3870 H 367.598 -0.457059 2.51684 0
M  V30 3871 H 367.242 -1.1759 4.941 0
M  V30 3872 H 367.172 -2.8755 4.4116 0
M  V30 3873 H 369.663 -1.71362 3.36814 0
M  V30 3874 H 369.976 -2.93554 7.14875 0
M  V30 3875 H 368.321 -2.64644 6.42642 0
M  V30 3876 H 371.512 -2.04721 4.2096 0
M  V30 3877 H 371.685 -2.60462 5.93349 0
M  V30 3878 N 365.091 -1.34144 -0.827227 0
M  V30 3879 C 366.038 -1.25364 -1.93785 0
M  V30 3880 C 367.008 -0.129774 -1.65592 0
M  V30 3881 O 368.193 -0.310024 -1.88264 0
M  V30 3882 C 365.333 -1.01064 -3.2997 0
M  V30 3883 C 364.446 -2.22185 -3.70484 0
M  V30 3884 C 363.581 -1.91203 -4.95595 0
M  V30 3885 C 362.62 -3.08491 -5.28677 0
M  V30 3886 N 361.757 -2.77421 -6.44967 0
M  V30 3887 H 366.597 -2.20347 -2.00627 0
M  V30 3888 H 364.134 -1.09558 -0.981608 0
M  V30 3889 H 366.092 -0.850139 -4.08446 0
M  V30 3890 H 364.722 -0.0975026 -3.22653 0
M  V30 3891 H 363.774 -2.4917 -2.87434 0
M  V30 3892 H 365.086 -3.0983 -3.90905 0
M  V30 3893 H 364.24 -1.71864 -5.81848 0
M  V30 3894 H 362.979 -1.00812 -4.77167 0
M  V30 3895 H 361.984 -3.28431 -4.40923 0
M  V30 3896 H 363.209 -3.99655 -5.49047 0
M  V30 3897 H 361.155 -1.89601 -6.28003 0
M  V30 3898 H 361.072 -3.58598 -6.6554 0
M  V30 3899 H 362.34 -2.61577 -7.34301 0
M  V30 3900 N 366.569 1.04691 -1.17803 0
M  V30 3901 C 367.817 1.7743 -0.967617 0
M  V30 3902 C 368.138 1.88359 0.504574 0
M  V30 3903 O 367.408 1.40402 1.36617 0
M  V30 3904 H 365.988 0.657242 -0.355024 0
M  V30 3905 H 368.65 1.2638 -1.48371 0
M  V30 3906 H 367.746 2.78924 -1.40027 0
M  V30 3907 N 368.047 0.979072 1.23499 0
M  V30 3908 C 369.293 0.648178 1.92163 0
M  V30 3909 C 369.626 -0.816049 1.76222 0
M  V30 3910 O 368.901 -1.58849 1.12237 0
M  V30 3911 C 369.184 1.03773 3.44824 0
M  V30 3912 C 369.037 2.55948 3.69879 0
M  V30 3913 C 370.356 0.580653 4.36253 0
M  V30 3914 H 367.475 0.236952 0.69787 0
M  V30 3915 H 370.117 1.22012 1.45647 0
M  V30 3916 H 368.267 0.551058 3.84572 0
M  V30 3917 H 369.939 3.12179 3.3962 0
M  V30 3918 H 368.182 2.98641 3.14636 0
M  V30 3919 H 368.853 2.78255 4.76737 0
M  V30 3920 H 371.329 0.998465 4.03943 0
M  V30 3921 H 370.205 0.881663 5.41773 0
M  V30 3922 H 370.466 -0.519052 4.39042 0
M  V30 3923 N 369.525 -1.3858 0.750561 0
M  V30 3924 C 370.75 -2.04997 0.314812 0
M  V30 3925 C 371.175 -1.56235 -1.04749 0
M  V30 3926 O 370.533 -0.712981 -1.66692 0
M  V30 3927 C 370.581 -3.58961 0.343415 0
M  V30 3928 O 369.685 -4.07025 -0.663628 0
M  V30 3929 H 369.026 -0.649081 0.139962 0
M  V30 3930 H 371.556 -1.77313 1.02084 0
M  V30 3931 H 371.566 -4.07542 0.193233 0
M  V30 3932 H 370.241 -3.93811 1.33738 0
M  V30 3933 H 368.818 -3.6982 -0.478307 0
M  V30 3934 N 371.003 -0.499398 -1.49478 0
M  V30 3935 C 372.231 0.0425456 -2.06856 0
M  V30 3936 C 372.646 1.30964 -1.35992 0
M  V30 3937 O 372.003 1.77172 -0.437762 0
M  V30 3938 C 372.054 0.301735 -3.60239 0
M  V30 3939 O 371.775 -0.915127 -4.28436 0
M  V30 3940 C 373.276 0.887499 -4.34325 0
M  V30 3941 H 370.496 -0.0197482 -0.670709 0
M  V30 3942 H 373.04 -0.696297 -1.92281 0
M  V30 3943 H 371.195 0.990556 -3.74522 0
M  V30 3944 H 371.609 -0.676993 -5.20113 0
M  V30 3945 H 373.083 1.01845 -5.42523 0
M  V30 3946 H 373.56 1.88488 -3.96698 0
M  V30 3947 H 374.166 0.236196 -4.24644 0
M  V30 3948 N 372.481 1.55866 -0.233164 0
M  V30 3949 C 373.411 2.23783 0.666599 0
M  V30 3950 C 374.392 1.21343 1.19205 0
M  V30 3951 O 375.577 1.4996 1.23392 0
M  V30 3952 C 372.707 2.92671 1.86978 0
M  V30 3953 C 371.661 4.01682 1.47768 0
M  V30 3954 C 370.987 4.57926 2.76058 0
M  V30 3955 C 372.287 5.18126 0.658993 0
M  V30 3956 H 373.981 2.99232 0.100306 0
M  V30 3957 H 371.527 1.43924 0.046804 0
M  V30 3958 H 373.48 3.3888 2.50476 0
M  V30 3959 H 372.204 2.14688 2.46123 0
M  V30 3960 H 370.863 3.56222 0.866106 0
M  V30 3961 H 370.511 3.76659 3.33372 0
M  V30 3962 H 370.211 5.31505 2.50552 0
M  V30 3963 H 371.735 5.06859 3.40479 0
M  V30 3964 H 373.149 5.60644 1.19795 0
M  V30 3965 H 371.546 5.98009 0.500552 0
M  V30 3966 H 372.616 4.83763 -0.331856 0
M  V30 3967 N 373.959 -0.0401083 1.57549 0
M  V30 3968 C 374.922 -1.02871 2.04817 0
M  V30 3969 C 375.922 -1.29708 0.950388 0
M  V30 3970 O 377.112 -1.24897 1.21435 0
M  V30 3971 C 374.244 -2.36443 2.45576 0
M  V30 3972 H 375.437 -0.620631 2.93408 0
M  V30 3973 H 372.99 -0.286667 1.53649 0
M  V30 3974 H 373.725 -2.82021 1.60108 0
M  V30 3975 H 373.51 -2.18296 3.25713 0
M  V30 3976 H 375 -3.07441 2.82612 0
M  V30 3977 N 375.437 -1.54477 -0.31217 0
M  V30 3978 C 376.686 -1.72438 -1.04633 0
M  V30 3979 C 376.999 -0.511163 -1.88803 0
M  V30 3980 O 378.205 -0.572341 -2.65399 0
M  V30 3981 C 376.661 -3.05043 -1.9099 0
M  V30 3982 C 376.269 -4.33806 -1.11877 0
M  V30 3983 C 378.013 -3.32364 -2.64073 0
M  V30 3984 C 375.92 -5.57467 -1.97445 0
M  V30 3985 H 374.85 -0.642647 -0.394361 0
M  V30 3986 H 377.501 -1.80966 -0.303929 0
M  V30 3987 H 375.883 -2.90451 -2.69173 0
M  V30 3988 H 377.057 -4.59199 -0.383843 0
M  V30 3989 H 375.372 -4.13336 -0.504252 0
M  V30 3990 H 377.969 -4.21951 -3.28423 0
M  V30 3991 H 378.312 -2.50745 -3.32314 0
M  V30 3992 H 378.845 -3.47875 -1.92944 0
M  V30 3993 H 375.584 -6.41722 -1.33692 0
M  V30 3994 H 375.104 -5.36277 -2.6864 0
M  V30 3995 H 376.783 -5.94303 -2.5576 0
M  V30 3996 N 376.915 0.57481 -1.46744 0
M  V30 3997 C 378.164 1.32898 -1.51727 0
M  V30 3998 C 378.477 1.948 -0.176692 0
M  V30 3999 O 379.683 2.71299 -0.104385 0
M  V30 4000 C 378.139 2.40901 -2.67385 0
M  V30 4001 C 377.747 1.85266 -4.07898 0
M  V30 4002 C 379.491 3.17609 -2.81646 0
M  V30 4003 C 377.398 2.90945 -5.14883 0
M  V30 4004 H 376.328 0.499631 -0.564699 0
M  V30 4005 H 378.979 0.612536 -1.72975 0
M  V30 4006 H 377.361 3.15379 -2.39483 0
M  V30 4007 H 378.535 1.17278 -4.45626 0
M  V30 4008 H 376.85 1.21199 -3.98371 0
M  V30 4009 H 379.447 3.96493 -3.58744 0
M  V30 4010 H 379.79 3.70696 -1.89448 0
M  V30 4011 H 380.323 2.50239 -3.09233 0
M  V30 4012 H 377.062 2.42736 -6.089 0
M  V30 4013 H 376.582 3.57398 -4.81691 0
M  V30 4014 H 378.261 3.54755 -5.41071 0
M  V30 4015 N 378.394 1.34581 0.820102 0
M  V30 4016 C 379.324 1.29038 1.94606 0
M  V30 4017 C 380.305 0.1673 1.69275 0
M  V30 4018 O 381.49 0.360112 1.90832 0
M  V30 4019 C 378.62 1.04793 3.31113 0
M  V30 4020 C 377.574 2.13597 3.70891 0
M  V30 4021 C 376.9 1.74537 5.05412 0
M  V30 4022 C 378.2 3.55451 3.8269 0
M  V30 4023 H 379.894 2.23248 1.99501 0
M  V30 4024 H 377.44 1.0747 0.958449 0
M  V30 4025 H 379.393 0.995592 4.0947 0
M  V30 4026 H 378.117 0.0702565 3.26524 0
M  V30 4027 H 376.776 2.17905 2.9481 0
M  V30 4028 H 376.424 0.754226 4.97313 0
M  V30 4029 H 376.124 2.47361 5.32997 0
M  V30 4030 H 377.648 1.70803 5.86224 0
M  V30 4031 H 379.062 3.5354 4.51312 0
M  V30 4032 H 377.459 4.26922 4.21732 0
M  V30 4033 H 378.529 3.92587 2.84611 0
M  V30 4034 N 379.872 -1.04064 1.18357 0
M  V30 4035 C 381.12 -1.76915 0.977013 0
M  V30 4036 C 381.441 -1.88624 -0.494577 0
M  V30 4037 O 380.711 -1.41125 -1.3587 0
M  V30 4038 H 379.291 -0.65535 0.358504 0
M  V30 4039 H 381.953 -1.25592 1.49039 0
M  V30 4040 H 381.049 -2.78178 1.41504 0
M  V30 4041 N 381.35 -0.985608 -1.22978 0
M  V30 4042 C 382.578 -0.675582 -1.95559 0
M  V30 4043 C 382.993 0.758413 -1.72897 0
M  V30 4044 O 382.35 1.51094 -1.02357 0
M  V30 4045 C 382.401 -0.96293 -3.48439 0
M  V30 4046 O 382.122 -2.34057 -3.70336 0
M  V30 4047 C 383.623 -0.669585 -4.38214 0
M  V30 4048 H 380.843 -0.250523 -0.622478 0
M  V30 4049 H 383.387 -1.3184 -1.56328 0
M  V30 4050 H 381.542 -0.366033 -3.85667 0
M  V30 4051 H 381.956 -2.43424 -4.64591 0
M  V30 4052 H 383.43 -0.920967 -5.44263 0
M  V30 4053 H 383.907 0.396383 -4.37408 0
M  V30 4054 H 384.513 -1.2472 -4.06602 0
M  V30 4055 N 382.828 1.3818 -0.7579 0
M  V30 4056 C 384.075 2.00019 -0.315985 0
M  V30 4057 C 384.403 1.60163 1.10355 0
M  V30 4058 O 383.658 0.83264 1.77103 0
M  V30 4059 C 383.957 3.55252 -0.391218 0
M  V30 4060 C 383.623 4.14834 -1.76702 0
M  V30 4061 C 382.285 4.30821 -2.14353 0
M  V30 4062 C 384.637 4.47658 -2.66931 0
M  V30 4063 C 381.965 4.76928 -3.41696 0
M  V30 4064 C 384.317 4.95184 -3.93669 0
M  V30 4065 C 382.981 5.09377 -4.31383 0
M  V30 4066 H 382.251 0.731923 -0.115627 0
M  V30 4067 H 384.898 1.65161 -0.969223 0
M  V30 4068 H 383.203 3.90273 0.34558 0
M  V30 4069 H 384.9 4.00988 -0.030805 0
M  V30 4070 H 381.49 4.02808 -1.46435 0
M  V30 4071 H 385.674 4.34904 -2.39106 0
M  V30 4072 H 380.93 4.86103 -3.70829 0
M  V30 4073 H 385.104 5.19551 -4.63724 0
M  V30 4074 H 382.731 5.44865 -5.30119 0
M  V30 4075 N 384.306 0.507319 1.49211 0
M  V30 4076 C 385.269 -0.256763 2.27757 0
M  V30 4077 C 386.269 -0.888287 1.34038 0
M  V30 4078 O 387.459 -0.751841 1.5714 0
M  V30 4079 C 384.591 -1.36905 3.12202 0
M  V30 4080 H 385.784 0.432557 2.96764 0
M  V30 4081 H 383.337 0.262488 1.5408 0
M  V30 4082 H 384.072 -2.09233 2.47775 0
M  V30 4083 H 383.857 -0.921599 3.81115 0
M  V30 4084 H 385.347 -1.9071 3.7151 0
M  V30 4085 N 385.784 -1.5574 0.241426 0
M  V30 4086 C 386.747 -2.19877 -0.647063 0
M  V30 4087 C 387.747 -1.16642 -1.10686 0
M  V30 4088 O 388.937 -1.41757 -1.01245 0
M  V30 4089 C 386.069 -2.83797 -1.88871 0
M  V30 4090 H 387.262 -2.99772 -0.087574 0
M  V30 4091 H 384.815 -1.56298 -0.00813574 0
M  V30 4092 H 385.55 -2.07824 -2.48957 0
M  V30 4093 H 385.335 -3.59414 -1.56728 0
M  V30 4094 H 386.825 -3.32898 -2.52129 0
M  V30 4095 N 387.262 0.0317525 -1.57568 0
M  V30 4096 C 388.502 0.727979 -1.90997 0
M  V30 4097 C 388.866 1.72664 -0.839708 0
M  V30 4098 O 390.067 2.47092 -1.05825 0
M  V30 4099 C 388.338 1.38239 -3.29583 0
M  V30 4100 S 389.897 2.10814 -3.84841 0
M  V30 4101 H 386.715 0.241226 -0.668828 0
M  V30 4102 H 389.317 -0.0173037 -1.95492 0
M  V30 4103 H 388.021 0.642288 -4.05343 0
M  V30 4104 H 387.552 2.16628 -3.28384 0
M  V30 4105 H 389.567 3.3792 -3.63352 0
M  V30 4106 N 388.74 1.54641 0.303973 0
M  V30 4107 C 389.986 1.74969 1.03718 0
M  V30 4108 C 390.341 0.527461 1.85029 0
M  V30 4109 O 389.634 -0.480143 1.85486 0
M  V30 4110 C 389.828 2.97753 1.97681 0
M  V30 4111 C 389.657 4.318 1.25613 0
M  V30 4112 C 388.427 4.95616 0.984518 0
M  V30 4113 C 390.625 5.10021 0.662081 0
M  V30 4114 N 388.607 6.13455 0.233794 0
M  V30 4115 C 389.978 6.19984 0.0439736 0
M  V30 4116 C 392.033 4.94663 0.566835 0
M  V30 4117 C 390.736 7.16264 -0.66016 0
M  V30 4118 C 392.762 5.91271 -0.123637 0
M  V30 4119 C 392.124 7.00601 -0.730608 0
M  V30 4120 H 388.223 0.692873 0.362562 0
M  V30 4121 H 390.807 1.92116 0.316135 0
M  V30 4122 H 388.978 2.82036 2.6704 0
M  V30 4123 H 390.71 3.06621 2.64132 0
M  V30 4124 H 387.465 4.55921 1.28191 0
M  V30 4125 H 387.889 6.76879 -0.127996 0
M  V30 4126 H 392.531 4.10267 1.02181 0
M  V30 4127 H 390.249 8.00204 -1.12691 0
M  V30 4128 H 393.835 5.81466 -0.197236 0
M  V30 4129 H 392.715 7.7407 -1.2564 0
M  V30 4130 N 390.218 -0.567019 1.47046 0
M  V30 4131 C 391.151 -1.69016 1.53326 0
M  V30 4132 C 392.129 -1.57949 0.386126 0
M  V30 4133 O 393.313 -1.78945 0.592529 0
M  V30 4134 C 390.44 -3.07191 1.42658 0
M  V30 4135 C 389.486 -3.36733 2.6175 0
M  V30 4136 S 390.319 -3.27069 4.24012 0
M  V30 4137 C 391.475 -4.67755 4.1588 0
M  V30 4138 H 391.708 -1.63434 2.48348 0
M  V30 4139 H 389.241 -0.747048 1.35124 0
M  V30 4140 H 391.199 -3.86897 1.37191 0
M  V30 4141 H 389.86 -3.10249 0.490369 0
M  V30 4142 H 389.053 -4.37441 2.50323 0
M  V30 4143 H 388.655 -2.64627 2.64289 0
M  V30 4144 H 390.947 -5.58491 3.83529 0
M  V30 4145 H 391.89 -4.84239 5.16641 0
M  V30 4146 H 392.298 -4.45341 3.46889 0
M  V30 4147 N 391.696 -1.35014 -0.812953 0
M  V30 4148 C 393.107 -1.25035 -1.38648 0
M  V30 4149 C 393.458 0.119967 -1.95833 0
M  V30 4150 O 392.583 1.02069 -1.90816 0
M  V30 4151 C 393.178 -2.26394 -2.52054 0
M  V30 4152 C 391.737 -2.20175 -3.05287 0
M  V30 4153 C 390.884 -2.12451 -1.78213 0
M  V30 4154 H 393.835 -1.46235 -0.616516 0
M  V30 4155 H 393.856 -1.88672 -3.30429 0
M  V30 4156 H 393.368 -3.26116 -2.10404 0
M  V30 4157 H 391.469 -1.23841 -3.51417 0
M  V30 4158 H 391.582 -3.11863 -3.63701 0
M  V30 4159 H 389.946 -1.58328 -1.9951 0
M  V30 4160 H 390.729 -3.14024 -1.38723 0
M  V30 4161 N 393.175 1.03435 -1.18907 0
M  V30 4162 C 394.422 1.76743 -0.988334 0
M  V30 4163 C 394.75 1.88447 0.481441 0
M  V30 4164 O 394.005 1.39383 1.37371 0
M  V30 4165 C 394.304 3.19792 -1.59586 0
M  V30 4166 C 393.97 3.28108 -3.09283 0
M  V30 4167 C 392.632 3.30084 -3.5014 0
M  V30 4168 C 394.984 3.27696 -4.05296 0
M  V30 4169 C 392.312 3.29299 -4.85571 0
M  V30 4170 C 394.664 3.28451 -5.4065 0
M  V30 4171 C 393.328 3.28723 -5.80946 0
M  V30 4172 H 392.598 0.64675 -0.361657 0
M  V30 4173 H 395.245 1.21442 -1.48068 0
M  V30 4174 H 393.55 3.78136 -1.02568 0
M  V30 4175 H 395.247 3.75171 -1.41589 0
M  V30 4176 H 391.837 3.27294 -2.76725 0
M  V30 4177 H 396.021 3.25354 -3.74778 0
M  V30 4178 H 391.277 3.2783 -5.16079 0
M  V30 4179 H 395.451 3.27082 -6.14809 0
M  V30 4180 H 393.078 3.27868 -6.85862 0
M  V30 4181 N 394.653 0.992116 1.22453 0
M  V30 4182 C 395.881 0.685944 1.95198 0
M  V30 4183 C 396.296 -0.749233 1.73297 0
M  V30 4184 O 395.653 -1.50549 1.03156 0
M  V30 4185 C 395.704 0.981395 3.47924 0
M  V30 4186 O 395.425 2.36018 3.6909 0
M  V30 4187 C 396.926 0.692815 4.37853 0
M  V30 4188 H 394.146 0.253821 0.621141 0
M  V30 4189 H 396.69 1.32668 1.55626 0
M  V30 4190 H 394.845 0.386481 3.85467 0
M  V30 4191 H 395.259 2.45884 4.63294 0
M  V30 4192 H 396.733 0.949818 5.43767 0
M  V30 4193 H 397.21 -0.373181 4.37612 0
M  V30 4194 H 397.816 1.26874 4.05935 0
M  V30 4195 N 396.131 -1.37776 0.765217 0
M  V30 4196 C 397.061 -2.32945 0.160953 0
M  V30 4197 C 398.042 -1.55454 -0.690516 0
M  V30 4198 O 399.227 -1.83721 -0.629318 0
M  V30 4199 C 396.357 -3.39669 -0.724031 0
M  V30 4200 C 395.311 -4.27992 0.0256173 0
M  V30 4201 C 394.637 -5.25673 -0.978383 0
M  V30 4202 C 395.937 -5.08309 1.20082 0
M  V30 4203 H 397.631 -2.83728 0.955969 0
M  V30 4204 H 395.177 -1.36416 0.461149 0
M  V30 4205 H 397.13 -4.05219 -1.15652 0
M  V30 4206 H 395.854 -2.87396 -1.5515 0
M  V30 4207 H 394.513 -3.63964 0.438812 0
M  V30 4208 H 394.161 -4.69682 -1.80022 0
M  V30 4209 H 393.861 -5.85625 -0.481378 0
M  V30 4210 H 395.385 -5.94098 -1.40995 0
M  V30 4211 H 396.799 -5.67034 0.845307 0
M  V30 4212 H 395.196 -5.77554 1.62947 0
M  V30 4213 H 396.266 -4.41365 2.00811 0
M  V30 4214 N 397.609 -0.515225 -1.4894 0
M  V30 4215 C 398.839 0.0205735 -2.0659 0
M  V30 4216 C 399.247 1.30064 -1.37405 0
M  V30 4217 O 398.59 1.78087 -0.450632 0
M  V30 4218 C 398.652 0.330124 -3.57981 0
M  V30 4219 C 398.316 -0.854295 -4.48944 0
M  V30 4220 C 399.313 -1.7487 -4.89609 0
M  V30 4221 C 396.998 -1.05712 -4.9105 0
M  V30 4222 C 398.992 -2.82996 -5.71132 0
M  V30 4223 C 396.679 -2.14154 -5.72347 0
M  V30 4224 C 397.677 -3.0263 -6.12294 0
M  V30 4225 O 397.365 -4.09198 -6.91962 0
M  V30 4226 H 397.097 -0.0236833 -0.675585 0
M  V30 4227 H 399.651 -0.715956 -1.92518 0
M  V30 4228 H 397.881 1.12044 -3.70112 0
M  V30 4229 H 399.57 0.806233 -3.97812 0
M  V30 4230 H 400.336 -1.60388 -4.57712 0
M  V30 4231 H 396.215 -0.377788 -4.59449 0
M  V30 4232 H 399.759 -3.52083 -6.02232 0
M  V30 4233 H 395.656 -2.28626 -6.03656 0
M  V30 4234 H 396.424 -4.06726 -7.10293 0
M  V30 4235 N 399.087 1.5561 -0.249682 0
M  V30 4236 C 400.312 2.03865 0.381305 0
M  V30 4237 C 400.737 1.12769 1.50548 0
M  V30 4238 O 400.095 0.121189 1.80895 0
M  V30 4239 C 400.143 3.50101 0.863816 0
M  V30 4240 O 399.247 3.62132 1.97318 0
M  V30 4241 H 398.588 0.658827 0.0827194 0
M  V30 4242 H 401.118 2.01105 -0.376552 0
M  V30 4243 H 401.128 3.90975 1.1663 0
M  V30 4244 H 399.803 4.1588 0.0411816 0
M  V30 4245 H 398.38 3.33155 1.67517 0
M  V30 4246 N 400.565 -0.0233959 1.57583 0
M  V30 4247 C 401.495 -1.02162 2.09965 0
M  V30 4248 C 402.476 -1.3735 1.00344 0
M  V30 4249 O 403.661 -1.46135 1.27899 0
M  V30 4250 C 400.791 -2.32081 2.58371 0
M  V30 4251 C 399.745 -2.1112 3.72307 0
M  V30 4252 C 399.071 -3.46848 4.06941 0
M  V30 4253 C 400.371 -1.49276 5.00514 0
M  V30 4254 H 402.065 -0.585557 2.93618 0
M  V30 4255 H 399.611 -0.280218 1.41247 0
M  V30 4256 H 401.564 -3.02249 2.93639 0
M  V30 4257 H 400.288 -2.77758 1.71808 0
M  V30 4258 H 398.947 -1.43384 3.37397 0
M  V30 4259 H 398.595 -3.90184 3.17436 0
M  V30 4260 H 398.295 -3.33646 4.83688 0
M  V30 4261 H 399.819 -4.18369 4.44747 0
M  V30 4262 H 401.233 -2.09368 5.33702 0
M  V30 4263 H 399.63 -1.46632 5.8191 0
M  V30 4264 H 400.7 -0.459217 4.82721 0
M  V30 4265 N 402.043 -1.548 -0.295768 0
M  V30 4266 C 403.292 -1.73538 -1.02798 0
M  V30 4267 C 403.605 -0.531159 -1.8825 0
M  V30 4268 O 404.811 -0.600458 -2.64777 0
M  V30 4269 C 403.267 -3.07051 -1.87744 0
M  V30 4270 C 402.875 -4.34968 -1.07269 0
M  V30 4271 C 404.619 -3.35146 -2.60533 0
M  V30 4272 C 402.526 -5.5953 -1.91521 0
M  V30 4273 H 401.456 -0.646794 -0.387522 0
M  V30 4274 H 404.107 -1.81278 -0.284718 0
M  V30 4275 H 402.489 -2.93289 -2.66078 0
M  V30 4276 H 403.663 -4.5958 -0.335117 0
M  V30 4277 H 401.978 -4.13847 -0.460384 0
M  V30 4278 H 404.575 -4.2541 -3.23929 0
M  V30 4279 H 404.918 -2.54255 -3.29636 0
M  V30 4280 H 405.451 -3.49902 -1.89244 0
M  V30 4281 H 402.19 -6.43103 -1.26878 0
M  V30 4282 H 401.71 -5.39096 -2.62937 0
M  V30 4283 H 403.389 -5.96982 -2.49442 0
M  V30 4284 N 403.521 0.559213 -1.47345 0
M  V30 4285 C 404.484 1.64854 -1.59235 0
M  V30 4286 C 405.484 1.53851 -0.467607 0
M  V30 4287 O 406.674 1.58045 -0.732617 0
M  V30 4288 C 403.806 3.04388 -1.53496 0
M  V30 4289 H 404.999 1.55662 -2.56339 0
M  V30 4290 H 402.552 0.778973 -1.35505 0
M  V30 4291 H 403.287 3.19115 -0.577604 0
M  V30 4292 H 403.072 3.13783 -2.35123 0
M  V30 4293 H 404.562 3.83642 -1.6495 0
M  V30 4294 N 404.999 1.35443 0.805782 0
M  V30 4295 C 406.276 1.19325 1.54987 0
M  V30 4296 C 406.656 -0.227294 2.09873 0
M  V30 4297 O 406.004 -1.2309 1.92512 0
M  V30 4298 C 406.214 2.26196 2.65775 0
M  V30 4299 C 407.562 2.62043 3.34094 0
M  V30 4300 O 408.586 2.25115 2.76046 0
M  V30 4301 O 407.445 3.25542 4.38958 0
M  V30 4302 H 404.539 0.463623 0.684823 0
M  V30 4303 H 407.085 1.47127 0.845674 0
M  V30 4304 H 405.857 3.21471 2.23096 0
M  V30 4305 H 405.48 1.99667 3.43829 0
M  V30 4306 N 406.477 -1.02803 1.19454 0
M  V30 4307 C 407.707 -1.79581 1.02149 0
M  V30 4308 C 408.115 -1.84182 -0.432851 0
M  V30 4309 O 407.458 -1.28534 -1.31243 0
M  V30 4310 C 407.52 -3.25993 1.51554 0
M  V30 4311 C 407.184 -3.45025 2.99678 0
M  V30 4312 C 408.181 -3.35175 3.97434 0
M  V30 4313 C 405.866 -3.71212 3.38389 0
M  V30 4314 C 407.86 -3.51238 5.31893 0
M  V30 4315 C 405.547 -3.8692 4.73008 0
M  V30 4316 C 406.545 -3.76936 5.69569 0
M  V30 4317 O 406.233 -3.92179 7.01748 0
M  V30 4318 H 405.965 -0.571962 0.360327 0
M  V30 4319 H 408.519 -1.30367 1.58725 0
M  V30 4320 H 406.749 -3.76235 0.893543 0
M  V30 4321 H 408.438 -3.84368 1.30444 0
M  V30 4322 H 409.204 -3.14895 3.68872 0
M  V30 4323 H 405.083 -3.78075 2.6378 0
M  V30 4324 H 408.627 -3.43362 6.07247 0
M  V30 4325 H 404.524 -4.06699 5.01265 0
M  V30 4326 H 405.292 -4.09265 7.08833 0
M  V30 4327 N 407.956 -0.998596 -1.21925 0
M  V30 4328 C 409.184 -0.696286 -1.94832 0
M  V30 4329 C 409.599 0.740032 -1.73692 0
M  V30 4330 O 408.956 1.5 -1.03953 0
M  V30 4331 C 409.007 -0.999833 -3.47398 0
M  V30 4332 O 408.728 -2.37972 -3.67833 0
M  V30 4333 C 410.229 -0.716025 -4.37479 0
M  V30 4334 H 407.449 -0.257111 -0.619786 0
M  V30 4335 H 409.993 -1.33491 -1.54921 0
M  V30 4336 H 408.148 -0.406918 -3.85257 0
M  V30 4337 H 408.562 -2.48338 -4.61983 0
M  V30 4338 H 410.036 -0.978642 -5.43256 0
M  V30 4339 H 410.513 0.349968 -4.37803 0
M  V30 4340 H 411.119 -1.29025 -4.05256 0
M  V30 4341 N 409.434 1.37368 -0.772513 0
M  V30 4342 C 410.664 2.03647 -0.348082 0
M  V30 4343 C 411.072 1.58392 1.03482 0
M  V30 4344 O 410.415 0.760921 1.672 0
M  V30 4345 C 410.477 3.58131 -0.313404 0
M  V30 4346 C 410.141 4.2652 -1.64102 0
M  V30 4347 C 411.138 4.50587 -2.5936 0
M  V30 4348 C 408.823 4.64335 -1.91567 0
M  V30 4349 C 410.817 5.11526 -3.80289 0
M  V30 4350 C 408.504 5.24996 -3.12766 0
M  V30 4351 C 409.502 5.48529 -4.06946 0
M  V30 4352 O 409.19 6.07921 -5.26011 0
M  V30 4353 H 408.922 0.660538 -0.143753 0
M  V30 4354 H 411.476 1.76669 -1.04772 0
M  V30 4355 H 409.706 3.84159 0.442617 0
M  V30 4356 H 411.395 4.05813 0.0840613 0
M  V30 4357 H 412.161 4.21784 -2.39423 0
M  V30 4358 H 408.04 4.45353 -1.19088 0
M  V30 4359 H 411.584 5.29811 -4.53813 0
M  V30 4360 H 407.481 5.53223 -3.32588 0
M  V30 4361 H 408.249 6.26398 -5.26847 0
M  V30 4362 N 410.912 0.523116 1.48665 0
M  V30 4363 C 412.323 0.0808997 1.86525 0
M  V30 4364 C 412.674 -1.33975 1.43336 0
M  V30 4365 O 411.799 -2.00221 0.821009 0
M  V30 4366 C 412.394 0.140037 3.3851 0
M  V30 4367 C 410.953 -0.246948 3.75589 0
M  V30 4368 C 410.1 0.502845 2.72703 0
M  V30 4369 H 413.051 0.734736 1.40667 0
M  V30 4370 H 413.072 -0.649945 3.74908 0
M  V30 4371 H 412.584 1.17412 3.69914 0
M  V30 4372 H 410.685 -1.28343 3.49798 0
M  V30 4373 H 410.798 0.0878859 4.79019 0
M  V30 4374 H 409.162 -0.0500581 2.54651 0
M  V30 4375 H 409.945 1.53743 3.0695 0
M  V30 4376 N 412.39 -1.55475 0.257931 0
M  V30 4377 C 413.615 -2.04064 -0.370488 0
M  V30 4378 C 414.04 -1.13565 -1.49948 0
M  V30 4379 O 413.398 -0.130781 -1.80828 0
M  V30 4380 C 413.446 -3.50554 -0.845237 0
M  V30 4381 O 412.55 -3.63173 -1.95394 0
M  V30 4382 H 411.891 -0.659257 -0.0792243 0
M  V30 4383 H 414.421 -2.00903 0.387212 0
M  V30 4384 H 414.431 -3.91588 -1.14555 0
M  V30 4385 H 413.106 -4.15896 -0.0191259 0
M  V30 4386 H 411.683 -3.34039 -1.65748 0
M  V30 4387 N 413.868 0.0150385 -1.57593 0
M  V30 4388 C 415.117 0.702115 -1.89085 0
M  V30 4389 C 415.43 1.75764 -0.858277 0
M  V30 4390 O 416.636 2.49829 -1.0629 0
M  V30 4391 C 415.092 1.29992 -3.35604 0
M  V30 4392 C 414.7 0.280007 -4.47124 0
M  V30 4393 C 416.444 1.96606 -3.76227 0
M  V30 4394 C 414.351 0.886949 -5.84711 0
M  V30 4395 H 413.281 0.265997 -0.705522 0
M  V30 4396 H 415.932 -0.0430408 -1.8345 0
M  V30 4397 H 414.314 2.09525 -3.36029 0
M  V30 4398 H 415.488 -0.489631 -4.58191 0
M  V30 4399 H 413.803 -0.284835 -4.15425 0
M  V30 4400 H 416.4 2.42893 -4.76347 0
M  V30 4401 H 416.743 2.79024 -3.08952 0
M  V30 4402 H 417.276 1.23828 -3.78036 0
M  V30 4403 H 414.015 0.101876 -6.55421 0
M  V30 4404 H 413.535 1.6261 -5.77337 0
M  V30 4405 H 415.214 1.39011 -6.3189 0
M  V30 4406 N 415.346 1.54954 0.287554 0
M  V30 4407 C 416.576 1.78622 1.03816 0
M  V30 4408 C 416.984 0.552451 1.80955 0
M  V30 4409 O 416.327 -0.487665 1.77109 0
M  V30 4410 C 416.389 2.94975 2.055 0
M  V30 4411 C 416.053 4.32565 1.47433 0
M  V30 4412 C 417.05 5.12096 0.897436 0
M  V30 4413 C 414.735 4.79195 1.50591 0
M  V30 4414 C 416.729 6.36383 0.359851 0
M  V30 4415 C 414.416 6.03441 0.964459 0
M  V30 4416 C 415.414 6.81872 0.392413 0
M  V30 4417 O 415.102 8.03777 -0.140788 0
M  V30 4418 H 414.834 0.599144 0.313053 0
M  V30 4419 H 417.388 2.02761 0.328225 0
M  V30 4420 H 415.618 2.66493 2.80211 0
M  V30 4421 H 417.307 3.06097 2.6657 0
M  V30 4422 H 418.073 4.77209 0.865841 0
M  V30 4423 H 413.952 4.18167 1.94055 0
M  V30 4424 H 417.496 6.97545 -0.0872951 0
M  V30 4425 H 413.393 6.37813 0.993246 0
M  V30 4426 H 414.161 8.18495 -0.0287617 0
M  V30 4427 N 416.824 -0.551391 1.4764 0
M  V30 4428 C 418.052 -1.33357 1.58189 0
M  V30 4429 C 418.467 -1.87342 0.234199 0
M  V30 4430 O 417.824 -1.65301 -0.77343 0
M  V30 4431 C 417.875 -2.49942 2.61173 0
M  V30 4432 O 417.596 -1.98187 3.90709 0
M  V30 4433 C 419.097 -3.42072 2.8196 0
M  V30 4434 H 416.317 -0.40631 0.533998 0
M  V30 4435 H 418.861 -0.667367 1.93304 0
M  V30 4436 H 417.016 -3.12489 2.28975 0
M  V30 4437 H 417.43 -2.74342 4.47031 0
M  V30 4438 H 418.904 -4.20278 3.57869 0
M  V30 4439 H 419.381 -3.95978 1.89995 0
M  V30 4440 H 419.987 -2.85336 3.15378 0
M  V30 4441 N 418.302 -1.35869 -0.798587 0
M  V30 4442 C 419.532 -1.32529 -1.58491 0
M  V30 4443 C 419.94 0.0975405 -1.88948 0
M  V30 4444 O 419.283 1.06224 -1.49874 0
M  V30 4445 C 419.345 -2.07247 -2.9375 0
M  V30 4446 C 419.009 -3.56391 -2.86068 0
M  V30 4447 C 420.006 -4.50824 -2.58947 0
M  V30 4448 C 417.691 -3.9915 -3.04933 0
M  V30 4449 C 419.685 -5.85993 -2.5078 0
M  V30 4450 C 417.372 -5.34413 -2.96389 0
M  V30 4451 C 418.37 -6.27646 -2.69349 0
M  V30 4452 O 418.058 -7.60426 -2.60782 0
M  V30 4453 H 417.79 -0.456529 -0.498556 0
M  V30 4454 H 420.344 -1.79425 -0.999799 0
M  V30 4455 H 418.574 -1.55001 -3.54276 0
M  V30 4456 H 420.263 -1.96883 -3.54954 0
M  V30 4457 H 421.029 -4.19104 -2.44084 0
M  V30 4458 H 416.908 -3.26961 -3.24989 0
M  V30 4459 H 420.452 -6.58735 -2.29595 0
M  V30 4460 H 416.349 -5.65743 -3.10813 0
M  V30 4461 H 417.117 -7.70444 -2.76331 0
M  V30 4462 N 419.78 1.02168 -1.19998 0
M  V30 4463 C 420.743 2.08765 -0.94604 0
M  V30 4464 C 421.743 1.60618 0.0763846 0
M  V30 4465 O 422.933 1.73472 -0.159135 0
M  V30 4466 C 420.065 3.38262 -0.423255 0
M  V30 4467 H 421.258 2.32726 -1.89153 0
M  V30 4468 H 418.811 1.1889 -1.01464 0
M  V30 4469 H 419.546 3.19974 0.527938 0
M  V30 4470 H 419.331 3.74532 -1.16053 0
M  V30 4471 H 420.821 4.16759 -0.264911 0
M  V30 4472 N 421.258 1.00505 1.21394 0
M  V30 4473 C 422.486 0.706609 1.9446 0
M  V30 4474 C 422.901 -0.73081 1.74082 0
M  V30 4475 O 422.258 -1.49446 1.04747 0
M  V30 4476 C 422.309 1.01824 3.46863 0
M  V30 4477 O 422.03 2.39919 3.66566 0
M  V30 4478 C 423.531 0.739216 4.37093 0
M  V30 4479 H 420.751 0.260394 0.618414 0
M  V30 4480 H 423.295 1.34311 1.54211 0
M  V30 4481 H 421.45 0.427343 3.85036 0
M  V30 4482 H 421.864 2.50784 4.6066 0
M  V30 4483 H 423.338 1.00744 5.42729 0
M  V30 4484 H 423.815 -0.326746 4.37983 0
M  V30 4485 H 424.421 1.31173 4.04566 0
M  V30 4486 N 422.737 -1.36956 0.779787 0
M  V30 4487 C 423.667 -2.32761 0.185651 0
M  V30 4488 C 424.648 -1.56177 -0.673989 0
M  V30 4489 O 425.833 -1.84378 -0.609797 0
M  V30 4490 C 422.963 -3.40418 -0.687964 0
M  V30 4491 C 421.917 -4.27941 0.0710102 0
M  V30 4492 C 421.243 -5.26681 -0.922573 0
M  V30 4493 C 422.543 -5.07006 1.25467 0
M  V30 4494 H 424.237 -2.82698 0.986008 0
M  V30 4495 H 421.783 -1.3592 0.475592 0
M  V30 4496 H 423.736 -4.06423 -1.11348 0
M  V30 4497 H 422.46 -2.89025 -1.52093 0
M  V30 4498 H 421.119 -3.63478 0.47739 0
M  V30 4499 H 420.767 -4.71565 -1.7503 0
M  V30 4500 H 420.467 -5.86103 -0.419237 0
M  V30 4501 H 421.991 -5.9556 -1.34686 0
M  V30 4502 H 423.405 -5.66105 0.905401 0
M  V30 4503 H 421.802 -5.75793 1.69063 0
M  V30 4504 H 422.872 -4.3921 2.05481 0
M  V30 4505 N 424.215 -0.530993 -1.48385 0
M  V30 4506 C 425.145 0.219985 -2.32461 0
M  V30 4507 C 426.126 0.934111 -1.42156 0
M  V30 4508 O 427.311 0.919694 -1.71042 0
M  V30 4509 C 424.441 1.26674 -3.23375 0
M  V30 4510 C 423.395 0.67069 -4.22712 0
M  V30 4511 C 422.721 1.82017 -5.02766 0
M  V30 4512 C 424.021 -0.358268 -5.2107 0
M  V30 4513 H 425.715 -0.48187 -2.95497 0
M  V30 4514 H 423.261 -0.233182 -1.42099 0
M  V30 4515 H 425.214 1.80006 -3.81019 0
M  V30 4516 H 423.938 1.99818 -2.58341 0
M  V30 4517 H 422.597 0.158878 -3.66256 0
M  V30 4518 H 422.245 2.54002 -4.34157 0
M  V30 4519 H 421.945 1.42727 -5.70003 0
M  V30 4520 H 423.469 2.35725 -5.63264 0
M  V30 4521 H 424.883 0.0880081 -5.73232 0
M  V30 4522 H 423.28 -0.66861 -5.96364 0
M  V30 4523 H 424.35 -1.26367 -4.68145 0
M  V30 4524 N 425.693 1.55336 -0.266172 0
M  V30 4525 C 427.104 1.85236 0.233315 0
M  V30 4526 C 427.455 1.18816 1.56132 0
M  V30 4527 O 426.58 0.473307 2.11161 0
M  V30 4528 C 427.175 3.36059 0.430113 0
M  V30 4529 C 425.734 3.66116 0.873842 0
M  V30 4530 C 424.881 2.77274 -0.0380016 0
M  V30 4531 H 427.832 1.51004 -0.488214 0
M  V30 4532 H 427.853 3.58681 1.26998 0
M  V30 4533 H 427.365 3.84373 -0.536588 0
M  V30 4534 H 425.466 3.23295 1.85233 0
M  V30 4535 H 425.579 4.73699 0.717358 0
M  V30 4536 H 423.943 2.50198 0.476759 0
M  V30 4537 H 424.726 3.284 -1.00042 0
M  V30 4538 N 427.171 -0.0066808 1.57599 0
M  V30 4539 C 428.134 -0.985035 2.06953 0
M  V30 4540 C 429.134 -1.27663 0.977687 0
M  V30 4541 O 430.324 -1.22293 1.24057 0
M  V30 4542 C 427.456 -2.3118 2.50536 0
M  V30 4543 H 428.649 -0.558255 2.94658 0
M  V30 4544 H 426.202 -0.254011 1.54222 0
M  V30 4545 H 426.937 -2.78561 1.66054 0
M  V30 4546 H 426.722 -2.11338 3.3027 0
M  V30 4547 H 428.212 -3.01377 2.8907 0
M  V30 4548 N 428.649 -1.55105 -0.279332 0
M  V30 4549 C 429.877 -1.7943 -1.03017 0
M  V30 4550 C 430.292 -0.564456 -1.80165 0
M  V30 4551 O 429.649 0.466326 -1.76442 0
M  V30 4552 C 429.7 -3.0155 -1.99374 0
M  V30 4553 O 429.421 -4.19784 -1.25352 0
M  V30 4554 C 430.922 -3.3843 -2.86321 0
M  V30 4555 H 428.142 -0.597882 -0.304594 0
M  V30 4556 H 430.686 -2.02105 -0.312035 0
M  V30 4557 H 428.841 -2.81019 -2.66659 0
M  V30 4558 H 429.255 -4.88781 -1.90246 0
M  V30 4559 H 430.729 -4.27066 -3.49741 0
M  V30 4560 H 431.206 -2.57549 -3.5576 0
M  V30 4561 H 431.812 -3.61197 -2.24536 0
M  V30 4562 N 430.127 0.543554 -1.4793 0
M  V30 4563 C 431.357 1.32324 -1.58663 0
M  V30 4564 C 431.765 1.8766 -0.240896 0
M  V30 4565 O 431.108 1.66411 0.778011 0
M  V30 4566 C 431.17 2.52094 -2.56299 0
M  V30 4567 C 430.834 2.17944 -4.01683 0
M  V30 4568 C 431.831 1.74422 -4.89768 0
M  V30 4569 C 429.516 2.28884 -4.47121 0
M  V30 4570 C 431.51 1.42287 -6.21316 0
M  V30 4571 C 429.197 1.96361 -5.78693 0
M  V30 4572 C 430.195 1.53132 -6.65612 0
M  V30 4573 O 429.883 1.21029 -7.94737 0
M  V30 4574 H 429.615 0.409174 -0.538101 0
M  V30 4575 H 432.169 0.663887 -1.94375 0
M  V30 4576 H 430.399 3.20965 -2.15681 0
M  V30 4577 H 432.088 3.14165 -2.57012 0
M  V30 4578 H 432.854 1.65452 -4.55907 0
M  V30 4579 H 428.733 2.61488 -3.79664 0
M  V30 4580 H 432.277 1.08472 -6.89115 0
M  V30 4581 H 428.174 2.04967 -6.12094 0
M  V30 4582 H 428.942 1.34543 -8.07366 0
M  V30 4583 N 431.605 1.3629 0.791371 0
M  V30 4584 C 432.553 1.30514 1.92533 0
M  V30 4585 C 433.547 0.197285 1.68247 0
M  V30 4586 O 434.753 0.364176 1.76278 0
M  V30 4587 H 431.128 0.406263 0.632815 0
M  V30 4588 H 433.099 2.26282 1.94523 0
M  V30 4589 C 431.848 1.10933 3.29529 0
M  V30 4590 H 431.171 1.95427 3.48781 0
M  V30 4591 H 432.611 1.10937 4.0923 0
M  V30 4592 C 431.07 -0.186123 3.36385 0
M  V30 4593 O 431.6 -1.17664 3.84081 0
M  V30 4594 N 429.806 -0.230128 2.89687 0
M  V30 4595 H 429.353 0.576545 2.51065 0
M  V30 4596 H 429.311 -1.09658 2.94657 0
M  V30 4597 N 433.083 -1.0153 1.20538 0
M  V30 4598 C 434.308 -1.79283 1.04271 0
M  V30 4599 C 434.733 -1.8372 -0.403544 0
M  V30 4600 O 434.091 -1.27321 -1.2907 0
M  V30 4601 C 434.139 -3.21535 1.63241 0
M  V30 4602 O 433.243 -4.03099 0.870908 0
M  V30 4603 H 432.584 -0.55293 0.367647 0
M  V30 4604 H 435.114 -1.27696 1.59859 0
M  V30 4605 H 435.124 -3.72243 1.6703 0
M  V30 4606 H 433.799 -3.1762 2.68497 0
M  V30 4607 H 432.376 -3.61693 0.907323 0
M  V30 4608 N 434.561 -1.01147 -1.20859 0
M  V30 4609 C 435.81 -0.693214 -1.89413 0
M  V30 4610 C 436.123 0.779969 -1.79376 0
M  V30 4611 O 437.329 1.21057 -2.43017 0
M  V30 4612 C 435.785 -1.18949 -3.39675 0
M  V30 4613 C 435.393 -2.68921 -3.58309 0
M  V30 4614 C 437.137 -0.94642 -4.13815 0
M  V30 4615 C 435.044 -3.12056 -5.0237 0
M  V30 4616 H 433.974 -0.255595 -0.709357 0
M  V30 4617 H 436.625 -1.22349 -1.36759 0
M  V30 4618 H 435.007 -0.587228 -3.91622 0
M  V30 4619 H 436.181 -3.34652 -3.16772 0
M  V30 4620 H 434.496 -2.91314 -2.97532 0
M  V30 4621 H 437.093 -1.24417 -5.20023 0
M  V30 4622 H 437.436 0.117219 -4.16135 0
M  V30 4623 H 437.969 -1.5118 -3.67953 0
M  V30 4624 H 434.708 -4.17674 -5.05202 0
M  V30 4625 H 434.228 -2.51041 -5.44737 0
M  V30 4626 H 435.907 -3.04403 -5.70918 0
M  V30 4627 N 436.039 1.36541 -0.78704 0
M  V30 4628 C 437.288 1.98552 -0.35494 0
M  V30 4629 C 437.601 1.63171 1.07864 0
M  V30 4630 O 438.807 2.18399 1.61289 0
M  V30 4631 C 437.263 3.55136 -0.583671 0
M  V30 4632 C 436.871 3.99444 -2.02851 0
M  V30 4633 C 438.615 4.2395 -0.215957 0
M  V30 4634 C 436.522 5.48796 -2.20403 0
M  V30 4635 H 435.452 0.742888 -0.128972 0
M  V30 4636 H 438.103 1.5587 -0.968337 0
M  V30 4637 H 436.485 3.95875 0.0994046 0
M  V30 4638 H 437.659 3.6991 -2.74779 0
M  V30 4639 H 435.974 3.43459 -2.35425 0
M  V30 4640 H 438.571 5.33709 -0.325405 0
M  V30 4641 H 438.914 4.07827 0.835646 0
M  V30 4642 H 439.447 3.88565 -0.852175 0
M  V30 4643 H 436.186 5.69864 -3.23937 0
M  V30 4644 H 435.706 5.79964 -1.52977 0
M  V30 4645 H 437.385 6.14986 -2.01002 0
M  V30 4646 N 437.518 0.538854 1.48102 0
M  V30 4647 C 438.466 -0.232325 2.31437 0
M  V30 4648 C 439.46 -0.927004 1.41785 0
M  V30 4649 O 440.666 -0.850378 1.58646 0
M  V30 4650 H 437.041 -0.0937916 0.746128 0
M  V30 4651 H 439.012 0.489986 2.9435 0
M  V30 4652 C 437.761 -1.26074 3.24038 0
M  V30 4653 H 437.084 -0.735609 3.92974 0
M  V30 4654 H 438.524 -1.77157 3.85216 0
M  V30 4655 C 436.983 -2.29902 2.46265 0
M  V30 4656 O 437.513 -3.36502 2.19384 0
M  V30 4657 N 435.719 -2.03348 2.07601 0
M  V30 4658 H 435.266 -1.16675 2.29662 0
M  V30 4659 H 435.224 -2.73038 1.55877 0
M  V30 4660 N 438.996 -1.55193 0.274407 0
M  V30 4661 C 440.407 -1.85358 -0.223488 0
M  V30 4662 C 440.758 -1.19642 -1.555 0
M  V30 4663 O 439.883 -0.484498 -2.10907 0
M  V30 4664 C 440.478 -3.36282 -0.412285 0
M  V30 4665 C 439.037 -3.66574 -0.854413 0
M  V30 4666 C 438.184 -2.7725 0.0527056 0
M  V30 4667 H 441.135 -1.50743 0.496215 0
M  V30 4668 H 441.156 -3.59349 -1.25094 0
M  V30 4669 H 440.668 -3.84083 0.556965 0
M  V30 4670 H 438.769 -3.24273 -1.83516 0
M  V30 4671 H 438.882 -4.74073 -0.692226 0
M  V30 4672 H 437.246 -2.50447 -0.463484 0
M  V30 4673 H 438.029 -3.27865 1.01783 0
M  V30 4674 N 440.474 -0.00167713 -1.576 0
M  V30 4675 C 441.72 0.683832 -1.90923 0
M  V30 4676 C 442.053 1.7333 -0.875799 0
M  V30 4677 O 441.328 1.94215 0.10525 0
M  V30 4678 C 441.611 1.32543 -3.3482 0
M  V30 4679 C 441.464 0.287387 -4.48881 0
M  V30 4680 C 442.783 2.25114 -3.78169 0
M  V30 4681 H 439.902 0.247125 -0.694333 0
M  V30 4682 H 442.544 -0.0533149 -1.89925 0
M  V30 4683 H 440.694 1.95372 -3.35801 0
M  V30 4684 H 442.366 -0.341346 -4.60035 0
M  V30 4685 H 440.609 -0.39017 -4.32042 0
M  V30 4686 H 441.28 0.775393 -5.46527 0
M  V30 4687 H 443.756 1.723 -3.7875 0
M  V30 4688 H 442.632 2.66971 -4.79602 0
M  V30 4689 H 442.893 3.13092 -3.12131 0
M  V30 4690 N 441.952 1.55251 0.271103 0
M  V30 4691 C 443.201 1.75151 1.00025 0
M  V30 4692 C 443.514 0.561041 1.87381 0
M  V30 4693 O 444.72 0.642506 2.63788 0
M  V30 4694 C 443.176 3.09999 1.82835 0
M  V30 4695 C 442.784 4.3662 1.00336 0
M  V30 4696 C 444.528 3.39249 2.55168 0
M  V30 4697 C 442.435 5.62506 1.82595 0
M  V30 4698 H 441.365 0.652877 0.377183 0
M  V30 4699 H 444.016 1.81708 0.255843 0
M  V30 4700 H 442.398 2.97485 2.61378 0
M  V30 4701 H 443.572 4.60055 0.261959 0
M  V30 4702 H 441.887 4.14527 0.394486 0
M  V30 4703 H 444.484 4.3051 3.1712 0
M  V30 4704 H 444.827 2.59467 3.2555 0
M  V30 4705 H 445.36 3.52869 1.83653 0
M  V30 4706 H 442.099 6.45041 1.16631 0
M  V30 4707 H 441.619 5.43211 2.54327 0
M  V30 4708 H 443.298 6.00875 2.39913 0
M  V30 4709 N 443.43 -0.535701 1.48216 0
M  V30 4710 C 444.66 -1.3148 1.59363 0
M  V30 4711 C 445.068 -1.8753 0.250844 0
M  V30 4712 O 444.411 -1.66821 -0.769174 0
M  V30 4713 C 444.473 -2.50731 2.57632 0
M  V30 4714 C 444.137 -2.15811 4.02833 0
M  V30 4715 C 445.134 -1.71822 4.90686 0
M  V30 4716 C 442.819 -2.26509 4.48329 0
M  V30 4717 C 444.813 -1.3899 6.22062 0
M  V30 4718 C 442.5 -1.93289 5.79726 0
M  V30 4719 C 443.498 -1.49599 6.66415 0
M  V30 4720 O 443.186 -1.16812 7.95368 0
M  V30 4721 H 442.918 -0.406315 0.540263 0
M  V30 4722 H 445.472 -0.653569 1.94725 0
M  V30 4723 H 443.702 -3.19817 2.1738 0
M  V30 4724 H 445.391 -3.12797 2.58675 0
M  V30 4725 H 446.157 -1.63031 4.56778 0
M  V30 4726 H 442.036 -2.59471 3.81045 0
M  V30 4727 H 445.58 -1.04816 6.89681 0
M  V30 4728 H 441.477 -2.01718 6.13172 0
M  V30 4729 H 442.245 -1.30259 8.08069 0
M  V30 4730 N 444.908 -1.36708 -0.784132 0
M  V30 4731 C 445.871 -1.31307 -1.87859 0
M  V30 4732 C 446.871 -0.219654 -1.59293 0
M  V30 4733 O 448.061 -0.47476 -1.67606 0
M  V30 4734 C 445.193 -1.03679 -3.24751 0
M  V30 4735 H 446.386 -2.28647 -1.94064 0
M  V30 4736 H 443.939 -1.21558 -0.98252 0
M  V30 4737 H 444.674 -0.0681936 -3.24228 0
M  V30 4738 H 444.459 -1.82811 -3.46876 0
M  V30 4739 H 445.949 -1.02518 -4.04821 0
M  V30 4740 N 446.386 1.0089 -1.21074 0
M  V30 4741 C 447.633 1.74607 -1.0256 0
M  V30 4742 C 447.961 1.89426 0.44136 0
M  V30 4743 O 447.216 1.42266 1.34384 0
M  V30 4744 C 447.515 3.16335 -1.66334 0
M  V30 4745 C 447.181 3.21474 -3.16173 0
M  V30 4746 C 445.843 3.22583 -3.57062 0
M  V30 4747 C 448.195 3.19025 -4.12156 0
M  V30 4748 C 445.523 3.18925 -4.92446 0
M  V30 4749 C 447.875 3.16909 -5.47496 0
M  V30 4750 C 446.539 3.16326 -5.87787 0
M  V30 4751 H 445.809 0.638933 -0.375294 0
M  V30 4752 H 448.456 1.18274 -1.50611 0
M  V30 4753 H 446.761 3.75876 -1.10566 0
M  V30 4754 H 448.458 3.72083 -1.49516 0
M  V30 4755 H 445.048 3.2135 -2.83605 0
M  V30 4756 H 449.232 3.17332 -3.81595 0
M  V30 4757 H 444.488 3.16809 -5.22917 0
M  V30 4758 H 448.662 3.13968 -6.21609 0
M  V30 4759 H 446.289 3.13246 -6.92662 0
M  V30 4760 N 447.864 1.01787 1.20321 0
M  V30 4761 C 449.28 0.732951 1.41774 0
M  V30 4762 C 449.48 -0.686883 1.89431 0
M  V30 4763 O 448.536 -1.45446 2.06402 0
M  V30 4764 C 449.849 1.75973 2.43832 0
M  V30 4765 C 451.397 1.77802 2.57596 0
M  V30 4766 C 451.872 2.7941 3.62897 0
M  V30 4767 N 453.363 2.78157 3.70382 0
M  V30 4768 C 454.098 3.53434 4.51521 0
M  V30 4769 N 453.594 4.38392 5.36455 0
M  V30 4770 N 455.387 3.42026 4.46066 0
M  V30 4771 H 447.538 1.93447 0.877035 0
M  V30 4772 H 449.801 0.835712 0.447536 0
M  V30 4773 H 449.507 2.77699 2.15815 0
M  V30 4774 H 449.381 1.57292 3.4284 0
M  V30 4775 H 451.768 0.767602 2.84942 0
M  V30 4776 H 451.849 2.00557 1.58779 0
M  V30 4777 H 451.493 3.80616 3.36295 0
M  V30 4778 H 451.423 2.53916 4.61339 0
M  V30 4779 H 453.914 2.16531 3.09714 0
M  V30 4780 H 454.227 4.92596 5.95457 0
M  V30 4781 H 452.572 4.4247 5.35953 0
M  V30 4782 H 455.763 2.75075 3.78749 0
M  V30 4783 H 455.936 4.00946 5.09064 0
M  V30 4784 N 449.342 -1.36122 0.79427 0
M  V30 4785 C 450.29 -2.31871 0.184023 0
M  V30 4786 C 451.284 -1.56041 -0.659365 0
M  V30 4787 O 452.49 -1.71266 -0.553906 0
M  V30 4788 H 448.865 -0.750896 0.0407373 0
M  V30 4789 H 450.836 -2.80898 1.00693 0
M  V30 4790 C 449.585 -3.41324 -0.662813 0
M  V30 4791 H 448.908 -3.99793 -0.0231944 0
M  V30 4792 H 450.348 -4.10629 -1.05639 0
M  V30 4793 C 448.807 -2.83308 -1.82313 0
M  V30 4794 O 449.337 -2.75863 -2.91997 0
M  V30 4795 N 447.543 -2.40529 -1.63077 0
M  V30 4796 H 447.09 -2.46785 -0.738591 0
M  V30 4797 H 447.048 -2.02059 -2.40872 0
M  V30 4798 N 450.82 -0.546701 -1.47814 0
M  V30 4799 C 451.752 0.244196 -2.27895 0
M  V30 4800 C 452.765 0.88911 -1.36377 0
M  V30 4801 O 453.954 0.764733 -1.61289 0
M  V30 4802 C 451.054 1.36252 -3.10304 0
M  V30 4803 C 450.227 0.816382 -4.29714 0
M  V30 4804 C 449.286 1.81789 -4.93801 0
M  V30 4805 O 448.312 1.36818 -5.52512 0
M  V30 4806 N 449.514 3.15085 -4.87547 0
M  V30 4807 H 452.279 -0.442694 -2.96412 0
M  V30 4808 H 449.84 -0.382095 -1.57327 0
M  V30 4809 H 451.832 2.03102 -3.50045 0
M  V30 4810 H 450.402 1.95281 -2.44099 0
M  V30 4811 H 449.622 -0.0285981 -3.9419 0
M  V30 4812 H 450.91 0.430668 -5.06974 0
M  V30 4813 H 450.308 3.54275 -4.41028 0
M  V30 4814 H 448.865 3.77522 -5.31339 0
M  V30 4815 N 452.299 1.55045 -0.282633 0
M  V30 4816 C 453.209 2.26491 0.61147 0
M  V30 4817 C 454.225 1.29348 1.16384 0
M  V30 4818 O 455.401 1.62298 1.19253 0
M  V30 4819 C 452.466 2.97779 1.77563 0
M  V30 4820 C 451.527 4.10418 1.25919 0
M  V30 4821 C 450.76 4.78297 2.36786 0
M  V30 4822 O 450.983 4.45426 3.56303 0
M  V30 4823 O 449.917 5.66089 2.04517 0
M  V30 4824 H 453.743 3.03683 0.0324615 0
M  V30 4825 H 451.328 1.49317 -0.0497576 0
M  V30 4826 H 453.21 3.42554 2.45427 0
M  V30 4827 H 451.885 2.23498 2.34159 0
M  V30 4828 H 450.792 3.70082 0.546797 0
M  V30 4829 H 452.125 4.86622 0.738887 0
M  V30 4830 N 453.777 0.010035 1.57597 0
M  V30 4831 C 455.026 -0.671945 1.90178 0
M  V30 4832 C 455.339 -1.74376 0.886131 0
M  V30 4833 O 456.545 -2.48107 1.10252 0
M  V30 4834 C 455.001 -1.24636 3.3763 0
M  V30 4835 C 454.609 -0.208838 4.47513 0
M  V30 4836 C 456.353 -1.90595 3.79307 0
M  V30 4837 C 454.26 -0.793814 5.86048 0
M  V30 4838 H 453.19 -0.25474 0.709665 0
M  V30 4839 H 455.841 0.0722206 1.83358 0
M  V30 4840 H 454.223 -2.04152 3.3932 0
M  V30 4841 H 455.397 0.562463 4.57354 0
M  V30 4842 H 453.712 0.350889 4.14919 0
M  V30 4843 H 456.309 -2.35284 4.80151 0
M  V30 4844 H 456.652 -2.74074 3.13352 0
M  V30 4845 H 457.185 -1.17798 3.79958 0
M  V30 4846 H 453.924 0.00240855 6.555 0
M  V30 4847 H 453.444 -1.53404 5.79851 0
M  V30 4848 H 455.123 -1.2894 6.34022 0
M  V30 4849 N 455.255 -1.55392 -0.262866 0
M  V30 4850 C 456.187 -1.85392 -1.34768 0
M  V30 4851 C 457.2 -0.739069 -1.45057 0
M  V30 4852 O 458.389 -1.01703 -1.46693 0
M  V30 4853 C 455.489 -2.01088 -2.72795 0
M  V30 4854 C 454.662 -3.31828 -2.84972 0
M  V30 4855 C 453.721 -3.37464 -4.03738 0
M  V30 4856 O 452.747 -4.10778 -3.94018 0
M  V30 4857 N 453.949 -2.65599 -5.16176 0
M  V30 4858 H 456.714 -2.79029 -1.09375 0
M  V30 4859 H 454.275 -1.55434 -0.452981 0
M  V30 4860 H 456.267 -2.02217 -3.50557 0
M  V30 4861 H 454.837 -1.1427 -2.90966 0
M  V30 4862 H 454.057 -3.43152 -1.94012 0
M  V30 4863 H 455.345 -4.18032 -2.90045 0
M  V30 4864 H 454.743 -2.05736 -5.26962 0
M  V30 4865 H 453.3 -2.72439 -5.92132 0
M  V30 4866 N 456.733 0.527833 -1.48498 0
M  V30 4867 C 457.68 1.6322 -1.6318 0
M  V30 4868 C 458.65 1.59199 -0.473815 0
M  V30 4869 O 459.835 1.77591 -0.697563 0
M  V30 4870 C 456.975 3.01474 -1.67951 0
M  V30 4871 C 456.088 3.15713 -2.94871 0
M  V30 4872 C 455.223 4.44539 -2.90789 0
M  V30 4873 C 454.262 4.52315 -4.12404 0
M  V30 4874 N 453.399 5.72533 -4.06387 0
M  V30 4875 H 458.239 1.50011 -2.57489 0
M  V30 4876 H 455.776 0.730298 -1.27691 0
M  V30 4877 H 457.734 3.81572 -1.68698 0
M  V30 4878 H 456.364 3.1345 -0.771306 0
M  V30 4879 H 455.416 2.28854 -3.03859 0
M  V30 4880 H 456.728 3.1732 -3.8485 0
M  V30 4881 H 455.882 5.3293 -2.89949 0
M  V30 4882 H 454.621 4.45457 -1.98542 0
M  V30 4883 H 453.626 3.62331 -4.13517 0
M  V30 4884 H 454.851 4.53134 -5.05812 0
M  V30 4885 H 452.797 5.74344 -3.16962 0
M  V30 4886 H 452.714 5.75643 -4.90073 0
M  V30 4887 H 453.982 6.63204 -4.0961 0
M  V30 4888 N 458.211 1.37122 0.776871 0
M  V30 4889 C 459.174 1.32301 1.8716 0
M  V30 4890 C 460.174 0.228099 1.59174 0
M  V30 4891 O 461.364 0.483642 1.67352 0
M  V30 4892 C 458.496 1.054 3.24197 0
M  V30 4893 H 459.689 2.29673 1.92848 0
M  V30 4894 H 457.242 1.22077 0.97606 0
M  V30 4895 H 457.977 0.0853872 3.24188 0
M  V30 4896 H 457.762 1.84648 3.45901 0
M  V30 4897 H 459.252 1.04664 4.04271 0
M  V30 4898 N 459.689 -1.00246 1.21608 0
M  V30 4899 C 460.619 -2.10921 1.00172 0
M  V30 4900 C 461.6 -1.69938 -0.0741587 0
M  V30 4901 O 462.785 -1.94009 0.0861753 0
M  V30 4902 C 459.915 -3.42618 0.568355 0
M  V30 4903 C 458.869 -3.97407 1.58909 0
M  V30 4904 C 458.195 -5.25038 1.01187 0
M  V30 4905 C 459.495 -4.2918 2.97661 0
M  V30 4906 H 461.189 -2.29112 1.92739 0
M  V30 4907 H 458.735 -1.10101 0.928102 0
M  V30 4908 H 460.688 -4.19444 0.405555 0
M  V30 4909 H 459.412 -3.24227 -0.392961 0
M  V30 4910 H 458.071 -3.22703 1.73949 0
M  V30 4911 H 457.719 -5.02982 0.0421965 0
M  V30 4912 H 457.419 -5.62661 1.6937 0
M  V30 4913 H 458.943 -6.04507 0.860448 0
M  V30 4914 H 460.357 -4.96839 2.86049 0
M  V30 4915 H 458.754 -4.77952 3.6288 0
M  V30 4916 H 459.824 -3.3735 3.48315 0
M  V30 4917 N 461.167 -1.02423 -1.1978 0
M  V30 4918 C 462.407 -0.726635 -1.91048 0
M  V30 4919 C 462.771 0.730947 -1.77542 0
M  V30 4920 O 463.972 1.14141 -2.43362 0
M  V30 4921 C 462.243 -1.15964 -3.38064 0
M  V30 4922 S 463.802 -0.985172 -4.27598 0
M  V30 4923 H 460.62 -0.264679 -0.659899 0
M  V30 4924 H 463.222 -1.31309 -1.44838 0
M  V30 4925 H 461.926 -2.21619 -3.45417 0
M  V30 4926 H 461.457 -0.566274 -3.89303 0
M  V30 4927 H 463.472 0.106946 -4.96085 0
M  V30 4928 N 462.645 1.35699 -0.801477 0
M  V30 4929 C 463.575 2.32436 -0.222658 0
M  V30 4930 C 464.556 1.5723 0.649057 0
M  V30 4931 O 465.741 1.85324 0.580387 0
M  V30 4932 C 462.871 3.41469 0.633719 0
M  V30 4933 C 461.825 4.27774 -0.139083 0
M  V30 4934 C 461.151 5.28082 0.838666 0
M  V30 4935 C 462.451 5.04946 -1.33517 0
M  V30 4936 H 464.145 2.81094 -1.03086 0
M  V30 4937 H 461.691 1.35146 -0.497155 0
M  V30 4938 H 463.644 4.08143 1.04868 0
M  V30 4939 H 462.368 2.91408 1.47475 0
M  V30 4940 H 461.027 3.62673 -0.535156 0
M  V30 4941 H 460.675 4.7429 1.67506 0
M  V30 4942 H 460.375 5.86695 0.32594 0
M  V30 4943 H 461.899 5.97628 1.25194 0
M  V30 4944 H 463.313 5.64593 -0.995349 0
M  V30 4945 H 461.71 5.7303 -1.78202 0
M  V30 4946 H 462.78 4.35886 -2.12442 0
M  V30 4947 N 464.123 0.554532 1.47522 0
M  V30 4948 C 465.372 0.0273458 2.01681 0
M  V30 4949 C 465.685 -1.32962 1.43459 0
M  V30 4950 O 466.891 -1.94657 1.89265 0
M  V30 4951 C 465.347 -0.00159057 3.599 0
M  V30 4952 C 464.955 1.35197 4.27113 0
M  V30 4953 C 466.699 -0.476311 4.21819 0
M  V30 4954 C 464.606 1.28229 5.77331 0
M  V30 4955 H 463.536 0.00645269 0.753972 0
M  V30 4956 H 466.187 0.701985 1.69542 0
M  V30 4957 H 464.569 -0.741821 3.8899 0
M  V30 4958 H 465.743 2.1097 4.09668 0
M  V30 4959 H 464.058 1.76441 3.77171 0
M  V30 4960 H 466.655 -0.5468 5.31897 0
M  V30 4961 H 466.998 -1.4877 3.8881 0
M  V30 4962 H 467.531 0.20898 3.97251 0
M  V30 4963 H 464.27 2.26959 6.14955 0
M  V30 4964 H 463.79 0.566314 5.97121 0
M  V30 4965 H 465.469 0.983226 6.39485 0
M  V30 4966 N 465.601 -1.54893 0.290851 0
M  V30 4967 C 466.841 -2.01842 -0.322388 0
M  V30 4968 C 467.205 -1.17477 -1.51865 0
M  V30 4969 O 468.406 -1.54077 -2.20258 0
M  V30 4970 C 466.677 -3.50874 -0.679844 0
M  V30 4971 S 468.236 -4.19796 -1.27739 0
M  V30 4972 H 465.054 -0.704005 -0.0994866 0
M  V30 4973 H 467.656 -1.91015 0.416358 0
M  V30 4974 H 466.36 -4.09915 0.199435 0
M  V30 4975 H 465.891 -3.65717 -1.44964 0
M  V30 4976 H 467.906 -4.24729 -2.56554 0
M  V30 4977 N 467.08 -0.0183926 -1.57589 0
M  V30 4978 C 468.32 0.666846 -1.93216 0
M  V30 4979 C 468.684 1.69905 -0.894215 0
M  V30 4980 O 469.885 2.436 -1.13633 0
M  V30 4981 C 468.156 1.27684 -3.33814 0
M  V30 4982 S 469.715 1.98464 -3.91353 0
M  V30 4983 H 466.533 0.219826 -0.676164 0
M  V30 4984 H 469.135 -0.0794893 -1.95338 0
M  V30 4985 H 467.839 0.513006 -4.07181 0
M  V30 4986 H 467.37 2.06071 -3.3511 0
M  V30 4987 H 469.385 3.26189 -3.73918 0
M  V30 4988 N 468.558 1.5553 0.254621 0
M  V30 4989 C 469.806 1.7665 0.981793 0
M  V30 4990 C 470.127 0.580963 1.86145 0
M  V30 4991 O 469.397 -0.403537 1.91699 0
M  V30 4992 H 467.977 0.651475 0.365498 0
M  V30 4993 H 470.639 1.92958 0.274426 0
M  V30 4994 H 469.735 2.67486 1.60802 0
M  V30 4995 N 470.036 -0.519951 1.48776 0
M  V30 4996 C 471.276 -1.2856 1.58908 0
M  V30 4997 C 471.64 -1.90212 0.261418 0
M  V30 4998 O 472.841 -2.67746 0.237791 0
M  V30 4999 C 471.112 -2.33836 2.70288 0
M  V30 5000 S 472.671 -3.19992 3.0025 0
M  V30 5001 H 469.489 -0.43717 0.560717 0
M  V30 5002 H 472.091 -0.591205 1.86346 0
M  V30 5003 H 470.795 -1.87041 3.653 0
M  V30 5004 H 470.326 -3.07969 2.44783 0
M  V30 5005 H 472.341 -4.34122 2.40317 0
M  V30 5006 N 471.514 -1.37532 -0.769588 0
M  V30 5007 C 472.763 -1.32183 -1.5235 0
M  V30 5008 C 473.076 0.0906555 -1.9539 0
M  V30 5009 O 474.282 0.266628 -2.70188 0
M  V30 5010 C 472.738 -2.32029 -2.75119 0
M  V30 5011 C 472.346 -3.78816 -2.3917 0
M  V30 5012 C 474.09 -2.35694 -3.53056 0
M  V30 5013 C 471.997 -4.70388 -3.58453 0
M  V30 5014 H 470.927 -0.491275 -0.571984 0
M  V30 5015 H 473.578 -1.63004 -0.842739 0
M  V30 5016 H 471.96 -1.94229 -3.45096 0
M  V30 5017 H 473.134 -4.25466 -1.76962 0
M  V30 5018 H 471.449 -3.78117 -1.74402 0
M  V30 5019 H 474.046 -3.01312 -4.41718 0
M  V30 5020 H 474.389 -1.37117 -3.93071 0
M  V30 5021 H 474.922 -2.72212 -2.90078 0
M  V30 5022 H 471.661 -5.70102 -3.23518 0
M  V30 5023 H 471.181 -4.28442 -4.19758 0
M  V30 5024 H 472.86 -4.87628 -4.25239 0
M  V30 5025 N 472.992 0.995999 -1.22138 0
M  V30 5026 C 474.403 1.54961 -1.04135 0
M  V30 5027 C 474.754 1.92159 0.396147 0
M  V30 5028 O 473.879 1.74435 1.28069 0
M  V30 5029 C 474.474 2.81581 -1.88408 0
M  V30 5030 C 473.033 3.33396 -1.74712 0
M  V30 5031 C 472.18 2.06509 -1.85066 0
M  V30 5032 H 475.131 0.817436 -1.36028 0
M  V30 5033 H 475.152 3.53822 -1.39966 0
M  V30 5034 H 474.664 2.54476 -2.93025 0
M  V30 5035 H 472.765 3.65416 -0.728159 0
M  V30 5036 H 472.878 4.04208 -2.57202 0
M  V30 5037 H 471.242 2.19925 -1.28472 0
M  V30 5038 H 472.025 1.81804 -2.91208 0
M  V30 5039 N 474.47 1.03057 1.19235 0
M  V30 5040 C 475.695 0.74757 1.93458 0
M  V30 5041 C 476.12 -0.687648 1.7508 0
M  V30 5042 O 475.478 -1.47499 1.05422 0
M  V30 5043 C 475.526 1.10604 3.43219 0
M  V30 5044 O 474.63 0.225671 4.11782 0
M  V30 5045 H 473.971 0.276047 0.603899 0
M  V30 5046 H 476.501 1.3777 1.51263 0
M  V30 5047 H 476.511 1.06366 3.93891 0
M  V30 5048 H 475.186 2.15165 3.55917 0
M  V30 5049 H 473.763 0.326795 3.71465 0
M  V30 5050 N 475.948 -1.35272 0.808662 0
M  V30 5051 C 477.173 -2.03477 0.401475 0
M  V30 5052 C 477.598 -1.60537 -0.980279 0
M  V30 5053 O 476.956 -0.78304 -1.63518 0
M  V30 5054 C 477.004 -3.57181 0.495354 0
M  V30 5055 O 476.108 -4.09474 -0.490397 0
M  V30 5056 H 475.449 -0.642561 0.167366 0
M  V30 5057 H 477.979 -1.72824 1.09512 0
M  V30 5058 H 477.989 -4.06356 0.365912 0
M  V30 5059 H 476.664 -3.87784 1.5032 0
M  V30 5060 H 475.241 -3.71516 -0.321023 0
M  V30 5061 N 477.426 -0.562348 -1.47226 0
M  V30 5062 C 478.356 0.170627 -2.32876 0
M  V30 5063 C 479.337 0.903748 -1.44106 0
M  V30 5064 O 480.522 0.883206 -1.72954 0
M  V30 5065 C 477.652 1.19786 -3.25989 0
M  V30 5066 C 476.606 0.580875 -4.2404 0
M  V30 5067 C 475.932 1.71311 -5.06514 0
M  V30 5068 C 477.232 -0.468714 -5.20193 0
M  V30 5069 H 478.926 -0.544441 -2.94408 0
M  V30 5070 H 476.472 -0.263271 -1.41573 0
M  V30 5071 H 478.425 1.71884 -3.84752 0
M  V30 5072 H 477.149 1.94294 -2.62521 0
M  V30 5073 H 475.808 0.0811538 -3.6651 0
M  V30 5074 H 475.456 2.44736 -4.39447 0
M  V30 5075 H 475.156 1.30604 -5.72902 0
M  V30 5076 H 476.68 2.23725 -5.68137 0
M  V30 5077 H 478.094 -0.0336028 -5.7329 0
M  V30 5078 H 476.491 -0.794957 -5.94811 0
M  V30 5079 H 477.561 -1.36269 -4.65359 0
M  V30 5080 N 478.904 1.54736 -0.299062 0
M  V30 5081 C 479.867 2.22127 0.565012 0
M  V30 5082 C 480.867 1.20669 1.06281 0
M  V30 5083 O 482.057 1.45417 0.959145 0
M  V30 5084 C 479.189 2.90611 1.78208 0
M  V30 5085 H 480.382 2.99891 -0.0237448 0
M  V30 5086 H 477.935 1.5622 -0.0498788 0
M  V30 5087 H 478.67 2.16921 2.41072 0
M  V30 5088 H 478.455 3.64984 1.43281 0
M  V30 5089 H 479.945 3.42026 2.396 0
M  V30 5090 N 480.382 0.0267497 1.57577 0
M  V30 5091 C 481.314 -0.984594 2.06974 0
M  V30 5092 C 482.327 -1.29032 0.992705 0
M  V30 5093 O 483.516 -1.25539 1.26895 0
M  V30 5094 C 480.616 -2.31262 2.47732 0
M  V30 5095 C 479.789 -2.1924 3.78487 0
M  V30 5096 C 478.848 -3.34956 4.05821 0
M  V30 5097 O 477.874 -3.11948 4.76106 0
M  V30 5098 N 479.076 -4.58672 3.55809 0
M  V30 5099 H 481.841 -0.563143 2.94362 0
M  V30 5100 H 479.402 -0.160061 1.61107 0
M  V30 5101 H 481.394 -3.07496 2.63112 0
M  V30 5102 H 479.964 -2.65056 1.65723 0
M  V30 5103 H 479.184 -1.27747 3.72927 0
M  V30 5104 H 480.472 -2.08409 4.64158 0
M  V30 5105 H 479.87 -4.8026 2.98942 0
M  V30 5106 H 478.427 -5.32083 3.76472 0
M  V30 5107 N 481.861 -1.55662 -0.24637 0
M  V30 5108 C 483.277 -1.48098 -0.594907 0
M  V30 5109 C 483.477 -0.717044 -1.8831 0
M  V30 5110 O 482.533 -0.246618 -2.51293 0
M  V30 5111 C 483.846 -2.92507 -0.697146 0
M  V30 5112 C 485.394 -3.02881 -0.789436 0
M  V30 5113 C 485.869 -4.48598 -0.923232 0
M  V30 5114 N 487.36 -4.52538 -0.988088 0
M  V30 5115 C 488.095 -5.62536 -1.11089 0
M  V30 5116 N 487.591 -6.82342 -1.19919 0
M  V30 5117 N 489.384 -5.50334 -1.14408 0
M  V30 5118 H 481.535 -2.0377 0.599278 0
M  V30 5119 H 483.798 -0.925145 0.20691 0
M  V30 5120 H 483.504 -3.51242 0.179396 0
M  V30 5121 H 483.378 -3.43024 -1.5689 0
M  V30 5122 H 485.765 -2.44226 -1.65643 0
M  V30 5123 H 485.846 -2.55574 0.107482 0
M  V30 5124 H 485.49 -5.07864 -0.0607927 0
M  V30 5125 H 485.42 -4.93587 -1.8352 0
M  V30 5126 H 487.911 -3.66248 -0.931167 0
M  V30 5127 H 488.224 -7.61924 -1.29197 0
M  V30 5128 H 486.569 -6.85102 -1.16876 0
M  V30 5129 H 489.76 -4.5567 -1.07158 0
M  V30 5130 H 489.933 -6.36096 -1.23634 0
M  V30 5131 N 483.339 0.512053 -1.4905 0
M  V30 5132 C 484.302 1.59704 -1.64399 0
M  V30 5133 C 485.302 1.52285 -0.516317 0
M  V30 5134 O 486.492 1.55635 -0.782527 0
M  V30 5135 C 483.624 2.9935 -1.63102 0
M  V30 5136 H 484.817 1.47428 -2.61161 0
M  V30 5137 H 482.37 0.735469 -1.37915 0
M  V30 5138 H 483.105 3.17116 -0.678836 0
M  V30 5139 H 482.89 3.06144 -2.44986 0
M  V30 5140 H 484.38 3.782 -1.77072 0
M  V30 5141 N 484.817 1.37938 0.762283 0
M  V30 5142 C 486.233 1.18945 1.06415 0
M  V30 5143 C 486.433 0.0321163 2.01474 0
M  V30 5144 O 485.489 -0.624844 2.44647 0
M  V30 5145 C 486.802 2.51218 1.65258 0
M  V30 5146 C 488.35 2.57824 1.7747 0
M  V30 5147 C 488.825 3.90251 2.39725 0
M  V30 5148 N 490.316 3.91744 2.47166 0
M  V30 5149 C 491.051 4.90966 2.96209 0
M  V30 5150 N 490.547 6.00585 3.45354 0
M  V30 5151 N 492.34 4.78363 2.9517 0
M  V30 5152 H 484.491 2.11994 0.131301 0
M  V30 5153 H 486.754 0.940262 0.120879 0
M  V30 5154 H 486.46 3.36317 1.02878 0
M  V30 5155 H 486.334 2.68989 2.64433 0
M  V30 5156 H 488.721 1.73126 2.3898 0
M  V30 5157 H 488.802 2.43928 0.770241 0
M  V30 5158 H 488.446 4.75368 1.78852 0
M  V30 5159 H 488.376 4.01454 3.40796 0
M  V30 5160 H 490.867 3.12563 2.12397 0
M  V30 5161 H 491.18 6.72236 3.81207 0
M  V30 5162 H 489.525 6.04217 3.43434 0
M  V30 5163 H 492.716 3.91841 2.56082 0
M  V30 5164 H 492.889 5.55843 3.33081 0
M  V30 5165 N 486.295 -0.989507 1.22664 0
M  V30 5166 C 487.52 -1.77031 1.08051 0
M  V30 5167 C 487.945 -1.84535 -0.364483 0
M  V30 5168 O 487.303 -1.3003 -1.2634 0
M  V30 5169 C 487.351 -3.18 1.70024 0
M  V30 5170 O 486.455 -4.01161 0.956216 0
M  V30 5171 H 485.796 -0.545008 0.379292 0
M  V30 5172 H 488.326 -1.24277 1.62531 0
M  V30 5173 H 488.336 -3.68616 1.74888 0
M  V30 5174 H 487.011 -3.11853 2.75174 0
M  V30 5175 H 485.588 -3.59687 0.98384 0
M  V30 5176 N 487.773 -1.03688 -1.18687 0
M  V30 5177 C 489.184 -0.766488 -1.70241 0
M  V30 5178 C 489.535 0.713052 -1.82784 0
M  V30 5179 O 488.66 1.55529 -1.50465 0
M  V30 5180 C 489.255 -1.38475 -3.09209 0
M  V30 5181 C 487.814 -1.16276 -3.5799 0
M  V30 5182 C 486.961 -1.4778 -2.34641 0
M  V30 5183 H 489.912 -1.20378 -1.03415 0
M  V30 5184 H 489.933 -0.785939 -3.72295 0
M  V30 5185 H 489.445 -2.46157 -3.00048 0
M  V30 5186 H 487.546 -0.104508 -3.72453 0
M  V30 5187 H 487.659 -1.8571 -4.41643 0
M  V30 5188 H 486.023 -0.897366 -2.38368 0
M  V30 5189 H 486.806 -2.56562 -2.28102 0
M  V30 5190 N 489.251 1.34841 -0.815825 0
M  V30 5191 C 490.476 2.03261 -0.41226 0
M  V30 5192 C 490.901 1.61055 0.971751 0
M  V30 5193 O 490.259 0.7917 1.63101 0
M  V30 5194 C 490.307 3.56914 -0.514289 0
M  V30 5195 O 489.411 4.09728 0.468675 0
M  V30 5196 H 488.752 0.641664 -0.170771 0
M  V30 5197 H 491.282 1.72241 -1.10427 0
M  V30 5198 H 491.292 4.06156 -0.387457 0
M  V30 5199 H 489.967 3.86982 -1.52375 0
M  V30 5200 H 488.544 3.71681 0.301316 0
M  V30 5201 N 490.729 0.570148 1.46925 0
M  V30 5202 C 492.006 -0.0153259 1.95594 0
M  V30 5203 C 492.386 -1.47232 1.51281 0
M  V30 5204 O 491.734 -2.15574 0.757624 0
M  V30 5205 C 491.944 0.143624 3.48704 0
M  V30 5206 C 493.292 0.00494484 4.246 0
M  V30 5207 O 494.316 0.0718214 3.56128 0
M  V30 5208 O 493.175 -0.141175 5.46318 0
M  V30 5209 H 490.269 -0.0568819 0.825041 0
M  V30 5210 H 492.815 0.637583 1.57267 0
M  V30 5211 H 491.587 1.15699 3.73804 0
M  V30 5212 H 491.21 -0.5463 3.93829 0
M  V30 5213 N 492.207 -1.54576 0.307264 0
M  V30 5214 C 493.453 -2.0056 -0.300612 0
M  V30 5215 C 493.786 -1.1953 -1.53057 0
M  V30 5216 O 493.061 -0.27337 -1.92569 0
M  V30 5217 C 493.344 -3.54167 -0.650987 0
M  V30 5218 C 493.197 -4.45933 0.588539 0
M  V30 5219 C 494.516 -4.14645 -1.47506 0
M  V30 5220 H 491.635 -0.729075 -0.107788 0
M  V30 5221 H 494.277 -1.85286 0.420606 0
M  V30 5222 H 492.427 -3.67313 -1.26544 0
M  V30 5223 H 494.099 -4.44683 1.22697 0
M  V30 5224 H 492.342 -4.16274 1.22058 0
M  V30 5225 H 493.013 -5.51189 0.299153 0
M  V30 5226 H 495.489 -4.04973 -0.955821 0
M  V30 5227 H 494.365 -5.22269 -1.68899 0
M  V30 5228 H 494.626 -3.66921 -2.4662 0
M  V30 5229 O 493.724 -0.174109 -1.60559 0
M  V30 5230 H 494.415 0.415114 -1.892 0
M  V30 END ATOM
M  V30 BEGIN BOND
M  V30 END BOND
M  V30 END CTAB
M  END
$$$$
