drugbank_target|P33121 Long-chain-fatty-acid--CoA ligase 1 (DB00131; DB00171)
 OpenBabel12092119363D

  0  0  0     0  0            999 V3000
M  V30 BEGIN CTAB
M  V30 COUNTS 10992 11114 0 0 0
M  V30 BEGIN ATOM
M  V30 1 H -0.908 1.98254 -0.117106 0
M  V30 2 N 0 1.576 0 0
M  V30 3 C 0.933 2.03868 1.02534 0
M  V30 4 C 1.911 0.928543 1.3348 0
M  V30 5 O 3.095 1.19667 1.45644 0
M  V30 6 C 0.222 2.43627 2.35294 0
M  V30 7 C -0.732 3.65373 2.2001 0
M  V30 8 S 0.101 5.13292 1.52614 0
M  V30 9 C 1.257 5.56322 2.86805 0
M  V30 10 H 1.49 2.90518 0.631377 0
M  V30 11 H -0.977 1.52953 0.210867 0
M  V30 12 H 0.981 2.67203 3.11629 0
M  V30 13 H -0.358 1.57376 2.7183 0
M  V30 14 H -1.165 3.90944 3.18086 0
M  V30 15 H -1.563 3.418 1.51819 0
M  V30 16 H 0.729 5.58782 3.83104 0
M  V30 17 H 1.672 6.56266 2.65933 0
M  V30 18 H 2.08 4.83886 2.90714 0
M  V30 19 N 1.4781 -0.272755 1.55222 0
M  V30 20 C 2.4101 -1.35946 1.8453 0
M  V30 21 C 3.4231 -1.45525 0.729818 0
M  V30 22 O 4.6121 -1.47337 1.00767 0
M  V30 23 C 1.7121 -2.74069 1.99347 0
M  V30 24 C 0.8851 -2.87079 3.30007 0
M  V30 25 C -0.0559 -4.05879 3.34886 0
M  V30 26 O -1.0299 -3.96626 4.08261 0
M  V30 27 N 0.1721 -5.17857 2.62307 0
M  V30 28 H 2.9371 -1.11149 2.78327 0
M  V30 29 H 0.4981 -0.462869 1.55142 0
M  V30 30 H 2.4901 -3.51838 1.99981 0
M  V30 31 H 1.0601 -2.91688 1.12415 0
M  V30 32 H 0.2801 -1.96193 3.41909 0
M  V30 33 H 1.5681 -2.92701 4.16177 0
M  V30 34 H 0.9661 -5.28261 2.02377 0
M  V30 35 H -0.4769 -5.93855 2.68663 0
M  V30 36 N 2.9562 -1.48159 -0.537278 0
M  V30 37 C 3.9192 -1.61665 -1.62472 0
M  V30 38 C 4.9192 -0.490395 -1.5314 0
M  V30 39 O 6.1092 -0.755998 -1.5694 0
M  V30 40 C 3.2412 -1.57997 -3.02076 0
M  V30 41 H 4.4342 -2.58621 -1.51839 0
M  V30 42 H 1.9872 -1.36647 -0.758771 0
M  V30 43 H 2.7222 -0.624913 -3.18222 0
M  V30 44 H 2.5072 -2.39755 -3.10258 0
M  V30 45 H 3.9972 -1.70627 -3.81151 0
M  V30 46 N 4.4343 0.785586 -1.36625 0
M  V30 47 C 5.3843 1.88822 -1.27789 0
M  V30 48 C 6.3683 1.60014 -0.168579 0
M  V30 49 O 7.5603 1.72381 -0.401737 0
M  V30 50 C 4.6893 3.26092 -1.07327 0
M  V30 51 C 3.7753 3.60897 -2.22743 0
M  V30 52 N 4.1663 3.66982 -3.48077 0
M  V30 53 C 2.4643 3.90981 -2.14593 0
M  V30 54 C 3.1653 3.98137 -4.24101 0
M  V30 55 N 2.1413 4.13319 -3.53084 0
M  V30 56 H 5.9433 1.91759 -2.22723 0
M  V30 57 H 3.4573 0.981311 -1.29399 0
M  V30 58 H 5.4543 4.04954 -0.990842 0
M  V30 59 H 4.1143 3.24428 -0.132977 0
M  V30 60 H 5.1253 3.49531 -3.82163 0
M  V30 61 H 1.8023 3.9722 -1.2854 0
M  V30 62 H 3.1923 4.09737 -5.32509 0
M  V30 63 N 5.9124 1.20967 1.01018 0
M  V30 64 C 6.8224 0.980157 2.13143 0
M  V30 65 C 7.8384 -0.0660665 1.73875 0
M  V30 66 O 9.0144 0.122821 2.01025 0
M  V30 67 C 6.0794 0.54216 3.42435 0
M  V30 68 C 5.1404 1.65999 3.95908 0
M  V30 69 C 4.3734 1.2428 5.19028 0
M  V30 70 O 4.5964 0.114196 5.70286 0
M  V30 71 O 3.5304 2.05271 5.65816 0
M  V30 72 H 7.3564 1.91913 2.35379 0
M  V30 73 H 4.9414 0.994099 1.11526 0
M  V30 74 H 6.8234 0.30744 4.20277 0
M  V30 75 H 5.4984 -0.36815 3.216 0
M  V30 76 H 4.4054 1.94906 3.19316 0
M  V30 77 H 5.7384 2.54753 4.21143 0
M  V30 78 N 7.3905 -1.2043 1.01659 0
M  V30 79 C 8.3205 -2.25466 0.607226 0
M  V30 80 C 9.3015 -1.65853 -0.377716 0
M  V30 81 O 10.4865 -1.92409 -0.263149 0
M  V30 82 C 7.6165 -3.47256 -0.0552949 0
M  V30 83 C 6.5705 -4.19462 0.850632 0
M  V30 84 C 5.8965 -5.34673 0.0538859 0
M  V30 85 C 7.1965 -4.75603 2.15868 0
M  V30 86 H 8.8905 -2.59962 1.48526 0
M  V30 87 H 6.4365 -1.2496 0.715605 0
M  V30 88 H 8.3895 -4.19917 -0.353233 0
M  V30 89 H 7.1135 -3.11924 -0.968045 0
M  V30 90 H 5.7725 -3.48667 1.13257 0
M  V30 91 H 5.4205 -4.95585 -0.860514 0
M  V30 92 H 5.1205 -5.83913 0.657192 0
M  V30 93 H 6.6445 -6.10138 -0.237598 0
M  V30 94 H 8.0585 -5.40083 1.92311 0
M  V30 95 H 6.4555 -5.3528 2.71284 0
M  V30 96 H 7.5255 -3.94346 2.82169 0
M  V30 97 N 8.8686 -0.792821 -1.36206 0
M  V30 98 C 10.1156 -0.366786 -1.99151 0
M  V30 99 C 10.4436 1.06243 -1.62919 0
M  V30 100 O 9.6986 1.74927 -0.877442 0
M  V30 101 C 9.9976 -0.481501 -3.54142 0
M  V30 102 C 9.6636 -1.87202 -4.10203 0
M  V30 103 C 8.3256 -2.25248 -4.25226 0
M  V30 104 C 10.6776 -2.78237 -4.40719 0
M  V30 105 C 8.0056 -3.53723 -4.68078 0
M  V30 106 C 10.3576 -4.06144 -4.85005 0
M  V30 107 C 9.0216 -4.44207 -4.98234 0
M  V30 108 H 8.2916 -0.134217 -0.728743 0
M  V30 109 H 10.9386 -1.01094 -1.62641 0
M  V30 110 H 9.2436 0.246146 -3.91026 0
M  V30 111 H 10.9406 -0.132844 -4.0078 0
M  V30 112 H 7.5306 -1.56639 -3.98951 0
M  V30 113 H 11.7146 -2.50097 -4.28679 0
M  V30 114 H 6.9706 -3.8308 -4.76508 0
M  V30 115 H 11.1446 -4.76796 -5.07581 0
M  V30 116 H 8.7716 -5.43814 -5.31197 0
M  V30 117 N 10.3467 1.47872 -0.545128 0
M  V30 118 C 11.7627 1.5829 -0.204032 0
M  V30 119 C 11.9627 1.54529 1.29317 0
M  V30 120 O 11.0187 1.44232 2.07252 0
M  V30 121 C 12.3317 2.89304 -0.819987 0
M  V30 122 C 13.8797 3.02864 -0.790105 0
M  V30 123 C 14.3547 4.3656 -1.38491 0
M  V30 124 N 15.8457 4.43165 -1.34755 0
M  V30 125 C 16.5807 5.45153 -1.77753 0
M  V30 126 N 16.0767 6.54016 -2.2855 0
M  V30 127 N 17.8697 5.36125 -1.68897 0
M  V30 128 H 10.0207 1.4856 -1.51802 0
M  V30 129 H 12.2837 0.706305 -0.632327 0
M  V30 130 H 11.9897 2.97757 -1.87173 0
M  V30 131 H 11.8637 3.75957 -0.305915 0
M  V30 132 H 14.2507 2.94014 0.252913 0
M  V30 133 H 14.3317 2.17782 -1.34181 0
M  V30 134 H 13.9757 4.46164 -2.42693 0
M  V30 135 H 13.9057 5.20353 -0.808754 0
M  V30 136 H 16.3967 3.65083 -0.975855 0
M  V30 137 H 16.7097 7.27994 -2.59314 0
M  V30 138 H 15.0547 6.54938 -2.32553 0
M  V30 139 H 18.2457 4.49975 -1.28998 0
M  V30 140 H 18.4187 6.15472 -2.02726 0
M  V30 141 N 11.8248 0.280983 1.55075 0
M  V30 142 C 13.0548 -0.336804 2.03836 0
M  V30 143 C 13.4628 -1.49577 1.15859 0
M  V30 144 O 12.8058 -1.82888 0.172503 0
M  V30 145 C 12.8678 -0.874616 3.48699 0
M  V30 146 C 12.5318 0.156478 4.56732 0
M  V30 147 C 13.5288 0.978032 5.10618 0
M  V30 148 C 11.2138 0.292409 5.01448 0
M  V30 149 C 13.2078 1.92165 6.07743 0
M  V30 150 C 10.8948 1.23949 5.98398 0
M  V30 151 C 11.8928 2.05261 6.51427 0
M  V30 152 O 11.5808 2.98367 7.4648 0
M  V30 153 H 11.3128 -0.0800885 0.671239 0
M  V30 154 H 13.8668 0.412589 2.01213 0
M  V30 155 H 12.0968 -1.67418 3.4858 0
M  V30 156 H 13.7858 -1.40612 3.80766 0
M  V30 157 H 14.5518 0.883782 4.7688 0
M  V30 158 H 10.4308 -0.330498 4.59814 0
M  V30 159 H 13.9748 2.55672 6.49059 0
M  V30 160 H 9.8718 1.33454 6.31554 0
M  V30 161 H 10.6398 2.93116 7.64215 0
M  V30 162 N 13.3029 -1.57598 0.00835791 0
M  V30 163 C 14.5499 -1.90928 -0.674732 0
M  V30 164 C 14.8779 -0.88277 -1.73313 0
M  V30 165 O 14.1329 0.111294 -1.95383 0
M  V30 166 C 14.4319 -3.3101 -1.34787 0
M  V30 167 C 14.0979 -4.48922 -0.421861 0
M  V30 168 C 12.7599 -4.8091 -0.166927 0
M  V30 169 C 15.1119 -5.20755 0.215211 0
M  V30 170 C 12.4399 -5.821 0.733232 0
M  V30 171 C 14.7919 -6.22905 1.1033 0
M  V30 172 C 13.4559 -6.53346 1.36733 0
M  V30 173 H 12.7259 -0.698656 -0.246902 0
M  V30 174 H 15.3729 -1.91387 0.0656779 0
M  V30 175 H 13.6779 -3.26714 -2.16253 0
M  V30 176 H 15.3749 -3.54061 -1.8826 0
M  V30 177 H 11.9649 -4.23934 -0.630729 0
M  V30 178 H 16.1489 -4.9629 0.0312829 0
M  V30 179 H 11.4049 -6.04042 0.945712 0
M  V30 180 H 15.5789 -6.77694 1.60325 0
M  V30 181 H 13.2059 -7.31573 2.06652 0
M  V30 182 N 14.781 0.264519 -1.55364 0
M  V30 183 C 16.197 0.61215 -1.47394 0
M  V30 184 C 16.397 1.89134 -0.695018 0
M  V30 185 O 15.453 2.51563 -0.217275 0
M  V30 186 C 16.766 0.731235 -2.91674 0
M  V30 187 C 18.314 0.82473 -3.01939 0
M  V30 188 C 18.789 0.975522 -4.4749 0
M  V30 189 N 20.28 1.04083 -4.51354 0
M  V30 190 C 21.015 1.17646 -5.61201 0
M  V30 191 N 20.511 1.27874 -6.80896 0
M  V30 192 N 22.304 1.20823 -5.48961 0
M  V30 193 H 14.455 -0.575456 -2.04456 0
M  V30 194 H 16.718 -0.196099 -0.927496 0
M  V30 195 H 16.424 -0.138392 -3.51428 0
M  V30 196 H 16.298 1.60883 -3.41169 0
M  V30 197 H 18.685 1.68482 -2.42276 0
M  V30 198 H 18.766 -0.0776479 -2.55682 0
M  V30 199 H 18.41 0.120058 -5.07758 0
M  V30 200 H 18.34 1.89268 -4.91412 0
M  V30 201 H 20.831 0.973846 -3.65136 0
M  V30 202 H 21.144 1.38081 -7.60364 0
M  V30 203 H 19.489 1.24863 -6.83692 0
M  V30 204 H 22.68 1.12469 -4.54388 0
M  V30 205 H 22.853 1.31049 -6.3461 0
M  V30 206 N 16.2591 1.48442 0.529413 0
M  V30 207 C 17.1921 1.57577 1.65059 0
M  V30 208 C 18.1701 0.426198 1.56915 0
M  V30 209 O 19.3541 0.637877 1.77379 0
M  V30 210 C 16.4811 1.5043 3.03461 0
M  V30 211 C 15.5271 2.70235 3.29962 0
M  V30 212 S 16.3601 4.32198 3.16172 0
M  V30 213 C 17.5161 4.2765 4.57019 0
M  V30 214 H 17.7491 2.52427 1.5706 0
M  V30 215 H 15.2821 1.36982 0.712417 0
M  V30 216 H 17.2401 1.46992 3.8328 0
M  V30 217 H 15.9011 0.569167 3.089 0
M  V30 218 H 15.0941 2.61374 4.30929 0
M  V30 219 H 14.6961 2.70938 2.57815 0
M  V30 220 H 16.9881 3.97618 5.48549 0
M  V30 221 H 17.9311 5.28797 4.70934 0
M  V30 222 H 18.3391 3.5811 4.36368 0
M  V30 223 N 17.7372 -0.778329 1.37039 0
M  V30 224 C 19.1482 -1.35421 1.28523 0
M  V30 225 C 19.4992 -1.96075 -0.0700901 0
M  V30 226 O 18.6242 -1.93352 -0.971801 0
M  V30 227 C 19.2192 -2.46211 2.32735 0
M  V30 228 C 17.7782 -2.99585 2.27873 0
M  V30 229 C 16.9252 -1.72748 2.16918 0
M  V30 230 H 19.8762 -0.5791 1.47757 0
M  V30 231 H 19.8972 -3.2552 1.9702 0
M  V30 232 H 19.4092 -2.02036 3.31365 0
M  V30 233 H 17.5102 -3.48152 1.32745 0
M  V30 234 H 17.6232 -3.55646 3.21018 0
M  V30 235 H 15.9872 -1.95416 1.63354 0
M  V30 236 H 16.7702 -1.30686 3.17452 0
M  V30 237 N 19.2153 -1.21501 -1.00376 0
M  V30 238 C 20.1253 -0.991447 -2.12621 0
M  V30 239 C 21.1413 0.0568446 -1.73907 0
M  V30 240 O 22.3173 -0.13348 -2.00957 0
M  V30 241 C 19.3823 -0.560312 -3.42142 0
M  V30 242 C 18.4433 -1.68096 -3.95022 0
M  V30 243 C 17.6763 -1.2703 -5.18362 0
M  V30 244 O 17.8993 -0.144438 -5.70217 0
M  V30 245 O 16.8333 -2.08269 -5.64719 0
M  V30 246 H 20.6593 -1.93158 -2.34358 0
M  V30 247 H 18.2443 -0.999999 -1.10997 0
M  V30 248 H 20.1263 -0.329724 -4.20108 0
M  V30 249 H 18.8013 0.351089 -3.2179 0
M  V30 250 H 17.7083 -1.96597 -3.18278 0
M  V30 251 H 19.0413 -2.56983 -4.19786 0
M  V30 252 N 20.6934 1.19889 -1.02296 0
M  V30 253 C 21.6234 2.25141 -0.619174 0
M  V30 254 C 22.6044 1.66051 0.368915 0
M  V30 255 O 23.7894 1.92546 0.252941 0
M  V30 256 C 20.9194 3.4728 0.0368783 0
M  V30 257 C 19.8734 4.19005 -0.872865 0
M  V30 258 C 19.1994 5.34637 -0.0822402 0
M  V30 259 C 20.4994 4.74452 -2.18387 0
M  V30 260 H 22.1934 2.59171 -1.49903 0
M  V30 261 H 19.7394 1.24579 -0.722222 0
M  V30 262 H 21.6924 4.20098 0.330958 0
M  V30 263 H 20.4164 3.12433 0.95149 0
M  V30 264 H 19.0754 3.48061 -1.15105 0
M  V30 265 H 18.7234 4.96034 0.83422 0
M  V30 266 H 18.4234 5.83557 -0.688149 0
M  V30 267 H 19.9474 6.10255 0.205238 0
M  V30 268 H 21.3614 5.39055 -1.95172 0
M  V30 269 H 19.7584 5.33834 -2.74119 0
M  V30 270 H 20.8284 3.92844 -2.84257 0
M  V30 271 N 22.1715 0.800033 1.35784 0
M  V30 272 C 23.4175 0.377901 1.99248 0
M  V30 273 C 23.7505 -1.05052 1.63333 0
M  V30 274 O 23.0255 -1.72768 0.893385 0
M  V30 275 C 23.3085 0.553922 3.55814 0
M  V30 276 C 23.1615 2.0268 4.01548 0
M  V30 277 C 24.4805 -0.0244802 4.40093 0
M  V30 278 H 21.5995 0.138782 0.723815 0
M  V30 279 H 24.2415 1.00835 1.61035 0
M  V30 280 H 22.3915 0.0172398 3.88496 0
M  V30 281 H 24.0635 2.62536 3.79305 0
M  V30 282 H 22.3065 2.5256 3.52698 0
M  V30 283 H 22.9775 2.10087 5.10458 0
M  V30 284 H 25.4535 0.433775 4.13833 0
M  V30 285 H 24.3295 0.128637 5.48749 0
M  V30 286 H 24.5905 -1.11758 4.27741 0
M  V30 287 N 23.6496 -1.47581 0.552962 0
M  V30 288 C 24.9266 -1.95563 -0.0381515 0
M  V30 289 C 25.3066 -1.49552 -1.48988 0
M  V30 290 O 24.6546 -0.732414 -2.16444 0
M  V30 291 C 24.8646 -3.48848 0.102919 0
M  V30 292 C 26.2126 -4.24577 -0.0446082 0
M  V30 293 O 27.2366 -3.56187 0.0302548 0
M  V30 294 O 26.0956 -5.46116 -0.204923 0
M  V30 295 H 23.1896 -0.824321 -0.0665067 0
M  V30 296 H 25.7356 -1.58001 0.619186 0
M  V30 297 H 24.5076 -3.75129 1.11328 0
M  V30 298 H 24.1306 -3.93165 -0.592224 0
M  V30 299 N 25.1277 -0.289203 -1.54924 0
M  V30 300 C 26.3747 0.323519 -1.99899 0
M  V30 301 C 26.7027 1.54797 -1.17762 0
M  V30 302 O 25.9577 1.94237 -0.238835 0
M  V30 303 C 26.2567 0.736119 -3.49737 0
M  V30 304 C 25.9227 -0.385276 -4.49251 0
M  V30 305 C 24.5847 -0.693156 -4.76181 0
M  V30 306 C 26.9367 -1.14021 -5.08575 0
M  V30 307 C 24.2647 -1.7593 -5.59701 0
M  V30 308 C 26.6167 -2.19619 -5.93254 0
M  V30 309 C 25.2807 -2.51026 -6.185 0
M  V30 310 H 24.5507 0.118384 -0.731482 0
M  V30 311 H 27.1977 -0.405847 -1.8715 0
M  V30 312 H 25.5027 1.54539 -3.60035 0
M  V30 313 H 27.1997 1.22118 -3.81953 0
M  V30 314 H 23.7897 -0.135202 -4.28387 0
M  V30 315 H 27.9737 -0.915611 -4.87781 0
M  V30 316 H 23.2297 -2.0075 -5.77503 0
M  V30 317 H 27.4037 -2.78581 -6.38252 0
M  V30 318 H 25.0307 -3.33772 -6.83008 0
M  V30 319 N 26.6058 1.57591 -0.0167156 0
M  V30 320 C 28.0218 1.55946 0.339557 0
M  V30 321 C 28.2218 1.02109 1.73713 0
M  V30 322 O 27.2778 0.662303 2.43659 0
M  V30 323 C 28.5908 3.00037 0.199499 0
M  V30 324 C 30.1388 3.11805 0.273193 0
M  V30 325 C 30.6138 4.57713 0.162068 0
M  V30 326 N 32.1048 4.6268 0.219444 0
M  V30 327 C 32.8398 5.73185 0.157054 0
M  V30 328 N 32.3358 6.92786 0.0442936 0
M  V30 329 N 34.1288 5.61707 0.21014 0
M  V30 330 H 26.2798 1.90921 -0.930758 0
M  V30 331 H 28.5428 0.877674 -0.358319 0
M  V30 332 H 28.2488 3.4333 -0.76273 0
M  V30 333 H 28.1228 3.64387 0.974786 0
M  V30 334 H 30.5098 2.68433 1.22587 0
M  V30 335 H 30.5908 2.50201 -0.532256 0
M  V30 336 H 30.2348 5.01763 -0.78714 0
M  V30 337 H 30.1648 5.17283 0.986222 0
M  V30 338 H 32.6558 3.76649 0.307246 0
M  V30 339 H 32.9688 7.728 0.00304069 0
M  V30 340 H 31.3138 6.94999 0.00968457 0
M  V30 341 H 34.5048 4.6716 0.296546 0
M  V30 342 H 34.6778 6.47807 0.158054 0
M  V30 343 N 28.0839 -0.256276 1.55502 0
M  V30 344 C 29.0159 -1.33981 1.85962 0
M  V30 345 C 30.0289 -1.44743 0.745212 0
M  V30 346 O 31.2179 -1.4626 1.02324 0
M  V30 347 C 28.3179 -2.7194 2.02242 0
M  V30 348 C 27.4909 -2.83562 3.33033 0
M  V30 349 C 26.5499 -4.02304 3.39172 0
M  V30 350 O 25.5759 -3.92273 4.12444 0
M  V30 351 N 26.7779 -5.15045 2.67784 0
M  V30 352 H 29.5429 -1.08191 2.7949 0
M  V30 353 H 27.1039 -0.446388 1.55624 0
M  V30 354 H 29.0959 -3.49697 2.03701 0
M  V30 355 H 27.6659 -2.90479 1.15502 0
M  V30 356 H 26.8859 -1.92555 3.43971 0
M  V30 357 H 28.1739 -2.88271 4.19258 0
M  V30 358 H 27.5719 -5.26085 2.07968 0
M  V30 359 H 26.1289 -5.90972 2.74947 0
M  V30 360 N 29.562 -1.4872 -0.521534 0
M  V30 361 C 30.792 -1.6061 -1.29954 0
M  V30 362 C 31.2 -0.268728 -1.87282 0
M  V30 363 O 30.543 0.753221 -1.67548 0
M  V30 364 C 30.605 -2.60013 -2.48261 0
M  V30 365 C 30.269 -4.04874 -2.11957 0
M  V30 366 C 31.266 -4.92304 -1.67132 0
M  V30 367 C 28.951 -4.5047 -2.22221 0
M  V30 368 C 30.945 -6.2336 -1.33047 0
M  V30 369 C 28.632 -5.81544 -1.87748 0
M  V30 370 C 29.63 -6.67812 -1.43234 0
M  V30 371 O 29.318 -7.96446 -1.09217 0
M  V30 372 H 29.05 -0.544116 -0.401141 0
M  V30 373 H 31.604 -1.95339 -0.634958 0
M  V30 374 H 29.834 -2.20422 -3.17728 0
M  V30 375 H 31.523 -2.61648 -3.10315 0
M  V30 376 H 32.289 -4.58312 -1.58665 0
M  V30 377 H 28.168 -3.83504 -2.55823 0
M  V30 378 H 31.712 -6.90649 -0.982299 0
M  V30 379 H 27.609 -6.15069 -1.95858 0
M  V30 380 H 28.377 -8.09275 -1.22542 0
M  V30 381 N 31.0401 0.771051 -1.3745 0
M  V30 382 C 32.2861 1.5319 -1.32894 0
M  V30 383 C 32.6191 1.94008 0.0862511 0
M  V30 384 O 31.8941 1.64124 1.04373 0
M  V30 385 C 32.1771 2.79648 -2.26868 0
M  V30 386 C 32.0301 2.45079 -3.77169 0
M  V30 387 C 33.3491 3.81583 -2.19277 0
M  V30 388 H 30.4681 0.555744 -0.484064 0
M  V30 389 H 33.1101 0.884492 -1.68157 0
M  V30 390 H 31.2601 3.34891 -1.96926 0
M  V30 391 H 32.9321 1.95745 -4.1771 0
M  V30 392 H 31.1751 1.77767 -3.95704 0
M  V30 393 H 31.8461 3.35478 -4.38359 0
M  V30 394 H 34.3221 3.35835 -2.45671 0
M  V30 395 H 33.1981 4.67787 -2.87171 0
M  V30 396 H 33.4591 4.25897 -1.18592 0
M  V30 397 N 32.5182 1.22032 0.997298 0
M  V30 398 C 33.9342 0.979326 1.26021 0
M  V30 399 C 34.1342 -0.32972 1.98784 0
M  V30 400 O 33.1902 -1.05345 2.29475 0
M  V30 401 C 34.5032 2.17509 2.07631 0
M  V30 402 C 36.0512 2.21817 2.2083 0
M  V30 403 C 36.5262 3.40933 3.05825 0
M  V30 404 N 38.0172 3.41067 3.13412 0
M  V30 405 C 38.7522 4.29885 3.79455 0
M  V30 406 N 38.2482 5.28914 4.47462 0
M  V30 407 N 40.0412 4.17673 3.76173 0
M  V30 408 H 32.1922 2.06202 0.509352 0
M  V30 409 H 34.4552 0.90334 0.287541 0
M  V30 410 H 34.1612 3.12415 1.61524 0
M  V30 411 H 34.0352 2.17206 3.08385 0
M  V30 412 H 36.4222 1.27462 2.66153 0
M  V30 413 H 36.5032 2.2616 1.1952 0
M  V30 414 H 36.1472 4.35586 2.61203 0
M  V30 415 H 36.0772 3.33829 4.07266 0
M  V30 416 H 38.5682 2.69406 2.65007 0
M  V30 417 H 38.8812 5.92973 4.95583 0
M  V30 418 H 37.2262 5.32831 4.46224 0
M  V30 419 H 40.4172 3.39564 3.22202 0
M  V30 420 H 40.5902 4.87098 4.27363 0
M  V30 421 N 33.9963 -1.19345 1.0293 0
M  V30 422 C 35.2243 -1.92997 0.745644 0
M  V30 423 C 35.6393 -1.75519 -0.695589 0
M  V30 424 O 34.9963 -1.07737 -1.47306 0
M  V30 425 C 35.0473 -3.44741 1.08792 0
M  V30 426 O 34.7683 -3.61658 2.47256 0
M  V30 427 C 36.2693 -4.35515 0.827129 0
M  V30 428 H 33.4893 -0.613042 0.272801 0
M  V30 429 H 36.0333 -1.51473 1.3739 0
M  V30 430 H 34.1883 -3.84097 0.504832 0
M  V30 431 H 34.6023 -4.55514 2.60015 0
M  V30 432 H 36.0763 -5.40589 1.11658 0
M  V30 433 H 36.5533 -4.38552 -0.238436 0
M  V30 434 H 37.1593 -4.01841 1.39297 0
M  V30 435 N 35.4744 -0.807222 -1.35358 0
M  V30 436 C 36.4044 -0.232509 -2.3234 0
M  V30 437 C 37.3854 0.642386 -1.57504 0
M  V30 438 O 38.5704 0.572526 -1.85569 0
M  V30 439 C 35.7004 0.619238 -3.41735 0
M  V30 440 C 34.6544 -0.157215 -4.27711 0
M  V30 441 C 33.9804 0.816273 -5.28433 0
M  V30 442 C 35.2804 -1.35656 -5.04376 0
M  V30 443 H 36.9744 -1.04276 -2.80654 0
M  V30 444 H 34.5204 -0.50288 -1.34934 0
M  V30 445 H 36.4734 1.03137 -4.08584 0
M  V30 446 H 35.1974 1.46239 -2.92031 0
M  V30 447 H 33.8564 -0.550525 -3.62443 0
M  V30 448 H 33.5044 1.65494 -4.74996 0
M  V30 449 H 33.2044 0.301067 -5.86828 0
M  V30 450 H 34.7284 1.22659 -5.98153 0
M  V30 451 H 36.1424 -1.01927 -5.64166 0
M  V30 452 H 34.5394 -1.8063 -5.7227 0
M  V30 453 H 35.6094 -2.14288 -4.34981 0
M  V30 454 N 36.9525 1.47285 -0.560781 0
M  V30 455 C 38.3635 1.86258 -0.128343 0
M  V30 456 C 38.7145 1.46699 1.30284 0
M  V30 457 O 37.8395 0.871698 1.98067 0
M  V30 458 C 38.4345 3.38044 -0.22614 0
M  V30 459 C 36.9935 3.76096 0.151283 0
M  V30 460 C 36.1405 2.71335 -0.572084 0
M  V30 461 H 39.0915 1.38752 -0.770297 0
M  V30 462 H 39.1125 3.76441 0.554322 0
M  V30 463 H 38.6245 3.66806 -1.26788 0
M  V30 464 H 36.7255 3.52951 1.19399 0
M  V30 465 H 36.8385 4.78641 -0.209765 0
M  V30 466 H 35.2025 2.54696 -0.0147653 0
M  V30 467 H 35.9855 3.02938 -1.61504 0
M  V30 468 N 38.4306 0.297415 1.54768 0
M  V30 469 C 39.6586 -0.315623 2.04478 0
M  V30 470 C 40.0736 -1.47792 1.17486 0
M  V30 471 O 39.4306 -1.81404 0.19971 0
M  V30 472 C 39.4816 -0.7753 3.53088 0
M  V30 473 O 39.2026 0.340732 4.36773 0
M  V30 474 C 40.7036 -1.45386 4.18781 0
M  V30 475 H 37.9236 -0.0690887 0.667434 0
M  V30 476 H 40.4676 0.436003 1.99798 0
M  V30 477 H 38.6226 -1.47696 3.58141 0
M  V30 478 H 39.0366 -0.0165035 5.24497 0
M  V30 479 H 40.5106 -1.72669 5.24299 0
M  V30 480 H 40.9876 -2.39275 3.68299 0
M  V30 481 H 41.5936 -0.795475 4.17795 0
M  V30 482 N 39.9087 -1.5758 0.0250728 0
M  V30 483 C 40.8567 -2.11125 -0.97617 0
M  V30 484 C 41.8507 -1.03689 -1.33959 0
M  V30 485 O 43.0567 -1.22128 -1.3223 0
M  V30 486 H 39.4317 -0.674468 -0.332561 0
M  V30 487 H 41.4027 -2.94194 -0.499223 0
M  V30 488 C 40.1517 -2.65017 -2.2508 0
M  V30 489 H 39.4747 -3.47333 -1.9799 0
M  V30 490 H 40.9147 -3.06133 -2.93357 0
M  V30 491 C 39.3737 -1.57574 -2.97779 0
M  V30 492 O 39.9037 -0.973203 -3.89733 0
M  V30 493 N 38.1097 -1.29716 -2.60043 0
M  V30 494 H 37.6567 -1.789 -1.85345 0
M  V30 495 H 37.6147 -0.58051 -3.08994 0
M  V30 496 N 41.3868 0.248026 -1.55636 0
M  V30 497 C 42.6148 0.993808 -1.81469 0
M  V30 498 C 43.0298 1.78991 -0.60064 0
M  V30 499 O 42.3868 1.77345 0.430682 0
M  V30 500 C 42.4378 1.93258 -3.05506 0
M  V30 501 O 42.1588 1.16869 -4.22224 0
M  V30 502 C 43.6598 2.79444 -3.4413 0
M  V30 503 H 40.8798 0.292486 -0.603898 0
M  V30 504 H 43.4238 0.271253 -2.02693 0
M  V30 505 H 41.5788 2.60943 -2.86335 0
M  V30 506 H 41.9928 1.80359 -4.92515 0
M  V30 507 H 43.4668 3.41066 -4.34026 0
M  V30 508 H 43.9438 3.50499 -2.64665 0
M  V30 509 H 44.5498 2.17214 -3.65648 0
M  V30 510 N 42.8649 1.48995 0.513639 0
M  V30 511 C 43.7949 1.67636 1.62544 0
M  V30 512 C 44.7759 0.525087 1.61793 0
M  V30 513 O 45.9609 0.759502 1.78732 0
M  V30 514 C 43.0909 1.73114 3.01079 0
M  V30 515 C 42.0449 2.87905 3.16693 0
M  V30 516 C 41.3709 2.78486 4.56453 0
M  V30 517 C 42.6709 4.29005 2.97913 0
M  V30 518 H 44.3649 2.60716 1.47198 0
M  V30 519 H 41.9109 1.25465 0.706714 0
M  V30 520 H 43.8639 1.84742 3.78746 0
M  V30 521 H 42.5879 0.766241 3.17484 0
M  V30 522 H 41.2469 2.75859 2.41448 0
M  V30 523 H 40.8949 1.7993 4.69717 0
M  V30 524 H 40.5949 3.55523 4.67843 0
M  V30 525 H 42.1189 2.92104 5.36197 0
M  V30 526 H 43.5329 4.41798 3.65359 0
M  V30 527 H 41.9299 5.07166 3.20785 0
M  V30 528 H 42.9999 4.44329 1.94165 0
M  V30 529 N 44.343 -0.763751 1.37857 0
M  V30 530 C 45.276 -1.88486 1.28639 0
M  V30 531 C 46.254 -1.61757 0.165363 0
M  V30 532 O 47.438 -1.85391 0.340948 0
M  V30 533 C 44.565 -3.23884 0.990811 0
M  V30 534 C 43.611 -3.69514 2.12983 0
M  V30 535 S 44.444 -3.82244 3.75033 0
M  V30 536 C 45.6 -5.20477 3.47641 0
M  V30 537 H 45.833 -1.96017 2.23527 0
M  V30 538 H 43.366 -0.925684 1.23574 0
M  V30 539 H 45.324 -4.02081 0.827101 0
M  V30 540 H 43.985 -3.14044 0.0592832 0
M  V30 541 H 43.178 -4.67696 1.87821 0
M  V30 542 H 42.78 -2.98441 2.25408 0
M  V30 543 H 45.072 -6.05905 3.03125 0
M  V30 544 H 46.015 -5.50655 4.4518 0
M  V30 545 H 46.423 -4.88793 2.82385 0
M  V30 546 N 45.8211 -1.22559 -0.990812 0
M  V30 547 C 47.0691 -1.04933 -1.72724 0
M  V30 548 C 47.3901 0.416158 -1.90508 0
M  V30 549 O 46.6601 1.29918 -1.46622 0
M  V30 550 H 45.2401 -0.385296 -0.639965 0
M  V30 551 H 47.9021 -1.54105 -1.19322 0
M  V30 552 H 46.9981 -1.52886 -2.72089 0
M  V30 553 N 47.2992 1.18797 -1.03562 0
M  V30 554 C 48.5462 1.8865 -0.736023 0
M  V30 555 C 48.8742 1.80041 0.735889 0
M  V30 556 O 48.1292 1.19179 1.55225 0
M  V30 557 C 48.4282 3.38692 -1.14117 0
M  V30 558 C 48.0942 3.67504 -2.6125 0
M  V30 559 C 46.7562 3.75078 -3.01447 0
M  V30 560 C 49.1082 3.80293 -3.56408 0
M  V30 561 C 46.4362 3.92915 -4.35701 0
M  V30 562 C 48.7882 3.99645 -4.90374 0
M  V30 563 C 47.4522 4.05453 -5.30249 0
M  V30 564 H 46.7222 0.690321 -0.26933 0
M  V30 565 H 49.3692 1.40641 -1.29971 0
M  V30 566 H 47.6742 3.88645 -0.496202 0
M  V30 567 H 49.3712 3.91072 -0.886789 0
M  V30 568 H 45.9612 3.62223 -2.29113 0
M  V30 569 H 50.1452 3.73779 -3.26501 0
M  V30 570 H 45.4012 3.95653 -4.66121 0
M  V30 571 H 49.5752 4.08482 -5.64017 0
M  V30 572 H 47.2022 4.19027 -6.34288 0
M  V30 573 N 48.7773 0.814389 1.34928 0
M  V30 574 C 50.0253 0.397636 1.9815 0
M  V30 575 C 50.3463 -1.04069 1.64908 0
M  V30 576 O 49.6163 -1.72121 0.93548 0
M  V30 577 H 48.1963 0.144043 0.732981 0
M  V30 578 H 50.8583 1.04195 1.6471 0
M  V30 579 H 49.9543 0.509688 3.0791 0
M  V30 580 N 50.2554 -1.46986 0.568584 0
M  V30 581 C 51.2184 -2.28624 -0.162366 0
M  V30 582 C 52.2184 -1.37596 -0.832103 0
M  V30 583 O 53.4084 -1.60115 -0.68622 0
M  V30 584 C 50.5404 -3.17596 -1.23878 0
M  V30 585 H 51.7334 -2.94722 0.554899 0
M  V30 586 H 49.2864 -1.52863 0.325976 0
M  V30 587 H 50.0214 -2.56214 -1.98808 0
M  V30 588 H 49.8064 -3.846 -0.763219 0
M  V30 589 H 51.2964 -3.79078 -1.75185 0
M  V30 590 N 51.7335 -0.305618 -1.54608 0
M  V30 591 C 52.9805 0.302298 -2.00231 0
M  V30 592 C 53.3085 1.5354 -1.19398 0
M  V30 593 O 52.5635 1.93973 -0.259423 0
M  V30 594 C 52.8625 0.698983 -3.50498 0
M  V30 595 C 52.5285 -0.432903 -4.48817 0
M  V30 596 C 51.1905 -0.743622 -4.75419 0
M  V30 597 C 53.5425 -1.19409 -5.07337 0
M  V30 598 C 50.8705 -1.81857 -5.57804 0
M  V30 599 C 53.2225 -2.25899 -5.90891 0
M  V30 600 C 51.8865 -2.57572 -6.15803 0
M  V30 601 H 51.1565 0.110619 -0.732697 0
M  V30 602 H 53.8035 -0.425674 -1.86709 0
M  V30 603 H 52.1085 1.50711 -3.61654 0
M  V30 604 H 53.8055 1.1806 -3.83227 0
M  V30 605 H 50.3955 -0.18063 -4.28219 0
M  V30 606 H 54.5795 -0.967295 -4.86782 0
M  V30 607 H 49.8355 -2.06864 -5.75341 0
M  V30 608 H 54.0095 -2.85335 -6.35261 0
M  V30 609 H 51.6365 -3.40998 -6.7943 0
M  V30 610 N 53.2116 1.57565 -0.0334293 0
M  V30 611 C 54.1746 2.09393 0.932048 0
M  V30 612 C 55.1746 1.00986 1.25134 0
M  V30 613 O 56.3646 1.27129 1.19096 0
M  V30 614 C 53.4966 2.56338 2.2473 0
M  V30 615 H 54.6896 2.95984 0.483085 0
M  V30 616 H 52.2426 1.54819 0.21468 0
M  V30 617 H 52.9776 1.7309 2.74245 0
M  V30 618 H 52.7626 3.35542 2.02865 0
M  V30 619 H 54.2526 2.96646 2.93923 0
M  V30 620 N 54.6897 -0.239769 1.55765 0
M  V30 621 C 55.6527 -1.28038 1.90103 0
M  V30 622 C 56.6527 -1.40723 0.778055 0
M  V30 623 O 57.8427 -1.39301 1.04599 0
M  V30 624 C 54.9747 -2.65702 2.13577 0
M  V30 625 H 56.1677 -0.988048 2.83157 0
M  V30 626 H 53.7207 -0.479382 1.48767 0
M  V30 627 H 54.4557 -3.00063 1.23015 0
M  V30 628 H 54.2407 -2.57875 2.95369 0
M  V30 629 H 55.7307 -3.40828 2.41301 0
M  V30 630 N 56.1678 -1.49265 -0.50573 0
M  V30 631 C 57.0978 -1.68495 -1.61653 0
M  V30 632 C 58.0788 -0.53366 -1.61512 0
M  V30 633 O 59.2638 -0.76897 -1.78327 0
M  V30 634 C 56.3938 -1.74709 -3.00157 0
M  V30 635 C 55.3478 -2.89581 -3.15162 0
M  V30 636 C 54.6738 -2.80903 -4.5497 0
M  V30 637 C 55.9738 -4.30578 -2.95634 0
M  V30 638 H 57.6678 -2.61493 -1.45814 0
M  V30 639 H 55.2138 -1.25838 -0.70005 0
M  V30 640 H 57.1668 -1.86748 -3.77761 0
M  V30 641 H 55.8908 -0.783067 -3.17074 0
M  V30 642 H 54.5498 -2.77136 -2.39982 0
M  V30 643 H 54.1978 -1.82419 -4.68756 0
M  V30 644 H 53.8978 -3.57999 -4.65951 0
M  V30 645 H 55.4218 -2.94944 -5.34641 0
M  V30 646 H 56.8358 -4.4373 -3.63011 0
M  V30 647 H 55.2328 -5.0886 -3.18091 0
M  V30 648 H 56.3028 -4.45352 -1.91806 0
M  V30 649 N 57.6459 0.756429 -1.3826 0
M  V30 650 C 58.8739 1.54565 -1.3754 0
M  V30 651 C 59.2889 1.88767 0.0355331 0
M  V30 652 O 58.6459 1.52572 1.0014 0
M  V30 653 C 58.6969 2.84654 -2.22833 0
M  V30 654 O 58.4179 2.51912 -3.5843 0
M  V30 655 C 59.9189 3.78807 -2.30261 0
M  V30 656 H 57.1389 0.478353 -0.470553 0
M  V30 657 H 59.6829 0.936381 -1.81803 0
M  V30 658 H 57.8379 3.41965 -1.8204 0
M  V30 659 H 58.2519 3.35325 -4.03308 0
M  V30 660 H 59.7259 4.67045 -2.94233 0
M  V30 661 H 60.2029 4.19038 -1.31545 0
M  V30 662 H 60.8089 3.2742 -2.71433 0
M  V30 663 N 59.124 1.23083 0.984299 0
M  V30 664 C 60.352 1.08714 1.76037 0
M  V30 665 C 60.767 -0.361691 1.85303 0
M  V30 666 O 60.124 -1.25034 1.32939 0
M  V30 667 C 60.175 1.70206 3.18923 0
M  V30 668 O 59.896 3.09423 3.10144 0
M  V30 669 C 61.397 1.61227 4.12941 0
M  V30 670 H 58.617 0.380664 0.552572 0
M  V30 671 H 61.161 1.62853 1.23689 0
M  V30 672 H 59.316 1.20109 3.6831 0
M  V30 673 H 59.73 3.39188 4.00065 0
M  V30 674 H 61.204 2.08962 5.10919 0
M  V30 675 H 61.681 0.570375 4.35481 0
M  V30 676 H 62.287 2.10671 3.69456 0
M  V30 677 N 60.6021 -1.18246 1.0419 0
M  V30 678 C 61.8491 -1.88257 0.746017 0
M  V30 679 C 62.1771 -1.80429 -0.726331 0
M  V30 680 O 61.4321 -1.2 -1.54591 0
M  V30 681 C 61.7311 -3.38082 1.15911 0
M  V30 682 C 61.3971 -3.66114 2.63195 0
M  V30 683 C 60.0591 -3.73474 3.03432 0
M  V30 684 C 62.4111 -3.78398 3.5842 0
M  V30 685 C 59.7391 -3.90599 4.37778 0
M  V30 686 C 62.0911 -3.97039 4.92487 0
M  V30 687 C 60.7551 -4.02635 5.32392 0
M  V30 688 H 60.0251 -0.688883 0.272987 0
M  V30 689 H 62.6721 -1.3995 1.30715 0
M  V30 690 H 60.9771 -3.88377 0.516806 0
M  V30 691 H 62.6741 -3.90596 0.907516 0
M  V30 692 H 59.2641 -3.61003 2.3103 0
M  V30 693 H 63.4481 -3.72042 3.28479 0
M  V30 694 H 58.7041 -3.93175 4.68213 0
M  V30 695 H 62.8781 -4.05486 5.66175 0
M  V30 696 H 60.5051 -4.15657 6.36501 0
M  V30 697 N 62.0802 -0.821533 -1.34494 0
M  V30 698 C 63.3262 -0.418729 -1.99043 0
M  V30 699 C 63.6812 1.00672 -1.6396 0
M  V30 700 O 62.9742 1.69132 -0.900271 0
M  V30 701 C 63.1682 -0.556512 -3.53041 0
M  V30 702 C 62.9972 -1.9938 -4.03085 0
M  V30 703 C 61.7672 -2.62539 -4.31742 0
M  V30 704 C 63.9652 -2.96035 -4.20556 0
M  V30 705 N 61.9472 -3.97523 -4.67813 0
M  V30 706 C 63.3182 -4.15924 -4.59791 0
M  V30 707 C 65.3732 -2.9267 -4.02801 0
M  V30 708 C 64.0762 -5.32899 -4.83126 0
M  V30 709 C 66.1022 -4.08861 -4.27302 0
M  V30 710 C 65.4642 -5.275 -4.66822 0
M  V30 711 H 61.5632 -0.201299 -0.755647 0
M  V30 712 H 64.1472 -1.06594 -1.62929 0
M  V30 713 H 62.3182 0.0607924 -3.88352 0
M  V30 714 H 64.0502 -0.126842 -4.04501 0
M  V30 715 H 60.8052 -2.13789 -4.22601 0
M  V30 716 H 61.2292 -4.67061 -4.90085 0
M  V30 717 H 65.8712 -2.02088 -3.71376 0
M  V30 718 H 63.5892 -6.24041 -5.13418 0
M  V30 719 H 67.1752 -4.07654 -4.15101 0
M  V30 720 H 66.0552 -6.15913 -4.85408 0
M  V30 721 N 63.5583 1.46682 -0.576371 0
M  V30 722 C 64.7883 2.06498 -0.0648694 0
M  V30 723 C 65.1963 1.42665 1.24271 0
M  V30 724 O 64.5393 0.523886 1.76071 0
M  V30 725 C 64.6013 3.5904 0.181816 0
M  V30 726 C 64.2653 4.45028 -1.0392 0
M  V30 727 C 65.2623 4.81959 -1.94966 0
M  V30 728 C 62.9473 4.86259 -1.25927 0
M  V30 729 C 64.9413 5.58942 -3.06371 0
M  V30 730 C 62.6283 5.63002 -2.37638 0
M  V30 731 C 63.6263 5.99257 -3.2769 0
M  V30 732 O 63.3143 6.7445 -4.37461 0
M  V30 733 H 63.0463 0.674028 -0.0515987 0
M  V30 734 H 65.6003 1.89393 -0.794951 0
M  V30 735 H 63.8303 3.74429 0.966436 0
M  V30 736 H 65.5193 4.00806 0.641047 0
M  V30 737 H 66.2853 4.50689 -1.79177 0
M  V30 738 H 62.1643 4.57494 -0.567448 0
M  V30 739 H 65.7083 5.87158 -3.76684 0
M  V30 740 H 61.6053 5.93686 -2.53392 0
M  V30 741 H 62.3733 6.92867 -4.35749 0
M  V30 742 N 65.0364 0.313813 1.54444 0
M  V30 743 C 65.9994 -0.54379 2.22656 0
M  V30 744 C 66.9994 -1.05124 1.21678 0
M  V30 745 O 68.1894 -0.945225 1.46325 0
M  V30 746 C 65.3214 -1.75427 2.92298 0
M  V30 747 H 66.5144 0.0523599 2.99854 0
M  V30 748 H 64.0674 0.0647834 1.56166 0
M  V30 749 H 64.8024 -2.38991 2.19211 0
M  V30 750 H 64.5874 -1.39791 3.66334 0
M  V30 751 H 66.0774 -2.36325 3.44297 0
M  V30 752 N 66.5145 -1.57545 0.0417849 0
M  V30 753 C 67.7425 -1.96624 -0.643928 0
M  V30 754 C 68.1575 -0.918897 -1.64929 0
M  V30 755 O 67.5145 0.0979323 -1.82237 0
M  V30 756 C 67.5655 -3.35781 -1.33914 0
M  V30 757 O 67.2865 -4.365 -0.374048 0
M  V30 758 C 68.7875 -3.89566 -2.1155 0
M  V30 759 H 66.0075 -0.647316 -0.176702 0
M  V30 760 H 68.5515 -2.04229 0.105304 0
M  V30 761 H 66.7065 -3.29357 -2.03968 0
M  V30 762 H 67.1205 -5.17248 -0.869179 0
M  V30 763 H 68.5945 -4.89242 -2.55628 0
M  V30 764 H 69.0715 -3.24488 -2.9598 0
M  V30 765 H 69.6775 -3.99298 -1.46427 0
M  V30 766 N 67.9926 0.231505 -1.5589 0
M  V30 767 C 69.4086 0.580748 -1.48659 0
M  V30 768 C 69.6086 1.87617 -0.73498 0
M  V30 769 O 68.6646 2.51046 -0.270586 0
M  V30 770 C 69.9776 0.669202 -2.93159 0
M  V30 771 C 71.5256 0.760499 -3.03621 0
M  V30 772 C 72.0006 0.880383 -4.49459 0
M  V30 773 N 73.4916 0.944861 -4.53461 0
M  V30 774 C 74.2266 1.05716 -5.63571 0
M  V30 775 N 73.7226 1.13403 -6.83456 0
M  V30 776 N 75.5156 1.09152 -5.514 0
M  V30 777 H 67.6666 -0.618695 -2.03189 0
M  V30 778 H 69.9296 -0.215728 -0.923128 0
M  V30 779 H 69.6356 -0.212904 -3.51055 0
M  V30 780 H 69.5096 1.5361 -3.44505 0
M  V30 781 H 71.8966 1.63305 -2.45796 0
M  V30 782 H 71.9776 -0.131864 -2.5546 0
M  V30 783 H 71.6216 0.0123284 -5.07899 0
M  V30 784 H 71.5516 1.78802 -4.95316 0
M  V30 785 H 74.0426 0.896176 -3.6712 0
M  V30 786 H 74.3556 1.21921 -7.63122 0
M  V30 787 H 72.7006 1.10333 -6.86186 0
M  V30 788 H 75.8916 1.02805 -4.56671 0
M  V30 789 H 76.0646 1.17558 -6.37247 0
M  V30 790 N 69.4707 1.49531 0.497807 0
M  V30 791 C 70.8817 1.52344 1.07927 0
M  V30 792 C 71.2327 0.311469 1.93712 0
M  V30 793 O 70.3577 -0.578405 2.08527 0
M  V30 794 C 70.9527 2.76062 1.96405 0
M  V30 795 C 69.5117 2.81643 2.49709 0
M  V30 796 C 68.6587 2.46299 1.27404 0
M  V30 797 H 71.6097 1.56182 0.281576 0
M  V30 798 H 71.6307 2.56405 2.81135 0
M  V30 799 H 71.1427 3.64254 1.33943 0
M  V30 800 H 69.2437 1.97739 3.15801 0
M  V30 801 H 69.3567 3.83891 2.86643 0
M  V30 802 H 67.7207 1.98148 1.60029 0
M  V30 803 H 68.5037 3.36769 0.66645 0
M  V30 804 N 70.9488 -0.749086 1.3866 0
M  V30 805 C 71.8958 -1.86291 1.36251 0
M  V30 806 C 72.8658 -1.64578 0.224347 0
M  V30 807 O 74.0508 -1.86181 0.417279 0
M  V30 808 C 71.1908 -3.23644 1.19786 0
M  V30 809 C 70.3038 -3.57158 2.43027 0
M  V30 810 C 69.4388 -4.83838 2.19258 0
M  V30 811 C 68.4778 -5.10152 3.38247 0
M  V30 812 N 67.6148 -6.28029 3.13884 0
M  V30 813 H 72.4548 -1.87685 2.3147 0
M  V30 814 H 69.9918 -0.917287 1.14997 0
M  V30 815 H 71.9498 -4.0291 1.08254 0
M  V30 816 H 70.5798 -3.21566 0.282031 0
M  V30 817 H 69.6318 -2.72701 2.65214 0
M  V30 818 H 70.9438 -3.7253 3.31697 0
M  V30 819 H 70.0978 -5.71057 2.04888 0
M  V30 820 H 68.8368 -4.70614 1.2796 0
M  V30 821 H 67.8418 -4.21401 3.53131 0
M  V30 822 H 69.0668 -5.25271 4.30427 0
M  V30 823 H 67.0128 -6.1612 2.25238 0
M  V30 824 H 66.9298 -6.43922 3.96106 0
M  V30 825 H 68.1978 -7.18124 3.03179 0
M  V30 826 N 72.4269 -1.23603 -0.977757 0
M  V30 827 C 73.8379 -1.06424 -1.53398 0
M  V30 828 C 74.1889 0.367578 -1.92726 0
M  V30 829 O 73.3139 1.25465 -1.76316 0
M  V30 830 C 73.9089 -1.92568 -2.78753 0
M  V30 831 C 72.4679 -1.79642 -3.30765 0
M  V30 832 C 71.6149 -1.88111 -2.03739 0
M  V30 833 H 74.5659 -1.37227 -0.797152 0
M  V30 834 H 74.5869 -1.45203 -3.51705 0
M  V30 835 H 74.0989 -2.96771 -2.50098 0
M  V30 836 H 72.1999 -0.782325 -3.64294 0
M  V30 837 H 72.3129 -2.63174 -4.00345 0
M  V30 838 H 70.6769 -1.31723 -2.17994 0
M  V30 839 H 71.4599 -2.93875 -1.77461 0
M  V30 840 N 73.905 1.17692 -1.04816 0
M  V30 841 C 74.835 2.23777 -0.666791 0
M  V30 842 C 75.816 1.66796 0.33361 0
M  V30 843 O 77.001 1.93039 0.212042 0
M  V30 844 C 74.131 3.47281 -0.0367933 0
M  V30 845 C 73.085 4.17059 -0.961546 0
M  V30 846 C 72.411 5.34342 -0.195626 0
M  V30 847 C 73.711 4.69713 -2.28402 0
M  V30 848 H 75.405 2.55933 -1.55367 0
M  V30 849 H 72.951 1.23019 -0.748484 0
M  V30 850 H 74.904 4.20706 0.241775 0
M  V30 851 H 73.628 3.14381 0.885004 0
M  V30 852 H 72.287 3.45541 -1.22462 0
M  V30 853 H 71.935 4.97692 0.728816 0
M  V30 854 H 71.635 5.81966 -0.811775 0
M  V30 855 H 73.159 6.10553 0.0757473 0
M  V30 856 H 74.573 5.34794 -2.06563 0
M  V30 857 H 72.97 5.279 -2.8538 0
M  V30 858 H 74.04 3.86726 -2.92525 0
M  V30 859 N 75.3831 0.828654 1.34056 0
M  V30 860 C 76.3301 0.252567 2.29414 0
M  V30 861 C 77.3001 -0.62588 1.53857 0
M  V30 862 O 78.4851 -0.566312 1.82202 0
M  V30 863 C 75.6251 -0.574831 3.40279 0
M  V30 864 C 74.7381 0.326499 4.30764 0
M  V30 865 C 73.8731 -0.511016 5.28736 0
M  V30 866 C 72.9121 0.389342 6.1086 0
M  V30 867 N 72.0491 -0.409439 7.00905 0
M  V30 868 H 76.8891 1.07108 2.78086 0
M  V30 869 H 74.4261 0.539677 1.36843 0
M  V30 870 H 76.3841 -1.06992 4.03248 0
M  V30 871 H 75.0141 -1.35841 2.92826 0
M  V30 872 H 74.0661 0.939837 3.68607 0
M  V30 873 H 75.3781 1.01857 4.88289 0
M  V30 874 H 74.5321 -1.07035 5.97184 0
M  V30 875 H 73.2711 -1.23657 4.71763 0
M  V30 876 H 72.2761 0.960769 5.4134 0
M  V30 877 H 73.5011 1.1131 6.69916 0
M  V30 878 H 71.4471 -1.11856 6.46393 0
M  V30 879 H 71.3641 0.224126 7.55668 0
M  V30 880 H 72.6321 -0.951336 7.73673 0
M  V30 881 N 76.8612 -1.46375 0.584142 0
M  V30 882 C 78.2722 -1.86031 0.157959 0
M  V30 883 C 78.6232 -1.48753 -1.27933 0
M  V30 884 O 77.7482 -0.903098 -1.96655 0
M  V30 885 C 78.3432 -3.37642 0.279892 0
M  V30 886 C 76.9022 -3.76289 -0.09143 0
M  V30 887 C 76.0492 -2.7039 0.615178 0
M  V30 888 H 79.0002 -1.37509 0.792274 0
M  V30 889 H 79.0212 -3.77275 -0.494364 0
M  V30 890 H 78.5332 -3.64742 1.32607 0
M  V30 891 H 76.6342 -3.54806 -1.13769 0
M  V30 892 H 76.7472 -4.78246 0.285886 0
M  V30 893 H 75.1112 -2.5464 0.0552833 0
M  V30 894 H 75.8942 -3.0033 1.66303 0
M  V30 895 N 78.3393 -0.321999 -1.54275 0
M  V30 896 C 79.7503 0.166384 -1.85957 0
M  V30 897 C 80.1013 1.51747 -1.24367 0
M  V30 898 O 79.2263 2.09317 -0.549124 0
M  V30 899 C 79.8213 0.308681 -3.37391 0
M  V30 900 C 78.3803 0.741286 -3.69028 0
M  V30 901 C 77.5273 -0.137937 -2.76957 0
M  V30 902 H 80.4783 -0.542335 -1.49146 0
M  V30 903 H 80.4993 1.13984 -3.63026 0
M  V30 904 H 80.0113 -0.674809 -3.82188 0
M  V30 905 H 78.1123 1.73458 -3.29762 0
M  V30 906 H 78.2253 0.546118 -4.75977 0
M  V30 907 H 76.5893 0.386251 -2.51754 0
M  V30 908 H 77.3723 -1.11816 -3.2458 0
M  V30 909 N 79.8174 1.5752 -0.0501392 0
M  V30 910 C 81.0574 1.94521 0.627783 0
M  V30 911 C 81.4214 0.928265 1.68069 0
M  V30 912 O 82.6224 1.18517 2.41261 0
M  V30 913 C 80.8934 3.36319 1.20932 0
M  V30 914 S 82.4524 3.95272 1.90539 0
M  V30 915 H 79.2704 0.680456 0.206158 0
M  V30 916 H 81.8724 1.95139 -0.118829 0
M  V30 917 H 80.5764 4.08132 0.430865 0
M  V30 918 H 80.1074 3.39193 1.99277 0
M  V30 919 H 82.1224 3.80415 3.18589 0
M  V30 920 N 81.2955 -0.223234 1.56011 0
M  V30 921 C 82.5725 -0.972108 1.69733 0
M  V30 922 C 82.9525 -2.02485 0.59691 0
M  V30 923 O 82.3005 -2.25037 -0.396324 0
M  V30 924 C 82.5105 -1.58407 3.10979 0
M  V30 925 C 83.8585 -2.07696 3.70334 0
M  V30 926 O 84.8825 -1.68304 3.1393 0
M  V30 927 O 83.7415 -2.80096 4.69264 0
M  V30 928 H 80.8355 -0.453993 0.691245 0
M  V30 929 H 83.3815 -0.215149 1.68331 0
M  V30 930 H 82.1535 -0.823831 3.82529 0
M  V30 931 H 81.7765 -2.40661 3.16493 0
M  V30 932 N 82.7736 -1.49793 -0.48987 0
M  V30 933 C 83.7036 -1.70201 -1.59856 0
M  V30 934 C 84.6846 -0.55076 -1.60937 0
M  V30 935 O 85.8696 -0.787841 -1.77501 0
M  V30 936 C 82.9996 -1.77882 -2.98287 0
M  V30 937 C 81.9536 -2.92907 -3.12073 0
M  V30 938 C 81.2796 -2.85712 -4.51965 0
M  V30 939 C 82.5796 -4.3369 -2.91051 0
M  V30 940 H 84.2736 -2.63025 -1.43032 0
M  V30 941 H 81.8196 -1.26574 -0.686664 0
M  V30 942 H 83.7726 -1.90744 -3.75759 0
M  V30 943 H 82.4966 -0.816653 -3.16225 0
M  V30 944 H 81.1556 -2.79665 -2.37029 0
M  V30 945 H 80.8036 -1.8738 -4.66795 0
M  V30 946 H 80.5036 -3.62921 -4.62128 0
M  V30 947 H 82.0276 -3.00598 -5.31482 0
M  V30 948 H 83.4416 -4.47555 -3.58284 0
M  V30 949 H 81.8386 -5.12205 -3.12675 0
M  V30 950 H 82.9086 -4.47362 -1.87071 0
M  V30 951 N 84.2517 0.741722 -1.39055 0
M  V30 952 C 85.4767 1.53607 -1.39354 0
M  V30 953 C 85.9017 1.88096 0.0116905 0
M  V30 954 O 85.2597 1.5143 0.996924 0
M  V30 955 C 85.3077 2.80441 -2.26682 0
M  V30 956 O 84.4117 3.76088 -1.69208 0
M  V30 957 H 83.7527 0.464142 -0.474835 0
M  V30 958 H 86.2827 0.915665 -1.82967 0
M  V30 959 H 86.2927 3.29246 -2.40959 0
M  V30 960 H 84.9677 2.5467 -3.2881 0
M  V30 961 H 83.5447 3.34833 -1.64138 0
M  V30 962 N 85.7298 1.2412 0.971189 0
M  V30 963 C 86.6628 0.97373 2.06382 0
M  V30 964 C 87.6408 -0.0912662 1.62344 0
M  V30 965 O 88.8248 0.0449365 1.88446 0
M  V30 966 C 85.9518 0.468746 3.35441 0
M  V30 967 C 84.9978 1.52176 3.98428 0
M  V30 968 S 85.8308 3.10203 4.36503 0
M  V30 969 C 86.9868 2.61398 5.68702 0
M  V30 970 H 87.2198 1.89893 2.28753 0
M  V30 971 H 84.7528 1.07466 1.10862 0
M  V30 972 H 86.7108 0.184012 4.10087 0
M  V30 973 H 85.3718 -0.435688 3.11064 0
M  V30 974 H 84.5648 1.11876 4.91426 0
M  V30 975 H 84.1668 1.75632 3.30196 0
M  V30 976 H 86.4588 2.03992 6.4606 0
M  V30 977 H 87.4018 3.52972 6.13854 0
M  V30 978 H 87.8098 2.01941 5.27143 0
M  V30 979 N 87.2079 -1.17134 1.05439 0
M  V30 980 C 88.1399 -2.2078 0.615539 0
M  V30 981 C 89.1529 -1.59584 -0.322001 0
M  V30 982 O 90.3419 -1.78133 -0.114344 0
M  V30 983 C 87.4419 -3.38691 -0.118938 0
M  V30 984 C 86.6149 -4.29454 0.829924 0
M  V30 985 C 85.6739 -5.26024 0.136258 0
M  V30 986 O 84.6999 -5.63952 0.77115 0
M  V30 987 N 85.9019 -5.69487 -1.1254 0
M  V30 988 H 88.6669 -2.59052 1.50705 0
M  V30 989 H 86.2279 -1.32058 0.936603 0
M  V30 990 H 88.2199 -4.00329 -0.593179 0
M  V30 991 H 86.7899 -2.98996 -0.91215 0
M  V30 992 H 86.0099 -3.65211 1.48373 0
M  V30 993 H 87.2979 -4.86984 1.47392 0
M  V30 994 H 86.6959 -5.4075 -1.6615 0
M  V30 995 H 85.2529 -6.33257 -1.54366 0
M  V30 996 N 88.686 -0.835752 -1.33615 0
M  V30 997 C 89.911 -0.442389 -2.02627 0
M  V30 998 C 90.336 0.947735 -1.62479 0
M  V30 999 O 89.694 1.61907 -0.815826 0
M  V30 1000 C 89.742 -0.567216 -3.56111 0
M  V30 1001 O 88.846 0.407799 -4.10379 0
M  V30 1002 H 88.187 -0.180278 -0.639059 0
M  V30 1003 H 90.717 -1.12972 -1.70583 0
M  V30 1004 H 90.727 -0.447708 -4.05536 0
M  V30 1005 H 89.402 -1.58103 -3.84677 0
M  V30 1006 H 87.979 0.246107 -3.72087 0
M  V30 1007 N 90.1641 1.46063 -0.591896 0
M  V30 1008 C 91.4101 2.02638 -0.0811191 0
M  V30 1009 C 91.7431 1.4613 1.27905 0
M  V30 1010 O 91.0181 0.629908 1.84017 0
M  V30 1011 C 91.3011 3.60091 -0.0252436 0
M  V30 1012 C 91.1541 4.26965 -1.41496 0
M  V30 1013 C 92.4731 4.3496 0.670685 0
M  V30 1014 H 89.5921 0.73635 -0.0309524 0
M  V30 1015 H 92.2341 1.741 -0.760859 0
M  V30 1016 H 90.3841 3.84535 0.553624 0
M  V30 1017 H 92.0561 4.13756 -2.0397 0
M  V30 1018 H 90.2991 3.85971 -1.98011 0
M  V30 1019 H 90.9701 5.35781 -1.32825 0
M  V30 1020 H 93.4461 4.15716 0.178825 0
M  V30 1021 H 92.3221 5.44686 0.678837 0
M  V30 1022 H 92.5831 4.06685 1.73379 0
M  V30 1023 N 91.6422 0.330177 1.54103 0
M  V30 1024 C 92.5522 -0.541534 2.28264 0
M  V30 1025 C 93.5682 -1.12351 1.32866 0
M  V30 1026 O 94.7442 -1.14206 1.65888 0
M  V30 1027 C 91.8092 -1.68322 3.03098 0
M  V30 1028 C 90.8702 -1.13238 4.14096 0
M  V30 1029 C 90.1032 -2.21966 4.85352 0
M  V30 1030 O 90.3262 -3.42437 4.56172 0
M  V30 1031 O 89.2602 -1.87013 5.7211 0
M  V30 1032 H 93.0862 0.060938 3.03639 0
M  V30 1033 H 90.6712 0.09565 1.49093 0
M  V30 1034 H 92.5532 -2.34777 3.49939 0
M  V30 1035 H 91.2282 -2.27176 2.30593 0
M  V30 1036 H 90.1352 -0.432736 3.71589 0
M  V30 1037 H 91.4682 -0.588898 4.88664 0
M  V30 1038 N 93.1203 -1.57491 0.0584922 0
M  V30 1039 C 94.3663 -1.93264 -0.614558 0
M  V30 1040 C 94.6993 -0.937717 -1.7006 0
M  V30 1041 O 93.9743 0.0351652 -1.94468 0
M  V30 1042 C 94.2573 -3.3938 -1.20386 0
M  V30 1043 C 94.1103 -4.49625 -0.125375 0
M  V30 1044 C 95.4293 -3.86039 -2.11334 0
M  V30 1045 H 92.5483 -0.702791 -0.221933 0
M  V30 1046 H 95.1903 -1.8961 0.12175 0
M  V30 1047 H 93.3403 -3.42626 -1.83139 0
M  V30 1048 H 95.0123 -4.58506 0.506971 0
M  V30 1049 H 93.2553 -4.30354 0.545672 0
M  V30 1050 H 93.9263 -5.48967 -0.577861 0
M  V30 1051 H 96.4023 -3.84716 -1.58534 0
M  V30 1052 H 95.2783 -4.88914 -2.49507 0
M  V30 1053 H 95.5393 -3.23215 -3.01636 0
M  V30 1054 N 94.5984 0.214957 -1.56127 0
M  V30 1055 C 95.5614 1.24997 -1.92116 0
M  V30 1056 C 96.5614 1.39467 -0.800344 0
M  V30 1057 O 97.7514 1.37619 -1.06802 0
M  V30 1058 C 94.8834 2.62271 -2.17777 0
M  V30 1059 H 96.0764 0.942875 -2.84693 0
M  V30 1060 H 93.6294 0.455654 -1.49511 0
M  V30 1061 H 94.3644 2.98068 -1.27773 0
M  V30 1062 H 94.1494 2.53143 -2.99434 0
M  V30 1063 H 95.6394 3.36946 -2.46693 0
M  V30 1064 N 96.0765 1.50051 0.48192 0
M  V30 1065 C 97.3245 1.60181 1.23234 0
M  V30 1066 C 97.6455 0.299176 1.92691 0
M  V30 1067 O 96.9155 -0.682708 1.83619 0
M  V30 1068 H 95.4955 0.590232 0.457859 0
M  V30 1069 H 98.1575 1.86775 0.556881 0
M  V30 1070 H 97.2535 2.40753 1.98607 0
M  V30 1071 N 97.5546 -0.734337 1.39446 0
M  V30 1072 C 98.7796 -1.52866 1.40167 0
M  V30 1073 C 99.2046 -1.881 -0.00171513 0
M  V30 1074 O 98.5626 -1.51957 -0.988879 0
M  V30 1075 C 98.6106 -2.79235 2.28167 0
M  V30 1076 O 97.7146 -3.75185 1.71201 0
M  V30 1077 H 97.0556 -0.461618 0.477289 0
M  V30 1078 H 99.5856 -0.905949 1.8345 0
M  V30 1079 H 99.5956 -3.27963 2.42702 0
M  V30 1080 H 98.2706 -2.52923 3.30156 0
M  V30 1081 H 96.8476 -3.33958 1.65912 0
M  V30 1082 N 99.0327 -1.24633 -0.964593 0
M  V30 1083 C 100.281 -1.08573 -1.70459 0
M  V30 1084 C 100.602 0.375655 -1.91347 0
M  V30 1085 O 99.8717 1.26779 -1.49345 0
M  V30 1086 H 98.4517 -0.398784 -0.631649 0
M  V30 1087 H 101.114 -1.56601 -1.16026 0
M  V30 1088 H 100.21 -1.58623 -2.68785 0
M  V30 1089 N 100.511 1.16574 -1.06058 0
M  V30 1090 C 101.759 1.86677 -0.77434 0
M  V30 1091 C 102.08 1.81959 0.701147 0
M  V30 1092 O 101.35 1.2515 1.50713 0
M  V30 1093 H 99.9298 0.691134 -0.283449 0
M  V30 1094 H 102.592 1.41378 -1.34158 0
M  V30 1095 H 101.688 2.92181 -1.09711 0
M  V30 1096 N 101.989 0.842826 1.3317 0
M  V30 1097 C 102.952 0.284065 2.27433 0
M  V30 1098 C 103.952 -0.54948 1.5112 0
M  V30 1099 O 105.142 -0.362699 1.70382 0
M  V30 1100 C 102.274 -0.599384 3.35589 0
M  V30 1101 H 103.467 1.11589 2.78366 0
M  V30 1102 H 101.02 0.616221 1.4364 0
M  V30 1103 H 101.755 -1.45349 2.89904 0
M  V30 1104 H 101.54 -0.00291266 3.921 0
M  V30 1105 H 103.03 -0.983488 4.05854 0
M  V30 1106 N 103.467 -1.45747 0.599634 0
M  V30 1107 C 104.883 -1.57424 0.26264 0
M  V30 1108 C 105.083 -1.59222 -1.23493 0
M  V30 1109 O 104.139 -1.51825 -2.01756 0
M  V30 1110 C 105.452 -2.86061 0.926795 0
M  V30 1111 C 107 -2.99722 0.901967 0
M  V30 1112 C 107.475 -4.31119 1.54598 0
M  V30 1113 N 108.966 -4.37858 1.5111 0
M  V30 1114 C 109.701 -5.3818 1.97863 0
M  V30 1115 N 109.197 -6.45083 2.52666 0
M  V30 1116 N 110.99 -5.29487 1.88679 0
M  V30 1117 H 103.141 -1.42823 1.57211 0
M  V30 1118 H 105.404 -0.68235 0.658105 0
M  V30 1119 H 105.11 -2.90605 1.98095 0
M  V30 1120 H 104.984 -3.74563 0.445238 0
M  V30 1121 H 107.371 -2.9475 -0.143617 0
M  V30 1122 H 107.452 -2.12652 1.42171 0
M  V30 1123 H 107.096 -4.36849 2.59085 0
M  V30 1124 H 107.026 -5.16992 1.00132 0
M  V30 1125 H 109.517 -3.61209 1.11068 0
M  V30 1126 H 109.83 -7.17869 2.86155 0
M  V30 1127 H 108.175 -6.45856 2.56701 0
M  V30 1128 H 111.366 -4.44877 1.4561 0
M  V30 1129 H 111.539 -6.07524 2.25429 0
M  V30 1130 N 104.945 -0.338344 -1.53925 0
M  V30 1131 C 106.361 0.0137736 -1.59594 0
M  V30 1132 C 106.561 1.49186 -1.35447 0
M  V30 1133 O 105.617 2.24987 -1.14616 0
M  V30 1134 C 106.93 -0.41773 -2.97784 0
M  V30 1135 C 108.478 -0.369633 -3.1081 0
M  V30 1136 C 108.953 -0.776524 -4.51369 0
M  V30 1137 N 110.444 -0.730506 -4.57403 0
M  V30 1138 C 111.179 -1.01736 -5.64303 0
M  V30 1139 N 110.675 -1.3721 -6.79077 0
M  V30 1140 N 112.468 -0.941942 -5.54151 0
M  V30 1141 H 104.619 -1.3012 -1.67876 0
M  V30 1142 H 106.882 -0.530082 -0.78595 0
M  V30 1143 H 106.588 -1.44811 -3.20504 0
M  V30 1144 H 106.462 0.209729 -3.76616 0
M  V30 1145 H 108.849 0.651568 -2.87817 0
M  V30 1146 H 108.93 -1.03223 -2.34049 0
M  V30 1147 H 108.574 -1.79571 -4.75096 0
M  V30 1148 H 108.504 -0.0914649 -5.26521 0
M  V30 1149 H 110.995 -0.468783 -3.74981 0
M  V30 1150 H 111.308 -1.57597 -7.5656 0
M  V30 1151 H 109.653 -1.4105 -6.80536 0
M  V30 1152 H 112.844 -0.664184 -4.63364 0
M  V30 1153 H 113.017 -1.16884 -6.37371 0
M  V30 1154 N 106.423 1.57458 -0.0668435 0
M  V30 1155 C 107.648 1.9804 0.616027 0
M  V30 1156 C 108.073 0.944771 1.62652 0
M  V30 1157 O 107.431 -0.0902094 1.81075 0
M  V30 1158 C 107.479 3.37665 1.26549 0
M  V30 1159 O 106.583 3.36701 2.38131 0
M  V30 1160 H 105.924 0.644719 0.158849 0
M  V30 1161 H 108.454 2.04121 -0.139891 0
M  V30 1162 H 108.464 3.7474 1.6135 0
M  V30 1163 H 107.139 4.12573 0.525016 0
M  V30 1164 H 105.716 3.1139 2.0516 0
M  V30 1165 N 107.901 -0.206675 1.56239 0
M  V30 1166 C 108.864 -1.23976 1.92776 0
M  V30 1167 C 109.864 -1.39041 0.807729 0
M  V30 1168 O 111.054 -1.37051 1.0753 0
M  V30 1169 C 108.186 -2.61112 2.19165 0
M  V30 1170 H 109.379 -0.927764 2.85189 0
M  V30 1171 H 106.932 -0.447718 1.4975 0
M  V30 1172 H 107.667 -2.97386 1.29352 0
M  V30 1173 H 107.452 -2.51552 3.00772 0
M  V30 1174 H 108.942 -3.35633 2.48476 0
M  V30 1175 N 109.379 -1.50304 -0.473955 0
M  V30 1176 C 110.309 -1.71886 -1.58042 0
M  V30 1177 C 111.29 -0.567799 -1.60344 0
M  V30 1178 O 112.475 -0.806623 -1.76656 0
M  V30 1179 C 109.605 -1.81036 -2.96384 0
M  V30 1180 C 108.559 -2.962 -3.08949 0
M  V30 1181 C 107.885 -2.9049 -4.48909 0
M  V30 1182 C 109.185 -4.36752 -2.86434 0
M  V30 1183 H 110.879 -2.64527 -1.40234 0
M  V30 1184 H 108.425 -1.27295 -0.673201 0
M  V30 1185 H 110.378 -1.94719 -3.73714 0
M  V30 1186 H 109.102 -0.850147 -3.15341 0
M  V30 1187 H 107.761 -2.82164 -2.3405 0
M  V30 1188 H 107.409 -1.92321 -4.64781 0
M  V30 1189 H 107.109 -3.67802 -4.58253 0
M  V30 1190 H 108.633 -3.06218 -5.28264 0
M  V30 1191 H 110.047 -4.5133 -3.53517 0
M  V30 1192 H 108.444 -5.15493 -3.07225 0
M  V30 1193 H 109.514 -4.49321 -1.82316 0
M  V30 1194 N 110.857 0.726932 -1.39834 0
M  V30 1195 C 111.787 1.85405 -1.41941 0
M  V30 1196 C 112.768 1.67751 -0.281728 0
M  V30 1197 O 113.953 1.8795 -0.488717 0
M  V30 1198 C 111.083 3.23243 -1.2701 0
M  V30 1199 C 110.037 3.55549 -2.38262 0
M  V30 1200 C 109.363 4.9241 -2.08415 0
M  V30 1201 C 110.663 3.577 -3.80589 0
M  V30 1202 H 112.357 1.83899 -2.36266 0
M  V30 1203 H 109.903 0.883349 -1.13723 0
M  V30 1204 H 111.856 4.01775 -1.27103 0
M  V30 1205 H 110.58 3.25296 -0.291564 0
M  V30 1206 H 109.239 2.79351 -2.37399 0
M  V30 1207 H 108.887 4.91052 -1.0898 0
M  V30 1208 H 108.587 5.14992 -2.82943 0
M  V30 1209 H 110.111 5.73289 -2.10171 0
M  V30 1210 H 111.525 4.26293 -3.83337 0
M  V30 1211 H 109.922 3.91804 -4.54543 0
M  V30 1212 H 110.992 2.57328 -4.10987 0
M  V30 1213 N 112.336 1.25143 0.95797 0
M  V30 1214 C 113.613 1.00472 1.67823 0
M  V30 1215 C 113.993 -0.470056 2.058 0
M  V30 1216 O 113.341 -1.44663 1.76875 0
M  V30 1217 C 113.551 1.9372 2.90299 0
M  V30 1218 C 114.899 2.21371 3.62326 0
M  V30 1219 O 115.923 1.91451 3.00375 0
M  V30 1220 O 114.782 2.72231 4.7387 0
M  V30 1221 H 111.876 0.380752 0.734137 0
M  V30 1222 H 114.422 1.36283 1.01119 0
M  V30 1223 H 113.194 2.93316 2.59001 0
M  V30 1224 H 112.817 1.58286 3.64735 0
M  V30 1225 N 113.814 -1.1601 1.06675 0
M  V30 1226 C 115.039 -1.91068 0.806706 0
M  V30 1227 C 115.464 -1.77112 -0.633485 0
M  V30 1228 O 114.822 -1.09908 -1.44187 0
M  V30 1229 C 114.87 -3.39655 1.21106 0
M  V30 1230 O 113.974 -4.10893 0.352189 0
M  V30 1231 H 113.315 -0.595125 0.294486 0
M  V30 1232 H 115.845 -1.46955 1.42356 0
M  V30 1233 H 115.855 -3.90434 1.18428 0
M  V30 1234 H 114.53 -3.49132 2.26008 0
M  V30 1235 H 113.107 -3.70285 0.440868 0
M  V30 1236 N 115.292 -0.849877 -1.32721 0
M  V30 1237 C 116.569 -0.372405 -1.92022 0
M  V30 1238 C 116.949 1.1435 -1.77447 0
M  V30 1239 O 116.297 1.96296 -1.16962 0
M  V30 1240 C 116.507 -0.831482 -3.3895 0
M  V30 1241 C 117.855 -0.845882 -4.16089 0
M  V30 1242 O 118.879 -0.775806 -3.47649 0
M  V30 1243 O 117.738 -0.943753 -5.38289 0
M  V30 1244 H 114.832 -0.107667 -0.819961 0
M  V30 1245 H 117.378 -0.93646 -1.41522 0
M  V30 1246 H 116.15 -1.87448 -3.4348 0
M  V30 1247 H 115.773 -0.24461 -3.96847 0
M  V30 1248 N 116.77 1.45427 -0.607355 0
M  V30 1249 C 117.68 2.34325 0.113463 0
M  V30 1250 C 118.696 1.51226 0.860617 0
M  V30 1251 O 119.872 1.84029 0.818255 0
M  V30 1252 C 116.937 3.28839 1.09844 0
M  V30 1253 C 115.998 4.27844 0.353271 0
M  V30 1254 C 115.231 5.17842 1.29133 0
M  V30 1255 O 115.454 5.11264 2.52913 0
M  V30 1256 O 114.388 5.96713 0.788523 0
M  V30 1257 H 118.214 2.97364 -0.617094 0
M  V30 1258 H 115.799 1.44807 -0.367619 0
M  V30 1259 H 117.681 3.8708 1.66575 0
M  V30 1260 H 116.356 2.68365 1.81003 0
M  V30 1261 H 115.263 3.7322 -0.256494 0
M  V30 1262 H 116.596 4.91173 -0.317822 0
M  V30 1263 N 118.248 0.346503 1.53744 0
M  V30 1264 C 119.659 -0.136779 1.86198 0
M  V30 1265 C 120.01 -1.49749 1.26766 0
M  V30 1266 O 119.135 -2.08417 0.582355 0
M  V30 1267 C 119.73 -0.254966 3.37839 0
M  V30 1268 C 118.289 -0.682482 3.70161 0
M  V30 1269 C 117.436 0.181981 2.76702 0
M  V30 1270 H 120.387 0.565994 1.48264 0
M  V30 1271 H 120.408 -1.08195 3.64793 0
M  V30 1272 H 119.92 0.735526 3.81066 0
M  V30 1273 H 118.021 -1.68189 3.3248 0
M  V30 1274 H 118.134 -0.470326 4.76786 0
M  V30 1275 H 116.498 -0.34615 2.52337 0
M  V30 1276 H 117.281 1.16966 3.2276 0
M  V30 1277 N 119.726 -1.57421 0.075193 0
M  V30 1278 C 120.656 -2.15942 -0.888324 0
M  V30 1279 C 121.637 -1.08737 -1.30806 0
M  V30 1280 O 122.822 -1.36787 -1.37851 0
M  V30 1281 C 119.952 -2.72379 -2.1547 0
M  V30 1282 C 118.906 -3.8478 -1.87425 0
M  V30 1283 C 118.232 -4.27834 -3.20721 0
M  V30 1284 C 119.532 -5.08869 -1.17684 0
M  V30 1285 H 121.226 -2.96705 -0.400799 0
M  V30 1286 H 118.772 -1.42723 -0.191342 0
M  V30 1287 H 120.725 -3.11965 -2.83295 0
M  V30 1288 H 119.449 -1.88841 -2.6647 0
M  V30 1289 H 118.108 -3.45703 -1.22004 0
M  V30 1290 H 117.756 -3.41214 -3.6957 0
M  V30 1291 H 117.456 -5.03605 -3.02746 0
M  V30 1292 H 118.98 -4.70039 -3.89738 0
M  V30 1293 H 120.394 -5.4575 -1.75584 0
M  V30 1294 H 118.791 -5.8994 -1.09956 0
M  V30 1295 H 119.861 -4.84648 -0.156453 0
M  V30 1296 N 121.204 0.198386 -1.56346 0
M  V30 1297 C 122.45 0.920648 -1.80698 0
M  V30 1298 C 122.783 1.83045 -0.648697 0
M  V30 1299 O 122.058 1.91308 0.350925 0
M  V30 1300 C 122.341 1.73971 -3.15287 0
M  V30 1301 C 122.194 0.85485 -4.41602 0
M  V30 1302 C 123.513 2.71296 -3.46535 0
M  V30 1303 H 120.632 0.333261 -0.657348 0
M  V30 1304 H 123.274 0.188198 -1.89066 0
M  V30 1305 H 121.424 2.36416 -3.08285 0
M  V30 1306 H 123.096 0.245362 -4.60647 0
M  V30 1307 H 121.339 0.161398 -4.335 0
M  V30 1308 H 122.01 1.46286 -5.32264 0
M  V30 1309 H 124.486 2.18983 -3.53816 0
M  V30 1310 H 123.362 3.2569 -4.41834 0
M  V30 1311 H 123.623 3.5018 -2.69864 0
M  V30 1312 N 122.682 1.50554 0.465978 0
M  V30 1313 C 123.912 1.65323 1.23903 0
M  V30 1314 C 124.32 0.338051 1.86155 0
M  V30 1315 O 123.663 -0.690518 1.70228 0
M  V30 1316 C 123.725 2.69048 2.3844 0
M  V30 1317 C 123.389 4.12462 1.96784 0
M  V30 1318 C 124.386 4.98168 1.48745 0
M  V30 1319 C 122.071 4.58407 2.05349 0
M  V30 1320 C 124.065 6.27868 1.0982 0
M  V30 1321 C 121.752 5.88112 1.66035 0
M  V30 1322 C 122.75 6.72668 1.18349 0
M  V30 1323 O 122.438 7.99951 0.795825 0
M  V30 1324 H 122.17 0.558629 0.38067 0
M  V30 1325 H 124.724 1.97561 0.562022 0
M  V30 1326 H 122.954 2.32062 3.09328 0
M  V30 1327 H 124.643 2.72985 3.0039 0
M  V30 1328 H 125.409 4.63885 1.41546 0
M  V30 1329 H 121.288 3.92735 2.41414 0
M  V30 1330 H 124.832 6.93819 0.725293 0
M  V30 1331 H 120.729 6.21914 1.72895 0
M  V30 1332 H 121.497 8.13265 0.924222 0
M  V30 1333 N 124.16 -0.719506 1.40217 0
M  V30 1334 C 125.407 -1.47933 1.38283 0
M  V30 1335 C 125.735 -1.94493 -0.0161536 0
M  V30 1336 O 124.99 -1.68224 -0.999956 0
M  V30 1337 C 125.289 -2.72271 2.31524 0
M  V30 1338 C 124.955 -2.44496 3.78857 0
M  V30 1339 C 123.617 -2.36631 4.18998 0
M  V30 1340 C 125.969 -2.21104 4.71977 0
M  V30 1341 C 123.297 -2.03437 5.503 0
M  V30 1342 C 125.649 -1.89423 6.03574 0
M  V30 1343 C 124.313 -1.80038 6.42762 0
M  V30 1344 H 123.583 -0.541325 0.506012 0
M  V30 1345 H 126.23 -0.824502 1.72842 0
M  V30 1346 H 124.535 -3.42572 1.90137 0
M  V30 1347 H 126.232 -3.30348 2.27313 0
M  V30 1348 H 122.822 -2.51503 3.47051 0
M  V30 1349 H 127.006 -2.26139 4.41786 0
M  V30 1350 H 122.262 -1.94705 5.79569 0
M  V30 1351 H 126.436 -1.70336 6.75247 0
M  V30 1352 H 124.063 -1.54083 7.44421 0
M  V30 1353 N 125.638 -1.25649 -0.95132 0
M  V30 1354 C 126.868 -1.13179 -1.72841 0
M  V30 1355 C 127.276 0.316827 -1.86528 0
M  V30 1356 O 126.619 1.22948 -1.3649 0
M  V30 1357 C 126.681 -1.71644 -3.15878 0
M  V30 1358 C 126.345 -3.20667 -3.25609 0
M  V30 1359 C 127.342 -4.17616 -3.09666 0
M  V30 1360 C 125.027 -3.6094 -3.49324 0
M  V30 1361 C 127.021 -5.52817 -3.17289 0
M  V30 1362 C 124.708 -4.96278 -3.56584 0
M  V30 1363 C 125.706 -5.92025 -3.40581 0
M  V30 1364 O 125.394 -7.24899 -3.47528 0
M  V30 1365 H 125.126 -0.395389 -0.54831 0
M  V30 1366 H 127.68 -1.66566 -1.20187 0
M  V30 1367 H 125.91 -1.12707 -3.69911 0
M  V30 1368 H 127.599 -1.54225 -3.75459 0
M  V30 1369 H 128.365 -3.87842 -2.91211 0
M  V30 1370 H 124.244 -2.86907 -3.6084 0
M  V30 1371 H 127.788 -6.2753 -3.04716 0
M  V30 1372 H 123.685 -5.25716 -3.74556 0
M  V30 1373 H 124.453 -7.33039 -3.64138 0
M  V30 1374 N 127.117 1.15442 -1.07289 0
M  V30 1375 C 128.394 1.82306 -0.708792 0
M  V30 1376 C 128.774 1.94991 0.808807 0
M  V30 1377 O 128.122 1.50085 1.72298 0
M  V30 1378 C 128.332 3.18695 -1.42247 0
M  V30 1379 C 129.68 3.94341 -1.57417 0
M  V30 1380 O 130.704 3.28247 -1.38319 0
M  V30 1381 O 129.563 5.12839 -1.88834 0
M  V30 1382 H 126.657 0.787628 -0.252132 0
M  V30 1383 H 129.203 1.22559 -1.17377 0
M  V30 1384 H 127.975 3.04557 -2.45684 0
M  V30 1385 H 127.598 3.86128 -0.948223 0
M  V30 1386 N 128.595 0.856903 1.32268 0
M  V30 1387 C 129.872 0.382583 1.91822 0
M  V30 1388 C 130.252 -1.13407 1.78051 0
M  V30 1389 O 129.6 -1.95673 1.18001 0
M  V30 1390 C 129.81 0.849446 3.38505 0
M  V30 1391 C 131.158 0.867936 4.15634 0
M  V30 1392 O 132.182 0.794232 3.47232 0
M  V30 1393 O 131.041 0.972286 5.37781 0
M  V30 1394 H 128.135 0.112014 0.819379 0
M  V30 1395 H 130.681 0.943952 1.41024 0
M  V30 1396 H 129.453 1.89267 3.42482 0
M  V30 1397 H 129.076 0.265652 3.96712 0
M  V30 1398 N 130.073 -1.45103 0.615059 0
M  V30 1399 C 131.319 -2.02483 0.113347 0
M  V30 1400 C 131.652 -1.48146 -1.25564 0
M  V30 1401 O 130.927 -0.659104 -1.82992 0
M  V30 1402 C 131.21 -3.60005 0.0825278 0
M  V30 1403 C 131.063 -4.2466 1.48271 0
M  V30 1404 C 132.382 -4.35972 -0.601401 0
M  V30 1405 H 129.501 -0.735764 0.0426632 0
M  V30 1406 H 132.143 -1.72868 0.788461 0
M  V30 1407 H 130.293 -3.85367 -0.492378 0
M  V30 1408 H 131.965 -4.10458 2.10527 0
M  V30 1409 H 130.208 -3.82772 2.04127 0
M  V30 1410 H 130.879 -5.336 1.41332 0
M  V30 1411 H 133.355 -4.15947 -0.112666 0
M  V30 1412 H 132.231 -5.45697 -0.592097 0
M  V30 1413 H 132.492 -4.09391 -1.66887 0
M  V30 1414 N 131.551 -0.354651 -1.53558 0
M  V30 1415 C 132.779 0.239515 -2.05509 0
M  V30 1416 C 133.194 1.4333 -1.2289 0
M  V30 1417 O 132.551 1.80538 -0.266899 0
M  V30 1418 C 132.602 0.643719 -3.55723 0
M  V30 1419 O 132.323 -0.502602 -4.35207 0
M  V30 1420 C 133.824 1.29743 -4.23889 0
M  V30 1421 H 131.044 0.0442697 -0.669538 0
M  V30 1422 H 133.588 -0.509856 -1.98042 0
M  V30 1423 H 131.743 1.34302 -3.63376 0
M  V30 1424 H 132.157 -0.178172 -5.24197 0
M  V30 1425 H 133.631 1.53091 -5.30346 0
M  V30 1426 H 134.108 2.25441 -3.76926 0
M  V30 1427 H 134.714 0.639865 -4.20459 0
M  V30 1428 N 133.029 1.57378 -0.0835403 0
M  V30 1429 C 134.257 1.98263 0.59157 0
M  V30 1430 C 134.672 0.962302 1.62435 0
M  V30 1431 O 134.029 -0.049581 1.82433 0
M  V30 1432 C 134.08 3.39214 1.24965 0
M  V30 1433 O 133.801 4.37339 0.258186 0
M  V30 1434 C 135.302 3.95038 2.01147 0
M  V30 1435 H 132.522 0.651773 0.159477 0
M  V30 1436 H 135.066 2.03878 -0.159415 0
M  V30 1437 H 133.221 3.34649 1.95164 0
M  V30 1438 H 133.635 5.19371 0.731734 0
M  V30 1439 H 135.109 4.95848 2.42567 0
M  V30 1440 H 135.586 3.32222 2.87272 0
M  V30 1441 H 136.192 4.0304 1.35789 0
M  V30 1442 N 134.507 -0.190092 1.56449 0
M  V30 1443 C 135.437 -1.23816 1.97969 0
M  V30 1444 C 136.418 -1.47201 0.852395 0
M  V30 1445 O 137.603 -1.58854 1.1171 0
M  V30 1446 C 134.733 -2.5813 2.3235 0
M  V30 1447 C 133.687 -2.49348 3.47864 0
M  V30 1448 C 133.013 -3.8798 3.67934 0
M  V30 1449 C 134.313 -2.01424 4.81898 0
M  V30 1450 H 136.007 -0.89311 2.85769 0
M  V30 1451 H 133.553 -0.428177 1.37487 0
M  V30 1452 H 135.506 -3.31637 2.59991 0
M  V30 1453 H 134.23 -2.94386 1.41438 0
M  V30 1454 H 132.889 -1.78297 3.20321 0
M  V30 1455 H 132.537 -4.21597 2.74344 0
M  V30 1456 H 132.237 -3.82978 4.45648 0
M  V30 1457 H 133.761 -4.63101 3.97957 0
M  V30 1458 H 135.175 -2.64693 5.08538 0
M  V30 1459 H 133.572 -2.07413 5.63116 0
M  V30 1460 H 134.642 -0.967677 4.75146 0
M  V30 1461 N 135.985 -1.50799 -0.457987 0
M  V30 1462 C 137.215 -1.65977 -1.23025 0
M  V30 1463 C 137.623 -0.347918 -1.85974 0
M  V30 1464 O 136.966 0.68148 -1.70592 0
M  V30 1465 C 137.028 -2.70309 -2.3701 0
M  V30 1466 C 136.692 -4.135 -1.94594 0
M  V30 1467 C 137.689 -4.98949 -1.46101 0
M  V30 1468 C 135.374 -4.5949 -2.02915 0
M  V30 1469 C 137.368 -6.28442 -1.06489 0
M  V30 1470 C 135.055 -5.88984 -1.62914 0
M  V30 1471 C 136.053 -6.73286 -1.1478 0
M  V30 1472 O 135.741 -8.00362 -0.75339 0
M  V30 1473 H 135.473 -0.56064 -0.377702 0
M  V30 1474 H 138.027 -1.97857 -0.551537 0
M  V30 1475 H 136.257 -2.337 -3.08093 0
M  V30 1476 H 137.946 -2.74574 -2.98938 0
M  V30 1477 H 138.712 -4.6463 -1.39084 0
M  V30 1478 H 134.591 -3.94009 -2.39328 0
M  V30 1479 H 138.135 -6.94194 -0.688488 0
M  V30 1480 H 134.032 -6.22822 -1.69595 0
M  V30 1481 H 134.8 -8.13744 -0.88108 0
M  V30 1482 N 137.463 0.71206 -1.40597 0
M  V30 1483 C 138.373 1.8562 -1.43466 0
M  V30 1484 C 139.389 1.70902 -0.326902 0
M  V30 1485 O 140.565 1.93105 -0.572043 0
M  V30 1486 C 137.63 3.21451 -1.29884 0
M  V30 1487 C 136.691 3.48398 -2.50833 0
M  V30 1488 C 135.924 4.77749 -2.3789 0
M  V30 1489 O 136.147 5.53089 -1.39459 0
M  V30 1490 O 135.081 5.05111 -3.27333 0
M  V30 1491 H 138.907 1.86155 -2.39958 0
M  V30 1492 H 136.492 0.86295 -1.21957 0
M  V30 1493 H 138.374 4.02579 -1.24531 0
M  V30 1494 H 137.049 3.21636 -0.364997 0
M  V30 1495 H 135.956 2.67265 -2.61763 0
M  V30 1496 H 137.289 3.53014 -3.4299 0
M  V30 1497 N 138.941 1.26152 0.944643 0
M  V30 1498 C 140.189 1.11271 1.6871 0
M  V30 1499 C 140.51 -0.345166 1.91921 0
M  V30 1500 O 139.78 -1.24387 1.51343 0
M  V30 1501 H 138.36 0.408783 0.625224 0
M  V30 1502 H 141.022 1.58427 1.1352 0
M  V30 1503 H 140.118 1.62879 2.66227 0
M  V30 1504 N 140.419 -1.14872 1.07899 0
M  V30 1505 C 141.666 -1.85789 0.805532 0
M  V30 1506 C 141.994 -1.82649 -0.668561 0
M  V30 1507 O 141.249 -1.24858 -1.50695 0
M  V30 1508 C 141.548 -3.34223 1.26609 0
M  V30 1509 C 141.214 -3.57555 2.74709 0
M  V30 1510 C 139.876 -3.63631 3.1516 0
M  V30 1511 C 142.228 -3.66803 3.70277 0
M  V30 1512 C 139.556 -3.76473 4.49983 0
M  V30 1513 C 141.908 -3.8117 5.04869 0
M  V30 1514 C 140.572 -3.85494 5.44932 0
M  V30 1515 H 139.842 -0.679849 0.294765 0
M  V30 1516 H 142.489 -1.3572 1.35101 0
M  V30 1517 H 140.794 -3.86536 0.640103 0
M  V30 1518 H 142.491 -3.87511 1.03132 0
M  V30 1519 H 139.081 -3.5347 2.42398 0
M  V30 1520 H 143.265 -3.61404 3.40149 0
M  V30 1521 H 138.521 -3.7808 4.80484 0
M  V30 1522 H 142.695 -3.87268 5.78789 0
M  V30 1523 H 140.322 -3.95197 6.49403 0
M  V30 1524 N 141.898 -0.863906 -1.31812 0
M  V30 1525 C 142.83 -0.272485 -2.27575 0
M  V30 1526 C 143.843 0.56104 -1.52827 0
M  V30 1527 O 145.032 0.384021 -1.7432 0
M  V30 1528 C 142.132 0.63283 -3.32939 0
M  V30 1529 C 141.305 -0.166902 -4.37081 0
M  V30 1530 C 140.364 0.665608 -5.21973 0
M  V30 1531 O 139.39 0.0958091 -5.69119 0
M  V30 1532 N 140.592 1.9787 -5.45736 0
M  V30 1533 H 143.357 -1.0954 -2.78964 0
M  V30 1534 H 140.918 -0.724791 -1.4477 0
M  V30 1535 H 142.91 1.19532 -3.86645 0
M  V30 1536 H 141.48 1.35642 -2.81638 0
M  V30 1537 H 140.7 -0.910838 -3.83533 0
M  V30 1538 H 141.988 -0.715874 -5.03739 0
M  V30 1539 H 141.386 2.46484 -5.09178 0
M  V30 1540 H 139.943 2.48911 -6.024 0
M  V30 1541 N 143.376 1.44774 -0.622745 0
M  V30 1542 C 144.792 1.56986 -0.287652 0
M  V30 1543 C 144.992 1.61167 1.20944 0
M  V30 1544 O 144.048 1.55015 1.99315 0
M  V30 1545 C 145.361 2.84551 -0.972188 0
M  V30 1546 C 146.909 2.9825 -0.949536 0
M  V30 1547 C 147.384 4.28605 -1.61437 0
M  V30 1548 N 148.875 4.35399 -1.58057 0
M  V30 1549 C 149.61 5.34964 -2.064 0
M  V30 1550 N 149.106 6.40981 -2.62897 0
M  V30 1551 N 150.899 5.26419 -1.97078 0
M  V30 1552 H 143.05 1.40304 -1.59463 0
M  V30 1553 H 145.313 0.671794 -0.668878 0
M  V30 1554 H 145.019 2.87417 -2.02693 0
M  V30 1555 H 144.893 3.73807 -0.504771 0
M  V30 1556 H 147.28 2.94941 0.0967067 0
M  V30 1557 H 147.361 2.10364 -1.45536 0
M  V30 1558 H 147.005 4.32672 -2.66002 0
M  V30 1559 H 146.935 5.15334 -1.08344 0
M  V30 1560 H 149.426 3.59397 -1.16801 0
M  V30 1561 H 149.739 7.13225 -2.97539 0
M  V30 1562 H 148.084 6.4169 -2.66943 0
M  V30 1563 H 151.275 4.42504 -1.52669 0
M  V30 1564 H 151.448 6.03861 -2.35066 0
M  V30 1565 N 144.854 0.36279 1.53368 0
M  V30 1566 C 146.102 -0.227326 2.00817 0
M  V30 1567 C 146.423 -1.49511 1.25186 0
M  V30 1568 O 145.693 -1.92482 0.364348 0
M  V30 1569 H 144.273 -0.0869923 0.741917 0
M  V30 1570 H 146.935 0.488381 1.88682 0
M  V30 1571 H 146.031 -0.456273 3.08747 0
M  V30 1572 N 146.332 -1.57332 0.0918853 0
M  V30 1573 C 147.581 -1.93412 -0.572249 0
M  V30 1574 C 147.894 -0.975515 -1.69538 0
M  V30 1575 O 149.1 -1.22991 -2.42045 0
M  V30 1576 C 147.556 -3.43648 -1.0693 0
M  V30 1577 C 147.164 -4.47994 0.0239049 0
M  V30 1578 C 148.908 -3.88695 -1.70635 0
M  V30 1579 C 146.815 -5.89381 -0.488319 0
M  V30 1580 H 145.745 -0.721939 -0.217532 0
M  V30 1581 H 148.396 -1.82735 0.167369 0
M  V30 1582 H 146.778 -3.49466 -1.8625 0
M  V30 1583 H 147.952 -4.53815 0.799277 0
M  V30 1584 H 146.267 -4.12536 0.565946 0
M  V30 1585 H 148.864 -4.91725 -2.10025 0
M  V30 1586 H 149.207 -3.27166 -2.57426 0
M  V30 1587 H 149.74 -3.85564 -0.979023 0
M  V30 1588 H 146.479 -6.54602 0.342906 0
M  V30 1589 H 145.999 -5.87037 -1.23077 0
M  V30 1590 H 147.678 -6.39863 -0.958317 0
M  V30 1591 N 147.81 0.181792 -1.56548 0
M  V30 1592 C 148.742 1.24956 -1.92142 0
M  V30 1593 C 149.755 1.41022 -0.813422 0
M  V30 1594 O 150.944 1.41212 -1.09186 0
M  V30 1595 C 148.044 2.61981 -2.14987 0
M  V30 1596 C 147.217 2.6735 -3.46183 0
M  V30 1597 C 146.276 3.85664 -3.5798 0
M  V30 1598 O 145.302 3.72148 -4.30691 0
M  V30 1599 N 146.504 5.01683 -2.92053 0
M  V30 1600 H 149.269 0.947329 -2.84334 0
M  V30 1601 H 146.83 0.371629 -1.57577 0
M  V30 1602 H 148.822 3.3958 -2.20154 0
M  V30 1603 H 147.392 2.84637 -1.2923 0
M  V30 1604 H 146.612 1.75925 -3.52766 0
M  V30 1605 H 147.9 2.67939 -4.32534 0
M  V30 1606 H 147.298 5.15564 -2.32832 0
M  V30 1607 H 145.855 5.77181 -3.0283 0
M  V30 1608 N 149.288 1.51039 0.449983 0
M  V30 1609 C 150.534 1.63322 1.20223 0
M  V30 1610 C 150.867 0.34241 1.91158 0
M  V30 1611 O 150.142 -0.657344 1.83055 0
M  V30 1612 C 150.425 2.82801 2.22925 0
M  V30 1613 C 150.278 4.21823 1.56157 0
M  V30 1614 C 151.597 2.97807 3.24035 0
M  V30 1615 H 148.716 0.594407 0.435718 0
M  V30 1616 H 151.358 1.83489 0.493136 0
M  V30 1617 H 149.508 2.65738 2.834 0
M  V30 1618 H 151.18 4.50526 0.991162 0
M  V30 1619 H 149.423 4.25105 0.864172 0
M  V30 1620 H 150.094 5.01391 2.30891 0
M  V30 1621 H 152.57 3.13497 2.73603 0
M  V30 1622 H 151.446 3.82992 3.93202 0
M  V30 1623 H 151.707 2.09328 3.89402 0
M  V30 1624 N 150.766 -0.704594 1.40972 0
M  V30 1625 C 151.991 -1.49858 1.43378 0
M  V30 1626 C 152.416 -1.88061 0.038184 0
M  V30 1627 O 151.774 -1.5402 -0.956425 0
M  V30 1628 C 151.822 -2.74333 2.34038 0
M  V30 1629 O 150.926 -3.7147 1.7912 0
M  V30 1630 H 150.267 -0.45139 0.486974 0
M  V30 1631 H 152.797 -0.866832 1.8533 0
M  V30 1632 H 152.807 -3.22741 2.49604 0
M  V30 1633 H 151.482 -2.45863 3.35446 0
M  V30 1634 H 150.059 -3.30363 1.72958 0
M  V30 1635 N 152.244 -1.26651 -0.937939 0
M  V30 1636 C 153.192 -1.08308 -2.05845 0
M  V30 1637 C 154.186 -0.0090757 -1.69398 0
M  V30 1638 O 155.392 -0.166007 -1.79233 0
M  V30 1639 H 151.767 -0.333416 -0.674046 0
M  V30 1640 H 153.738 -2.03261 -2.18467 0
M  V30 1641 C 152.487 -0.736229 -3.39816 0
M  V30 1642 H 151.81 -1.55453 -3.6834 0
M  V30 1643 H 153.25 -0.64769 -4.19024 0
M  V30 1644 C 151.709 0.558824 -3.32233 0
M  V30 1645 O 152.239 1.59621 -3.68624 0
M  V30 1646 N 150.445 0.550657 -2.85335 0
M  V30 1647 H 149.992 -0.293943 -2.55917 0
M  V30 1648 H 149.95 1.41726 -2.80644 0
M  V30 1649 N 153.722 1.14298 -1.08507 0
M  V30 1650 C 154.67 2.21483 -0.710483 0
M  V30 1651 C 155.664 1.66998 0.284234 0
M  V30 1652 O 156.87 1.79401 0.146692 0
M  V30 1653 H 153.245 0.721578 -0.211729 0
M  V30 1654 H 155.216 2.50348 -1.62384 0
M  V30 1655 C 153.965 3.4743 -0.137007 0
M  V30 1656 H 153.288 3.89686 -0.893592 0
M  V30 1657 H 154.728 4.2391 0.0872789 0
M  V30 1658 C 153.187 3.17548 1.12538 0
M  V30 1659 O 153.717 3.35437 2.21009 0
M  V30 1660 N 151.923 2.71499 1.03617 0
M  V30 1661 H 151.47 2.57143 0.153403 0
M  V30 1662 H 151.428 2.51881 1.88158 0
M  V30 1663 N 155.201 0.870884 1.31352 0
M  V30 1664 C 156.449 0.48132 1.96285 0
M  V30 1665 C 156.77 -0.969813 1.69173 0
M  V30 1666 O 156.04 -1.67998 1.00764 0
M  V30 1667 H 154.62 0.175002 0.726212 0
M  V30 1668 H 157.282 1.11087 1.60143 0
M  V30 1669 H 156.378 0.639825 3.05471 0
M  V30 1670 N 156.679 -1.44442 0.630414 0
M  V30 1671 C 158.09 -1.85434 0.217063 0
M  V30 1672 C 158.441 -1.52748 -1.23136 0
M  V30 1673 O 157.566 -0.965205 -1.93682 0
M  V30 1674 C 158.161 -3.36581 0.387168 0
M  V30 1675 C 156.72 -3.76389 0.0283297 0
M  V30 1676 C 155.867 -2.68296 0.700889 0
M  V30 1677 H 158.818 -1.34919 0.83562 0
M  V30 1678 H 158.839 -3.78657 -0.374086 0
M  V30 1679 H 158.351 -3.60339 1.44144 0
M  V30 1680 H 156.452 -3.58246 -1.02423 0
M  V30 1681 H 156.565 -4.77095 0.437892 0
M  V30 1682 H 154.929 -2.54335 0.136267 0
M  V30 1683 H 155.712 -2.94887 1.75774 0
M  V30 1684 N 158.157 -0.370918 -1.53173 0
M  V30 1685 C 159.397 0.217106 -2.03244 0
M  V30 1686 C 159.761 1.45558 -1.25207 0
M  V30 1687 O 160.962 2.11957 -1.65311 0
M  V30 1688 C 159.233 0.496664 -3.53932 0
M  V30 1689 S 160.792 1.0576 -4.25864 0
M  V30 1690 H 157.61 0.0627827 -0.708223 0
M  V30 1691 H 160.212 -0.515019 -1.88594 0
M  V30 1692 H 158.916 -0.412096 -4.08326 0
M  V30 1693 H 158.447 1.25772 -3.72753 0
M  V30 1694 H 160.462 2.34145 -4.37482 0
M  V30 1695 N 159.635 1.57281 -0.100228 0
M  V30 1696 C 160.565 2.17328 0.853857 0
M  V30 1697 C 161.546 1.10804 1.2906 0
M  V30 1698 O 162.731 1.38963 1.35657 0
M  V30 1699 C 159.861 2.75772 2.11109 0
M  V30 1700 C 158.815 3.87713 1.81279 0
M  V30 1701 C 158.141 4.32882 3.13874 0
M  V30 1702 C 159.441 5.10677 1.09574 0
M  V30 1703 H 161.135 2.97305 0.353545 0
M  V30 1704 H 158.681 1.43009 0.168612 0
M  V30 1705 H 160.634 3.16433 2.78296 0
M  V30 1706 H 159.358 1.93057 2.63432 0
M  V30 1707 H 158.017 3.476 1.16489 0
M  V30 1708 H 157.665 3.47051 3.64095 0
M  V30 1709 H 157.365 5.08358 2.94696 0
M  V30 1710 H 158.889 4.7618 3.82211 0
M  V30 1711 H 160.303 5.48474 1.66879 0
M  V30 1712 H 158.7 5.91615 1.00557 0
M  V30 1713 H 159.77 4.84835 0.0793299 0
M  V30 1714 N 161.113 -0.173488 1.56642 0
M  V30 1715 C 162.361 -0.888706 1.81512 0
M  V30 1716 C 162.682 -1.82875 0.676872 0
M  V30 1717 O 161.952 -1.93536 -0.303414 0
M  V30 1718 H 160.532 -0.331164 0.669582 0
M  V30 1719 H 163.194 -0.173823 1.94123 0
M  V30 1720 H 162.29 -1.46691 2.75478 0
M  V30 1721 N 162.591 -1.51276 -0.441967 0
M  V30 1722 C 163.816 -1.67799 -1.21895 0
M  V30 1723 C 164.241 -0.372864 -1.84367 0
M  V30 1724 O 163.599 0.666501 -1.68604 0
M  V30 1725 C 163.647 -2.79199 -2.28211 0
M  V30 1726 O 162.751 -2.42479 -3.33583 0
M  V30 1727 H 162.092 -0.559649 -0.357336 0
M  V30 1728 H 164.622 -1.97815 -0.522522 0
M  V30 1729 H 164.632 -3.03146 -2.73069 0
M  V30 1730 H 163.307 -3.73906 -1.82118 0
M  V30 1731 H 161.884 -2.29087 -2.94234 0
M  V30 1732 N 164.069 0.697108 -1.41344 0
M  V30 1733 C 165.485 1.00751 -1.2378 0
M  V30 1734 C 165.685 2.01105 -0.126066 0
M  V30 1735 O 164.741 2.47295 0.51004 0
M  V30 1736 C 166.054 1.53359 -2.58653 0
M  V30 1737 C 167.602 1.6525 -2.65822 0
M  V30 1738 C 168.077 2.2126 -4.01009 0
M  V30 1739 N 169.568 2.28622 -4.02847 0
M  V30 1740 C 170.303 2.72984 -5.04249 0
M  V30 1741 N 169.799 3.16962 -6.16041 0
M  V30 1742 N 171.592 2.72534 -4.91611 0
M  V30 1743 H 163.743 0.0322662 -2.12375 0
M  V30 1744 H 166.006 0.0768853 -0.944877 0
M  V30 1745 H 165.712 0.870773 -3.4075 0
M  V30 1746 H 165.586 2.51597 -2.81032 0
M  V30 1747 H 167.973 2.30644 -1.84086 0
M  V30 1748 H 168.054 0.655614 -2.47256 0
M  V30 1749 H 167.698 1.56482 -4.83193 0
M  V30 1750 H 167.628 3.21698 -4.16915 0
M  V30 1751 H 170.119 1.97585 -3.22131 0
M  V30 1752 H 170.432 3.49434 -6.89287 0
M  V30 1753 H 168.777 3.14875 -6.1958 0
M  V30 1754 H 171.968 2.37525 -4.0336 0
M  V30 1755 H 172.141 3.06789 -5.70775 0
M  V30 1756 N 165.547 1.27147 0.931209 0
M  V30 1757 C 166.494 1.09568 2.03134 0
M  V30 1758 C 167.464 -0.00222433 1.661 0
M  V30 1759 O 168.649 0.159439 1.90133 0
M  V30 1760 C 165.789 0.745231 3.36957 0
M  V30 1761 C 164.902 1.92041 3.86968 0
M  V30 1762 C 164.037 1.51216 5.09222 0
M  V30 1763 C 163.076 2.65504 5.5152 0
M  V30 1764 N 162.213 2.25291 6.64972 0
M  V30 1765 H 167.053 2.03708 2.17502 0
M  V30 1766 H 164.59 1.01411 1.06556 0
M  V30 1767 H 166.548 0.522878 4.1391 0
M  V30 1768 H 165.178 -0.159202 3.22407 0
M  V30 1769 H 164.23 2.25541 3.06326 0
M  V30 1770 H 165.542 2.77787 4.1429 0
M  V30 1771 H 164.696 1.25084 5.93666 0
M  V30 1772 H 163.435 0.625749 4.83669 0
M  V30 1773 H 162.44 2.92354 4.65628 0
M  V30 1774 H 163.665 3.54761 5.7907 0
M  V30 1775 H 161.611 1.39098 6.41083 0
M  V30 1776 H 161.528 3.04577 6.91931 0
M  V30 1777 H 162.796 2.02398 7.52765 0
M  V30 1778 N 167.025 -1.13721 1.09112 0
M  V30 1779 C 168.436 -1.6648 0.845068 0
M  V30 1780 C 168.787 -1.85911 -0.62701 0
M  V30 1781 O 167.912 -1.57556 -1.48341 0
M  V30 1782 C 168.507 -3.02413 1.52748 0
M  V30 1783 C 167.066 -3.52176 1.32849 0
M  V30 1784 C 166.213 -2.27492 1.58564 0
M  V30 1785 H 169.164 -0.976872 1.25072 0
M  V30 1786 H 169.185 -3.68223 0.958752 0
M  V30 1787 H 168.697 -2.88238 2.59885 0
M  V30 1788 H 166.798 -3.7156 0.278137 0
M  V30 1789 H 166.911 -4.32499 2.0611 0
M  V30 1790 H 165.275 -2.33923 1.00758 0
M  V30 1791 H 166.058 -2.15886 2.66924 0
M  V30 1792 N 168.503 -0.877838 -1.30888 0
M  V30 1793 C 169.78 -0.413052 -1.91189 0
M  V30 1794 C 170.16 1.1056 -1.79832 0
M  V30 1795 O 169.508 1.93771 -1.21099 0
M  V30 1796 C 169.718 -0.903191 -3.3711 0
M  V30 1797 C 171.066 -0.93395 -4.14201 0
M  V30 1798 O 172.09 -0.849373 -3.45925 0
M  V30 1799 O 170.949 -1.05772 -5.36167 0
M  V30 1800 H 168.043 -0.125035 -0.817493 0
M  V30 1801 H 170.589 -0.966269 -1.39504 0
M  V30 1802 H 169.361 -1.94692 -3.39427 0
M  V30 1803 H 168.984 -0.328732 -3.96239 0
M  V30 1804 N 169.982 1.44106 -0.638065 0
M  V30 1805 C 170.914 2.28976 0.101205 0
M  V30 1806 C 171.927 1.4167 0.802088 0
M  V30 1807 O 173.116 1.65755 0.662375 0
M  V30 1808 C 170.216 3.18217 1.16581 0
M  V30 1809 C 169.389 4.33978 0.546066 0
M  V30 1810 C 168.448 5.04202 1.50554 0
M  V30 1811 O 167.474 5.59986 1.01999 0
M  V30 1812 N 168.676 5.06296 2.8398 0
M  V30 1813 H 171.441 2.93064 -0.627186 0
M  V30 1814 H 169.002 1.54629 -0.479731 0
M  V30 1815 H 170.994 3.62061 1.80815 0
M  V30 1816 H 169.564 2.55833 1.79634 0
M  V30 1817 H 168.784 3.93239 -0.275046 0
M  V30 1818 H 170.072 5.08675 0.112793 0
M  V30 1819 H 169.47 4.62319 3.26002 0
M  V30 1820 H 168.027 5.53907 3.43556 0
M  V30 1821 N 171.46 0.379036 1.52974 0
M  V30 1822 C 172.871 -0.0972525 1.86447 0
M  V30 1823 C 173.222 -1.47027 1.29914 0
M  V30 1824 O 172.347 -2.07135 0.626433 0
M  V30 1825 C 172.942 -0.183248 3.38304 0
M  V30 1826 C 171.501 -0.603812 3.71525 0
M  V30 1827 C 170.648 0.240632 2.76254 0
M  V30 1828 H 173.599 0.597316 1.4703 0
M  V30 1829 H 173.62 -1.00432 3.67006 0
M  V30 1830 H 173.132 0.816191 3.79421 0
M  V30 1831 H 171.233 -1.61099 3.35973 0
M  V30 1832 H 171.346 -0.369086 4.77676 0
M  V30 1833 H 169.71 -0.292548 2.53014 0
M  V30 1834 H 170.493 1.23786 3.20206 0
M  V30 1835 N 172.938 -1.57226 0.108567 0
M  V30 1836 C 174.168 -1.9889 -0.559142 0
M  V30 1837 C 174.576 -0.986889 -1.61422 0
M  V30 1838 O 173.919 0.0298705 -1.83676 0
M  V30 1839 C 173.981 -3.36952 -1.25315 0
M  V30 1840 C 173.645 -4.55679 -0.347248 0
M  V30 1841 C 174.642 -5.18281 0.409996 0
M  V30 1842 C 172.327 -5.0162 -0.261367 0
M  V30 1843 C 174.321 -6.25203 1.24096 0
M  V30 1844 C 172.008 -6.08405 0.573238 0
M  V30 1845 C 173.006 -6.70063 1.32304 0
M  V30 1846 O 172.694 -7.74788 2.14381 0
M  V30 1847 H 172.426 -0.658343 -0.153492 0
M  V30 1848 H 174.98 -2.04532 0.188584 0
M  V30 1849 H 173.21 -3.28032 -2.04773 0
M  V30 1850 H 174.899 -3.62974 -1.81673 0
M  V30 1851 H 175.665 -4.8371 0.353457 0
M  V30 1852 H 171.544 -4.53381 -0.834656 0
M  V30 1853 H 175.088 -6.73259 1.82669 0
M  V30 1854 H 170.985 -6.42406 0.631208 0
M  V30 1855 H 171.753 -7.91837 2.07209 0
M  V30 1856 N 174.416 0.165178 -1.56732 0
M  V30 1857 C 175.326 1.22423 -2.00125 0
M  V30 1858 C 176.342 1.48084 -0.913619 0
M  V30 1859 O 177.518 1.60112 -1.22172 0
M  V30 1860 C 174.583 2.54197 -2.35764 0
M  V30 1861 C 173.644 2.36343 -3.58386 0
M  V30 1862 C 172.877 3.61834 -3.92316 0
M  V30 1863 O 173.1 4.67267 -3.27135 0
M  V30 1864 O 172.034 3.55579 -4.85641 0
M  V30 1865 H 175.86 0.885886 -2.90492 0
M  V30 1866 H 173.445 0.372518 -1.44681 0
M  V30 1867 H 175.327 3.3192 -2.59629 0
M  V30 1868 H 174.002 2.87598 -1.48557 0
M  V30 1869 H 172.909 1.56632 -3.39731 0
M  V30 1870 H 174.242 2.07865 -4.46154 0
M  V30 1871 N 175.894 1.51508 0.433938 0
M  V30 1872 C 177.14 1.65549 1.18173 0
M  V30 1873 C 177.495 0.368751 1.88833 0
M  V30 1874 O 176.788 -0.635616 1.8075 0
M  V30 1875 C 176.982 2.79928 2.22205 0
M  V30 1876 C 176.811 4.19601 1.61756 0
M  V30 1877 C 175.581 4.85489 1.40101 0
M  V30 1878 C 177.779 5.02574 1.09194 0
M  V30 1879 N 175.761 6.09266 0.752859 0
M  V30 1880 C 177.132 6.17381 0.569255 0
M  V30 1881 C 179.187 4.88079 0.984025 0
M  V30 1882 C 177.89 7.19282 -0.0507472 0
M  V30 1883 C 179.916 5.90191 0.377912 0
M  V30 1884 C 179.278 7.04272 -0.134216 0
M  V30 1885 H 175.377 0.659653 0.419979 0
M  V30 1886 H 177.961 1.88746 0.477818 0
M  V30 1887 H 176.132 2.5839 2.89982 0
M  V30 1888 H 177.864 2.83132 2.89168 0
M  V30 1889 H 174.619 4.43417 1.66369 0
M  V30 1890 H 175.043 6.75528 0.446123 0
M  V30 1891 H 179.685 4.00131 1.36583 0
M  V30 1892 H 177.403 8.06876 -0.444676 0
M  V30 1893 H 180.989 5.81045 0.296269 0
M  V30 1894 H 179.869 7.81933 -0.59585 0
M  V30 1895 N 177.372 -0.689602 1.41712 0
M  V30 1896 C 178.302 -1.81577 1.46806 0
M  V30 1897 C 179.283 -1.66945 0.326105 0
M  V30 1898 O 180.468 -1.86588 0.538377 0
M  V30 1899 C 177.598 -3.19762 1.35535 0
M  V30 1900 C 176.552 -3.49107 2.47605 0
M  V30 1901 C 175.878 -4.86711 2.21397 0
M  V30 1902 C 177.178 -3.47483 3.89939 0
M  V30 1903 H 178.872 -1.7757 2.41058 0
M  V30 1904 H 176.418 -0.852887 1.16025 0
M  V30 1905 H 178.371 -3.98263 1.3771 0
M  V30 1906 H 177.095 -3.24409 0.377708 0
M  V30 1907 H 175.754 -2.72959 2.44722 0
M  V30 1908 H 175.402 -4.8799 1.21961 0
M  V30 1909 H 175.102 -5.0731 2.96497 0
M  V30 1910 H 176.626 -5.67515 2.25297 0
M  V30 1911 H 178.04 -4.1598 3.94505 0
M  V30 1912 H 176.437 -3.79615 4.64771 0
M  V30 1913 H 177.507 -2.46341 4.17665 0
M  V30 1914 N 178.85 -1.27639 -0.924453 0
M  V30 1915 C 180.075 -1.17101 -1.71179 0
M  V30 1916 C 180.5 0.268134 -1.86179 0
M  V30 1917 O 179.858 1.19415 -1.36418 0
M  V30 1918 C 179.906 -1.86313 -3.08739 0
M  V30 1919 O 179.01 -1.16331 -3.95652 0
M  V30 1920 H 178.351 -0.407091 -0.524569 0
M  V30 1921 H 180.881 -1.68767 -1.15666 0
M  V30 1922 H 180.891 -1.938 -3.59034 0
M  V30 1923 H 179.566 -2.91001 -2.97138 0
M  V30 1924 H 178.143 -1.16935 -3.54091 0
M  V30 1925 N 180.328 1.1314 -1.09713 0
M  V30 1926 C 181.558 1.88048 -0.855656 0
M  V30 1927 C 181.966 1.79537 0.596919 0
M  V30 1928 O 181.309 1.16196 1.42282 0
M  V30 1929 C 181.371 3.38314 -1.21589 0
M  V30 1930 C 181.035 3.70605 -2.67397 0
M  V30 1931 C 182.032 3.69596 -3.65643 0
M  V30 1932 C 179.717 4.0017 -3.03593 0
M  V30 1933 C 181.711 3.977 -4.9811 0
M  V30 1934 C 179.398 4.27935 -4.36251 0
M  V30 1935 C 180.396 4.26685 -5.33318 0
M  V30 1936 O 180.084 4.53767 -6.63589 0
M  V30 1937 H 179.816 0.60208 -0.307368 0
M  V30 1938 H 182.37 1.44128 -1.46343 0
M  V30 1939 H 180.6 3.82752 -0.551177 0
M  V30 1940 H 182.289 3.94552 -0.953083 0
M  V30 1941 H 183.055 3.46826 -3.39023 0
M  V30 1942 H 178.934 4.00289 -2.2867 0
M  V30 1943 H 182.478 3.9664 -5.73866 0
M  V30 1944 H 178.375 4.50178 -4.62613 0
M  V30 1945 H 179.143 4.71422 -6.69107 0
M  V30 1946 N 181.806 0.884767 1.30421 0
M  V30 1947 C 182.753 0.349642 2.28136 0
M  V30 1948 C 183.723 -0.560061 1.56373 0
M  V30 1949 O 184.908 -0.488524 1.8444 0
M  V30 1950 C 182.048 -0.42999 3.42411 0
M  V30 1951 C 181.161 0.508907 4.28992 0
M  V30 1952 C 180.296 -0.286301 5.30428 0
M  V30 1953 C 179.335 0.648079 6.08659 0
M  V30 1954 N 178.472 -0.111792 7.02011 0
M  V30 1955 H 183.312 1.18807 2.73293 0
M  V30 1956 H 180.849 0.597231 1.3443 0
M  V30 1957 H 182.807 -0.897923 4.07423 0
M  V30 1958 H 181.437 -1.23299 2.98324 0
M  V30 1959 H 180.489 1.09533 3.64289 0
M  V30 1960 H 181.801 1.22475 4.8353 0
M  V30 1961 H 180.955 -0.816098 6.01186 0
M  V30 1962 H 179.694 -1.03536 4.76583 0
M  V30 1963 H 178.699 1.18951 5.36778 0
M  V30 1964 H 179.924 1.39623 6.64592 0
M  V30 1965 H 177.87 -0.843395 6.50556 0
M  V30 1966 H 177.787 0.544429 7.54037 0
M  V30 1967 H 179.055 -0.622339 7.77012 0
M  V30 1968 N 183.284 -1.43765 0.645699 0
M  V30 1969 C 184.216 -2.29027 -0.0890605 0
M  V30 1970 C 185.229 -1.42093 -0.794563 0
M  V30 1971 O 186.418 -1.66104 -0.653575 0
M  V30 1972 C 183.518 -3.18831 -1.14891 0
M  V30 1973 C 182.691 -4.34261 -0.523043 0
M  V30 1974 C 181.75 -5.04994 -1.47878 0
M  V30 1975 O 180.776 -5.6052 -0.990277 0
M  V30 1976 N 181.978 -5.07795 -2.81291 0
M  V30 1977 H 184.743 -2.92727 0.64272 0
M  V30 1978 H 182.304 -1.54373 0.487924 0
M  V30 1979 H 184.296 -3.63015 -1.78892 0
M  V30 1980 H 182.866 -2.56782 -1.78275 0
M  V30 1981 H 182.086 -3.93088 0.295896 0
M  V30 1982 H 183.374 -5.08728 -0.0858147 0
M  V30 1983 H 182.772 -4.64042 -3.23546 0
M  V30 1984 H 181.329 -5.55721 -3.40614 0
M  V30 1985 N 184.763 -0.387143 -1.52771 0
M  V30 1986 C 186.009 0.196025 -2.0185 0
M  V30 1987 C 186.342 1.46641 -1.27319 0
M  V30 1988 O 185.617 1.90889 -0.373032 0
M  V30 1989 C 185.9 0.466136 -3.5707 0
M  V30 1990 C 185.753 -0.819385 -4.42274 0
M  V30 1991 C 187.072 1.25768 -4.21747 0
M  V30 1992 H 184.191 0.0697708 -0.73369 0
M  V30 1993 H 186.833 -0.516286 -1.82851 0
M  V30 1994 H 184.983 1.07293 -3.7339 0
M  V30 1995 H 186.655 -1.4563 -4.37709 0
M  V30 1996 H 184.898 -1.43517 -4.09372 0
M  V30 1997 H 185.569 -0.585065 -5.48891 0
M  V30 1998 H 188.045 0.744167 -4.09391 0
M  V30 1999 H 186.921 1.41541 -5.30337 0
M  V30 2000 H 187.182 2.27228 -3.79236 0
M  V30 2001 N 186.241 1.57166 -0.116904 0
M  V30 2002 C 187.204 2.14039 0.819742 0
M  V30 2003 C 188.204 1.07477 1.19605 0
M  V30 2004 O 189.394 1.33263 1.1219 0
M  V30 2005 C 186.526 2.67891 2.10826 0
M  V30 2006 H 187.719 2.98128 0.325511 0
M  V30 2007 H 185.272 1.55739 0.132312 0
M  V30 2008 H 186.007 1.87384 2.64685 0
M  V30 2009 H 185.792 3.45823 1.84793 0
M  V30 2010 H 187.282 3.11809 2.77785 0
M  V30 2011 N 187.719 -0.156864 1.56817 0
M  V30 2012 C 188.629 -1.2136 2.00771 0
M  V30 2013 C 189.645 -1.47598 0.921459 0
M  V30 2014 O 190.821 -1.59462 1.2302 0
M  V30 2015 C 187.886 -2.52943 2.37109 0
M  V30 2016 C 186.947 -2.34439 3.59634 0
M  V30 2017 C 186.18 -3.59748 3.94229 0
M  V30 2018 O 186.403 -4.65526 3.29609 0
M  V30 2019 O 185.337 -3.52998 4.8752 0
M  V30 2020 H 189.163 -0.870468 2.90958 0
M  V30 2021 H 186.748 -0.36484 1.44877 0
M  V30 2022 H 188.63 -3.30538 2.61386 0
M  V30 2023 H 187.305 -2.86806 1.5008 0
M  V30 2024 H 186.212 -1.54828 3.40557 0
M  V30 2025 H 187.545 -2.05496 4.4725 0
M  V30 2026 N 189.197 -1.51736 -0.425897 0
M  V30 2027 C 190.127 -1.76827 -1.52494 0
M  V30 2028 C 191.108 -0.618524 -1.58456 0
M  V30 2029 O 192.293 -0.862416 -1.74 0
M  V30 2030 C 189.423 -1.90374 -2.90474 0
M  V30 2031 C 188.377 -3.0588 -2.99369 0
M  V30 2032 C 187.703 -3.04625 -4.3944 0
M  V30 2033 C 189.003 -4.45644 -2.72394 0
M  V30 2034 H 190.697 -2.68855 -1.31748 0
M  V30 2035 H 188.243 -1.29372 -0.632362 0
M  V30 2036 H 190.196 -2.0651 -3.6733 0
M  V30 2037 H 188.92 -0.95004 -3.12477 0
M  V30 2038 H 187.579 -2.89467 -2.24954 0
M  V30 2039 H 187.227 -2.0701 -4.58428 0
M  V30 2040 H 186.927 -3.82195 -4.46319 0
M  V30 2041 H 188.451 -3.22869 -5.18255 0
M  V30 2042 H 189.865 -4.62348 -3.38979 0
M  V30 2043 H 188.262 -5.25006 -2.9067 0
M  V30 2044 H 189.332 -4.54893 -1.67929 0
M  V30 2045 N 190.675 0.682077 -1.42076 0
M  V30 2046 C 191.9 1.47558 -1.45744 0
M  V30 2047 C 192.325 1.87977 -0.0680981 0
M  V30 2048 O 191.683 1.55522 0.9318 0
M  V30 2049 C 191.731 2.70575 -2.38373 0
M  V30 2050 O 190.835 3.68573 -1.85007 0
M  V30 2051 H 190.176 0.443585 -0.494093 0
M  V30 2052 H 192.706 0.837238 -1.86686 0
M  V30 2053 H 192.716 3.18729 -2.54707 0
M  V30 2054 H 191.391 2.40495 -3.39315 0
M  V30 2055 H 189.968 3.2757 -1.78192 0
M  V30 2056 N 192.153 1.28127 0.917671 0
M  V30 2057 C 193.063 1.13556 2.05286 0
M  V30 2058 C 194.079 0.0630914 1.73886 0
M  V30 2059 O 195.255 0.271598 1.9956 0
M  V30 2060 C 192.32 0.794676 3.3747 0
M  V30 2061 C 191.381 1.94909 3.82504 0
M  V30 2062 C 190.614 1.62437 5.0838 0
M  V30 2063 O 190.837 0.536905 5.67867 0
M  V30 2064 O 189.771 2.46677 5.4903 0
M  V30 2065 H 193.597 2.08844 2.20495 0
M  V30 2066 H 191.182 1.07409 1.03845 0
M  V30 2067 H 193.064 0.618344 4.16839 0
M  V30 2068 H 191.739 -0.128581 3.23445 0
M  V30 2069 H 190.646 2.18055 3.03978 0
M  V30 2070 H 191.979 2.85291 4.01086 0
M  V30 2071 N 193.631 -1.12557 1.10312 0
M  V30 2072 C 194.871 -1.8568 0.854543 0
M  V30 2073 C 195.235 -1.82091 -0.608843 0
M  V30 2074 O 196.436 -2.50544 -0.973717 0
M  V30 2075 C 194.707 -3.2942 1.38626 0
M  V30 2076 S 196.266 -4.19931 1.27293 0
M  V30 2077 H 193.084 -0.640427 0.308827 0
M  V30 2078 H 195.686 -1.35599 1.40831 0
M  V30 2079 H 194.39 -3.2959 2.44537 0
M  V30 2080 H 193.921 -3.84566 0.82902 0
M  V30 2081 H 195.936 -4.95668 0.229776 0
M  V30 2082 N 195.109 -0.891671 -1.2995 0
M  V30 2083 C 196.358 -0.509521 -1.95158 0
M  V30 2084 C 196.671 0.947388 -1.71125 0
M  V30 2085 O 197.877 1.43669 -2.30372 0
M  V30 2086 C 196.333 -0.860315 -3.49466 0
M  V30 2087 C 195.941 -2.33545 -3.8231 0
M  V30 2088 C 197.685 -0.547687 -4.20952 0
M  V30 2089 C 195.592 -2.62752 -5.29826 0
M  V30 2090 H 194.522 -0.18682 -0.730489 0
M  V30 2091 H 197.173 -1.08756 -1.47798 0
M  V30 2092 H 195.555 -0.211285 -3.95436 0
M  V30 2093 H 196.729 -3.02936 -3.47227 0
M  V30 2094 H 195.044 -2.61629 -3.23944 0
M  V30 2095 H 197.641 -0.742854 -5.29515 0
M  V30 2096 H 197.984 0.51332 -4.13123 0
M  V30 2097 H 198.517 -1.1542 -3.80688 0
M  V30 2098 H 195.256 -3.6762 -5.42712 0
M  V30 2099 H 194.776 -1.97977 -5.66185 0
M  V30 2100 H 196.455 -2.48601 -5.97333 0
M  V30 2101 N 196.587 1.43421 -0.653314 0
M  V30 2102 C 197.835 2.01414 -0.166415 0
M  V30 2103 C 198.156 1.51803 1.22397 0
M  V30 2104 O 197.426 0.730693 1.81763 0
M  V30 2105 H 196.006 0.744703 -0.0585319 0
M  V30 2106 H 198.668 1.75629 -0.845003 0
M  V30 2107 H 197.764 3.11734 -0.151111 0
M  V30 2108 N 198.065 0.39524 1.52563 0
M  V30 2109 C 199.29 -0.187456 2.06551 0
M  V30 2110 C 199.715 -1.39249 1.26457 0
M  V30 2111 O 199.073 -1.78947 0.291151 0
M  V30 2112 C 199.121 -0.529985 3.56684 0
M  V30 2113 O 198.225 -1.62307 3.79118 0
M  V30 2114 H 197.566 -0.0202537 0.663691 0
M  V30 2115 H 200.096 0.564426 1.96661 0
M  V30 2116 H 200.106 -0.792598 4.00227 0
M  V30 2117 H 198.781 0.350987 4.14416 0
M  V30 2118 H 197.358 -1.3537 3.47461 0
M  V30 2119 N 199.544 -1.57102 0.125237 0
M  V30 2120 C 200.507 -2.14471 -0.80838 0
M  V30 2121 C 201.507 -1.0811 -1.19033 0
M  V30 2122 O 202.697 -1.33856 -1.11482 0
M  V30 2123 C 199.829 -2.69005 -2.09402 0
M  V30 2124 H 201.022 -2.98297 -0.309696 0
M  V30 2125 H 198.575 -1.55807 -0.124051 0
M  V30 2126 H 199.31 -1.88785 -2.63687 0
M  V30 2127 H 199.095 -3.46799 -1.82957 0
M  V30 2128 H 200.585 -3.13278 -2.76128 0
M  V30 2129 N 201.022 0.148545 -1.56898 0
M  V30 2130 C 201.952 1.18524 -2.01182 0
M  V30 2131 C 202.933 1.4489 -0.891123 0
M  V30 2132 O 204.118 1.55836 -1.15882 0
M  V30 2133 C 201.248 2.51879 -2.39112 0
M  V30 2134 C 200.202 2.40038 -3.54353 0
M  V30 2135 C 199.528 3.78089 -3.78091 0
M  V30 2136 C 200.828 1.88577 -4.87069 0
M  V30 2137 H 202.522 0.817029 -2.88036 0
M  V30 2138 H 200.068 0.391575 -1.38574 0
M  V30 2139 H 202.021 3.24627 -2.68692 0
M  V30 2140 H 200.745 2.90532 -1.49193 0
M  V30 2141 H 199.404 1.69742 -3.24936 0
M  V30 2142 H 199.052 4.14175 -2.85426 0
M  V30 2143 H 198.752 3.71028 -4.55645 0
M  V30 2144 H 200.276 4.52387 -4.10095 0
M  V30 2145 H 201.69 2.51117 -5.15377 0
M  V30 2146 H 200.087 1.9241 -5.68417 0
M  V30 2147 H 201.157 0.84136 -4.77545 0
M  V30 2148 N 202.5 1.5196 0.417844 0
M  V30 2149 C 203.749 1.6482 1.16264 0
M  V30 2150 C 204.062 0.379886 1.91876 0
M  V30 2151 O 205.268 0.388154 2.68711 0
M  V30 2152 C 203.724 2.91161 2.1155 0
M  V30 2153 C 203.332 4.25068 1.41495 0
M  V30 2154 C 205.076 3.13383 2.86341 0
M  V30 2155 C 202.983 5.42541 2.35379 0
M  V30 2156 H 201.913 0.613954 0.437694 0
M  V30 2157 H 204.564 1.78442 0.427871 0
M  V30 2158 H 202.946 2.71218 2.88543 0
M  V30 2159 H 204.12 4.55463 0.699263 0
M  V30 2160 H 202.435 4.0888 0.787792 0
M  V30 2161 H 205.032 3.98324 3.5671 0
M  V30 2162 H 205.375 2.27256 3.48798 0
M  V30 2163 H 205.908 3.33757 2.1645 0
M  V30 2164 H 202.647 6.30987 1.77582 0
M  V30 2165 H 202.167 5.16497 3.04945 0
M  V30 2166 H 203.846 5.75272 2.96093 0
M  V30 2167 N 203.978 -0.674533 1.42435 0
M  V30 2168 C 204.91 -1.80005 1.41883 0
M  V30 2169 C 205.923 -1.59667 0.31787 0
M  V30 2170 O 207.112 -1.68781 0.580973 0
M  V30 2171 C 204.212 -3.17114 1.19549 0
M  V30 2172 C 203.385 -3.64299 2.42084 0
M  V30 2173 C 202.444 -4.80142 2.15291 0
M  V30 2174 O 201.47 -4.90673 2.88493 0
M  V30 2175 N 202.672 -5.68869 1.1562 0
M  V30 2176 H 205.437 -1.80964 2.38898 0
M  V30 2177 H 202.998 -0.857633 1.37318 0
M  V30 2178 H 204.99 -3.92267 0.995417 0
M  V30 2179 H 203.56 -3.11053 0.310569 0
M  V30 2180 H 202.78 -2.79822 2.77657 0
M  V30 2181 H 204.068 -3.92567 3.23679 0
M  V30 2182 H 203.466 -5.63012 0.550765 0
M  V30 2183 H 202.023 -6.43833 1.016 0
M  V30 2184 N 205.456 -1.28612 -0.910864 0
M  V30 2185 C 206.403 -1.12786 -2.01365 0
M  V30 2186 C 207.373 -0.024201 -1.66082 0
M  V30 2187 O 208.558 -0.189667 -1.89855 0
M  V30 2188 C 205.698 -0.798743 -3.35729 0
M  V30 2189 C 204.811 -1.98173 -3.83864 0
M  V30 2190 C 203.946 -1.59298 -5.06752 0
M  V30 2191 C 202.985 -2.74245 -5.47226 0
M  V30 2192 N 202.122 -2.35842 -6.61304 0
M  V30 2193 H 206.962 -2.07142 -2.14234 0
M  V30 2194 H 204.499 -1.03093 -1.0493 0
M  V30 2195 H 206.457 -0.588662 -4.13026 0
M  V30 2196 H 205.087 0.10789 -3.2262 0
M  V30 2197 H 204.139 -2.30386 -3.02699 0
M  V30 2198 H 205.451 -2.84343 -4.09818 0
M  V30 2199 H 204.605 -1.34513 -5.916 0
M  V30 2200 H 203.344 -0.702618 -4.82612 0
M  V30 2201 H 202.349 -2.99725 -4.60918 0
M  V30 2202 H 203.574 -3.63928 -5.73353 0
M  V30 2203 H 201.52 -1.49279 -6.38789 0
M  V30 2204 H 201.437 -3.15546 -6.86998 0
M  V30 2205 H 202.705 -2.14348 -7.4945 0
M  V30 2206 N 206.934 1.1197 -1.10907 0
M  V30 2207 C 208.182 1.83225 -0.852819 0
M  V30 2208 C 208.503 1.84769 0.623341 0
M  V30 2209 O 207.773 1.3143 1.45269 0
M  V30 2210 H 206.353 0.67849 -0.312507 0
M  V30 2211 H 209.015 1.3556 -1.40033 0
M  V30 2212 H 208.111 2.87265 -1.22005 0
M  V30 2213 N 208.412 0.89855 1.29475 0
M  V30 2214 C 209.659 0.523882 1.95606 0
M  V30 2215 C 209.987 -0.929608 1.70847 0
M  V30 2216 O 209.242 -1.67401 1.01367 0
M  V30 2217 C 209.541 0.761398 3.49195 0
M  V30 2218 C 209.207 2.19207 3.94029 0
M  V30 2219 C 207.869 2.58326 4.05982 0
M  V30 2220 C 210.221 3.12379 4.17216 0
M  V30 2221 C 207.549 3.898 4.38489 0
M  V30 2222 C 209.901 4.43401 4.51197 0
M  V30 2223 C 208.565 4.82394 4.61359 0
M  V30 2224 H 207.835 0.191702 0.715773 0
M  V30 2225 H 210.482 1.13699 1.54094 0
M  V30 2226 H 208.787 0.0653622 3.91745 0
M  V30 2227 H 210.484 0.450904 3.98457 0
M  V30 2228 H 207.074 1.87846 3.85242 0
M  V30 2229 H 211.258 2.83371 4.07449 0
M  V30 2230 H 206.514 4.19734 4.44559 0
M  V30 2231 H 210.688 5.15623 4.68087 0
M  V30 2232 H 208.315 5.84306 4.86303 0
M  V30 2233 N 209.89 -1.43072 0.660911 0
M  V30 2234 C 210.837 -2.30785 -0.0259884 0
M  V30 2235 C 211.807 -1.45184 -0.806888 0
M  V30 2236 O 212.992 -1.74041 -0.781943 0
M  V30 2237 C 210.132 -3.30861 -0.981067 0
M  V30 2238 C 209.245 -4.31558 -0.195458 0
M  V30 2239 C 208.38 -5.18712 -1.14503 0
M  V30 2240 C 207.419 -6.11097 -0.350299 0
M  V30 2241 N 206.556 -6.90849 -1.25186 0
M  V30 2242 H 211.396 -2.88975 0.727846 0
M  V30 2243 H 208.933 -1.42353 0.370682 0
M  V30 2244 H 210.891 -3.87399 -1.54849 0
M  V30 2245 H 209.521 -2.74304 -1.70169 0
M  V30 2246 H 208.573 -3.77252 0.488374 0
M  V30 2247 H 209.885 -4.9701 0.422176 0
M  V30 2248 H 209.039 -5.79914 -1.78284 0
M  V30 2249 H 207.778 -4.53404 -1.79656 0
M  V30 2250 H 206.783 -5.48976 0.300808 0
M  V30 2251 H 208.008 -6.7845 0.296941 0
M  V30 2252 H 205.954 -6.28182 -1.89005 0
M  V30 2253 H 205.871 -7.52854 -0.688971 0
M  V30 2254 H 207.139 -7.5655 -1.87757 0
M  V30 2255 N 211.368 -0.403325 -1.52352 0
M  V30 2256 C 212.596 0.174012 -2.06167 0
M  V30 2257 C 213.011 1.39347 -1.27388 0
M  V30 2258 O 212.368 1.79597 -0.324201 0
M  V30 2259 C 212.419 0.530223 -3.5759 0
M  V30 2260 O 212.14 -0.640806 -4.33388 0
M  V30 2261 C 213.641 1.16192 -4.27802 0
M  V30 2262 H 210.861 0.0229464 -0.670608 0
M  V30 2263 H 213.405 -0.572604 -1.9632 0
M  V30 2264 H 211.56 1.22673 -3.67464 0
M  V30 2265 H 211.974 -0.344851 -5.23365 0
M  V30 2266 H 213.448 1.36141 -5.34948 0
M  V30 2267 H 213.925 2.13335 -3.83907 0
M  V30 2268 H 214.531 0.505775 -4.22282 0
M  V30 2269 N 212.846 1.57033 -0.133567 0
M  V30 2270 C 213.809 2.14897 0.796995 0
M  V30 2271 C 214.809 1.0874 1.18458 0
M  V30 2272 O 215.999 1.34446 1.1077 0
M  V30 2273 C 213.131 2.70112 2.07973 0
M  V30 2274 H 214.324 2.98457 0.293873 0
M  V30 2275 H 211.877 1.55871 0.115787 0
M  V30 2276 H 212.612 1.9018 2.62682 0
M  V30 2277 H 212.397 3.47764 1.81115 0
M  V30 2278 H 213.887 3.14738 2.74462 0
M  V30 2279 N 214.325 -0.140222 1.56975 0
M  V30 2280 C 215.736 -0.699596 1.73097 0
M  V30 2281 C 216.087 -1.8134 0.749022 0
M  V30 2282 O 215.212 -2.16241 -0.0828503 0
M  V30 2283 C 215.807 -1.27582 3.1386 0
M  V30 2284 C 214.366 -1.78169 3.31561 0
M  V30 2285 C 213.513 -0.672855 2.69013 0
M  V30 2286 H 216.464 0.0855115 1.58469 0
M  V30 2287 H 216.485 -2.14561 3.14235 0
M  V30 2288 H 215.997 -0.464955 3.85305 0
M  V30 2289 H 214.098 -2.61801 2.65124 0
M  V30 2290 H 214.211 -1.90574 4.39566 0
M  V30 2291 H 212.575 -1.10118 2.29665 0
M  V30 2292 H 213.358 0.126679 3.43066 0
M  V30 2293 N 215.803 -1.52179 -0.40978 0
M  V30 2294 C 217.08 -1.56769 -1.16974 0
M  V30 2295 C 217.46 -0.348322 -2.08206 0
M  V30 2296 O 216.808 0.664862 -2.18613 0
M  V30 2297 C 217.018 -2.89603 -1.9476 0
M  V30 2298 C 218.366 -3.42579 -2.50849 0
M  V30 2299 O 219.39 -2.91338 -2.04941 0
M  V30 2300 O 218.249 -4.32054 -3.34652 0
M  V30 2301 H 215.343 -0.631439 -0.534054 0
M  V30 2302 H 217.889 -1.64507 -0.416613 0
M  V30 2303 H 216.661 -3.698 -1.27921 0
M  V30 2304 H 216.284 -2.85155 -2.77079 0
M  V30 2305 N 217.281 0.66697 -1.42791 0
M  V30 2306 C 218.213 1.7925 -1.42836 0
M  V30 2307 C 219.226 1.59496 -0.326333 0
M  V30 2308 O 220.415 1.6847 -0.589916 0
M  V30 2309 C 217.515 3.16476 -1.21229 0
M  V30 2310 C 216.688 3.63011 -2.44013 0
M  V30 2311 C 215.747 4.78993 -2.17834 0
M  V30 2312 O 214.773 4.89137 -2.91091 0
M  V30 2313 N 215.975 5.68248 -1.18635 0
M  V30 2314 H 218.74 1.79695 -2.39854 0
M  V30 2315 H 216.301 0.850338 -1.37771 0
M  V30 2316 H 218.293 3.91734 -1.01621 0
M  V30 2317 H 216.863 3.10884 -0.32706 0
M  V30 2318 H 216.083 2.78346 -2.79137 0
M  V30 2319 H 217.371 3.90845 -3.25757 0
M  V30 2320 H 216.769 5.62712 -0.580615 0
M  V30 2321 H 215.326 6.43285 -1.05013 0
M  V30 2322 N 218.759 1.29093 0.90403 0
M  V30 2323 C 220.006 1.16813 1.65411 0
M  V30 2324 C 220.334 -0.28128 1.92455 0
M  V30 2325 O 219.589 -1.22006 1.53013 0
M  V30 2326 C 219.888 1.92224 3.01305 0
M  V30 2327 C 219.554 3.41968 2.93885 0
M  V30 2328 C 218.216 3.82807 2.91569 0
M  V30 2329 C 220.568 4.37409 2.83413 0
M  V30 2330 C 217.896 5.1741 2.76594 0
M  V30 2331 C 220.248 5.72097 2.69977 0
M  V30 2332 C 218.912 6.12199 2.66024 0
M  V30 2333 H 218.182 0.42745 0.605283 0
M  V30 2334 H 220.829 1.59981 1.05254 0
M  V30 2335 H 219.134 1.41635 3.65304 0
M  V30 2336 H 220.831 1.80131 3.58265 0
M  V30 2337 H 217.421 3.09504 2.96488 0
M  V30 2338 H 221.605 4.06813 2.84283 0
M  V30 2339 H 216.861 5.47596 2.71935 0
M  V30 2340 H 221.035 6.45704 2.60844 0
M  V30 2341 H 218.662 7.16448 2.54178 0
M  V30 2342 N 220.237 -1.11381 1.11499 0
M  V30 2343 C 221.486 -1.82494 0.858993 0
M  V30 2344 C 221.799 -1.85605 -0.617278 0
M  V30 2345 O 223.005 -2.52824 -0.989552 0
M  V30 2346 C 221.461 -3.27745 1.48699 0
M  V30 2347 C 221.069 -3.32961 2.99735 0
M  V30 2348 C 222.813 -4.03754 1.31085 0
M  V30 2349 C 220.72 -4.72612 3.55516 0
M  V30 2350 H 219.65 -0.683802 0.317696 0
M  V30 2351 H 222.301 -1.25331 1.34031 0
M  V30 2352 H 220.683 -3.84844 0.933339 0
M  V30 2353 H 221.857 -2.85741 3.61509 0
M  V30 2354 H 220.172 -2.70433 3.16631 0
M  V30 2355 H 222.769 -5.06891 1.70192 0
M  V30 2356 H 223.112 -4.15527 0.253496 0
M  V30 2357 H 223.645 -3.53043 1.83318 0
M  V30 2358 H 220.384 -4.66036 4.60967 0
M  V30 2359 H 219.904 -5.2024 2.98513 0
M  V30 2360 H 221.583 -5.4157 3.53992 0
M  V30 2361 N 221.715 -0.905404 -1.28997 0
M  V30 2362 C 222.963 -0.533192 -1.9494 0
M  V30 2363 C 223.284 0.924618 -1.71685 0
M  V30 2364 O 222.554 1.65268 -1.05183 0
M  V30 2365 H 221.134 -0.194194 -0.721317 0
M  V30 2366 H 223.796 -1.15294 -1.57141 0
M  V30 2367 H 222.892 -0.72059 -3.03667 0
M  V30 2368 N 223.193 1.4272 -0.668489 0
M  V30 2369 C 224.442 2.00846 -0.185389 0
M  V30 2370 C 224.755 1.53442 1.21305 0
M  V30 2371 O 225.961 2.03944 1.79218 0
M  V30 2372 C 224.417 3.58805 -0.280591 0
M  V30 2373 C 224.025 4.15198 -1.68268 0
M  V30 2374 C 225.769 4.24255 0.14412 0
M  V30 2375 C 223.676 5.655 -1.73099 0
M  V30 2376 H 222.606 0.751145 -0.0655475 0
M  V30 2377 H 225.257 1.63516 -0.832752 0
M  V30 2378 H 223.639 3.93608 0.434553 0
M  V30 2379 H 224.813 3.91866 -2.42441 0
M  V30 2380 H 223.128 3.62176 -2.05469 0
M  V30 2381 H 225.725 5.34547 0.128086 0
M  V30 2382 H 226.068 3.99277 1.17827 0
M  V30 2383 H 226.601 3.94389 -0.519798 0
M  V30 2384 H 223.34 5.95268 -2.74475 0
M  V30 2385 H 222.86 5.90842 -1.03274 0
M  V30 2386 H 224.539 6.29808 -1.48158 0
M  V30 2387 N 224.671 0.411399 1.52136 0
M  V30 2388 C 225.918 -0.163645 2.01838 0
M  V30 2389 C 226.246 -1.4495 1.29691 0
M  V30 2390 O 225.501 -1.91725 0.392431 0
M  V30 2391 C 225.8 -0.455872 3.54481 0
M  V30 2392 C 225.466 0.741055 4.44769 0
M  V30 2393 C 224.128 1.06936 4.69167 0
M  V30 2394 C 226.48 1.54075 4.97906 0
M  V30 2395 C 223.808 2.19851 5.43951 0
M  V30 2396 C 226.16 2.66067 5.73926 0
M  V30 2397 C 224.824 2.99381 5.96596 0
M  V30 2398 H 224.094 -0.0598821 0.738576 0
M  V30 2399 H 226.741 0.553283 1.83333 0
M  V30 2400 H 225.046 -1.2544 3.71177 0
M  V30 2401 H 226.743 -0.913802 3.90449 0
M  V30 2402 H 223.333 0.475192 4.25958 0
M  V30 2403 H 227.517 1.30033 4.78963 0
M  V30 2404 H 222.773 2.46006 5.59724 0
M  V30 2405 H 226.947 3.28419 6.14096 0
M  V30 2406 H 224.574 3.86992 6.54325 0
M  V30 2407 N 226.149 -1.5696 0.141893 0
M  V30 2408 C 227.112 -2.15316 -0.785587 0
M  V30 2409 C 228.112 -1.09366 -1.1788 0
M  V30 2410 O 229.302 -1.35031 -1.10056 0
M  V30 2411 C 226.434 -2.71211 -2.06537 0
M  V30 2412 H 227.627 -2.98608 -0.278041 0
M  V30 2413 H 225.18 -1.5593 -0.107519 0
M  V30 2414 H 225.915 -1.91571 -2.6167 0
M  V30 2415 H 225.7 -3.4872 -1.79268 0
M  V30 2416 H 227.19 -3.16189 -2.72789 0
M  V30 2417 N 227.627 0.131896 -1.57047 0
M  V30 2418 C 228.559 1.1878 -1.9602 0
M  V30 2419 C 229.572 1.38363 -0.857875 0
M  V30 2420 O 230.761 1.37666 -1.13623 0
M  V30 2421 C 227.861 2.55008 -2.23213 0
M  V30 2422 C 227.034 2.56201 -3.54513 0
M  V30 2423 C 226.093 3.7408 -3.70069 0
M  V30 2424 O 225.119 3.58258 -4.42312 0
M  V30 2425 N 226.321 4.92137 -3.07866 0
M  V30 2426 H 229.086 0.85639 -2.87204 0
M  V30 2427 H 226.647 0.321309 -1.5868 0
M  V30 2428 H 228.639 3.32404 -2.30846 0
M  V30 2429 H 227.209 2.80382 -1.3822 0
M  V30 2430 H 226.429 1.64613 -3.58185 0
M  V30 2431 H 227.717 2.54043 -4.4084 0
M  V30 2432 H 227.115 5.07895 -2.49116 0
M  V30 2433 H 225.672 5.67254 -3.21039 0
M  V30 2434 N 229.106 1.52395 0.401703 0
M  V30 2435 C 230.054 1.7689 1.51039 0
M  V30 2436 C 231.048 0.636298 1.56996 0
M  V30 2437 O 232.254 0.818507 1.60314 0
M  V30 2438 H 228.629 0.559502 0.502456 0
M  V30 2439 H 230.6 2.69757 1.27568 0
M  V30 2440 C 229.349 1.94331 2.88324 0
M  V30 2441 H 228.672 2.80905 2.84486 0
M  V30 2442 H 230.112 2.15466 3.65172 0
M  V30 2443 C 228.571 0.712396 3.29282 0
M  V30 2444 O 229.101 -0.116218 4.01532 0
M  V30 2445 N 227.307 0.546154 2.85422 0
M  V30 2446 H 226.854 1.22156 2.26794 0
M  V30 2447 H 226.812 -0.276113 3.13185 0
M  V30 2448 N 230.584 -0.659388 1.43143 0
M  V30 2449 C 232 -0.974337 1.26407 0
M  V30 2450 C 232.2 -2.007 0.179341 0
M  V30 2451 O 231.256 -2.4856 -0.444295 0
M  V30 2452 C 232.569 -1.46447 2.62628 0
M  V30 2453 C 234.117 -1.58144 2.7011 0
M  V30 2454 C 234.592 -2.1055 4.06734 0
M  V30 2455 N 236.083 -2.17861 4.08767 0
M  V30 2456 C 236.818 -2.59519 5.1131 0
M  V30 2457 N 236.314 -3.00518 6.24228 0
M  V30 2458 N 238.107 -2.59404 4.98664 0
M  V30 2459 H 230.258 0.0240528 2.12386 0
M  V30 2460 H 232.521 -0.0518065 0.946583 0
M  V30 2461 H 232.227 -0.780123 3.42939 0
M  V30 2462 H 232.101 -2.44058 2.87603 0
M  V30 2463 H 234.488 -2.25682 1.90136 0
M  V30 2464 H 234.569 -0.589828 2.48907 0
M  V30 2465 H 234.213 -1.43616 4.87172 0
M  V30 2466 H 234.143 -3.10531 4.25298 0
M  V30 2467 H 236.634 -1.88975 3.27257 0
M  V30 2468 H 236.947 -3.31036 6.98309 0
M  V30 2469 H 235.292 -2.98337 6.2771 0
M  V30 2470 H 238.483 -2.26747 4.09516 0
M  V30 2471 H 238.656 -2.91548 5.78709 0
M  V30 2472 N 232.062 -1.29571 -0.897171 0
M  V30 2473 C 233.473 -1.15964 -1.46319 0
M  V30 2474 C 233.824 0.244267 -1.94674 0
M  V30 2475 O 232.949 1.13998 -1.83939 0
M  V30 2476 C 233.544 -2.09906 -2.65942 0
M  V30 2477 C 232.103 -2.00314 -3.18671 0
M  V30 2478 C 231.25 -2.00687 -1.91363 0
M  V30 2479 H 234.201 -1.42019 -0.708268 0
M  V30 2480 H 234.222 -1.67276 -3.41759 0
M  V30 2481 H 233.734 -3.12075 -2.30718 0
M  V30 2482 H 231.835 -1.01242 -3.58582 0
M  V30 2483 H 231.948 -2.88102 -3.82798 0
M  V30 2484 H 230.312 -1.45319 -2.09175 0
M  V30 2485 H 231.095 -3.04566 -1.58413 0
M  V30 2486 N 233.54 1.10788 -1.12088 0
M  V30 2487 C 234.45 2.20599 -0.798338 0
M  V30 2488 C 235.466 1.72712 0.21135 0
M  V30 2489 O 236.642 2.01348 0.0458477 0
M  V30 2490 C 233.707 3.45771 -0.253674 0
M  V30 2491 C 232.768 4.08411 -1.32283 0
M  V30 2492 C 232.001 5.27608 -0.80406 0
M  V30 2493 O 232.224 5.69241 0.363478 0
M  V30 2494 O 231.158 5.8101 -1.57198 0
M  V30 2495 H 234.984 2.50614 -1.7154 0
M  V30 2496 H 232.569 1.19454 -0.897275 0
M  V30 2497 H 234.451 4.21376 0.0453691 0
M  V30 2498 H 233.126 3.1739 0.636005 0
M  V30 2499 H 232.033 3.34507 -1.67499 0
M  V30 2500 H 233.366 4.40986 -2.18614 0
M  V30 2501 N 235.018 0.912232 1.28515 0
M  V30 2502 C 236.264 0.554851 1.95686 0
M  V30 2503 C 236.619 -0.89138 1.70506 0
M  V30 2504 O 235.912 -1.62529 1.01464 0
M  V30 2505 C 236.106 0.798392 3.48368 0
M  V30 2506 C 235.935 2.26674 3.88393 0
M  V30 2507 C 234.705 2.91657 4.12631 0
M  V30 2508 C 236.903 3.24303 3.99164 0
M  V30 2509 N 234.885 4.28805 4.39317 0
M  V30 2510 C 236.256 4.4661 4.30046 0
M  V30 2511 C 238.311 3.19723 3.81683 0
M  V30 2512 C 237.014 5.64915 4.45268 0
M  V30 2513 C 239.04 4.37325 3.98121 0
M  V30 2514 C 238.402 5.58406 4.29375 0
M  V30 2515 H 234.501 0.252876 0.739985 0
M  V30 2516 H 237.085 1.17565 1.55199 0
M  V30 2517 H 235.256 0.20688 3.87849 0
M  V30 2518 H 236.988 0.405193 4.02666 0
M  V30 2519 H 233.743 2.42393 4.06869 0
M  V30 2520 H 234.167 4.99712 4.56746 0
M  V30 2521 H 238.809 2.27191 3.56573 0
M  V30 2522 H 236.527 6.57927 4.6921 0
M  V30 2523 H 240.113 4.35282 3.86033 0
M  V30 2524 H 238.993 6.47889 4.41825 0
M  V30 2525 N 236.496 -1.42363 0.676048 0
M  V30 2526 C 237.742 -2.0182 0.199125 0
M  V30 2527 C 238.075 -1.53339 -1.19168 0
M  V30 2528 O 237.35 -0.736124 -1.80032 0
M  V30 2529 C 237.633 -3.59331 0.235144 0
M  V30 2530 C 237.486 -4.17989 1.66149 0
M  V30 2531 C 238.805 -4.3813 -0.41595 0
M  V30 2532 H 235.924 -0.733293 0.0738311 0
M  V30 2533 H 238.566 -1.69368 0.86107 0
M  V30 2534 H 236.716 -3.87109 -0.328487 0
M  V30 2535 H 238.388 -4.0116 2.27747 0
M  V30 2536 H 236.631 -3.7377 2.20178 0
M  V30 2537 H 237.302 -5.27126 1.63837 0
M  V30 2538 H 239.778 -4.16051 0.0638529 0
M  V30 2539 H 238.654 -5.47717 -0.360115 0
M  V30 2540 H 238.915 -4.16101 -1.49373 0
M  V30 2541 N 237.974 -0.419461 -1.51915 0
M  V30 2542 C 239.223 0.154346 -2.01109 0
M  V30 2543 C 239.536 1.45338 -1.30905 0
M  V30 2544 O 240.742 2.10906 -1.7097 0
M  V30 2545 C 239.198 0.325615 -3.58424 0
M  V30 2546 C 238.806 -0.961934 -4.37551 0
M  V30 2547 C 240.55 0.854155 -4.15818 0
M  V30 2548 C 238.457 -0.757287 -5.86531 0
M  V30 2549 H 237.387 0.0614563 -0.751491 0
M  V30 2550 H 240.038 -0.54649 -1.75173 0
M  V30 2551 H 238.42 1.08903 -3.80731 0
M  V30 2552 H 239.594 -1.7323 -4.26999 0
M  V30 2553 H 237.909 -1.41766 -3.91524 0
M  V30 2554 H 240.506 1.02346 -5.24814 0
M  V30 2555 H 240.849 1.83172 -3.73837 0
M  V30 2556 H 241.382 0.149528 -3.97519 0
M  V30 2557 H 238.121 -1.70671 -6.32892 0
M  V30 2558 H 237.641 -0.0264061 -5.99794 0
M  V30 2559 H 239.32 -0.403482 -6.45741 0
M  V30 2560 N 239.452 1.56882 -0.150215 0
M  V30 2561 C 240.701 1.95403 0.500071 0
M  V30 2562 C 241.014 1.03777 1.658 0
M  V30 2563 O 242.22 1.31889 2.37313 0
M  V30 2564 C 240.676 3.4738 0.941018 0
M  V30 2565 C 240.284 4.47596 -0.190158 0
M  V30 2566 C 242.028 3.9476 1.56091 0
M  V30 2567 C 239.935 5.90787 0.269237 0
M  V30 2568 H 238.865 0.729515 0.190588 0
M  V30 2569 H 241.516 1.81988 -0.235074 0
M  V30 2570 H 239.898 3.56138 1.73152 0
M  V30 2571 H 241.072 4.50536 -0.967157 0
M  V30 2572 H 239.387 4.10151 -0.718666 0
M  V30 2573 H 241.984 4.99181 1.9163 0
M  V30 2574 H 242.327 3.36494 2.45107 0
M  V30 2575 H 242.86 3.88932 0.835249 0
M  V30 2576 H 239.599 6.52879 -0.585621 0
M  V30 2577 H 239.119 5.912 1.01204 0
M  V30 2578 H 240.798 6.42979 0.720176 0
M  V30 2579 N 240.93 -0.123565 1.57115 0
M  V30 2580 C 241.84 -1.17074 2.033 0
M  V30 2581 C 242.856 -1.4561 0.952559 0
M  V30 2582 O 244.032 -1.56817 1.26374 0
M  V30 2583 C 241.097 -2.47857 2.42421 0
M  V30 2584 C 240.158 -2.26758 3.64526 0
M  V30 2585 C 239.391 -3.51305 4.01771 0
M  V30 2586 O 239.614 -4.5843 3.39409 0
M  V30 2587 O 238.548 -3.42578 4.94898 0
M  V30 2588 H 242.374 -0.808555 2.92739 0
M  V30 2589 H 239.959 -0.334027 1.45618 0
M  V30 2590 H 241.841 -3.2492 2.68338 0
M  V30 2591 H 240.516 -2.83558 1.5613 0
M  V30 2592 H 239.423 -1.47569 3.43765 0
M  V30 2593 H 240.756 -1.95963 4.51508 0
M  V30 2594 N 242.408 -1.52605 -0.393616 0
M  V30 2595 C 243.34 -1.73303 -1.49995 0
M  V30 2596 C 244.353 -0.613473 -1.50799 0
M  V30 2597 O 245.542 -0.889049 -1.54784 0
M  V30 2598 C 242.642 -1.77245 -2.88855 0
M  V30 2599 C 241.815 -3.06483 -3.12069 0
M  V30 2600 C 240.874 -3.02033 -4.30886 0
M  V30 2601 O 239.9 -3.75907 -4.27414 0
M  V30 2602 N 241.102 -2.20897 -5.36828 0
M  V30 2603 H 243.867 -2.68756 -1.32629 0
M  V30 2604 H 241.428 -1.51036 -0.583083 0
M  V30 2605 H 243.42 -1.7178 -3.66434 0
M  V30 2606 H 241.99 -0.891993 -2.99603 0
M  V30 2607 H 241.21 -3.25474 -2.22396 0
M  V30 2608 H 242.498 -3.91947 -3.2443 0
M  V30 2609 H 241.896 -1.60336 -5.42502 0
M  V30 2610 H 240.453 -2.21275 -6.13091 0
M  V30 2611 N 243.887 0.651787 -1.4349 0
M  V30 2612 C 245.135 1.40888 -1.44897 0
M  V30 2613 C 245.456 1.94856 -0.0749086 0
M  V30 2614 O 244.726 1.74518 0.889956 0
M  V30 2615 H 243.306 0.522887 -0.533478 0
M  V30 2616 H 245.968 0.768609 -1.79104 0
M  V30 2617 H 245.064 2.25052 -2.16236 0
M  V30 2618 N 245.365 1.30045 0.890287 0
M  V30 2619 C 246.605 1.19839 1.65584 0
M  V30 2620 C 246.969 -0.244175 1.90441 0
M  V30 2621 O 248.17 -0.469378 2.6467 0
M  V30 2622 C 246.441 1.99876 2.96284 0
M  V30 2623 S 248 2.06309 3.87275 0
M  V30 2624 H 244.818 0.427157 0.568382 0
M  V30 2625 H 247.42 1.64453 1.05715 0
M  V30 2626 H 246.124 3.03809 2.75913 0
M  V30 2627 H 245.655 1.55903 3.61189 0
M  V30 2628 H 247.67 1.18661 4.81803 0
M  V30 2629 N 246.843 -1.10192 1.12674 0
M  V30 2630 C 248.09 -1.82205 0.883606 0
M  V30 2631 C 248.418 -1.8532 -0.590492 0
M  V30 2632 O 247.673 -1.31137 -1.45264 0
M  V30 2633 C 247.972 -3.28552 1.4067 0
M  V30 2634 C 247.638 -3.45582 2.89627 0
M  V30 2635 C 246.3 -3.49937 3.30299 0
M  V30 2636 C 248.652 -3.50768 3.85501 0
M  V30 2637 C 245.98 -3.57049 4.65546 0
M  V30 2638 C 248.332 -3.59414 5.20581 0
M  V30 2639 C 246.996 -3.62034 5.60792 0
M  V30 2640 H 246.266 -0.666735 0.323334 0
M  V30 2641 H 248.913 -1.29868 1.40736 0
M  V30 2642 H 247.218 -3.83473 0.80347 0
M  V30 2643 H 248.915 -3.82788 1.19475 0
M  V30 2644 H 245.505 -3.42871 2.57172 0
M  V30 2645 H 249.689 -3.46651 3.55171 0
M  V30 2646 H 244.945 -3.57361 4.96088 0
M  V30 2647 H 249.119 -3.62371 5.94693 0
M  V30 2648 H 246.746 -3.67298 6.6558 0
M  V30 2649 N 248.321 -0.919034 -1.28029 0
M  V30 2650 C 249.284 -0.416182 -2.2539 0
M  V30 2651 C 250.284 0.460438 -1.54067 0
M  V30 2652 O 251.474 0.262744 -1.72207 0
M  V30 2653 C 248.606 0.402707 -3.38513 0
M  V30 2654 H 249.799 -1.27629 -2.71387 0
M  V30 2655 H 247.352 -0.698919 -1.39803 0
M  V30 2656 H 248.087 1.282 -2.97885 0
M  V30 2657 H 247.872 -0.225698 -3.9145 0
M  V30 2658 H 249.362 0.745191 -4.10897 0
M  V30 2659 N 249.799 1.42003 -0.683588 0
M  V30 2660 C 251.029 2.05448 -0.217866 0
M  V30 2661 C 251.437 1.51491 1.13346 0
M  V30 2662 O 250.78 0.653048 1.717 0
M  V30 2663 C 250.842 3.59399 -0.0850118 0
M  V30 2664 C 250.506 4.36093 -1.36645 0
M  V30 2665 C 251.503 4.66169 -2.30179 0
M  V30 2666 C 249.188 4.75578 -1.61649 0
M  V30 2667 C 251.182 5.34676 -3.46988 0
M  V30 2668 C 248.869 5.43824 -2.78745 0
M  V30 2669 C 249.867 5.73299 -3.71238 0
M  V30 2670 O 249.555 6.40142 -4.86285 0
M  V30 2671 H 249.287 0.668344 -0.101454 0
M  V30 2672 H 251.841 1.82974 -0.933248 0
M  V30 2673 H 250.071 3.80566 0.686031 0
M  V30 2674 H 251.76 4.04457 0.341973 0
M  V30 2675 H 252.526 4.36156 -2.12115 0
M  V30 2676 H 248.405 4.52025 -0.905243 0
M  V30 2677 H 251.949 5.57599 -4.19201 0
M  V30 2678 H 247.846 5.73254 -2.96732 0
M  V30 2679 H 248.614 6.58636 -4.85944 0
M  V30 2680 N 251.277 0.427512 1.51691 0
M  V30 2681 C 252.502 -0.143601 2.06902 0
M  V30 2682 C 252.927 -1.36536 1.29382 0
M  V30 2683 O 252.285 -1.78289 0.329043 0
M  V30 2684 C 252.333 -0.454207 3.57728 0
M  V30 2685 O 251.437 -1.54228 3.82475 0
M  V30 2686 H 250.778 -0.00617128 0.663971 0
M  V30 2687 H 253.308 0.606014 1.95419 0
M  V30 2688 H 253.318 -0.707525 4.01818 0
M  V30 2689 H 251.993 0.438812 4.13579 0
M  V30 2690 H 250.57 -1.2797 3.50254 0
M  V30 2691 N 252.755 -1.56801 0.158532 0
M  V30 2692 C 253.688 -2.13148 -0.815065 0
M  V30 2693 C 254.666 -1.0581 -1.23462 0
M  V30 2694 O 255.85 -1.3371 -1.32868 0
M  V30 2695 C 252.977 -2.6606 -2.09594 0
M  V30 2696 C 252.023 -3.85651 -1.82141 0
M  V30 2697 S 252.856 -5.26041 -1.00207 0
M  V30 2698 C 254.012 -5.8235 -2.29389 0
M  V30 2699 H 254.245 -2.95396 -0.335937 0
M  V30 2700 H 251.778 -1.54299 -0.0559391 0
M  V30 2701 H 253.736 -2.97195 -2.8317 0
M  V30 2702 H 252.397 -1.83921 -2.54621 0
M  V30 2703 H 251.59 -4.20958 -2.77147 0
M  V30 2704 H 251.192 -3.55338 -1.16667 0
M  V30 2705 H 253.484 -5.94485 -3.24952 0
M  V30 2706 H 254.427 -6.79688 -1.9857 0
M  V30 2707 H 254.835 -5.10675 -2.40564 0
M  V30 2708 N 254.233 0.115231 -1.57178 0
M  V30 2709 C 255.479 0.82357 -1.85325 0
M  V30 2710 C 255.812 1.79349 -0.744814 0
M  V30 2711 O 255.087 1.92899 0.249024 0
M  V30 2712 C 255.37 1.57014 -3.24066 0
M  V30 2713 C 255.223 0.619565 -4.45513 0
M  V30 2714 C 256.542 2.52545 -3.60429 0
M  V30 2715 H 253.661 0.297948 -0.674089 0
M  V30 2716 H 256.303 0.0877138 -1.89797 0
M  V30 2717 H 254.453 2.19742 -3.20383 0
M  V30 2718 H 256.125 0.000837639 -4.613 0
M  V30 2719 H 254.368 -0.0686174 -4.33746 0
M  V30 2720 H 255.039 1.17866 -5.3927 0
M  V30 2721 H 257.515 1.9992 -3.64926 0
M  V30 2722 H 256.391 3.01811 -4.58477 0
M  V30 2723 H 256.652 3.35383 -2.88047 0
M  V30 2724 N 255.711 1.52812 0.385517 0
M  V30 2725 C 256.96 1.67249 1.12741 0
M  V30 2726 C 257.273 0.4205 1.91027 0
M  V30 2727 O 258.479 0.445064 2.67827 0
M  V30 2728 C 256.935 2.95583 2.05326 0
M  V30 2729 C 256.543 4.27974 1.32447 0
M  V30 2730 C 258.287 3.19386 2.7963 0
M  V30 2731 C 256.194 5.47412 2.23818 0
M  V30 2732 H 255.124 0.6231 0.424573 0
M  V30 2733 H 257.775 1.79309 0.389924 0
M  V30 2734 H 256.157 2.77277 2.82725 0
M  V30 2735 H 257.331 4.56844 0.602495 0
M  V30 2736 H 255.646 4.10459 0.700885 0
M  V30 2737 H 258.243 4.05801 3.48181 0
M  V30 2738 H 258.586 2.34604 3.43899 0
M  V30 2739 H 259.119 3.38274 2.09322 0
M  V30 2740 H 255.858 6.34612 1.64157 0
M  V30 2741 H 255.378 5.22849 2.93921 0
M  V30 2742 H 257.057 5.81423 2.83824 0
M  V30 2743 N 257.189 -0.644168 1.43834 0
M  V30 2744 C 258.435 -1.40603 1.46146 0
M  V30 2745 C 258.768 -1.93997 0.0887717 0
M  V30 2746 O 258.043 -1.72854 -0.891724 0
M  V30 2747 C 258.326 -2.58086 2.51124 0
M  V30 2748 C 258.179 -2.10126 3.97702 0
M  V30 2749 C 259.498 -3.60291 2.52742 0
M  V30 2750 H 256.617 -0.509905 0.532134 0
M  V30 2751 H 259.259 -0.729502 1.75437 0
M  V30 2752 H 257.409 -3.15801 2.26278 0
M  V30 2753 H 259.081 -1.57342 4.33637 0
M  V30 2754 H 257.324 -1.41419 4.10101 0
M  V30 2755 H 257.995 -2.94649 4.66783 0
M  V30 2756 H 260.471 -3.12352 2.7491 0
M  V30 2757 H 259.347 -4.40032 3.28121 0
M  V30 2758 H 259.608 -4.1349 1.56455 0
M  V30 2759 N 258.668 -1.30515 -0.883378 0
M  V30 2760 C 260.079 -1.17509 -1.45081 0
M  V30 2761 C 260.43 0.223605 -1.94922 0
M  V30 2762 O 259.555 1.12041 -1.85137 0
M  V30 2763 C 260.15 -2.12715 -2.63701 0
M  V30 2764 C 258.709 -2.03682 -3.16529 0
M  V30 2765 C 257.856 -2.02706 -1.89224 0
M  V30 2766 H 260.807 -1.42762 -0.693165 0
M  V30 2767 H 260.828 -1.70891 -3.39965 0
M  V30 2768 H 260.34 -3.14505 -2.27395 0
M  V30 2769 H 258.441 -1.05039 -3.57488 0
M  V30 2770 H 258.554 -2.92146 -3.7972 0
M  V30 2771 H 256.918 -1.4753 -2.07622 0
M  V30 2772 H 257.701 -3.06229 -1.55174 0
M  V30 2773 N 260.146 1.09593 -1.13257 0
M  V30 2774 C 261.076 2.18214 -0.830946 0
M  V30 2775 C 262.057 1.68812 0.208966 0
M  V30 2776 O 263.242 1.9408 0.0682666 0
M  V30 2777 C 260.372 3.46051 -0.294296 0
M  V30 2778 C 259.326 4.08778 -1.26826 0
M  V30 2779 C 258.652 5.31419 -0.591449 0
M  V30 2780 C 259.952 4.51476 -2.62615 0
M  V30 2781 H 261.646 2.43703 -1.73923 0
M  V30 2782 H 259.192 1.17128 -0.837675 0
M  V30 2783 H 261.145 4.2134 -0.0709606 0
M  V30 2784 H 259.869 3.20079 0.649366 0
M  V30 2785 H 258.528 3.35505 -1.47756 0
M  V30 2786 H 258.176 5.01727 0.357633 0
M  V30 2787 H 257.876 5.74341 -1.24123 0
M  V30 2788 H 259.4 6.09433 -0.377355 0
M  V30 2789 H 260.814 5.17999 -2.45663 0
M  V30 2790 H 259.211 5.05277 -3.23752 0
M  V30 2791 H 260.281 3.63962 -3.20406 0
M  V30 2792 N 261.624 0.925811 1.2754 0
M  V30 2793 C 262.854 0.580666 1.98272 0
M  V30 2794 C 263.262 -0.845207 1.69272 0
M  V30 2795 O 262.605 -1.57306 0.948707 0
M  V30 2796 C 262.667 0.724418 3.52126 0
M  V30 2797 C 262.331 2.12206 4.04744 0
M  V30 2798 C 263.328 3.09604 4.17662 0
M  V30 2799 C 261.013 2.4385 4.39138 0
M  V30 2800 C 263.007 4.36755 4.64246 0
M  V30 2801 C 260.694 3.71237 4.85414 0
M  V30 2802 C 261.692 4.67503 4.97926 0
M  V30 2803 O 261.38 5.92624 5.43187 0
M  V30 2804 H 261.112 0.218987 0.639547 0
M  V30 2805 H 263.666 1.24452 1.63404 0
M  V30 2806 H 261.896 0.0034663 3.867 0
M  V30 2807 H 263.585 0.384607 4.04074 0
M  V30 2808 H 264.351 2.86478 3.91351 0
M  V30 2809 H 260.23 1.69665 4.28643 0
M  V30 2810 H 263.774 5.11898 4.73927 0
M  V30 2811 H 259.671 3.94182 5.11166 0
M  V30 2812 H 260.439 5.95585 5.61445 0
M  V30 2813 N 263.102 -1.41638 0.69111 0
M  V30 2814 C 264.379 -1.95036 0.148421 0
M  V30 2815 C 264.759 -1.63072 -1.34055 0
M  V30 2816 O 264.107 -0.93538 -2.08478 0
M  V30 2817 C 264.317 -3.46279 0.434951 0
M  V30 2818 C 265.665 -4.23069 0.360275 0
M  V30 2819 O 266.689 -3.54277 0.369613 0
M  V30 2820 O 265.548 -5.45583 0.316534 0
M  V30 2821 H 262.642 -0.826908 0.0123654 0
M  V30 2822 H 265.188 -1.5138 0.766963 0
M  V30 2823 H 263.96 -3.6281 1.46576 0
M  V30 2824 H 263.583 -3.97019 -0.214787 0
M  V30 2825 N 264.58 -0.43555 -1.51462 0
M  V30 2826 C 265.808 0.130242 -2.0649 0
M  V30 2827 C 266.223 1.36614 -1.30315 0
M  V30 2828 O 265.58 1.78869 -0.362223 0
M  V30 2829 C 265.631 0.454253 -3.58635 0
M  V30 2830 O 265.352 -0.73259 -4.31931 0
M  V30 2831 C 266.853 1.07091 -4.3017 0
M  V30 2832 H 264.073 0.00871669 -0.670943 0
M  V30 2833 H 266.617 -0.614117 -1.95061 0
M  V30 2834 H 264.772 1.14851 -3.69984 0
M  V30 2835 H 265.186 -0.455787 -5.22516 0
M  V30 2836 H 266.66 1.24764 -5.37716 0
M  V30 2837 H 267.137 2.05144 -3.88346 0
M  V30 2838 H 267.743 0.416089 -4.2326 0
M  V30 2839 N 266.058 1.56714 -0.166846 0
M  V30 2840 C 266.988 2.20754 0.760913 0
M  V30 2841 C 267.969 1.16178 1.24244 0
M  V30 2842 O 269.154 1.44592 1.29641 0
M  V30 2843 C 266.284 2.84478 1.99223 0
M  V30 2844 C 265.238 3.95053 1.64672 0
M  V30 2845 C 264.564 4.45805 2.95232 0
M  V30 2846 C 265.864 5.14865 0.878155 0
M  V30 2847 H 267.558 2.98537 0.22713 0
M  V30 2848 H 265.104 1.43596 0.107805 0
M  V30 2849 H 267.057 3.27951 2.64624 0
M  V30 2850 H 265.781 2.04056 2.55007 0
M  V30 2851 H 264.44 3.52228 1.01641 0
M  V30 2852 H 264.088 3.62181 3.49047 0
M  V30 2853 H 263.788 5.204 2.7287 0
M  V30 2854 H 265.312 4.91962 3.6167 0
M  V30 2855 H 266.726 5.55059 1.43466 0
M  V30 2856 H 265.123 5.95348 0.753738 0
M  V30 2857 H 266.193 4.84735 -0.126377 0
M  V30 2858 N 267.536 -0.106894 1.57237 0
M  V30 2859 C 268.784 -0.810921 1.85117 0
M  V30 2860 C 269.105 -1.7984 0.753827 0
M  V30 2861 O 268.375 -1.94649 -0.221056 0
M  V30 2862 H 266.955 -0.302466 0.683025 0
M  V30 2863 H 269.617 -0.0913324 1.94686 0
M  V30 2864 H 268.713 -1.34875 2.81452 0
M  V30 2865 N 269.014 -1.53014 -0.377408 0
M  V30 2866 C 269.962 -1.7927 -1.48206 0
M  V30 2867 C 270.956 -0.661195 -1.55963 0
M  V30 2868 O 272.162 -0.843908 -1.58991 0
M  V30 2869 H 268.537 -0.567425 -0.493491 0
M  V30 2870 H 270.508 -2.71753 -1.2326 0
M  V30 2871 C 269.257 -1.98894 -2.85196 0
M  V30 2872 H 268.58 -2.85395 -2.79981 0
M  V30 2873 H 270.02 -2.21249 -3.61698 0
M  V30 2874 C 268.479 -0.764691 -3.28107 0
M  V30 2875 O 269.009 0.0523226 -4.01666 0
M  V30 2876 N 267.215 -0.591493 -2.84517 0
M  V30 2877 H 266.762 -1.25749 -2.24822 0
M  V30 2878 H 266.72 0.226253 -3.13585 0
M  V30 2879 N 270.492 0.636531 -1.44174 0
M  V30 2880 C 271.402 1.77754 -1.53103 0
M  V30 2881 C 272.418 1.68928 -0.417034 0
M  V30 2882 O 273.594 1.89801 -0.6736 0
M  V30 2883 C 270.659 3.14115 -1.46741 0
M  V30 2884 C 269.72 3.34612 -2.68948 0
M  V30 2885 C 268.953 4.64467 -2.6288 0
M  V30 2886 O 269.176 5.44919 -1.68581 0
M  V30 2887 O 268.11 4.87049 -3.53648 0
M  V30 2888 H 271.936 1.73174 -2.49489 0
M  V30 2889 H 269.521 0.79709 -1.2636 0
M  V30 2890 H 271.403 3.95412 -1.45696 0
M  V30 2891 H 270.078 3.19249 -0.534975 0
M  V30 2892 H 268.985 2.53014 -2.75562 0
M  V30 2893 H 270.318 3.34336 -3.61221 0
M  V30 2894 N 271.97 1.30982 0.876444 0
M  V30 2895 C 272.933 1.18054 1.96459 0
M  V30 2896 C 273.933 0.109399 1.60427 0
M  V30 2897 O 275.123 0.358173 1.70478 0
M  V30 2898 C 272.255 0.810616 3.31122 0
M  V30 2899 H 273.448 2.14735 2.09354 0
M  V30 2900 H 271.001 1.145 1.06392 0
M  V30 2901 H 271.736 -0.155322 3.23928 0
M  V30 2902 H 271.521 1.58481 3.58645 0
M  V30 2903 H 273.011 0.743876 4.10921 0
M  V30 2904 N 273.449 -1.08991 1.13837 0
M  V30 2905 C 274.698 -1.80631 0.897509 0
M  V30 2906 C 275.011 -1.86872 -0.57777 0
M  V30 2907 O 276.217 -2.54866 -0.935701 0
M  V30 2908 C 274.673 -3.24517 1.55618 0
M  V30 2909 C 274.281 -3.26529 3.0673 0
M  V30 2910 C 276.025 -4.00882 1.3962 0
M  V30 2911 C 273.932 -4.64965 3.65461 0
M  V30 2912 H 272.862 -0.67691 0.332129 0
M  V30 2913 H 275.513 -1.2246 1.3666 0
M  V30 2914 H 273.895 -3.82778 1.01476 0
M  V30 2915 H 275.069 -2.78008 3.67489 0
M  V30 2916 H 273.384 -2.63656 3.22296 0
M  V30 2917 H 275.981 -5.03167 1.80906 0
M  V30 2918 H 276.324 -4.14896 0.341578 0
M  V30 2919 H 276.857 -3.49075 1.90766 0
M  V30 2920 H 273.596 -4.56153 4.70749 0
M  V30 2921 H 273.116 -5.13792 3.09481 0
M  V30 2922 H 274.795 -5.3394 3.654 0
M  V30 2923 N 274.927 -0.932562 -1.27047 0
M  V30 2924 C 276.155 -0.592031 -1.98249 0
M  V30 2925 C 276.57 0.831062 -1.69525 0
M  V30 2926 O 275.927 1.55299 -0.958561 0
M  V30 2927 C 275.978 -0.814279 -3.5221 0
M  V30 2928 O 275.699 -2.18139 -3.7993 0
M  V30 2929 C 277.2 -0.483121 -4.4066 0
M  V30 2930 H 274.42 -0.223896 -0.632544 0
M  V30 2931 H 276.964 -1.25091 -1.61779 0
M  V30 2932 H 275.119 -0.20213 -3.86872 0
M  V30 2933 H 275.533 -2.235 -4.74498 0
M  V30 2934 H 277.007 -0.689298 -5.47679 0
M  V30 2935 H 277.484 0.581546 -4.35333 0
M  V30 2936 H 278.09 -1.07362 -4.11526 0
M  V30 2937 N 276.405 1.4127 -0.698611 0
M  V30 2938 C 277.635 2.05205 -0.239644 0
M  V30 2939 C 278.043 1.52684 1.11733 0
M  V30 2940 O 277.386 0.671222 1.70998 0
M  V30 2941 C 277.448 3.59289 -0.123126 0
M  V30 2942 C 277.112 4.34619 -1.41263 0
M  V30 2943 C 278.109 4.63701 -2.35111 0
M  V30 2944 C 275.794 4.73837 -1.66684 0
M  V30 2945 C 277.788 5.30966 -3.52639 0
M  V30 2946 C 275.475 5.40837 -2.84498 0
M  V30 2947 C 276.473 5.69329 -3.77298 0
M  V30 2948 O 276.161 6.34949 -4.93047 0
M  V30 2949 H 275.893 0.66723 -0.108537 0
M  V30 2950 H 278.447 1.81974 -0.952602 0
M  V30 2951 H 276.677 3.81272 0.645628 0
M  V30 2952 H 278.366 4.04797 0.299056 0
M  V30 2953 H 279.132 4.33882 -2.16729 0
M  V30 2954 H 275.011 4.51039 -0.953135 0
M  V30 2955 H 278.555 5.53121 -4.25091 0
M  V30 2956 H 274.452 5.70075 -3.02795 0
M  V30 2957 H 275.22 6.53445 -4.92902 0
M  V30 2958 N 277.883 0.443576 1.51229 0
M  V30 2959 C 279.132 -0.122332 2.01329 0
M  V30 2960 C 279.445 -1.43237 1.33201 0
M  V30 2961 O 280.651 -2.0816 1.74304 0
M  V30 2962 C 279.107 -0.268551 3.58897 0
M  V30 2963 C 278.715 1.03142 4.35965 0
M  V30 2964 C 280.459 -0.787894 4.17124 0
M  V30 2965 C 278.366 0.850504 5.85252 0
M  V30 2966 H 277.296 -0.0494929 0.752374 0
M  V30 2967 H 279.947 0.574289 1.74282 0
M  V30 2968 H 278.329 -1.02832 3.82415 0
M  V30 2969 H 279.503 1.80001 4.24189 0
M  V30 2970 H 277.818 1.47977 3.89219 0
M  V30 2971 H 280.415 -0.939841 5.26375 0
M  V30 2972 H 280.758 -1.77201 3.76703 0
M  V30 2973 H 281.291 -0.0862669 3.97706 0
M  V30 2974 H 278.03 1.80718 6.30096 0
M  V30 2975 H 277.55 0.121825 5.99676 0
M  V30 2976 H 279.229 0.506163 6.45017 0
M  V30 2977 N 279.361 -1.56624 0.175154 0
M  V30 2978 C 280.607 -1.9729 -0.469506 0
M  V30 2979 C 280.94 -1.06128 -1.62636 0
M  V30 2980 O 280.215 -0.109183 -1.94193 0
M  V30 2981 C 280.498 -3.47375 -0.948804 0
M  V30 2982 C 280.351 -4.49317 0.208491 0
M  V30 2983 C 281.67 -4.00652 -1.82116 0
M  V30 2984 H 278.789 -0.717317 -0.16919 0
M  V30 2985 H 281.431 -1.88184 0.262062 0
M  V30 2986 H 279.581 -3.55267 -1.57219 0
M  V30 2987 H 281.253 -4.53482 0.845682 0
M  V30 2988 H 279.496 -4.25121 0.863395 0
M  V30 2989 H 280.167 -5.51741 -0.169059 0
M  V30 2990 H 282.643 -3.95416 -1.2956 0
M  V30 2991 H 281.519 -5.06075 -2.12554 0
M  V30 2992 H 281.78 -3.44699 -2.7683 0
M  V30 2993 N 280.839 0.0985539 -1.57292 0
M  V30 2994 C 281.787 1.1387 -2.02821 0
M  V30 2995 C 282.781 1.41676 -0.928666 0
M  V30 2996 O 283.987 1.41398 -1.11385 0
M  V30 2997 H 280.362 0.384419 -0.646317 0
M  V30 2998 H 282.333 0.728347 -2.89375 0
M  V30 2999 C 281.082 2.45166 -2.46554 0
M  V30 3000 H 280.405 2.24613 -3.3074 0
M  V30 3001 H 281.845 3.16456 -2.8219 0
M  V30 3002 C 280.304 3.09216 -1.33742 0
M  V30 3003 O 280.834 3.96163 -0.66464 0
M  V30 3004 N 279.04 2.69413 -1.08928 0
M  V30 3005 H 278.587 1.98801 -1.63817 0
M  V30 3006 H 278.545 3.12594 -0.336458 0
M  V30 3007 N 282.317 1.53212 0.369288 0
M  V30 3008 C 283.264 1.79388 1.45219 0
M  V30 3009 C 284.234 0.638059 1.53356 0
M  V30 3010 O 285.419 0.879852 1.69302 0
M  V30 3011 C 282.559 1.98623 2.82211 0
M  V30 3012 C 281.672 3.26337 2.8307 0
M  V30 3013 C 280.807 3.35779 4.11614 0
M  V30 3014 C 279.846 4.5754 4.06601 0
M  V30 3015 N 278.983 4.64155 5.26787 0
M  V30 3016 H 283.823 2.71794 1.22198 0
M  V30 3017 H 281.36 1.34642 0.592444 0
M  V30 3018 H 283.318 2.07761 3.61789 0
M  V30 3019 H 281.948 1.09558 3.03639 0
M  V30 3020 H 281 3.26171 1.95747 0
M  V30 3021 H 282.312 4.15988 2.75237 0
M  V30 3022 H 281.466 3.44208 4.99606 0
M  V30 3023 H 280.205 2.44137 4.22195 0
M  V30 3024 H 279.21 4.49215 3.16996 0
M  V30 3025 H 280.435 5.50519 3.97625 0
M  V30 3026 H 278.381 3.75413 5.3796 0
M  V30 3027 H 278.298 5.47706 5.21109 0
M  V30 3028 H 279.566 4.76863 6.16621 0
M  V30 3029 N 283.795 -0.628877 1.44509 0
M  V30 3030 C 284.758 -1.72263 1.51188 0
M  V30 3031 C 285.758 -1.55907 0.39367 0
M  V30 3032 O 286.948 -1.61361 0.656377 0
M  V30 3033 C 284.08 -3.11365 1.38798 0
M  V30 3034 H 285.273 -1.67714 2.4862 0
M  V30 3035 H 282.826 -0.842737 1.31634 0
M  V30 3036 H 283.561 -3.21507 0.424693 0
M  V30 3037 H 283.346 -3.24644 2.19884 0
M  V30 3038 H 284.836 -3.91075 1.46458 0
M  V30 3039 N 285.273 -1.31445 -0.869486 0
M  V30 3040 C 286.183 -1.21097 -2.0093 0
M  V30 3041 C 287.199 -0.127584 -1.73532 0
M  V30 3042 O 288.375 -0.345477 -1.98415 0
M  V30 3043 C 285.44 -0.919378 -3.34288 0
M  V30 3044 C 284.501 -2.08971 -3.75006 0
M  V30 3045 C 283.734 -1.81194 -5.02001 0
M  V30 3046 O 283.957 -0.747296 -5.65484 0
M  V30 3047 O 282.891 -2.66883 -5.39497 0
M  V30 3048 H 286.717 -2.16883 -2.12592 0
M  V30 3049 H 284.302 -1.11189 -0.997868 0
M  V30 3050 H 286.184 -0.772625 -4.14257 0
M  V30 3051 H 284.859 0.00844772 -3.23699 0
M  V30 3052 H 283.766 -2.29187 -2.95676 0
M  V30 3053 H 285.099 -2.9998 -3.90221 0
M  V30 3054 N 286.751 1.08385 -1.14413 0
M  V30 3055 C 287.681 2.17321 -0.854044 0
M  V30 3056 C 288.662 1.69024 0.191049 0
M  V30 3057 O 289.847 1.94141 0.0476779 0
M  V30 3058 C 286.977 3.45719 -0.330983 0
M  V30 3059 C 285.931 4.07409 -1.31155 0
M  V30 3060 C 285.257 5.30762 -0.64778 0
M  V30 3061 C 286.557 4.48665 -2.67388 0
M  V30 3062 H 288.251 2.41845 -1.76498 0
M  V30 3063 H 285.797 1.16233 -0.850051 0
M  V30 3064 H 287.75 4.21241 -0.115645 0
M  V30 3065 H 286.474 3.2075 0.615381 0
M  V30 3066 H 285.133 3.33919 -1.51306 0
M  V30 3067 H 284.781 5.02078 0.304398 0
M  V30 3068 H 284.481 5.72992 -1.30207 0
M  V30 3069 H 286.005 6.08998 -0.441972 0
M  V30 3070 H 287.419 5.15364 -2.51143 0
M  V30 3071 H 285.816 5.01814 -3.29093 0
M  V30 3072 H 286.886 3.60543 -3.24248 0
M  V30 3073 N 288.23 0.939286 1.26551 0
M  V30 3074 C 289.455 0.602008 1.98471 0
M  V30 3075 C 289.88 -0.815624 1.69497 0
M  V30 3076 O 289.238 -1.54912 0.941905 0
M  V30 3077 C 289.286 0.848407 3.50477 0
M  V30 3078 O 288.39 -0.0804009 4.12322 0
M  V30 3079 H 287.731 0.23049 0.622712 0
M  V30 3080 H 290.261 1.2617 1.61066 0
M  V30 3081 H 290.271 0.768553 4.00696 0
M  V30 3082 H 288.946 1.88171 3.70897 0
M  V30 3083 H 287.523 0.0503508 3.72866 0
M  V30 3084 N 289.708 -1.40897 0.706093 0
M  V30 3085 C 290.638 -2.33418 0.0620085 0
M  V30 3086 C 291.619 -1.52385 -0.755827 0
M  V30 3087 O 292.804 -1.80886 -0.706674 0
M  V30 3088 C 289.934 -3.36293 -0.867445 0
M  V30 3089 C 288.888 -4.27716 -0.155932 0
M  V30 3090 C 288.214 -5.2105 -1.20046 0
M  V30 3091 C 289.514 -5.12944 0.984149 0
M  V30 3092 H 291.208 -2.87527 0.83477 0
M  V30 3093 H 288.754 -1.38249 0.402875 0
M  V30 3094 H 290.707 -3.99949 -1.32735 0
M  V30 3095 H 289.431 -2.80556 -1.67199 0
M  V30 3096 H 288.09 -3.65498 0.284047 0
M  V30 3097 H 287.738 -4.61624 -1.99781 0
M  V30 3098 H 287.438 -5.83056 -0.729328 0
M  V30 3099 H 288.962 -5.87584 -1.66066 0
M  V30 3100 H 290.376 -5.70109 0.604048 0
M  V30 3101 H 288.773 -5.83945 1.38304 0
M  V30 3102 H 289.843 -4.49485 1.81911 0
M  V30 3103 N 291.186 -0.45159 -1.50991 0
M  V30 3104 C 292.432 0.110237 -2.025 0
M  V30 3105 C 292.765 1.41109 -1.33424 0
M  V30 3106 O 292.04 1.89135 -0.453659 0
M  V30 3107 C 292.323 0.314271 -3.58726 0
M  V30 3108 C 292.176 -1.00623 -4.38401 0
M  V30 3109 C 293.495 1.07767 -4.26702 0
M  V30 3110 H 290.614 0.0385897 -0.735989 0
M  V30 3111 H 293.256 -0.593374 -1.80497 0
M  V30 3112 H 291.406 0.913601 -3.77605 0
M  V30 3113 H 293.078 -1.64064 -4.31139 0
M  V30 3114 H 291.321 -1.6075 -4.02917 0
M  V30 3115 H 291.992 -0.817341 -5.45915 0
M  V30 3116 H 294.468 0.56986 -4.12179 0
M  V30 3117 H 293.344 1.18921 -5.35863 0
M  V30 3118 H 293.605 2.10939 -3.88532 0
M  V30 3119 N 292.664 1.56529 -0.183458 0
M  V30 3120 C 293.911 1.97244 0.458357 0
M  V30 3121 C 294.239 1.06992 1.62428 0
M  V30 3122 O 293.494 0.106542 1.9541 0
M  V30 3123 C 293.793 3.43939 0.971637 0
M  V30 3124 C 293.459 4.5083 -0.0796784 0
M  V30 3125 C 292.121 4.79786 -0.368584 0
M  V30 3126 C 294.473 5.15138 -0.792638 0
M  V30 3127 C 291.801 5.70345 -1.37563 0
M  V30 3128 C 294.153 6.06784 -1.78875 0
M  V30 3129 C 292.817 6.34102 -2.08497 0
M  V30 3130 H 292.087 0.721768 0.167725 0
M  V30 3131 H 294.734 1.89472 -0.277976 0
M  V30 3132 H 293.039 3.48724 1.78602 0
M  V30 3133 H 294.736 3.72791 1.47744 0
M  V30 3134 H 291.326 4.28317 0.155668 0
M  V30 3135 H 295.51 4.92868 -0.582659 0
M  V30 3136 H 290.766 5.89789 -1.61118 0
M  V30 3137 H 294.94 6.55677 -2.3465 0
M  V30 3138 H 292.567 7.04074 -2.86678 0
M  V30 3139 N 294.142 -0.090211 1.57342 0
M  V30 3140 C 295.388 -0.793982 1.86611 0
M  V30 3141 C 295.721 -1.78142 0.773252 0
M  V30 3142 O 294.996 -1.93271 -0.218304 0
M  V30 3143 C 295.279 -1.51839 3.26523 0
M  V30 3144 C 295.132 -0.548609 4.46442 0
M  V30 3145 C 296.451 -2.46779 3.64401 0
M  V30 3146 H 293.57 -0.287186 0.678744 0
M  V30 3147 H 296.212 -0.0575076 1.89913 0
M  V30 3148 H 294.362 -2.14617 3.23839 0
M  V30 3149 H 296.034 0.0725513 4.61243 0
M  V30 3150 H 294.277 0.137614 4.33582 0
M  V30 3151 H 294.948 -1.09271 5.41076 0
M  V30 3152 H 297.424 -1.94089 3.68061 0
M  V30 3153 H 296.3 -2.94479 4.63221 0
M  V30 3154 H 296.561 -3.30758 2.93346 0
M  V30 3155 N 295.62 -1.53406 -0.361157 0
M  V30 3156 C 296.897 -1.60411 -1.11927 0
M  V30 3157 C 297.277 -0.414385 -2.06993 0
M  V30 3158 O 296.625 0.594976 -2.20618 0
M  V30 3159 C 296.835 -2.95652 -1.85448 0
M  V30 3160 C 298.183 -3.50386 -2.39823 0
M  V30 3161 O 299.207 -2.97711 -1.95568 0
M  V30 3162 O 298.066 -4.42482 -3.20737 0
M  V30 3163 H 295.16 -0.64811 -0.513695 0
M  V30 3164 H 297.706 -1.65749 -0.364065 0
M  V30 3165 H 296.478 -3.73682 -1.16091 0
M  V30 3166 H 296.101 -2.93825 -2.67866 0
M  V30 3167 N 297.098 0.621204 -1.44841 0
M  V30 3168 C 298.045 1.73267 -1.5247 0
M  V30 3169 C 299.015 1.6189 -0.371611 0
M  V30 3170 O 300.2 1.81668 -0.58321 0
M  V30 3171 C 297.34 3.11545 -1.48438 0
M  V30 3172 C 296.453 3.33827 -2.74196 0
M  V30 3173 C 295.588 4.62133 -2.61929 0
M  V30 3174 C 294.627 4.77627 -3.82804 0
M  V30 3175 N 293.764 5.97219 -3.69153 0
M  V30 3176 H 298.604 1.66082 -2.47428 0
M  V30 3177 H 296.141 0.810026 -1.22788 0
M  V30 3178 H 298.099 3.91528 -1.4409 0
M  V30 3179 H 296.729 3.1772 -0.570402 0
M  V30 3180 H 295.781 2.47715 -2.88689 0
M  V30 3181 H 297.093 3.41153 -3.6389 0
M  V30 3182 H 296.247 5.50291 -2.5547 0
M  V30 3183 H 294.986 4.57182 -1.69811 0
M  V30 3184 H 293.991 3.87896 -3.89637 0
M  V30 3185 H 295.216 4.84385 -4.75971 0
M  V30 3186 H 293.162 5.93339 -2.79794 0
M  V30 3187 H 293.079 6.05644 -4.52472 0
M  V30 3188 H 294.347 6.87912 -3.66603 0
M  V30 3189 N 298.576 1.31904 0.862503 0
M  V30 3190 C 299.987 1.19803 1.43193 0
M  V30 3191 C 300.338 -0.192567 1.95253 0
M  V30 3192 O 299.463 -1.09081 1.86896 0
M  V30 3193 C 300.058 2.16883 2.60283 0
M  V30 3194 C 298.617 2.08692 3.13248 0
M  V30 3195 C 297.764 2.05691 1.85975 0
M  V30 3196 H 300.715 1.43846 0.670365 0
M  V30 3197 H 300.736 1.76278 3.37204 0
M  V30 3198 H 300.248 3.18083 2.22363 0
M  V30 3199 H 298.349 1.10713 3.55771 0
M  V30 3200 H 298.462 2.9815 3.75025 0
M  V30 3201 H 296.826 1.50814 2.05249 0
M  V30 3202 H 297.609 3.08659 1.50282 0
M  V30 3203 N 300.054 -1.07777 1.14986 0
M  V30 3204 C 300.964 -2.18404 0.856546 0
M  V30 3205 C 301.98 -1.73211 -0.165485 0
M  V30 3206 O 303.156 -2.01399 0.00755219 0
M  V30 3207 C 300.221 -3.44977 0.34526 0
M  V30 3208 C 299.282 -4.0476 1.43065 0
M  V30 3209 C 298.515 -5.25291 0.943663 0
M  V30 3210 O 298.738 -5.70004 -0.212426 0
M  V30 3211 O 297.672 -5.76638 1.72547 0
M  V30 3212 H 301.498 -2.45978 1.78125 0
M  V30 3213 H 299.083 -1.17033 0.928631 0
M  V30 3214 H 300.965 -4.21348 0.0663671 0
M  V30 3215 H 299.64 -3.18965 -0.551631 0
M  V30 3216 H 298.547 -3.29949 1.76309 0
M  V30 3217 H 299.88 -4.35035 2.30229 0
M  V30 3218 N 301.532 -0.945985 -1.26051 0
M  V30 3219 C 302.479 -0.45809 -2.26208 0
M  V30 3220 C 303.449 0.484816 -1.58867 0
M  V30 3221 O 304.634 0.399969 -1.86561 0
M  V30 3222 C 301.774 0.266131 -3.44072 0
M  V30 3223 C 300.887 -0.713005 -4.26075 0
M  V30 3224 C 300.022 0.0329013 -5.3119 0
M  V30 3225 C 299.061 -0.93774 -6.04874 0
M  V30 3226 N 298.198 -0.223274 -7.01745 0
M  V30 3227 H 303.038 -1.3171 -2.67313 0
M  V30 3228 H 300.575 -0.66069 -1.31428 0
M  V30 3229 H 302.533 0.702514 -4.11243 0
M  V30 3230 H 301.163 1.08925 -3.03867 0
M  V30 3231 H 300.215 -1.26789 -3.58648 0
M  V30 3232 H 301.527 -1.45406 -4.77136 0
M  V30 3233 H 300.681 0.528335 -6.04395 0
M  V30 3234 H 299.42 0.806801 -4.8098 0
M  V30 3235 H 298.425 -1.44425 -5.30492 0
M  V30 3236 H 299.65 -1.71172 -6.57173 0
M  V30 3237 H 297.596 0.532046 -6.53839 0
M  V30 3238 H 297.513 -0.90357 -7.50581 0
M  V30 3239 H 298.781 0.250907 -7.79096 0
M  V30 3240 N 303.011 1.40521 -0.713556 0
M  V30 3241 C 303.974 2.29098 -0.0684347 0
M  V30 3242 C 304.974 1.45268 0.689472 0
M  V30 3243 O 306.164 1.66205 0.521677 0
M  V30 3244 C 303.296 3.28446 0.913024 0
M  V30 3245 H 304.489 2.87645 -0.84855 0
M  V30 3246 H 302.042 1.48809 -0.47809 0
M  V30 3247 H 302.777 2.74913 1.72027 0
M  V30 3248 H 302.562 3.90327 0.372472 0
M  V30 3249 H 304.052 3.94777 1.36165 0
M  V30 3250 N 304.489 0.459591 1.5075 0
M  V30 3251 C 305.436 -0.340524 2.28274 0
M  V30 3252 C 306.406 -0.997371 1.32822 0
M  V30 3253 O 307.591 -1.01202 1.61749 0
M  V30 3254 C 304.731 -1.42317 3.14388 0
M  V30 3255 C 303.844 -0.782251 4.24859 0
M  V30 3256 C 302.979 -1.84182 4.98247 0
M  V30 3257 C 302.018 -1.18053 6.00608 0
M  V30 3258 N 301.155 -2.18244 6.67319 0
M  V30 3259 H 305.995 0.326899 2.96202 0
M  V30 3260 H 303.532 0.173057 1.46078 0
M  V30 3261 H 305.49 -2.06241 3.62658 0
M  V30 3262 H 304.12 -2.05992 2.4853 0
M  V30 3263 H 303.172 -0.0307404 3.80388 0
M  V30 3264 H 304.484 -0.259663 4.98124 0
M  V30 3265 H 303.638 -2.55714 5.50177 0
M  V30 3266 H 302.377 -2.39819 4.24662 0
M  V30 3267 H 301.382 -0.450776 5.47949 0
M  V30 3268 H 302.607 -0.631202 6.7616 0
M  V30 3269 H 300.553 -2.72919 5.96533 0
M  V30 3270 H 300.47 -1.70938 7.36421 0
M  V30 3271 H 301.738 -2.89191 7.23871 0
M  V30 3272 N 305.967 -1.56429 0.191757 0
M  V30 3273 C 306.897 -2.21937 -0.725696 0
M  V30 3274 C 307.878 -1.1814 -1.2238 0
M  V30 3275 O 309.063 -1.46636 -1.27325 0
M  V30 3276 C 306.193 -2.87611 -1.94672 0
M  V30 3277 C 305.147 -3.97623 -1.58366 0
M  V30 3278 C 304.473 -4.50446 -2.88102 0
M  V30 3279 C 305.773 -5.16197 -0.796133 0
M  V30 3280 H 307.467 -2.98861 -0.179606 0
M  V30 3281 H 305.013 -1.43749 -0.0849464 0
M  V30 3282 H 306.966 -3.3212 -2.59373 0
M  V30 3283 H 305.69 -2.08087 -2.51728 0
M  V30 3284 H 304.349 -3.53801 -0.960247 0
M  V30 3285 H 303.997 -3.67688 -3.43241 0
M  V30 3286 H 303.697 -5.24675 -2.64556 0
M  V30 3287 H 305.221 -4.97654 -3.53798 0
M  V30 3288 H 306.635 -5.57271 -1.34618 0
M  V30 3289 H 305.032 -5.96471 -0.658928 0
M  V30 3290 H 306.102 -4.84473 0.203478 0
M  V30 3291 N 307.445 0.0818655 -1.57387 0
M  V30 3292 C 308.375 1.09885 -2.06028 0
M  V30 3293 C 309.356 1.4098 -0.951774 0
M  V30 3294 O 310.541 1.50781 -1.22387 0
M  V30 3295 C 307.671 2.4151 -2.4958 0
M  V30 3296 C 306.625 2.24792 -3.64215 0
M  V30 3297 C 305.951 3.61712 -3.93787 0
M  V30 3298 C 307.251 1.67749 -4.94629 0
M  V30 3299 H 308.945 0.694128 -2.91243 0
M  V30 3300 H 306.491 0.332448 -1.4011 0
M  V30 3301 H 308.444 3.12939 -2.82219 0
M  V30 3302 H 307.168 2.83943 -1.61381 0
M  V30 3303 H 305.827 1.55807 -3.31843 0
M  V30 3304 H 305.475 4.01697 -3.02735 0
M  V30 3305 H 305.175 3.51368 -4.70971 0
M  V30 3306 H 306.699 4.34587 -4.28913 0
M  V30 3307 H 308.113 2.29032 -5.25564 0
M  V30 3308 H 306.51 1.68128 -5.76067 0
M  V30 3309 H 307.58 0.638059 -4.80684 0
M  V30 3310 N 308.923 1.53595 0.353017 0
M  V30 3311 C 309.853 1.83902 1.43883 0
M  V30 3312 C 310.834 0.693421 1.55324 0
M  V30 3313 O 312.019 0.944452 1.69687 0
M  V30 3314 C 309.149 2.04016 2.8106 0
M  V30 3315 C 308.103 3.19814 2.84434 0
M  V30 3316 C 307.429 3.25244 4.24406 0
M  V30 3317 C 308.729 4.58133 2.50822 0
M  V30 3318 H 310.423 2.74835 1.1877 0
M  V30 3319 H 307.969 1.32242 0.569917 0
M  V30 3320 H 309.922 2.238 3.57059 0
M  V30 3321 H 308.646 1.09804 3.07588 0
M  V30 3322 H 307.305 2.9987 2.10887 0
M  V30 3323 H 306.953 2.28646 4.48029 0
M  V30 3324 H 306.653 4.03054 4.27576 0
M  V30 3325 H 308.177 3.47228 5.0226 0
M  V30 3326 H 309.591 4.77995 3.16534 0
M  V30 3327 H 307.988 5.38276 2.6529 0
M  V30 3328 H 309.058 4.62387 1.46034 0
M  V30 3329 N 310.401 -0.613514 1.45168 0
M  V30 3330 C 311.311 -1.75296 1.55912 0
M  V30 3331 C 312.327 -1.68244 0.443856 0
M  V30 3332 O 313.503 -1.88706 0.70371 0
M  V30 3333 C 310.568 -3.1174 1.5172 0
M  V30 3334 C 309.629 -3.30291 2.74238 0
M  V30 3335 C 308.862 -4.60226 2.70236 0
M  V30 3336 O 309.085 -5.42168 1.77229 0
M  V30 3337 O 308.019 -4.81361 3.61352 0
M  V30 3338 H 311.845 -1.69183 2.52212 0
M  V30 3339 H 309.43 -0.776886 1.27612 0
M  V30 3340 H 311.312 -3.93044 1.51968 0
M  V30 3341 H 309.987 -3.18357 0.585697 0
M  V30 3342 H 308.894 -2.48598 2.79553 0
M  V30 3343 H 310.227 -3.28547 3.66494 0
M  V30 3344 N 311.879 -1.3236 -0.855495 0
M  V30 3345 C 313.127 -1.22629 -1.60644 0
M  V30 3346 C 313.448 0.212136 -1.93843 0
M  V30 3347 O 312.718 1.13666 -1.59552 0
M  V30 3348 H 311.298 -0.450882 -0.595579 0
M  V30 3349 H 313.96 -1.65871 -1.02337 0
M  V30 3350 H 313.056 -1.80832 -2.54374 0
M  V30 3351 N 313.357 1.07166 -1.15556 0
M  V30 3352 C 314.603 1.80065 -0.932984 0
M  V30 3353 C 314.936 1.86586 0.53845 0
M  V30 3354 O 314.211 1.35098 1.39924 0
M  V30 3355 C 314.494 3.25022 -1.55025 0
M  V30 3356 C 314.347 3.26634 -3.09242 0
M  V30 3357 C 315.666 4.22341 -1.2376 0
M  V30 3358 H 312.785 0.653697 -0.340366 0
M  V30 3359 H 315.427 1.25389 -1.4275 0
M  V30 3360 H 313.577 3.71712 -1.12972 0
M  V30 3361 H 315.249 2.88173 -3.60214 0
M  V30 3362 H 313.492 2.65539 -3.43033 0
M  V30 3363 H 314.163 4.28854 -3.47546 0
M  V30 3364 H 316.639 3.8405 -1.60139 0
M  V30 3365 H 315.515 5.22053 -1.69564 0
M  V30 3366 H 315.776 4.41828 -0.154938 0
M  V30 3367 N 314.835 0.952656 1.25548 0
M  V30 3368 C 315.745 0.47782 2.29682 0
M  V30 3369 C 316.761 -0.453859 1.67977 0
M  V30 3370 O 317.937 -0.330587 1.98668 0
M  V30 3371 C 315.002 -0.238655 3.45878 0
M  V30 3372 C 314.063 0.730994 4.23031 0
M  V30 3373 C 313.296 0.0486165 5.33678 0
M  V30 3374 O 313.519 -1.16612 5.58353 0
M  V30 3375 O 312.453 0.733152 5.97418 0
M  V30 3376 H 316.279 1.34312 2.72386 0
M  V30 3377 H 313.864 0.719026 1.30959 0
M  V30 3378 H 315.746 -0.641774 4.16484 0
M  V30 3379 H 314.421 -1.07916 3.05181 0
M  V30 3380 H 313.328 1.18428 3.5486 0
M  V30 3381 H 314.661 1.53946 4.67506 0
M  V30 3382 N 316.313 -1.40141 0.720998 0
M  V30 3383 C 317.261 -2.3252 0.0608547 0
M  V30 3384 C 318.255 -1.52326 -0.741152 0
M  V30 3385 O 319.461 -1.68089 -0.643911 0
M  V30 3386 H 315.836 -0.751999 0.000876664 0
M  V30 3387 H 317.807 -2.8584 0.856614 0
M  V30 3388 C 316.556 -3.37331 -0.842809 0
M  V30 3389 H 315.879 -3.99108 -0.235084 0
M  V30 3390 H 317.319 -4.04452 -1.27257 0
M  V30 3391 C 315.778 -2.73246 -1.97074 0
M  V30 3392 O 316.308 -2.59998 -3.06209 0
M  V30 3393 N 314.514 -2.31547 -1.75597 0
M  V30 3394 H 314.061 -2.42522 -0.868368 0
M  V30 3395 H 314.019 -1.89007 -2.51244 0
M  V30 3396 N 317.792 -0.46758 -1.50504 0
M  V30 3397 C 318.739 0.328413 -2.28452 0
M  V30 3398 C 319.709 0.990313 -1.33349 0
M  V30 3399 O 320.894 1.00343 -1.62284 0
M  V30 3400 C 318.034 1.40648 -3.15138 0
M  V30 3401 C 317.147 0.759709 -4.25267 0
M  V30 3402 C 316.282 1.81537 -4.99217 0
M  V30 3403 C 315.321 1.14866 -6.01226 0
M  V30 3404 N 314.458 2.14702 -6.68467 0
M  V30 3405 H 319.298 -0.342603 -2.96024 0
M  V30 3406 H 316.835 -0.180801 -1.45985 0
M  V30 3407 H 318.793 2.04315 -3.63746 0
M  V30 3408 H 317.423 2.04671 -2.49619 0
M  V30 3409 H 316.475 0.0105671 -3.80399 0
M  V30 3410 H 317.787 0.233243 -4.98254 0
M  V30 3411 H 316.941 2.52793 -5.51526 0
M  V30 3412 H 315.68 2.37564 -4.25928 0
M  V30 3413 H 314.685 0.42171 -5.4818 0
M  V30 3414 H 315.91 0.595334 -6.76485 0
M  V30 3415 H 313.856 2.69752 -5.97972 0
M  V30 3416 H 313.773 1.6703 -7.37317 0
M  V30 3417 H 315.041 2.85348 -7.25394 0
M  V30 3418 N 319.27 1.56325 -0.20005 0
M  V30 3419 C 320.2 2.22318 0.713916 0
M  V30 3420 C 321.181 1.18788 1.21752 0
M  V30 3421 O 322.366 1.47309 1.26545 0
M  V30 3422 C 319.496 2.88639 1.93144 0
M  V30 3423 C 318.45 3.98457 1.56255 0
M  V30 3424 C 317.776 4.51967 2.85709 0
M  V30 3425 C 319.076 5.16612 0.768747 0
M  V30 3426 H 320.77 2.98952 0.163755 0
M  V30 3427 H 318.316 1.43792 0.0773219 0
M  V30 3428 H 320.269 3.33491 2.57608 0
M  V30 3429 H 318.993 2.09419 2.50621 0
M  V30 3430 H 317.652 3.54305 0.941471 0
M  V30 3431 H 317.3 3.69503 3.41287 0
M  V30 3432 H 317 5.26071 2.6177 0
M  V30 3433 H 318.524 4.99523 3.51154 0
M  V30 3434 H 319.938 5.57977 1.3166 0
M  V30 3435 H 318.335 5.96812 0.627286 0
M  V30 3436 H 319.405 4.84358 -0.229168 0
M  V30 3437 N 320.748 -0.0735177 1.57428 0
M  V30 3438 C 321.997 -0.771809 1.86349 0
M  V30 3439 C 322.31 -1.78828 0.792452 0
M  V30 3440 O 323.516 -2.53602 0.96945 0
M  V30 3441 C 321.972 -1.42358 3.30548 0
M  V30 3442 C 321.58 -0.445761 4.45777 0
M  V30 3443 C 323.324 -2.10434 3.6867 0
M  V30 3444 C 321.231 -1.10335 5.81016 0
M  V30 3445 H 320.161 -0.291999 0.695164 0
M  V30 3446 H 322.812 -0.0250749 1.83483 0
M  V30 3447 H 321.194 -2.21852 3.28021 0
M  V30 3448 H 322.368 0.319239 4.59693 0
M  V30 3449 H 320.683 0.130457 4.16196 0
M  V30 3450 H 323.28 -2.60405 4.67004 0
M  V30 3451 H 323.623 -2.90298 2.98383 0
M  V30 3452 H 324.156 -1.37773 3.7318 0
M  V30 3453 H 320.895 -0.345061 6.54591 0
M  V30 3454 H 320.415 -1.83925 5.70904 0
M  V30 3455 H 322.094 -1.62367 6.26295 0
M  V30 3456 N 322.226 -1.5378 -0.344866 0
M  V30 3457 C 323.637 -1.62428 -0.920552 0
M  V30 3458 C 323.988 -0.504747 -1.89596 0
M  V30 3459 O 323.113 0.365711 -2.13287 0
M  V30 3460 C 323.708 -2.94419 -1.67639 0
M  V30 3461 C 322.267 -3.05333 -2.20111 0
M  V30 3462 C 321.414 -2.57866 -1.01982 0
M  V30 3463 H 324.365 -1.58222 -0.123042 0
M  V30 3464 H 324.386 -2.83384 -2.53917 0
M  V30 3465 H 323.898 -3.7588 -0.966224 0
M  V30 3466 H 321.999 -2.28502 -2.94308 0
M  V30 3467 H 322.112 -4.10778 -2.46573 0
M  V30 3468 H 320.476 -2.13241 -1.39285 0
M  V30 3469 H 321.259 -3.41765 -0.324308 0
M  V30 3470 N 323.704 0.605807 -1.45491 0
M  V30 3471 C 324.952 1.36207 -1.49305 0
M  V30 3472 C 325.273 1.94519 -0.136863 0
M  V30 3473 O 324.543 1.77261 0.833983 0
M  V30 3474 H 323.123 0.50565 -0.549843 0
M  V30 3475 H 325.785 0.711239 -1.81459 0
M  V30 3476 H 324.881 2.18058 -2.23287 0
M  V30 3477 N 325.182 1.32811 0.848464 0
M  V30 3478 C 326.112 1.24882 1.97299 0
M  V30 3479 C 327.093 0.131357 1.69592 0
M  V30 3480 O 328.278 0.319553 1.91553 0
M  V30 3481 C 325.408 0.97746 3.33261 0
M  V30 3482 C 324.362 2.05682 3.75338 0
M  V30 3483 C 323.688 1.63777 5.09 0
M  V30 3484 C 324.988 3.47254 3.90144 0
M  V30 3485 H 326.682 2.18966 2.04191 0
M  V30 3486 H 324.228 1.05413 0.981029 0
M  V30 3487 H 326.181 0.908513 4.1149 0
M  V30 3488 H 324.905 0.000980011 3.266 0
M  V30 3489 H 323.564 2.11603 2.99366 0
M  V30 3490 H 323.212 0.648569 4.98801 0
M  V30 3491 H 322.912 2.36 5.38124 0
M  V30 3492 H 324.436 1.5833 5.89715 0
M  V30 3493 H 325.85 3.43888 4.58709 0
M  V30 3494 H 324.247 4.1788 4.30693 0
M  V30 3495 H 325.317 3.86462 2.92874 0
M  V30 3496 N 326.66 -1.06551 1.16123 0
M  V30 3497 C 327.607 -2.13961 0.865414 0
M  V30 3498 C 328.577 -1.65066 -0.185055 0
M  V30 3499 O 329.762 -1.90732 -0.05083 0
M  V30 3500 C 326.902 -3.43113 0.369776 0
M  V30 3501 C 326.015 -4.05756 1.48276 0
M  V30 3502 C 325.15 -5.22773 0.942414 0
M  V30 3503 C 324.189 -5.77395 2.03179 0
M  V30 3504 N 323.326 -6.85731 1.50721 0
M  V30 3505 H 328.166 -2.38605 1.78527 0
M  V30 3506 H 325.703 -1.17072 0.890646 0
M  V30 3507 H 327.661 -4.17151 0.0640643 0
M  V30 3508 H 326.291 -3.18695 -0.513143 0
M  V30 3509 H 325.343 -3.29292 1.9045 0
M  V30 3510 H 326.655 -4.42351 2.30493 0
M  V30 3511 H 325.809 -6.03827 0.589729 0
M  V30 3512 H 324.548 -4.87618 0.0895191 0
M  V30 3513 H 323.553 -4.94981 2.3932 0
M  V30 3514 H 324.778 -6.14603 2.8886 0
M  V30 3515 H 322.724 -6.52499 0.676811 0
M  V30 3516 H 322.641 -7.21254 2.26557 0
M  V30 3517 H 323.909 -7.7047 1.18303 0
M  V30 3518 N 328.138 -0.959301 -1.25041 0
M  V30 3519 C 329.387 -0.612254 -1.92183 0
M  V30 3520 C 329.7 0.855347 -1.75907 0
M  V30 3521 O 330.906 1.31256 -2.37664 0
M  V30 3522 C 329.362 -1.04435 -3.44414 0
M  V30 3523 C 328.97 -2.53482 -3.69393 0
M  V30 3524 C 330.714 -0.770055 -4.17457 0
M  V30 3525 C 328.621 -2.90468 -5.15153 0
M  V30 3526 H 327.551 -0.225279 -0.719559 0
M  V30 3527 H 330.202 -1.16438 -1.41825 0
M  V30 3528 H 328.584 -0.4206 -3.9376 0
M  V30 3529 H 329.758 -3.20916 -3.30681 0
M  V30 3530 H 328.073 -2.78432 -3.0962 0
M  V30 3531 H 330.67 -1.02249 -5.24832 0
M  V30 3532 H 331.013 0.293611 -4.15263 0
M  V30 3533 H 331.546 -1.35437 -3.74034 0
M  V30 3534 H 328.285 -3.95871 -5.22462 0
M  V30 3535 H 327.805 -2.27711 -5.54894 0
M  V30 3536 H 329.484 -2.79914 -5.83315 0
M  V30 3537 N 329.616 1.39756 -0.72842 0
M  V30 3538 C 330.865 1.99879 -0.270407 0
M  V30 3539 C 331.178 1.58449 1.14688 0
M  V30 3540 O 332.384 2.11362 1.70407 0
M  V30 3541 C 330.84 3.57292 -0.43252 0
M  V30 3542 C 330.448 4.07688 -1.85727 0
M  V30 3543 C 332.192 4.24485 -0.0359507 0
M  V30 3544 C 330.099 5.5765 -1.96928 0
M  V30 3545 H 329.029 0.747689 -0.0973472 0
M  V30 3546 H 331.68 1.59837 -0.901355 0
M  V30 3547 H 330.062 3.95097 0.267219 0
M  V30 3548 H 331.236 3.81231 -2.58843 0
M  V30 3549 H 329.551 3.53135 -2.20646 0
M  V30 3550 H 332.148 5.34609 -0.0987484 0
M  V30 3551 H 332.491 4.03915 1.00787 0
M  V30 3552 H 333.024 3.9183 -0.686604 0
M  V30 3553 H 329.763 5.8309 -2.99476 0
M  V30 3554 H 329.283 5.8593 -1.28241 0
M  V30 3555 H 330.962 6.22957 -1.74737 0
M  V30 3556 N 331.094 0.475555 1.50254 0
M  V30 3557 C 332.34 -0.0780073 2.0265 0
M  V30 3558 C 332.673 -1.38968 1.35652 0
M  V30 3559 O 331.948 -1.8839 0.483691 0
M  V30 3560 C 332.231 -0.257161 3.59181 0
M  V30 3561 C 332.084 1.07585 4.36744 0
M  V30 3562 C 333.403 -1.00965 4.28362 0
M  V30 3563 H 330.522 -0.0268758 0.73651 0
M  V30 3564 H 333.164 0.622015 1.7953 0
M  V30 3565 H 331.314 -0.853412 3.79011 0
M  V30 3566 H 332.986 1.70902 4.28474 0
M  V30 3567 H 331.229 1.6714 4.00308 0
M  V30 3568 H 331.9 0.904088 5.44546 0
M  V30 3569 H 334.376 -0.504214 4.13034 0
M  V30 3570 H 333.252 -1.10381 5.37687 0
M  V30 3571 H 333.513 -2.04731 3.91839 0
M  V30 3572 N 332.573 -1.56217 0.208337 0
M  V30 3573 C 333.819 -1.98242 -0.427552 0
M  V30 3574 C 334.152 -1.09554 -1.60348 0
M  V30 3575 O 333.427 -0.15035 -1.93918 0
M  V30 3576 C 333.71 -3.4931 -0.874907 0
M  V30 3577 C 333.563 -4.48773 0.303751 0
M  V30 3578 C 334.882 -4.04424 -1.73577 0
M  V30 3579 H 332.001 -0.720744 -0.153936 0
M  V30 3580 H 334.643 -1.87586 0.30192 0
M  V30 3581 H 332.793 -3.58522 -1.49648 0
M  V30 3582 H 334.465 -4.51586 0.941682 0
M  V30 3583 H 332.708 -4.23194 0.953375 0
M  V30 3584 H 333.379 -5.51976 -0.0519883 0
M  V30 3585 H 335.855 -3.98075 -1.21143 0
M  V30 3586 H 334.731 -5.1047 -2.01771 0
M  V30 3587 H 334.992 -3.50494 -2.69456 0
M  V30 3588 N 334.051 0.0651679 -1.57465 0
M  V30 3589 C 334.984 1.10876 -1.99453 0
M  V30 3590 C 335.962 1.37205 -0.872555 0
M  V30 3591 O 337.146 1.50468 -1.13542 0
M  V30 3592 C 334.273 2.45167 -2.3369 0
M  V30 3593 C 333.319 2.3493 -3.55964 0
M  V30 3594 S 334.152 1.73708 -5.06543 0
M  V30 3595 C 335.308 3.09563 -5.43987 0
M  V30 3596 H 335.541 0.750967 -2.87659 0
M  V30 3597 H 333.074 0.273933 -1.51951 0
M  V30 3598 H 335.032 3.22412 -2.54088 0
M  V30 3599 H 333.693 2.78105 -1.46001 0
M  V30 3600 H 332.886 3.3398 -3.77457 0
M  V30 3601 H 332.488 1.65823 -3.3523 0
M  V30 3602 H 334.78 4.05882 -5.42463 0
M  V30 3603 H 335.723 2.92843 -6.44708 0
M  V30 3604 H 336.131 3.10474 -4.71451 0
M  V30 3605 N 335.529 1.53961 0.336706 0
M  V30 3606 C 336.806 1.62171 1.09361 0
M  V30 3607 C 337.186 0.447263 2.06307 0
M  V30 3608 O 336.534 -0.559802 2.21537 0
M  V30 3609 C 336.744 2.98565 1.80721 0
M  V30 3610 C 338.092 3.54157 2.34218 0
M  V30 3611 O 339.116 3.00784 1.90807 0
M  V30 3612 O 337.975 4.47528 3.13657 0
M  V30 3613 H 335.069 0.6562 0.503319 0
M  V30 3614 H 337.615 1.66307 0.33765 0
M  V30 3615 H 336.387 3.75482 1.10132 0
M  V30 3616 H 336.01 2.9805 2.63158 0
M  V30 3617 N 337.007 -0.598083 1.45811 0
M  V30 3618 C 337.97 -1.69018 1.54808 0
M  V30 3619 C 338.97 -1.55037 0.426652 0
M  V30 3620 O 340.16 -1.59932 0.690456 0
M  V30 3621 C 337.292 -3.0835 1.45371 0
M  V30 3622 H 338.485 -1.62403 2.52121 0
M  V30 3623 H 336.038 -0.814626 1.33392 0
M  V30 3624 H 336.773 -3.20534 0.492793 0
M  V30 3625 H 336.558 -3.19907 2.26721 0
M  V30 3626 H 338.048 -3.8788 1.54721 0
M  V30 3627 N 338.485 -1.33259 -0.841409 0
M  V30 3628 C 339.715 -1.2742 -1.62628 0
M  V30 3629 C 340.123 0.157604 -1.88542 0
M  V30 3630 O 339.466 1.10938 -1.46419 0
M  V30 3631 C 339.528 -1.97797 -3.00194 0
M  V30 3632 C 339.192 -3.47109 -2.97261 0
M  V30 3633 C 340.189 -4.42358 -2.73159 0
M  V30 3634 C 337.874 -3.89247 -3.17478 0
M  V30 3635 C 339.868 -5.77718 -2.69296 0
M  V30 3636 C 337.555 -5.24713 -3.13241 0
M  V30 3637 C 338.553 -6.1876 -2.89181 0
M  V30 3638 O 338.241 -7.51745 -2.84843 0
M  V30 3639 H 337.973 -0.440436 -0.512827 0
M  V30 3640 H 340.527 -1.76153 -1.05638 0
M  V30 3641 H 338.757 -1.43652 -3.59028 0
M  V30 3642 H 340.446 -1.8549 -3.61038 0
M  V30 3643 H 341.212 -4.11127 -2.57294 0
M  V30 3644 H 337.091 -3.16456 -3.35226 0
M  V30 3645 H 340.635 -6.51097 -2.50436 0
M  V30 3646 H 336.532 -5.55569 -3.28654 0
M  V30 3647 H 337.3 -7.61262 -3.00702 0
M  V30 3648 N 339.963 1.05934 -1.16686 0
M  V30 3649 C 341.211 1.78447 -0.948744 0
M  V30 3650 C 341.532 1.87813 0.524523 0
M  V30 3651 O 340.802 1.38945 1.38098 0
M  V30 3652 H 339.382 0.660971 -0.348033 0
M  V30 3653 H 342.044 1.27947 -1.47022 0
M  V30 3654 H 341.14 2.80394 -1.37061 0
M  V30 3655 N 341.441 0.965919 1.2453 0
M  V30 3656 C 342.666 0.643971 1.97149 0
M  V30 3657 C 343.091 -0.779487 1.71189 0
M  V30 3658 O 342.449 -1.5288 0.974553 0
M  V30 3659 C 342.497 0.922557 3.48599 0
M  V30 3660 O 341.601 0.00707672 4.12399 0
M  V30 3661 H 340.942 0.243647 0.617683 0
M  V30 3662 H 343.472 1.29558 1.58353 0
M  V30 3663 H 343.482 0.853373 3.98976 0
M  V30 3664 H 342.157 1.95996 3.66822 0
M  V30 3665 H 340.734 0.12943 3.72675 0
M  V30 3666 N 342.919 -1.39368 0.735821 0
M  V30 3667 C 343.829 -2.34395 0.0979693 0
M  V30 3668 C 344.845 -1.58361 -0.720968 0
M  V30 3669 O 346.021 -1.90648 -0.649245 0
M  V30 3670 C 343.086 -3.37393 -0.797916 0
M  V30 3671 C 342.147 -4.29287 0.0333662 0
M  V30 3672 C 341.38 -5.27365 -0.819854 0
M  V30 3673 O 341.603 -5.31959 -2.05855 0
M  V30 3674 O 340.537 -6.01389 -0.248079 0
M  V30 3675 H 344.363 -2.90601 0.882315 0
M  V30 3676 H 341.948 -1.40909 0.4965 0
M  V30 3677 H 343.83 -4.00505 -1.31048 0
M  V30 3678 H 342.505 -2.83571 -1.56106 0
M  V30 3679 H 341.412 -3.69395 0.591475 0
M  V30 3680 H 342.745 -4.86317 0.758752 0
M  V30 3681 N 344.397 -0.483516 -1.5 0
M  V30 3682 C 345.327 0.293829 -2.31644 0
M  V30 3683 C 346.308 0.978864 -1.39112 0
M  V30 3684 O 347.493 0.973644 -1.68029 0
M  V30 3685 C 344.623 1.36897 -3.19181 0
M  V30 3686 C 343.577 0.804833 -4.20365 0
M  V30 3687 C 342.903 1.9792 -4.96721 0
M  V30 3688 C 344.203 -0.192313 -5.21946 0
M  V30 3689 H 345.897 -0.387616 -2.9688 0
M  V30 3690 H 343.443 -0.187856 -1.42769 0
M  V30 3691 H 345.396 1.92037 -3.751 0
M  V30 3692 H 344.12 2.07936 -2.51853 0
M  V30 3693 H 342.779 0.275319 -3.65565 0
M  V30 3694 H 342.427 2.67686 -4.25856 0
M  V30 3695 H 342.127 1.60789 -5.65173 0
M  V30 3696 H 343.651 2.53526 -5.55479 0
M  V30 3697 H 345.065 0.270333 -5.72662 0
M  V30 3698 H 343.462 -0.478543 -5.98189 0
M  V30 3699 H 344.532 -1.11409 -4.71928 0
M  V30 3700 N 345.875 1.56104 -0.216619 0
M  V30 3701 C 347.121 1.98466 0.417033 0
M  V30 3702 C 347.454 1.10403 1.59765 0
M  V30 3703 O 346.729 0.160632 1.93836 0
M  V30 3704 C 347.012 3.49769 0.85637 0
M  V30 3705 C 346.865 4.48606 -0.327546 0
M  V30 3706 C 348.184 4.05339 1.7143 0
M  V30 3707 H 345.303 0.721551 0.150112 0
M  V30 3708 H 347.945 1.87423 -0.311864 0
M  V30 3709 H 346.095 3.5931 1.47745 0
M  V30 3710 H 347.767 4.5108 -0.965618 0
M  V30 3711 H 346.01 4.22682 -0.975805 0
M  V30 3712 H 346.681 5.51995 0.0227149 0
M  V30 3713 H 349.157 3.98712 1.19031 0
M  V30 3714 H 348.033 5.11533 1.99061 0
M  V30 3715 H 348.294 3.51918 2.67593 0
M  V30 3716 N 347.353 -0.0568162 1.57498 0
M  V30 3717 C 348.263 -1.08346 2.08083 0
M  V30 3718 C 349.279 -1.41439 1.01346 0
M  V30 3719 O 350.455 -1.51316 1.32912 0
M  V30 3720 C 347.52 -2.37352 2.52715 0
M  V30 3721 C 346.581 -2.11093 3.73816 0
M  V30 3722 C 345.814 -3.33949 4.1631 0
M  V30 3723 O 346.037 -4.43622 3.58547 0
M  V30 3724 O 344.971 -3.21279 5.08983 0
M  V30 3725 H 348.797 -0.683667 2.95905 0
M  V30 3726 H 346.382 -0.271965 1.46904 0
M  V30 3727 H 348.264 -3.13246 2.81877 0
M  V30 3728 H 346.939 -2.76681 1.68016 0
M  V30 3729 H 345.846 -1.32856 3.49714 0
M  V30 3730 H 347.179 -1.76637 4.59413 0
M  V30 3731 N 348.832 -1.54138 -0.328536 0
M  V30 3732 C 350.248 -1.44736 -0.672574 0
M  V30 3733 C 350.448 -0.616217 -1.91846 0
M  V30 3734 O 349.504 -0.113067 -2.52247 0
M  V30 3735 C 350.817 -2.884 -0.851217 0
M  V30 3736 C 352.365 -2.98271 -0.948877 0
M  V30 3737 C 352.84 -4.43074 -1.15973 0
M  V30 3738 N 354.331 -4.46665 -1.22658 0
M  V30 3739 C 355.066 -5.55857 -1.40751 0
M  V30 3740 N 354.562 -6.75026 -1.5592 0
M  V30 3741 N 356.355 -5.43495 -1.4342 0
M  V30 3742 H 348.506 -2.06661 0.490421 0
M  V30 3743 H 350.769 -0.934812 0.157579 0
M  V30 3744 H 350.475 -3.51699 -0.00704236 0
M  V30 3745 H 350.349 -3.34225 -1.74853 0
M  V30 3746 H 352.736 -2.35102 -1.78356 0
M  V30 3747 H 352.817 -2.55785 -0.0281435 0
M  V30 3748 H 352.461 -5.06827 -0.329915 0
M  V30 3749 H 352.391 -4.83165 -2.09426 0
M  V30 3750 H 354.882 -3.60797 -1.124 0
M  V30 3751 H 355.195 -7.54004 -1.69404 0
M  V30 3752 H 353.54 -6.77944 -1.53027 0
M  V30 3753 H 356.731 -4.49349 -1.31162 0
M  V30 3754 H 356.904 -6.28649 -1.57178 0
M  V30 3755 N 350.31 0.590341 -1.46126 0
M  V30 3756 C 351.558 1.34616 -1.50742 0
M  V30 3757 C 351.879 1.94363 -0.157486 0
M  V30 3758 O 351.149 1.78136 0.815136 0
M  V30 3759 H 349.729 0.499789 -0.555175 0
M  V30 3760 H 352.391 0.691953 -1.82203 0
M  V30 3761 H 351.487 2.15678 -2.25587 0
M  V30 3762 N 351.788 1.33704 0.83433 0
M  V30 3763 C 352.72 1.20172 1.9517 0
M  V30 3764 C 353.733 0.131572 1.62267 0
M  V30 3765 O 354.922 0.382406 1.74356 0
M  V30 3766 C 352.022 0.821716 3.28787 0
M  V30 3767 C 351.195 1.98446 3.89792 0
M  V30 3768 C 350.254 1.58469 5.01771 0
M  V30 3769 O 349.28 2.29968 5.20676 0
M  V30 3770 N 350.482 0.492291 5.78409 0
M  V30 3771 H 353.247 2.16429 2.07313 0
M  V30 3772 H 350.808 1.26509 1.0103 0
M  V30 3773 H 352.8 0.536291 4.01131 0
M  V30 3774 H 351.37 -0.0503058 3.1256 0
M  V30 3775 H 350.59 2.43526 3.09982 0
M  V30 3776 H 351.878 2.76236 4.27283 0
M  V30 3777 H 351.276 -0.102349 5.65607 0
M  V30 3778 H 349.833 0.266555 6.51255 0
M  V30 3779 N 353.266 -1.05314 1.17247 0
M  V30 3780 C 354.682 -1.30452 0.919473 0
M  V30 3781 C 354.882 -1.9703 -0.42209 0
M  V30 3782 O 353.938 -2.24311 -1.15935 0
M  V30 3783 C 355.251 -2.17551 2.07586 0
M  V30 3784 C 356.799 -2.30937 2.11275 0
M  V30 3785 C 357.274 -3.21396 3.26296 0
M  V30 3786 N 358.765 -3.28981 3.26076 0
M  V30 3787 C 359.5 -3.99095 4.11716 0
M  V30 3788 N 358.996 -4.71648 5.07465 0
M  V30 3789 N 360.789 -3.95247 3.9967 0
M  V30 3790 H 352.94 -0.604988 2.03602 0
M  V30 3791 H 355.203 -0.329368 0.888944 0
M  V30 3792 H 354.909 -1.75921 3.0454 0
M  V30 3793 H 354.783 -3.18182 2.02584 0
M  V30 3794 H 357.17 -2.71809 1.14907 0
M  V30 3795 H 357.251 -1.2994 2.20339 0
M  V30 3796 H 356.895 -2.81238 4.22927 0
M  V30 3797 H 356.825 -4.22395 3.14467 0
M  V30 3798 H 359.316 -2.77286 2.5675 0
M  V30 3799 H 359.629 -5.22705 5.6921 0
M  V30 3800 H 357.974 -4.70594 5.11435 0
M  V30 3801 H 361.165 -3.37691 3.24164 0
M  V30 3802 H 361.338 -4.4962 4.66632 0
M  V30 3803 N 354.744 -0.972509 -1.24016 0
M  V30 3804 C 355.984 -0.644951 -1.93958 0
M  V30 3805 C 356.348 0.80559 -1.74282 0
M  V30 3806 O 357.549 1.2436 -2.38302 0
M  V30 3807 C 355.82 -1.01521 -3.42678 0
M  V30 3808 S 357.379 -0.802927 -4.31391 0
M  V30 3809 H 354.197 -0.236452 -0.670531 0
M  V30 3810 H 356.799 -1.25048 -1.50277 0
M  V30 3811 H 355.503 -2.06769 -3.54506 0
M  V30 3812 H 355.034 -0.400648 -3.91355 0
M  V30 3813 H 357.049 0.317256 -4.95185 0
M  V30 3814 N 356.222 1.38976 -0.743202 0
M  V30 3815 C 357.47 1.99948 -0.29417 0
M  V30 3816 C 357.791 1.59279 1.12495 0
M  V30 3817 O 357.061 0.844808 1.76748 0
M  V30 3818 H 355.641 0.739473 -0.105774 0
M  V30 3819 H 358.303 1.699 -0.954986 0
M  V30 3820 H 357.399 3.10142 -0.349056 0
M  V30 3821 N 357.7 0.491464 1.49741 0
M  V30 3822 C 358.946 -0.0565092 2.02721 0
M  V30 3823 C 359.279 -1.37522 1.37118 0
M  V30 3824 O 358.554 -1.87866 0.503645 0
M  V30 3825 C 358.837 -0.219051 3.59433 0
M  V30 3826 C 358.69 1.12211 4.35579 0
M  V30 3827 C 360.009 -0.964157 4.29409 0
M  V30 3828 H 357.128 -0.0190627 0.736753 0
M  V30 3829 H 359.77 0.641021 1.7886 0
M  V30 3830 H 357.92 -0.813165 3.79895 0
M  V30 3831 H 359.592 1.75437 4.26637 0
M  V30 3832 H 357.835 1.71377 3.98513 0
M  V30 3833 H 358.506 0.961794 5.43556 0
M  V30 3834 H 360.982 -0.460378 4.13545 0
M  V30 3835 H 359.858 -1.04671 5.38828 0
M  V30 3836 H 360.119 -2.00563 3.93988 0
M  V30 3837 N 359.178 -1.55987 0.224894 0
M  V30 3838 C 360.088 -2.24066 -0.69511 0
M  V30 3839 C 361.104 -1.24939 -1.21104 0
M  V30 3840 O 362.28 -1.5776 -1.25195 0
M  V30 3841 C 359.345 -2.90983 -1.88493 0
M  V30 3842 C 358.406 -4.05462 -1.41064 0
M  V30 3843 C 357.639 -4.69179 -2.54375 0
M  V30 3844 O 357.862 -4.31895 -3.72589 0
M  V30 3845 O 356.796 -5.58108 -2.25386 0
M  V30 3846 H 360.622 -3.03353 -0.145149 0
M  V30 3847 H 358.207 -1.49399 -0.00569476 0
M  V30 3848 H 360.089 -3.33209 -2.57972 0
M  V30 3849 H 358.764 -2.14653 -2.42293 0
M  V30 3850 H 357.671 -3.67798 -0.683774 0
M  V30 3851 H 359.004 -4.83545 -0.918985 0
M  V30 3852 N 360.656 0.0484629 -1.57525 0
M  V30 3853 C 361.902 0.744226 -1.88651 0
M  V30 3854 C 362.235 1.76029 -0.820212 0
M  V30 3855 O 361.51 1.93782 0.166985 0
M  V30 3856 C 361.793 1.43128 -3.30434 0
M  V30 3857 C 361.646 0.43005 -4.47739 0
M  V30 3858 C 362.965 2.37031 -3.70816 0
M  V30 3859 H 360.084 0.269089 -0.68612 0
M  V30 3860 H 362.726 0.00713532 -1.89999 0
M  V30 3861 H 360.876 2.05956 -3.29415 0
M  V30 3862 H 362.548 -0.194816 -4.60888 0
M  V30 3863 H 360.791 -0.252522 -4.33064 0
M  V30 3864 H 361.462 0.948874 -5.43783 0
M  V30 3865 H 363.938 1.84263 -3.73077 0
M  V30 3866 H 362.814 2.82094 -4.70865 0
M  V30 3867 H 363.075 3.22864 -3.02012 0
M  V30 3868 N 362.134 1.5431 0.320358 0
M  V30 3869 C 363.362 1.76636 1.07738 0
M  V30 3870 C 363.777 0.51649 1.81598 0
M  V30 3871 O 363.134 -0.512942 1.75143 0
M  V30 3872 C 363.185 2.96158 2.07299 0
M  V30 3873 O 362.906 4.16313 1.36438 0
M  V30 3874 C 364.407 3.3072 2.95193 0
M  V30 3875 H 361.627 0.589597 0.320339 0
M  V30 3876 H 364.171 2.01207 0.36551 0
M  V30 3877 H 362.326 2.73851 2.74016 0
M  V30 3878 H 362.74 4.83565 2.03138 0
M  V30 3879 H 364.214 4.17643 3.60941 0
M  V30 3880 H 364.691 2.48026 3.62463 0
M  V30 3881 H 365.297 3.55117 2.34034 0
M  V30 3882 N 363.613 -0.582584 1.46437 0
M  V30 3883 C 364.838 -1.37168 1.55563 0
M  V30 3884 C 365.263 -1.87061 0.19743 0
M  V30 3885 O 364.621 -1.61572 -0.822451 0
M  V30 3886 C 364.669 -2.53511 2.56446 0
M  V30 3887 O 363.773 -3.54953 2.09958 0
M  V30 3888 H 363.114 -0.408494 0.523477 0
M  V30 3889 H 365.644 -0.706646 1.9201 0
M  V30 3890 H 365.654 -3.00426 2.76058 0
M  V30 3891 H 364.329 -2.16549 3.55076 0
M  V30 3892 H 362.906 -3.14516 2.00334 0
M  V30 3893 N 365.091 -1.34144 -0.827227 0
M  V30 3894 C 366.024 -1.19707 -1.94282 0
M  V30 3895 C 367.002 -0.0897256 -1.62352 0
M  V30 3896 O 368.186 -0.254095 -1.8678 0
M  V30 3897 C 365.313 -0.838646 -3.28153 0
M  V30 3898 C 364.359 -1.95514 -3.79047 0
M  V30 3899 S 365.192 -3.56793 -3.99323 0
M  V30 3900 C 366.348 -3.22983 -5.36127 0
M  V30 3901 H 366.581 -2.1414 -2.06231 0
M  V30 3902 H 364.114 -1.19121 -0.982321 0
M  V30 3903 H 366.072 -0.638637 -4.05502 0
M  V30 3904 H 364.733 0.0872776 -3.13979 0
M  V30 3905 H 363.926 -1.658 -4.75948 0
M  V30 3906 H 363.528 -2.11241 -3.08631 0
M  V30 3907 H 365.82 -2.74531 -6.19386 0
M  V30 3908 H 366.763 -4.19008 -5.70822 0
M  V30 3909 H 367.171 -2.59276 -5.01434 0
M  V30 3910 N 366.569 1.04691 -1.17803 0
M  V30 3911 C 367.516 2.12557 -0.899343 0
M  V30 3912 C 368.486 1.65339 0.158771 0
M  V30 3913 O 369.671 1.90789 0.0204797 0
M  V30 3914 C 366.811 3.42481 -0.424315 0
M  V30 3915 C 365.924 4.03346 -1.54713 0
M  V30 3916 C 365.059 5.21208 -1.02546 0
M  V30 3917 C 364.098 5.74089 -2.12339 0
M  V30 3918 N 363.235 6.83247 -1.61612 0
M  V30 3919 H 368.075 2.35734 -1.823 0
M  V30 3920 H 365.612 1.1564 -0.909159 0
M  V30 3921 H 367.57 4.16996 -0.130421 0
M  V30 3922 H 366.2 3.19471 0.462377 0
M  V30 3923 H 365.252 3.2622 -1.95664 0
M  V30 3924 H 366.564 4.38628 -2.37501 0
M  V30 3925 H 365.718 6.02812 -0.685718 0
M  V30 3926 H 364.457 4.87414 -0.167084 0
M  V30 3927 H 363.462 4.91111 -2.47165 0
M  V30 3928 H 364.687 6.0993 -2.98601 0
M  V30 3929 H 362.633 6.5134 -0.780533 0
M  V30 3930 H 362.55 7.17559 -2.38003 0
M  V30 3931 H 363.818 7.68491 -1.30545 0
M  V30 3932 N 368.047 0.979072 1.23499 0
M  V30 3933 C 369.01 0.523244 2.23147 0
M  V30 3934 C 370.01 -0.386406 1.56088 0
M  V30 3935 O 371.2 -0.180283 1.73265 0
M  V30 3936 C 368.332 -0.240739 3.40049 0
M  V30 3937 H 369.525 1.40432 2.64989 0
M  V30 3938 H 367.078 0.764824 1.36309 0
M  V30 3939 H 367.813 -1.13841 3.03662 0
M  V30 3940 H 367.598 0.412207 3.89927 0
M  V30 3941 H 369.088 -0.548297 4.13985 0
M  V30 3942 N 369.525 -1.3858 0.750561 0
M  V30 3943 C 370.458 -2.28095 0.0693139 0
M  V30 3944 C 371.436 -1.45217 -0.731491 0
M  V30 3945 O 372.62 -1.74587 -0.71076 0
M  V30 3946 C 369.747 -3.26282 -0.90871 0
M  V30 3947 C 368.793 -4.26056 -0.194507 0
M  V30 3948 S 369.626 -5.24026 1.10257 0
M  V30 3949 C 370.782 -6.2577 0.127542 0
M  V30 3950 H 371.015 -2.85526 0.8284 0
M  V30 3951 H 368.548 -1.44536 0.543014 0
M  V30 3952 H 370.506 -3.83367 -1.46766 0
M  V30 3953 H 369.167 -2.6784 -1.64075 0
M  V30 3954 H 368.36 -4.95249 -0.93512 0
M  V30 3955 H 367.962 -3.72852 0.292837 0
M  V30 3956 H 370.254 -6.73796 -0.707516 0
M  V30 3957 H 371.197 -7.03712 0.787044 0
M  V30 3958 H 371.605 -5.63938 -0.251803 0
M  V30 3959 N 371.003 -0.499398 -1.49478 0
M  V30 3960 C 371.913 0.284489 -2.32869 0
M  V30 3961 C 372.929 0.968885 -1.44529 0
M  V30 3962 O 374.105 0.95062 -1.77553 0
M  V30 3963 C 371.17 1.33594 -3.19928 0
M  V30 3964 C 370.231 0.665149 -4.24116 0
M  V30 3965 C 369.464 1.6665 -5.07014 0
M  V30 3966 O 369.687 2.89618 -4.91404 0
M  V30 3967 O 368.621 1.22271 -5.8935 0
M  V30 3968 H 372.447 -0.39802 -3.01081 0
M  V30 3969 H 370.032 -0.260758 -1.47107 0
M  V30 3970 H 371.914 1.94431 -3.73864 0
M  V30 3971 H 370.589 2.0014 -2.54412 0
M  V30 3972 H 369.496 0.0170769 -3.74096 0
M  V30 3973 H 370.829 0.0421555 -4.92182 0
M  V30 3974 N 372.481 1.55866 -0.233164 0
M  V30 3975 C 373.758 1.90471 0.444988 0
M  V30 3976 C 374.138 1.15209 1.7689 0
M  V30 3977 O 373.486 0.265119 2.26957 0
M  V30 3978 C 373.696 3.4333 0.626559 0
M  V30 3979 C 375.044 4.14319 0.92871 0
M  V30 3980 O 376.068 3.48993 0.712926 0
M  V30 3981 O 374.927 5.29846 1.33887 0
M  V30 3982 H 372.021 0.792347 0.236885 0
M  V30 3983 H 374.567 1.67437 -0.276211 0
M  V30 3984 H 373.339 3.90095 -0.306822 0
M  V30 3985 H 372.962 3.72181 1.39881 0
M  V30 3986 N 373.959 -0.0401083 1.57549 0
M  V30 3987 C 374.889 -1.04384 2.08869 0
M  V30 3988 C 375.87 -1.38407 0.988817 0
M  V30 3989 O 377.055 -1.47483 1.26342 0
M  V30 3990 C 374.185 -2.34808 2.55895 0
M  V30 3991 C 373.139 -2.15057 3.70047 0
M  V30 3992 C 372.465 -3.51145 4.03239 0
M  V30 3993 C 373.765 -1.54576 4.98902 0
M  V30 3994 H 375.459 -0.616666 2.92981 0
M  V30 3995 H 373.005 -0.295184 1.40942 0
M  V30 3996 H 374.958 -3.05346 2.90417 0
M  V30 3997 H 373.682 -2.79565 1.68853 0
M  V30 3998 H 372.341 -1.46954 3.35857 0
M  V30 3999 H 371.989 -3.93529 3.13279 0
M  V30 4000 H 371.689 -3.38758 4.80122 0
M  V30 4001 H 373.213 -4.23062 4.40285 0
M  V30 4002 H 374.627 -2.15017 5.31451 0
M  V30 4003 H 373.024 -1.52796 5.80322 0
M  V30 4004 H 374.094 -0.51039 4.82206 0
M  V30 4005 N 375.437 -1.54477 -0.31217 0
M  V30 4006 C 376.685 -1.72884 -1.04668 0
M  V30 4007 C 377.006 -0.511477 -1.88173 0
M  V30 4008 O 376.276 0.474407 -1.90069 0
M  V30 4009 H 374.856 -0.637461 -0.389425 0
M  V30 4010 H 377.518 -1.91807 -0.345852 0
M  V30 4011 H 376.614 -2.61334 -1.70619 0
M  V30 4012 N 376.915 0.57481 -1.46744 0
M  V30 4013 C 378.331 0.898981 -1.31873 0
M  V30 4014 C 378.531 1.99313 -0.29605 0
M  V30 4015 O 377.587 2.50728 0.298621 0
M  V30 4016 C 378.9 1.30886 -2.7072 0
M  V30 4017 C 380.448 1.42127 -2.78871 0
M  V30 4018 C 380.923 1.86478 -4.18318 0
M  V30 4019 N 382.414 1.93658 -4.20774 0
M  V30 4020 C 383.149 2.29267 -5.2557 0
M  V30 4021 N 382.645 2.63612 -6.40688 0
M  V30 4022 N 384.438 2.29889 -5.1294 0
M  V30 4023 H 376.589 -0.147839 -2.11885 0
M  V30 4024 H 378.852 -0.00347013 -0.947994 0
M  V30 4025 H 378.558 0.578853 -3.46904 0
M  V30 4026 H 378.432 2.26874 -3.01343 0
M  V30 4027 H 380.819 2.14213 -2.0297 0
M  V30 4028 H 380.9 0.443705 -2.51922 0
M  V30 4029 H 380.544 1.14968 -4.94717 0
M  V30 4030 H 380.474 2.85207 -4.42679 0
M  V30 4031 H 382.965 1.69574 -3.37718 0
M  V30 4032 H 383.278 2.89759 -7.16421 0
M  V30 4033 H 381.623 2.61232 -6.44036 0
M  V30 4034 H 384.814 2.02485 -4.22039 0
M  V30 4035 H 384.987 2.57312 -5.94722 0
M  V30 4036 N 378.394 1.34581 0.820102 0
M  V30 4037 C 379.357 1.2628 1.91275 0
M  V30 4038 C 380.357 0.177344 1.59819 0
M  V30 4039 O 381.547 0.430156 1.68806 0
M  V30 4040 C 378.679 0.950327 3.27386 0
M  V30 4041 H 379.872 2.23421 2.00057 0
M  V30 4042 H 377.425 1.1891 1.0144 0
M  V30 4043 H 378.16 -0.0177938 3.24295 0
M  V30 4044 H 377.945 1.73549 3.51601 0
M  V30 4045 H 379.435 0.917492 4.07396 0
M  V30 4046 N 379.872 -1.04064 1.18357 0
M  V30 4047 C 380.82 -2.14187 0.907007 0
M  V30 4048 C 381.814 -1.68879 -0.132725 0
M  V30 4049 O 383.02 -1.79993 0.0154248 0
M  V30 4050 H 379.395 -0.699585 0.275835 0
M  V30 4051 H 381.366 -2.34711 1.84264 0
M  V30 4052 C 380.115 -3.44785 0.449254 0
M  V30 4053 H 379.438 -3.80058 1.24081 0
M  V30 4054 H 380.878 -4.22974 0.294737 0
M  V30 4055 C 379.337 -3.26391 -0.834909 0
M  V30 4056 O 379.867 -3.53973 -1.89911 0
M  V30 4057 N 378.073 -2.79726 -0.787523 0
M  V30 4058 H 377.62 -2.5748 0.0787347 0
M  V30 4059 H 377.578 -2.67798 -1.64716 0
M  V30 4060 N 381.35 -0.985608 -1.22978 0
M  V30 4061 C 382.766 -0.695104 -1.43668 0
M  V30 4062 C 382.966 0.736866 -1.87543 0
M  V30 4063 O 382.022 1.50868 -2.02473 0
M  V30 4064 C 383.335 -1.69447 -2.48412 0
M  V30 4065 C 384.883 -1.70909 -2.62219 0
M  V30 4066 C 385.358 -2.6969 -3.70178 0
M  V30 4067 N 386.849 -2.6824 -3.77626 0
M  V30 4068 C 387.584 -3.41339 -4.60733 0
M  V30 4069 N 387.08 -4.24015 -5.4789 0
M  V30 4070 N 388.873 -3.30079 -4.54977 0
M  V30 4071 H 381.024 -1.91054 -0.928016 0
M  V30 4072 H 383.287 -0.823553 -0.469536 0
M  V30 4073 H 382.993 -2.7188 -2.23102 0
M  V30 4074 H 382.867 -1.48147 -3.46889 0
M  V30 4075 H 385.254 -0.691785 -2.86877 0
M  V30 4076 H 385.335 -1.96276 -1.6404 0
M  V30 4077 H 384.979 -3.71566 -3.46268 0
M  V30 4078 H 384.909 -2.41595 -4.67909 0
M  V30 4079 H 387.4 -2.08243 -3.15346 0
M  V30 4080 H 387.713 -4.76636 -6.08308 0
M  V30 4081 H 386.058 -4.28104 -5.47496 0
M  V30 4082 H 389.249 -2.64937 -3.85909 0
M  V30 4083 H 389.422 -3.87308 -5.19516 0
M  V30 4084 N 382.828 1.3818 -0.7579 0
M  V30 4085 C 384.244 1.5353 -0.435972 0
M  V30 4086 C 384.444 1.71961 1.05032 0
M  V30 4087 O 383.5 1.73307 1.83633 0
M  V30 4088 C 384.813 2.73989 -1.23898 0
M  V30 4089 C 386.361 2.87841 -1.22949 0
M  V30 4090 C 386.836 4.11266 -2.01554 0
M  V30 4091 N 388.327 4.18352 -1.98837 0
M  V30 4092 C 389.062 5.12856 -2.5645 0
M  V30 4093 N 388.558 6.13005 -3.22794 0
M  V30 4094 N 390.351 5.05238 -2.46356 0
M  V30 4095 H 382.502 1.24467 -1.7211 0
M  V30 4096 H 384.765 0.604982 -0.729864 0
M  V30 4097 H 384.471 2.66789 -2.29165 0
M  V30 4098 H 384.345 3.67294 -0.858764 0
M  V30 4099 H 386.732 2.9452 -0.184854 0
M  V30 4100 H 386.813 1.95534 -1.64924 0
M  V30 4101 H 386.457 4.05349 -3.06031 0
M  V30 4102 H 386.387 5.02661 -1.5697 0
M  V30 4103 H 388.878 3.46628 -1.50524 0
M  V30 4104 H 389.191 6.81619 -3.64165 0
M  V30 4105 H 387.536 6.13325 -3.2689 0
M  V30 4106 H 390.727 4.25938 -1.9415 0
M  V30 4107 H 390.9 5.78707 -2.91552 0
M  V30 4108 N 384.306 0.507319 1.49211 0
M  V30 4109 C 385.253 -0.267728 2.29242 0
M  V30 4110 C 386.223 -0.954609 1.35928 0
M  V30 4111 O 387.408 -0.960046 1.64887 0
M  V30 4112 C 384.548 -1.32243 3.18756 0
M  V30 4113 C 383.661 -0.64669 4.27132 0
M  V30 4114 C 382.796 -1.68238 5.03855 0
M  V30 4115 C 381.835 -0.98885 6.0406 0
M  V30 4116 N 380.972 -1.96903 6.73924 0
M  V30 4117 H 385.812 0.420968 2.95012 0
M  V30 4118 H 383.349 0.219443 1.45454 0
M  V30 4119 H 385.307 -1.94599 3.69036 0
M  V30 4120 H 383.937 -1.97981 2.54958 0
M  V30 4121 H 382.989 0.0902926 3.80293 0
M  V30 4122 H 384.301 -0.101058 4.98698 0
M  V30 4123 H 383.455 -2.38081 5.58034 0
M  V30 4124 H 382.194 -2.26187 4.32077 0
M  V30 4125 H 381.199 -0.276222 5.49106 0
M  V30 4126 H 382.424 -0.415767 6.77826 0
M  V30 4127 H 380.37 -2.53803 6.04913 0
M  V30 4128 H 380.287 -1.47423 7.41487 0
M  V30 4129 H 381.555 -2.66015 7.32705 0
M  V30 4130 N 385.784 -1.5574 0.241426 0
M  V30 4131 C 387.195 -1.84842 -0.262755 0
M  V30 4132 C 387.546 -1.16317 -1.58003 0
M  V30 4133 O 386.671 -0.439653 -2.11887 0
M  V30 4134 C 387.266 -3.35332 -0.483523 0
M  V30 4135 C 385.825 -3.6468 -0.931977 0
M  V30 4136 C 384.972 -2.77299 -0.0061151 0
M  V30 4137 H 387.923 -1.51761 0.464129 0
M  V30 4138 H 387.944 -3.56615 -1.32688 0
M  V30 4139 H 387.456 -3.85178 0.47537 0
M  V30 4140 H 385.557 -3.20307 -1.90353 0
M  V30 4141 H 385.67 -4.72498 -0.792628 0
M  V30 4142 H 384.034 -2.49408 -0.516503 0
M  V30 4143 H 384.817 -3.2995 0.948052 0
M  V30 4144 N 387.262 0.0317525 -1.57568 0
M  V30 4145 C 388.209 1.0332 -2.06382 0
M  V30 4146 C 389.179 1.36082 -0.952414 0
M  V30 4147 O 390.364 1.46466 -1.2228 0
M  V30 4148 C 387.504 2.32989 -2.54578 0
M  V30 4149 C 386.617 2.0641 -3.79498 0
M  V30 4150 C 385.752 3.2993 -4.16317 0
M  V30 4151 C 384.791 2.98893 -5.34162 0
M  V30 4152 N 383.928 4.14857 -5.66426 0
M  V30 4153 H 388.768 0.609982 -2.9169 0
M  V30 4154 H 386.305 0.289573 -1.44222 0
M  V30 4155 H 388.263 3.0875 -2.80587 0
M  V30 4156 H 386.893 2.73039 -1.7219 0
M  V30 4157 H 385.945 1.21158 -3.6059 0
M  V30 4158 H 387.257 1.79513 -4.65378 0
M  V30 4159 H 386.411 4.1406 -4.4344 0
M  V30 4160 H 385.15 3.59938 -3.29083 0
M  V30 4161 H 384.155 2.13164 -5.06795 0
M  V30 4162 H 385.38 2.70165 -6.23047 0
M  V30 4163 H 383.326 4.44821 -4.82151 0
M  V30 4164 H 383.243 3.91374 -6.4681 0
M  V30 4165 H 384.511 4.99868 -5.98124 0
M  V30 4166 N 388.74 1.54641 0.303973 0
M  V30 4167 C 390.151 1.64811 0.877163 0
M  V30 4168 C 390.502 0.554838 1.88191 0
M  V30 4169 O 389.627 -0.309033 2.14182 0
M  V30 4170 C 390.222 2.9876 1.59775 0
M  V30 4171 C 388.781 3.11061 2.11938 0
M  V30 4172 C 387.928 2.60479 0.951097 0
M  V30 4173 H 390.879 1.58493 0.0810486 0
M  V30 4174 H 390.9 2.90017 2.46314 0
M  V30 4175 H 390.412 3.7831 0.866226 0
M  V30 4176 H 388.513 2.36225 2.88146 0
M  V30 4177 H 388.626 4.17171 2.35595 0
M  V30 4178 H 386.99 2.16859 1.33583 0
M  V30 4179 H 387.773 3.42504 0.233581 0
M  V30 4180 N 390.218 -0.567019 1.47046 0
M  V30 4181 C 391.629 -1.14916 1.47143 0
M  V30 4182 C 391.98 -1.94954 0.220767 0
M  V30 4183 O 391.105 -2.05602 -0.67505 0
M  V30 4184 C 391.7 -2.09069 2.666 0
M  V30 4185 C 390.259 -2.62575 2.69687 0
M  V30 4186 C 389.406 -1.38755 2.40088 0
M  V30 4187 H 392.357 -0.354126 1.54699 0
M  V30 4188 H 392.378 -2.92789 2.43011 0
M  V30 4189 H 391.89 -1.50789 3.57609 0
M  V30 4190 H 389.991 -3.24681 1.82792 0
M  V30 4191 H 390.104 -3.04239 3.70102 0
M  V30 4192 H 388.468 -1.69098 1.90468 0
M  V30 4193 H 389.251 -0.822822 3.33293 0
M  V30 4194 N 391.696 -1.35014 -0.812953 0
M  V30 4195 C 392.659 -1.27292 -1.90602 0
M  V30 4196 C 393.659 -0.185817 -1.59723 0
M  V30 4197 O 394.849 -0.439102 -1.68575 0
M  V30 4198 C 391.981 -0.967676 -3.26877 0
M  V30 4199 H 393.174 -2.24479 -1.9887 0
M  V30 4200 H 390.727 -1.19446 -1.00808 0
M  V30 4201 H 391.462 0.0005954 -3.243 0
M  V30 4202 H 391.247 -1.75412 -3.50675 0
M  V30 4203 H 392.737 -0.939085 -4.06904 0
M  V30 4204 N 393.175 1.03435 -1.18907 0
M  V30 4205 C 394.586 1.58195 -0.991523 0
M  V30 4206 C 394.937 1.90801 0.457081 0
M  V30 4207 O 394.062 1.70272 1.33553 0
M  V30 4208 C 394.657 2.87432 -1.79355 0
M  V30 4209 C 393.216 3.38785 -1.64017 0
M  V30 4210 C 392.363 2.12292 -1.78402 0
M  V30 4211 H 395.314 0.860299 -1.33359 0
M  V30 4212 H 395.335 3.58096 -1.28638 0
M  V30 4213 H 394.847 2.63669 -2.84781 0
M  V30 4214 H 392.948 3.67547 -0.611536 0
M  V30 4215 H 393.061 4.12186 -2.44212 0
M  V30 4216 H 391.425 2.23901 -1.2141 0
M  V30 4217 H 392.208 1.90977 -2.85277 0
M  V30 4218 N 394.653 0.992116 1.22453 0
M  V30 4219 C 395.563 0.55065 2.28046 0
M  V30 4220 C 396.579 -0.400189 1.69335 0
M  V30 4221 O 397.755 -0.267215 1.99619 0
M  V30 4222 C 394.82 -0.128496 3.46462 0
M  V30 4223 C 393.881 0.865208 4.20491 0
M  V30 4224 C 393.114 0.218377 5.33253 0
M  V30 4225 O 393.337 -0.987894 5.6178 0
M  V30 4226 O 392.271 0.922845 5.94783 0
M  V30 4227 H 396.097 1.4291 2.67975 0
M  V30 4228 H 393.682 0.760326 1.28606 0
M  V30 4229 H 395.564 -0.508947 4.18315 0
M  V30 4230 H 394.239 -0.981526 3.0846 0
M  V30 4231 H 393.146 1.29658 3.50913 0
M  V30 4232 H 394.479 1.68741 4.62371 0
M  V30 4233 N 396.131 -1.37776 0.765217 0
M  V30 4234 C 397.408 -1.93975 0.251596 0
M  V30 4235 C 397.788 -1.69949 -1.25222 0
M  V30 4236 O 397.136 -1.04457 -2.03226 0
M  V30 4237 C 397.346 -3.43487 0.617895 0
M  V30 4238 C 398.694 -4.20564 0.584029 0
M  V30 4239 O 399.718 -3.5182 0.556888 0
M  V30 4240 O 398.577 -5.43138 0.605291 0
M  V30 4241 H 395.671 -0.82509 0.0561806 0
M  V30 4242 H 398.217 -1.47101 0.846128 0
M  V30 4243 H 396.989 -3.5453 1.65602 0
M  V30 4244 H 396.612 -3.976 -0.00403411 0
M  V30 4245 N 397.609 -0.515225 -1.4894 0
M  V30 4246 C 398.539 0.244628 -2.32215 0
M  V30 4247 C 399.52 0.949136 -1.41157 0
M  V30 4248 O 400.705 0.937783 -1.70057 0
M  V30 4249 C 397.835 1.30096 -3.22013 0
M  V30 4250 C 396.789 0.715486 -4.21977 0
M  V30 4251 C 396.115 1.87339 -5.00808 0
M  V30 4252 C 397.415 -0.302982 -5.2142 0
M  V30 4253 H 399.109 -0.450501 -2.95991 0
M  V30 4254 H 396.655 -0.218098 -1.42339 0
M  V30 4255 H 398.608 1.84037 -3.79089 0
M  V30 4256 H 397.332 2.02547 -2.56207 0
M  V30 4257 H 395.991 0.197715 -3.66066 0
M  V30 4258 H 395.639 2.58592 -4.31438 0
M  V30 4259 H 395.339 1.48764 -5.68457 0
M  V30 4260 H 396.863 2.41686 -5.60732 0
M  V30 4261 H 398.277 0.148802 -5.73107 0
M  V30 4262 H 396.674 -0.60532 -5.97039 0
M  V30 4263 H 397.744 -1.21395 -4.69459 0
M  V30 4264 N 399.087 1.5561 -0.249682 0
M  V30 4265 C 400.05 2.20217 0.635394 0
M  V30 4266 C 401.05 1.17227 1.10066 0
M  V30 4267 O 402.24 1.42292 1.00492 0
M  V30 4268 C 399.372 2.84794 1.87363 0
M  V30 4269 H 400.565 2.99814 0.0716752 0
M  V30 4270 H 398.118 1.563 -0.000153234 0
M  V30 4271 H 398.853 2.09142 2.47851 0
M  V30 4272 H 398.638 3.60241 1.5482 0
M  V30 4273 H 400.128 3.3423 2.5036 0
M  V30 4274 N 400.565 -0.0233959 1.57583 0
M  V30 4275 C 401.811 -0.714119 1.89811 0
M  V30 4276 C 402.144 -1.74702 0.848113 0
M  V30 4277 O 401.419 -1.94023 -0.136135 0
M  V30 4278 C 401.702 -1.37853 3.32669 0
M  V30 4279 C 401.555 -0.358764 4.48367 0
M  V30 4280 C 402.874 -2.31101 3.7454 0
M  V30 4281 H 399.993 -0.25814 0.690314 0
M  V30 4282 H 402.635 0.0230927 1.89986 0
M  V30 4283 H 400.785 -2.00689 3.3265 0
M  V30 4284 H 402.457 0.268115 4.6052 0
M  V30 4285 H 400.7 0.321387 4.32608 0
M  V30 4286 H 401.371 -0.862242 5.45224 0
M  V30 4287 H 403.847 -1.78304 3.75961 0
M  V30 4288 H 402.723 -2.74567 4.75294 0
M  V30 4289 H 402.984 -3.18018 3.0711 0
M  V30 4290 N 402.043 -1.548 -0.295768 0
M  V30 4291 C 403.292 -1.73538 -1.02798 0
M  V30 4292 C 403.605 -0.531159 -1.8825 0
M  V30 4293 O 404.811 -0.600458 -2.64777 0
M  V30 4294 C 403.267 -3.07051 -1.87744 0
M  V30 4295 C 402.875 -4.34968 -1.07269 0
M  V30 4296 C 404.619 -3.35146 -2.60533 0
M  V30 4297 C 402.526 -5.5953 -1.91521 0
M  V30 4298 H 401.456 -0.646794 -0.387522 0
M  V30 4299 H 404.107 -1.81278 -0.284718 0
M  V30 4300 H 402.489 -2.93289 -2.66078 0
M  V30 4301 H 403.663 -4.5958 -0.335117 0
M  V30 4302 H 401.978 -4.13847 -0.460384 0
M  V30 4303 H 404.575 -4.2541 -3.23929 0
M  V30 4304 H 404.918 -2.54255 -3.29636 0
M  V30 4305 H 405.451 -3.49902 -1.89244 0
M  V30 4306 H 402.19 -6.43103 -1.26878 0
M  V30 4307 H 401.71 -5.39096 -2.62937 0
M  V30 4308 H 403.389 -5.96982 -2.49442 0
M  V30 4309 N 403.521 0.559213 -1.47345 0
M  V30 4310 C 404.761 1.32728 -1.55444 0
M  V30 4311 C 405.125 1.90838 -0.210895 0
M  V30 4312 O 406.326 2.68282 -0.166719 0
M  V30 4313 C 404.597 2.4092 -2.63993 0
M  V30 4314 S 406.156 3.2784 -2.91661 0
M  V30 4315 H 402.974 0.451883 -0.548929 0
M  V30 4316 H 405.576 0.640404 -1.84714 0
M  V30 4317 H 404.28 1.9666 -3.60212 0
M  V30 4318 H 403.811 3.14351 -2.36531 0
M  V30 4319 H 405.826 4.40341 -2.28722 0
M  V30 4320 N 404.999 1.35443 0.805782 0
M  V30 4321 C 406.246 1.28761 1.56291 0
M  V30 4322 C 406.574 -0.137747 1.94012 0
M  V30 4323 O 405.829 -1.1032 1.61642 0
M  V30 4324 C 406.128 2.14045 2.86216 0
M  V30 4325 C 405.794 3.62826 2.67709 0
M  V30 4326 C 404.456 4.0338 2.6237 0
M  V30 4327 C 406.808 4.57227 2.50186 0
M  V30 4328 C 404.136 5.36501 2.37451 0
M  V30 4329 C 406.488 5.90547 2.26797 0
M  V30 4330 C 405.152 6.30245 2.1988 0
M  V30 4331 H 404.422 0.471171 0.571908 0
M  V30 4332 H 407.069 1.67347 0.930974 0
M  V30 4333 H 405.374 1.68342 3.53791 0
M  V30 4334 H 407.071 2.0621 3.43917 0
M  V30 4335 H 403.661 3.30644 2.72713 0
M  V30 4336 H 407.845 4.2678 2.53323 0
M  V30 4337 H 403.101 5.66259 2.30567 0
M  V30 4338 H 407.275 6.63274 2.12228 0
M  V30 4339 H 404.902 7.33328 2.00333 0
M  V30 4340 N 406.477 -1.02803 1.19454 0
M  V30 4341 C 407.705 -1.79841 1.02297 0
M  V30 4342 C 408.12 -1.83879 -0.428259 0
M  V30 4343 O 407.477 -1.28345 -1.29745 0
M  V30 4344 C 407.528 -3.24852 1.58598 0
M  V30 4345 O 407.249 -3.21097 2.98041 0
M  V30 4346 C 408.75 -4.18485 1.46236 0
M  V30 4347 H 405.97 -0.565936 0.360496 0
M  V30 4348 H 408.514 -1.2948 1.58288 0
M  V30 4349 H 406.669 -3.72401 1.06753 0
M  V30 4350 H 407.083 -4.12033 3.24545 0
M  V30 4351 H 408.557 -5.18121 1.90407 0
M  V30 4352 H 409.034 -4.37254 0.41301 0
M  V30 4353 H 409.64 -3.76811 1.97215 0
M  V30 4354 N 407.956 -0.998596 -1.21925 0
M  V30 4355 C 409.181 -0.696015 -1.95372 0
M  V30 4356 C 409.606 0.733826 -1.73195 0
M  V30 4357 O 408.964 1.50242 -1.01474 0
M  V30 4358 C 409.012 -1.01466 -3.4603 0
M  V30 4359 O 408.116 -0.116415 -4.12236 0
M  V30 4360 H 407.457 -0.259938 -0.611006 0
M  V30 4361 H 409.987 -1.33711 -1.54863 0
M  V30 4362 H 409.997 -0.958855 -3.96573 0
M  V30 4363 H 408.672 -2.05653 -3.61497 0
M  V30 4364 H 407.249 -0.228193 -3.72201 0
M  V30 4365 N 409.434 1.37368 -0.772513 0
M  V30 4366 C 410.682 1.99279 -0.336516 0
M  V30 4367 C 411.003 1.6163 1.09091 0
M  V30 4368 O 410.273 0.882109 1.74916 0
M  V30 4369 H 408.853 0.737063 -0.121435 0
M  V30 4370 H 411.515 1.67836 -0.990809 0
M  V30 4371 H 410.611 3.09332 -0.414763 0
M  V30 4372 N 410.912 0.523116 1.48665 0
M  V30 4373 C 412.14 -0.0096312 2.06898 0
M  V30 4374 C 412.555 -1.28784 1.38059 0
M  V30 4375 O 411.912 -1.76453 0.465893 0
M  V30 4376 C 411.963 -0.244386 3.60673 0
M  V30 4377 O 411.684 0.983172 4.26925 0
M  V30 4378 C 413.185 -0.818289 4.35682 0
M  V30 4379 H 410.405 0.0304161 0.67031 0
M  V30 4380 H 412.949 0.726799 1.91149 0
M  V30 4381 H 411.104 -0.930847 3.76051 0
M  V30 4382 H 411.518 0.759653 5.1897 0
M  V30 4383 H 412.992 -0.93201 5.44075 0
M  V30 4384 H 413.469 -1.82153 3.99646 0
M  V30 4385 H 414.075 -0.168609 4.24966 0
M  V30 4386 N 412.39 -1.55475 0.257931 0
M  V30 4387 C 413.618 -2.03609 -0.367559 0
M  V30 4388 C 414.033 -1.13687 -1.50734 0
M  V30 4389 O 413.39 -0.153479 -1.81853 0
M  V30 4390 C 413.441 -3.51001 -0.864908 0
M  V30 4391 O 413.162 -4.37499 0.229465 0
M  V30 4392 C 414.663 -4.14946 -1.55997 0
M  V30 4393 H 411.883 -0.665459 -0.0860521 0
M  V30 4394 H 414.427 -2.00843 0.385014 0
M  V30 4395 H 412.582 -3.54266 -1.56762 0
M  V30 4396 H 412.996 -5.24286 -0.14998 0
M  V30 4397 H 414.47 -5.19735 -1.85956 0
M  V30 4398 H 414.947 -3.6209 -2.4857 0
M  V30 4399 H 415.553 -4.15635 -0.901543 0
M  V30 4400 N 413.868 0.0150385 -1.57593 0
M  V30 4401 C 415.116 0.701613 -1.8953 0
M  V30 4402 C 415.437 1.75139 -0.857396 0
M  V30 4403 O 414.707 1.95607 0.107194 0
M  V30 4404 H 413.287 0.26213 -0.699498 0
M  V30 4405 H 415.949 -0.0223304 -1.94887 0
M  V30 4406 H 415.045 1.18236 -2.88837 0
M  V30 4407 N 415.346 1.54954 0.287554 0
M  V30 4408 C 416.294 1.87606 1.37502 0
M  V30 4409 C 417.288 0.751001 1.51843 0
M  V30 4410 O 418.494 0.935169 1.53801 0
M  V30 4411 H 414.869 0.595231 0.459569 0
M  V30 4412 H 416.84 2.78477 1.07206 0
M  V30 4413 C 415.589 2.15183 2.73115 0
M  V30 4414 H 414.912 3.01234 2.62866 0
M  V30 4415 H 416.352 2.4196 3.48183 0
M  V30 4416 C 414.811 0.954686 3.2309 0
M  V30 4417 O 415.341 0.181949 4.01288 0
M  V30 4418 N 413.547 0.756368 2.80584 0
M  V30 4419 H 413.094 1.38643 2.17108 0
M  V30 4420 H 413.052 -0.0430391 3.14371 0
M  V30 4421 N 416.824 -0.551391 1.4764 0
M  V30 4422 C 418.235 -1.13349 1.48354 0
M  V30 4423 C 418.586 -1.94709 0.241432 0
M  V30 4424 O 417.711 -2.06306 -0.653205 0
M  V30 4425 C 418.306 -2.0623 2.68802 0
M  V30 4426 C 416.865 -2.597 2.72457 0
M  V30 4427 C 416.012 -1.36201 2.41546 0
M  V30 4428 H 418.963 -0.337698 1.55065 0
M  V30 4429 H 418.984 -2.90196 2.46103 0
M  V30 4430 H 418.496 -1.46987 3.59188 0
M  V30 4431 H 416.597 -3.22724 1.86225 0
M  V30 4432 H 416.71 -3.00296 3.73308 0
M  V30 4433 H 415.074 -1.67068 1.9225 0
M  V30 4434 H 415.857 -0.787425 3.34147 0
M  V30 4435 N 418.302 -1.35869 -0.798587 0
M  V30 4436 C 419.249 -1.29446 -1.91082 0
M  V30 4437 C 420.219 -0.16487 -1.6528 0
M  V30 4438 O 421.404 -0.349888 -1.87564 0
M  V30 4439 C 418.544 -1.0804 -3.27752 0
M  V30 4440 C 417.657 -2.29993 -3.65687 0
M  V30 4441 C 416.792 -2.01673 -4.91428 0
M  V30 4442 C 415.831 -3.19636 -5.22015 0
M  V30 4443 N 414.968 -2.91039 -6.38937 0
M  V30 4444 H 419.808 -2.24553 -1.95907 0
M  V30 4445 H 417.345 -1.11615 -0.958148 0
M  V30 4446 H 419.303 -0.936586 -4.06551 0
M  V30 4447 H 417.933 -0.16592 -3.22373 0
M  V30 4448 H 416.985 -2.55211 -2.82085 0
M  V30 4449 H 418.297 -3.18052 -3.84245 0
M  V30 4450 H 417.451 -1.84168 -5.78072 0
M  V30 4451 H 416.19 -1.10911 -4.74921 0
M  V30 4452 H 415.195 -3.37709 -4.33858 0
M  V30 4453 H 416.42 -4.11211 -5.40447 0
M  V30 4454 H 414.366 -2.0288 -6.2384 0
M  V30 4455 H 414.283 -3.72635 -6.57784 0
M  V30 4456 H 415.551 -2.77093 -7.28587 0
M  V30 4457 N 419.78 1.02168 -1.19998 0
M  V30 4458 C 421.028 1.75338 -1.00504 0
M  V30 4459 C 421.349 1.89387 0.464506 0
M  V30 4460 O 420.619 1.43268 1.33608 0
M  V30 4461 H 419.199 0.649564 -0.368885 0
M  V30 4462 H 421.861 1.23205 -1.51018 0
M  V30 4463 H 420.957 2.75892 -1.45912 0
M  V30 4464 N 421.258 1.00505 1.21394 0
M  V30 4465 C 422.221 0.570459 2.21987 0
M  V30 4466 C 423.221 -0.353211 1.56873 0
M  V30 4467 O 424.411 -0.14349 1.73608 0
M  V30 4468 C 421.543 -0.168555 3.40483 0
M  V30 4469 H 422.736 1.46021 2.6195 0
M  V30 4470 H 420.289 0.793565 1.34656 0
M  V30 4471 H 421.024 -1.07374 3.06009 0
M  V30 4472 H 420.809 0.494823 3.88965 0
M  V30 4473 H 422.299 -0.460362 4.15055 0
M  V30 4474 N 422.737 -1.36956 0.779787 0
M  V30 4475 C 423.67 -2.27896 0.117681 0
M  V30 4476 C 424.648 -1.46736 -0.700523 0
M  V30 4477 O 425.832 -1.76055 -0.673568 0
M  V30 4478 C 422.959 -3.28136 -0.839296 0
M  V30 4479 C 422.005 -4.26373 -0.10409 0
M  V30 4480 S 422.838 -5.2157 1.21348 0
M  V30 4481 C 423.994 -6.25359 0.260249 0
M  V30 4482 H 424.227 -2.83704 0.888778 0
M  V30 4483 H 421.76 -1.43352 0.57355 0
M  V30 4484 H 423.718 -3.86394 -1.38601 0
M  V30 4485 H 422.379 -2.7126 -1.58356 0
M  V30 4486 H 421.572 -4.97121 -0.82986 0
M  V30 4487 H 421.174 -3.72147 0.371858 0
M  V30 4488 H 423.466 -6.75145 -0.564435 0
M  V30 4489 H 424.409 -7.01885 0.936135 0
M  V30 4490 H 424.817 -5.64345 -0.132127 0
M  V30 4491 N 424.215 -0.530993 -1.48385 0
M  V30 4492 C 425.461 0.00274135 -2.028 0
M  V30 4493 C 425.794 1.33838 -1.40716 0
M  V30 4494 O 425.069 1.86465 -0.553277 0
M  V30 4495 C 425.352 0.123676 -3.59888 0
M  V30 4496 C 425.205 -1.2372 -4.3245 0
M  V30 4497 C 426.524 0.849967 -4.31814 0
M  V30 4498 H 423.643 -0.000477758 -0.737 0
M  V30 4499 H 426.285 -0.688217 -1.77098 0
M  V30 4500 H 424.435 0.712157 -3.81917 0
M  V30 4501 H 426.107 -1.86687 -4.21836 0
M  V30 4502 H 424.35 -1.81882 -3.93829 0
M  V30 4503 H 425.021 -1.10557 -5.40815 0
M  V30 4504 H 427.497 0.350572 -4.14621 0
M  V30 4505 H 426.373 0.903486 -5.41413 0
M  V30 4506 H 426.634 1.90047 -3.99167 0
M  V30 4507 N 425.693 1.55336 -0.266172 0
M  V30 4508 C 426.921 2.03801 0.356756 0
M  V30 4509 C 427.336 1.14485 1.50129 0
M  V30 4510 O 426.693 0.163121 1.8177 0
M  V30 4511 C 426.744 3.51455 0.846281 0
M  V30 4512 O 426.465 4.37371 -0.252663 0
M  V30 4513 C 427.966 4.15767 1.53794 0
M  V30 4514 H 425.186 0.665906 0.0825218 0
M  V30 4515 H 427.73 2.00636 -0.39566 0
M  V30 4516 H 425.885 3.55092 1.54881 0
M  V30 4517 H 426.299 5.24358 0.122173 0
M  V30 4518 H 427.773 5.20714 1.83198 0
M  V30 4519 H 428.25 3.63404 2.46646 0
M  V30 4520 H 428.856 4.16107 0.879488 0
M  V30 4521 N 427.171 -0.0066808 1.57599 0
M  V30 4522 C 428.121 -1.0086 2.04478 0
M  V30 4523 C 429.105 -1.30714 0.938231 0
M  V30 4524 O 430.297 -1.29924 1.20203 0
M  V30 4525 C 427.426 -2.30273 2.54615 0
M  V30 4526 C 426.512 -2.03413 3.72134 0
M  V30 4527 N 426.903 -1.46688 4.84062 0
M  V30 4528 C 425.201 -2.33589 3.79937 0
M  V30 4529 C 425.902 -1.36146 5.65543 0
M  V30 4530 N 424.878 -1.84477 5.1134 0
M  V30 4531 H 428.68 -0.564402 2.8843 0
M  V30 4532 H 426.194 -0.212521 1.61003 0
M  V30 4533 H 428.191 -3.02885 2.86472 0
M  V30 4534 H 426.851 -2.75352 1.72079 0
M  V30 4535 H 427.862 -1.14658 5.05049 0
M  V30 4536 H 424.539 -2.81589 3.08243 0
M  V30 4537 H 425.929 -0.925873 6.6549 0
M  V30 4538 N 428.649 -1.55105 -0.279332 0
M  V30 4539 C 430.065 -1.46803 -0.626187 0
M  V30 4540 C 430.265 -0.676939 -1.89789 0
M  V30 4541 O 429.321 -0.19326 -2.51759 0
M  V30 4542 C 430.634 -2.90962 -0.759034 0
M  V30 4543 C 432.182 -3.01138 -0.853504 0
M  V30 4544 C 432.657 -4.46539 -1.01818 0
M  V30 4545 N 434.148 -4.50341 -1.08386 0
M  V30 4546 C 434.883 -5.60053 -1.22996 0
M  V30 4547 N 434.379 -6.79645 -1.34366 0
M  V30 4548 N 436.172 -5.47783 -1.26056 0
M  V30 4549 H 428.323 -2.04996 0.555921 0
M  V30 4550 H 430.586 -0.929325 0.187239 0
M  V30 4551 H 430.292 -3.51544 0.104852 0
M  V30 4552 H 430.166 -3.39619 -1.64131 0
M  V30 4553 H 432.553 -2.40658 -1.70786 0
M  V30 4554 H 432.634 -2.55745 0.0532466 0
M  V30 4555 H 432.278 -5.0762 -0.168504 0
M  V30 4556 H 432.208 -4.89583 -1.93948 0
M  V30 4557 H 434.699 -3.64191 -1.00864 0
M  V30 4558 H 435.012 -7.59012 -1.4533 0
M  V30 4559 H 433.357 -6.82469 -1.31382 0
M  V30 4560 H 436.548 -4.53294 -1.168 0
M  V30 4561 H 436.721 -6.33331 -1.37098 0
M  V30 4562 N 430.127 0.543554 -1.4793 0
M  V30 4563 C 431.075 1.67039 -1.61866 0
M  V30 4564 C 432.069 1.62294 -0.48549 0
M  V30 4565 O 433.275 1.67315 -0.66376 0
M  V30 4566 H 429.65 0.552954 -0.509652 0
M  V30 4567 H 431.621 1.52426 -2.56533 0
M  V30 4568 C 430.37 3.05357 -1.6629 0
M  V30 4569 H 429.693 3.09696 -2.5284 0
M  V30 4570 H 431.133 3.83855 -1.80088 0
M  V30 4571 C 429.592 3.34531 -0.398861 0
M  V30 4572 O 430.122 3.98649 0.494162 0
M  V30 4573 N 428.328 2.89299 -0.2747 0
M  V30 4574 H 427.875 2.37298 -1.00236 0
M  V30 4575 H 427.833 3.09188 0.570075 0
M  V30 4576 N 431.605 1.3629 0.791371 0
M  V30 4577 C 432.854 1.29742 1.54434 0
M  V30 4578 C 433.167 -0.121729 1.95221 0
M  V30 4579 O 434.373 -0.309579 2.69729 0
M  V30 4580 C 432.829 2.27623 2.78776 0
M  V30 4581 C 432.437 3.74963 2.45166 0
M  V30 4582 C 434.181 2.30047 3.56761 0
M  V30 4583 C 432.088 4.64626 3.65891 0
M  V30 4584 H 431.018 0.482113 0.579727 0
M  V30 4585 H 433.669 1.61642 0.868565 0
M  V30 4586 H 432.051 1.88714 3.48142 0
M  V30 4587 H 433.225 4.22596 1.83709 0
M  V30 4588 H 431.54 3.75295 1.80396 0
M  V30 4589 H 434.137 2.94247 4.46456 0
M  V30 4590 H 434.48 1.30846 3.95203 0
M  V30 4591 H 435.013 2.67563 2.94372 0
M  V30 4592 H 431.752 5.64883 3.32547 0
M  V30 4593 H 431.272 4.2171 4.26521 0
M  V30 4594 H 432.951 4.80801 4.32943 0
M  V30 4595 N 433.083 -1.0153 1.20538 0
M  V30 4596 C 434.329 -1.75408 1.01783 0
M  V30 4597 C 434.662 -1.88943 -0.448814 0
M  V30 4598 O 433.937 -1.4162 -1.33319 0
M  V30 4599 C 434.22 -3.17255 1.70356 0
M  V30 4600 C 434.073 -3.11508 3.24473 0
M  V30 4601 C 435.392 -4.15955 1.43769 0
M  V30 4602 H 432.511 -0.636713 0.371167 0
M  V30 4603 H 435.153 -1.18436 1.4857 0
M  V30 4604 H 433.303 -3.65898 1.30578 0
M  V30 4605 H 434.975 -2.70658 3.73553 0
M  V30 4606 H 433.218 -2.4887 3.55311 0
M  V30 4607 H 433.889 -4.11784 3.67611 0
M  V30 4608 H 436.365 -3.75973 1.7828 0
M  V30 4609 H 435.241 -5.13368 1.94279 0
M  V30 4610 H 435.502 -4.40586 0.365564 0
M  V30 4611 N 434.561 -1.01147 -1.20859 0
M  V30 4612 C 435.786 -0.716698 -1.94623 0
M  V30 4613 C 436.211 0.715415 -1.73964 0
M  V30 4614 O 435.569 1.49157 -1.03062 0
M  V30 4615 C 435.617 -1.0513 -3.44935 0
M  V30 4616 O 434.721 -0.160131 -4.12089 0
M  V30 4617 H 434.062 -0.266404 -0.608214 0
M  V30 4618 H 436.592 -1.35346 -1.53436 0
M  V30 4619 H 436.602 -1.00086 -3.95533 0
M  V30 4620 H 435.277 -2.09475 -3.59295 0
M  V30 4621 H 433.854 -0.267657 -3.71938 0
M  V30 4622 N 436.039 1.36541 -0.78704 0
M  V30 4623 C 437.316 1.9355 -0.282424 0
M  V30 4624 C 437.696 1.71919 1.22503 0
M  V30 4625 O 437.044 1.07677 2.01539 0
M  V30 4626 C 437.254 3.4246 -0.672462 0
M  V30 4627 C 438.602 4.19582 -0.650863 0
M  V30 4628 O 439.626 3.50889 -0.612789 0
M  V30 4629 O 438.485 5.42106 -0.691623 0
M  V30 4630 H 435.579 0.824091 -0.0693 0
M  V30 4631 H 438.125 1.45736 -0.869423 0
M  V30 4632 H 436.897 3.51851 -1.71221 0
M  V30 4633 H 436.52 3.97556 -0.0592211 0
M  V30 4634 N 437.518 0.538854 1.48102 0
M  V30 4635 C 438.758 0.0101209 2.04397 0
M  V30 4636 C 439.122 -1.30741 1.40609 0
M  V30 4637 O 440.323 -1.92272 1.87843 0
M  V30 4638 C 438.594 -0.100232 3.57259 0
M  V30 4639 S 440.153 -0.577746 4.3498 0
M  V30 4640 H 436.971 0.0163171 0.710813 0
M  V30 4641 H 439.573 0.721429 1.81702 0
M  V30 4642 H 438.277 0.863351 4.01216 0
M  V30 4643 H 437.808 -0.835651 3.84422 0
M  V30 4644 H 439.823 -1.84073 4.60794 0
M  V30 4645 N 438.996 -1.55193 0.274407 0
M  V30 4646 C 440.221 -2.04446 -0.348824 0
M  V30 4647 C 440.646 -1.15149 -1.48735 0
M  V30 4648 O 440.004 -0.149952 -1.80679 0
M  V30 4649 C 440.052 -3.51431 -0.808009 0
M  V30 4650 O 439.156 -3.65225 -1.91531 0
M  V30 4651 H 438.497 -0.66006 -0.0722276 0
M  V30 4652 H 441.027 -2.00481 0.408498 0
M  V30 4653 H 441.037 -3.92781 -1.10395 0
M  V30 4654 H 439.712 -4.15892 0.0249865 0
M  V30 4655 H 438.289 -3.35778 -1.62196 0
M  V30 4656 N 440.474 -0.00167713 -1.576 0
M  V30 4657 C 441.437 0.974046 -2.07473 0
M  V30 4658 C 442.437 1.27143 -0.984444 0
M  V30 4659 O 443.627 1.21633 -1.24703 0
M  V30 4660 C 440.759 2.29849 -2.51759 0
M  V30 4661 H 441.952 0.54262 -2.9495 0
M  V30 4662 H 439.505 0.245829 -1.54355 0
M  V30 4663 H 440.24 2.77677 -1.67529 0
M  V30 4664 H 440.025 2.09584 -3.31386 0
M  V30 4665 H 441.515 2.9984 -2.90664 0
M  V30 4666 N 441.952 1.55251 0.271103 0
M  V30 4667 C 443.199 1.75946 1.00245 0
M  V30 4668 C 443.527 0.561611 1.86215 0
M  V30 4669 O 442.782 -0.455832 1.90317 0
M  V30 4670 C 443.081 3.01879 1.91321 0
M  V30 4671 C 442.747 4.34337 1.21086 0
M  V30 4672 C 441.409 4.70338 1.01666 0
M  V30 4673 C 443.761 5.16325 0.71119 0
M  V30 4674 C 441.089 5.8588 0.310099 0
M  V30 4675 C 443.441 6.32597 0.0182157 0
M  V30 4676 C 442.105 6.67236 -0.18768 0
M  V30 4677 H 441.375 0.643833 0.366824 0
M  V30 4678 H 444.022 1.89521 0.27458 0
M  V30 4679 H 442.327 2.83212 2.70736 0
M  V30 4680 H 444.024 3.15088 2.48033 0
M  V30 4681 H 440.614 4.06043 1.37213 0
M  V30 4682 H 444.798 4.88987 0.848844 0
M  V30 4683 H 440.054 6.1124 0.139873 0
M  V30 4684 H 444.228 6.9538 -0.376711 0
M  V30 4685 H 441.855 7.56618 -0.73715 0
M  V30 4686 N 443.43 -0.535701 1.48216 0
M  V30 4687 C 444.676 -1.29375 1.56173 0
M  V30 4688 C 445.009 -1.92804 0.232429 0
M  V30 4689 O 444.284 -1.78992 -0.761048 0
M  V30 4690 C 444.567 -2.38747 2.69577 0
M  V30 4691 C 444.42 -1.80046 4.12193 0
M  V30 4692 C 445.739 -3.40551 2.78771 0
M  V30 4693 H 442.858 -0.469027 0.568491 0
M  V30 4694 H 445.5 -0.597358 1.80365 0
M  V30 4695 H 443.65 -2.98147 2.4908 0
M  V30 4696 H 445.322 -1.24742 4.44114 0
M  V30 4697 H 443.565 -1.10609 4.19462 0
M  V30 4698 H 444.236 -2.59212 4.87353 0
M  V30 4699 H 446.712 -2.91099 2.97322 0
M  V30 4700 H 445.588 -4.1448 3.59857 0
M  V30 4701 H 445.849 -4.00746 1.86696 0
M  V30 4702 N 444.908 -1.36708 -0.784132 0
M  V30 4703 C 445.855 -1.31466 -1.89698 0
M  V30 4704 C 446.825 -0.18239 -1.65096 0
M  V30 4705 O 448.01 -0.369762 -1.87183 0
M  V30 4706 C 445.15 -1.1151 -3.26588 0
M  V30 4707 C 444.263 -2.33859 -3.63227 0
M  V30 4708 C 443.398 -2.06873 -4.89262 0
M  V30 4709 C 442.437 -3.25154 -5.18595 0
M  V30 4710 N 441.574 -2.978 -6.35814 0
M  V30 4711 H 446.414 -2.26619 -1.93515 0
M  V30 4712 H 443.951 -1.12625 -0.946256 0
M  V30 4713 H 445.909 -0.979653 -4.05535 0
M  V30 4714 H 444.539 -0.200103 -3.22179 0
M  V30 4715 H 443.591 -2.58188 -2.79362 0
M  V30 4716 H 444.903 -3.22109 -3.8085 0
M  V30 4717 H 444.057 -1.90289 -5.76086 0
M  V30 4718 H 442.796 -1.15942 -4.73718 0
M  V30 4719 H 441.801 -3.42292 -4.30251 0
M  V30 4720 H 443.026 -4.1692 -5.36055 0
M  V30 4721 H 440.972 -2.09485 -6.21653 0
M  V30 4722 H 440.889 -3.7959 -6.53794 0
M  V30 4723 H 442.157 -2.84805 -7.25607 0
M  V30 4724 N 446.386 1.0089 -1.21074 0
M  V30 4725 C 447.349 2.0775 -0.968129 0
M  V30 4726 C 448.349 1.6069 0.0593445 0
M  V30 4727 O 449.539 1.73293 -0.177525 0
M  V30 4728 C 446.671 3.37794 -0.459108 0
M  V30 4729 H 447.864 2.30707 -1.9161 0
M  V30 4730 H 445.417 1.17807 -1.02719 0
M  V30 4731 H 446.152 3.20516 0.49397 0
M  V30 4732 H 445.937 3.7328 -1.20019 0
M  V30 4733 H 447.427 4.16454 -0.309099 0
M  V30 4734 N 447.864 1.01787 1.20321 0
M  V30 4735 C 449.092 0.727194 1.937 0
M  V30 4736 C 449.507 -0.712305 1.74848 0
M  V30 4737 O 448.864 -1.48327 1.06327 0
M  V30 4738 C 448.915 1.05497 3.45764 0
M  V30 4739 O 448.636 2.43794 3.64 0
M  V30 4740 C 450.137 0.785534 4.36285 0
M  V30 4741 H 447.357 0.266939 0.615617 0
M  V30 4742 H 449.901 1.35939 1.52777 0
M  V30 4743 H 448.056 0.468158 3.84561 0
M  V30 4744 H 448.47 2.55656 4.57974 0
M  V30 4745 H 449.944 1.06495 5.4163 0
M  V30 4746 H 450.421 -0.280273 4.38305 0
M  V30 4747 H 451.027 1.35456 4.03152 0
M  V30 4748 N 449.342 -1.36122 0.79427 0
M  V30 4749 C 450.252 -2.33769 0.197296 0
M  V30 4750 C 451.268 -1.61276 -0.653153 0
M  V30 4751 O 452.444 -1.9323 -0.5678 0
M  V30 4752 C 449.509 -3.40474 -0.654098 0
M  V30 4753 C 448.57 -4.28759 0.215411 0
M  V30 4754 C 447.803 -5.30368 -0.595443 0
M  V30 4755 O 448.026 -5.40211 -1.83107 0
M  V30 4756 O 446.96 -6.019 0.00721351 0
M  V30 4757 H 450.786 -2.86597 1.00478 0
M  V30 4758 H 448.371 -1.38676 0.555818 0
M  V30 4759 H 450.253 -4.05703 -1.13944 0
M  V30 4760 H 448.928 -2.89937 -1.43938 0
M  V30 4761 H 447.835 -3.66554 0.747615 0
M  V30 4762 H 449.168 -4.82661 0.964332 0
M  V30 4763 N 450.82 -0.546701 -1.47814 0
M  V30 4764 C 451.768 0.220048 -2.31557 0
M  V30 4765 C 452.762 0.919472 -1.42275 0
M  V30 4766 O 453.968 0.841953 -1.59095 0
M  V30 4767 H 450.343 0.0898334 -0.746615 0
M  V30 4768 H 452.314 -0.505589 -2.94086 0
M  V30 4769 C 451.063 1.24353 -3.24702 0
M  V30 4770 H 450.386 0.714758 -3.93359 0
M  V30 4771 H 451.826 1.75112 -3.8615 0
M  V30 4772 C 450.285 2.28593 -2.47481 0
M  V30 4773 O 450.815 3.35334 -2.21165 0
M  V30 4774 N 449.021 2.02244 -2.08676 0
M  V30 4775 H 448.568 1.15455 -2.30278 0
M  V30 4776 H 448.526 2.72207 -1.57323 0
M  V30 4777 N 452.299 1.55045 -0.282633 0
M  V30 4778 C 453.527 2.04168 0.33512 0
M  V30 4779 C 453.942 1.16071 1.48906 0
M  V30 4780 O 453.299 0.182391 1.81586 0
M  V30 4781 C 453.35 3.52332 0.808957 0
M  V30 4782 O 453.071 4.37078 -0.299038 0
M  V30 4783 C 454.572 4.17375 1.49375 0
M  V30 4784 H 451.792 0.666744 0.0754543 0
M  V30 4785 H 454.336 2.00205 -0.416918 0
M  V30 4786 H 452.491 3.56715 1.51106 0
M  V30 4787 H 452.905 5.24458 0.0665514 0
M  V30 4788 H 454.379 5.22627 1.77664 0
M  V30 4789 H 454.856 3.65999 2.42778 0
M  V30 4790 H 455.462 4.17016 0.835305 0
M  V30 4791 N 453.777 0.010035 1.57597 0
M  V30 4792 C 455.023 -0.673697 1.91283 0
M  V30 4793 C 455.356 -1.72863 0.884979 0
M  V30 4794 O 454.631 -1.94268 -0.0949487 0
M  V30 4795 C 454.914 -1.30766 3.35518 0
M  V30 4796 C 454.767 -0.263578 4.49027 0
M  V30 4797 C 456.086 -2.23105 3.79358 0
M  V30 4798 H 453.205 -0.243439 0.695634 0
M  V30 4799 H 455.847 0.0633864 1.89894 0
M  V30 4800 H 453.997 -1.93588 3.36832 0
M  V30 4801 H 455.669 0.365738 4.59848 0
M  V30 4802 H 453.912 0.413077 4.31829 0
M  V30 4803 H 454.583 -0.746398 5.4693 0
M  V30 4804 H 457.059 -1.70289 3.79659 0
M  V30 4805 H 455.935 -2.64424 4.81011 0
M  V30 4806 H 456.196 -3.11433 3.13787 0
M  V30 4807 N 455.255 -1.55392 -0.262866 0
M  V30 4808 C 456.203 -1.8977 -1.345 0
M  V30 4809 C 457.197 -0.775063 -1.50629 0
M  V30 4810 O 458.403 -0.959519 -1.52293 0
M  V30 4811 H 454.778 -0.602467 -0.450041 0
M  V30 4812 H 456.749 -2.80147 -1.02762 0
M  V30 4813 C 455.498 -2.19501 -2.69657 0
M  V30 4814 H 454.821 -3.05378 -2.5804 0
M  V30 4815 H 456.261 -2.47469 -3.44289 0
M  V30 4816 C 454.72 -1.00597 -3.21531 0
M  V30 4817 O 455.25 -0.245768 -4.00947 0
M  V30 4818 N 453.456 -0.800911 -2.79345 0
M  V30 4819 H 453.003 -1.42079 -2.14875 0
M  V30 4820 H 452.961 -0.00697996 -3.14399 0
M  V30 4821 N 456.733 0.527833 -1.48498 0
M  V30 4822 C 458.144 1.10975 -1.50138 0
M  V30 4823 C 458.495 1.943 -0.272378 0
M  V30 4824 O 457.62 2.07319 0.620301 0
M  V30 4825 C 458.215 2.01927 -2.72049 0
M  V30 4826 C 456.774 2.55332 -2.76554 0
M  V30 4827 C 455.921 1.32341 -2.43683 0
M  V30 4828 H 458.872 0.312986 -1.55583 0
M  V30 4829 H 458.893 2.86244 -2.50689 0
M  V30 4830 H 458.405 1.41254 -3.61481 0
M  V30 4831 H 456.506 3.19721 -1.91336 0
M  V30 4832 H 456.619 2.94319 -3.78038 0
M  V30 4833 H 454.983 1.63989 -1.94884 0
M  V30 4834 H 455.766 0.734165 -3.35358 0
M  V30 4835 N 458.211 1.37122 0.776871 0
M  V30 4836 C 459.451 1.33441 1.54831 0
M  V30 4837 C 459.815 -0.0818963 1.91825 0
M  V30 4838 O 461.016 -0.24338 2.67696 0
M  V30 4839 C 459.287 2.24267 2.78279 0
M  V30 4840 S 460.846 2.38389 3.68397 0
M  V30 4841 H 457.664 0.473791 0.530135 0
M  V30 4842 H 460.266 1.7282 0.913968 0
M  V30 4843 H 458.97 3.261 2.49173 0
M  V30 4844 H 458.501 1.85953 3.46677 0
M  V30 4845 H 460.516 1.59068 4.70013 0
M  V30 4846 N 459.689 -1.00246 1.21608 0
M  V30 4847 C 461.1 -1.55511 1.03312 0
M  V30 4848 C 461.451 -1.91946 -0.406332 0
M  V30 4849 O 460.576 -1.73753 -1.28992 0
M  V30 4850 C 461.171 -2.82576 1.86913 0
M  V30 4851 C 459.73 -3.34318 1.72941 0
M  V30 4852 C 458.877 -2.07487 1.83968 0
M  V30 4853 H 461.828 -0.824638 1.35593 0
M  V30 4854 H 461.849 -3.54559 1.38087 0
M  V30 4855 H 461.361 -2.56026 2.91672 0
M  V30 4856 H 459.462 -3.65797 0.70877 0
M  V30 4857 H 459.575 -4.05566 2.55055 0
M  V30 4858 H 457.939 -2.20603 1.27304 0
M  V30 4859 H 458.722 -1.83346 2.9024 0
M  V30 4860 N 461.167 -1.02423 -1.1978 0
M  V30 4861 C 462.444 -0.632802 -1.85081 0
M  V30 4862 C 462.824 0.888745 -1.9148 0
M  V30 4863 O 462.172 1.78357 -1.42832 0
M  V30 4864 C 462.382 -1.28947 -3.24305 0
M  V30 4865 C 463.73 -1.40976 -4.00513 0
M  V30 4866 O 464.754 -1.24628 -3.33686 0
M  V30 4867 O 463.613 -1.67467 -5.20209 0
M  V30 4868 H 460.707 -0.219348 -0.79738 0
M  V30 4869 H 463.253 -1.12209 -1.27307 0
M  V30 4870 H 462.025 -2.3288 -3.14456 0
M  V30 4871 H 461.648 -0.787748 -3.89718 0
M  V30 4872 N 462.645 1.35699 -0.801477 0
M  V30 4873 C 463.922 1.9324 -0.302937 0
M  V30 4874 C 464.302 1.73209 1.20672 0
M  V30 4875 O 463.65 1.09809 2.00385 0
M  V30 4876 C 463.86 3.41728 -0.708747 0
M  V30 4877 C 465.208 4.18868 -0.695328 0
M  V30 4878 O 466.232 3.5022 -0.649971 0
M  V30 4879 O 465.091 5.41342 -0.749081 0
M  V30 4880 H 462.185 0.82331 -0.0780367 0
M  V30 4881 H 464.731 1.44806 -0.884832 0
M  V30 4882 H 463.503 3.50015 -1.74944 0
M  V30 4883 H 463.126 3.97471 -0.101384 0
M  V30 4884 N 464.123 0.554532 1.47522 0
M  V30 4885 C 465.351 0.034257 2.06872 0
M  V30 4886 C 465.766 -1.25826 1.40759 0
M  V30 4887 O 465.123 -1.75425 0.503217 0
M  V30 4888 C 465.174 -0.167827 3.6111 0
M  V30 4889 O 464.895 1.07351 4.24744 0
M  V30 4890 C 466.396 -0.72569 4.3732 0
M  V30 4891 H 463.616 0.0446275 0.669514 0
M  V30 4892 H 466.16 0.767181 1.89564 0
M  V30 4893 H 464.315 -0.850872 3.7794 0
M  V30 4894 H 464.729 0.869563 5.17242 0
M  V30 4895 H 466.203 -0.816394 5.45929 0
M  V30 4896 H 466.68 -1.73635 4.0342 0
M  V30 4897 H 467.286 -0.0784292 4.25228 0
M  V30 4898 N 465.601 -1.54893 0.290851 0
M  V30 4899 C 466.531 -2.26103 -0.583084 0
M  V30 4900 C 467.512 -1.25684 -1.14619 0
M  V30 4901 O 468.697 -1.54436 -1.17741 0
M  V30 4902 C 465.827 -2.99409 -1.75987 0
M  V30 4903 C 464.781 -4.0689 -1.32758 0
M  V30 4904 C 464.107 -4.67856 -2.58872 0
M  V30 4905 C 465.407 -5.20215 -0.46624 0
M  V30 4906 H 467.101 -2.99398 0.0108214 0
M  V30 4907 H 464.647 -1.43998 0.00664468 0
M  V30 4908 H 466.6 -3.47943 -2.37727 0
M  V30 4909 H 465.324 -2.23675 -2.37985 0
M  V30 4910 H 463.983 -3.59191 -0.733299 0
M  V30 4911 H 463.631 -3.88772 -3.19163 0
M  V30 4912 H 463.331 -5.40438 -2.30653 0
M  V30 4913 H 464.855 -5.19147 -3.21433 0
M  V30 4914 H 466.269 -5.64704 -0.989047 0
M  V30 4915 H 464.666 -5.99455 -0.27826 0
M  V30 4916 H 465.736 -4.82198 0.511173 0
M  V30 4917 N 467.08 -0.0183926 -1.57589 0
M  V30 4918 C 468.329 0.66185 -1.90532 0
M  V30 4919 C 468.642 1.73904 -0.895366 0
M  V30 4920 O 469.848 2.47518 -1.11566 0
M  V30 4921 C 468.304 1.22844 -3.38286 0
M  V30 4922 C 467.912 0.185103 -4.47617 0
M  V30 4923 C 469.656 1.88581 -3.80312 0
M  V30 4924 C 467.563 0.762723 -5.86461 0
M  V30 4925 H 466.493 0.250972 -0.711006 0
M  V30 4926 H 469.144 -0.0819435 -1.83317 0
M  V30 4927 H 467.526 2.0235 -3.40398 0
M  V30 4928 H 468.7 -0.58671 -4.5705 0
M  V30 4929 H 467.015 -0.372889 -4.14727 0
M  V30 4930 H 469.612 2.32735 -4.81392 0
M  V30 4931 H 469.955 2.72408 -3.14801 0
M  V30 4932 H 470.488 1.15782 -3.80578 0
M  V30 4933 H 467.227 -0.0371713 -6.55489 0
M  V30 4934 H 466.747 1.50327 -5.80656 0
M  V30 4935 H 468.426 1.25576 -6.34697 0
M  V30 4936 N 468.558 1.5553 0.254621 0
M  V30 4937 C 469.783 1.81383 1.00573 0
M  V30 4938 C 470.208 0.594419 1.78461 0
M  V30 4939 O 469.566 -0.456403 1.75461 0
M  V30 4940 C 469.614 3.04892 1.92545 0
M  V30 4941 O 468.718 2.81266 3.01601 0
M  V30 4942 H 468.059 0.598969 0.286587 0
M  V30 4943 H 470.589 2.02703 0.277952 0
M  V30 4944 H 470.599 3.34119 2.34155 0
M  V30 4945 H 469.274 3.93287 1.3527 0
M  V30 4946 H 467.851 2.63185 2.64174 0
M  V30 4947 N 470.036 -0.519951 1.48776 0
M  V30 4948 C 471.283 -1.27522 1.57303 0
M  V30 4949 C 471.611 -1.92869 0.251328 0
M  V30 4950 O 470.866 -1.80372 -0.759243 0
M  V30 4951 C 471.165 -2.37864 2.6675 0
M  V30 4952 C 470.831 -1.90103 4.08867 0
M  V30 4953 C 469.493 -1.76795 4.47546 0
M  V30 4954 C 471.845 -1.54133 4.97888 0
M  V30 4955 C 469.173 -1.25868 5.73039 0
M  V30 4956 C 471.525 -1.04665 6.23881 0
M  V30 4957 C 470.189 -0.899823 6.61407 0
M  V30 4958 H 469.459 -0.466636 0.575614 0
M  V30 4959 H 472.106 -0.579109 1.82534 0
M  V30 4960 H 470.411 -3.13186 2.35418 0
M  V30 4961 H 472.108 -2.95969 2.70561 0
M  V30 4962 H 468.698 -2.01414 3.78326 0
M  V30 4963 H 472.882 -1.6327 4.68675 0
M  V30 4964 H 468.138 -1.13196 6.0083 0
M  V30 4965 H 472.312 -0.759074 6.92251 0
M  V30 4966 H 469.939 -0.503011 7.58534 0
M  V30 4967 N 471.514 -1.37532 -0.769588 0
M  V30 4968 C 472.444 -1.36172 -1.89682 0
M  V30 4969 C 473.425 -0.23001 -1.68538 0
M  V30 4970 O 474.61 -0.43069 -1.89364 0
M  V30 4971 C 471.74 -1.1701 -3.26995 0
M  V30 4972 C 470.694 -2.27216 -3.62708 0
M  V30 4973 C 470.02 -1.93174 -4.98586 0
M  V30 4974 C 471.32 -3.6941 -3.69234 0
M  V30 4975 H 473.014 -2.30499 -1.91078 0
M  V30 4976 H 470.56 -1.10953 -0.917902 0
M  V30 4977 H 472.513 -1.14688 -4.05493 0
M  V30 4978 H 471.237 -0.191395 -3.26039 0
M  V30 4979 H 469.896 -2.28697 -2.86519 0
M  V30 4980 H 469.544 -0.938281 -4.94171 0
M  V30 4981 H 469.244 -2.66973 -5.23449 0
M  V30 4982 H 470.768 -1.92443 -5.79481 0
M  V30 4983 H 472.182 -3.70047 -4.37879 0
M  V30 4984 H 470.579 -4.4228 -4.05597 0
M  V30 4985 H 471.649 -4.0288 -2.69844 0
M  V30 4986 N 472.992 0.995999 -1.22138 0
M  V30 4987 C 474.403 1.54961 -1.04135 0
M  V30 4988 C 474.754 1.92159 0.396147 0
M  V30 4989 O 473.879 1.74435 1.28069 0
M  V30 4990 C 474.474 2.81581 -1.88408 0
M  V30 4991 C 473.033 3.33396 -1.74712 0
M  V30 4992 C 472.18 2.06509 -1.85066 0
M  V30 4993 H 475.131 0.817436 -1.36028 0
M  V30 4994 H 475.152 3.53822 -1.39966 0
M  V30 4995 H 474.664 2.54476 -2.93025 0
M  V30 4996 H 472.765 3.65416 -0.728159 0
M  V30 4997 H 472.878 4.04208 -2.57202 0
M  V30 4998 H 471.242 2.19925 -1.28472 0
M  V30 4999 H 472.025 1.81804 -2.91208 0
M  V30 5000 N 474.47 1.03057 1.19235 0
M  V30 5001 C 475.4 0.633497 2.24742 0
M  V30 5002 C 476.381 -0.358335 1.66283 0
M  V30 5003 O 477.566 -0.240676 1.92703 0
M  V30 5004 C 474.696 -0.0147648 3.47297 0
M  V30 5005 C 473.65 0.899527 4.18441 0
M  V30 5006 C 472.976 0.116281 5.34574 0
M  V30 5007 C 474.276 2.21404 4.73051 0
M  V30 5008 H 475.97 1.5155 2.58211 0
M  V30 5009 H 473.516 0.73014 1.24117 0
M  V30 5010 H 475.469 -0.304202 4.20301 0
M  V30 5011 H 474.193 -0.931577 3.13032 0
M  V30 5012 H 472.852 1.17319 3.47321 0
M  V30 5013 H 472.5 -0.802619 4.96555 0
M  V30 5014 H 472.2 0.725293 5.83107 0
M  V30 5015 H 473.724 -0.166376 6.10373 0
M  V30 5016 H 475.138 1.98601 5.37802 0
M  V30 5017 H 473.535 2.77512 5.32078 0
M  V30 5018 H 474.605 2.86752 3.91026 0
M  V30 5019 N 475.948 -1.35272 0.808662 0
M  V30 5020 C 476.911 -2.28082 0.226093 0
M  V30 5021 C 477.911 -1.49673 -0.587762 0
M  V30 5022 O 479.101 -1.69404 -0.405943 0
M  V30 5023 C 476.233 -3.33955 -0.684596 0
M  V30 5024 H 477.426 -2.81116 1.04469 0
M  V30 5025 H 474.979 -1.45162 0.579466 0
M  V30 5026 H 475.714 -2.86111 -1.5268 0
M  V30 5027 H 475.499 -3.91965 -0.102699 0
M  V30 5028 H 476.989 -4.03219 -1.08646 0
M  V30 5029 N 477.426 -0.562348 -1.47226 0
M  V30 5030 C 478.376 0.202967 -2.27095 0
M  V30 5031 C 479.36 0.880611 -1.34663 0
M  V30 5032 O 480.552 0.778069 -1.58981 0
M  V30 5033 C 477.681 1.22906 -3.20545 0
M  V30 5034 C 476.767 0.554566 -4.20459 0
M  V30 5035 N 477.158 -0.378295 -5.04383 0
M  V30 5036 C 475.456 0.807854 -4.38623 0
M  V30 5037 C 476.157 -0.770583 -5.76573 0
M  V30 5038 N 475.133 -0.124263 -5.43458 0
M  V30 5039 H 478.935 -0.514196 -2.89367 0
M  V30 5040 H 476.449 -0.382655 -1.57827 0
M  V30 5041 H 478.446 1.79134 -3.76453 0
M  V30 5042 H 477.106 1.94726 -2.59831 0
M  V30 5043 H 478.117 -0.75274 -5.124 0
M  V30 5044 H 474.794 1.51418 -3.89075 0
M  V30 5045 H 476.184 -1.53742 -6.54074 0
M  V30 5046 N 478.904 1.54736 -0.299062 0
M  V30 5047 C 479.837 2.1962 0.619851 0
M  V30 5048 C 480.815 1.16496 1.13434 0
M  V30 5049 O 481.999 1.4513 1.2029 0
M  V30 5050 C 479.126 2.8385 1.84788 0
M  V30 5051 C 478.172 4.00484 1.46679 0
M  V30 5052 S 479.005 5.32926 0.524389 0
M  V30 5053 C 480.161 6.00638 1.76026 0
M  V30 5054 H 480.394 2.97221 0.0686177 0
M  V30 5055 H 477.927 1.54176 -0.0832085 0
M  V30 5056 H 479.885 3.21483 2.55263 0
M  V30 5057 H 478.546 2.06099 2.37028 0
M  V30 5058 H 477.739 4.44201 2.38121 0
M  V30 5059 H 477.341 3.64398 0.842008 0
M  V30 5060 H 479.633 6.21327 2.70109 0
M  V30 5061 H 480.576 6.94805 1.36569 0
M  V30 5062 H 480.984 5.3026 1.93609 0
M  V30 5063 N 480.382 0.0267497 1.57577 0
M  V30 5064 C 481.629 -0.652404 1.91703 0
M  V30 5065 C 481.957 -1.72271 0.902936 0
M  V30 5066 O 481.212 -1.955 -0.0884843 0
M  V30 5067 C 481.511 -1.30914 3.3256 0
M  V30 5068 C 481.177 -0.369441 4.49384 0
M  V30 5069 C 479.839 -0.110791 4.81072 0
M  V30 5070 C 482.191 0.275971 5.20469 0
M  V30 5071 C 479.519 0.801116 5.81205 0
M  V30 5072 C 481.871 1.17592 6.21575 0
M  V30 5073 C 480.535 1.44348 6.51705 0
M  V30 5074 H 479.805 -0.238732 0.70149 0
M  V30 5075 H 482.452 0.0880091 1.91298 0
M  V30 5076 H 480.757 -2.12425 3.29216 0
M  V30 5077 H 482.454 -1.84115 3.56234 0
M  V30 5078 H 479.044 -0.581211 4.24641 0
M  V30 5079 H 483.228 0.0892 4.9622 0
M  V30 5080 H 478.484 1.01614 6.02897 0
M  V30 5081 H 482.658 1.68223 6.75777 0
M  V30 5082 H 480.285 2.15176 7.29111 0
M  V30 5083 N 481.861 -1.55662 -0.24637 0
M  V30 5084 C 482.771 -1.93495 -1.32653 0
M  V30 5085 C 483.787 -0.835462 -1.5263 0
M  V30 5086 O 484.963 -1.1369 -1.66242 0
M  V30 5087 C 482.028 -2.22242 -2.66101 0
M  V30 5088 C 481.089 -3.45625 -2.54641 0
M  V30 5089 C 480.322 -3.72991 -3.81724 0
M  V30 5090 O 480.545 -3.02421 -4.8363 0
M  V30 5091 O 479.479 -4.66515 -3.80325 0
M  V30 5092 H 483.305 -2.85498 -1.03559 0
M  V30 5093 H 480.89 -1.42551 -0.44717 0
M  V30 5094 H 482.772 -2.42037 -3.44958 0
M  V30 5095 H 481.447 -1.33417 -2.94926 0
M  V30 5096 H 480.354 -3.31136 -1.74067 0
M  V30 5097 H 481.687 -4.34754 -2.3076 0
M  V30 5098 N 483.339 0.512053 -1.4905 0
M  V30 5099 C 484.755 0.84224 -1.35567 0
M  V30 5100 C 484.955 1.97878 -0.380319 0
M  V30 5101 O 484.011 2.51769 0.19201 0
M  V30 5102 C 485.324 1.19286 -2.76028 0
M  V30 5103 C 486.872 1.30171 -2.84648 0
M  V30 5104 C 487.347 1.68568 -4.25851 0
M  V30 5105 N 488.838 1.75638 -4.28609 0
M  V30 5106 C 489.573 2.06769 -5.34821 0
M  V30 5107 N 489.069 2.36201 -6.51292 0
M  V30 5108 N 490.862 2.07927 -5.22229 0
M  V30 5109 H 483.013 -0.237574 -2.11067 0
M  V30 5110 H 485.276 -0.0436747 -0.946993 0
M  V30 5111 H 484.982 0.431199 -3.49047 0
M  V30 5112 H 484.856 2.13889 -3.10695 0
M  V30 5113 H 487.243 2.05411 -2.11873 0
M  V30 5114 H 487.324 0.336457 -2.53578 0
M  V30 5115 H 486.968 0.938824 -4.99148 0
M  V30 5116 H 486.898 2.66174 -4.54377 0
M  V30 5117 H 489.389 1.55097 -3.44606 0
M  V30 5118 H 489.702 2.59112 -7.28066 0
M  V30 5119 H 488.047 2.33681 -6.54536 0
M  V30 5120 H 491.238 1.84403 -4.30248 0
M  V30 5121 H 491.411 2.31856 -6.05101 0
M  V30 5122 N 484.817 1.37938 0.762283 0
M  V30 5123 C 486.063 1.33866 1.52341 0
M  V30 5124 C 486.396 -0.0738961 1.94059 0
M  V30 5125 O 485.671 -1.03326 1.64785 0
M  V30 5126 C 485.954 2.28644 2.78197 0
M  V30 5127 C 485.807 3.78722 2.42672 0
M  V30 5128 C 487.126 2.21702 3.80179 0
M  V30 5129 H 484.245 0.487593 0.55265 0
M  V30 5130 H 486.887 1.68717 0.873767 0
M  V30 5131 H 485.037 1.99055 3.33631 0
M  V30 5132 H 486.709 4.18948 1.93081 0
M  V30 5133 H 484.952 3.96827 1.75244 0
M  V30 5134 H 485.623 4.40486 3.3268 0
M  V30 5135 H 488.099 2.47805 3.34263 0
M  V30 5136 H 486.975 2.90143 4.65949 0
M  V30 5137 H 487.236 1.21301 4.25133 0
M  V30 5138 N 486.295 -0.989507 1.22664 0
M  V30 5139 C 487.541 -1.7321 1.05481 0
M  V30 5140 C 487.874 -1.89852 -0.408635 0
M  V30 5141 O 487.149 -1.44416 -1.30285 0
M  V30 5142 C 487.432 -3.1357 1.77047 0
M  V30 5143 C 487.285 -3.04555 3.31008 0
M  V30 5144 C 488.604 -4.12812 1.5256 0
M  V30 5145 H 485.723 -0.628697 0.384589 0
M  V30 5146 H 488.365 -1.15258 1.51049 0
M  V30 5147 H 486.515 -3.63046 1.3831 0
M  V30 5148 H 488.187 -2.62674 3.7921 0
M  V30 5149 H 486.43 -2.41278 3.6051 0
M  V30 5150 H 487.101 -4.03894 3.76263 0
M  V30 5151 H 489.577 -3.72106 1.86215 0
M  V30 5152 H 488.453 -5.09132 2.05124 0
M  V30 5153 H 488.714 -4.39711 0.458936 0
M  V30 5154 N 487.773 -1.03688 -1.18687 0
M  V30 5155 C 488.683 -0.634908 -2.25845 0
M  V30 5156 C 489.699 0.337065 -1.70704 0
M  V30 5157 O 490.875 0.192943 -2.00474 0
M  V30 5158 C 487.94 -0.000180054 -3.467 0
M  V30 5159 C 487.001 -1.02067 -4.1699 0
M  V30 5160 C 486.234 -0.41614 -5.32075 0
M  V30 5161 O 486.457 0.778712 -5.65059 0
M  V30 5162 O 485.391 -1.14296 -5.90948 0
M  V30 5163 H 489.217 -1.52757 -2.62486 0
M  V30 5164 H 486.802 -0.807533 -1.25695 0
M  V30 5165 H 488.684 0.353342 -4.19916 0
M  V30 5166 H 487.359 0.866367 -3.11891 0
M  V30 5167 H 486.266 -1.42592 -3.45859 0
M  V30 5168 H 487.599 -1.85786 -4.5579 0
M  V30 5169 N 489.251 1.34841 -0.815825 0
M  V30 5170 C 490.491 2.00321 -0.406297 0
M  V30 5171 C 490.855 1.63293 1.00992 0
M  V30 5172 O 492.056 2.21563 1.52195 0
M  V30 5173 C 490.327 3.52421 -0.594469 0
M  V30 5174 S 491.886 4.37926 -0.276735 0
M  V30 5175 H 488.704 0.694155 -0.153848 0
M  V30 5176 H 491.306 1.64263 -1.06009 0
M  V30 5177 H 490.01 3.76858 -1.625 0
M  V30 5178 H 489.541 3.9333 0.0743157 0
M  V30 5179 H 491.556 4.87743 0.912215 0
M  V30 5180 N 490.729 0.570148 1.46925 0
M  V30 5181 C 491.975 0.0510284 2.02736 0
M  V30 5182 C 492.308 -1.3006 1.44215 0
M  V30 5183 O 491.583 -1.84932 0.602521 0
M  V30 5184 C 491.866 -0.028215 3.60089 0
M  V30 5185 C 491.719 1.35142 4.29018 0
M  V30 5186 C 493.038 -0.735181 4.33916 0
M  V30 5187 H 490.157 0.0200178 0.736728 0
M  V30 5188 H 492.799 0.73493 1.75211 0
M  V30 5189 H 490.949 -0.610648 3.83671 0
M  V30 5190 H 492.621 1.97806 4.16738 0
M  V30 5191 H 490.864 1.9226 3.88868 0
M  V30 5192 H 491.535 1.24857 5.37694 0
M  V30 5193 H 494.011 -0.240519 4.15404 0
M  V30 5194 H 492.887 -0.759622 5.43618 0
M  V30 5195 H 493.148 -1.79397 4.04066 0
M  V30 5196 N 492.207 -1.54576 0.307264 0
M  V30 5197 C 493.14 -2.19946 -0.608195 0
M  V30 5198 C 494.118 -1.17096 -1.12815 0
M  V30 5199 O 495.302 -1.45766 -1.19518 0
M  V30 5200 C 492.429 -2.84826 -1.8328 0
M  V30 5201 C 491.475 -4.01256 -1.44554 0
M  V30 5202 S 492.308 -5.33197 -0.49612 0
M  V30 5203 C 493.464 -6.01563 -1.72838 0
M  V30 5204 H 493.697 -2.97253 -0.0528544 0
M  V30 5205 H 491.23 -1.54129 0.0913837 0
M  V30 5206 H 493.188 -3.22832 -2.53554 0
M  V30 5207 H 491.849 -2.07353 -2.35931 0
M  V30 5208 H 491.042 -4.45457 -2.35762 0
M  V30 5209 H 490.644 -3.6484 -0.822671 0
M  V30 5210 H 492.936 -6.22751 -2.6681 0
M  V30 5211 H 493.879 -6.9552 -1.32882 0
M  V30 5212 H 494.287 -5.31279 -1.90795 0
M  V30 5213 N 493.685 -0.035106 -1.57561 0
M  V30 5214 C 494.615 0.942993 -2.13612 0
M  V30 5215 C 495.596 1.33531 -1.05373 0
M  V30 5216 O 496.781 1.41287 -1.33235 0
M  V30 5217 C 493.911 2.22332 -2.66807 0
M  V30 5218 C 492.865 1.97156 -3.79886 0
M  V30 5219 C 492.191 3.31506 -4.19533 0
M  V30 5220 C 493.491 1.30596 -5.05709 0
M  V30 5221 H 495.185 0.476179 -2.95589 0
M  V30 5222 H 492.731 0.227602 -1.4219 0
M  V30 5223 H 494.684 2.91142 -3.04654 0
M  V30 5224 H 493.408 2.7119 -1.81999 0
M  V30 5225 H 492.067 1.30763 -3.42486 0
M  V30 5226 H 491.715 3.78134 -3.31698 0
M  V30 5227 H 491.415 3.15465 -4.95738 0
M  V30 5228 H 492.939 4.01574 -4.59968 0
M  V30 5229 H 494.353 1.89416 -5.41105 0
M  V30 5230 H 492.75 1.24934 -5.86951 0
M  V30 5231 H 493.82 0.279742 -4.84092 0
M  V30 5232 N 495.163 1.55791 0.238111 0
M  V30 5233 C 496.403 1.79801 0.972163 0
M  V30 5234 C 496.767 0.606027 1.82185 0
M  V30 5235 O 497.968 0.725079 2.58836 0
M  V30 5236 C 496.239 3.08608 1.80266 0
M  V30 5237 S 497.798 3.53872 2.59461 0
M  V30 5238 H 494.616 0.631418 0.326852 0
M  V30 5239 H 497.218 1.94031 0.239212 0
M  V30 5240 H 495.922 3.93419 1.1683 0
M  V30 5241 H 495.453 2.9714 2.57821 0
M  V30 5242 H 497.468 3.15899 3.82651 0
M  V30 5243 N 496.642 -0.504142 1.49319 0
M  V30 5244 C 497.592 -1.60284 1.62151 0
M  V30 5245 C 498.576 -1.53657 0.477315 0
M  V30 5246 O 499.768 -1.6124 0.730108 0
M  V30 5247 C 496.897 -2.98909 1.68844 0
M  V30 5248 C 495.983 -3.10544 2.8883 0
M  V30 5249 N 496.374 -2.92078 4.12946 0
M  V30 5250 C 494.672 -3.4164 2.86702 0
M  V30 5251 C 495.373 -3.07812 4.93585 0
M  V30 5252 N 494.349 -3.36549 4.26891 0
M  V30 5253 H 498.151 -1.44656 2.55835 0
M  V30 5254 H 495.665 -0.710198 1.46048 0
M  V30 5255 H 497.662 -3.77865 1.76134 0
M  V30 5256 H 496.322 -3.15609 0.762943 0
M  V30 5257 H 497.333 -2.68316 4.42975 0
M  V30 5258 H 494.01 -3.64537 2.03517 0
M  V30 5259 H 495.4 -2.98054 6.02174 0
M  V30 5260 N 498.12 -1.38341 -0.754957 0
M  V30 5261 C 499.368 -1.34208 -1.51105 0
M  V30 5262 C 499.689 0.0677634 -1.94882 0
M  V30 5263 O 498.959 1.01517 -1.67544 0
M  V30 5264 H 497.539 -0.493819 -0.560493 0
M  V30 5265 H 500.201 -1.73005 -0.897507 0
M  V30 5266 H 499.297 -1.99203 -2.4026 0
M  V30 5267 N 499.598 0.982988 -1.23187 0
M  V30 5268 C 500.561 2.05649 -1.01198 0
M  V30 5269 C 501.561 1.6078 0.0252464 0
M  V30 5270 O 502.751 1.72878 -0.214243 0
M  V30 5271 C 499.883 3.36744 -0.530656 0
M  V30 5272 H 501.076 2.2659 -1.96461 0
M  V30 5273 H 498.629 1.15602 -1.05195 0
M  V30 5274 H 499.364 3.21492 0.425873 0
M  V30 5275 H 499.149 3.7065 -1.2791 0
M  V30 5276 H 500.639 4.15705 -0.397366 0
M  V30 5277 N 501.076 1.04316 1.18135 0
M  V30 5278 C 502.023 0.636398 2.21853 0
M  V30 5279 C 502.993 -0.357039 1.62217 0
M  V30 5280 O 504.178 -0.250453 1.89149 0
M  V30 5281 C 501.318 0.00812779 3.45099 0
M  V30 5282 C 500.431 1.04933 4.19062 0
M  V30 5283 C 499.566 0.389313 5.29771 0
M  V30 5284 C 498.605 1.41544 5.9551 0
M  V30 5285 N 497.742 0.78021 6.97751 0
M  V30 5286 H 502.582 1.52536 2.56002 0
M  V30 5287 H 500.119 0.76304 1.25762 0
M  V30 5288 H 502.077 -0.373497 4.15525 0
M  V30 5289 H 500.707 -0.844336 3.11562 0
M  V30 5290 H 499.759 1.54888 3.47439 0
M  V30 5291 H 501.071 1.82862 4.64072 0
M  V30 5292 H 500.225 -0.0463805 6.06682 0
M  V30 5293 H 498.964 -0.422038 4.8587 0
M  V30 5294 H 497.969 1.86124 5.17337 0
M  V30 5295 H 499.194 2.22854 6.41493 0
M  V30 5296 H 497.14 -0.0107899 6.55999 0
M  V30 5297 H 497.057 1.49716 7.41027 0
M  V30 5298 H 498.325 0.368996 7.78626 0
M  V30 5299 N 502.554 -1.34406 0.822964 0
M  V30 5300 C 503.803 -1.97542 0.407458 0
M  V30 5301 C 504.116 -1.65973 -1.035 0
M  V30 5302 O 505.322 -2.22598 -1.55442 0
M  V30 5303 C 503.778 -3.53463 0.677623 0
M  V30 5304 C 503.386 -3.93925 2.1337 0
M  V30 5305 C 505.13 -4.23229 0.328284 0
M  V30 5306 C 503.037 -5.42759 2.34876 0
M  V30 5307 H 501.967 -0.739207 0.148623 0
M  V30 5308 H 504.618 -1.53248 1.00932 0
M  V30 5309 H 503 -3.96 0.00558965 0
M  V30 5310 H 504.174 -3.62494 2.8449 0
M  V30 5311 H 502.489 -3.37097 2.44448 0
M  V30 5312 H 505.086 -5.32659 0.466794 0
M  V30 5313 H 505.429 -4.09899 -0.727224 0
M  V30 5314 H 505.962 -3.86169 0.954896 0
M  V30 5315 H 502.701 -5.61075 3.38932 0
M  V30 5316 H 502.221 -5.75704 1.68299 0
M  V30 5317 H 503.9 -6.0944 2.17236 0
M  V30 5318 N 504.032 -0.577932 -1.46621 0
M  V30 5319 C 505.28 -0.061566 -2.02006 0
M  V30 5320 C 505.601 1.30117 -1.4524 0
M  V30 5321 O 504.871 1.85313 -0.63529 0
M  V30 5322 H 503.451 -0.0197692 -0.746738 0
M  V30 5323 H 506.113 -0.752631 -1.79782 0
M  V30 5324 H 505.209 0.0110238 -3.12098 0
M  V30 5325 N 505.51 1.54411 -0.315457 0
M  V30 5326 C 506.757 2.00419 0.289543 0
M  V30 5327 C 507.085 1.20373 1.52776 0
M  V30 5328 O 506.34 0.271769 1.93804 0
M  V30 5329 C 506.639 3.50936 0.676652 0
M  V30 5330 C 506.305 4.48532 -0.461472 0
M  V30 5331 C 504.967 4.74936 -0.773879 0
M  V30 5332 C 507.319 5.06567 -1.22637 0
M  V30 5333 C 504.647 5.56634 -1.85405 0
M  V30 5334 C 506.999 5.89441 -2.29657 0
M  V30 5335 C 505.663 6.1415 -2.61488 0
M  V30 5336 H 504.933 0.733386 0.105951 0
M  V30 5337 H 507.58 1.86434 -0.437554 0
M  V30 5338 H 505.885 3.62606 1.48405 0
M  V30 5339 H 507.582 3.83971 1.15618 0
M  V30 5340 H 504.172 4.28096 -0.207893 0
M  V30 5341 H 508.356 4.86157 -0.998271 0
M  V30 5342 H 503.612 5.74012 -2.10523 0
M  V30 5343 H 507.786 6.33432 -2.89374 0
M  V30 5344 H 505.413 6.77245 -3.45317 0
M  V30 5345 N 506.988 0.0434614 1.5754 0
M  V30 5346 C 508.235 -0.632035 1.92384 0
M  V30 5347 C 508.563 -1.71304 0.921157 0
M  V30 5348 O 507.818 -1.95583 -0.067744 0
M  V30 5349 C 508.117 -1.2738 3.3393 0
M  V30 5350 C 507.783 -0.321757 4.49751 0
M  V30 5351 C 506.445 -0.0597611 4.81163 0
M  V30 5352 C 508.797 0.331158 5.20147 0
M  V30 5353 C 506.125 0.862715 5.80322 0
M  V30 5354 C 508.477 1.24178 6.20292 0
M  V30 5355 C 507.141 1.51252 6.50138 0
M  V30 5356 H 506.411 -0.231278 0.703983 0
M  V30 5357 H 509.058 0.108294 1.91194 0
M  V30 5358 H 507.363 -2.08921 3.3145 0
M  V30 5359 H 509.06 -1.80326 3.58167 0
M  V30 5360 H 505.65 -0.53614 4.25233 0
M  V30 5361 H 509.834 0.141826 4.96097 0
M  V30 5362 H 505.09 1.08003 6.01785 0
M  V30 5363 H 509.264 1.75381 6.73954 0
M  V30 5364 H 506.891 2.22897 7.26788 0
M  V30 5365 N 508.466 -1.55915 -0.229846 0
M  V30 5366 C 509.398 -1.88209 -1.30805 0
M  V30 5367 C 510.411 -0.769672 -1.43457 0
M  V30 5368 O 511.6 -1.04792 -1.44502 0
M  V30 5369 C 508.7 -2.06829 -2.68468 0
M  V30 5370 C 507.873 -3.37798 -2.77869 0
M  V30 5371 C 506.932 -3.45952 -3.96489 0
M  V30 5372 O 505.958 -4.19043 -3.85216 0
M  V30 5373 N 507.16 -2.76488 -5.10426 0
M  V30 5374 H 509.925 -2.81286 -1.03431 0
M  V30 5375 H 507.486 -1.5636 -0.41991 0
M  V30 5376 H 509.478 -2.09608 -3.46189 0
M  V30 5377 H 508.048 -1.20416 -2.88477 0
M  V30 5378 H 507.268 -3.4719 -1.86689 0
M  V30 5379 H 508.556 -4.24091 -2.81113 0
M  V30 5380 H 507.954 -2.16868 -5.2248 0
M  V30 5381 H 506.511 -2.84938 -5.8622 0
M  V30 5382 N 509.944 0.496216 -1.49584 0
M  V30 5383 C 511.192 1.24756 -1.58998 0
M  V30 5384 C 511.513 1.92968 -0.280775 0
M  V30 5385 O 510.783 1.82959 0.700198 0
M  V30 5386 H 509.363 0.463471 -0.585836 0
M  V30 5387 H 512.025 0.574678 -1.86235 0
M  V30 5388 H 511.121 2.00895 -2.38847 0
M  V30 5389 N 511.423 1.38739 0.74761 0
M  V30 5390 C 512.7 1.25791 1.49786 0
M  V30 5391 C 513.08 -0.138075 2.10648 0
M  V30 5392 O 512.428 -1.14815 1.9756 0
M  V30 5393 C 512.638 2.37265 2.55942 0
M  V30 5394 C 513.986 2.75978 3.22679 0
M  V30 5395 O 515.01 2.36621 2.6625 0
M  V30 5396 O 513.869 3.43867 4.24756 0
M  V30 5397 H 510.963 0.492251 0.664543 0
M  V30 5398 H 513.509 1.50582 0.782511 0
M  V30 5399 H 512.281 3.30644 2.0926 0
M  V30 5400 H 511.904 2.14071 3.35051 0
M  V30 5401 N 512.901 -0.976442 1.23707 0
M  V30 5402 C 514.15 -1.71254 1.06559 0
M  V30 5403 C 514.463 -1.91528 -0.397024 0
M  V30 5404 O 515.669 -2.62625 -0.688518 0
M  V30 5405 C 514.125 -3.08207 1.8584 0
M  V30 5406 C 513.733 -2.95806 3.36456 0
M  V30 5407 C 515.477 -3.85749 1.77194 0
M  V30 5408 C 513.384 -4.28015 4.08114 0
M  V30 5409 H 512.314 -0.642171 0.395136 0
M  V30 5410 H 514.965 -1.08877 1.4771 0
M  V30 5411 H 513.347 -3.71363 1.37498 0
M  V30 5412 H 514.521 -2.41716 3.92314 0
M  V30 5413 H 512.836 -2.31736 3.45959 0
M  V30 5414 H 515.433 -4.83633 2.28041 0
M  V30 5415 H 515.776 -4.09752 0.735477 0
M  V30 5416 H 516.309 -3.29303 2.23169 0
M  V30 5417 H 513.048 -4.09208 5.12083 0
M  V30 5418 H 512.568 -4.81955 3.57043 0
M  V30 5419 H 514.247 -4.96681 4.14629 0
M  V30 5420 N 514.379 -1.04941 -1.1758 0
M  V30 5421 C 515.795 -0.770282 -1.39781 0
M  V30 5422 C 515.995 0.636417 -1.91186 0
M  V30 5423 O 515.051 1.39923 -2.10185 0
M  V30 5424 C 516.364 -1.82376 -2.3908 0
M  V30 5425 C 517.912 -1.84569 -2.52791 0
M  V30 5426 C 518.387 -2.88933 -3.55361 0
M  V30 5427 N 519.878 -2.8788 -3.62877 0
M  V30 5428 C 520.613 -3.65282 -4.41992 0
M  V30 5429 N 520.109 -4.52461 -5.24643 0
M  V30 5430 N 521.902 -3.53732 -4.36841 0
M  V30 5431 H 514.053 -1.95705 -0.825438 0
M  V30 5432 H 516.316 -0.847284 -0.425222 0
M  V30 5433 H 516.022 -2.83323 -2.08376 0
M  V30 5434 H 515.896 -1.66327 -3.38549 0
M  V30 5435 H 518.283 -0.842879 -2.82807 0
M  V30 5436 H 518.364 -2.04696 -1.53406 0
M  V30 5437 H 518.008 -3.89398 -3.26085 0
M  V30 5438 H 517.938 -2.66059 -4.54445 0
M  V30 5439 H 520.429 -2.24666 -3.03864 0
M  V30 5440 H 520.742 -5.08211 -5.82187 0
M  V30 5441 H 519.087 -4.56524 -5.24033 0
M  V30 5442 H 522.278 -2.85021 -3.71323 0
M  V30 5443 H 522.451 -4.14302 -4.98255 0
M  V30 5444 N 515.857 1.33968 -0.830081 0
M  V30 5445 C 516.787 2.31911 -0.271911 0
M  V30 5446 C 517.768 1.58571 0.61556 0
M  V30 5447 O 518.953 1.86514 0.540946 0
M  V30 5448 C 516.083 3.42737 0.561146 0
M  V30 5449 C 515.037 4.27383 -0.229789 0
M  V30 5450 C 514.363 5.29742 0.726463 0
M  V30 5451 C 515.663 5.02 -1.44197 0
M  V30 5452 H 517.357 2.78844 -1.09025 0
M  V30 5453 H 514.903 1.34061 -0.52571 0
M  V30 5454 H 516.856 4.10276 0.961867 0
M  V30 5455 H 515.58 2.94471 1.41261 0
M  V30 5456 H 514.239 3.61456 -0.611964 0
M  V30 5457 H 513.887 4.77736 1.57408 0
M  V30 5458 H 513.587 5.87255 0.20142 0
M  V30 5459 H 515.111 6.00149 1.12489 0
M  V30 5460 H 516.525 5.62355 -1.11488 0
M  V30 5461 H 514.922 5.69122 -1.90317 0
M  V30 5462 H 515.992 4.31281 -2.2164 0
M  V30 5463 N 517.335 0.585699 1.46312 0
M  V30 5464 C 518.265 -0.133556 2.33118 0
M  V30 5465 C 519.246 -0.880707 1.45525 0
M  V30 5466 O 520.431 -0.855579 1.74337 0
M  V30 5467 C 517.561 -1.14585 3.27853 0
M  V30 5468 C 516.515 -0.513341 4.2491 0
M  V30 5469 C 515.841 -1.63231 5.09175 0
M  V30 5470 C 517.141 0.551413 5.19381 0
M  V30 5471 H 518.835 0.59121 2.93505 0
M  V30 5472 H 516.381 0.285761 1.41136 0
M  V30 5473 H 518.334 -1.65741 3.87438 0
M  V30 5474 H 517.058 -1.90093 2.65579 0
M  V30 5475 H 515.717 -0.0228349 3.66593 0
M  V30 5476 H 515.365 -2.37713 4.43285 0
M  V30 5477 H 515.065 -1.21473 5.74907 0
M  V30 5478 H 516.589 -2.14658 5.71624 0
M  V30 5479 H 518.003 0.124804 5.73164 0
M  V30 5480 H 516.4 0.889486 5.93471 0
M  V30 5481 H 517.47 1.43655 4.63132 0
M  V30 5482 N 518.813 -1.54241 0.323641 0
M  V30 5483 C 519.746 -2.20579 -0.584833 0
M  V30 5484 C 520.724 -1.18286 -1.11567 0
M  V30 5485 O 521.908 -1.47025 -1.17966 0
M  V30 5486 C 519.035 -2.86754 -1.80249 0
M  V30 5487 C 518.081 -4.02767 -1.4029 0
M  V30 5488 S 518.914 -5.33693 -0.439539 0
M  V30 5489 C 520.07 -6.03362 -1.66448 0
M  V30 5490 H 520.303 -2.97292 -0.0213238 0
M  V30 5491 H 517.836 -1.54024 0.107726 0
M  V30 5492 H 519.794 -3.25503 -2.50116 0
M  V30 5493 H 518.455 -2.09844 -2.33719 0
M  V30 5494 H 517.648 -4.47933 -2.31024 0
M  V30 5495 H 517.25 -3.65692 -0.783928 0
M  V30 5496 H 519.542 -6.25546 -2.6019 0
M  V30 5497 H 520.485 -6.9689 -1.25498 0
M  V30 5498 H 520.893 -5.33273 -1.85149 0
M  V30 5499 N 520.291 -0.0518155 -1.57515 0
M  V30 5500 C 521.568 0.661727 -1.84067 0
M  V30 5501 C 521.948 1.88999 -0.940351 0
M  V30 5502 O 521.296 2.285 -0.00155404 0
M  V30 5503 C 521.506 1.01841 -3.3381 0
M  V30 5504 C 522.854 1.40043 -4.00841 0
M  V30 5505 O 523.878 1.11073 -3.38439 0
M  V30 5506 O 522.737 1.94111 -5.10865 0
M  V30 5507 H 519.831 0.326702 -0.759733 0
M  V30 5508 H 522.377 -0.0812277 -1.69505 0
M  V30 5509 H 521.149 0.145202 -3.91031 0
M  V30 5510 H 520.772 1.81879 -3.53562 0
M  V30 5511 N 521.769 1.56035 0.221574 0
M  V30 5512 C 523.046 1.69837 0.970301 0
M  V30 5513 C 523.426 0.599065 2.02421 0
M  V30 5514 O 522.774 -0.393929 2.25079 0
M  V30 5515 C 522.984 3.11148 1.58076 0
M  V30 5516 C 524.332 3.70555 2.07302 0
M  V30 5517 O 525.356 3.14109 1.6797 0
M  V30 5518 O 524.215 4.69562 2.79596 0
M  V30 5519 H 521.309 0.691727 0.453257 0
M  V30 5520 H 523.855 1.68353 0.213358 0
M  V30 5521 H 522.627 3.82617 0.819759 0
M  V30 5522 H 522.25 3.16749 2.40324 0
M  V30 5523 N 523.247 -0.488276 1.49845 0
M  V30 5524 C 524.177 -1.59675 1.70371 0
M  V30 5525 C 525.158 -1.60878 0.552473 0
M  V30 5526 O 526.343 -1.77417 0.78973 0
M  V30 5527 C 523.473 -2.98098 1.782 0
M  V30 5528 C 522.427 -3.11761 2.93239 0
M  V30 5529 C 521.753 -4.51661 2.86193 0
M  V30 5530 C 523.053 -2.90589 4.33999 0
M  V30 5531 H 524.747 -1.42752 2.63177 0
M  V30 5532 H 522.293 -0.685317 1.26647 0
M  V30 5533 H 524.246 -3.75555 1.91144 0
M  V30 5534 H 522.97 -3.16138 0.820018 0
M  V30 5535 H 521.629 -2.36732 2.79917 0
M  V30 5536 H 521.277 -4.66595 1.87877 0
M  V30 5537 H 520.977 -4.61742 3.63412 0
M  V30 5538 H 522.501 -5.31162 3.01163 0
M  V30 5539 H 523.915 -3.57807 4.47936 0
M  V30 5540 H 522.312 -3.1213 5.12538 0
M  V30 5541 H 523.382 -1.86595 4.4756 0
M  V30 5542 N 524.725 -1.39134 -0.740242 0
M  V30 5543 C 525.672 -1.37434 -1.8542 0
M  V30 5544 C 526.642 -0.234822 -1.64432 0
M  V30 5545 O 527.827 -0.429125 -1.85912 0
M  V30 5546 C 524.967 -1.21844 -3.22875 0
M  V30 5547 C 524.08 -2.45296 -3.55603 0
M  V30 5548 C 523.215 -2.22334 -4.82432 0
M  V30 5549 C 522.254 -3.41488 -5.07988 0
M  V30 5550 N 521.391 -3.17877 -6.26018 0
M  V30 5551 H 526.231 -2.3266 -1.86207 0
M  V30 5552 H 523.768 -1.15578 -0.909946 0
M  V30 5553 H 525.726 -1.10818 -4.02213 0
M  V30 5554 H 524.356 -0.3025 -3.21379 0
M  V30 5555 H 523.408 -2.66945 -2.71006 0
M  V30 5556 H 524.72 -3.34063 -3.7041 0
M  V30 5557 H 523.874 -2.0852 -5.69741 0
M  V30 5558 H 522.613 -1.30954 -4.6979 0
M  V30 5559 H 521.618 -3.55807 -4.19144 0
M  V30 5560 H 522.843 -4.33763 -5.22519 0
M  V30 5561 H 520.789 -2.29156 -6.14673 0
M  V30 5562 H 520.706 -4.00198 -6.41387 0
M  V30 5563 H 521.974 -3.07746 -7.16179 0
M  V30 5564 N 526.204 0.969867 -1.24223 0
M  V30 5565 C 527.45 1.7151 -1.08223 0
M  V30 5566 C 527.783 1.90478 0.37838 0
M  V30 5567 O 527.058 1.4647 1.27971 0
M  V30 5568 C 527.341 3.10714 -1.82013 0
M  V30 5569 C 527.194 2.9925 -3.35811 0
M  V30 5570 C 528.513 4.10332 -1.59108 0
M  V30 5571 H 525.632 0.622499 -0.394543 0
M  V30 5572 H 528.274 1.1284 -1.52863 0
M  V30 5573 H 526.424 3.608 -1.44068 0
M  V30 5574 H 528.096 2.56608 -3.83341 0
M  V30 5575 H 526.339 2.35512 -3.64303 0
M  V30 5576 H 527.01 3.97857 -3.82641 0
M  V30 5577 H 529.486 3.69097 -1.92111 0
M  V30 5578 H 528.362 5.05804 -2.13198 0
M  V30 5579 H 528.623 4.38926 -0.528832 0
M  V30 5580 N 527.682 1.05563 1.17022 0
M  V30 5581 C 528.612 0.681026 2.23348 0
M  V30 5582 C 529.593 -0.322983 1.67005 0
M  V30 5583 O 530.778 -0.199746 1.9317 0
M  V30 5584 C 527.908 0.0589053 3.4725 0
M  V30 5585 C 526.862 0.988082 4.16438 0
M  V30 5586 C 526.188 0.229646 5.34207 0
M  V30 5587 C 527.488 2.31388 4.68249 0
M  V30 5588 H 529.182 1.56993 2.54938 0
M  V30 5589 H 526.728 0.756302 1.2254 0
M  V30 5590 H 528.681 -0.214982 4.20851 0
M  V30 5591 H 527.405 -0.864968 3.14938 0
M  V30 5592 H 526.064 1.24659 3.44754 0
M  V30 5593 H 525.712 -0.697111 4.98146 0
M  V30 5594 H 525.412 0.848815 5.81437 0
M  V30 5595 H 526.936 -0.0368694 6.10589 0
M  V30 5596 H 528.35 2.09964 5.33468 0
M  V30 5597 H 526.747 2.88736 5.26072 0
M  V30 5598 H 527.817 2.94982 3.84855 0
M  V30 5599 N 529.16 -1.33526 0.837174 0
M  V30 5600 C 530.092 -2.28077 0.226579 0
M  V30 5601 C 531.105 -1.51666 -0.591717 0
M  V30 5602 O 532.294 -1.73511 -0.419064 0
M  V30 5603 C 529.394 -3.31597 -0.69978 0
M  V30 5604 C 528.567 -4.37329 0.0788067 0
M  V30 5605 C 527.626 -5.20526 -0.770637 0
M  V30 5606 O 526.652 -5.68811 -0.210453 0
M  V30 5607 N 527.854 -5.41639 -2.08825 0
M  V30 5608 H 530.619 -2.81115 1.03897 0
M  V30 5609 H 528.18 -1.46201 0.695476 0
M  V30 5610 H 530.172 -3.84158 -1.27298 0
M  V30 5611 H 528.742 -2.78848 -1.41288 0
M  V30 5612 H 527.962 -3.8529 0.833381 0
M  V30 5613 H 529.25 -5.05079 0.614238 0
M  V30 5614 H 528.648 -5.04108 -2.56693 0
M  V30 5615 H 527.205 -5.97263 -2.60998 0
M  V30 5616 N 530.638 -0.59345 -1.46 0
M  V30 5617 C 532.049 -0.169801 -1.85926 0
M  V30 5618 C 532.4 1.26984 -1.49565 0
M  V30 5619 O 531.525 1.96076 -0.915602 0
M  V30 5620 C 532.12 -0.301385 -3.37457 0
M  V30 5621 C 530.679 0.0674684 -3.7634 0
M  V30 5622 C 529.826 -0.632383 -2.69993 0
M  V30 5623 H 532.777 -0.801014 -1.37002 0
M  V30 5624 H 532.798 0.470331 -3.77582 0
M  V30 5625 H 532.31 -1.34927 -3.63891 0
M  V30 5626 H 530.411 1.11507 -3.55523 0
M  V30 5627 H 530.524 -0.316332 -4.78055 0
M  V30 5628 H 528.888 -0.0714961 -2.546 0
M  V30 5629 H 529.671 -1.68212 -2.99265 0
M  V30 5630 N 532.116 1.54067 -0.331816 0
M  V30 5631 C 533.344 2.05131 0.269996 0
M  V30 5632 C 533.759 1.20749 1.45138 0
M  V30 5633 O 533.116 0.240069 1.80914 0
M  V30 5634 C 533.167 3.54728 0.696456 0
M  V30 5635 O 532.888 4.35906 -0.43794 0
M  V30 5636 C 534.389 4.21916 1.36021 0
M  V30 5637 H 531.609 0.668807 0.0542042 0
M  V30 5638 H 534.153 1.98777 -0.4804 0
M  V30 5639 H 532.308 3.61342 1.39681 0
M  V30 5640 H 532.722 5.24404 -0.100334 0
M  V30 5641 H 534.196 5.28015 1.60947 0
M  V30 5642 H 534.673 3.73538 2.31011 0
M  V30 5643 H 535.279 4.19463 0.702212 0
M  V30 5644 N 533.594 0.0601682 1.57485 0
M  V30 5645 C 534.84 -0.612501 1.93329 0
M  V30 5646 C 535.173 -1.6996 0.939526 0
M  V30 5647 O 534.448 -1.94472 -0.0330957 0
M  V30 5648 C 534.731 -1.20025 3.39508 0
M  V30 5649 C 534.584 -0.12059 4.49638 0
M  V30 5650 C 535.903 -2.10923 3.86264 0
M  V30 5651 H 533.022 -0.221185 0.703027 0
M  V30 5652 H 535.664 0.123768 1.89596 0
M  V30 5653 H 533.814 -1.82774 3.42821 0
M  V30 5654 H 535.486 0.51185 4.58452 0
M  V30 5655 H 533.729 0.550251 4.30296 0
M  V30 5656 H 534.4 -0.572019 5.49028 0
M  V30 5657 H 536.876 -1.58124 3.84884 0
M  V30 5658 H 535.752 -2.48987 4.8918 0
M  V30 5659 H 536.013 -3.01292 3.23536 0
M  V30 5660 N 535.072 -1.5615 -0.213296 0
M  V30 5661 C 536.319 -1.79546 -0.936462 0
M  V30 5662 C 536.647 -0.630337 -1.84003 0
M  V30 5663 O 535.902 0.384883 -1.91878 0
M  V30 5664 C 536.201 -3.08772 -1.79985 0
M  V30 5665 C 535.867 -4.38532 -1.04882 0
M  V30 5666 C 534.529 -4.73787 -0.841393 0
M  V30 5667 C 536.881 -5.18609 -0.51907 0
M  V30 5668 C 534.209 -5.86627 -0.0924403 0
M  V30 5669 C 536.561 -6.32229 0.216581 0
M  V30 5670 C 535.225 -6.6608 0.435191 0
M  V30 5671 H 534.495 -0.657004 -0.342676 0
M  V30 5672 H 537.142 -1.9041 -0.204051 0
M  V30 5673 H 535.447 -2.93065 -2.60038 0
M  V30 5674 H 537.144 -3.24077 -2.36168 0
M  V30 5675 H 533.734 -4.10855 -1.22048 0
M  V30 5676 H 537.918 -4.91801 -0.666775 0
M  V30 5677 H 533.174 -6.11338 0.087081 0
M  V30 5678 H 537.348 -6.93503 0.634538 0
M  V30 5679 H 534.975 -7.5336 1.01746 0
M  V30 5680 N 536.55 0.480323 -1.50102 0
M  V30 5681 C 537.961 1.06142 -1.53593 0
M  V30 5682 C 538.312 1.93335 -0.334055 0
M  V30 5683 O 537.437 2.09188 0.55403 0
M  V30 5684 C 538.032 1.9317 -2.78336 0
M  V30 5685 C 536.591 2.46405 -2.84538 0
M  V30 5686 C 535.738 1.24521 -2.4777 0
M  V30 5687 H 538.689 0.26333 -1.565 0
M  V30 5688 H 538.71 2.78123 -2.59669 0
M  V30 5689 H 538.222 1.29683 -3.65792 0
M  V30 5690 H 536.323 3.13472 -2.01411 0
M  V30 5691 H 536.436 2.82143 -3.87211 0
M  V30 5692 H 534.8 1.57706 -2.00003 0
M  V30 5693 H 535.583 0.627102 -3.37524 0
M  V30 5694 N 538.028 1.39524 0.732853 0
M  V30 5695 C 539.274 1.37068 1.49467 0
M  V30 5696 C 539.607 -0.0327166 1.94172 0
M  V30 5697 O 538.882 -0.998071 1.66939 0
M  V30 5698 C 539.165 2.34494 2.73285 0
M  V30 5699 C 539.018 3.83784 2.34585 0
M  V30 5700 C 540.337 2.29717 3.75391 0
M  V30 5701 H 537.456 0.499206 0.542183 0
M  V30 5702 H 540.098 1.70532 0.837783 0
M  V30 5703 H 538.248 2.06087 3.29333 0
M  V30 5704 H 539.92 4.22949 1.84151 0
M  V30 5705 H 538.163 4.00455 1.66787 0
M  V30 5706 H 538.834 4.47444 3.23262 0
M  V30 5707 H 541.31 2.54839 3.28932 0
M  V30 5708 H 540.186 2.99962 4.59689 0
M  V30 5709 H 540.447 1.30291 4.22465 0
M  V30 5710 N 539.506 -0.963266 1.24736 0
M  V30 5711 C 540.752 -1.70933 1.09131 0
M  V30 5712 C 541.085 -1.90676 -0.368273 0
M  V30 5713 O 540.36 -1.47147 -1.27193 0
M  V30 5714 C 540.643 -3.09744 1.83658 0
M  V30 5715 C 540.496 -2.97465 3.37394 0
M  V30 5716 C 541.815 -4.09483 1.61282 0
M  V30 5717 H 538.934 -0.620398 0.397838 0
M  V30 5718 H 541.576 -1.12028 1.53459 0
M  V30 5719 H 539.726 -3.60031 1.4598 0
M  V30 5720 H 541.398 -2.54571 3.84696 0
M  V30 5721 H 539.641 -2.33576 3.65547 0
M  V30 5722 H 540.312 -3.95822 3.84745 0
M  V30 5723 H 542.788 -3.68073 1.94066 0
M  V30 5724 H 541.664 -5.04666 2.15878 0
M  V30 5725 H 541.925 -4.38639 0.552102 0
M  V30 5726 N 540.985 -1.06182 -1.16461 0
M  V30 5727 C 542.396 -0.802426 -1.68576 0
M  V30 5728 C 542.747 0.67412 -1.84255 0
M  V30 5729 O 541.872 1.52303 -1.5373 0
M  V30 5730 C 542.467 -1.45002 -3.06202 0
M  V30 5731 C 541.026 -1.23843 -3.55443 0
M  V30 5732 C 540.173 -1.52724 -2.31454 0
M  V30 5733 H 543.124 -1.22545 -1.00839 0
M  V30 5734 H 543.145 -0.864731 -3.70544 0
M  V30 5735 H 542.657 -2.52466 -2.94759 0
M  V30 5736 H 540.758 -0.183487 -3.72148 0
M  V30 5737 H 540.871 -1.95036 -4.37604 0
M  V30 5738 H 539.235 -0.947726 -2.36411 0
M  V30 5739 H 540.018 -2.61343 -2.22609 0
M  V30 5740 N 542.463 1.3308 -0.844243 0
M  V30 5741 C 543.879 1.50447 -0.532729 0
M  V30 5742 C 544.079 1.78292 0.938837 0
M  V30 5743 O 543.135 1.84635 1.72239 0
M  V30 5744 C 544.448 2.65555 -1.41072 0
M  V30 5745 C 545.996 2.7944 -1.41005 0
M  V30 5746 C 546.471 3.97616 -2.27301 0
M  V30 5747 N 547.962 4.0486 -2.2504 0
M  V30 5748 C 548.697 4.95508 -2.88547 0
M  V30 5749 N 548.193 5.91236 -3.61126 0
M  V30 5750 N 549.986 4.88548 -2.77989 0
M  V30 5751 H 542.137 1.13269 -1.79677 0
M  V30 5752 H 544.4 0.55734 -0.766861 0
M  V30 5753 H 544.106 2.51675 -2.45668 0
M  V30 5754 H 543.98 3.61089 -1.09061 0
M  V30 5755 H 546.367 2.92749 -0.371784 0
M  V30 5756 H 546.448 1.8465 -1.77026 0
M  V30 5757 H 546.092 3.85066 -3.3119 0
M  V30 5758 H 546.022 4.91661 -1.88619 0
M  V30 5759 H 548.513 3.36353 -1.72264 0
M  V30 5760 H 548.826 6.57079 -4.06776 0
M  V30 5761 H 547.171 5.91295 -3.65234 0
M  V30 5762 H 550.362 4.12729 -2.20846 0
M  V30 5763 H 550.535 5.58994 -3.27765 0
M  V30 5764 N 543.941 0.601185 1.45683 0
M  V30 5765 C 544.871 -0.108824 2.33246 0
M  V30 5766 C 545.852 -0.865223 1.46451 0
M  V30 5767 O 547.037 -0.83704 1.75235 0
M  V30 5768 C 544.167 -1.11101 3.2905 0
M  V30 5769 C 543.121 -0.468244 4.25431 0
M  V30 5770 C 542.447 -1.57822 5.10878 0
M  V30 5771 C 543.747 0.606469 5.18767 0
M  V30 5772 H 545.441 0.622306 2.92861 0
M  V30 5773 H 542.987 0.300714 1.40825 0
M  V30 5774 H 544.94 -1.61622 3.89174 0
M  V30 5775 H 543.664 -1.87265 2.67581 0
M  V30 5776 H 542.323 0.0160484 3.66596 0
M  V30 5777 H 541.971 -2.32998 4.45781 0
M  V30 5778 H 541.671 -1.15369 5.76163 0
M  V30 5779 H 543.195 -2.08583 5.73869 0
M  V30 5780 H 544.609 0.185589 5.73 0
M  V30 5781 H 543.006 0.952381 5.92494 0
M  V30 5782 H 544.076 1.48559 4.61582 0
M  V30 5783 N 545.419 -1.53889 0.339982 0
M  V30 5784 C 546.349 -2.27843 -0.510856 0
M  V30 5785 C 547.33 -1.29267 -1.10563 0
M  V30 5786 O 548.515 -1.58104 -1.12768 0
M  V30 5787 C 545.645 -3.04857 -1.66372 0
M  V30 5788 C 544.599 -4.10907 -1.19746 0
M  V30 5789 C 543.925 -4.75855 -2.43857 0
M  V30 5790 C 545.225 -5.21435 -0.300501 0
M  V30 5791 H 546.919 -2.99212 0.106067 0
M  V30 5792 H 544.465 -1.43904 0.0524533 0
M  V30 5793 H 546.418 -3.5533 -2.26537 0
M  V30 5794 H 545.142 -2.31133 -2.30749 0
M  V30 5795 H 543.801 -3.61342 -0.618654 0
M  V30 5796 H 543.449 -3.9873 -3.06633 0
M  V30 5797 H 543.149 -5.47502 -2.13343 0
M  V30 5798 H 544.673 -5.2911 -3.04754 0
M  V30 5799 H 546.087 -5.67565 -0.80889 0
M  V30 5800 H 544.484 -6.00036 -0.0874076 0
M  V30 5801 H 545.554 -4.80328 0.664321 0
M  V30 5802 N 546.897 -0.0685191 -1.57451 0
M  V30 5803 C 547.845 0.917577 -2.13736 0
M  V30 5804 C 548.839 1.31049 -1.07344 0
M  V30 5805 O 550.045 1.28811 -1.25728 0
M  V30 5806 H 546.42 0.313835 -0.683382 0
M  V30 5807 H 548.391 0.417903 -2.95459 0
M  V30 5808 C 547.14 2.17686 -2.71123 0
M  V30 5809 H 546.463 1.88336 -3.52661 0
M  V30 5810 H 547.903 2.84803 -3.14107 0
M  V30 5811 C 546.362 2.9332 -1.65726 0
M  V30 5812 O 546.892 3.86901 -1.08031 0
M  V30 5813 N 545.098 2.56367 -1.36837 0
M  V30 5814 H 544.645 1.80341 -1.83943 0
M  V30 5815 H 544.603 3.07276 -0.665501 0
M  V30 5816 N 548.375 1.56261 0.205012 0
M  V30 5817 C 549.791 1.49623 0.555433 0
M  V30 5818 C 549.991 0.766719 1.86343 0
M  V30 5819 O 549.047 0.313158 2.50551 0
M  V30 5820 C 550.36 2.94253 0.619347 0
M  V30 5821 C 551.908 3.04868 0.708855 0
M  V30 5822 C 552.383 4.50888 0.803969 0
M  V30 5823 N 553.874 4.54999 0.867758 0
M  V30 5824 C 554.609 5.65284 0.96135 0
M  V30 5825 N 554.105 6.85282 1.01786 0
M  V30 5826 N 555.898 5.53174 0.997771 0
M  V30 5827 H 548.049 2.0211 -0.653094 0
M  V30 5828 H 550.312 0.919333 -0.231366 0
M  V30 5829 H 550.018 3.50643 -0.272458 0
M  V30 5830 H 549.892 3.47063 1.47741 0
M  V30 5831 H 552.279 2.48532 1.5911 0
M  V30 5832 H 552.36 2.55199 -0.175205 0
M  V30 5833 H 552.004 5.07846 -0.0738798 0
M  V30 5834 H 551.934 4.98279 1.70369 0
M  V30 5835 H 554.425 3.68588 0.833735 0
M  V30 5836 H 554.738 7.65081 1.08951 0
M  V30 5837 H 553.083 6.8796 0.986706 0
M  V30 5838 H 556.274 4.5835 0.950392 0
M  V30 5839 H 556.447 6.39151 1.06725 0
M  V30 5840 N 549.853 -0.472356 1.50355 0
M  V30 5841 C 550.786 -1.58923 1.63764 0
M  V30 5842 C 551.764 -1.55173 0.485793 0
M  V30 5843 O 552.948 -1.74815 0.705132 0
M  V30 5844 C 550.075 -2.97497 1.61905 0
M  V30 5845 C 549.121 -3.19405 2.82635 0
M  V30 5846 S 549.954 -2.99441 4.43954 0
M  V30 5847 C 551.11 -4.40359 4.44786 0
M  V30 5848 H 551.343 -1.47309 2.58239 0
M  V30 5849 H 548.876 -0.659601 1.39602 0
M  V30 5850 H 550.834 -3.77389 1.61518 0
M  V30 5851 H 549.495 -3.06502 0.686683 0
M  V30 5852 H 548.688 -4.20636 2.77636 0
M  V30 5853 H 548.29 -2.47283 2.80583 0
M  V30 5854 H 550.582 -5.32969 4.1827 0
M  V30 5855 H 551.525 -4.50403 5.46391 0
M  V30 5856 H 551.933 -4.22378 3.74509 0
M  V30 5857 N 551.331 -1.39911 -0.725443 0
M  V30 5858 C 552.578 -1.37654 -1.48518 0
M  V30 5859 C 552.906 0.0243982 -1.94485 0
M  V30 5860 O 552.161 1.00708 -1.67799 0
M  V30 5861 C 552.46 -2.30368 -2.7325 0
M  V30 5862 C 552.126 -3.77817 -2.461 0
M  V30 5863 C 550.788 -4.17991 -2.38405 0
M  V30 5864 C 553.14 -4.71036 -2.23103 0
M  V30 5865 C 550.468 -5.49433 -2.05768 0
M  V30 5866 C 552.82 -6.02766 -1.9198 0
M  V30 5867 C 551.484 -6.41993 -1.82761 0
M  V30 5868 H 550.754 -0.503713 -0.543465 0
M  V30 5869 H 553.401 -1.7249 -0.831822 0
M  V30 5870 H 551.706 -1.88683 -3.43375 0
M  V30 5871 H 553.403 -2.2591 -3.31309 0
M  V30 5872 H 549.993 -3.45982 -2.52972 0
M  V30 5873 H 554.177 -4.40823 -2.2801 0
M  V30 5874 H 549.433 -5.78738 -1.9716 0
M  V30 5875 H 553.607 -6.74519 -1.73197 0
M  V30 5876 H 551.234 -7.43761 -1.57237 0
M  V30 5877 N 552.809 0.956637 -1.25245 0
M  V30 5878 C 554.086 1.67716 -1.00651 0
M  V30 5879 C 554.466 2.0585 0.467866 0
M  V30 5880 O 553.814 1.77029 1.44475 0
M  V30 5881 C 554.024 2.90093 -1.94028 0
M  V30 5882 C 555.372 3.6209 -2.21756 0
M  V30 5883 O 556.396 3.00171 -1.9177 0
M  V30 5884 O 555.255 4.7358 -2.72735 0
M  V30 5885 H 552.349 0.733731 -0.381533 0
M  V30 5886 H 554.895 1.00974 -1.3639 0
M  V30 5887 H 553.667 2.58689 -2.93591 0
M  V30 5888 H 553.29 3.64566 -1.58674 0
M  V30 5889 N 554.287 1.06798 1.15896 0
M  V30 5890 C 555.703 0.792423 1.38538 0
M  V30 5891 C 555.903 -0.60592 1.92174 0
M  V30 5892 O 554.959 -1.36561 2.12385 0
M  V30 5893 C 556.272 1.86157 2.36149 0
M  V30 5894 C 557.82 1.88567 2.49823 0
M  V30 5895 C 558.295 2.9455 3.5072 0
M  V30 5896 N 559.786 2.93616 3.58251 0
M  V30 5897 C 560.521 3.72267 4.36125 0
M  V30 5898 N 560.017 4.60751 5.17379 0
M  V30 5899 N 561.81 3.60637 4.31158 0
M  V30 5900 H 553.961 1.96993 0.794198 0
M  V30 5901 H 556.224 0.853942 0.411688 0
M  V30 5902 H 555.93 2.86603 2.03843 0
M  V30 5903 H 555.804 1.71692 3.3586 0
M  V30 5904 H 558.191 0.887765 2.8143 0
M  V30 5905 H 558.272 2.0711 1.5013 0
M  V30 5906 H 557.916 3.94537 3.19849 0
M  V30 5907 H 557.846 2.73255 4.50155 0
M  V30 5908 H 560.337 2.29472 3.00252 0
M  V30 5909 H 560.65 5.17408 5.74028 0
M  V30 5910 H 558.995 4.64803 5.16704 0
M  V30 5911 H 562.186 2.90892 3.66742 0
M  V30 5912 H 562.359 4.22176 4.91601 0
M  V30 5913 N 555.766 -1.3263 0.851289 0
M  V30 5914 C 557.015 -1.96633 0.449267 0
M  V30 5915 C 557.328 -1.68131 -0.999562 0
M  V30 5916 O 558.534 -2.25845 -1.50685 0
M  V30 5917 C 556.99 -3.51946 0.752446 0
M  V30 5918 C 556.598 -3.89311 2.21678 0
M  V30 5919 C 558.342 -4.22437 0.417983 0
M  V30 5920 C 556.249 -5.37655 2.46336 0
M  V30 5921 H 555.179 -0.735888 0.164269 0
M  V30 5922 H 557.83 -1.51073 1.0416 0
M  V30 5923 H 556.212 -3.95899 0.0895858 0
M  V30 5924 H 557.386 -3.56378 2.92115 0
M  V30 5925 H 555.701 -3.31836 2.51543 0
M  V30 5926 H 558.298 -5.31549 0.579674 0
M  V30 5927 H 558.641 -4.11349 -0.640115 0
M  V30 5928 H 559.174 -3.84057 1.03659 0
M  V30 5929 H 555.913 -5.5376 3.50757 0
M  V30 5930 H 555.433 -5.72005 1.80473 0
M  V30 5931 H 557.112 -6.04695 2.30115 0
M  V30 5932 N 557.244 -0.608902 -1.45362 0
M  V30 5933 C 558.491 -0.104607 -2.0223 0
M  V30 5934 C 558.819 1.26534 -1.47714 0
M  V30 5935 O 558.074 1.84855 -0.642435 0
M  V30 5936 C 558.373 -0.0167296 -3.57396 0
M  V30 5937 C 558.039 -1.32251 -4.31069 0
M  V30 5938 C 556.701 -1.68019 -4.50914 0
M  V30 5939 C 559.053 -2.18542 -4.73169 0
M  V30 5940 C 556.381 -2.89828 -5.10114 0
M  V30 5941 C 558.733 -3.39602 -5.33717 0
M  V30 5942 C 557.397 -3.7562 -5.51784 0
M  V30 5943 H 556.667 -0.0382785 -0.740011 0
M  V30 5944 H 559.314 -0.790782 -1.7441 0
M  V30 5945 H 557.619 0.752715 -3.84502 0
M  V30 5946 H 559.316 0.389634 -3.99103 0
M  V30 5947 H 555.906 -1.03411 -4.15938 0
M  V30 5948 H 560.09 -1.92208 -4.5757 0
M  V30 5949 H 555.346 -3.17839 -5.22291 0
M  V30 5950 H 559.52 -4.06716 -5.65292 0
M  V30 5951 H 557.147 -4.70093 -5.97425 0
M  V30 5952 N 558.722 1.53707 -0.348139 0
M  V30 5953 C 559.97 2.00591 0.246478 0
M  V30 5954 C 560.291 1.23753 1.50699 0
M  V30 5955 O 559.561 0.345964 1.92821 0
M  V30 5956 H 558.141 0.741053 0.0940679 0
M  V30 5957 H 560.803 1.89139 -0.470354 0
M  V30 5958 H 559.899 3.08297 0.485714 0
M  V30 5959 N 560.2 0.0768682 1.57412 0
M  V30 5960 C 561.132 -0.918248 2.10002 0
M  V30 5961 C 562.145 -1.25808 1.03325 0
M  V30 5962 O 563.334 -1.21438 1.30824 0
M  V30 5963 C 560.434 -2.23263 2.54964 0
M  V30 5964 C 559.607 -2.07088 3.8527 0
M  V30 5965 C 558.666 -3.21876 4.16272 0
M  V30 5966 O 557.692 -2.96643 4.8579 0
M  V30 5967 N 558.894 -4.4712 3.70221 0
M  V30 5968 H 561.659 -0.469209 2.96004 0
M  V30 5969 H 559.22 -0.108725 1.61535 0
M  V30 5970 H 561.212 -2.9897 2.72762 0
M  V30 5971 H 559.782 -2.59649 1.74072 0
M  V30 5972 H 559.002 -1.15818 3.76802 0
M  V30 5973 H 560.29 -1.93537 4.70554 0
M  V30 5974 H 559.688 -4.70506 3.1407 0
M  V30 5975 H 558.245 -5.19837 3.93209 0
M  V30 5976 N 561.678 -1.56367 -0.196722 0
M  V30 5977 C 562.641 -1.93561 -1.22746 0
M  V30 5978 C 563.641 -0.816566 -1.38524 0
M  V30 5979 O 564.831 -1.084 -1.36363 0
M  V30 5980 C 561.963 -2.20823 -2.59712 0
M  V30 5981 H 563.156 -2.85774 -0.909586 0
M  V30 5982 H 560.709 -1.50032 -0.438174 0
M  V30 5983 H 561.444 -1.31243 -2.96557 0
M  V30 5984 H 561.229 -3.02368 -2.49632 0
M  V30 5985 H 562.719 -2.50608 -3.34044 0
M  V30 5986 N 563.156 0.464375 -1.50603 0
M  V30 5987 C 564.104 1.58224 -1.70493 0
M  V30 5988 C 565.098 1.59492 -0.570836 0
M  V30 5989 O 566.304 1.63561 -0.751517 0
M  V30 5990 H 562.679 0.525161 -0.538247 0
M  V30 5991 H 564.65 1.38613 -2.64252 0
M  V30 5992 C 563.399 2.96113 -1.82243 0
M  V30 5993 H 562.722 2.95858 -2.68901 0
M  V30 5994 H 564.162 3.73769 -2.00182 0
M  V30 5995 C 562.621 3.31946 -0.575628 0
M  V30 5996 O 563.151 4.00708 0.282152 0
M  V30 5997 N 561.357 2.87436 -0.427665 0
M  V30 5998 H 560.904 2.31652 -1.12674 0
M  V30 5999 H 560.862 3.11776 0.405379 0
M  V30 6000 N 564.634 1.40294 0.718013 0
M  V30 6001 C 565.862 1.4175 1.50714 0
M  V30 6002 C 566.277 0.0165366 1.88793 0
M  V30 6003 O 565.634 -0.958942 1.55276 0
M  V30 6004 C 565.685 2.30598 2.784 0
M  V30 6005 O 565.406 3.6524 2.41932 0
M  V30 6006 C 566.907 2.4062 3.72313 0
M  V30 6007 H 564.127 0.483565 0.465194 0
M  V30 6008 H 566.671 1.84316 0.885889 0
M  V30 6009 H 564.826 1.91401 3.36815 0
M  V30 6010 H 565.24 4.12402 3.24076 0
M  V30 6011 H 566.714 3.07001 4.58753 0
M  V30 6012 H 567.191 1.4305 4.15251 0
M  V30 6013 H 567.797 2.80359 3.19811 0
M  V30 6014 N 566.112 -0.949982 1.2575 0
M  V30 6015 C 567.34 -1.72972 1.13527 0
M  V30 6016 C 567.755 -1.8623 -0.310453 0
M  V30 6017 O 567.112 -1.36336 -1.2132 0
M  V30 6018 C 567.163 -3.14108 1.78936 0
M  V30 6019 O 566.884 -3.01493 3.17858 0
M  V30 6020 C 568.385 -4.08338 1.72554 0
M  V30 6021 H 565.605 -0.541864 0.395758 0
M  V30 6022 H 568.149 -1.19151 1.66202 0
M  V30 6023 H 566.304 -3.64858 1.30221 0
M  V30 6024 H 566.718 -3.90559 3.50092 0
M  V30 6025 H 568.192 -5.04963 2.22973 0
M  V30 6026 H 568.669 -4.33742 0.690251 0
M  V30 6027 H 569.275 -3.63506 2.2078 0
M  V30 6028 N 567.59 -1.07411 -1.15328 0
M  V30 6029 C 568.52 -0.716472 -2.22236 0
M  V30 6030 C 569.501 0.296373 -1.67498 0
M  V30 6031 O 570.686 0.168989 -1.93463 0
M  V30 6032 C 567.816 -0.114142 -3.47112 0
M  V30 6033 C 566.77 -1.05421 -4.14814 0
M  V30 6034 C 566.096 -0.314604 -5.33774 0
M  V30 6035 C 567.396 -2.38808 -4.64508 0
M  V30 6036 H 569.09 -1.61029 -2.52408 0
M  V30 6037 H 566.636 -0.775702 -1.21321 0
M  V30 6038 H 568.589 0.148001 -4.2114 0
M  V30 6039 H 567.313 0.814755 -3.16274 0
M  V30 6040 H 565.972 -1.30128 -3.42728 0
M  V30 6041 H 565.62 0.617772 -4.99192 0
M  V30 6042 H 565.32 -0.941209 -5.80013 0
M  V30 6043 H 566.844 -0.0602747 -6.1057 0
M  V30 6044 H 568.258 -2.18424 -5.3006 0
M  V30 6045 H 566.655 -2.97069 -5.21412 0
M  V30 6046 H 567.725 -3.01067 -3.80114 0
M  V30 6047 N 569.068 1.32177 -0.85831 0
M  V30 6048 C 570.015 2.28794 -0.303607 0
M  V30 6049 C 570.985 1.55213 0.591453 0
M  V30 6050 O 572.17 1.83418 0.525585 0
M  V30 6051 C 569.31 3.41475 0.49889 0
M  V30 6052 C 568.423 4.2993 -0.422373 0
M  V30 6053 C 567.558 5.29743 0.393111 0
M  V30 6054 C 566.597 6.09842 -0.525317 0
M  V30 6055 N 565.734 7.01643 0.253208 0
M  V30 6056 H 570.574 2.75631 -1.13276 0
M  V30 6057 H 568.111 1.35606 -0.570026 0
M  V30 6058 H 570.069 4.05531 0.979826 0
M  V30 6059 H 568.699 2.95779 1.29284 0
M  V30 6060 H 567.751 3.66422 -1.02171 0
M  V30 6061 H 569.063 4.85899 -1.12709 0
M  V30 6062 H 568.217 5.9942 0.937056 0
M  V30 6063 H 566.956 4.744 1.13117 0
M  V30 6064 H 565.961 5.39066 -1.08112 0
M  V30 6065 H 567.186 6.6727 -1.26205 0
M  V30 6066 H 565.132 6.48725 0.974295 0
M  V30 6067 H 565.049 7.54981 -0.392398 0
M  V30 6068 H 566.317 7.756 0.778761 0
M  V30 6069 N 570.547 0.616602 1.45037 0
M  V30 6070 C 571.963 0.280994 1.57107 0
M  V30 6071 C 572.163 -1.21627 1.60653 0
M  V30 6072 O 571.219 -1.9997 1.54169 0
M  V30 6073 C 572.532 0.960116 2.8496 0
M  V30 6074 C 574.08 0.936884 2.98649 0
M  V30 6075 C 574.555 1.59619 4.29285 0
M  V30 6076 N 576.046 1.5621 4.36065 0
M  V30 6077 C 576.781 2.04131 5.35834 0
M  V30 6078 N 576.277 2.60177 6.4209 0
M  V30 6079 N 578.07 1.94845 5.27249 0
M  V30 6080 H 570.221 1.58867 1.40979 0
M  V30 6081 H 572.484 0.666024 0.674623 0
M  V30 6082 H 572.19 2.01473 2.88273 0
M  V30 6083 H 572.064 0.488921 3.74018 0
M  V30 6084 H 574.451 -0.109209 2.94898 0
M  V30 6085 H 574.532 1.44643 2.10979 0
M  V30 6086 H 574.176 2.64166 4.33796 0
M  V30 6087 H 574.106 1.06159 5.15789 0
M  V30 6088 H 576.597 1.15276 3.59889 0
M  V30 6089 H 576.91 2.94513 7.1448 0
M  V30 6090 H 575.255 2.64221 6.42816 0
M  V30 6091 H 578.446 1.50792 4.43147 0
M  V30 6092 H 578.619 2.32504 6.04852 0
M  V30 6093 N 572.025 -1.5352 0.356285 0
M  V30 6094 C 573.271 -2.02104 -0.229271 0
M  V30 6095 C 573.626 -1.23923 -1.47176 0
M  V30 6096 O 572.919 -0.321957 -1.88876 0
M  V30 6097 C 573.113 -3.52607 -0.583369 0
M  V30 6098 C 572.942 -4.4536 0.623253 0
M  V30 6099 C 571.712 -4.92446 1.13248 0
M  V30 6100 C 573.91 -4.92375 1.48563 0
M  V30 6101 N 571.892 -5.69183 2.3001 0
M  V30 6102 C 573.263 -5.67362 2.50001 0
M  V30 6103 C 575.318 -4.74464 1.50959 0
M  V30 6104 C 574.021 -6.26341 3.5368 0
M  V30 6105 C 576.047 -5.34302 2.53526 0
M  V30 6106 C 575.409 -6.09166 3.53688 0
M  V30 6107 H 571.508 -0.780595 -0.0468602 0
M  V30 6108 H 574.092 -1.88204 0.49873 0
M  V30 6109 H 572.263 -3.66686 -1.28046 0
M  V30 6110 H 573.995 -3.87922 -1.15321 0
M  V30 6111 H 570.75 -4.6842 0.698562 0
M  V30 6112 H 571.174 -6.12216 2.88998 0
M  V30 6113 H 575.816 -4.16117 0.748785 0
M  V30 6114 H 573.534 -6.8379 4.30648 0
M  V30 6115 H 577.12 -5.22342 2.56223 0
M  V30 6116 H 576 -6.54644 4.31753 0
M  V30 6117 N 573.503 -0.0852151 -1.57369 0
M  V30 6118 C 574.433 0.874556 -2.16503 0
M  V30 6119 C 575.414 1.30111 -1.09568 0
M  V30 6120 O 576.599 1.36977 -1.37662 0
M  V30 6121 C 573.729 2.13731 -2.73745 0
M  V30 6122 C 572.683 1.84971 -3.85966 0
M  V30 6123 C 572.009 3.17991 -4.29867 0
M  V30 6124 C 573.309 1.14442 -5.09608 0
M  V30 6125 H 575.003 0.381899 -2.96954 0
M  V30 6126 H 572.549 0.18225 -1.42842 0
M  V30 6127 H 574.502 2.81302 -3.13763 0
M  V30 6128 H 573.226 2.65263 -1.90534 0
M  V30 6129 H 571.885 1.19801 -3.46473 0
M  V30 6130 H 571.533 3.6739 -3.4356 0
M  V30 6131 H 571.233 2.99534 -5.05523 0
M  V30 6132 H 572.757 3.86737 -4.72511 0
M  V30 6133 H 574.171 1.72105 -5.46857 0
M  V30 6134 H 572.568 1.06197 -5.90629 0
M  V30 6135 H 573.638 0.12559 -4.84737 0
M  V30 6136 N 574.981 1.5647 0.188427 0
M  V30 6137 C 575.911 1.98101 1.23606 0
M  V30 6138 C 576.892 0.853961 1.47111 0
M  V30 6139 O 578.077 1.11879 1.58735 0
M  V30 6140 C 575.207 2.32624 2.57882 0
M  V30 6141 C 574.161 3.48129 2.48978 0
M  V30 6142 C 573.487 3.68347 3.87588 0
M  V30 6143 C 574.787 4.82112 2.00911 0
M  V30 6144 H 576.481 2.85864 0.890068 0
M  V30 6145 H 574.027 1.37532 0.426714 0
M  V30 6146 H 575.98 2.60343 3.3136 0
M  V30 6147 H 574.704 1.41751 2.94235 0
M  V30 6148 H 573.363 3.20511 1.77956 0
M  V30 6149 H 573.011 2.74793 4.21305 0
M  V30 6150 H 572.711 4.46055 3.82503 0
M  V30 6151 H 574.235 3.98449 4.62678 0
M  V30 6152 H 575.649 5.08819 2.64151 0
M  V30 6153 H 574.046 5.63337 2.06814 0
M  V30 6154 H 575.116 4.75249 0.96262 0
M  V30 6155 N 576.459 -0.456382 1.50847 0
M  V30 6156 C 577.736 -1.21739 1.53098 0
M  V30 6157 C 578.116 -2.09179 0.284132 0
M  V30 6158 O 577.464 -2.16466 -0.731773 0
M  V30 6159 C 577.674 -2.03573 2.83477 0
M  V30 6160 C 579.022 -2.61264 3.34703 0
M  V30 6161 O 580.046 -2.13802 2.84898 0
M  V30 6162 O 578.905 -3.47779 4.21559 0
M  V30 6163 H 575.999 -0.553219 0.614718 0
M  V30 6164 H 578.545 -0.467003 1.63148 0
M  V30 6165 H 577.317 -1.39232 3.65691 0
M  V30 6166 H 576.94 -2.85716 2.76499 0
M  V30 6167 N 577.937 -1.40673 -0.710563 0
M  V30 6168 C 579.184 -1.39222 -1.47049 0
M  V30 6169 C 579.512 0.0037691 -1.945 0
M  V30 6170 O 578.767 0.989224 -1.68857 0
M  V30 6171 C 579.066 -2.33253 -2.70791 0
M  V30 6172 C 578.732 -3.80406 -2.42079 0
M  V30 6173 C 577.394 -4.20496 -2.33959 0
M  V30 6174 C 579.746 -4.73375 -2.18094 0
M  V30 6175 C 577.074 -5.51584 -1.99929 0
M  V30 6176 C 579.426 -6.04768 -1.85576 0
M  V30 6177 C 578.09 -6.43895 -1.75941 0
M  V30 6178 H 577.36 -0.509449 -0.538092 0
M  V30 6179 H 580.007 -1.73363 -0.81348 0
M  V30 6180 H 578.312 -1.92314 -3.41354 0
M  V30 6181 H 580.009 -2.29412 -3.28894 0
M  V30 6182 H 576.599 -3.48645 -2.49288 0
M  V30 6183 H 580.783 -4.43217 -2.23321 0
M  V30 6184 H 576.039 -5.80797 -1.91011 0
M  V30 6185 H 580.213 -6.76318 -1.66033 0
M  V30 6186 H 577.84 -7.45387 -1.4934 0
M  V30 6187 N 579.415 0.9433 -1.26252 0
M  V30 6188 C 580.378 2.02326 -1.07689 0
M  V30 6189 C 581.378 1.60779 -0.0259174 0
M  V30 6190 O 582.568 1.72108 -0.269134 0
M  V30 6191 C 579.7 3.34886 -0.63752 0
M  V30 6192 H 580.893 2.20225 -2.0357 0
M  V30 6193 H 578.446 1.12197 -1.08819 0
M  V30 6194 H 579.181 3.22684 0.323377 0
M  V30 6195 H 578.966 3.66393 -1.39637 0
M  V30 6196 H 580.456 4.14231 -0.529418 0
M  V30 6197 N 580.893 1.08022 1.14757 0
M  V30 6198 C 582.118 0.82895 1.90114 0
M  V30 6199 C 582.543 -0.612772 1.77839 0
M  V30 6200 O 581.901 -1.42895 1.11583 0
M  V30 6201 C 581.949 1.25062 3.38219 0
M  V30 6202 O 581.053 0.400119 4.10454 0
M  V30 6203 H 580.394 0.301412 0.591648 0
M  V30 6204 H 582.924 1.44062 1.45284 0
M  V30 6205 H 582.934 1.22977 3.89025 0
M  V30 6206 H 581.609 2.30067 3.46471 0
M  V30 6207 H 580.186 0.484052 3.69745 0
M  V30 6208 N 582.371 -1.3172 0.865308 0
M  V30 6209 C 583.318 -2.2863 0.315736 0
M  V30 6210 C 584.288 -1.55524 -0.583213 0
M  V30 6211 O 585.473 -1.83694 -0.51585 0
M  V30 6212 C 582.613 -3.41735 -0.480773 0
M  V30 6213 C 581.726 -4.297 0.445167 0
M  V30 6214 C 580.861 -5.29944 -0.365012 0
M  V30 6215 C 579.9 -6.09554 0.557651 0
M  V30 6216 N 579.037 -7.01768 -0.215994 0
M  V30 6217 H 583.877 -2.75026 1.14736 0
M  V30 6218 H 581.414 -1.35302 0.577209 0
M  V30 6219 H 583.372 -4.06045 -0.958306 0
M  V30 6220 H 582.002 -2.96461 -1.27714 0
M  V30 6221 H 581.054 -3.65875 1.04113 0
M  V30 6222 H 582.366 -4.85295 1.15284 0
M  V30 6223 H 581.52 -5.99908 -0.905255 0
M  V30 6224 H 580.259 -4.74994 -1.106 0
M  V30 6225 H 579.264 -5.38485 1.10969 0
M  V30 6226 H 580.489 -6.66591 1.29742 0
M  V30 6227 H 578.435 -6.49232 -0.939878 0
M  V30 6228 H 578.352 -7.54762 0.432431 0
M  V30 6229 H 579.62 -7.76002 -0.737618 0
M  V30 6230 N 583.85 -0.624285 -1.44708 0
M  V30 6231 C 585.266 -0.289322 -1.56956 0
M  V30 6232 C 585.466 1.20773 -1.61295 0
M  V30 6233 O 584.522 1.9915 -1.55227 0
M  V30 6234 C 585.835 -0.975215 -2.84447 0
M  V30 6235 C 587.383 -0.952709 -2.98148 0
M  V30 6236 C 587.858 -1.61893 -4.28433 0
M  V30 6237 N 589.349 -1.5852 -4.35231 0
M  V30 6238 C 590.084 -2.06969 -5.34744 0
M  V30 6239 N 589.58 -2.63579 -6.40701 0
M  V30 6240 N 591.373 -1.97638 -5.26209 0
M  V30 6241 H 583.524 -1.59612 -1.40135 0
M  V30 6242 H 585.787 -0.669592 -0.671081 0
M  V30 6243 H 585.493 -2.02999 -2.87201 0
M  V30 6244 H 585.367 -0.508749 -3.73753 0
M  V30 6245 H 587.754 0.093568 -2.94952 0
M  V30 6246 H 587.835 -1.4576 -2.10209 0
M  V30 6247 H 587.479 -2.66463 -4.32389 0
M  V30 6248 H 587.409 -1.08893 -5.15218 0
M  V30 6249 H 589.899 -1.17183 -3.59272 0
M  V30 6250 H 590.213 -2.98298 -7.12908 0
M  V30 6251 H 588.558 -2.67626 -6.41406 0
M  V30 6252 H 591.749 -1.5314 -4.42341 0
M  V30 6253 H 591.922 -2.35708 -6.03611 0
M  V30 6254 N 585.328 1.53329 -0.364422 0
M  V30 6255 C 586.275 2.25698 0.482607 0
M  V30 6256 C 587.245 1.26325 1.07848 0
M  V30 6257 O 588.43 1.55104 1.11119 0
M  V30 6258 C 585.57 3.04873 1.61699 0
M  V30 6259 C 584.683 4.19135 1.0464 0
M  V30 6260 C 583.818 4.85754 2.14979 0
M  V30 6261 C 582.857 5.9205 1.5538 0
M  V30 6262 N 581.994 6.52365 2.59547 0
M  V30 6263 H 586.834 2.97666 -0.141032 0
M  V30 6264 H 584.371 1.46875 -0.0813692 0
M  V30 6265 H 586.329 3.49051 2.28516 0
M  V30 6266 H 584.959 2.35162 2.2113 0
M  V30 6267 H 584.011 3.79451 0.268553 0
M  V30 6268 H 585.323 4.95525 0.570653 0
M  V30 6269 H 584.477 5.3311 2.89619 0
M  V30 6270 H 583.216 4.08834 2.65906 0
M  V30 6271 H 582.221 5.44058 0.792549 0
M  V30 6272 H 583.446 6.7089 1.0528 0
M  V30 6273 H 581.392 5.78298 3.09689 0
M  V30 6274 H 581.309 7.2429 2.16655 0
M  V30 6275 H 582.577 7.0437 3.33892 0
M  V30 6276 N 586.806 0.0935595 1.57322 0
M  V30 6277 C 587.716 -0.880192 2.17462 0
M  V30 6278 C 588.732 -1.31135 1.14366 0
M  V30 6279 O 589.908 -1.37958 1.46729 0
M  V30 6280 C 586.973 -2.12184 2.74188 0
M  V30 6281 C 586.034 -1.74503 3.92234 0
M  V30 6282 C 585.267 -2.92748 4.46245 0
M  V30 6283 O 585.49 -4.07427 3.99198 0
M  V30 6284 O 584.424 -2.71303 5.37288 0
M  V30 6285 H 588.25 -0.398516 3.01074 0
M  V30 6286 H 585.835 -0.130707 1.48827 0
M  V30 6287 H 587.717 -2.84953 3.10451 0
M  V30 6288 H 586.392 -2.59407 1.93623 0
M  V30 6289 H 585.299 -0.989186 3.60785 0
M  V30 6290 H 586.632 -1.32044 4.74157 0
M  V30 6291 N 588.284 -1.56567 -0.180126 0
M  V30 6292 C 589.247 -1.94852 -1.20686 0
M  V30 6293 C 590.247 -0.831212 -1.3765 0
M  V30 6294 O 591.437 -1.09841 -1.35206 0
M  V30 6295 C 588.569 -2.23565 -2.57355 0
M  V30 6296 H 589.762 -2.86722 -0.879225 0
M  V30 6297 H 587.315 -1.50489 -0.422237 0
M  V30 6298 H 588.05 -1.34381 -2.95148 0
M  V30 6299 H 587.835 -3.04999 -2.46411 0
M  V30 6300 H 589.325 -2.54137 -3.31367 0
M  V30 6301 N 589.762 0.448376 -1.51087 0
M  V30 6302 C 590.672 1.56882 -1.74428 0
M  V30 6303 C 591.688 1.62268 -0.62809 0
M  V30 6304 O 592.864 1.79716 -0.909075 0
M  V30 6305 C 589.929 2.92947 -1.85426 0
M  V30 6306 C 588.99 2.97766 -3.09247 0
M  V30 6307 C 588.223 4.27341 -3.19711 0
M  V30 6308 O 588.446 5.19112 -2.36387 0
M  V30 6309 O 587.38 4.38219 -4.12611 0
M  V30 6310 H 591.206 1.40104 -2.69452 0
M  V30 6311 H 588.791 0.630247 -1.35456 0
M  V30 6312 H 590.673 3.73719 -1.94709 0
M  V30 6313 H 589.348 3.09876 -0.935887 0
M  V30 6314 H 588.255 2.15989 -3.0545 0
M  V30 6315 H 589.588 2.8578 -4.00738 0
M  V30 6316 N 591.24 1.41047 0.703093 0
M  V30 6317 C 592.17 1.45067 1.82969 0
M  V30 6318 C 593.151 0.31016 1.67248 0
M  V30 6319 O 594.336 0.520548 1.87093 0
M  V30 6320 C 591.466 1.32478 3.2104 0
M  V30 6321 C 590.42 2.44262 3.51454 0
M  V30 6322 C 589.746 2.16742 4.88801 0
M  V30 6323 C 591.046 3.86606 3.51189 0
M  V30 6324 H 592.74 2.39353 1.79863 0
M  V30 6325 H 590.286 1.15206 0.863919 0
M  V30 6326 H 592.239 1.33904 3.99559 0
M  V30 6327 H 590.963 0.346735 3.24754 0
M  V30 6328 H 589.622 2.42107 2.75282 0
M  V30 6329 H 589.27 1.17299 4.89132 0
M  V30 6330 H 588.97 2.91643 5.10116 0
M  V30 6331 H 590.494 2.19872 5.69639 0
M  V30 6332 H 591.908 3.90517 4.19725 0
M  V30 6333 H 590.305 4.61128 3.84033 0
M  V30 6334 H 591.375 4.15296 2.50315 0
M  V30 6335 N 592.718 -0.936591 1.26751 0
M  V30 6336 C 594.134 -1.21095 1.03963 0
M  V30 6337 C 594.334 -2.00156 -0.232372 0
M  V30 6338 O 593.39 -2.3434 -0.940274 0
M  V30 6339 C 594.703 -1.96775 2.27377 0
M  V30 6340 C 596.251 -2.09749 2.32324 0
M  V30 6341 C 596.726 -2.88832 3.55443 0
M  V30 6342 N 598.217 -2.96404 3.55948 0
M  V30 6343 C 598.952 -3.58036 4.47881 0
M  V30 6344 N 598.448 -4.21132 5.50109 0
M  V30 6345 N 600.241 -3.55353 4.35523 0
M  V30 6346 H 592.392 -0.408173 2.08441 0
M  V30 6347 H 594.655 -0.243139 0.91629 0
M  V30 6348 H 594.361 -1.46094 3.19921 0
M  V30 6349 H 594.235 -2.97424 2.31989 0
M  V30 6350 H 596.622 -2.5962 1.40291 0
M  V30 6351 H 596.703 -1.08347 2.31721 0
M  V30 6352 H 596.347 -2.39647 4.47808 0
M  V30 6353 H 596.277 -3.90499 3.53296 0
M  V30 6354 H 598.768 -2.51552 2.82011 0
M  V30 6355 H 599.081 -4.66071 6.16439 0
M  V30 6356 H 597.426 -4.19705 5.53961 0
M  V30 6357 H 600.617 -3.05256 3.54875 0
M  V30 6358 H 600.79 -4.03097 5.07363 0
M  V30 6359 N 594.196 -1.08629 -1.14182 0
M  V30 6360 C 595.421 -0.83902 -1.89671 0
M  V30 6361 C 595.846 0.603332 -1.78161 0
M  V30 6362 O 595.204 1.42301 -1.12339 0
M  V30 6363 C 595.252 -1.26854 -3.37551 0
M  V30 6364 O 594.356 -0.42188 -4.10236 0
M  V30 6365 H 593.697 -0.304545 -0.590041 0
M  V30 6366 H 596.227 -1.4483 -1.44518 0
M  V30 6367 H 596.237 -1.25038 -3.88368 0
M  V30 6368 H 594.912 -2.31901 -3.45246 0
M  V30 6369 H 593.489 -0.503654 -3.69483 0
M  V30 6370 N 595.674 1.31259 -0.872281 0
M  V30 6371 C 596.922 1.96233 -0.483409 0
M  V30 6372 C 597.243 1.69276 0.968012 0
M  V30 6373 O 596.513 1.00943 1.67891 0
M  V30 6374 H 595.093 0.726025 -0.175774 0
M  V30 6375 H 597.755 1.60024 -1.11258 0
M  V30 6376 H 596.851 3.05403 -0.643075 0
M  V30 6377 N 597.152 0.631951 1.44375 0
M  V30 6378 C 598.401 0.134214 2.01253 0
M  V30 6379 C 598.714 -1.25171 1.50305 0
M  V30 6380 O 599.92 -1.8435 1.99317 0
M  V30 6381 C 598.376 0.189187 3.59402 0
M  V30 6382 C 597.984 1.57647 4.19346 0
M  V30 6383 C 599.728 -0.252044 4.23751 0
M  V30 6384 C 597.635 1.58651 5.69722 0
M  V30 6385 H 596.565 0.0464101 0.75257 0
M  V30 6386 H 599.216 0.790868 1.65582 0
M  V30 6387 H 597.598 -0.534584 3.92375 0
M  V30 6388 H 598.772 2.32389 3.97909 0
M  V30 6389 H 597.087 1.96186 3.67288 0
M  V30 6390 H 599.684 -0.264084 5.34047 0
M  V30 6391 H 600.027 -1.27951 3.96149 0
M  V30 6392 H 600.56 0.41926 3.95584 0
M  V30 6393 H 597.299 2.59237 6.0206 0
M  V30 6394 H 596.819 0.882039 5.93279 0
M  V30 6395 H 598.498 1.32082 6.33375 0
M  V30 6396 N 598.631 -1.53133 0.372548 0
M  V30 6397 C 599.88 -2.00539 -0.216115 0
M  V30 6398 C 600.193 -1.26374 -1.49295 0
M  V30 6399 O 601.399 -1.64404 -2.16064 0
M  V30 6400 C 599.855 -3.57253 -0.435678 0
M  V30 6401 C 599.463 -4.40302 0.82693 0
M  V30 6402 C 601.207 -4.12995 -0.981618 0
M  V30 6403 C 599.114 -5.88583 0.576567 0
M  V30 6404 H 598.044 -0.749246 -0.084536 0
M  V30 6405 H 600.695 -1.76771 0.492364 0
M  V30 6406 H 599.077 -3.77202 -1.20559 0
M  V30 6407 H 600.251 -4.32124 1.60017 0
M  V30 6408 H 598.566 -3.95699 1.29659 0
M  V30 6409 H 601.163 -5.21418 -1.18436 0
M  V30 6410 H 601.506 -3.68027 -1.94581 0
M  V30 6411 H 602.039 -3.96871 -0.271696 0
M  V30 6412 H 598.778 -6.37841 1.51128 0
M  V30 6413 H 598.298 -5.99592 -0.158047 0
M  V30 6414 H 599.977 -6.46676 0.204722 0
M  V30 6415 N 600.109 -0.101901 -1.5727 0
M  V30 6416 C 601.525 0.254739 -1.57554 0
M  V30 6417 C 601.725 1.67937 -1.11352 0
M  V30 6418 O 600.781 2.39722 -0.793081 0
M  V30 6419 C 602.094 0.036975 -3.00677 0
M  V30 6420 C 603.642 0.104199 -3.12827 0
M  V30 6421 C 604.117 -0.0856565 -4.5792 0
M  V30 6422 N 605.608 -0.0310498 -4.6319 0
M  V30 6423 C 606.343 -0.153099 -5.73196 0
M  V30 6424 N 605.839 -0.330364 -6.92012 0
M  V30 6425 N 607.632 -0.0938854 -5.62022 0
M  V30 6426 H 599.783 -1.03263 -1.85609 0
M  V30 6427 H 602.046 -0.405251 -0.857016 0
M  V30 6428 H 601.752 -0.947254 -3.38703 0
M  V30 6429 H 601.626 0.776335 -3.69124 0
M  V30 6430 H 604.013 1.07894 -2.74669 0
M  V30 6431 H 604.094 -0.666762 -2.46957 0
M  V30 6432 H 603.738 -1.05729 -4.96773 0
M  V30 6433 H 603.668 0.705082 -5.21858 0
M  V30 6434 H 606.159 0.103141 -3.77759 0
M  V30 6435 H 606.472 -0.41482 -7.71686 0
M  V30 6436 H 604.817 -0.366119 -6.94035 0
M  V30 6437 H 608.008 0.0435168 -4.6808 0
M  V30 6438 H 608.181 -0.19245 -6.47714 0
M  V30 6439 N 601.587 1.56661 0.17182 0
M  V30 6440 C 602.535 1.97289 1.23207 0
M  V30 6441 C 603.529 0.861566 1.45854 0
M  V30 6442 O 604.735 1.04668 1.4644 0
M  V30 6443 H 601.11 0.627681 0.41415 0
M  V30 6444 H 603.081 2.85662 0.862542 0
M  V30 6445 C 601.83 2.34849 2.564 0
M  V30 6446 H 601.153 3.19903 2.39797 0
M  V30 6447 H 602.593 2.67121 3.29276 0
M  V30 6448 C 601.052 1.19172 3.15119 0
M  V30 6449 O 601.582 0.479113 3.98833 0
M  V30 6450 N 599.788 0.962415 2.74201 0
M  V30 6451 H 599.335 1.54365 2.06226 0
M  V30 6452 H 599.293 0.190272 3.13824 0
M  V30 6453 N 603.065 -0.440357 1.51323 0
M  V30 6454 C 604.013 -1.55492 1.72988 0
M  V30 6455 C 605.007 -1.58564 0.596138 0
M  V30 6456 O 606.213 -1.62345 0.777443 0
M  V30 6457 H 602.588 -0.516532 0.546533 0
M  V30 6458 H 604.559 -1.34392 2.66423 0
M  V30 6459 C 603.308 -2.93176 1.86931 0
M  V30 6460 H 602.631 -2.91543 2.73574 0
M  V30 6461 H 604.071 -3.70537 2.06103 0
M  V30 6462 C 602.53 -3.30988 0.628365 0
M  V30 6463 O 603.06 -4.01106 -0.218367 0
M  V30 6464 N 601.266 -2.86719 0.473339 0
M  V30 6465 H 600.813 -2.2983 1.16345 0
M  V30 6466 H 600.771 -3.12381 -0.355727 0
M  V30 6467 N 604.543 -1.41418 -0.695603 0
M  V30 6468 C 605.768 -1.44329 -1.48942 0
M  V30 6469 C 606.193 -0.0501579 -1.88033 0
M  V30 6470 O 605.551 0.946598 -1.54626 0
M  V30 6471 C 605.599 -2.3578 -2.72837 0
M  V30 6472 O 604.703 -1.81482 -3.70322 0
M  V30 6473 H 604.044 -0.489838 -0.44828 0
M  V30 6474 H 606.574 -1.85878 -0.855014 0
M  V30 6475 H 606.584 -2.51654 -3.21145 0
M  V30 6476 H 605.259 -3.37005 -2.43722 0
M  V30 6477 H 603.836 -1.75058 -3.29255 0
M  V30 6478 N 606.021 0.929856 -1.27246 0
M  V30 6479 C 606.951 2.04722 -1.12299 0
M  V30 6480 C 607.932 1.70082 -0.0250464 0
M  V30 6481 O 609.117 1.93176 -0.199141 0
M  V30 6482 C 606.247 3.38721 -0.767145 0
M  V30 6483 C 605.201 3.87466 -1.81808 0
M  V30 6484 C 604.527 5.18246 -1.31626 0
M  V30 6485 C 605.827 4.11095 -3.22177 0
M  V30 6486 H 607.521 2.17485 -2.05769 0
M  V30 6487 H 605.067 1.04503 -0.990715 0
M  V30 6488 H 607.02 4.16366 -0.649413 0
M  V30 6489 H 605.744 3.25967 0.203259 0
M  V30 6490 H 604.403 3.12012 -1.92468 0
M  V30 6491 H 604.051 5.01881 -0.335378 0
M  V30 6492 H 603.751 5.51829 -2.01887 0
M  V30 6493 H 605.275 5.98462 -1.21143 0
M  V30 6494 H 606.689 4.79316 -3.1453 0
M  V30 6495 H 605.086 4.55982 -3.90129 0
M  V30 6496 H 606.156 3.16468 -3.67391 0
M  V30 6497 N 607.499 1.09233 1.13605 0
M  V30 6498 C 608.745 0.838255 1.85324 0
M  V30 6499 C 609.1 -0.629314 1.81817 0
M  V30 6500 O 608.393 -1.45729 1.24393 0
M  V30 6501 C 608.587 1.305 3.32723 0
M  V30 6502 C 608.416 2.81641 3.50583 0
M  V30 6503 C 607.186 3.49494 3.64941 0
M  V30 6504 C 609.384 3.79789 3.46792 0
M  V30 6505 N 607.366 4.89082 3.71042 0
M  V30 6506 C 608.737 5.05319 3.59239 0
M  V30 6507 C 610.792 3.72673 3.30181 0
M  V30 6508 C 609.495 6.24574 3.56791 0
M  V30 6509 C 611.521 4.91413 3.29039 0
M  V30 6510 C 610.883 6.15785 3.42035 0
M  V30 6511 H 606.982 0.359572 0.69443 0
M  V30 6512 H 609.566 1.39232 1.36098 0
M  V30 6513 H 607.737 0.778411 3.8052 0
M  V30 6514 H 609.469 0.996465 3.92241 0
M  V30 6515 H 606.224 2.9992 3.66531 0
M  V30 6516 H 606.648 5.61787 3.77789 0
M  V30 6517 H 611.29 2.77444 3.19037 0
M  V30 6518 H 609.008 7.20105 3.66708 0
M  V30 6519 H 612.594 4.87604 3.17386 0
M  V30 6520 H 611.474 7.06126 3.41111 0
M  V30 6521 N 608.977 -1.30795 0.87923 0
M  V30 6522 C 610.254 -1.91145 0.415086 0
M  V30 6523 C 610.634 -1.7995 -1.10368 0
M  V30 6524 O 609.982 -1.21305 -1.93642 0
M  V30 6525 C 610.192 -3.37014 0.906778 0
M  V30 6526 C 611.54 -4.14101 0.938358 0
M  V30 6527 O 612.564 -3.45834 0.853053 0
M  V30 6528 O 611.423 -5.36054 1.06342 0
M  V30 6529 H 608.517 -0.81736 0.125905 0
M  V30 6530 H 611.063 -1.39401 0.967753 0
M  V30 6531 H 609.835 -3.3922 1.95053 0
M  V30 6532 H 609.458 -3.96204 0.332948 0
M  V30 6533 N 610.455 -0.639598 -1.44038 0
M  V30 6534 C 611.871 -0.305953 -1.5664 0
M  V30 6535 C 612.071 1.19055 -1.62567 0
M  V30 6536 O 611.127 1.97492 -1.57331 0
M  V30 6537 C 612.44 -1.00533 -2.83397 0
M  V30 6538 C 613.988 -0.984278 -2.97121 0
M  V30 6539 C 614.463 -1.66428 -4.26691 0
M  V30 6540 N 615.954 -1.63127 -4.33525 0
M  V30 6541 C 616.689 -2.12629 -5.32519 0
M  V30 6542 N 616.185 -2.70359 -6.3787 0
M  V30 6543 N 617.978 -2.03208 -5.24083 0
M  V30 6544 H 610.129 -1.6109 -1.38434 0
M  V30 6545 H 612.392 -0.676672 -0.663942 0
M  V30 6546 H 612.098 -2.06034 -2.85032 0
M  V30 6547 H 611.972 -0.548362 -3.73193 0
M  V30 6548 H 614.359 0.0622792 -2.95034 0
M  V30 6549 H 614.44 -1.47981 -2.08651 0
M  V30 6550 H 614.084 -2.71034 -4.29538 0
M  V30 6551 H 614.014 -1.14351 -5.14034 0
M  V30 6552 H 616.505 -1.20987 -3.58009 0
M  V30 6553 H 616.818 -3.05842 -7.09704 0
M  V30 6554 H 615.163 -2.74414 -6.38531 0
M  V30 6555 H 618.354 -1.57823 -4.40692 0
M  V30 6556 H 618.527 -2.42097 -6.01077 0
M  V30 6557 N 611.933 1.52934 -0.380664 0
M  V30 6558 C 612.863 2.29118 0.450268 0
M  V30 6559 C 613.844 1.32153 1.07096 0
M  V30 6560 O 615.029 1.61038 1.08537 0
M  V30 6561 C 612.159 3.09161 1.58231 0
M  V30 6562 C 611.113 4.13938 1.0881 0
M  V30 6563 C 610.439 4.82153 2.31155 0
M  V30 6564 C 611.739 5.22048 0.162146 0
M  V30 6565 H 613.433 2.98826 -0.185361 0
M  V30 6566 H 610.979 1.43715 -0.0905886 0
M  V30 6567 H 612.932 3.61211 2.17036 0
M  V30 6568 H 611.656 2.3717 2.2454 0
M  V30 6569 H 610.315 3.62855 0.522633 0
M  V30 6570 H 609.963 4.06719 2.95953 0
M  V30 6571 H 609.663 5.52966 1.98752 0
M  V30 6572 H 611.187 5.37004 2.90618 0
M  V30 6573 H 612.601 5.6951 0.658126 0
M  V30 6574 H 610.998 6.00057 -0.0717122 0
M  V30 6575 H 612.068 4.78398 -0.791438 0
M  V30 6576 N 613.412 0.11024 1.57214 0
M  V30 6577 C 614.661 -0.549638 1.94067 0
M  V30 6578 C 614.974 -1.68388 0.995234 0
M  V30 6579 O 616.18 -2.40593 1.25807 0
M  V30 6580 C 614.636 -1.02912 3.44873 0
M  V30 6581 C 614.244 0.0761861 4.47935 0
M  V30 6582 C 615.988 -1.66087 3.9066 0
M  V30 6583 C 613.895 -0.419502 5.8991 0
M  V30 6584 H 612.825 -0.209092 0.724428 0
M  V30 6585 H 615.476 0.188683 1.82527 0
M  V30 6586 H 613.858 -1.82159 3.51616 0
M  V30 6587 H 615.032 0.852185 4.52851 0
M  V30 6588 H 613.347 0.614052 4.11847 0
M  V30 6589 H 615.944 -2.04272 4.94143 0
M  V30 6590 H 616.287 -2.53591 3.30148 0
M  V30 6591 H 616.82 -0.933959 3.86681 0
M  V30 6592 H 613.559 0.419277 6.54158 0
M  V30 6593 H 613.079 -1.16217 5.88433 0
M  V30 6594 H 614.758 -0.883577 6.40938 0
M  V30 6595 N 614.89 -1.56749 -0.16351 0
M  V30 6596 C 616.137 -1.82434 -0.878866 0
M  V30 6597 C 616.465 -0.688557 -1.81904 0
M  V30 6598 O 615.72 0.323644 -1.93005 0
M  V30 6599 C 616.019 -3.14342 -1.70071 0
M  V30 6600 C 615.685 -4.41647 -0.908775 0
M  V30 6601 C 614.347 -4.76224 -0.690236 0
M  V30 6602 C 616.699 -5.19998 -0.353815 0
M  V30 6603 C 614.027 -5.86624 0.0942374 0
M  V30 6604 C 616.379 -6.3122 0.41761 0
M  V30 6605 C 615.043 -6.64358 0.646879 0
M  V30 6606 H 614.313 -0.667574 -0.3216 0
M  V30 6607 H 616.96 -1.90963 -0.14337 0
M  V30 6608 H 615.265 -3.0119 -2.50583 0
M  V30 6609 H 616.962 -3.31426 -2.25738 0
M  V30 6610 H 613.552 -4.1453 -1.08916 0
M  V30 6611 H 617.736 -4.93673 -0.509975 0
M  V30 6612 H 612.992 -6.10751 0.281529 0
M  V30 6613 H 617.166 -6.91133 0.854849 0
M  V30 6614 H 614.793 -7.49742 1.25662 0
M  V30 6615 N 616.368 0.432326 -1.51554 0
M  V30 6616 C 617.318 1.52366 -1.69614 0
M  V30 6617 C 618.302 1.51205 -0.550083 0
M  V30 6618 O 619.494 1.57573 -0.806206 0
M  V30 6619 C 616.623 2.90513 -1.82913 0
M  V30 6620 C 615.709 2.9641 -3.03318 0
M  V30 6621 N 616.1 2.72043 -4.26411 0
M  V30 6622 C 614.398 3.27572 -3.02675 0
M  V30 6623 C 615.099 2.83912 -5.07709 0
M  V30 6624 N 614.075 3.15798 -4.42462 0
M  V30 6625 H 617.877 1.32285 -2.62446 0
M  V30 6626 H 615.391 0.639708 -1.4927 0
M  V30 6627 H 617.388 3.69032 -1.93962 0
M  V30 6628 H 616.048 3.1161 -0.912655 0
M  V30 6629 H 617.059 2.46876 -4.55272 0
M  V30 6630 H 613.736 3.54411 -2.20678 0
M  V30 6631 H 615.126 2.68984 -6.15709 0
M  V30 6632 N 617.846 1.41785 0.688094 0
M  V30 6633 C 618.793 1.44221 1.80191 0
M  V30 6634 C 619.763 0.295688 1.63447 0
M  V30 6635 O 620.948 0.49783 1.84191 0
M  V30 6636 C 618.088 1.33743 3.1813 0
M  V30 6637 C 617.201 2.58325 3.46254 0
M  V30 6638 C 616.336 2.40086 4.73848 0
M  V30 6639 C 615.375 3.60107 4.94964 0
M  V30 6640 N 614.512 3.40892 6.13789 0
M  V30 6641 H 619.352 2.39411 1.77444 0
M  V30 6642 H 616.889 1.18876 0.866423 0
M  V30 6643 H 618.847 1.25669 3.97823 0
M  V30 6644 H 617.477 0.42157 3.20035 0
M  V30 6645 H 616.529 2.7682 2.60912 0
M  V30 6646 H 617.841 3.4758 3.57756 0
M  V30 6647 H 616.995 2.29522 5.61609 0
M  V30 6648 H 615.734 1.483 4.64606 0
M  V30 6649 H 614.739 3.71118 4.05649 0
M  V30 6650 H 615.964 4.52857 5.06061 0
M  V30 6651 H 613.91 2.51812 6.05745 0
M  V30 6652 H 613.827 4.23727 6.26092 0
M  V30 6653 H 615.095 3.34114 7.04264 0
M  V30 6654 N 619.324 -0.923095 1.27737 0
M  V30 6655 C 620.57 -1.67375 1.14514 0
M  V30 6656 C 620.903 -1.91751 -0.307424 0
M  V30 6657 O 620.178 -1.51119 -1.22447 0
M  V30 6658 C 620.461 -3.03745 1.9342 0
M  V30 6659 C 620.314 -2.86581 3.46686 0
M  V30 6660 C 621.633 -4.04144 1.74228 0
M  V30 6661 H 618.752 -0.607427 0.417374 0
M  V30 6662 H 621.394 -1.07089 1.56946 0
M  V30 6663 H 619.544 -3.55204 1.5736 0
M  V30 6664 H 621.216 -2.42203 3.92601 0
M  V30 6665 H 619.459 -2.21829 3.72793 0
M  V30 6666 H 620.13 -3.83381 3.97143 0
M  V30 6667 H 622.606 -3.61712 2.05678 0
M  V30 6668 H 621.482 -4.97543 2.31824 0
M  V30 6669 H 621.743 -4.36661 0.691373 0
M  V30 6670 N 620.802 -1.09834 -1.13024 0
M  V30 6671 C 621.734 -0.699379 -2.18269 0
M  V30 6672 C 622.747 0.260841 -1.60697 0
M  V30 6673 O 623.936 0.0462538 -1.7844 0
M  V30 6674 C 621.036 -0.0104537 -3.38898 0
M  V30 6675 C 620.209 -0.993275 -4.25973 0
M  V30 6676 C 619.268 -0.336982 -5.2512 0
M  V30 6677 O 618.294 -0.985892 -5.60597 0
M  V30 6678 N 619.496 0.90716 -5.73368 0
M  V30 6679 H 622.261 -1.60486 -2.5311 0
M  V30 6680 H 619.822 -0.986337 -1.28386 0
M  V30 6681 H 621.814 0.43991 -4.02302 0
M  V30 6682 H 620.384 0.797335 -3.0226 0
M  V30 6683 H 619.604 -1.62208 -3.5928 0
M  V30 6684 H 620.892 -1.65876 -4.81002 0
M  V30 6685 H 620.29 1.45384 -5.46699 0
M  V30 6686 H 618.847 1.30077 -6.38689 0
M  V30 6687 N 622.28 1.30327 -0.886154 0
M  V30 6688 C 623.505 2.0079 -0.519425 0
M  V30 6689 C 623.93 1.65979 0.885013 0
M  V30 6690 O 623.288 0.877043 1.58675 0
M  V30 6691 C 623.336 3.53686 -0.702758 0
M  V30 6692 O 622.44 4.11637 0.250828 0
M  V30 6693 H 621.781 0.63171 -0.204544 0
M  V30 6694 H 624.311 1.66145 -1.19402 0
M  V30 6695 H 624.321 4.03531 -0.602207 0
M  V30 6696 H 622.996 3.78361 -1.72673 0
M  V30 6697 H 621.573 3.72755 0.103873 0
M  V30 6698 N 623.758 0.647228 1.43697 0
M  V30 6699 C 624.983 0.164083 2.0675 0
M  V30 6700 C 625.408 -1.15892 1.48158 0
M  V30 6701 O 624.766 -1.71459 0.589194 0
M  V30 6702 C 624.814 0.0800368 3.60511 0
M  V30 6703 O 623.918 -0.959453 4.01084 0
M  V30 6704 H 623.259 0.0921288 0.657578 0
M  V30 6705 H 625.789 0.88846 1.84303 0
M  V30 6706 H 625.799 -0.105263 4.07864 0
M  V30 6707 H 624.474 1.04586 4.02535 0
M  V30 6708 H 623.051 -0.747425 3.65333 0
M  V30 6709 N 625.236 -1.5273 0.388769 0
M  V30 6710 C 626.166 -2.29353 -0.438111 0
M  V30 6711 C 627.147 -1.32719 -1.06394 0
M  V30 6712 O 628.332 -1.61612 -1.07681 0
M  V30 6713 C 625.462 -3.09995 -1.56589 0
M  V30 6714 C 624.416 -4.14509 -1.06613 0
M  V30 6715 C 623.742 -4.83372 -2.28594 0
M  V30 6716 C 625.042 -5.22127 -0.134459 0
M  V30 6717 H 626.736 -2.98723 0.201206 0
M  V30 6718 H 624.282 -1.43665 0.0982089 0
M  V30 6719 H 626.235 -3.62357 -2.15118 0
M  V30 6720 H 624.959 -2.38357 -2.23279 0
M  V30 6721 H 623.618 -3.63128 -0.503383 0
M  V30 6722 H 623.266 -4.08283 -2.93792 0
M  V30 6723 H 622.966 -5.54012 -1.95817 0
M  V30 6724 H 624.49 -5.38538 -2.87766 0
M  V30 6725 H 625.904 -5.69851 -0.627914 0
M  V30 6726 H 624.301 -6.00011 0.103534 0
M  V30 6727 H 625.371 -4.77971 0.816798 0
M  V30 6728 N 626.714 -0.118576 -1.57153 0
M  V30 6729 C 627.962 0.538461 -1.94795 0
M  V30 6730 C 628.283 1.67243 -1.00274 0
M  V30 6731 O 627.553 1.95811 -0.0589692 0
M  V30 6732 H 626.133 0.201904 -0.719197 0
M  V30 6733 H 628.795 -0.187418 -1.93997 0
M  V30 6734 H 627.891 0.933315 -2.97818 0
M  V30 6735 N 628.193 1.56834 0.155195 0
M  V30 6736 C 629.441 1.82536 0.867462 0
M  V30 6737 C 629.762 0.698168 1.82073 0
M  V30 6738 O 629.032 -0.280807 1.93877 0
M  V30 6739 H 627.612 0.673401 0.323327 0
M  V30 6740 H 630.274 1.94313 0.151156 0
M  V30 6741 H 629.37 2.77171 1.43466 0
M  V30 6742 N 629.671 -0.424282 1.51781 0
M  V30 6743 C 631.087 -0.761768 1.40247 0
M  V30 6744 C 631.287 -1.95324 0.495041 0
M  V30 6745 O 630.343 -2.5246 -0.0448949 0
M  V30 6746 C 631.656 -1.0299 2.82513 0
M  V30 6747 C 633.204 -1.13354 2.91753 0
M  V30 6748 C 633.679 -1.43453 4.34954 0
M  V30 6749 N 635.17 -1.5035 4.3812 0
M  V30 6750 C 635.905 -1.75236 5.45967 0
M  V30 6751 N 635.401 -1.97827 6.63955 0
M  V30 6752 N 637.194 -1.77126 5.33463 0
M  V30 6753 H 629.345 0.360228 2.09323 0
M  V30 6754 H 631.608 0.0988128 0.942836 0
M  V30 6755 H 631.314 -0.226961 3.50967 0
M  V30 6756 H 631.188 -1.95411 3.22637 0
M  V30 6757 H 633.575 -1.92709 2.23489 0
M  V30 6758 H 633.656 -0.188041 2.55108 0
M  V30 6759 H 633.3 -0.646209 5.03772 0
M  V30 6760 H 633.23 -2.3923 4.69123 0
M  V30 6761 H 635.721 -1.34742 3.53062 0
M  V30 6762 H 636.034 -2.16223 7.41935 0
M  V30 6763 H 634.379 -1.95123 6.67047 0
M  V30 6764 H 637.57 -1.59005 4.40267 0
M  V30 6765 H 637.743 -1.96182 6.17589 0
M  V30 6766 N 631.149 -1.42148 -0.680565 0
M  V30 6767 C 632.395 -1.42521 -1.44277 0
M  V30 6768 C 632.728 -0.0393718 -1.9416 0
M  V30 6769 O 632.003 0.935425 -1.70529 0
M  V30 6770 C 632.286 -2.44475 -2.64394 0
M  V30 6771 C 632.139 -3.92226 -2.20179 0
M  V30 6772 C 633.458 -2.43491 -3.66606 0
M  V30 6773 H 630.577 -0.518985 -0.523282 0
M  V30 6774 H 633.219 -1.73524 -0.773914 0
M  V30 6775 H 631.369 -2.18168 -3.21458 0
M  V30 6776 H 633.041 -4.29493 -1.68327 0
M  V30 6777 H 631.284 -4.0637 -1.5181 0
M  V30 6778 H 631.955 -4.59133 -3.06433 0
M  V30 6779 H 634.431 -2.66872 -3.19247 0
M  V30 6780 H 633.307 -3.16816 -4.4824 0
M  V30 6781 H 633.568 -1.45881 -4.17338 0
M  V30 6782 N 632.627 0.916307 -1.28225 0
M  V30 6783 C 634.043 1.19425 -1.05876 0
M  V30 6784 C 634.243 2.005 0.2005 0
M  V30 6785 O 633.299 2.35806 0.902873 0
M  V30 6786 C 634.612 1.93133 -2.30478 0
M  V30 6787 C 636.16 2.06026 -2.35632 0
M  V30 6788 C 636.635 2.83141 -3.59994 0
M  V30 6789 N 638.126 2.90704 -3.60618 0
M  V30 6790 C 638.861 3.50865 -4.53521 0
M  V30 6791 N 638.357 4.12327 -5.56739 0
M  V30 6792 N 640.15 3.48379 -4.41122 0
M  V30 6793 H 632.301 0.37496 -2.09064 0
M  V30 6794 H 634.564 0.228531 -0.920042 0
M  V30 6795 H 634.27 1.40985 -3.22205 0
M  V30 6796 H 634.144 2.93696 -2.36691 0
M  V30 6797 H 636.531 2.57355 -1.44404 0
M  V30 6798 H 636.612 1.04647 -2.33415 0
M  V30 6799 H 636.256 2.32492 -4.51564 0
M  V30 6800 H 636.186 3.84829 -3.59464 0
M  V30 6801 H 638.677 2.47034 -2.85977 0
M  V30 6802 H 638.99 4.56205 -6.23776 0
M  V30 6803 H 637.335 4.10839 -5.60568 0
M  V30 6804 H 640.526 2.99572 -3.59686 0
M  V30 6805 H 640.699 3.94974 -5.13712 0
M  V30 6806 N 634.105 1.10431 1.1244 0
M  V30 6807 C 635.035 0.775143 2.20258 0
M  V30 6808 C 636.016 -0.25186 1.68225 0
M  V30 6809 O 637.201 -0.117637 1.93843 0
M  V30 6810 C 634.331 0.206133 3.46688 0
M  V30 6811 C 633.285 1.16382 4.11873 0
M  V30 6812 C 632.611 0.456014 5.32752 0
M  V30 6813 C 633.911 2.5104 4.58013 0
M  V30 6814 H 635.605 1.67665 2.4805 0
M  V30 6815 H 633.151 0.807595 1.19222 0
M  V30 6816 H 635.104 -0.036291 4.21384 0
M  V30 6817 H 633.828 -0.730614 3.18323 0
M  V30 6818 H 632.487 1.39169 3.39157 0
M  V30 6819 H 632.135 -0.485203 5.00654 0
M  V30 6820 H 631.835 1.09466 5.77314 0
M  V30 6821 H 633.359 0.222135 6.10196 0
M  V30 6822 H 634.773 2.32401 5.24083 0
M  V30 6823 H 633.17 3.10789 5.13352 0
M  V30 6824 H 634.24 3.11039 3.71998 0
M  V30 6825 N 635.583 -1.29855 0.893053 0
M  V30 6826 C 636.516 -2.26079 0.3104 0
M  V30 6827 C 637.494 -1.52145 -0.573644 0
M  V30 6828 O 638.678 -1.8113 -0.521937 0
M  V30 6829 C 635.805 -3.34069 -0.558179 0
M  V30 6830 C 634.851 -4.25721 0.257638 0
M  V30 6831 S 635.684 -5.09409 1.65114 0
M  V30 6832 C 636.84 -6.20903 0.789307 0
M  V30 6833 H 637.073 -2.75151 1.12602 0
M  V30 6834 H 634.606 -1.37975 0.692978 0
M  V30 6835 H 636.564 -3.9675 -1.05355 0
M  V30 6836 H 635.225 -2.83705 -1.34797 0
M  V30 6837 H 634.418 -5.02366 -0.405562 0
M  V30 6838 H 634.02 -3.67656 0.685917 0
M  V30 6839 H 636.312 -6.77499 0.00978451 0
M  V30 6840 H 637.255 -6.91426 1.52762 0
M  V30 6841 H 637.663 -5.63435 0.346634 0
M  V30 6842 N 637.061 -0.65484 -1.43351 0
M  V30 6843 C 638.307 -0.169142 -2.02093 0
M  V30 6844 C 638.64 1.21431 -1.51553 0
M  V30 6845 O 637.915 1.81105 -0.709317 0
M  V30 6846 C 638.198 -0.181775 -3.59641 0
M  V30 6847 C 638.051 -1.59926 -4.20409 0
M  V30 6848 C 639.37 0.480945 -4.37464 0
M  V30 6849 H 636.489 -0.0629371 -0.734308 0
M  V30 6850 H 639.131 -0.835833 -1.70628 0
M  V30 6851 H 637.281 0.385918 -3.86578 0
M  V30 6852 H 638.953 -2.21766 -4.04497 0
M  V30 6853 H 637.196 -2.14605 -3.76998 0
M  V30 6854 H 637.867 -1.55994 -5.295 0
M  V30 6855 H 640.343 -0.00208273 -4.161 0
M  V30 6856 H 639.219 0.441384 -5.47122 0
M  V30 6857 H 639.48 1.55533 -4.13838 0
M  V30 6858 N 638.539 1.52521 -0.396863 0
M  V30 6859 C 639.767 2.06091 0.18275 0
M  V30 6860 C 640.182 1.26796 1.39886 0
M  V30 6861 O 639.539 0.316585 1.79733 0
M  V30 6862 C 639.59 3.57362 0.545377 0
M  V30 6863 O 639.311 4.33656 -0.622428 0
M  V30 6864 C 640.812 4.27305 1.18004 0
M  V30 6865 H 638.032 0.670504 0.025789 0
M  V30 6866 H 640.576 1.96561 -0.564276 0
M  V30 6867 H 638.731 3.66941 1.2423 0
M  V30 6868 H 639.145 5.23507 -0.322662 0
M  V30 6869 H 640.619 5.34366 1.38408 0
M  V30 6870 H 641.096 3.83 2.1496 0
M  V30 6871 H 641.702 4.22064 0.523671 0
M  V30 6872 N 640.017 0.126909 1.57088 0
M  V30 6873 C 641.265 -0.528123 1.95078 0
M  V30 6874 C 641.586 -1.66708 1.0116 0
M  V30 6875 O 640.856 -1.95777 0.0693527 0
M  V30 6876 H 639.436 -0.198087 0.720257 0
M  V30 6877 H 642.098 0.197703 1.93895 0
M  V30 6878 H 641.194 -0.917507 2.98309 0
M  V30 6879 N 641.495 -1.56914 -0.146875 0
M  V30 6880 C 642.458 -1.97368 -1.16526 0
M  V30 6881 C 643.458 -0.860223 -1.35856 0
M  V30 6882 O 644.648 -1.12684 -1.32846 0
M  V30 6883 C 641.78 -2.28974 -2.52555 0
M  V30 6884 H 642.973 -2.88523 -0.818209 0
M  V30 6885 H 640.526 -1.5135 -0.390221 0
M  V30 6886 H 641.261 -1.40611 -2.92231 0
M  V30 6887 H 641.046 -3.10157 -2.39886 0
M  V30 6888 H 642.536 -2.61109 -3.25902 0
M  V30 6889 N 642.974 0.416227 -1.52004 0
M  V30 6890 C 643.937 1.48926 -1.74223 0
M  V30 6891 C 644.937 1.48693 -0.612119 0
M  V30 6892 O 646.127 1.50343 -0.879921 0
M  V30 6893 C 643.259 2.88372 -1.81809 0
M  V30 6894 H 644.452 1.3052 -2.70008 0
M  V30 6895 H 642.005 0.646271 -1.42313 0
M  V30 6896 H 642.74 3.12157 -0.879135 0
M  V30 6897 H 642.525 2.89944 -2.6396 0
M  V30 6898 H 644.015 3.66173 -2.00766 0
M  V30 6899 N 644.452 1.42507 0.673017 0
M  V30 6900 C 645.863 1.38347 1.25367 0
M  V30 6901 C 646.214 0.0776327 1.96046 0
M  V30 6902 O 645.339 -0.823571 2.00116 0
M  V30 6903 C 645.934 2.506 2.28002 0
M  V30 6904 C 644.493 2.49767 2.81591 0
M  V30 6905 C 643.64 2.293 1.55938 0
M  V30 6906 H 646.591 1.51695 0.466288 0
M  V30 6907 H 646.612 2.20953 3.09774 0
M  V30 6908 H 646.124 3.45627 1.76532 0
M  V30 6909 H 644.225 1.58563 3.37177 0
M  V30 6910 H 644.338 3.46867 3.30485 0
M  V30 6911 H 642.702 1.77594 1.82572 0
M  V30 6912 H 643.485 3.26385 1.06431 0
M  V30 6913 N 645.93 -0.909495 1.28709 0
M  V30 6914 C 647.176 -1.66151 1.16283 0
M  V30 6915 C 647.509 -1.92067 -0.287069 0
M  V30 6916 O 646.784 -1.52409 -1.20837 0
M  V30 6917 C 647.067 -3.01676 1.9663 0
M  V30 6918 C 646.92 -2.82888 3.49707 0
M  V30 6919 C 648.239 -4.02274 1.78504 0
M  V30 6920 H 645.358 -0.602966 0.423793 0
M  V30 6921 H 648 -1.05418 1.58073 0
M  V30 6922 H 646.15 -3.53515 1.61119 0
M  V30 6923 H 647.822 -2.38026 3.95147 0
M  V30 6924 H 646.065 -2.17862 3.75125 0
M  V30 6925 H 646.736 -3.79147 4.01187 0
M  V30 6926 H 649.212 -3.59511 2.09503 0
M  V30 6927 H 648.088 -4.95056 2.37088 0
M  V30 6928 H 648.349 -4.35903 0.737647 0
M  V30 6929 N 647.408 -1.11026 -1.11852 0
M  V30 6930 C 648.633 -0.879064 -1.87849 0
M  V30 6931 C 649.058 0.565406 -1.79401 0
M  V30 6932 O 648.416 1.39886 -1.15333 0
M  V30 6933 C 648.464 -1.33985 -3.34784 0
M  V30 6934 O 647.568 -0.508803 -4.09249 0
M  V30 6935 H 646.909 -0.316992 -0.583448 0
M  V30 6936 H 649.439 -1.47863 -1.41413 0
M  V30 6937 H 649.449 -1.33248 -3.85628 0
M  V30 6938 H 648.124 -2.39172 -3.40249 0
M  V30 6939 H 646.701 -0.581913 -3.68332 0
M  V30 6940 N 648.886 1.2938 -0.899927 0
M  V30 6941 C 649.849 2.25983 -0.382677 0
M  V30 6942 C 650.849 1.53366 0.483259 0
M  V30 6943 O 652.039 1.71798 0.28828 0
M  V30 6944 C 649.171 3.37878 0.452915 0
M  V30 6945 H 650.364 2.73252 -1.23586 0
M  V30 6946 H 647.917 1.40825 -0.678088 0
M  V30 6947 H 648.652 2.95949 1.32608 0
M  V30 6948 H 648.437 3.91742 -0.167562 0
M  V30 6949 H 649.927 4.09746 0.806107 0
M  V30 6950 N 650.364 0.662433 1.43002 0
M  V30 6951 C 651.592 0.187615 2.06048 0
M  V30 6952 C 652.007 -1.15039 1.49705 0
M  V30 6953 O 651.364 -1.71209 0.631956 0
M  V30 6954 C 651.415 0.100498 3.6136 0
M  V30 6955 O 651.136 1.38562 4.15611 0
M  V30 6956 C 652.637 -0.399298 4.41498 0
M  V30 6957 H 649.857 0.0941675 0.664359 0
M  V30 6958 H 652.401 0.905681 1.83351 0
M  V30 6959 H 650.556 -0.568181 3.83211 0
M  V30 6960 H 650.97 1.25084 5.09366 0
M  V30 6961 H 652.444 -0.409187 5.50481 0
M  V30 6962 H 652.921 -1.43232 4.15188 0
M  V30 6963 H 653.527 0.23721 4.24638 0
M  V30 6964 N 651.842 -1.52309 0.404946 0
M  V30 6965 C 653.088 -2.02065 -0.172455 0
M  V30 6966 C 653.421 -1.29022 -1.45145 0
M  V30 6967 O 652.696 -0.395284 -1.90441 0
M  V30 6968 C 652.979 -3.5759 -0.424433 0
M  V30 6969 C 652.832 -4.41287 0.870945 0
M  V30 6970 C 654.151 -4.23186 -1.20837 0
M  V30 6971 H 651.27 -0.734454 -0.0612035 0
M  V30 6972 H 653.912 -1.82236 0.53759 0
M  V30 6973 H 652.062 -3.74617 -1.02929 0
M  V30 6974 H 653.734 -4.3598 1.50729 0
M  V30 6975 H 651.977 -4.07669 1.48284 0
M  V30 6976 H 652.648 -5.48171 0.649083 0
M  V30 6977 H 655.124 -4.10232 -0.696338 0
M  V30 6978 H 654 -5.31953 -1.35343 0
M  V30 6979 H 654.261 -3.81862 -2.22786 0
M  V30 6980 N 653.32 -0.135238 -1.57019 0
M  V30 6981 C 654.25 0.805235 -2.19176 0
M  V30 6982 C 655.231 1.2656 -1.13651 0
M  V30 6983 O 656.416 1.32528 -1.4195 0
M  V30 6984 C 653.546 2.04914 -2.80406 0
M  V30 6985 C 652.5 1.72598 -3.91655 0
M  V30 6986 C 651.826 3.04154 -4.39766 0
M  V30 6987 C 653.126 0.981709 -5.12991 0
M  V30 6988 H 654.82 0.287232 -2.98019 0
M  V30 6989 H 652.366 0.136714 -1.4335 0
M  V30 6990 H 654.319 2.71178 -3.22553 0
M  V30 6991 H 653.043 2.59067 -1.98877 0
M  V30 6992 H 651.702 1.08717 -3.50109 0
M  V30 6993 H 651.35 3.56274 -3.55075 0
M  V30 6994 H 651.05 2.83299 -5.14796 0
M  V30 6995 H 652.574 3.71509 -4.84576 0
M  V30 6996 H 653.988 1.5462 -5.52056 0
M  V30 6997 H 652.385 0.873533 -5.93708 0
M  V30 6998 H 653.455 -0.0286887 -4.84892 0
M  V30 6999 N 654.798 1.5699 0.138552 0
M  V30 7000 C 656.026 1.87976 0.864437 0
M  V30 7001 C 656.441 0.724372 1.74351 0
M  V30 7002 O 655.798 -0.305575 1.79924 0
M  V30 7003 C 655.849 3.18276 1.71414 0
M  V30 7004 O 655.57 4.29365 0.870487 0
M  V30 7005 C 657.071 3.62834 2.54688 0
M  V30 7006 H 654.291 0.622878 0.249528 0
M  V30 7007 H 656.835 2.04094 0.128805 0
M  V30 7008 H 654.99 3.03886 2.40274 0
M  V30 7009 H 655.404 5.03924 1.45466 0
M  V30 7010 H 656.878 4.5682 3.0987 0
M  V30 7011 H 657.355 2.88533 3.31127 0
M  V30 7012 H 657.961 3.79946 1.91105 0
M  V30 7013 N 656.276 -0.40816 1.52223 0
M  V30 7014 C 657.523 -1.15502 1.66329 0
M  V30 7015 C 657.851 -1.90474 0.393701 0
M  V30 7016 O 657.106 -1.85507 -0.623356 0
M  V30 7017 C 657.405 -2.17422 2.83659 0
M  V30 7018 C 657.071 -1.5925 4.21841 0
M  V30 7019 C 655.733 -1.4311 4.59427 0
M  V30 7020 C 658.085 -1.16776 5.0795 0
M  V30 7021 C 655.413 -0.830148 5.80797 0
M  V30 7022 C 657.765 -0.580988 6.29926 0
M  V30 7023 C 656.429 -0.406729 6.6626 0
M  V30 7024 H 655.699 -0.422653 0.608642 0
M  V30 7025 H 658.346 -0.442114 1.86327 0
M  V30 7026 H 656.651 -2.94861 2.58001 0
M  V30 7027 H 658.348 -2.75084 2.9177 0
M  V30 7028 H 654.938 -1.72796 3.92224 0
M  V30 7029 H 659.122 -1.28055 4.79495 0
M  V30 7030 H 654.378 -0.68316 6.07571 0
M  V30 7031 H 658.552 -0.243488 6.95974 0
M  V30 7032 H 656.179 0.0610366 7.60175 0
M  V30 7033 N 657.755 -1.42862 -0.66545 0
M  V30 7034 C 658.685 -1.49867 -1.79059 0
M  V30 7035 C 659.666 -0.354394 -1.66367 0
M  V30 7036 O 660.851 -0.569969 -1.85647 0
M  V30 7037 C 657.981 -1.40943 -3.17415 0
M  V30 7038 C 656.935 -2.53495 -3.44854 0
M  V30 7039 C 656.261 -2.29626 -4.82883 0
M  V30 7040 C 657.561 -3.95781 -3.40815 0
M  V30 7041 H 659.255 -2.44037 -1.73453 0
M  V30 7042 H 656.801 -1.17456 -0.833071 0
M  V30 7043 H 658.754 -1.4445 -3.95869 0
M  V30 7044 H 657.478 -0.432716 -3.23721 0
M  V30 7045 H 656.137 -2.4932 -2.68766 0
M  V30 7046 H 655.785 -1.30226 -4.8585 0
M  V30 7047 H 655.485 -3.05065 -5.02204 0
M  V30 7048 H 657.009 -2.34897 -5.63609 0
M  V30 7049 H 658.423 -4.01508 -4.09224 0
M  V30 7050 H 656.82 -4.71148 -3.71672 0
M  V30 7051 H 657.89 -4.21786 -2.39216 0
M  V30 7052 N 659.233 0.902656 -1.29189 0
M  V30 7053 C 660.649 1.18296 -1.07137 0
M  V30 7054 C 660.849 2.00701 0.179223 0
M  V30 7055 O 659.905 2.3675 0.877812 0
M  V30 7056 C 661.218 1.90677 -2.32514 0
M  V30 7057 C 662.766 2.03515 -2.37804 0
M  V30 7058 C 663.241 2.79307 -3.62976 0
M  V30 7059 N 664.732 2.86862 -3.63681 0
M  V30 7060 C 665.467 3.46035 -4.57217 0
M  V30 7061 N 664.963 4.06399 -5.61081 0
M  V30 7062 N 666.756 3.43681 -4.44792 0
M  V30 7063 H 658.907 0.352765 -2.0945 0
M  V30 7064 H 661.17 0.21876 -0.922414 0
M  V30 7065 H 660.876 1.3756 -3.23682 0
M  V30 7066 H 660.75 2.91169 -2.39793 0
M  V30 7067 H 663.137 2.55809 -1.47125 0
M  V30 7068 H 663.218 1.02166 -2.34512 0
M  V30 7069 H 662.862 2.2769 -4.54004 0
M  V30 7070 H 662.792 3.80995 -3.63525 0
M  V30 7071 H 665.283 2.43987 -2.88581 0
M  V30 7072 H 665.596 4.49564 -6.2858 0
M  V30 7073 H 663.941 4.0487 -5.64894 0
M  V30 7074 H 667.132 2.9574 -3.62843 0
M  V30 7075 H 667.305 3.89503 -5.17872 0
M  V30 7076 N 660.711 1.11618 1.11262 0
M  V30 7077 C 661.674 0.779447 2.15539 0
M  V30 7078 C 662.674 -0.202081 1.59525 0
M  V30 7079 O 663.864 0.0226356 1.74185 0
M  V30 7080 C 660.996 0.15674 3.40539 0
M  V30 7081 H 662.189 1.70324 2.4684 0
M  V30 7082 H 659.742 0.918298 1.26479 0
M  V30 7083 H 660.477 -0.777186 3.1485 0
M  V30 7084 H 660.262 0.863308 3.82478 0
M  V30 7085 H 661.752 -0.062661 4.17553 0
M  V30 7086 N 662.189 -1.289 0.906776 0
M  V30 7087 C 663.152 -2.25777 0.394656 0
M  V30 7088 C 664.152 -1.53621 -0.475119 0
M  V30 7089 O 665.342 -1.71949 -0.279165 0
M  V30 7090 C 662.474 -3.38113 -0.43499 0
M  V30 7091 H 663.667 -2.72592 1.25033 0
M  V30 7092 H 661.22 -1.40463 0.685547 0
M  V30 7093 H 661.955 -2.96648 -1.31036 0
M  V30 7094 H 661.74 -3.91647 0.188334 0
M  V30 7095 H 663.23 -4.10168 -0.784365 0
M  V30 7096 N 663.667 -0.670007 -1.42649 0
M  V30 7097 C 664.597 -0.00258501 -2.335 0
M  V30 7098 C 665.578 0.794364 -1.50412 0
M  V30 7099 O 666.763 0.75248 -1.79029 0
M  V30 7100 C 663.893 0.952748 -3.33976 0
M  V30 7101 C 662.847 0.264733 -4.2718 0
M  V30 7102 C 662.173 1.33267 -5.17826 0
M  V30 7103 C 663.473 -0.853289 -5.15283 0
M  V30 7104 H 665.167 -0.761326 -2.89559 0
M  V30 7105 H 662.713 -0.367561 -1.3923 0
M  V30 7106 H 664.666 1.4287 -3.96442 0
M  V30 7107 H 663.39 1.74285 -2.7621 0
M  V30 7108 H 662.049 -0.190938 -3.66102 0
M  V30 7109 H 661.697 2.11464 -4.5639 0
M  V30 7110 H 661.397 0.877476 -5.81011 0
M  V30 7111 H 662.921 1.80965 -5.83167 0
M  V30 7112 H 664.335 -0.458763 -5.71462 0
M  V30 7113 H 662.732 -1.23398 -5.87276 0
M  V30 7114 H 663.802 -1.70412 -4.53969 0
M  V30 7115 N 665.145 1.52092 -0.413018 0
M  V30 7116 C 666.393 2.01456 0.161178 0
M  V30 7117 C 666.714 1.30034 1.45314 0
M  V30 7118 O 665.984 0.427435 1.9118 0
M  V30 7119 H 664.564 0.744376 0.0625526 0
M  V30 7120 H 667.226 1.86974 -0.550151 0
M  V30 7121 H 666.322 3.1008 0.354517 0
M  V30 7122 N 666.623 0.143563 1.56945 0
M  V30 7123 C 667.863 -0.511198 1.97904 0
M  V30 7124 C 668.227 -1.62262 1.0264 0
M  V30 7125 O 669.428 -2.338 1.32631 0
M  V30 7126 C 667.699 -1.00753 3.42905 0
M  V30 7127 S 669.258 -1.66737 4.05887 0
M  V30 7128 H 666.076 -0.165399 0.691494 0
M  V30 7129 H 668.678 0.234464 1.94089 0
M  V30 7130 H 667.382 -0.187817 4.0997 0
M  V30 7131 H 666.913 -1.7879 3.50425 0
M  V30 7132 H 668.928 -2.95444 3.98657 0
M  V30 7133 N 668.101 -1.57061 -0.130224 0
M  V30 7134 C 669.033 -1.96147 -1.18571 0
M  V30 7135 C 670.046 -0.859347 -1.38272 0
M  V30 7136 O 671.235 -1.13769 -1.37545 0
M  V30 7137 C 668.335 -2.23484 -2.54771 0
M  V30 7138 C 667.508 -3.54786 -2.55824 0
M  V30 7139 C 666.567 -3.70467 -3.73686 0
M  V30 7140 O 665.593 -4.42693 -3.57787 0
M  V30 7141 N 666.795 -3.08389 -4.91809 0
M  V30 7142 H 669.56 -2.87295 -0.853333 0
M  V30 7143 H 667.121 -1.58714 -0.319621 0
M  V30 7144 H 669.113 -2.312 -3.32158 0
M  V30 7145 H 667.683 -1.38518 -2.80235 0
M  V30 7146 H 666.903 -3.5836 -1.64232 0
M  V30 7147 H 668.191 -4.4111 -2.53573 0
M  V30 7148 H 667.589 -2.49656 -5.0763 0
M  V30 7149 H 666.146 -3.21642 -5.66912 0
M  V30 7150 N 669.579 0.400081 -1.52437 0
M  V30 7151 C 670.826 1.14619 -1.6694 0
M  V30 7152 C 671.154 1.90262 -0.403797 0
M  V30 7153 O 670.409 1.85835 0.61351 0
M  V30 7154 C 670.708 2.15914 -2.84808 0
M  V30 7155 C 670.374 1.57011 -4.2268 0
M  V30 7156 C 669.036 1.40672 -4.60179 0
M  V30 7157 C 671.388 1.14081 -5.08562 0
M  V30 7158 C 668.716 0.799335 -5.81229 0
M  V30 7159 C 671.068 0.547573 -6.30226 0
M  V30 7160 C 669.732 0.371389 -6.66466 0
M  V30 7161 H 669.002 0.419419 -0.610875 0
M  V30 7162 H 671.649 0.432227 -1.86558 0
M  V30 7163 H 669.954 2.93488 -2.59561 0
M  V30 7164 H 671.651 2.73533 -2.93225 0
M  V30 7165 H 668.241 1.70713 -3.93135 0
M  V30 7166 H 672.425 1.2551 -4.80168 0
M  V30 7167 H 667.681 0.65093 -6.07925 0
M  V30 7168 H 671.855 0.206575 -6.96094 0
M  V30 7169 H 669.482 -0.10135 -7.60132 0
M  V30 7170 N 671.057 1.43213 0.657864 0
M  V30 7171 C 672.287 1.478 1.44356 0
M  V30 7172 C 672.695 0.0930206 1.88971 0
M  V30 7173 O 672.038 -0.906089 1.59799 0
M  V30 7174 C 672.1 2.35745 2.71412 0
M  V30 7175 C 671.764 3.83359 2.48767 0
M  V30 7176 C 672.761 4.74585 2.12285 0
M  V30 7177 C 670.446 4.27799 2.63235 0
M  V30 7178 C 672.44 6.08247 1.90562 0
M  V30 7179 C 670.127 5.61516 2.41128 0
M  V30 7180 C 671.125 6.51557 2.04847 0
M  V30 7181 O 670.813 7.82802 1.82967 0
M  V30 7182 H 670.545 0.504363 0.450104 0
M  V30 7183 H 673.099 1.88572 0.814241 0
M  V30 7184 H 671.329 1.89852 3.36887 0
M  V30 7185 H 673.018 2.31589 3.33348 0
M  V30 7186 H 673.784 4.41531 2.00687 0
M  V30 7187 H 669.663 3.57993 2.90451 0
M  V30 7188 H 673.207 6.78489 1.62168 0
M  V30 7189 H 669.104 5.94139 2.52327 0
M  V30 7190 H 669.872 7.94332 1.97429 0
M  V30 7191 N 672.536 -0.895792 1.29666 0
M  V30 7192 C 673.446 -2.03329 1.17024 0
M  V30 7193 C 674.462 -1.73753 0.0925962 0
M  V30 7194 O 675.638 -1.99071 0.305431 0
M  V30 7195 C 672.703 -3.36072 0.851841 0
M  V30 7196 C 671.764 -3.7914 2.01373 0
M  V30 7197 C 670.997 -5.05549 1.71043 0
M  V30 7198 O 671.22 -5.66874 0.633213 0
M  V30 7199 O 670.154 -5.44764 2.5596 0
M  V30 7200 H 673.98 -2.16918 2.12556 0
M  V30 7201 H 671.565 -1.02007 1.09156 0
M  V30 7202 H 673.447 -4.15729 0.689006 0
M  V30 7203 H 672.122 -3.23616 -0.0736634 0
M  V30 7204 H 671.029 -3.00233 2.23183 0
M  V30 7205 H 672.362 -3.96186 2.92058 0
M  V30 7206 N 674.014 -1.12206 -1.10668 0
M  V30 7207 C 675.262 -0.874144 -1.82217 0
M  V30 7208 C 675.583 0.601736 -1.85484 0
M  V30 7209 O 674.853 1.43725 -1.33116 0
M  V30 7210 H 673.433 -0.320404 -0.674797 0
M  V30 7211 H 676.095 -1.41606 -1.33917 0
M  V30 7212 H 675.191 -1.25349 -2.85822 0
M  V30 7213 N 675.492 1.28418 -0.913599 0
M  V30 7214 C 676.722 1.98817 -0.56172 0
M  V30 7215 C 677.13 1.68457 0.861321 0
M  V30 7216 O 676.473 0.933653 1.58204 0
M  V30 7217 C 676.535 3.52801 -0.690785 0
M  V30 7218 C 676.199 4.0675 -2.08334 0
M  V30 7219 C 677.196 4.20597 -3.05604 0
M  V30 7220 C 674.881 4.41445 -2.39648 0
M  V30 7221 C 676.875 4.68392 -4.32305 0
M  V30 7222 C 674.562 4.88934 -3.66588 0
M  V30 7223 C 675.56 5.02364 -4.6273 0
M  V30 7224 O 675.248 5.48817 -5.87414 0
M  V30 7225 H 674.98 0.641608 -0.212874 0
M  V30 7226 H 677.534 1.64584 -1.22887 0
M  V30 7227 H 675.764 3.86686 0.0334336 0
M  V30 7228 H 677.453 4.04422 -0.346031 0
M  V30 7229 H 678.219 3.94067 -2.8273 0
M  V30 7230 H 674.098 4.30242 -1.65567 0
M  V30 7231 H 677.642 4.7879 -5.07352 0
M  V30 7232 H 673.539 5.14904 -3.89287 0
M  V30 7233 H 674.307 5.67103 -5.90201 0
M  V30 7234 N 676.97 0.677563 1.42291 0
M  V30 7235 C 678.218 0.200578 2.01102 0
M  V30 7236 C 678.539 -1.19803 1.53858 0
M  V30 7237 O 677.809 -1.80496 0.761439 0
M  V30 7238 H 676.389 0.0711634 0.743603 0
M  V30 7239 H 679.051 0.874691 1.7417 0
M  V30 7240 H 678.147 0.204 3.11433 0
M  V30 7241 N 678.448 -1.51871 0.421078 0
M  V30 7242 C 679.38 -2.25052 -0.434065 0
M  V30 7243 C 680.393 -1.28458 -1.00013 0
M  V30 7244 O 681.582 -1.54323 -0.897033 0
M  V30 7245 C 678.682 -2.97813 -1.61743 0
M  V30 7246 C 677.855 -4.21374 -1.17315 0
M  V30 7247 C 676.914 -4.76854 -2.22478 0
M  V30 7248 O 675.94 -5.39123 -1.82577 0
M  V30 7249 N 677.142 -4.59467 -3.54782 0
M  V30 7250 H 679.907 -2.99077 0.193073 0
M  V30 7251 H 677.468 -1.59972 0.249088 0
M  V30 7252 H 679.46 -3.3182 -2.31685 0
M  V30 7253 H 678.03 -2.26899 -2.15024 0
M  V30 7254 H 677.25 -3.93046 -0.3014 0
M  V30 7255 H 678.538 -5.01591 -0.853444 0
M  V30 7256 H 677.936 -4.09832 -3.89941 0
M  V30 7257 H 676.493 -4.9788 -4.20665 0
M  V30 7258 N 679.926 -0.151884 -1.56866 0
M  V30 7259 C 681.154 0.504813 -2.00647 0
M  V30 7260 C 681.569 1.58098 -1.03201 0
M  V30 7261 O 680.926 1.82476 -0.0297814 0
M  V30 7262 C 680.977 1.10099 -3.44326 0
M  V30 7263 O 680.698 0.0678021 -4.38048 0
M  V30 7264 C 682.199 1.83782 -4.03409 0
M  V30 7265 H 679.419 0.130989 -0.65809 0
M  V30 7266 H 681.963 -0.247903 -2.02992 0
M  V30 7267 H 680.118 1.8043 -3.42817 0
M  V30 7268 H 680.532 0.505237 -5.22061 0
M  V30 7269 H 682.006 2.2078 -5.05925 0
M  V30 7270 H 682.483 2.72557 -3.44397 0
M  V30 7271 H 683.089 1.18138 -4.08563 0
M  V30 7272 N 681.404 1.57128 0.121893 0
M  V30 7273 C 682.314 2.03425 1.16857 0
M  V30 7274 C 683.33 0.954108 1.45509 0
M  V30 7275 O 684.506 1.26541 1.56682 0
M  V30 7276 C 681.571 2.42685 2.47599 0
M  V30 7277 C 680.632 3.64767 2.2637 0
M  V30 7278 C 679.865 4.02145 3.50878 0
M  V30 7279 O 680.088 3.39897 4.58068 0
M  V30 7280 O 679.022 4.95262 3.42051 0
M  V30 7281 H 682.848 2.92825 0.80544 0
M  V30 7282 H 680.433 1.45654 0.332477 0
M  V30 7283 H 682.315 2.68684 3.24634 0
M  V30 7284 H 680.99 1.56432 2.83392 0
M  V30 7285 H 679.897 3.43922 1.47203 0
M  V30 7286 H 681.23 4.51716 1.95482 0
M  V30 7287 N 682.882 -0.391992 1.52647 0
M  V30 7288 C 684.122 -1.1463 1.69232 0
M  V30 7289 C 684.486 -1.87312 0.421684 0
M  V30 7290 O 685.687 -2.64768 0.463852 0
M  V30 7291 C 683.958 -2.10088 2.89133 0
M  V30 7292 S 685.517 -2.93395 3.2629 0
M  V30 7293 H 682.335 -0.388076 0.59575 0
M  V30 7294 H 684.937 -0.431149 1.90687 0
M  V30 7295 H 683.641 -1.55408 3.79837 0
M  V30 7296 H 683.172 -2.86116 2.70003 0
M  V30 7297 H 685.187 -4.12193 2.76244 0
M  V30 7298 N 684.36 -1.4356 -0.65026 0
M  V30 7299 C 685.588 -1.48779 -1.43779 0
M  V30 7300 C 686.003 -0.106593 -1.88499 0
M  V30 7301 O 685.36 0.883766 -1.59674 0
M  V30 7302 C 685.411 -2.43618 -2.67081 0
M  V30 7303 O 685.132 -3.76367 -2.24231 0
M  V30 7304 C 686.633 -2.5811 -3.60409 0
M  V30 7305 H 683.853 -0.50521 -0.441593 0
M  V30 7306 H 686.397 -1.88332 -0.796941 0
M  V30 7307 H 684.552 -2.07253 -3.273 0
M  V30 7308 H 684.966 -4.27394 -3.0403 0
M  V30 7309 H 686.44 -3.28539 -4.43583 0
M  V30 7310 H 686.917 -1.627 -4.07953 0
M  V30 7311 H 687.523 -2.95298 -3.0607 0
M  V30 7312 N 685.838 0.888903 -1.30139 0
M  V30 7313 C 686.801 1.97576 -1.16174 0
M  V30 7314 C 687.801 1.60525 -0.094086 0
M  V30 7315 O 688.991 1.70812 -0.341889 0
M  V30 7316 C 686.123 3.3188 -0.778983 0
M  V30 7317 H 687.316 2.11393 -2.12728 0
M  V30 7318 H 684.869 1.0748 -1.1348 0
M  V30 7319 H 685.604 3.23765 0.186225 0
M  V30 7320 H 685.389 3.60141 -1.55051 0
M  V30 7321 H 686.879 4.11612 -0.704631 0
M  V30 7322 N 687.317 1.12792 1.10072 0
M  V30 7323 C 688.565 0.883796 1.81751 0
M  V30 7324 C 688.886 -0.591891 1.858 0
M  V30 7325 O 688.156 -1.43017 1.33876 0
M  V30 7326 H 686.736 0.323978 0.673088 0
M  V30 7327 H 689.398 1.42314 1.33164 0
M  V30 7328 H 688.494 1.26863 2.85153 0
M  V30 7329 N 688.795 -1.27931 0.920396 0
M  V30 7330 C 690.035 -1.96459 0.564198 0
M  V30 7331 C 690.399 -1.70802 -0.876967 0
M  V30 7332 O 691.6 -2.32956 -1.34107 0
M  V30 7333 C 689.871 -3.46583 0.872641 0
M  V30 7334 S 691.43 -4.34343 0.623859 0
M  V30 7335 H 688.248 -0.679735 0.208523 0
M  V30 7336 H 690.85 -1.55319 1.18727 0
M  V30 7337 H 689.554 -3.62753 1.91933 0
M  V30 7338 H 689.085 -3.92677 0.238479 0
M  V30 7339 H 691.1 -4.93449 -0.521744 0
M  V30 7340 N 690.273 -0.685099 -1.4193 0
M  V30 7341 C 691.513 -0.215676 -2.03259 0
M  V30 7342 C 691.877 1.15934 -1.53047 0
M  V30 7343 O 693.078 1.72401 -2.06231 0
M  V30 7344 C 691.349 -0.259649 -3.56456 0
M  V30 7345 S 692.908 0.137262 -4.38585 0
M  V30 7346 H 689.726 -0.0877362 -0.705566 0
M  V30 7347 H 692.328 -0.900547 -1.73523 0
M  V30 7348 H 691.032 -1.26256 -3.90497 0
M  V30 7349 H 690.563 0.444716 -3.90878 0
M  V30 7350 H 692.578 1.36787 -4.76973 0
M  V30 7351 N 691.751 1.51645 -0.429126 0
M  V30 7352 C 692.681 2.30434 0.377148 0
M  V30 7353 C 693.662 1.35493 1.02838 0
M  V30 7354 O 694.847 1.6441 1.03359 0
M  V30 7355 C 691.977 3.14038 1.48315 0
M  V30 7356 C 690.931 4.1719 0.955855 0
M  V30 7357 C 690.257 4.89263 2.15698 0
M  V30 7358 C 691.557 5.223 -0.00402136 0
M  V30 7359 H 693.251 2.98085 -0.280336 0
M  V30 7360 H 690.797 1.43354 -0.136265 0
M  V30 7361 H 692.75 3.67933 2.05435 0
M  V30 7362 H 691.474 2.44193 2.16881 0
M  V30 7363 H 690.133 3.64335 0.406929 0
M  V30 7364 H 689.781 4.15929 2.82864 0
M  V30 7365 H 689.481 5.59009 1.81059 0
M  V30 7366 H 691.005 5.45978 2.73387 0
M  V30 7367 H 692.419 5.71315 0.476607 0
M  V30 7368 H 690.816 5.99525 -0.26258 0
M  V30 7369 H 691.886 4.75638 -0.943236 0
M  V30 7370 N 693.229 0.160201 1.56784 0
M  V30 7371 C 694.457 -0.494165 2.00912 0
M  V30 7372 C 694.872 -1.57548 1.04038 0
M  V30 7373 O 694.229 -1.82457 0.0394581 0
M  V30 7374 C 694.28 -1.08271 3.44905 0
M  V30 7375 O 694.001 -0.0445704 4.38077 0
M  V30 7376 C 695.502 -1.8164 4.04378 0
M  V30 7377 H 692.722 -0.127498 0.658776 0
M  V30 7378 H 695.266 0.258665 2.02858 0
M  V30 7379 H 693.421 -1.78609 3.4377 0
M  V30 7380 H 693.835 -0.477544 5.22322 0
M  V30 7381 H 695.309 -2.18094 5.07089 0
M  V30 7382 H 695.786 -2.70727 3.45838 0
M  V30 7383 H 696.392 -1.15969 4.09184 0
M  V30 7384 N 694.707 -1.5719 -0.113559 0
M  V30 7385 C 695.64 -1.9595 -1.16957 0
M  V30 7386 C 696.618 -0.829951 -1.39823 0
M  V30 7387 O 697.802 -1.08861 -1.53888 0
M  V30 7388 C 694.929 -2.2604 -2.52237 0
M  V30 7389 C 693.975 -3.48571 -2.45765 0
M  V30 7390 S 694.808 -5.00962 -1.89203 0
M  V30 7391 C 695.964 -5.3421 -3.26145 0
M  V30 7392 H 696.197 -2.85214 -0.839069 0
M  V30 7393 H 693.73 -1.51036 -0.320529 0
M  V30 7394 H 695.688 -2.44054 -3.30073 0
M  V30 7395 H 694.349 -1.3738 -2.82463 0
M  V30 7396 H 693.542 -3.67008 -3.45429 0
M  V30 7397 H 693.144 -3.29972 -1.76053 0
M  V30 7398 H 695.436 -5.29725 -4.22371 0
M  V30 7399 H 696.379 -6.35398 -3.12529 0
M  V30 7400 H 696.787 -4.61681 -3.24825 0
M  V30 7401 N 696.185 0.383891 -1.52853 0
M  V30 7402 C 697.596 0.961591 -1.60032 0
M  V30 7403 C 697.947 1.90819 -0.456333 0
M  V30 7404 O 697.072 2.12288 0.419873 0
M  V30 7405 C 697.667 1.75078 -2.90057 0
M  V30 7406 C 696.226 2.2781 -2.99632 0
M  V30 7407 C 695.373 1.08512 -2.55187 0
M  V30 7408 H 698.324 0.163269 -1.57858 0
M  V30 7409 H 698.345 2.61046 -2.7683 0
M  V30 7410 H 697.857 1.06157 -3.73299 0
M  V30 7411 H 695.958 3.00028 -2.20939 0
M  V30 7412 H 696.071 2.56947 -4.0437 0
M  V30 7413 H 694.435 1.44667 -2.09627 0
M  V30 7414 H 695.218 0.41118 -3.40829 0
M  V30 7415 N 697.663 1.43903 0.642637 0
M  V30 7416 C 698.911 1.45791 1.39962 0
M  V30 7417 C 699.232 0.0873144 1.94804 0
M  V30 7418 O 698.502 -0.878825 1.75081 0
M  V30 7419 H 697.082 0.536797 0.519479 0
M  V30 7420 H 699.744 1.7959 0.757189 0
M  V30 7421 H 698.84 2.17665 2.2367 0
M  V30 7422 N 699.141 -0.881989 1.30609 0
M  V30 7423 C 700.418 -1.61563 1.10258 0
M  V30 7424 C 700.798 -2.08228 -0.347053 0
M  V30 7425 O 700.146 -1.85151 -1.33908 0
M  V30 7426 C 700.356 -2.78287 2.10612 0
M  V30 7427 C 701.704 -3.48545 2.4249 0
M  V30 7428 O 702.728 -2.88479 2.08945 0
M  V30 7429 O 701.587 -4.56873 2.99883 0
M  V30 7430 H 698.681 -0.710238 0.423663 0
M  V30 7431 H 701.227 -0.928503 1.42045 0
M  V30 7432 H 699.999 -2.41131 3.08174 0
M  V30 7433 H 699.622 -3.54695 1.79659 0
M  V30 7434 N 700.619 -1.13374 -1.09472 0
M  V30 7435 C 701.865 -0.906459 -1.82085 0
M  V30 7436 C 702.22 0.5614 -1.84027 0
M  V30 7437 O 701.513 1.41012 -1.29716 0
M  V30 7438 C 701.707 -1.42759 -3.2765 0
M  V30 7439 C 701.536 -2.94459 -3.39888 0
M  V30 7440 C 700.306 -3.62798 -3.51718 0
M  V30 7441 C 702.504 -3.92398 -3.32457 0
M  V30 7442 N 700.486 -5.02516 -3.52635 0
M  V30 7443 C 701.857 -5.18304 -3.40237 0
M  V30 7444 C 703.912 -3.84671 -3.16122 0
M  V30 7445 C 702.615 -6.37386 -3.33364 0
M  V30 7446 C 704.641 -5.03287 -3.10574 0
M  V30 7447 C 704.003 -6.28055 -3.18945 0
M  V30 7448 H 700.102 -0.385097 -0.680606 0
M  V30 7449 H 702.686 -1.44187 -1.30836 0
M  V30 7450 H 700.857 -0.919102 -3.77369 0
M  V30 7451 H 702.589 -1.14136 -3.88272 0
M  V30 7452 H 699.344 -3.13317 -3.55147 0
M  V30 7453 H 699.768 -5.75421 -3.56679 0
M  V30 7454 H 704.41 -2.89094 -3.0852 0
M  V30 7455 H 702.128 -7.33219 -3.3973 0
M  V30 7456 H 705.714 -4.99047 -2.9907 0
M  V30 7457 H 704.594 -7.18299 -3.14668 0
M  V30 7458 N 702.098 1.27442 -0.927168 0
M  V30 7459 C 703.326 1.98498 -0.583622 0
M  V30 7460 C 703.741 1.69171 0.838241 0
M  V30 7461 O 703.098 0.951969 1.55704 0
M  V30 7462 C 703.149 3.52552 -0.799341 0
M  V30 7463 O 702.87 3.80851 -2.16527 0
M  V30 7464 C 704.371 4.4086 -0.464436 0
M  V30 7465 H 701.591 0.633487 -0.221213 0
M  V30 7466 H 704.135 1.62308 -1.24404 0
M  V30 7467 H 702.29 3.86955 -0.185728 0
M  V30 7468 H 702.704 4.75441 -2.21487 0
M  V30 7469 H 704.178 5.47967 -0.666075 0
M  V30 7470 H 704.655 4.35082 0.599995 0
M  V30 7471 H 705.261 4.11977 -1.05617 0
M  V30 7472 N 703.576 0.692616 1.41565 0
M  V30 7473 C 704.539 0.0344174 2.29174 0
M  V30 7474 C 705.539 -0.710961 1.44229 0
M  V30 7475 O 706.729 -0.546293 1.65412 0
M  V30 7476 C 703.861 -0.961682 3.27054 0
M  V30 7477 H 705.054 0.805755 2.88873 0
M  V30 7478 H 702.607 0.455947 1.49502 0
M  V30 7479 H 703.342 -1.76089 2.72329 0
M  V30 7480 H 703.127 -0.430375 3.89731 0
M  V30 7481 H 704.617 -1.4201 3.92712 0
M  V30 7482 N 705.054 -1.51416 0.437162 0
M  V30 7483 C 706.302 -2.01687 -0.129108 0
M  V30 7484 C 706.623 -1.32329 -1.43227 0
M  V30 7485 O 705.893 -0.457796 -1.90476 0
M  V30 7486 H 704.473 -0.745277 -0.0507023 0
M  V30 7487 H 707.135 -1.86075 0.579828 0
M  V30 7488 H 706.231 -3.10605 -0.305141 0
M  V30 7489 N 706.532 -0.168513 -1.56696 0
M  V30 7490 C 707.482 0.7751 -2.14421 0
M  V30 7491 C 708.466 1.19476 -1.07769 0
M  V30 7492 O 709.658 1.15759 -1.33898 0
M  V30 7493 C 706.787 2.00549 -2.7863 0
M  V30 7494 C 705.873 1.60795 -3.92436 0
M  V30 7495 N 706.264 0.919812 -4.97366 0
M  V30 7496 C 704.562 1.89917 -4.03544 0
M  V30 7497 C 705.263 0.724485 -5.77171 0
M  V30 7498 N 704.239 1.26505 -5.28675 0
M  V30 7499 H 708.041 0.240349 -2.92916 0
M  V30 7500 H 705.555 0.0322675 -1.62368 0
M  V30 7501 H 707.552 2.6917 -3.1836 0
M  V30 7502 H 706.212 2.54522 -2.01615 0
M  V30 7503 H 707.223 0.578169 -5.14663 0
M  V30 7504 H 703.9 2.45587 -3.37629 0
M  V30 7505 H 705.29 0.180521 -6.71657 0
M  V30 7506 N 708.01 1.57248 0.105221 0
M  V30 7507 C 709.256 1.85845 0.811753 0
M  V30 7508 C 709.589 0.756219 1.78871 0
M  V30 7509 O 708.864 -0.236736 1.93054 0
M  V30 7510 C 709.147 3.25059 1.54947 0
M  V30 7511 C 709 4.45898 0.591185 0
M  V30 7512 C 710.319 3.6203 2.50245 0
M  V30 7513 H 707.438 0.675973 0.293649 0
M  V30 7514 H 710.08 1.89849 0.0756269 0
M  V30 7515 H 708.23 3.21776 2.17698 0
M  V30 7516 H 709.902 4.61291 -0.0285352 0
M  V30 7517 H 708.145 4.33693 -0.0962343 0
M  V30 7518 H 708.816 5.40009 1.1443 0
M  V30 7519 H 711.292 3.66192 1.97593 0
M  V30 7520 H 710.168 4.60389 2.98886 0
M  V30 7521 H 710.429 2.90176 3.33542 0
M  V30 7522 N 709.488 -0.375779 1.53054 0
M  V30 7523 C 710.736 -1.11727 1.68409 0
M  V30 7524 C 711.057 -1.90127 0.43323 0
M  V30 7525 O 710.327 -1.87945 -0.552595 0
M  V30 7526 H 708.907 -0.415451 0.620813 0
M  V30 7527 H 711.569 -0.424869 1.90213 0
M  V30 7528 H 710.665 -1.8128 2.54055 0
M  V30 7529 N 710.966 -1.44241 -0.634997 0
M  V30 7530 C 711.929 -1.50457 -1.72903 0
M  V30 7531 C 712.929 -0.387058 -1.56072 0
M  V30 7532 O 714.119 -0.649531 -1.61638 0
M  V30 7533 C 711.251 -1.37477 -3.1195 0
M  V30 7534 H 712.444 -2.47907 -1.68767 0
M  V30 7535 H 709.997 -1.31276 -0.84831 0
M  V30 7536 H 710.732 -0.41106 -3.21684 0
M  V30 7537 H 710.517 -2.18506 -3.25573 0
M  V30 7538 H 712.007 -1.44799 -3.91692 0
M  V30 7539 N 712.444 0.87505 -1.31075 0
M  V30 7540 C 713.855 1.4433 -1.18431 0
M  V30 7541 C 714.206 1.9506 0.211189 0
M  V30 7542 O 713.331 1.85847 1.10859 0
M  V30 7543 C 713.926 2.62341 -2.14389 0
M  V30 7544 C 712.485 3.15225 -2.05694 0
M  V30 7545 C 711.632 1.87929 -2.03907 0
M  V30 7546 H 714.583 0.684061 -1.432 0
M  V30 7547 H 714.604 3.3887 -1.73053 0
M  V30 7548 H 714.116 2.25388 -3.15946 0
M  V30 7549 H 712.217 3.56812 -1.07314 0
M  V30 7550 H 712.33 3.77853 -2.94558 0
M  V30 7551 H 710.694 2.06679 -1.48849 0
M  V30 7552 H 711.477 1.53221 -3.07211 0
M  V30 7553 N 713.922 1.13953 1.08869 0
M  V30 7554 C 714.855 0.765765 2.14968 0
M  V30 7555 C 715.833 -0.250689 1.60656 0
M  V30 7556 O 717.017 -0.140852 1.87973 0
M  V30 7557 C 714.144 0.136146 3.38426 0
M  V30 7558 C 713.19 1.12201 4.11477 0
M  V30 7559 S 714.023 2.65711 4.64928 0
M  V30 7560 C 715.179 2.04125 5.91679 0
M  V30 7561 H 715.412 1.66444 2.46341 0
M  V30 7562 H 712.945 0.960263 1.20906 0
M  V30 7563 H 714.903 -0.220712 4.09906 0
M  V30 7564 H 713.564 -0.739887 3.05261 0
M  V30 7565 H 712.757 0.629398 5.00055 0
M  V30 7566 H 712.359 1.42262 3.45886 0
M  V30 7567 H 714.651 1.39381 6.63008 0
M  V30 7568 H 715.594 2.90808 6.45629 0
M  V30 7569 H 716.002 1.4905 5.44467 0
M  V30 7570 N 715.4 -1.26948 0.933913 0
M  V30 7571 C 716.811 -1.76058 0.621324 0
M  V30 7572 C 717.162 -1.76175 -0.863522 0
M  V30 7573 O 716.287 -1.36921 -1.67576 0
M  V30 7574 C 716.882 -3.19713 1.12111 0
M  V30 7575 C 715.441 -3.66465 0.859074 0
M  V30 7576 C 714.588 -2.46186 1.27624 0
M  V30 7577 H 717.539 -1.13127 1.11301 0
M  V30 7578 H 717.56 -3.77566 0.471608 0
M  V30 7579 H 717.072 -3.19596 2.20182 0
M  V30 7580 H 715.173 -3.72021 -0.207566 0
M  V30 7581 H 715.286 -4.55636 1.48098 0
M  V30 7582 H 713.65 -2.45042 0.694727 0
M  V30 7583 H 714.433 -2.48774 2.36572 0
M  V30 7584 N 716.879 -0.700114 -1.41195 0
M  V30 7585 C 718.119 -0.237223 -2.03019 0
M  V30 7586 C 718.483 1.14304 -1.54268 0
M  V30 7587 O 719.684 1.70204 -2.08048 0
M  V30 7588 C 717.955 -0.297442 -3.5616 0
M  V30 7589 S 719.514 0.0907367 -4.38706 0
M  V30 7590 H 716.332 -0.0952147 -0.704596 0
M  V30 7591 H 718.934 -0.918901 -1.72559 0
M  V30 7592 H 717.638 -1.30391 -3.89135 0
M  V30 7593 H 717.169 0.403233 -3.91328 0
M  V30 7594 H 719.184 1.31721 -4.78397 0
M  V30 7595 N 718.357 1.51182 -0.445186 0
M  V30 7596 C 719.305 2.29531 0.376597 0
M  V30 7597 C 720.299 1.35711 1.01385 0
M  V30 7598 O 721.505 1.53018 0.947922 0
M  V30 7599 H 717.88 0.738803 0.140267 0
M  V30 7600 H 719.851 2.96838 -0.304958 0
M  V30 7601 C 718.6 3.1552 1.4609 0
M  V30 7602 H 717.923 3.87605 0.979912 0
M  V30 7603 H 719.363 3.73384 2.009 0
M  V30 7604 C 717.822 2.31406 2.44852 0
M  V30 7605 O 718.352 1.97912 3.49562 0
M  V30 7606 N 716.558 1.94478 2.15932 0
M  V30 7607 H 716.105 2.21917 1.30808 0
M  V30 7608 H 716.063 1.38498 2.82251 0
M  V30 7609 N 719.835 0.176821 1.56605 0
M  V30 7610 C 720.765 -0.746841 2.21234 0
M  V30 7611 C 721.746 -1.23502 1.16967 0
M  V30 7612 O 722.931 -1.28718 1.45414 0
M  V30 7613 C 720.061 -1.97407 2.8574 0
M  V30 7614 C 719.015 -1.62153 3.96094 0
M  V30 7615 C 718.341 -2.92387 4.47676 0
M  V30 7616 C 719.641 -0.845353 5.15413 0
M  V30 7617 H 721.335 -0.208116 2.98676 0
M  V30 7618 H 718.881 -0.0986594 1.43662 0
M  V30 7619 H 720.834 -2.62531 3.2963 0
M  V30 7620 H 719.558 -2.53703 2.05676 0
M  V30 7621 H 718.217 -0.993964 3.52868 0
M  V30 7622 H 717.865 -3.46734 3.64396 0
M  V30 7623 H 717.565 -2.69551 5.22127 0
M  V30 7624 H 719.089 -3.5853 4.94255 0
M  V30 7625 H 720.503 -1.39929 5.55961 0
M  V30 7626 H 718.9 -0.715814 5.95815 0
M  V30 7627 H 719.97 0.157239 4.84645 0
M  V30 7628 N 721.313 -1.57302 -0.09688 0
M  V30 7629 C 722.562 -1.85183 -0.799388 0
M  V30 7630 C 722.875 -0.765818 -1.79985 0
M  V30 7631 O 724.081 -0.931696 -2.55013 0
M  V30 7632 C 722.537 -3.28399 -1.47249 0
M  V30 7633 C 722.145 -4.45066 -0.511888 0
M  V30 7634 C 723.889 -3.65506 -2.15883 0
M  V30 7635 C 721.796 -5.79315 -1.18948 0
M  V30 7636 H 720.726 -0.690752 -0.302287 0
M  V30 7637 H 723.377 -1.83425 -0.0523104 0
M  V30 7638 H 721.759 -3.24692 -2.26697 0
M  V30 7639 H 722.933 -4.60116 0.250962 0
M  V30 7640 H 721.248 -4.16343 0.0686576 0
M  V30 7641 H 723.845 -4.63087 -2.67309 0
M  V30 7642 H 724.188 -2.94041 -2.94696 0
M  V30 7643 H 724.721 -3.71094 -1.43298 0
M  V30 7644 H 721.46 -6.54007 -0.442198 0
M  V30 7645 H 720.98 -5.68111 -1.9238 0
M  V30 7646 H 722.659 -6.23816 -1.71646 0
M  V30 7647 N 722.791 0.367657 -1.53252 0
M  V30 7648 C 723.738 1.45028 -1.79543 0
M  V30 7649 C 724.708 1.53288 -0.63969 0
M  V30 7650 O 725.893 1.69209 -0.881653 0
M  V30 7651 C 723.033 2.82 -1.98923 0
M  V30 7652 C 722.146 2.82722 -3.26638 0
M  V30 7653 C 721.281 4.11257 -3.36216 0
M  V30 7654 C 720.32 4.06113 -4.57972 0
M  V30 7655 N 719.457 5.26293 -4.64715 0
M  V30 7656 H 724.297 1.21908 -2.71923 0
M  V30 7657 H 721.834 0.591011 -1.34705 0
M  V30 7658 H 723.792 3.61568 -2.08146 0
M  V30 7659 H 722.422 3.03523 -1.09881 0
M  V30 7660 H 721.474 1.95399 -3.26379 0
M  V30 7661 H 722.786 2.74794 -4.16281 0
M  V30 7662 H 721.94 4.99239 -3.44739 0
M  V30 7663 H 720.679 4.21935 -2.44586 0
M  V30 7664 H 719.684 3.16517 -4.49552 0
M  V30 7665 H 720.909 3.97039 -5.50942 0
M  V30 7666 H 718.855 5.37561 -3.75985 0
M  V30 7667 H 718.772 5.20526 -5.4826 0
M  V30 7668 H 720.04 6.16113 -4.77519 0
M  V30 7669 N 724.269 1.44576 0.627338 0
M  V30 7670 C 725.199 1.54562 1.75022 0
M  V30 7671 C 726.18 0.398378 1.65369 0
M  V30 7672 O 727.365 0.61899 1.84071 0
M  V30 7673 C 724.495 1.49309 3.13567 0
M  V30 7674 C 723.449 2.62549 3.38012 0
M  V30 7675 C 722.775 2.42348 4.76625 0
M  V30 7676 C 724.075 4.04678 3.30202 0
M  V30 7677 H 725.769 2.4855 1.66922 0
M  V30 7678 H 723.315 1.19624 0.801636 0
M  V30 7679 H 725.268 1.54895 3.919 0
M  V30 7680 H 723.992 0.518392 3.2246 0
M  V30 7681 H 722.651 2.56358 2.62061 0
M  V30 7682 H 722.299 1.43062 4.82226 0
M  V30 7683 H 721.999 3.18273 4.93939 0
M  V30 7684 H 723.523 2.49758 5.57183 0
M  V30 7685 H 724.937 4.12217 3.98435 0
M  V30 7686 H 723.334 4.80836 3.5905 0
M  V30 7687 H 724.404 4.2798 2.27949 0
M  V30 7688 N 725.747 -0.868086 1.31537 0
M  V30 7689 C 726.993 -1.62367 1.2151 0
M  V30 7690 C 727.326 -1.92883 -0.225819 0
M  V30 7691 O 726.601 -1.56176 -1.15927 0
M  V30 7692 C 726.884 -2.95268 2.06129 0
M  V30 7693 C 726.737 -2.71619 3.58529 0
M  V30 7694 C 728.056 -3.96391 1.91212 0
M  V30 7695 H 725.175 -0.589178 0.442762 0
M  V30 7696 H 727.817 -1.00336 1.61347 0
M  V30 7697 H 725.967 -3.4821 1.72284 0
M  V30 7698 H 727.639 -2.25334 4.0252 0
M  V30 7699 H 725.882 -2.05817 3.81866 0
M  V30 7700 H 726.553 -3.66192 4.13047 0
M  V30 7701 H 729.029 -3.52663 2.20834 0
M  V30 7702 H 727.905 -4.87263 2.52718 0
M  V30 7703 H 728.166 -4.33335 0.875953 0
M  V30 7704 N 727.225 -1.14528 -1.08264 0
M  V30 7705 C 728.502 -0.825185 -1.77342 0
M  V30 7706 C 728.882 0.681037 -1.99813 0
M  V30 7707 O 728.23 1.62234 -1.60912 0
M  V30 7708 C 728.44 -1.62556 -3.08831 0
M  V30 7709 C 729.788 -1.82585 -3.83338 0
M  V30 7710 O 730.812 -1.59254 -3.18617 0
M  V30 7711 O 729.671 -2.21598 -4.99556 0
M  V30 7712 H 726.765 -0.302531 -0.769678 0
M  V30 7713 H 729.311 -1.25056 -1.14713 0
M  V30 7714 H 728.083 -2.64862 -2.88035 0
M  V30 7715 H 727.706 -1.1959 -3.79189 0
M  V30 7716 N 728.703 1.26451 -0.940633 0
M  V30 7717 C 729.949 1.94065 -0.58878 0
M  V30 7718 C 730.282 1.7363 0.869853 0
M  V30 7719 O 729.557 1.073 1.62225 0
M  V30 7720 C 729.84 3.47852 -0.931199 0
M  V30 7721 C 729.693 3.77575 -2.44453 0
M  V30 7722 C 731.012 4.37832 -0.446229 0
M  V30 7723 H 728.131 0.704827 -0.21538 0
M  V30 7724 H 730.773 1.4933 -1.17475 0
M  V30 7725 H 728.923 3.86085 -0.432539 0
M  V30 7726 H 730.595 3.49059 -3.01588 0
M  V30 7727 H 728.838 3.23671 -2.88825 0
M  V30 7728 H 729.509 4.85068 -2.63464 0
M  V30 7729 H 731.985 4.06822 -0.873778 0
M  V30 7730 H 730.861 5.44228 -0.714648 0
M  V30 7731 H 731.122 4.37239 0.653815 0
M  V30 7732 N 730.181 0.707592 1.40822 0
M  V30 7733 C 731.091 0.0507246 2.34545 0
M  V30 7734 C 732.107 -0.752727 1.56876 0
M  V30 7735 O 733.283 -0.687524 1.89302 0
M  V30 7736 C 730.348 -0.865731 3.35717 0
M  V30 7737 C 729.409 -0.0531313 4.29267 0
M  V30 7738 C 728.642 -0.925939 5.25606 0
M  V30 7739 O 728.865 -2.16531 5.27703 0
M  V30 7740 O 727.799 -0.369194 6.00767 0
M  V30 7741 H 731.625 0.823587 2.9232 0
M  V30 7742 H 729.21 0.46801 1.4188 0
M  V30 7743 H 731.092 -1.39091 3.97783 0
M  V30 7744 H 729.767 -1.61788 2.80368 0
M  V30 7745 H 728.674 0.516931 3.70511 0
M  V30 7746 H 730.007 0.660617 4.87747 0
M  V30 7747 N 731.66 -1.50943 0.453197 0
M  V30 7748 C 732.57 -2.31884 -0.355963 0
M  V30 7749 C 733.586 -1.41481 -1.01287 0
M  V30 7750 O 734.762 -1.74546 -1.00477 0
M  V30 7751 C 731.827 -3.15668 -1.43369 0
M  V30 7752 C 730.888 -4.2187 -0.795253 0
M  V30 7753 C 730.121 -5.0165 -1.82162 0
M  V30 7754 O 730.344 -4.82266 -3.04592 0
M  V30 7755 O 729.278 -5.85311 -1.40336 0
M  V30 7756 H 733.104 -3.02162 0.305248 0
M  V30 7757 H 730.689 -1.47839 0.215398 0
M  V30 7758 H 732.571 -3.67709 -2.05836 0
M  V30 7759 H 731.246 -2.48137 -2.07869 0
M  V30 7760 H 730.153 -3.73867 -0.132106 0
M  V30 7761 H 731.486 -4.9182 -0.193484 0
M  V30 7762 N 733.138 -0.185124 -1.56509 0
M  V30 7763 C 734.071 0.77877 -2.145 0
M  V30 7764 C 735.049 1.21649 -1.07891 0
M  V30 7765 O 736.233 1.30579 -1.35946 0
M  V30 7766 C 733.36 2.05048 -2.69579 0
M  V30 7767 C 732.406 1.75569 -3.88687 0
M  V30 7768 S 733.239 0.912642 -5.27666 0
M  V30 7769 C 734.395 2.19471 -5.8616 0
M  V30 7770 H 734.628 0.285751 -2.95924 0
M  V30 7771 H 732.161 0.0297417 -1.54371 0
M  V30 7772 H 734.119 2.78085 -3.01958 0
M  V30 7773 H 732.78 2.51462 -1.88216 0
M  V30 7774 H 731.973 2.69962 -4.25601 0
M  V30 7775 H 731.575 1.10619 -3.57267 0
M  V30 7776 H 733.867 3.14815 -5.99915 0
M  V30 7777 H 734.81 1.87005 -6.8296 0
M  V30 7778 H 735.218 2.31862 -5.14685 0
M  V30 7779 N 734.616 1.57351 0.0885366 0
M  V30 7780 C 735.564 2.03542 1.12576 0
M  V30 7781 C 736.558 0.937668 1.41082 0
M  V30 7782 O 737.764 1.12283 1.40686 0
M  V30 7783 H 734.139 0.648752 0.380296 0
M  V30 7784 H 736.11 2.89833 0.709906 0
M  V30 7785 C 734.859 2.4811 2.43591 0
M  V30 7786 H 734.182 3.32164 2.22502 0
M  V30 7787 H 735.622 2.842 3.14653 0
M  V30 7788 C 734.081 1.35708 3.08359 0
M  V30 7789 O 734.611 0.689852 3.95732 0
M  V30 7790 N 732.817 1.10641 2.68713 0
M  V30 7791 H 732.364 1.6508 1.97753 0
M  V30 7792 H 732.322 0.356355 3.12374 0
M  V30 7793 N 736.094 -0.359525 1.53444 0
M  V30 7794 C 737.324 -1.12036 1.73585 0
M  V30 7795 C 737.732 -1.83335 0.467438 0
M  V30 7796 O 737.075 -1.74641 -0.569753 0
M  V30 7797 C 737.137 -2.19036 2.85068 0
M  V30 7798 C 736.801 -1.67451 4.25217 0
M  V30 7799 C 737.798 -1.13534 5.07352 0
M  V30 7800 C 735.483 -1.72781 4.71648 0
M  V30 7801 C 737.477 -0.656321 6.34012 0
M  V30 7802 C 735.164 -1.2449 5.98285 0
M  V30 7803 C 736.162 -0.710068 6.79299 0
M  V30 7804 O 735.85 -0.234314 8.03558 0
M  V30 7805 H 735.582 -0.340662 0.583888 0
M  V30 7806 H 738.136 -0.422452 2.01009 0
M  V30 7807 H 736.366 -2.92338 2.53131 0
M  V30 7808 H 738.055 -2.80559 2.93328 0
M  V30 7809 H 738.821 -1.08751 4.7265 0
M  V30 7810 H 734.7 -2.13351 4.08659 0
M  V30 7811 H 738.244 -0.238193 6.97193 0
M  V30 7812 H 734.141 -1.28969 6.32485 0
M  V30 7813 H 734.909 -0.353084 8.17738 0
M  V30 7814 N 737.572 -1.44907 -0.619662 0
M  V30 7815 C 738.505 -1.47133 -1.74434 0
M  V30 7816 C 739.483 -0.328933 -1.59238 0
M  V30 7817 O 740.667 -0.527632 -1.80965 0
M  V30 7818 C 737.794 -1.31491 -3.12134 0
M  V30 7819 C 736.84 -2.49441 -3.4595 0
M  V30 7820 S 737.673 -4.11945 -3.42142 0
M  V30 7821 C 738.829 -3.98747 -4.82443 0
M  V30 7822 H 739.062 -2.42295 -1.7228 0
M  V30 7823 H 736.595 -1.32343 -0.795276 0
M  V30 7824 H 738.553 -1.23153 -3.91591 0
M  V30 7825 H 737.214 -0.378203 -3.11815 0
M  V30 7826 H 736.407 -2.3439 -4.46181 0
M  V30 7827 H 736.009 -2.54577 -2.73982 0
M  V30 7828 H 738.301 -3.63145 -5.71954 0
M  V30 7829 H 739.244 -4.98848 -5.0255 0
M  V30 7830 H 739.652 -3.30608 -4.57557 0
M  V30 7831 N 739.05 0.861098 -1.31996 0
M  V30 7832 C 740.013 1.95068 -1.20338 0
M  V30 7833 C 741.013 1.60289 -0.128114 0
M  V30 7834 O 742.203 1.70048 -0.378044 0
M  V30 7835 C 739.335 3.30153 -0.849205 0
M  V30 7836 H 740.528 2.06833 -2.17164 0
M  V30 7837 H 738.081 1.05049 -1.15734 0
M  V30 7838 H 738.816 3.24087 0.117508 0
M  V30 7839 H 738.601 3.56771 -1.62655 0
M  V30 7840 H 740.091 4.10025 -0.791782 0
M  V30 7841 N 740.528 1.15101 1.07655 0
M  V30 7842 C 741.491 0.847625 2.12951 0
M  V30 7843 C 742.491 -0.151227 1.60087 0
M  V30 7844 O 743.681 0.0780399 1.74025 0
M  V30 7845 C 740.813 0.265 3.39868 0
M  V30 7846 H 742.006 1.7809 2.41296 0
M  V30 7847 H 739.559 0.958072 1.23494 0
M  V30 7848 H 740.294 -0.676625 3.17163 0
M  V30 7849 H 740.079 0.984554 3.79538 0
M  V30 7850 H 741.569 0.0702121 4.17541 0
M  V30 7851 N 742.006 -1.2595 0.947325 0
M  V30 7852 C 742.916 -2.29883 0.468079 0
M  V30 7853 C 743.932 -1.67783 -0.460975 0
M  V30 7854 O 745.108 -1.98526 -0.339006 0
M  V30 7855 C 742.173 -3.45773 -0.253315 0
M  V30 7856 C 741.234 -4.23337 0.713054 0
M  V30 7857 C 740.467 -5.33694 0.025993 0
M  V30 7858 O 740.69 -5.57853 -1.18978 0
M  V30 7859 O 739.624 -5.97724 0.70782 0
M  V30 7860 H 743.45 -2.72952 1.33156 0
M  V30 7861 H 741.035 -1.31263 0.713468 0
M  V30 7862 H 742.917 -4.16209 -0.659423 0
M  V30 7863 H 741.592 -3.04721 -1.09209 0
M  V30 7864 H 740.499 -3.55359 1.16923 0
M  V30 7865 H 741.832 -4.68154 1.51963 0
M  V30 7866 N 743.484 -0.715051 -1.40445 0
M  V30 7867 C 744.732 -0.253826 -2.005 0
M  V30 7868 C 745.053 1.15681 -1.5698 0
M  V30 7869 O 744.323 1.78414 -0.809027 0
M  V30 7870 H 742.903 -0.0908537 -0.741454 0
M  V30 7871 H 745.565 -0.920561 -1.7179 0
M  V30 7872 H 744.661 -0.286499 -3.10782 0
M  V30 7873 N 744.962 1.50701 -0.461195 0
M  V30 7874 C 745.872 2.32069 0.343661 0
M  V30 7875 C 746.888 1.42016 1.00535 0
M  V30 7876 O 748.064 1.75077 0.995498 0
M  V30 7877 C 745.129 3.16424 1.41692 0
M  V30 7878 C 744.19 4.22286 0.772869 0
M  V30 7879 C 743.423 5.02609 1.79499 0
M  V30 7880 O 743.646 4.83874 3.0203 0
M  V30 7881 O 742.58 5.86047 1.3723 0
M  V30 7882 H 746.406 3.01996 -0.321268 0
M  V30 7883 H 743.991 1.47723 -0.223235 0
M  V30 7884 H 745.873 3.68795 2.03883 0
M  V30 7885 H 744.548 2.49236 2.0655 0
M  V30 7886 H 743.455 3.73931 0.112277 0
M  V30 7887 H 744.788 4.91915 0.167399 0
M  V30 7888 N 746.441 0.193421 1.56409 0
M  V30 7889 C 747.689 -0.444908 1.97142 0
M  V30 7890 C 748.01 -1.62268 1.08139 0
M  V30 7891 O 747.28 -1.95307 0.152326 0
M  V30 7892 H 745.86 -0.16736 0.728011 0
M  V30 7893 H 748.522 0.279763 1.92882 0
M  V30 7894 H 747.618 -0.790159 3.01932 0
M  V30 7895 N 747.919 -1.57396 -0.0801906 0
M  V30 7896 C 748.829 -2.06451 -1.11423 0
M  V30 7897 C 749.845 -0.992352 -1.42928 0
M  V30 7898 O 751.021 -1.30651 -1.53272 0
M  V30 7899 C 748.086 -2.49164 -2.41077 0
M  V30 7900 C 747.147 -3.70641 -2.16619 0
M  V30 7901 C 746.38 -4.11307 -3.40092 0
M  V30 7902 O 746.603 -3.51922 -4.48895 0
M  V30 7903 O 745.537 -5.04157 -3.288 0
M  V30 7904 H 749.363 -2.94857 -0.727519 0
M  V30 7905 H 746.948 -1.46484 -0.293743 0
M  V30 7906 H 748.83 -2.77196 -3.17396 0
M  V30 7907 H 747.505 -1.6389 -2.79145 0
M  V30 7908 H 746.412 -3.47703 -1.38033 0
M  V30 7909 H 747.745 -4.5674 -1.83437 0
M  V30 7910 N 749.397 0.351382 -1.53633 0
M  V30 7911 C 750.643 1.09411 -1.70754 0
M  V30 7912 C 750.976 1.88544 -0.465293 0
M  V30 7913 O 750.251 1.86923 0.537608 0
M  V30 7914 C 750.534 2.04173 -2.96623 0
M  V30 7915 C 750.387 1.28556 -4.31038 0
M  V30 7916 C 751.706 3.04102 -3.18136 0
M  V30 7917 H 748.825 0.396373 -0.621335 0
M  V30 7918 H 751.467 0.373464 -1.86293 0
M  V30 7919 H 749.617 2.65625 -2.83506 0
M  V30 7920 H 751.289 0.697786 -4.55992 0
M  V30 7921 H 749.532 0.587498 -4.29803 0
M  V30 7922 H 750.203 1.97989 -5.15271 0
M  V30 7923 H 752.679 2.5276 -3.30532 0
M  V30 7924 H 751.555 3.67616 -4.07615 0
M  V30 7925 H 751.816 3.75053 -2.34068 0
M  V30 7926 N 750.875 1.45233 0.611969 0
M  V30 7927 C 752.115 1.50558 1.38245 0
M  V30 7928 C 752.479 0.141959 1.91474 0
M  V30 7929 O 753.68 0.0698926 2.68709 0
M  V30 7930 C 751.951 2.55136 2.50281 0
M  V30 7931 S 753.51 2.79652 3.38142 0
M  V30 7932 H 750.328 0.532281 0.471378 0
M  V30 7933 H 752.93 1.82285 0.706578 0
M  V30 7934 H 751.634 3.52888 2.09518 0
M  V30 7935 H 751.165 2.25045 3.22674 0
M  V30 7936 H 753.18 2.12699 4.48301 0
M  V30 7937 N 752.353 -0.854086 1.3245 0
M  V30 7938 C 753.599 -1.61069 1.23225 0
M  V30 7939 C 753.932 -1.93111 -0.205349 0
M  V30 7940 O 753.207 -1.57397 -1.14265 0
M  V30 7941 C 753.49 -2.93065 2.09249 0
M  V30 7942 C 753.343 -2.67801 3.6139 0
M  V30 7943 C 754.662 -3.94341 1.95406 0
M  V30 7944 H 751.781 -0.584449 0.448986 0
M  V30 7945 H 754.423 -0.986189 1.62402 0
M  V30 7946 H 752.573 -3.46364 1.75967 0
M  V30 7947 H 754.245 -2.21052 4.04887 0
M  V30 7948 H 752.488 -2.01756 3.84027 0
M  V30 7949 H 753.159 -3.6179 4.16907 0
M  V30 7950 H 755.635 -3.50301 2.24562 0
M  V30 7951 H 754.511 -4.84555 2.57872 0
M  V30 7952 H 754.772 -4.32382 0.921865 0
M  V30 7953 N 753.831 -1.1567 -1.07043 0
M  V30 7954 C 754.778 -0.856336 -2.14326 0
M  V30 7955 C 755.748 0.192051 -1.64986 0
M  V30 7956 O 756.933 0.0589148 -1.90709 0
M  V30 7957 C 754.073 -0.355227 -3.43267 0
M  V30 7958 C 753.186 -1.46555 -4.06381 0
M  V30 7959 C 752.321 -0.920245 -5.23168 0
M  V30 7960 C 751.36 -2.00729 -5.78251 0
M  V30 7961 N 750.497 -1.47813 -6.86364 0
M  V30 7962 H 755.337 -1.77514 -2.39359 0
M  V30 7963 H 752.874 -0.885676 -1.17449 0
M  V30 7964 H 754.832 -0.0463804 -4.17174 0
M  V30 7965 H 753.462 0.526649 -3.18475 0
M  V30 7966 H 752.514 -1.89052 -3.30096 0
M  V30 7967 H 753.826 -2.28616 -4.43324 0
M  V30 7968 H 752.98 -0.564127 -6.04072 0
M  V30 7969 H 751.719 -0.0688477 -4.87651 0
M  V30 7970 H 750.724 -2.3722 -4.95991 0
M  V30 7971 H 751.949 -2.86252 -6.15822 0
M  V30 7972 H 749.895 -0.649145 -6.5278 0
M  V30 7973 H 749.812 -2.23498 -7.22208 0
M  V30 7974 H 751.08 -1.15036 -7.70965 0
M  V30 7975 N 755.309 1.25446 -0.953992 0
M  V30 7976 C 756.557 1.92762 -0.607227 0
M  V30 7977 C 756.878 1.7509 0.858399 0
M  V30 7978 O 756.148 1.11416 1.61132 0
M  V30 7979 H 754.728 0.713377 -0.221591 0
M  V30 7980 H 757.39 1.52625 -1.21209 0
M  V30 7981 H 756.486 3.00695 -0.835998 0
M  V30 7982 N 756.787 0.722489 1.40064 0
M  V30 7983 C 758.198 0.336507 1.83642 0
M  V30 7984 C 758.549 -1.13002 1.6039 0
M  V30 7985 O 757.674 -1.87036 1.08842 0
M  V30 7986 C 758.269 0.603985 3.33373 0
M  V30 7987 C 756.828 0.271637 3.75419 0
M  V30 7988 C 755.975 0.872898 2.63203 0
M  V30 7989 H 758.926 0.921108 1.29233 0
M  V30 7990 H 758.947 -0.128471 3.80283 0
M  V30 7991 H 758.459 1.67141 3.50265 0
M  V30 7992 H 756.56 -0.790455 3.64119 0
M  V30 7993 H 756.673 0.745457 4.73265 0
M  V30 7994 H 755.037 0.300431 2.52922 0
M  V30 7995 H 755.82 1.94473 2.82905 0
M  V30 7996 N 758.265 -1.50454 0.469181 0
M  V30 7997 C 759.213 -2.30101 -0.340033 0
M  V30 7998 C 760.207 -1.37306 -0.992135 0
M  V30 7999 O 761.413 -1.54506 -0.923458 0
M  V30 8000 H 757.788 -0.740941 -0.128495 0
M  V30 8001 H 759.759 -2.96315 0.352144 0
M  V30 8002 C 758.508 -3.17804 -1.41052 0
M  V30 8003 H 757.831 -3.89115 -0.918124 0
M  V30 8004 H 759.271 -3.76533 -1.94934 0
M  V30 8005 C 757.73 -2.35272 -2.4114 0
M  V30 8006 O 758.26 -2.03448 -3.4637 0
M  V30 8007 N 756.466 -1.97889 -2.1281 0
M  V30 8008 H 756.013 -2.2397 -1.27261 0
M  V30 8009 H 755.971 -1.42971 -2.80012 0
M  V30 8010 N 759.743 -0.201713 -1.56304 0
M  V30 8011 C 760.989 0.435952 -1.98059 0
M  V30 8012 C 761.322 1.60811 -1.08873 0
M  V30 8013 O 760.597 1.9398 -0.142128 0
M  V30 8014 C 760.88 0.889706 -3.48936 0
M  V30 8015 C 760.733 -0.284725 -4.48898 0
M  V30 8016 C 762.052 1.7529 -4.03685 0
M  V30 8017 H 759.171 0.15699 -0.720085 0
M  V30 8018 H 761.813 -0.293965 -1.87712 0
M  V30 8019 H 759.963 1.51166 -3.57884 0
M  V30 8020 H 761.635 -0.922531 -4.51981 0
M  V30 8021 H 759.878 -0.935427 -4.23594 0
M  V30 8022 H 760.549 0.0753865 -5.51949 0
M  V30 8023 H 763.025 1.2283 -3.97558 0
M  V30 8024 H 761.901 2.03933 -5.0961 0
M  V30 8025 H 762.162 2.70939 -3.49348 0
M  V30 8026 N 761.222 1.57436 0.0718424 0
M  V30 8027 C 762.469 1.87248 0.771007 0
M  V30 8028 C 762.797 0.793441 1.7758 0
M  V30 8029 O 762.052 -0.210565 1.94564 0
M  V30 8030 C 762.351 3.23723 1.51455 0
M  V30 8031 C 762.017 4.46194 0.649736 0
M  V30 8032 C 760.679 4.79438 0.411409 0
M  V30 8033 C 763.031 5.21176 0.05004 0
M  V30 8034 C 760.359 5.85077 -0.436096 0
M  V30 8035 C 762.711 6.27712 -0.784919 0
M  V30 8036 C 761.375 6.59457 -1.03312 0
M  V30 8037 H 760.645 0.685188 0.282132 0
M  V30 8038 H 763.292 1.91474 0.0317896 0
M  V30 8039 H 761.597 3.15287 2.32597 0
M  V30 8040 H 763.294 3.44023 2.06031 0
M  V30 8041 H 759.884 4.20175 0.84562 0
M  V30 8042 H 764.068 4.95806 0.221282 0
M  V30 8043 H 759.324 6.08071 -0.637136 0
M  V30 8044 H 763.498 6.84974 -1.25635 0
M  V30 8045 H 761.125 7.4114 -1.6916 0
M  V30 8046 N 762.7 -0.34323 1.53817 0
M  V30 8047 C 763.632 -1.44216 1.78141 0
M  V30 8048 C 764.645 -1.48701 0.662721 0
M  V30 8049 O 765.834 -1.51778 0.939458 0
M  V30 8050 C 762.934 -2.82872 1.86646 0
M  V30 8051 C 762.107 -3.01824 3.16577 0
M  V30 8052 C 761.166 -4.20723 3.16036 0
M  V30 8053 O 760.192 -4.14824 3.89756 0
M  V30 8054 N 761.394 -5.29276 2.38427 0
M  V30 8055 H 764.159 -1.23721 2.72971 0
M  V30 8056 H 761.72 -0.53311 1.52871 0
M  V30 8057 H 763.712 -3.60588 1.83735 0
M  V30 8058 H 762.282 -2.96509 0.990014 0
M  V30 8059 H 761.502 -2.11575 3.3261 0
M  V30 8060 H 762.79 -3.11369 4.02402 0
M  V30 8061 H 762.188 -5.36938 1.78085 0
M  V30 8062 H 760.745 -6.05484 2.41313 0
M  V30 8063 N 764.178 -1.45556 -0.604258 0
M  V30 8064 C 765.426 -1.4945 -1.36048 0
M  V30 8065 C 765.747 -0.138933 -1.94504 0
M  V30 8066 O 765.017 0.832097 -1.7735 0
M  V30 8067 H 763.597 -0.550381 -0.505064 0
M  V30 8068 H 766.259 -1.81535 -0.709308 0
M  V30 8069 H 765.355 -2.23519 -2.17821 0
M  V30 8070 N 765.656 0.84705 -1.32902 0
M  V30 8071 C 766.886 1.63166 -1.26729 0
M  V30 8072 C 767.294 1.88474 0.165595 0
M  V30 8073 O 766.637 1.45947 1.11558 0
M  V30 8074 C 766.699 3.0103 -1.96522 0
M  V30 8075 C 766.363 2.9873 -3.45846 0
M  V30 8076 C 767.36 2.75032 -4.41196 0
M  V30 8077 C 765.045 3.19125 -3.87898 0
M  V30 8078 C 767.039 2.71743 -5.76571 0
M  V30 8079 C 764.726 3.15462 -5.2338 0
M  V30 8080 C 765.724 2.91801 -6.17528 0
M  V30 8081 O 765.412 2.88027 -7.5053 0
M  V30 8082 H 765.144 0.51469 -0.438258 0
M  V30 8083 H 767.698 1.06383 -1.75704 0
M  V30 8084 H 765.928 3.59634 -1.42128 0
M  V30 8085 H 767.617 3.61821 -1.83958 0
M  V30 8086 H 768.383 2.59034 -4.10032 0
M  V30 8087 H 764.262 3.36565 -3.15032 0
M  V30 8088 H 767.806 2.53194 -6.5003 0
M  V30 8089 H 763.703 3.31006 -5.54171 0
M  V30 8090 H 764.471 3.03927 -7.59981 0
M  V30 8091 N 767.134 1.16236 1.06428 0
M  V30 8092 C 768.064 0.890807 2.1584 0
M  V30 8093 C 769.045 -0.162333 1.69324 0
M  V30 8094 O 770.23 -0.0147191 1.94194 0
M  V30 8095 C 767.36 0.389615 3.45108 0
M  V30 8096 C 766.314 1.38051 4.05125 0
M  V30 8097 C 765.64 0.737773 5.29586 0
M  V30 8098 C 766.94 2.74965 4.44062 0
M  V30 8099 H 768.634 1.80577 2.38814 0
M  V30 8100 H 766.18 0.869657 1.14774 0
M  V30 8101 H 768.133 0.187127 4.20984 0
M  V30 8102 H 766.857 -0.560851 3.21748 0
M  V30 8103 H 765.516 1.56952 3.31303 0
M  V30 8104 H 765.164 -0.219135 5.02522 0
M  V30 8105 H 764.864 1.39914 5.70699 0
M  V30 8106 H 766.388 0.545275 6.0816 0
M  V30 8107 H 767.802 2.59855 5.11027 0
M  V30 8108 H 766.199 3.37563 4.96156 0
M  V30 8109 H 767.269 3.30321 3.54987 0
M  V30 8110 N 768.612 -1.24939 0.960631 0
M  V30 8111 C 769.559 -2.25658 0.484459 0
M  V30 8112 C 770.529 -1.59422 -0.466242 0
M  V30 8113 O 771.714 -1.87015 -0.378169 0
M  V30 8114 C 768.854 -3.44359 -0.225958 0
M  V30 8115 C 767.967 -4.25214 0.762682 0
M  V30 8116 C 767.102 -5.31192 0.0290931 0
M  V30 8117 C 766.141 -6.03739 1.00827 0
M  V30 8118 N 765.278 -7.01437 0.305155 0
M  V30 8119 H 770.118 -2.65758 1.34821 0
M  V30 8120 H 767.655 -1.30648 0.675983 0
M  V30 8121 H 769.613 -4.12035 -0.654472 0
M  V30 8122 H 768.243 -3.05118 -1.05371 0
M  V30 8123 H 767.295 -3.57144 1.30966 0
M  V30 8124 H 768.607 -4.75406 1.50964 0
M  V30 8125 H 767.761 -6.04971 -0.457763 0
M  V30 8126 H 766.5 -4.81889 -0.750614 0
M  V30 8127 H 765.505 -5.2877 1.50607 0
M  V30 8128 H 766.73 -6.55131 1.7883 0
M  V30 8129 H 764.676 -6.54415 -0.455704 0
M  V30 8130 H 764.593 -7.49475 0.991104 0
M  V30 8131 H 765.861 -7.79336 -0.159966 0
M  V30 8132 N 770.09 -0.729906 -1.39679 0
M  V30 8133 C 771.367 -0.202149 -1.94553 0
M  V30 8134 C 771.747 1.29507 -1.66707 0
M  V30 8135 O 771.095 2.05819 -0.992517 0
M  V30 8136 C 771.305 -0.530279 -3.44948 0
M  V30 8137 C 772.653 -0.476808 -4.21914 0
M  V30 8138 O 773.677 -0.467171 -3.53123 0
M  V30 8139 O 772.536 -0.466869 -5.44502 0
M  V30 8140 H 769.63 -0.0351644 -0.826252 0
M  V30 8141 H 772.176 -0.808417 -1.49207 0
M  V30 8142 H 770.948 -1.56526 -3.5863 0
M  V30 8143 H 770.571 0.10522 -3.97461 0
M  V30 8144 N 771.568 1.50203 -0.477153 0
M  V30 8145 C 772.979 1.86685 -0.0235041 0
M  V30 8146 C 773.33 1.39148 1.38319 0
M  V30 8147 O 772.455 0.759051 2.02651 0
M  V30 8148 C 773.05 3.38781 -0.0358767 0
M  V30 8149 C 771.609 3.74652 0.362327 0
M  V30 8150 C 770.756 2.7412 -0.41875 0
M  V30 8151 H 773.707 1.4286 -0.691133 0
M  V30 8152 H 773.728 3.72732 0.764924 0
M  V30 8153 H 773.24 3.73349 -1.05981 0
M  V30 8154 H 771.341 3.45686 1.39039 0
M  V30 8155 H 771.454 4.79063 0.059457 0
M  V30 8156 H 769.818 2.54376 0.128341 0
M  V30 8157 H 770.601 3.11532 -1.44231 0
M  V30 8158 N 773.046 0.209999 1.56195 0
M  V30 8159 C 774.009 -0.691232 2.18528 0
M  V30 8160 C 775.009 -1.13013 1.14388 0
M  V30 8161 O 776.199 -1.04081 1.39688 0
M  V30 8162 C 773.331 -1.94551 2.79934 0
M  V30 8163 H 774.524 -0.147953 2.99535 0
M  V30 8164 H 772.077 -0.0396243 1.5625 0
M  V30 8165 H 772.812 -2.53094 2.02766 0
M  V30 8166 H 772.597 -1.63938 3.56184 0
M  V30 8167 H 774.087 -2.58785 3.2775 0
M  V30 8168 N 774.524 -1.57472 -0.0634922 0
M  V30 8169 C 775.471 -2.04258 -1.07457 0
M  V30 8170 C 776.441 -0.924804 -1.37973 0
M  V30 8171 O 777.626 -1.19305 -1.48899 0
M  V30 8172 C 774.766 -2.49832 -2.38071 0
M  V30 8173 C 773.879 -3.75263 -2.14014 0
M  V30 8174 C 773.014 -4.09585 -3.38251 0
M  V30 8175 C 772.053 -5.28032 -3.09594 0
M  V30 8176 N 771.19 -5.57953 -4.26185 0
M  V30 8177 H 776.03 -2.90402 -0.668626 0
M  V30 8178 H 773.567 -1.43609 -0.318572 0
M  V30 8179 H 775.525 -2.7431 -3.14341 0
M  V30 8180 H 774.155 -1.66654 -2.76453 0
M  V30 8181 H 773.207 -3.58075 -1.28399 0
M  V30 8182 H 774.519 -4.61667 -1.88852 0
M  V30 8183 H 773.673 -4.35008 -4.2291 0
M  V30 8184 H 772.412 -3.21765 -3.66495 0
M  V30 8185 H 771.417 -5.02397 -2.23332 0
M  V30 8186 H 772.642 -6.17477 -2.82663 0
M  V30 8187 H 770.588 -4.73092 -4.54445 0
M  V30 8188 H 770.505 -6.38793 -4.04326 0
M  V30 8189 H 771.773 -5.87931 -5.11817 0
M  V30 8190 N 776.003 0.335068 -1.53997 0
M  V30 8191 C 777.231 1.09418 -1.756 0
M  V30 8192 C 777.646 1.82083 -0.499138 0
M  V30 8193 O 777.003 1.74646 0.529631 0
M  V30 8194 C 777.054 2.10115 -2.94166 0
M  V30 8195 O 776.775 1.40404 -4.14992 0
M  V30 8196 C 778.276 2.98336 -3.27888 0
M  V30 8197 H 775.496 0.32595 -0.586513 0
M  V30 8198 H 778.04 0.384693 -2.00849 0
M  V30 8199 H 776.195 2.76616 -2.71224 0
M  V30 8200 H 776.609 2.07743 -4.81605 0
M  V30 8201 H 778.083 3.6491 -4.1418 0
M  V30 8202 H 778.56 3.64814 -2.44556 0
M  V30 8203 H 779.166 2.37412 -3.52868 0
M  V30 8204 N 777.481 1.45874 0.596531 0
M  V30 8205 C 778.444 1.54988 1.68853 0
M  V30 8206 C 779.444 0.428302 1.54991 0
M  V30 8207 O 780.634 0.692158 1.59859 0
M  V30 8208 C 777.766 1.457 3.08195 0
M  V30 8209 H 778.959 2.52294 1.62135 0
M  V30 8210 H 776.512 1.33479 0.813206 0
M  V30 8211 H 777.247 0.496204 3.20481 0
M  V30 8212 H 777.032 2.27061 3.19665 0
M  V30 8213 H 778.522 1.55133 3.87716 0
M  V30 8214 N 778.959 -0.83999 1.33349 0
M  V30 8215 C 779.869 -1.98182 1.25543 0
M  V30 8216 C 780.885 -1.73204 0.166208 0
M  V30 8217 O 782.061 -1.97596 0.389589 0
M  V30 8218 C 779.126 -3.32157 0.993614 0
M  V30 8219 C 778.187 -3.70258 2.17273 0
M  V30 8220 C 777.42 -4.9784 1.92331 0
M  V30 8221 O 777.643 -5.63679 0.873074 0
M  V30 8222 O 776.577 -5.33418 2.78835 0
M  V30 8223 H 780.403 -2.07708 2.21565 0
M  V30 8224 H 777.988 -0.972852 1.13384 0
M  V30 8225 H 779.87 -4.12433 0.864711 0
M  V30 8226 H 778.545 -3.23637 0.0636596 0
M  V30 8227 H 777.452 -2.90497 2.35716 0
M  V30 8228 H 778.785 -3.83442 3.08598 0
M  V30 8229 N 780.437 -1.16799 -1.0581 0
M  V30 8230 C 781.4 -0.881396 -2.11575 0
M  V30 8231 C 782.4 0.12574 -1.60308 0
M  V30 8232 O 783.59 -0.105716 -1.73879 0
M  V30 8233 C 780.722 -0.319037 -3.39404 0
M  V30 8234 H 781.915 -1.81907 -2.38432 0
M  V30 8235 H 779.468 -0.977597 -1.21954 0
M  V30 8236 H 780.203 0.626082 -3.18199 0
M  V30 8237 H 779.988 -1.04481 -3.77923 0
M  V30 8238 H 781.478 -0.13663 -4.17376 0
M  V30 8239 N 781.915 1.24427 -0.967243 0
M  V30 8240 C 782.845 2.2773 -0.515899 0
M  V30 8241 C 783.826 1.64197 0.444227 0
M  V30 8242 O 785.011 1.91193 0.340451 0
M  V30 8243 C 782.141 3.46751 0.195149 0
M  V30 8244 C 781.095 4.22548 -0.680953 0
M  V30 8245 C 780.421 5.34456 0.161561 0
M  V30 8246 C 781.721 4.83914 -1.96532 0
M  V30 8247 H 783.415 2.65735 -1.37933 0
M  V30 8248 H 780.961 1.27742 -0.664681 0
M  V30 8249 H 782.914 4.18153 0.522117 0
M  V30 8250 H 781.638 3.07771 1.09292 0
M  V30 8251 H 780.297 3.52946 -0.991186 0
M  V30 8252 H 779.945 4.91716 1.05947 0
M  V30 8253 H 779.645 5.86087 -0.421418 0
M  V30 8254 H 781.169 6.08685 0.483211 0
M  V30 8255 H 782.583 5.47392 -1.70396 0
M  V30 8256 H 780.98 5.45775 -2.49499 0
M  V30 8257 H 782.05 4.05393 -2.66053 0
M  V30 8258 N 783.393 0.737304 1.3929 0
M  V30 8259 C 784.67 0.212464 1.94443 0
M  V30 8260 C 785.05 -1.28621 1.67391 0
M  V30 8261 O 784.398 -2.0529 1.00342 0
M  V30 8262 C 784.608 0.548565 3.44662 0
M  V30 8263 C 785.956 0.499177 4.21656 0
M  V30 8264 O 786.98 0.485892 3.5287 0
M  V30 8265 O 785.839 0.495739 5.44247 0
M  V30 8266 H 782.933 0.0395457 0.826054 0
M  V30 8267 H 785.479 0.816319 1.48776 0
M  V30 8268 H 784.251 1.58426 3.57795 0
M  V30 8269 H 783.874 -0.0841399 3.97511 0
M  V30 8270 N 784.871 -1.49948 0.485112 0
M  V30 8271 C 785.818 -2.28819 -0.301729 0
M  V30 8272 C 786.788 -1.34496 -0.974683 0
M  V30 8273 O 787.973 -1.63444 -0.984418 0
M  V30 8274 C 785.113 -3.16758 -1.36961 0
M  V30 8275 C 784.226 -4.26125 -0.710027 0
M  V30 8276 C 783.361 -5.01302 -1.75699 0
M  V30 8277 C 782.4 -6.02525 -1.07841 0
M  V30 8278 N 781.537 -6.70927 -2.06886 0
M  V30 8279 H 786.377 -2.95604 0.377127 0
M  V30 8280 H 783.914 -1.45764 0.197826 0
M  V30 8281 H 785.872 -3.66106 -2.00056 0
M  V30 8282 H 784.502 -2.51991 -2.01744 0
M  V30 8283 H 783.554 -3.80385 0.0338278 0
M  V30 8284 H 784.866 -4.98493 -0.175079 0
M  V30 8285 H 784.02 -5.54438 -2.46339 0
M  V30 8286 H 782.759 -4.28672 -2.32577 0
M  V30 8287 H 781.764 -5.48635 -0.357706 0
M  V30 8288 H 782.989 -6.77134 -0.516345 0
M  V30 8289 H 780.935 -6.01079 -2.62755 0
M  V30 8290 H 780.852 -7.39216 -1.58414 0
M  V30 8291 H 782.12 -7.28675 -2.76863 0
M  V30 8292 N 786.349 -0.21828 -1.56081 0
M  V30 8293 C 787.626 0.463143 -1.90038 0
M  V30 8294 C 788.006 1.77982 -1.13515 0
M  V30 8295 O 787.354 2.27199 -0.24345 0
M  V30 8296 C 787.564 0.659292 -3.42716 0
M  V30 8297 C 788.912 0.968203 -4.13414 0
M  V30 8298 O 789.936 0.746195 -3.48296 0
M  V30 8299 O 788.795 1.38936 -5.28544 0
M  V30 8300 H 785.889 0.244435 -0.790051 0
M  V30 8301 H 788.435 -0.260221 -1.67693 0
M  V30 8302 H 787.207 -0.269584 -3.9037 0
M  V30 8303 H 786.83 1.43426 -3.7083 0
M  V30 8304 N 787.827 1.57504 0.0551401 0
M  V30 8305 C 789.075 1.87684 0.74962 0
M  V30 8306 C 789.396 0.812547 1.77264 0
M  V30 8307 O 788.666 -0.15694 1.9527 0
M  V30 8308 H 787.246 0.6926 0.279846 0
M  V30 8309 H 789.908 1.94881 0.0272745 0
M  V30 8310 H 789.004 2.85734 1.25548 0
M  V30 8311 N 789.305 -0.326896 1.54172 0
M  V30 8312 C 790.551 -1.06304 1.7341 0
M  V30 8313 C 790.906 -1.85791 0.499935 0
M  V30 8314 O 790.199 -1.84753 -0.507625 0
M  V30 8315 C 790.393 -2.0208 2.94785 0
M  V30 8316 C 790.222 -1.32009 4.29888 0
M  V30 8317 C 788.992 -1.05798 4.941 0
M  V30 8318 C 791.19 -0.737721 5.08982 0
M  V30 8319 N 789.172 -0.324836 6.1304 0
M  V30 8320 C 790.543 -0.136006 6.19851 0
M  V30 8321 C 792.598 -0.640206 4.93767 0
M  V30 8322 C 791.301 0.553757 7.17165 0
M  V30 8323 C 793.327 0.0358492 5.91389 0
M  V30 8324 C 792.689 0.626522 7.01608 0
M  V30 8325 H 788.788 -0.372808 0.687414 0
M  V30 8326 H 791.372 -0.34462 1.91626 0
M  V30 8327 H 789.543 -2.71197 2.78041 0
M  V30 8328 H 791.275 -2.68655 3.02666 0
M  V30 8329 H 788.03 -1.34945 4.53968 0
M  V30 8330 H 788.454 0.0274982 6.76994 0
M  V30 8331 H 793.096 -1.0826 4.08705 0
M  V30 8332 H 790.814 1.00799 8.01789 0
M  V30 8333 H 794.4 0.110895 5.81694 0
M  V30 8334 H 793.28 1.14135 7.7585 0
M  V30 8335 N 790.784 -1.46188 -0.588786 0
M  V30 8336 C 791.714 -1.59148 -1.70863 0
M  V30 8337 C 792.695 -0.442083 -1.64255 0
M  V30 8338 O 793.88 -0.667575 -1.82365 0
M  V30 8339 C 791.01 -1.5757 -3.09498 0
M  V30 8340 C 789.964 -2.71418 -3.30932 0
M  V30 8341 C 789.29 -2.549 -4.70032 0
M  V30 8342 C 790.59 -4.1329 -3.19356 0
M  V30 8343 H 792.284 -2.52889 -1.60274 0
M  V30 8344 H 789.83 -1.21707 -0.769638 0
M  V30 8345 H 791.783 -1.65231 -3.87655 0
M  V30 8346 H 790.507 -0.603705 -3.20972 0
M  V30 8347 H 789.166 -2.63216 -2.55172 0
M  V30 8348 H 788.814 -1.55797 -4.78264 0
M  V30 8349 H 788.514 -3.31257 -4.85327 0
M  V30 8350 H 790.038 -2.64443 -5.50366 0
M  V30 8351 H 791.452 -4.22636 -3.87365 0
M  V30 8352 H 789.849 -4.90187 -3.46175 0
M  V30 8353 H 790.919 -4.33874 -2.16522 0
M  V30 8354 N 792.262 0.832906 -1.33792 0
M  V30 8355 C 793.212 1.93178 -1.21105 0
M  V30 8356 C 794.196 1.60506 -0.112491 0
M  V30 8357 O 795.388 1.73681 -0.341179 0
M  V30 8358 C 792.517 3.29647 -0.958526 0
M  V30 8359 C 791.603 3.68469 -2.0998 0
M  V30 8360 N 791.994 3.78936 -3.35024 0
M  V30 8361 C 790.292 3.98249 -2.00782 0
M  V30 8362 C 790.993 4.12731 -4.09912 0
M  V30 8363 N 789.969 4.25419 -3.38407 0
M  V30 8364 H 793.771 1.99434 -2.15878 0
M  V30 8365 H 791.285 1.02598 -1.25886 0
M  V30 8366 H 793.282 4.08173 -0.848552 0
M  V30 8367 H 791.942 3.24694 -0.019387 0
M  V30 8368 H 792.953 3.62688 -3.69699 0
M  V30 8369 H 789.63 4.01474 -1.14564 0
M  V30 8370 H 791.02 4.28117 -5.17847 0
M  V30 8371 N 793.74 1.17359 1.05189 0
M  V30 8372 C 794.968 0.986529 1.81866 0
M  V30 8373 C 795.383 -0.46522 1.82979 0
M  V30 8374 O 794.74 -1.32305 1.25705 0
M  V30 8375 C 794.791 1.52021 3.27982 0
M  V30 8376 O 794.512 2.91511 3.27037 0
M  V30 8377 C 796.013 1.37774 4.21347 0
M  V30 8378 H 793.233 0.349021 0.573084 0
M  V30 8379 H 795.777 1.55648 1.32643 0
M  V30 8380 H 793.932 0.992287 3.74476 0
M  V30 8381 H 794.346 3.16178 4.18488 0
M  V30 8382 H 795.82 1.7993 5.21852 0
M  V30 8383 H 796.297 0.32483 4.37997 0
M  V30 8384 H 796.903 1.89583 3.80708 0
M  V30 8385 N 795.218 -1.23913 0.973828 0
M  V30 8386 C 796.466 -1.91771 0.637817 0
M  V30 8387 C 796.787 -1.76434 -0.830435 0
M  V30 8388 O 796.057 -1.13965 -1.59339 0
M  V30 8389 H 794.637 -0.709761 0.232912 0
M  V30 8390 H 797.299 -1.50677 1.23622 0
M  V30 8391 H 796.395 -2.99327 0.883731 0
M  V30 8392 N 796.696 -0.74468 -1.38897 0
M  V30 8393 C 797.973 -0.222773 -1.94327 0
M  V30 8394 C 798.353 1.27731 -1.68071 0
M  V30 8395 O 797.701 2.04754 -1.01429 0
M  V30 8396 C 797.911 -0.566836 -3.44366 0
M  V30 8397 C 799.259 -0.521531 -4.21385 0
M  V30 8398 O 800.283 -0.504599 -3.52608 0
M  V30 8399 O 799.142 -0.524595 -5.43976 0
M  V30 8400 H 796.236 -0.0439259 -0.825833 0
M  V30 8401 H 798.782 -0.824197 -1.48341 0
M  V30 8402 H 797.554 -1.60321 -3.56949 0
M  V30 8403 H 797.177 0.0630577 -3.9755 0
M  V30 8404 N 798.174 1.49689 -0.493057 0
M  V30 8405 C 799.423 2.01622 0.0560733 0
M  V30 8406 C 799.736 1.37838 1.3878 0
M  V30 8407 O 800.942 1.81054 2.02316 0
M  V30 8408 C 799.398 3.59586 0.150409 0
M  V30 8409 C 799.006 4.32338 -1.1742 0
M  V30 8410 C 800.75 4.19489 0.650327 0
M  V30 8411 C 798.657 5.8214 -1.04246 0
M  V30 8412 H 797.587 0.753594 0.0247297 0
M  V30 8413 H 800.238 1.723 -0.631279 0
M  V30 8414 H 798.62 3.8559 0.902035 0
M  V30 8415 H 799.794 4.18042 -1.9385 0
M  V30 8416 H 798.109 3.84144 -1.60694 0
M  V30 8417 H 800.706 5.29181 0.766272 0
M  V30 8418 H 801.049 3.82326 1.6472 0
M  V30 8419 H 801.582 3.97775 -0.0445371 0
M  V30 8420 H 798.321 6.23814 -2.01336 0
M  V30 8421 H 797.841 5.98952 -0.31892 0
M  V30 8422 H 799.52 6.43004 -0.717957 0
M  V30 8423 N 799.652 0.226554 1.55963 0
M  V30 8424 C 800.9 -0.402991 1.98041 0
M  V30 8425 C 801.221 -1.59938 1.11557 0
M  V30 8426 O 800.491 -1.9494 0.193719 0
M  V30 8427 H 799.071 -0.15188 0.731397 0
M  V30 8428 H 801.733 0.320613 1.92245 0
M  V30 8429 H 800.829 -0.725937 3.0354 0
M  V30 8430 N 801.13 -1.57531 -0.0467866 0
M  V30 8431 C 802.077 -2.05387 -1.05285 0
M  V30 8432 C 803.047 -0.939385 -1.36985 0
M  V30 8433 O 804.232 -1.20877 -1.47626 0
M  V30 8434 C 801.372 -2.52343 -2.35408 0
M  V30 8435 C 800.485 -3.77512 -2.10022 0
M  V30 8436 C 799.62 -4.1315 -3.33887 0
M  V30 8437 C 798.659 -5.31286 -3.03976 0
M  V30 8438 N 797.796 -5.62441 -4.20243 0
M  V30 8439 H 802.636 -2.91095 -0.637788 0
M  V30 8440 H 800.173 -1.43939 -0.303322 0
M  V30 8441 H 802.131 -2.77628 -3.11413 0
M  V30 8442 H 800.761 -1.69577 -2.7467 0
M  V30 8443 H 799.813 -3.59417 -1.24594 0
M  V30 8444 H 801.125 -4.63644 -1.83945 0
M  V30 8445 H 800.279 -4.39469 -4.18273 0
M  V30 8446 H 799.018 -3.25634 -3.63062 0
M  V30 8447 H 798.023 -5.04738 -2.17991 0
M  V30 8448 H 799.248 -6.20441 -2.76098 0
M  V30 8449 H 797.194 -4.77885 -4.49402 0
M  V30 8450 H 797.111 -6.43046 -3.97528 0
M  V30 8451 H 798.379 -5.93327 -5.05553 0
M  V30 8452 N 802.608 0.318715 -1.54344 0
M  V30 8453 C 803.854 1.05383 -1.73971 0
M  V30 8454 C 804.209 1.85524 -0.509781 0
M  V30 8455 O 803.502 1.8502 0.49782 0
M  V30 8456 C 803.696 2.00514 -2.95853 0
M  V30 8457 C 803.525 1.29728 -4.30582 0
M  V30 8458 C 802.295 1.03177 -4.94654 0
M  V30 8459 C 804.493 0.710718 -5.09366 0
M  V30 8460 N 802.475 0.29232 -6.13204 0
M  V30 8461 C 803.846 0.103132 -6.19914 0
M  V30 8462 C 805.901 0.614011 -4.94099 0
M  V30 8463 C 804.604 -0.591782 -7.16862 0
M  V30 8464 C 806.63 -0.0672115 -5.91362 0
M  V30 8465 C 805.992 -0.663721 -7.01266 0
M  V30 8466 H 802.091 0.369157 -0.689382 0
M  V30 8467 H 804.675 0.334453 -1.91806 0
M  V30 8468 H 802.846 2.69719 -2.79475 0
M  V30 8469 H 804.578 2.67046 -3.04086 0
M  V30 8470 H 801.333 1.32536 -4.54677 0
M  V30 8471 H 801.757 -0.0634005 -6.7697 0
M  V30 8472 H 806.399 1.06091 -4.09273 0
M  V30 8473 H 804.117 -1.0505 -8.01243 0
M  V30 8474 H 807.703 -0.141742 -5.81627 0
M  V30 8475 H 806.583 -1.18248 -7.75234 0
M  V30 8476 N 804.086 1.46499 0.581025 0
M  V30 8477 C 805.016 1.60052 1.70017 0
M  V30 8478 C 805.997 0.450788 1.64018 0
M  V30 8479 O 807.182 0.677237 1.82009 0
M  V30 8480 C 804.312 1.5921 3.08658 0
M  V30 8481 C 803.266 2.73169 3.29488 0
M  V30 8482 C 802.592 2.57389 4.68674 0
M  V30 8483 C 803.892 4.14978 3.1716 0
M  V30 8484 H 805.586 2.53735 1.5893 0
M  V30 8485 H 803.132 1.22113 0.763173 0
M  V30 8486 H 805.085 1.67285 3.86773 0
M  V30 8487 H 803.809 0.620718 3.20647 0
M  V30 8488 H 802.468 2.64566 2.53773 0
M  V30 8489 H 802.116 1.58331 4.77431 0
M  V30 8490 H 801.816 3.33826 4.83564 0
M  V30 8491 H 803.34 2.67358 5.48956 0
M  V30 8492 H 804.754 4.24684 3.85119 0
M  V30 8493 H 803.151 4.92016 3.4357 0
M  V30 8494 H 804.221 4.35016 2.14218 0
M  V30 8495 N 805.565 -0.825799 1.34232 0
M  V30 8496 C 806.976 -1.39835 1.23706 0
M  V30 8497 C 807.327 -1.95709 -0.138649 0
M  V30 8498 O 806.452 -1.89833 -1.03886 0
M  V30 8499 C 807.047 -2.54203 2.23978 0
M  V30 8500 C 805.606 -3.07374 2.17251 0
M  V30 8501 C 804.753 -1.80232 2.10741 0
M  V30 8502 H 807.704 -0.630442 1.4564 0
M  V30 8503 H 807.725 -3.32214 1.8551 0
M  V30 8504 H 807.237 -2.13506 3.24094 0
M  V30 8505 H 805.338 -3.52583 1.20483 0
M  V30 8506 H 805.451 -3.6666 3.08379 0
M  V30 8507 H 803.815 -2.01012 1.56417 0
M  V30 8508 H 804.598 -1.41713 3.12686 0
M  V30 8509 N 807.043 -1.17915 -1.04565 0
M  V30 8510 C 807.991 -0.897919 -2.1457 0
M  V30 8511 C 808.985 0.139883 -1.68821 0
M  V30 8512 O 810.191 -0.00779463 -1.79998 0
M  V30 8513 H 806.566 -0.272867 -0.700748 0
M  V30 8514 H 808.537 -1.83268 -2.3549 0
M  V30 8515 C 807.286 -0.434634 -3.44973 0
M  V30 8516 H 806.609 -1.22469 -3.8058 0
M  V30 8517 H 808.049 -0.276804 -4.23095 0
M  V30 8518 C 806.508 0.848738 -3.26034 0
M  V30 8519 O 807.038 1.9141 -3.53164 0
M  V30 8520 N 805.244 0.799373 -2.79389 0
M  V30 8521 H 804.791 -0.0678192 -2.57511 0
M  V30 8522 H 804.749 1.6585 -2.67098 0
M  V30 8523 N 808.521 1.23394 -0.980386 0
M  V30 8524 C 809.769 1.91431 -0.647978 0
M  V30 8525 C 810.09 1.76871 0.821066 0
M  V30 8526 O 809.36 1.14808 1.58732 0
M  V30 8527 H 807.94 0.708516 -0.236673 0
M  V30 8528 H 810.602 1.50019 -1.2442 0
M  V30 8529 H 809.698 2.98854 -0.899592 0
M  V30 8530 N 809.999 0.752036 1.385 0
M  V30 8531 C 811.227 0.318274 2.04437 0
M  V30 8532 C 811.642 -1.05285 1.56718 0
M  V30 8533 O 810.999 -1.66844 0.73956 0
M  V30 8534 C 811.05 0.330106 3.5999 0
M  V30 8535 O 810.771 1.64712 4.05957 0
M  V30 8536 C 812.272 -0.117713 4.43144 0
M  V30 8537 H 809.492 0.136228 0.657026 0
M  V30 8538 H 812.036 1.02045 1.7722 0
M  V30 8539 H 810.191 -0.323323 3.86048 0
M  V30 8540 H 810.605 1.57225 5.0038 0
M  V30 8541 H 812.079 -0.0582735 5.51969 0
M  V30 8542 H 812.556 -1.16538 4.23457 0
M  V30 8543 H 813.162 0.506784 4.2227 0
M  V30 8544 N 811.477 -1.49425 0.500989 0
M  V30 8545 C 812.407 -2.31971 -0.266775 0
M  V30 8546 C 813.388 -1.40245 -0.962563 0
M  V30 8547 O 814.573 -1.69154 -0.953968 0
M  V30 8548 C 811.703 -3.20757 -1.33163 0
M  V30 8549 C 810.657 -4.21275 -0.75572 0
M  V30 8550 C 809.983 -4.98997 -1.92109 0
M  V30 8551 C 811.283 -5.21686 0.253213 0
M  V30 8552 H 812.977 -2.96408 0.422237 0
M  V30 8553 H 810.523 -1.4254 0.204505 0
M  V30 8554 H 812.476 -3.77315 -1.87646 0
M  V30 8555 H 811.2 -2.54263 -2.04983 0
M  V30 8556 H 809.859 -3.65861 -0.232637 0
M  V30 8557 H 809.507 -4.28951 -2.62698 0
M  V30 8558 H 809.207 -5.67011 -1.54182 0
M  V30 8559 H 810.731 -5.584 -2.47026 0
M  V30 8560 H 812.145 -5.72939 -0.203483 0
M  V30 8561 H 810.542 -5.9759 0.548322 0
M  V30 8562 H 811.612 -4.70596 1.16909 0
M  V30 8563 N 812.955 -0.234822 -1.55841 0
M  V30 8564 C 813.902 0.6698 -2.20867 0
M  V30 8565 C 814.872 1.18042 -1.16856 0
M  V30 8566 O 816.057 1.23709 -1.45261 0
M  V30 8567 C 813.197 1.86646 -2.90271 0
M  V30 8568 C 812.31 1.39351 -4.08908 0
M  V30 8569 C 811.445 2.54878 -4.66059 0
M  V30 8570 C 810.484 2.04384 -5.76969 0
M  V30 8571 N 809.621 3.13233 -6.28355 0
M  V30 8572 H 814.461 0.10858 -2.97802 0
M  V30 8573 H 811.998 0.041836 -1.4704 0
M  V30 8574 H 813.956 2.56926 -3.28702 0
M  V30 8575 H 812.586 2.40035 -2.15831 0
M  V30 8576 H 811.638 0.585173 -3.75872 0
M  V30 8577 H 812.95 0.983356 -4.89011 0
M  V30 8578 H 812.104 3.33219 -5.07001 0
M  V30 8579 H 810.843 2.99188 -3.85146 0
M  V30 8580 H 809.848 1.24509 -5.35516 0
M  V30 8581 H 811.073 1.61057 -6.59725 0
M  V30 8582 H 809.019 3.57 -5.50352 0
M  V30 8583 H 808.936 2.76511 -7.03618 0
M  V30 8584 H 810.204 3.91669 -6.73955 0
M  V30 8585 N 814.433 1.57553 0.0384317 0
M  V30 8586 C 815.682 1.88022 0.730108 0
M  V30 8587 C 815.995 0.83209 1.77019 0
M  V30 8588 O 817.201 1.0257 2.51379 0
M  V30 8589 C 815.657 3.33637 1.3496 0
M  V30 8590 C 815.265 4.46659 0.346352 0
M  V30 8591 C 817.009 3.73266 2.02169 0
M  V30 8592 C 814.916 5.8333 0.973652 0
M  V30 8593 H 813.846 0.701496 0.276442 0
M  V30 8594 H 816.497 1.83493 -0.0158028 0
M  V30 8595 H 814.879 3.32882 2.1449 0
M  V30 8596 H 816.053 4.58868 -0.421558 0
M  V30 8597 H 814.368 4.15802 -0.223133 0
M  V30 8598 H 816.965 4.72689 2.49938 0
M  V30 8599 H 817.308 3.04776 2.8358 0
M  V30 8600 H 817.841 3.76156 1.29427 0
M  V30 8601 H 814.58 6.55197 0.199163 0
M  V30 8602 H 814.1 5.7486 1.71162 0
M  V30 8603 H 815.779 6.29757 1.48376 0
M  V30 8604 N 815.911 -0.310526 1.54511 0
M  V30 8605 C 817.16 -1.0445 1.72549 0
M  V30 8606 C 817.473 -1.88748 0.513172 0
M  V30 8607 O 818.679 -2.65338 0.575165 0
M  V30 8608 C 817.135 -1.90665 3.05246 0
M  V30 8609 C 816.743 -1.11415 4.33925 0
M  V30 8610 C 818.487 -2.63719 3.32645 0
M  V30 8611 C 816.394 -1.96852 5.57677 0
M  V30 8612 H 815.324 -0.393676 0.643067 0
M  V30 8613 H 817.975 -0.302003 1.80998 0
M  V30 8614 H 816.357 -2.68864 2.90737 0
M  V30 8615 H 817.531 -0.378956 4.59239 0
M  V30 8616 H 815.846 -0.499853 4.13389 0
M  V30 8617 H 818.443 -3.27974 4.223 0
M  V30 8618 H 818.786 -3.32047 2.51098 0
M  V30 8619 H 819.319 -1.92574 3.48081 0
M  V30 8620 H 816.058 -1.33009 6.41864 0
M  V30 8621 H 815.578 -2.68069 5.36562 0
M  V30 8622 H 817.257 -2.55127 5.94575 0
M  V30 8623 N 817.389 -1.46805 -0.573248 0
M  V30 8624 C 818.666 -1.43082 -1.33368 0
M  V30 8625 C 819.046 -0.119252 -2.10763 0
M  V30 8626 O 818.394 0.899239 -2.10062 0
M  V30 8627 C 818.604 -2.66643 -2.25172 0
M  V30 8628 C 819.952 -3.13188 -2.86702 0
M  V30 8629 O 820.976 -2.67258 -2.35482 0
M  V30 8630 O 819.835 -3.92994 -3.79761 0
M  V30 8631 H 816.929 -0.569451 -0.599712 0
M  V30 8632 H 819.475 -1.58984 -0.59348 0
M  V30 8633 H 818.247 -3.53649 -1.67475 0
M  V30 8634 H 817.87 -2.53247 -3.06516 0
M  V30 8635 N 818.867 0.818669 -1.34668 0
M  V30 8636 C 820.283 1.11243 -1.14443 0
M  V30 8637 C 820.483 2.01435 0.0512212 0
M  V30 8638 O 819.539 2.41854 0.725471 0
M  V30 8639 C 820.852 1.75504 -2.4417 0
M  V30 8640 C 822.4 1.8798 -2.50265 0
M  V30 8641 C 822.875 2.55657 -3.80004 0
M  V30 8642 N 824.366 2.63153 -3.81189 0
M  V30 8643 C 825.101 3.16258 -4.78298 0
M  V30 8644 N 824.597 3.69893 -5.85791 0
M  V30 8645 N 826.39 3.14698 -4.65748 0
M  V30 8646 H 818.541 0.218848 -2.1127 0
M  V30 8647 H 820.804 0.159655 -0.934459 0
M  V30 8648 H 820.51 1.16697 -3.31775 0
M  V30 8649 H 820.384 2.75329 -2.57825 0
M  V30 8650 H 822.771 2.45934 -1.63096 0
M  V30 8651 H 822.852 0.870447 -2.40535 0
M  V30 8652 H 822.496 1.98356 -4.67565 0
M  V30 8653 H 822.426 3.57105 -3.87019 0
M  V30 8654 H 824.917 2.2514 -3.03513 0
M  V30 8655 H 825.23 4.08678 -6.55898 0
M  V30 8656 H 823.575 3.68125 -5.89499 0
M  V30 8657 H 826.766 2.72066 -3.80917 0
M  V30 8658 H 826.939 3.5578 -5.41594 0
M  V30 8659 N 820.346 1.18468 1.03938 0
M  V30 8660 C 821.293 0.912859 2.1198 0
M  V30 8661 C 822.263 -0.14824 1.65437 0
M  V30 8662 O 823.448 -0.008331 1.90798 0
M  V30 8663 C 820.588 0.446114 3.42204 0
M  V30 8664 C 819.701 1.57278 4.02353 0
M  V30 8665 C 818.836 1.05863 5.20544 0
M  V30 8666 C 817.875 2.1599 5.72726 0
M  V30 8667 N 817.012 1.65959 6.82204 0
M  V30 8668 H 821.852 1.83798 2.34569 0
M  V30 8669 H 819.389 0.916504 1.15059 0
M  V30 8670 H 821.347 0.15697 4.16905 0
M  V30 8671 H 819.977 -0.442025 3.19759 0
M  V30 8672 H 819.029 1.97737 3.24968 0
M  V30 8673 H 820.341 2.40289 4.37107 0
M  V30 8674 H 819.495 0.724087 6.02364 0
M  V30 8675 H 818.234 0.198116 4.87297 0
M  V30 8676 H 817.239 2.50287 4.89527 0
M  V30 8677 H 818.464 3.02479 6.08016 0
M  V30 8678 H 816.41 0.82199 6.5083 0
M  V30 8679 H 816.327 2.42567 7.16029 0
M  V30 8680 H 817.595 1.35436 7.67644 0
M  V30 8681 N 821.824 -1.22873 0.986916 0
M  V30 8682 C 822.771 -2.2458 0.532215 0
M  V30 8683 C 823.741 -1.60375 -0.432322 0
M  V30 8684 O 824.926 -1.87775 -0.338416 0
M  V30 8685 C 822.066 -3.44761 -0.152864 0
M  V30 8686 C 821.179 -4.23501 0.852704 0
M  V30 8687 C 820.314 -5.31011 0.14176 0
M  V30 8688 C 819.353 -6.01464 1.1361 0
M  V30 8689 N 818.49 -7.00631 0.453871 0
M  V30 8690 H 823.33 -2.62838 1.40428 0
M  V30 8691 H 820.867 -1.29185 0.703543 0
M  V30 8692 H 822.825 -4.1333 -0.566926 0
M  V30 8693 H 821.455 -3.07284 -0.988756 0
M  V30 8694 H 820.507 -3.54286 1.38512 0
M  V30 8695 H 821.819 -4.72097 1.61014 0
M  V30 8696 H 820.973 -6.05805 -0.329337 0
M  V30 8697 H 819.712 -4.83373 -0.648229 0
M  V30 8698 H 818.717 -5.25456 1.61789 0
M  V30 8699 H 819.942 -6.5119 1.92686 0
M  V30 8700 H 817.888 -6.55235 -0.316791 0
M  V30 8701 H 817.805 -7.47204 1.14986 0
M  V30 8702 H 819.073 -7.795 0.00537823 0
M  V30 8703 N 823.302 -0.75937 -1.38099 0
M  V30 8704 C 824.252 -0.111098 -2.27729 0
M  V30 8705 C 825.236 0.687161 -1.45489 0
M  V30 8706 O 826.428 0.552167 -1.68167 0
M  V30 8707 C 823.557 0.776809 -3.34396 0
M  V30 8708 C 822.643 -0.0286108 -4.2409 0
M  V30 8709 N 823.034 -1.06797 -4.94397 0
M  V30 8710 C 821.332 0.197307 -4.45563 0
M  V30 8711 C 822.033 -1.55576 -5.6051 0
M  V30 8712 N 821.009 -0.870059 -5.36592 0
M  V30 8713 H 824.811 -0.907047 -2.79553 0
M  V30 8714 H 822.325 -0.595954 -1.5107 0
M  V30 8715 H 824.322 1.25691 -3.97502 0
M  V30 8716 H 822.982 1.57164 -2.84129 0
M  V30 8717 H 823.993 -1.44988 -4.97191 0
M  V30 8718 H 820.67 0.965028 -4.06194 0
M  V30 8719 H 822.06 -2.42184 -6.26735 0
M  V30 8720 N 824.78 1.49157 -0.508906 0
M  V30 8721 C 826.029 2.0167 0.0346854 0
M  V30 8722 C 826.342 1.39302 1.37311 0
M  V30 8723 O 827.548 1.83189 2.00385 0
M  V30 8724 C 826.004 3.59725 0.112261 0
M  V30 8725 C 825.612 4.31069 -1.21999 0
M  V30 8726 C 827.356 4.20155 0.605798 0
M  V30 8727 C 825.263 5.81001 -1.10415 0
M  V30 8728 H 824.193 0.753814 0.0167355 0
M  V30 8729 H 826.844 1.7162 -0.649518 0
M  V30 8730 H 825.226 3.86525 0.861087 0
M  V30 8731 H 826.4 4.15962 -1.98273 0
M  V30 8732 H 824.715 3.82418 -1.64759 0
M  V30 8733 H 827.312 5.29964 0.710102 0
M  V30 8734 H 827.655 3.84051 1.60656 0
M  V30 8735 H 828.188 3.97705 -0.0867239 0
M  V30 8736 H 824.927 6.21643 -2.07941 0
M  V30 8737 H 824.447 5.9858 -0.382428 0
M  V30 8738 H 826.126 6.42207 -0.786116 0
M  V30 8739 N 826.258 0.243083 1.55714 0
M  V30 8740 C 827.505 -0.38272 1.9885 0
M  V30 8741 C 827.833 -1.58225 1.13115 0
M  V30 8742 O 827.088 -1.94861 0.181067 0
M  V30 8743 C 827.387 -0.839621 3.47398 0
M  V30 8744 C 827.053 0.251737 4.50197 0
M  V30 8745 C 825.715 0.551487 4.78029 0
M  V30 8746 C 828.067 0.988728 5.11736 0
M  V30 8747 C 825.395 1.59237 5.64677 0
M  V30 8748 C 827.747 2.0191 5.99512 0
M  V30 8749 C 826.411 2.32554 6.2568 0
M  V30 8750 H 825.681 -0.140047 0.727645 0
M  V30 8751 H 828.328 0.35011 1.88272 0
M  V30 8752 H 826.633 -1.65159 3.55288 0
M  V30 8753 H 828.33 -1.33404 3.78159 0
M  V30 8754 H 824.92 0.00796741 4.28599 0
M  V30 8755 H 829.104 0.7704 4.90284 0
M  V30 8756 H 824.36 1.83517 5.83208 0
M  V30 8757 H 828.534 2.59511 6.46241 0
M  V30 8758 H 826.161 3.13349 6.92616 0
M  V30 8759 N 827.736 -1.57571 -0.0300757 0
M  V30 8760 C 828.683 -2.06492 -1.03101 0
M  V30 8761 C 829.653 -0.953862 -1.3598 0
M  V30 8762 O 830.838 -1.22436 -1.46335 0
M  V30 8763 C 827.978 -2.54826 -2.32718 0
M  V30 8764 C 827.091 -3.79718 -2.06006 0
M  V30 8765 C 826.226 -4.16668 -3.29487 0
M  V30 8766 C 825.265 -5.3448 -2.98324 0
M  V30 8767 N 824.402 -5.66867 -4.14254 0
M  V30 8768 H 829.242 -2.91755 -0.606877 0
M  V30 8769 H 826.779 -1.44252 -0.288038 0
M  V30 8770 H 828.737 -2.80916 -3.08451 0
M  V30 8771 H 827.367 -1.72481 -2.72856 0
M  V30 8772 H 826.419 -3.60718 -1.20774 0
M  V30 8773 H 827.731 -4.65569 -1.79017 0
M  V30 8774 H 826.885 -4.43881 -4.13588 0
M  V30 8775 H 825.624 -3.29466 -3.59588 0
M  V30 8776 H 824.629 -5.07021 -2.12625 0
M  V30 8777 H 825.854 -6.23334 -2.69502 0
M  V30 8778 H 823.8 -4.82625 -4.44308 0
M  V30 8779 H 823.717 -6.47226 -3.90685 0
M  V30 8780 H 824.985 -5.98656 -4.99231 0
M  V30 8781 N 829.214 0.302327 -1.54673 0
M  V30 8782 C 830.144 1.37759 -1.88533 0
M  V30 8783 C 831.125 1.52961 -0.744113 0
M  V30 8784 O 832.31 1.6649 -0.999731 0
M  V30 8785 C 829.44 2.74201 -2.13146 0
M  V30 8786 C 828.394 2.73765 -3.28993 0
M  V30 8787 C 827.72 4.13483 -3.39022 0
M  V30 8788 C 829.02 2.35624 -4.66132 0
M  V30 8789 H 830.714 1.0967 -2.78591 0
M  V30 8790 H 828.26 0.52613 -1.34044 0
M  V30 8791 H 830.213 3.49508 -2.35419 0
M  V30 8792 H 828.937 3.03812 -1.19858 0
M  V30 8793 H 827.596 2.00914 -3.06642 0
M  V30 8794 H 827.244 4.40269 -2.43253 0
M  V30 8795 H 826.944 4.14093 -4.16894 0
M  V30 8796 H 828.468 4.90572 -3.63553 0
M  V30 8797 H 829.882 3.00647 -4.88143 0
M  V30 8798 H 828.279 2.47449 -5.46707 0
M  V30 8799 H 829.349 1.30753 -4.66939 0
M  V30 8800 N 830.692 1.47107 0.565454 0
M  V30 8801 C 831.655 1.58535 1.65527 0
M  V30 8802 C 832.655 0.461081 1.54048 0
M  V30 8803 O 833.845 0.725911 1.58355 0
M  V30 8804 C 830.977 1.52204 3.05036 0
M  V30 8805 H 832.17 2.55676 1.56747 0
M  V30 8806 H 829.723 1.35174 0.78471 0
M  V30 8807 H 830.458 0.564071 3.19357 0
M  V30 8808 H 830.243 2.3379 3.14777 0
M  V30 8809 H 831.733 1.63322 3.84338 0
M  V30 8810 N 832.17 -0.811516 1.35101 0
M  V30 8811 C 833.102 -1.93102 1.23468 0
M  V30 8812 C 834.115 -1.62021 0.159095 0
M  V30 8813 O 835.304 -1.73682 0.411945 0
M  V30 8814 C 832.404 -3.27345 0.877404 0
M  V30 8815 C 831.577 -3.86368 2.05033 0
M  V30 8816 C 830.636 -4.99009 1.66963 0
M  V30 8817 O 829.662 -5.16698 2.38772 0
M  V30 8818 N 830.864 -5.7749 0.590394 0
M  V30 8819 H 833.629 -2.0361 2.19916 0
M  V30 8820 H 831.19 -0.988687 1.28205 0
M  V30 8821 H 833.182 -4.00163 0.604298 0
M  V30 8822 H 831.752 -3.126 0.00275267 0
M  V30 8823 H 830.972 -3.05804 2.48752 0
M  V30 8824 H 832.26 -4.22533 2.83449 0
M  V30 8825 H 831.658 -5.657 -0.00633259 0
M  V30 8826 H 830.215 -6.50708 0.377055 0
M  V30 8827 N 833.648 -1.19017 -1.03309 0
M  V30 8828 C 834.896 -0.988258 -1.76289 0
M  V30 8829 C 835.217 0.482557 -1.88935 0
M  V30 8830 O 834.487 1.34969 -1.41987 0
M  V30 8831 H 833.067 -0.36267 -0.653054 0
M  V30 8832 H 835.729 -1.49836 -1.2464 0
M  V30 8833 H 834.825 -1.43273 -2.77271 0
M  V30 8834 N 835.127 1.22348 -0.993418 0
M  V30 8835 C 836.037 2.27987 -0.553076 0
M  V30 8836 C 837.053 1.69378 0.398386 0
M  V30 8837 O 838.229 1.99648 0.26509 0
M  V30 8838 C 835.294 3.46475 0.124809 0
M  V30 8839 C 834.355 4.20399 -0.869682 0
M  V30 8840 C 833.588 5.33229 -0.224052 0
M  V30 8841 O 833.811 5.61885 0.981915 0
M  V30 8842 O 832.745 5.94685 -0.929174 0
M  V30 8843 H 836.571 2.67822 -1.43195 0
M  V30 8844 H 834.156 1.28525 -0.761694 0
M  V30 8845 H 836.038 4.18369 0.504496 0
M  V30 8846 H 834.713 3.08565 0.978243 0
M  V30 8847 H 833.62 3.50774 -1.30031 0
M  V30 8848 H 834.953 4.62191 -1.69233 0
M  V30 8849 N 836.605 0.766683 1.37694 0
M  V30 8850 C 837.835 0.339446 2.03792 0
M  V30 8851 C 838.243 -1.04153 1.57952 0
M  V30 8852 O 837.586 -1.67521 0.753826 0
M  V30 8853 C 837.648 0.29822 3.58261 0
M  V30 8854 C 837.312 1.62293 4.27212 0
M  V30 8855 C 838.309 2.57447 4.51682 0
M  V30 8856 C 835.994 1.89597 4.65143 0
M  V30 8857 C 837.988 3.78117 5.13134 0
M  V30 8858 C 835.675 3.10538 5.26317 0
M  V30 8859 C 836.673 4.04617 5.50249 0
M  V30 8860 O 836.361 5.23429 6.10145 0
M  V30 8861 H 836.093 0.140952 0.661142 0
M  V30 8862 H 838.647 1.04022 1.77111 0
M  V30 8863 H 836.877 -0.458897 3.83967 0
M  V30 8864 H 838.566 -0.101263 4.05774 0
M  V30 8865 H 839.332 2.37633 4.22795 0
M  V30 8866 H 835.211 1.17199 4.45854 0
M  V30 8867 H 838.755 4.51563 5.3173 0
M  V30 8868 H 834.652 3.3024 5.54628 0
M  V30 8869 H 835.42 5.24187 6.28626 0
M  V30 8870 N 838.083 -1.48885 0.516809 0
M  V30 8871 C 839.332 -2.01686 -0.0239899 0
M  V30 8872 C 839.645 -1.40029 -1.3657 0
M  V30 8873 O 840.851 -1.84249 -1.9941 0
M  V30 8874 C 839.307 -3.59779 -0.0931825 0
M  V30 8875 C 838.915 -4.30416 1.24283 0
M  V30 8876 C 840.659 -4.20471 -0.583507 0
M  V30 8877 C 838.566 -5.80408 1.13494 0
M  V30 8878 H 837.496 -0.753892 -0.0127376 0
M  V30 8879 H 840.147 -1.71273 0.65861 0
M  V30 8880 H 838.529 -3.86976 -0.840577 0
M  V30 8881 H 839.703 -4.14905 2.00476 0
M  V30 8882 H 838.018 -3.81539 1.66785 0
M  V30 8883 H 840.615 -5.30333 -0.681987 0
M  V30 8884 H 840.958 -3.84898 -1.58617 0
M  V30 8885 H 841.491 -3.97654 0.107814 0
M  V30 8886 H 838.23 -6.20532 2.11235 0
M  V30 8887 H 837.75 -5.98368 0.414167 0
M  V30 8888 H 839.429 -6.41781 0.820162 0
M  V30 8889 N 839.561 -0.251338 -1.55583 0
M  V30 8890 C 840.524 0.63305 -2.20284 0
M  V30 8891 C 841.524 1.09941 -1.17344 0
M  V30 8892 O 842.714 1.00341 -1.42399 0
M  V30 8893 C 839.846 1.8706 -2.84993 0
M  V30 8894 H 841.039 0.0684846 -2.99822 0
M  V30 8895 H 838.592 -0.00181653 -1.563 0
M  V30 8896 H 839.327 2.47629 -2.09405 0
M  V30 8897 H 839.112 1.54436 -3.60405 0
M  V30 8898 H 840.602 2.50004 -3.34496 0
M  V30 8899 N 841.039 1.57585 0.0217189 0
M  V30 8900 C 842.45 1.7787 0.567377 0
M  V30 8901 C 842.801 0.883337 1.7519 0
M  V30 8902 O 841.926 0.0800819 2.16252 0
M  V30 8903 C 842.521 3.2257 1.03606 0
M  V30 8904 C 841.08 3.44026 1.52718 0
M  V30 8905 C 840.227 2.73313 0.468545 0
M  V30 8906 H 843.178 1.57377 -0.2045 0
M  V30 8907 H 843.199 3.29488 1.9031 0
M  V30 8908 H 842.711 3.87711 0.173739 0
M  V30 8909 H 840.812 2.8407 2.41111 0
M  V30 8910 H 840.925 4.52659 1.56962 0
M  V30 8911 H 839.289 2.37299 0.925263 0
M  V30 8912 H 840.072 3.41141 -0.384438 0
M  V30 8913 N 842.517 -0.29412 1.54831 0
M  V30 8914 C 843.427 -1.3854 1.89325 0
M  V30 8915 C 844.443 -1.55127 0.788133 0
M  V30 8916 O 845.619 -1.6966 1.08524 0
M  V30 8917 C 842.684 -2.72809 2.13954 0
M  V30 8918 C 841.745 -2.65148 3.37631 0
M  V30 8919 C 840.978 -3.93014 3.61076 0
M  V30 8920 O 841.201 -4.927 2.87406 0
M  V30 8921 O 840.135 -3.94491 4.54599 0
M  V30 8922 H 843.961 -1.12289 2.82179 0
M  V30 8923 H 841.546 -0.490793 1.41108 0
M  V30 8924 H 843.428 -3.52238 2.31315 0
M  V30 8925 H 842.103 -2.9889 1.24285 0
M  V30 8926 H 841.01 -1.84168 3.25627 0
M  V30 8927 H 842.343 -2.4402 4.27452 0
M  V30 8928 N 843.995 -1.47404 -0.557645 0
M  V30 8929 C 844.942 -1.59859 -1.66475 0
M  V30 8930 C 845.912 -0.441644 -1.60121 0
M  V30 8931 O 847.097 -0.661641 -1.78961 0
M  V30 8932 C 844.237 -1.61843 -3.04797 0
M  V30 8933 C 843.35 -2.8845 -3.2159 0
M  V30 8934 C 842.485 -2.81773 -4.50308 0
M  V30 8935 C 841.524 -4.03208 -4.60532 0
M  V30 8936 N 840.661 -3.94769 -5.80604 0
M  V30 8937 H 845.501 -2.54415 -1.55168 0
M  V30 8938 H 843.038 -1.26194 -0.755876 0
M  V30 8939 H 844.996 -1.60976 -3.84893 0
M  V30 8940 H 843.626 -0.707997 -3.1494 0
M  V30 8941 H 842.678 -2.99186 -2.34929 0
M  V30 8942 H 843.99 -3.78379 -3.25009 0
M  V30 8943 H 843.144 -2.79153 -5.38663 0
M  V30 8944 H 841.883 -1.89527 -4.49367 0
M  V30 8945 H 840.888 -4.06133 -3.70589 0
M  V30 8946 H 842.113 -4.9658 -4.63233 0
M  V30 8947 H 840.059 -3.05326 -5.80613 0
M  V30 8948 H 839.976 -4.78375 -5.854 0
M  V30 8949 H 841.244 -3.96165 -6.71322 0
M  V30 8950 N 845.473 0.80434 -1.35529 0
M  V30 8951 C 846.722 1.55665 -1.28263 0
M  V30 8952 C 847.035 1.95096 0.140352 0
M  V30 8953 O 848.241 2.69422 0.335303 0
M  V30 8954 C 846.697 2.80935 -2.24952 0
M  V30 8955 C 846.305 2.48733 -3.72607 0
M  V30 8956 C 848.049 3.5894 -2.26632 0
M  V30 8957 C 845.956 3.70308 -4.61114 0
M  V30 8958 H 844.886 0.584301 -0.476559 0
M  V30 8959 H 847.537 0.88395 -1.60806 0
M  V30 8960 H 845.919 3.49927 -1.85383 0
M  V30 8961 H 847.093 1.87733 -4.20824 0
M  V30 8962 H 845.408 1.83969 -3.73557 0
M  V30 8963 H 848.005 4.49244 -2.89973 0
M  V30 8964 H 848.348 3.96433 -1.27069 0
M  V30 8965 H 848.881 2.96912 -2.64742 0
M  V30 8966 H 845.62 3.37922 -5.61684 0
M  V30 8967 H 845.14 4.30526 -4.17621 0
M  V30 8968 H 846.819 4.37511 -4.76648 0
M  V30 8969 N 846.951 1.19563 1.02676 0
M  V30 8970 C 847.861 0.950691 2.14474 0
M  V30 8971 C 848.877 -0.0900219 1.73767 0
M  V30 8972 O 850.053 0.0951063 2.01175 0
M  V30 8973 C 847.118 0.494917 3.43149 0
M  V30 8974 C 846.179 1.60527 3.98158 0
M  V30 8975 C 845.412 1.17115 5.20692 0
M  V30 8976 O 845.635 0.0355937 5.70389 0
M  V30 8977 O 844.569 1.97454 5.68591 0
M  V30 8978 H 848.395 1.88651 2.38001 0
M  V30 8979 H 845.98 0.978635 1.12885 0
M  V30 8980 H 847.862 0.249492 4.20661 0
M  V30 8981 H 846.537 -0.412434 3.21062 0
M  V30 8982 H 845.444 1.90487 3.21971 0
M  V30 8983 H 846.777 2.48925 4.24614 0
M  V30 8984 N 848.429 -1.21819 0.999893 0
M  V30 8985 C 849.377 -2.26027 0.549047 0
M  V30 8986 C 850.371 -1.64516 -0.403826 0
M  V30 8987 O 851.577 -1.77878 -0.275578 0
M  V30 8988 H 847.952 -0.734958 0.159185 0
M  V30 8989 H 849.923 -2.61398 1.43923 0
M  V30 8990 C 848.672 -3.47514 -0.11369 0
M  V30 8991 H 847.995 -3.95112 0.610482 0
M  V30 8992 H 849.435 -4.22179 -0.3925 0
M  V30 8993 C 847.894 -3.08614 -1.35126 0
M  V30 8994 O 848.424 -3.1864 -2.44605 0
M  V30 8995 N 846.63 -2.63327 -1.22911 0
M  V30 8996 H 846.177 -2.55369 -0.338288 0
M  V30 8997 H 846.135 -2.37668 -2.05818 0
M  V30 8998 N 849.908 -0.773975 -1.37286 0
M  V30 8999 C 851.157 -0.335977 -1.98882 0
M  V30 9000 C 851.47 1.09416 -1.62134 0
M  V30 9001 O 852.676 1.63366 -2.1685 0
M  V30 9002 C 851.132 -0.549756 -3.55676 0
M  V30 9003 C 850.74 -1.9903 -4.01361 0
M  V30 9004 C 852.484 -0.175493 -4.24137 0
M  V30 9005 C 850.391 -2.15156 -5.50874 0
M  V30 9006 H 849.321 -0.121877 -0.744085 0
M  V30 9007 H 851.972 -0.953419 -1.56787 0
M  V30 9008 H 850.354 0.137175 -3.95762 0
M  V30 9009 H 851.528 -2.71237 -3.72515 0
M  V30 9010 H 849.843 -2.32137 -3.4569 0
M  V30 9011 H 852.44 -0.274463 -5.33995 0
M  V30 9012 H 852.783 0.874524 -4.07011 0
M  V30 9013 H 853.316 -0.815058 -3.89361 0
M  V30 9014 H 850.055 -3.18485 -5.72929 0
M  V30 9015 H 849.575 -1.47435 -5.81397 0
M  V30 9016 H 851.254 -1.95124 -6.16876 0
M  V30 9017 N 851.386 1.48609 -0.524698 0
M  V30 9018 C 852.616 2.06599 0.00741868 0
M  V30 9019 C 853.024 1.3823 1.29186 0
M  V30 9020 O 852.367 0.461962 1.77797 0
M  V30 9021 C 852.429 3.58184 0.307324 0
M  V30 9022 C 852.093 4.48391 -0.882864 0
M  V30 9023 C 853.09 4.88485 -1.77984 0
M  V30 9024 C 850.775 4.90367 -1.08837 0
M  V30 9025 C 852.769 5.69319 -2.86627 0
M  V30 9026 C 850.456 5.70972 -2.17794 0
M  V30 9027 C 851.454 6.10355 -3.06523 0
M  V30 9028 O 851.142 6.89343 -4.13596 0
M  V30 9029 H 850.874 0.675421 -0.0279846 0
M  V30 9030 H 853.428 1.92058 -0.7282 0
M  V30 9031 H 851.658 3.70818 1.09685 0
M  V30 9032 H 853.347 3.98318 0.780886 0
M  V30 9033 H 854.113 4.56682 -1.63299 0
M  V30 9034 H 849.992 4.592 -0.407035 0
M  V30 9035 H 853.536 5.99978 -3.55911 0
M  V30 9036 H 849.433 6.02188 -2.32465 0
M  V30 9037 H 850.201 7.07689 -4.1124 0
M  V30 9038 N 852.864 0.259585 1.55447 0
M  V30 9039 C 853.797 -0.675542 2.17972 0
M  V30 9040 C 854.775 -1.16362 1.13572 0
M  V30 9041 O 855.959 -1.23944 1.42021 0
M  V30 9042 C 853.086 -1.91952 2.79056 0
M  V30 9043 C 852.132 -1.56824 3.96621 0
M  V30 9044 S 852.965 -0.659846 5.31419 0
M  V30 9045 C 854.121 -1.91255 5.95963 0
M  V30 9046 H 854.354 -0.144236 2.9695 0
M  V30 9047 H 851.887 0.0439448 1.54337 0
M  V30 9048 H 853.845 -2.63362 3.14882 0
M  V30 9049 H 852.506 -2.42196 2 0
M  V30 9050 H 851.699 -2.49348 4.37997 0
M  V30 9051 H 851.301 -0.934472 3.62138 0
M  V30 9052 H 853.593 -2.85834 6.14252 0
M  V30 9053 H 854.536 -1.54207 6.91105 0
M  V30 9054 H 854.944 -2.07042 5.25161 0
M  V30 9055 N 854.342 -1.57594 -0.0133615 0
M  V30 9056 C 855.758 -1.5527 -0.369255 0
M  V30 9057 C 855.958 -0.987751 -1.7563 0
M  V30 9058 O 855.014 -0.615683 -2.44879 0
M  V30 9059 C 856.327 -2.99602 -0.25672 0
M  V30 9060 C 857.875 -3.11227 -0.332647 0
M  V30 9061 C 858.35 -4.57321 -0.249387 0
M  V30 9062 N 859.841 -4.62177 -0.3077 0
M  V30 9063 C 860.576 -5.72781 -0.26641 0
M  V30 9064 N 860.072 -6.92575 -0.176494 0
M  V30 9065 N 861.865 -5.61204 -0.317295 0
M  V30 9066 H 854.016 -1.92662 0.894154 0
M  V30 9067 H 856.279 -0.884352 0.341505 0
M  V30 9068 H 855.985 -3.44723 0.697072 0
M  V30 9069 H 855.859 -3.6246 -1.04415 0
M  V30 9070 H 858.246 -2.66045 -1.27688 0
M  V30 9071 H 858.327 -2.51171 0.484412 0
M  V30 9072 H 857.971 -5.03174 0.691242 0
M  V30 9073 H 857.901 -5.15306 -1.08476 0
M  V30 9074 H 860.392 -3.75994 -0.379069 0
M  V30 9075 H 860.705 -7.72653 -0.150518 0
M  V30 9076 H 859.05 -6.94854 -0.142314 0
M  V30 9077 H 862.241 -4.66509 -0.385643 0
M  V30 9078 H 862.414 -6.47388 -0.28165 0
M  V30 9079 N 855.82 0.285905 -1.54985 0
M  V30 9080 C 857.045 1.04207 -1.7932 0
M  V30 9081 C 857.47 1.79622 -0.558343 0
M  V30 9082 O 856.828 1.74506 0.491661 0
M  V30 9083 C 856.876 1.98648 -3.0095 0
M  V30 9084 O 855.98 3.07207 -2.75132 0
M  V30 9085 H 855.321 0.298596 -0.593074 0
M  V30 9086 H 857.851 0.318736 -2.02102 0
M  V30 9087 H 857.861 2.4084 -3.29333 0
M  V30 9088 H 856.536 1.43167 -3.90482 0
M  V30 9089 H 855.113 2.69423 -2.57809 0
M  V30 9090 N 857.298 1.47698 0.54982 0
M  V30 9091 C 858.208 1.63386 1.68351 0
M  V30 9092 C 859.224 0.516583 1.66155 0
M  V30 9093 O 860.4 0.785088 1.85468 0
M  V30 9094 C 857.465 1.6513 3.04849 0
M  V30 9095 C 856.526 2.88338 3.18056 0
M  V30 9096 C 855.759 2.8999 4.48042 0
M  V30 9097 O 855.982 2.00633 5.3395 0
M  V30 9098 O 854.916 3.81938 4.65196 0
M  V30 9099 H 858.742 2.59329 1.58057 0
M  V30 9100 H 856.327 1.30869 0.72067 0
M  V30 9101 H 858.209 1.68913 3.86065 0
M  V30 9102 H 856.884 0.723555 3.1551 0
M  V30 9103 H 855.791 2.90097 2.36209 0
M  V30 9104 H 857.124 3.80431 3.12302 0
M  V30 9105 N 858.776 -0.797141 1.35954 0
M  V30 9106 C 860.187 -1.37179 1.26644 0
M  V30 9107 C 860.538 -1.9596 -0.0971046 0
M  V30 9108 O 859.663 -1.91994 -0.998355 0
M  V30 9109 C 860.258 -2.49395 2.2932 0
M  V30 9110 C 858.817 -3.02697 2.23722 0
M  V30 9111 C 857.964 -1.75721 2.14517 0
M  V30 9112 H 860.915 -0.599407 1.46945 0
M  V30 9113 H 860.936 -3.28204 1.92515 0
M  V30 9114 H 860.448 -2.06584 3.2855 0
M  V30 9115 H 858.549 -3.49948 1.27934 0
M  V30 9116 H 858.662 -3.60036 3.16087 0
M  V30 9117 H 857.026 -1.97649 1.60646 0
M  V30 9118 H 857.809 -1.35049 3.15621 0
M  V30 9119 N 860.254 -1.20106 -1.0204 0
M  V30 9120 C 861.5 -1.01039 -1.75838 0
M  V30 9121 C 861.833 0.456819 -1.88751 0
M  V30 9122 O 861.108 1.33919 -1.41053 0
M  V30 9123 C 861.391 -1.69009 -3.17975 0
M  V30 9124 C 861.244 -3.2315 -3.1288 0
M  V30 9125 C 862.563 -1.42005 -4.16561 0
M  V30 9126 H 859.682 -0.368465 -0.638281 0
M  V30 9127 H 862.324 -1.48066 -1.19064 0
M  V30 9128 H 860.474 -1.29026 -3.66449 0
M  V30 9129 H 862.146 -3.72402 -2.72239 0
M  V30 9130 H 860.389 -3.54253 -2.50374 0
M  V30 9131 H 861.06 -3.65862 -4.13339 0
M  V30 9132 H 863.536 -1.76685 -3.76725 0
M  V30 9133 H 862.412 -1.92101 -5.14187 0
M  V30 9134 H 862.673 -0.346884 -4.40737 0
M  V30 9135 N 861.732 1.21287 -1.00634 0
M  V30 9136 C 862.695 2.21927 -0.572821 0
M  V30 9137 C 863.695 1.5691 0.351541 0
M  V30 9138 O 864.885 1.73623 0.141643 0
M  V30 9139 C 862.017 3.40501 0.164932 0
M  V30 9140 H 863.21 2.61795 -1.463 0
M  V30 9141 H 860.763 1.34571 -0.794998 0
M  V30 9142 H 861.498 3.06123 1.07049 0
M  V30 9143 H 861.283 3.88912 -0.498962 0
M  V30 9144 H 862.773 4.15103 0.455945 0
M  V30 9145 N 863.21 0.781244 1.36873 0
M  V30 9146 C 864.142 0.132075 2.28819 0
M  V30 9147 C 865.155 -0.653925 1.49089 0
M  V30 9148 O 866.344 -0.490453 1.7163 0
M  V30 9149 C 863.444 -0.836297 3.28419 0
M  V30 9150 C 862.617 -0.102097 4.37281 0
M  V30 9151 C 861.676 -0.985217 5.16894 0
M  V30 9152 O 860.702 -0.445478 5.67454 0
M  V30 9153 N 861.904 -2.31043 5.3254 0
M  V30 9154 H 864.669 0.921838 2.85171 0
M  V30 9155 H 862.23 0.634427 1.48952 0
M  V30 9156 H 864.222 -1.43074 3.78566 0
M  V30 9157 H 862.792 -1.52698 2.72767 0
M  V30 9158 H 862.012 0.67335 3.88407 0
M  V30 9159 H 863.3 0.404862 5.07187 0
M  V30 9160 H 862.698 -2.77318 4.93063 0
M  V30 9161 H 861.255 -2.85472 5.8596 0
M  V30 9162 N 864.689 -1.48329 0.532571 0
M  V30 9163 C 865.935 -2.028 -0.000583219 0
M  V30 9164 C 866.268 -1.40858 -1.33688 0
M  V30 9165 O 865.543 -0.555261 -1.86406 0
M  V30 9166 C 865.826 -3.59901 -0.119846 0
M  V30 9167 C 865.679 -4.32318 1.2418 0
M  V30 9168 C 866.998 -4.31904 -0.845372 0
M  V30 9169 H 864.117 -0.736999 0.00126205 0
M  V30 9170 H 866.759 -1.77024 0.690102 0
M  V30 9171 H 864.909 -3.81993 -0.708092 0
M  V30 9172 H 866.581 -4.21637 1.87136 0
M  V30 9173 H 864.824 -3.93635 1.82301 0
M  V30 9174 H 865.495 -5.40697 1.11132 0
M  V30 9175 H 867.971 -4.14658 -0.346159 0
M  V30 9176 H 866.847 -5.41509 -0.897723 0
M  V30 9177 H 867.108 -3.99369 -1.89622 0
M  V30 9178 N 866.167 -0.267825 -1.55308 0
M  V30 9179 C 867.414 0.351036 -1.99434 0
M  V30 9180 C 867.742 1.56406 -1.15618 0
M  V30 9181 O 866.997 1.94548 -0.212045 0
M  V30 9182 C 867.296 0.784247 -3.48689 0
M  V30 9183 C 866.962 -0.323328 -4.49739 0
M  V30 9184 C 865.624 -0.627467 -4.77091 0
M  V30 9185 C 867.976 -1.07002 -5.10098 0
M  V30 9186 C 865.304 -1.682 -5.62073 0
M  V30 9187 C 867.656 -2.11422 -5.96224 0
M  V30 9188 C 866.32 -2.42479 -6.21901 0
M  V30 9189 H 865.59 0.128453 -0.729781 0
M  V30 9190 H 868.237 -0.380018 -1.87692 0
M  V30 9191 H 866.542 1.59485 -3.57871 0
M  V30 9192 H 868.239 1.2737 -3.80234 0
M  V30 9193 H 864.829 -0.0761528 -4.28532 0
M  V30 9194 H 869.013 -0.848302 -4.88996 0
M  V30 9195 H 864.269 -1.92772 -5.80215 0
M  V30 9196 H 868.443 -2.69759 -6.4203 0
M  V30 9197 H 866.07 -3.24328 -6.87543 0
M  V30 9198 N 867.645 1.57599 0.00500368 0
M  V30 9199 C 868.891 1.90631 0.691919 0
M  V30 9200 C 869.224 0.868443 1.737 0
M  V30 9201 O 868.499 -0.113482 1.94169 0
M  V30 9202 C 868.782 3.34255 1.33961 0
M  V30 9203 C 868.635 4.48755 0.306413 0
M  V30 9204 C 869.954 3.77211 2.26715 0
M  V30 9205 H 867.073 0.693279 0.250066 0
M  V30 9206 H 869.715 1.89946 -0.0452634 0
M  V30 9207 H 867.865 3.3497 1.96793 0
M  V30 9208 H 869.537 4.60176 -0.321841 0
M  V30 9209 H 867.78 4.32203 -0.371852 0
M  V30 9210 H 868.451 5.46193 0.798554 0
M  V30 9211 H 870.927 3.78017 1.73904 0
M  V30 9212 H 869.803 4.78466 2.69002 0
M  V30 9213 H 870.064 3.10801 3.14413 0
M  V30 9214 N 869.123 -0.277682 1.55134 0
M  V30 9215 C 870.073 -1.34531 1.8408 0
M  V30 9216 C 871.057 -1.44904 0.699393 0
M  V30 9217 O 872.249 -1.48664 0.960623 0
M  V30 9218 C 869.378 -2.7064 2.11208 0
M  V30 9219 C 868.464 -2.64396 3.31596 0
M  V30 9220 N 868.855 -2.2777 4.51613 0
M  V30 9221 C 867.153 -2.95464 3.34091 0
M  V30 9222 C 867.854 -2.31401 5.33693 0
M  V30 9223 N 866.83 -2.69688 4.71984 0
M  V30 9224 H 870.632 -1.05214 2.74421 0
M  V30 9225 H 868.146 -0.486311 1.54948 0
M  V30 9226 H 870.143 -3.47649 2.301 0
M  V30 9227 H 868.803 -3.00849 1.22148 0
M  V30 9228 H 869.814 -1.99827 4.77797 0
M  V30 9229 H 866.491 -3.30415 2.5521 0
M  V30 9230 H 867.881 -2.05685 6.39643 0
M  V30 9231 N 870.601 -1.47988 -0.541979 0
M  V30 9232 C 871.849 -1.55086 -1.29587 0
M  V30 9233 C 872.17 -0.221304 -1.9374 0
M  V30 9234 O 871.44 0.756128 -1.80719 0
M  V30 9235 H 870.02 -0.571307 -0.481266 0
M  V30 9236 H 872.682 -1.8438 -0.631675 0
M  V30 9237 H 871.778 -2.32556 -2.08144 0
M  V30 9238 N 872.079 0.78992 -1.36375 0
M  V30 9239 C 872.989 1.93386 -1.32812 0
M  V30 9240 C 874.005 1.72468 -0.230377 0
M  V30 9241 O 875.181 1.96014 -0.462657 0
M  V30 9242 C 872.246 3.2824 -1.11621 0
M  V30 9243 C 871.307 3.61939 -2.30865 0
M  V30 9244 C 870.54 4.90359 -2.10675 0
M  V30 9245 O 870.763 5.6005 -1.08168 0
M  V30 9246 O 869.697 5.22702 -2.9844 0
M  V30 9247 H 873.523 1.99342 -2.29121 0
M  V30 9248 H 871.108 0.9301 -1.16917 0
M  V30 9249 H 872.99 4.08939 -1.01719 0
M  V30 9250 H 871.665 3.23178 -0.183732 0
M  V30 9251 H 870.572 2.81549 -2.46335 0
M  V30 9252 H 871.905 3.71725 -3.22617 0
M  V30 9253 N 873.557 1.20646 1.01402 0
M  V30 9254 C 874.782 1.04462 1.79172 0
M  V30 9255 C 875.207 -0.401588 1.83763 0
M  V30 9256 O 874.565 -1.28934 1.27459 0
M  V30 9257 C 874.613 1.63583 3.21361 0
M  V30 9258 O 873.717 0.875198 4.03006 0
M  V30 9259 H 873.058 0.368235 0.552539 0
M  V30 9260 H 875.588 1.59994 1.27526 0
M  V30 9261 H 875.598 1.67426 3.72065 0
M  V30 9262 H 874.273 2.68835 3.17334 0
M  V30 9263 H 872.85 0.911172 3.61597 0
M  V30 9264 N 875.035 -1.20752 1.01276 0
M  V30 9265 C 875.965 -2.25658 0.600064 0
M  V30 9266 C 876.946 -1.65733 -0.38298 0
M  V30 9267 O 878.131 -1.92324 -0.269256 0
M  V30 9268 C 875.261 -3.47237 -0.0663197 0
M  V30 9269 C 874.215 -4.1973 0.83731 0
M  V30 9270 C 873.541 -5.34687 0.0369102 0
M  V30 9271 C 874.841 -4.76286 2.14357 0
M  V30 9272 H 876.535 -2.60432 1.477 0
M  V30 9273 H 874.081 -1.25187 0.711634 0
M  V30 9274 H 876.034 -4.19803 -0.366563 0
M  V30 9275 H 874.758 -3.11615 -0.977944 0
M  V30 9276 H 873.417 -3.49024 1.1215 0
M  V30 9277 H 873.065 -4.95309 -0.876244 0
M  V30 9278 H 872.765 -5.84119 0.63865 0
M  V30 9279 H 874.289 -6.10059 -0.256968 0
M  V30 9280 H 875.703 -5.40691 1.90595 0
M  V30 9281 H 874.1 -5.36139 2.69583 0
M  V30 9282 H 875.17 -3.9524 2.80916 0
M  V30 9283 N 876.513 -0.788492 -1.36457 0
M  V30 9284 C 877.445 -0.144208 -2.28746 0
M  V30 9285 C 878.458 0.646009 -1.49434 0
M  V30 9286 O 879.647 0.481344 -1.71888 0
M  V30 9287 C 876.747 0.818869 -3.28858 0
M  V30 9288 C 875.92 0.0789055 -4.37329 0
M  V30 9289 C 874.979 0.957791 -5.1741 0
M  V30 9290 O 874.005 0.415378 -5.67682 0
M  V30 9291 N 875.207 2.28216 -5.33758 0
M  V30 9292 H 877.972 -0.936949 -2.84678 0
M  V30 9293 H 875.533 -0.642317 -1.48613 0
M  V30 9294 H 877.525 1.41065 -3.79319 0
M  V30 9295 H 876.095 1.51249 -2.73573 0
M  V30 9296 H 875.315 -0.693939 -3.88044 0
M  V30 9297 H 876.603 -0.431753 -5.06965 0
M  V30 9298 H 876.001 2.747 -4.94527 0
M  V30 9299 H 874.558 2.8236 -5.87466 0
M  V30 9300 N 877.991 1.48044 -0.54043 0
M  V30 9301 C 878.954 2.28273 0.205966 0
M  V30 9302 C 879.954 1.35983 0.858209 0
M  V30 9303 O 881.144 1.58776 0.716651 0
M  V30 9304 C 878.276 3.15174 1.29917 0
M  V30 9305 H 879.469 2.95727 -0.498555 0
M  V30 9306 H 877.022 1.53457 -0.296745 0
M  V30 9307 H 877.757 2.52374 2.03661 0
M  V30 9308 H 877.542 3.83074 0.836475 0
M  V30 9309 H 879.032 3.75666 1.82387 0
M  V30 9310 N 879.47 0.276058 1.55163 0
M  V30 9311 C 880.717 -0.340455 1.99618 0
M  V30 9312 C 881.045 -1.5579 1.16446 0
M  V30 9313 O 880.3 -1.94433 0.222359 0
M  V30 9314 C 880.599 -0.765744 3.491 0
M  V30 9315 C 880.265 0.347174 4.49561 0
M  V30 9316 C 878.927 0.65276 4.76752 0
M  V30 9317 C 881.279 1.09705 5.09523 0
M  V30 9318 C 878.607 1.71179 5.61173 0
M  V30 9319 C 880.959 2.14581 5.95095 0
M  V30 9320 C 879.623 2.45773 6.20606 0
M  V30 9321 H 878.893 -0.124581 0.730452 0
M  V30 9322 H 881.54 0.389966 1.87487 0
M  V30 9323 H 879.845 -1.57585 3.58712 0
M  V30 9324 H 881.542 -1.25352 3.80904 0
M  V30 9325 H 878.132 0.0988779 4.28486 0
M  V30 9326 H 882.316 0.874223 4.8854 0
M  V30 9327 H 877.572 1.95846 5.79184 0
M  V30 9328 H 881.746 2.7316 6.40591 0
M  V30 9329 H 879.373 3.27969 6.85813 0
M  V30 9330 N 880.948 -1.576 0.00335426 0
M  V30 9331 C 881.878 -2.11668 -0.985839 0
M  V30 9332 C 882.859 -1.02661 -1.35627 0
M  V30 9333 O 884.044 -1.30361 -1.43943 0
M  V30 9334 C 881.174 -2.62273 -2.27662 0
M  V30 9335 C 880.128 -3.75837 -2.0477 0
M  V30 9336 C 879.454 -4.12769 -3.39891 0
M  V30 9337 C 880.754 -5.02975 -1.40759 0
M  V30 9338 H 882.448 -2.9457 -0.535637 0
M  V30 9339 H 879.994 -1.41702 -0.256204 0
M  V30 9340 H 881.947 -2.98727 -2.97221 0
M  V30 9341 H 880.671 -1.76498 -2.74802 0
M  V30 9342 H 879.33 -3.39782 -1.37636 0
M  V30 9343 H 878.978 -3.24013 -3.8474 0
M  V30 9344 H 878.678 -4.89281 -3.25389 0
M  V30 9345 H 880.202 -4.51784 -4.1076 0
M  V30 9346 H 881.616 -5.37179 -2.00279 0
M  V30 9347 H 880.013 -5.84315 -1.36734 0
M  V30 9348 H 881.083 -4.83431 -0.377218 0
M  V30 9349 N 882.426 0.269451 -1.5528 0
M  V30 9350 C 883.675 0.998381 -1.75258 0
M  V30 9351 C 883.988 1.87321 -0.563034 0
M  V30 9352 O 885.194 2.63719 -0.645313 0
M  V30 9353 C 883.65 1.82505 -3.10193 0
M  V30 9354 C 883.258 0.99871 -4.36726 0
M  V30 9355 C 885.002 2.54807 -3.3952 0
M  V30 9356 C 882.909 1.81997 -5.627 0
M  V30 9357 H 881.839 0.376488 -0.653278 0
M  V30 9358 H 884.49 0.253909 -1.81735 0
M  V30 9359 H 882.872 2.61061 -2.97763 0
M  V30 9360 H 884.046 0.257064 -4.60082 0
M  V30 9361 H 882.361 0.390074 -4.14569 0
M  V30 9362 H 884.958 3.16662 -4.30847 0
M  V30 9363 H 885.301 3.25273 -2.59813 0
M  V30 9364 H 885.834 1.83278 -3.53064 0
M  V30 9365 H 882.573 1.15945 -6.45164 0
M  V30 9366 H 882.093 2.53749 -5.43481 0
M  V30 9367 H 883.772 2.39274 -6.0113 0
M  V30 9368 N 883.904 1.48273 0.534124 0
M  V30 9369 C 884.867 1.6201 1.62127 0
M  V30 9370 C 885.867 0.493653 1.53035 0
M  V30 9371 O 887.057 0.759337 1.56779 0
M  V30 9372 C 884.189 1.5864 3.01739 0
M  V30 9373 H 885.382 2.58944 1.51288 0
M  V30 9374 H 882.935 1.36808 0.755861 0
M  V30 9375 H 883.67 0.631685 3.18088 0
M  V30 9376 H 883.455 2.40415 3.09747 0
M  V30 9377 H 884.945 1.71438 3.80787 0
M  V30 9378 N 885.382 -0.782676 1.36792 0
M  V30 9379 C 886.631 -1.53605 1.30723 0
M  V30 9380 C 886.944 -1.95294 -0.109296 0
M  V30 9381 O 888.15 -2.69921 -0.292398 0
M  V30 9382 C 886.606 -2.77321 2.29393 0
M  V30 9383 C 886.214 -2.42774 3.76517 0
M  V30 9384 C 887.958 -3.55289 2.32314 0
M  V30 9385 C 885.865 -3.62926 4.66947 0
M  V30 9386 H 884.795 -0.576646 0.485794 0
M  V30 9387 H 887.446 -0.858255 1.62192 0
M  V30 9388 H 885.828 -3.46934 1.90927 0
M  V30 9389 H 887.002 -1.81014 4.23758 0
M  V30 9390 H 885.317 -1.78002 3.76436 0
M  V30 9391 H 887.914 -4.44573 2.97083 0
M  V30 9392 H 888.257 -3.94361 1.3336 0
M  V30 9393 H 888.79 -2.92662 2.69432 0
M  V30 9394 H 885.529 -3.28944 5.66989 0
M  V30 9395 H 885.049 -4.23828 4.24418 0
M  V30 9396 H 886.728 -4.29873 4.83548 0
M  V30 9397 N 886.86 -1.21182 -1.00761 0
M  V30 9398 C 888.106 -1.02898 -1.74756 0
M  V30 9399 C 888.439 0.436774 -1.89225 0
M  V30 9400 O 887.714 1.32415 -1.42466 0
M  V30 9401 C 887.997 -1.72372 -3.16164 0
M  V30 9402 C 887.85 -3.2645 -3.09435 0
M  V30 9403 C 889.169 -1.46415 -4.15031 0
M  V30 9404 H 886.288 -0.375214 -0.634337 0
M  V30 9405 H 888.93 -1.49321 -1.17487 0
M  V30 9406 H 887.08 -1.32906 -3.65059 0
M  V30 9407 H 888.752 -3.75269 -2.68274 0
M  V30 9408 H 886.995 -3.56889 -2.46603 0
M  V30 9409 H 887.666 -3.70226 -4.09435 0
M  V30 9410 H 890.142 -1.80671 -3.7483 0
M  V30 9411 H 889.018 -1.97544 -5.12121 0
M  V30 9412 H 889.279 -0.39361 -4.40344 0
M  V30 9413 N 888.338 1.20213 -1.01915 0
M  V30 9414 C 889.584 1.89928 -0.711007 0
M  V30 9415 C 889.917 1.7881 0.75767 0
M  V30 9416 O 889.192 1.17399 1.55073 0
M  V30 9417 C 889.475 3.41225 -1.15053 0
M  V30 9418 C 889.328 3.61264 -2.67971 0
M  V30 9419 C 890.647 4.34108 -0.72377 0
M  V30 9420 H 887.766 0.689702 -0.259768 0
M  V30 9421 H 890.408 1.41557 -1.26734 0
M  V30 9422 H 888.558 3.82552 -0.677199 0
M  V30 9423 H 890.23 3.29173 -3.23176 0
M  V30 9424 H 888.473 3.04647 -3.08824 0
M  V30 9425 H 889.144 4.67331 -2.93779 0
M  V30 9426 H 891.62 4.00442 -1.13073 0
M  V30 9427 H 890.496 5.38581 -1.05931 0
M  V30 9428 H 890.757 4.40512 0.374424 0
M  V30 9429 N 889.816 0.795718 1.36037 0
M  V30 9430 C 891.227 0.433379 1.816 0
M  V30 9431 C 891.578 -1.04341 1.66155 0
M  V30 9432 O 890.703 -1.81004 1.18603 0
M  V30 9433 C 891.298 0.77985 3.29703 0
M  V30 9434 C 889.857 0.470256 3.73451 0
M  V30 9435 C 889.004 1.01119 2.58206 0
M  V30 9436 H 891.955 0.988317 1.24169 0
M  V30 9437 H 891.976 0.0732898 3.80429 0
M  V30 9438 H 891.488 1.85473 3.40913 0
M  V30 9439 H 889.589 -0.596332 3.67797 0
M  V30 9440 H 889.702 0.995276 4.68648 0
M  V30 9441 H 888.066 0.434077 2.50974 0
M  V30 9442 H 888.849 2.09196 2.72198 0
M  V30 9443 N 891.294 -1.47756 0.548274 0
M  V30 9444 C 892.571 -1.9555 -0.0443603 0
M  V30 9445 C 892.951 -1.49079 -1.49462 0
M  V30 9446 O 892.299 -0.725538 -2.16675 0
M  V30 9447 C 892.509 -3.48879 0.0918425 0
M  V30 9448 C 893.857 -4.2456 -0.0580879 0
M  V30 9449 O 894.881 -3.56195 0.018946 0
M  V30 9450 O 893.74 -5.46048 -0.222261 0
M  V30 9451 H 890.834 -0.824106 -0.0691235 0
M  V30 9452 H 893.38 -1.58196 0.614166 0
M  V30 9453 H 892.152 -3.7548 1.10137 0
M  V30 9454 H 891.775 -3.92975 -0.604704 0
M  V30 9455 N 892.772 -0.284283 -1.55015 0
M  V30 9456 C 894.018 0.330352 -2.00091 0
M  V30 9457 C 894.351 1.54814 -1.17244 0
M  V30 9458 O 893.626 1.92954 -0.244753 0
M  V30 9459 C 893.909 0.703492 -3.53161 0
M  V30 9460 C 893.762 -0.522275 -4.46758 0
M  V30 9461 C 895.081 1.53645 -4.12409 0
M  V30 9462 H 892.2 0.118599 -0.727395 0
M  V30 9463 H 894.842 -0.393054 -1.8589 0
M  V30 9464 H 892.992 1.31983 -3.65394 0
M  V30 9465 H 894.664 -1.16082 -4.46456 0
M  V30 9466 H 892.907 -1.15865 -4.1804 0
M  V30 9467 H 893.578 -0.217295 -5.51572 0
M  V30 9468 H 896.054 1.01583 -4.0351 0
M  V30 9469 H 894.93 1.76633 -5.19704 0
M  V30 9470 H 895.191 2.5204 -3.63219 0
M  V30 9471 N 894.251 1.57596 -0.0117121 0
M  V30 9472 C 895.161 2.12596 0.991964 0
M  V30 9473 C 896.177 1.07399 1.36899 0
M  V30 9474 O 897.353 1.39365 1.45394 0
M  V30 9475 C 894.418 2.62796 2.2614 0
M  V30 9476 C 893.479 3.8264 1.94642 0
M  V30 9477 C 892.712 4.30435 3.15533 0
M  V30 9478 O 892.935 3.77495 4.27614 0
M  V30 9479 O 891.869 5.22469 2.98847 0
M  V30 9480 H 895.695 2.98597 0.554371 0
M  V30 9481 H 893.28 1.47947 0.207839 0
M  V30 9482 H 895.162 2.9523 3.00695 0
M  V30 9483 H 893.837 1.79886 2.69114 0
M  V30 9484 H 892.744 3.5516 1.17526 0
M  V30 9485 H 894.077 4.66658 1.56496 0
M  V30 9486 N 895.729 -0.261212 1.5542 0
M  V30 9487 C 896.957 -1.00916 1.8062 0
M  V30 9488 C 897.372 -1.79494 0.585444 0
M  V30 9489 O 896.729 -1.76974 -0.445702 0
M  V30 9490 C 896.78 -1.95841 3.03856 0
M  V30 9491 O 896.501 -1.20445 4.21218 0
M  V30 9492 C 898.002 -2.82352 3.41749 0
M  V30 9493 H 895.222 -0.297596 0.601397 0
M  V30 9494 H 897.766 -0.288427 2.02456 0
M  V30 9495 H 895.921 -2.63361 2.84112 0
M  V30 9496 H 896.335 -1.84528 4.90968 0
M  V30 9497 H 897.809 -3.44733 4.31118 0
M  V30 9498 H 898.286 -3.5273 2.61683 0
M  V30 9499 H 898.892 -2.20306 3.63793 0
M  V30 9500 N 897.207 -1.48554 -0.526253 0
M  V30 9501 C 898.137 -1.66252 -1.63959 0
M  V30 9502 C 899.118 -0.511351 -1.62232 0
M  V30 9503 O 900.303 -0.744322 -1.7937 0
M  V30 9504 C 897.433 -1.70556 -3.02536 0
M  V30 9505 C 896.387 -2.8521 -3.19123 0
M  V30 9506 C 895.713 -2.74606 -4.58798 0
M  V30 9507 C 897.013 -4.26463 -3.0154 0
M  V30 9508 H 898.707 -2.59459 -1.49404 0
M  V30 9509 H 896.253 -1.24862 -0.717326 0
M  V30 9510 H 898.206 -1.81524 -3.80298 0
M  V30 9511 H 896.93 -0.739297 -3.18123 0
M  V30 9512 H 895.589 -2.73802 -2.43779 0
M  V30 9513 H 895.237 -1.75941 -4.71226 0
M  V30 9514 H 894.937 -3.51544 -4.70841 0
M  V30 9515 H 896.461 -2.87548 -5.38655 0
M  V30 9516 H 897.875 -4.38685 -3.69091 0
M  V30 9517 H 896.272 -5.04428 -3.25073 0
M  V30 9518 H 897.342 -4.42667 -1.97925 0
M  V30 9519 N 898.685 0.775411 -1.37205 0
M  V30 9520 C 899.925 1.54689 -1.33606 0
M  V30 9521 C 900.289 1.91834 0.0798549 0
M  V30 9522 O 901.49 2.67722 0.240531 0
M  V30 9523 C 899.761 2.7804 -2.24563 0
M  V30 9524 S 901.32 3.68143 -2.38781 0
M  V30 9525 H 898.138 0.529631 -0.474355 0
M  V30 9526 H 900.74 0.912128 -1.72918 0
M  V30 9527 H 899.444 2.48825 -3.26365 0
M  V30 9528 H 898.975 3.46479 -1.86322 0
M  V30 9529 H 900.99 4.69843 -1.59568 0
M  V30 9530 N 900.163 1.21714 1.00117 0
M  V30 9531 C 901.388 1.06357 1.78054 0
M  V30 9532 C 901.813 -0.382075 1.84179 0
M  V30 9533 O 901.171 -1.27575 1.28819 0
M  V30 9534 C 901.219 1.66982 3.19608 0
M  V30 9535 O 900.323 0.917892 4.02055 0
M  V30 9536 H 899.664 0.374074 0.548602 0
M  V30 9537 H 902.194 1.61338 1.25822 0
M  V30 9538 H 902.204 1.71363 3.70268 0
M  V30 9539 H 900.879 2.72185 3.14465 0
M  V30 9540 H 899.456 0.949473 3.6061 0
M  V30 9541 N 901.641 -1.19671 1.02551 0
M  V30 9542 C 902.887 -1.89818 0.730801 0
M  V30 9543 C 903.242 -1.77917 -0.732355 0
M  V30 9544 O 902.535 -1.15848 -1.5261 0
M  V30 9545 C 902.729 -3.39647 1.11241 0
M  V30 9546 C 902.558 -3.66129 2.61112 0
M  V30 9547 C 901.328 -3.84348 3.28032 0
M  V30 9548 C 903.526 -3.67963 3.59316 0
M  V30 9549 N 901.508 -3.98429 4.67041 0
M  V30 9550 C 902.879 -3.87575 4.83927 0
M  V30 9551 C 904.934 -3.50971 3.53162 0
M  V30 9552 C 903.637 -3.91957 6.03127 0
M  V30 9553 C 905.663 -3.56629 4.71773 0
M  V30 9554 C 905.025 -3.76722 5.95197 0
M  V30 9555 H 901.124 -0.713873 0.319232 0
M  V30 9556 H 903.708 -1.43844 1.31213 0
M  V30 9557 H 901.879 -3.84352 0.559324 0
M  V30 9558 H 903.611 -3.97301 0.77031 0
M  V30 9559 H 900.366 -3.83097 2.78448 0
M  V30 9560 H 900.79 -4.09327 5.39241 0
M  V30 9561 H 905.432 -3.34395 2.58728 0
M  V30 9562 H 903.15 -4.07326 6.97933 0
M  V30 9563 H 906.736 -3.44777 4.68637 0
M  V30 9564 H 905.616 -3.8097 6.85442 0
M  V30 9565 N 903.119 -0.802921 -1.35613 0
M  V30 9566 C 904.082 -0.216422 -2.28176 0
M  V30 9567 C 905.082 0.594101 -1.49422 0
M  V30 9568 O 906.272 0.41312 -1.6923 0
M  V30 9569 C 903.404 0.698746 -3.33662 0
M  V30 9570 H 904.597 -1.03276 -2.81557 0
M  V30 9571 H 902.15 -0.573307 -1.45406 0
M  V30 9572 H 902.885 1.53891 -2.85461 0
M  V30 9573 H 902.67 0.119314 -3.91918 0
M  V30 9574 H 904.16 1.10354 -4.02755 0
M  V30 9575 N 904.597 1.47463 -0.556102 0
M  V30 9576 C 905.529 2.28046 0.22968 0
M  V30 9577 C 906.542 1.3694 0.880409 0
M  V30 9578 O 907.731 1.61773 0.754447 0
M  V30 9579 C 904.831 3.11165 1.34273 0
M  V30 9580 C 904.004 4.30225 0.789004 0
M  V30 9581 C 903.063 4.94948 1.78641 0
M  V30 9582 O 902.089 5.53372 1.33297 0
M  V30 9583 N 903.291 4.89543 3.11974 0
M  V30 9584 H 906.056 2.96125 -0.461558 0
M  V30 9585 H 903.617 1.5708 -0.392105 0
M  V30 9586 H 905.609 3.51331 2.00869 0
M  V30 9587 H 904.179 2.45337 1.93722 0
M  V30 9588 H 903.399 3.94163 -0.0536971 0
M  V30 9589 H 904.687 5.07238 0.398378 0
M  V30 9590 H 904.085 4.43275 3.51459 0
M  V30 9591 H 902.642 5.33732 3.74131 0
M  V30 9592 N 906.075 0.2925 1.54862 0
M  V30 9593 C 907.022 -0.587365 2.23201 0
M  V30 9594 C 907.992 -1.13623 1.21157 0
M  V30 9595 O 909.177 -1.18233 1.49752 0
M  V30 9596 C 906.317 -1.75745 2.96998 0
M  V30 9597 C 905.43 -1.24078 4.13798 0
M  V30 9598 C 904.565 -2.37405 4.75197 0
M  V30 9599 C 903.604 -1.82829 5.84157 0
M  V30 9600 N 902.741 -2.89696 6.39547 0
M  V30 9601 H 907.581 0.00202207 2.98 0
M  V30 9602 H 905.118 0.012766 1.47094 0
M  V30 9603 H 907.076 -2.44549 3.38011 0
M  V30 9604 H 905.706 -2.3186 2.24591 0
M  V30 9605 H 904.758 -0.445268 3.77785 0
M  V30 9606 H 906.07 -0.801186 4.92324 0
M  V30 9607 H 905.224 -3.14172 5.19019 0
M  V30 9608 H 903.963 -2.84688 3.95985 0
M  V30 9609 H 902.968 -1.04548 5.39768 0
M  V30 9610 H 904.193 -1.36461 6.65248 0
M  V30 9611 H 902.139 -3.36328 5.63222 0
M  V30 9612 H 902.056 -2.50206 7.13395 0
M  V30 9613 H 903.324 -3.66386 6.88027 0
M  V30 9614 N 907.553 -1.57587 0.0200696 0
M  V30 9615 C 908.969 -1.56018 -0.336237 0
M  V30 9616 C 909.169 -1.02478 -1.73495 0
M  V30 9617 O 908.225 -0.667487 -2.43518 0
M  V30 9618 C 909.538 -3.00079 -0.193112 0
M  V30 9619 C 911.086 -3.11863 -0.266557 0
M  V30 9620 C 911.561 -4.57747 -0.152326 0
M  V30 9621 N 913.052 -4.62726 -0.209596 0
M  V30 9622 C 913.787 -5.73217 -0.144855 0
M  V30 9623 N 913.283 -6.92794 -0.0295487 0
M  V30 9624 N 915.076 -5.61751 -0.198184 0
M  V30 9625 H 907.227 -1.90722 0.93482 0
M  V30 9626 H 909.49 -0.876909 0.360186 0
M  V30 9627 H 909.196 -3.43167 0.770036 0
M  V30 9628 H 909.07 -3.64593 -0.967029 0
M  V30 9629 H 911.457 -2.68693 -1.22016 0
M  V30 9630 H 911.538 -2.50087 0.53758 0
M  V30 9631 H 911.182 -5.01595 0.797817 0
M  V30 9632 H 911.112 -5.17491 -0.97521 0
M  V30 9633 H 913.603 -3.76713 -0.299229 0
M  V30 9634 H 913.916 -7.72799 0.0134071 0
M  V30 9635 H 912.261 -6.95 0.00510737 0
M  V30 9636 H 915.452 -4.67222 -0.286603 0
M  V30 9637 H 915.625 -6.47839 -0.144266 0
M  V30 9638 N 909.032 0.252966 -1.55557 0
M  V30 9639 C 910.28 0.979912 -1.76754 0
M  V30 9640 C 910.601 1.86083 -0.582944 0
M  V30 9641 O 909.871 1.91742 0.401497 0
M  V30 9642 H 908.451 0.364805 -0.651864 0
M  V30 9643 H 911.113 0.272372 -1.92987 0
M  V30 9644 H 910.209 1.60518 -2.67657 0
M  V30 9645 N 910.51 1.48831 0.518367 0
M  V30 9646 C 911.757 1.57439 1.27355 0
M  V30 9647 C 912.085 0.25338 1.92843 0
M  V30 9648 O 911.34 -0.757323 1.80452 0
M  V30 9649 C 911.639 2.67003 2.3758 0
M  V30 9650 C 911.305 4.09069 1.89667 0
M  V30 9651 C 909.967 4.47733 1.76319 0
M  V30 9652 C 912.319 4.98052 1.53603 0
M  V30 9653 C 909.647 5.73173 1.25258 0
M  V30 9654 C 911.999 6.23992 1.04001 0
M  V30 9655 C 910.663 6.61503 0.892784 0
M  V30 9656 H 909.933 0.57611 0.466023 0
M  V30 9657 H 912.58 1.82595 0.577166 0
M  V30 9658 H 910.885 2.35751 3.12936 0
M  V30 9659 H 912.582 2.70876 2.95681 0
M  V30 9660 H 909.172 3.7854 2.01011 0
M  V30 9661 H 913.356 4.68849 1.62771 0
M  V30 9662 H 908.612 6.0095 1.12557 0
M  V30 9663 H 912.786 6.92331 0.751706 0
M  V30 9664 H 910.413 7.58587 0.494939 0
M  V30 9665 N 911.988 -0.768124 1.37614 0
M  V30 9666 C 912.898 -1.91249 1.35871 0
M  V30 9667 C 913.914 -1.7208 0.257786 0
M  V30 9668 O 915.09 -1.95253 0.493782 0
M  V30 9669 C 912.155 -3.26423 1.16829 0
M  V30 9670 C 911.216 -3.5822 2.36594 0
M  V30 9671 C 910.449 -4.86945 2.1845 0
M  V30 9672 O 910.672 -5.58258 1.17064 0
M  V30 9673 O 909.606 -5.17888 3.06718 0
M  V30 9674 H 913.432 -1.95671 2.32264 0
M  V30 9675 H 911.017 -0.911382 1.18382 0
M  V30 9676 H 912.899 -4.07269 1.08212 0
M  V30 9677 H 911.574 -3.22845 0.235123 0
M  V30 9678 H 910.481 -2.77594 2.50783 0
M  V30 9679 H 911.814 -3.66545 3.2849 0
M  V30 9680 N 913.466 -1.22244 -0.994698 0
M  V30 9681 C 914.714 -1.04384 -1.73056 0
M  V30 9682 C 915.035 0.422204 -1.90374 0
M  V30 9683 O 914.305 1.30383 -1.46209 0
M  V30 9684 H 912.885 -0.383263 -0.641185 0
M  V30 9685 H 915.547 -1.53725 -1.1981 0
M  V30 9686 H 914.643 -1.52021 -2.72573 0
M  V30 9687 N 914.944 1.19125 -1.03184 0
M  V30 9688 C 916.169 1.93379 -0.749628 0
M  V30 9689 C 916.594 1.75153 0.685785 0
M  V30 9690 O 915.952 1.05579 1.47386 0
M  V30 9691 C 916 3.43101 -1.1097 0
M  V30 9692 O 915.104 4.11758 -0.230053 0
M  V30 9693 H 914.445 0.603605 -0.276689 0
M  V30 9694 H 916.975 1.51116 -1.37931 0
M  V30 9695 H 916.985 3.93778 -1.06785 0
M  V30 9696 H 915.66 3.55688 -2.15544 0
M  V30 9697 H 914.237 3.7143 -0.330748 0
M  V30 9698 N 916.422 0.810101 1.35185 0
M  V30 9699 C 917.669 0.392117 1.98667 0
M  V30 9700 C 917.997 -1.0416 1.64259 0
M  V30 9701 O 917.252 -1.73795 0.899647 0
M  V30 9702 C 917.551 0.526561 3.535 0
M  V30 9703 C 917.217 1.92411 4.07785 0
M  V30 9704 C 915.879 2.30644 4.22323 0
M  V30 9705 C 918.231 2.83827 4.37141 0
M  V30 9706 C 915.559 3.59655 4.63536 0
M  V30 9707 C 917.911 4.12287 4.79794 0
M  V30 9708 C 916.575 4.50515 4.92536 0
M  V30 9709 H 915.845 0.143486 0.726975 0
M  V30 9710 H 918.492 1.03157 1.61341 0
M  V30 9711 H 916.797 -0.19633 3.91308 0
M  V30 9712 H 918.494 0.183871 4.00578 0
M  V30 9713 H 915.084 1.61707 3.96924 0
M  V30 9714 H 919.268 2.55536 4.25459 0
M  V30 9715 H 914.524 3.89117 4.71591 0
M  V30 9716 H 918.698 4.83221 5.01468 0
M  V30 9717 H 916.325 5.50535 5.24229 0
M  V30 9718 N 917.9 -1.47166 0.563914 0
M  V30 9719 C 918.81 -2.33885 -0.182977 0
M  V30 9720 C 919.826 -1.48605 -0.905132 0
M  V30 9721 O 921.002 -1.81518 -0.872527 0
M  V30 9722 C 918.067 -3.25433 -1.19558 0
M  V30 9723 C 917.128 -4.26607 -0.480129 0
M  V30 9724 C 916.361 -5.1378 -1.44449 0
M  V30 9725 O 916.584 -5.03531 -2.67979 0
M  V30 9726 O 915.518 -5.94109 -0.965321 0
M  V30 9727 H 919.344 -2.99065 0.528544 0
M  V30 9728 H 916.929 -1.45834 0.324468 0
M  V30 9729 H 918.811 -3.81964 -1.77993 0
M  V30 9730 H 917.486 -2.62873 -1.8889 0
M  V30 9731 H 916.393 -3.73817 0.145583 0
M  V30 9732 H 917.726 -4.919 0.171868 0
M  V30 9733 N 919.378 -0.300708 -1.54705 0
M  V30 9734 C 920.288 0.584996 -2.27189 0
M  V30 9735 C 921.304 1.14866 -1.30697 0
M  V30 9736 O 922.48 1.17351 -1.63679 0
M  V30 9737 C 919.545 1.74076 -2.99831 0
M  V30 9738 C 918.606 1.2112 -4.1186 0
M  V30 9739 C 917.839 2.31188 -4.81028 0
M  V30 9740 O 918.062 3.5108 -4.49554 0
M  V30 9741 O 916.996 1.97897 -5.68437 0
M  V30 9742 H 920.822 -0.00298177 -3.037 0
M  V30 9743 H 918.407 -0.0671802 -1.49249 0
M  V30 9744 H 920.289 2.41413 -3.45395 0
M  V30 9745 H 918.964 2.31535 -2.26215 0
M  V30 9746 H 917.871 0.50357 -3.70695 0
M  V30 9747 H 919.204 0.682046 -4.87452 0
M  V30 9748 N 920.856 1.57574 -0.0284266 0
M  V30 9749 C 921.786 2.1321 0.952039 0
M  V30 9750 C 922.767 1.04806 1.33977 0
M  V30 9751 O 923.952 1.32635 1.41851 0
M  V30 9752 C 921.082 2.65862 2.23461 0
M  V30 9753 C 920.036 3.79047 1.98765 0
M  V30 9754 C 919.362 4.18124 3.33281 0
M  V30 9755 C 920.662 5.05151 1.32739 0
M  V30 9756 H 922.356 2.95385 0.488705 0
M  V30 9757 H 919.902 1.42092 0.233628 0
M  V30 9758 H 921.855 3.03417 2.92431 0
M  V30 9759 H 920.579 1.80848 2.71959 0
M  V30 9760 H 919.238 3.41929 1.32213 0
M  V30 9761 H 918.886 3.30092 3.79537 0
M  V30 9762 H 918.586 4.94396 3.17563 0
M  V30 9763 H 920.11 4.58262 4.0352 0
M  V30 9764 H 921.524 5.40297 1.91708 0
M  V30 9765 H 919.921 5.86416 1.27421 0
M  V30 9766 H 920.991 4.83969 0.300261 0
M  V30 9767 N 922.334 -0.244713 1.55689 0
M  V30 9768 C 923.574 -0.979776 1.79387 0
M  V30 9769 C 923.938 -1.8244 0.598298 0
M  V30 9770 O 925.139 -2.59141 0.7141 0
M  V30 9771 C 923.41 -1.81573 3.07841 0
M  V30 9772 S 924.969 -2.60959 3.52769 0
M  V30 9773 H 921.787 -0.329526 0.630027 0
M  V30 9774 H 924.389 -0.247435 1.93928 0
M  V30 9775 H 923.093 -1.18497 3.92921 0
M  V30 9776 H 922.624 -2.59078 2.96044 0
M  V30 9777 H 924.639 -3.83987 3.14275 0
M  V30 9778 N 923.813 -1.49104 -0.510467 0
M  V30 9779 C 925.229 -1.35657 -0.840797 0
M  V30 9780 C 925.429 -0.382425 -1.97838 0
M  V30 9781 O 924.485 0.189331 -2.51789 0
M  V30 9782 C 925.798 -2.76155 -1.18992 0
M  V30 9783 C 927.346 -2.84786 -1.29868 0
M  V30 9784 C 927.821 -4.2603 -1.68115 0
M  V30 9785 N 929.312 -4.28796 -1.75181 0
M  V30 9786 C 930.047 -5.35041 -2.062 0
M  V30 9787 N 929.543 -6.51543 -2.35508 0
M  V30 9788 N 931.336 -5.2245 -2.07371 0
M  V30 9789 H 923.487 -2.11042 0.23982 0
M  V30 9790 H 925.75 -0.946946 0.0446824 0
M  V30 9791 H 925.456 -3.49092 -0.427484 0
M  V30 9792 H 925.33 -3.10922 -2.13558 0
M  V30 9793 H 927.717 -2.12092 -2.05186 0
M  V30 9794 H 927.798 -2.53613 -0.333758 0
M  V30 9795 H 927.442 -4.99247 -0.933512 0
M  V30 9796 H 927.372 -4.5466 -2.65691 0
M  V30 9797 H 929.863 -3.44771 -1.5473 0
M  V30 9798 H 930.176 -7.28342 -2.58337 0
M  V30 9799 H 928.521 -6.54785 -2.32985 0
M  V30 9800 H 931.712 -4.30444 -1.83945 0
M  V30 9801 H 931.885 -6.05347 -2.31212 0
M  V30 9802 N 925.291 0.760815 -1.38019 0
M  V30 9803 C 926.239 1.89578 -1.34771 0
M  V30 9804 C 927.233 1.67766 -0.234714 0
M  V30 9805 O 928.439 1.75423 -0.403352 0
M  V30 9806 H 924.814 0.623608 -0.420258 0
M  V30 9807 H 926.785 1.89434 -2.30558 0
M  V30 9808 C 925.534 3.26976 -1.18246 0
M  V30 9809 H 924.857 3.44342 -2.03147 0
M  V30 9810 H 926.297 4.06657 -1.20026 0
M  V30 9811 C 924.756 3.36717 0.111145 0
M  V30 9812 O 925.286 3.86607 1.09079 0
M  V30 9813 N 923.492 2.90128 0.165542 0
M  V30 9814 H 923.039 2.49719 -0.632328 0
M  V30 9815 H 922.997 2.97026 1.03067 0
M  V30 9816 N 926.769 1.22769 0.988202 0
M  V30 9817 C 927.716 1.00195 2.07917 0
M  V30 9818 C 928.686 -0.0779391 1.65917 0
M  V30 9819 O 929.871 0.0726005 1.90662 0
M  V30 9820 C 927.011 0.590853 3.40004 0
M  V30 9821 C 926.124 1.74202 3.9532 0
M  V30 9822 C 925.259 1.27846 5.15586 0
M  V30 9823 C 924.298 2.40087 5.63049 0
M  V30 9824 N 923.435 1.94744 6.74551 0
M  V30 9825 H 928.275 1.93581 2.26562 0
M  V30 9826 H 925.812 0.96448 1.11068 0
M  V30 9827 H 927.77 0.333653 4.15864 0
M  V30 9828 H 926.4 -0.306007 3.21346 0
M  V30 9829 H 925.452 2.11342 3.16289 0
M  V30 9830 H 926.764 2.58612 4.26522 0
M  V30 9831 H 925.918 0.978919 5.9875 0
M  V30 9832 H 924.657 0.404617 4.86019 0
M  V30 9833 H 923.662 2.70824 4.78471 0
M  V30 9834 H 924.887 3.27995 5.9464 0
M  V30 9835 H 922.833 1.09729 6.46758 0
M  V30 9836 H 922.75 2.72718 7.05096 0
M  V30 9837 H 924.018 1.67873 7.61209 0
M  V30 9838 N 928.247 -1.18576 1.03814 0
M  V30 9839 C 929.524 -1.8433 0.654358 0
M  V30 9840 C 929.904 -1.92504 -0.866338 0
M  V30 9841 O 929.252 -1.44904 -1.76678 0
M  V30 9842 C 929.462 -3.22778 1.32723 0
M  V30 9843 C 930.81 -3.98841 1.45641 0
M  V30 9844 O 931.834 -3.32209 1.28514 0
M  V30 9845 O 930.693 -5.18219 1.73526 0
M  V30 9846 H 927.787 -0.794766 0.228638 0
M  V30 9847 H 930.333 -1.25989 1.13687 0
M  V30 9848 H 929.105 -3.11717 2.36534 0
M  V30 9849 H 928.728 -3.88772 0.833176 0
M  V30 9850 N 929.725 -0.817259 -1.34754 0
M  V30 9851 C 930.971 -0.403244 -1.98751 0
M  V30 9852 C 931.304 1.02963 -1.64658 0
M  V30 9853 O 930.579 1.71617 -0.915314 0
M  V30 9854 C 930.862 -0.599188 -3.5508 0
M  V30 9855 C 930.715 -2.07777 -3.98934 0
M  V30 9856 C 932.034 -0.0315656 -4.40089 0
M  V30 9857 H 929.153 -0.147988 -0.721989 0
M  V30 9858 H 931.795 -1.02877 -1.59738 0
M  V30 9859 H 929.945 -0.0667116 -3.88443 0
M  V30 9860 H 931.617 -2.67345 -3.75931 0
M  V30 9861 H 929.86 -2.57031 -3.49453 0
M  V30 9862 H 930.531 -2.16571 -5.07741 0
M  V30 9863 H 933.007 -0.48644 -4.13247 0
M  V30 9864 H 931.883 -0.198507 -5.48541 0
M  V30 9865 H 932.144 1.06302 -4.2913 0
M  V30 9866 N 931.203 1.46865 -0.571711 0
M  V30 9867 C 932.15 2.30189 0.167808 0
M  V30 9868 C 933.12 1.3995 0.89461 0
M  V30 9869 O 934.305 1.68905 0.887451 0
M  V30 9870 C 931.445 3.24205 1.1826 0
M  V30 9871 C 930.558 4.2954 0.460376 0
M  V30 9872 C 929.693 5.10693 1.46173 0
M  V30 9873 C 928.732 6.07788 0.725291 0
M  V30 9874 N 927.869 6.81847 1.67417 0
M  V30 9875 H 932.709 2.92902 -0.548831 0
M  V30 9876 H 930.246 1.44362 -0.282474 0
M  V30 9877 H 932.204 3.77147 1.7837 0
M  V30 9878 H 930.834 2.63324 1.86709 0
M  V30 9879 H 929.886 3.79541 -0.255546 0
M  V30 9880 H 931.198 4.98665 -0.115855 0
M  V30 9881 H 930.352 5.67857 2.13595 0
M  V30 9882 H 929.091 4.41502 2.07188 0
M  V30 9883 H 928.096 5.49787 0.037228 0
M  V30 9884 H 929.321 6.78993 0.120678 0
M  V30 9885 H 927.267 6.15376 2.27263 0
M  V30 9886 H 927.184 7.47195 1.15046 0
M  V30 9887 H 928.452 7.43577 2.33908 0
M  V30 9888 N 932.681 0.308908 1.54543 0
M  V30 9889 C 933.628 -0.563659 2.23811 0
M  V30 9890 C 934.598 -1.12332 1.22355 0
M  V30 9891 O 935.783 -1.16638 1.50997 0
M  V30 9892 C 932.923 -1.72585 2.98845 0
M  V30 9893 C 932.036 -1.19682 4.1509 0
M  V30 9894 C 931.171 -2.32351 4.77688 0
M  V30 9895 C 930.21 -1.76623 5.86064 0
M  V30 9896 N 929.347 -2.82896 6.42584 0
M  V30 9897 H 934.187 0.0336288 2.97981 0
M  V30 9898 H 931.724 0.0283666 1.47073 0
M  V30 9899 H 933.682 -2.40951 3.40586 0
M  V30 9900 H 932.312 -2.29464 2.27037 0
M  V30 9901 H 931.364 -0.405173 3.78236 0
M  V30 9902 H 932.676 -0.748923 4.93146 0
M  V30 9903 H 931.83 -3.0865 5.22322 0
M  V30 9904 H 930.569 -2.80472 3.98982 0
M  V30 9905 H 929.574 -0.988171 5.40847 0
M  V30 9906 H 930.799 -1.29398 6.66658 0
M  V30 9907 H 928.745 -3.30336 5.66758 0
M  V30 9908 H 928.662 -2.42626 7.16009 0
M  V30 9909 H 929.93 -3.59068 6.91875 0
M  V30 9910 N 934.159 -1.57557 0.0367827 0
M  V30 9911 C 935.122 -2.09591 -0.927589 0
M  V30 9912 C 936.122 -1.01252 -1.24919 0
M  V30 9913 O 937.312 -1.27382 -1.18825 0
M  V30 9914 C 934.444 -2.56816 -2.24184 0
M  V30 9915 H 935.637 -2.96086 -0.476784 0
M  V30 9916 H 933.19 -1.54864 -0.211385 0
M  V30 9917 H 933.925 -1.73673 -2.73876 0
M  V30 9918 H 933.71 -3.35973 -2.0215 0
M  V30 9919 H 935.2 -2.97271 -2.93291 0
M  V30 9920 N 935.637 0.236453 -1.55816 0
M  V30 9921 C 936.886 0.960981 -1.77336 0
M  V30 9922 C 937.199 1.86085 -0.602641 0
M  V30 9923 O 938.405 2.62291 -0.701106 0
M  V30 9924 C 936.861 1.75884 -3.13995 0
M  V30 9925 C 936.469 0.905849 -4.38746 0
M  V30 9926 C 938.213 2.47548 -3.44848 0
M  V30 9927 C 936.12 1.7002 -5.66434 0
M  V30 9928 H 935.05 0.362547 -0.661117 0
M  V30 9929 H 937.701 0.215303 -1.82233 0
M  V30 9930 H 936.083 2.54687 -3.03234 0
M  V30 9931 H 937.257 0.159415 -4.60524 0
M  V30 9932 H 935.572 0.30205 -4.15303 0
M  V30 9933 H 938.169 3.07452 -4.37467 0
M  V30 9934 H 938.512 3.19689 -2.66655 0
M  V30 9935 H 939.045 1.75747 -3.56872 0
M  V30 9936 H 935.784 1.02234 -6.47479 0
M  V30 9937 H 935.304 2.42164 -5.48741 0
M  V30 9938 H 936.983 2.26469 -6.0607 0
M  V30 9939 N 937.115 1.49373 0.502552 0
M  V30 9940 C 938.045 1.68839 1.61294 0
M  V30 9941 C 939.026 0.537096 1.61398 0
M  V30 9942 O 940.211 0.772764 1.78163 0
M  V30 9943 C 937.341 1.75347 2.99784 0
M  V30 9944 C 936.295 2.90251 3.14545 0
M  V30 9945 C 935.621 2.8187 4.54371 0
M  V30 9946 C 936.921 4.31207 2.94717 0
M  V30 9947 H 938.615 2.61803 1.45257 0
M  V30 9948 H 936.161 1.25987 0.697371 0
M  V30 9949 H 938.114 1.87552 3.77362 0
M  V30 9950 H 936.838 0.789814 3.16906 0
M  V30 9951 H 935.497 2.77646 2.39392 0
M  V30 9952 H 935.145 1.83416 4.68367 0
M  V30 9953 H 934.845 3.5899 4.65188 0
M  V30 9954 H 936.369 2.96081 5.34012 0
M  V30 9955 H 937.783 4.44501 3.62065 0
M  V30 9956 H 936.18 5.09536 3.17007 0
M  V30 9957 H 937.25 4.45759 1.90857 0
M  V30 9958 N 938.594 -0.753485 1.38421 0
M  V30 9959 C 939.504 -1.89797 1.37892 0
M  V30 9960 C 940.52 -1.71797 0.276023 0
M  V30 9961 O 941.696 -1.94718 0.514464 0
M  V30 9962 C 938.761 -3.25166 1.20284 0
M  V30 9963 C 937.822 -3.55691 2.4038 0
M  V30 9964 C 937.055 -4.84601 2.23602 0
M  V30 9965 O 937.278 -5.56985 1.22979 0
M  V30 9966 O 936.212 -5.14605 3.12194 0
M  V30 9967 H 940.038 -1.93197 2.34326 0
M  V30 9968 H 937.623 -0.898775 1.19342 0
M  V30 9969 H 939.505 -4.06099 1.12525 0
M  V30 9970 H 938.18 -3.22577 0.269352 0
M  V30 9971 H 937.087 -2.74919 2.53714 0
M  V30 9972 H 938.42 -3.6304 3.32359 0
M  V30 9973 N 940.072 -1.23292 -0.981677 0
M  V30 9974 C 941.349 -0.972514 -1.6971 0
M  V30 9975 C 941.729 0.509244 -2.04866 0
M  V30 9976 O 941.077 1.48013 -1.74082 0
M  V30 9977 C 941.287 -1.88144 -2.93943 0
M  V30 9978 C 942.635 -2.14416 -3.66485 0
M  V30 9979 O 943.659 -1.85684 -3.03974 0
M  V30 9980 O 942.518 -2.63139 -4.78978 0
M  V30 9981 H 939.612 -0.366673 -0.741269 0
M  V30 9982 H 942.158 -1.34328 -1.03701 0
M  V30 9983 H 940.93 -2.8832 -2.64551 0
M  V30 9984 H 940.553 -1.51296 -3.67689 0
M  V30 9985 N 941.55 1.18024 -1.04442 0
M  V30 9986 C 942.483 2.20623 -0.583171 0
M  V30 9987 C 943.461 1.57994 0.384262 0
M  V30 9988 O 944.645 1.86135 0.297673 0
M  V30 9989 C 941.772 3.38378 0.147561 0
M  V30 9990 C 940.818 4.19423 -0.773711 0
M  V30 9991 S 941.651 4.85534 -2.25869 0
M  V30 9992 C 942.807 6.06686 -1.53891 0
M  V30 9993 H 943.04 2.59406 -1.45244 0
M  V30 9994 H 940.573 1.28518 -0.855708 0
M  V30 9995 H 942.531 4.06621 0.562988 0
M  V30 9996 H 941.192 2.97998 0.992765 0
M  V30 9997 H 940.385 5.03568 -0.208694 0
M  V30 9998 H 939.987 3.56579 -1.12816 0
M  V30 9999 H 942.279 6.72347 -0.834045 0
M  V30 10000 H 943.222 6.67702 -2.35755 0
M  V30 10001 H 943.63 5.55031 -1.02961 0
M  V30 10002 N 943.028 0.824394 1.34319 0
M  V30 10003 C 944.274 0.413779 1.98534 0
M  V30 10004 C 944.607 -1.02089 1.65201 0
M  V30 10005 O 943.882 -1.71129 0.924402 0
M  V30 10006 C 944.165 0.61801 3.54757 0
M  V30 10007 C 944.018 2.0989 3.97827 0
M  V30 10008 C 945.337 0.0549041 4.40066 0
M  V30 10009 H 942.456 0.151815 0.721194 0
M  V30 10010 H 945.098 1.03723 1.5919 0
M  V30 10011 H 943.248 0.0873107 3.88402 0
M  V30 10012 H 944.92 2.69335 3.74508 0
M  V30 10013 H 943.163 2.58881 3.48085 0
M  V30 10014 H 943.834 2.1926 5.06586 0
M  V30 10015 H 946.31 0.508348 4.12983 0
M  V30 10016 H 945.186 0.227595 5.48428 0
M  V30 10017 H 945.447 -1.04025 4.29687 0
M  V30 10018 N 944.506 -1.46559 0.579492 0
M  V30 10019 C 945.922 -1.57771 0.240921 0
M  V30 10020 C 946.122 -1.57505 -1.25676 0
M  V30 10021 O 945.178 -1.4903 -2.03829 0
M  V30 10022 C 946.491 -2.87311 0.887285 0
M  V30 10023 C 948.039 -3.00937 0.860576 0
M  V30 10024 C 948.514 -4.33208 1.48642 0
M  V30 10025 N 950.005 -4.39899 1.45062 0
M  V30 10026 C 950.74 -5.40856 1.90428 0
M  V30 10027 N 950.236 -6.48503 2.43752 0
M  V30 10028 N 952.029 -5.32037 1.81364 0
M  V30 10029 H 944.18 -1.44976 1.55228 0
M  V30 10030 H 946.443 -0.691354 0.648639 0
M  V30 10031 H 946.149 -2.93307 1.94071 0
M  V30 10032 H 946.023 -3.75141 0.393577 0
M  V30 10033 H 948.41 -2.94524 -0.184223 0
M  V30 10034 H 948.491 -2.14591 1.39227 0
M  V30 10035 H 948.135 -4.40378 2.5304 0
M  V30 10036 H 948.065 -5.18323 0.92998 0
M  V30 10037 H 950.556 -3.62706 1.0608 0
M  V30 10038 H 950.869 -7.21744 2.76234 0
M  V30 10039 H 949.214 -6.49332 2.47776 0
M  V30 10040 H 952.405 -4.46841 1.39465 0
M  V30 10041 H 952.578 -6.10573 2.17035 0
M  V30 10042 N 945.984 -0.3171 -1.54377 0
M  V30 10043 C 946.914 0.544623 -2.2706 0
M  V30 10044 C 947.895 1.12469 -1.27611 0
M  V30 10045 O 949.08 1.15103 -1.56413 0
M  V30 10046 C 946.21 1.70879 -3.02353 0
M  V30 10047 C 945.164 1.25833 -4.09084 0
M  V30 10048 C 944.49 2.50894 -4.72182 0
M  V30 10049 C 945.79 0.377876 -5.20931 0
M  V30 10050 H 947.484 -0.0616372 -2.99337 0
M  V30 10051 H 945.03 -0.0310848 -1.43966 0
M  V30 10052 H 946.983 2.31787 -3.51927 0
M  V30 10053 H 945.707 2.34155 -2.27682 0
M  V30 10054 H 944.366 0.672228 -3.60384 0
M  V30 10055 H 944.014 3.12518 -3.94134 0
M  V30 10056 H 943.714 2.21447 -5.44275 0
M  V30 10057 H 945.238 3.12575 -5.24528 0
M  V30 10058 H 946.652 0.893056 -5.66302 0
M  V30 10059 H 945.049 0.176474 -5.9984 0
M  V30 10060 H 946.119 -0.592943 -4.81261 0
M  V30 10061 N 947.462 1.57535 -0.0451378 0
M  V30 10062 C 948.71 1.92071 0.628743 0
M  V30 10063 C 949.031 0.923635 1.71738 0
M  V30 10064 O 948.301 -0.0324376 1.95873 0
M  V30 10065 H 946.881 0.708995 0.235233 0
M  V30 10066 H 949.543 1.9466 -0.0967177 0
M  V30 10067 H 948.639 2.9314 1.07123 0
M  V30 10068 N 948.94 -0.228186 1.55939 0
M  V30 10069 C 949.887 -1.28274 1.91871 0
M  V30 10070 C 950.857 -1.46906 0.775103 0
M  V30 10071 O 952.042 -1.60583 1.03042 0
M  V30 10072 C 949.182 -2.62945 2.23504 0
M  V30 10073 C 948.295 -2.52166 3.50766 0
M  V30 10074 C 947.43 -3.79316 3.71878 0
M  V30 10075 C 946.469 -3.63231 4.92676 0
M  V30 10076 N 945.606 -4.82315 5.10212 0
M  V30 10077 H 950.446 -0.96931 2.81795 0
M  V30 10078 H 947.983 -0.467331 1.39479 0
M  V30 10079 H 949.941 -3.41359 2.39854 0
M  V30 10080 H 948.571 -2.92397 1.36762 0
M  V30 10081 H 947.623 -1.65221 3.42646 0
M  V30 10082 H 948.935 -2.36199 4.39331 0
M  V30 10083 H 948.089 -4.66173 3.88288 0
M  V30 10084 H 946.828 -3.982 2.81581 0
M  V30 10085 H 945.833 -2.74757 4.76223 0
M  V30 10086 H 947.058 -3.45823 5.84451 0
M  V30 10087 H 945.004 -5.01526 4.22856 0
M  V30 10088 H 944.921 -4.6905 5.92898 0
M  V30 10089 H 946.189 -5.70618 5.31051 0
M  V30 10090 N 950.418 -1.49637 -0.494624 0
M  V30 10091 C 951.695 -1.4995 -1.25596 0
M  V30 10092 C 952.075 -0.230805 -2.09834 0
M  V30 10093 O 951.423 0.786625 -2.14533 0
M  V30 10094 C 951.633 -2.78204 -2.10721 0
M  V30 10095 C 952.981 -3.27946 -2.69698 0
M  V30 10096 O 954.005 -2.79365 -2.20984 0
M  V30 10097 O 952.864 -4.12571 -3.58395 0
M  V30 10098 H 949.958 -0.60044 -0.568684 0
M  V30 10099 H 952.504 -1.61906 -0.508371 0
M  V30 10100 H 951.276 -3.62029 -1.48494 0
M  V30 10101 H 950.899 -2.69139 -2.92661 0
M  V30 10102 N 951.896 0.746133 -1.38819 0
M  V30 10103 C 953.121 1.54049 -1.38866 0
M  V30 10104 C 953.546 1.88092 0.0176624 0
M  V30 10105 O 952.904 1.51113 1.00173 0
M  V30 10106 C 952.952 2.8116 -2.25791 0
M  V30 10107 O 952.056 3.76623 -1.68014 0
M  V30 10108 H 951.397 0.465648 -0.473359 0
M  V30 10109 H 953.927 0.921469 -1.82675 0
M  V30 10110 H 953.937 3.30009 -2.39913 0
M  V30 10111 H 952.612 2.55713 -3.27999 0
M  V30 10112 H 951.189 3.35352 -1.63074 0
M  V30 10113 N 953.375 1.23811 0.975125 0
M  V30 10114 C 954.623 1.07124 1.71373 0
M  V30 10115 C 954.944 -0.391864 1.91022 0
M  V30 10116 O 954.214 -1.28041 1.48265 0
M  V30 10117 H 952.794 0.393415 0.635007 0
M  V30 10118 H 955.456 1.55612 1.17349 0
M  V30 10119 H 954.552 1.56338 2.7012 0
M  V30 10120 N 954.853 -1.17469 1.05066 0
M  V30 10121 C 955.783 -2.23635 0.671552 0
M  V30 10122 C 956.764 -1.66867 -0.33006 0
M  V30 10123 O 957.949 -1.93084 -0.207933 0
M  V30 10124 C 955.079 -3.47272 0.0441845 0
M  V30 10125 C 954.033 -4.16854 0.97042 0
M  V30 10126 C 953.359 -5.34299 0.206998 0
M  V30 10127 C 954.659 -4.69225 2.29401 0
M  V30 10128 H 956.353 -2.55602 1.55911 0
M  V30 10129 H 953.899 -1.2286 0.751101 0
M  V30 10130 H 955.852 -4.20756 -0.23282 0
M  V30 10131 H 954.576 -3.14568 -0.878311 0
M  V30 10132 H 953.235 -3.4528 1.23197 0
M  V30 10133 H 952.883 -4.97846 -0.718222 0
M  V30 10134 H 952.583 -5.81792 0.82416 0
M  V30 10135 H 954.107 -6.10568 -0.0627525 0
M  V30 10136 H 955.521 -5.34353 2.077 0
M  V30 10137 H 953.918 -5.27291 2.86503 0
M  V30 10138 H 954.988 -3.86102 2.93348 0
M  V30 10139 N 956.331 -0.831506 -1.3388 0
M  V30 10140 C 957.278 -0.257449 -2.2936 0
M  V30 10141 C 958.248 0.622604 -1.5399 0
M  V30 10142 O 959.433 0.562432 -1.82322 0
M  V30 10143 C 956.573 0.567587 -3.404 0
M  V30 10144 C 955.686 -0.335666 -4.30694 0
M  V30 10145 C 954.821 0.499762 -5.28844 0
M  V30 10146 C 953.86 -0.402343 -6.10776 0
M  V30 10147 N 952.997 0.39452 -7.00991 0
M  V30 10148 H 957.837 -1.077 -2.77857 0
M  V30 10149 H 955.374 -0.542589 -1.36727 0
M  V30 10150 H 957.332 1.06133 -4.03474 0
M  V30 10151 H 955.962 1.35217 -2.93115 0
M  V30 10152 H 955.014 -0.94768 -3.68406 0
M  V30 10153 H 956.326 -1.02896 -4.88072 0
M  V30 10154 H 955.48 1.05763 -5.9741 0
M  V30 10155 H 954.219 1.22652 -4.72025 0
M  V30 10156 H 953.224 -0.972288 -5.41135 0
M  V30 10157 H 954.449 -1.12735 -6.69677 0
M  V30 10158 H 952.395 1.1048 -6.4663 0
M  V30 10159 H 952.312 -0.240209 -7.55618 0
M  V30 10160 H 953.58 0.934867 -7.73874 0
M  V30 10161 N 957.809 1.4625 -0.587256 0
M  V30 10162 C 959.22 1.85997 -0.161918 0
M  V30 10163 C 959.571 1.49025 1.27616 0
M  V30 10164 O 958.696 0.907282 1.96462 0
M  V30 10165 C 959.291 3.37582 -0.287077 0
M  V30 10166 C 957.85 3.76308 0.0834211 0
M  V30 10167 C 956.997 2.70259 -0.620932 0
M  V30 10168 H 959.948 1.3734 -0.795199 0
M  V30 10169 H 959.969 3.77379 0.486333 0
M  V30 10170 H 959.481 3.64459 -1.33383 0
M  V30 10171 H 957.582 3.55047 1.13013 0
M  V30 10172 H 957.695 4.78184 -0.296064 0
M  V30 10173 H 956.059 2.54628 -0.0607027 0
M  V30 10174 H 956.842 2.99975 -1.66942 0
M  V30 10175 N 959.287 0.325282 1.54207 0
M  V30 10176 C 960.534 -0.276775 2.006 0
M  V30 10177 C 960.862 -1.52007 1.21343 0
M  V30 10178 O 960.117 -1.93627 0.284104 0
M  V30 10179 C 960.416 -0.654292 3.5136 0
M  V30 10180 C 960.082 0.490023 4.48229 0
M  V30 10181 C 958.744 0.804104 4.74434 0
M  V30 10182 C 961.096 1.2586 5.05775 0
M  V30 10183 C 958.424 1.88945 5.55443 0
M  V30 10184 C 960.776 2.33405 5.87967 0
M  V30 10185 C 959.44 2.65393 6.12473 0
M  V30 10186 H 958.71 -0.101279 0.734046 0
M  V30 10187 H 961.357 0.449416 1.86152 0
M  V30 10188 H 959.662 -1.46093 3.63544 0
M  V30 10189 H 961.359 -1.13171 3.84699 0
M  V30 10190 H 957.949 0.235147 4.27954 0
M  V30 10191 H 962.133 1.02921 4.85511 0
M  V30 10192 H 957.389 2.14174 5.7266 0
M  V30 10193 H 961.563 2.93402 6.31576 0
M  V30 10194 H 959.19 3.49622 6.75032 0
M  V30 10195 N 960.765 -1.57509 0.0534917 0
M  V30 10196 C 961.675 -2.15152 -0.935249 0
M  V30 10197 C 962.691 -1.10991 -1.34003 0
M  V30 10198 O 963.867 -1.43171 -1.41648 0
M  V30 10199 C 960.932 -2.68699 -2.19093 0
M  V30 10200 C 959.993 -3.87666 -1.84428 0
M  V30 10201 C 959.226 -4.3865 -3.0401 0
M  V30 10202 O 959.449 -3.887 -4.17455 0
M  V30 10203 O 958.383 -5.30209 -2.84889 0
M  V30 10204 H 962.209 -2.99962 -0.475009 0
M  V30 10205 H 959.794 -1.48446 -0.16854 0
M  V30 10206 H 961.676 -3.03098 -2.92762 0
M  V30 10207 H 960.351 -1.86958 -2.6425 0
M  V30 10208 H 959.258 -3.58151 -1.08068 0
M  V30 10209 H 960.591 -4.70643 -1.44068 0
M  V30 10210 N 962.243 0.219913 -1.56058 0
M  V30 10211 C 963.175 1.29604 -1.89038 0
M  V30 10212 C 964.188 1.42964 -0.778791 0
M  V30 10213 O 965.377 1.43832 -1.0571 0
M  V30 10214 C 962.477 2.67145 -2.08534 0
M  V30 10215 C 961.65 2.75712 -3.39561 0
M  V30 10216 C 960.709 3.94279 -3.48469 0
M  V30 10217 O 959.735 3.8254 -4.21487 0
M  V30 10218 N 960.937 5.08655 -2.79732 0
M  V30 10219 H 963.702 1.01638 -2.81939 0
M  V30 10220 H 961.263 0.409945 -1.56624 0
M  V30 10221 H 963.255 3.44847 -2.11808 0
M  V30 10222 H 961.825 2.87704 -1.2225 0
M  V30 10223 H 961.045 1.84475 -3.48371 0
M  V30 10224 H 962.333 2.78407 -4.25872 0
M  V30 10225 H 961.731 5.21088 -2.2019 0
M  V30 10226 H 960.288 5.84394 -2.88665 0
M  V30 10227 N 963.721 1.49897 0.486681 0
M  V30 10228 C 964.967 1.60342 1.2417 0
M  V30 10229 C 965.3 0.295694 1.91936 0
M  V30 10230 O 964.575 -0.701788 1.81398 0
M  V30 10231 C 964.858 2.77281 2.29755 0
M  V30 10232 C 964.711 4.1789 1.66397 0
M  V30 10233 C 966.03 2.89817 3.31201 0
M  V30 10234 H 963.149 0.583605 0.450083 0
M  V30 10235 H 965.791 1.82232 0.537734 0
M  V30 10236 H 963.941 2.58748 2.89796 0
M  V30 10237 H 965.613 4.47975 1.10073 0
M  V30 10238 H 963.856 4.22872 0.967579 0
M  V30 10239 H 964.527 4.95612 2.43049 0
M  V30 10240 H 967.003 3.06732 2.81167 0
M  V30 10241 H 965.879 3.7329 4.02425 0
M  V30 10242 H 966.14 1.9977 3.94391 0
M  V30 10243 N 965.199 -0.738761 1.39212 0
M  V30 10244 C 966.146 -1.85273 1.37631 0
M  V30 10245 C 967.116 -1.64407 0.236572 0
M  V30 10246 O 968.301 -1.85866 0.431104 0
M  V30 10247 C 965.441 -3.22745 1.22188 0
M  V30 10248 C 964.554 -3.55342 2.45674 0
M  V30 10249 C 963.689 -4.82195 2.22847 0
M  V30 10250 C 962.728 -5.07625 3.42029 0
M  V30 10251 N 961.865 -6.25679 3.18543 0
M  V30 10252 H 966.705 -1.85959 2.32859 0
M  V30 10253 H 964.242 -0.908716 1.15675 0
M  V30 10254 H 966.2 -4.02095 1.11245 0
M  V30 10255 H 964.83 -3.21347 0.30592 0
M  V30 10256 H 963.882 -2.70722 2.67233 0
M  V30 10257 H 965.194 -3.70054 3.34457 0
M  V30 10258 H 964.348 -5.69518 2.09126 0
M  V30 10259 H 963.087 -4.6965 1.31454 0
M  V30 10260 H 962.092 -4.18765 3.56253 0
M  V30 10261 H 963.317 -5.22058 4.34319 0
M  V30 10262 H 961.263 -6.14429 2.2981 0
M  V30 10263 H 961.18 -6.40961 4.0088 0
M  V30 10264 H 962.448 -7.15851 3.08508 0
M  V30 10265 N 966.677 -1.24326 -0.968545 0
M  V30 10266 C 967.925 -1.08032 -1.70803 0
M  V30 10267 C 968.246 0.381728 -1.91227 0
M  V30 10268 O 967.516 1.27253 -1.48942 0
M  V30 10269 H 966.096 -0.396777 -0.632912 0
M  V30 10270 H 968.758 -1.56232 -1.16523 0
M  V30 10271 H 967.854 -1.57769 -2.69287 0
M  V30 10272 N 968.156 1.1691 -1.05688 0
M  V30 10273 C 969.405 1.86629 -0.765022 0
M  V30 10274 C 969.718 1.82223 0.710918 0
M  V30 10275 O 970.924 2.47462 1.11691 0
M  V30 10276 C 969.38 3.34886 -1.3183 0
M  V30 10277 C 968.988 3.47781 -2.82404 0
M  V30 10278 C 970.732 4.099 -1.10372 0
M  V30 10279 C 968.639 4.9009 -3.31008 0
M  V30 10280 H 967.569 0.699082 -0.282491 0
M  V30 10281 H 970.22 1.31989 -1.27481 0
M  V30 10282 H 968.602 3.89094 -0.736312 0
M  V30 10283 H 969.776 3.03765 -3.46502 0
M  V30 10284 H 968.091 2.86193 -3.02461 0
M  V30 10285 H 970.688 5.14894 -1.4418 0
M  V30 10286 H 971.031 4.16279 -0.0417372 0
M  V30 10287 H 971.564 3.61913 -1.65117 0
M  V30 10288 H 968.303 4.88887 -4.36657 0
M  V30 10289 H 967.823 5.34756 -2.71655 0
M  V30 10290 H 969.502 5.58881 -3.25977 0
M  V30 10291 N 969.634 0.838594 1.33437 0
M  V30 10292 C 970.862 0.447644 2.01999 0
M  V30 10293 C 971.277 -0.951053 1.63096 0
M  V30 10294 O 970.634 -1.61802 0.844169 0
M  V30 10295 C 970.685 0.558378 3.57162 0
M  V30 10296 O 970.406 1.90196 3.94661 0
M  V30 10297 C 971.907 0.164348 4.42995 0
M  V30 10298 H 969.127 0.177736 0.647032 0
M  V30 10299 H 971.671 1.13109 1.70372 0
M  V30 10300 H 969.826 -0.0771563 3.87323 0
M  V30 10301 H 970.24 1.88729 4.89369 0
M  V30 10302 H 971.714 0.292876 5.51222 0
M  V30 10303 H 972.191 -0.893713 4.30011 0
M  V30 10304 H 972.797 0.774306 4.18192 0
M  V30 10305 N 971.112 -1.45937 0.595003 0
M  V30 10306 C 972.042 -2.33198 -0.11871 0
M  V30 10307 C 973.023 -1.46083 -0.871423 0
M  V30 10308 O 974.208 -1.74879 -0.844461 0
M  V30 10309 C 971.338 -3.28576 -1.12495 0
M  V30 10310 C 970.292 -4.25229 -0.486275 0
M  V30 10311 C 969.618 -5.10204 -1.59986 0
M  V30 10312 C 970.918 -5.19019 0.584473 0
M  V30 10313 H 972.612 -2.93122 0.609886 0
M  V30 10314 H 970.158 -1.40951 0.294742 0
M  V30 10315 H 972.111 -3.88485 -1.6327 0
M  V30 10316 H 970.835 -2.66784 -1.88398 0
M  V30 10317 H 969.494 -3.666 0.000507962 0
M  V30 10318 H 969.142 -4.44789 -2.34886 0
M  V30 10319 H 968.842 -5.75669 -1.1781 0
M  V30 10320 H 970.366 -5.7298 -2.11014 0
M  V30 10321 H 971.78 -5.73073 0.161297 0
M  V30 10322 H 970.177 -5.92893 0.927256 0
M  V30 10323 H 971.247 -4.62208 1.46601 0
M  V30 10324 N 972.59 -0.333456 -1.54032 0
M  V30 10325 C 973.54 0.543745 -2.21421 0
M  V30 10326 C 974.524 1.07396 -1.19812 0
M  V30 10327 O 975.716 1.00934 -1.45401 0
M  V30 10328 C 972.845 1.69925 -2.98296 0
M  V30 10329 C 971.931 1.18345 -4.07253 0
M  V30 10330 N 972.322 0.388098 -5.04309 0
M  V30 10331 C 970.62 1.46128 -4.21382 0
M  V30 10332 C 971.321 0.109383 -5.81597 0
M  V30 10333 N 970.297 0.69825 -5.39097 0
M  V30 10334 H 974.099 -0.0711018 -2.93814 0
M  V30 10335 H 971.613 -0.139807 -1.61797 0
M  V30 10336 H 973.61 2.33954 -3.45067 0
M  V30 10337 H 972.27 2.31747 -2.27428 0
M  V30 10338 H 973.281 0.0300645 -5.17891 0
M  V30 10339 H 969.958 2.08463 -3.61731 0
M  V30 10340 H 971.348 -0.531554 -6.69794 0
M  V30 10341 N 974.068 1.57479 -0.061844 0
M  V30 10342 C 975.479 1.80627 0.472295 0
M  V30 10343 C 975.83 0.97496 1.70261 0
M  V30 10344 O 974.955 0.1946 2.15523 0
M  V30 10345 C 975.55 3.27608 0.863616 0
M  V30 10346 C 974.109 3.51638 1.34267 0
M  V30 10347 C 973.256 2.75412 0.323009 0
M  V30 10348 H 976.207 1.56072 -0.287634 0
M  V30 10349 H 976.228 3.39113 1.72577 0
M  V30 10350 H 975.74 3.88087 -0.0320226 0
M  V30 10351 H 973.841 2.96452 2.25714 0
M  V30 10352 H 973.954 4.60342 1.32747 0
M  V30 10353 H 972.318 2.4187 0.798175 0
M  V30 10354 H 973.101 3.38623 -0.564729 0
M  V30 10355 N 975.546 -0.211634 1.56173 0
M  V30 10356 C 976.456 -1.2831 1.96402 0
M  V30 10357 C 977.472 -1.50731 0.869254 0
M  V30 10358 O 978.648 -1.63669 1.17365 0
M  V30 10359 C 975.713 -2.61084 2.28114 0
M  V30 10360 C 974.774 -2.46879 3.51211 0
M  V30 10361 C 974.007 -3.73321 3.81401 0
M  V30 10362 O 974.23 -4.76773 3.13119 0
M  V30 10363 O 973.164 -3.69839 4.74871 0
M  V30 10364 H 976.99 -0.971733 2.87734 0
M  V30 10365 H 974.575 -0.415305 1.43512 0
M  V30 10366 H 976.457 -3.39481 2.49661 0
M  V30 10367 H 975.132 -2.91881 1.39954 0
M  V30 10368 H 974.039 -1.66648 3.34932 0
M  V30 10369 H 975.372 -2.21018 4.39786 0
M  V30 10370 N 977.024 -1.50153 -0.478725 0
M  V30 10371 C 977.954 -1.71384 -1.58587 0
M  V30 10372 C 978.935 -0.562705 -1.60523 0
M  V30 10373 O 980.12 -0.80101 -1.76911 0
M  V30 10374 C 977.25 -1.80094 -2.96957 0
M  V30 10375 C 976.204 -2.95218 -3.09888 0
M  V30 10376 C 975.53 -2.89063 -4.49829 0
M  V30 10377 C 976.83 -4.35841 -2.8782 0
M  V30 10378 H 978.524 -2.64081 -1.41073 0
M  V30 10379 H 976.07 -1.27081 -0.677239 0
M  V30 10380 H 978.023 -1.93531 -3.74331 0
M  V30 10381 H 976.747 -0.840131 -3.1561 0
M  V30 10382 H 975.406 -2.81419 -2.34944 0
M  V30 10383 H 975.054 -1.90844 -4.6539 0
M  V30 10384 H 974.754 -3.66345 -4.59418 0
M  V30 10385 H 976.278 -3.04539 -5.29234 0
M  V30 10386 H 977.692 -4.50205 -3.54948 0
M  V30 10387 H 976.089 -5.14515 -3.0886 0
M  V30 10388 H 977.159 -4.48739 -1.83742 0
M  V30 10389 N 978.502 0.731368 -1.39602 0
M  V30 10390 C 979.749 1.491 -1.37024 0
M  V30 10391 C 980.077 1.94473 0.0326423 0
M  V30 10392 O 979.332 1.6737 1.01418 0
M  V30 10393 C 979.631 2.74224 -2.29208 0
M  V30 10394 C 979.297 2.477 -3.7677 0
M  V30 10395 C 977.959 2.40175 -4.16976 0
M  V30 10396 C 980.311 2.25098 -4.70086 0
M  V30 10397 C 977.639 2.08095 -5.48556 0
M  V30 10398 C 979.991 1.94534 -6.01946 0
M  V30 10399 C 978.655 1.85481 -6.41212 0
M  V30 10400 H 977.925 0.545595 -0.501405 0
M  V30 10401 H 980.572 0.839127 -1.72136 0
M  V30 10402 H 978.877 3.44171 -1.87225 0
M  V30 10403 H 980.574 3.32264 -2.24504 0
M  V30 10404 H 977.164 2.54436 -3.44906 0
M  V30 10405 H 981.348 2.29876 -4.39853 0
M  V30 10406 H 976.604 1.99611 -5.77897 0
M  V30 10407 H 980.778 1.76054 -6.73779 0
M  V30 10408 H 978.405 1.60389 -7.43088 0
M  V30 10409 N 979.98 1.24838 0.961938 0
M  V30 10410 C 981.205 1.11967 1.7458 0
M  V30 10411 C 981.63 -0.323287 1.85301 0
M  V30 10412 O 980.988 -1.23412 1.32812 0
M  V30 10413 C 981.036 1.77066 3.14134 0
M  V30 10414 O 980.14 1.04534 3.98932 0
M  V30 10415 H 979.481 0.391338 0.536424 0
M  V30 10416 H 982.011 1.65259 1.20626 0
M  V30 10417 H 982.021 1.83056 3.64629 0
M  V30 10418 H 980.696 2.82052 3.05646 0
M  V30 10419 H 979.273 1.06372 3.57407 0
M  V30 10420 N 981.458 -1.16348 1.06306 0
M  V30 10421 C 982.707 -1.8622 0.774909 0
M  V30 10422 C 983.02 -1.82598 -0.701245 0
M  V30 10423 O 984.226 -2.48051 -1.10377 0
M  V30 10424 C 982.682 -3.34182 1.33604 0
M  V30 10425 C 982.29 -3.46279 2.84245 0
M  V30 10426 C 984.034 -4.09309 1.12544 0
M  V30 10427 C 981.941 -4.88327 3.33602 0
M  V30 10428 H 980.871 -0.697574 0.286194 0
M  V30 10429 H 983.522 -1.31311 1.28179 0
M  V30 10430 H 981.904 -3.88698 0.756937 0
M  V30 10431 H 983.078 -3.01923 3.48108 0
M  V30 10432 H 981.393 -2.84585 3.03974 0
M  V30 10433 H 983.99 -5.14123 1.46909 0
M  V30 10434 H 984.333 -4.16251 0.0638129 0
M  V30 10435 H 984.866 -3.61032 1.67034 0
M  V30 10436 H 981.605 -4.86565 4.39244 0
M  V30 10437 H 981.125 -5.33307 2.74487 0
M  V30 10438 H 982.804 -5.57144 3.28937 0
M  V30 10439 N 982.937 -0.845659 -1.3299 0
M  V30 10440 C 984.214 -0.366306 -1.92139 0
M  V30 10441 C 984.594 1.14912 -1.77083 0
M  V30 10442 O 983.942 1.96667 -1.16338 0
M  V30 10443 C 984.152 -0.820716 -3.39213 0
M  V30 10444 C 985.5 -0.832667 -4.16355 0
M  V30 10445 O 986.524 -0.764764 -3.47893 0
M  V30 10446 O 985.383 -0.926658 -5.38586 0
M  V30 10447 H 982.477 -0.105063 -0.820299 0
M  V30 10448 H 985.023 -0.931962 -1.41819 0
M  V30 10449 H 983.795 -1.86357 -3.44074 0
M  V30 10450 H 983.418 -0.232009 -3.96923 0
M  V30 10451 N 984.415 1.45619 -0.602734 0
M  V30 10452 C 985.363 2.32228 0.131484 0
M  V30 10453 C 986.357 1.45681 0.864484 0
M  V30 10454 O 987.563 1.62193 0.7806 0
M  V30 10455 H 983.938 0.7495 0.0612638 0
M  V30 10456 H 985.909 2.91941 -0.617496 0
M  V30 10457 C 984.658 3.29213 1.11866 0
M  V30 10458 H 983.981 3.95801 0.564061 0
M  V30 10459 H 985.421 3.92554 1.60242 0
M  V30 10460 C 983.88 2.56028 2.18978 0
M  V30 10461 O 984.41 2.33806 3.26646 0
M  V30 10462 N 982.616 2.16245 1.94129 0
M  V30 10463 H 982.163 2.34518 1.06579 0
M  V30 10464 H 982.121 1.67601 2.66003 0
M  V30 10465 N 985.893 0.34162 1.53853 0
M  V30 10466 C 987.141 -0.254979 2.00485 0
M  V30 10467 C 987.462 -1.51222 1.23114 0
M  V30 10468 O 986.732 -1.92966 0.337787 0
M  V30 10469 H 985.312 -0.0972084 0.740648 0
M  V30 10470 H 987.974 0.462332 1.89337 0
M  V30 10471 H 987.07 -0.498778 3.08089 0
M  V30 10472 N 987.371 -1.57444 0.0701946 0
M  V30 10473 C 988.301 -2.15659 -0.895176 0
M  V30 10474 C 989.282 -1.08321 -1.31151 0
M  V30 10475 O 990.467 -1.36349 -1.38284 0
M  V30 10476 C 987.597 -2.71693 -2.16334 0
M  V30 10477 C 986.551 -3.84183 -1.88645 0
M  V30 10478 C 985.877 -4.26814 -3.22078 0
M  V30 10479 C 987.177 -5.08493 -1.19299 0
M  V30 10480 H 988.871 -2.96576 -0.410217 0
M  V30 10481 H 986.417 -1.42662 -0.195872 0
M  V30 10482 H 988.37 -3.11064 -2.84284 0
M  V30 10483 H 987.094 -1.87994 -2.67069 0
M  V30 10484 H 985.753 -3.45314 -1.23101 0
M  V30 10485 H 985.401 -3.40039 -3.70651 0
M  V30 10486 H 985.101 -5.02642 -3.04344 0
M  V30 10487 H 986.625 -4.68799 -3.91228 0
M  V30 10488 H 988.039 -5.4519 -1.77316 0
M  V30 10489 H 986.436 -5.89588 -1.11828 0
M  V30 10490 H 987.506 -4.84595 -0.171839 0
M  V30 10491 N 988.849 0.203349 -1.56283 0
M  V30 10492 C 989.779 1.2549 -1.96912 0
M  V30 10493 C 990.76 1.47919 -0.839884 0
M  V30 10494 O 991.945 1.59795 -1.10359 0
M  V30 10495 C 989.075 2.6009 -2.30153 0
M  V30 10496 C 988.029 2.52289 -3.45738 0
M  V30 10497 C 987.355 3.91086 -3.64632 0
M  V30 10498 C 988.655 2.05503 -4.80173 0
M  V30 10499 H 990.349 0.917306 -2.85002 0
M  V30 10500 H 987.895 0.439818 -1.37119 0
M  V30 10501 H 989.848 3.33829 -2.5717 0
M  V30 10502 H 988.572 2.95574 -1.38937 0
M  V30 10503 H 987.231 1.81006 -3.18798 0
M  V30 10504 H 986.879 4.23908 -2.7076 0
M  V30 10505 H 986.579 3.86742 -4.42385 0
M  V30 10506 H 988.103 4.66459 -3.94016 0
M  V30 10507 H 989.517 2.68995 -5.06275 0
M  V30 10508 H 987.914 2.1218 -5.61337 0
M  V30 10509 H 988.984 1.00793 -4.74309 0
M  V30 10510 N 990.327 1.50405 0.470755 0
M  V30 10511 C 991.555 1.65168 1.24608 0
M  V30 10512 C 991.97 0.335153 1.85801 0
M  V30 10513 O 991.327 -0.682919 1.69241 0
M  V30 10514 C 991.378 2.74305 2.35455 0
M  V30 10515 O 991.099 4.00854 1.76771 0
M  V30 10516 C 992.6 3.00044 3.26326 0
M  V30 10517 H 989.82 0.555186 0.376842 0
M  V30 10518 H 992.364 1.9663 0.56187 0
M  V30 10519 H 990.519 2.45536 2.99651 0
M  V30 10520 H 990.933 4.61211 2.49769 0
M  V30 10521 H 992.407 3.8007 4.00313 0
M  V30 10522 H 992.884 2.11128 3.85126 0
M  V30 10523 H 993.49 3.30345 2.67866 0
M  V30 10524 N 991.805 -0.723954 1.39988 0
M  V30 10525 C 993.216 -1.30273 1.33738 0
M  V30 10526 C 993.567 -1.96199 0.00690581 0
M  V30 10527 O 992.692 -1.97016 -0.895179 0
M  V30 10528 C 993.287 -2.36889 2.42217 0
M  V30 10529 C 991.846 -2.90412 2.39453 0
M  V30 10530 C 990.993 -1.64103 2.2353 0
M  V30 10531 H 993.944 -0.520672 1.49916 0
M  V30 10532 H 993.965 -3.17538 2.09642 0
M  V30 10533 H 993.477 -1.88878 3.39038 0
M  V30 10534 H 991.578 -3.42674 1.46304 0
M  V30 10535 H 991.691 -3.42775 3.34727 0
M  V30 10536 H 990.055 -1.88855 1.70897 0
M  V30 10537 H 990.838 -1.18128 3.22336 0
M  V30 10538 N 993.283 -1.25346 -0.955304 0
M  V30 10539 C 994.511 -1.12793 -1.73451 0
M  V30 10540 C 994.926 0.318344 -1.86097 0
M  V30 10541 O 994.283 1.21897 -1.35821 0
M  V30 10542 C 994.334 -1.77603 -3.14864 0
M  V30 10543 O 994.055 -3.16577 -3.02837 0
M  V30 10544 C 995.556 -1.70821 -4.09066 0
M  V30 10545 H 992.776 -0.393457 -0.543537 0
M  V30 10546 H 995.32 -1.65696 -1.19855 0
M  V30 10547 H 993.475 -1.28673 -3.65407 0
M  V30 10548 H 993.889 -3.48433 -3.92039 0
M  V30 10549 H 995.363 -2.2083 -5.05903 0
M  V30 10550 H 995.84 -0.671858 -4.34031 0
M  V30 10551 H 996.446 -2.19237 -3.64438 0
M  V30 10552 N 994.761 1.15782 -1.06922 0
M  V30 10553 C 995.694 2.19336 -0.629837 0
M  V30 10554 C 996.672 1.58774 0.350663 0
M  V30 10555 O 997.856 1.86724 0.258124 0
M  V30 10556 C 994.983 3.38615 0.0757526 0
M  V30 10557 C 994.029 4.17688 -0.862503 0
M  V30 10558 S 994.862 4.80634 -2.36117 0
M  V30 10559 C 996.018 6.03286 -1.66725 0
M  V30 10560 H 996.251 2.56267 -1.50714 0
M  V30 10561 H 993.784 1.26674 -0.882776 0
M  V30 10562 H 995.742 4.07724 0.476611 0
M  V30 10563 H 994.403 3.00037 0.929332 0
M  V30 10564 H 993.596 5.03012 -0.315461 0
M  V30 10565 H 993.198 3.54106 -1.20354 0
M  V30 10566 H 995.49 6.70426 -0.976472 0
M  V30 10567 H 996.433 6.62551 -2.49864 0
M  V30 10568 H 996.841 5.52722 -1.14711 0
M  V30 10569 N 996.239 0.8527 1.3254 0
M  V30 10570 C 997.186 0.293905 2.28921 0
M  V30 10571 C 998.156 -0.598027 1.54961 0
M  V30 10572 O 999.341 -0.533355 1.83194 0
M  V30 10573 C 996.481 -0.513361 3.4126 0
M  V30 10574 C 995.594 0.404144 4.30105 0
M  V30 10575 C 994.729 -0.415564 5.29572 0
M  V30 10576 C 993.768 0.499461 6.10059 0
M  V30 10577 N 992.905 -0.282949 7.0153 0
M  V30 10578 H 997.745 1.12107 2.76109 0
M  V30 10579 H 995.282 0.564272 1.35847 0
M  V30 10580 H 997.24 -0.997008 4.05112 0
M  V30 10581 H 995.87 -1.30537 2.95229 0
M  V30 10582 H 994.922 1.00617 3.66852 0
M  V30 10583 H 996.234 1.10648 4.86373 0
M  V30 10584 H 995.388 -0.962458 5.99017 0
M  V30 10585 H 994.127 -1.15127 4.73917 0
M  V30 10586 H 993.132 1.05825 5.39519 0
M  V30 10587 H 994.357 1.23375 6.67799 0
M  V30 10588 H 992.303 -1.00179 6.48306 0
M  V30 10589 H 992.22 0.36039 7.55141 0
M  V30 10590 H 993.488 -0.811632 7.75263 0
M  V30 10591 N 997.718 -1.45297 0.610449 0
M  V30 10592 C 998.681 -2.28995 -0.0968194 0
M  V30 10593 C 999.681 -1.39923 -0.792353 0
M  V30 10594 O 1000.87 -1.62014 -0.64008 0
M  V30 10595 C 998.003 -3.21013 -1.14731 0
M  V30 10596 H 999.196 -2.93012 0.639082 0
M  V30 10597 H 996.749 -1.51867 0.369624 0
M  V30 10598 H 997.484 -2.61803 -1.91388 0
M  V30 10599 H 997.269 -3.86628 -0.652753 0
M  V30 10600 H 998.759 -3.8394 -1.64256 0
M  V30 10601 N 999.196 -0.349774 -1.5367 0
M  V30 10602 C 1000.14 0.504121 -2.25227 0
M  V30 10603 C 1001.11 1.09048 -1.2529 0
M  V30 10604 O 1002.3 1.12594 -1.54037 0
M  V30 10605 C 999.438 1.64601 -3.03316 0
M  V30 10606 C 998.551 1.08635 -4.18118 0
M  V30 10607 C 997.686 2.19605 -4.83681 0
M  V30 10608 C 996.725 1.61023 -5.90541 0
M  V30 10609 N 995.862 2.6576 -6.49858 0
M  V30 10610 H 1000.7 -0.112621 -2.97787 0
M  V30 10611 H 998.239 -0.0673503 -1.46946 0
M  V30 10612 H 1000.2 2.31836 -3.46854 0
M  V30 10613 H 998.827 2.23364 -2.33041 0
M  V30 10614 H 997.879 0.304748 -3.79177 0
M  V30 10615 H 999.191 0.617911 -4.94958 0
M  V30 10616 H 998.345 2.94693 -5.30322 0
M  V30 10617 H 997.084 2.69795 -4.06278 0
M  V30 10618 H 996.089 0.844428 -5.43277 0
M  V30 10619 H 997.314 1.11677 -6.69855 0
M  V30 10620 H 995.26 3.15193 -5.75317 0
M  V30 10621 H 995.177 2.23557 -7.2219 0
M  V30 10622 H 996.445 3.40598 -7.01151 0
M  V30 10623 N 1000.67 1.57404 -0.0785433 0
M  V30 10624 C 1002.09 1.57158 0.2781 0
M  V30 10625 C 1002.29 1.08847 1.69572 0
M  V30 10626 O 1001.35 0.757407 2.40873 0
M  V30 10627 C 1002.66 3.00589 0.0816067 0
M  V30 10628 C 1004.21 3.12637 0.150627 0
M  V30 10629 C 1004.68 4.57997 -0.0176685 0
M  V30 10630 N 1006.17 4.63185 0.0377145 0
M  V30 10631 C 1006.91 5.7336 -0.0679907 0
M  V30 10632 N 1006.4 6.92426 -0.227598 0
M  V30 10633 N 1008.2 5.62099 -0.0104424 0
M  V30 10634 H 1000.35 1.87121 -1.00496 0
M  V30 10635 H 1002.61 0.862937 -0.392484 0
M  V30 10636 H 1002.32 3.40072 -0.896869 0
M  V30 10637 H 1002.19 3.67931 0.831046 0
M  V30 10638 H 1004.58 2.73037 1.11959 0
M  V30 10639 H 1004.66 2.4792 -0.630028 0
M  V30 10640 H 1004.3 4.98288 -0.983431 0
M  V30 10641 H 1004.23 5.20754 0.782475 0
M  V30 10642 H 1006.72 3.77564 0.159208 0
M  V30 10643 H 1007.04 7.72217 -0.300217 0
M  V30 10644 H 1005.38 6.94502 -0.263049 0
M  V30 10645 H 1008.57 4.67964 0.112999 0
M  V30 10646 H 1008.75 6.47928 -0.0962747 0
M  V30 10647 N 1002.15 -0.195058 1.56388 0
M  V30 10648 C 1003.56 -0.75973 1.70543 0
M  V30 10649 C 1003.91 -1.83849 0.685118 0
M  V30 10650 O 1003.04 -2.15819 -0.158457 0
M  V30 10651 C 1003.63 -1.38485 3.09204 0
M  V30 10652 C 1002.19 -1.89661 3.25124 0
M  V30 10653 C 1001.34 -0.766563 2.66494 0
M  V30 10654 H 1004.29 0.0300148 1.58672 0
M  V30 10655 H 1004.31 -2.25424 3.06536 0
M  V30 10656 H 1003.82 -0.599479 3.83442 0
M  V30 10657 H 1001.92 -2.70917 2.55802 0
M  V30 10658 H 1002.04 -2.05837 4.32629 0
M  V30 10659 H 1000.4 -1.18086 2.25672 0
M  V30 10660 H 1001.18 0.00657102 3.43299 0
M  V30 10661 N 1003.63 -1.50653 -0.462772 0
M  V30 10662 C 1004.54 -1.72923 -1.58539 0
M  V30 10663 C 1005.56 -0.612577 -1.6286 0
M  V30 10664 O 1006.73 -0.891885 -1.80575 0
M  V30 10665 C 1003.8 -1.82623 -2.94703 0
M  V30 10666 C 1002.86 -3.06392 -3.00704 0
M  V30 10667 C 1002.09 -3.15618 -4.30373 0
M  V30 10668 O 1002.31 -2.31423 -5.21344 0
M  V30 10669 O 1001.25 -4.0841 -4.42136 0
M  V30 10670 H 1005.07 -2.68103 -1.42669 0
M  V30 10671 H 1002.66 -1.34848 -0.643144 0
M  V30 10672 H 1004.54 -1.91134 -3.7556 0
M  V30 10673 H 1003.22 -0.906275 -3.10754 0
M  V30 10674 H 1002.12 -3.03375 -2.18894 0
M  V30 10675 H 1003.46 -3.97992 -2.89591 0
M  V30 10676 N 1005.11 0.71652 -1.4037 0
M  V30 10677 C 1006.04 1.84345 -1.43315 0
M  V30 10678 C 1007.02 1.67537 -0.294186 0
M  V30 10679 O 1008.2 1.87582 -0.502671 0
M  V30 10680 C 1005.33 3.2229 -1.29408 0
M  V30 10681 C 1004.29 3.53769 -2.40897 0
M  V30 10682 C 1003.61 4.90847 -2.12068 0
M  V30 10683 C 1004.91 3.54862 -3.83237 0
M  V30 10684 H 1006.61 1.82138 -2.37626 0
M  V30 10685 H 1004.15 0.874873 -1.14376 0
M  V30 10686 H 1006.11 4.00819 -1.30085 0
M  V30 10687 H 1004.83 3.2507 -0.31573 0
M  V30 10688 H 1003.49 2.77579 -2.39469 0
M  V30 10689 H 1003.14 4.90229 -1.12626 0
M  V30 10690 H 1002.84 5.12875 -2.86762 0
M  V30 10691 H 1004.36 5.71711 -2.14426 0
M  V30 10692 H 1005.78 4.23432 -3.86494 0
M  V30 10693 H 1004.17 3.88416 -4.57442 0
M  V30 10694 H 1005.24 2.54266 -4.12888 0
M  V30 10695 N 1006.59 1.25851 0.948643 0
M  V30 10696 C 1008 1.02802 1.22081 0
M  V30 10697 C 1008.2 -0.251461 1.99925 0
M  V30 10698 O 1007.26 -0.962592 2.33432 0
M  V30 10699 C 1008.57 2.25489 1.98936 0
M  V30 10700 C 1010.12 2.30312 2.11956 0
M  V30 10701 C 1010.59 3.52671 2.92211 0
M  V30 10702 N 1012.09 3.53103 2.99787 0
M  V30 10703 C 1012.82 4.44445 3.62294 0
M  V30 10704 N 1012.32 5.46065 4.26362 0
M  V30 10705 N 1014.11 4.32113 3.59493 0
M  V30 10706 H 1006.26 2.08042 0.428044 0
M  V30 10707 H 1008.52 0.913928 0.251872 0
M  V30 10708 H 1008.23 3.18513 1.4914 0
M  V30 10709 H 1008.1 2.2914 2.99624 0
M  V30 10710 H 1010.49 1.37808 2.60946 0
M  V30 10711 H 1010.57 2.30676 1.10554 0
M  V30 10712 H 1010.22 4.45501 2.43909 0
M  V30 10713 H 1010.15 3.49554 3.93853 0
M  V30 10714 H 1012.64 2.79597 2.54232 0
M  V30 10715 H 1012.95 6.11964 4.71932 0
M  V30 10716 H 1011.29 5.49931 4.24972 0
M  V30 10717 H 1014.49 3.51946 3.08629 0
M  V30 10718 H 1014.66 5.03493 4.0792 0
M  V30 10719 N 1008.06 -1.15214 1.07534 0
M  V30 10720 C 1009.01 -2.22078 0.69168 0
M  V30 10721 C 1010.01 -1.66751 -0.298382 0
M  V30 10722 O 1011.21 -1.7927 -0.161897 0
M  V30 10723 H 1007.59 -0.723347 0.205604 0
M  V30 10724 H 1009.56 -2.51716 1.60256 0
M  V30 10725 C 1008.31 -3.47534 0.107546 0
M  V30 10726 H 1007.63 -3.90429 0.860522 0
M  V30 10727 H 1009.07 -4.23821 -0.123215 0
M  V30 10728 C 1007.53 -3.16583 -1.15226 0
M  V30 10729 O 1008.06 -3.33551 -2.23845 0
M  V30 10730 N 1006.27 -2.70611 -1.05915 0
M  V30 10731 H 1005.81 -2.57004 -0.175198 0
M  V30 10732 H 1005.77 -2.50277 -1.90287 0
M  V30 10733 N 1009.54 -0.859717 -1.32086 0
M  V30 10734 C 1010.77 -0.479028 -2.0097 0
M  V30 10735 C 1011.18 0.930242 -1.64752 0
M  V30 10736 O 1010.52 1.6193 -0.867437 0
M  V30 10737 C 1010.59 -0.54431 -3.55355 0
M  V30 10738 C 1010.25 -1.91337 -4.15017 0
M  V30 10739 C 1011.25 -2.87951 -4.32874 0
M  V30 10740 C 1008.93 -2.21189 -4.50977 0
M  V30 10741 C 1010.93 -4.12567 -4.85867 0
M  V30 10742 C 1008.61 -3.46057 -5.03674 0
M  V30 10743 C 1009.61 -4.41562 -5.21068 0
M  V30 10744 O 1009.3 -5.64218 -5.72637 0
M  V30 10745 H 1009.03 -0.186161 -0.649861 0
M  V30 10746 H 1011.58 -1.15976 -1.69525 0
M  V30 10747 H 1009.81 0.1933 -3.86217 0
M  V30 10748 H 1011.5 -0.178506 -4.05507 0
M  V30 10749 H 1012.27 -2.66194 -4.05421 0
M  V30 10750 H 1008.15 -1.47635 -4.36721 0
M  V30 10751 H 1011.69 -4.8712 -4.99359 0
M  V30 10752 H 1007.59 -3.67662 -5.30561 0
M  V30 10753 H 1008.36 -5.66246 -5.91023 0
M  V30 10754 N 1011.02 1.44971 -0.618145 0
M  V30 10755 C 1012.27 2.02159 -0.117482 0
M  V30 10756 C 1012.6 1.48517 1.2559 0
M  V30 10757 O 1011.85 0.654192 1.84442 0
M  V30 10758 C 1012.15 3.57378 -0.0394861 0
M  V30 10759 C 1011.82 4.30218 -1.34993 0
M  V30 10760 C 1010.48 4.49835 -1.70886 0
M  V30 10761 C 1012.83 4.71768 -2.21551 0
M  V30 10762 C 1010.16 5.08258 -2.9307 0
M  V30 10763 C 1012.51 5.31543 -3.42993 0
M  V30 10764 C 1011.17 5.49381 -3.79126 0
M  V30 10765 H 1010.44 0.739752 -0.0429897 0
M  V30 10766 H 1013.09 1.73903 -0.801871 0
M  V30 10767 H 1011.4 3.84973 0.728217 0
M  V30 10768 H 1013.09 3.99343 0.364213 0
M  V30 10769 H 1009.68 4.15271 -1.06057 0
M  V30 10770 H 1013.87 4.56336 -1.95117 0
M  V30 10771 H 1009.12 5.20257 -3.21158 0
M  V30 10772 H 1013.3 5.62691 -4.10308 0
M  V30 10773 H 1010.92 5.94419 -4.73888 0
M  V30 10774 N 1012.5 0.357919 1.53482 0
M  V30 10775 C 1013.91 0.00655107 1.59599 0
M  V30 10776 C 1014.11 -1.47449 1.37336 0
M  V30 10777 O 1013.17 -2.2351 1.17472 0
M  V30 10778 C 1014.48 0.455617 2.97228 0
M  V30 10779 C 1016.03 0.409183 3.10314 0
M  V30 10780 C 1016.51 0.833941 4.50344 0
M  V30 10781 N 1018 0.788695 4.56436 0
M  V30 10782 C 1018.73 1.08914 5.62961 0
M  V30 10783 N 1018.23 1.45847 6.77274 0
M  V30 10784 N 1020.02 1.01243 5.52907 0
M  V30 10785 H 1012.17 1.32248 1.66206 0
M  V30 10786 H 1014.44 0.540047 0.779136 0
M  V30 10787 H 1014.14 1.48881 3.18634 0
M  V30 10788 H 1014.02 -0.161751 3.76853 0
M  V30 10789 H 1016.4 -0.614863 2.88623 0
M  V30 10790 H 1016.48 1.06195 2.32715 0
M  V30 10791 H 1016.13 1.85607 4.72771 0
M  V30 10792 H 1016.06 0.158507 5.26361 0
M  V30 10793 H 1018.55 0.516497 3.74354 0
M  V30 10794 H 1018.86 1.67218 7.54492 0
M  V30 10795 H 1017.21 1.49705 6.78685 0
M  V30 10796 H 1020.4 0.723137 4.62481 0
M  V30 10797 H 1020.57 1.24991 6.35831 0
M  V30 10798 N 1013.98 -1.5736 0.0868897 0
M  V30 10799 C 1015.2 -1.98809 -0.590757 0
M  V30 10800 C 1015.63 -0.965407 -1.61436 0
M  V30 10801 O 1014.98 0.067143 -1.81176 0
M  V30 10802 C 1015.03 -3.39249 -1.22238 0
M  V30 10803 O 1014.14 -3.39706 -2.33824 0
M  V30 10804 H 1013.48 -0.64669 -0.150626 0
M  V30 10805 H 1016.01 -2.03927 0.165873 0
M  V30 10806 H 1016.02 -3.76765 -1.56564 0
M  V30 10807 H 1014.69 -4.13208 -0.472434 0
M  V30 10808 H 1013.27 -3.13977 -2.01178 0
M  V30 10809 N 1015.45 0.186762 -1.56489 0
M  V30 10810 C 1016.39 1.25565 -1.91745 0
M  V30 10811 C 1017.4 1.4128 -0.80894 0
M  V30 10812 O 1018.59 1.41558 -1.08737 0
M  V30 10813 C 1015.69 2.62662 -2.14154 0
M  V30 10814 C 1014.86 2.68448 -3.45333 0
M  V30 10815 C 1013.92 3.86798 -3.56754 0
M  V30 10816 O 1012.95 3.73514 -4.29507 0
M  V30 10817 N 1014.15 5.02607 -2.90459 0
M  V30 10818 H 1016.91 0.956351 -2.84032 0
M  V30 10819 H 1014.47 0.376631 -1.57458 0
M  V30 10820 H 1016.47 3.40277 -2.19075 0
M  V30 10821 H 1015.04 2.85046 -1.28326 0
M  V30 10822 H 1014.26 1.77044 -3.52206 0
M  V30 10823 H 1015.54 2.69311 -4.31682 0
M  V30 10824 H 1014.94 5.163 -2.31194 0
M  V30 10825 H 1013.5 5.78139 -3.00996 0
M  V30 10826 N 1016.93 1.50896 0.454776 0
M  V30 10827 C 1018.18 1.61936 1.20248 0
M  V30 10828 C 1018.49 0.332983 1.92745 0
M  V30 10829 O 1019.7 0.322512 2.69578 0
M  V30 10830 C 1018.16 2.85916 2.18587 0
M  V30 10831 C 1017.76 4.21492 1.51818 0
M  V30 10832 C 1019.51 3.06307 2.93898 0
M  V30 10833 C 1017.42 5.3664 2.48539 0
M  V30 10834 H 1016.35 0.603098 0.452536 0
M  V30 10835 H 1019 1.77345 0.471257 0
M  V30 10836 H 1017.38 2.64101 2.95071 0
M  V30 10837 H 1018.55 4.53623 0.810123 0
M  V30 10838 H 1016.87 4.06837 0.887265 0
M  V30 10839 H 1019.46 3.89507 3.66317 0
M  V30 10840 H 1019.81 2.18683 3.54236 0
M  V30 10841 H 1020.34 3.2838 2.24525 0
M  V30 10842 H 1017.08 6.26469 1.92916 0
M  V30 10843 H 1016.6 5.08907 3.17449 0
M  V30 10844 H 1018.28 5.67881 3.10033 0
M  V30 10845 N 1018.41 -0.709066 1.40748 0
M  V30 10846 C 1019.69 -1.4626 1.29874 0
M  V30 10847 C 1020.07 -2.10949 -0.0799322 0
M  V30 10848 O 1019.42 -2.00651 -1.09323 0
M  V30 10849 C 1019.63 -2.49302 2.44232 0
M  V30 10850 C 1020.97 -3.14945 2.84771 0
M  V30 10851 O 1022 -2.59623 2.43873 0
M  V30 10852 O 1020.86 -4.15111 3.5545 0
M  V30 10853 H 1017.95 -0.650716 0.51039 0
M  V30 10854 H 1020.5 -0.740687 1.52682 0
M  V30 10855 H 1019.27 -2.00063 3.36289 0
M  V30 10856 H 1018.89 -3.29021 2.23229 0
M  V30 10857 N 1019.89 -1.26353 -0.941956 0
M  V30 10858 C 1021.17 -1.02601 -1.6653 0
M  V30 10859 C 1021.55 0.44381 -2.06382 0
M  V30 10860 O 1020.89 1.42399 -1.78703 0
M  V30 10861 C 1021.1 -1.97401 -2.87809 0
M  V30 10862 C 1022.45 -2.25967 -3.59478 0
M  V30 10863 O 1023.48 -1.95261 -2.97912 0
M  V30 10864 O 1022.34 -2.78244 -4.70364 0
M  V30 10865 H 1019.43 -0.39007 -0.729228 0
M  V30 10866 H 1021.98 -1.37559 -0.993754 0
M  V30 10867 H 1020.75 -2.9659 -2.55245 0
M  V30 10868 H 1020.37 -1.62918 -3.62689 0
M  V30 10869 N 1021.37 1.14642 -1.08144 0
M  V30 10870 C 1022.3 2.21775 -0.730609 0
M  V30 10871 C 1023.28 1.67683 0.285702 0
M  V30 10872 O 1024.46 1.93567 0.156667 0
M  V30 10873 C 1021.59 3.47033 -0.136242 0
M  V30 10874 C 1020.55 4.14134 -1.0806 0
M  V30 10875 C 1019.87 5.33563 -0.348585 0
M  V30 10876 C 1021.17 4.62978 -2.41761 0
M  V30 10877 H 1022.87 2.51378 -1.62633 0
M  V30 10878 H 1020.41 1.20825 -0.783411 0
M  V30 10879 H 1022.37 4.21226 0.121182 0
M  V30 10880 H 1021.09 3.16786 0.7946 0
M  V30 10881 H 1019.75 3.41892 -1.32308 0
M  V30 10882 H 1019.4 4.99575 0.585974 0
M  V30 10883 H 1019.1 5.79402 -0.978122 0
M  V30 10884 H 1020.62 6.10519 -0.0991508 0
M  V30 10885 H 1022.04 5.28659 -2.21795 0
M  V30 10886 H 1020.43 5.1951 -3.00383 0
M  V30 10887 H 1021.5 3.78189 -3.03482 0
M  V30 10888 N 1022.85 0.866709 1.31628 0
M  V30 10889 C 1024.08 0.489679 2.00713 0
M  V30 10890 C 1024.48 -0.921492 1.65243 0
M  V30 10891 O 1023.83 -1.61467 0.876012 0
M  V30 10892 C 1023.89 0.563148 3.55062 0
M  V30 10893 C 1023.55 1.93535 4.13996 0
M  V30 10894 C 1024.55 2.90243 4.31341 0
M  V30 10895 C 1022.23 2.23578 4.49798 0
M  V30 10896 C 1024.23 4.15138 4.83673 0
M  V30 10897 C 1021.92 3.48723 5.01832 0
M  V30 10898 C 1022.91 4.44319 5.18719 0
M  V30 10899 O 1022.6 5.67247 5.69637 0
M  V30 10900 H 1022.33 0.189605 0.648865 0
M  V30 10901 H 1024.89 1.16874 1.68907 0
M  V30 10902 H 1023.12 -0.172815 3.86314 0
M  V30 10903 H 1024.81 0.200009 4.05407 0
M  V30 10904 H 1025.57 2.6834 4.04003 0
M  V30 10905 H 1021.45 1.49949 4.35932 0
M  V30 10906 H 1025 4.89762 4.96769 0
M  V30 10907 H 1020.89 3.70471 5.28603 0
M  V30 10908 H 1021.66 5.69372 5.88011 0
M  V30 10909 N 1024.32 -1.44642 0.625825 0
M  V30 10910 C 1025.55 -2.06971 0.133373 0
M  V30 10911 C 1025.97 -1.46421 -1.18078 0
M  V30 10912 O 1025.33 -0.563676 -1.72315 0
M  V30 10913 C 1025.38 -3.6059 0.0265097 0
M  V30 10914 O 1024.48 -3.99615 -1.01889 0
M  V30 10915 H 1023.82 -0.658873 0.0823568 0
M  V30 10916 H 1026.35 -1.85601 0.861002 0
M  V30 10917 H 1026.36 -4.07663 -0.1658 0
M  V30 10918 H 1025.04 -4.04043 0.985986 0
M  V30 10919 H 1023.62 -3.64183 -0.801577 0
M  V30 10920 N 1025.8 -0.366053 -1.5329 0
M  V30 10921 C 1027.03 0.224236 -2.05681 0
M  V30 10922 C 1027.44 1.42412 -1.23952 0
M  V30 10923 O 1026.8 1.80334 -0.280309 0
M  V30 10924 C 1026.85 0.617266 -3.56191 0
M  V30 10925 O 1026.57 -0.534931 -4.34822 0
M  V30 10926 C 1028.07 1.26589 -4.24841 0
M  V30 10927 H 1025.29 0.0392928 -0.669849 0
M  V30 10928 H 1027.84 -0.52456 -1.97658 0
M  V30 10929 H 1025.99 1.31598 -3.64364 0
M  V30 10930 H 1026.41 -0.217123 -5.2405 0
M  V30 10931 H 1027.88 1.49146 -5.31469 0
M  V30 10932 H 1028.36 2.22633 -3.78591 0
M  V30 10933 H 1028.96 0.6086 -4.20923 0
M  V30 10934 N 1027.28 1.57312 -0.0952337 0
M  V30 10935 C 1028.53 1.93533 0.568131 0
M  V30 10936 C 1028.84 0.979121 1.6933 0
M  V30 10937 O 1030.05 1.23506 2.41782 0
M  V30 10938 C 1028.5 3.43875 1.06198 0
M  V30 10939 C 1028.11 4.47988 -0.0334397 0
M  V30 10940 C 1029.86 3.89057 1.69807 0
M  V30 10941 C 1027.76 5.89483 0.475774 0
M  V30 10942 H 1026.69 0.7224 0.215995 0
M  V30 10943 H 1029.34 1.82699 -0.171257 0
M  V30 10944 H 1027.73 3.49862 1.85506 0
M  V30 10945 H 1028.9 4.53644 -0.808934 0
M  V30 10946 H 1027.21 4.12415 -0.574725 0
M  V30 10947 H 1029.81 4.92171 2.08978 0
M  V30 10948 H 1030.15 3.27713 2.5673 0
M  V30 10949 H 1030.69 3.85772 0.970815 0
M  V30 10950 H 1027.43 6.54528 -0.356837 0
M  V30 10951 H 1026.95 5.87297 1.21827 0
M  V30 10952 H 1028.63 6.40066 0.944697 0
M  V30 10953 N 1028.76 -0.17846 1.56586 0
M  V30 10954 C 1029.7 -1.22104 1.95855 0
M  V30 10955 C 1030.67 -1.44366 0.821447 0
M  V30 10956 O 1031.86 -1.57224 1.08098 0
M  V30 10957 C 1029 -2.55701 2.31757 0
M  V30 10958 C 1028.11 -2.40879 3.5861 0
M  V30 10959 C 1027.25 -3.67293 3.83757 0
M  V30 10960 C 1026.29 -3.47373 5.03982 0
M  V30 10961 N 1025.42 -4.65839 5.25298 0
M  V30 10962 H 1030.26 -0.879168 2.84736 0
M  V30 10963 H 1027.8 -0.422721 1.40895 0
M  V30 10964 H 1029.76 -3.33556 2.50592 0
M  V30 10965 H 1028.39 -2.87898 1.45995 0
M  V30 10966 H 1027.44 -1.54236 3.47729 0
M  V30 10967 H 1028.75 -2.22102 4.46623 0
M  V30 10968 H 1027.91 -4.53584 4.02922 0
M  V30 10969 H 1026.65 -3.89041 2.94107 0
M  V30 10970 H 1025.65 -2.59467 4.84723 0
M  V30 10971 H 1026.88 -3.27055 5.95157 0
M  V30 10972 H 1024.82 -4.8782 4.38598 0
M  V30 10973 H 1024.74 -4.4995 6.0752 0
M  V30 10974 H 1026.01 -5.53435 5.48936 0
M  V30 10975 N 1030.24 -1.51135 -0.446768 0
M  V30 10976 C 1031.48 -1.63578 -1.19875 0
M  V30 10977 C 1031.81 -0.346478 -1.91084 0
M  V30 10978 O 1031.09 0.653447 -1.83195 0
M  V30 10979 C 1031.37 -2.83275 -2.22323 0
M  V30 10980 C 1031.23 -4.22155 -1.55259 0
M  V30 10981 C 1032.54 -2.98496 -3.23401 0
M  V30 10982 H 1029.66 -0.595333 -0.434452 0
M  V30 10983 H 1032.31 -1.83593 -0.48923 0
M  V30 10984 H 1030.46 -2.6634 -2.82834 0
M  V30 10985 H 1032.13 -4.50736 -0.981571 0
M  V30 10986 H 1030.37 -4.25288 -0.855122 0
M  V30 10987 H 1031.04 -5.01882 -2.29823 0
M  V30 10988 H 1033.52 -3.14079 -2.72935 0
M  V30 10989 H 1032.39 -3.83828 -3.92386 0
M  V30 10990 H 1032.65 -2.10157 -3.88956 0
M  V30 10991 O 1031.75 0.592472 -1.5024 0
M  V30 10992 H 1032.44 1.2473 -1.48196 0
M  V30 END ATOM
M  V30 BEGIN BOND
M  V30 END BOND
M  V30 END CTAB
M  END
$$$$
