drugbank_target|A9CJ63 Uncharacterized protein (DB02078)
 OpenBabel12092120503D

  0  0  0     0  0            999 V3000
M  V30 BEGIN CTAB
M  V30 COUNTS 2324 2339 0 0 0
M  V30 BEGIN ATOM
M  V30 1 H -0.908 1.98254 -0.117106 0
M  V30 2 N 0 1.576 0 0
M  V30 3 C 0.933 2.03868 1.02534 0
M  V30 4 C 1.911 0.928543 1.3348 0
M  V30 5 O 3.095 1.19667 1.45644 0
M  V30 6 C 0.222 2.43627 2.35294 0
M  V30 7 C -0.732 3.65373 2.2001 0
M  V30 8 S 0.101 5.13292 1.52614 0
M  V30 9 C 1.257 5.56322 2.86805 0
M  V30 10 H 1.49 2.90518 0.631377 0
M  V30 11 H -0.977 1.52953 0.210867 0
M  V30 12 H 0.981 2.67203 3.11629 0
M  V30 13 H -0.358 1.57376 2.7183 0
M  V30 14 H -1.165 3.90944 3.18086 0
M  V30 15 H -1.563 3.418 1.51819 0
M  V30 16 H 0.729 5.58782 3.83104 0
M  V30 17 H 1.672 6.56266 2.65933 0
M  V30 18 H 2.08 4.83886 2.90714 0
M  V30 19 N 1.4781 -0.272755 1.55222 0
M  V30 20 C 2.7031 -1.02683 1.80197 0
M  V30 21 C 3.1281 -1.79142 0.573551 0
M  V30 22 O 2.4861 -1.74917 -0.476849 0
M  V30 23 C 2.5341 -1.9609 3.02624 0
M  V30 24 O 1.6381 -3.04863 2.77727 0
M  V30 25 H 0.9791 -0.293557 0.595584 0
M  V30 26 H 3.5091 -0.30159 2.02365 0
M  V30 27 H 3.5191 -2.38039 3.31363 0
M  V30 28 H 2.1941 -1.39851 3.91682 0
M  V30 29 H 0.7711 -2.67228 2.60084 0
M  V30 30 N 2.9562 -1.48159 -0.537278 0
M  V30 31 C 4.2332 -1.46291 -1.29839 0
M  V30 32 C 4.6132 -0.170613 -2.10409 0
M  V30 33 O 3.9612 0.847746 -2.12192 0
M  V30 34 C 4.1712 -2.72055 -2.18603 0
M  V30 35 C 5.5192 -3.20087 -2.7898 0
M  V30 36 O 6.5432 -2.72921 -2.28894 0
M  V30 37 O 5.4022 -4.02138 -3.70064 0
M  V30 38 H 2.4962 -0.583906 -0.585647 0
M  V30 39 H 5.0422 -1.60384 -0.554534 0
M  V30 40 H 3.8142 -3.57628 -1.58801 0
M  V30 41 H 3.4372 -2.60646 -3.00249 0
M  V30 42 N 4.4343 0.785586 -1.36625 0
M  V30 43 C 5.6803 1.54591 -1.31261 0
M  V30 44 C 6.0133 1.93906 0.106823 0
M  V30 45 O 5.2883 1.63007 1.06108 0
M  V30 46 C 5.5713 2.82038 -2.23889 0
M  V30 47 C 5.4243 2.49066 -3.74548 0
M  V30 48 C 6.7433 3.83887 -2.15217 0
M  V30 49 H 3.8623 0.560846 -0.478143 0
M  V30 50 H 6.5043 0.902278 -1.67209 0
M  V30 51 H 4.6543 3.36961 -1.93363 0
M  V30 52 H 6.3263 2.00164 -4.15611 0
M  V30 53 H 4.5693 1.81954 -3.93796 0
M  V30 54 H 5.2403 3.40109 -4.34776 0
M  V30 55 H 7.7163 3.38421 -2.42096 0
M  V30 56 H 6.5923 4.70806 -2.82193 0
M  V30 57 H 6.8533 4.27131 -1.14068 0
M  V30 58 N 5.9124 1.20967 1.01018 0
M  V30 59 C 7.1614 1.01796 1.74128 0
M  V30 60 C 7.4744 -0.449691 1.90361 0
M  V30 61 O 8.6804 -0.76068 2.60626 0
M  V30 62 C 7.1364 1.7727 3.13215 0
M  V30 63 C 6.7444 3.28171 3.04972 0
M  V30 64 C 8.4884 1.66489 3.90489 0
M  V30 65 C 6.3954 3.96156 4.39107 0
M  V30 66 H 5.3254 0.377276 0.652824 0
M  V30 67 H 7.9764 1.44651 1.12909 0
M  V30 68 H 6.3584 1.27205 3.75013 0
M  V30 69 H 7.5324 3.85499 2.52443 0
M  V30 70 H 5.8474 3.39437 2.41188 0
M  V30 71 H 8.4444 2.14617 4.89738 0
M  V30 72 H 8.7874 0.6222 4.11624 0
M  V30 73 H 9.3204 2.14003 3.35332 0
M  V30 74 H 6.0594 5.00604 4.23174 0
M  V30 75 H 5.5794 3.43617 4.91617 0
M  V30 76 H 7.2584 4.00774 5.07926 0
M  V30 77 N 7.3905 -1.2043 1.01659 0
M  V30 78 C 8.3005 -2.2689 0.596484 0
M  V30 79 C 9.3165 -1.70107 -0.36599 0
M  V30 80 O 10.4925 -2.00117 -0.226942 0
M  V30 81 C 7.5575 -3.4665 -0.0586659 0
M  V30 82 C 6.6185 -4.18662 0.949751 0
M  V30 83 C 5.8515 -5.32705 0.32577 0
M  V30 84 O 6.0745 -5.63656 -0.874509 0
M  V30 85 O 5.0085 -5.92803 1.04249 0
M  V30 86 H 8.8345 -2.65041 1.4828 0
M  V30 87 H 6.4195 -1.27048 0.786082 0
M  V30 88 H 8.3015 -4.19256 -0.424564 0
M  V30 89 H 6.9765 -3.10375 -0.91918 0
M  V30 90 H 5.8835 -3.48229 1.36702 0
M  V30 91 H 7.2165 -4.58878 1.78023 0
M  V30 92 N 8.8686 -0.792821 -1.36206 0
M  V30 93 C 10.1166 -0.366062 -1.98757 0
M  V30 94 C 10.4376 1.0668 -1.63231 0
M  V30 95 O 9.7076 1.73587 -0.907978 0
M  V30 96 H 8.2876 -0.132364 -0.735179 0
M  V30 97 H 10.9496 -1.01562 -1.66347 0
M  V30 98 H 10.0456 -0.460638 -3.08682 0
M  V30 99 N 10.3467 1.47872 -0.545128 0
M  V30 100 C 11.7627 1.5829 -0.204032 0
M  V30 101 C 11.9627 1.54529 1.29317 0
M  V30 102 O 11.0187 1.44232 2.07252 0
M  V30 103 C 12.3317 2.89304 -0.819987 0
M  V30 104 C 13.8797 3.02864 -0.790105 0
M  V30 105 C 14.3547 4.3656 -1.38491 0
M  V30 106 N 15.8457 4.43165 -1.34755 0
M  V30 107 C 16.5807 5.45153 -1.77753 0
M  V30 108 N 16.0767 6.54016 -2.2855 0
M  V30 109 N 17.8697 5.36125 -1.68897 0
M  V30 110 H 10.0207 1.4856 -1.51802 0
M  V30 111 H 12.2837 0.706305 -0.632327 0
M  V30 112 H 11.9897 2.97757 -1.87173 0
M  V30 113 H 11.8637 3.75957 -0.305915 0
M  V30 114 H 14.2507 2.94014 0.252913 0
M  V30 115 H 14.3317 2.17782 -1.34181 0
M  V30 116 H 13.9757 4.46164 -2.42693 0
M  V30 117 H 13.9057 5.20353 -0.808754 0
M  V30 118 H 16.3967 3.65083 -0.975855 0
M  V30 119 H 16.7097 7.27994 -2.59314 0
M  V30 120 H 15.0547 6.54938 -2.32553 0
M  V30 121 H 18.2457 4.49975 -1.28998 0
M  V30 122 H 18.4187 6.15472 -2.02726 0
M  V30 123 N 11.8248 0.280983 1.55075 0
M  V30 124 C 12.7548 -0.597469 2.25727 0
M  V30 125 C 13.7358 -1.15417 1.24952 0
M  V30 126 O 14.9208 -1.18722 1.53684 0
M  V30 127 C 12.0508 -1.7789 2.98283 0
M  V30 128 C 11.0048 -1.35347 4.06036 0
M  V30 129 C 10.3308 -2.61846 4.66198 0
M  V30 130 C 11.6308 -0.499354 5.19907 0
M  V30 131 H 13.3248 -0.00824265 2.99399 0
M  V30 132 H 10.8708 -0.0025244 1.44 0
M  V30 133 H 12.8238 -2.39937 3.46422 0
M  V30 134 H 11.5478 -2.39405 2.22155 0
M  V30 135 H 10.2068 -0.756156 3.58717 0
M  V30 136 H 9.8548 -3.21632 3.86732 0
M  V30 137 H 9.5548 -2.3409 5.38958 0
M  V30 138 H 11.0788 -3.24732 5.1709 0
M  V30 139 H 12.4928 -1.02498 5.64063 0
M  V30 140 H 10.8898 -0.316424 5.99265 0
M  V30 141 H 11.9598 0.480459 4.82514 0
M  V30 142 N 13.3029 -1.57598 0.00835791 0
M  V30 143 C 14.2499 -2.08945 -0.980346 0
M  V30 144 C 15.2199 -0.986738 -1.33614 0
M  V30 145 O 16.4049 -1.25968 -1.43306 0
M  V30 146 C 13.5449 -2.60425 -2.26435 0
M  V30 147 C 12.6579 -3.84628 -1.96685 0
M  V30 148 C 11.7929 -4.24579 -3.19228 0
M  V30 149 C 10.8319 -5.41596 -2.85202 0
M  V30 150 N 9.9689 -5.768 -4.00307 0
M  V30 151 H 14.8089 -2.93148 -0.535551 0
M  V30 152 H 12.3459 -1.44912 -0.252776 0
M  V30 153 H 14.3039 -2.88354 -3.01509 0
M  V30 154 H 12.9339 -1.79083 -2.68568 0
M  V30 155 H 11.9859 -3.63556 -1.11942 0
M  V30 156 H 13.2979 -4.69796 -1.67611 0
M  V30 157 H 12.4519 -4.53834 -4.02641 0
M  V30 158 H 11.1909 -3.38137 -3.51447 0
M  V30 159 H 10.1959 -5.12056 -2.00198 0
M  V30 160 H 11.4209 -6.29721 -2.54222 0
M  V30 161 H 9.3669 -4.93316 -4.32407 0
M  V30 162 H 9.2839 -6.5656 -3.74786 0
M  V30 163 H 10.5519 -6.10652 -4.84484 0
M  V30 164 N 14.781 0.264519 -1.55364 0
M  V30 165 C 15.691 1.34902 -1.91934 0
M  V30 166 C 16.707 1.53595 -0.817593 0
M  V30 167 O 17.883 1.67558 -1.11742 0
M  V30 168 C 14.948 2.68676 -2.19121 0
M  V30 169 C 14.009 2.58657 -3.4263 0
M  V30 170 C 13.242 3.86051 -3.68511 0
M  V30 171 O 13.465 4.87126 -2.96757 0
M  V30 172 O 12.399 3.85744 -4.62045 0
M  V30 173 H 16.225 1.06883 -2.8427 0
M  V30 174 H 13.81 0.463775 -1.42019 0
M  V30 175 H 15.692 3.47759 -2.37995 0
M  V30 176 H 14.367 2.96463 -1.29966 0
M  V30 177 H 13.274 1.7792 -3.29082 0
M  V30 178 H 14.607 2.35818 -4.32031 0
M  V30 179 N 16.2591 1.48442 0.529413 0
M  V30 180 C 17.1891 1.65902 1.64313 0
M  V30 181 C 18.1701 0.507897 1.6234 0
M  V30 182 O 19.3551 0.740503 1.79528 0
M  V30 183 C 16.4851 1.69911 3.02898 0
M  V30 184 C 15.4391 2.8453 3.19729 0
M  V30 185 C 14.7651 2.73629 4.59381 0
M  V30 186 C 16.0651 4.25821 3.02447 0
M  V30 187 H 17.7591 2.5914 1.49955 0
M  V30 188 H 15.3051 1.24709 0.719982 0
M  V30 189 H 17.2581 1.80715 3.80684 0
M  V30 190 H 15.9821 0.732524 3.18279 0
M  V30 191 H 14.6411 2.73283 2.44361 0
M  V30 192 H 14.2891 1.74938 4.71599 0
M  V30 193 H 13.9891 3.50541 4.71588 0
M  V30 194 H 15.5131 2.86401 5.39265 0
M  V30 195 H 16.9271 4.37898 3.70024 0
M  V30 196 H 15.3241 5.03735 3.26146 0
M  V30 197 H 16.3941 4.42244 1.98867 0
M  V30 198 N 17.7372 -0.778329 1.37039 0
M  V30 199 C 18.9852 -1.53361 1.31623 0
M  V30 200 C 19.3062 -1.94739 -0.100831 0
M  V30 201 O 18.5762 -1.65797 -1.04347 0
M  V30 202 H 17.1562 -0.568794 0.484234 0
M  V30 203 H 19.8182 -0.926742 1.71457 0
M  V30 204 H 18.9142 -2.43606 1.95096 0
M  V30 205 N 19.2153 -1.21501 -1.00376 0
M  V30 206 C 20.4623 -1.03299 -1.74171 0
M  V30 207 C 20.7903 0.433326 -1.89612 0
M  V30 208 O 20.0453 1.33779 -1.42834 0
M  V30 209 C 20.3443 -1.67673 -3.15627 0
M  V30 210 C 20.0103 -3.17533 -3.2013 0
M  V30 211 C 18.6723 -3.58427 -3.21067 0
M  V30 212 C 21.0243 -4.13504 -3.17275 0
M  V30 213 C 18.3523 -4.93794 -3.16835 0
M  V30 214 C 20.7043 -5.48834 -3.14585 0
M  V30 215 C 19.3683 -5.89123 -3.13831 0
M  V30 216 H 18.6383 -0.377999 -0.637336 0
M  V30 217 H 21.2853 -1.51111 -1.17634 0
M  V30 218 H 19.5903 -1.12158 -3.75404 0
M  V30 219 H 21.2873 -1.51091 -3.71446 0
M  V30 220 H 17.8773 -2.84965 -3.20145 0
M  V30 221 H 22.0613 -3.82936 -3.15711 0
M  V30 222 H 17.3173 -5.24255 -3.1459 0
M  V30 223 H 21.4913 -6.22934 -3.1133 0
M  V30 224 H 19.1183 -6.93984 -3.10307 0
M  V30 225 N 20.6934 1.19889 -1.02296 0
M  V30 226 C 21.9214 1.9339 -0.735399 0
M  V30 227 C 22.3364 1.75148 0.704887 0
M  V30 228 O 21.6934 1.06954 1.47875 0
M  V30 229 C 21.7444 3.45313 -1.06962 0
M  V30 230 O 21.4654 3.62964 -2.45334 0
M  V30 231 C 22.9664 4.35948 -0.804021 0
M  V30 232 H 20.1864 0.61448 -0.269546 0
M  V30 233 H 22.7304 1.522 -1.36585 0
M  V30 234 H 20.8854 3.84359 -0.484455 0
M  V30 235 H 21.2994 4.56886 -2.57595 0
M  V30 236 H 22.7734 5.41174 -1.0879 0
M  V30 237 H 23.2504 4.3842 0.261691 0
M  V30 238 H 23.8564 4.02574 -1.37164 0
M  V30 239 N 22.1715 0.800033 1.35784 0
M  V30 240 C 23.1015 0.220184 2.3246 0
M  V30 241 C 24.0825 -0.65073 1.57161 0
M  V30 242 O 25.2675 -0.582359 1.85263 0
M  V30 243 C 22.3975 -0.637353 3.41402 0
M  V30 244 C 21.3515 0.134531 4.27789 0
M  V30 245 C 20.6775 -0.844285 5.27992 0
M  V30 246 C 21.9775 1.32979 5.05088 0
M  V30 247 H 23.6715 1.02787 2.81203 0
M  V30 248 H 21.2175 0.495717 1.35199 0
M  V30 249 H 23.1705 -1.05302 4.08031 0
M  V30 250 H 21.8945 -1.47785 2.91251 0
M  V30 251 H 20.5535 0.531296 3.6273 0
M  V30 252 H 20.2015 -1.68011 4.74111 0
M  V30 253 H 19.9015 -0.332184 5.8666 0
M  V30 254 H 21.4255 -1.2583 5.97494 0
M  V30 255 H 22.8395 0.98934 5.64699 0
M  V30 256 H 21.2365 1.77593 5.7322 0
M  V30 257 H 22.3065 2.11978 4.36111 0
M  V30 258 N 23.6496 -1.47581 0.552962 0
M  V30 259 C 25.0606 -1.86324 0.118463 0
M  V30 260 C 25.4116 -1.46006 -1.3106 0
M  V30 261 O 24.5366 -0.861182 -1.98526 0
M  V30 262 C 25.1316 -3.3816 0.20821 0
M  V30 263 C 23.6906 -3.7601 -0.171226 0
M  V30 264 C 22.8376 -2.71634 0.557686 0
M  V30 265 H 25.7886 -1.39159 0.762928 0
M  V30 266 H 25.8096 -3.76141 -0.574278 0
M  V30 267 H 25.3216 -3.67473 1.24841 0
M  V30 268 H 23.4226 -3.52313 -1.21269 0
M  V30 269 H 23.5356 -4.78745 0.184379 0
M  V30 270 H 21.8996 -2.547 0.00125792 0
M  V30 271 H 22.6826 -3.0379 1.59896 0
M  V30 272 N 25.1277 -0.289203 -1.54924 0
M  V30 273 C 26.3737 0.323998 -2.00195 0
M  V30 274 C 26.7067 1.54441 -1.17735 0
M  V30 275 O 25.9817 1.92875 -0.250878 0
M  V30 276 C 26.2647 0.692276 -3.53383 0
M  V30 277 C 26.1177 -0.536457 -4.46589 0
M  V30 278 C 27.4367 1.52335 -4.12895 0
M  V30 279 H 24.5557 0.116289 -0.727768 0
M  V30 280 H 27.1977 -0.398954 -1.85764 0
M  V30 281 H 25.3477 1.30822 -3.65811 0
M  V30 282 H 27.0197 -1.17499 -4.46085 0
M  V30 283 H 25.2627 -1.17192 -4.1767 0
M  V30 284 H 25.9337 -0.234806 -5.515 0
M  V30 285 H 28.4097 1.00302 -4.0383 0
M  V30 286 H 27.2857 1.74982 -5.20262 0
M  V30 287 H 27.5467 2.50886 -3.64018 0
M  V30 288 N 26.6058 1.57591 -0.0167156 0
M  V30 289 C 27.5688 2.08393 0.954204 0
M  V30 290 C 28.5688 0.996531 1.26198 0
M  V30 291 O 29.7588 1.25858 1.20438 0
M  V30 292 C 26.8908 2.5394 2.27436 0
M  V30 293 H 28.0838 2.95455 0.514451 0
M  V30 294 H 25.6368 1.54582 0.231089 0
M  V30 295 H 26.3718 1.70171 2.76066 0
M  V30 296 H 26.1568 3.33371 2.06412 0
M  V30 297 H 27.6468 2.93512 2.97053 0
M  V30 298 N 28.0839 -0.256276 1.55502 0
M  V30 299 C 29.0469 -1.30047 1.88734 0
M  V30 300 C 30.0469 -1.4154 0.763086 0
M  V30 301 O 31.2369 -1.40403 1.03115 0
M  V30 302 C 28.3689 -2.67953 2.10747 0
M  V30 303 H 29.5619 -1.01802 2.82093 0
M  V30 304 H 27.1149 -0.495134 1.4825 0
M  V30 305 H 27.8499 -3.01351 1.19825 0
M  V30 306 H 27.6349 -2.60993 2.92617 0
M  V30 307 H 29.1249 -3.43368 2.37673 0
M  V30 308 N 29.562 -1.4872 -0.521534 0
M  V30 309 C 30.525 -1.63379 -1.60748 0
M  V30 310 C 31.525 -0.50661 -1.52611 0
M  V30 311 O 32.715 -0.772601 -1.5613 0
M  V30 312 C 29.847 -1.61192 -3.00383 0
M  V30 313 H 31.04 -2.60217 -1.49087 0
M  V30 314 H 28.593 -1.37444 -0.744235 0
M  V30 315 H 29.328 -0.65863 -3.17541 0
M  V30 316 H 29.113 -2.43032 -3.07698 0
M  V30 317 H 30.603 -1.7466 -3.7932 0
M  V30 318 N 31.0401 0.771051 -1.3745 0
M  V30 319 C 32.4511 1.34737 -1.29239 0
M  V30 320 C 32.8021 1.96109 0.0596908 0
M  V30 321 O 31.9271 1.93865 0.961534 0
M  V30 322 C 32.5221 2.44973 -2.34037 0
M  V30 323 C 31.0811 2.98372 -2.29458 0
M  V30 324 C 30.2281 1.71595 -2.17831 0
M  V30 325 H 33.1791 0.571256 -1.48062 0
M  V30 326 H 33.2001 3.24471 -1.98744 0
M  V30 327 H 32.7121 2.00276 -3.32432 0
M  V30 328 H 30.8131 3.47443 -1.34589 0
M  V30 329 H 30.9261 3.53939 -3.229 0
M  V30 330 H 29.2901 1.94547 -1.64388 0
M  V30 331 H 30.0731 1.29001 -3.18141 0
M  V30 332 N 32.5182 1.22032 0.997298 0
M  V30 333 C 33.4812 0.987909 2.06816 0
M  V30 334 C 34.4812 -0.0440084 1.6074 0
M  V30 335 O 35.6712 0.194053 1.73116 0
M  V30 336 C 32.8032 0.49132 3.37341 0
M  V30 337 H 33.9962 1.93803 2.28868 0
M  V30 338 H 31.5492 1.03838 1.16822 0
M  V30 339 H 32.2842 -0.463364 3.20973 0
M  V30 340 H 32.0692 1.23575 3.72118 0
M  V30 341 H 33.5592 0.348824 4.16141 0
M  V30 342 N 33.9963 -1.19345 1.0293 0
M  V30 343 C 34.9593 -2.20793 0.615069 0
M  V30 344 C 35.9593 -1.57553 -0.321533 0
M  V30 345 O 37.1493 -1.73862 -0.108483 0
M  V30 346 C 34.2813 -3.40754 -0.0999222 0
M  V30 347 H 35.4743 -2.58955 1.51269 0
M  V30 348 H 33.0273 -1.3303 0.820534 0
M  V30 349 H 33.7623 -3.0811 -1.01187 0
M  V30 350 H 33.5473 -3.87889 0.57309 0
M  V30 351 H 35.0373 -4.15898 -0.376645 0
M  V30 352 N 35.4744 -0.807222 -1.35358 0
M  V30 353 C 36.4224 -0.20614 -2.31685 0
M  V30 354 C 37.4164 0.644445 -1.56663 0
M  V30 355 O 38.6224 0.537538 -1.71786 0
M  V30 356 H 34.9974 -0.0479006 -0.750473 0
M  V30 357 H 36.9684 -1.03369 -2.79924 0
M  V30 358 C 35.7174 0.630212 -3.41941 0
M  V30 359 H 35.0404 -0.0149558 -3.99797 0
M  V30 360 H 36.4804 1.01716 -4.11619 0
M  V30 361 C 34.9394 1.79601 -2.85035 0
M  V30 362 O 35.4694 2.89351 -2.78637 0
M  V30 363 N 33.6754 1.60774 -2.42074 0
M  V30 364 H 33.2224 0.715009 -2.47478 0
M  V30 365 H 33.1804 2.38933 -2.04349 0
M  V30 366 N 36.9525 1.47285 -0.560781 0
M  V30 367 C 38.1825 2.06555 -0.0429638 0
M  V30 368 C 38.5905 1.41339 1.25777 0
M  V30 369 O 37.9335 0.505182 1.76617 0
M  V30 370 C 37.9955 3.58827 0.219887 0
M  V30 371 C 37.6595 4.46105 -0.991944 0
M  V30 372 C 38.6565 4.84 -1.89843 0
M  V30 373 C 36.3415 4.87567 -1.20762 0
M  V30 374 C 38.3355 5.6216 -3.00425 0
M  V30 375 C 36.0225 5.65491 -2.31653 0
M  V30 376 C 37.0205 6.02699 -3.21315 0
M  V30 377 O 36.7085 6.79052 -4.30283 0
M  V30 378 H 36.4405 0.674537 -0.0444468 0
M  V30 379 H 38.9945 1.90225 -0.774818 0
M  V30 380 H 37.2245 3.73383 1.00609 0
M  V30 381 H 38.9135 4.00103 0.683522 0
M  V30 382 H 39.6795 4.52564 -1.74387 0
M  V30 383 H 35.5585 4.5807 -0.518893 0
M  V30 384 H 39.1025 5.9112 -3.70436 0
M  V30 385 H 34.9995 5.9634 -2.47081 0
M  V30 386 H 35.7675 6.9745 -4.28376 0
M  V30 387 N 38.4306 0.297415 1.54768 0
M  V30 388 C 39.6766 -0.313376 2.00364 0
M  V30 389 C 40.0096 -1.53815 1.18553 0
M  V30 390 O 39.2846 -1.92739 0.261103 0
M  V30 391 C 39.5676 -0.673525 3.53745 0
M  V30 392 C 39.4206 0.560133 4.46299 0
M  V30 393 C 40.7396 -1.50143 4.13697 0
M  V30 394 H 37.8586 -0.112428 0.728374 0
M  V30 395 H 40.5006 0.4088 1.8555 0
M  V30 396 H 38.6506 -1.28881 3.665 0
M  V30 397 H 40.3226 1.19863 4.45455 0
M  V30 398 H 38.5656 1.19405 4.17043 0
M  V30 399 H 39.2366 0.26405 5.51368 0
M  V30 400 H 41.7126 -0.981588 4.04356 0
M  V30 401 H 40.5886 -1.72221 5.21182 0
M  V30 402 H 40.8496 -2.48952 3.65343 0
M  V30 403 N 39.9087 -1.5758 0.0250728 0
M  V30 404 C 41.3197 -1.79476 -0.514323 0
M  V30 405 C 41.6707 -0.934956 -1.72491 0
M  V30 406 O 40.7957 -0.144245 -2.15919 0
M  V30 407 C 41.3907 -3.25503 -0.939842 0
M  V30 408 C 39.9497 -3.48408 -1.42438 0
M  V30 409 C 39.0967 -2.74583 -0.387201 0
M  V30 410 H 42.0477 -1.567 0.25113 0
M  V30 411 H 42.0687 -3.34992 -1.80445 0
M  V30 412 H 41.5807 -3.88056 -0.0585628 0
M  V30 413 H 39.6817 -2.91103 -2.32572 0
M  V30 414 H 39.7947 -4.57119 -1.43455 0
M  V30 415 H 38.1587 -2.39942 -0.854409 0
M  V30 416 H 38.9417 -3.39849 0.485543 0
M  V30 417 N 41.3868 0.248026 -1.55636 0
M  V30 418 C 42.6338 0.976224 -1.77415 0
M  V30 419 C 42.9618 1.85361 -0.589193 0
M  V30 420 O 42.2168 1.90973 0.427529 0
M  V30 421 C 42.5158 1.86819 -3.04686 0
M  V30 422 C 42.1818 1.14625 -4.36087 0
M  V30 423 C 40.8438 0.946723 -4.71795 0
M  V30 424 C 43.1958 0.634463 -5.17324 0
M  V30 425 C 40.5238 0.223091 -5.86276 0
M  V30 426 C 42.8758 -0.0756959 -6.32555 0
M  V30 427 C 41.5398 -0.286711 -6.66884 0
M  V30 428 H 40.8098 0.357226 -0.649208 0
M  V30 429 H 43.4568 0.246415 -1.89908 0
M  V30 430 H 41.7618 2.66502 -2.872 0
M  V30 431 H 43.4588 2.43329 -3.18735 0
M  V30 432 H 40.0488 1.3117 -4.08035 0
M  V30 433 H 44.2328 0.77616 -4.90193 0
M  V30 434 H 39.4888 0.0491185 -6.1138 0
M  V30 435 H 43.6628 -0.479899 -6.94745 0
M  V30 436 H 41.2898 -0.849389 -7.5544 0
M  V30 437 N 42.8649 1.48995 0.513639 0
M  V30 438 C 44.0929 1.61531 1.29288 0
M  V30 439 C 44.5079 0.281801 1.86685 0
M  V30 440 O 43.8649 -0.731111 1.67215 0
M  V30 441 C 43.9159 2.67449 2.43215 0
M  V30 442 O 43.6369 3.95626 1.88179 0
M  V30 443 C 45.1379 2.90575 3.34785 0
M  V30 444 H 42.3579 0.544165 0.392588 0
M  V30 445 H 44.9019 1.9494 0.617956 0
M  V30 446 H 43.0569 2.36853 3.0656 0
M  V30 447 H 43.4709 4.53868 2.62876 0
M  V30 448 H 44.9449 3.68449 4.11035 0
M  V30 449 H 45.4219 2.00011 3.91015 0
M  V30 450 H 46.0279 3.22538 2.77218 0
M  V30 451 N 44.343 -0.763751 1.37857 0
M  V30 452 C 45.592 -1.51789 1.32827 0
M  V30 453 C 45.905 -1.95426 -0.0823719 0
M  V30 454 O 47.111 -2.70298 -0.255172 0
M  V30 455 C 45.567 -2.74133 2.33193 0
M  V30 456 C 45.175 -2.37562 3.79827 0
M  V30 457 C 46.919 -3.52054 2.37188 0
M  V30 458 C 44.826 -3.56456 4.71904 0
M  V30 459 H 43.756 -0.569896 0.493695 0
M  V30 460 H 46.407 -0.835822 1.63359 0
M  V30 461 H 44.789 -3.4427 1.9569 0
M  V30 462 H 45.963 -1.75157 4.26212 0
M  V30 463 H 44.278 -1.72798 3.78853 0
M  V30 464 H 46.875 -4.40437 3.03182 0
M  V30 465 H 47.218 -3.92486 1.38782 0
M  V30 466 H 47.751 -2.88921 2.7344 0
M  V30 467 H 44.49 -3.21099 5.71468 0
M  V30 468 H 44.01 -4.17938 4.30218 0
M  V30 469 H 45.689 -4.23168 4.89426 0
M  V30 470 N 45.8211 -1.22559 -0.990812 0
M  V30 471 C 47.0461 -1.07862 -1.77145 0
M  V30 472 C 47.4711 0.366447 -1.84496 0
M  V30 473 O 46.8291 1.26478 -1.29896 0
M  V30 474 C 46.8771 -1.69686 -3.18181 0
M  V30 475 O 45.9811 -0.951946 -4.01263 0
M  V30 476 H 45.3221 -0.378712 -0.545411 0
M  V30 477 H 47.8521 -1.62399 -1.2445 0
M  V30 478 H 47.8621 -1.74496 -3.68802 0
M  V30 479 H 46.5371 -2.74841 -3.12146 0
M  V30 480 H 45.1141 -0.980011 -3.59792 0
M  V30 481 N 47.2992 1.18797 -1.03562 0
M  V30 482 C 48.5472 1.88278 -0.734569 0
M  V30 483 C 48.8682 1.8043 0.739586 0
M  V30 484 O 48.1382 1.21925 1.53333 0
M  V30 485 H 46.7182 0.696991 -0.268725 0
M  V30 486 H 49.3802 1.44192 -1.31129 0
M  V30 487 H 48.4762 2.94443 -1.03489 0
M  V30 488 N 48.7773 0.814389 1.34928 0
M  V30 489 C 49.7253 0.218424 2.31572 0
M  V30 490 C 50.7193 -0.636128 1.57002 0
M  V30 491 O 51.9253 -0.52842 1.72069 0
M  V30 492 H 48.3003 0.0518799 0.750208 0
M  V30 493 H 50.2713 1.04852 2.79372 0
M  V30 494 C 49.0203 -0.61207 3.4227 0
M  V30 495 H 48.3433 0.0361578 3.99784 0
M  V30 496 H 49.7833 -0.995317 4.12152 0
M  V30 497 C 48.2423 -1.78087 2.85984 0
M  V30 498 O 48.7723 -2.8787 2.80168 0
M  V30 499 N 46.9783 -1.59488 2.42924 0
M  V30 500 H 46.5253 -0.701874 2.47854 0
M  V30 501 H 46.4833 -2.37846 2.05613 0
M  V30 502 N 50.2554 -1.46986 0.568584 0
M  V30 503 C 51.1854 -2.32946 -0.160753 0
M  V30 504 C 52.1664 -1.44487 -0.897631 0
M  V30 505 O 53.3514 -1.73327 -0.875867 0
M  V30 506 C 50.4814 -3.26494 -1.18403 0
M  V30 507 C 49.4354 -4.24282 -0.562895 0
M  V30 508 C 48.7614 -5.07236 -1.69163 0
M  V30 509 C 50.0614 -5.19989 0.490761 0
M  V30 510 H 51.7554 -2.94175 0.556916 0
M  V30 511 H 49.3014 -1.4146 0.26927 0
M  V30 512 H 51.2544 -3.85477 -1.70251 0
M  V30 513 H 49.9784 -2.63343 -1.93179 0
M  V30 514 H 48.6374 -3.66541 -0.0656164 0
M  V30 515 H 48.2854 -4.4048 -2.42871 0
M  V30 516 H 47.9854 -5.7345 -1.28174 0
M  V30 517 H 49.5094 -5.6908 -2.21314 0
M  V30 518 H 50.9234 -5.73271 0.0579047 0
M  V30 519 H 49.3204 -5.94469 0.820165 0
M  V30 520 H 50.3904 -4.64777 1.3824 0
M  V30 521 N 51.7335 -0.305618 -1.54608 0
M  V30 522 C 52.6635 0.561482 -2.26649 0
M  V30 523 C 53.6445 1.13415 -1.26772 0
M  V30 524 O 54.8295 1.16262 -1.55553 0
M  V30 525 C 51.9595 1.73122 -3.01075 0
M  V30 526 C 50.9135 1.2887 -4.08138 0
M  V30 527 C 50.2395 2.54396 -4.70305 0
M  V30 528 C 51.5395 0.416578 -5.20636 0
M  V30 529 H 53.2335 -0.0393902 -2.99374 0
M  V30 530 H 50.7795 -0.020385 -1.43986 0
M  V30 531 H 52.7325 2.34396 -3.50195 0
M  V30 532 H 51.4565 2.3584 -2.25936 0
M  V30 533 H 50.1155 0.698991 -3.59875 0
M  V30 534 H 49.7635 3.15439 -3.918 0
M  V30 535 H 49.4635 2.25486 -5.42614 0
M  V30 536 H 50.9875 3.16464 -5.2219 0
M  V30 537 H 52.4015 0.935116 -5.65622 0
M  V30 538 H 50.7985 0.221046 -5.99693 0
M  V30 539 H 51.8685 -0.557162 -4.81688 0
M  V30 540 N 53.2116 1.57565 -0.0334293 0
M  V30 541 C 54.4416 1.95996 0.653398 0
M  V30 542 C 54.8496 0.908749 1.65947 0
M  V30 543 O 54.1926 -0.117471 1.83324 0
M  V30 544 C 54.2546 3.30589 1.41249 0
M  V30 545 C 53.9186 4.53503 0.564263 0
M  V30 546 C 54.9156 5.19647 -0.16225 0
M  V30 547 C 52.6006 4.99801 0.500398 0
M  V30 548 C 54.5946 6.30412 -0.941255 0
M  V30 549 C 52.2816 6.10448 -0.282308 0
M  V30 550 C 53.2796 6.75612 -1.00184 0
M  V30 551 O 52.9676 7.84134 -1.77171 0
M  V30 552 H 52.6996 0.65027 0.184728 0
M  V30 553 H 55.2536 2.05199 -0.0907841 0
M  V30 554 H 53.4836 3.17888 2.20191 0
M  V30 555 H 55.1726 3.53892 1.98784 0
M  V30 556 H 55.9386 4.84846 -0.12227 0
M  V30 557 H 51.8176 4.48883 1.05002 0
M  V30 558 H 55.3616 6.81208 -1.50339 0
M  V30 559 H 51.2586 6.44686 -0.323989 0
M  V30 560 H 52.0266 8.00822 -1.69194 0
M  V30 561 N 54.6897 -0.239769 1.55765 0
M  V30 562 C 55.9357 -0.968234 1.78194 0
M  V30 563 C 56.2687 -1.84701 0.599938 0
M  V30 564 O 55.5437 -1.9031 -0.401524 0
M  V30 565 C 55.8267 -1.8227 3.10564 0
M  V30 566 C 55.6797 -0.971633 4.3918 0
M  V30 567 C 56.9987 -2.80388 3.39221 0
M  V30 568 H 54.1177 -0.350572 0.648281 0
M  V30 569 H 56.7597 -0.238259 1.885 0
M  V30 570 H 54.9097 -2.44507 3.01908 0
M  V30 571 H 56.5817 -0.367408 4.59835 0
M  V30 572 H 54.8247 -0.276276 4.32919 0
M  V30 573 H 55.4957 -1.60346 5.28198 0
M  V30 574 H 57.9717 -2.28287 3.47885 0
M  V30 575 H 56.8477 -3.3729 4.33044 0
M  V30 576 H 57.1087 -3.57212 2.60484 0
M  V30 577 N 56.1678 -1.49265 -0.50573 0
M  V30 578 C 57.3928 -1.62478 -1.28902 0
M  V30 579 C 57.8178 -0.294332 -1.85783 0
M  V30 580 O 57.1758 0.737412 -1.65626 0
M  V30 581 C 57.2238 -2.69268 -2.39848 0
M  V30 582 O 56.3278 -2.28113 -3.43567 0
M  V30 583 H 55.6688 -0.54399 -0.380751 0
M  V30 584 H 58.1988 -1.95421 -0.605952 0
M  V30 585 H 58.2088 -2.91291 -2.85681 0
M  V30 586 H 56.8838 -3.65846 -1.97812 0
M  V30 587 H 55.4608 -2.16401 -3.03685 0
M  V30 588 N 57.6459 0.756429 -1.3826 0
M  V30 589 C 58.8939 1.51248 -1.34047 0
M  V30 590 C 59.2149 1.94875 0.0698372 0
M  V30 591 O 58.4849 1.67436 1.01696 0
M  V30 592 H 57.0649 0.561018 -0.493222 0
M  V30 593 H 59.7269 0.899347 -1.7291 0
M  V30 594 H 58.8229 2.40472 -1.98947 0
M  V30 595 N 59.124 1.23083 0.984299 0
M  V30 596 C 60.056 0.96636 2.07832 0
M  V30 597 C 61.069 -0.0582135 1.62696 0
M  V30 598 O 62.258 0.176843 1.77622 0
M  V30 599 C 59.358 0.433397 3.36117 0
M  V30 600 C 58.531 1.51722 4.10243 0
M  V30 601 C 57.59 0.989821 5.16807 0
M  V30 602 O 56.616 1.67794 5.43906 0
M  V30 603 N 57.818 -0.184367 5.80207 0
M  V30 604 H 60.583 1.90824 2.31098 0
M  V30 605 H 58.144 1.13888 1.1507 0
M  V30 606 H 60.136 0.065699 4.04647 0
M  V30 607 H 58.706 -0.413806 3.09849 0
M  V30 608 H 57.926 2.05786 3.36223 0
M  V30 609 H 59.214 2.24619 4.56534 0
M  V30 610 H 58.612 -0.760062 5.60571 0
M  V30 611 H 57.169 -0.493366 6.4993 0
M  V30 612 N 60.6021 -1.18246 1.0419 0
M  V30 613 C 61.5321 -2.24127 0.654914 0
M  V30 614 C 62.5131 -1.66617 -0.342451 0
M  V30 615 O 63.6981 -1.92924 -0.222277 0
M  V30 616 C 60.8281 -3.47295 0.0183757 0
M  V30 617 C 59.7821 -4.17563 0.939414 0
M  V30 618 C 59.1081 -5.34438 0.167286 0
M  V30 619 C 60.4081 -4.70917 2.25908 0
M  V30 620 H 62.1021 -2.56753 1.54007 0
M  V30 621 H 59.6481 -1.23414 0.74195 0
M  V30 622 H 61.6011 -4.20572 -0.264082 0
M  V30 623 H 60.3251 -3.13907 -0.901664 0
M  V30 624 H 58.9841 -3.46186 1.20628 0
M  V30 625 H 58.6321 -4.97298 -0.7552 0
M  V30 626 H 58.3321 -5.82388 0.780901 0
M  V30 627 H 59.8561 -6.10504 -0.108125 0
M  V30 628 H 61.2701 -5.35882 2.03724 0
M  V30 629 H 59.6671 -5.29406 2.82577 0
M  V30 630 H 60.7371 -3.88272 2.9047 0
M  V30 631 N 62.0802 -0.821533 -1.34494 0
M  V30 632 C 63.4912 -0.467956 -1.8074 0
M  V30 633 C 63.8422 1.01151 -1.68116 0
M  V30 634 O 62.9672 1.78707 -1.22036 0
M  V30 635 C 63.5622 -0.842627 -3.28154 0
M  V30 636 C 62.1212 -0.541439 -3.72485 0
M  V30 637 C 61.2682 -1.06028 -2.56229 0
M  V30 638 H 64.2192 -1.01183 -1.22261 0
M  V30 639 H 64.2402 -0.145876 -3.8022 0
M  V30 640 H 63.7522 -1.91945 -3.37311 0
M  V30 641 H 61.8532 0.526034 -3.68868 0
M  V30 642 H 61.9662 -1.08453 -4.66663 0
M  V30 643 H 60.3302 -0.481892 -2.501 0
M  V30 644 H 61.1132 -2.14352 -2.68157 0
M  V30 645 N 63.5583 1.46682 -0.576371 0
M  V30 646 C 64.4913 2.27243 0.208731 0
M  V30 647 C 65.4693 1.35238 0.902746 0
M  V30 648 O 66.6533 1.64641 0.917904 0
M  V30 649 C 63.7803 3.12802 1.29896 0
M  V30 650 C 62.8263 4.20524 0.711457 0
M  V30 651 S 63.6593 5.33548 -0.456781 0
M  V30 652 C 64.8153 6.22673 0.634798 0
M  V30 653 H 65.0483 2.93484 -0.474838 0
M  V30 654 H 62.5813 1.50069 -0.363118 0
M  V30 655 H 64.5393 3.62661 1.92321 0
M  V30 656 H 63.2003 2.45887 1.95444 0
M  V30 657 H 62.3933 4.80191 1.53076 0
M  V30 658 H 61.9953 3.73645 0.162999 0
M  V30 659 H 64.2873 6.60181 1.52209 0
M  V30 660 H 65.2303 7.0806 0.0750311 0
M  V30 661 H 65.6383 5.56684 0.936092 0
M  V30 662 N 65.0364 0.313813 1.54444 0
M  V30 663 C 65.9464 -0.565714 2.27677 0
M  V30 664 C 66.9624 -1.13754 1.31666 0
M  V30 665 O 68.1384 -1.15959 1.64668 0
M  V30 666 C 65.2034 -1.71528 3.01296 0
M  V30 667 C 64.2644 -1.17624 4.12872 0
M  V30 668 C 63.4974 -2.27102 4.8297 0
M  V30 669 O 63.7204 -3.47256 4.52514 0
M  V30 670 O 62.6544 -1.9307 5.70094 0
M  V30 671 H 66.4804 0.0287296 3.03686 0
M  V30 672 H 64.0654 0.0798312 1.49187 0
M  V30 673 H 65.9474 -2.38476 3.4743 0
M  V30 674 H 64.6224 -2.29608 2.2817 0
M  V30 675 H 63.5294 -0.472124 3.71109 0
M  V30 676 H 64.8624 -0.640695 4.88012 0
M  V30 677 N 66.5145 -1.57545 0.0417849 0
M  V30 678 C 67.7395 -1.97035 -0.647455 0
M  V30 679 C 68.1645 -0.918775 -1.64135 0
M  V30 680 O 67.5225 0.119006 -1.80909 0
M  V30 681 C 67.5705 -3.35609 -1.31905 0
M  V30 682 O 66.6745 -3.3287 -2.43457 0
M  V30 683 H 66.0155 -0.64211 -0.169086 0
M  V30 684 H 68.5455 -2.04318 0.107399 0
M  V30 685 H 68.5555 -3.72126 -1.67291 0
M  V30 686 H 67.2305 -4.11685 -0.590586 0
M  V30 687 H 65.8075 -3.08087 -2.10088 0
M  V30 688 N 67.9926 0.231505 -1.5589 0
M  V30 689 C 69.2406 0.955461 -1.78088 0
M  V30 690 C 69.5616 1.85262 -0.608533 0
M  V30 691 O 68.8316 1.92277 0.375035 0
M  V30 692 H 67.4116 0.355787 -0.656829 0
M  V30 693 H 70.0736 0.245751 -1.93344 0
M  V30 694 H 69.1696 1.56814 -2.69844 0
M  V30 695 N 69.4707 1.49531 0.497807 0
M  V30 696 C 70.4177 1.66436 1.59899 0
M  V30 697 C 71.3877 0.505793 1.58212 0
M  V30 698 O 72.5727 0.733202 1.7615 0
M  V30 699 C 69.7127 1.7399 2.98029 0
M  V30 700 C 68.8257 3.01172 3.09708 0
M  V30 701 C 67.9607 2.99686 4.38591 0
M  V30 702 C 66.9997 4.21434 4.43914 0
M  V30 703 N 66.1367 4.1784 5.64229 0
M  V30 704 H 70.9767 2.60459 1.44793 0
M  V30 705 H 68.5137 1.29137 0.704423 0
M  V30 706 H 70.4717 1.76352 3.78095 0
M  V30 707 H 69.1017 0.834301 3.11832 0
M  V30 708 H 68.1537 3.08408 2.22685 0
M  V30 709 H 69.4657 3.91165 3.09502 0
M  V30 710 H 68.6197 3.00628 5.2698 0
M  V30 711 H 67.3587 2.07477 4.41367 0
M  V30 712 H 66.3637 4.20733 3.53926 0
M  V30 713 H 67.5887 5.14839 4.42851 0
M  V30 714 H 65.5347 3.28469 5.67841 0
M  V30 715 H 65.4517 5.01571 5.65652 0
M  V30 716 H 66.7197 4.22889 6.54817 0
M  V30 717 N 70.9488 -0.749086 1.3866 0
M  V30 718 C 72.1978 -1.50371 1.3443 0
M  V30 719 C 72.5108 -1.95503 -0.0616397 0
M  V30 720 O 73.7168 -2.70554 -0.226489 0
M  V30 721 C 72.1728 -2.71644 2.36088 0
M  V30 722 C 71.7808 -2.3352 3.82325 0
M  V30 723 C 73.5248 -3.49518 2.40909 0
M  V30 724 C 71.4318 -3.51431 4.75658 0
M  V30 725 H 70.3618 -0.564628 0.499712 0
M  V30 726 H 73.0128 -0.818449 1.64237 0
M  V30 727 H 71.3948 -3.42175 1.9933 0
M  V30 728 H 72.5688 -1.70627 4.28046 0
M  V30 729 H 70.8838 -1.6877 3.80665 0
M  V30 730 H 73.4808 -4.37197 3.07836 0
M  V30 731 H 73.8238 -3.90992 1.42937 0
M  V30 732 H 74.3568 -2.86005 2.76489 0
M  V30 733 H 71.0958 -3.15019 5.74842 0
M  V30 734 H 70.6158 -4.13352 4.34627 0
M  V30 735 H 72.2948 -4.17953 4.93887 0
M  V30 736 N 72.4269 -1.23603 -0.977757 0
M  V30 737 C 73.3899 -1.02069 -2.05218 0
M  V30 738 C 74.3899 0.0184305 -1.60789 0
M  V30 739 O 75.5799 -0.221569 -1.72785 0
M  V30 740 C 72.7119 -0.544926 -3.36517 0
M  V30 741 H 73.9049 -1.9742 -2.25755 0
M  V30 742 H 71.4579 -1.05684 -1.15155 0
M  V30 743 H 72.1929 0.412241 -3.21669 0
M  V30 744 H 71.9779 -1.2948 -3.70105 0
M  V30 745 H 73.4679 -0.414985 -4.15533 0
M  V30 746 N 73.905 1.17692 -1.04816 0
M  V30 747 C 75.151 1.88137 -0.75711 0
M  V30 748 C 75.484 1.80604 0.713841 0
M  V30 749 O 74.759 1.21146 1.52164 0
M  V30 750 C 75.042 3.38318 -1.2334 0
M  V30 751 C 74.895 3.54622 -2.76701 0
M  V30 752 C 76.214 4.32214 -0.829415 0
M  V30 753 H 73.333 0.683163 -0.27651 0
M  V30 754 H 75.975 1.38424 -1.30149 0
M  V30 755 H 74.125 3.80787 -0.770286 0
M  V30 756 H 75.797 3.21194 -3.31107 0
M  V30 757 H 74.04 2.97026 -3.16161 0
M  V30 758 H 74.711 4.60028 -3.05088 0
M  V30 759 H 77.187 3.97565 -1.22805 0
M  V30 760 H 76.063 5.35838 -1.19033 0
M  V30 761 H 76.324 4.41294 0.266891 0
M  V30 762 N 75.3831 0.828654 1.34056 0
M  V30 763 C 76.6111 0.43262 2.02326 0
M  V30 764 C 77.0261 -0.963147 1.62385 0
M  V30 765 O 76.3831 -1.62425 0.832121 0
M  V30 766 C 76.4341 0.53182 3.57567 0
M  V30 767 O 76.1551 1.87258 3.96063 0
M  V30 768 C 77.6561 0.131422 4.43105 0
M  V30 769 H 74.8761 0.172923 0.648335 0
M  V30 770 H 77.4201 1.1184 1.71208 0
M  V30 771 H 75.5751 -0.105938 3.87255 0
M  V30 772 H 75.9891 1.85087 4.90758 0
M  V30 773 H 77.4631 0.251904 5.51425 0
M  V30 774 H 77.9401 -0.925645 4.29335 0
M  V30 775 H 78.5461 0.743207 4.18756 0
M  V30 776 N 76.8612 -1.46375 0.584142 0
M  V30 777 C 78.1092 -2.01978 0.0701287 0
M  V30 778 C 78.4302 -1.4579 -1.295 0
M  V30 779 O 77.7002 -0.64314 -1.85042 0
M  V30 780 H 76.2802 -0.746648 0.0229345 0
M  V30 781 H 78.9422 -1.79461 0.760245 0
M  V30 782 H 78.0382 -3.121 0.0022064 0
M  V30 783 N 78.3393 -0.321999 -1.54275 0
M  V30 784 C 79.2693 0.537411 -2.27231 0
M  V30 785 C 80.2503 1.12064 -1.27968 0
M  V30 786 O 81.4353 1.14606 -1.56777 0
M  V30 787 C 78.5653 1.69919 -3.02894 0
M  V30 788 C 77.5193 1.24534 -4.09482 0
M  V30 789 C 76.8453 2.49394 -4.72977 0
M  V30 790 C 78.1453 0.361335 -5.21049 0
M  V30 791 H 79.8393 -0.0711406 -2.99315 0
M  V30 792 H 77.3853 -0.0356555 -1.43956 0
M  V30 793 H 79.3383 2.30668 -3.52662 0
M  V30 794 H 78.0623 2.33431 -2.28424 0
M  V30 795 H 76.7213 0.660782 -3.60596 0
M  V30 796 H 76.3693 3.11265 -3.95124 0
M  V30 797 H 76.0693 2.19718 -5.44975 0
M  V30 798 H 77.5933 3.10908 -5.25517 0
M  V30 799 H 79.0073 0.875072 -5.66582 0
M  V30 800 H 77.4043 0.157428 -5.99893 0
M  V30 801 H 78.4743 -0.60822 -4.8107 0
M  V30 802 N 79.8174 1.5752 -0.0501392 0
M  V30 803 C 81.0634 1.92936 0.624798 0
M  V30 804 C 81.3964 0.928685 1.70555 0
M  V30 805 O 80.6714 -0.0454779 1.94447 0
M  V30 806 C 80.9544 3.38737 1.22185 0
M  V30 807 C 80.8074 4.49552 0.149218 0
M  V30 808 C 82.1264 3.84913 2.13378 0
M  V30 809 H 79.2454 0.701604 0.225657 0
M  V30 810 H 81.8874 1.89671 -0.111693 0
M  V30 811 H 80.0374 3.4165 1.84953 0
M  V30 812 H 81.7094 4.58768 -0.482648 0
M  V30 813 H 79.9524 4.30638 -0.522841 0
M  V30 814 H 80.6234 5.48653 0.606966 0
M  V30 815 H 83.0994 3.8387 1.60572 0
M  V30 816 H 81.9754 4.87584 2.52097 0
M  V30 817 H 82.2364 3.21611 3.03346 0
M  V30 818 N 81.2955 -0.223234 1.56011 0
M  V30 819 C 82.5435 -0.946003 1.78592 0
M  V30 820 C 82.8645 -1.84936 0.618349 0
M  V30 821 O 82.1345 -1.92473 -0.364833 0
M  V30 822 H 80.7145 -0.352298 0.658707 0
M  V30 823 H 83.3765 -0.235494 1.93472 0
M  V30 824 H 82.4725 -1.55381 2.70672 0
M  V30 825 N 82.7736 -1.49793 -0.48987 0
M  V30 826 C 84.1896 -1.36803 -0.822022 0
M  V30 827 C 84.3896 -0.409652 -1.97292 0
M  V30 828 O 83.4456 0.154614 -2.52026 0
M  V30 829 C 84.7586 -2.77768 -1.15175 0
M  V30 830 C 86.3066 -2.86549 -1.25931 0
M  V30 831 C 86.7816 -4.28306 -1.62228 0
M  V30 832 N 88.2726 -4.31169 -1.69256 0
M  V30 833 C 89.0076 -5.37832 -1.98807 0
M  V30 834 N 88.5036 -6.54726 -2.26507 0
M  V30 835 N 90.2966 -5.25258 -2.00152 0
M  V30 836 H 82.4476 -2.10691 0.268881 0
M  V30 837 H 84.7106 -0.946241 0.057728 0
M  V30 838 H 84.4166 -3.49648 -0.379335 0
M  V30 839 H 84.2906 -3.13836 -2.09253 0
M  V30 840 H 86.6776 -2.14899 -2.02243 0
M  V30 841 H 86.7586 -2.54049 -0.298776 0
M  V30 842 H 86.4026 -5.00486 -0.864622 0
M  V30 843 H 86.3326 -4.58279 -2.594 0
M  V30 844 H 88.8236 -3.4687 -1.49965 0
M  V30 845 H 89.1366 -7.31833 -2.48276 0
M  V30 846 H 87.4816 -6.57933 -2.23939 0
M  V30 847 H 90.6726 -4.32938 -1.77996 0
M  V30 848 H 90.8456 -6.08476 -2.22848 0
M  V30 849 N 84.2517 0.741722 -1.39055 0
M  V30 850 C 85.5287 1.49252 -1.26425 0
M  V30 851 C 85.9087 2.10705 0.129144 0
M  V30 852 O 85.2567 1.98045 1.13976 0
M  V30 853 C 85.4667 2.54934 -2.38347 0
M  V30 854 C 86.8147 3.21506 -2.77343 0
M  V30 855 O 87.8387 2.65245 -2.37747 0
M  V30 856 O 86.6977 4.23294 -3.45665 0
M  V30 857 H 83.7917 0.662451 -0.495064 0
M  V30 858 H 86.3377 0.776121 -1.50912 0
M  V30 859 H 85.1097 2.07857 -3.31529 0
M  V30 860 H 84.7327 3.34141 -2.15489 0
M  V30 861 N 85.7298 1.2412 0.971189 0
M  V30 862 C 86.9758 1.08041 1.71625 0
M  V30 863 C 87.3088 -0.380407 1.90438 0
M  V30 864 O 86.5838 -1.28127 1.46334 0
M  V30 865 C 86.8668 1.81682 3.10908 0
M  V30 866 C 86.7198 3.35493 2.99608 0
M  V30 867 C 88.0388 1.58671 4.10501 0
M  V30 868 H 85.1578 0.39388 0.622919 0
M  V30 869 H 87.7998 1.52743 1.13003 0
M  V30 870 H 85.9498 1.43684 3.60953 0
M  V30 871 H 87.6218 3.83068 2.57015 0
M  V30 872 H 85.8648 3.64052 2.35899 0
M  V30 873 H 86.5358 3.82217 3.98264 0
M  V30 874 H 89.0118 1.91719 3.69301 0
M  V30 875 H 87.8878 2.1266 5.06031 0
M  V30 876 H 88.1488 0.524161 4.38982 0
M  V30 877 N 87.2079 -1.17134 1.05439 0
M  V30 878 C 88.4849 -1.83411 0.679699 0
M  V30 879 C 88.8649 -1.9368 -0.839726 0
M  V30 880 O 88.2129 -1.47325 -1.74664 0
M  V30 881 C 88.4229 -3.20918 1.37159 0
M  V30 882 C 89.7709 -3.96796 1.51123 0
M  V30 883 O 90.7949 -3.30406 1.3308 0
M  V30 884 O 89.6539 -5.15778 1.80651 0
M  V30 885 H 86.7479 -0.79154 0.239569 0
M  V30 886 H 89.2939 -1.24411 1.15413 0
M  V30 887 H 88.0659 -3.08428 2.40807 0
M  V30 888 H 87.6889 -3.87587 0.886674 0
M  V30 889 N 88.686 -0.835752 -1.33615 0
M  V30 890 C 89.932 -0.430596 -1.98176 0
M  V30 891 C 90.265 1.00684 -1.66061 0
M  V30 892 O 89.54 1.70339 -0.938877 0
M  V30 893 C 89.823 -0.648065 -3.5422 0
M  V30 894 C 89.676 -2.13255 -3.96033 0
M  V30 895 C 90.995 -0.0922113 -4.40003 0
M  V30 896 H 88.114 -0.157924 -0.719881 0
M  V30 897 H 90.756 -1.05069 -1.58305 0
M  V30 898 H 88.906 -0.120237 -3.88314 0
M  V30 899 H 90.578 -2.725 -3.72211 0
M  V30 900 H 88.821 -2.61823 -3.45878 0
M  V30 901 H 89.492 -2.23547 -5.04708 0
M  V30 902 H 91.968 -0.543343 -4.12537 0
M  V30 903 H 90.844 -0.274083 -5.48215 0
M  V30 904 H 91.105 1.00378 -4.30554 0
M  V30 905 N 90.1641 1.46063 -0.591896 0
M  V30 906 C 91.1271 2.28854 0.125973 0
M  V30 907 C 92.1271 1.38903 0.810107 0
M  V30 908 O 93.3171 1.61186 0.66066 0
M  V30 909 C 90.4491 3.19526 1.1881 0
M  V30 910 H 91.6421 2.93802 -0.601717 0
M  V30 911 H 89.1951 1.52325 -0.350254 0
M  V30 912 H 89.9301 2.59345 1.94707 0
M  V30 913 H 89.7151 3.85766 0.701936 0
M  V30 914 H 91.2051 3.81817 1.69132 0
M  V30 915 N 91.6422 0.330177 1.54103 0
M  V30 916 C 92.8672 -0.274893 2.0557 0
M  V30 917 C 93.2922 -1.44487 1.20437 0
M  V30 918 O 92.6502 -1.80021 0.214991 0
M  V30 919 C 92.6982 -0.68079 3.54115 0
M  V30 920 O 91.8022 -1.7824 3.71893 0
M  V30 921 H 91.1432 -0.0483849 0.662235 0
M  V30 922 H 93.6732 0.480508 1.98878 0
M  V30 923 H 93.6832 -0.961635 3.96505 0
M  V30 924 H 92.3582 0.174903 4.15532 0
M  V30 925 H 90.9352 -1.49985 3.41407 0
M  V30 926 N 93.1203 -1.57491 0.0584922 0
M  V30 927 C 94.0833 -2.1085 -0.898617 0
M  V30 928 C 95.0833 -1.02964 -1.23511 0
M  V30 929 O 96.2733 -1.29007 -1.17059 0
M  V30 930 C 93.4053 -2.59881 -2.20623 0
M  V30 931 H 94.5983 -2.96715 -0.435936 0
M  V30 932 H 92.1513 -1.55141 -0.190023 0
M  V30 933 H 92.8863 -1.77431 -2.71457 0
M  V30 934 H 92.6713 -3.38727 -1.97501 0
M  V30 935 H 94.1613 -3.01285 -2.89166 0
M  V30 936 N 94.5984 0.214957 -1.56127 0
M  V30 937 C 95.5304 1.29004 -1.89448 0
M  V30 938 C 96.5434 1.42716 -0.783326 0
M  V30 939 O 97.7324 1.43496 -1.06166 0
M  V30 940 C 94.8324 2.66482 -2.09381 0
M  V30 941 C 94.0054 2.74633 -3.40434 0
M  V30 942 C 93.0644 3.9317 -3.49719 0
M  V30 943 O 92.0904 3.812 -4.227 0
M  V30 944 N 93.2924 5.07765 -2.81346 0
M  V30 945 H 96.0574 1.00743 -2.82261 0
M  V30 946 H 93.6184 0.40497 -1.56753 0
M  V30 947 H 95.6104 3.44173 -2.12901 0
M  V30 948 H 94.1804 2.87314 -1.23163 0
M  V30 949 H 93.4004 1.83368 -3.48955 0
M  V30 950 H 94.6884 2.77054 -4.26754 0
M  V30 951 H 94.0864 5.20386 -2.21843 0
M  V30 952 H 92.6434 5.83474 -2.90519 0
M  V30 953 N 96.0765 1.50051 0.48192 0
M  V30 954 C 97.4925 1.37237 0.814756 0
M  V30 955 C 97.6925 0.420109 1.97072 0
M  V30 956 O 96.7485 -0.141246 2.52105 0
M  V30 957 C 98.0615 2.78375 1.13701 0
M  V30 958 C 99.6095 2.87213 1.2441 0
M  V30 959 C 100.084 4.29161 1.59954 0
M  V30 960 N 101.575 4.32061 1.66967 0
M  V30 961 C 102.31 5.38879 1.95952 0
M  V30 962 N 101.806 6.55918 2.23031 0
M  V30 963 N 103.599 5.26312 1.97363 0
M  V30 964 H 95.7505 2.10546 -0.28005 0
M  V30 965 H 98.0135 0.945921 -0.0627454 0
M  V30 966 H 97.7195 3.49845 0.360787 0
M  V30 967 H 97.5935 3.14941 2.07586 0
M  V30 968 H 99.9805 2.15969 2.01101 0
M  V30 969 H 100.061 2.54204 0.285299 0
M  V30 970 H 99.7055 5.00938 0.838067 0
M  V30 971 H 99.6355 4.59648 2.56966 0
M  V30 972 H 102.126 3.47661 1.48123 0
M  V30 973 H 102.439 7.33139 2.44391 0
M  V30 974 H 100.784 6.59112 2.20447 0
M  V30 975 H 103.975 4.33876 1.75697 0
M  V30 976 H 104.148 6.09649 2.19618 0
M  V30 977 N 97.5546 -0.734337 1.39446 0
M  V30 978 C 98.5176 -1.83004 1.37994 0
M  V30 979 C 99.5176 -1.58397 0.276938 0
M  V30 980 O 100.708 -1.65785 0.534875 0
M  V30 981 C 97.8396 -3.20802 1.1532 0
M  V30 982 H 99.0326 -1.85694 2.35494 0
M  V30 983 H 96.5856 -0.938059 1.25021 0
M  V30 984 H 97.3206 -3.23772 0.185036 0
M  V30 985 H 97.1056 -3.4006 1.95197 0
M  V30 986 H 98.5956 -4.00862 1.17046 0
M  V30 987 N 99.0327 -1.24633 -0.964593 0
M  V30 988 C 99.9957 -1.0424 -2.04124 0
M  V30 989 C 100.996 0.00137563 -1.608 0
M  V30 990 O 102.186 -0.239883 -1.7254 0
M  V30 991 C 99.3177 -0.580588 -3.3592 0
M  V30 992 H 100.511 -1.99803 -2.23649 0
M  V30 993 H 98.0637 -1.06899 -1.14027 0
M  V30 994 H 98.7987 0.3781 -3.22088 0
M  V30 995 H 98.5837 -1.33398 -3.6871 0
M  V30 996 H 100.074 -0.459034 -4.15069 0
M  V30 997 N 100.511 1.16574 -1.06058 0
M  V30 998 C 101.421 2.2452 -0.680282 0
M  V30 999 C 102.437 1.71348 0.302604 0
M  V30 1000 O 103.613 2.00822 0.152513 0
M  V30 1001 C 100.678 3.46629 -0.0700315 0
M  V30 1002 C 99.7388 4.14849 -1.10448 0
M  V30 1003 C 98.9718 5.31129 -0.523256 0
M  V30 1004 O 99.1948 5.66514 0.664709 0
M  V30 1005 O 98.1288 5.88526 -1.26179 0
M  V30 1006 H 101.955 2.59355 -1.58015 0
M  V30 1007 H 99.5398 1.24043 -0.832694 0
M  V30 1008 H 101.422 4.20543 0.268667 0
M  V30 1009 H 100.097 3.13573 0.803353 0
M  V30 1010 H 99.0038 3.42916 -1.49532 0
M  V30 1011 H 100.337 4.51954 -1.94931 0
M  V30 1012 N 101.989 0.842826 1.3317 0
M  V30 1013 C 102.919 0.294028 2.31641 0
M  V30 1014 C 103.9 -0.600401 1.59151 0
M  V30 1015 O 105.085 -0.523124 1.87022 0
M  V30 1016 C 102.215 -0.528416 3.43257 0
M  V30 1017 C 101.169 0.27056 4.27144 0
M  V30 1018 C 100.495 -0.675881 5.30411 0
M  V30 1019 C 101.795 1.48981 5.00602 0
M  V30 1020 H 103.489 1.11681 2.77791 0
M  V30 1021 H 101.035 0.538478 1.33553 0
M  V30 1022 H 102.988 -0.922674 4.11175 0
M  V30 1023 H 101.712 -1.38445 2.95805 0
M  V30 1024 H 100.371 0.646427 3.60856 0
M  V30 1025 H 100.019 -1.52842 4.79216 0
M  V30 1026 H 99.7189 -0.145374 5.8742 0
M  V30 1027 H 101.243 -1.06757 6.01195 0
M  V30 1028 H 102.657 1.16849 5.61266 0
M  V30 1029 H 101.054 1.95739 5.6728 0
M  V30 1030 H 102.124 2.25746 4.29147 0
M  V30 1031 N 103.467 -1.45747 0.599634 0
M  V30 1032 C 104.707 -2.04181 0.0946309 0
M  V30 1033 C 105.071 -1.45895 -1.24815 0
M  V30 1034 O 106.272 -1.95633 -1.8434 0
M  V30 1035 C 104.543 -3.57368 0.047581 0
M  V30 1036 S 106.102 -4.36997 -0.397387 0
M  V30 1037 H 102.92 -0.70953 0.0456954 0
M  V30 1038 H 105.522 -1.78564 0.795946 0
M  V30 1039 H 104.226 -3.97303 1.02852 0
M  V30 1040 H 103.757 -3.87549 -0.675977 0
M  V30 1041 H 105.772 -4.68012 -1.64862 0
M  V30 1042 N 104.945 -0.338344 -1.53925 0
M  V30 1043 C 105.908 0.508299 -2.23493 0
M  V30 1044 C 106.908 1.03175 -1.23335 0
M  V30 1045 O 108.098 0.921826 -1.47811 0
M  V30 1046 C 105.23 1.70754 -2.95052 0
M  V30 1047 H 106.423 -0.100058 -2.99733 0
M  V30 1048 H 103.976 -0.0896198 -1.56043 0
M  V30 1049 H 104.711 2.35474 -2.22986 0
M  V30 1050 H 104.496 1.33946 -3.68512 0
M  V30 1051 H 105.986 2.30818 -3.48013 0
M  V30 1052 N 106.423 1.57458 -0.0668435 0
M  V30 1053 C 107.669 1.93587 0.6043 0
M  V30 1054 C 108.002 0.946722 1.69561 0
M  V30 1055 O 107.277 -0.0248516 1.94484 0
M  V30 1056 C 107.56 3.40014 1.18585 0
M  V30 1057 C 107.413 4.49685 0.101529 0
M  V30 1058 C 108.732 3.87154 2.09284 0
M  V30 1059 H 105.851 0.703958 0.218202 0
M  V30 1060 H 108.493 1.89542 -0.131804 0
M  V30 1061 H 106.643 3.43592 1.81319 0
M  V30 1062 H 108.315 4.5823 -0.531279 0
M  V30 1063 H 106.558 4.30059 -0.568487 0
M  V30 1064 H 107.229 5.49266 0.54874 0
M  V30 1065 H 109.705 3.85551 1.56491 0
M  V30 1066 H 108.581 4.90231 2.46911 0
M  V30 1067 H 108.842 3.2481 2.99918 0
M  V30 1068 N 107.901 -0.206675 1.56239 0
M  V30 1069 C 108.849 -1.27571 1.94495 0
M  V30 1070 C 109.843 -1.47737 0.828862 0
M  V30 1071 O 111.049 -1.48735 1.0138 0
M  V30 1072 H 107.424 -0.428029 0.6183 0
M  V30 1073 H 109.395 -0.925961 2.8367 0
M  V30 1074 C 108.144 -2.61568 2.29079 0
M  V30 1075 H 107.467 -2.46863 3.14482 0
M  V30 1076 H 108.907 -3.35144 2.5972 0
M  V30 1077 C 107.366 -3.17695 1.12123 0
M  V30 1078 O 107.896 -3.99801 0.390153 0
M  V30 1079 N 106.102 -2.76276 0.901097 0
M  V30 1080 H 105.649 -2.09613 1.49733 0
M  V30 1081 H 105.607 -3.1417 0.120319 0
M  V30 1082 N 109.379 -1.50304 -0.473955 0
M  V30 1083 C 110.628 -1.60392 -1.22301 0
M  V30 1084 C 110.941 -0.308411 -1.93153 0
M  V30 1085 O 112.147 -0.288156 -2.69966 0
M  V30 1086 C 110.603 -2.83109 -2.2221 0
M  V30 1087 C 110.211 -4.19524 -1.57173 0
M  V30 1088 C 111.955 -3.0254 -2.97775 0
M  V30 1089 C 109.862 -5.33431 -2.55353 0
M  V30 1090 H 108.792 -0.597286 -0.460179 0
M  V30 1091 H 111.443 -1.76731 -0.493803 0
M  V30 1092 H 109.825 -2.60322 -2.9841 0
M  V30 1093 H 110.999 -4.52554 -0.867824 0
M  V30 1094 H 109.314 -4.05674 -0.939002 0
M  V30 1095 H 111.911 -3.84811 -3.71248 0
M  V30 1096 H 112.254 -2.14154 -3.56992 0
M  V30 1097 H 112.787 -3.25494 -2.28688 0
M  V30 1098 H 109.526 -6.23962 -2.00878 0
M  V30 1099 H 109.046 -5.04823 -3.23904 0
M  V30 1100 H 110.725 -5.63887 -3.17239 0
M  V30 1101 N 110.857 0.726932 -1.39834 0
M  V30 1102 C 111.787 1.85405 -1.41941 0
M  V30 1103 C 112.768 1.67751 -0.281728 0
M  V30 1104 O 113.953 1.8795 -0.488717 0
M  V30 1105 C 111.083 3.23243 -1.2701 0
M  V30 1106 C 110.037 3.55549 -2.38262 0
M  V30 1107 C 109.363 4.9241 -2.08415 0
M  V30 1108 C 110.663 3.577 -3.80589 0
M  V30 1109 H 112.357 1.83899 -2.36266 0
M  V30 1110 H 109.903 0.883349 -1.13723 0
M  V30 1111 H 111.856 4.01775 -1.27103 0
M  V30 1112 H 110.58 3.25296 -0.291564 0
M  V30 1113 H 109.239 2.79351 -2.37399 0
M  V30 1114 H 108.887 4.91052 -1.0898 0
M  V30 1115 H 108.587 5.14992 -2.82943 0
M  V30 1116 H 110.111 5.73289 -2.10171 0
M  V30 1117 H 111.525 4.26293 -3.83337 0
M  V30 1118 H 109.922 3.91804 -4.54543 0
M  V30 1119 H 110.992 2.57328 -4.10987 0
M  V30 1120 N 112.336 1.25143 0.95797 0
M  V30 1121 C 113.299 1.05321 2.03569 0
M  V30 1122 C 114.299 0.007152 1.60798 0
M  V30 1123 O 115.489 0.24903 1.72411 0
M  V30 1124 C 112.621 0.598394 3.35607 0
M  V30 1125 H 113.814 2.00986 2.22586 0
M  V30 1126 H 111.367 1.07502 1.13459 0
M  V30 1127 H 112.102 -0.361014 3.22284 0
M  V30 1128 H 111.887 1.35351 3.67998 0
M  V30 1129 H 113.377 0.48104 4.1482 0
M  V30 1130 N 113.814 -1.1601 1.06675 0
M  V30 1131 C 114.746 -2.20115 0.638921 0
M  V30 1132 C 115.759 -1.59916 -0.305057 0
M  V30 1133 O 116.948 -1.78245 -0.0954446 0
M  V30 1134 C 114.048 -3.38798 -0.0830083 0
M  V30 1135 C 113.221 -4.2855 0.875426 0
M  V30 1136 C 112.28 -5.25849 0.192042 0
M  V30 1137 O 111.306 -5.63102 0.830921 0
M  V30 1138 N 112.508 -5.70648 -1.06493 0
M  V30 1139 H 115.273 -2.57439 1.53444 0
M  V30 1140 H 112.834 -1.31057 0.950557 0
M  V30 1141 H 114.826 -4.00936 -0.550685 0
M  V30 1142 H 113.396 -2.99947 -0.880386 0
M  V30 1143 H 112.616 -3.63617 1.52238 0
M  V30 1144 H 113.904 -4.85393 1.52548 0
M  V30 1145 H 113.302 -5.42482 -1.60405 0
M  V30 1146 H 111.859 -6.34859 -1.47641 0
M  V30 1147 N 115.292 -0.849877 -1.32721 0
M  V30 1148 C 116.538 -0.451591 -1.97708 0
M  V30 1149 C 116.871 0.989175 -1.6712 0
M  V30 1150 O 116.146 1.69334 -0.956891 0
M  V30 1151 C 116.429 -0.685598 -3.53513 0
M  V30 1152 C 116.282 -2.17444 -3.93749 0
M  V30 1153 C 117.601 -0.138874 -4.39881 0
M  V30 1154 H 114.72 -0.16555 -0.718166 0
M  V30 1155 H 117.362 -1.06742 -1.57182 0
M  V30 1156 H 115.512 -0.161416 -3.88165 0
M  V30 1157 H 117.184 -2.76433 -3.693 0
M  V30 1158 H 115.427 -2.65476 -3.43081 0
M  V30 1159 H 116.098 -2.28888 -5.02309 0
M  V30 1160 H 118.574 -0.587068 -4.11938 0
M  V30 1161 H 117.45 -0.332213 -5.47894 0
M  V30 1162 H 117.711 0.95806 -4.31594 0
M  V30 1163 N 116.77 1.45427 -0.607355 0
M  V30 1164 C 117.717 2.3053 0.111625 0
M  V30 1165 C 118.687 1.4209 0.860216 0
M  V30 1166 O 119.872 1.71019 0.845998 0
M  V30 1167 C 117.012 3.26992 1.10319 0
M  V30 1168 C 116.125 4.30535 0.355493 0
M  V30 1169 C 115.26 5.14105 1.33676 0
M  V30 1170 C 114.299 6.09376 0.576862 0
M  V30 1171 N 113.436 6.85727 1.5074 0
M  V30 1172 H 118.276 2.91477 -0.620093 0
M  V30 1173 H 115.813 1.43631 -0.317594 0
M  V30 1174 H 117.771 3.81385 1.6912 0
M  V30 1175 H 116.401 2.67799 1.80232 0
M  V30 1176 H 115.453 3.78805 -0.348023 0
M  V30 1177 H 116.765 4.98235 -0.237423 0
M  V30 1178 H 115.919 5.72897 1.99684 0
M  V30 1179 H 114.658 4.46423 1.9636 0
M  V30 1180 H 113.663 5.49715 -0.0968519 0
M  V30 1181 H 114.888 6.79085 -0.0449341 0
M  V30 1182 H 112.834 6.20735 2.12189 0
M  V30 1183 H 112.751 7.49778 0.967913 0
M  V30 1184 H 114.019 7.4906 2.15706 0
M  V30 1185 N 118.248 0.346503 1.53744 0
M  V30 1186 C 119.211 -0.496439 2.23759 0
M  V30 1187 C 120.211 -1.0252 1.2388 0
M  V30 1188 O 121.401 -0.913974 1.48297 0
M  V30 1189 C 118.533 -1.69187 2.95954 0
M  V30 1190 H 119.726 0.115952 2.99676 0
M  V30 1191 H 117.279 0.0978939 1.55993 0
M  V30 1192 H 118.014 -2.34288 2.24231 0
M  V30 1193 H 117.799 -1.31989 3.69217 0
M  V30 1194 H 119.289 -2.28969 3.49232 0
M  V30 1195 N 119.726 -1.57421 0.075193 0
M  V30 1196 C 120.689 -2.11791 -0.876203 0
M  V30 1197 C 121.689 -1.04268 -1.22412 0
M  V30 1198 O 122.879 -1.30242 -1.15684 0
M  V30 1199 C 120.011 -2.62207 -2.17854 0
M  V30 1200 H 121.204 -2.9716 -0.40444 0
M  V30 1201 H 118.757 -1.55333 -0.173557 0
M  V30 1202 H 119.492 -1.803 -2.6956 0
M  V30 1203 H 119.277 -3.40802 -1.93897 0
M  V30 1204 H 120.767 -3.04335 -2.85955 0
M  V30 1205 N 121.204 0.198386 -1.56346 0
M  V30 1206 C 122.134 1.24865 -1.9731 0
M  V30 1207 C 123.115 1.47651 -0.844576 0
M  V30 1208 O 124.3 1.59444 -1.10866 0
M  V30 1209 C 121.43 2.59358 -2.30977 0
M  V30 1210 C 120.384 2.5119 -3.46537 0
M  V30 1211 C 119.71 3.89926 -3.65871 0
M  V30 1212 C 121.01 2.03977 -4.80823 0
M  V30 1213 H 122.704 0.908252 -2.85291 0
M  V30 1214 H 120.25 0.435462 -1.37258 0
M  V30 1215 H 122.203 3.33011 -2.58228 0
M  V30 1216 H 120.927 2.95132 -1.39874 0
M  V30 1217 H 119.586 1.79993 -3.19371 0
M  V30 1218 H 119.234 4.23046 -2.72105 0
M  V30 1219 H 118.934 3.85336 -4.4361 0
M  V30 1220 H 120.458 4.65205 -3.95495 0
M  V30 1221 H 121.872 2.67386 -5.07127 0
M  V30 1222 H 120.269 2.10397 -5.62008 0
M  V30 1223 H 121.339 0.992861 -4.74626 0
M  V30 1224 N 122.682 1.50554 0.465978 0
M  V30 1225 C 123.63 1.70324 1.58406 0
M  V30 1226 C 124.624 0.569139 1.59553 0
M  V30 1227 O 125.83 0.749776 1.63641 0
M  V30 1228 H 122.205 0.537688 0.525734 0
M  V30 1229 H 124.176 2.64104 1.38894 0
M  V30 1230 C 122.925 1.81928 2.96307 0
M  V30 1231 H 122.248 2.68586 2.96144 0
M  V30 1232 H 123.688 1.99784 3.73982 0
M  V30 1233 C 122.147 0.572095 3.32007 0
M  V30 1234 O 122.677 -0.286416 4.00678 0
M  V30 1235 N 120.883 0.424606 2.87481 0
M  V30 1236 H 120.43 1.12427 2.31771 0
M  V30 1237 H 120.388 -0.408697 3.11732 0
M  V30 1238 N 124.16 -0.719506 1.40217 0
M  V30 1239 C 125.408 -1.47641 1.3801 0
M  V30 1240 C 125.729 -1.94992 -0.018145 0
M  V30 1241 O 124.999 -1.70073 -0.972207 0
M  V30 1242 H 123.579 -0.547744 0.507923 0
M  V30 1243 H 126.241 -0.853187 1.75233 0
M  V30 1244 H 125.337 -2.35112 2.05253 0
M  V30 1245 N 125.638 -1.25649 -0.95132 0
M  V30 1246 C 126.915 -1.01361 -1.67288 0
M  V30 1247 C 127.295 0.459135 -2.06046 0
M  V30 1248 O 126.643 1.43723 -1.7764 0
M  V30 1249 C 126.853 -1.95256 -2.89268 0
M  V30 1250 C 128.201 -2.23289 -3.61147 0
M  V30 1251 O 129.225 -1.93041 -2.99355 0
M  V30 1252 O 128.084 -2.74741 -4.72419 0
M  V30 1253 H 125.178 -0.38464 -0.732107 0
M  V30 1254 H 127.724 -1.36817 -1.00395 0
M  V30 1255 H 126.496 -2.94685 -2.57442 0
M  V30 1256 H 126.119 -1.60218 -3.6389 0
M  V30 1257 N 127.117 1.15442 -1.07289 0
M  V30 1258 C 128.047 2.22312 -0.714107 0
M  V30 1259 C 129.028 1.67467 0.298155 0
M  V30 1260 O 130.213 1.93445 0.171048 0
M  V30 1261 C 127.343 3.47124 -0.110448 0
M  V30 1262 C 126.297 4.14926 -1.04979 0
M  V30 1263 C 125.623 5.33807 -0.308924 0
M  V30 1264 C 126.923 4.64762 -2.38314 0
M  V30 1265 H 128.617 2.5258 -1.6076 0
M  V30 1266 H 126.163 1.21404 -0.77441 0
M  V30 1267 H 128.116 4.21124 0.152482 0
M  V30 1268 H 126.84 3.16187 0.81812 0
M  V30 1269 H 125.499 3.42866 -1.29764 0
M  V30 1270 H 125.147 4.99126 0.623084 0
M  V30 1271 H 124.847 5.80113 -0.935036 0
M  V30 1272 H 126.371 6.10576 -0.0537771 0
M  V30 1273 H 127.785 5.30292 -2.1786 0
M  V30 1274 H 126.182 5.21728 -2.96514 0
M  V30 1275 H 127.252 3.80434 -3.00663 0
M  V30 1276 N 128.595 0.856903 1.32268 0
M  V30 1277 C 129.82 0.474569 2.01897 0
M  V30 1278 C 130.245 -0.921766 1.63967 0
M  V30 1279 O 129.603 -1.60589 0.84148 0
M  V30 1280 C 129.651 0.623799 3.55164 0
M  V30 1281 O 128.755 -0.342459 4.10976 0
M  V30 1282 H 128.096 0.190422 0.63611 0
M  V30 1283 H 130.626 1.15672 1.68764 0
M  V30 1284 H 130.636 0.512169 4.04773 0
M  V30 1285 H 129.311 1.64202 3.82113 0
M  V30 1286 H 127.888 -0.18688 3.72431 0
M  V30 1287 N 130.073 -1.45103 0.615059 0
M  V30 1288 C 131.02 -2.30586 -0.0993978 0
M  V30 1289 C 131.99 -1.42544 -0.852669 0
M  V30 1290 O 133.175 -1.71465 -0.836917 0
M  V30 1291 C 130.315 -3.27572 -1.08583 0
M  V30 1292 C 129.428 -4.30717 -0.332656 0
M  V30 1293 C 128.563 -5.14807 -1.30947 0
M  V30 1294 C 127.602 -6.09673 -0.544538 0
M  V30 1295 N 126.739 -6.86517 -1.47101 0
M  V30 1296 H 131.579 -2.91144 0.635542 0
M  V30 1297 H 129.116 -1.4346 0.325206 0
M  V30 1298 H 131.074 -3.82276 -1.67095 0
M  V30 1299 H 129.704 -2.68751 -1.78809 0
M  V30 1300 H 128.756 -3.78615 0.368107 0
M  V30 1301 H 130.068 -4.98102 0.263842 0
M  V30 1302 H 129.222 -5.73948 -1.96643 0
M  V30 1303 H 127.961 -4.47458 -1.9399 0
M  V30 1304 H 126.966 -5.49656 0.126003 0
M  V30 1305 H 128.191 -6.79052 0.080947 0
M  V30 1306 H 126.137 -6.21851 -2.08895 0
M  V30 1307 H 126.054 -7.50281 -0.928137 0
M  V30 1308 H 127.322 -7.50194 -2.11731 0
M  V30 1309 N 131.551 -0.354651 -1.53558 0
M  V30 1310 C 132.8 0.239504 -2.00273 0
M  V30 1311 C 133.113 1.50759 -1.24623 0
M  V30 1312 O 134.319 2.17968 -1.61871 0
M  V30 1313 C 132.775 0.477341 -3.5672 0
M  V30 1314 C 132.383 -0.775488 -4.41237 0
M  V30 1315 C 134.127 1.02975 -4.11821 0
M  V30 1316 C 132.034 -0.507838 -5.89216 0
M  V30 1317 H 130.964 0.0932743 -0.748208 0
M  V30 1318 H 133.615 -0.471701 -1.77334 0
M  V30 1319 H 131.997 1.24953 -3.7577 0
M  V30 1320 H 133.171 -1.54963 -4.33962 0
M  V30 1321 H 131.486 -1.25033 -3.97185 0
M  V30 1322 H 134.083 1.24513 -5.2 0
M  V30 1323 H 134.426 1.98862 -3.65731 0
M  V30 1324 H 134.959 0.317994 -3.96527 0
M  V30 1325 H 131.698 -1.43674 -6.39561 0
M  V30 1326 H 131.218 0.228011 -5.99366 0
M  V30 1327 H 132.897 -0.129238 -6.46871 0
M  V30 1328 N 133.029 1.57378 -0.0835403 0
M  V30 1329 C 134.445 1.57246 0.273109 0
M  V30 1330 C 134.645 1.09385 1.69225 0
M  V30 1331 O 133.701 0.765051 2.40631 0
M  V30 1332 C 135.014 3.00614 0.0720628 0
M  V30 1333 C 136.562 3.12684 0.1407 0
M  V30 1334 C 137.037 4.57989 -0.0322094 0
M  V30 1335 N 138.528 4.63194 0.0230085 0
M  V30 1336 C 139.263 5.73335 -0.0861941 0
M  V30 1337 N 138.759 6.9235 -0.24958 0
M  V30 1338 N 140.552 5.62093 -0.0282886 0
M  V30 1339 H 132.703 1.86801 -1.0109 0
M  V30 1340 H 134.966 0.861687 -0.395222 0
M  V30 1341 H 134.672 3.39786 -0.907662 0
M  V30 1342 H 134.546 3.68193 0.81936 0
M  V30 1343 H 136.933 2.73391 1.11092 0
M  V30 1344 H 137.014 2.47719 -0.637896 0
M  V30 1345 H 136.658 4.97973 -0.999247 0
M  V30 1346 H 136.588 5.21 0.765937 0
M  V30 1347 H 139.079 3.77613 0.14722 0
M  V30 1348 H 139.392 7.72117 -0.324733 0
M  V30 1349 H 137.737 6.94415 -0.285097 0
M  V30 1350 H 140.928 4.67997 0.0981408 0
M  V30 1351 H 141.101 6.47895 -0.116845 0
M  V30 1352 N 134.507 -0.190092 1.56449 0
M  V30 1353 C 135.923 -0.54113 1.50146 0
M  V30 1354 C 136.123 -1.85603 0.784465 0
M  V30 1355 O 135.179 -2.5024 0.337051 0
M  V30 1356 C 136.492 -0.591241 2.9483 0
M  V30 1357 C 138.04 -0.679732 3.0553 0
M  V30 1358 C 138.515 -0.760908 4.51635 0
M  V30 1359 N 140.006 -0.824302 4.55806 0
M  V30 1360 C 140.741 -0.907365 5.66175 0
M  V30 1361 N 140.237 -0.952422 6.86222 0
M  V30 1362 N 142.03 -0.94494 5.541 0
M  V30 1363 H 134.181 0.67235 2.01478 0
M  V30 1364 H 136.444 0.240127 0.917084 0
M  V30 1365 H 136.15 0.305905 3.50367 0
M  V30 1366 H 136.024 -1.44422 3.48457 0
M  V30 1367 H 138.411 -1.56731 2.50039 0
M  V30 1368 H 138.492 0.199549 2.5502 0
M  V30 1369 H 138.136 0.122336 5.07753 0
M  V30 1370 H 138.066 -1.65606 4.99882 0
M  V30 1371 H 140.557 -0.798526 3.69367 0
M  V30 1372 H 140.87 -1.01645 7.66086 0
M  V30 1373 H 139.215 -0.921014 6.8887 0
M  V30 1374 H 142.406 -0.906612 4.59236 0
M  V30 1375 H 142.579 -1.00622 6.4014 0
M  V30 1376 N 135.985 -1.50799 -0.457987 0
M  V30 1377 C 137.231 -1.62683 -1.21088 0
M  V30 1378 C 137.564 -0.332268 -1.91336 0
M  V30 1379 O 136.839 0.667043 -1.82704 0
M  V30 1380 C 137.122 -2.81615 -2.24422 0
M  V30 1381 C 136.975 -4.20989 -1.58392 0
M  V30 1382 C 138.294 -2.96085 -3.2561 0
M  V30 1383 H 135.413 -0.592087 -0.438864 0
M  V30 1384 H 138.055 -1.83225 -0.50286 0
M  V30 1385 H 136.205 -2.64231 -2.84806 0
M  V30 1386 H 137.877 -4.49994 -1.01504 0
M  V30 1387 H 136.12 -4.24641 -0.886704 0
M  V30 1388 H 136.791 -5.0016 -2.33547 0
M  V30 1389 H 139.267 -3.12042 -2.75262 0
M  V30 1390 H 138.143 -3.80902 -3.95228 0
M  V30 1391 H 138.404 -2.0726 -3.90507 0
M  V30 1392 N 137.463 0.71206 -1.40597 0
M  V30 1393 C 138.712 1.46754 -1.38369 0
M  V30 1394 C 139.025 1.95598 0.0097839 0
M  V30 1395 O 140.231 2.71059 0.154677 0
M  V30 1396 C 138.687 2.65289 -2.43207 0
M  V30 1397 C 138.295 2.23301 -3.88382 0
M  V30 1398 C 140.039 3.43008 -2.50091 0
M  V30 1399 C 137.946 3.38696 -4.84808 0
M  V30 1400 H 136.876 0.55118 -0.514506 0
M  V30 1401 H 139.527 0.774616 -1.66349 0
M  V30 1402 H 137.909 3.36769 -2.08332 0
M  V30 1403 H 139.083 1.59218 -4.32419 0
M  V30 1404 H 137.398 1.58618 -3.85006 0
M  V30 1405 H 139.995 4.28881 -3.1932 0
M  V30 1406 H 140.338 3.87065 -1.53253 0
M  V30 1407 H 140.871 2.78574 -2.83974 0
M  V30 1408 H 137.61 2.99668 -5.82992 0
M  V30 1409 H 137.13 4.01683 -4.45433 0
M  V30 1410 H 138.809 4.04712 -5.04794 0
M  V30 1411 N 138.941 1.26152 0.944643 0
M  V30 1412 C 139.888 1.07408 2.04285 0
M  V30 1413 C 140.858 -0.0198413 1.66088 0
M  V30 1414 O 142.043 0.139264 1.90291 0
M  V30 1415 C 139.183 0.70945 3.37729 0
M  V30 1416 C 138.296 1.87926 3.88983 0
M  V30 1417 C 137.431 1.45807 5.10797 0
M  V30 1418 C 136.47 2.5964 5.54305 0
M  V30 1419 N 135.607 2.18226 6.67324 0
M  V30 1420 H 140.447 2.01389 2.1965 0
M  V30 1421 H 137.984 1.00275 1.07626 0
M  V30 1422 H 139.942 0.478948 4.14442 0
M  V30 1423 H 138.572 -0.193389 3.2222 0
M  V30 1424 H 137.624 2.22279 3.08701 0
M  V30 1425 H 138.936 2.73377 4.17213 0
M  V30 1426 H 138.09 1.18781 5.94959 0
M  V30 1427 H 136.829 0.574414 4.84305 0
M  V30 1428 H 135.834 2.87399 4.68702 0
M  V30 1429 H 137.059 3.48599 5.828 0
M  V30 1430 H 135.005 1.3229 6.42523 0
M  V30 1431 H 134.922 2.97221 6.95123 0
M  V30 1432 H 136.19 1.94403 7.54869 0
M  V30 1433 N 140.419 -1.14872 1.07899 0
M  V30 1434 C 141.349 -2.2193 0.725887 0
M  V30 1435 C 142.33 -1.67622 -0.28927 0
M  V30 1436 O 143.515 -1.93533 -0.160787 0
M  V30 1437 C 140.645 -3.47061 0.128856 0
M  V30 1438 C 139.599 -4.14363 1.07178 0
M  V30 1439 C 138.925 -5.33636 0.337229 0
M  V30 1440 C 140.225 -4.63492 2.40775 0
M  V30 1441 H 141.919 -2.51724 1.62097 0
M  V30 1442 H 139.465 -1.20991 0.780838 0
M  V30 1443 H 141.418 -4.21199 -0.130147 0
M  V30 1444 H 140.142 -3.16617 -0.80134 0
M  V30 1445 H 138.801 -3.42173 1.3158 0
M  V30 1446 H 138.449 -4.99449 -0.596606 0
M  V30 1447 H 138.149 -5.79609 0.965788 0
M  V30 1448 H 139.673 -6.10539 0.0861567 0
M  V30 1449 H 141.087 -5.2913 2.20669 0
M  V30 1450 H 139.484 -5.20148 2.99276 0
M  V30 1451 H 140.554 -3.78834 3.02676 0
M  V30 1452 N 141.898 -0.863906 -1.31812 0
M  V30 1453 C 142.846 -0.30422 -2.30602 0
M  V30 1454 C 143.84 0.577419 -1.59255 0
M  V30 1455 O 145.046 0.464194 -1.73912 0
M  V30 1456 H 141.421 -0.0796877 -0.747766 0
M  V30 1457 H 143.392 -1.15148 -2.75288 0
M  V30 1458 C 142.141 0.484617 -3.44306 0
M  V30 1459 H 141.464 -0.18451 -3.99374 0
M  V30 1460 H 142.904 0.841664 -4.15562 0
M  V30 1461 C 141.363 1.6735 -2.92396 0
M  V30 1462 O 141.893 2.77273 -2.90659 0
M  V30 1463 N 140.099 1.50362 -2.48676 0
M  V30 1464 H 139.646 0.609402 -2.50288 0
M  V30 1465 H 139.604 2.30051 -2.14299 0
M  V30 1466 N 143.376 1.44774 -0.622745 0
M  V30 1467 C 144.624 2.01721 -0.123655 0
M  V30 1468 C 144.945 1.49172 1.25589 0
M  V30 1469 O 144.215 0.691974 1.83272 0
M  V30 1470 H 142.795 0.745777 -0.0427225 0
M  V30 1471 H 145.457 1.77382 -0.807559 0
M  V30 1472 H 144.553 3.11984 -0.0849534 0
M  V30 1473 N 144.854 0.36279 1.53368 0
M  V30 1474 C 146.101 -0.227776 2.01215 0
M  V30 1475 C 146.429 -1.49003 1.25014 0
M  V30 1476 O 145.684 -1.92876 0.331236 0
M  V30 1477 C 145.983 -0.568417 3.52851 0
M  V30 1478 C 145.649 0.59918 4.46901 0
M  V30 1479 C 144.311 0.919559 4.72332 0
M  V30 1480 C 146.663 1.38156 5.02556 0
M  V30 1481 C 143.991 2.02434 5.5067 0
M  V30 1482 C 146.343 2.47674 5.821 0
M  V30 1483 C 145.007 2.8025 6.05819 0
M  V30 1484 H 144.277 -0.083349 0.736297 0
M  V30 1485 H 146.924 0.494677 1.85001 0
M  V30 1486 H 145.229 -1.37185 3.66998 0
M  V30 1487 H 146.926 -1.03756 3.87344 0
M  V30 1488 H 143.516 0.339437 4.27254 0
M  V30 1489 H 147.7 1.14729 4.82857 0
M  V30 1490 H 142.956 2.28075 5.67267 0
M  V30 1491 H 147.13 3.08716 6.24234 0
M  V30 1492 H 144.757 3.65979 6.66306 0
M  V30 1493 N 146.332 -1.57332 0.0918853 0
M  V30 1494 C 147.578 -1.94524 -0.573425 0
M  V30 1495 C 147.911 -0.973578 -1.68033 0
M  V30 1496 O 147.186 -0.00609226 -1.94499 0
M  V30 1497 C 147.469 -3.41858 -1.13161 0
M  V30 1498 C 147.322 -4.4979 -0.0299747 0
M  V30 1499 C 148.641 -3.90435 -2.03098 0
M  V30 1500 H 145.76 -0.70734 -0.206975 0
M  V30 1501 H 148.402 -1.89309 0.161942 0
M  V30 1502 H 146.552 -3.46433 -1.7583 0
M  V30 1503 H 148.224 -4.57327 0.604112 0
M  V30 1504 H 146.467 -4.291 0.636833 0
M  V30 1505 H 147.138 -5.50069 -0.461287 0
M  V30 1506 H 149.614 -3.87992 -1.50338 0
M  V30 1507 H 148.49 -4.94097 -2.39081 0
M  V30 1508 H 148.751 -3.29541 -2.94712 0
M  V30 1509 N 147.81 0.181792 -1.56548 0
M  V30 1510 C 148.773 1.20894 -1.94724 0
M  V30 1511 C 149.773 1.37738 -0.829747 0
M  V30 1512 O 150.963 1.35323 -1.09697 0
M  V30 1513 C 148.095 2.57593 -2.23291 0
M  V30 1514 H 149.288 0.882275 -2.86629 0
M  V30 1515 H 146.841 0.423838 -1.50444 0
M  V30 1516 H 147.576 2.95291 -1.34067 0
M  V30 1517 H 147.361 2.46735 -3.04736 0
M  V30 1518 H 148.851 3.31637 -2.53785 0
M  V30 1519 N 149.288 1.51039 0.449983 0
M  V30 1520 C 150.513 1.6715 1.22783 0
M  V30 1521 C 150.938 0.363081 1.84563 0
M  V30 1522 O 150.296 -0.675433 1.68249 0
M  V30 1523 C 150.344 2.77985 2.29689 0
M  V30 1524 O 149.448 2.40707 3.34864 0
M  V30 1525 H 148.789 0.557746 0.360299 0
M  V30 1526 H 151.319 1.97535 0.533005 0
M  V30 1527 H 151.329 3.01693 2.74673 0
M  V30 1528 H 150.004 3.72935 1.84098 0
M  V30 1529 H 148.581 2.27523 2.95445 0
M  V30 1530 N 150.766 -0.704594 1.40972 0
M  V30 1531 C 152.012 -1.46675 1.40051 0
M  V30 1532 C 152.345 -1.94199 0.00641102 0
M  V30 1533 O 151.62 -1.68916 -0.964235 0
M  V30 1534 C 151.903 -2.68505 2.39952 0
M  V30 1535 C 151.756 -2.26805 3.88432 0
M  V30 1536 C 153.075 -3.70686 2.37233 0
M  V30 1537 H 150.194 -0.532015 0.510028 0
M  V30 1538 H 152.836 -0.803255 1.72185 0
M  V30 1539 H 150.986 -3.25114 2.1268 0
M  V30 1540 H 152.658 -1.75592 4.26574 0
M  V30 1541 H 150.901 -1.58685 4.03734 0
M  V30 1542 H 151.572 -3.14181 4.53866 0
M  V30 1543 H 154.048 -3.23731 2.61415 0
M  V30 1544 H 152.924 -4.53553 3.09162 0
M  V30 1545 H 153.185 -4.19754 1.38777 0
M  V30 1546 N 152.244 -1.26651 -0.937939 0
M  V30 1547 C 153.655 -1.1125 -1.49934 0
M  V30 1548 C 154.006 0.306077 -1.93798 0
M  V30 1549 O 153.131 1.19792 -1.80219 0
M  V30 1550 C 153.726 -2.01339 -2.72485 0
M  V30 1551 C 152.285 -1.90074 -3.24883 0
M  V30 1552 C 151.432 -1.94498 -1.97651 0
M  V30 1553 H 154.383 -1.39693 -0.753091 0
M  V30 1554 H 154.404 -1.56319 -3.46907 0
M  V30 1555 H 153.916 -3.04577 -2.40529 0
M  V30 1556 H 152.017 -0.897827 -3.61621 0
M  V30 1557 H 152.13 -2.75778 -3.9177 0
M  V30 1558 H 150.494 -1.38591 -2.13693 0
M  V30 1559 H 151.277 -2.99372 -1.68022 0
M  V30 1560 N 153.722 1.14298 -1.08507 0
M  V30 1561 C 154.632 2.23027 -0.727753 0
M  V30 1562 C 155.648 1.71952 0.26619 0
M  V30 1563 O 156.824 2.011 0.109882 0
M  V30 1564 C 153.889 3.46403 -0.143541 0
M  V30 1565 C 152.95 4.12413 -1.19223 0
M  V30 1566 C 152.183 5.29899 -0.635798 0
M  V30 1567 O 152.406 5.67796 0.544393 0
M  V30 1568 O 151.34 5.85717 -1.38634 0
M  V30 1569 H 155.166 2.55945 -1.63481 0
M  V30 1570 H 152.751 1.22248 -0.858817 0
M  V30 1571 H 154.633 4.21018 0.179404 0
M  V30 1572 H 153.308 3.15206 0.736659 0
M  V30 1573 H 152.215 3.39667 -1.56772 0
M  V30 1574 H 153.548 4.47718 -2.04474 0
M  V30 1575 N 155.201 0.870884 1.31352 0
M  V30 1576 C 156.448 0.482273 1.96673 0
M  V30 1577 C 156.776 -0.965638 1.68836 0
M  V30 1578 O 156.031 -1.69514 0.977937 0
M  V30 1579 C 156.33 0.687157 3.50732 0
M  V30 1580 C 155.996 2.108 3.9859 0
M  V30 1581 C 154.658 2.49656 4.1137 0
M  V30 1582 C 157.01 3.03459 4.23748 0
M  V30 1583 C 154.338 3.80412 4.46659 0
M  V30 1584 C 156.69 4.3373 4.60501 0
M  V30 1585 C 155.354 4.725 4.71487 0
M  V30 1586 H 154.624 0.176476 0.719679 0
M  V30 1587 H 157.271 1.10405 1.56471 0
M  V30 1588 H 155.576 -0.0177476 3.91796 0
M  V30 1589 H 157.273 0.366284 3.99324 0
M  V30 1590 H 153.863 1.79633 3.8914 0
M  V30 1591 H 158.047 2.74665 4.13368 0
M  V30 1592 H 153.303 4.1021 4.53362 0
M  V30 1593 H 157.477 5.05578 4.78919 0
M  V30 1594 H 155.104 5.73859 4.98588 0
M  V30 1595 N 156.679 -1.44442 0.630414 0
M  V30 1596 C 157.925 -2.02351 0.134816 0
M  V30 1597 C 158.258 -1.4947 -1.23986 0
M  V30 1598 O 157.533 -0.678475 -1.82283 0
M  V30 1599 C 157.816 -3.59898 0.120707 0
M  V30 1600 C 157.669 -4.23063 1.52767 0
M  V30 1601 C 158.988 -4.36585 -0.555127 0
M  V30 1602 H 156.107 -0.73527 0.0504646 0
M  V30 1603 H 158.749 -1.72022 0.806751 0
M  V30 1604 H 156.899 -3.85868 -0.451477 0
M  V30 1605 H 158.571 -4.08202 2.14869 0
M  V30 1606 H 156.814 -3.80586 2.08175 0
M  V30 1607 H 157.485 -5.32071 1.46984 0
M  V30 1608 H 159.961 -4.16044 -0.0685429 0
M  V30 1609 H 158.837 -5.46294 -0.534185 0
M  V30 1610 H 159.098 -4.11138 -1.62535 0
M  V30 1611 N 158.157 -0.370918 -1.53173 0
M  V30 1612 C 159.067 0.480823 -2.2962 0
M  V30 1613 C 160.083 1.08789 -1.35798 0
M  V30 1614 O 161.259 1.09768 -1.68858 0
M  V30 1615 C 158.324 1.60227 -3.07454 0
M  V30 1616 C 157.385 1.0222 -4.16953 0
M  V30 1617 C 156.618 2.0902 -4.91066 0
M  V30 1618 O 156.841 3.30222 -4.65091 0
M  V30 1619 O 155.775 1.71778 -5.76867 0
M  V30 1620 H 159.601 -0.141421 -3.03371 0
M  V30 1621 H 157.186 -0.135146 -1.48787 0
M  V30 1622 H 159.068 2.25417 -3.56041 0
M  V30 1623 H 157.743 2.20982 -2.36535 0
M  V30 1624 H 156.65 0.334064 -3.72605 0
M  V30 1625 H 157.983 0.459131 -4.90054 0
M  V30 1626 N 159.635 1.57281 -0.100228 0
M  V30 1627 C 160.567 2.11342 0.886972 0
M  V30 1628 C 161.58 1.05182 1.24261 0
M  V30 1629 O 162.769 1.32613 1.19483 0
M  V30 1630 C 159.869 2.5825 2.19454 0
M  V30 1631 C 159.042 3.88302 2.01346 0
M  V30 1632 C 158.101 4.21004 3.15661 0
M  V30 1633 O 157.127 4.9014 2.89398 0
M  V30 1634 N 158.329 3.76818 4.41575 0
M  V30 1635 H 161.094 2.96668 0.425216 0
M  V30 1636 H 158.655 1.61678 0.0847334 0
M  V30 1637 H 160.647 2.7717 2.94888 0
M  V30 1638 H 159.217 1.77907 2.57037 0
M  V30 1639 H 158.437 3.7848 1.10212 0
M  V30 1640 H 159.725 4.73375 1.8653 0
M  V30 1641 H 159.123 3.2102 4.65792 0
M  V30 1642 H 157.68 4.00882 5.13942 0
M  V30 1643 N 161.113 -0.173488 1.56642 0
M  V30 1644 C 162.063 -1.21941 1.92651 0
M  V30 1645 C 163.047 -1.39912 0.794577 0
M  V30 1646 O 164.239 -1.41919 1.05773 0
M  V30 1647 C 161.368 -2.55935 2.28806 0
M  V30 1648 C 160.454 -2.41667 3.48508 0
M  V30 1649 N 160.845 -1.9711 4.65813 0
M  V30 1650 C 159.143 -2.72499 3.53072 0
M  V30 1651 C 159.844 -1.95253 5.47952 0
M  V30 1652 N 158.82 -2.37575 4.88937 0
M  V30 1653 H 162.622 -0.866581 2.80834 0
M  V30 1654 H 160.136 -0.381776 1.57849 0
M  V30 1655 H 162.133 -3.31511 2.52797 0
M  V30 1656 H 160.793 -2.92022 1.41961 0
M  V30 1657 H 161.804 -1.67481 4.90072 0
M  V30 1658 H 158.481 -3.12639 2.767 0
M  V30 1659 H 159.871 -1.6252 6.51948 0
M  V30 1660 N 162.591 -1.51276 -0.441967 0
M  V30 1661 C 163.521 -1.752 -1.54361 0
M  V30 1662 C 164.502 -0.601682 -1.59103 0
M  V30 1663 O 165.687 -0.843913 -1.74905 0
M  V30 1664 C 162.817 -1.87282 -2.92477 0
M  V30 1665 C 161.771 -3.02687 -3.02596 0
M  V30 1666 C 161.097 -2.99947 -4.42647 0
M  V30 1667 C 162.397 -4.4273 -2.77106 0
M  V30 1668 H 164.091 -2.67442 -1.34592 0
M  V30 1669 H 161.637 -1.28694 -0.646048 0
M  V30 1670 H 163.59 -2.02602 -3.695 0
M  V30 1671 H 162.314 -0.916844 -3.13467 0
M  V30 1672 H 160.973 -2.87065 -2.28012 0
M  V30 1673 H 160.621 -2.02136 -4.60597 0
M  V30 1674 H 160.321 -3.77439 -4.50348 0
M  V30 1675 H 161.845 -3.17354 -5.2165 0
M  V30 1676 H 163.259 -4.58727 -3.43864 0
M  V30 1677 H 161.656 -5.21893 -2.96222 0
M  V30 1678 H 162.726 -4.53087 -1.72744 0
M  V30 1679 N 164.069 0.697108 -1.41344 0
M  V30 1680 C 165.315 1.4593 -1.40827 0
M  V30 1681 C 165.648 1.94193 -0.0167098 0
M  V30 1682 O 164.923 1.69425 0.955263 0
M  V30 1683 C 165.206 2.67229 -2.41373 0
M  V30 1684 C 165.059 2.24741 -3.8963 0
M  V30 1685 C 166.378 3.69423 -2.39196 0
M  V30 1686 H 163.497 0.529303 -0.512842 0
M  V30 1687 H 166.139 0.794112 -1.72609 0
M  V30 1688 H 164.289 3.23982 -2.14401 0
M  V30 1689 H 165.961 1.73327 -4.27499 0
M  V30 1690 H 164.204 1.56542 -4.0457 0
M  V30 1691 H 164.875 3.1177 -4.55525 0
M  V30 1692 H 167.351 3.2234 -2.63128 0
M  V30 1693 H 166.227 4.51907 -3.11563 0
M  V30 1694 H 166.488 4.19012 -1.41001 0
M  V30 1695 N 165.547 1.27147 0.931209 0
M  V30 1696 C 166.796 1.12664 1.67302 0
M  V30 1697 C 167.109 -0.327718 1.92835 0
M  V30 1698 O 168.315 -0.593392 2.64936 0
M  V30 1699 C 166.771 1.9683 3.01307 0
M  V30 1700 C 166.379 3.46901 2.83485 0
M  V30 1701 C 168.123 1.90985 3.79111 0
M  V30 1702 C 166.03 4.23279 4.13024 0
M  V30 1703 H 164.96 0.41803 0.627509 0
M  V30 1704 H 167.611 1.51539 1.03481 0
M  V30 1705 H 165.993 1.50797 3.66164 0
M  V30 1706 H 167.167 4.00773 2.27415 0
M  V30 1707 H 165.482 3.54088 2.19113 0
M  V30 1708 H 168.079 2.45328 4.75098 0
M  V30 1709 H 168.422 0.882718 4.06834 0
M  V30 1710 H 168.955 2.34895 3.21044 0
M  V30 1711 H 165.694 5.26503 3.90481 0
M  V30 1712 H 165.214 3.74186 4.6877 0
M  V30 1713 H 166.893 4.32265 4.81411 0
M  V30 1714 N 167.025 -1.13721 1.09112 0
M  V30 1715 C 167.973 -2.21103 0.722219 0
M  V30 1716 C 168.967 -1.67147 -0.275374 0
M  V30 1717 O 170.173 -1.79477 -0.137176 0
M  V30 1718 H 166.548 -0.720445 0.215553 0
M  V30 1719 H 168.519 -2.49483 1.63709 0
M  V30 1720 C 167.268 -3.47352 0.15543 0
M  V30 1721 H 166.591 -3.89206 0.914246 0
M  V30 1722 H 168.031 -4.2395 -0.0647967 0
M  V30 1723 C 166.49 -3.1814 -1.10852 0
M  V30 1724 O 167.02 -3.36604 -2.19227 0
M  V30 1725 N 165.226 -2.72045 -1.02176 0
M  V30 1726 H 164.773 -2.57221 -0.139764 0
M  V30 1727 H 164.731 -2.52875 -1.8682 0
M  V30 1728 N 168.503 -0.877838 -1.30888 0
M  V30 1729 C 169.751 -0.491723 -1.96027 0
M  V30 1730 C 170.072 0.960827 -1.69685 0
M  V30 1731 O 169.342 1.67462 -1.01654 0
M  V30 1732 H 167.922 -0.17885 -0.725273 0
M  V30 1733 H 170.584 -1.11935 -1.59551 0
M  V30 1734 H 169.68 -0.656016 -3.05128 0
M  V30 1735 N 169.982 1.44106 -0.638065 0
M  V30 1736 C 170.945 2.29138 0.0531013 0
M  V30 1737 C 171.945 1.41409 0.765506 0
M  V30 1738 O 173.135 1.63206 0.609046 0
M  V30 1739 C 170.267 3.23144 1.08584 0
M  V30 1740 H 171.46 2.91739 -0.694883 0
M  V30 1741 H 169.013 1.51134 -0.398538 0
M  V30 1742 H 169.748 2.65408 1.86357 0
M  V30 1743 H 169.533 3.87804 0.578852 0
M  V30 1744 H 171.023 3.87004 1.56899 0
M  V30 1745 N 171.46 0.379036 1.52974 0
M  V30 1746 C 172.685 -0.209353 2.06341 0
M  V30 1747 C 173.11 -1.40583 1.24972 0
M  V30 1748 O 172.468 -1.79246 0.272155 0
M  V30 1749 C 172.516 -0.567786 3.56102 0
M  V30 1750 O 171.62 -1.66318 3.77375 0
M  V30 1751 H 170.961 -0.0272919 0.663439 0
M  V30 1752 H 173.491 0.543536 1.97248 0
M  V30 1753 H 173.501 -0.835003 3.99364 0
M  V30 1754 H 172.176 0.307013 4.14765 0
M  V30 1755 H 170.753 -1.39048 3.46006 0
M  V30 1756 N 172.938 -1.57226 0.108567 0
M  V30 1757 C 173.886 -2.16002 -0.862885 0
M  V30 1758 C 174.88 -1.10644 -1.28274 0
M  V30 1759 O 176.086 -1.28966 -1.2557 0
M  V30 1760 H 172.461 -0.691148 -0.296342 0
M  V30 1761 H 174.432 -2.96427 -0.342575 0
M  V30 1762 C 173.181 -2.76576 -2.10716 0
M  V30 1763 H 172.504 -3.5734 -1.793 0
M  V30 1764 H 173.944 -3.21253 -2.76717 0
M  V30 1765 C 172.403 -1.73137 -2.89007 0
M  V30 1766 O 172.933 -1.17842 -3.84026 0
M  V30 1767 N 171.139 -1.43317 -2.52801 0
M  V30 1768 H 170.686 -1.88473 -1.75601 0
M  V30 1769 H 170.644 -0.743485 -3.05483 0
M  V30 1770 N 174.416 0.165178 -1.56732 0
M  V30 1771 C 175.346 1.20651 -1.99914 0
M  V30 1772 C 176.327 1.45827 -0.875705 0
M  V30 1773 O 177.512 1.57057 -1.14223 0
M  V30 1774 C 174.642 2.54401 -2.36427 0
M  V30 1775 C 173.596 2.43782 -3.51787 0
M  V30 1776 C 172.922 3.82078 -3.7406 0
M  V30 1777 C 174.222 1.93732 -4.85041 0
M  V30 1778 H 175.916 0.847534 -2.87154 0
M  V30 1779 H 173.462 0.40625 -1.38151 0
M  V30 1780 H 175.415 3.27458 -2.65234 0
M  V30 1781 H 174.139 2.92098 -1.46103 0
M  V30 1782 H 172.798 1.73178 -3.23117 0
M  V30 1783 H 172.446 4.17179 -2.81017 0
M  V30 1784 H 172.146 3.7584 -4.51684 0
M  V30 1785 H 173.67 4.56712 -4.05274 0
M  V30 1786 H 175.084 2.56569 -5.12684 0
M  V30 1787 H 173.481 1.98428 -5.66345 0
M  V30 1788 H 174.551 0.891962 -4.76626 0
M  V30 1789 N 175.894 1.51508 0.433938 0
M  V30 1790 C 177.143 1.63578 1.18005 0
M  V30 1791 C 177.456 0.359514 1.92268 0
M  V30 1792 O 178.662 0.359632 2.69108 0
M  V30 1793 C 177.118 2.88901 2.14626 0
M  V30 1794 C 176.726 4.23544 1.45995 0
M  V30 1795 C 178.47 3.10328 2.89649 0
M  V30 1796 C 176.377 5.40014 2.4112 0
M  V30 1797 H 175.307 0.609277 0.444182 0
M  V30 1798 H 177.958 1.77978 0.446773 0
M  V30 1799 H 176.34 2.68142 2.91403 0
M  V30 1800 H 177.514 4.54696 0.747532 0
M  V30 1801 H 175.829 4.08021 0.831115 0
M  V30 1802 H 178.426 3.94518 3.60915 0
M  V30 1803 H 178.769 2.23544 3.51189 0
M  V30 1804 H 179.302 3.31443 2.19978 0
M  V30 1805 H 176.041 6.29068 1.84264 0
M  V30 1806 H 175.561 5.13233 3.10406 0
M  V30 1807 H 177.24 5.72099 3.02177 0
M  V30 1808 N 177.372 -0.689602 1.41712 0
M  V30 1809 C 178.335 -1.78521 1.43746 0
M  V30 1810 C 179.335 -1.57436 0.327191 0
M  V30 1811 O 180.525 -1.64 0.587348 0
M  V30 1812 C 177.657 -3.16971 1.25467 0
M  V30 1813 H 178.85 -1.78108 2.41283 0
M  V30 1814 H 176.403 -0.89781 1.27942 0
M  V30 1815 H 177.138 -3.23019 0.287948 0
M  V30 1816 H 176.923 -3.33678 2.05917 0
M  V30 1817 H 178.413 -3.96935 1.2974 0
M  V30 1818 N 178.85 -1.27639 -0.924453 0
M  V30 1819 C 180.078 -1.16989 -1.70649 0
M  V30 1820 C 180.493 0.272869 -1.86818 0
M  V30 1821 O 179.85 1.18549 -1.38753 0
M  V30 1822 C 179.901 -1.85229 -3.10439 0
M  V30 1823 O 179.622 -3.23868 -2.95028 0
M  V30 1824 C 181.123 -1.80746 -4.04779 0
M  V30 1825 H 178.343 -0.406595 -0.53378 0
M  V30 1826 H 180.887 -1.68569 -1.15778 0
M  V30 1827 H 179.042 -1.37545 -3.6216 0
M  V30 1828 H 179.456 -3.57889 -3.83426 0
M  V30 1829 H 180.93 -2.33101 -5.00368 0
M  V30 1830 H 181.407 -0.777499 -4.32263 0
M  V30 1831 H 182.013 -2.28059 -3.58984 0
M  V30 1832 N 180.328 1.1314 -1.09713 0
M  V30 1833 C 181.574 1.84757 -0.836224 0
M  V30 1834 C 181.907 1.8347 0.636598 0
M  V30 1835 O 181.182 1.27491 1.46889 0
M  V30 1836 C 181.465 3.32782 -1.37578 0
M  V30 1837 C 181.318 3.42567 -2.91493 0
M  V30 1838 C 182.637 4.28307 -1.01198 0
M  V30 1839 H 179.756 0.67082 -0.305236 0
M  V30 1840 H 182.398 1.3278 -1.35903 0
M  V30 1841 H 180.548 3.77177 -0.931097 0
M  V30 1842 H 182.22 3.06862 -3.44432 0
M  V30 1843 H 180.463 2.83349 -3.28475 0
M  V30 1844 H 181.134 4.46674 -3.24324 0
M  V30 1845 H 183.61 3.91999 -1.39556 0
M  V30 1846 H 182.486 5.30307 -1.41653 0
M  V30 1847 H 182.747 4.42029 0.0794833 0
M  V30 1848 N 181.806 0.884767 1.30421 0
M  V30 1849 C 182.736 0.367574 2.30589 0
M  V30 1850 C 183.717 -0.549464 1.60981 0
M  V30 1851 O 184.902 -0.46336 1.88591 0
M  V30 1852 C 182.032 -0.418944 3.44764 0
M  V30 1853 C 180.986 0.406316 4.26067 0
M  V30 1854 C 180.312 -0.506793 5.32293 0
M  V30 1855 C 181.612 1.64832 4.95608 0
M  V30 1856 H 183.306 1.20462 2.74097 0
M  V30 1857 H 180.852 0.580695 1.31772 0
M  V30 1858 H 182.805 -0.791395 4.13902 0
M  V30 1859 H 181.529 -1.28964 3.0006 0
M  V30 1860 H 180.188 0.760903 3.58617 0
M  V30 1861 H 179.836 -1.37519 4.83836 0
M  V30 1862 H 179.536 0.0415828 5.87585 0
M  V30 1863 H 181.06 -0.875764 6.04287 0
M  V30 1864 H 182.474 1.34646 5.57264 0
M  V30 1865 H 180.871 2.13688 5.60765 0
M  V30 1866 H 181.941 2.39284 4.21748 0
M  V30 1867 N 183.284 -1.43765 0.645699 0
M  V30 1868 C 184.532 -2.01499 0.155731 0
M  V30 1869 C 184.853 -1.51151 -1.232 0
M  V30 1870 O 184.123 -0.721044 -1.82148 0
M  V30 1871 H 182.703 -0.745003 0.0545817 0
M  V30 1872 H 185.365 -1.76075 0.835677 0
M  V30 1873 H 184.461 -3.1181 0.134577 0
M  V30 1874 N 184.763 -0.387143 -1.52771 0
M  V30 1875 C 185.673 0.456442 -2.30117 0
M  V30 1876 C 186.689 1.07342 -1.36944 0
M  V30 1877 O 187.865 1.07971 -1.70013 0
M  V30 1878 C 184.93 1.56957 -3.09136 0
M  V30 1879 C 183.991 0.977916 -4.18014 0
M  V30 1880 C 183.224 2.038 -4.93256 0
M  V30 1881 O 183.447 3.25271 -4.68567 0
M  V30 1882 O 182.381 1.6565 -5.78657 0
M  V30 1883 H 186.207 -0.17359 -3.03203 0
M  V30 1884 H 183.792 -0.150919 -1.48636 0
M  V30 1885 H 185.674 2.21628 -3.58412 0
M  V30 1886 H 184.349 2.18461 -2.38865 0
M  V30 1887 H 183.256 0.294525 -3.72939 0
M  V30 1888 H 184.589 0.407128 -4.90513 0
M  V30 1889 N 186.241 1.57166 -0.116904 0
M  V30 1890 C 187.652 1.82169 0.408809 0
M  V30 1891 C 188.003 1.03393 1.66746 0
M  V30 1892 O 187.128 0.269886 2.1471 0
M  V30 1893 C 187.723 3.30429 0.748466 0
M  V30 1894 C 186.282 3.5612 1.21882 0
M  V30 1895 C 185.429 2.76374 0.226452 0
M  V30 1896 H 188.38 1.5497 -0.342063 0
M  V30 1897 H 188.401 3.44943 1.60607 0
M  V30 1898 H 187.913 3.87737 -0.167784 0
M  V30 1899 H 186.014 3.04168 2.15204 0
M  V30 1900 H 186.127 4.64705 1.16559 0
M  V30 1901 H 184.491 2.44515 0.713063 0
M  V30 1902 H 185.274 3.3644 -0.682859 0
M  V30 1903 N 187.719 -0.156864 1.56817 0
M  V30 1904 C 188.967 -0.869404 1.82444 0
M  V30 1905 C 189.288 -1.82147 0.69623 0
M  V30 1906 O 188.558 -1.93847 -0.28287 0
M  V30 1907 H 187.138 -0.324043 0.673056 0
M  V30 1908 H 189.8 -0.153224 1.94297 0
M  V30 1909 H 188.896 -1.43761 2.77019 0
M  V30 1910 N 189.197 -1.51736 -0.425897 0
M  V30 1911 C 190.613 -1.40166 -0.76326 0
M  V30 1912 C 190.813 -0.492962 -1.95377 0
M  V30 1913 O 189.869 0.0475815 -2.52455 0
M  V30 1914 C 191.182 -2.82403 -1.03291 0
M  V30 1915 C 192.73 -2.91632 -1.13665 0
M  V30 1916 C 193.205 -4.34801 -1.43916 0
M  V30 1917 N 194.696 -4.3796 -1.50816 0
M  V30 1918 C 195.431 -5.4578 -1.75817 0
M  V30 1919 N 194.927 -6.63744 -1.98534 0
M  V30 1920 N 196.72 -5.33274 -1.77694 0
M  V30 1921 H 188.871 -2.09361 0.358 0
M  V30 1922 H 191.134 -0.942941 0.0978094 0
M  V30 1923 H 190.84 -3.50943 -0.230696 0
M  V30 1924 H 190.714 -3.22428 -1.95754 0
M  V30 1925 H 193.101 -2.23284 -1.92947 0
M  V30 1926 H 193.182 -2.55088 -0.190756 0
M  V30 1927 H 192.826 -5.03703 -0.65157 0
M  V30 1928 H 192.756 -4.68868 -2.39729 0
M  V30 1929 H 195.247 -3.52919 -1.35118 0
M  V30 1930 H 195.56 -7.41704 -2.17013 0
M  V30 1931 H 193.905 -6.66839 -1.95832 0
M  V30 1932 H 197.096 -4.40098 -1.59473 0
M  V30 1933 H 197.269 -6.1738 -1.9684 0
M  V30 1934 N 190.675 0.682077 -1.42076 0
M  V30 1935 C 191.625 1.78823 -1.41444 0
M  V30 1936 C 192.609 1.58323 -0.28681 0
M  V30 1937 O 193.801 1.68926 -0.528498 0
M  V30 1938 C 190.93 3.17232 -1.3122 0
M  V30 1939 C 190.016 3.4338 -2.489 0
M  V30 1940 N 190.407 3.40152 -3.7434 0
M  V30 1941 C 188.705 3.73986 -2.43003 0
M  V30 1942 C 189.406 3.65581 -4.52466 0
M  V30 1943 N 188.382 3.85989 -3.8277 0
M  V30 1944 H 192.184 1.7471 -2.36334 0
M  V30 1945 H 189.698 0.882622 -1.36321 0
M  V30 1946 H 191.695 3.96489 -1.2885 0
M  V30 1947 H 190.355 3.22547 -0.373263 0
M  V30 1948 H 191.366 3.20221 -4.07037 0
M  V30 1949 H 188.043 3.86591 -1.57651 0
M  V30 1950 H 189.433 3.69108 -5.61435 0
M  V30 1951 N 192.153 1.28127 0.917671 0
M  V30 1952 C 193.116 1.11744 2.00115 0
M  V30 1953 C 194.116 0.0583052 1.60694 0
M  V30 1954 O 195.306 0.303755 1.71531 0
M  V30 1955 C 192.438 0.704862 3.33533 0
M  V30 1956 H 193.631 2.07966 2.16079 0
M  V30 1957 H 191.184 1.11058 1.09981 0
M  V30 1958 H 191.919 -0.258299 3.2327 0
M  V30 1959 H 191.704 1.4699 3.63505 0
M  V30 1960 H 193.194 0.612768 4.1308 0
M  V30 1961 N 193.631 -1.12557 1.10312 0
M  V30 1962 C 195.047 -1.36036 0.834649 0
M  V30 1963 C 195.247 -1.93946 -0.546539 0
M  V30 1964 O 194.303 -2.16484 -1.29966 0
M  V30 1965 C 195.616 -2.30312 1.9333 0
M  V30 1966 C 197.164 -2.43906 1.9616 0
M  V30 1967 C 197.639 -3.41496 3.05195 0
M  V30 1968 N 199.13 -3.49053 3.04494 0
M  V30 1969 C 199.865 -4.24471 3.85502 0
M  V30 1970 N 199.361 -5.02966 4.76442 0
M  V30 1971 N 201.154 -4.19864 3.73725 0
M  V30 1972 H 193.305 -0.733246 1.99342 0
M  V30 1973 H 195.568 -0.385234 0.866198 0
M  V30 1974 H 195.274 -1.94933 2.92735 0
M  V30 1975 H 195.148 -3.30421 1.81939 0
M  V30 1976 H 197.535 -2.78567 0.973886 0
M  V30 1977 H 197.616 -1.4369 2.11629 0
M  V30 1978 H 197.26 -3.07565 4.04186 0
M  V30 1979 H 197.19 -4.41539 2.86968 0
M  V30 1980 H 199.681 -2.93053 2.38596 0
M  V30 1981 H 199.994 -5.57846 5.34815 0
M  V30 1982 H 198.339 -5.02167 4.80472 0
M  V30 1983 H 201.53 -3.57623 3.02032 0
M  V30 1984 H 201.703 -4.78386 4.37093 0
M  V30 1985 N 195.109 -0.891671 -1.2995 0
M  V30 1986 C 196.072 -0.36828 -2.26222 0
M  V30 1987 C 197.072 0.493014 -1.53056 0
M  V30 1988 O 198.262 0.299213 -1.71611 0
M  V30 1989 C 195.394 0.47442 -3.37583 0
M  V30 1990 H 196.587 -1.21844 -2.74033 0
M  V30 1991 H 194.14 -0.669107 -1.41254 0
M  V30 1992 H 194.875 1.34489 -2.95099 0
M  V30 1993 H 194.66 -0.142615 -3.91841 0
M  V30 1994 H 196.15 0.83218 -4.09224 0
M  V30 1995 N 196.587 1.43421 -0.653314 0
M  V30 1996 C 197.55 2.29182 0.0287951 0
M  V30 1997 C 198.55 1.42213 0.750465 0
M  V30 1998 O 199.74 1.63843 0.591701 0
M  V30 1999 C 196.872 3.24278 1.05151 0
M  V30 2000 H 198.065 2.90985 -0.725786 0
M  V30 2001 H 195.618 1.50702 -0.414545 0
M  V30 2002 H 196.353 2.6737 1.83532 0
M  V30 2003 H 196.138 3.88396 0.537687 0
M  V30 2004 H 197.628 3.88647 1.52786 0
M  V30 2005 N 198.065 0.39524 1.52563 0
M  V30 2006 C 199.311 -0.185318 2.01952 0
M  V30 2007 C 199.644 -1.45964 1.28095 0
M  V30 2008 O 198.919 -1.90689 0.38315 0
M  V30 2009 C 199.202 -0.447193 3.57312 0
M  V30 2010 C 199.055 0.842828 4.41833 0
M  V30 2011 C 200.374 -1.23529 4.22408 0
M  V30 2012 H 197.493 -0.0658788 0.73405 0
M  V30 2013 H 200.135 0.525975 1.82575 0
M  V30 2014 H 198.285 -1.05312 3.73954 0
M  V30 2015 H 199.957 1.4795 4.36931 0
M  V30 2016 H 198.2 1.45686 4.08605 0
M  V30 2017 H 198.871 0.614165 5.48573 0
M  V30 2018 H 201.347 -0.722445 4.0978 0
M  V30 2019 H 200.223 -1.38727 5.3108 0
M  V30 2020 H 200.484 -2.25213 3.80436 0
M  V30 2021 N 199.544 -1.57102 0.125237 0
M  V30 2022 C 200.792 -1.95021 -0.530198 0
M  V30 2023 C 201.113 -1.00982 -1.66816 0
M  V30 2024 O 200.383 -0.0672693 -1.95784 0
M  V30 2025 H 198.963 -0.720046 -0.198853 0
M  V30 2026 H 201.625 -1.93916 0.19564 0
M  V30 2027 H 200.721 -2.98211 -0.920681 0
M  V30 2028 N 201.022 0.148545 -1.56898 0
M  V30 2029 C 201.955 1.21293 -1.93296 0
M  V30 2030 C 202.933 1.41637 -0.798599 0
M  V30 2031 O 204.117 1.56275 -1.05406 0
M  V30 2032 C 201.244 2.5721 -2.20365 0
M  V30 2033 C 200.29 2.53469 -3.4301 0
M  V30 2034 S 201.123 2.00315 -4.96623 0
M  V30 2035 C 202.279 3.37964 -5.26812 0
M  V30 2036 H 202.512 0.902393 -2.83274 0
M  V30 2037 H 200.045 0.354094 -1.50285 0
M  V30 2038 H 202.003 3.35427 -2.36641 0
M  V30 2039 H 200.664 2.85454 -1.31054 0
M  V30 2040 H 199.857 3.53518 -3.59223 0
M  V30 2041 H 199.459 1.83359 -3.25968 0
M  V30 2042 H 201.751 4.34066 -5.20185 0
M  V30 2043 H 202.694 3.26606 -6.28279 0
M  V30 2044 H 203.102 3.35028 -4.54331 0
M  V30 2045 N 202.5 1.5196 0.417844 0
M  V30 2046 C 203.463 1.74065 1.49111 0
M  V30 2047 C 204.463 0.610537 1.48758 0
M  V30 2048 O 205.653 0.87832 1.50437 0
M  V30 2049 C 202.785 1.81502 2.88565 0
M  V30 2050 H 203.978 2.69869 1.30807 0
M  V30 2051 H 201.531 1.42244 0.647785 0
M  V30 2052 H 202.266 0.875813 3.1225 0
M  V30 2053 H 202.051 2.63651 2.90225 0
M  V30 2054 H 203.541 2.00376 3.66387 0
M  V30 2055 N 203.978 -0.674533 1.42435 0
M  V30 2056 C 205.203 -1.46784 1.46524 0
M  V30 2057 C 205.628 -1.87938 0.078066 0
M  V30 2058 O 204.986 -1.56014 -0.92354 0
M  V30 2059 C 205.034 -2.69307 2.39805 0
M  V30 2060 O 204.138 -3.67587 1.86959 0
M  V30 2061 H 203.479 -0.440959 0.496439 0
M  V30 2062 H 206.009 -0.827326 1.87127 0
M  V30 2063 H 206.019 -3.17374 2.56393 0
M  V30 2064 H 204.694 -2.38692 3.40586 0
M  V30 2065 H 203.271 -3.2662 1.79927 0
M  V30 2066 N 205.456 -1.28612 -0.910864 0
M  V30 2067 C 206.386 -1.15326 -2.03032 0
M  V30 2068 C 207.367 -0.0502924 -1.70026 0
M  V30 2069 O 208.552 -0.227797 -1.92859 0
M  V30 2070 C 205.682 -0.817343 -3.37545 0
M  V30 2071 C 204.636 -1.8754 -3.84724 0
M  V30 2072 C 203.962 -1.39305 -5.16235 0
M  V30 2073 C 205.262 -3.28244 -4.06267 0
M  V30 2074 H 206.956 -2.08975 -2.14406 0
M  V30 2075 H 204.502 -1.00612 -1.03021 0
M  V30 2076 H 206.455 -0.711151 -4.15356 0
M  V30 2077 H 205.179 0.154846 -3.26233 0
M  V30 2078 H 203.838 -1.97079 -3.09121 0
M  V30 2079 H 203.486 -0.409846 -5.01328 0
M  V30 2080 H 203.186 -2.10057 -5.48771 0
M  V30 2081 H 204.71 -1.30014 -5.96598 0
M  V30 2082 H 206.124 -3.21611 -4.74594 0
M  V30 2083 H 204.521 -3.96855 -4.5014 0
M  V30 2084 H 205.591 -3.72048 -3.10979 0
M  V30 2085 N 206.934 1.1197 -1.10907 0
M  V30 2086 C 208.345 1.65114 -0.871446 0
M  V30 2087 C 208.696 1.86885 0.597353 0
M  V30 2088 O 207.821 1.59896 1.45816 0
M  V30 2089 C 208.416 2.99944 -1.5754 0
M  V30 2090 C 206.975 3.50018 -1.38435 0
M  V30 2091 C 206.122 2.24941 -1.62164 0
M  V30 2092 H 209.073 0.956851 -1.2661 0
M  V30 2093 H 209.094 3.66651 -1.01721 0
M  V30 2094 H 208.606 2.84067 -2.64438 0
M  V30 2095 H 206.707 3.71071 -0.337214 0
M  V30 2096 H 206.82 4.29165 -2.12965 0
M  V30 2097 H 205.184 2.3229 -1.04467 0
M  V30 2098 H 205.967 2.11612 -2.70324 0
M  V30 2099 N 208.412 0.89855 1.29475 0
M  V30 2100 C 209.659 0.523882 1.95606 0
M  V30 2101 C 209.987 -0.929608 1.70847 0
M  V30 2102 O 209.242 -1.67401 1.01367 0
M  V30 2103 C 209.541 0.761398 3.49195 0
M  V30 2104 C 209.207 2.19207 3.94029 0
M  V30 2105 C 207.869 2.58326 4.05982 0
M  V30 2106 C 210.221 3.12379 4.17216 0
M  V30 2107 C 207.549 3.898 4.38489 0
M  V30 2108 C 209.901 4.43401 4.51197 0
M  V30 2109 C 208.565 4.82394 4.61359 0
M  V30 2110 H 207.835 0.191702 0.715773 0
M  V30 2111 H 210.482 1.13699 1.54094 0
M  V30 2112 H 208.787 0.0653622 3.91745 0
M  V30 2113 H 210.484 0.450904 3.98457 0
M  V30 2114 H 207.074 1.87846 3.85242 0
M  V30 2115 H 211.258 2.83371 4.07449 0
M  V30 2116 H 206.514 4.19734 4.44559 0
M  V30 2117 H 210.688 5.15623 4.68087 0
M  V30 2118 H 208.315 5.84306 4.86303 0
M  V30 2119 N 209.89 -1.43072 0.660911 0
M  V30 2120 C 210.838 -2.32569 -0.0378199 0
M  V30 2121 C 211.832 -1.49046 -0.805092 0
M  V30 2122 O 213.038 -1.65206 -0.714624 0
M  V30 2123 H 209.413 -0.75136 -0.031019 0
M  V30 2124 H 211.384 -2.89216 0.734609 0
M  V30 2125 C 210.133 -3.33453 -0.985124 0
M  V30 2126 H 209.456 -3.97752 -0.404147 0
M  V30 2127 H 210.896 -3.98691 -1.44297 0
M  V30 2128 C 209.355 -2.64642 -2.08486 0
M  V30 2129 O 209.885 -2.46776 -3.16961 0
M  V30 2130 N 208.091 -2.23891 -1.8526 0
M  V30 2131 H 207.638 -2.38621 -0.970449 0
M  V30 2132 H 207.596 -1.78181 -2.59034 0
M  V30 2133 N 211.368 -0.403325 -1.52352 0
M  V30 2134 C 212.331 0.413051 -2.25447 0
M  V30 2135 C 213.331 0.978513 -1.276 0
M  V30 2136 O 214.521 0.858305 -1.51587 0
M  V30 2137 C 211.653 1.58087 -3.02029 0
M  V30 2138 H 212.846 -0.227094 -2.99039 0
M  V30 2139 H 210.399 -0.155722 -1.55522 0
M  V30 2140 H 211.134 2.25804 -2.32772 0
M  V30 2141 H 210.919 1.18195 -3.73861 0
M  V30 2142 H 212.409 2.1585 -3.57489 0
M  V30 2143 N 212.846 1.57033 -0.133567 0
M  V30 2144 C 214.071 2.00475 0.531477 0
M  V30 2145 C 214.496 1.01291 1.58499 0
M  V30 2146 O 213.854 -0.0133279 1.81295 0
M  V30 2147 C 213.902 3.42729 1.12113 0
M  V30 2148 O 213.006 3.46498 2.23636 0
M  V30 2149 H 212.347 0.650876 0.131362 0
M  V30 2150 H 214.877 2.03344 -0.22634 0
M  V30 2151 H 214.887 3.81246 1.4531 0
M  V30 2152 H 213.562 4.14428 0.349557 0
M  V30 2153 H 212.139 3.19811 1.91769 0
M  V30 2154 N 214.325 -0.140222 1.56975 0
M  V30 2155 C 215.571 -0.852949 1.83991 0
M  V30 2156 C 215.904 -1.80512 0.716187 0
M  V30 2157 O 215.179 -1.92479 -0.279681 0
M  V30 2158 C 215.462 -1.6215 3.21527 0
M  V30 2159 C 215.315 -0.690363 4.4447 0
M  V30 2160 C 216.634 -2.58247 3.56366 0
M  V30 2161 H 213.753 -0.308634 0.669264 0
M  V30 2162 H 216.395 -0.117898 1.89634 0
M  V30 2163 H 214.545 -2.24812 3.16847 0
M  V30 2164 H 216.217 -0.0742264 4.6124 0
M  V30 2165 H 214.46 -0.000396433 4.338 0
M  V30 2166 H 215.131 -1.2643 5.37326 0
M  V30 2167 H 217.607 -2.05701 3.61699 0
M  V30 2168 H 216.483 -3.09067 4.53617 0
M  V30 2169 H 216.744 -3.39923 2.82674 0
M  V30 2170 N 215.803 -1.52179 -0.40978 0
M  V30 2171 C 216.713 -1.78364 -1.52392 0
M  V30 2172 C 217.729 -0.669183 -1.60617 0
M  V30 2173 O 218.905 -0.954518 -1.77344 0
M  V30 2174 C 215.97 -1.92822 -2.88133 0
M  V30 2175 C 215.031 -3.16725 -2.898 0
M  V30 2176 C 214.264 -3.30483 -4.19067 0
M  V30 2177 O 214.487 -2.49522 -5.12928 0
M  V30 2178 O 213.421 -4.2363 -4.27576 0
M  V30 2179 H 217.247 -2.72931 -1.33201 0
M  V30 2180 H 214.832 -1.37016 -0.59557 0
M  V30 2181 H 216.714 -2.04157 -3.68643 0
M  V30 2182 H 215.389 -1.01444 -3.07393 0
M  V30 2183 H 214.296 -3.10848 -2.08146 0
M  V30 2184 H 215.629 -4.07881 -2.75489 0
M  V30 2185 N 217.281 0.66697 -1.42791 0
M  V30 2186 C 218.53 1.42278 -1.42968 0
M  V30 2187 C 218.843 1.9553 -0.0524489 0
M  V30 2188 O 220.049 2.71414 0.068363 0
M  V30 2189 C 218.505 2.57418 -2.51524 0
M  V30 2190 C 218.113 2.10832 -3.9529 0
M  V30 2191 C 219.857 3.34878 -2.60877 0
M  V30 2192 C 217.764 3.23101 -4.95338 0
M  V30 2193 H 216.694 0.534533 -0.531781 0
M  V30 2194 H 219.345 0.721302 -1.68729 0
M  V30 2195 H 217.727 3.29971 -2.18941 0
M  V30 2196 H 218.901 1.4538 -4.37266 0
M  V30 2197 H 217.216 1.46289 -3.89857 0
M  V30 2198 H 219.813 4.18505 -3.32802 0
M  V30 2199 H 220.156 3.81993 -1.6549 0
M  V30 2200 H 220.689 2.69398 -2.92693 0
M  V30 2201 H 217.428 2.80969 -5.9223 0
M  V30 2202 H 216.948 3.87309 -4.57987 0
M  V30 2203 H 218.627 3.88447 -5.17415 0
M  V30 2204 N 218.759 1.29093 0.90403 0
M  V30 2205 C 220.036 1.075 1.63411 0
M  V30 2206 C 220.416 -0.382346 2.07609 0
M  V30 2207 O 219.764 -1.37031 1.82851 0
M  V30 2208 C 219.974 2.05858 2.81822 0
M  V30 2209 C 221.322 2.36539 3.52611 0
M  V30 2210 O 222.346 2.04019 2.91984 0
M  V30 2211 O 221.205 2.92085 4.61897 0
M  V30 2212 H 218.299 0.411547 0.717327 0
M  V30 2213 H 220.845 1.40449 0.952479 0
M  V30 2214 H 219.617 3.04037 2.46327 0
M  V30 2215 H 219.24 1.73613 3.57693 0
M  V30 2216 N 220.237 -1.11381 1.11499 0
M  V30 2217 C 221.2 -2.15622 0.777153 0
M  V30 2218 C 222.2 -1.59504 -0.203779 0
M  V30 2219 O 223.39 -1.74188 0.020782 0
M  V30 2220 C 220.522 -3.40556 0.153116 0
M  V30 2221 H 221.715 -2.47021 1.70061 0
M  V30 2222 H 219.268 -1.26577 0.916952 0
M  V30 2223 H 220.003 -3.14767 -0.780536 0
M  V30 2224 H 219.788 -3.8257 0.859238 0
M  V30 2225 H 221.278 -4.17546 -0.0671044 0
M  V30 2226 N 221.715 -0.905404 -1.28997 0
M  V30 2227 C 222.964 -0.530191 -1.94607 0
M  V30 2228 C 223.277 0.929185 -1.72121 0
M  V30 2229 O 224.483 1.41218 -2.31883 0
M  V30 2230 C 222.939 -0.897333 -3.48534 0
M  V30 2231 C 222.547 -2.37587 -3.79811 0
M  V30 2232 C 224.291 -0.592304 -4.20347 0
M  V30 2233 C 222.198 -2.68357 -5.27009 0
M  V30 2234 H 221.128 -0.194558 -0.728466 0
M  V30 2235 H 223.779 -1.10318 -1.46636 0
M  V30 2236 H 222.161 -0.253214 -3.9519 0
M  V30 2237 H 223.335 -3.06602 -3.43994 0
M  V30 2238 H 221.65 -2.6505 -3.2115 0
M  V30 2239 H 224.247 -0.798975 -5.28697 0
M  V30 2240 H 224.59 0.469474 -4.13644 0
M  V30 2241 H 225.123 -1.19452 -3.79442 0
M  V30 2242 H 221.862 -3.73355 -5.38782 0
M  V30 2243 H 221.382 -2.03971 -5.64053 0
M  V30 2244 H 223.061 -2.54922 -5.94663 0
M  V30 2245 N 223.193 1.4272 -0.668489 0
M  V30 2246 C 224.439 2.01923 -0.188419 0
M  V30 2247 C 224.772 1.52704 1.19979 0
M  V30 2248 O 224.047 0.726566 1.8042 0
M  V30 2249 C 224.33 3.59451 -0.216085 0
M  V30 2250 C 224.183 4.18864 -1.6393 0
M  V30 2251 C 225.502 4.37903 0.439179 0
M  V30 2252 H 222.621 0.733674 -0.0699412 0
M  V30 2253 H 225.263 1.69822 -0.852076 0
M  V30 2254 H 223.413 3.86929 0.349012 0
M  V30 2255 H 225.085 4.02362 -2.25616 0
M  V30 2256 H 223.328 3.74933 -2.18193 0
M  V30 2257 H 223.999 5.27987 -1.61039 0
M  V30 2258 H 226.475 4.16079 -0.0417878 0
M  V30 2259 H 225.351 5.47519 0.389157 0
M  V30 2260 H 225.612 4.15303 1.51577 0
M  V30 2261 N 224.671 0.411399 1.52136 0
M  V30 2262 C 225.581 -0.419774 2.30814 0
M  V30 2263 C 226.597 -1.0515 1.38634 0
M  V30 2264 O 227.773 -1.05252 1.71709 0
M  V30 2265 C 224.838 -1.52019 3.11594 0
M  V30 2266 C 223.899 -0.91129 4.19516 0
M  V30 2267 C 223.132 -1.95927 4.96436 0
M  V30 2268 O 223.355 -3.17775 4.73683 0
M  V30 2269 O 222.289 -1.56423 5.81219 0
M  V30 2270 H 226.115 0.221805 3.02889 0
M  V30 2271 H 223.7 0.174547 1.48377 0
M  V30 2272 H 225.582 -2.15898 3.61892 0
M  V30 2273 H 224.257 -2.14633 2.42311 0
M  V30 2274 H 223.164 -0.235157 3.7336 0
M  V30 2275 H 224.497 -0.32904 4.91099 0
M  V30 2276 N 226.149 -1.5696 0.141893 0
M  V30 2277 C 227.398 -1.95135 -0.510427 0
M  V30 2278 C 227.711 -1.02896 -1.66348 0
M  V30 2279 O 228.917 -1.30629 -2.38009 0
M  V30 2280 C 227.373 -3.46876 -0.959427 0
M  V30 2281 C 226.981 -4.47691 0.166419 0
M  V30 2282 C 228.725 -3.93927 -1.58183 0
M  V30 2283 C 226.632 -5.90636 -0.300565 0
M  V30 2284 H 225.562 -0.728494 -0.194454 0
M  V30 2285 H 228.213 -1.8211 0.22542 0
M  V30 2286 H 226.595 -3.55215 -1.75038 0
M  V30 2287 H 227.769 -4.51043 0.94325 0
M  V30 2288 H 226.084 -4.10527 0.696905 0
M  V30 2289 H 228.681 -4.98158 -1.94275 0
M  V30 2290 H 229.024 -3.3519 -2.46888 0
M  V30 2291 H 229.557 -3.88484 -0.855863 0
M  V30 2292 H 226.296 -6.5318 0.550989 0
M  V30 2293 H 225.816 -5.90655 -1.04338 0
M  V30 2294 H 227.495 -6.42588 -0.754265 0
M  V30 2295 N 227.627 0.131896 -1.57047 0
M  V30 2296 C 228.904 0.871495 -1.75112 0
M  V30 2297 C 229.284 1.9866 -0.713949 0
M  V30 2298 O 228.632 2.26965 0.264447 0
M  V30 2299 C 228.842 1.40007 -3.19686 0
M  V30 2300 C 230.19 1.85752 -3.81813 0
M  V30 2301 O 231.214 1.49715 -3.23209 0
M  V30 2302 O 230.073 2.5226 -4.84796 0
M  V30 2303 H 227.167 0.412919 -0.716538 0
M  V30 2304 H 229.713 0.116641 -1.69299 0
M  V30 2305 H 228.485 0.599404 -3.86682 0
M  V30 2306 H 228.108 2.218 -3.29986 0
M  V30 2307 N 229.106 1.52395 0.401703 0
M  V30 2308 C 230.352 1.67065 1.14966 0
M  V30 2309 C 230.685 0.403052 1.89971 0
M  V30 2310 O 229.96 -0.598774 1.85054 0
M  V30 2311 C 230.243 2.8975 2.13815 0
M  V30 2312 C 230.096 4.26578 1.42658 0
M  V30 2313 C 231.415 3.07965 3.14397 0
M  V30 2314 H 228.534 0.607968 0.416587 0
M  V30 2315 H 231.176 1.84965 0.434511 0
M  V30 2316 H 229.326 2.74619 2.74803 0
M  V30 2317 H 230.998 4.53451 0.847329 0
M  V30 2318 H 229.241 4.27639 0.72849 0
M  V30 2319 H 229.912 5.08483 2.14823 0
M  V30 2320 H 232.388 3.22043 2.63491 0
M  V30 2321 H 231.264 3.95308 3.80819 0
M  V30 2322 H 231.525 2.21611 3.82545 0
M  V30 2323 O 230.623 -0.547609 1.51933 0
M  V30 2324 H 231.314 -1.20275 1.51834 0
M  V30 END ATOM
M  V30 BEGIN BOND
M  V30 END BOND
M  V30 END CTAB
M  END
$$$$
