drugbank_drug|DB13152 DB00100 sequence
 OpenBabel12092119113D

  0  0  0     0  0            999 V3000
M  V30 BEGIN CTAB
M  V30 COUNTS 6386 6456 0 0 0
M  V30 BEGIN ATOM
M  V30 1 H -0.908 1.98254 -0.117106 0
M  V30 2 N 0 1.576 0 0
M  V30 3 C 1.23 1.94566 0.694824 0
M  V30 4 C 1.638 0.873344 1.67837 0
M  V30 5 O 0.981 -0.15633 1.83034 0
M  V30 6 C 1.043 3.27518 1.48229 0
M  V30 7 C 0.707 4.52204 0.66033 0
M  V30 8 C 1.704 5.19874 -0.0519891 0
M  V30 9 C -0.611 4.98627 0.606301 0
M  V30 10 C 1.383 6.32267 -0.807324 0
M  V30 11 C -0.93 6.10909 -0.152759 0
M  V30 12 C 0.068 6.77586 -0.858305 0
M  V30 13 O -0.244 7.87715 -1.60498 0
M  V30 14 H -0.512 0.646206 0.19848 0
M  V30 15 H 2.042 2.05346 -0.0472378 0
M  V30 16 H 0.272 3.13146 2.26884 0
M  V30 17 H 1.961 3.49596 2.06246 0
M  V30 18 H 2.727 4.84996 -0.0193999 0
M  V30 19 H -1.394 4.46554 1.145 0
M  V30 20 H 2.15 6.84243 -1.35856 0
M  V30 21 H -1.953 6.45229 -0.187169 0
M  V30 22 H -1.185 8.04231 -1.52169 0
M  V30 23 N 1.4781 -0.272755 1.55222 0
M  V30 24 C 2.4261 -1.35705 1.88909 0
M  V30 25 C 3.4201 -1.5112 0.765456 0
M  V30 26 O 4.6261 -1.52901 0.949802 0
M  V30 27 H 1.0011 -0.453868 0.59959 0
M  V30 28 H 2.9721 -1.04544 2.79487 0
M  V30 29 C 1.7211 -2.71049 2.17779 0
M  V30 30 H 1.0441 -2.59979 3.03728 0
M  V30 31 H 2.4841 -3.45858 2.45272 0
M  V30 32 C 0.9431 -3.22165 0.985473 0
M  V30 33 O 1.4731 -4.01096 0.220233 0
M  V30 34 N -0.3209 -2.7985 0.783108 0
M  V30 35 H -0.7739 -2.15775 1.40708 0
M  V30 36 H -0.8159 -3.14397 -0.0130392 0
M  V30 37 N 2.9562 -1.48159 -0.537278 0
M  V30 38 C 4.1812 -1.59707 -1.32319 0
M  V30 39 C 4.6062 -0.254859 -1.86365 0
M  V30 40 O 3.9642 0.772378 -1.64024 0
M  V30 41 C 4.0122 -2.6412 -2.45505 0
M  V30 42 O 3.1162 -2.20774 -3.48328 0
M  V30 43 H 2.4572 -0.535791 -0.392204 0
M  V30 44 H 4.9872 -1.94092 -0.647268 0
M  V30 45 H 4.9972 -2.85166 -2.91795 0
M  V30 46 H 3.6722 -3.61567 -2.05528 0
M  V30 47 H 2.2492 -2.09911 -3.08207 0
M  V30 48 N 4.4343 0.785586 -1.36625 0
M  V30 49 C 5.6823 1.54057 -1.30808 0
M  V30 50 C 6.0033 1.94683 0.111157 0
M  V30 51 O 5.2733 1.65241 1.05224 0
M  V30 52 H 3.8533 0.571354 -0.481211 0
M  V30 53 H 6.5153 0.935821 -1.70963 0
M  V30 54 H 5.6113 2.44637 -1.93801 0
M  V30 55 N 5.9124 1.20967 1.01018 0
M  V30 56 C 6.8594 0.964281 2.09691 0
M  V30 57 C 7.8294 -0.107853 1.65749 0
M  V30 58 O 9.0144 0.0381987 1.90762 0
M  V30 59 C 6.1544 0.52943 3.41015 0
M  V30 60 C 5.2674 1.67043 3.98398 0
M  V30 61 C 4.4024 1.18525 5.17808 0
M  V30 62 C 3.4414 2.29892 5.67288 0
M  V30 63 N 2.5784 1.82546 6.77954 0
M  V30 64 H 7.4184 1.89463 2.30017 0
M  V30 65 H 4.9554 0.944289 1.1279 0
M  V30 66 H 6.9134 0.258588 4.16398 0
M  V30 67 H 5.5434 -0.363919 3.20742 0
M  V30 68 H 4.5954 2.05603 3.20049 0
M  V30 69 H 5.9074 2.50877 4.31117 0
M  V30 70 H 5.0614 0.870762 6.00419 0
M  V30 71 H 3.8004 0.316887 4.86669 0
M  V30 72 H 2.8054 2.6215 4.83278 0
M  V30 73 H 4.0304 3.17216 6.00459 0
M  V30 74 H 1.9764 0.980454 6.48632 0
M  V30 75 H 1.8934 2.59956 7.09901 0
M  V30 76 H 3.1614 1.54115 7.64113 0
M  V30 77 N 7.3905 -1.2043 1.01659 0
M  V30 78 C 8.3205 -2.25466 0.607226 0
M  V30 79 C 9.3015 -1.65853 -0.377716 0
M  V30 80 O 10.4865 -1.92409 -0.263149 0
M  V30 81 C 7.6165 -3.47256 -0.0552949 0
M  V30 82 C 6.5705 -4.19462 0.850632 0
M  V30 83 C 5.8965 -5.34673 0.0538859 0
M  V30 84 C 7.1965 -4.75603 2.15868 0
M  V30 85 H 8.8905 -2.59962 1.48526 0
M  V30 86 H 6.4365 -1.2496 0.715605 0
M  V30 87 H 8.3895 -4.19917 -0.353233 0
M  V30 88 H 7.1135 -3.11924 -0.968045 0
M  V30 89 H 5.7725 -3.48667 1.13257 0
M  V30 90 H 5.4205 -4.95585 -0.860514 0
M  V30 91 H 5.1205 -5.83913 0.657192 0
M  V30 92 H 6.6445 -6.10138 -0.237598 0
M  V30 93 H 8.0585 -5.40083 1.92311 0
M  V30 94 H 6.4555 -5.3528 2.71284 0
M  V30 95 H 7.5255 -3.94346 2.82169 0
M  V30 96 N 8.8686 -0.792821 -1.36206 0
M  V30 97 C 9.7786 -0.194808 -2.3379 0
M  V30 98 C 10.7946 0.654869 -1.61206 0
M  V30 99 O 11.9706 0.569856 -1.9317 0
M  V30 100 C 9.0356 0.657721 -3.40404 0
M  V30 101 C 8.0966 -0.210849 -4.28782 0
M  V30 102 C 7.3296 0.601086 -5.30304 0
M  V30 103 O 7.5526 1.83682 -5.40016 0
M  V30 104 O 6.4866 -0.000808277 -6.019 0
M  V30 105 H 10.3126 -1.00172 -2.86704 0
M  V30 106 H 7.8976 -0.554341 -1.38735 0
M  V30 107 H 9.7796 1.14375 -4.05581 0
M  V30 108 H 8.4546 1.44247 -2.89784 0
M  V30 109 H 7.3616 -0.743714 -3.66633 0
M  V30 110 H 8.6946 -0.959195 -4.82763 0
M  V30 111 N 10.3467 1.47872 -0.545128 0
M  V30 112 C 11.2567 2.33633 0.212746 0
M  V30 113 C 12.2727 1.4744 0.923983 0
M  V30 114 O 13.4487 1.80393 0.895572 0
M  V30 115 C 10.5137 3.23884 1.23693 0
M  V30 116 C 9.5747 4.25961 0.534417 0
M  V30 117 C 8.8077 5.11899 1.5098 0
M  V30 118 O 9.0307 5.00077 2.7437 0
M  V30 119 O 7.9647 5.92831 1.0409 0
M  V30 120 H 11.7907 2.99714 -0.490416 0
M  V30 121 H 9.3757 1.46235 -0.305871 0
M  V30 122 H 11.2577 3.79666 1.82843 0
M  V30 123 H 9.9327 2.60446 1.92222 0
M  V30 124 H 8.8397 3.73972 -0.0979679 0
M  V30 125 H 10.1727 4.92079 -0.109213 0
M  V30 126 N 11.8248 0.280983 1.55075 0
M  V30 127 C 13.0718 -0.334115 1.99725 0
M  V30 128 C 13.3998 -1.5542 1.1694 0
M  V30 129 O 12.6548 -1.94361 0.228531 0
M  V30 130 C 12.9538 -0.754656 3.49342 0
M  V30 131 C 12.6198 0.361445 4.49449 0
M  V30 132 C 11.2818 0.667893 4.76542 0
M  V30 133 C 13.6338 1.11322 5.09173 0
M  V30 134 C 10.9618 1.7296 5.60626 0
M  V30 135 C 13.3138 2.1647 5.9441 0
M  V30 136 C 11.9778 2.47742 6.19822 0
M  V30 137 H 11.2478 -0.122261 0.730844 0
M  V30 138 H 13.8948 0.395917 1.87363 0
M  V30 139 H 12.1998 -1.56446 3.5921 0
M  V30 140 H 13.8968 -1.24142 3.813 0
M  V30 141 H 10.4868 0.112481 4.28452 0
M  V30 142 H 14.6708 0.88973 4.8826 0
M  V30 143 H 9.9268 1.97684 5.78559 0
M  V30 144 H 14.1008 2.75193 6.3972 0
M  V30 145 H 11.7278 3.30145 6.84769 0
M  V30 146 N 13.3029 -1.57598 0.00835791 0
M  V30 147 C 14.5489 -1.91211 -0.675732 0
M  V30 148 C 14.8819 -0.883139 -1.72958 0
M  V30 149 O 14.1569 0.097016 -1.94258 0
M  V30 150 C 14.4399 -3.35379 -1.31123 0
M  V30 151 C 14.2929 -4.48999 -0.268356 0
M  V30 152 C 15.6119 -3.7912 -2.23508 0
M  V30 153 H 12.7309 -0.695374 -0.244179 0
M  V30 154 H 15.3729 -1.89901 0.0613655 0
M  V30 155 H 13.5229 -3.36626 -1.93946 0
M  V30 156 H 15.1949 -4.59887 0.360844 0
M  V30 157 H 13.4379 -4.31873 0.408482 0
M  V30 158 H 14.1089 -5.46851 -0.752218 0
M  V30 159 H 16.5849 -3.79477 -1.70693 0
M  V30 160 H 15.4609 -4.80729 -2.64936 0
M  V30 161 H 15.7219 -3.13455 -3.11766 0
M  V30 162 N 14.781 0.264519 -1.55364 0
M  V30 163 C 15.713 1.34965 -1.85248 0
M  V30 164 C 16.726 1.45136 -0.737525 0
M  V30 165 O 17.915 1.46801 -1.01547 0
M  V30 166 C 15.015 2.73008 -2.00797 0
M  V30 167 C 14.188 2.85324 -3.31525 0
M  V30 168 C 13.247 4.04097 -3.37034 0
M  V30 169 O 12.273 3.94455 -4.10358 0
M  V30 170 N 13.475 5.16458 -2.65049 0
M  V30 171 H 16.24 1.09672 -2.78913 0
M  V30 172 H 13.801 0.454635 -1.55386 0
M  V30 173 H 15.793 3.50772 -2.01844 0
M  V30 174 H 14.363 2.91087 -1.1396 0
M  V30 175 H 13.583 1.94377 -3.42945 0
M  V30 176 H 14.871 2.9049 -4.17724 0
M  V30 177 H 14.269 5.27181 -2.05175 0
M  V30 178 H 12.826 5.92422 -2.71809 0
M  V30 179 N 16.2591 1.48442 0.529413 0
M  V30 180 C 17.5071 1.56179 1.28267 0
M  V30 181 C 17.8281 0.237721 1.93546 0
M  V30 182 O 17.0981 -0.740779 1.81354 0
M  V30 183 H 15.6781 0.575367 0.476405 0
M  V30 184 H 18.3401 1.84909 0.61602 0
M  V30 185 H 17.4361 2.34312 2.06165 0
M  V30 186 N 17.7372 -0.778329 1.37039 0
M  V30 187 C 18.6852 -1.91278 1.32345 0
M  V30 188 C 19.6792 -1.68051 0.213331 0
M  V30 189 O 20.8852 -1.75922 0.38098 0
M  V30 190 H 17.2602 -0.628909 0.412283 0
M  V30 191 H 19.2312 -1.92355 2.28127 0
M  V30 192 C 17.9802 -3.28455 1.14073 0
M  V30 193 H 17.3032 -3.46901 1.98746 0
M  V30 194 H 18.7432 -4.08152 1.14837 0
M  V30 195 C 17.2022 -3.36548 -0.154015 0
M  V30 196 O 17.7322 -3.85186 -1.13993 0
M  V30 197 N 15.9382 -2.89894 -0.202475 0
M  V30 198 H 15.4852 -2.50504 0.600476 0
M  V30 199 H 15.4432 -2.9569 -1.06841 0
M  V30 200 N 19.2153 -1.21501 -1.00376 0
M  V30 201 C 20.1453 -0.999478 -2.11028 0
M  V30 202 C 21.1263 0.0759671 -1.6993 0
M  V30 203 O 22.3113 -0.0841106 -1.94018 0
M  V30 204 C 19.4413 -0.564709 -3.42678 0
M  V30 205 C 18.3953 -1.58486 -3.97576 0
M  V30 206 C 17.7213 -1.00628 -5.25146 0
M  V30 207 C 19.0213 -2.97204 -4.29496 0
M  V30 208 H 20.7153 -1.92495 -2.29317 0
M  V30 209 H 18.2613 -0.92693 -1.102 0
M  V30 210 H 20.2143 -0.401091 -4.19487 0
M  V30 211 H 18.9383 0.396411 -3.24185 0
M  V30 212 H 17.5973 -1.73606 -3.22888 0
M  V30 213 H 17.2453 -0.0368439 -5.02987 0
M  V30 214 H 16.9453 -1.68771 -5.62841 0
M  V30 215 H 18.4693 -0.854015 -6.04598 0
M  V30 216 H 19.8833 -2.8552 -4.97143 0
M  V30 217 H 18.2803 -3.62372 -4.78338 0
M  V30 218 H 19.3503 -3.47956 -3.3772 0
M  V30 219 N 20.6934 1.19889 -1.02296 0
M  V30 220 C 21.6034 2.26571 -0.608508 0
M  V30 221 C 22.6194 1.70299 0.356964 0
M  V30 222 O 23.7954 2.00235 0.216326 0
M  V30 223 C 20.8604 3.46677 0.0402814 0
M  V30 224 C 19.9214 4.18153 -0.97194 0
M  V30 225 C 19.1544 5.32525 -0.354016 0
M  V30 226 O 19.3774 5.64112 0.844604 0
M  V30 227 O 18.3114 5.92242 -1.07391 0
M  V30 228 H 22.1374 2.64251 -1.49684 0
M  V30 229 H 19.7224 1.26629 -0.792809 0
M  V30 230 H 21.6044 4.19475 0.402324 0
M  V30 231 H 20.2794 3.10858 0.902707 0
M  V30 232 H 19.1864 3.47499 -1.38546 0
M  V30 233 H 20.5194 4.57927 -1.80454 0
M  V30 234 N 22.1715 0.800033 1.35784 0
M  V30 235 C 23.5875 0.482977 1.52117 0
M  V30 236 C 23.7875 -0.996948 1.75109 0
M  V30 237 O 22.8435 -1.78216 1.78872 0
M  V30 238 C 24.1565 1.32264 2.70049 0
M  V30 239 C 25.7045 1.31742 2.83924 0
M  V30 240 C 26.1795 2.14106 4.04874 0
M  V30 241 N 27.6705 2.11607 4.12039 0
M  V30 242 C 28.4055 2.72099 5.04727 0
M  V30 243 N 27.9015 3.41492 6.02789 0
M  V30 244 N 29.6945 2.61776 4.97423 0
M  V30 245 H 21.8455 1.75856 1.19115 0
M  V30 246 H 24.1085 0.748122 0.582252 0
M  V30 247 H 23.8145 2.37261 2.59616 0
M  V30 248 H 23.6885 0.971303 3.6448 0
M  V30 249 H 26.0755 0.275333 2.93813 0
M  V30 250 H 26.1565 1.70859 1.9037 0
M  V30 251 H 25.8005 3.18351 3.95746 0
M  V30 252 H 25.7305 1.72353 4.97596 0
M  V30 253 H 28.2215 1.61112 3.41835 0
M  V30 254 H 28.5345 3.84953 6.70098 0
M  V30 255 H 26.8795 3.45596 6.02983 0
M  V30 256 H 30.0705 2.07157 4.19766 0
M  V30 257 H 30.2435 3.0921 5.69468 0
M  V30 258 N 23.6496 -1.47581 0.552962 0
M  V30 259 C 24.5596 -2.33743 -0.200353 0
M  V30 260 C 25.5756 -1.47928 -0.916151 0
M  V30 261 O 26.7516 -1.80865 -0.885993 0
M  V30 262 C 23.8166 -3.24536 -1.21973 0
M  V30 263 C 22.8776 -4.26238 -0.511819 0
M  V30 264 C 22.1106 -5.12693 -1.48263 0
M  V30 265 O 22.3336 -5.01525 -2.71714 0
M  V30 266 O 21.2676 -5.93375 -1.00945 0
M  V30 267 H 25.0936 -2.9945 0.506304 0
M  V30 268 H 22.6786 -1.46071 0.313622 0
M  V30 269 H 24.5606 -3.80631 -1.80827 0
M  V30 270 H 23.2356 -2.61462 -1.90839 0
M  V30 271 H 22.1426 -3.73914 0.117799 0
M  V30 272 H 23.4756 -4.92014 0.135308 0
M  V30 273 N 25.1277 -0.289203 -1.54924 0
M  V30 274 C 26.3677 0.324536 -2.01807 0
M  V30 275 C 26.7317 1.5199 -1.17316 0
M  V30 276 O 27.9327 2.20422 -1.53843 0
M  V30 277 C 26.2037 0.683578 -3.50802 0
M  V30 278 S 27.7627 1.28185 -4.19659 0
M  V30 279 H 24.5807 0.100236 -0.703899 0
M  V30 280 H 27.1827 -0.414325 -1.91059 0
M  V30 281 H 25.8867 -0.195073 -4.09936 0
M  V30 282 H 25.4177 1.45354 -3.65562 0
M  V30 283 H 27.4327 2.57006 -4.24456 0
M  V30 284 N 26.6058 1.57591 -0.0167156 0
M  V30 285 C 27.5388 2.04944 1.00366 0
M  V30 286 C 28.5168 0.942648 1.32487 0
M  V30 287 O 29.7008 1.21205 1.44367 0
M  V30 288 C 26.8278 2.46109 2.32697 0
M  V30 289 C 25.8738 3.67686 2.16123 0
M  V30 290 S 26.7068 5.14882 1.47161 0
M  V30 291 C 27.8628 5.59332 2.80888 0
M  V30 292 H 28.0958 2.91172 0.600528 0
M  V30 293 H 25.6288 1.53168 0.194632 0
M  V30 294 H 27.5868 2.70493 3.08778 0
M  V30 295 H 26.2478 1.6025 2.70146 0
M  V30 296 H 25.4408 3.94296 3.13922 0
M  V30 297 H 25.0428 3.43391 1.48185 0
M  V30 298 H 27.3348 5.62814 3.77156 0
M  V30 299 H 28.2778 6.5905 2.58958 0
M  V30 300 H 28.6858 4.86942 2.85565 0
M  V30 301 N 28.0839 -0.256276 1.55502 0
M  V30 302 C 28.9939 -1.33882 1.92647 0
M  V30 303 C 30.0099 -1.53159 0.825727 0
M  V30 304 O 31.1859 -1.66963 1.12629 0
M  V30 305 C 28.2509 -2.6751 2.20543 0
M  V30 306 C 27.3119 -2.56836 3.43997 0
M  V30 307 C 26.5449 -3.84092 3.70553 0
M  V30 308 O 26.7679 -4.85545 2.99336 0
M  V30 309 O 25.7019 -3.83288 4.64084 0
M  V30 310 H 29.5279 -1.05374 2.84833 0
M  V30 311 H 27.1129 -0.456237 1.42263 0
M  V30 312 H 28.9949 -3.46492 2.39835 0
M  V30 313 H 27.6699 -2.9577 1.31536 0
M  V30 314 H 26.5769 -1.76172 3.30021 0
M  V30 315 H 27.9099 -2.33523 4.33275 0
M  V30 316 N 29.562 -1.4872 -0.521534 0
M  V30 317 C 30.472 -1.66569 -1.65203 0
M  V30 318 C 31.488 -0.548197 -1.65139 0
M  V30 319 O 32.664 -0.820339 -1.83936 0
M  V30 320 C 29.729 -1.70917 -3.01642 0
M  V30 321 C 28.79 -2.94356 -3.12495 0
M  V30 322 C 28.023 -2.98487 -4.42426 0
M  V30 323 O 28.246 -2.10786 -5.30024 0
M  V30 324 O 27.18 -3.90746 -4.57822 0
M  V30 325 H 31.006 -2.62298 -1.5308 0
M  V30 326 H 28.591 -1.3222 -0.695565 0
M  V30 327 H 30.473 -1.7625 -3.82771 0
M  V30 328 H 29.148 -0.783633 -3.14071 0
M  V30 329 H 28.055 -2.94552 -2.3063 0
M  V30 330 H 29.388 -3.86322 -3.04986 0
M  V30 331 N 31.0401 0.771051 -1.3745 0
M  V30 332 C 31.9871 1.88435 -1.3327 0
M  V30 333 C 32.9571 1.64914 -0.198136 0
M  V30 334 O 34.1421 1.86821 -0.387606 0
M  V30 335 C 31.2821 3.25509 -1.14622 0
M  V30 336 C 30.3951 3.60979 -2.37314 0
M  V30 337 C 29.5301 4.87265 -2.11533 0
M  V30 338 C 28.5691 5.15469 -3.30088 0
M  V30 339 N 27.7061 6.32944 -3.03853 0
M  V30 340 H 32.5461 1.91344 -2.28455 0
M  V30 341 H 30.0831 0.935466 -1.13523 0
M  V30 342 H 32.0411 4.04582 -1.01831 0
M  V30 343 H 30.6711 3.21974 -0.230837 0
M  V30 344 H 29.7231 2.76885 -2.60842 0
M  V30 345 H 31.0351 3.77759 -3.25729 0
M  V30 346 H 30.1891 5.74244 -1.95777 0
M  V30 347 H 28.9281 4.7259 -1.20457 0
M  V30 348 H 27.9331 4.26966 -3.46382 0
M  V30 349 H 29.1581 5.32052 -4.22016 0
M  V30 350 H 27.1041 6.19625 -2.15407 0
M  V30 351 H 27.0211 6.50143 -3.85812 0
M  V30 352 H 28.2891 7.22857 -2.91716 0
M  V30 353 N 32.5182 1.22032 0.997298 0
M  V30 354 C 33.7582 1.05375 1.75144 0
M  V30 355 C 34.1222 -0.404696 1.87686 0
M  V30 356 O 35.3232 -0.691998 2.5974 0
M  V30 357 C 33.5942 1.74046 3.12158 0
M  V30 358 S 35.1532 1.72745 4.03366 0
M  V30 359 H 31.9712 0.377449 0.602539 0
M  V30 360 H 34.5732 1.54902 1.19272 0
M  V30 361 H 33.2772 2.79332 3.00669 0
M  V30 362 H 32.8082 1.24731 3.73103 0
M  V30 363 H 34.8232 0.774015 4.90126 0
M  V30 364 N 33.9963 -1.19345 1.0293 0
M  V30 365 C 35.2213 -1.93538 0.745511 0
M  V30 366 C 35.6463 -1.75007 -0.689511 0
M  V30 367 O 35.0043 -1.05265 -1.47611 0
M  V30 368 C 35.0523 -3.43336 1.10239 0
M  V30 369 O 34.1563 -4.11806 0.221289 0
M  V30 370 H 33.4973 -0.604193 0.275404 0
M  V30 371 H 36.0273 -1.5141 1.37609 0
M  V30 372 H 36.0373 -3.94004 1.05947 0
M  V30 373 H 34.7123 -3.56146 2.14786 0
M  V30 374 H 33.2893 -3.715 0.322842 0
M  V30 375 N 35.4744 -0.807222 -1.35358 0
M  V30 376 C 36.7214 -0.387888 -1.9875 0
M  V30 377 C 37.0494 1.04509 -1.64037 0
M  V30 378 O 36.3044 1.73986 -0.895946 0
M  V30 379 C 36.6034 -0.519036 -3.53611 0
M  V30 380 C 36.2694 -1.91542 -4.08194 0
M  V30 381 C 34.9314 -2.29745 -4.22813 0
M  V30 382 C 37.2834 -2.82896 -4.37744 0
M  V30 383 C 34.6114 -3.58668 -4.643 0
M  V30 384 C 36.9634 -4.11265 -4.8067 0
M  V30 385 C 35.6274 -4.49466 -4.93494 0
M  V30 386 H 34.8974 -0.141938 -0.727279 0
M  V30 387 H 37.5444 -1.02814 -1.6156 0
M  V30 388 H 35.8494 0.204658 -3.91265 0
M  V30 389 H 37.5464 -0.175345 -4.00616 0
M  V30 390 H 34.1364 -1.60862 -3.97268 0
M  V30 391 H 38.3204 -2.54629 -4.26002 0
M  V30 392 H 33.5764 -3.88113 -4.72418 0
M  V30 393 H 37.7504 -4.82153 -5.02496 0
M  V30 394 H 35.3774 -5.49418 -5.25399 0
M  V30 395 N 36.9525 1.47285 -0.560781 0
M  V30 396 C 37.8625 2.33846 0.187954 0
M  V30 397 C 38.8785 1.48412 0.908293 0
M  V30 398 O 40.0545 1.81332 0.876388 0
M  V30 399 C 37.1195 3.25178 1.2025 0
M  V30 400 C 36.1805 4.26504 0.489208 0
M  V30 401 C 35.4135 5.13472 1.45542 0
M  V30 402 O 35.6365 5.02959 2.6905 0
M  V30 403 O 34.5705 5.93902 0.977963 0
M  V30 404 H 38.3965 2.99177 -0.522177 0
M  V30 405 H 35.9815 1.45903 -0.321364 0
M  V30 406 H 37.8635 3.81584 1.78805 0
M  V30 407 H 36.5385 2.6247 1.89449 0
M  V30 408 H 35.4455 3.73847 -0.137627 0
M  V30 409 H 36.7785 4.91935 -0.161399 0
M  V30 410 N 38.4306 0.297415 1.54768 0
M  V30 411 C 39.3406 -0.58983 2.27064 0
M  V30 412 C 40.3566 -1.15144 1.30453 0
M  V30 413 O 41.5326 -1.17699 1.63428 0
M  V30 414 C 38.5976 -1.74714 2.9946 0
M  V30 415 C 37.6586 -1.21997 4.11601 0
M  V30 416 C 36.8916 -2.32212 4.80535 0
M  V30 417 O 37.1146 -3.52036 4.48806 0
M  V30 418 O 36.0486 -1.99106 5.68014 0
M  V30 419 H 39.8746 -0.00348199 3.037 0
M  V30 420 H 37.4596 0.0640035 1.49263 0
M  V30 421 H 39.3416 -2.42147 3.44881 0
M  V30 422 H 38.0166 -2.32016 2.25722 0
M  V30 423 H 36.9236 -0.511458 3.70587 0
M  V30 424 H 38.2566 -0.692419 4.87305 0
M  V30 425 N 39.9087 -1.5758 0.0250728 0
M  V30 426 C 40.8717 -2.08896 -0.943139 0
M  V30 427 C 41.8717 -1.00321 -1.25668 0
M  V30 428 O 43.0617 -1.26495 -1.19769 0
M  V30 429 C 40.1937 -2.55143 -2.26086 0
M  V30 430 H 41.3867 -2.95723 -0.498775 0
M  V30 431 H 38.9397 -1.54703 -0.222888 0
M  V30 432 H 39.6747 -1.71633 -2.75159 0
M  V30 433 H 39.4597 -3.34461 -2.04641 0
M  V30 434 H 40.9497 -2.95083 -2.95492 0
M  V30 435 N 41.3868 0.248026 -1.55636 0
M  V30 436 C 42.8028 0.596483 -1.48035 0
M  V30 437 C 43.0028 1.88386 -0.715039 0
M  V30 438 O 42.0588 2.51319 -0.243944 0
M  V30 439 C 43.3718 0.700258 -2.92433 0
M  V30 440 C 44.9198 0.792659 -3.02797 0
M  V30 441 C 45.3948 0.928005 -4.485 0
M  V30 442 N 46.8858 0.992903 -4.52433 0
M  V30 443 C 47.6208 1.11687 -5.62418 0
M  V30 444 N 47.1168 1.20645 -6.82214 0
M  V30 445 N 48.9098 1.14994 -5.50212 0
M  V30 446 H 41.0608 -0.597109 -2.03834 0
M  V30 447 H 43.3238 -0.205925 -0.925364 0
M  V30 448 H 43.0298 -0.175658 -3.51261 0
M  V30 449 H 42.9038 1.57255 -3.42857 0
M  V30 450 H 45.2908 1.65903 -2.4405 0
M  V30 451 H 45.3718 -0.104762 -2.55585 0
M  V30 452 H 45.0158 0.0661971 -5.07857 0
M  V30 453 H 44.9458 1.84045 -4.93391 0
M  V30 454 H 47.4368 0.935064 -3.66149 0
M  V30 455 H 47.7498 1.30008 -7.61786 0
M  V30 456 H 46.0948 1.17605 -6.84977 0
M  V30 457 H 49.2858 1.07643 -4.55555 0
M  V30 458 H 49.4588 1.24311 -6.35965 0
M  V30 459 N 42.8649 1.48995 0.513639 0
M  V30 460 C 43.7749 1.67443 1.64317 0
M  V30 461 C 44.7909 0.556947 1.64846 0
M  V30 462 O 45.9669 0.830082 1.83498 0
M  V30 463 C 43.0319 1.72515 3.00732 0
M  V30 464 C 42.0929 2.96009 3.1093 0
M  V30 465 C 41.3259 3.00829 4.40837 0
M  V30 466 O 41.5489 2.13594 5.28898 0
M  V30 467 O 40.4829 3.93168 4.55744 0
M  V30 468 H 44.3089 2.63106 1.51687 0
M  V30 469 H 41.8939 1.32588 0.688543 0
M  V30 470 H 43.7759 1.78277 3.81831 0
M  V30 471 H 42.4509 0.800278 3.13651 0
M  V30 472 H 41.3579 2.9577 2.29065 0
M  V30 473 H 42.6909 3.87934 3.02933 0
M  V30 474 N 44.343 -0.763751 1.37857 0
M  V30 475 C 45.589 -1.52483 1.33704 0
M  V30 476 C 45.922 -1.94051 -0.0759612 0
M  V30 477 O 45.197 -1.64675 -1.03501 0
M  V30 478 C 45.48 -2.78441 2.28348 0
M  V30 479 C 45.333 -2.43075 3.78463 0
M  V30 480 C 46.652 -3.80415 2.21298 0
M  V30 481 H 43.771 -0.553169 0.487005 0
M  V30 482 H 46.413 -0.875562 1.68624 0
M  V30 483 H 44.563 -3.33842 1.987 0
M  V30 484 H 46.235 -1.93527 4.18742 0
M  V30 485 H 44.478 -1.75666 3.96641 0
M  V30 486 H 45.149 -3.33149 4.40132 0
M  V30 487 H 47.625 -3.34527 2.47449 0
M  V30 488 H 46.501 -4.66257 2.89647 0
M  V30 489 H 46.762 -4.25262 1.20849 0
M  V30 490 N 45.8211 -1.22559 -0.990812 0
M  V30 491 C 47.0681 -1.05141 -1.73065 0
M  V30 492 C 47.3961 0.413191 -1.9006 0
M  V30 493 O 46.6511 1.32257 -1.44245 0
M  V30 494 C 46.9501 -1.71011 -3.13831 0
M  V30 495 C 46.6161 -3.20911 -3.16745 0
M  V30 496 C 45.2781 -3.61812 -3.17247 0
M  V30 497 C 47.6301 -4.16846 -3.12872 0
M  V30 498 C 44.9581 -4.97127 -3.1158 0
M  V30 499 C 47.3101 -5.5214 -3.08746 0
M  V30 500 C 45.9741 -5.92419 -3.07565 0
M  V30 501 H 45.2441 -0.384738 -0.633291 0
M  V30 502 H 47.8911 -1.5235 -1.16025 0
M  V30 503 H 46.1961 -1.16133 -3.74193 0
M  V30 504 H 47.8931 -1.55023 -3.69823 0
M  V30 505 H 44.4831 -2.88344 -3.17105 0
M  V30 506 H 48.6671 -3.86263 -3.11632 0
M  V30 507 H 43.9231 -5.27562 -3.09012 0
M  V30 508 H 48.0971 -6.26201 -3.04705 0
M  V30 509 H 45.7241 -6.97236 -3.02929 0
M  V30 510 N 47.2992 1.18797 -1.03562 0
M  V30 511 C 48.2092 2.25913 -0.632505 0
M  V30 512 C 49.2252 1.70668 0.338882 0
M  V30 513 O 50.4012 2.00453 0.195076 0
M  V30 514 C 47.4662 3.467 0.00350942 0
M  V30 515 C 46.5272 4.17098 -1.01624 0
M  V30 516 C 45.7602 5.32119 -0.410478 0
M  V30 517 O 45.9832 5.64976 0.784725 0
M  V30 518 O 44.9172 5.9107 -1.13667 0
M  V30 519 H 48.7432 2.62648 -1.52478 0
M  V30 520 H 46.3282 1.25781 -0.806195 0
M  V30 521 H 48.2102 4.19878 0.35781 0
M  V30 522 H 46.8852 3.11798 0.869686 0
M  V30 523 H 45.7922 3.4601 -1.42224 0
M  V30 524 H 47.1252 4.55987 -1.85301 0
M  V30 525 N 48.7773 0.814389 1.34928 0
M  V30 526 C 49.7253 0.218424 2.31572 0
M  V30 527 C 50.7193 -0.636128 1.57002 0
M  V30 528 O 51.9253 -0.52842 1.72069 0
M  V30 529 H 48.3003 0.0518799 0.750208 0
M  V30 530 H 50.2713 1.04852 2.79372 0
M  V30 531 C 49.0203 -0.61207 3.4227 0
M  V30 532 H 48.3433 0.0361578 3.99784 0
M  V30 533 H 49.7833 -0.995317 4.12152 0
M  V30 534 C 48.2423 -1.78087 2.85984 0
M  V30 535 O 48.7723 -2.8787 2.80168 0
M  V30 536 N 46.9783 -1.59488 2.42924 0
M  V30 537 H 46.5253 -0.701874 2.47854 0
M  V30 538 H 46.4833 -2.37846 2.05613 0
M  V30 539 N 50.2554 -1.46986 0.568584 0
M  V30 540 C 51.4834 -2.0683 0.0539956 0
M  V30 541 C 51.8984 -1.41953 -1.24478 0
M  V30 542 O 51.2554 -0.519933 -1.74937 0
M  V30 543 C 51.3064 -3.61254 -0.133362 0
M  V30 544 O 51.0274 -4.237 1.11399 0
M  V30 545 C 52.5284 -4.37992 -0.683927 0
M  V30 546 H 49.7484 -0.669058 0.0510141 0
M  V30 547 H 52.2924 -1.88824 0.785234 0
M  V30 548 H 50.4474 -3.78735 -0.81477 0
M  V30 549 H 50.8614 -5.16388 0.91888 0
M  V30 550 H 52.3354 -5.46684 -0.764263 0
M  V30 551 H 52.8124 -4.05058 -1.69778 0
M  V30 552 H 53.4184 -4.25283 -0.0378494 0
M  V30 553 N 51.7335 -0.305618 -1.54608 0
M  V30 554 C 52.6435 0.57778 -2.27374 0
M  V30 555 C 53.6595 1.14451 -1.31061 0
M  V30 556 O 54.8355 1.16831 -1.6405 0
M  V30 557 C 51.9005 1.73123 -3.00382 0
M  V30 558 C 50.9615 1.19812 -4.12242 0
M  V30 559 C 50.1945 2.2966 -4.81759 0
M  V30 560 O 50.4175 3.49651 -4.50666 0
M  V30 561 O 49.3515 1.96091 -5.69062 0
M  V30 562 H 53.1775 -0.012624 -3.03697 0
M  V30 563 H 50.7625 -0.0719184 -1.49227 0
M  V30 564 H 52.6445 2.40315 -3.4616 0
M  V30 565 H 51.3195 2.30815 -2.26949 0
M  V30 566 H 50.2265 0.491798 -3.70853 0
M  V30 567 H 51.5595 0.666566 -4.87666 0
M  V30 568 N 53.2116 1.57565 -0.0334293 0
M  V30 569 C 54.6276 1.56297 0.322997 0
M  V30 570 C 54.8276 1.03945 1.7262 0
M  V30 571 O 53.8836 0.688109 2.42943 0
M  V30 572 C 55.1966 3.00232 0.167664 0
M  V30 573 C 56.7446 3.12078 0.240107 0
M  V30 574 C 57.2196 4.57859 0.113513 0
M  V30 575 N 58.7106 4.62887 0.170359 0
M  V30 576 C 59.4456 5.73319 0.0962517 0
M  V30 577 N 58.9416 6.92794 -0.0291881 0
M  V30 578 N 60.7346 5.61898 0.150551 0
M  V30 579 H 52.8856 1.89923 -0.950956 0
M  V30 580 H 55.1486 0.873824 -0.367608 0
M  V30 581 H 54.8546 3.42501 -0.799102 0
M  V30 582 H 54.7286 3.654 0.936083 0
M  V30 583 H 57.1156 2.69718 1.19733 0
M  V30 584 H 57.1966 2.49623 -0.558763 0
M  V30 585 H 56.8406 5.009 -0.840314 0
M  V30 586 H 56.7706 5.18299 0.931302 0
M  V30 587 H 59.2616 3.76954 0.26728 0
M  V30 588 H 59.5746 7.7276 -0.0789252 0
M  V30 589 H 57.9196 6.94971 -0.0640299 0
M  V30 590 H 61.1106 4.67448 0.246981 0
M  V30 591 H 61.2836 6.47938 0.0893365 0
M  V30 592 N 54.6897 -0.239769 1.55765 0
M  V30 593 C 55.9177 -0.98417 1.81994 0
M  V30 594 C 56.3327 -1.7867 0.610124 0
M  V30 595 O 55.6897 -1.77571 -0.421271 0
M  V30 596 C 55.7407 -1.91635 3.06526 0
M  V30 597 O 55.4617 -1.14629 4.22838 0
M  V30 598 C 56.9627 -2.77616 3.45607 0
M  V30 599 H 54.1827 -0.28928 0.605441 0
M  V30 600 H 56.7267 -0.260499 2.02834 0
M  V30 601 H 54.8817 -2.5942 2.87715 0
M  V30 602 H 55.2957 -1.77745 4.93464 0
M  V30 603 H 56.7697 -3.38759 4.35828 0
M  V30 604 H 57.2467 -3.4909 2.6652 0
M  V30 605 H 57.8527 -2.15271 3.66795 0
M  V30 606 N 56.1678 -1.49265 -0.50573 0
M  V30 607 C 57.3958 -1.62215 -1.28429 0
M  V30 608 C 57.8108 -0.291697 -1.86533 0
M  V30 609 O 57.1678 0.722233 -1.67601 0
M  V30 610 C 57.2188 -2.68735 -2.41793 0
M  V30 611 O 56.9398 -3.96619 -1.86078 0
M  V30 612 C 58.4408 -2.92346 -3.3324 0
M  V30 613 H 55.6608 -0.546239 -0.389697 0
M  V30 614 H 58.2048 -1.95265 -0.607609 0
M  V30 615 H 56.3598 -2.38476 -3.053 0
M  V30 616 H 56.7738 -4.55256 -2.60465 0
M  V30 617 H 58.2478 -3.70623 -4.09075 0
M  V30 618 H 58.7248 -2.02081 -3.89948 0
M  V30 619 H 59.3308 -3.24003 -2.75503 0
M  V30 620 N 57.6459 0.756429 -1.3826 0
M  V30 621 C 58.5559 1.9009 -1.37488 0
M  V30 622 C 59.5719 1.71855 -0.272366 0
M  V30 623 O 60.7479 1.94827 -0.510318 0
M  V30 624 C 57.8129 3.25421 -1.19592 0
M  V30 625 C 56.8739 3.56202 -2.39622 0
M  V30 626 C 56.1069 4.85075 -2.2257 0
M  V30 627 O 56.3299 5.57246 -1.21793 0
M  V30 628 O 55.2639 5.15269 -3.11098 0
M  V30 629 H 59.0899 1.93695 -2.33914 0
M  V30 630 H 56.6749 0.901313 -1.1915 0
M  V30 631 H 58.5569 4.06337 -1.11661 0
M  V30 632 H 57.2319 3.22634 -0.262486 0
M  V30 633 H 56.1389 2.75458 -2.53128 0
M  V30 634 H 57.4719 3.63747 -3.31586 0
M  V30 635 N 59.124 1.23083 0.984299 0
M  V30 636 C 60.371 1.06057 1.72505 0
M  V30 637 C 60.699 -0.403105 1.90277 0
M  V30 638 O 59.954 -1.3149 1.44944 0
M  V30 639 C 60.253 1.72673 3.1292 0
M  V30 640 C 59.919 3.22586 3.15038 0
M  V30 641 C 58.581 3.63489 3.15324 0
M  V30 642 C 60.933 4.185 3.10657 0
M  V30 643 C 58.261 4.98772 3.08939 0
M  V30 644 C 60.613 5.53769 3.05814 0
M  V30 645 C 59.277 5.94041 3.04419 0
M  V30 646 H 58.547 0.388091 0.631242 0
M  V30 647 H 61.194 1.52963 1.15215 0
M  V30 648 H 59.499 1.18116 3.73572 0
M  V30 649 H 61.196 1.56982 3.68996 0
M  V30 650 H 57.786 2.90022 3.15571 0
M  V30 651 H 61.97 3.87911 3.09579 0
M  V30 652 H 57.226 5.29193 3.0621 0
M  V30 653 H 61.4 6.27808 3.0138 0
M  V30 654 H 59.027 6.98833 2.99227 0
M  V30 655 N 60.6021 -1.18246 1.0419 0
M  V30 656 C 61.8481 -1.88793 0.75689 0
M  V30 657 C 62.2031 -1.78909 -0.707767 0
M  V30 658 O 61.4961 -1.1794 -1.50999 0
M  V30 659 C 61.6901 -3.38082 1.15911 0
M  V30 660 C 61.5191 -3.62496 2.66133 0
M  V30 661 C 60.2891 -3.7979 3.33298 0
M  V30 662 C 62.4871 -3.62976 3.64353 0
M  V30 663 N 60.4691 -3.91955 4.72487 0
M  V30 664 C 61.8401 -3.80869 4.89222 0
M  V30 665 C 63.8951 -3.46071 3.57965 0
M  V30 666 C 62.5981 -3.83608 6.08471 0
M  V30 667 C 64.6241 -3.50093 4.76643 0
M  V30 668 C 63.9861 -3.68484 6.00332 0
M  V30 669 H 60.0851 -0.709406 0.32904 0
M  V30 670 H 62.6691 -1.42022 1.33183 0
M  V30 671 H 60.8401 -3.83544 0.612238 0
M  V30 672 H 62.5721 -3.96202 0.824989 0
M  V30 673 H 59.3271 -3.79224 2.83701 0
M  V30 674 H 59.7511 -4.01857 5.44831 0
M  V30 675 H 64.3931 -3.30797 2.63311 0
M  V30 676 H 62.1111 -3.97669 7.0348 0
M  V30 677 H 65.6971 -3.38285 4.73344 0
M  V30 678 H 64.5771 -3.71488 6.90627 0
M  V30 679 N 62.0802 -0.821533 -1.34494 0
M  V30 680 C 63.0272 -0.240397 -2.29545 0
M  V30 681 C 63.9972 0.634031 -1.53523 0
M  V30 682 O 65.1822 0.575966 -1.81899 0
M  V30 683 C 62.3222 0.592869 -3.39969 0
M  V30 684 C 61.4352 -0.30365 -4.30932 0
M  V30 685 C 60.5702 0.539049 -5.28458 0
M  V30 686 C 59.6092 -0.356942 -6.11058 0
M  V30 687 N 58.7462 0.446603 -7.00678 0
M  V30 688 H 63.5862 -1.05632 -2.7865 0
M  V30 689 H 61.1232 -0.532413 -1.37127 0
M  V30 690 H 63.0812 1.09129 -4.02675 0
M  V30 691 H 61.7112 1.37392 -2.92102 0
M  V30 692 H 60.7632 -0.920276 -3.691 0
M  V30 693 H 62.0752 -0.992661 -4.88823 0
M  V30 694 H 61.2292 1.102 -5.96608 0
M  V30 695 H 59.9682 1.26157 -4.71101 0
M  V30 696 H 58.9732 -0.932047 -5.41842 0
M  V30 697 H 60.1982 -1.07755 -6.70497 0
M  V30 698 H 58.1442 1.15282 -6.45791 0
M  V30 699 H 58.0612 -0.184048 -7.55776 0
M  V30 700 H 59.3292 0.992352 -7.73158 0
M  V30 701 N 63.5583 1.46682 -0.576371 0
M  V30 702 C 64.4903 2.28341 0.198231 0
M  V30 703 C 65.5033 1.38141 0.861453 0
M  V30 704 O 66.6923 1.62797 0.732082 0
M  V30 705 C 63.7923 3.12986 1.29972 0
M  V30 706 C 62.9653 4.31271 0.729639 0
M  V30 707 C 62.0243 4.97363 1.71803 0
M  V30 708 O 61.0503 5.55156 1.25658 0
M  V30 709 N 62.2523 4.93796 3.05198 0
M  V30 710 H 65.0173 2.9546 -0.502324 0
M  V30 711 H 62.5783 1.56525 -0.413715 0
M  V30 712 H 64.5703 3.54066 1.96008 0
M  V30 713 H 63.1403 2.47984 1.90323 0
M  V30 714 H 62.3603 3.94052 -0.108012 0
M  V30 715 H 63.6483 5.07739 0.328438 0
M  V30 716 H 63.0463 4.48077 3.45317 0
M  V30 717 H 61.6033 5.38837 3.6674 0
M  V30 718 N 65.0364 0.313813 1.54444 0
M  V30 719 C 66.2664 -0.293491 2.04505 0
M  V30 720 C 66.6744 -1.47086 1.19005 0
M  V30 721 O 66.0174 -1.82481 0.211257 0
M  V30 722 C 66.0794 -0.800455 3.50475 0
M  V30 723 C 65.7434 0.253322 4.56297 0
M  V30 724 C 66.7404 1.08612 5.08428 0
M  V30 725 C 64.4254 0.398708 5.00715 0
M  V30 726 C 66.4194 2.05013 6.0353 0
M  V30 727 C 64.1064 1.36614 5.95634 0
M  V30 728 C 65.1044 2.19033 6.46926 0
M  V30 729 O 64.7924 3.14134 7.39983 0
M  V30 730 H 64.5244 -0.0658325 0.672787 0
M  V30 731 H 67.0784 0.455177 2.00293 0
M  V30 732 H 65.3084 -1.59987 3.52053 0
M  V30 733 H 66.9974 -1.32504 3.83663 0
M  V30 734 H 67.7634 0.984736 4.74898 0
M  V30 735 H 63.6424 -0.23289 4.60411 0
M  V30 736 H 67.1864 2.69382 6.4349 0
M  V30 737 H 63.0834 1.4682 6.28581 0
M  V30 738 H 63.8514 3.0926 7.57826 0
M  V30 739 N 66.5145 -1.57545 0.0417849 0
M  V30 740 C 67.7605 -1.92601 -0.635021 0
M  V30 741 C 68.0935 -0.919627 -1.71045 0
M  V30 742 O 67.3685 0.0557892 -1.9442 0
M  V30 743 C 67.6515 -3.38085 -1.23979 0
M  V30 744 C 67.5045 -4.49467 -0.173057 0
M  V30 745 C 68.8235 -3.83776 -2.15416 0
M  V30 746 H 65.9425 -0.700397 -0.229374 0
M  V30 747 H 68.5845 -1.89728 0.101633 0
M  V30 748 H 66.7345 -3.40664 -1.86762 0
M  V30 749 H 68.4065 -4.59018 0.458312 0
M  V30 750 H 66.6495 -4.30909 0.499996 0
M  V30 751 H 67.3205 -5.48323 -0.636054 0
M  V30 752 H 69.7965 -3.83013 -1.62605 0
M  V30 753 H 68.6725 -4.8624 -2.54679 0
M  V30 754 H 68.9335 -3.19998 -3.05047 0
M  V30 755 N 67.9926 0.231505 -1.5589 0
M  V30 756 C 69.2696 0.981096 -1.69215 0
M  V30 757 C 69.6496 2.02799 -0.586164 0
M  V30 758 O 68.9976 2.24823 0.408253 0
M  V30 759 C 69.2076 1.60054 -3.10135 0
M  V30 760 C 70.5556 2.09658 -3.69227 0
M  V30 761 O 71.5796 1.69967 -3.13033 0
M  V30 762 O 70.4386 2.8258 -4.67772 0
M  V30 763 H 67.5326 0.457653 -0.688827 0
M  V30 764 H 70.0786 0.224073 -1.68214 0
M  V30 765 H 68.8506 0.844105 -3.82087 0
M  V30 766 H 68.4736 2.42336 -3.15212 0
M  V30 767 N 69.4707 1.49531 0.497807 0
M  V30 768 C 70.7187 1.58865 1.24926 0
M  V30 769 C 71.0397 0.278721 1.92998 0
M  V30 770 O 70.3097 -0.702144 1.82885 0
M  V30 771 H 68.8897 0.585343 0.464094 0
M  V30 772 H 71.5517 1.86174 0.57666 0
M  V30 773 H 70.6477 2.38633 2.01149 0
M  V30 774 N 70.9488 -0.749086 1.3866 0
M  V30 775 C 72.2258 -1.4992 1.25632 0
M  V30 776 C 72.6058 -2.10633 -0.140317 0
M  V30 777 O 71.9538 -1.97437 -1.15025 0
M  V30 778 C 72.1638 -2.56195 2.36992 0
M  V30 779 C 73.5118 -3.22972 2.75634 0
M  V30 780 O 74.5358 -2.66502 2.36337 0
M  V30 781 O 73.3948 -4.25122 3.43415 0
M  V30 782 H 70.4888 -0.665067 0.491544 0
M  V30 783 H 73.0348 -0.784113 1.50498 0
M  V30 784 H 71.8068 -2.09612 3.30422 0
M  V30 785 H 71.4298 -3.35279 2.13714 0
M  V30 786 N 72.4269 -1.23603 -0.977757 0
M  V30 787 C 73.3589 -0.977369 -2.07317 0
M  V30 788 C 74.3719 0.0495845 -1.62724 0
M  V30 789 O 75.5609 -0.186261 -1.77526 0
M  V30 790 C 72.6609 -0.451216 -3.35883 0
M  V30 791 C 71.8339 -1.53896 -4.09432 0
M  V30 792 C 70.8929 -1.01721 -5.16274 0
M  V30 793 O 69.9189 -1.70676 -5.43009 0
M  V30 794 N 71.1209 0.153594 -5.80297 0
M  V30 795 H 73.8859 -1.92047 -2.30082 0
M  V30 796 H 71.4469 -1.14497 -1.14465 0
M  V30 797 H 73.4389 -0.0871574 -4.04606 0
M  V30 798 H 72.0089 0.397368 -3.10064 0
M  V30 799 H 71.2289 -2.07566 -3.35127 0
M  V30 800 H 72.5169 -2.27037 -4.55337 0
M  V30 801 H 71.9149 0.730323 -5.60966 0
M  V30 802 H 70.4719 0.458892 -6.50183 0
M  V30 803 N 73.905 1.17692 -1.04816 0
M  V30 804 C 75.145 1.89545 -0.764979 0
M  V30 805 C 75.509 1.78979 0.695028 0
M  V30 806 O 76.71 2.45613 1.09215 0
M  V30 807 C 74.981 3.35659 -1.22751 0
M  V30 808 S 76.54 4.25526 -1.07112 0
M  V30 809 H 73.358 0.654432 -0.27792 0
M  V30 810 H 75.96 1.42163 -1.34201 0
M  V30 811 H 74.664 3.40882 -2.28533 0
M  V30 812 H 74.195 3.88083 -0.644594 0
M  V30 813 H 76.21 4.962 0.00697508 0
M  V30 814 N 75.3831 0.828654 1.34056 0
M  V30 815 C 76.2931 0.256725 2.33191 0
M  V30 816 C 77.3091 -0.611898 1.62886 0
M  V30 817 O 78.4851 -0.51844 1.94613 0
M  V30 818 C 75.5501 -0.567238 3.42028 0
M  V30 819 C 74.6111 0.324458 4.28072 0
M  V30 820 C 73.8441 -0.460274 5.31712 0
M  V30 821 O 74.0671 -1.693 5.44696 0
M  V30 822 O 73.0011 0.160391 6.01686 0
M  V30 823 H 76.8271 1.07739 2.83947 0
M  V30 824 H 74.4121 0.59093 1.37217 0
M  V30 825 H 76.2941 -1.03582 4.08471 0
M  V30 826 H 74.9691 -1.36513 2.93506 0
M  V30 827 H 73.8761 0.840659 3.64532 0
M  V30 828 H 75.2091 1.08685 4.8005 0
M  V30 829 N 76.8612 -1.46375 0.584142 0
M  V30 830 C 78.0862 -2.07268 0.0740405 0
M  V30 831 C 78.5112 -1.42979 -1.22223 0
M  V30 832 O 77.8692 -0.514092 -1.73859 0
M  V30 833 C 77.9172 -3.60518 -0.0767769 0
M  V30 834 O 77.0212 -3.96533 -1.13292 0
M  V30 835 H 76.3622 -0.660961 0.0634524 0
M  V30 836 H 78.8922 -1.87991 0.807492 0
M  V30 837 H 78.9022 -4.07021 -0.282489 0
M  V30 838 H 77.5772 -4.06702 0.86986 0
M  V30 839 H 76.1542 -3.61738 -0.905553 0
M  V30 840 N 78.3393 -0.321999 -1.54275 0
M  V30 841 C 79.2873 0.560206 -2.25753 0
M  V30 842 C 80.2813 1.11984 -1.27106 0
M  V30 843 O 81.4873 1.06806 -1.44888 0
M  V30 844 H 77.8623 0.199304 -0.725108 0
M  V30 845 H 79.8333 -0.0649365 -2.98329 0
M  V30 846 C 78.5823 1.71023 -3.02731 0
M  V30 847 H 77.9053 1.28885 -3.78456 0
M  V30 848 H 79.3453 2.30314 -3.55993 0
M  V30 849 C 77.8043 2.62692 -2.10938 0
M  V30 850 O 78.3343 3.64364 -1.6912 0
M  V30 851 N 76.5403 2.30891 -1.76459 0
M  V30 852 H 76.0873 1.48253 -2.10663 0
M  V30 853 H 76.0453 2.92487 -1.1532 0
M  V30 854 N 79.8174 1.5752 -0.0501392 0
M  V30 855 C 81.2284 1.80271 0.485705 0
M  V30 856 C 81.5794 0.96228 1.70981 0
M  V30 857 O 80.7044 0.178578 2.15662 0
M  V30 858 C 81.2994 3.26957 0.887938 0
M  V30 859 C 79.8584 3.5063 1.36877 0
M  V30 860 C 79.0054 2.75165 0.343468 0
M  V30 861 H 81.9564 1.56281 -0.276028 0
M  V30 862 H 81.9774 3.37821 1.75093 0
M  V30 863 H 81.4894 3.881 -0.0031809 0
M  V30 864 H 79.5904 2.94766 2.27911 0
M  V30 865 H 79.7034 4.59343 1.36164 0
M  V30 866 H 78.0674 2.4127 0.816128 0
M  V30 867 H 78.8504 3.39034 -0.539548 0
M  V30 868 N 81.2955 -0.223234 1.56011 0
M  V30 869 C 82.5355 -0.954962 1.8072 0
M  V30 870 C 82.8995 -1.81598 0.623384 0
M  V30 871 O 84.1005 -2.58132 0.749745 0
M  V30 872 C 82.3715 -1.77313 3.10314 0
M  V30 873 S 83.9305 -2.56073 3.56332 0
M  V30 874 H 80.7485 -0.320812 0.634508 0
M  V30 875 H 83.3505 -0.220686 1.9425 0
M  V30 876 H 82.0545 -1.13071 3.94516 0
M  V30 877 H 81.5855 -2.54974 2.99586 0
M  V30 878 H 83.6005 -3.79619 3.19536 0
M  V30 879 N 82.7736 -1.49793 -0.48987 0
M  V30 880 C 83.7036 -1.70201 -1.59856 0
M  V30 881 C 84.6846 -0.55076 -1.60937 0
M  V30 882 O 85.8696 -0.787841 -1.77501 0
M  V30 883 C 82.9996 -1.77882 -2.98287 0
M  V30 884 C 81.9536 -2.92907 -3.12073 0
M  V30 885 C 81.2796 -2.85712 -4.51965 0
M  V30 886 C 82.5796 -4.3369 -2.91051 0
M  V30 887 H 84.2736 -2.63025 -1.43032 0
M  V30 888 H 81.8196 -1.26574 -0.686664 0
M  V30 889 H 83.7726 -1.90744 -3.75759 0
M  V30 890 H 82.4966 -0.816653 -3.16225 0
M  V30 891 H 81.1556 -2.79665 -2.37029 0
M  V30 892 H 80.8036 -1.8738 -4.66795 0
M  V30 893 H 80.5036 -3.62921 -4.62128 0
M  V30 894 H 82.0276 -3.00598 -5.31482 0
M  V30 895 H 83.4416 -4.47555 -3.58284 0
M  V30 896 H 81.8386 -5.12205 -3.12675 0
M  V30 897 H 82.9086 -4.47362 -1.87071 0
M  V30 898 N 84.2517 0.741722 -1.39055 0
M  V30 899 C 85.1997 1.87702 -1.3737 0
M  V30 900 C 86.1937 1.67427 -0.257812 0
M  V30 901 O 87.3997 1.7485 -0.427489 0
M  V30 902 H 83.7747 0.617757 -0.428812 0
M  V30 903 H 85.7457 1.86239 -2.33147 0
M  V30 904 C 84.4947 3.25315 -1.22741 0
M  V30 905 H 83.8177 3.41509 -2.07873 0
M  V30 906 H 85.2577 4.04964 -1.25618 0
M  V30 907 C 83.7167 3.36838 0.0647316 0
M  V30 908 O 84.2467 3.88073 1.03741 0
M  V30 909 N 82.4527 2.90329 0.125544 0
M  V30 910 H 81.9997 2.48823 -0.666682 0
M  V30 911 H 81.9577 2.98418 0.989639 0
M  V30 912 N 85.7298 1.2412 0.971189 0
M  V30 913 C 86.9778 1.07668 1.71032 0
M  V30 914 C 87.2988 -0.385797 1.91146 0
M  V30 915 O 86.5688 -1.27569 1.4867 0
M  V30 916 H 85.1488 0.395429 0.633755 0
M  V30 917 H 87.8108 1.55984 1.16855 0
M  V30 918 H 86.9068 1.57195 2.69622 0
M  V30 919 N 87.2079 -1.17134 1.05439 0
M  V30 920 C 88.4559 -1.87085 0.764429 0
M  V30 921 C 88.7769 -1.81584 -0.710787 0
M  V30 922 O 88.0469 -1.24349 -1.51374 0
M  V30 923 H 86.6269 -0.692627 0.279779 0
M  V30 924 H 89.2889 -1.42087 1.33406 0
M  V30 925 H 88.3849 -2.92759 1.0816 0
M  V30 926 N 88.686 -0.835752 -1.33615 0
M  V30 927 C 89.911 -0.442389 -2.02627 0
M  V30 928 C 90.336 0.947735 -1.62479 0
M  V30 929 O 89.694 1.61907 -0.815826 0
M  V30 930 C 89.742 -0.567216 -3.56111 0
M  V30 931 O 88.846 0.407799 -4.10379 0
M  V30 932 H 88.187 -0.180278 -0.639059 0
M  V30 933 H 90.717 -1.12972 -1.70583 0
M  V30 934 H 90.727 -0.447708 -4.05536 0
M  V30 935 H 89.402 -1.58103 -3.84677 0
M  V30 936 H 87.979 0.246107 -3.72087 0
M  V30 937 N 90.1641 1.46063 -0.591896 0
M  V30 938 C 91.4041 2.04228 -0.0838014 0
M  V30 939 C 91.7681 1.45231 1.25587 0
M  V30 940 O 92.9691 1.94653 1.85375 0
M  V30 941 C 91.2401 3.57389 -0.0286282 0
M  V30 942 S 92.7991 4.3678 0.420557 0
M  V30 943 H 89.6171 0.709762 -0.0419319 0
M  V30 944 H 92.2191 1.78983 -0.786465 0
M  V30 945 H 90.9231 3.97843 -1.00743 0
M  V30 946 H 90.4541 3.87185 0.69652 0
M  V30 947 H 92.4691 4.67131 1.67341 0
M  V30 948 N 91.6422 0.330177 1.54103 0
M  V30 949 C 92.5892 -0.532762 2.24567 0
M  V30 950 C 93.5592 -1.10635 1.23892 0
M  V30 951 O 94.7442 -1.14546 1.5259 0
M  V30 952 C 91.8842 -1.6845 3.01195 0
M  V30 953 C 90.9972 -1.13951 4.167 0
M  V30 954 C 90.1322 -2.25746 4.80845 0
M  V30 955 C 89.1712 -1.6853 5.88442 0
M  V30 956 N 88.3082 -2.74014 6.46421 0
M  V30 957 H 93.1482 0.0746905 2.97906 0
M  V30 958 H 90.6852 0.048632 1.4702 0
M  V30 959 H 92.6432 -2.36234 3.43874 0
M  V30 960 H 91.2732 -2.26314 2.30178 0
M  V30 961 H 90.3252 -0.35301 3.78758 0
M  V30 962 H 91.6372 -0.680892 4.94131 0
M  V30 963 H 90.7912 -3.01422 5.26526 0
M  V30 964 H 89.5302 -2.74947 4.0281 0
M  V30 965 H 88.5352 -0.913543 5.42157 0
M  V30 966 H 89.7602 -1.20198 6.68378 0
M  V30 967 H 87.7062 -3.22494 5.71256 0
M  V30 968 H 87.6232 -2.32735 7.19285 0
M  V30 969 H 88.8912 -3.49499 6.96757 0
M  V30 970 N 93.1203 -1.57491 0.0584922 0
M  V30 971 C 94.3973 -1.84346 -0.653918 0
M  V30 972 C 94.7773 -0.948355 -1.88599 0
M  V30 973 O 94.1253 -0.0112403 -2.28497 0
M  V30 974 C 94.3353 -3.34239 -1.00425 0
M  V30 975 C 95.6833 -4.01431 -1.38342 0
M  V30 976 O 96.7073 -3.38907 -1.09637 0
M  V30 977 O 95.5663 -5.11683 -1.91943 0
M  V30 978 H 92.6603 -0.761112 -0.323478 0
M  V30 979 H 95.2063 -1.6947 0.0884125 0
M  V30 980 H 93.9783 -3.91089 -0.128625 0
M  V30 981 H 93.6013 -3.54329 -1.80378 0
M  V30 982 N 94.5984 0.214957 -1.56127 0
M  V30 983 C 95.8754 0.963093 -1.70247 0
M  V30 984 C 96.2554 2.02166 -0.60764 0
M  V30 985 O 95.6034 2.25244 0.384385 0
M  V30 986 C 95.8134 1.56756 -3.11815 0
M  V30 987 C 97.1614 2.0573 -3.7143 0
M  V30 988 O 98.1854 1.66637 -3.14818 0
M  V30 989 O 97.0444 2.77603 -4.70743 0
M  V30 990 H 94.1384 0.450321 -0.693643 0
M  V30 991 H 96.6844 0.206219 -1.68442 0
M  V30 992 H 95.4564 0.803533 -3.82961 0
M  V30 993 H 95.0794 2.3898 -3.17765 0
M  V30 994 N 96.0765 1.50051 0.48192 0
M  V30 995 C 97.3255 1.59741 1.23149 0
M  V30 996 C 97.6385 0.298163 1.93314 0
M  V30 997 O 98.8445 0.273835 2.70116 0
M  V30 998 C 97.3005 2.81926 2.23708 0
M  V30 999 C 96.9085 4.18685 1.59396 0
M  V30 1000 C 98.6525 3.00956 2.99375 0
M  V30 1001 C 96.5595 5.3207 2.58178 0
M  V30 1002 H 95.4895 0.594838 0.46334 0
M  V30 1003 H 98.1405 1.76467 0.503169 0
M  V30 1004 H 96.5225 2.58736 2.99786 0
M  V30 1005 H 97.6965 4.52088 0.891811 0
M  V30 1006 H 96.0115 4.05171 0.960503 0
M  V30 1007 H 98.6085 3.82836 3.73283 0
M  V30 1008 H 98.9515 2.12258 3.58123 0
M  V30 1009 H 99.4845 3.24277 2.30411 0
M  V30 1010 H 96.2235 6.22888 2.04184 0
M  V30 1011 H 95.7435 5.03098 3.26577 0
M  V30 1012 H 97.4225 5.62196 3.20225 0
M  V30 1013 N 97.5546 -0.734337 1.39446 0
M  V30 1014 C 98.5026 -1.86971 1.38364 0
M  V30 1015 C 99.4966 -1.67288 0.266687 0
M  V30 1016 O 100.703 -1.74621 0.436755 0
M  V30 1017 H 97.0776 -0.615474 0.432082 0
M  V30 1018 H 99.0486 -1.85 2.34132 0
M  V30 1019 C 97.7976 -3.2466 1.24465 0
M  V30 1020 H 97.1206 -3.40402 2.09682 0
M  V30 1021 H 98.5606 -4.04292 1.27764 0
M  V30 1022 C 97.0196 -3.36867 -0.0468674 0
M  V30 1023 O 97.5496 -3.88618 -1.01681 0
M  V30 1024 N 95.7556 -2.90391 -0.110145 0
M  V30 1025 H 95.3026 -2.48466 0.679868 0
M  V30 1026 H 95.2606 -2.98939 -0.973799 0
M  V30 1027 N 99.0327 -1.24633 -0.964593 0
M  V30 1028 C 100.258 -1.11596 -1.74818 0
M  V30 1029 C 100.683 0.32723 -1.85232 0
M  V30 1030 O 100.041 1.23695 -1.32549 0
M  V30 1031 C 100.089 -1.76397 -3.1451 0
M  V30 1032 O 99.1927 -1.03685 -3.99153 0
M  V30 1033 H 98.5337 -0.390196 -0.537255 0
M  V30 1034 H 101.064 -1.65002 -1.20977 0
M  V30 1035 H 101.074 -1.8228 -3.65018 0
M  V30 1036 H 99.7487 -2.81401 -3.06246 0
M  V30 1037 H 98.3257 -1.05611 -3.57632 0
M  V30 1038 N 100.511 1.16574 -1.06058 0
M  V30 1039 C 101.741 1.90675 -0.795397 0
M  V30 1040 C 102.149 1.77547 0.653735 0
M  V30 1041 O 101.492 1.11611 1.45907 0
M  V30 1042 C 101.554 3.42011 -1.10764 0
M  V30 1043 C 101.218 3.78924 -2.55471 0
M  V30 1044 C 102.215 3.81042 -3.53699 0
M  V30 1045 C 99.8998 4.09626 -2.90708 0
M  V30 1046 C 101.894 4.13346 -4.85205 0
M  V30 1047 C 99.5808 4.41597 -4.22416 0
M  V30 1048 C 100.579 4.43436 -5.19474 0
M  V30 1049 O 100.267 4.74649 -6.48817 0
M  V30 1050 H 99.9988 0.611554 -0.288058 0
M  V30 1051 H 102.553 1.48711 -1.41683 0
M  V30 1052 H 100.783 3.84312 -0.429128 0
M  V30 1053 H 102.472 3.97384 -0.827077 0
M  V30 1054 H 103.238 3.57437 -3.27817 0
M  V30 1055 H 99.1168 4.07361 -2.15819 0
M  V30 1056 H 102.661 4.14696 -5.60957 0
M  V30 1057 H 98.5578 4.64667 -4.48056 0
M  V30 1058 H 99.3258 4.9247 -6.5377 0
M  V30 1059 N 101.989 0.842826 1.3317 0
M  V30 1060 C 102.899 0.281444 2.32906 0
M  V30 1061 C 103.915 -0.594587 1.63526 0
M  V30 1062 O 105.091 -0.49777 1.95152 0
M  V30 1063 C 102.156 -0.530929 3.42611 0
M  V30 1064 C 101.217 0.369843 4.27704 0
M  V30 1065 C 100.45 -0.403853 5.3217 0
M  V30 1066 O 100.673 -1.63513 5.46461 0
M  V30 1067 O 99.6069 0.224199 6.01482 0
M  V30 1068 H 103.433 1.10744 2.82789 0
M  V30 1069 H 101.018 0.60545 1.36582 0
M  V30 1070 H 102.9 -0.992437 4.09547 0
M  V30 1071 H 101.575 -1.33392 2.94938 0
M  V30 1072 H 100.482 0.879275 3.6362 0
M  V30 1073 H 101.815 1.13771 4.78871 0
M  V30 1074 N 103.467 -1.45747 0.599634 0
M  V30 1075 C 104.707 -2.04181 0.0946309 0
M  V30 1076 C 105.071 -1.45895 -1.24815 0
M  V30 1077 O 106.272 -1.95633 -1.8434 0
M  V30 1078 C 104.543 -3.57368 0.047581 0
M  V30 1079 S 106.102 -4.36997 -0.397387 0
M  V30 1080 H 102.92 -0.70953 0.0456954 0
M  V30 1081 H 105.522 -1.78564 0.795946 0
M  V30 1082 H 104.226 -3.97303 1.02852 0
M  V30 1083 H 103.757 -3.87549 -0.675977 0
M  V30 1084 H 105.772 -4.68012 -1.64862 0
M  V30 1085 N 104.945 -0.338344 -1.53925 0
M  V30 1086 C 106.191 0.252842 -2.01822 0
M  V30 1087 C 106.546 1.48612 -1.22197 0
M  V30 1088 O 105.839 1.89238 -0.299892 0
M  V30 1089 C 106.033 0.62448 -3.51902 0
M  V30 1090 C 105.862 -0.571235 -4.46057 0
M  V30 1091 C 104.632 -1.07493 -4.93734 0
M  V30 1092 C 106.83 -1.42807 -4.94076 0
M  V30 1093 N 104.812 -2.23351 -5.71828 0
M  V30 1094 C 106.183 -2.43362 -5.70241 0
M  V30 1095 C 108.238 -1.45412 -4.76193 0
M  V30 1096 C 106.941 -3.46346 -6.30426 0
M  V30 1097 C 108.967 -2.47274 -5.37224 0
M  V30 1098 C 108.329 -3.46555 -6.13253 0
M  V30 1099 H 104.428 0.0559669 -0.779995 0
M  V30 1100 H 107.012 -0.476732 -1.88773 0
M  V30 1101 H 105.183 1.32317 -3.65167 0
M  V30 1102 H 106.915 1.19841 -3.86549 0
M  V30 1103 H 103.67 -0.643848 -4.69203 0
M  V30 1104 H 104.094 -2.81834 -6.15548 0
M  V30 1105 H 108.736 -0.700171 -4.16962 0
M  V30 1106 H 106.454 -4.22638 -6.88769 0
M  V30 1107 H 110.04 -2.50109 -5.25297 0
M  V30 1108 H 108.92 -4.24083 -6.59638 0
M  V30 1109 N 106.423 1.57458 -0.0668435 0
M  V30 1110 C 107.663 1.95175 0.607116 0
M  V30 1111 C 108.027 0.946039 1.67075 0
M  V30 1112 O 109.228 1.2107 2.39991 0
M  V30 1113 C 107.499 3.37582 1.17358 0
M  V30 1114 S 109.058 3.97271 1.86336 0
M  V30 1115 H 105.876 0.682604 0.19893 0
M  V30 1116 H 108.478 1.95002 -0.139519 0
M  V30 1117 H 107.182 4.08566 0.387553 0
M  V30 1118 H 106.713 3.41288 1.95669 0
M  V30 1119 H 108.728 3.83772 3.14537 0
M  V30 1120 N 107.901 -0.206675 1.56239 0
M  V30 1121 C 109.312 -0.772383 1.69974 0
M  V30 1122 C 109.663 -1.84353 0.671436 0
M  V30 1123 O 108.788 -2.15695 -0.174491 0
M  V30 1124 C 109.383 -1.40779 3.08167 0
M  V30 1125 C 107.942 -1.92072 3.23706 0
M  V30 1126 C 107.089 -0.786347 2.65917 0
M  V30 1127 H 110.04 0.0182223 1.5869 0
M  V30 1128 H 110.061 -2.27696 3.04852 0
M  V30 1129 H 109.573 -0.627958 3.82986 0
M  V30 1130 H 107.674 -2.7281 2.53782 0
M  V30 1131 H 107.787 -2.09046 4.31087 0
M  V30 1132 H 106.151 -1.1976 2.24788 0
M  V30 1133 H 106.934 -0.0189416 3.43295 0
M  V30 1134 N 109.379 -1.50304 -0.473955 0
M  V30 1135 C 110.626 -1.6115 -1.22625 0
M  V30 1136 C 110.954 -0.310517 -1.92005 0
M  V30 1137 O 110.209 0.703419 -1.82621 0
M  V30 1138 C 110.508 -2.73938 -2.29549 0
M  V30 1139 C 110.174 -4.14519 -1.7744 0
M  V30 1140 C 108.836 -4.5277 -1.62949 0
M  V30 1141 C 111.188 -5.02392 -1.3875 0
M  V30 1142 C 108.516 -5.76639 -1.08187 0
M  V30 1143 C 110.868 -6.26805 -0.854309 0
M  V30 1144 C 109.532 -6.63861 -0.696011 0
M  V30 1145 H 108.802 -0.589691 -0.448715 0
M  V30 1146 H 111.449 -1.84228 -0.522705 0
M  V30 1147 H 109.754 -2.44937 -3.05799 0
M  V30 1148 H 111.451 -2.79534 -2.87509 0
M  V30 1149 H 108.041 -3.8434 -1.89685 0
M  V30 1150 H 112.225 -4.73474 -1.4878 0
M  V30 1151 H 107.481 -6.04027 -0.946666 0
M  V30 1152 H 111.655 -6.94258 -0.545843 0
M  V30 1153 H 109.282 -7.59722 -0.26952 0
M  V30 1154 N 110.857 0.726932 -1.39834 0
M  V30 1155 C 112.105 1.4837 -1.37225 0
M  V30 1156 C 112.426 1.94979 0.0284857 0
M  V30 1157 O 111.696 1.69555 0.981213 0
M  V30 1158 H 110.276 0.55043 -0.505011 0
M  V30 1159 H 112.938 0.862468 -1.74778 0
M  V30 1160 H 112.034 2.36198 -2.04003 0
M  V30 1161 N 112.336 1.25143 0.95797 0
M  V30 1162 C 113.583 1.09692 1.70217 0
M  V30 1163 C 113.911 -0.362654 1.91089 0
M  V30 1164 O 113.166 -1.28386 1.47701 0
M  V30 1165 C 113.465 1.79272 3.09187 0
M  V30 1166 C 113.131 3.29196 3.08125 0
M  V30 1167 C 111.793 3.70096 3.07543 0
M  V30 1168 C 114.145 4.24995 3.0171 0
M  V30 1169 C 111.473 5.05213 2.9829 0
M  V30 1170 C 113.825 5.60132 2.93999 0
M  V30 1171 C 112.489 6.00365 2.9175 0
M  V30 1172 H 111.759 0.401393 0.622868 0
M  V30 1173 H 114.406 1.55372 1.11945 0
M  V30 1174 H 112.711 1.26014 3.70982 0
M  V30 1175 H 114.408 1.64773 3.65583 0
M  V30 1176 H 110.998 2.96651 3.09348 0
M  V30 1177 H 115.182 3.9439 3.01281 0
M  V30 1178 H 110.438 5.35569 2.94916 0
M  V30 1179 H 114.612 6.3406 2.87996 0
M  V30 1180 H 112.239 7.05023 2.84336 0
M  V30 1181 N 113.814 -1.1601 1.06675 0
M  V30 1182 C 114.724 -2.24156 0.692179 0
M  V30 1183 C 115.74 -1.71507 -0.293513 0
M  V30 1184 O 116.916 -2.009 -0.141861 0
M  V30 1185 C 113.981 -3.46587 0.0884131 0
M  V30 1186 C 113.042 -4.14257 1.12646 0
M  V30 1187 C 112.275 -5.30844 0.551416 0
M  V30 1188 O 112.498 -5.66858 -0.634656 0
M  V30 1189 O 111.432 -5.87848 1.29298 0
M  V30 1190 H 115.258 -2.58513 1.59388 0
M  V30 1191 H 112.843 -1.23599 0.83926 0
M  V30 1192 H 114.725 -4.20679 -0.246361 0
M  V30 1193 H 113.4 -3.13994 -0.786712 0
M  V30 1194 H 112.307 -3.42118 1.51348 0
M  V30 1195 H 113.64 -4.50914 1.97325 0
M  V30 1196 N 115.292 -0.849877 -1.32721 0
M  V30 1197 C 116.54 -0.450032 -1.97026 0
M  V30 1198 C 116.861 0.996604 -1.67609 0
M  V30 1199 O 116.131 1.6958 -0.980786 0
M  V30 1200 H 114.711 -0.163426 -0.728904 0
M  V30 1201 H 117.373 -1.08526 -1.6189 0
M  V30 1202 H 116.469 -0.591146 -3.0645 0
M  V30 1203 N 116.77 1.45427 -0.607355 0
M  V30 1204 C 117.717 2.3053 0.111625 0
M  V30 1205 C 118.687 1.4209 0.860216 0
M  V30 1206 O 119.872 1.71019 0.845998 0
M  V30 1207 C 117.012 3.26992 1.10319 0
M  V30 1208 C 116.125 4.30535 0.355493 0
M  V30 1209 C 115.26 5.14105 1.33676 0
M  V30 1210 C 114.299 6.09376 0.576862 0
M  V30 1211 N 113.436 6.85727 1.5074 0
M  V30 1212 H 118.276 2.91477 -0.620093 0
M  V30 1213 H 115.813 1.43631 -0.317594 0
M  V30 1214 H 117.771 3.81385 1.6912 0
M  V30 1215 H 116.401 2.67799 1.80232 0
M  V30 1216 H 115.453 3.78805 -0.348023 0
M  V30 1217 H 116.765 4.98235 -0.237423 0
M  V30 1218 H 115.919 5.72897 1.99684 0
M  V30 1219 H 114.658 4.46423 1.9636 0
M  V30 1220 H 113.663 5.49715 -0.0968519 0
M  V30 1221 H 114.888 6.79085 -0.0449341 0
M  V30 1222 H 112.834 6.20735 2.12189 0
M  V30 1223 H 112.751 7.49778 0.967913 0
M  V30 1224 H 114.019 7.4906 2.15706 0
M  V30 1225 N 118.248 0.346503 1.53744 0
M  V30 1226 C 119.196 -0.52422 2.26616 0
M  V30 1227 C 120.19 -1.09948 1.28871 0
M  V30 1228 O 121.396 -1.04488 1.46568 0
M  V30 1229 H 117.771 -0.187743 0.728187 0
M  V30 1230 H 119.742 0.11239 2.98188 0
M  V30 1231 C 118.491 -1.66186 3.05414 0
M  V30 1232 H 117.814 -1.22848 3.80458 0
M  V30 1233 H 119.254 -2.24622 3.59612 0
M  V30 1234 C 117.713 -2.59302 2.1509 0
M  V30 1235 O 118.243 -3.61628 1.74895 0
M  V30 1236 N 116.449 -2.28055 1.8011 0
M  V30 1237 H 115.996 -1.44883 2.12994 0
M  V30 1238 H 115.954 -2.90615 1.19958 0
M  V30 1239 N 119.726 -1.57421 0.075193 0
M  V30 1240 C 120.966 -1.95495 -0.596757 0
M  V30 1241 C 121.33 -0.954886 -1.66571 0
M  V30 1242 O 122.531 -1.22341 -2.39345 0
M  V30 1243 C 120.802 -3.382 -1.15566 0
M  V30 1244 S 122.361 -3.98254 -1.84226 0
M  V30 1245 H 119.179 -0.683649 -0.195307 0
M  V30 1246 H 121.781 -1.94925 0.149859 0
M  V30 1247 H 120.485 -4.08766 -0.36588 0
M  V30 1248 H 120.016 -3.42321 -1.93856 0
M  V30 1249 H 122.031 -3.85435 -3.12497 0
M  V30 1250 N 121.204 0.198386 -1.56346 0
M  V30 1251 C 122.114 1.2664 -1.97483 0
M  V30 1252 C 123.13 1.49989 -0.882002 0
M  V30 1253 O 124.306 1.62668 -1.18748 0
M  V30 1254 C 121.371 2.59141 -2.30319 0
M  V30 1255 C 120.432 2.43892 -3.53292 0
M  V30 1256 C 119.665 3.70074 -3.84553 0
M  V30 1257 O 119.888 4.74101 -3.1715 0
M  V30 1258 O 118.822 3.658 -4.7799 0
M  V30 1259 H 122.648 0.947304 -2.88548 0
M  V30 1260 H 120.233 0.403123 -1.43859 0
M  V30 1261 H 122.115 3.37352 -2.5253 0
M  V30 1262 H 120.79 2.90684 -1.42423 0
M  V30 1263 H 119.697 1.63803 -3.36332 0
M  V30 1264 H 121.03 2.17282 -4.41644 0
M  V30 1265 N 122.682 1.50554 0.465978 0
M  V30 1266 C 123.612 1.72722 1.57128 0
M  V30 1267 C 124.593 0.576294 1.6004 0
M  V30 1268 O 125.778 0.81598 1.76225 0
M  V30 1269 C 122.908 1.82605 2.95419 0
M  V30 1270 C 121.862 2.97835 3.07373 0
M  V30 1271 C 121.188 2.92867 4.47363 0
M  V30 1272 C 122.488 4.38265 2.84114 0
M  V30 1273 H 124.182 2.65267 1.38829 0
M  V30 1274 H 121.728 1.2765 0.666441 0
M  V30 1275 H 123.681 1.96698 3.72677 0
M  V30 1276 H 122.405 0.866858 3.14886 0
M  V30 1277 H 121.064 2.83401 2.3255 0
M  V30 1278 H 120.712 1.94783 4.63755 0
M  V30 1279 H 120.412 3.70227 4.56296 0
M  V30 1280 H 121.936 3.09015 5.26633 0
M  V30 1281 H 123.35 4.53198 3.51118 0
M  V30 1282 H 121.747 5.17115 3.04487 0
M  V30 1283 H 122.817 4.50281 1.7993 0
M  V30 1284 N 124.16 -0.719506 1.40217 0
M  V30 1285 C 125.437 -1.47221 1.28784 0
M  V30 1286 C 125.817 -2.10883 -0.0956067 0
M  V30 1287 O 125.165 -1.99833 -1.10811 0
M  V30 1288 C 125.375 -2.5111 2.42373 0
M  V30 1289 C 126.723 -3.17053 2.82423 0
M  V30 1290 O 127.747 -2.61429 2.41937 0
M  V30 1291 O 126.606 -4.17742 3.52355 0
M  V30 1292 H 123.7 -0.654491 0.50554 0
M  V30 1293 H 126.246 -0.752014 1.52128 0
M  V30 1294 H 125.018 -2.02556 3.34793 0
M  V30 1295 H 124.641 -3.3067 2.20778 0
M  V30 1296 N 125.638 -1.25649 -0.95132 0
M  V30 1297 C 126.884 -1.10757 -1.69884 0
M  V30 1298 C 127.217 0.350061 -1.91019 0
M  V30 1299 O 126.492 1.25783 -1.48354 0
M  V30 1300 C 126.775 -1.86606 -3.07978 0
M  V30 1301 C 126.628 -3.40217 -2.94232 0
M  V30 1302 C 127.947 -1.65182 -4.07925 0
M  V30 1303 H 125.066 -0.40374 -0.616574 0
M  V30 1304 H 127.708 -1.54521 -1.10558 0
M  V30 1305 H 125.858 -1.49409 -3.58621 0
M  V30 1306 H 127.53 -3.87108 -2.50889 0
M  V30 1307 H 125.773 -3.67759 -2.30078 0
M  V30 1308 H 126.444 -3.88505 -3.92133 0
M  V30 1309 H 128.92 -1.9757 -3.66204 0
M  V30 1310 H 127.796 -2.20683 -5.02583 0
M  V30 1311 H 128.057 -0.593933 -4.38092 0
M  V30 1312 N 127.117 1.15442 -1.07289 0
M  V30 1313 C 128.345 1.90096 -0.81676 0
M  V30 1314 C 128.76 1.7798 0.629966 0
M  V30 1315 O 128.117 1.1313 1.43206 0
M  V30 1316 C 128.168 3.40466 -1.21512 0
M  V30 1317 O 127.889 3.52232 -2.60508 0
M  V30 1318 C 129.39 4.32145 -0.988198 0
M  V30 1319 H 126.61 0.602495 -0.295366 0
M  V30 1320 H 129.154 1.4627 -1.42918 0
M  V30 1321 H 127.309 3.81958 -0.647039 0
M  V30 1322 H 127.723 4.45549 -2.76742 0
M  V30 1323 H 129.197 5.36072 -1.31645 0
M  V30 1324 H 129.674 4.39135 0.0755063 0
M  V30 1325 H 130.28 3.96395 -1.54115 0
M  V30 1326 N 128.595 0.856903 1.32268 0
M  V30 1327 C 129.835 0.467705 1.98977 0
M  V30 1328 C 130.199 -0.959231 1.66321 0
M  V30 1329 O 131.4 -1.4531 2.26138 0
M  V30 1330 C 129.671 0.70256 3.50427 0
M  V30 1331 S 131.23 0.411269 4.36868 0
M  V30 1332 H 128.048 0.175121 0.689096 0
M  V30 1333 H 130.65 1.1101 1.60925 0
M  V30 1334 H 129.354 1.74012 3.71683 0
M  V30 1335 H 128.885 0.0466707 3.93372 0
M  V30 1336 H 130.9 -0.761799 4.90317 0
M  V30 1337 N 130.073 -1.45103 0.615059 0
M  V30 1338 C 131.021 -2.32331 -0.111791 0
M  V30 1339 C 132.015 -1.46409 -0.852102 0
M  V30 1340 O 133.221 -1.62849 -0.766821 0
M  V30 1341 H 129.596 -0.749993 -0.0549072 0
M  V30 1342 H 131.567 -2.91407 0.642225 0
M  V30 1343 C 130.316 -3.3015 -1.09071 0
M  V30 1344 H 129.639 -3.96265 -0.530485 0
M  V30 1345 H 131.079 -3.93898 -1.56908 0
M  V30 1346 C 129.538 -2.57875 -2.168 0
M  V30 1347 O 130.068 -2.36567 -3.24652 0
M  V30 1348 N 128.274 -2.17884 -1.92289 0
M  V30 1349 H 127.821 -2.35413 -1.04587 0
M  V30 1350 H 127.779 -1.6985 -2.64572 0
M  V30 1351 N 131.551 -0.354651 -1.53558 0
M  V30 1352 C 132.8 0.239504 -2.00273 0
M  V30 1353 C 133.113 1.50759 -1.24623 0
M  V30 1354 O 134.319 2.17968 -1.61871 0
M  V30 1355 C 132.775 0.477341 -3.5672 0
M  V30 1356 C 132.383 -0.775488 -4.41237 0
M  V30 1357 C 134.127 1.02975 -4.11821 0
M  V30 1358 C 132.034 -0.507838 -5.89216 0
M  V30 1359 H 130.964 0.0932743 -0.748208 0
M  V30 1360 H 133.615 -0.471701 -1.77334 0
M  V30 1361 H 131.997 1.24953 -3.7577 0
M  V30 1362 H 133.171 -1.54963 -4.33962 0
M  V30 1363 H 131.486 -1.25033 -3.97185 0
M  V30 1364 H 134.083 1.24513 -5.2 0
M  V30 1365 H 134.426 1.98862 -3.65731 0
M  V30 1366 H 134.959 0.317994 -3.96527 0
M  V30 1367 H 131.698 -1.43674 -6.39561 0
M  V30 1368 H 131.218 0.228011 -5.99366 0
M  V30 1369 H 132.897 -0.129238 -6.46871 0
M  V30 1370 N 133.029 1.57378 -0.0835403 0
M  V30 1371 C 133.976 2.13384 0.879539 0
M  V30 1372 C 134.946 1.04936 1.28754 0
M  V30 1373 O 136.131 1.32662 1.37133 0
M  V30 1374 C 133.271 2.70932 2.13752 0
M  V30 1375 C 132.384 3.93575 1.7811 0
M  V30 1376 C 131.519 4.39326 2.98607 0
M  V30 1377 C 130.558 5.54587 2.59037 0
M  V30 1378 N 129.695 5.95243 3.72331 0
M  V30 1379 H 134.535 2.9537 0.395076 0
M  V30 1380 H 132.072 1.45953 0.183349 0
M  V30 1381 H 134.03 3.02411 2.87408 0
M  V30 1382 H 132.66 1.91693 2.59718 0
M  V30 1383 H 131.712 3.68483 0.94469 0
M  V30 1384 H 133.024 4.77258 1.45005 0
M  V30 1385 H 132.178 4.72528 3.80529 0
M  V30 1386 H 130.917 3.5452 3.34913 0
M  V30 1387 H 129.922 5.21024 1.75539 0
M  V30 1388 H 131.147 6.41133 2.23887 0
M  V30 1389 H 129.093 5.13385 4.08378 0
M  V30 1390 H 129.01 6.73694 3.43034 0
M  V30 1391 H 130.278 6.33072 4.54797 0
M  V30 1392 N 134.507 -0.190092 1.56449 0
M  V30 1393 C 135.455 -1.25501 1.95837 0
M  V30 1394 C 136.449 -1.4685 0.844485 0
M  V30 1395 O 137.655 -1.47651 1.02952 0
M  V30 1396 H 134.03 -0.421447 0.622805 0
M  V30 1397 H 136.001 -0.895821 2.84636 0
M  V30 1398 C 134.75 -2.59124 2.31841 0
M  V30 1399 H 134.073 -2.43514 3.17082 0
M  V30 1400 H 135.513 -3.32371 2.6326 0
M  V30 1401 C 133.972 -3.16488 1.15486 0
M  V30 1402 O 134.502 -3.99365 0.432535 0
M  V30 1403 N 132.708 -2.75305 0.930349 0
M  V30 1404 H 132.255 -2.08013 1.51948 0
M  V30 1405 H 132.213 -3.14024 0.153634 0
M  V30 1406 N 135.985 -1.50799 -0.457987 0
M  V30 1407 C 137.233 -1.62121 -1.2067 0
M  V30 1408 C 137.554 -0.329793 -1.92191 0
M  V30 1409 O 136.824 0.653409 -1.84682 0
M  V30 1410 H 135.404 -0.597441 -0.448411 0
M  V30 1411 H 138.066 -1.87637 -0.527096 0
M  V30 1412 H 137.162 -2.43882 -1.94751 0
M  V30 1413 N 137.463 0.71206 -1.40597 0
M  V30 1414 C 138.879 1.02058 -1.22704 0
M  V30 1415 C 139.079 2.01228 -0.104729 0
M  V30 1416 O 138.135 2.4674 0.53624 0
M  V30 1417 C 139.448 1.56094 -2.57012 0
M  V30 1418 C 140.996 1.6806 -2.64054 0
M  V30 1419 C 141.471 2.25501 -3.9864 0
M  V30 1420 N 142.962 2.32882 -4.004 0
M  V30 1421 C 143.697 2.78317 -5.01325 0
M  V30 1422 N 143.193 3.23478 -6.12645 0
M  V30 1423 N 144.986 2.77733 -4.88693 0
M  V30 1424 H 137.137 0.0547896 -2.12329 0
M  V30 1425 H 139.4 0.0869027 -0.944008 0
M  V30 1426 H 139.106 0.906865 -3.39807 0
M  V30 1427 H 138.98 2.54564 -2.78347 0
M  V30 1428 H 141.367 2.32583 -1.81629 0
M  V30 1429 H 141.448 0.681802 -2.46546 0
M  V30 1430 H 141.092 1.61598 -4.81506 0
M  V30 1431 H 141.022 3.26102 -4.13479 0
M  V30 1432 H 143.513 2.00991 -3.20017 0
M  V30 1433 H 143.826 3.56725 -6.85542 0
M  V30 1434 H 142.171 3.21429 -6.16205 0
M  V30 1435 H 145.362 2.4179 -4.00818 0
M  V30 1436 H 145.535 3.12826 -5.67489 0
M  V30 1437 N 138.941 1.26152 0.944643 0
M  V30 1438 C 140.181 1.12708 1.70517 0
M  V30 1439 C 140.545 -0.324727 1.89234 0
M  V30 1440 O 141.746 -0.581211 2.62441 0
M  V30 1441 C 140.017 1.8713 3.04495 0
M  V30 1442 S 141.576 1.89698 3.95677 0
M  V30 1443 H 138.394 0.402665 0.585988 0
M  V30 1444 H 140.996 1.59821 1.12594 0
M  V30 1445 H 139.7 2.91833 2.88551 0
M  V30 1446 H 139.231 1.40444 3.67477 0
M  V30 1447 H 141.246 0.981198 4.86402 0
M  V30 1448 N 140.419 -1.14872 1.07899 0
M  V30 1449 C 141.329 -2.2341 0.715915 0
M  V30 1450 C 142.345 -1.71808 -0.275306 0
M  V30 1451 O 143.521 -2.01039 -0.120545 0
M  V30 1452 C 140.586 -3.46474 0.125168 0
M  V30 1453 C 139.647 -4.13039 1.17034 0
M  V30 1454 C 138.88 -5.30229 0.607688 0
M  V30 1455 O 139.103 -5.675 -0.574497 0
M  V30 1456 O 138.037 -5.86444 1.35526 0
M  V30 1457 H 141.863 -2.56808 1.62121 0
M  V30 1458 H 139.448 -1.22702 0.852322 0
M  V30 1459 H 141.33 -4.20917 -0.201729 0
M  V30 1460 H 140.005 -3.14811 -0.753364 0
M  V30 1461 H 138.912 -3.40493 1.54968 0
M  V30 1462 H 140.245 -4.48796 2.02097 0
M  V30 1463 N 141.898 -0.863906 -1.31812 0
M  V30 1464 C 142.83 -0.272485 -2.27575 0
M  V30 1465 C 143.843 0.56104 -1.52827 0
M  V30 1466 O 145.032 0.384021 -1.7432 0
M  V30 1467 C 142.132 0.63283 -3.32939 0
M  V30 1468 C 141.305 -0.166902 -4.37081 0
M  V30 1469 C 140.364 0.665608 -5.21973 0
M  V30 1470 O 139.39 0.0958091 -5.69119 0
M  V30 1471 N 140.592 1.9787 -5.45736 0
M  V30 1472 H 143.357 -1.0954 -2.78964 0
M  V30 1473 H 140.918 -0.724791 -1.4477 0
M  V30 1474 H 142.91 1.19532 -3.86645 0
M  V30 1475 H 141.48 1.35642 -2.81638 0
M  V30 1476 H 140.7 -0.910838 -3.83533 0
M  V30 1477 H 141.988 -0.715874 -5.03739 0
M  V30 1478 H 141.386 2.46484 -5.09178 0
M  V30 1479 H 139.943 2.48911 -6.024 0
M  V30 1480 N 143.376 1.44774 -0.622745 0
M  V30 1481 C 144.623 2.02121 -0.1239 0
M  V30 1482 C 144.951 1.48915 1.25118 0
M  V30 1483 O 144.206 0.660045 1.84233 0
M  V30 1484 C 144.505 3.57364 -0.0508323 0
M  V30 1485 C 144.171 4.29787 -1.36358 0
M  V30 1486 C 142.833 4.4929 -1.72314 0
M  V30 1487 C 145.185 4.71062 -2.23048 0
M  V30 1488 C 142.513 5.07325 -2.94682 0
M  V30 1489 C 144.865 5.30452 -3.44679 0
M  V30 1490 C 143.529 5.48175 -3.80868 0
M  V30 1491 H 142.799 0.739612 -0.0453381 0
M  V30 1492 H 145.446 1.73648 -0.807389 0
M  V30 1493 H 143.751 3.85202 0.715991 0
M  V30 1494 H 145.448 3.99456 0.351533 0
M  V30 1495 H 142.038 4.14932 -1.07375 0
M  V30 1496 H 146.222 4.55715 -1.96565 0
M  V30 1497 H 141.478 5.19235 -3.22809 0
M  V30 1498 H 145.652 5.61385 -4.12092 0
M  V30 1499 H 143.279 5.92912 -4.75773 0
M  V30 1500 N 144.854 0.36279 1.53368 0
M  V30 1501 C 146.094 -0.227882 2.03126 0
M  V30 1502 C 146.458 -1.4622 1.24434 0
M  V30 1503 O 147.659 -2.12831 1.64184 0
M  V30 1504 C 145.93 -0.515427 3.53664 0
M  V30 1505 S 147.489 -1.08017 4.25297 0
M  V30 1506 H 144.307 -0.0665377 0.70788 0
M  V30 1507 H 146.909 0.50501 1.88865 0
M  V30 1508 H 145.613 0.390436 4.08539 0
M  V30 1509 H 145.144 -1.27747 3.72081 0
M  V30 1510 H 147.159 -2.36462 4.36234 0
M  V30 1511 N 146.332 -1.57332 0.0918853 0
M  V30 1512 C 147.279 -2.13847 -0.868211 0
M  V30 1513 C 148.249 -1.05618 -1.28196 0
M  V30 1514 O 149.434 -1.33387 -1.36427 0
M  V30 1515 C 146.574 -2.72062 -2.12312 0
M  V30 1516 C 145.687 -3.94514 -1.7602 0
M  V30 1517 C 144.822 -4.40903 -2.96273 0
M  V30 1518 C 143.861 -5.55953 -2.56092 0
M  V30 1519 N 142.998 -5.97209 -3.69169 0
M  V30 1520 H 147.838 -2.95575 -0.379406 0
M  V30 1521 H 145.375 -1.46048 -0.175606 0
M  V30 1522 H 147.333 -3.03931 -2.858 0
M  V30 1523 H 145.963 -1.93068 -2.58698 0
M  V30 1524 H 145.015 -3.68979 -0.925135 0
M  V30 1525 H 146.327 -4.7802 -1.42472 0
M  V30 1526 H 145.481 -4.74539 -3.78018 0
M  V30 1527 H 144.22 -3.56291 -3.33029 0
M  V30 1528 H 143.225 -5.21948 -1.72773 0
M  V30 1529 H 144.45 -6.42311 -2.20484 0
M  V30 1530 H 142.396 -5.15543 -4.05649 0
M  V30 1531 H 142.313 -6.75504 -3.39456 0
M  V30 1532 H 143.581 -6.35475 -4.51434 0
M  V30 1533 N 147.81 0.181792 -1.56548 0
M  V30 1534 C 148.758 1.24461 -1.965 0
M  V30 1535 C 149.752 1.464 -0.852261 0
M  V30 1536 O 150.958 1.47103 -1.03733 0
M  V30 1537 H 147.333 0.418138 -0.625031 0
M  V30 1538 H 149.304 0.880714 -2.85107 0
M  V30 1539 C 148.053 2.57891 -2.33212 0
M  V30 1540 H 147.376 2.41829 -3.18369 0
M  V30 1541 H 148.816 3.3097 -2.65019 0
M  V30 1542 C 147.275 3.15871 -1.17163 0
M  V30 1543 O 147.805 3.9913 -0.453708 0
M  V30 1544 N 146.011 2.74808 -0.944936 0
M  V30 1545 H 145.558 2.07205 -1.53049 0
M  V30 1546 H 145.516 3.13939 -0.170286 0
M  V30 1547 N 149.288 1.51039 0.449983 0
M  V30 1548 C 150.513 1.6715 1.22783 0
M  V30 1549 C 150.938 0.363081 1.84563 0
M  V30 1550 O 150.296 -0.675433 1.68249 0
M  V30 1551 C 150.344 2.77985 2.29689 0
M  V30 1552 O 149.448 2.40707 3.34864 0
M  V30 1553 H 148.789 0.557746 0.360299 0
M  V30 1554 H 151.319 1.97535 0.533005 0
M  V30 1555 H 151.329 3.01693 2.74673 0
M  V30 1556 H 150.004 3.72935 1.84098 0
M  V30 1557 H 148.581 2.27523 2.95445 0
M  V30 1558 N 150.766 -0.704594 1.40972 0
M  V30 1559 C 151.729 -1.80035 1.41845 0
M  V30 1560 C 152.729 -1.57774 0.310474 0
M  V30 1561 O 153.919 -1.64613 0.56992 0
M  V30 1562 C 151.051 -3.18284 1.22098 0
M  V30 1563 H 152.244 -1.80658 2.3938 0
M  V30 1564 H 149.797 -0.911329 1.26982 0
M  V30 1565 H 150.532 -3.23306 0.253672 0
M  V30 1566 H 150.317 -3.35843 2.02366 0
M  V30 1567 H 151.807 -3.98289 1.25522 0
M  V30 1568 N 152.244 -1.26651 -0.937939 0
M  V30 1569 C 153.521 -1.0313 -1.66204 0
M  V30 1570 C 153.901 0.437256 -2.06522 0
M  V30 1571 O 153.249 1.41831 -1.79154 0
M  V30 1572 C 153.459 -1.98314 -2.87181 0
M  V30 1573 C 154.807 -2.27107 -3.58758 0
M  V30 1574 O 155.831 -1.96205 -2.97291 0
M  V30 1575 O 154.69 -2.79736 -4.69479 0
M  V30 1576 H 151.784 -0.392384 -0.727986 0
M  V30 1577 H 154.33 -1.37874 -0.989382 0
M  V30 1578 H 153.102 -2.97399 -2.54302 0
M  V30 1579 H 152.725 -1.64068 -3.6217 0
M  V30 1580 N 153.722 1.14298 -1.08507 0
M  V30 1581 C 154.67 2.21483 -0.710483 0
M  V30 1582 C 155.664 1.66998 0.284234 0
M  V30 1583 O 156.87 1.79401 0.146692 0
M  V30 1584 H 153.245 0.721578 -0.211729 0
M  V30 1585 H 155.216 2.50348 -1.62384 0
M  V30 1586 C 153.965 3.4743 -0.137007 0
M  V30 1587 H 153.288 3.89686 -0.893592 0
M  V30 1588 H 154.728 4.2391 0.0872789 0
M  V30 1589 C 153.187 3.17548 1.12538 0
M  V30 1590 O 153.717 3.35437 2.21009 0
M  V30 1591 N 151.923 2.71499 1.03617 0
M  V30 1592 H 151.47 2.57143 0.153403 0
M  V30 1593 H 151.428 2.51881 1.88158 0
M  V30 1594 N 155.201 0.870884 1.31352 0
M  V30 1595 C 156.148 0.325425 2.28494 0
M  V30 1596 C 157.118 -0.576615 1.5577 0
M  V30 1597 O 158.303 -0.508059 1.83911 0
M  V30 1598 C 155.443 -0.466283 3.41935 0
M  V30 1599 C 154.556 0.463378 4.29508 0
M  V30 1600 C 153.691 -0.342544 5.30094 0
M  V30 1601 C 152.73 0.583486 6.09313 0
M  V30 1602 N 151.867 -0.186244 7.01853 0
M  V30 1603 H 156.707 1.15901 2.74538 0
M  V30 1604 H 154.244 0.58294 1.35056 0
M  V30 1605 H 156.202 -0.941085 4.06447 0
M  V30 1606 H 154.832 -1.26456 2.97 0
M  V30 1607 H 153.884 1.05663 3.65431 0
M  V30 1608 H 155.196 1.1734 4.84802 0
M  V30 1609 H 154.35 -0.879816 6.00287 0
M  V30 1610 H 153.089 -1.08585 4.75458 0
M  V30 1611 H 152.094 1.13251 5.3801 0
M  V30 1612 H 153.319 1.32566 6.66035 0
M  V30 1613 H 151.265 -0.912348 6.49625 0
M  V30 1614 H 151.182 0.464422 7.54572 0
M  V30 1615 H 152.45 -0.704716 7.76308 0
M  V30 1616 N 156.679 -1.44442 0.630414 0
M  V30 1617 C 157.925 -2.02351 0.134816 0
M  V30 1618 C 158.258 -1.4947 -1.23986 0
M  V30 1619 O 157.533 -0.678475 -1.82283 0
M  V30 1620 C 157.816 -3.59898 0.120707 0
M  V30 1621 C 157.669 -4.23063 1.52767 0
M  V30 1622 C 158.988 -4.36585 -0.555127 0
M  V30 1623 H 156.107 -0.73527 0.0504646 0
M  V30 1624 H 158.749 -1.72022 0.806751 0
M  V30 1625 H 156.899 -3.85868 -0.451477 0
M  V30 1626 H 158.571 -4.08202 2.14869 0
M  V30 1627 H 156.814 -3.80586 2.08175 0
M  V30 1628 H 157.485 -5.32071 1.46984 0
M  V30 1629 H 159.961 -4.16044 -0.0685429 0
M  V30 1630 H 158.837 -5.46294 -0.534185 0
M  V30 1631 H 159.098 -4.11138 -1.62535 0
M  V30 1632 N 158.157 -0.370918 -1.53173 0
M  V30 1633 C 159.403 0.217423 -2.01631 0
M  V30 1634 C 159.736 1.47983 -1.25756 0
M  V30 1635 O 159.011 1.91274 -0.352764 0
M  V30 1636 C 159.294 0.503982 -3.56556 0
M  V30 1637 C 159.147 -0.77243 -4.43118 0
M  V30 1638 C 160.466 1.30234 -4.20389 0
M  V30 1639 H 157.585 0.0775486 -0.732909 0
M  V30 1640 H 160.227 -0.496863 -1.83388 0
M  V30 1641 H 158.377 1.11248 -3.72231 0
M  V30 1642 H 160.049 -1.4098 -4.39229 0
M  V30 1643 H 158.292 -1.39167 -4.10871 0
M  V30 1644 H 158.963 -0.526815 -5.4948 0
M  V30 1645 H 161.439 0.787546 -4.08579 0
M  V30 1646 H 160.315 1.47158 -5.28806 0
M  V30 1647 H 160.576 2.31237 -3.76805 0
M  V30 1648 N 159.635 1.57281 -0.100228 0
M  V30 1649 C 160.875 1.96419 0.56558 0
M  V30 1650 C 161.239 0.981265 1.65031 0
M  V30 1651 O 162.44 1.26133 2.37369 0
M  V30 1652 C 160.711 3.39996 1.10171 0
M  V30 1653 S 162.27 4.01134 1.77867 0
M  V30 1654 H 159.088 0.68667 0.184406 0
M  V30 1655 H 161.69 1.94662 -0.180851 0
M  V30 1656 H 160.394 4.09296 0.300803 0
M  V30 1657 H 159.925 3.45361 1.88385 0
M  V30 1658 H 161.94 3.90358 3.06326 0
M  V30 1659 N 161.113 -0.173488 1.56642 0
M  V30 1660 C 162.338 -0.910149 1.86363 0
M  V30 1661 C 162.763 -1.75132 0.686318 0
M  V30 1662 O 162.121 -1.77595 -0.364643 0
M  V30 1663 C 162.169 -1.76447 3.14482 0
M  V30 1664 O 161.273 -2.86584 2.96553 0
M  V30 1665 H 160.614 -0.255086 0.613047 0
M  V30 1666 H 163.144 -0.172283 2.03873 0
M  V30 1667 H 163.154 -2.16483 3.45831 0
M  V30 1668 H 161.829 -1.14658 3.99783 0
M  V30 1669 H 160.406 -2.50146 2.76553 0
M  V30 1670 N 162.591 -1.51276 -0.441967 0
M  V30 1671 C 163.831 -1.65372 -1.20132 0
M  V30 1672 C 164.195 -0.359871 -1.88597 0
M  V30 1673 O 165.396 -0.376551 -2.66149 0
M  V30 1674 C 163.667 -2.8207 -2.1948 0
M  V30 1675 S 165.226 -3.16467 -3.03964 0
M  V30 1676 H 162.044 -0.582669 -0.407453 0
M  V30 1677 H 164.646 -1.89166 -0.493609 0
M  V30 1678 H 163.35 -3.74523 -1.67812 0
M  V30 1679 H 162.881 -2.6045 -2.94838 0
M  V30 1680 H 164.896 -2.62543 -4.21053 0
M  V30 1681 N 164.069 0.697108 -1.41344 0
M  V30 1682 C 165.297 1.48593 -1.43972 0
M  V30 1683 C 165.712 1.88747 -0.0445612 0
M  V30 1684 O 165.069 1.56682 0.935785 0
M  V30 1685 C 165.12 2.74946 -2.34706 0
M  V30 1686 O 164.841 2.36484 -3.68791 0
M  V30 1687 C 166.342 3.687 -2.46121 0
M  V30 1688 H 163.562 0.457964 -0.490418 0
M  V30 1689 H 166.106 0.858429 -1.8561 0
M  V30 1690 H 164.261 3.33937 -1.9638 0
M  V30 1691 H 164.675 3.17918 -4.17167 0
M  V30 1692 H 166.149 4.54145 -3.13777 0
M  V30 1693 H 166.626 4.13081 -1.49199 0
M  V30 1694 H 167.232 3.15613 -2.85076 0
M  V30 1695 N 165.547 1.27147 0.931209 0
M  V30 1696 C 166.457 1.11372 2.06478 0
M  V30 1697 C 167.473 0.044645 1.73943 0
M  V30 1698 O 168.649 0.250417 1.99837 0
M  V30 1699 C 165.714 0.758838 3.38294 0
M  V30 1700 C 164.775 1.90841 3.84549 0
M  V30 1701 C 164.008 1.57036 5.10074 0
M  V30 1702 O 164.231 0.476645 5.68405 0
M  V30 1703 O 163.165 2.40839 5.51616 0
M  V30 1704 H 166.991 2.06493 2.22698 0
M  V30 1705 H 164.576 1.06301 1.04978 0
M  V30 1706 H 166.458 0.574098 4.17471 0
M  V30 1707 H 165.133 -0.162879 3.2329 0
M  V30 1708 H 164.04 2.14819 3.06274 0
M  V30 1709 H 165.373 2.81021 4.04089 0
M  V30 1710 N 167.025 -1.13721 1.09112 0
M  V30 1711 C 168.273 -1.84559 0.823562 0
M  V30 1712 C 168.594 -1.83754 -0.652658 0
M  V30 1713 O 167.864 -1.29102 -1.47342 0
M  V30 1714 H 166.444 -0.683376 0.301673 0
M  V30 1715 H 169.106 -1.37771 1.37859 0
M  V30 1716 H 168.202 -2.8917 1.17419 0
M  V30 1717 N 168.503 -0.877838 -1.30888 0
M  V30 1718 C 169.733 -0.506678 -2.00291 0
M  V30 1719 C 170.141 0.907449 -1.66018 0
M  V30 1720 O 169.484 1.60719 -0.88967 0
M  V30 1721 C 169.546 -0.59323 -3.54572 0
M  V30 1722 C 169.21 -1.97038 -4.12341 0
M  V30 1723 C 170.207 -2.93889 -4.28865 0
M  V30 1724 C 167.892 -2.27383 -4.47886 0
M  V30 1725 C 169.886 -4.19224 -4.80136 0
M  V30 1726 C 167.573 -3.52965 -4.98857 0
M  V30 1727 C 168.571 -4.48701 -5.14934 0
M  V30 1728 O 168.259 -5.72056 -5.64808 0
M  V30 1729 H 167.991 -0.1951 -0.647234 0
M  V30 1730 H 170.545 -1.18301 -1.6791 0
M  V30 1731 H 168.775 0.140057 -3.86446 0
M  V30 1732 H 170.464 -0.234372 -4.05223 0
M  V30 1733 H 171.23 -2.71756 -4.01714 0
M  V30 1734 H 167.109 -1.53639 -4.34645 0
M  V30 1735 H 170.653 -4.93956 -4.92599 0
M  V30 1736 H 166.55 -3.74939 -5.25443 0
M  V30 1737 H 167.318 -5.74337 -5.83163 0
M  V30 1738 N 169.982 1.44106 -0.638065 0
M  V30 1739 C 171.398 1.56672 -0.304286 0
M  V30 1740 C 171.598 1.6244 1.19228 0
M  V30 1741 O 170.654 1.57121 1.9766 0
M  V30 1742 C 171.967 2.83503 -1.00231 0
M  V30 1743 C 173.515 2.97226 -0.981116 0
M  V30 1744 C 173.99 4.26868 -1.65974 0
M  V30 1745 N 175.481 4.33698 -1.62666 0
M  V30 1746 C 176.216 5.32745 -2.12063 0
M  V30 1747 N 175.712 6.38157 -2.6968 0
M  V30 1748 N 177.505 5.24299 -2.02651 0
M  V30 1749 H 169.656 1.38605 -1.60942 0
M  V30 1750 H 171.919 0.664661 -0.675965 0
M  V30 1751 H 171.625 2.85251 -2.0573 0
M  V30 1752 H 171.499 3.73251 -0.54439 0
M  V30 1753 H 173.886 2.95027 0.0654188 0
M  V30 1754 H 173.967 2.08808 -1.47759 0
M  V30 1755 H 173.611 4.29826 -2.70576 0
M  V30 1756 H 173.541 5.14156 -1.13804 0
M  V30 1757 H 176.032 3.58138 -1.20606 0
M  V30 1758 H 176.345 7.10029 -3.05087 0
M  V30 1759 H 174.69 6.38823 -2.73734 0
M  V30 1760 H 177.881 4.4086 -1.57353 0
M  V30 1761 H 178.054 6.01334 -2.41457 0
M  V30 1762 N 171.46 0.379036 1.52974 0
M  V30 1763 C 172.39 -0.452706 2.29069 0
M  V30 1764 C 173.371 -1.07237 1.32039 0
M  V30 1765 O 174.556 -1.08708 1.60923 0
M  V30 1766 C 171.686 -1.5856 3.08992 0
M  V30 1767 C 170.64 -1.0925 4.13822 0
M  V30 1768 C 169.966 -2.31668 4.81907 0
M  V30 1769 C 171.266 -0.167702 5.22031 0
M  V30 1770 H 172.96 0.182181 2.98845 0
M  V30 1771 H 170.506 0.0890592 1.43724 0
M  V30 1772 H 172.459 -2.1742 3.6098 0
M  V30 1773 H 171.183 -2.24792 2.36931 0
M  V30 1774 H 169.842 -0.526494 3.628 0
M  V30 1775 H 169.49 -2.96386 4.06404 0
M  V30 1776 H 169.19 -1.9934 5.52754 0
M  V30 1777 H 170.714 -2.91189 5.36695 0
M  V30 1778 H 172.128 -0.664186 5.6944 0
M  V30 1779 H 170.525 0.0653265 6.00064 0
M  V30 1780 H 171.595 0.786347 4.78482 0
M  V30 1781 N 172.938 -1.57226 0.108567 0
M  V30 1782 C 173.901 -2.13602 -0.831082 0
M  V30 1783 C 174.901 -1.06841 -1.20173 0
M  V30 1784 O 176.091 -1.32666 -1.12895 0
M  V30 1785 C 173.223 -2.66769 -2.12243 0
M  V30 1786 H 174.416 -2.97951 -0.341317 0
M  V30 1787 H 171.969 -1.55667 -0.14057 0
M  V30 1788 H 172.704 -1.85977 -2.65675 0
M  V30 1789 H 172.489 -3.44839 -1.86625 0
M  V30 1790 H 173.979 -3.10332 -2.79435 0
M  V30 1791 N 174.416 0.165178 -1.56732 0
M  V30 1792 C 175.326 1.22423 -2.00125 0
M  V30 1793 C 176.342 1.48084 -0.913619 0
M  V30 1794 O 177.518 1.60112 -1.22172 0
M  V30 1795 C 174.583 2.54197 -2.35764 0
M  V30 1796 C 173.644 2.36343 -3.58386 0
M  V30 1797 C 172.877 3.61834 -3.92316 0
M  V30 1798 O 173.1 4.67267 -3.27135 0
M  V30 1799 O 172.034 3.55579 -4.85641 0
M  V30 1800 H 175.86 0.885886 -2.90492 0
M  V30 1801 H 173.445 0.372518 -1.44681 0
M  V30 1802 H 175.327 3.3192 -2.59629 0
M  V30 1803 H 174.002 2.87598 -1.48557 0
M  V30 1804 H 172.909 1.56632 -3.39731 0
M  V30 1805 H 174.242 2.07865 -4.46154 0
M  V30 1806 N 175.894 1.51508 0.433938 0
M  V30 1807 C 176.842 1.73646 1.54757 0
M  V30 1808 C 177.836 0.602854 1.5831 0
M  V30 1809 O 179.042 0.784318 1.62014 0
M  V30 1810 H 175.417 0.548718 0.51421 0
M  V30 1811 H 177.388 2.66991 1.33261 0
M  V30 1812 C 176.137 1.88172 2.92381 0
M  V30 1813 H 175.46 2.74808 2.90381 0
M  V30 1814 H 176.9 2.07672 3.6966 0
M  V30 1815 C 175.359 0.64239 3.30719 0
M  V30 1816 O 175.889 -0.201362 4.01195 0
M  V30 1817 N 174.095 0.485489 2.86516 0
M  V30 1818 H 173.642 1.17318 2.29334 0
M  V30 1819 H 173.6 -0.342482 3.12529 0
M  V30 1820 N 177.372 -0.689602 1.41712 0
M  V30 1821 C 178.304 -1.815 1.39966 0
M  V30 1822 C 179.317 -1.59995 0.300917 0
M  V30 1823 O 180.506 -1.69387 0.563039 0
M  V30 1824 C 177.606 -3.18364 1.16179 0
M  V30 1825 C 176.779 -3.66847 2.38206 0
M  V30 1826 C 175.838 -4.82398 2.10186 0
M  V30 1827 O 174.864 -4.93706 2.83272 0
M  V30 1828 N 176.066 -5.70064 1.0958 0
M  V30 1829 H 178.831 -1.83488 2.36965 0
M  V30 1830 H 176.392 -0.872149 1.36401 0
M  V30 1831 H 178.384 -3.93301 0.953756 0
M  V30 1832 H 176.954 -3.11365 0.27756 0
M  V30 1833 H 176.174 -2.82751 2.74673 0
M  V30 1834 H 177.462 -3.95978 3.19498 0
M  V30 1835 H 176.86 -5.63565 0.491019 0
M  V30 1836 H 175.417 -6.44874 0.947656 0
M  V30 1837 N 178.85 -1.27639 -0.924453 0
M  V30 1838 C 179.797 -1.10644 -2.0255 0
M  V30 1839 C 180.767 -0.00658438 -1.66099 0
M  V30 1840 O 181.952 -0.16952 -1.90045 0
M  V30 1841 C 179.092 -0.76309 -3.36557 0
M  V30 1842 C 178.205 -1.94091 -3.85944 0
M  V30 1843 C 177.34 -1.53914 -5.08413 0
M  V30 1844 C 176.379 -2.68425 -5.50104 0
M  V30 1845 N 175.516 -2.28815 -6.63768 0
M  V30 1846 H 180.356 -2.04858 -2.16419 0
M  V30 1847 H 177.893 -1.01974 -1.06017 0
M  V30 1848 H 179.851 -0.544822 -4.13627 0
M  V30 1849 H 178.481 0.142102 -3.22487 0
M  V30 1850 H 177.533 -2.27162 -3.05125 0
M  V30 1851 H 178.845 -2.7998 -4.12811 0
M  V30 1852 H 177.999 -1.28231 -5.92994 0
M  V30 1853 H 176.738 -0.651391 -4.8333 0
M  V30 1854 H 175.743 -2.94819 -4.64071 0
M  V30 1855 H 176.968 -3.57826 -5.7718 0
M  V30 1856 H 174.914 -1.42495 -6.40337 0
M  V30 1857 H 174.831 -3.08242 -6.90306 0
M  V30 1858 H 176.099 -2.06387 -7.51681 0
M  V30 1859 N 180.328 1.1314 -1.09713 0
M  V30 1860 C 181.553 1.88862 -0.857081 0
M  V30 1861 C 181.978 1.78729 0.586304 0
M  V30 1862 O 181.336 1.13692 1.41222 0
M  V30 1863 C 181.384 3.36325 -1.30069 0
M  V30 1864 O 180.488 4.09815 -0.461007 0
M  V30 1865 H 179.829 0.587108 -0.310162 0
M  V30 1866 H 182.359 1.43129 -1.46203 0
M  V30 1867 H 182.369 3.87157 -1.28738 0
M  V30 1868 H 181.044 3.43017 -2.35185 0
M  V30 1869 H 179.621 3.68986 -0.538888 0
M  V30 1870 N 181.806 0.884767 1.30421 0
M  V30 1871 C 183.046 0.509806 1.9794 0
M  V30 1872 C 183.41 -0.923736 1.68319 0
M  V30 1873 O 184.611 -1.40481 2.29169 0
M  V30 1874 C 182.882 0.776732 3.48858 0
M  V30 1875 S 184.441 0.503843 4.35898 0
M  V30 1876 H 181.259 0.189699 0.685227 0
M  V30 1877 H 183.861 1.14399 1.58535 0
M  V30 1878 H 182.565 1.81857 3.67908 0
M  V30 1879 H 182.096 0.1301 3.93185 0
M  V30 1880 H 184.111 -0.657625 4.91823 0
M  V30 1881 N 183.284 -1.43765 0.645699 0
M  V30 1882 C 184.194 -2.34544 -0.0512957 0
M  V30 1883 C 185.21 -1.53455 -0.82022 0
M  V30 1884 O 186.386 -1.86133 -0.769176 0
M  V30 1885 C 183.451 -3.31636 -1.01087 0
M  V30 1886 C 182.512 -4.2863 -0.239712 0
M  V30 1887 C 181.745 -5.21084 -1.15358 0
M  V30 1888 O 181.968 -5.1779 -2.39269 0
M  V30 1889 O 180.902 -5.98593 -0.630038 0
M  V30 1890 H 184.728 -2.95624 0.695718 0
M  V30 1891 H 182.313 -1.43781 0.405882 0
M  V30 1892 H 184.195 -3.9136 -1.56254 0
M  V30 1893 H 182.87 -2.73069 -1.73824 0
M  V30 1894 H 181.777 -3.72408 0.355356 0
M  V30 1895 H 183.11 -4.90157 0.447936 0
M  V30 1896 N 184.763 -0.387143 -1.52771 0
M  V30 1897 C 186.174 0.0873634 -1.86495 0
M  V30 1898 C 186.525 1.46336 -1.30691 0
M  V30 1899 O 185.65 2.068 -0.637409 0
M  V30 1900 C 186.245 0.165305 -3.38396 0
M  V30 1901 C 184.804 0.584101 -3.7184 0
M  V30 1902 C 183.951 -0.255279 -2.76122 0
M  V30 1903 H 186.902 -0.605104 -1.46711 0
M  V30 1904 H 186.923 0.984848 -3.67534 0
M  V30 1905 H 186.435 -0.836301 -3.78982 0
M  V30 1906 H 184.536 1.59315 -3.36823 0
M  V30 1907 H 184.649 0.343749 -4.77865 0
M  V30 1908 H 183.013 0.279126 -2.53166 0
M  V30 1909 H 183.796 -1.25482 -3.19545 0
M  V30 1910 N 186.241 1.57166 -0.116904 0
M  V30 1911 C 187.204 2.14039 0.819742 0
M  V30 1912 C 188.204 1.07477 1.19605 0
M  V30 1913 O 189.394 1.33263 1.1219 0
M  V30 1914 C 186.526 2.67891 2.10826 0
M  V30 1915 H 187.719 2.98128 0.325511 0
M  V30 1916 H 185.272 1.55739 0.132312 0
M  V30 1917 H 186.007 1.87384 2.64685 0
M  V30 1918 H 185.792 3.45823 1.84793 0
M  V30 1919 H 187.282 3.11809 2.77785 0
M  V30 1920 N 187.719 -0.156864 1.56817 0
M  V30 1921 C 188.965 -0.872416 1.83076 0
M  V30 1922 C 189.298 -1.81261 0.697001 0
M  V30 1923 O 188.573 -1.92171 -0.30008 0
M  V30 1924 C 188.856 -1.65551 3.19789 0
M  V30 1925 C 188.709 -0.737467 4.43713 0
M  V30 1926 C 190.028 -2.62012 3.53606 0
M  V30 1927 H 187.147 -0.315715 0.665953 0
M  V30 1928 H 189.789 -0.138004 1.89498 0
M  V30 1929 H 187.939 -2.28159 3.14445 0
M  V30 1930 H 189.611 -0.123143 4.61136 0
M  V30 1931 H 187.854 -0.0464067 4.33775 0
M  V30 1932 H 188.525 -1.32122 5.35955 0
M  V30 1933 H 191.001 -2.09525 3.59497 0
M  V30 1934 H 189.877 -3.13861 4.50314 0
M  V30 1935 H 190.138 -3.42902 2.79053 0
M  V30 1936 N 189.197 -1.51736 -0.425897 0
M  V30 1937 C 190.608 -1.5732 -1.00536 0
M  V30 1938 C 190.959 -0.403537 -1.92005 0
M  V30 1939 O 190.084 0.478256 -2.11049 0
M  V30 1940 C 190.679 -2.85119 -1.8301 0
M  V30 1941 C 189.238 -2.93236 -2.35987 0
M  V30 1942 C 188.385 -2.52098 -1.15508 0
M  V30 1943 H 191.336 -1.57348 -0.206739 0
M  V30 1944 H 191.357 -2.69526 -2.68581 0
M  V30 1945 H 190.869 -3.7023 -1.16411 0
M  V30 1946 H 188.97 -2.12581 -3.06007 0
M  V30 1947 H 189.083 -3.9713 -2.68001 0
M  V30 1948 H 187.447 -2.05558 -1.50393 0
M  V30 1949 H 188.23 -3.39565 -0.505014 0
M  V30 1950 N 190.675 0.682077 -1.42076 0
M  V30 1951 C 191.922 1.44215 -1.42156 0
M  V30 1952 C 192.25 1.94468 -0.0354186 0
M  V30 1953 O 191.505 1.70816 0.955002 0
M  V30 1954 C 191.804 2.66036 -2.38662 0
M  V30 1955 C 191.47 2.34366 -3.85206 0
M  V30 1956 C 190.132 2.25439 -4.25124 0
M  V30 1957 C 192.484 2.08513 -4.77673 0
M  V30 1958 C 189.812 1.88775 -5.55501 0
M  V30 1959 C 192.164 1.73354 -6.08384 0
M  V30 1960 C 190.828 1.62933 -6.47309 0
M  V30 1961 H 190.098 0.527718 -0.520187 0
M  V30 1962 H 192.745 0.778387 -1.74967 0
M  V30 1963 H 191.05 3.3741 -1.99152 0
M  V30 1964 H 192.747 3.24205 -2.35991 0
M  V30 1965 H 189.337 2.42213 -3.53597 0
M  V30 1966 H 193.521 2.14346 -4.47626 0
M  V30 1967 H 188.777 1.7927 -5.84527 0
M  V30 1968 H 192.951 1.52373 -6.79526 0
M  V30 1969 H 190.578 1.34292 -7.48244 0
M  V30 1970 N 192.153 1.28127 0.917671 0
M  V30 1971 C 193.564 1.13622 1.48145 0
M  V30 1972 C 193.915 -0.275207 1.9426 0
M  V30 1973 O 193.04 -1.1691 1.82102 0
M  V30 1974 C 193.635 2.05648 2.69248 0
M  V30 1975 C 192.194 1.95219 3.21818 0
M  V30 1976 C 191.341 1.97618 1.94532 0
M  V30 1977 H 194.292 1.40874 0.730772 0
M  V30 1978 H 194.313 1.61818 3.44377 0
M  V30 1979 H 193.825 3.08365 2.35653 0
M  V30 1980 H 191.926 0.955244 3.60147 0
M  V30 1981 H 192.039 2.81976 3.87333 0
M  V30 1982 H 190.403 1.41973 2.11461 0
M  V30 1983 H 191.186 3.02007 1.63238 0
M  V30 1984 N 193.631 -1.12557 1.10312 0
M  V30 1985 C 194.871 -1.8568 0.854543 0
M  V30 1986 C 195.235 -1.82091 -0.608843 0
M  V30 1987 O 196.436 -2.50544 -0.973717 0
M  V30 1988 C 194.707 -3.2942 1.38626 0
M  V30 1989 S 196.266 -4.19931 1.27293 0
M  V30 1990 H 193.084 -0.640427 0.308827 0
M  V30 1991 H 195.686 -1.35599 1.40831 0
M  V30 1992 H 194.39 -3.2959 2.44537 0
M  V30 1993 H 193.921 -3.84566 0.82902 0
M  V30 1994 H 195.936 -4.95668 0.229776 0
M  V30 1995 N 195.109 -0.891671 -1.2995 0
M  V30 1996 C 196.357 -0.512486 -1.95494 0
M  V30 1997 C 196.678 0.942776 -1.70695 0
M  V30 1998 O 195.948 1.66374 -1.03424 0
M  V30 1999 H 194.528 -0.186533 -0.723336 0
M  V30 2000 H 197.19 -1.13621 -1.58355 0
M  V30 2001 H 196.286 -0.688342 -3.04415 0
M  V30 2002 N 196.587 1.43421 -0.653314 0
M  V30 2003 C 198.003 1.56341 -0.320886 0
M  V30 2004 C 198.203 1.63696 1.17499 0
M  V30 2005 O 197.259 1.59208 1.95982 0
M  V30 2006 C 198.572 2.82424 -1.03233 0
M  V30 2007 C 200.12 2.96168 -1.01259 0
M  V30 2008 C 200.595 4.25084 -1.70492 0
M  V30 2009 N 202.086 4.31948 -1.67257 0
M  V30 2010 C 202.821 5.30466 -2.17701 0
M  V30 2011 N 202.317 6.35261 -2.76434 0
M  V30 2012 N 204.11 5.2212 -2.082 0
M  V30 2013 H 196.261 1.3689 -1.62403 0
M  V30 2014 H 198.524 0.657455 -0.682977 0
M  V30 2015 H 198.23 2.83053 -2.08744 0
M  V30 2016 H 198.104 3.72653 -0.583948 0
M  V30 2017 H 200.491 2.9508 0.0341235 0
M  V30 2018 H 200.572 2.07229 -1.49966 0
M  V30 2019 H 200.216 4.26932 -2.7512 0
M  V30 2020 H 200.146 5.1292 -1.19251 0
M  V30 2021 H 202.637 3.56838 -1.24398 0
M  V30 2022 H 202.95 7.06754 -3.12601 0
M  V30 2023 H 201.295 6.35884 -2.80495 0
M  V30 2024 H 204.486 4.39166 -1.62021 0
M  V30 2025 H 204.659 5.98739 -2.47822 0
M  V30 2026 N 198.065 0.39524 1.52563 0
M  V30 2027 C 199.311 -0.185318 2.01952 0
M  V30 2028 C 199.644 -1.45964 1.28095 0
M  V30 2029 O 198.919 -1.90689 0.38315 0
M  V30 2030 C 199.202 -0.447193 3.57312 0
M  V30 2031 C 199.055 0.842828 4.41833 0
M  V30 2032 C 200.374 -1.23529 4.22408 0
M  V30 2033 H 197.493 -0.0658788 0.73405 0
M  V30 2034 H 200.135 0.525975 1.82575 0
M  V30 2035 H 198.285 -1.05312 3.73954 0
M  V30 2036 H 199.957 1.4795 4.36931 0
M  V30 2037 H 198.2 1.45686 4.08605 0
M  V30 2038 H 198.871 0.614165 5.48573 0
M  V30 2039 H 201.347 -0.722445 4.0978 0
M  V30 2040 H 200.223 -1.38727 5.3108 0
M  V30 2041 H 200.484 -2.25213 3.80436 0
M  V30 2042 N 199.544 -1.57102 0.125237 0
M  V30 2043 C 200.769 -2.0019 -0.542101 0
M  V30 2044 C 201.194 -1.00449 -1.59034 0
M  V30 2045 O 200.552 0.0229423 -1.81285 0
M  V30 2046 C 200.6 -3.42129 -1.13929 0
M  V30 2047 O 199.704 -3.45307 -2.2547 0
M  V30 2048 H 199.045 -0.650171 -0.134812 0
M  V30 2049 H 201.575 -2.03461 0.215553 0
M  V30 2050 H 201.585 -3.80471 -1.4733 0
M  V30 2051 H 200.26 -4.14237 -0.371531 0
M  V30 2052 H 198.837 -3.1879 -1.93462 0
M  V30 2053 N 201.022 0.148545 -1.56898 0
M  V30 2054 C 202.268 0.862694 -1.83536 0
M  V30 2055 C 202.601 1.80889 -0.706604 0
M  V30 2056 O 201.876 1.92328 0.289885 0
M  V30 2057 C 202.159 1.63853 -3.20662 0
M  V30 2058 C 202.012 0.713925 -4.44098 0
M  V30 2059 C 203.331 2.60133 -3.54991 0
M  V30 2060 H 200.45 0.312179 -0.667618 0
M  V30 2061 H 203.092 0.127953 -1.89569 0
M  V30 2062 H 201.242 2.26489 -3.1565 0
M  V30 2063 H 202.914 0.098686 -4.61194 0
M  V30 2064 H 201.157 0.0234019 -4.33794 0
M  V30 2065 H 201.828 1.29278 -5.36648 0
M  V30 2066 H 204.304 2.07616 -3.60603 0
M  V30 2067 H 203.18 3.11468 -4.51972 0
M  V30 2068 H 203.441 3.41417 -2.80868 0
M  V30 2069 N 202.5 1.5196 0.417844 0
M  V30 2070 C 203.725 1.69717 1.1921 0
M  V30 2071 C 204.15 0.402148 1.83751 0
M  V30 2072 O 203.508 -0.639593 1.69643 0
M  V30 2073 C 203.556 2.82794 2.2374 0
M  V30 2074 O 202.66 2.47756 3.29683 0
M  V30 2075 H 202.001 0.565263 0.348387 0
M  V30 2076 H 204.531 1.98621 0.490985 0
M  V30 2077 H 204.541 3.07452 2.68212 0
M  V30 2078 H 203.216 3.76756 1.76146 0
M  V30 2079 H 201.793 2.33739 2.90552 0
M  V30 2080 N 203.978 -0.674533 1.42435 0
M  V30 2081 C 204.91 -1.80005 1.41883 0
M  V30 2082 C 205.923 -1.59667 0.31787 0
M  V30 2083 O 207.112 -1.68781 0.580973 0
M  V30 2084 C 204.212 -3.17114 1.19549 0
M  V30 2085 C 203.385 -3.64299 2.42084 0
M  V30 2086 C 202.444 -4.80142 2.15291 0
M  V30 2087 O 201.47 -4.90673 2.88493 0
M  V30 2088 N 202.672 -5.68869 1.1562 0
M  V30 2089 H 205.437 -1.80964 2.38898 0
M  V30 2090 H 202.998 -0.857633 1.37318 0
M  V30 2091 H 204.99 -3.92267 0.995417 0
M  V30 2092 H 203.56 -3.11053 0.310569 0
M  V30 2093 H 202.78 -2.79822 2.77657 0
M  V30 2094 H 204.068 -3.92567 3.23679 0
M  V30 2095 H 203.466 -5.63012 0.550765 0
M  V30 2096 H 202.023 -6.43833 1.016 0
M  V30 2097 N 205.456 -1.28612 -0.910864 0
M  V30 2098 C 206.684 -1.18792 -1.69399 0
M  V30 2099 C 207.099 0.253039 -1.87097 0
M  V30 2100 O 206.456 1.17071 -1.40003 0
M  V30 2101 C 206.507 -1.88511 -3.08457 0
M  V30 2102 O 206.228 -3.26979 -2.91576 0
M  V30 2103 C 207.729 -1.85029 -4.02839 0
M  V30 2104 H 204.949 -0.412233 -0.529438 0
M  V30 2105 H 207.493 -1.69788 -1.13984 0
M  V30 2106 H 205.648 -1.41379 -3.60681 0
M  V30 2107 H 206.062 -3.61936 -3.79608 0
M  V30 2108 H 207.536 -2.38395 -4.97867 0
M  V30 2109 H 208.013 -0.823303 -4.31414 0
M  V30 2110 H 208.619 -2.31853 -3.56545 0
M  V30 2111 N 206.934 1.1197 -1.10907 0
M  V30 2112 C 208.159 1.87942 -0.877064 0
M  V30 2113 C 208.584 1.79341 0.567314 0
M  V30 2114 O 207.942 1.15184 1.40009 0
M  V30 2115 C 207.99 3.34926 -1.33629 0
M  V30 2116 O 207.094 4.09303 -0.504447 0
M  V30 2117 H 206.435 0.583785 -0.316371 0
M  V30 2118 H 208.965 1.4157 -1.47712 0
M  V30 2119 H 208.975 3.8577 -1.32837 0
M  V30 2120 H 207.65 3.40504 -2.3881 0
M  V30 2121 H 206.227 3.68393 -0.577993 0
M  V30 2122 N 208.412 0.89855 1.29475 0
M  V30 2123 C 209.359 0.373819 2.27753 0
M  V30 2124 C 210.329 -0.543444 1.56958 0
M  V30 2125 O 211.514 -0.468934 1.84948 0
M  V30 2126 C 208.654 -0.393648 3.42848 0
M  V30 2127 C 207.767 0.554379 4.28428 0
M  V30 2128 C 206.902 -0.230026 5.30702 0
M  V30 2129 C 205.941 0.712599 6.07938 0
M  V30 2130 N 205.078 -0.0373283 7.0209 0
M  V30 2131 H 209.918 1.21699 2.72017 0
M  V30 2132 H 207.455 0.611456 1.33789 0
M  V30 2133 H 209.413 -0.85466 4.08352 0
M  V30 2134 H 208.043 -1.20128 2.99615 0
M  V30 2135 H 207.095 1.13391 3.63107 0
M  V30 2136 H 208.407 1.27597 4.82204 0
M  V30 2137 H 207.561 -0.752288 6.02018 0
M  V30 2138 H 206.3 -0.984758 4.77654 0
M  V30 2139 H 205.305 1.24637 5.35486 0
M  V30 2140 H 206.53 1.46664 6.63074 0
M  V30 2141 H 204.476 -0.774348 6.51414 0
M  V30 2142 H 204.393 0.624374 7.53417 0
M  V30 2143 H 205.661 -0.539891 7.77628 0
M  V30 2144 N 209.89 -1.43072 0.660911 0
M  V30 2145 C 210.82 -2.33497 -0.0122829 0
M  V30 2146 C 211.801 -1.49903 -0.803925 0
M  V30 2147 O 212.986 -1.78546 -0.763864 0
M  V30 2148 C 210.116 -3.33363 -0.973994 0
M  V30 2149 C 209.07 -4.27003 -0.291928 0
M  V30 2150 C 208.396 -5.16967 -1.36562 0
M  V30 2151 C 209.696 -5.15816 0.820462 0
M  V30 2152 H 211.39 -2.90038 0.742873 0
M  V30 2153 H 208.936 -1.39461 0.358688 0
M  V30 2154 H 210.889 -3.95524 -1.45392 0
M  V30 2155 H 209.613 -2.75095 -1.7604 0
M  V30 2156 H 208.272 -3.66217 0.167623 0
M  V30 2157 H 207.92 -4.55034 -2.14366 0
M  V30 2158 H 207.62 -5.80441 -0.914454 0
M  V30 2159 H 209.144 -5.82003 -1.84675 0
M  V30 2160 H 210.558 -5.71742 0.422366 0
M  V30 2161 H 208.955 -5.8805 1.19656 0
M  V30 2162 H 210.025 -4.55045 1.67518 0
M  V30 2163 N 211.368 -0.403325 -1.52352 0
M  V30 2164 C 212.596 0.174012 -2.06167 0
M  V30 2165 C 213.011 1.39347 -1.27388 0
M  V30 2166 O 212.368 1.79597 -0.324201 0
M  V30 2167 C 212.419 0.530223 -3.5759 0
M  V30 2168 O 212.14 -0.640806 -4.33388 0
M  V30 2169 C 213.641 1.16192 -4.27802 0
M  V30 2170 H 210.861 0.0229464 -0.670608 0
M  V30 2171 H 213.405 -0.572604 -1.9632 0
M  V30 2172 H 211.56 1.22673 -3.67464 0
M  V30 2173 H 211.974 -0.344851 -5.23365 0
M  V30 2174 H 213.448 1.36141 -5.34948 0
M  V30 2175 H 213.925 2.13335 -3.83907 0
M  V30 2176 H 214.531 0.505775 -4.22282 0
M  V30 2177 N 212.846 1.57033 -0.133567 0
M  V30 2178 C 214.262 1.58035 0.222944 0
M  V30 2179 C 214.462 1.14713 1.6566 0
M  V30 2180 O 213.518 0.841218 2.38075 0
M  V30 2181 C 214.831 3.00691 -0.0236116 0
M  V30 2182 C 216.379 3.12973 0.0411512 0
M  V30 2183 C 216.854 4.57654 -0.177899 0
M  V30 2184 N 218.345 4.63033 -0.124365 0
M  V30 2185 C 219.08 5.72771 -0.268553 0
M  V30 2186 N 218.576 6.91206 -0.46972 0
M  V30 2187 N 220.369 5.61718 -0.2071 0
M  V30 2188 H 212.52 1.8349 -1.06981 0
M  V30 2189 H 214.783 0.848677 -0.422436 0
M  V30 2190 H 214.489 3.36726 -1.0153 0
M  V30 2191 H 214.363 3.70614 0.701808 0
M  V30 2192 H 216.75 2.76787 1.02338 0
M  V30 2193 H 216.831 2.45564 -0.716383 0
M  V30 2194 H 216.475 4.94542 -1.15717 0
M  V30 2195 H 216.405 5.23173 0.599797 0
M  V30 2196 H 218.896 3.7789 0.027011 0
M  V30 2197 H 219.209 7.70693 -0.570212 0
M  V30 2198 H 217.554 6.93156 -0.505876 0
M  V30 2199 H 220.745 4.68072 -0.0507986 0
M  V30 2200 H 220.918 6.47195 -0.322909 0
M  V30 2201 N 214.325 -0.140222 1.56975 0
M  V30 2202 C 215.288 -1.15689 1.97861 0
M  V30 2203 C 216.288 -1.3549 0.865974 0
M  V30 2204 O 217.478 -1.32367 1.13246 0
M  V30 2205 C 214.61 -2.51582 2.30042 0
M  V30 2206 H 215.803 -0.805971 2.88867 0
M  V30 2207 H 213.356 -0.383801 1.51515 0
M  V30 2208 H 214.091 -2.91632 1.41849 0
M  V30 2209 H 213.876 -2.38569 3.11171 0
M  V30 2210 H 215.366 -3.24792 2.62488 0
M  V30 2211 N 215.803 -1.52179 -0.40978 0
M  V30 2212 C 216.713 -1.78364 -1.52392 0
M  V30 2213 C 217.729 -0.669183 -1.60617 0
M  V30 2214 O 218.905 -0.954518 -1.77344 0
M  V30 2215 C 215.97 -1.92822 -2.88133 0
M  V30 2216 C 215.031 -3.16725 -2.898 0
M  V30 2217 C 214.264 -3.30483 -4.19067 0
M  V30 2218 O 214.487 -2.49522 -5.12928 0
M  V30 2219 O 213.421 -4.2363 -4.27576 0
M  V30 2220 H 217.247 -2.72931 -1.33201 0
M  V30 2221 H 214.832 -1.37016 -0.59557 0
M  V30 2222 H 216.714 -2.04157 -3.68643 0
M  V30 2223 H 215.389 -1.01444 -3.07393 0
M  V30 2224 H 214.296 -3.10848 -2.08146 0
M  V30 2225 H 215.629 -4.07881 -2.75489 0
M  V30 2226 N 217.281 0.66697 -1.42791 0
M  V30 2227 C 218.244 1.76211 -1.46568 0
M  V30 2228 C 219.244 1.56896 -0.352196 0
M  V30 2229 O 220.434 1.63044 -0.613364 0
M  V30 2230 C 217.566 3.14935 -1.30494 0
M  V30 2231 H 218.759 1.74247 -2.44086 0
M  V30 2232 H 216.312 0.877342 -1.29354 0
M  V30 2233 H 217.047 3.2252 -0.339301 0
M  V30 2234 H 216.832 3.30359 -2.11199 0
M  V30 2235 H 218.322 3.94821 -1.36038 0
M  V30 2236 N 218.759 1.29093 0.90403 0
M  V30 2237 C 220.005 1.16986 1.65656 0
M  V30 2238 C 220.338 -0.278925 1.92186 0
M  V30 2239 O 219.613 -1.2019 1.5292 0
M  V30 2240 C 219.896 1.97908 3.0084 0
M  V30 2241 C 219.749 3.50903 2.81403 0
M  V30 2242 C 221.068 1.80208 4.01513 0
M  V30 2243 H 218.187 0.426346 0.601164 0
M  V30 2244 H 220.829 1.58518 1.04747 0
M  V30 2245 H 218.979 1.62616 3.52829 0
M  V30 2246 H 220.651 3.96153 2.36348 0
M  V30 2247 H 218.894 3.76045 2.1627 0
M  V30 2248 H 219.565 4.02791 3.77443 0
M  V30 2249 H 222.041 2.11025 3.58619 0
M  V30 2250 H 220.917 2.39184 4.94047 0
M  V30 2251 H 221.178 0.756119 4.35586 0
M  V30 2252 N 220.237 -1.11381 1.11499 0
M  V30 2253 C 221.484 -1.83132 0.864231 0
M  V30 2254 C 221.812 -1.84683 -0.610114 0
M  V30 2255 O 221.067 -1.29589 -1.46646 0
M  V30 2256 C 221.366 -3.30026 1.37177 0
M  V30 2257 C 221.032 -3.48634 2.85946 0
M  V30 2258 C 219.694 -3.53421 3.26569 0
M  V30 2259 C 222.046 -3.54837 3.81759 0
M  V30 2260 C 219.374 -3.61967 4.61733 0
M  V30 2261 C 221.726 -3.64915 5.1674 0
M  V30 2262 C 220.39 -3.67962 5.5692 0
M  V30 2263 H 219.66 -0.670127 0.316245 0
M  V30 2264 H 222.307 -1.31354 1.3935 0
M  V30 2265 H 220.612 -3.84304 0.762753 0
M  V30 2266 H 222.309 -3.84034 1.15408 0
M  V30 2267 H 218.899 -3.45579 2.53521 0
M  V30 2268 H 223.083 -3.50399 3.51474 0
M  V30 2269 H 218.339 -3.62603 4.92269 0
M  V30 2270 H 222.513 -3.68658 5.90816 0
M  V30 2271 H 220.14 -3.74336 6.61647 0
M  V30 2272 N 221.715 -0.905404 -1.28997 0
M  V30 2273 C 223.126 -0.581953 -1.77398 0
M  V30 2274 C 223.477 0.902552 -1.74208 0
M  V30 2275 O 222.602 1.70584 -1.33154 0
M  V30 2276 C 223.197 -1.04961 -3.22131 0
M  V30 2277 C 221.756 -0.777229 -3.68288 0
M  V30 2278 C 220.903 -1.22109 -2.48967 0
M  V30 2279 H 223.854 -1.08754 -1.15578 0
M  V30 2280 H 223.875 -0.387387 -3.78523 0
M  V30 2281 H 223.387 -2.13008 -3.24421 0
M  V30 2282 H 221.488 0.290383 -3.71467 0
M  V30 2283 H 221.601 -1.37911 -4.58822 0
M  V30 2284 H 219.965 -0.639971 -2.46529 0
M  V30 2285 H 220.748 -2.30972 -2.53982 0
M  V30 2286 N 223.193 1.4272 -0.668489 0
M  V30 2287 C 224.47 1.95248 -0.117373 0
M  V30 2288 C 224.85 1.60919 1.36632 0
M  V30 2289 O 224.198 0.902095 2.09939 0
M  V30 2290 C 224.408 3.46927 -0.379806 0
M  V30 2291 C 225.756 4.23588 -0.292923 0
M  V30 2292 O 226.78 3.5482 -0.313204 0
M  V30 2293 O 225.639 5.46017 -0.229697 0
M  V30 2294 H 222.733 0.827 0.00079152 0
M  V30 2295 H 225.279 1.52581 -0.742783 0
M  V30 2296 H 224.051 3.65096 -1.40786 0
M  V30 2297 H 223.674 3.96627 0.277923 0
M  V30 2298 N 224.671 0.411399 1.52136 0
M  V30 2299 C 225.917 -0.163888 2.02137 0
M  V30 2300 C 226.25 -1.44597 1.29636 0
M  V30 2301 O 225.525 -1.90272 0.403353 0
M  V30 2302 C 225.808 -0.40927 3.57767 0
M  V30 2303 C 225.661 0.889643 4.40914 0
M  V30 2304 C 226.98 -1.19042 4.23694 0
M  V30 2305 H 224.099 -0.0580896 0.734707 0
M  V30 2306 H 226.741 0.54531 1.82007 0
M  V30 2307 H 224.891 -1.0134 3.7505 0
M  V30 2308 H 226.563 1.52575 4.35337 0
M  V30 2309 H 224.806 1.50011 4.07037 0
M  V30 2310 H 225.477 0.672314 5.4789 0
M  V30 2311 H 227.953 -0.678942 4.10524 0
M  V30 2312 H 226.829 -1.33086 5.32522 0
M  V30 2313 H 227.09 -2.21166 3.82803 0
M  V30 2314 N 226.149 -1.5696 0.141893 0
M  V30 2315 C 227.426 -1.87553 -0.555281 0
M  V30 2316 C 227.806 -1.04699 -1.83306 0
M  V30 2317 O 227.154 -0.132346 -2.28116 0
M  V30 2318 C 227.364 -3.39093 -0.825664 0
M  V30 2319 C 228.712 -4.08199 -1.16869 0
M  V30 2320 O 229.736 -3.44242 -0.915185 0
M  V30 2321 O 228.595 -5.21139 -1.6455 0
M  V30 2322 H 225.689 -0.777188 -0.282679 0
M  V30 2323 H 228.235 -1.68763 0.17812 0
M  V30 2324 H 227.007 -3.91221 0.0788633 0
M  V30 2325 H 226.63 -3.63393 -1.61343 0
M  V30 2326 N 227.627 0.131896 -1.57047 0
M  V30 2327 C 228.857 0.855219 -1.88068 0
M  V30 2328 C 229.265 1.74557 -0.729817 0
M  V30 2329 O 228.608 1.81083 0.308962 0
M  V30 2330 C 228.67 1.75119 -3.13964 0
M  V30 2331 C 228.334 1.03646 -4.45091 0
M  V30 2332 C 229.331 0.383276 -5.18485 0
M  V30 2333 C 227.016 1.02148 -4.91804 0
M  V30 2334 C 229.01 -0.275347 -6.36805 0
M  V30 2335 C 226.697 0.359047 -6.10044 0
M  V30 2336 C 227.695 -0.288222 -6.82392 0
M  V30 2337 O 227.383 -0.94011 -7.98384 0
M  V30 2338 H 227.115 0.251864 -0.627328 0
M  V30 2339 H 229.669 0.124782 -2.05021 0
M  V30 2340 H 227.899 2.52295 -2.9306 0
M  V30 2341 H 229.588 2.3478 -3.31109 0
M  V30 2342 H 230.354 0.386562 -4.83457 0
M  V30 2343 H 226.233 1.5147 -4.35405 0
M  V30 2344 H 229.777 -0.781148 -6.93213 0
M  V30 2345 H 225.674 0.35348 -6.44531 0
M  V30 2346 H 226.442 -0.84329 -8.14144 0
M  V30 2347 N 229.106 1.52395 0.401703 0
M  V30 2348 C 230.352 1.67065 1.14966 0
M  V30 2349 C 230.685 0.403052 1.89971 0
M  V30 2350 O 229.96 -0.598774 1.85054 0
M  V30 2351 C 230.243 2.8975 2.13815 0
M  V30 2352 C 230.096 4.26578 1.42658 0
M  V30 2353 C 231.415 3.07965 3.14397 0
M  V30 2354 H 228.534 0.607968 0.416587 0
M  V30 2355 H 231.176 1.84965 0.434511 0
M  V30 2356 H 229.326 2.74619 2.74803 0
M  V30 2357 H 230.998 4.53451 0.847329 0
M  V30 2358 H 229.241 4.27639 0.72849 0
M  V30 2359 H 229.912 5.08483 2.14823 0
M  V30 2360 H 232.388 3.22043 2.63491 0
M  V30 2361 H 231.264 3.95308 3.80819 0
M  V30 2362 H 231.525 2.21611 3.82545 0
M  V30 2363 N 230.584 -0.659388 1.43143 0
M  V30 2364 C 231.532 -1.79374 1.4808 0
M  V30 2365 C 232.526 -1.65639 0.354988 0
M  V30 2366 O 233.732 -1.7206 0.528704 0
M  V30 2367 H 230.107 -0.591705 0.4641 0
M  V30 2368 H 232.078 -1.72329 2.43609 0
M  V30 2369 C 230.827 -3.17606 1.41499 0
M  V30 2370 H 230.15 -3.28809 2.27431 0
M  V30 2371 H 231.59 -3.96951 1.49015 0
M  V30 2372 C 230.049 -3.36642 0.131765 0
M  V30 2373 O 230.579 -3.93461 -0.809386 0
M  V30 2374 N 228.785 -2.90567 0.0439396 0
M  V30 2375 H 228.332 -2.44513 0.810619 0
M  V30 2376 H 228.29 -3.03681 -0.813969 0
M  V30 2377 N 232.062 -1.29571 -0.897171 0
M  V30 2378 C 233.287 -1.20705 -1.68656 0
M  V30 2379 C 233.712 0.228582 -1.86706 0
M  V30 2380 O 233.07 1.16494 -1.3892 0
M  V30 2381 C 233.118 -1.9282 -3.04717 0
M  V30 2382 O 232.222 -1.24697 -3.93096 0
M  V30 2383 H 231.563 -0.418126 -0.515816 0
M  V30 2384 H 234.093 -1.71183 -1.12061 0
M  V30 2385 H 234.103 -2.01372 -3.54843 0
M  V30 2386 H 232.778 -2.97239 -2.90899 0
M  V30 2387 H 231.355 -1.2442 -3.51531 0
M  V30 2388 N 233.54 1.10788 -1.12088 0
M  V30 2389 C 234.768 1.86461 -0.896651 0
M  V30 2390 C 235.183 1.80492 0.553912 0
M  V30 2391 O 234.54 1.19102 1.38278 0
M  V30 2392 C 234.591 3.35006 -1.35843 0
M  V30 2393 O 234.312 3.40866 -2.75213 0
M  V30 2394 C 235.813 4.27565 -1.1706 0
M  V30 2395 H 233.033 0.589425 -0.320654 0
M  V30 2396 H 235.577 1.40076 -1.48993 0
M  V30 2397 H 233.732 3.7887 -0.808458 0
M  V30 2398 H 234.146 4.33411 -2.9539 0
M  V30 2399 H 235.62 5.30007 -1.54263 0
M  V30 2400 H 236.097 4.3906 -0.110814 0
M  V30 2401 H 236.703 3.89501 -1.70789 0
M  V30 2402 N 235.018 0.912232 1.28515 0
M  V30 2403 C 235.928 0.404506 2.31086 0
M  V30 2404 C 236.944 -0.50707 1.66448 0
M  V30 2405 O 238.12 -0.393624 1.97516 0
M  V30 2406 C 235.185 -0.348572 3.44943 0
M  V30 2407 C 234.246 0.59604 4.25142 0
M  V30 2408 C 233.479 -0.121194 5.33562 0
M  V30 2409 O 233.702 -1.34317 5.5436 0
M  V30 2410 O 232.636 0.542716 5.99448 0
M  V30 2411 H 236.462 1.25579 2.76521 0
M  V30 2412 H 234.047 0.676998 1.33181 0
M  V30 2413 H 235.929 -0.77395 4.14232 0
M  V30 2414 H 234.604 -1.17571 3.01594 0
M  V30 2415 H 233.511 1.07079 3.58448 0
M  V30 2416 H 234.844 1.38995 4.72167 0
M  V30 2417 N 236.496 -1.42363 0.676048 0
M  V30 2418 C 237.459 -2.29199 0.00766941 0
M  V30 2419 C 238.459 -1.43389 -0.727745 0
M  V30 2420 O 239.649 -1.64764 -0.56556 0
M  V30 2421 C 236.781 -3.2591 -0.999785 0
M  V30 2422 H 237.974 -2.89794 0.771988 0
M  V30 2423 H 235.527 -1.50024 0.438468 0
M  V30 2424 H 236.262 -2.70256 -1.79255 0
M  V30 2425 H 236.047 -3.89202 -0.475829 0
M  V30 2426 H 237.537 -3.91028 -1.46583 0
M  V30 2427 N 237.974 -0.419461 -1.51915 0
M  V30 2428 C 238.884 0.407528 -2.31033 0
M  V30 2429 C 239.9 1.04413 -1.3919 0
M  V30 2430 O 241.076 1.0434 -1.72265 0
M  V30 2431 C 238.141 1.50365 -3.12396 0
M  V30 2432 C 237.202 0.889029 -4.19994 0
M  V30 2433 C 236.435 1.93291 -4.97468 0
M  V30 2434 O 236.658 3.15259 -4.75361 0
M  V30 2435 O 235.592 1.53339 -5.8204 0
M  V30 2436 H 239.418 -0.237865 -3.02767 0
M  V30 2437 H 237.003 -0.182413 -1.48282 0
M  V30 2438 H 238.885 2.13975 -3.63032 0
M  V30 2439 H 237.56 2.13345 -2.43445 0
M  V30 2440 H 236.467 0.215353 -3.7348 0
M  V30 2441 H 237.8 0.302991 -4.91267 0
M  V30 2442 N 239.452 1.56882 -0.150215 0
M  V30 2443 C 240.68 2.00593 0.506948 0
M  V30 2444 C 241.095 1.03033 1.58208 0
M  V30 2445 O 240.452 0.0278396 1.82479 0
M  V30 2446 C 240.503 3.44209 1.10465 0
M  V30 2447 O 240.224 4.3804 0.0724636 0
M  V30 2448 C 241.725 4.03214 1.84211 0
M  V30 2449 H 238.945 0.65795 0.13169 0
M  V30 2450 H 241.489 2.03018 -0.245743 0
M  V30 2451 H 239.644 3.42625 1.80795 0
M  V30 2452 H 240.058 5.22007 0.510793 0
M  V30 2453 H 241.532 5.0569 2.21318 0
M  V30 2454 H 242.009 3.44107 2.72923 0
M  V30 2455 H 242.615 4.08437 1.18572 0
M  V30 2456 N 240.93 -0.123565 1.57115 0
M  V30 2457 C 242.179 -0.830704 1.83799 0
M  V30 2458 C 242.492 -1.81259 0.735158 0
M  V30 2459 O 243.698 -2.56558 0.888278 0
M  V30 2460 C 242.154 -1.52802 3.25852 0
M  V30 2461 C 241.762 -0.587356 4.44133 0
M  V30 2462 C 243.506 -2.22056 3.61789 0
M  V30 2463 C 241.413 -1.28764 5.77212 0
M  V30 2464 H 240.343 -0.313967 0.685522 0
M  V30 2465 H 242.994 -0.0834359 1.8331 0
M  V30 2466 H 241.376 -2.32175 3.20797 0
M  V30 2467 H 242.55 0.172829 4.60476 0
M  V30 2468 H 240.865 -0.00201892 4.164 0
M  V30 2469 H 243.462 -2.75131 4.58483 0
M  V30 2470 H 243.805 -2.99644 2.88997 0
M  V30 2471 H 244.338 -1.49576 3.68608 0
M  V30 2472 H 241.077 -0.55314 6.53162 0
M  V30 2473 H 240.597 -2.01995 5.64764 0
M  V30 2474 H 242.276 -1.8221 6.20813 0
M  V30 2475 N 242.408 -1.52605 -0.393616 0
M  V30 2476 C 243.338 -1.80022 -1.48709 0
M  V30 2477 C 244.319 -0.651995 -1.57108 0
M  V30 2478 O 245.504 -0.89913 -1.72132 0
M  V30 2479 C 242.634 -1.96492 -2.86371 0
M  V30 2480 C 241.588 -3.12161 -2.92813 0
M  V30 2481 C 240.914 -3.13877 -4.3288 0
M  V30 2482 C 242.214 -4.51322 -2.6288 0
M  V30 2483 H 243.908 -2.71589 -1.26015 0
M  V30 2484 H 241.454 -1.30684 -0.604778 0
M  V30 2485 H 243.407 -2.14255 -3.62867 0
M  V30 2486 H 242.131 -1.01611 -3.10391 0
M  V30 2487 H 240.79 -2.94173 -2.18764 0
M  V30 2488 H 240.438 -2.16687 -4.53933 0
M  V30 2489 H 240.138 -3.91576 -4.38112 0
M  V30 2490 H 241.662 -3.33789 -5.1129 0
M  V30 2491 H 243.076 -4.69435 -3.29096 0
M  V30 2492 H 241.473 -5.31053 -2.79468 0
M  V30 2493 H 242.543 -4.58353 -1.58242 0
M  V30 2494 N 243.887 0.651787 -1.4349 0
M  V30 2495 C 245.164 1.40909 -1.35661 0
M  V30 2496 C 245.544 2.11099 -0.00511733 0
M  V30 2497 O 244.892 2.04892 1.0115 0
M  V30 2498 C 245.102 2.3926 -2.54078 0
M  V30 2499 C 246.45 3.03217 -2.97228 0
M  V30 2500 O 247.474 2.49588 -2.54135 0
M  V30 2501 O 246.333 4.00455 -3.71885 0
M  V30 2502 H 243.427 0.629625 -0.536191 0
M  V30 2503 H 245.973 0.678575 -1.55542 0
M  V30 2504 H 244.745 1.86352 -3.44076 0
M  V30 2505 H 244.368 3.1976 -2.36303 0
M  V30 2506 N 245.365 1.30045 0.890287 0
M  V30 2507 C 246.313 1.15873 2.01683 0
M  V30 2508 C 247.307 0.0719403 1.69247 0
M  V30 2509 O 248.513 0.232414 1.78493 0
M  V30 2510 H 244.888 0.358203 0.661207 0
M  V30 2511 H 246.859 2.11229 2.10772 0
M  V30 2512 C 245.608 0.861842 3.36849 0
M  V30 2513 H 244.931 1.69016 3.62317 0
M  V30 2514 H 246.371 0.802762 4.16331 0
M  V30 2515 C 244.83 -0.435132 3.34078 0
M  V30 2516 O 245.36 -1.4583 3.74295 0
M  V30 2517 N 243.566 -0.444377 2.87182 0
M  V30 2518 H 243.113 0.388723 2.5465 0
M  V30 2519 H 243.071 -1.31213 2.85711 0
M  V30 2520 N 246.843 -1.10192 1.12674 0
M  V30 2521 C 248.092 -1.81573 0.8783 0
M  V30 2522 C 248.405 -1.86249 -0.597557 0
M  V30 2523 O 249.611 -2.5386 -0.962681 0
M  V30 2524 C 248.067 -3.26149 1.52167 0
M  V30 2525 C 247.675 -3.29763 3.03249 0
M  V30 2526 C 249.419 -4.0234 1.3536 0
M  V30 2527 C 247.326 -4.68815 3.60508 0
M  V30 2528 H 246.256 -0.680394 0.324931 0
M  V30 2529 H 248.907 -1.23902 1.35353 0
M  V30 2530 H 247.289 -3.83832 0.974104 0
M  V30 2531 H 248.463 -2.8189 3.6452 0
M  V30 2532 H 246.778 -2.67059 3.19481 0
M  V30 2533 H 249.375 -5.05058 1.75559 0
M  V30 2534 H 249.718 -4.15235 0.297554 0
M  V30 2535 H 250.251 -3.51079 1.87052 0
M  V30 2536 H 246.99 -4.61121 4.65884 0
M  V30 2537 H 246.51 -5.17045 3.04014 0
M  V30 2538 H 248.189 -5.37785 3.59717 0
M  V30 2539 N 248.321 -0.919034 -1.28029 0
M  V30 2540 C 249.549 -0.570971 -1.98866 0
M  V30 2541 C 249.964 0.848996 -1.68634 0
M  V30 2542 O 249.321 1.56307 -0.942036 0
M  V30 2543 C 249.372 -0.776876 -3.53054 0
M  V30 2544 O 249.093 -2.14097 -3.82222 0
M  V30 2545 C 250.594 -0.436356 -4.41147 0
M  V30 2546 H 247.814 -0.217175 -0.634883 0
M  V30 2547 H 250.358 -1.23368 -1.63097 0
M  V30 2548 H 248.513 -0.161085 -3.87065 0
M  V30 2549 H 248.927 -2.18455 -4.76841 0
M  V30 2550 H 250.401 -0.63117 -5.4838 0
M  V30 2551 H 250.878 0.627686 -4.34692 0
M  V30 2552 H 251.484 -1.02991 -4.12641 0
M  V30 2553 N 249.799 1.42003 -0.683588 0
M  V30 2554 C 250.731 2.29183 0.0283068 0
M  V30 2555 C 251.744 1.4415 0.756611 0
M  V30 2556 O 252.933 1.67779 0.609306 0
M  V30 2557 C 250.033 3.21765 1.06398 0
M  V30 2558 C 249.206 4.35496 0.407723 0
M  V30 2559 C 248.265 5.08737 1.34437 0
M  V30 2560 O 247.291 5.62948 0.841318 0
M  V30 2561 N 248.493 5.15075 2.67728 0
M  V30 2562 H 251.258 2.9092 -0.720105 0
M  V30 2563 H 248.819 1.53025 -0.528682 0
M  V30 2564 H 250.811 3.6763 1.69204 0
M  V30 2565 H 249.381 2.61418 1.71404 0
M  V30 2566 H 248.601 3.92165 -0.400012 0
M  V30 2567 H 249.889 5.08776 -0.0490956 0
M  V30 2568 H 249.287 4.72457 3.11129 0
M  V30 2569 H 247.844 5.64556 3.2576 0
M  V30 2570 N 251.277 0.427512 1.51691 0
M  V30 2571 C 252.502 -0.143601 2.06902 0
M  V30 2572 C 252.927 -1.36536 1.29382 0
M  V30 2573 O 252.285 -1.78289 0.329043 0
M  V30 2574 C 252.333 -0.454207 3.57728 0
M  V30 2575 O 251.437 -1.54228 3.82475 0
M  V30 2576 H 250.778 -0.00617128 0.663971 0
M  V30 2577 H 253.308 0.606014 1.95419 0
M  V30 2578 H 253.318 -0.707525 4.01818 0
M  V30 2579 H 251.993 0.438812 4.13579 0
M  V30 2580 H 250.57 -1.2797 3.50254 0
M  V30 2581 N 252.755 -1.56801 0.158532 0
M  V30 2582 C 253.983 -2.00859 -0.496303 0
M  V30 2583 C 254.398 -1.03871 -1.57659 0
M  V30 2584 O 253.755 -0.0375165 -1.82461 0
M  V30 2585 C 253.806 -3.4479 -1.08638 0
M  V30 2586 O 253.527 -4.38072 -0.0492322 0
M  V30 2587 C 255.028 -4.04185 -1.8207 0
M  V30 2588 H 252.248 -0.65864 -0.128199 0
M  V30 2589 H 254.792 -2.02885 0.256506 0
M  V30 2590 H 252.947 -3.43579 -1.78975 0
M  V30 2591 H 253.361 -5.2227 -0.483102 0
M  V30 2592 H 254.835 -5.06857 -2.18633 0
M  V30 2593 H 255.312 -3.45549 -2.71095 0
M  V30 2594 H 255.918 -4.0906 -1.16405 0
M  V30 2595 N 254.233 0.115231 -1.57178 0
M  V30 2596 C 255.165 1.16694 -1.97269 0
M  V30 2597 C 256.178 1.37445 -0.872502 0
M  V30 2598 O 257.367 1.36454 -1.15077 0
M  V30 2599 C 254.467 2.52627 -2.25905 0
M  V30 2600 C 253.64 2.52427 -3.57211 0
M  V30 2601 C 252.699 3.70134 -3.74016 0
M  V30 2602 O 251.725 3.53546 -4.46087 0
M  V30 2603 N 252.927 4.88844 -3.13068 0
M  V30 2604 H 255.692 0.82588 -2.88096 0
M  V30 2605 H 253.253 0.304461 -1.59011 0
M  V30 2606 H 255.245 3.29937 -2.34359 0
M  V30 2607 H 253.815 2.789 -1.41186 0
M  V30 2608 H 253.035 1.60805 -3.5991 0
M  V30 2609 H 254.323 2.49353 -4.43509 0
M  V30 2610 H 253.721 5.05225 -2.54489 0
M  V30 2611 H 252.278 5.63817 -3.27037 0
M  V30 2612 N 255.711 1.52812 0.385517 0
M  V30 2613 C 256.936 1.72207 1.15583 0
M  V30 2614 C 257.361 0.441034 1.82857 0
M  V30 2615 O 256.719 -0.603465 1.70962 0
M  V30 2616 C 256.767 2.87476 2.17692 0
M  V30 2617 O 255.871 2.54693 3.24354 0
M  V30 2618 H 255.212 0.572526 0.336319 0
M  V30 2619 H 257.742 1.99618 0.448744 0
M  V30 2620 H 257.752 3.13072 2.6163 0
M  V30 2621 H 256.427 3.80408 1.68115 0
M  V30 2622 H 255.004 2.3985 2.85529 0
M  V30 2623 N 257.189 -0.644168 1.43834 0
M  V30 2624 C 258.436 -1.40395 1.4593 0
M  V30 2625 C 258.764 -1.94305 0.0869658 0
M  V30 2626 O 258.019 -1.73288 -0.909378 0
M  V30 2627 C 258.318 -2.59615 2.45631 0
M  V30 2628 C 257.984 -2.2407 3.91284 0
M  V30 2629 C 256.646 -2.14089 4.30952 0
M  V30 2630 C 258.998 -1.95775 4.83034 0
M  V30 2631 C 256.326 -1.73981 5.6031 0
M  V30 2632 C 258.678 -1.57163 6.12766 0
M  V30 2633 C 257.342 -1.45713 6.51402 0
M  V30 2634 H 256.612 -0.513741 0.533995 0
M  V30 2635 H 259.259 -0.731724 1.76969 0
M  V30 2636 H 257.564 -3.32011 2.08028 0
M  V30 2637 H 259.261 -3.17834 2.44504 0
M  V30 2638 H 255.851 -2.32753 3.59895 0
M  V30 2639 H 260.035 -2.02403 4.53152 0
M  V30 2640 H 255.291 -1.63709 5.89075 0
M  V30 2641 H 259.465 -1.34303 6.83327 0
M  V30 2642 H 257.092 -1.14406 7.51542 0
M  V30 2643 N 258.668 -1.30515 -0.883378 0
M  V30 2644 C 259.616 -1.16941 -2.01066 0
M  V30 2645 C 260.61 -0.0809148 -1.69207 0
M  V30 2646 O 261.816 -0.241877 -1.78367 0
M  V30 2647 H 258.191 -0.361705 -0.659298 0
M  V30 2648 H 260.162 -2.12344 -2.09649 0
M  V30 2649 C 258.911 -0.879694 -3.36388 0
M  V30 2650 H 258.234 -1.70936 -3.61415 0
M  V30 2651 H 259.674 -0.82483 -4.159 0
M  V30 2652 C 258.133 0.417409 -3.34304 0
M  V30 2653 O 258.663 1.43843 -3.75063 0
M  V30 2654 N 256.869 0.429141 -2.87414 0
M  V30 2655 H 256.416 -0.402222 -2.5444 0
M  V30 2656 H 256.374 1.29696 -2.86403 0
M  V30 2657 N 260.146 1.09593 -1.13257 0
M  V30 2658 C 261.423 1.78293 -0.804432 0
M  V30 2659 C 261.803 1.99004 0.70431 0
M  V30 2660 O 261.151 1.59007 1.641 0
M  V30 2661 C 261.361 3.10707 -1.5894 0
M  V30 2662 C 262.709 3.85443 -1.78099 0
M  V30 2663 O 263.733 3.20454 -1.55525 0
M  V30 2664 O 262.592 5.02108 -2.15753 0
M  V30 2665 H 259.686 0.773156 -0.293528 0
M  V30 2666 H 262.232 1.16164 -1.23709 0
M  V30 2667 H 261.004 2.91106 -2.61482 0
M  V30 2668 H 260.627 3.80558 -1.15157 0
M  V30 2669 N 261.624 0.925811 1.2754 0
M  V30 2670 C 262.871 0.565255 1.94451 0
M  V30 2671 C 263.199 -0.89316 1.7278 0
M  V30 2672 O 262.454 -1.65213 1.04895 0
M  V30 2673 C 262.753 0.835296 3.47502 0
M  V30 2674 C 262.419 2.27515 3.89291 0
M  V30 2675 C 261.081 2.66879 4.00411 0
M  V30 2676 C 263.433 3.21158 4.10496 0
M  V30 2677 C 260.761 3.99014 4.30122 0
M  V30 2678 C 263.113 4.52871 4.4169 0
M  V30 2679 C 261.777 4.92072 4.51023 0
M  V30 2680 H 261.047 0.206841 0.711546 0
M  V30 2681 H 263.694 1.16942 1.51647 0
M  V30 2682 H 261.999 0.148442 3.91519 0
M  V30 2683 H 263.696 0.535322 3.97411 0
M  V30 2684 H 260.286 1.95976 3.81171 0
M  V30 2685 H 264.47 2.9195 4.01346 0
M  V30 2686 H 259.726 4.2907 4.35556 0
M  V30 2687 H 263.9 5.25436 4.57045 0
M  V30 2688 H 261.527 5.9449 4.738 0
M  V30 2689 N 263.102 -1.41638 0.69111 0
M  V30 2690 C 264.33 -2.05628 0.22909 0
M  V30 2691 C 264.745 -1.51992 -1.11999 0
M  V30 2692 O 264.102 -0.666322 -1.69901 0
M  V30 2693 C 264.153 -3.61084 0.173283 0
M  V30 2694 O 263.874 -4.12735 1.46907 0
M  V30 2695 C 265.375 -4.42213 -0.310266 0
M  V30 2696 H 262.595 -0.662327 0.107534 0
M  V30 2697 H 265.139 -1.81489 0.942438 0
M  V30 2698 H 263.294 -3.84278 -0.490858 0
M  V30 2699 H 263.708 -5.06743 1.35322 0
M  V30 2700 H 265.182 -5.51194 -0.298196 0
M  V30 2701 H 265.659 -4.1799 -1.34838 0
M  V30 2702 H 266.265 -4.24074 0.322716 0
M  V30 2703 N 264.58 -0.43555 -1.51462 0
M  V30 2704 C 265.996 -0.0877501 -1.59359 0
M  V30 2705 C 266.196 1.4027 -1.4466 0
M  V30 2706 O 265.252 2.17243 -1.28693 0
M  V30 2707 C 266.565 -0.606264 -2.94525 0
M  V30 2708 C 268.113 -0.566548 -3.0783 0
M  V30 2709 C 268.588 -1.06201 -4.45517 0
M  V30 2710 N 270.079 -1.01992 -4.51832 0
M  V30 2711 C 270.814 -1.37417 -5.5669 0
M  V30 2712 N 270.31 -1.80119 -6.68976 0
M  V30 2713 N 272.103 -1.29245 -5.47039 0
M  V30 2714 H 264.254 -1.40533 -1.59261 0
M  V30 2715 H 266.517 -0.578992 -0.750648 0
M  V30 2716 H 266.223 -1.64901 -3.10645 0
M  V30 2717 H 266.097 -0.0302097 -3.77188 0
M  V30 2718 H 268.484 0.467208 -2.91378 0
M  V30 2719 H 268.565 -1.17898 -2.2701 0
M  V30 2720 H 268.209 -2.09422 -4.62715 0
M  V30 2721 H 268.139 -0.426127 -5.24873 0
M  V30 2722 H 270.63 -0.706308 -3.71241 0
M  V30 2723 H 270.943 -2.05392 -7.45006 0
M  V30 2724 H 269.288 -1.84044 -6.70189 0
M  V30 2725 H 272.479 -0.957522 -4.58202 0
M  V30 2726 H 272.652 -1.57182 -6.28648 0
M  V30 2727 N 266.058 1.56714 -0.166846 0
M  V30 2728 C 267.304 1.97039 0.479962 0
M  V30 2729 C 267.637 1.05264 1.63197 0
M  V30 2730 O 266.912 0.0988833 1.94248 0
M  V30 2731 C 267.195 3.46867 0.967212 0
M  V30 2732 C 267.048 4.49421 -0.18466 0
M  V30 2733 C 268.367 3.9968 1.84238 0
M  V30 2734 H 265.486 0.71641 0.172992 0
M  V30 2735 H 268.128 1.8832 -0.252079 0
M  V30 2736 H 266.278 3.54428 1.59101 0
M  V30 2737 H 267.95 4.53924 -0.821621 0
M  V30 2738 H 266.193 4.25573 -0.840837 0
M  V30 2739 H 266.864 5.51644 0.198317 0
M  V30 2740 H 269.34 3.94723 1.31655 0
M  V30 2741 H 268.216 5.04941 2.15234 0
M  V30 2742 H 268.477 3.43226 2.78654 0
M  V30 2743 N 267.536 -0.106894 1.57237 0
M  V30 2744 C 268.782 -0.81373 1.85759 0
M  V30 2745 C 269.115 -1.78952 0.754315 0
M  V30 2746 O 268.39 -1.93029 -0.23879 0
M  V30 2747 C 268.673 -1.55293 3.24894 0
M  V30 2748 C 268.526 -0.595929 4.45835 0
M  V30 2749 C 269.845 -2.5063 3.61763 0
M  V30 2750 H 266.964 -0.294369 0.67566 0
M  V30 2751 H 269.606 -0.0776472 1.89841 0
M  V30 2752 H 267.756 -2.1804 3.21544 0
M  V30 2753 H 269.428 0.0236262 4.61294 0
M  V30 2754 H 267.671 0.0916191 4.33703 0
M  V30 2755 H 268.342 -1.15004 5.39887 0
M  V30 2756 H 270.818 -1.97982 3.65981 0
M  V30 2757 H 269.694 -2.99376 4.60071 0
M  V30 2758 H 269.955 -3.3385 2.89821 0
M  V30 2759 N 269.014 -1.53014 -0.377408 0
M  V30 2760 C 270.262 -1.6829 -1.11906 0
M  V30 2761 C 270.583 -0.431206 -1.90173 0
M  V30 2762 O 269.853 0.554595 -1.87886 0
M  V30 2763 H 268.433 -0.620371 -0.416112 0
M  V30 2764 H 271.095 -1.90167 -0.426893 0
M  V30 2765 H 270.191 -2.53862 -1.8155 0
M  V30 2766 N 270.492 0.636531 -1.44174 0
M  V30 2767 C 271.74 1.39343 -1.46383 0
M  V30 2768 C 272.061 1.94766 -0.0955715 0
M  V30 2769 O 271.331 1.75452 0.871395 0
M  V30 2770 H 269.911 0.517199 -0.538994 0
M  V30 2771 H 272.573 0.74957 -1.7991 0
M  V30 2772 H 271.669 2.22746 -2.18611 0
M  V30 2773 N 271.97 1.30982 0.876444 0
M  V30 2774 C 272.88 1.2003 2.01569 0
M  V30 2775 C 273.896 0.11838 1.73597 0
M  V30 2776 O 275.072 0.33495 1.98595 0
M  V30 2777 C 272.137 0.901637 3.34771 0
M  V30 2778 C 271.198 2.06979 3.76109 0
M  V30 2779 C 270.431 1.78529 5.02954 0
M  V30 2780 O 270.654 0.717296 5.65872 0
M  V30 2781 O 269.588 2.64019 5.40905 0
M  V30 2782 H 273.414 2.15753 2.13739 0
M  V30 2783 H 270.999 1.10658 1.00375 0
M  V30 2784 H 272.881 0.750645 4.1466 0
M  V30 2785 H 271.556 -0.0256141 3.2369 0
M  V30 2786 H 270.463 2.27616 2.96887 0
M  V30 2787 H 271.796 2.97907 3.91807 0
M  V30 2788 N 273.449 -1.08991 1.13837 0
M  V30 2789 C 274.726 -1.77863 0.813876 0
M  V30 2790 C 275.106 -1.99375 -0.693746 0
M  V30 2791 O 274.454 -1.59875 -1.63255 0
M  V30 2792 C 274.664 -3.0986 1.60586 0
M  V30 2793 C 276.012 -3.84493 1.8014 0
M  V30 2794 O 277.036 -3.19624 1.57222 0
M  V30 2795 O 275.895 -5.00957 2.18413 0
M  V30 2796 H 272.989 -0.771589 0.297624 0
M  V30 2797 H 275.535 -1.15507 1.24323 0
M  V30 2798 H 274.307 -2.89715 2.63022 0
M  V30 2799 H 273.93 -3.79942 1.17173 0
M  V30 2800 N 274.927 -0.932562 -1.27047 0
M  V30 2801 C 275.89 -0.440064 -2.24936 0
M  V30 2802 C 276.89 0.444071 -1.54547 0
M  V30 2803 O 278.08 0.244465 -1.72476 0
M  V30 2804 C 275.212 0.36678 -3.38921 0
M  V30 2805 H 276.405 -1.305 -2.70018 0
M  V30 2806 H 273.958 -0.713707 -1.39054 0
M  V30 2807 H 274.693 1.25033 -2.99228 0
M  V30 2808 H 274.478 -0.267204 -3.91188 0
M  V30 2809 H 275.968 0.701567 -4.11665 0
M  V30 2810 N 276.405 1.4127 -0.698611 0
M  V30 2811 C 277.352 2.30773 -0.0352094 0
M  V30 2812 C 278.322 1.47273 0.768111 0
M  V30 2813 O 279.507 1.76053 0.735524 0
M  V30 2814 C 276.647 3.33346 0.893 0
M  V30 2815 C 275.76 4.31924 0.0809695 0
M  V30 2816 C 274.895 5.21566 1.0071 0
M  V30 2817 C 273.934 6.11811 0.188155 0
M  V30 2818 N 273.071 6.93926 1.06825 0
M  V30 2819 H 277.911 2.86943 -0.804207 0
M  V30 2820 H 275.448 1.4132 -0.408294 0
M  V30 2821 H 277.406 3.91368 1.44523 0
M  V30 2822 H 276.036 2.78719 1.62836 0
M  V30 2823 H 275.088 3.75825 -0.588224 0
M  V30 2824 H 276.4 4.95716 -0.553801 0
M  V30 2825 H 275.554 5.84437 1.62845 0
M  V30 2826 H 274.293 4.58008 1.67572 0
M  V30 2827 H 273.298 5.47986 -0.446254 0
M  V30 2828 H 274.523 6.77425 -0.476716 0
M  V30 2829 H 272.469 6.32973 1.72283 0
M  V30 2830 H 272.386 7.54416 0.489123 0
M  V30 2831 H 273.654 7.61262 1.67632 0
M  V30 2832 N 277.883 0.443576 1.51229 0
M  V30 2833 C 279.294 -0.0180867 1.86691 0
M  V30 2834 C 279.645 -1.41384 1.36033 0
M  V30 2835 O 278.77 -2.04291 0.713722 0
M  V30 2836 C 279.365 -0.039597 3.38777 0
M  V30 2837 C 277.924 -0.445692 3.73752 0
M  V30 2838 C 277.071 0.357584 2.74985 0
M  V30 2839 H 280.022 0.659138 1.44364 0
M  V30 2840 H 280.043 -0.847761 3.70936 0
M  V30 2841 H 279.555 0.976382 3.75617 0
M  V30 2842 H 277.656 -1.46704 3.42503 0
M  V30 2843 H 277.769 -0.166155 4.78812 0
M  V30 2844 H 276.133 -0.184973 2.54027 0
M  V30 2845 H 276.916 1.37256 3.14668 0
M  V30 2846 N 279.361 -1.56624 0.175154 0
M  V30 2847 C 280.609 -1.96609 -0.467885 0
M  V30 2848 C 280.93 -1.06238 -1.63519 0
M  V30 2849 O 280.2 -0.129523 -1.95471 0
M  V30 2850 H 278.78 -0.726008 -0.175845 0
M  V30 2851 H 281.442 -1.93195 0.257234 0
M  V30 2852 H 280.538 -3.00989 -0.825342 0
M  V30 2853 N 280.839 0.0985539 -1.57292 0
M  V30 2854 C 281.771 1.14595 -1.98496 0
M  V30 2855 C 282.784 1.36512 -0.887031 0
M  V30 2856 O 283.973 1.35225 -1.16518 0
M  V30 2857 C 281.073 2.50216 -2.28572 0
M  V30 2858 C 280.246 2.48624 -3.59868 0
M  V30 2859 C 279.305 3.66146 -3.7792 0
M  V30 2860 O 278.331 3.48795 -4.49812 0
M  V30 2861 N 279.533 4.85496 -3.18235 0
M  V30 2862 H 282.298 0.795277 -2.88956 0
M  V30 2863 H 279.859 0.287579 -1.59325 0
M  V30 2864 H 281.851 3.27432 -2.37845 0
M  V30 2865 H 280.421 2.77387 -1.44136 0
M  V30 2866 H 279.641 1.56978 -3.61596 0
M  V30 2867 H 280.929 2.44635 -4.46129 0
M  V30 2868 H 280.327 5.02497 -2.59833 0
M  V30 2869 H 278.884 5.60317 -3.32999 0
M  V30 2870 N 282.317 1.53212 0.369288 0
M  V30 2871 C 283.564 1.69215 1.11232 0
M  V30 2872 C 283.892 0.442048 1.8941 0
M  V30 2873 O 283.147 -0.575944 1.87033 0
M  V30 2874 C 283.446 2.89101 2.10132 0
M  V30 2875 C 283.112 4.25758 1.48463 0
M  V30 2876 C 281.774 4.6292 1.31372 0
M  V30 2877 C 284.126 5.10757 1.03811 0
M  V30 2878 C 281.454 5.82722 0.68207 0
M  V30 2879 C 283.806 6.31201 0.420487 0
M  V30 2880 C 282.47 6.67079 0.237038 0
M  V30 2881 H 281.74 0.619201 0.407027 0
M  V30 2882 H 284.387 1.87391 0.394552 0
M  V30 2883 H 282.692 2.65421 2.88199 0
M  V30 2884 H 284.389 2.98676 2.6757 0
M  V30 2885 H 280.979 3.96494 1.62758 0
M  V30 2886 H 285.163 4.82599 1.1581 0
M  V30 2887 H 280.419 6.09113 0.528316 0
M  V30 2888 H 284.593 6.96368 0.0662874 0
M  V30 2889 H 282.22 7.59774 -0.254477 0
M  V30 2890 N 283.795 -0.628877 1.44509 0
M  V30 2891 C 285.206 -1.21054 1.42137 0
M  V30 2892 C 285.557 -1.95715 0.137881 0
M  V30 2893 O 284.682 -2.02554 -0.761645 0
M  V30 2894 C 285.277 -2.20189 2.57493 0
M  V30 2895 C 283.836 -2.73777 2.58308 0
M  V30 2896 C 282.983 -1.48813 2.33987 0
M  V30 2897 H 285.934 -0.41942 1.53057 0
M  V30 2898 H 285.955 -3.02833 2.30375 0
M  V30 2899 H 285.467 -1.6582 3.50892 0
M  V30 2900 H 283.568 -3.32142 1.68856 0
M  V30 2901 H 283.681 -3.19662 3.56865 0
M  V30 2902 H 282.045 -1.77024 1.83124 0
M  V30 2903 H 282.828 -0.963442 3.29504 0
M  V30 2904 N 285.273 -1.31445 -0.869486 0
M  V30 2905 C 286.519 -1.22347 -1.62489 0
M  V30 2906 C 286.874 0.216204 -1.91181 0
M  V30 2907 O 286.167 1.14977 -1.53268 0
M  V30 2908 C 286.361 -2.00145 -2.96102 0
M  V30 2909 C 286.19 -3.51531 -2.80456 0
M  V30 2910 C 284.96 -4.20882 -2.79618 0
M  V30 2911 C 287.158 -4.46471 -2.5528 0
M  V30 2912 N 285.14 -5.58421 -2.55027 0
M  V30 2913 C 286.511 -5.71682 -2.39957 0
M  V30 2914 C 288.566 -4.35892 -2.40629 0
M  V30 2915 C 287.269 -6.87511 -2.11472 0
M  V30 2916 C 289.295 -5.51505 -2.13532 0
M  V30 2917 C 288.657 -6.75707 -1.98998 0
M  V30 2918 H 284.756 -0.502815 -0.598917 0
M  V30 2919 H 287.34 -1.65639 -1.02332 0
M  V30 2920 H 285.511 -1.59221 -3.54264 0
M  V30 2921 H 287.243 -1.83063 -3.60929 0
M  V30 2922 H 283.998 -3.72857 -2.92018 0
M  V30 2923 H 284.422 -6.30841 -2.45701 0
M  V30 2924 H 289.064 -3.40533 -2.50593 0
M  V30 2925 H 286.782 -7.82897 -2.00245 0
M  V30 2926 H 290.368 -5.45238 -2.02995 0
M  V30 2927 H 289.248 -7.63655 -1.78326 0
M  V30 2928 N 286.751 1.08385 -1.14413 0
M  V30 2929 C 287.683 2.1519 -0.789036 0
M  V30 2930 C 288.696 1.61638 0.19417 0
M  V30 2931 O 289.885 1.78479 -0.0275711 0
M  V30 2932 C 286.985 3.38565 -0.15058 0
M  V30 2933 C 286.158 4.21501 -1.16857 0
M  V30 2934 C 285.217 5.23277 -0.553832 0
M  V30 2935 O 284.243 5.56041 -1.21686 0
M  V30 2936 N 285.445 5.76629 0.669296 0
M  V30 2937 H 288.21 2.46257 -1.70814 0
M  V30 2938 H 285.771 1.24198 -1.03858 0
M  V30 2939 H 287.763 4.03777 0.273181 0
M  V30 2940 H 286.333 3.05299 0.671667 0
M  V30 2941 H 285.553 3.52265 -1.76926 0
M  V30 2942 H 286.841 4.73731 -1.85624 0
M  V30 2943 H 286.239 5.52243 1.22654 0
M  V30 2944 H 284.796 6.43521 1.03556 0
M  V30 2945 N 288.23 0.939286 1.26551 0
M  V30 2946 C 289.476 0.586715 1.94128 0
M  V30 2947 C 289.809 -0.8717 1.73537 0
M  V30 2948 O 289.084 -1.62339 1.07127 0
M  V30 2949 C 289.367 0.927497 3.4795 0
M  V30 2950 C 289.22 2.44052 3.77834 0
M  V30 2951 C 290.539 0.441569 4.37879 0
M  V30 2952 H 287.658 0.21463 0.705055 0
M  V30 2953 H 290.3 1.17316 1.49455 0
M  V30 2954 H 288.45 0.428431 3.8613 0
M  V30 2955 H 290.122 3.01216 3.4938 0
M  V30 2956 H 288.365 2.8848 3.23978 0
M  V30 2957 H 289.036 2.62947 4.85348 0
M  V30 2958 H 291.512 0.869448 4.06915 0
M  V30 2959 H 290.388 0.708856 5.44304 0
M  V30 2960 H 290.649 -0.658467 4.37169 0
M  V30 2961 N 289.708 -1.40897 0.706093 0
M  V30 2962 C 290.954 -2.01352 0.241889 0
M  V30 2963 C 291.287 -1.55832 -1.15888 0
M  V30 2964 O 290.562 -0.774145 -1.7843 0
M  V30 2965 C 290.845 -3.58752 0.311311 0
M  V30 2966 C 290.698 -4.1437 1.74978 0
M  V30 2967 C 292.017 -4.38914 -0.322922 0
M  V30 2968 H 289.136 -0.731562 0.0893687 0
M  V30 2969 H 291.778 -1.67504 0.896802 0
M  V30 2970 H 289.928 -3.87718 -0.246302 0
M  V30 2971 H 291.6 -3.96239 2.36205 0
M  V30 2972 H 289.843 -3.69016 2.28057 0
M  V30 2973 H 290.514 -5.23532 1.74981 0
M  V30 2974 H 292.99 -4.15822 0.152089 0
M  V30 2975 H 291.866 -5.48358 -0.243855 0
M  V30 2976 H 292.127 -4.19176 -1.40513 0
M  V30 2977 N 291.186 -0.45159 -1.50991 0
M  V30 2978 C 292.116 0.342898 -2.30969 0
M  V30 2979 C 293.097 1.00815 -1.37005 0
M  V30 2980 O 294.282 1.00907 -1.65926 0
M  V30 2981 C 291.412 1.43637 -3.16205 0
M  V30 2982 C 290.366 0.893818 -4.18563 0
M  V30 2983 C 289.692 2.08411 -4.92411 0
M  V30 2984 C 290.992 -0.0815568 -5.22236 0
M  V30 2985 H 292.686 -0.324556 -2.97636 0
M  V30 2986 H 290.232 -0.157531 -1.43136 0
M  V30 2987 H 292.185 1.9995 -3.70942 0
M  V30 2988 H 290.909 2.13232 -2.47386 0
M  V30 2989 H 289.568 0.352798 -3.64898 0
M  V30 2990 H 289.216 2.76658 -4.20082 0
M  V30 2991 H 288.916 1.72741 -5.61636 0
M  V30 2992 H 290.44 2.65251 -5.49976 0
M  V30 2993 H 291.854 0.391742 -5.7196 0
M  V30 2994 H 290.251 -0.351551 -5.99069 0
M  V30 2995 H 291.321 -1.01374 -4.74185 0
M  V30 2996 N 292.664 1.56529 -0.183458 0
M  V30 2997 C 293.612 2.19873 0.758845 0
M  V30 2998 C 294.606 1.16638 1.22849 0
M  V30 2999 O 295.812 1.3481 1.19274 0
M  V30 3000 H 292.187 0.7045 0.263029 0
M  V30 3001 H 294.158 2.97724 0.200755 0
M  V30 3002 C 292.907 2.86314 1.9728 0
M  V30 3003 H 292.23 3.65487 1.62047 0
M  V30 3004 H 293.67 3.3409 2.61075 0
M  V30 3005 C 292.129 1.86729 2.80418 0
M  V30 3006 O 292.659 1.36031 3.77966 0
M  V30 3007 N 290.865 1.55216 2.45675 0
M  V30 3008 H 290.412 1.96636 1.66409 0
M  V30 3009 H 290.37 0.888388 3.01588 0
M  V30 3010 N 294.142 -0.090211 1.57342 0
M  V30 3011 C 295.39 -0.791241 1.85967 0
M  V30 3012 C 295.711 -1.7903 0.772859 0
M  V30 3013 O 294.981 -1.94872 -0.200398 0
M  V30 3014 H 293.561 -0.295205 0.686195 0
M  V30 3015 H 296.223 -0.0706782 1.94772 0
M  V30 3016 H 295.319 -1.31882 2.82867 0
M  V30 3017 N 295.62 -1.53406 -0.361157 0
M  V30 3018 C 296.567 -1.80156 -1.44265 0
M  V30 3019 C 297.537 -0.646183 -1.53015 0
M  V30 3020 O 298.722 -0.888818 -1.68833 0
M  V30 3021 C 295.862 -2.00116 -2.81154 0
M  V30 3022 C 294.975 -3.27833 -2.81335 0
M  V30 3023 C 294.11 -3.37957 -4.09828 0
M  V30 3024 C 293.149 -4.59689 -4.04168 0
M  V30 3025 N 292.286 -4.66942 -5.24318 0
M  V30 3026 H 297.126 -2.72438 -1.20754 0
M  V30 3027 H 294.663 -1.34954 -0.585296 0
M  V30 3028 H 296.621 -2.09677 -3.60682 0
M  V30 3029 H 295.251 -1.11167 -3.03054 0
M  V30 3030 H 294.303 -3.27204 -1.94014 0
M  V30 3031 H 295.615 -4.17442 -2.73027 0
M  V30 3032 H 294.769 -3.46853 -4.97773 0
M  V30 3033 H 293.508 -2.46372 -4.20894 0
M  V30 3034 H 292.513 -4.50889 -3.14609 0
M  V30 3035 H 293.738 -5.5262 -3.947 0
M  V30 3036 H 291.684 -3.7826 -5.35962 0
M  V30 3037 H 291.601 -5.50462 -5.18197 0
M  V30 3038 H 292.869 -4.80127 -6.14084 0
M  V30 3039 N 297.098 0.621204 -1.44841 0
M  V30 3040 C 298.344 1.3826 -1.48365 0
M  V30 3041 C 298.677 1.93831 -0.119624 0
M  V30 3042 O 297.952 1.74251 0.864111 0
M  V30 3043 C 298.235 2.54058 -2.55199 0
M  V30 3044 C 298.088 2.03772 -4.00995 0
M  V30 3045 C 299.407 3.56225 -2.58442 0
M  V30 3046 H 296.526 0.501374 -0.540179 0
M  V30 3047 H 299.168 0.7015 -1.76576 0
M  V30 3048 H 297.318 3.12162 -2.31274 0
M  V30 3049 H 298.99 1.50423 -4.36086 0
M  V30 3050 H 297.233 1.34876 -4.12299 0
M  V30 3051 H 297.904 2.87185 -4.71411 0
M  V30 3052 H 300.38 3.07939 -2.79844 0
M  V30 3053 H 299.256 4.34756 -3.3508 0
M  V30 3054 H 299.517 4.10949 -1.63013 0
M  V30 3055 N 298.576 1.31904 0.862503 0
M  V30 3056 C 299.853 1.12644 1.59908 0
M  V30 3057 C 300.233 -0.316104 2.0872 0
M  V30 3058 O 299.581 -1.31145 1.87118 0
M  V30 3059 C 299.791 2.1472 2.7513 0
M  V30 3060 C 301.139 2.47637 3.44907 0
M  V30 3061 O 302.163 2.13205 2.85346 0
M  V30 3062 O 301.022 3.06632 4.52371 0
M  V30 3063 H 298.116 0.43416 0.703871 0
M  V30 3064 H 300.662 1.43408 0.907314 0
M  V30 3065 H 299.434 3.1172 2.3653 0
M  V30 3066 H 299.057 1.84905 3.51989 0
M  V30 3067 N 300.054 -1.07777 1.14986 0
M  V30 3068 C 301.017 -2.13041 0.845358 0
M  V30 3069 C 302.017 -1.60071 -0.152931 0
M  V30 3070 O 303.207 -1.74033 0.0761879 0
M  V30 3071 C 300.339 -3.39896 0.261383 0
M  V30 3072 H 301.532 -2.41485 1.77834 0
M  V30 3073 H 299.085 -1.23595 0.956757 0
M  V30 3074 H 299.82 -3.17091 -0.68 0
M  V30 3075 H 299.605 -3.79642 0.980514 0
M  V30 3076 H 301.095 -4.17548 0.0657687 0
M  V30 3077 N 301.532 -0.945985 -1.26051 0
M  V30 3078 C 302.779 -0.596118 -1.93527 0
M  V30 3079 C 303.107 0.865559 -1.74179 0
M  V30 3080 O 302.362 1.63524 -1.0751 0
M  V30 3081 C 302.661 -0.890475 -3.46129 0
M  V30 3082 C 302.327 -2.3368 -3.85622 0
M  V30 3083 C 300.989 -2.73216 -3.96114 0
M  V30 3084 C 303.341 -3.27648 -4.05334 0
M  V30 3085 C 300.669 -4.05806 -4.2372 0
M  V30 3086 C 303.021 -4.59841 -4.3443 0
M  V30 3087 C 301.685 -4.99185 -4.43137 0
M  V30 3088 H 300.955 -0.218135 -0.708165 0
M  V30 3089 H 303.602 -1.1934 -1.49768 0
M  V30 3090 H 301.907 -0.210711 -3.91233 0
M  V30 3091 H 303.604 -0.598478 -3.96509 0
M  V30 3092 H 300.194 -2.02015 -3.78005 0
M  V30 3093 H 304.378 -2.98298 -3.96651 0
M  V30 3094 H 299.634 -4.35945 -4.28675 0
M  V30 3095 H 303.808 -5.32641 -4.48628 0
M  V30 3096 H 301.435 -6.01952 -4.64282 0
M  V30 3097 N 303.011 1.40521 -0.713556 0
M  V30 3098 C 304.251 2.02783 -0.256584 0
M  V30 3099 C 304.615 1.55352 1.12827 0
M  V30 3100 O 305.816 2.09663 1.68211 0
M  V30 3101 C 304.087 3.5586 -0.331414 0
M  V30 3102 S 305.646 4.38773 0.0488703 0
M  V30 3103 H 302.464 0.703655 -0.101934 0
M  V30 3104 H 305.066 1.71674 -0.935325 0
M  V30 3105 H 303.77 3.87874 -1.34098 0
M  V30 3106 H 303.301 3.91695 0.365873 0
M  V30 3107 H 305.316 4.79633 1.2715 0
M  V30 3108 N 304.489 0.459591 1.5075 0
M  V30 3109 C 305.737 -0.0991532 2.01857 0
M  V30 3110 C 306.058 -1.41247 1.34441 0
M  V30 3111 O 305.328 -1.89775 0.486022 0
M  V30 3112 H 303.908 -0.039633 0.745948 0
M  V30 3113 H 306.57 0.607387 1.85194 0
M  V30 3114 H 305.666 -0.258998 3.11023 0
M  V30 3115 N 305.967 -1.56429 0.191757 0
M  V30 3116 C 307.215 -1.97095 -0.447006 0
M  V30 3117 C 307.536 -1.07967 -1.62383 0
M  V30 3118 O 306.806 -0.150248 -1.95323 0
M  V30 3119 H 305.386 -0.727832 -0.168135 0
M  V30 3120 H 308.048 -1.92911 0.27771 0
M  V30 3121 H 307.144 -3.01848 -0.793371 0
M  V30 3122 N 307.445 0.0818655 -1.57387 0
M  V30 3123 C 308.67 0.799946 -1.91352 0
M  V30 3124 C 309.095 1.70833 -0.787258 0
M  V30 3125 O 308.453 1.79419 0.26048 0
M  V30 3126 C 308.501 1.57812 -3.24234 0
M  V30 3127 O 307.605 2.68806 -3.12757 0
M  V30 3128 H 306.946 0.21891 -0.626877 0
M  V30 3129 H 309.476 0.0531256 -2.04531 0
M  V30 3130 H 309.486 1.95952 -3.57864 0
M  V30 3131 H 308.161 0.911548 -4.05788 0
M  V30 3132 H 306.738 2.33597 -2.90666 0
M  V30 3133 N 308.923 1.53595 0.353017 0
M  V30 3134 C 310.172 1.69603 1.09168 0
M  V30 3135 C 310.485 0.460925 1.90092 0
M  V30 3136 O 311.691 0.501774 2.66823 0
M  V30 3137 C 310.147 2.99872 1.9901 0
M  V30 3138 C 309.755 4.30687 1.23339 0
M  V30 3139 C 311.499 3.25246 2.72792 0
M  V30 3140 C 309.406 5.52036 2.12156 0
M  V30 3141 H 308.336 0.631966 0.411261 0
M  V30 3142 H 310.987 1.80096 0.351802 0
M  V30 3143 H 309.369 2.83212 2.7678 0
M  V30 3144 H 310.543 4.58019 0.505456 0
M  V30 3145 H 308.858 4.11853 0.613663 0
M  V30 3146 H 311.455 4.13095 3.39495 0
M  V30 3147 H 311.798 2.41846 3.38846 0
M  V30 3148 H 312.331 3.42638 2.021 0
M  V30 3149 H 309.07 6.37951 1.50659 0
M  V30 3150 H 308.59 5.28966 2.82764 0
M  V30 3151 H 310.269 5.87313 2.71427 0
M  V30 3152 N 310.401 -0.613514 1.45168 0
M  V30 3153 C 311.647 -1.37471 1.49096 0
M  V30 3154 C 311.98 -1.93765 0.129901 0
M  V30 3155 O 311.255 -1.74707 -0.854858 0
M  V30 3156 C 311.538 -2.52701 2.56542 0
M  V30 3157 C 311.391 -2.01643 4.0207 0
M  V30 3158 C 312.71 -3.54849 2.60327 0
M  V30 3159 H 309.829 -0.498502 0.54283 0
M  V30 3160 H 312.471 -0.692125 1.76945 0
M  V30 3161 H 310.621 -3.10931 2.32926 0
M  V30 3162 H 312.293 -1.48108 4.36877 0
M  V30 3163 H 310.536 -1.32688 4.13009 0
M  V30 3164 H 311.207 -2.84681 4.72928 0
M  V30 3165 H 313.683 -3.0645 2.81474 0
M  V30 3166 H 312.559 -4.32973 3.37381 0
M  V30 3167 H 312.82 -4.10079 1.6519 0
M  V30 3168 N 311.879 -1.3236 -0.855495 0
M  V30 3169 C 312.827 -1.2118 -1.9854 0
M  V30 3170 C 313.821 -0.116788 -1.68997 0
M  V30 3171 O 315.027 -0.279657 -1.77814 0
M  V30 3172 H 311.402 -0.375608 -0.651477 0
M  V30 3173 H 313.373 -2.16743 -2.05098 0
M  V30 3174 C 312.122 -0.950849 -3.34446 0
M  V30 3175 H 311.445 -1.78563 -3.57708 0
M  V30 3176 H 312.885 -0.912863 -4.14057 0
M  V30 3177 C 311.344 0.346404 -3.35114 0
M  V30 3178 O 311.874 1.35855 -3.7803 0
M  V30 3179 N 310.08 0.36808 -2.88259 0
M  V30 3180 H 309.627 -0.456102 -2.5353 0
M  V30 3181 H 309.585 1.23591 -2.89089 0
M  V30 3182 N 313.357 1.07166 -1.15556 0
M  V30 3183 C 314.267 2.17947 -0.868116 0
M  V30 3184 C 315.283 1.73297 0.156297 0
M  V30 3185 O 316.459 2.01392 -0.0182327 0
M  V30 3186 C 313.524 3.44789 -0.36355 0
M  V30 3187 C 312.585 4.03996 -1.45209 0
M  V30 3188 C 311.818 5.24783 -0.971508 0
M  V30 3189 O 312.041 5.70109 0.182194 0
M  V30 3190 O 310.975 5.75715 -1.75603 0
M  V30 3191 H 314.801 2.4503 -1.79427 0
M  V30 3192 H 312.386 1.16539 -0.934824 0
M  V30 3193 H 314.268 4.21307 -0.0887113 0
M  V30 3194 H 312.943 3.19253 0.534708 0
M  V30 3195 H 311.85 3.29009 -1.78056 0
M  V30 3196 H 313.183 4.33808 -2.32533 0
M  V30 3197 N 314.835 0.952656 1.25548 0
M  V30 3198 C 315.782 0.47008 2.25962 0
M  V30 3199 C 316.752 -0.476384 1.59122 0
M  V30 3200 O 317.937 -0.39007 1.8677 0
M  V30 3201 C 315.077 -0.247881 3.44209 0
M  V30 3202 C 314.19 0.735591 4.25691 0
M  V30 3203 C 313.325 -0.0047306 5.312 0
M  V30 3204 C 312.364 0.969805 6.04368 0
M  V30 3205 N 311.501 0.260486 7.01617 0
M  V30 3206 H 316.341 1.33126 2.66611 0
M  V30 3207 H 313.878 0.66765 1.31076 0
M  V30 3208 H 315.836 -0.680695 4.1161 0
M  V30 3209 H 314.466 -1.07312 3.0444 0
M  V30 3210 H 313.518 1.28689 3.57971 0
M  V30 3211 H 314.83 1.47934 4.76358 0
M  V30 3212 H 313.984 -0.496275 6.04667 0
M  V30 3213 H 312.723 -0.781282 4.81401 0
M  V30 3214 H 311.728 1.47237 5.29718 0
M  V30 3215 H 312.953 1.74655 6.56256 0
M  V30 3216 H 310.899 -0.497364 6.54112 0
M  V30 3217 H 310.816 0.943362 7.50091 0
M  V30 3218 H 312.084 -0.209587 7.79218 0
M  V30 3219 N 316.313 -1.40141 0.720998 0
M  V30 3220 C 317.559 -2.01572 0.272075 0
M  V30 3221 C 317.914 -1.5616 -1.12391 0
M  V30 3222 O 317.207 -0.774198 -1.75262 0
M  V30 3223 C 317.401 -3.56165 0.296892 0
M  V30 3224 C 317.23 -4.16584 1.69375 0
M  V30 3225 C 316 -4.49783 2.30269 0
M  V30 3226 C 318.198 -4.41076 2.64493 0
M  V30 3227 N 316.18 -4.95626 3.62254 0
M  V30 3228 C 317.551 -4.88971 3.81192 0
M  V30 3229 C 319.606 -4.23122 2.62435 0
M  V30 3230 C 318.309 -5.20796 4.96149 0
M  V30 3231 C 320.335 -4.56052 3.76524 0
M  V30 3232 C 319.697 -5.04141 4.91956 0
M  V30 3233 H 315.796 -0.768343 0.145511 0
M  V30 3234 H 318.38 -1.70287 0.943959 0
M  V30 3235 H 316.551 -3.86868 -0.344578 0
M  V30 3236 H 318.283 -4.04346 -0.169254 0
M  V30 3237 H 315.038 -4.37101 1.82318 0
M  V30 3238 H 315.462 -5.22923 4.29977 0
M  V30 3239 H 320.104 -3.85158 1.74393 0
M  V30 3240 H 317.822 -5.57672 5.84831 0
M  V30 3241 H 321.408 -4.43796 3.76213 0
M  V30 3242 H 320.288 -5.29142 5.78774 0
M  V30 3243 N 317.792 -0.46758 -1.50504 0
M  V30 3244 C 319.041 0.0902868 -2.01498 0
M  V30 3245 C 319.354 1.411 -1.35463 0
M  V30 3246 O 320.56 2.0536 -1.77594 0
M  V30 3247 C 319.016 0.21142 -3.59278 0
M  V30 3248 C 318.624 -1.10065 -4.34269 0
M  V30 3249 C 320.368 0.721433 -4.18325 0
M  V30 3250 C 318.275 -0.943505 -5.83825 0
M  V30 3251 H 317.205 0.037517 -0.753066 0
M  V30 3252 H 319.856 -0.601943 -1.73346 0
M  V30 3253 H 318.238 0.967352 -3.84003 0
M  V30 3254 H 319.412 -1.86726 -4.21272 0
M  V30 3255 H 317.727 -1.5415 -3.86816 0
M  V30 3256 H 320.324 0.85598 -5.27804 0
M  V30 3257 H 320.667 1.71186 -3.79475 0
M  V30 3258 H 321.2 0.0229843 -3.97793 0
M  V30 3259 H 317.939 -1.90719 -6.27141 0
M  V30 3260 H 317.459 -0.217213 -5.99407 0
M  V30 3261 H 319.138 -0.608715 -6.4413 0
M  V30 3262 N 319.27 1.56325 -0.20005 0
M  V30 3263 C 320.516 1.98012 0.438059 0
M  V30 3264 C 320.849 1.08702 1.60927 0
M  V30 3265 O 320.124 0.140064 1.93995 0
M  V30 3266 C 320.407 3.48841 0.893419 0
M  V30 3267 C 320.26 4.48928 -0.279947 0
M  V30 3268 C 321.579 4.03498 1.75719 0
M  V30 3269 H 318.698 0.719918 0.157757 0
M  V30 3270 H 321.34 1.87743 -0.291968 0
M  V30 3271 H 319.49 3.57723 1.51547 0
M  V30 3272 H 321.162 4.52079 -0.91772 0
M  V30 3273 H 319.405 4.23694 -0.930919 0
M  V30 3274 H 320.076 5.5194 0.0812601 0
M  V30 3275 H 322.552 3.97427 1.23253 0
M  V30 3276 H 321.428 5.09393 2.04476 0
M  V30 3277 H 321.689 3.4906 2.71311 0
M  V30 3278 N 320.748 -0.0735177 1.57428 0
M  V30 3279 C 321.976 -0.785969 1.9139 0
M  V30 3280 C 322.391 -1.71207 0.795847 0
M  V30 3281 O 321.748 -1.81033 -0.230915 0
M  V30 3282 C 321.799 -1.58107 3.25091 0
M  V30 3283 O 321.52 -0.6922 4.32597 0
M  V30 3284 C 323.021 -2.39467 3.73055 0
M  V30 3285 H 320.241 -0.223558 0.632663 0
M  V30 3286 H 322.785 -0.044302 2.04452 0
M  V30 3287 H 320.94 -2.27503 3.13562 0
M  V30 3288 H 321.354 -1.24504 5.09508 0
M  V30 3289 H 322.828 -2.90716 4.69242 0
M  V30 3290 H 323.305 -3.18913 3.01979 0
M  V30 3291 H 323.911 -1.7523 3.87523 0
M  V30 3292 N 322.226 -1.5378 -0.344866 0
M  V30 3293 C 323.189 -1.80981 -1.40637 0
M  V30 3294 C 324.189 -0.680816 -1.45676 0
M  V30 3295 O 325.379 -0.949095 -1.46075 0
M  V30 3296 C 322.511 -1.95063 -2.79577 0
M  V30 3297 H 323.704 -2.75803 -1.17783 0
M  V30 3298 H 321.257 -1.45173 -0.579181 0
M  V30 3299 H 321.992 -1.02379 -3.07716 0
M  V30 3300 H 321.777 -2.77198 -2.77315 0
M  V30 3301 H 323.267 -2.17629 -3.56409 0
M  V30 3302 N 323.704 0.605807 -1.45491 0
M  V30 3303 C 324.667 1.69836 -1.5391 0
M  V30 3304 C 325.667 1.55261 -0.418424 0
M  V30 3305 O 326.857 1.60296 -0.681965 0
M  V30 3306 C 323.989 3.09117 -1.43734 0
M  V30 3307 H 325.182 1.63738 -2.51257 0
M  V30 3308 H 322.735 0.821689 -1.32959 0
M  V30 3309 H 323.47 3.20791 -0.475788 0
M  V30 3310 H 323.255 3.21104 -2.25021 0
M  V30 3311 H 324.745 3.88696 -1.52661 0
M  V30 3312 N 325.182 1.32811 0.848464 0
M  V30 3313 C 326.132 1.18842 1.94578 0
M  V30 3314 C 327.116 0.0937517 1.60627 0
M  V30 3315 O 328.308 0.320887 1.74067 0
M  V30 3316 C 325.437 0.91999 3.30743 0
M  V30 3317 C 324.523 2.05665 3.70894 0
M  V30 3318 N 324.914 3.30579 3.8282 0
M  V30 3319 C 323.212 1.9612 4.00566 0
M  V30 3320 C 323.913 4.05067 4.17487 0
M  V30 3321 N 322.889 3.33419 4.2934 0
M  V30 3322 H 326.691 2.13536 2.0194 0
M  V30 3323 H 324.205 1.2468 1.0406 0
M  V30 3324 H 326.202 0.800859 4.09136 0
M  V30 3325 H 324.862 -0.0185076 3.24695 0
M  V30 3326 H 325.873 3.65441 3.66978 0
M  V30 3327 H 322.55 1.09871 4.02784 0
M  V30 3328 H 323.94 5.12815 4.34131 0
M  V30 3329 N 326.66 -1.06551 1.16123 0
M  V30 3330 C 327.9 -1.80889 0.951766 0
M  V30 3331 C 328.264 -1.85062 -0.511465 0
M  V30 3332 O 329.465 -2.55353 -0.83954 0
M  V30 3333 C 327.736 -3.21609 1.55893 0
M  V30 3334 S 329.295 -4.12593 1.49373 0
M  V30 3335 H 326.113 -0.623156 0.342341 0
M  V30 3336 H 328.715 -1.27943 1.47821 0
M  V30 3337 H 327.419 -3.16165 2.61664 0
M  V30 3338 H 326.95 -3.79631 1.0317 0
M  V30 3339 H 328.965 -4.93753 0.492196 0
M  V30 3340 N 328.138 -0.959301 -1.25041 0
M  V30 3341 C 329.384 -0.617525 -1.9317 0
M  V30 3342 C 329.717 0.843981 -1.74902 0
M  V30 3343 O 328.992 1.60615 -1.09696 0
M  V30 3344 C 329.275 -0.982736 -3.46431 0
M  V30 3345 C 329.128 -2.50032 -3.73904 0
M  V30 3346 C 330.447 -0.511176 -4.37121 0
M  V30 3347 H 327.566 -0.22582 -0.701552 0
M  V30 3348 H 330.208 -1.19679 -1.4757 0
M  V30 3349 H 328.358 -0.489806 -3.854 0
M  V30 3350 H 330.03 -3.06737 -3.44544 0
M  V30 3351 H 328.273 -2.93598 -3.19348 0
M  V30 3352 H 328.944 -2.70635 -4.81103 0
M  V30 3353 H 331.42 -0.934075 -4.0548 0
M  V30 3354 H 330.296 -0.795361 -5.43107 0
M  V30 3355 H 330.557 0.588834 -4.38161 0
M  V30 3356 N 329.616 1.39756 -0.72842 0
M  V30 3357 C 330.526 2.34444 -0.0855374 0
M  V30 3358 C 331.542 1.57976 0.729356 0
M  V30 3359 O 332.718 1.90301 0.659346 0
M  V30 3360 C 329.783 3.36965 0.815798 0
M  V30 3361 C 328.844 4.29299 -0.0105996 0
M  V30 3362 C 328.077 5.26923 0.84781 0
M  V30 3363 O 328.3 5.30859 2.08673 0
M  V30 3364 O 327.234 6.01249 0.279969 0
M  V30 3365 H 331.06 2.91065 -0.866892 0
M  V30 3366 H 328.645 1.4117 -0.48902 0
M  V30 3367 H 330.527 3.99804 1.33171 0
M  V30 3368 H 329.202 2.82739 1.57608 0
M  V30 3369 H 328.109 3.69703 -0.571877 0
M  V30 3370 H 329.442 4.86712 -0.73295 0
M  V30 3371 N 331.094 0.475555 1.50254 0
M  V30 3372 C 332.322 -0.0754493 2.06762 0
M  V30 3373 C 332.737 -1.33111 1.33891 0
M  V30 3374 O 332.094 -1.77846 0.40952 0
M  V30 3375 C 332.145 -0.359008 3.59713 0
M  V30 3376 O 331.866 0.846851 4.29837 0
M  V30 3377 C 333.367 -0.956484 4.32858 0
M  V30 3378 H 330.587 0.00907525 0.670939 0
M  V30 3379 H 333.131 0.665618 1.93364 0
M  V30 3380 H 331.286 -1.05001 3.72899 0
M  V30 3381 H 331.7 0.594162 5.21124 0
M  V30 3382 H 333.174 -1.10463 5.40834 0
M  V30 3383 H 333.651 -1.94775 3.93649 0
M  V30 3384 H 334.257 -0.303723 4.24214 0
M  V30 3385 N 332.573 -1.56217 0.208337 0
M  V30 3386 C 333.821 -1.97558 -0.426076 0
M  V30 3387 C 334.142 -1.09683 -1.61229 0
M  V30 3388 O 333.412 -0.170956 -1.95153 0
M  V30 3389 H 331.992 -0.729575 -0.160405 0
M  V30 3390 H 334.654 -1.92606 0.298155 0
M  V30 3391 H 333.75 -3.02672 -0.761312 0
M  V30 3392 N 334.051 0.0651679 -1.57465 0
M  V30 3393 C 335.297 0.764193 -1.87851 0
M  V30 3394 C 335.63 1.76889 -0.801495 0
M  V30 3395 O 334.905 1.93594 0.187528 0
M  V30 3396 C 335.188 1.46625 -3.28897 0
M  V30 3397 C 335.041 0.477515 -4.47258 0
M  V30 3398 C 336.36 2.4095 -3.68281 0
M  V30 3399 H 333.479 0.276351 -0.683227 0
M  V30 3400 H 336.121 0.0272868 -1.8998 0
M  V30 3401 H 334.271 2.09438 -3.27212 0
M  V30 3402 H 335.943 -0.145922 -4.61069 0
M  V30 3403 H 334.186 -0.206576 -4.33308 0
M  V30 3404 H 334.857 1.0065 -5.42746 0
M  V30 3405 H 337.333 1.88209 -3.71102 0
M  V30 3406 H 336.209 2.87072 -4.67847 0
M  V30 3407 H 336.47 3.26049 -2.98571 0
M  V30 3408 N 335.529 1.53961 0.336706 0
M  V30 3409 C 336.476 1.82428 1.41381 0
M  V30 3410 C 337.446 0.670444 1.51968 0
M  V30 3411 O 338.631 0.915565 1.67398 0
M  V30 3412 C 335.771 2.04564 2.77934 0
M  V30 3413 C 334.884 3.32267 2.76084 0
M  V30 3414 C 334.019 3.44434 4.04399 0
M  V30 3415 C 333.058 4.66061 3.96804 0
M  V30 3416 N 332.195 4.75224 5.16823 0
M  V30 3417 H 337.035 2.74324 1.16405 0
M  V30 3418 H 334.572 1.35869 0.563752 0
M  V30 3419 H 336.53 2.15388 3.57301 0
M  V30 3420 H 335.16 1.15974 3.01247 0
M  V30 3421 H 334.212 3.3025 1.88784 0
M  V30 3422 H 335.524 4.21733 2.66351 0
M  V30 3423 H 334.678 3.54728 4.92192 0
M  V30 3424 H 333.417 2.53037 4.16921 0
M  V30 3425 H 332.422 4.55838 3.07396 0
M  V30 3426 H 333.647 5.58829 3.85858 0
M  V30 3427 H 331.593 3.86739 5.29876 0
M  V30 3428 H 331.51 5.58636 5.09374 0
M  V30 3429 H 332.778 4.89835 6.06367 0
M  V30 3430 N 337.007 -0.598083 1.45811 0
M  V30 3431 C 338.256 -1.35295 1.49594 0
M  V30 3432 C 338.569 -1.95057 0.145679 0
M  V30 3433 O 339.775 -2.71431 0.0612099 0
M  V30 3434 C 338.231 -2.45124 2.63519 0
M  V30 3435 C 337.839 -1.91732 4.04899 0
M  V30 3436 C 339.583 -3.2205 2.76558 0
M  V30 3437 C 337.49 -2.991 5.1019 0
M  V30 3438 H 336.42 -0.508552 0.556679 0
M  V30 3439 H 339.071 -0.639977 1.71978 0
M  V30 3440 H 337.453 -3.19149 2.34435 0
M  V30 3441 H 338.627 -1.24352 4.43704 0
M  V30 3442 H 336.942 -1.27522 3.96393 0
M  V30 3443 H 339.539 -4.0215 3.52391 0
M  V30 3444 H 339.882 -3.73663 1.83526 0
M  V30 3445 H 340.415 -2.55127 3.05213 0
M  V30 3446 H 337.154 -2.52393 6.04961 0
M  V30 3447 H 336.674 -3.65017 4.75944 0
M  V30 3448 H 338.353 -3.63318 5.35359 0
M  V30 3449 N 338.485 -1.33259 -0.841409 0
M  V30 3450 C 339.713 -1.27605 -1.62864 0
M  V30 3451 C 340.128 0.153507 -1.88175 0
M  V30 3452 O 339.485 1.09485 -1.46011 0
M  V30 3453 C 339.536 -2.04596 -2.98031 0
M  V30 3454 O 339.257 -3.41975 -2.73834 0
M  V30 3455 C 340.758 -2.06122 -3.92465 0
M  V30 3456 H 337.978 -0.439718 -0.506842 0
M  V30 3457 H 340.522 -1.75591 -1.04824 0
M  V30 3458 H 338.677 -1.60299 -3.5268 0
M  V30 3459 H 339.091 -3.81549 -3.59889 0
M  V30 3460 H 340.565 -2.64451 -4.84531 0
M  V30 3461 H 341.042 -1.05083 -4.26444 0
M  V30 3462 H 341.648 -2.50427 -3.43753 0
M  V30 3463 N 339.963 1.05934 -1.16686 0
M  V30 3464 C 341.209 1.79065 -0.95203 0
M  V30 3465 C 341.542 1.87147 0.518629 0
M  V30 3466 O 340.817 1.36574 1.38484 0
M  V30 3467 C 341.1 3.23359 -1.58464 0
M  V30 3468 C 340.953 3.23336 -3.12689 0
M  V30 3469 C 342.272 4.21004 -1.28232 0
M  V30 3470 H 339.391 0.65005 -0.34728 0
M  V30 3471 H 342.033 1.23868 -1.44072 0
M  V30 3472 H 340.183 3.70493 -1.16908 0
M  V30 3473 H 341.855 2.84336 -3.6325 0
M  V30 3474 H 340.098 2.61886 -3.4583 0
M  V30 3475 H 340.769 4.25144 -3.52075 0
M  V30 3476 H 343.245 3.8233 -1.64203 0
M  V30 3477 H 342.121 5.20225 -1.75092 0
M  V30 3478 H 342.382 4.41639 -0.201791 0
M  V30 3479 N 341.441 0.965919 1.2453 0
M  V30 3480 C 342.687 0.62776 1.92839 0
M  V30 3481 C 343.02 -0.834694 1.75347 0
M  V30 3482 O 342.295 -1.60031 1.10546 0
M  V30 3483 C 342.578 1.00109 3.45905 0
M  V30 3484 C 342.431 2.52011 3.72573 0
M  V30 3485 C 343.75 0.53435 4.36844 0
M  V30 3486 H 340.869 0.229537 0.700344 0
M  V30 3487 H 343.511 1.2046 1.46933 0
M  V30 3488 H 341.661 0.510238 3.85135 0
M  V30 3489 H 343.333 3.08559 3.42912 0
M  V30 3490 H 341.576 2.95287 3.17786 0
M  V30 3491 H 342.247 2.73183 4.79661 0
M  V30 3492 H 344.723 0.955565 4.04979 0
M  V30 3493 H 343.599 0.824152 5.42678 0
M  V30 3494 H 343.86 -0.565589 4.38467 0
M  V30 3495 N 342.919 -1.39368 0.735821 0
M  V30 3496 C 343.882 -2.2896 0.104874 0
M  V30 3497 C 344.882 -1.46347 -0.666274 0
M  V30 3498 O 346.072 -1.67014 -0.49517 0
M  V30 3499 C 343.204 -3.29857 -0.860656 0
M  V30 3500 H 344.397 -2.86259 0.894205 0
M  V30 3501 H 341.95 -1.48029 0.501704 0
M  V30 3502 H 342.685 -2.77615 -1.67631 0
M  V30 3503 H 342.47 -3.9087 -0.310327 0
M  V30 3504 H 343.96 -3.96893 -1.29867 0
M  V30 3505 N 344.397 -0.483516 -1.5 0
M  V30 3506 C 345.645 0.067027 -2.01989 0
M  V30 3507 C 345.966 1.3909 -1.36671 0
M  V30 3508 O 345.236 1.88978 -0.516152 0
M  V30 3509 H 343.816 0.0277606 -0.746484 0
M  V30 3510 H 346.478 -0.636773 -1.84204 0
M  V30 3511 H 345.574 0.209484 -3.11396 0
M  V30 3512 N 345.875 1.56104 -0.216619 0
M  V30 3513 C 346.785 2.23694 0.706982 0
M  V30 3514 C 347.801 1.24295 1.21765 0
M  V30 3515 O 348.977 1.57094 1.2603 0
M  V30 3516 C 346.042 2.8998 1.90033 0
M  V30 3517 C 345.103 4.04708 1.43213 0
M  V30 3518 C 344.336 4.67824 2.56859 0
M  V30 3519 O 344.559 4.29913 3.74874 0
M  V30 3520 O 343.493 5.56905 2.28343 0
M  V30 3521 H 347.319 3.03272 0.161235 0
M  V30 3522 H 344.904 1.49394 0.0136177 0
M  V30 3523 H 346.786 3.31837 2.59735 0
M  V30 3524 H 345.461 2.13365 2.43428 0
M  V30 3525 H 344.368 3.6743 0.70327 0
M  V30 3526 H 345.701 4.83051 0.944615 0
M  V30 3527 N 347.353 -0.0568162 1.57498 0
M  V30 3528 C 348.303 -1.07315 2.01166 0
M  V30 3529 C 349.287 -1.33632 0.896171 0
M  V30 3530 O 350.479 -1.33682 1.16009 0
M  V30 3531 C 347.608 -2.38257 2.47161 0
M  V30 3532 C 346.694 -2.1515 3.65474 0
M  V30 3533 N 347.085 -1.62014 4.7915 0
M  V30 3534 C 345.383 -2.45559 3.72313 0
M  V30 3535 C 346.084 -1.54069 5.60926 0
M  V30 3536 N 345.06 -2.00652 5.05213 0
M  V30 3537 H 348.862 -0.655878 2.86488 0
M  V30 3538 H 346.376 -0.263635 1.60246 0
M  V30 3539 H 348.373 -3.11845 2.76691 0
M  V30 3540 H 347.033 -2.80687 1.63232 0
M  V30 3541 H 348.044 -1.30667 5.01145 0
M  V30 3542 H 344.721 -2.91253 2.99129 0
M  V30 3543 H 346.111 -1.13712 6.62208 0
M  V30 3544 N 348.832 -1.54138 -0.328536 0
M  V30 3545 C 349.78 -1.83894 -1.42428 0
M  V30 3546 C 350.774 -0.710478 -1.53781 0
M  V30 3547 O 351.98 -0.894062 -1.56226 0
M  V30 3548 H 348.355 -0.582837 -0.475189 0
M  V30 3549 H 350.326 -2.75537 -1.14552 0
M  V30 3550 C 349.075 -2.07866 -2.78724 0
M  V30 3551 H 348.398 -2.94158 -2.7076 0
M  V30 3552 H 349.838 -2.32644 -3.54476 0
M  V30 3553 C 348.297 -0.868689 -3.25508 0
M  V30 3554 O 348.827 -0.0754908 -4.01629 0
M  V30 3555 N 347.033 -0.681711 -2.82491 0
M  V30 3556 H 346.58 -1.32838 -2.20708 0
M  V30 3557 H 346.538 0.126374 -3.14146 0
M  V30 3558 N 350.31 0.590341 -1.46126 0
M  V30 3559 C 351.559 1.34499 -1.50309 0
M  V30 3560 C 351.872 1.94977 -0.156021 0
M  V30 3561 O 353.078 2.71395 -0.0756037 0
M  V30 3562 C 351.534 2.43723 -2.64815 0
M  V30 3563 C 351.142 1.89582 -4.0591 0
M  V30 3564 C 352.886 3.20579 -2.78262 0
M  V30 3565 C 350.793 2.9639 -5.11769 0
M  V30 3566 H 349.723 0.505593 -0.559368 0
M  V30 3567 H 352.374 0.630848 -1.72315 0
M  V30 3568 H 350.756 3.17902 -2.36124 0
M  V30 3569 H 351.93 1.21997 -4.44357 0
M  V30 3570 H 350.245 1.25418 -3.97063 0
M  V30 3571 H 352.842 4.00276 -3.54519 0
M  V30 3572 H 353.185 3.72684 -1.85505 0
M  V30 3573 H 353.718 2.53505 -3.06562 0
M  V30 3574 H 350.457 2.49181 -6.06291 0
M  V30 3575 H 349.977 3.62487 -4.77873 0
M  V30 3576 H 351.656 3.60474 -5.37278 0
M  V30 3577 N 351.788 1.33704 0.83433 0
M  V30 3578 C 352.698 1.26382 1.97648 0
M  V30 3579 C 353.714 0.173548 1.73132 0
M  V30 3580 O 354.89 0.397962 1.97429 0
M  V30 3581 C 351.955 1.00769 3.31733 0
M  V30 3582 C 351.016 2.1884 3.69334 0
M  V30 3583 C 350.249 1.9444 4.9702 0
M  V30 3584 O 350.472 0.896961 5.63303 0
M  V30 3585 O 349.406 2.81093 5.32231 0
M  V30 3586 H 353.232 2.22444 2.06767 0
M  V30 3587 H 350.817 1.13795 0.968037 0
M  V30 3588 H 352.699 0.882186 4.12062 0
M  V30 3589 H 351.374 0.0773783 3.23608 0
M  V30 3590 H 350.281 2.36946 2.89495 0
M  V30 3591 H 351.614 3.10221 3.82131 0
M  V30 3592 N 353.266 -1.05314 1.17247 0
M  V30 3593 C 354.176 -2.16538 0.90268 0
M  V30 3594 C 355.192 -1.73523 -0.128707 0
M  V30 3595 O 356.368 -2.01337 0.0502701 0
M  V30 3596 C 353.433 -3.44167 0.418356 0
M  V30 3597 C 352.494 -4.01635 1.51618 0
M  V30 3598 C 351.727 -5.23171 1.05487 0
M  V30 3599 O 351.95 -5.70327 -0.0914715 0
M  V30 3600 O 350.884 -5.72848 1.8474 0
M  V30 3601 H 354.71 -2.42145 1.83302 0
M  V30 3602 H 352.295 -1.15037 0.953246 0
M  V30 3603 H 354.177 -4.21112 0.155726 0
M  V30 3604 H 352.852 -3.20063 -0.48385 0
M  V30 3605 H 351.759 -3.26135 1.83268 0
M  V30 3606 H 353.092 -4.30053 2.39405 0
M  V30 3607 N 354.744 -0.972509 -1.24016 0
M  V30 3608 C 355.972 -0.654803 -1.96265 0
M  V30 3609 C 356.387 0.776708 -1.72083 0
M  V30 3610 O 355.744 1.52171 -1.00748 0
M  V30 3611 C 355.795 -0.92592 -3.49441 0
M  V30 3612 O 355.516 -2.30116 -3.72798 0
M  V30 3613 C 357.017 -0.623068 -4.38899 0
M  V30 3614 H 354.237 -0.243907 -0.6251 0
M  V30 3615 H 356.781 -1.30175 -1.57717 0
M  V30 3616 H 354.936 -0.325108 -3.86033 0
M  V30 3617 H 355.35 -2.38483 -4.67147 0
M  V30 3618 H 356.824 -0.863189 -5.45209 0
M  V30 3619 H 357.301 0.442754 -4.36963 0
M  V30 3620 H 357.907 -1.204 -4.07902 0
M  V30 3621 N 356.222 1.38976 -0.743202 0
M  V30 3622 C 357.132 2.3434 -0.110399 0
M  V30 3623 C 358.148 1.58741 0.712559 0
M  V30 3624 O 359.324 1.9099 0.639125 0
M  V30 3625 C 356.389 3.37812 0.780012 0
M  V30 3626 C 355.45 4.29263 -0.0561319 0
M  V30 3627 C 354.683 5.27793 0.791875 0
M  V30 3628 O 354.906 5.33043 2.03031 0
M  V30 3629 O 353.84 6.01512 0.216183 0
M  V30 3630 H 357.666 2.90129 -0.897714 0
M  V30 3631 H 355.251 1.40643 -0.503966 0
M  V30 3632 H 357.133 4.01194 1.28923 0
M  V30 3633 H 355.808 2.84395 1.546 0
M  V30 3634 H 354.715 3.69076 -0.611056 0
M  V30 3635 H 356.048 4.85907 -0.784531 0
M  V30 3636 N 357.7 0.491464 1.49741 0
M  V30 3637 C 358.65 -0.311086 2.25868 0
M  V30 3638 C 359.634 -0.943857 1.30308 0
M  V30 3639 O 360.826 -0.853035 1.55088 0
M  V30 3640 C 357.955 -1.38059 3.14316 0
M  V30 3641 C 357.041 -0.754541 4.17334 0
M  V30 3642 N 357.432 0.137216 5.05614 0
M  V30 3643 C 355.73 -1.01621 4.34269 0
M  V30 3644 C 356.431 0.494614 5.79593 0
M  V30 3645 N 355.407 -0.135169 5.43432 0
M  V30 3646 H 359.209 0.37555 2.91491 0
M  V30 3647 H 356.723 0.306917 1.59473 0
M  V30 3648 H 358.72 -1.96891 3.67477 0
M  V30 3649 H 357.38 -2.06901 2.50244 0
M  V30 3650 H 358.391 0.50741 5.15408 0
M  V30 3651 H 355.068 -1.69808 3.81407 0
M  V30 3652 H 356.458 1.2236 6.60665 0
M  V30 3653 N 359.178 -1.55987 0.224894 0
M  V30 3654 C 360.406 -2.02784 -0.410665 0
M  V30 3655 C 360.821 -1.10464 -1.53112 0
M  V30 3656 O 360.178 -0.114871 -1.82138 0
M  V30 3657 C 360.229 -3.49087 -0.939165 0
M  V30 3658 O 359.95 -4.37887 0.136614 0
M  V30 3659 C 361.451 -4.11543 -1.64763 0
M  V30 3660 H 358.671 -0.663484 -0.100148 0
M  V30 3661 H 361.215 -2.01614 0.342326 0
M  V30 3662 H 359.37 -3.50861 -1.64242 0
M  V30 3663 H 359.784 -5.23849 -0.261155 0
M  V30 3664 H 361.258 -5.15673 -1.96939 0
M  V30 3665 H 361.735 -3.56736 -2.56195 0
M  V30 3666 H 362.341 -4.13629 -0.989503 0
M  V30 3667 N 360.656 0.0484629 -1.57525 0
M  V30 3668 C 361.566 1.07241 -2.08654 0
M  V30 3669 C 362.582 1.409 -1.02095 0
M  V30 3670 O 363.758 1.50609 -1.33712 0
M  V30 3671 C 360.823 2.36008 -2.5397 0
M  V30 3672 C 359.884 2.09108 -3.7493 0
M  V30 3673 C 359.117 3.31736 -4.18075 0
M  V30 3674 O 359.34 4.41714 -3.60895 0
M  V30 3675 O 358.274 3.18576 -5.10679 0
M  V30 3676 H 362.1 0.667965 -2.96263 0
M  V30 3677 H 359.685 0.26417 -1.47046 0
M  V30 3678 H 361.567 3.11747 -2.83535 0
M  V30 3679 H 360.242 2.75786 -1.69481 0
M  V30 3680 H 359.149 1.31 -3.50414 0
M  V30 3681 H 360.482 1.74198 -4.60343 0
M  V30 3682 N 362.134 1.5431 0.320358 0
M  V30 3683 C 363.066 1.80262 1.41556 0
M  V30 3684 C 364.079 0.684723 1.477 0
M  V30 3685 O 365.268 0.961886 1.50366 0
M  V30 3686 C 362.368 1.90825 2.8007 0
M  V30 3687 C 361.541 3.21023 2.97091 0
M  V30 3688 C 360.6 3.22247 4.15985 0
M  V30 3689 O 359.626 3.95871 4.08992 0
M  V30 3690 N 360.828 2.46258 5.25678 0
M  V30 3691 H 363.593 2.74778 1.19655 0
M  V30 3692 H 361.154 1.53646 0.510358 0
M  V30 3693 H 363.146 1.89067 3.57821 0
M  V30 3694 H 361.716 1.03392 2.95006 0
M  V30 3695 H 360.936 3.35715 2.06614 0
M  V30 3696 H 362.224 4.0698 3.05361 0
M  V30 3697 H 361.622 1.86037 5.34235 0
M  V30 3698 H 360.179 2.50275 6.01835 0
M  V30 3699 N 363.613 -0.582584 1.46437 0
M  V30 3700 C 364.56 -1.69164 1.5701 0
M  V30 3701 C 365.53 -1.60847 0.414403 0
M  V30 3702 O 366.715 -1.80058 0.631171 0
M  V30 3703 C 363.855 -3.075 1.56646 0
M  V30 3704 C 362.968 -3.2644 2.82951 0
M  V30 3705 C 362.103 -4.55026 2.7409 0
M  V30 3706 C 361.142 -4.6731 3.95333 0
M  V30 3707 N 360.279 -5.87221 3.84858 0
M  V30 3708 H 365.119 -1.59464 2.51744 0
M  V30 3709 H 362.656 -0.777186 1.24893 0
M  V30 3710 H 364.614 -3.8757 1.5442 0
M  V30 3711 H 363.244 -3.16096 0.654439 0
M  V30 3712 H 362.296 -2.39974 2.95155 0
M  V30 3713 H 363.608 -3.31385 3.72808 0
M  V30 3714 H 362.762 -5.43324 2.6997 0
M  V30 3715 H 361.501 -4.52519 1.81873 0
M  V30 3716 H 360.506 -3.77429 3.99784 0
M  V30 3717 H 361.731 -4.71595 4.88646 0
M  V30 3718 H 359.677 -5.85712 2.95427 0
M  V30 3719 H 359.594 -5.93435 4.6837 0
M  V30 3720 H 360.862 -6.7795 3.84713 0
M  V30 3721 N 365.091 -1.34144 -0.827227 0
M  V30 3722 C 366.507 -1.13732 -1.11969 0
M  V30 3723 C 366.707 0.0640463 -2.01398 0
M  V30 3724 O 365.763 0.740856 -2.41387 0
M  V30 3725 C 367.076 -2.43047 -1.77055 0
M  V30 3726 C 368.624 -2.49063 -1.89569 0
M  V30 3727 C 369.099 -3.78369 -2.58072 0
M  V30 3728 N 370.59 -3.79505 -2.65575 0
M  V30 3729 C 371.325 -4.76274 -3.19297 0
M  V30 3730 N 370.821 -5.83424 -3.73616 0
M  V30 3731 N 372.614 -4.63735 -3.17658 0
M  V30 3732 H 364.765 -2.11126 -0.232296 0
M  V30 3733 H 367.028 -0.933424 -0.165602 0
M  V30 3734 H 366.734 -3.31025 -1.18807 0
M  V30 3735 H 366.608 -2.56066 -2.76966 0
M  V30 3736 H 368.995 -1.61527 -2.46968 0
M  V30 3737 H 369.076 -2.39975 -0.885745 0
M  V30 3738 H 368.72 -4.66293 -2.01329 0
M  V30 3739 H 368.65 -3.84737 -3.59562 0
M  V30 3740 H 371.141 -3.02074 -2.27068 0
M  V30 3741 H 371.454 -6.53282 -4.12846 0
M  V30 3742 H 369.799 -5.87143 -3.71871 0
M  V30 3743 H 372.99 -3.79177 -2.74486 0
M  V30 3744 H 373.163 -5.39318 -3.59221 0
M  V30 3745 N 366.569 1.04691 -1.17803 0
M  V30 3746 C 367.517 2.14665 -0.895635 0
M  V30 3747 C 368.511 1.68806 0.141679 0
M  V30 3748 O 369.717 1.79999 -0.00587914 0
M  V30 3749 H 366.092 0.701038 -0.272121 0
M  V30 3750 H 368.063 2.35685 -1.83017 0
M  V30 3751 C 366.812 3.45019 -0.430962 0
M  V30 3752 H 366.135 3.8071 -1.22064 0
M  V30 3753 H 367.575 4.23125 -0.272301 0
M  V30 3754 C 366.034 3.25943 0.852207 0
M  V30 3755 O 366.564 3.5296 1.91786 0
M  V30 3756 N 364.77 2.79304 0.802346 0
M  V30 3757 H 364.317 2.57518 -0.0650788 0
M  V30 3758 H 364.275 2.66921 1.66134 0
M  V30 3759 N 368.047 0.979072 1.23499 0
M  V30 3760 C 369.293 0.648178 1.92163 0
M  V30 3761 C 369.626 -0.816049 1.76222 0
M  V30 3762 O 368.901 -1.58849 1.12237 0
M  V30 3763 C 369.184 1.03773 3.44824 0
M  V30 3764 C 369.037 2.55948 3.69879 0
M  V30 3765 C 370.356 0.580653 4.36253 0
M  V30 3766 H 367.475 0.236952 0.69787 0
M  V30 3767 H 370.117 1.22012 1.45647 0
M  V30 3768 H 368.267 0.551058 3.84572 0
M  V30 3769 H 369.939 3.12179 3.3962 0
M  V30 3770 H 368.182 2.98641 3.14636 0
M  V30 3771 H 368.853 2.78255 4.76737 0
M  V30 3772 H 371.329 0.998465 4.03943 0
M  V30 3773 H 370.205 0.881663 5.41773 0
M  V30 3774 H 370.466 -0.519052 4.39042 0
M  V30 3775 N 369.525 -1.3858 0.750561 0
M  V30 3776 C 370.774 -1.99424 0.302172 0
M  V30 3777 C 371.087 -1.60254 -1.12152 0
M  V30 3778 O 372.293 -2.14046 -1.67023 0
M  V30 3779 C 370.749 -3.56558 0.489307 0
M  V30 3780 C 370.357 -4.04682 1.92189 0
M  V30 3781 C 372.101 -4.24374 0.103478 0
M  V30 3782 C 370.008 -5.54446 2.05775 0
M  V30 3783 H 368.938 -0.746046 0.10923 0
M  V30 3784 H 371.589 -1.58383 0.92667 0
M  V30 3785 H 369.971 -3.95472 -0.204329 0
M  V30 3786 H 371.145 -3.77065 2.64875 0
M  V30 3787 H 369.46 -3.4958 2.26236 0
M  V30 3788 H 372.057 -5.34384 0.183787 0
M  V30 3789 H 372.4 -4.05468 -0.943481 0
M  V30 3790 H 372.933 -3.90688 0.748854 0
M  V30 3791 H 369.672 -5.78252 3.08714 0
M  V30 3792 H 369.192 -5.83816 1.37546 0
M  V30 3793 H 370.871 -6.20099 1.84626 0
M  V30 3794 N 371.003 -0.499398 -1.49478 0
M  V30 3795 C 372.419 -0.155261 -1.58843 0
M  V30 3796 C 372.619 1.34008 -1.50479 0
M  V30 3797 O 371.675 2.11589 -1.37791 0
M  V30 3798 C 372.988 -0.730636 -2.91689 0
M  V30 3799 C 374.536 -0.696599 -3.0515 0
M  V30 3800 C 375.011 -1.25001 -4.40612 0
M  V30 3801 N 376.502 -1.21064 -4.47099 0
M  V30 3802 C 377.237 -1.60905 -5.50361 0
M  V30 3803 N 376.733 -2.08331 -6.60735 0
M  V30 3804 N 378.526 -1.52331 -5.41065 0
M  V30 3805 H 370.677 -1.47162 -1.53158 0
M  V30 3806 H 372.94 -0.610309 -0.725415 0
M  V30 3807 H 372.646 -1.77928 -3.03372 0
M  V30 3808 H 372.52 -0.190161 -3.7672 0
M  V30 3809 H 374.907 0.343204 -2.93097 0
M  V30 3810 H 374.988 -1.2742 -2.21806 0
M  V30 3811 H 374.632 -2.28859 -4.53416 0
M  V30 3812 H 374.562 -0.64836 -5.22593 0
M  V30 3813 H 377.053 -0.863128 -3.67911 0
M  V30 3814 H 377.366 -2.36805 -7.35624 0
M  V30 3815 H 375.711 -2.12304 -6.6178 0
M  V30 3816 H 378.902 -1.151 -4.53729 0
M  V30 3817 H 379.075 -1.83704 -6.21415 0
M  V30 3818 N 372.481 1.55866 -0.233164 0
M  V30 3819 C 373.73 1.97779 0.39579 0
M  V30 3820 C 374.043 1.12419 1.60066 0
M  V30 3821 O 375.249 1.44283 2.29988 0
M  V30 3822 C 373.705 3.5188 0.755556 0
M  V30 3823 C 373.313 4.45959 -0.427152 0
M  V30 3824 C 375.057 4.02479 1.34946 0
M  V30 3825 C 372.964 5.91383 -0.0443043 0
M  V30 3826 H 371.894 0.738592 0.15165 0
M  V30 3827 H 374.545 1.80486 -0.331212 0
M  V30 3828 H 372.927 3.64816 1.5403 0
M  V30 3829 H 374.101 4.44776 -1.20462 0
M  V30 3830 H 372.416 4.05765 -0.935068 0
M  V30 3831 H 375.013 5.08637 1.649 0
M  V30 3832 H 375.356 3.49014 2.26925 0
M  V30 3833 H 375.889 3.92813 0.62791 0
M  V30 3834 H 372.628 6.48857 -0.930874 0
M  V30 3835 H 372.148 5.95734 0.697238 0
M  V30 3836 H 373.827 6.45893 0.378334 0
M  V30 3837 N 373.959 -0.0401083 1.57549 0
M  V30 3838 C 375.208 -0.732108 1.87944 0
M  V30 3839 C 375.521 -1.77107 0.830206 0
M  V30 3840 O 376.727 -2.51488 1.02302 0
M  V30 3841 C 375.183 -1.35315 3.33494 0
M  V30 3842 C 374.791 -0.351105 4.46622 0
M  V30 3843 C 376.535 -2.02566 3.73051 0
M  V30 3844 C 374.442 -0.979859 5.83226 0
M  V30 3845 H 373.372 -0.277188 0.701201 0
M  V30 3846 H 376.023 0.0138501 1.83495 0
M  V30 3847 H 374.405 -2.14844 3.32653 0
M  V30 3848 H 375.579 0.416674 4.58912 0
M  V30 3849 H 373.894 0.218708 4.15825 0
M  V30 3850 H 376.491 -2.50441 4.72423 0
M  V30 3851 H 376.834 -2.83904 3.04474 0
M  V30 3852 H 377.367 -1.29827 3.76018 0
M  V30 3853 H 374.106 -0.206135 6.55176 0
M  V30 3854 H 373.626 -1.71774 5.74677 0
M  V30 3855 H 375.305 -1.49046 6.29599 0
M  V30 3856 N 375.437 -1.54477 -0.31217 0
M  V30 3857 C 376.848 -1.64344 -0.885891 0
M  V30 3858 C 377.199 -0.54485 -1.88483 0
M  V30 3859 O 376.324 0.320387 -2.14015 0
M  V30 3860 C 376.919 -2.97908 -1.61357 0
M  V30 3861 C 375.478 -3.09933 -2.13585 0
M  V30 3862 C 374.625 -2.59971 -0.964897 0
M  V30 3863 H 377.576 -1.58448 -0.0894528 0
M  V30 3864 H 377.597 -2.88706 -2.47848 0
M  V30 3865 H 377.109 -3.77845 -0.886277 0
M  V30 3866 H 375.21 -2.34694 -2.89395 0
M  V30 3867 H 375.323 -4.15916 -2.37804 0
M  V30 3868 H 373.687 -2.16147 -1.34731 0
M  V30 3869 H 374.47 -3.42376 -0.251742 0
M  V30 3870 N 376.915 0.57481 -1.46744 0
M  V30 3871 C 377.865 1.67838 -1.54319 0
M  V30 3872 C 378.849 1.55759 -0.40346 0
M  V30 3873 O 380.041 1.6454 -0.652347 0
M  V30 3874 C 377.17 3.06624 -1.5439 0
M  V30 3875 C 376.256 3.23971 -2.73685 0
M  V30 3876 N 376.647 3.11447 -3.9854 0
M  V30 3877 C 374.945 3.5493 -2.70075 0
M  V30 3878 C 375.646 3.31011 -4.78337 0
M  V30 3879 N 374.622 3.56533 -4.10348 0
M  V30 3880 H 378.424 1.56698 -2.48642 0
M  V30 3881 H 375.938 0.779071 -1.42493 0
M  V30 3882 H 377.935 3.85839 -1.57905 0
M  V30 3883 H 376.595 3.1889 -0.611493 0
M  V30 3884 H 377.606 2.89145 -4.29669 0
M  V30 3885 H 374.283 3.73832 -1.85893 0
M  V30 3886 H 375.673 3.26445 -5.87268 0
M  V30 3887 N 378.394 1.34581 0.820102 0
M  V30 3888 C 379.344 1.22943 1.92013 0
M  V30 3889 C 380.328 0.127802 1.60392 0
M  V30 3890 O 381.52 0.357737 1.73347 0
M  V30 3891 C 378.649 0.989938 3.28717 0
M  V30 3892 C 377.735 2.13486 3.66449 0
M  V30 3893 N 378.126 3.38625 3.75722 0
M  V30 3894 C 376.424 2.04573 3.96315 0
M  V30 3895 C 377.125 4.13832 4.08801 0
M  V30 3896 N 376.101 3.42451 4.22171 0
M  V30 3897 H 379.903 2.17771 1.97365 0
M  V30 3898 H 377.417 1.2686 1.01392 0
M  V30 3899 H 379.414 0.887462 4.07345 0
M  V30 3900 H 378.074 0.0503691 3.24661 0
M  V30 3901 H 379.085 3.73143 3.59144 0
M  V30 3902 H 375.762 1.1839 4.00362 0
M  V30 3903 H 377.152 5.21909 4.23156 0
M  V30 3904 N 379.872 -1.04064 1.18357 0
M  V30 3905 C 380.82 -2.14187 0.907007 0
M  V30 3906 C 381.814 -1.68879 -0.132725 0
M  V30 3907 O 383.02 -1.79993 0.0154248 0
M  V30 3908 H 379.395 -0.699585 0.275835 0
M  V30 3909 H 381.366 -2.34711 1.84264 0
M  V30 3910 C 380.115 -3.44785 0.449254 0
M  V30 3911 H 379.438 -3.80058 1.24081 0
M  V30 3912 H 380.878 -4.22974 0.294737 0
M  V30 3913 C 379.337 -3.26391 -0.834909 0
M  V30 3914 O 379.867 -3.53973 -1.89911 0
M  V30 3915 N 378.073 -2.79726 -0.787523 0
M  V30 3916 H 377.62 -2.5748 0.0787347 0
M  V30 3917 H 377.578 -2.67798 -1.64716 0
M  V30 3918 N 381.35 -0.985608 -1.22978 0
M  V30 3919 C 382.58 -0.674603 -1.95276 0
M  V30 3920 C 382.988 0.763483 -1.73111 0
M  V30 3921 O 382.331 1.52601 -1.02268 0
M  V30 3922 C 382.393 -0.891597 -3.48268 0
M  V30 3923 C 382.057 -2.31275 -3.94158 0
M  V30 3924 C 383.054 -3.29179 -4.02415 0
M  V30 3925 C 380.739 -2.64524 -4.27004 0
M  V30 3926 C 382.733 -4.58407 -4.42879 0
M  V30 3927 C 380.42 -3.93974 -4.67149 0
M  V30 3928 C 381.418 -4.90727 -4.75053 0
M  V30 3929 O 381.106 -6.17865 -5.14294 0
M  V30 3930 H 380.838 -0.249251 -0.628371 0
M  V30 3931 H 383.392 -1.32106 -1.5728 0
M  V30 3932 H 381.622 -0.187962 -3.86243 0
M  V30 3933 H 383.311 -0.576957 -4.01779 0
M  V30 3934 H 384.077 -3.04823 -3.77237 0
M  V30 3935 H 379.956 -1.89923 -4.2006 0
M  V30 3936 H 383.5 -5.33926 -4.48964 0
M  V30 3937 H 379.397 -4.18122 -4.91777 0
M  V30 3938 H 380.165 -6.21694 -5.32389 0
M  V30 3939 N 382.828 1.3818 -0.7579 0
M  V30 3940 C 383.776 2.32277 -0.122482 0
M  V30 3941 C 384.77 1.54238 0.700505 0
M  V30 3942 O 385.976 1.69737 0.599119 0
M  V30 3943 H 382.351 0.751712 -0.0208143 0
M  V30 3944 H 384.322 2.83469 -0.932099 0
M  V30 3945 C 383.071 3.39447 0.753076 0
M  V30 3946 H 382.394 3.99591 0.129184 0
M  V30 3947 H 383.834 4.07684 1.16489 0
M  V30 3948 C 382.293 2.78375 1.8976 0
M  V30 3949 O 382.823 2.68025 2.99208 0
M  V30 3950 N 381.029 2.36121 1.69397 0
M  V30 3951 H 380.576 2.4474 0.803762 0
M  V30 3952 H 380.534 1.95602 2.46145 0
M  V30 3953 N 384.306 0.507319 1.49211 0
M  V30 3954 C 385.269 -0.256763 2.27757 0
M  V30 3955 C 386.269 -0.888287 1.34038 0
M  V30 3956 O 387.459 -0.751841 1.5714 0
M  V30 3957 C 384.591 -1.36905 3.12202 0
M  V30 3958 H 385.784 0.432557 2.96764 0
M  V30 3959 H 383.337 0.262488 1.5408 0
M  V30 3960 H 384.072 -2.09233 2.47775 0
M  V30 3961 H 383.857 -0.921599 3.81115 0
M  V30 3962 H 385.347 -1.9071 3.7151 0
M  V30 3963 N 385.784 -1.5574 0.241426 0
M  V30 3964 C 386.747 -2.19877 -0.647063 0
M  V30 3965 C 387.747 -1.16642 -1.10686 0
M  V30 3966 O 388.937 -1.41757 -1.01245 0
M  V30 3967 C 386.069 -2.83797 -1.88871 0
M  V30 3968 H 387.262 -2.99772 -0.087574 0
M  V30 3969 H 384.815 -1.56298 -0.00813574 0
M  V30 3970 H 385.55 -2.07824 -2.48957 0
M  V30 3971 H 385.335 -3.59414 -1.56728 0
M  V30 3972 H 386.825 -3.32898 -2.52129 0
M  V30 3973 N 387.262 0.0317525 -1.57568 0
M  V30 3974 C 388.511 0.722131 -1.8833 0
M  V30 3975 C 388.824 1.76664 -0.839587 0
M  V30 3976 O 390.03 2.50942 -1.03635 0
M  V30 3977 C 388.486 1.33544 -3.34207 0
M  V30 3978 C 388.094 0.327415 -4.46802 0
M  V30 3979 C 389.838 2.00585 -3.7412 0
M  V30 3980 C 387.745 0.948915 -5.83738 0
M  V30 3981 H 386.675 0.273466 -0.702661 0
M  V30 3982 H 389.326 -0.0235811 -1.83485 0
M  V30 3983 H 387.708 2.13077 -3.33788 0
M  V30 3984 H 388.882 -0.441006 -4.58685 0
M  V30 3985 H 387.197 -0.240758 -4.15703 0
M  V30 3986 H 389.794 2.47932 -4.73744 0
M  V30 3987 H 390.137 2.82285 -3.05975 0
M  V30 3988 H 390.67 1.27831 -3.76702 0
M  V30 3989 H 387.409 0.171387 -6.55276 0
M  V30 3990 H 386.929 1.68724 -5.7558 0
M  V30 3991 H 388.608 1.45705 -6.3038 0
M  V30 3992 N 388.74 1.54641 0.303973 0
M  V30 3993 C 389.688 1.86137 1.39484 0
M  V30 3994 C 390.682 0.734854 1.52631 0
M  V30 3995 O 391.888 0.918803 1.54784 0
M  V30 3996 H 388.263 0.590324 0.465856 0
M  V30 3997 H 390.234 2.77324 1.10154 0
M  V30 3998 C 388.983 2.12274 2.75382 0
M  V30 3999 H 388.306 2.98429 2.66046 0
M  V30 4000 H 389.746 2.38254 3.5073 0
M  V30 4001 C 388.205 0.920365 3.24085 0
M  V30 4002 O 388.735 0.139377 4.01458 0
M  V30 4003 N 386.941 0.726566 2.81371 0
M  V30 4004 H 386.488 1.36332 2.18567 0
M  V30 4005 H 386.446 -0.0763799 3.14307 0
M  V30 4006 N 390.218 -0.567019 1.47046 0
M  V30 4007 C 391.165 -1.67489 1.58796 0
M  V30 4008 C 392.135 -1.60399 0.43144 0
M  V30 4009 O 393.32 -1.79378 0.650233 0
M  V30 4010 C 390.46 -3.05821 1.59899 0
M  V30 4011 C 389.573 -3.2342 2.86397 0
M  V30 4012 C 388.708 -4.52093 2.789 0
M  V30 4013 C 387.747 -4.6309 4.00267 0
M  V30 4014 N 386.884 -5.83106 3.91064 0
M  V30 4015 H 391.724 -1.56785 2.53422 0
M  V30 4016 H 389.261 -0.763896 1.2571 0
M  V30 4017 H 391.219 -3.8591 1.58522 0
M  V30 4018 H 389.849 -3.15384 0.687929 0
M  V30 4019 H 388.901 -2.3683 2.97684 0
M  V30 4020 H 390.213 -3.27412 3.76301 0
M  V30 4021 H 389.367 -5.4043 2.75718 0
M  V30 4022 H 388.106 -4.50565 1.86662 0
M  V30 4023 H 387.111 -3.73168 4.03765 0
M  V30 4024 H 388.336 -4.66386 4.93621 0
M  V30 4025 H 386.282 -5.82546 3.01623 0
M  V30 4026 H 386.199 -5.88434 4.74638 0
M  V30 4027 H 387.467 -6.73831 3.91882 0
M  V30 4028 N 391.696 -1.35014 -0.812953 0
M  V30 4029 C 392.926 -1.30841 -1.59888 0
M  V30 4030 C 393.334 0.117576 -1.88834 0
M  V30 4031 O 392.677 1.07807 -1.48739 0
M  V30 4032 C 392.739 -2.0412 -2.95931 0
M  V30 4033 C 392.403 -3.53336 -2.89832 0
M  V30 4034 C 393.4 -4.48052 -2.63714 0
M  V30 4035 C 391.085 -3.95894 -3.0915 0
M  V30 4036 C 393.079 -5.833 -2.56982 0
M  V30 4037 C 390.766 -5.31239 -3.0204 0
M  V30 4038 C 391.764 -6.24754 -2.75991 0
M  V30 4039 O 391.452 -7.57617 -2.68833 0
M  V30 4040 H 391.184 -0.451215 -0.50337 0
M  V30 4041 H 393.738 -1.78354 -1.01877 0
M  V30 4042 H 391.968 -1.51235 -3.559 0
M  V30 4043 H 393.657 -1.93107 -3.57022 0
M  V30 4044 H 394.423 -4.16492 -2.48515 0
M  V30 4045 H 390.302 -3.23495 -3.28438 0
M  V30 4046 H 393.846 -6.56263 -2.36569 0
M  V30 4047 H 389.743 -5.62415 -3.16796 0
M  V30 4048 H 390.511 -7.67469 -2.84487 0
M  V30 4049 N 393.175 1.03435 -1.18907 0
M  V30 4050 C 394.123 2.13703 -0.918353 0
M  V30 4051 C 395.117 1.68947 0.123767 0
M  V30 4052 O 396.323 1.79983 -0.0249701 0
M  V30 4053 H 392.698 0.698112 -0.279542 0
M  V30 4054 H 394.669 2.33731 -1.85506 0
M  V30 4055 C 393.418 3.44542 -0.467532 0
M  V30 4056 H 392.741 3.79394 -1.26095 0
M  V30 4057 H 394.181 4.22812 -0.317164 0
M  V30 4058 C 392.64 3.26829 0.817588 0
M  V30 4059 O 393.17 3.54975 1.88031 0
M  V30 4060 N 391.376 2.80139 0.772677 0
M  V30 4061 H 390.923 2.57434 -0.0923883 0
M  V30 4062 H 390.881 2.68668 1.63294 0
M  V30 4063 N 394.653 0.992116 1.22453 0
M  V30 4064 C 395.603 0.512969 2.22155 0
M  V30 4065 C 396.587 -0.418416 1.55364 0
M  V30 4066 O 397.779 -0.245363 1.75291 0
M  V30 4067 C 394.908 -0.171822 3.4287 0
M  V30 4068 C 393.994 0.779822 4.16869 0
M  V30 4069 N 394.385 1.92734 4.6764 0
M  V30 4070 C 392.683 0.59554 4.42006 0
M  V30 4071 C 393.384 2.52458 5.24061 0
M  V30 4072 N 392.36 1.80735 5.12675 0
M  V30 4073 H 396.162 1.38817 2.5905 0
M  V30 4074 H 393.676 0.854277 1.38115 0
M  V30 4075 H 395.673 -0.532469 4.13486 0
M  V30 4076 H 394.333 -1.04317 3.07487 0
M  V30 4077 H 395.344 2.30816 4.63621 0
M  V30 4078 H 392.021 -0.229805 4.16867 0
M  V30 4079 H 393.411 3.49433 5.73887 0
M  V30 4080 N 396.131 -1.37776 0.765217 0
M  V30 4081 C 397.408 -1.93975 0.251596 0
M  V30 4082 C 397.788 -1.69949 -1.25222 0
M  V30 4083 O 397.136 -1.04457 -2.03226 0
M  V30 4084 C 397.346 -3.43487 0.617895 0
M  V30 4085 C 398.694 -4.20564 0.584029 0
M  V30 4086 O 399.718 -3.5182 0.556888 0
M  V30 4087 O 398.577 -5.43138 0.605291 0
M  V30 4088 H 395.671 -0.82509 0.0561806 0
M  V30 4089 H 398.217 -1.47101 0.846128 0
M  V30 4090 H 396.989 -3.5453 1.65602 0
M  V30 4091 H 396.612 -3.976 -0.00403411 0
M  V30 4092 N 397.609 -0.515225 -1.4894 0
M  V30 4093 C 398.858 0.0261361 -2.01683 0
M  V30 4094 C 399.171 1.36719 -1.39883 0
M  V30 4095 O 400.377 1.99606 -1.84037 0
M  V30 4096 C 398.833 0.0970111 -3.59769 0
M  V30 4097 C 398.441 -1.23825 -4.30548 0
M  V30 4098 C 400.185 0.587981 -4.20408 0
M  V30 4099 C 398.092 -1.12877 -5.80528 0
M  V30 4100 H 397.022 0.0135398 -0.753878 0
M  V30 4101 H 399.673 -0.656787 -1.71343 0
M  V30 4102 H 398.055 0.844694 -3.86886 0
M  V30 4103 H 399.229 -2.00034 -4.15118 0
M  V30 4104 H 397.544 -1.66379 -3.81716 0
M  V30 4105 H 400.141 0.68763 -5.3026 0
M  V30 4106 H 400.484 1.59026 -3.84729 0
M  V30 4107 H 401.017 -0.103582 -3.97665 0
M  V30 4108 H 397.756 -2.10575 -6.20756 0
M  V30 4109 H 397.276 -0.407799 -5.98412 0
M  V30 4110 H 398.955 -0.813332 -6.41868 0
M  V30 4111 N 399.087 1.5561 -0.249682 0
M  V30 4112 C 400.05 2.20217 0.635394 0
M  V30 4113 C 401.05 1.17227 1.10066 0
M  V30 4114 O 402.24 1.42292 1.00492 0
M  V30 4115 C 399.372 2.84794 1.87363 0
M  V30 4116 H 400.565 2.99814 0.0716752 0
M  V30 4117 H 398.118 1.563 -0.000153234 0
M  V30 4118 H 398.853 2.09142 2.47851 0
M  V30 4119 H 398.638 3.60241 1.5482 0
M  V30 4120 H 400.128 3.3423 2.5036 0
M  V30 4121 N 400.565 -0.0233959 1.57583 0
M  V30 4122 C 401.495 -1.02162 2.09965 0
M  V30 4123 C 402.476 -1.3735 1.00344 0
M  V30 4124 O 403.661 -1.46135 1.27899 0
M  V30 4125 C 400.791 -2.32081 2.58371 0
M  V30 4126 C 399.745 -2.1112 3.72307 0
M  V30 4127 C 399.071 -3.46848 4.06941 0
M  V30 4128 C 400.371 -1.49276 5.00514 0
M  V30 4129 H 402.065 -0.585557 2.93618 0
M  V30 4130 H 399.611 -0.280218 1.41247 0
M  V30 4131 H 401.564 -3.02249 2.93639 0
M  V30 4132 H 400.288 -2.77758 1.71808 0
M  V30 4133 H 398.947 -1.43384 3.37397 0
M  V30 4134 H 398.595 -3.90184 3.17436 0
M  V30 4135 H 398.295 -3.33646 4.83688 0
M  V30 4136 H 399.819 -4.18369 4.44747 0
M  V30 4137 H 401.233 -2.09368 5.33702 0
M  V30 4138 H 399.63 -1.46632 5.8191 0
M  V30 4139 H 400.7 -0.459217 4.82721 0
M  V30 4140 N 402.043 -1.548 -0.295768 0
M  V30 4141 C 402.973 -1.89115 -1.36959 0
M  V30 4142 C 403.954 -0.75059 -1.52644 0
M  V30 4143 O 405.139 -1.00678 -1.66065 0
M  V30 4144 C 402.269 -2.14307 -2.73295 0
M  V30 4145 C 401.223 -3.30151 -2.72368 0
M  V30 4146 C 400.549 -3.40772 -4.12042 0
M  V30 4147 C 401.849 -4.67126 -2.33646 0
M  V30 4148 H 403.543 -2.79053 -1.08488 0
M  V30 4149 H 401.089 -1.34266 -0.520443 0
M  V30 4150 H 403.042 -2.36898 -3.48507 0
M  V30 4151 H 401.766 -1.21145 -3.03301 0
M  V30 4152 H 400.425 -3.0749 -1.99613 0
M  V30 4153 H 400.073 -2.45117 -4.39234 0
M  V30 4154 H 399.773 -4.18645 -4.12322 0
M  V30 4155 H 401.297 -3.6563 -4.89027 0
M  V30 4156 H 402.711 -4.89414 -2.98575 0
M  V30 4157 H 401.108 -5.47751 -2.45129 0
M  V30 4158 H 402.178 -4.67489 -1.28772 0
M  V30 4159 N 403.521 0.559213 -1.47345 0
M  V30 4160 C 404.431 1.69388 -1.62311 0
M  V30 4161 C 405.447 1.6648 -0.505993 0
M  V30 4162 O 406.623 1.85964 -0.773262 0
M  V30 4163 C 403.688 3.05894 -1.63185 0
M  V30 4164 C 402.749 3.19885 -2.86307 0
M  V30 4165 C 401.982 4.49879 -2.87131 0
M  V30 4166 O 402.205 5.35217 -1.97229 0
M  V30 4167 O 401.139 4.67618 -3.78968 0
M  V30 4168 H 404.965 1.59706 -2.58317 0
M  V30 4169 H 402.55 0.728989 -1.30407 0
M  V30 4170 H 404.432 3.87133 -1.66451 0
M  V30 4171 H 403.107 3.15964 -0.70345 0
M  V30 4172 H 402.014 2.38052 -2.88587 0
M  V30 4173 H 403.347 3.14718 -3.78435 0
M  V30 4174 N 404.999 1.35443 0.805782 0
M  V30 4175 C 405.929 1.31095 1.93226 0
M  V30 4176 C 406.91 0.185244 1.69088 0
M  V30 4177 O 408.095 0.380332 1.90439 0
M  V30 4178 C 405.225 1.08299 3.29983 0
M  V30 4179 C 404.179 2.17519 3.68605 0
M  V30 4180 C 403.505 1.79887 5.03532 0
M  V30 4181 C 404.805 3.5949 3.78898 0
M  V30 4182 H 406.499 2.25352 1.97122 0
M  V30 4183 H 404.045 1.0848 0.946996 0
M  V30 4184 H 405.998 1.03897 4.08391 0
M  V30 4185 H 404.722 0.104885 3.26432 0
M  V30 4186 H 403.381 2.2102 2.92482 0
M  V30 4187 H 403.029 0.80693 4.96485 0
M  V30 4188 H 402.729 2.53001 5.30344 0
M  V30 4189 H 404.253 1.77011 5.84379 0
M  V30 4190 H 405.667 3.58307 4.47536 0
M  V30 4191 H 404.064 4.31371 4.1718 0
M  V30 4192 H 405.134 3.95584 2.80431 0
M  V30 4193 N 406.477 -1.02803 1.19454 0
M  V30 4194 C 407.754 -1.73299 0.907013 0
M  V30 4195 C 408.134 -2.02772 -0.587086 0
M  V30 4196 O 407.482 -1.68304 -1.54551 0
M  V30 4197 C 407.692 -3.00912 1.76785 0
M  V30 4198 C 409.04 -3.74403 2.00268 0
M  V30 4199 O 410.064 -3.10841 1.73943 0
M  V30 4200 O 408.923 -4.88675 2.4466 0
M  V30 4201 H 406.017 -0.754727 0.338106 0
M  V30 4202 H 408.563 -1.08754 1.30271 0
M  V30 4203 H 407.335 -2.75366 2.7801 0
M  V30 4204 H 406.958 -3.73197 1.37149 0
M  V30 4205 N 407.956 -0.998596 -1.21925 0
M  V30 4206 C 408.866 -0.562736 -2.27751 0
M  V30 4207 C 409.882 0.391203 -1.69545 0
M  V30 4208 O 411.058 0.256625 -1.99758 0
M  V30 4209 C 408.123 0.11012 -3.46525 0
M  V30 4210 C 407.184 -0.887495 -4.20026 0
M  V30 4211 C 406.417 -0.246654 -5.3313 0
M  V30 4212 O 406.64 0.958088 -5.62296 0
M  V30 4213 O 405.574 -0.954374 -5.94286 0
M  V30 4214 H 409.4 -1.44329 -2.67213 0
M  V30 4215 H 406.985 -0.767135 -1.28201 0
M  V30 4216 H 408.867 0.486756 -4.18579 0
M  V30 4217 H 407.542 0.965154 -3.08976 0
M  V30 4218 H 406.449 -1.31517 -3.5022 0
M  V30 4219 H 407.782 -1.71191 -4.6147 0
M  V30 4220 N 409.434 1.37368 -0.772513 0
M  V30 4221 C 410.845 1.8231 -0.402493 0
M  V30 4222 C 411.196 1.6436 1.07146 0
M  V30 4223 O 410.321 1.15514 1.82991 0
M  V30 4224 C 410.916 3.30979 -0.723776 0
M  V30 4225 C 409.475 3.74195 -0.406802 0
M  V30 4226 C 408.622 2.59885 -0.967218 0
M  V30 4227 H 411.573 1.25829 -0.967099 0
M  V30 4228 H 411.594 3.80499 -0.00870832 0
M  V30 4229 H 411.106 3.44011 -1.7966 0
M  V30 4230 H 409.207 3.66732 0.658673 0
M  V30 4231 H 409.32 4.7027 -0.915588 0
M  V30 4232 H 407.684 2.51674 -0.391416 0
M  V30 4233 H 408.467 2.7571 -2.04546 0
M  V30 4234 N 410.912 0.523116 1.48665 0
M  V30 4235 C 411.842 -0.23231 2.32342 0
M  V30 4236 C 412.823 -0.941637 1.41659 0
M  V30 4237 O 414.008 -0.928751 1.70552 0
M  V30 4238 C 411.138 -1.28387 3.22698 0
M  V30 4239 C 410.092 -0.693098 4.22351 0
M  V30 4240 C 409.418 -1.8468 5.01794 0
M  V30 4241 C 410.718 0.33063 5.21252 0
M  V30 4242 H 412.412 0.466192 2.95748 0
M  V30 4243 H 409.958 0.225643 1.42221 0
M  V30 4244 H 411.911 -1.82024 3.80059 0
M  V30 4245 H 410.635 -2.01186 2.57278 0
M  V30 4246 H 409.294 -0.178299 3.66166 0
M  V30 4247 H 408.942 -2.56301 4.32804 0
M  V30 4248 H 408.642 -1.45747 5.69238 0
M  V30 4249 H 410.166 -2.38709 5.62006 0
M  V30 4250 H 411.58 -0.118407 5.73178 0
M  V30 4251 H 409.977 0.636974 5.9671 0
M  V30 4252 H 411.047 1.23883 4.68808 0
M  V30 4253 N 412.39 -1.55475 0.257931 0
M  V30 4254 C 413.636 -1.99502 -0.364266 0
M  V30 4255 C 413.969 -1.146 -1.56782 0
M  V30 4256 O 413.244 -0.211968 -1.93342 0
M  V30 4257 C 413.527 -3.51917 -0.763333 0
M  V30 4258 C 413.38 -4.4758 0.446371 0
M  V30 4259 C 414.699 -4.09742 -1.60623 0
M  V30 4260 H 411.818 -0.725277 -0.130929 0
M  V30 4261 H 414.46 -1.8653 0.361446 0
M  V30 4262 H 412.61 -3.63101 -1.38166 0
M  V30 4263 H 414.282 -4.48362 1.08487 0
M  V30 4264 H 412.525 -4.19947 1.08753 0
M  V30 4265 H 413.196 -5.51862 0.123645 0
M  V30 4266 H 415.672 -4.01727 -1.08418 0
M  V30 4267 H 414.548 -5.16631 -1.85429 0
M  V30 4268 H 414.809 -3.58889 -2.58169 0
M  V30 4269 N 413.868 0.0150385 -1.57593 0
M  V30 4270 C 414.798 1.01047 -2.10503 0
M  V30 4271 C 415.779 1.36816 -1.01071 0
M  V30 4272 O 416.964 1.45455 -1.28672 0
M  V30 4273 C 414.094 2.30708 -2.59598 0
M  V30 4274 C 413.048 2.09142 -3.73421 0
M  V30 4275 C 412.374 3.44685 -4.08774 0
M  V30 4276 C 413.674 1.46619 -5.01298 0
M  V30 4277 H 415.368 0.569978 -2.93925 0
M  V30 4278 H 412.914 0.272724 -1.41394 0
M  V30 4279 H 414.867 3.00687 -2.95238 0
M  V30 4280 H 413.591 2.76843 -1.73279 0
M  V30 4281 H 412.25 1.41592 -3.38153 0
M  V30 4282 H 411.898 3.88495 -3.195 0
M  V30 4283 H 411.598 3.31077 -4.8545 0
M  V30 4284 H 413.122 4.16004 -4.4696 0
M  V30 4285 H 414.536 2.06535 -5.34805 0
M  V30 4286 H 412.933 1.43544 -5.82679 0
M  V30 4287 H 414.003 0.433611 -4.82957 0
M  V30 4288 N 415.346 1.54954 0.287554 0
M  V30 4289 C 416.294 1.87606 1.37502 0
M  V30 4290 C 417.288 0.751001 1.51843 0
M  V30 4291 O 418.494 0.935169 1.53801 0
M  V30 4292 H 414.869 0.595231 0.459569 0
M  V30 4293 H 416.84 2.78477 1.07206 0
M  V30 4294 C 415.589 2.15183 2.73115 0
M  V30 4295 H 414.912 3.01234 2.62866 0
M  V30 4296 H 416.352 2.4196 3.48183 0
M  V30 4297 C 414.811 0.954686 3.2309 0
M  V30 4298 O 415.341 0.181949 4.01288 0
M  V30 4299 N 413.547 0.756368 2.80584 0
M  V30 4300 H 413.094 1.38643 2.17108 0
M  V30 4301 H 413.052 -0.0430391 3.14371 0
M  V30 4302 N 416.824 -0.551391 1.4764 0
M  V30 4303 C 418.049 -1.33837 1.58437 0
M  V30 4304 C 418.474 -1.866 0.237063 0
M  V30 4305 O 417.832 -1.6328 -0.787994 0
M  V30 4306 C 417.88 -2.48014 2.61766 0
M  V30 4307 O 416.984 -3.50419 2.1744 0
M  V30 4308 H 416.325 -0.397299 0.532024 0
M  V30 4309 H 418.855 -0.665759 1.93465 0
M  V30 4310 H 418.865 -2.94503 2.82369 0
M  V30 4311 H 417.54 -2.08969 3.5959 0
M  V30 4312 H 416.117 -3.10196 2.06961 0
M  V30 4313 N 418.302 -1.35869 -0.798587 0
M  V30 4314 C 419.532 -1.32529 -1.58491 0
M  V30 4315 C 419.94 0.0975405 -1.88948 0
M  V30 4316 O 419.283 1.06224 -1.49874 0
M  V30 4317 C 419.345 -2.07247 -2.9375 0
M  V30 4318 C 419.009 -3.56391 -2.86068 0
M  V30 4319 C 420.006 -4.50824 -2.58947 0
M  V30 4320 C 417.691 -3.9915 -3.04933 0
M  V30 4321 C 419.685 -5.85993 -2.5078 0
M  V30 4322 C 417.372 -5.34413 -2.96389 0
M  V30 4323 C 418.37 -6.27646 -2.69349 0
M  V30 4324 O 418.058 -7.60426 -2.60782 0
M  V30 4325 H 417.79 -0.456529 -0.498556 0
M  V30 4326 H 420.344 -1.79425 -0.999799 0
M  V30 4327 H 418.574 -1.55001 -3.54276 0
M  V30 4328 H 420.263 -1.96883 -3.54954 0
M  V30 4329 H 421.029 -4.19104 -2.44084 0
M  V30 4330 H 416.908 -3.26961 -3.24989 0
M  V30 4331 H 420.452 -6.58735 -2.29595 0
M  V30 4332 H 416.349 -5.65743 -3.10813 0
M  V30 4333 H 417.117 -7.70444 -2.76331 0
M  V30 4334 N 419.78 1.02168 -1.19998 0
M  V30 4335 C 421.026 1.75945 -1.00852 0
M  V30 4336 C 421.359 1.88702 0.458828 0
M  V30 4337 O 420.634 1.40911 1.34069 0
M  V30 4338 C 420.917 3.18154 -1.68671 0
M  V30 4339 C 420.77 3.13224 -3.22817 0
M  V30 4340 C 422.089 4.16711 -1.41561 0
M  V30 4341 H 419.208 0.638673 -0.367785 0
M  V30 4342 H 421.85 1.19222 -1.4794 0
M  V30 4343 H 420 3.66586 -1.28636 0
M  V30 4344 H 421.672 2.72635 -3.72112 0
M  V30 4345 H 419.915 2.50751 -3.53986 0
M  V30 4346 H 420.586 4.13728 -3.65422 0
M  V30 4347 H 423.062 3.76913 -1.76284 0
M  V30 4348 H 421.938 5.14391 -1.91553 0
M  V30 4349 H 422.199 4.40774 -0.342193 0
M  V30 4350 N 421.258 1.00505 1.21394 0
M  V30 4351 C 422.486 0.706609 1.9446 0
M  V30 4352 C 422.901 -0.73081 1.74082 0
M  V30 4353 O 422.258 -1.49446 1.04747 0
M  V30 4354 C 422.309 1.01824 3.46863 0
M  V30 4355 O 422.03 2.39919 3.66566 0
M  V30 4356 C 423.531 0.739216 4.37093 0
M  V30 4357 H 420.751 0.260394 0.618414 0
M  V30 4358 H 423.295 1.34311 1.54211 0
M  V30 4359 H 421.45 0.427343 3.85036 0
M  V30 4360 H 421.864 2.50784 4.6066 0
M  V30 4361 H 423.338 1.00744 5.42729 0
M  V30 4362 H 423.815 -0.326746 4.37983 0
M  V30 4363 H 424.421 1.31173 4.04566 0
M  V30 4364 N 422.737 -1.36956 0.779787 0
M  V30 4365 C 424.148 -1.82094 0.412156 0
M  V30 4366 C 424.499 -1.64926 -1.06273 0
M  V30 4367 O 423.624 -1.16483 -1.82375 0
M  V30 4368 C 424.219 -3.3059 0.741319 0
M  V30 4369 C 422.778 -3.73974 0.426641 0
M  V30 4370 C 421.925 -2.59368 0.980987 0
M  V30 4371 H 424.876 -1.25314 0.973758 0
M  V30 4372 H 424.897 -3.80489 0.028887 0
M  V30 4373 H 424.409 -3.43054 1.81482 0
M  V30 4374 H 422.51 -3.67076 -0.639215 0
M  V30 4375 H 422.623 -4.69778 0.940515 0
M  V30 4376 H 420.987 -2.51463 0.404757 0
M  V30 4377 H 421.77 -2.74621 2.06005 0
M  V30 4378 N 424.215 -0.530993 -1.48385 0
M  V30 4379 C 425.464 0.00474348 -2.01699 0
M  V30 4380 C 425.777 1.35227 -1.41325 0
M  V30 4381 O 426.983 1.97643 -1.86144 0
M  V30 4382 C 425.439 0.0588473 -3.59852 0
M  V30 4383 C 425.047 -1.28385 -4.2921 0
M  V30 4384 C 426.791 0.543358 -4.21008 0
M  V30 4385 C 424.698 -1.19028 -5.79298 0
M  V30 4386 H 423.628 0.00554317 -0.75398 0
M  V30 4387 H 426.279 -0.674924 -1.70637 0
M  V30 4388 H 424.661 0.803612 -3.8776 0
M  V30 4389 H 425.835 -2.04426 -4.12973 0
M  V30 4390 H 424.15 -1.70418 -3.7993 0
M  V30 4391 H 426.747 0.631351 -5.3096 0
M  V30 4392 H 427.09 1.54937 -3.86394 0
M  V30 4393 H 427.623 -0.145754 -3.97533 0
M  V30 4394 H 424.362 -2.17147 -6.18488 0
M  V30 4395 H 423.882 -0.471246 -5.97946 0
M  V30 4396 H 425.561 -0.881365 -6.40969 0
M  V30 4397 N 425.693 1.55336 -0.266172 0
M  V30 4398 C 426.933 2.01303 0.354459 0
M  V30 4399 C 427.297 1.15046 1.53715 0
M  V30 4400 O 428.498 1.50554 2.22681 0
M  V30 4401 C 426.769 3.49748 0.735579 0
M  V30 4402 S 428.328 4.1771 1.34401 0
M  V30 4403 H 425.146 0.702333 0.110674 0
M  V30 4404 H 427.748 1.91653 -0.385916 0
M  V30 4405 H 426.452 4.10181 -0.134196 0
M  V30 4406 H 425.983 3.63364 1.50764 0
M  V30 4407 H 427.998 4.20594 2.63278 0
M  V30 4408 N 427.171 -0.0066808 1.57599 0
M  V30 4409 C 428.42 -0.692078 1.89455 0
M  V30 4410 C 428.733 -1.75306 0.867586 0
M  V30 4411 O 429.939 -2.49262 1.07614 0
M  V30 4412 C 428.395 -1.2821 3.36289 0
M  V30 4413 C 428.003 -0.256291 4.47266 0
M  V30 4414 C 429.747 -1.94608 3.77264 0
M  V30 4415 C 427.654 -0.855927 5.85173 0
M  V30 4416 H 426.584 -0.262252 0.706923 0
M  V30 4417 H 429.235 0.052769 1.83424 0
M  V30 4418 H 427.617 -2.0774 3.37135 0
M  V30 4419 H 428.791 0.513923 4.57925 0
M  V30 4420 H 427.106 0.306862 4.15268 0
M  V30 4421 H 429.703 -2.40364 4.77629 0
M  V30 4422 H 430.046 -2.77382 3.10427 0
M  V30 4423 H 430.579 -1.21822 3.78688 0
M  V30 4424 H 427.318 -0.0671161 6.55466 0
M  V30 4425 H 426.838 -1.59546 5.78191 0
M  V30 4426 H 428.517 -1.35658 6.32618 0
M  V30 4427 N 428.649 -1.55105 -0.279332 0
M  V30 4428 C 429.612 -1.86783 -1.32834 0
M  V30 4429 C 430.612 -0.74199 -1.42657 0
M  V30 4430 O 431.802 -1.0102 -1.41918 0
M  V30 4431 C 428.934 -2.06746 -2.71052 0
M  V30 4432 H 430.127 -2.8055 -1.05979 0
M  V30 4433 H 427.68 -1.47499 -0.517087 0
M  V30 4434 H 428.415 -1.15339 -3.03097 0
M  V30 4435 H 428.2 -2.88711 -2.65309 0
M  V30 4436 H 429.69 -2.32549 -3.46858 0
M  V30 4437 N 430.127 0.543554 -1.4793 0
M  V30 4438 C 431.404 1.30458 -1.4574 0
M  V30 4439 C 431.784 2.1048 -0.161692 0
M  V30 4440 O 431.132 2.11831 0.856734 0
M  V30 4441 C 431.342 2.19754 -2.71126 0
M  V30 4442 C 432.69 2.80334 -3.18901 0
M  V30 4443 O 433.714 2.30049 -2.71948 0
M  V30 4444 O 432.573 3.71766 -4.00565 0
M  V30 4445 H 429.667 0.588117 -0.581418 0
M  V30 4446 H 432.213 0.561328 -1.60147 0
M  V30 4447 H 430.985 1.60316 -3.56952 0
M  V30 4448 H 430.608 3.01351 -2.59371 0
M  V30 4449 N 431.605 1.3629 0.791371 0
M  V30 4450 C 432.552 1.30458 1.90393 0
M  V30 4451 C 433.522 0.173632 1.6519 0
M  V30 4452 O 434.707 0.35983 1.87376 0
M  V30 4453 C 431.847 1.09777 3.27174 0
M  V30 4454 C 430.96 2.31929 3.64462 0
M  V30 4455 C 430.095 2.04276 4.90352 0
M  V30 4456 C 429.134 3.224 5.20312 0
M  V30 4457 N 428.271 2.94424 6.37385 0
M  V30 4458 H 433.111 2.25589 1.94714 0
M  V30 4459 H 430.648 1.12122 0.952216 0
M  V30 4460 H 432.606 0.958133 4.06049 0
M  V30 4461 H 431.236 0.183014 3.22281 0
M  V30 4462 H 430.288 2.56703 2.80727 0
M  V30 4463 H 431.6 3.20085 3.82553 0
M  V30 4464 H 430.754 1.87231 5.77087 0
M  V30 4465 H 429.493 1.13428 4.74326 0
M  V30 4466 H 428.498 3.40005 4.32061 0
M  V30 4467 H 429.723 4.14071 5.38258 0
M  V30 4468 H 427.669 2.06185 6.22755 0
M  V30 4469 H 427.586 3.76118 6.55798 0
M  V30 4470 H 428.854 2.80953 7.27108 0
M  V30 4471 N 433.083 -1.0153 1.20538 0
M  V30 4472 C 433.993 -2.13557 0.971113 0
M  V30 4473 C 435.009 -1.73845 -0.0734366 0
M  V30 4474 O 436.185 -2.01075 0.114299 0
M  V30 4475 C 433.25 -3.42661 0.527639 0
M  V30 4476 C 432.311 -3.96608 1.64319 0
M  V30 4477 C 431.544 -5.1955 1.22078 0
M  V30 4478 O 431.767 -5.70329 0.0900198 0
M  V30 4479 O 430.701 -5.66681 2.02871 0
M  V30 4480 H 434.527 -2.3619 1.90913 0
M  V30 4481 H 432.112 -1.11946 0.989362 0
M  V30 4482 H 433.994 -4.20404 0.289621 0
M  V30 4483 H 432.669 -3.21441 -0.381779 0
M  V30 4484 H 431.576 -3.20139 1.93551 0
M  V30 4485 H 432.909 -4.22219 2.52966 0
M  V30 4486 N 434.561 -1.01147 -1.20859 0
M  V30 4487 C 435.791 -0.715872 -1.93801 0
M  V30 4488 C 436.199 0.726592 -1.74692 0
M  V30 4489 O 435.542 1.50397 -1.05482 0
M  V30 4490 C 435.604 -0.965269 -3.46299 0
M  V30 4491 C 435.268 -2.39584 -3.89164 0
M  V30 4492 C 436.265 -3.3764 -3.95342 0
M  V30 4493 C 433.95 -2.73522 -4.21297 0
M  V30 4494 C 435.944 -4.67698 -4.33056 0
M  V30 4495 C 433.631 -4.03794 -4.58687 0
M  V30 4496 C 434.629 -5.00693 -4.64538 0
M  V30 4497 O 434.317 -6.28635 -5.01072 0
M  V30 4498 H 434.049 -0.262524 -0.622942 0
M  V30 4499 H 436.603 -1.35413 -1.54443 0
M  V30 4500 H 434.833 -0.269847 -3.85757 0
M  V30 4501 H 436.522 -0.662051 -4.00464 0
M  V30 4502 H 437.288 -3.12757 -3.70686 0
M  V30 4503 H 433.167 -1.9879 -4.15937 0
M  V30 4504 H 436.711 -5.4333 -4.37537 0
M  V30 4505 H 432.608 -4.28459 -4.82797 0
M  V30 4506 H 433.376 -6.32847 -5.19083 0
M  V30 4507 N 436.039 1.36541 -0.78704 0
M  V30 4508 C 437.267 2.03561 -0.370199 0
M  V30 4509 C 437.682 1.59347 1.01263 0
M  V30 4510 O 437.039 0.781781 1.64907 0
M  V30 4511 C 437.09 3.59033 -0.421614 0
M  V30 4512 O 436.811 4.01634 -1.7499 0
M  V30 4513 C 438.312 4.433 0.00489763 0
M  V30 4514 H 435.532 0.653346 -0.152904 0
M  V30 4515 H 438.076 1.74566 -1.06522 0
M  V30 4516 H 436.231 3.86746 0.224971 0
M  V30 4517 H 436.645 4.96217 -1.69909 0
M  V30 4518 H 438.119 5.51939 -0.0822184 0
M  V30 4519 H 438.596 4.26285 1.05723 0
M  V30 4520 H 439.202 4.20843 -0.614085 0
M  V30 4521 N 437.518 0.538854 1.48102 0
M  V30 4522 C 438.466 -0.232325 2.31437 0
M  V30 4523 C 439.46 -0.927004 1.41785 0
M  V30 4524 O 440.666 -0.850378 1.58646 0
M  V30 4525 H 437.041 -0.0937916 0.746128 0
M  V30 4526 H 439.012 0.489986 2.9435 0
M  V30 4527 C 437.761 -1.26074 3.24038 0
M  V30 4528 H 437.084 -0.735609 3.92974 0
M  V30 4529 H 438.524 -1.77157 3.85216 0
M  V30 4530 C 436.983 -2.29902 2.46265 0
M  V30 4531 O 437.513 -3.36502 2.19384 0
M  V30 4532 N 435.719 -2.03348 2.07601 0
M  V30 4533 H 435.266 -1.16675 2.29662 0
M  V30 4534 H 435.224 -2.73038 1.55877 0
M  V30 4535 N 438.996 -1.55193 0.274407 0
M  V30 4536 C 440.245 -1.98758 -0.343213 0
M  V30 4537 C 440.558 -1.16624 -1.5703 0
M  V30 4538 O 441.764 -1.5033 -2.26082 0
M  V30 4539 C 440.22 -3.53759 -0.661996 0
M  V30 4540 C 439.828 -4.4467 0.54524 0
M  V30 4541 C 441.572 -4.05916 -1.24228 0
M  V30 4542 C 439.479 -5.91058 0.201084 0
M  V30 4543 H 438.409 -0.742353 -0.132014 0
M  V30 4544 H 441.06 -1.79545 0.378948 0
M  V30 4545 H 439.442 -3.68772 -1.44304 0
M  V30 4546 H 440.616 -4.41426 1.32212 0
M  V30 4547 H 438.931 -4.03143 1.04232 0
M  V30 4548 H 441.528 -5.12831 -1.51357 0
M  V30 4549 H 441.871 -3.54908 -2.17592 0
M  V30 4550 H 442.404 -3.9434 -0.523542 0
M  V30 4551 H 439.143 -6.46161 1.10258 0
M  V30 4552 H 438.663 -5.97373 -0.539045 0
M  V30 4553 H 440.342 -6.46669 -0.206954 0
M  V30 4554 N 440.474 -0.00167713 -1.576 0
M  V30 4555 C 441.721 0.68282 -1.90641 0
M  V30 4556 C 442.049 1.73686 -0.875415 0
M  V30 4557 O 441.304 1.95334 0.119575 0
M  V30 4558 C 441.603 1.36189 -3.30435 0
M  V30 4559 C 441.269 0.440887 -4.48739 0
M  V30 4560 C 439.931 0.187312 -4.80835 0
M  V30 4561 C 442.283 -0.193134 -5.20842 0
M  V30 4562 C 439.611 -0.70855 -5.82406 0
M  V30 4563 C 441.963 -1.07688 -6.23367 0
M  V30 4564 C 440.627 -1.33962 -6.53919 0
M  V30 4565 H 439.897 0.249862 -0.697603 0
M  V30 4566 H 442.544 -0.0575642 -1.91413 0
M  V30 4567 H 440.849 2.17636 -3.25794 0
M  V30 4568 H 442.546 1.89759 -3.5326 0
M  V30 4569 H 439.136 0.648694 -4.23663 0
M  V30 4570 H 443.32 -0.0102445 -4.96299 0
M  V30 4571 H 438.576 -0.920097 -6.04437 0
M  V30 4572 H 442.75 -1.57451 -6.78367 0
M  V30 4573 H 440.377 -2.03549 -7.32442 0
M  V30 4574 N 441.952 1.55251 0.271103 0
M  V30 4575 C 442.882 1.9127 1.33933 0
M  V30 4576 C 443.863 0.77478 1.5143 0
M  V30 4577 O 445.048 1.03307 1.64442 0
M  V30 4578 C 442.178 2.18627 2.69851 0
M  V30 4579 C 441.132 3.34442 2.67081 0
M  V30 4580 C 440.458 3.47284 4.06569 0
M  V30 4581 C 441.758 4.70784 2.26185 0
M  V30 4582 H 443.452 2.80744 1.04035 0
M  V30 4583 H 440.998 1.35077 0.499017 0
M  V30 4584 H 442.951 2.42413 3.44694 0
M  V30 4585 H 441.675 1.25955 3.01335 0
M  V30 4586 H 440.334 3.10627 1.94695 0
M  V30 4587 H 439.982 2.52074 4.35279 0
M  V30 4588 H 439.682 4.25152 4.0561 0
M  V30 4589 H 441.206 3.73363 4.83148 0
M  V30 4590 H 442.62 4.94102 2.90751 0
M  V30 4591 H 441.017 5.51582 2.36384 0
M  V30 4592 H 442.087 4.69478 1.21319 0
M  V30 4593 N 443.43 -0.535701 1.48216 0
M  V30 4594 C 444.377 -1.64083 1.62312 0
M  V30 4595 C 445.347 -1.59448 0.465365 0
M  V30 4596 O 446.532 -1.77959 0.688135 0
M  V30 4597 C 443.672 -3.0236 1.66349 0
M  V30 4598 C 442.785 -3.17273 2.93193 0
M  V30 4599 C 441.92 -4.46075 2.88427 0
M  V30 4600 C 440.959 -4.54496 4.1 0
M  V30 4601 N 440.096 -5.7468 4.03345 0
M  V30 4602 H 444.936 -1.51374 2.5669 0
M  V30 4603 H 442.473 -0.737059 1.27302 0
M  V30 4604 H 444.431 -3.82461 1.66672 0
M  V30 4605 H 443.061 -3.13854 0.754672 0
M  V30 4606 H 442.113 -2.30462 3.02641 0
M  V30 4607 H 443.425 -3.19357 3.83162 0
M  V30 4608 H 442.579 -5.3446 2.87119 0
M  V30 4609 H 441.318 -4.46504 1.96177 0
M  V30 4610 H 440.323 -3.64519 4.11589 0
M  V30 4611 H 441.548 -4.5581 5.03402 0
M  V30 4612 H 439.494 -5.76017 3.13912 0
M  V30 4613 H 439.411 -5.78234 4.87013 0
M  V30 4614 H 440.679 -6.65367 4.06087 0
M  V30 4615 N 444.908 -1.36708 -0.784132 0
M  V30 4616 C 446.155 -1.31231 -1.54222 0
M  V30 4617 C 446.483 0.106864 -1.94206 0
M  V30 4618 O 445.738 1.07734 -1.63376 0
M  V30 4619 C 446.037 -2.18571 -2.82774 0
M  V30 4620 C 445.703 -3.67039 -2.61903 0
M  V30 4621 C 444.365 -4.07503 -2.55919 0
M  V30 4622 C 446.717 -4.61149 -2.4288 0
M  V30 4623 C 444.045 -5.40211 -2.28886 0
M  V30 4624 C 446.397 -5.94081 -2.17373 0
M  V30 4625 C 445.061 -6.33664 -2.09825 0
M  V30 4626 H 444.331 -0.48021 -0.56434 0
M  V30 4627 H 446.978 -1.68807 -0.904233 0
M  V30 4628 H 445.283 -1.73949 -3.51068 0
M  V30 4629 H 446.98 -2.11655 -3.40592 0
M  V30 4630 H 443.57 -3.34941 -2.67418 0
M  V30 4631 H 447.754 -4.30756 -2.46501 0
M  V30 4632 H 443.01 -5.69855 -2.21529 0
M  V30 4633 H 447.184 -6.66566 -2.01649 0
M  V30 4634 H 444.811 -7.36423 -1.88641 0
M  V30 4635 N 446.386 1.0089 -1.21074 0
M  V30 4636 C 447.634 1.74262 -1.02358 0
M  V30 4637 C 447.955 1.89869 0.444393 0
M  V30 4638 O 447.225 1.44677 1.32081 0
M  V30 4639 H 445.805 0.645615 -0.375754 0
M  V30 4640 H 448.467 1.21596 -1.52317 0
M  V30 4641 H 447.563 2.74328 -1.4883 0
M  V30 4642 N 447.864 1.01787 1.20321 0
M  V30 4643 C 449.089 0.727009 1.9424 0
M  V30 4644 C 449.514 -0.706179 1.74341 0
M  V30 4645 O 448.872 -1.48609 1.03852 0
M  V30 4646 C 448.92 1.06958 3.44372 0
M  V30 4647 O 448.024 0.181983 4.11998 0
M  V30 4648 H 447.365 0.269626 0.606793 0
M  V30 4649 H 449.895 1.36158 1.52716 0
M  V30 4650 H 449.905 1.02182 3.94997 0
M  V30 4651 H 448.58 2.11378 3.58179 0
M  V30 4652 H 447.157 0.287378 3.71791 0
M  V30 4653 N 449.342 -1.36122 0.79427 0
M  V30 4654 C 450.59 -1.98718 0.368177 0
M  V30 4655 C 450.911 -1.63345 -1.06506 0
M  V30 4656 O 450.181 -0.909825 -1.73491 0
M  V30 4657 H 448.761 -0.735038 0.133146 0
M  V30 4658 H 451.423 -1.66239 1.01739 0
M  V30 4659 H 450.519 -3.08633 0.463923 0
M  V30 4660 N 450.82 -0.546701 -1.47814 0
M  V30 4661 C 452.05 -0.0232519 -2.06587 0
M  V30 4662 C 452.458 1.2712 -1.40133 0
M  V30 4663 O 451.801 1.77091 -0.488305 0
M  V30 4664 C 451.863 0.254117 -3.58601 0
M  V30 4665 C 451.527 -0.949331 -4.47031 0
M  V30 4666 C 452.524 -1.85216 -4.85789 0
M  V30 4667 C 450.209 -1.16104 -4.88697 0
M  V30 4668 C 452.203 -2.95047 -5.65001 0
M  V30 4669 C 449.89 -2.26247 -5.67676 0
M  V30 4670 C 450.888 -3.1555 -6.05737 0
M  V30 4671 O 450.576 -4.23784 -6.83127 0
M  V30 4672 H 450.308 -0.0380082 -0.674931 0
M  V30 4673 H 452.862 -0.756631 -1.90956 0
M  V30 4674 H 451.092 1.04168 -3.72406 0
M  V30 4675 H 452.781 0.72167 -3.99433 0
M  V30 4676 H 453.547 -1.70061 -4.54207 0
M  V30 4677 H 449.426 -0.475159 -4.58545 0
M  V30 4678 H 452.97 -3.64778 -5.94628 0
M  V30 4679 H 448.867 -2.41379 -5.98671 0
M  V30 4680 H 449.635 -4.21701 -7.01506 0
M  V30 4681 N 452.299 1.55045 -0.282633 0
M  V30 4682 C 453.545 2.00056 0.332481 0
M  V30 4683 C 453.878 1.1708 1.54939 0
M  V30 4684 O 453.153 0.2427 1.9298 0
M  V30 4685 C 453.436 3.53086 0.70725 0
M  V30 4686 C 453.289 4.46813 -0.517521 0
M  V30 4687 C 454.608 4.12245 1.54084 0
M  V30 4688 H 451.727 0.727268 0.119373 0
M  V30 4689 H 454.369 1.85932 -0.391076 0
M  V30 4690 H 452.519 3.65253 1.32372 0
M  V30 4691 H 454.191 4.46579 -1.15607 0
M  V30 4692 H 452.434 4.18163 -1.1542 0
M  V30 4693 H 453.105 5.51595 -0.211426 0
M  V30 4694 H 455.581 4.03401 1.02013 0
M  V30 4695 H 454.457 5.19515 1.77186 0
M  V30 4696 H 454.718 3.62951 2.52427 0
M  V30 4697 N 453.777 0.010035 1.57597 0
M  V30 4698 C 455.002 -0.687021 1.95691 0
M  V30 4699 C 455.427 -1.65952 0.885519 0
M  V30 4700 O 454.785 -1.80633 -0.15543 0
M  V30 4701 C 454.833 -1.3864 3.32884 0
M  V30 4702 O 453.937 -2.50115 3.27897 0
M  V30 4703 H 453.278 -0.181989 0.638573 0
M  V30 4704 H 455.808 0.0662122 2.04493 0
M  V30 4705 H 455.818 -1.74754 3.6868 0
M  V30 4706 H 454.493 -0.673411 4.10412 0
M  V30 4707 H 453.07 -2.16253 3.03791 0
M  V30 4708 N 455.255 -1.55392 -0.262866 0
M  V30 4709 C 456.503 -1.76127 -0.991147 0
M  V30 4710 C 456.824 -0.571083 -1.8645 0
M  V30 4711 O 456.094 0.413698 -1.91482 0
M  V30 4712 H 454.674 -0.649528 -0.368948 0
M  V30 4713 H 457.336 -1.9281 -0.284655 0
M  V30 4714 H 456.432 -2.6663 -1.62219 0
M  V30 4715 N 456.733 0.527833 -1.48498 0
M  V30 4716 C 457.979 1.28295 -1.57836 0
M  V30 4717 C 458.334 1.9077 -0.249943 0
M  V30 4718 O 457.627 1.76421 0.747402 0
M  V30 4719 C 457.821 2.39275 -2.65485 0
M  V30 4720 C 457.65 1.87679 -4.08664 0
M  V30 4721 C 456.42 1.70187 -4.75778 0
M  V30 4722 C 458.618 1.40409 -4.94762 0
M  V30 4723 N 456.6 1.13238 -6.03366 0
M  V30 4724 C 457.971 0.954216 -6.12613 0
M  V30 4725 C 460.026 1.28732 -4.8097 0
M  V30 4726 C 458.729 0.39915 -7.18192 0
M  V30 4727 C 460.755 0.746244 -5.86673 0
M  V30 4728 C 460.117 0.306457 -7.03733 0
M  V30 4729 H 456.216 0.460408 -0.632099 0
M  V30 4730 H 458.8 0.594913 -1.85388 0
M  V30 4731 H 456.971 3.05572 -2.3975 0
M  V30 4732 H 458.703 3.06308 -2.64495 0
M  V30 4733 H 455.458 1.93772 -4.32145 0
M  V30 4734 H 455.882 0.867687 -6.71417 0
M  V30 4735 H 460.524 1.61338 -3.90807 0
M  V30 4736 H 458.242 0.0607678 -8.08077 0
M  V30 4737 H 461.828 0.659041 -5.78055 0
M  V30 4738 H 460.708 -0.105708 -7.84129 0
M  V30 4739 N 458.211 1.37122 0.776871 0
M  V30 4740 C 459.459 1.31787 1.53221 0
M  V30 4741 C 459.78 -0.0987589 1.9475 0
M  V30 4742 O 459.05 -1.0417 1.65908 0
M  V30 4743 H 457.63 0.484839 0.568278 0
M  V30 4744 H 460.292 1.71556 0.924917 0
M  V30 4745 H 459.388 1.95355 2.43398 0
M  V30 4746 N 459.689 -1.00246 1.21608 0
M  V30 4747 C 461.105 -1.26435 0.973975 0
M  V30 4748 C 461.305 -1.98642 -0.338143 0
M  V30 4749 O 460.361 -2.29026 -1.06317 0
M  V30 4750 C 461.674 -2.08551 2.16626 0
M  V30 4751 C 463.222 -2.21769 2.20879 0
M  V30 4752 C 463.697 -3.07267 3.39633 0
M  V30 4753 N 465.188 -3.14855 3.39736 0
M  V30 4754 C 465.923 -3.81274 4.28273 0
M  V30 4755 N 465.419 -4.497 5.27012 0
M  V30 4756 N 467.212 -3.7794 4.16074 0
M  V30 4757 H 459.363 -0.518089 2.05984 0
M  V30 4758 H 461.626 -0.291368 0.902113 0
M  V30 4759 H 461.332 -1.62847 3.11727 0
M  V30 4760 H 461.206 -3.09303 2.15897 0
M  V30 4761 H 463.593 -2.66691 1.26332 0
M  V30 4762 H 463.674 -1.20478 2.25652 0
M  V30 4763 H 463.318 -2.63047 4.34475 0
M  V30 4764 H 463.248 -4.08678 3.321 0
M  V30 4765 H 465.739 -2.66147 2.6828 0
M  V30 4766 H 466.052 -4.98092 5.90867 0
M  V30 4767 H 464.397 -4.48479 5.30935 0
M  V30 4768 H 467.588 -3.23638 3.38195 0
M  V30 4769 H 467.761 -4.29424 4.85282 0
M  V30 4770 N 461.167 -1.02423 -1.1978 0
M  V30 4771 C 462.413 -0.719051 -1.89625 0
M  V30 4772 C 462.746 0.750083 -1.7913 0
M  V30 4773 O 462.021 1.54574 -1.18056 0
M  V30 4774 C 462.304 -1.16499 -3.40735 0
M  V30 4775 C 462.157 -2.695 -3.60125 0
M  V30 4776 C 463.476 -0.742166 -4.33797 0
M  V30 4777 H 460.595 -0.26269 -0.688595 0
M  V30 4778 H 463.237 -1.27333 -1.41018 0
M  V30 4779 H 461.387 -0.69341 -3.82262 0
M  V30 4780 H 463.059 -3.24569 -3.278 0
M  V30 4781 H 461.302 -3.10113 -3.03336 0
M  V30 4782 H 461.973 -2.95757 -4.66081 0
M  V30 4783 H 464.449 -1.1477 -3.99959 0
M  V30 4784 H 463.325 -1.08213 -5.38127 0
M  V30 4785 H 463.586 0.355747 -4.40666 0
M  V30 4786 N 462.645 1.35699 -0.801477 0
M  V30 4787 C 463.892 1.98913 -0.379459 0
M  V30 4788 C 464.22 1.63592 1.05204 0
M  V30 4789 O 463.475 0.888563 1.74365 0
M  V30 4790 C 463.774 3.53828 -0.504041 0
M  V30 4791 C 463.44 4.09002 -1.8981 0
M  V30 4792 C 462.102 4.23783 -2.27951 0
M  V30 4793 C 464.454 4.38939 -2.81038 0
M  V30 4794 C 461.782 4.65816 -3.56696 0
M  V30 4795 C 464.134 4.82409 -4.09224 0
M  V30 4796 C 462.798 4.95395 -4.4737 0
M  V30 4797 H 462.068 0.727874 -0.138854 0
M  V30 4798 H 464.715 1.61994 -1.02128 0
M  V30 4799 H 463.02 3.91175 0.221242 0
M  V30 4800 H 464.717 4.00687 -0.158361 0
M  V30 4801 H 461.307 3.97946 -1.59176 0
M  V30 4802 H 465.491 4.27077 -2.52821 0
M  V30 4803 H 460.747 4.74059 -3.86106 0
M  V30 4804 H 464.921 5.04535 -4.80018 0
M  V30 4805 H 462.548 5.27724 -5.47185 0
M  V30 4806 N 464.123 0.554532 1.47522 0
M  V30 4807 C 465.073 -0.215008 2.26984 0
M  V30 4808 C 466.057 -0.88774 1.34194 0
M  V30 4809 O 467.249 -0.786489 1.58567 0
M  V30 4810 C 464.378 -1.24604 3.19889 0
M  V30 4811 C 463.464 -0.576857 4.20159 0
M  V30 4812 N 463.855 0.351541 5.04577 0
M  V30 4813 C 462.153 -0.831104 4.38188 0
M  V30 4814 C 462.854 0.739995 5.76974 0
M  V30 4815 N 461.83 0.0954407 5.43516 0
M  V30 4816 H 465.632 0.498843 2.89636 0
M  V30 4817 H 463.146 0.374279 1.58028 0
M  V30 4818 H 465.143 -1.81128 3.75498 0
M  V30 4819 H 463.803 -1.96101 2.58794 0
M  V30 4820 H 464.814 0.725556 5.12792 0
M  V30 4821 H 461.491 -1.53479 3.88266 0
M  V30 4822 H 462.881 1.50271 6.5488 0
M  V30 4823 N 465.601 -1.54893 0.290851 0
M  V30 4824 C 466.548 -2.23138 -0.58974 0
M  V30 4825 C 467.518 -1.21036 -1.13752 0
M  V30 4826 O 468.703 -1.49626 -1.18392 0
M  V30 4827 C 465.843 -2.96811 -1.76061 0
M  V30 4828 C 464.956 -4.13665 -1.24519 0
M  V30 4829 C 464.091 -4.74944 -2.3791 0
M  V30 4830 C 463.13 -5.83963 -1.83451 0
M  V30 4831 N 462.267 -6.39239 -2.90376 0
M  V30 4832 H 467.107 -2.98 -0.00114915 0
M  V30 4833 H 464.644 -1.47096 0.0112006 0
M  V30 4834 H 466.602 -3.37751 -2.44909 0
M  V30 4835 H 465.232 -2.24344 -2.32098 0
M  V30 4836 H 464.284 -3.77737 -0.449288 0
M  V30 4837 H 465.596 -4.92238 -0.806424 0
M  V30 4838 H 464.75 -5.18684 -3.14724 0
M  V30 4839 H 463.489 -3.95682 -2.85109 0
M  V30 4840 H 462.494 -5.39657 -1.05122 0
M  V30 4841 H 463.719 -6.65103 -1.37169 0
M  V30 4842 H 461.665 -5.62864 -3.36927 0
M  V30 4843 H 461.582 -7.13129 -2.50965 0
M  V30 4844 H 462.85 -6.87637 -3.67118 0
M  V30 4845 N 467.08 -0.0183926 -1.57589 0
M  V30 4846 C 468.328 0.661253 -1.90976 0
M  V30 4847 C 468.649 1.73281 -0.894353 0
M  V30 4848 O 467.919 1.9579 0.0656788 0
M  V30 4849 H 466.499 0.247233 -0.704901 0
M  V30 4850 H 469.161 -0.0636639 -1.94796 0
M  V30 4851 H 468.257 1.12083 -2.9128 0
M  V30 4852 N 468.558 1.5553 0.254621 0
M  V30 4853 C 469.974 1.4778 0.602753 0
M  V30 4854 C 470.174 0.707047 1.88688 0
M  V30 4855 O 469.23 0.233288 2.5142 0
M  V30 4856 C 470.543 2.92133 0.712648 0
M  V30 4857 C 472.091 3.02458 0.805488 0
M  V30 4858 C 472.566 4.48102 0.947009 0
M  V30 4859 N 474.057 4.52008 1.01207 0
M  V30 4860 C 474.792 5.61939 1.1407 0
M  V30 4861 N 474.288 6.81697 1.23536 0
M  V30 4862 N 476.081 5.49719 1.17325 0
M  V30 4863 H 468.232 2.04085 -0.588463 0
M  V30 4864 H 470.495 0.926229 -0.202001 0
M  V30 4865 H 470.201 3.51332 -0.160766 0
M  V30 4866 H 470.075 3.42187 1.58707 0
M  V30 4867 H 472.462 2.43344 1.66936 0
M  V30 4868 H 472.543 2.55627 -0.0939266 0
M  V30 4869 H 472.187 5.07824 0.087725 0
M  V30 4870 H 472.117 4.92607 1.86135 0
M  V30 4871 H 474.608 3.65749 0.950577 0
M  V30 4872 H 474.921 7.61228 1.33236 0
M  V30 4873 H 473.266 6.84473 1.20508 0
M  V30 4874 H 476.457 4.55095 1.09573 0
M  V30 4875 H 476.63 6.35432 1.27005 0
M  V30 4876 N 470.036 -0.519951 1.48776 0
M  V30 4877 C 471.261 -1.30447 1.6124 0
M  V30 4878 C 471.686 -1.86055 0.276591 0
M  V30 4879 O 471.044 -1.64915 -0.753183 0
M  V30 4880 C 471.092 -2.42406 2.66967 0
M  V30 4881 O 470.196 -3.45728 2.24824 0
M  V30 4882 H 469.537 -0.385924 0.540332 0
M  V30 4883 H 472.067 -0.624572 1.94834 0
M  V30 4884 H 472.077 -2.88447 2.88552 0
M  V30 4885 H 470.752 -2.01294 3.63941 0
M  V30 4886 H 469.329 -3.05737 2.13494 0
M  V30 4887 N 471.514 -1.37532 -0.769588 0
M  V30 4888 C 472.477 -1.33292 -1.86456 0
M  V30 4889 C 473.477 -0.236537 -1.59051 0
M  V30 4890 O 474.667 -0.492511 -1.67093 0
M  V30 4891 C 471.799 -1.07118 -3.23633 0
M  V30 4892 H 472.992 -2.30692 -1.91628 0
M  V30 4893 H 470.545 -1.22593 -0.969572 0
M  V30 4894 H 471.28 -0.102578 -3.24138 0
M  V30 4895 H 471.065 -1.86479 -3.44917 0
M  V30 4896 H 472.555 -1.06806 -4.03711 0
M  V30 4897 N 472.992 0.995999 -1.22138 0
M  V30 4898 C 473.922 2.10387 -1.01289 0
M  V30 4899 C 474.903 1.69975 0.0651454 0
M  V30 4900 O 476.088 1.9396 -0.0964628 0
M  V30 4901 C 473.218 3.42312 -0.586517 0
M  V30 4902 C 472.172 3.96558 -1.61014 0
M  V30 4903 C 471.498 5.24494 -1.0397 0
M  V30 4904 C 472.798 4.27595 -2.99933 0
M  V30 4905 H 474.492 2.28086 -1.93951 0
M  V30 4906 H 472.038 1.09607 -0.933928 0
M  V30 4907 H 473.991 4.19223 -0.427793 0
M  V30 4908 H 472.715 3.24431 0.375761 0
M  V30 4909 H 471.374 3.21776 -1.75658 0
M  V30 4910 H 471.022 5.02953 -0.0688703 0
M  V30 4911 H 470.722 5.61755 -1.72352 0
M  V30 4912 H 472.246 6.04042 -0.892494 0
M  V30 4913 H 473.66 4.95315 -2.8868 0
M  V30 4914 H 472.057 4.76021 -3.6541 0
M  V30 4915 H 473.127 3.35498 -3.50099 0
M  V30 4916 N 474.47 1.03057 1.19235 0
M  V30 4917 C 475.716 0.729098 1.89241 0
M  V30 4918 C 476.049 -0.740573 1.79525 0
M  V30 4919 O 475.324 -1.53946 1.18874 0
M  V30 4920 C 475.607 1.18304 3.40112 0
M  V30 4921 C 475.46 2.71406 3.5869 0
M  V30 4922 C 476.779 0.765161 4.33397 0
M  V30 4923 H 473.898 0.266338 0.687192 0
M  V30 4924 H 476.54 1.28079 1.40341 0
M  V30 4925 H 474.69 0.713672 3.81889 0
M  V30 4926 H 476.362 3.26303 3.26074 0
M  V30 4927 H 474.605 3.11717 3.01687 0
M  V30 4928 H 475.276 2.98225 4.64506 0
M  V30 4929 H 477.752 1.16889 3.99345 0
M  V30 4930 H 476.628 1.11065 5.37546 0
M  V30 4931 H 476.889 -0.332372 4.40849 0
M  V30 4932 N 475.948 -1.35272 0.808662 0
M  V30 4933 C 476.878 -2.32315 0.234981 0
M  V30 4934 C 477.859 -1.57572 -0.64071 0
M  V30 4935 O 479.044 -1.8563 -0.570551 0
M  V30 4936 C 476.174 -3.41801 -0.615601 0
M  V30 4937 C 475.128 -4.27694 0.161767 0
M  V30 4938 C 474.454 -5.28519 -0.810649 0
M  V30 4939 C 475.754 -5.04231 1.36193 0
M  V30 4940 H 477.448 -2.80543 1.04575 0
M  V30 4941 H 474.994 -1.3488 0.504315 0
M  V30 4942 H 476.947 -4.08693 -1.02702 0
M  V30 4943 H 475.671 -2.92186 -1.45928 0
M  V30 4944 H 474.33 -3.62384 0.554382 0
M  V30 4945 H 473.978 -4.75171 -1.64988 0
M  V30 4946 H 473.678 -5.8686 -0.294822 0
M  V30 4947 H 475.202 -5.98283 -1.22023 0
M  V30 4948 H 476.616 -5.64058 1.02528 0
M  V30 4949 H 475.013 -5.72077 1.81239 0
M  V30 4950 H 476.083 -4.34753 2.14751 0
M  V30 4951 N 477.426 -0.562348 -1.47226 0
M  V30 4952 C 478.358 0.220011 -2.28142 0
M  V30 4953 C 479.371 0.874596 -1.37312 0
M  V30 4954 O 480.56 0.747583 -1.62091 0
M  V30 4955 C 477.66 1.32953 -3.11732 0
M  V30 4956 C 476.833 0.770759 -4.30556 0
M  V30 4957 C 475.892 1.76541 -4.95701 0
M  V30 4958 O 474.918 1.3095 -5.53932 0
M  V30 4959 N 476.12 3.09896 -4.90861 0
M  V30 4960 H 478.885 -0.474107 -2.95926 0
M  V30 4961 H 476.446 -0.398761 -1.56912 0
M  V30 4962 H 478.438 1.99378 -3.5218 0
M  V30 4963 H 477.008 1.92681 -2.46156 0
M  V30 4964 H 476.228 -0.0704056 -3.94137 0
M  V30 4965 H 477.516 0.376872 -5.07402 0
M  V30 4966 H 476.914 3.49577 -4.44761 0
M  V30 4967 H 475.471 3.71865 -5.35313 0
M  V30 4968 N 478.904 1.54736 -0.299062 0
M  V30 4969 C 480.134 2.04215 0.312992 0
M  V30 4970 C 480.542 1.17596 1.48215 0
M  V30 4971 O 479.885 0.193835 1.82674 0
M  V30 4972 C 479.947 3.49696 0.833862 0
M  V30 4973 C 479.611 4.56518 -0.20977 0
M  V30 4974 C 480.608 5.09442 -1.03756 0
M  V30 4975 C 478.293 5.01073 -0.35091 0
M  V30 4976 C 480.287 6.05459 -1.99244 0
M  V30 4977 C 477.974 5.9691 -1.30924 0
M  V30 4978 C 478.972 6.48987 -2.1285 0
M  V30 4979 O 478.66 7.42947 -3.07059 0
M  V30 4980 H 478.392 0.672128 0.0722494 0
M  V30 4981 H 480.946 2.00718 -0.436043 0
M  V30 4982 H 479.176 3.5051 1.63339 0
M  V30 4983 H 480.865 3.82381 1.36159 0
M  V30 4984 H 481.631 4.75816 -0.939376 0
M  V30 4985 H 477.51 4.60168 0.276813 0
M  V30 4986 H 481.054 6.46031 -2.63229 0
M  V30 4987 H 476.951 6.29953 -1.40815 0
M  V30 4988 H 477.719 7.60743 -3.02015 0
M  V30 4989 N 480.382 0.0267497 1.57577 0
M  V30 4990 C 481.312 -0.954308 2.13108 0
M  V30 4991 C 482.293 -1.34088 1.04663 0
M  V30 4992 O 483.478 -1.41992 1.32484 0
M  V30 4993 C 480.608 -2.23744 2.65624 0
M  V30 4994 C 479.562 -1.99168 3.78835 0
M  V30 4995 C 478.888 -3.33726 4.17769 0
M  V30 4996 C 480.188 -1.33277 5.0501 0
M  V30 4997 H 481.882 -0.491848 2.95332 0
M  V30 4998 H 479.428 -0.23514 1.42067 0
M  V30 4999 H 481.381 -2.92754 3.03106 0
M  V30 5000 H 480.105 -2.72151 1.80558 0
M  V30 5001 H 478.764 -1.32577 3.41788 0
M  V30 5002 H 478.412 -3.79888 3.29688 0
M  V30 5003 H 478.112 -3.18089 4.94058 0
M  V30 5004 H 479.636 -4.04008 4.57832 0
M  V30 5005 H 481.05 -1.92283 5.40093 0
M  V30 5006 H 479.447 -1.28045 5.8628 0
M  V30 5007 H 480.517 -0.305411 4.83937 0
M  V30 5008 N 481.861 -1.55662 -0.24637 0
M  V30 5009 C 483.277 -1.48098 -0.594907 0
M  V30 5010 C 483.477 -0.717044 -1.8831 0
M  V30 5011 O 482.533 -0.246618 -2.51293 0
M  V30 5012 C 483.846 -2.92507 -0.697146 0
M  V30 5013 C 485.394 -3.02881 -0.789436 0
M  V30 5014 C 485.869 -4.48598 -0.923232 0
M  V30 5015 N 487.36 -4.52538 -0.988088 0
M  V30 5016 C 488.095 -5.62536 -1.11089 0
M  V30 5017 N 487.591 -6.82342 -1.19919 0
M  V30 5018 N 489.384 -5.50334 -1.14408 0
M  V30 5019 H 481.535 -2.0377 0.599278 0
M  V30 5020 H 483.798 -0.925145 0.20691 0
M  V30 5021 H 483.504 -3.51242 0.179396 0
M  V30 5022 H 483.378 -3.43024 -1.5689 0
M  V30 5023 H 485.765 -2.44226 -1.65643 0
M  V30 5024 H 485.846 -2.55574 0.107482 0
M  V30 5025 H 485.49 -5.07864 -0.0607927 0
M  V30 5026 H 485.42 -4.93587 -1.8352 0
M  V30 5027 H 487.911 -3.66248 -0.931167 0
M  V30 5028 H 488.224 -7.61924 -1.29197 0
M  V30 5029 H 486.569 -6.85102 -1.16876 0
M  V30 5030 H 489.76 -4.5567 -1.07158 0
M  V30 5031 H 489.933 -6.36096 -1.23634 0
M  V30 5032 N 483.339 0.512053 -1.4905 0
M  V30 5033 C 484.585 1.26874 -1.58212 0
M  V30 5034 C 484.918 1.9241 -0.263073 0
M  V30 5035 O 484.193 1.80181 0.732476 0
M  V30 5036 C 484.476 2.34428 -2.73341 0
M  V30 5037 C 484.329 1.73466 -4.15006 0
M  V30 5038 C 485.648 3.36073 -2.84154 0
M  V30 5039 H 482.767 0.459924 -0.575881 0
M  V30 5040 H 485.409 0.568587 -1.81293 0
M  V30 5041 H 483.559 2.94146 -2.53792 0
M  V30 5042 H 485.231 1.17661 -4.46042 0
M  V30 5043 H 483.474 1.03921 -4.21168 0
M  V30 5044 H 484.145 2.51426 -4.91415 0
M  V30 5045 H 486.621 2.86332 -3.01916 0
M  V30 5046 H 485.497 4.08703 -3.66406 0
M  V30 5047 H 485.758 3.97725 -1.93048 0
M  V30 5048 N 484.817 1.37938 0.762283 0
M  V30 5049 C 486.228 1.30094 1.33912 0
M  V30 5050 C 486.579 -0.0472026 1.96143 0
M  V30 5051 O 485.704 -0.94917 1.94473 0
M  V30 5052 C 486.299 2.35592 2.43478 0
M  V30 5053 C 484.858 2.31353 2.96905 0
M  V30 5054 C 484.005 2.18919 1.70205 0
M  V30 5055 H 486.956 1.48423 0.561816 0
M  V30 5056 H 486.977 2.00806 3.23199 0
M  V30 5057 H 486.489 3.33701 1.98155 0
M  V30 5058 H 484.59 1.36799 3.46579 0
M  V30 5059 H 484.703 3.25147 3.51875 0
M  V30 5060 H 483.067 1.65624 1.93496 0
M  V30 5061 H 483.85 3.18956 1.26973 0
M  V30 5062 N 486.295 -0.989507 1.22664 0
M  V30 5063 C 487.225 -2.09847 1.02404 0
M  V30 5064 C 488.206 -1.70007 -0.0561303 0
M  V30 5065 O 489.391 -1.93906 0.106748 0
M  V30 5066 C 486.521 -3.41996 0.604663 0
M  V30 5067 C 485.475 -3.95699 1.63115 0
M  V30 5068 C 484.801 -5.23936 1.0675 0
M  V30 5069 C 486.101 -4.25999 3.02196 0
M  V30 5070 H 487.795 -2.27054 1.95158 0
M  V30 5071 H 485.341 -1.09111 0.939727 0
M  V30 5072 H 487.294 -4.1899 0.45002 0
M  V30 5073 H 486.018 -3.24626 -0.35855 0
M  V30 5074 H 484.677 -3.2084 1.77362 0
M  V30 5075 H 484.325 -5.02909 0.0955422 0
M  V30 5076 H 484.025 -5.60833 1.75328 0
M  V30 5077 H 485.549 -6.0356 0.924516 0
M  V30 5078 H 486.963 -4.93777 2.91303 0
M  V30 5079 H 485.36 -4.74076 3.67929 0
M  V30 5080 H 486.43 -3.33636 3.51873 0
M  V30 5081 N 487.773 -1.03688 -1.18687 0
M  V30 5082 C 489.019 -0.739123 -1.88851 0
M  V30 5083 C 489.352 0.731042 -1.79915 0
M  V30 5084 O 488.627 1.53313 -1.19688 0
M  V30 5085 C 488.91 -1.20106 -3.3948 0
M  V30 5086 C 488.763 -2.73304 -3.57246 0
M  V30 5087 C 490.082 -0.788134 -4.32986 0
M  V30 5088 H 487.201 -0.269978 -0.68577 0
M  V30 5089 H 489.843 -1.28822 -1.3966 0
M  V30 5090 H 487.993 -0.733915 -3.81505 0
M  V30 5091 H 489.665 -3.28027 -3.24339 0
M  V30 5092 H 487.908 -3.13313 -3.00029 0
M  V30 5093 H 488.579 -3.00684 -4.62918 0
M  V30 5094 H 491.055 -1.19005 -3.98719 0
M  V30 5095 H 489.931 -1.13915 -5.36949 0
M  V30 5096 H 490.192 0.308988 -4.41019 0
M  V30 5097 N 489.251 1.34841 -0.815825 0
M  V30 5098 C 490.528 1.92908 -0.323416 0
M  V30 5099 C 490.908 1.74479 1.18828 0
M  V30 5100 O 490.256 1.11928 1.99209 0
M  V30 5101 C 490.466 3.40957 -0.744952 0
M  V30 5102 C 491.814 4.18107 -0.739716 0
M  V30 5103 O 492.838 3.49511 -0.68708 0
M  V30 5104 O 491.697 5.40517 -0.806456 0
M  V30 5105 H 488.791 0.822436 -0.0867646 0
M  V30 5106 H 491.337 1.4386 -0.90014 0
M  V30 5107 H 490.109 3.4814 -1.78646 0
M  V30 5108 H 489.732 3.97341 -0.143535 0
M  V30 5109 N 490.729 0.570148 1.46925 0
M  V30 5110 C 492.145 0.23087 1.57921 0
M  V30 5111 C 492.345 -1.26676 1.56702 0
M  V30 5112 O 491.401 -2.04774 1.47729 0
M  V30 5113 C 492.714 0.868973 2.8787 0
M  V30 5114 C 494.262 0.841397 3.01479 0
M  V30 5115 C 494.737 1.45881 4.34146 0
M  V30 5116 N 496.228 1.42258 4.40814 0
M  V30 5117 C 496.963 1.8698 5.42057 0
M  V30 5118 N 496.459 2.39618 6.50042 0
M  V30 5119 N 498.252 1.77972 5.33181 0
M  V30 5120 H 490.403 1.54301 1.45962 0
M  V30 5121 H 492.666 0.644224 0.69547 0
M  V30 5122 H 492.372 1.922 2.94537 0
M  V30 5123 H 492.246 0.369682 3.75384 0
M  V30 5124 H 494.633 -0.202973 2.94401 0
M  V30 5125 H 494.714 1.37858 2.15474 0
M  V30 5126 H 494.358 2.50231 4.4198 0
M  V30 5127 H 494.288 0.896958 5.18905 0
M  V30 5128 H 496.779 1.03768 3.63374 0
M  V30 5129 H 497.092 2.71633 7.23488 0
M  V30 5130 H 495.437 2.43636 6.50897 0
M  V30 5131 H 498.628 1.36617 4.4772 0
M  V30 5132 H 498.801 2.13143 6.11943 0
M  V30 5133 N 492.207 -1.54576 0.307264 0
M  V30 5134 C 493.17 -2.22423 -0.553224 0
M  V30 5135 C 494.17 -1.21231 -1.05639 0
M  V30 5136 O 495.36 -1.45923 -0.951419 0
M  V30 5137 C 492.492 -2.91552 -1.76664 0
M  V30 5138 H 493.685 -2.99874 0.0396484 0
M  V30 5139 H 491.238 -1.56192 0.0581629 0
M  V30 5140 H 491.973 -2.18196 -2.39918 0
M  V30 5141 H 491.758 -3.65738 -1.41343 0
M  V30 5142 H 493.248 -3.43292 -2.37783 0
M  V30 5143 N 493.685 -0.035106 -1.57561 0
M  V30 5144 C 494.913 0.652258 -1.9635 0
M  V30 5145 C 495.328 1.65317 -0.911897 0
M  V30 5146 O 494.685 1.82194 0.105657 0
M  V30 5147 C 494.736 1.35337 -3.35211 0
M  V30 5148 O 494.457 0.392548 -4.36338 0
M  V30 5149 C 495.958 2.13199 -3.88666 0
M  V30 5150 H 493.178 0.179444 -0.646561 0
M  V30 5151 H 495.722 -0.0966459 -2.04271 0
M  V30 5152 H 493.877 2.05362 -3.28489 0
M  V30 5153 H 494.291 0.891097 -5.16875 0
M  V30 5154 H 495.765 2.577 -4.88154 0
M  V30 5155 H 496.242 2.97353 -3.23231 0
M  V30 5156 H 496.848 1.48118 -3.98674 0
M  V30 5157 N 495.163 1.55791 0.238111 0
M  V30 5158 C 496.403 1.79801 0.972163 0
M  V30 5159 C 496.767 0.606027 1.82185 0
M  V30 5160 O 497.968 0.725079 2.58836 0
M  V30 5161 C 496.239 3.08608 1.80266 0
M  V30 5162 S 497.798 3.53872 2.59461 0
M  V30 5163 H 494.616 0.631418 0.326852 0
M  V30 5164 H 497.218 1.94031 0.239212 0
M  V30 5165 H 495.922 3.93419 1.1683 0
M  V30 5166 H 495.453 2.9714 2.57821 0
M  V30 5167 H 497.468 3.15899 3.82651 0
M  V30 5168 N 496.642 -0.504142 1.49319 0
M  V30 5169 C 497.572 -1.61473 1.68667 0
M  V30 5170 C 498.553 -1.61455 0.535378 0
M  V30 5171 O 499.738 -1.78245 0.770868 0
M  V30 5172 C 496.868 -2.99971 1.75028 0
M  V30 5173 C 495.822 -3.14854 2.89916 0
M  V30 5174 C 495.148 -4.54671 2.81387 0
M  V30 5175 C 496.448 -2.95176 4.30893 0
M  V30 5176 H 498.142 -1.45535 2.61648 0
M  V30 5177 H 495.688 -0.698711 1.25913 0
M  V30 5178 H 497.641 -3.77562 1.8715 0
M  V30 5179 H 496.365 -3.1699 0.786441 0
M  V30 5180 H 495.024 -2.39687 2.77391 0
M  V30 5181 H 494.672 -4.68562 1.82917 0
M  V30 5182 H 494.372 -4.6557 3.58494 0
M  V30 5183 H 495.896 -5.34327 2.95512 0
M  V30 5184 H 497.31 -3.62538 4.44116 0
M  V30 5185 H 495.707 -3.17549 5.09198 0
M  V30 5186 H 496.777 -1.91332 4.45556 0
M  V30 5187 N 498.12 -1.38341 -0.754957 0
M  V30 5188 C 499.536 -1.19508 -1.05783 0
M  V30 5189 C 499.736 -0.0428005 -2.01455 0
M  V30 5190 O 498.792 0.611861 -2.44975 0
M  V30 5191 C 500.105 -2.52091 -1.63923 0
M  V30 5192 C 501.653 -2.58762 -1.76101 0
M  V30 5193 C 502.128 -3.91517 -2.37652 0
M  V30 5194 N 503.619 -3.93049 -2.45085 0
M  V30 5195 C 504.354 -4.9253 -2.93602 0
M  V30 5196 N 503.85 -6.02408 -3.42165 0
M  V30 5197 N 505.643 -4.79921 -2.92629 0
M  V30 5198 H 497.794 -2.1206 -0.120056 0
M  V30 5199 H 500.057 -0.94089 -0.11589 0
M  V30 5200 H 499.763 -3.36858 -1.01093 0
M  V30 5201 H 499.637 -2.70388 -2.63003 0
M  V30 5202 H 502.024 -1.74391 -2.38058 0
M  V30 5203 H 502.105 -2.44333 -0.757294 0
M  V30 5204 H 501.749 -4.76309 -1.76329 0
M  V30 5205 H 501.679 -4.03256 -3.38662 0
M  V30 5206 H 504.17 -3.13685 -2.10736 0
M  V30 5207 H 504.483 -6.74248 -3.77637 0
M  V30 5208 H 502.828 -6.0603 -3.40225 0
M  V30 5209 H 506.019 -3.93194 -2.54001 0
M  V30 5210 H 506.192 -5.57601 -3.30128 0
M  V30 5211 N 499.598 0.982988 -1.23187 0
M  V30 5212 C 500.823 1.76455 -1.08988 0
M  V30 5213 C 501.248 1.84726 0.354691 0
M  V30 5214 O 500.606 1.30699 1.25649 0
M  V30 5215 C 500.654 3.17094 -1.71708 0
M  V30 5216 O 499.758 4.00648 -0.977477 0
M  V30 5217 H 499.099 0.542988 -0.382177 0
M  V30 5218 H 501.629 1.23413 -1.63188 0
M  V30 5219 H 501.639 3.67684 -1.76841 0
M  V30 5220 H 500.314 3.10389 -2.76823 0
M  V30 5221 H 498.891 3.59161 -1.0029 0
M  V30 5222 N 501.076 1.04316 1.18135 0
M  V30 5223 C 502.304 0.768117 1.92113 0
M  V30 5224 C 502.719 -0.675057 1.76319 0
M  V30 5225 O 502.076 -1.46038 1.09449 0
M  V30 5226 C 502.127 1.12808 3.43448 0
M  V30 5227 O 501.848 2.5146 3.58747 0
M  V30 5228 C 503.349 0.8779 4.3452 0
M  V30 5229 H 500.569 0.279937 0.609817 0
M  V30 5230 H 503.113 1.39149 1.49859 0
M  V30 5231 H 501.268 0.549623 3.83481 0
M  V30 5232 H 501.682 2.65313 4.52448 0
M  V30 5233 H 503.156 1.17959 5.39249 0
M  V30 5234 H 503.633 -0.187239 4.38801 0
M  V30 5235 H 504.239 1.43977 4.00188 0
M  V30 5236 N 502.554 -1.34406 0.822964 0
M  V30 5237 C 503.501 -2.29519 0.24284 0
M  V30 5238 C 504.471 -1.5359 -0.632397 0
M  V30 5239 O 505.656 -1.8196 -0.57403 0
M  V30 5240 C 502.796 -3.40032 -0.58925 0
M  V30 5241 C 501.909 -4.30899 0.308236 0
M  V30 5242 C 501.044 -5.28515 -0.533425 0
M  V30 5243 C 500.083 -6.1102 0.363444 0
M  V30 5244 N 499.22 -7.00725 -0.439147 0
M  V30 5245 H 504.06 -2.78537 1.05929 0
M  V30 5246 H 501.597 -1.3707 0.533872 0
M  V30 5247 H 503.555 -4.0279 -1.087 0
M  V30 5248 H 502.185 -2.92248 -1.37081 0
M  V30 5249 H 501.237 -3.69002 0.924203 0
M  V30 5250 H 502.549 -4.88717 0.997862 0
M  V30 5251 H 501.703 -5.96725 -1.09565 0
M  V30 5252 H 500.442 -4.71235 -1.25656 0
M  V30 5253 H 499.447 -5.41743 0.937812 0
M  V30 5254 H 500.672 -6.70381 1.08469 0
M  V30 5255 H 498.618 -6.45913 -1.14595 0
M  V30 5256 H 498.535 -7.55756 0.19209 0
M  V30 5257 H 499.803 -7.73263 -0.984124 0
M  V30 5258 N 504.032 -0.577932 -1.46621 0
M  V30 5259 C 505.279 -0.0616879 -2.02406 0
M  V30 5260 C 505.607 1.29638 -1.44997 0
M  V30 5261 O 504.862 1.86176 -0.60308 0
M  V30 5262 C 505.161 0.0590832 -3.57351 0
M  V30 5263 C 504.827 -1.23077 -4.33777 0
M  V30 5264 C 503.489 -1.58416 -4.54376 0
M  V30 5265 C 505.841 -2.08457 -4.77698 0
M  V30 5266 C 503.169 -2.78943 -5.16147 0
M  V30 5267 C 505.521 -3.28204 -5.408 0
M  V30 5268 C 504.185 -3.63832 -5.59627 0
M  V30 5269 H 503.455 -0.0225732 -0.740656 0
M  V30 5270 H 506.102 -0.753609 -1.76048 0
M  V30 5271 H 504.407 0.834104 -3.82818 0
M  V30 5272 H 506.104 0.474202 -3.98186 0
M  V30 5273 H 502.694 -0.945652 -4.18038 0
M  V30 5274 H 506.878 -1.82459 -4.61544 0
M  V30 5275 H 502.134 -3.06689 -5.28916 0
M  V30 5276 H 506.308 -3.94634 -5.73792 0
M  V30 5277 H 503.935 -4.57315 -6.07262 0
M  V30 5278 N 505.51 1.54411 -0.315457 0
M  V30 5279 C 506.738 2.04833 0.291738 0
M  V30 5280 C 507.153 1.19203 1.46411 0
M  V30 5281 O 506.51 0.220867 1.81159 0
M  V30 5282 C 506.561 3.53969 0.73404 0
M  V30 5283 O 506.282 4.36346 -0.391682 0
M  V30 5284 C 507.783 4.2045 1.40489 0
M  V30 5285 H 505.003 0.668195 0.0612947 0
M  V30 5286 H 507.547 1.99276 -0.45929 0
M  V30 5287 H 505.702 3.5984 1.43506 0
M  V30 5288 H 506.116 5.24481 -0.0447088 0
M  V30 5289 H 507.59 5.26278 1.66539 0
M  V30 5290 H 508.067 3.71067 2.3496 0
M  V30 5291 H 508.673 4.18694 0.746662 0
M  V30 5292 N 506.988 0.0434614 1.5754 0
M  V30 5293 C 508.237 -0.631454 1.91561 0
M  V30 5294 C 508.55 -1.72457 0.92292 0
M  V30 5295 O 509.756 -2.45712 1.15489 0
M  V30 5296 C 508.212 -1.17447 3.40197 0
M  V30 5297 C 507.82 -0.113867 4.47855 0
M  V30 5298 C 509.564 -1.82507 3.83264 0
M  V30 5299 C 507.471 -0.669326 5.876 0
M  V30 5300 H 506.401 -0.239629 0.714908 0
M  V30 5301 H 509.052 0.111097 1.83163 0
M  V30 5302 H 507.434 -1.96909 3.43574 0
M  V30 5303 H 508.608 0.659348 4.56058 0
M  V30 5304 H 506.923 0.438821 4.14081 0
M  V30 5305 H 509.52 -2.25047 4.85034 0
M  V30 5306 H 509.863 -2.67365 3.19095 0
M  V30 5307 H 510.396 -1.09712 3.82372 0
M  V30 5308 H 507.135 0.141449 6.55347 0
M  V30 5309 H 506.655 -1.4107 5.82974 0
M  V30 5310 H 508.334 -1.15463 6.36614 0
M  V30 5311 N 508.466 -1.55915 -0.229846 0
M  V30 5312 C 509.696 -1.82352 -0.971152 0
M  V30 5313 C 510.104 -0.619231 -1.7878 0
M  V30 5314 O 509.447 0.421597 -1.78797 0
M  V30 5315 C 509.509 -3.02399 -1.9441 0
M  V30 5316 C 509.173 -4.37739 -1.31277 0
M  V30 5317 C 510.17 -5.15074 -0.706757 0
M  V30 5318 C 507.855 -4.84454 -1.32702 0
M  V30 5319 C 509.849 -6.37281 -0.123413 0
M  V30 5320 C 507.536 -6.06605 -0.739831 0
M  V30 5321 C 508.534 -6.82858 -0.139071 0
M  V30 5322 O 508.222 -8.027 0.439007 0
M  V30 5323 H 507.954 -0.61035 -0.290601 0
M  V30 5324 H 510.508 -2.03839 -0.252746 0
M  V30 5325 H 508.738 -2.76709 -2.70128 0
M  V30 5326 H 510.427 -3.15779 -2.55026 0
M  V30 5327 H 511.193 -4.80093 -0.688131 0
M  V30 5328 H 507.072 -4.25081 -1.78402 0
M  V30 5329 H 510.616 -6.96741 0.346124 0
M  V30 5330 H 506.513 -6.4106 -0.755841 0
M  V30 5331 H 507.281 -8.17824 0.332521 0
M  V30 5332 N 509.944 0.496216 -1.49584 0
M  V30 5333 C 510.892 1.61805 -1.67098 0
M  V30 5334 C 511.886 1.60667 -0.536877 0
M  V30 5335 O 513.092 1.65118 -0.716654 0
M  V30 5336 H 509.467 0.53646 -0.526986 0
M  V30 5337 H 511.438 1.44187 -2.61252 0
M  V30 5338 C 510.187 2.99912 -1.75921 0
M  V30 5339 H 509.51 3.01496 -2.62565 0
M  V30 5340 H 510.95 3.77931 -1.92209 0
M  V30 5341 C 509.409 3.33092 -0.505088 0
M  V30 5342 O 509.939 4.00019 0.367085 0
M  V30 5343 N 508.145 2.88278 -0.366599 0
M  V30 5344 H 507.692 2.33989 -1.07735 0
M  V30 5345 H 507.65 3.10846 0.47142 0
M  V30 5346 N 511.423 1.38739 0.74761 0
M  V30 5347 C 512.371 1.36573 1.88283 0
M  V30 5348 C 513.365 0.250712 1.67534 0
M  V30 5349 O 514.571 0.420073 1.7503 0
M  V30 5350 H 510.946 0.42619 0.619569 0
M  V30 5351 H 512.917 2.32356 1.87226 0
M  V30 5352 C 511.666 1.21361 3.25832 0
M  V30 5353 H 510.989 2.06424 3.42388 0
M  V30 5354 H 512.429 1.23901 4.05493 0
M  V30 5355 C 510.888 -0.0790099 3.36807 0
M  V30 5356 O 511.418 -1.05385 3.8763 0
M  V30 5357 N 509.624 -0.13785 2.90273 0
M  V30 5358 H 509.171 0.656128 2.49104 0
M  V30 5359 H 509.129 -1.00228 2.97996 0
M  V30 5360 N 512.901 -0.976442 1.23707 0
M  V30 5361 C 513.834 -2.06793 0.964973 0
M  V30 5362 C 514.812 -1.62304 -0.0981472 0
M  V30 5363 O 515.996 -1.88464 0.0369477 0
M  V30 5364 C 513.123 -3.35636 0.454522 0
M  V30 5365 C 512.169 -3.99069 1.50485 0
M  V30 5366 S 513.002 -4.37814 3.0835 0
M  V30 5367 C 514.158 -5.69805 2.58985 0
M  V30 5368 H 514.391 -2.29556 1.88922 0
M  V30 5369 H 511.924 -1.11317 1.06995 0
M  V30 5370 H 513.882 -4.10162 0.166626 0
M  V30 5371 H 512.543 -3.10876 -0.448871 0
M  V30 5372 H 511.736 -4.91896 1.09792 0
M  V30 5373 H 511.338 -3.30938 1.7423 0
M  V30 5374 H 513.63 -6.46919 2.01252 0
M  V30 5375 H 514.573 -6.15345 3.50366 0
M  V30 5376 H 514.981 -5.27994 1.99705 0
M  V30 5377 N 514.379 -1.04941 -1.1758 0
M  V30 5378 C 515.626 -0.757989 -1.87779 0
M  V30 5379 C 515.954 0.714827 -1.80888 0
M  V30 5380 O 515.209 1.53824 -1.20982 0
M  V30 5381 C 515.508 -1.18062 -3.37337 0
M  V30 5382 C 515.174 -2.65521 -3.6443 0
M  V30 5383 C 513.836 -3.05804 -3.71534 0
M  V30 5384 C 516.188 -3.60822 -3.76108 0
M  V30 5385 C 513.516 -4.40256 -3.87803 0
M  V30 5386 C 515.868 -4.95005 -3.93895 0
M  V30 5387 C 514.532 -5.34945 -3.99237 0
M  V30 5388 H 513.802 -0.277368 -0.68713 0
M  V30 5389 H 516.449 -1.31603 -1.39115 0
M  V30 5390 H 514.754 -0.541525 -3.8804 0
M  V30 5391 H 516.451 -0.932368 -3.9001 0
M  V30 5392 H 513.041 -2.33324 -3.59524 0
M  V30 5393 H 517.225 -3.30841 -3.69943 0
M  V30 5394 H 512.481 -4.70707 -3.90186 0
M  V30 5395 H 516.655 -5.68746 -4.01872 0
M  V30 5396 H 514.282 -6.39135 -4.11596 0
M  V30 5397 N 515.857 1.33968 -0.830081 0
M  V30 5398 C 517.097 1.99879 -0.427521 0
M  V30 5399 C 517.461 1.64355 0.992546 0
M  V30 5400 O 518.662 2.23164 1.49837 0
M  V30 5401 C 516.933 3.51771 -0.631815 0
M  V30 5402 S 518.492 4.37608 -0.323168 0
M  V30 5403 H 515.31 0.692485 -0.161202 0
M  V30 5404 H 517.912 1.63129 -1.07745 0
M  V30 5405 H 516.616 3.75113 -1.66488 0
M  V30 5406 H 516.147 3.93386 0.0325936 0
M  V30 5407 H 518.162 4.88683 0.860432 0
M  V30 5408 N 517.335 0.585699 1.46312 0
M  V30 5409 C 518.298 -0.135673 2.28798 0
M  V30 5410 C 519.298 -0.815988 1.38558 0
M  V30 5411 O 520.488 -0.667487 1.60904 0
M  V30 5412 C 517.62 -1.20163 3.1902 0
M  V30 5413 H 518.813 0.589257 2.94054 0
M  V30 5414 H 516.366 0.343794 1.52472 0
M  V30 5415 H 517.101 -1.95804 2.58517 0
M  V30 5416 H 516.886 -0.718282 3.85465 0
M  V30 5417 H 518.376 -1.70749 3.81096 0
M  V30 5418 N 518.813 -1.54241 0.323641 0
M  V30 5419 C 520.061 -2.00174 -0.278359 0
M  V30 5420 C 520.382 -1.2134 -1.52648 0
M  V30 5421 O 519.652 -0.315244 -1.93347 0
M  V30 5422 H 518.232 -0.739463 -0.105845 0
M  V30 5423 H 520.894 -1.89864 0.440204 0
M  V30 5424 H 519.99 -3.07486 -0.5347 0
M  V30 5425 N 520.291 -0.0518155 -1.57515 0
M  V30 5426 C 521.538 0.621823 -1.92716 0
M  V30 5427 C 521.866 1.70813 -0.930229 0
M  V30 5428 O 521.121 1.95616 0.0573708 0
M  V30 5429 C 521.42 1.25607 -3.34601 0
M  V30 5430 C 521.086 0.297901 -4.49915 0
M  V30 5431 C 519.748 0.034243 -4.81188 0
M  V30 5432 C 522.1 -0.358738 -5.19964 0
M  V30 5433 C 519.428 -0.893479 -5.79857 0
M  V30 5434 C 521.78 -1.27466 -6.19625 0
M  V30 5435 C 520.444 -1.54698 -6.49326 0
M  V30 5436 H 519.714 0.227541 -0.705199 0
M  V30 5437 H 522.361 -0.118432 -1.91133 0
M  V30 5438 H 520.666 2.07161 -3.32553 0
M  V30 5439 H 522.363 1.78424 -3.59118 0
M  V30 5440 H 518.953 0.513581 -4.25512 0
M  V30 5441 H 523.137 -0.168133 -4.96015 0
M  V30 5442 H 518.393 -1.11193 -6.01204 0
M  V30 5443 H 522.567 -1.78953 -6.73015 0
M  V30 5444 H 520.194 -2.26748 -7.25596 0
M  V30 5445 N 521.769 1.56035 0.221574 0
M  V30 5446 C 522.719 1.8881 1.27807 0
M  V30 5447 C 523.703 0.751177 1.42289 0
M  V30 5448 O 524.895 1.01359 1.45104 0
M  V30 5449 C 522.024 2.20828 2.6285 0
M  V30 5450 C 521.11 3.40912 2.52269 0
M  V30 5451 N 521.501 4.59531 2.1134 0
M  V30 5452 C 519.799 3.44526 2.83228 0
M  V30 5453 C 520.5 5.41689 2.1201 0
M  V30 5454 N 519.476 4.814 2.52497 0
M  V30 5455 H 523.278 2.78036 0.952529 0
M  V30 5456 H 520.792 1.566 0.430134 0
M  V30 5457 H 522.789 2.42483 3.39127 0
M  V30 5458 H 521.449 1.32914 2.9625 0
M  V30 5459 H 522.46 4.8469 1.82472 0
M  V30 5460 H 519.137 2.66956 3.21 0
M  V30 5461 H 520.527 6.46643 1.82491 0
M  V30 5462 N 523.247 -0.488276 1.49845 0
M  V30 5463 C 524.157 -1.61451 1.70207 0
M  V30 5464 C 525.173 -1.63877 0.584846 0
M  V30 5465 O 526.349 -1.82063 0.861107 0
M  V30 5466 C 523.414 -2.9776 1.77594 0
M  V30 5467 C 522.475 -3.05861 3.01243 0
M  V30 5468 C 521.708 -4.35668 3.08268 0
M  V30 5469 O 521.931 -5.25197 2.22541 0
M  V30 5470 O 520.865 -4.49005 4.00847 0
M  V30 5471 H 524.691 -1.47199 2.65643 0
M  V30 5472 H 522.276 -0.665939 1.33737 0
M  V30 5473 H 524.158 -3.7875 1.84732 0
M  V30 5474 H 522.833 -3.12248 0.8534 0
M  V30 5475 H 521.74 -2.24012 2.99616 0
M  V30 5476 H 523.073 -2.96304 3.9302 0
M  V30 5477 N 524.725 -1.39134 -0.740242 0
M  V30 5478 C 525.973 -1.35803 -1.49673 0
M  V30 5479 C 526.294 0.0470897 -1.94943 0
M  V30 5480 O 525.564 0.997347 -1.68611 0
M  V30 5481 H 524.144 -0.499736 -0.555224 0
M  V30 5482 H 526.806 -1.73947 -0.879107 0
M  V30 5483 H 525.902 -2.0174 -2.38133 0
M  V30 5484 N 526.204 0.969867 -1.24223 0
M  V30 5485 C 527.452 1.70918 -1.0785 0
M  V30 5486 C 527.773 1.91186 0.383763 0
M  V30 5487 O 527.043 1.48806 1.27411 0
M  V30 5488 H 525.623 0.633334 -0.396103 0
M  V30 5489 H 528.285 1.16689 -1.56108 0
M  V30 5490 H 527.381 2.69455 -1.57482 0
M  V30 5491 N 527.682 1.05563 1.17022 0
M  V30 5492 C 529.098 0.777684 1.39371 0
M  V30 5493 C 529.298 -0.626269 1.91521 0
M  V30 5494 O 528.354 -1.38806 2.10924 0
M  V30 5495 C 529.667 1.83642 2.3811 0
M  V30 5496 C 531.215 1.85907 2.51809 0
M  V30 5497 C 531.69 2.90813 3.53824 0
M  V30 5498 N 533.181 2.898 3.61345 0
M  V30 5499 C 533.916 3.6762 4.40049 0
M  V30 5500 N 533.412 4.55237 5.22237 0
M  V30 5501 N 535.205 3.56044 4.34959 0
M  V30 5502 H 527.356 1.9614 0.815047 0
M  V30 5503 H 529.619 0.849527 0.420722 0
M  V30 5504 H 529.325 2.84425 2.06871 0
M  V30 5505 H 529.199 1.6812 3.37662 0
M  V30 5506 H 531.586 0.857865 2.82356 0
M  V30 5507 H 531.667 2.05506 1.52318 0
M  V30 5508 H 531.311 3.91122 3.24015 0
M  V30 5509 H 531.241 2.68465 4.53028 0
M  V30 5510 H 533.732 2.26274 3.02669 0
M  V30 5511 H 534.045 5.11291 5.79484 0
M  V30 5512 H 532.39 4.59296 5.21605 0
M  V30 5513 H 535.581 2.86986 3.69806 0
M  V30 5514 H 535.754 4.16938 4.96051 0
M  V30 5515 N 529.16 -1.33526 0.837174 0
M  V30 5516 C 530.437 -1.92369 0.354065 0
M  V30 5517 C 530.817 -1.76348 -1.16038 0
M  V30 5518 O 530.165 -1.15083 -1.97403 0
M  V30 5519 C 530.375 -3.39728 0.799101 0
M  V30 5520 C 531.723 -4.16877 0.806139 0
M  V30 5521 O 532.747 -3.48373 0.742597 0
M  V30 5522 O 531.606 -5.39166 0.892345 0
M  V30 5523 H 528.7 -0.820952 0.0998378 0
M  V30 5524 H 531.246 -1.42409 0.922913 0
M  V30 5525 H 530.018 -3.45254 1.84162 0
M  V30 5526 H 529.641 -3.97062 0.206731 0
M  V30 5527 N 530.638 -0.59345 -1.46 0
M  V30 5528 C 531.863 -0.0872365 -2.07216 0
M  V30 5529 C 532.288 1.2131 -1.43755 0
M  V30 5530 O 531.646 1.73528 -0.525152 0
M  V30 5531 C 531.694 0.0538197 -3.6056 0
M  V30 5532 O 530.798 1.10765 -3.97247 0
M  V30 5533 H 530.139 -0.0676598 -0.660544 0
M  V30 5534 H 532.669 -0.819445 -1.87473 0
M  V30 5535 H 532.679 0.256567 -4.07193 0
M  V30 5536 H 531.354 -0.895739 -4.0614 0
M  V30 5537 H 529.931 0.882501 -3.62307 0
M  V30 5538 N 532.116 1.54067 -0.331816 0
M  V30 5539 C 533.356 2.02625 0.26876 0
M  V30 5540 C 533.72 1.21462 1.48697 0
M  V30 5541 O 534.921 1.59863 2.16096 0
M  V30 5542 C 533.192 3.52554 0.586577 0
M  V30 5543 S 534.751 4.23035 1.16563 0
M  V30 5544 H 531.569 0.706395 0.0807862 0
M  V30 5545 H 534.171 1.89844 -0.466856 0
M  V30 5546 H 532.875 4.09242 -0.308046 0
M  V30 5547 H 532.406 3.69432 1.35217 0
M  V30 5548 H 534.421 4.31382 2.45203 0
M  V30 5549 N 533.594 0.0601682 1.57485 0
M  V30 5550 C 534.526 -0.94047 2.09016 0
M  V30 5551 C 535.539 -1.26897 1.01985 0
M  V30 5552 O 536.728 -1.22819 1.29529 0
M  V30 5553 C 533.828 -2.25955 2.52582 0
M  V30 5554 C 533.001 -2.11163 3.83052 0
M  V30 5555 C 532.06 -3.26273 4.12835 0
M  V30 5556 O 531.086 -3.01779 4.82616 0
M  V30 5557 N 532.288 -4.51022 3.65458 0
M  V30 5558 H 535.053 -0.500578 2.9549 0
M  V30 5559 H 532.614 -0.125852 1.6141 0
M  V30 5560 H 534.606 -3.01846 2.69575 0
M  V30 5561 H 533.176 -2.61481 1.71308 0
M  V30 5562 H 532.396 -1.19808 3.75552 0
M  V30 5563 H 533.684 -1.98517 4.68475 0
M  V30 5564 H 533.082 -4.73811 3.09062 0
M  V30 5565 H 531.639 -5.23978 3.87673 0
M  V30 5566 N 535.072 -1.5615 -0.213296 0
M  V30 5567 C 536.32 -1.79191 -0.934612 0
M  V30 5568 C 536.641 -0.630112 -1.84539 0
M  V30 5569 O 535.911 0.35257 -1.92701 0
M  V30 5570 H 534.491 -0.660937 -0.348097 0
M  V30 5571 H 537.153 -1.93618 -0.22317 0
M  V30 5572 H 536.249 -2.71656 -1.53654 0
M  V30 5573 N 536.55 0.480323 -1.50102 0
M  V30 5574 C 537.827 1.24159 -1.51142 0
M  V30 5575 C 538.207 2.09605 -0.250818 0
M  V30 5576 O 537.555 2.15274 0.766118 0
M  V30 5577 C 537.765 2.08057 -2.80202 0
M  V30 5578 C 539.113 2.66556 -3.30504 0
M  V30 5579 O 540.137 2.18308 -2.81461 0
M  V30 5580 O 538.996 3.54442 -4.15973 0
M  V30 5581 H 536.09 0.562928 -0.605839 0
M  V30 5582 H 538.636 0.492899 -1.62384 0
M  V30 5583 H 537.408 1.45032 -3.6343 0
M  V30 5584 H 537.031 2.90079 -2.71919 0
M  V30 5585 N 538.028 1.39524 0.732853 0
M  V30 5586 C 539.253 1.40329 1.52717 0
M  V30 5587 C 539.678 0.000286574 1.881 0
M  V30 5588 O 539.036 -0.987262 1.52062 0
M  V30 5589 C 539.084 2.28464 2.78992 0
M  V30 5590 O 538.188 1.716 3.75003 0
M  V30 5591 H 537.529 0.47778 0.461109 0
M  V30 5592 H 540.059 1.83546 0.903996 0
M  V30 5593 H 540.069 2.43051 3.27705 0
M  V30 5594 H 538.744 3.30425 2.52572 0
M  V30 5595 H 537.321 1.66267 3.33781 0
M  V30 5596 N 539.506 -0.963266 1.24736 0
M  V30 5597 C 540.754 -1.70343 1.08755 0
M  V30 5598 C 541.075 -1.91387 -0.373619 0
M  V30 5599 O 540.345 -1.4948 -1.2662 0
M  V30 5600 H 538.925 -0.631224 0.399456 0
M  V30 5601 H 541.587 -1.15859 1.56725 0
M  V30 5602 H 540.683 -2.68616 1.58909 0
M  V30 5603 N 540.985 -1.06182 -1.16461 0
M  V30 5604 C 542.233 -0.776326 -1.86595 0
M  V30 5605 C 542.554 0.69921 -1.82033 0
M  V30 5606 O 541.824 1.50579 -1.2531 0
M  V30 5607 H 540.404 -0.284184 -0.690832 0
M  V30 5608 H 543.066 -1.34308 -1.41235 0
M  V30 5609 H 542.162 -1.10022 -2.92064 0
M  V30 5610 N 542.463 1.3308 -0.844243 0
M  V30 5611 C 543.874 1.7992 -0.498566 0
M  V30 5612 C 544.225 1.69808 0.982834 0
M  V30 5613 O 543.35 1.25051 1.7661 0
M  V30 5614 C 543.945 3.26677 -0.898204 0
M  V30 5615 C 542.504 3.71513 -0.604583 0
M  V30 5616 C 541.651 2.54393 -1.10362 0
M  V30 5617 H 544.602 1.20526 -1.03244 0
M  V30 5618 H 544.623 3.79918 -0.21039 0
M  V30 5619 H 544.135 3.34004 -1.97643 0
M  V30 5620 H 542.236 3.69708 0.46335 0
M  V30 5621 H 542.349 4.64755 -1.16358 0
M  V30 5622 H 540.713 2.49246 -0.524273 0
M  V30 5623 H 541.496 2.6448 -2.18873 0
M  V30 5624 N 543.941 0.601185 1.45683 0
M  V30 5625 C 544.891 -0.142686 2.27553 0
M  V30 5626 C 545.875 -0.844598 1.3695 0
M  V30 5627 O 547.067 -0.735644 1.60988 0
M  V30 5628 C 544.196 -1.14364 3.23691 0
M  V30 5629 C 543.282 -0.442894 4.21781 0
M  V30 5630 N 543.673 0.51189 5.03203 0
M  V30 5631 C 541.971 -0.691277 4.4061 0
M  V30 5632 C 542.672 0.92318 5.74328 0
M  V30 5633 N 541.648 0.268308 5.42937 0
M  V30 5634 H 545.45 0.590736 2.87902 0
M  V30 5635 H 542.964 0.424365 1.56757 0
M  V30 5636 H 544.961 -1.6909 3.8107 0
M  V30 5637 H 543.621 -1.87768 2.64902 0
M  V30 5638 H 544.632 0.888329 5.10225 0
M  V30 5639 H 541.309 -1.41049 3.92952 0
M  V30 5640 H 542.699 1.71029 6.49768 0
M  V30 5641 N 545.419 -1.53889 0.339982 0
M  V30 5642 C 546.665 -2.01152 -0.258003 0
M  V30 5643 C 546.998 -1.22749 -1.50487 0
M  V30 5644 O 546.273 -0.314156 -1.91946 0
M  V30 5645 C 546.556 -3.55468 -0.575717 0
M  V30 5646 C 546.409 -4.44584 0.682996 0
M  V30 5647 C 547.728 -4.1768 -1.38677 0
M  V30 5648 H 544.847 -0.731198 -0.0922992 0
M  V30 5649 H 547.489 -1.84352 0.459814 0
M  V30 5650 H 545.639 -3.69914 -1.18725 0
M  V30 5651 H 547.311 -4.41981 1.32102 0
M  V30 5652 H 545.554 -4.13592 1.3086 0
M  V30 5653 H 546.225 -5.5043 0.416001 0
M  V30 5654 H 548.701 -4.0691 -0.869705 0
M  V30 5655 H 547.577 -5.25734 -1.57783 0
M  V30 5656 H 547.838 -3.72069 -2.38782 0
M  V30 5657 N 546.897 -0.0685191 -1.57451 0
M  V30 5658 C 548.125 0.610462 -1.97689 0
M  V30 5659 C 548.54 1.63346 -0.946758 0
M  V30 5660 O 547.897 1.82377 0.0669868 0
M  V30 5661 C 547.948 1.28196 -3.38006 0
M  V30 5662 O 547.669 0.299906 -4.37072 0
M  V30 5663 C 549.17 2.04907 -3.931 0
M  V30 5664 H 546.39 0.165689 -0.650222 0
M  V30 5665 H 548.934 -0.139953 -2.04021 0
M  V30 5666 H 547.089 1.98348 -3.32771 0
M  V30 5667 H 547.503 0.78126 -5.18649 0
M  V30 5668 H 548.977 2.47287 -4.93511 0
M  V30 5669 H 549.454 2.9043 -3.29465 0
M  V30 5670 H 550.06 1.39629 -4.01726 0
M  V30 5671 N 548.375 1.56261 0.205012 0
M  V30 5672 C 549.285 1.96944 1.27476 0
M  V30 5673 C 550.301 0.875636 1.50362 0
M  V30 5674 O 551.477 1.18058 1.6317 0
M  V30 5675 C 548.542 2.29219 2.60115 0
M  V30 5676 C 547.603 3.52255 2.45387 0
M  V30 5677 C 546.836 3.8298 3.71701 0
M  V30 5678 O 547.059 3.15138 4.75441 0
M  V30 5679 O 545.993 4.76435 3.67823 0
M  V30 5680 H 549.819 2.88144 0.959527 0
M  V30 5681 H 547.404 1.43686 0.409217 0
M  V30 5682 H 549.286 2.51098 3.3842 0
M  V30 5683 H 547.961 1.4119 2.91285 0
M  V30 5684 H 546.868 3.35635 1.65227 0
M  V30 5685 H 548.201 4.40719 2.19152 0
M  V30 5686 N 549.853 -0.472356 1.50355 0
M  V30 5687 C 551.099 -1.22634 1.6152 0
M  V30 5688 C 551.432 -1.91645 0.313995 0
M  V30 5689 O 550.707 -1.82059 -0.684446 0
M  V30 5690 C 550.99 -2.27099 2.7946 0
M  V30 5691 C 550.843 -1.62402 4.19459 0
M  V30 5692 C 552.162 -3.28421 2.92964 0
M  V30 5693 H 549.281 -0.444494 0.587873 0
M  V30 5694 H 551.923 -0.520321 1.82737 0
M  V30 5695 H 550.073 -2.87314 2.61501 0
M  V30 5696 H 551.745 -1.05793 4.49005 0
M  V30 5697 H 549.988 -0.927184 4.23776 0
M  V30 5698 H 550.659 -2.38309 4.97909 0
M  V30 5699 H 553.135 -2.78227 3.09401 0
M  V30 5700 H 552.011 -3.98845 3.77113 0
M  V30 5701 H 552.272 -3.92467 2.03525 0
M  V30 5702 N 551.331 -1.39911 -0.725443 0
M  V30 5703 C 552.241 -1.41688 -1.8698 0
M  V30 5704 C 553.257 -0.310579 -1.71206 0
M  V30 5705 O 554.433 -0.55359 -1.93642 0
M  V30 5706 C 551.498 -1.26811 -3.22676 0
M  V30 5707 C 550.559 -2.47497 -3.50776 0
M  V30 5708 C 549.792 -2.3332 -4.79997 0
M  V30 5709 O 550.015 -1.34175 -5.54394 0
M  V30 5710 O 548.949 -3.22498 -5.08211 0
M  V30 5711 H 552.775 -2.38171 -1.88436 0
M  V30 5712 H 550.36 -1.21128 -0.874548 0
M  V30 5713 H 552.242 -1.20684 -4.03749 0
M  V30 5714 H 550.917 -0.334289 -3.21969 0
M  V30 5715 H 549.824 -2.59201 -2.69751 0
M  V30 5716 H 551.157 -3.39606 -3.5627 0
M  V30 5717 N 552.809 0.956637 -1.25245 0
M  V30 5718 C 554.057 1.69764 -1.09657 0
M  V30 5719 C 554.378 1.91583 0.363464 0
M  V30 5720 O 553.648 1.50149 1.25825 0
M  V30 5721 H 552.228 0.629097 -0.402798 0
M  V30 5722 H 554.89 1.15026 -1.57337 0
M  V30 5723 H 553.986 2.67769 -1.60331 0
M  V30 5724 N 554.287 1.06798 1.15896 0
M  V30 5725 C 555.515 0.808694 1.90441 0
M  V30 5726 C 555.93 -0.637506 1.77711 0
M  V30 5727 O 555.287 -1.43684 1.12522 0
M  V30 5728 C 555.338 1.20068 3.40978 0
M  V30 5729 O 555.059 2.59013 3.53333 0
M  V30 5730 C 556.56 0.96987 4.3256 0
M  V30 5731 H 553.78 0.292809 0.603742 0
M  V30 5732 H 556.324 1.42296 1.46874 0
M  V30 5733 H 554.479 0.630842 3.82229 0
M  V30 5734 H 554.893 2.7485 4.46719 0
M  V30 5735 H 556.367 1.29371 5.36626 0
M  V30 5736 H 556.844 -0.0941209 4.39099 0
M  V30 5737 H 557.45 1.52433 3.97044 0
M  V30 5738 N 555.766 -1.3263 0.851289 0
M  V30 5739 C 556.991 -2.02097 0.466006 0
M  V30 5740 C 557.416 -1.63574 -0.928709 0
M  V30 5741 O 556.774 -0.834665 -1.60944 0
M  V30 5742 C 556.822 -3.55425 0.608737 0
M  V30 5743 O 555.926 -4.10827 -0.359878 0
M  V30 5744 H 555.267 -0.636911 0.187724 0
M  V30 5745 H 557.797 -1.69253 1.14955 0
M  V30 5746 H 557.807 -4.04986 0.495006 0
M  V30 5747 H 556.482 -3.82806 1.62581 0
M  V30 5748 H 555.059 -3.72349 -0.202666 0
M  V30 5749 N 557.244 -0.608902 -1.45362 0
M  V30 5750 C 558.491 -0.104607 -2.0223 0
M  V30 5751 C 558.819 1.26534 -1.47714 0
M  V30 5752 O 558.074 1.84855 -0.642435 0
M  V30 5753 C 558.373 -0.0167296 -3.57396 0
M  V30 5754 C 558.039 -1.32251 -4.31069 0
M  V30 5755 C 556.701 -1.68019 -4.50914 0
M  V30 5756 C 559.053 -2.18542 -4.73169 0
M  V30 5757 C 556.381 -2.89828 -5.10114 0
M  V30 5758 C 558.733 -3.39602 -5.33717 0
M  V30 5759 C 557.397 -3.7562 -5.51784 0
M  V30 5760 H 556.667 -0.0382785 -0.740011 0
M  V30 5761 H 559.314 -0.790782 -1.7441 0
M  V30 5762 H 557.619 0.752715 -3.84502 0
M  V30 5763 H 559.316 0.389634 -3.99103 0
M  V30 5764 H 555.906 -1.03411 -4.15938 0
M  V30 5765 H 560.09 -1.92208 -4.5757 0
M  V30 5766 H 555.346 -3.17839 -5.22291 0
M  V30 5767 H 559.52 -4.06716 -5.65292 0
M  V30 5768 H 557.147 -4.70093 -5.97425 0
M  V30 5769 N 558.722 1.53707 -0.348139 0
M  V30 5770 C 559.652 2.28111 0.498766 0
M  V30 5771 C 560.633 1.29851 1.09876 0
M  V30 5772 O 561.818 1.587 1.11928 0
M  V30 5773 C 558.948 3.05735 1.64753 0
M  V30 5774 C 557.902 4.11537 1.17565 0
M  V30 5775 C 557.228 4.77142 2.4133 0
M  V30 5776 C 558.528 5.21587 0.272844 0
M  V30 5777 H 560.222 2.99152 -0.121934 0
M  V30 5778 H 557.768 1.43875 -0.0600842 0
M  V30 5779 H 559.721 3.56526 2.24649 0
M  V30 5780 H 558.445 2.32354 2.2952 0
M  V30 5781 H 557.104 3.61665 0.599483 0
M  V30 5782 H 556.752 4.0035 3.04514 0
M  V30 5783 H 556.452 5.48626 2.10436 0
M  V30 5784 H 557.976 5.30719 3.01943 0
M  V30 5785 H 559.39 5.67986 0.778779 0
M  V30 5786 H 557.787 6.00074 0.0555849 0
M  V30 5787 H 558.857 4.79969 -0.689785 0
M  V30 5788 N 560.2 0.0768682 1.57412 0
M  V30 5789 C 561.428 -0.59997 1.9801 0
M  V30 5790 C 561.843 -1.62842 0.955408 0
M  V30 5791 O 561.2 -1.8241 -0.057314 0
M  V30 5792 C 561.251 -1.26401 3.38681 0
M  V30 5793 O 560.972 -0.276723 4.37225 0
M  V30 5794 C 562.473 -2.0282 3.94182 0
M  V30 5795 H 559.693 -0.162239 0.651091 0
M  V30 5796 H 562.237 0.150771 2.03943 0
M  V30 5797 H 560.392 -1.96581 3.33819 0
M  V30 5798 H 560.806 -0.753744 5.19056 0
M  V30 5799 H 562.28 -2.44667 4.94815 0
M  V30 5800 H 562.757 -2.88678 3.31001 0
M  V30 5801 H 563.363 -1.37496 4.02461 0
M  V30 5802 N 561.678 -1.56367 -0.196722 0
M  V30 5803 C 562.926 -1.80172 -0.915554 0
M  V30 5804 C 563.247 -0.649649 -1.8386 0
M  V30 5805 O 562.517 0.332111 -1.93064 0
M  V30 5806 H 561.097 -0.664592 -0.341067 0
M  V30 5807 H 563.759 -1.93844 -0.202622 0
M  V30 5808 H 562.855 -2.7327 -1.50764 0
M  V30 5809 N 563.156 0.464375 -1.50603 0
M  V30 5810 C 564.405 1.21277 -1.61167 0
M  V30 5811 C 564.718 1.92953 -0.320704 0
M  V30 5812 O 565.924 2.69778 -0.30534 0
M  V30 5813 C 564.38 2.20403 -2.84518 0
M  V30 5814 C 563.988 1.54499 -4.20516 0
M  V30 5815 C 565.732 2.95843 -3.0443 0
M  V30 5816 C 563.639 2.51951 -5.35047 0
M  V30 5817 H 562.569 0.456367 -0.600204 0
M  V30 5818 H 565.22 0.48254 -1.77042 0
M  V30 5819 H 563.602 2.96746 -2.62217 0
M  V30 5820 H 564.776 0.83899 -4.53098 0
M  V30 5821 H 563.091 0.913152 -4.06264 0
M  V30 5822 H 565.688 3.6879 -3.87167 0
M  V30 5823 H 566.031 3.55622 -2.16423 0
M  V30 5824 H 566.564 2.26611 -3.26944 0
M  V30 5825 H 563.303 1.96901 -6.25228 0
M  V30 5826 H 562.823 3.20683 -5.06875 0
M  V30 5827 H 564.502 3.13643 -5.65895 0
M  V30 5828 N 564.634 1.40294 0.718013 0
M  V30 5829 C 565.883 1.37746 1.4734 0
M  V30 5830 C 566.196 -0.0180754 1.95592 0
M  V30 5831 O 567.402 -0.166166 2.70991 0
M  V30 5832 C 565.858 2.4208 2.66318 0
M  V30 5833 C 565.466 3.87432 2.24945 0
M  V30 5834 C 567.21 2.48635 3.44065 0
M  V30 5835 C 565.117 4.83368 3.40748 0
M  V30 5836 H 564.047 0.512165 0.553356 0
M  V30 5837 H 566.698 1.66019 0.781661 0
M  V30 5838 H 565.08 2.06903 3.3765 0
M  V30 5839 H 566.254 4.3174 1.6105 0
M  V30 5840 H 564.569 3.8433 1.60249 0
M  V30 5841 H 567.166 3.17499 4.30231 0
M  V30 5842 H 567.509 1.51611 3.87711 0
M  V30 5843 H 568.042 2.82791 2.79775 0
M  V30 5844 H 564.781 5.81716 3.02136 0
M  V30 5845 H 564.301 4.43726 4.03568 0
M  V30 5846 H 565.98 5.03074 4.06848 0
M  V30 5847 N 566.112 -0.949982 1.2575 0
M  V30 5848 C 567.337 -1.73503 1.13628 0
M  V30 5849 C 567.762 -1.85601 -0.30559 0
M  V30 5850 O 567.12 -1.33984 -1.22139 0
M  V30 5851 C 567.168 -3.1243 1.80055 0
M  V30 5852 O 566.272 -3.97916 1.08336 0
M  V30 5853 H 565.613 -0.532665 0.396439 0
M  V30 5854 H 568.143 -1.19043 1.66403 0
M  V30 5855 H 568.153 -3.62866 1.86527 0
M  V30 5856 H 566.828 -3.02941 2.84956 0
M  V30 5857 H 565.405 -3.56375 1.09777 0
M  V30 5858 N 567.59 -1.07411 -1.15328 0
M  V30 5859 C 568.836 -0.808666 -1.86634 0
M  V30 5860 C 569.191 0.65816 -1.80793 0
M  V30 5861 O 568.484 1.47689 -1.22059 0
M  V30 5862 C 568.678 -1.25191 -3.34757 0
M  V30 5863 C 568.507 -2.76028 -3.55019 0
M  V30 5864 C 567.277 -3.43644 -3.70455 0
M  V30 5865 C 569.475 -3.74224 -3.5279 0
M  V30 5866 N 567.457 -4.83117 -3.78776 0
M  V30 5867 C 568.828 -4.9954 -3.67233 0
M  V30 5868 C 570.883 -3.67373 -3.36068 0
M  V30 5869 C 569.586 -6.18819 -3.66682 0
M  V30 5870 C 571.612 -4.86116 -3.36816 0
M  V30 5871 C 570.974 -6.10266 -3.51789 0
M  V30 5872 H 567.073 -0.348478 -0.700062 0
M  V30 5873 H 569.657 -1.37049 -1.38295 0
M  V30 5874 H 567.828 -0.717775 -3.8171 0
M  V30 5875 H 569.56 -0.933936 -3.93776 0
M  V30 5876 H 566.315 -2.94051 -3.71256 0
M  V30 5877 H 566.739 -5.55705 -3.86679 0
M  V30 5878 H 571.381 -2.72334 -3.2341 0
M  V30 5879 H 569.099 -7.14179 -3.78118 0
M  V30 5880 H 572.685 -4.82492 -3.25103 0
M  V30 5881 H 571.565 -7.00609 -3.52301 0
M  V30 5882 N 569.068 1.32177 -0.85831 0
M  V30 5883 C 570.316 1.96735 -0.462568 0
M  V30 5884 C 570.637 1.6824 0.985911 0
M  V30 5885 O 569.907 0.991564 1.68952 0
M  V30 5886 H 568.487 0.727849 -0.168064 0
M  V30 5887 H 571.149 1.61195 -1.09554 0
M  V30 5888 H 570.245 3.06068 -0.610647 0
M  V30 5889 N 570.547 0.616602 1.45037 0
M  V30 5890 C 571.457 -0.0985401 2.34393 0
M  V30 5891 C 572.473 -0.850971 1.51771 0
M  V30 5892 O 573.649 -0.806521 1.84546 0
M  V30 5893 C 570.714 -1.07748 3.29532 0
M  V30 5894 C 569.775 -0.326022 4.2806 0
M  V30 5895 C 569.008 -1.25833 5.18654 0
M  V30 5896 O 569.231 -2.49652 5.12864 0
M  V30 5897 O 568.165 -0.750512 5.97203 0
M  V30 5898 H 571.991 0.636016 2.96966 0
M  V30 5899 H 569.576 0.376832 1.44569 0
M  V30 5900 H 571.458 -1.64107 3.88133 0
M  V30 5901 H 570.133 -1.79291 2.69512 0
M  V30 5902 H 569.04 0.280253 3.73049 0
M  V30 5903 H 570.373 0.349091 4.9096 0
M  V30 5904 N 572.025 -1.5352 0.356285 0
M  V30 5905 C 572.935 -2.29151 -0.502712 0
M  V30 5906 C 573.951 -1.34753 -1.1008 0
M  V30 5907 O 575.127 -1.67803 -1.11374 0
M  V30 5908 C 572.192 -3.05911 -1.63154 0
M  V30 5909 C 571.253 -4.15958 -1.06194 0
M  V30 5910 C 570.486 -4.8905 -2.13696 0
M  V30 5911 O 570.709 -4.61919 -3.34645 0
M  V30 5912 O 569.643 -5.75202 -1.77275 0
M  V30 5913 H 573.469 -3.03492 0.112466 0
M  V30 5914 H 571.054 -1.4891 0.120942 0
M  V30 5915 H 572.936 -3.53874 -2.28804 0
M  V30 5916 H 571.611 -2.34415 -2.23229 0
M  V30 5917 H 570.518 -3.7227 -0.369603 0
M  V30 5918 H 571.851 -4.89593 -0.505872 0
M  V30 5919 N 573.503 -0.0852151 -1.57369 0
M  V30 5920 C 574.743 0.584297 -1.95871 0
M  V30 5921 C 575.107 1.6596 -0.965473 0
M  V30 5922 O 576.308 2.38561 -1.23862 0
M  V30 5923 C 574.579 1.13411 -3.38929 0
M  V30 5924 S 576.138 1.81687 -3.99419 0
M  V30 5925 H 572.956 0.19095 -0.684879 0
M  V30 5926 H 575.558 -0.162267 -1.94825 0
M  V30 5927 H 574.262 0.339845 -4.0899 0
M  V30 5928 H 573.793 1.91672 -3.43548 0
M  V30 5929 H 575.808 3.10037 -3.87417 0
M  V30 5930 N 574.981 1.5647 0.188427 0
M  V30 5931 C 575.944 1.9421 1.21718 0
M  V30 5932 C 576.944 0.823901 1.38089 0
M  V30 5933 O 578.134 1.09122 1.35787 0
M  V30 5934 C 575.266 2.22197 2.58537 0
M  V30 5935 H 576.459 2.86252 0.894418 0
M  V30 5936 H 574.012 1.50263 0.430211 0
M  V30 5937 H 574.747 1.32814 2.95856 0
M  V30 5938 H 574.532 3.03688 2.48025 0
M  V30 5939 H 576.022 2.52376 3.3271 0
M  V30 5940 N 576.459 -0.456382 1.50847 0
M  V30 5941 C 577.392 -1.57177 1.65441 0
M  V30 5942 C 578.37 -1.54649 0.502224 0
M  V30 5943 O 579.554 -1.74057 0.723633 0
M  V30 5944 C 576.681 -2.95763 1.65052 0
M  V30 5945 C 575.727 -3.16389 2.86007 0
M  V30 5946 S 576.56 -2.94716 4.47105 0
M  V30 5947 C 577.716 -4.35617 4.49432 0
M  V30 5948 H 577.949 -1.44561 2.59787 0
M  V30 5949 H 575.482 -0.644758 1.40293 0
M  V30 5950 H 577.44 -3.75654 1.65512 0
M  V30 5951 H 576.101 -3.05756 0.719153 0
M  V30 5952 H 575.294 -4.17667 2.82081 0
M  V30 5953 H 574.896 -2.44293 2.8319 0
M  V30 5954 H 577.188 -5.28503 4.239 0
M  V30 5955 H 578.131 -4.44582 5.51137 0
M  V30 5956 H 578.539 -4.18382 3.78967 0
M  V30 5957 N 577.937 -1.40673 -0.710563 0
M  V30 5958 C 578.884 -1.41336 -1.82463 0
M  V30 5959 C 579.854 -0.269648 -1.63897 0
M  V30 5960 O 581.039 -0.468463 -1.8496 0
M  V30 5961 C 578.179 -1.28665 -3.20218 0
M  V30 5962 C 577.292 -2.52784 -3.5032 0
M  V30 5963 C 576.427 -2.32517 -4.77608 0
M  V30 5964 C 575.466 -3.52187 -5.0063 0
M  V30 5965 N 574.603 -3.31084 -6.19135 0
M  V30 5966 H 579.443 -2.36558 -1.8123 0
M  V30 5967 H 576.98 -1.17483 -0.885226 0
M  V30 5968 H 578.938 -1.19324 -3.99772 0
M  V30 5969 H 577.568 -0.370602 -3.20666 0
M  V30 5970 H 576.62 -2.72634 -2.65283 0
M  V30 5971 H 577.932 -3.41845 -3.63241 0
M  V30 5972 H 577.086 -2.20558 -5.65189 0
M  V30 5973 H 575.825 -1.40889 -4.66906 0
M  V30 5974 H 574.83 -3.64617 -4.11502 0
M  V30 5975 H 576.055 -4.44749 -5.13201 0
M  V30 5976 H 574.001 -2.42143 -6.09674 0
M  V30 5977 H 573.918 -4.13713 -6.32754 0
M  V30 5978 H 575.186 -3.22868 -7.0949 0
M  V30 5979 N 579.415 0.9433 -1.26252 0
M  V30 5980 C 580.663 1.68592 -1.11451 0
M  V30 5981 C 580.984 1.91957 0.343123 0
M  V30 5982 O 580.254 1.51475 1.24226 0
M  V30 5983 H 578.834 0.624789 -0.409448 0
M  V30 5984 H 581.496 1.13351 -1.58548 0
M  V30 5985 H 580.592 2.66054 -1.63162 0
M  V30 5986 N 580.893 1.08022 1.14757 0
M  V30 5987 C 581.84 0.706657 2.19716 0
M  V30 5988 C 582.81 -0.30525 1.63271 0
M  V30 5989 O 583.995 -0.19015 1.8985 0
M  V30 5990 C 581.135 0.117914 3.44898 0
M  V30 5991 C 580.248 1.18212 4.15512 0
M  V30 5992 C 579.383 0.557659 5.28265 0
M  V30 5993 C 578.422 1.60418 5.90705 0
M  V30 5994 N 577.559 1.0018 6.94916 0
M  V30 5995 H 582.399 1.60603 2.51019 0
M  V30 5996 H 579.936 0.802664 1.23271 0
M  V30 5997 H 581.894 -0.241112 4.16503 0
M  V30 5998 H 580.524 -0.744788 3.1409 0
M  V30 5999 H 579.576 1.65863 3.42335 0
M  V30 6000 H 580.888 1.97533 4.5802 0
M  V30 6001 H 580.042 0.146654 6.06523 0
M  V30 6002 H 578.781 -0.267249 4.86967 0
M  V30 6003 H 577.786 2.02489 5.11154 0
M  V30 6004 H 579.011 2.43149 6.34078 0
M  V30 6005 H 576.957 0.197917 6.55701 0
M  V30 6006 H 576.874 1.73216 7.35889 0
M  V30 6007 H 578.142 0.616523 7.77058 0
M  V30 6008 N 582.371 -1.3172 0.865308 0
M  V30 6009 C 583.601 -2.00765 0.487543 0
M  V30 6010 C 584.009 -1.65145 -0.92325 0
M  V30 6011 O 583.352 -0.874294 -1.61561 0
M  V30 6012 C 583.414 -3.55122 0.559369 0
M  V30 6013 C 583.078 -4.14202 1.93095 0
M  V30 6014 C 584.075 -4.3165 2.89784 0
M  V30 6015 C 581.76 -4.50036 2.23099 0
M  V30 6016 C 583.754 -4.84114 4.14623 0
M  V30 6017 C 581.441 -5.02203 3.48189 0
M  V30 6018 C 582.439 -5.19192 4.43767 0
M  V30 6019 O 582.127 -5.70241 5.6664 0
M  V30 6020 H 581.859 -0.649066 0.188915 0
M  V30 6021 H 584.413 -1.69032 1.16694 0
M  V30 6022 H 582.643 -3.86295 -0.176926 0
M  V30 6023 H 584.332 -4.05428 0.195694 0
M  V30 6024 H 585.098 -4.04288 2.6791 0
M  V30 6025 H 580.977 -4.36091 1.49485 0
M  V30 6026 H 584.521 -4.9729 4.89233 0
M  V30 6027 H 580.418 -5.28997 3.69908 0
M  V30 6028 H 581.186 -5.88617 5.68746 0
M  V30 6029 N 583.85 -0.624285 -1.44708 0
M  V30 6030 C 585.098 -0.125802 -2.01708 0
M  V30 6031 C 585.418 1.2543 -1.49306 0
M  V30 6032 O 584.689 1.83198 -0.693924 0
M  V30 6033 H 583.269 -0.0435161 -0.745731 0
M  V30 6034 H 585.931 -0.809446 -1.77296 0
M  V30 6035 H 585.027 -0.0882734 -3.11975 0
M  V30 6036 N 585.328 1.53329 -0.364422 0
M  V30 6037 C 586.577 2.00421 0.226747 0
M  V30 6038 C 586.89 1.25581 1.49963 0
M  V30 6039 O 588.096 1.63256 2.16933 0
M  V30 6040 C 586.552 3.57017 0.454618 0
M  V30 6041 C 586.16 4.40734 -0.803568 0
M  V30 6042 C 587.904 4.12468 1.00351 0
M  V30 6043 C 585.811 5.8888 -0.545345 0
M  V30 6044 H 584.741 0.748787 0.0885082 0
M  V30 6045 H 587.392 1.7703 -0.482983 0
M  V30 6046 H 585.774 3.76558 1.22558 0
M  V30 6047 H 586.948 4.32967 -1.57723 0
M  V30 6048 H 585.263 3.96381 -1.27559 0
M  V30 6049 H 587.86 5.20783 1.212 0
M  V30 6050 H 588.203 3.6699 1.9653 0
M  V30 6051 H 588.736 3.96721 0.29274 0
M  V30 6052 H 585.475 6.38633 -1.47743 0
M  V30 6053 H 584.995 5.99499 0.189842 0
M  V30 6054 H 586.674 6.46776 -0.170425 0
M  V30 6055 N 586.806 0.0935595 1.57322 0
M  V30 6056 C 588.036 -0.578095 1.98347 0
M  V30 6057 C 588.444 -1.62357 0.971441 0
M  V30 6058 O 587.787 -1.83639 -0.0473959 0
M  V30 6059 C 587.849 -1.28525 3.3574 0
M  V30 6060 C 587.513 -0.390714 4.55327 0
M  V30 6061 C 588.51 0.360522 5.18648 0
M  V30 6062 C 586.195 -0.309221 5.01347 0
M  V30 6063 C 588.189 1.18125 6.26359 0
M  V30 6064 C 585.876 0.515157 6.08925 0
M  V30 6065 C 586.874 1.25904 6.71295 0
M  V30 6066 O 586.562 2.06978 7.76798 0
M  V30 6067 H 586.294 -0.159767 0.656849 0
M  V30 6068 H 588.848 0.169058 2.04703 0
M  V30 6069 H 587.078 -2.07894 3.26063 0
M  V30 6070 H 588.767 -1.85128 3.61223 0
M  V30 6071 H 589.533 0.307285 4.84026 0
M  V30 6072 H 585.412 -0.877881 4.52564 0
M  V30 6073 H 588.956 1.76236 6.74971 0
M  V30 6074 H 584.853 0.56988 6.42979 0
M  V30 6075 H 585.621 1.99644 7.93779 0
M  V30 6076 N 588.284 -1.56567 -0.180126 0
M  V30 6077 C 589.512 -1.85618 -0.913972 0
M  V30 6078 C 589.927 -0.677892 -1.7621 0
M  V30 6079 O 589.284 0.353171 -1.7905 0
M  V30 6080 C 589.335 -3.13619 -1.79793 0
M  V30 6081 O 589.056 -4.26906 -0.98402 0
M  V30 6082 C 590.557 -3.55954 -2.64219 0
M  V30 6083 H 587.777 -0.616043 -0.265954 0
M  V30 6084 H 590.321 -2.03681 -0.182872 0
M  V30 6085 H 588.476 -2.97409 -2.48247 0
M  V30 6086 H 588.89 -4.9989 -1.58776 0
M  V30 6087 H 590.364 -4.48444 -3.21873 0
M  V30 6088 H 590.841 -2.79653 -3.38661 0
M  V30 6089 H 591.447 -3.74746 -2.01111 0
M  V30 6090 N 589.762 0.448376 -1.51087 0
M  V30 6091 C 590.709 1.54341 -1.71603 0
M  V30 6092 C 591.679 1.56463 -0.557536 0
M  V30 6093 O 592.864 1.73644 -0.79072 0
M  V30 6094 C 590.004 2.92148 -1.83695 0
M  V30 6095 C 589.117 2.99639 -3.11192 0
M  V30 6096 C 588.252 4.285 -3.13944 0
M  V30 6097 C 587.291 4.29819 -4.35801 0
M  V30 6098 N 586.428 5.50186 -4.36164 0
M  V30 6099 H 591.268 1.36151 -2.65079 0
M  V30 6100 H 588.805 0.661585 -1.31383 0
M  V30 6101 H 590.763 3.72093 -1.88687 0
M  V30 6102 H 589.393 3.0892 -0.936374 0
M  V30 6103 H 588.445 2.12425 -3.15562 0
M  V30 6104 H 589.757 2.96474 -4.01129 0
M  V30 6105 H 588.911 5.16811 -3.17791 0
M  V30 6106 H 587.65 4.34307 -2.21876 0
M  V30 6107 H 586.655 3.39902 -4.32142 0
M  V30 6108 H 587.88 4.25685 -5.29121 0
M  V30 6109 H 585.826 5.56735 -3.46961 0
M  V30 6110 H 585.743 5.48856 -5.19897 0
M  V30 6111 H 587.011 6.40559 -4.44189 0
M  V30 6112 N 591.24 1.41047 0.703093 0
M  V30 6113 C 592.486 1.40207 1.46526 0
M  V30 6114 C 592.819 0.00847763 1.94198 0
M  V30 6115 O 592.094 -0.962437 1.69019 0
M  V30 6116 C 592.377 2.40238 2.6825 0
M  V30 6117 C 592.23 3.88674 2.26391 0
M  V30 6118 C 593.549 2.37627 3.70434 0
M  V30 6119 H 590.668 0.510594 0.531472 0
M  V30 6120 H 593.31 1.72271 0.801422 0
M  V30 6121 H 591.46 2.13026 3.24888 0
M  V30 6122 H 593.132 4.2676 1.75138 0
M  V30 6123 H 591.375 4.03903 1.58255 0
M  V30 6124 H 592.046 4.542 3.13698 0
M  V30 6125 H 594.522 2.61759 3.23452 0
M  V30 6126 H 593.398 3.09645 4.53223 0
M  V30 6127 H 593.659 1.39223 4.19606 0
M  V30 6128 N 592.718 -0.936591 1.26751 0
M  V30 6129 C 593.943 -1.72288 1.15462 0
M  V30 6130 C 594.368 -1.85915 -0.285887 0
M  V30 6131 O 593.726 -1.35272 -1.20711 0
M  V30 6132 C 593.774 -3.10503 1.83359 0
M  V30 6133 O 592.878 -3.96745 1.1255 0
M  V30 6134 H 592.219 -0.52843 0.402067 0
M  V30 6135 H 594.749 -1.17271 1.67656 0
M  V30 6136 H 594.759 -3.60867 1.90365 0
M  V30 6137 H 593.434 -2.99901 2.88153 0
M  V30 6138 H 592.011 -3.55191 1.13551 0
M  V30 6139 N 594.196 -1.08629 -1.14182 0
M  V30 6140 C 595.612 -0.814363 -1.3726 0
M  V30 6141 C 595.812 0.575271 -1.93114 0
M  V30 6142 O 594.868 1.33165 -2.1453 0
M  V30 6143 C 596.181 -1.8989 -2.33157 0
M  V30 6144 C 597.729 -1.92518 -2.46791 0
M  V30 6145 C 598.204 -3.00092 -3.45989 0
M  V30 6146 N 599.695 -2.99279 -3.53534 0
M  V30 6147 C 600.43 -3.79158 -4.30147 0
M  V30 6148 N 599.926 -4.68923 -5.09983 0
M  V30 6149 N 601.719 -3.67451 -4.25366 0
M  V30 6150 H 593.87 -1.98232 -0.762758 0
M  V30 6151 H 596.133 -0.860383 -0.398051 0
M  V30 6152 H 595.839 -2.89809 -1.99257 0
M  V30 6153 H 595.713 -1.77013 -3.33086 0
M  V30 6154 H 598.1 -0.932425 -2.79982 0
M  V30 6155 H 598.181 -2.09473 -1.46816 0
M  V30 6156 H 597.825 -3.99575 -3.13532 0
M  V30 6157 H 597.755 -2.80382 -4.45751 0
M  V30 6158 H 600.246 -2.3422 -2.96563 0
M  V30 6159 H 600.559 -5.26475 -5.65724 0
M  V30 6160 H 598.904 -4.72964 -5.09244 0
M  V30 6161 H 602.095 -2.9669 -3.62067 0
M  V30 6162 H 602.268 -4.29944 -4.84822 0
M  V30 6163 N 595.674 1.31259 -0.872281 0
M  V30 6164 C 596.904 2.00504 -0.498183 0
M  V30 6165 C 597.312 1.65632 0.914479 0
M  V30 6166 O 596.655 0.882849 1.61095 0
M  V30 6167 C 596.717 3.5482 -0.578194 0
M  V30 6168 C 596.381 4.13172 -1.95289 0
M  V30 6169 C 597.378 4.30107 -2.92069 0
M  V30 6170 C 595.063 4.48846 -2.25483 0
M  V30 6171 C 597.057 4.81908 -4.17185 0
M  V30 6172 C 594.744 5.00349 -3.50847 0
M  V30 6173 C 595.742 5.16831 -4.46514 0
M  V30 6174 O 595.43 5.67228 -5.69656 0
M  V30 6175 H 595.162 0.648055 -0.192354 0
M  V30 6176 H 597.716 1.6841 -1.17589 0
M  V30 6177 H 595.946 3.86383 0.156438 0
M  V30 6178 H 597.635 4.05318 -0.217192 0
M  V30 6179 H 598.401 4.02862 -2.7005 0
M  V30 6180 H 594.28 4.35292 -1.51795 0
M  V30 6181 H 597.824 4.94688 -4.91863 0
M  V30 6182 H 593.721 5.27028 -3.72708 0
M  V30 6183 H 594.489 5.85592 -5.7186 0
M  V30 6184 N 597.152 0.631951 1.44375 0
M  V30 6185 C 598.398 0.13697 2.02337 0
M  V30 6186 C 598.731 -1.23826 1.49602 0
M  V30 6187 O 598.006 -1.8221 0.680415 0
M  V30 6188 C 598.289 0.124536 3.59885 0
M  V30 6189 C 598.142 1.53217 4.229 0
M  V30 6190 C 599.461 -0.550481 4.36644 0
M  V30 6191 H 596.58 0.051247 0.735216 0
M  V30 6192 H 599.222 0.808581 1.71936 0
M  V30 6193 H 597.372 -0.44737 3.85916 0
M  V30 6194 H 599.044 2.15303 4.07973 0
M  V30 6195 H 597.287 2.0858 3.80364 0
M  V30 6196 H 597.958 1.4755 5.31914 0
M  V30 6197 H 600.434 -0.0641154 4.16051 0
M  V30 6198 H 599.31 -0.528371 5.46351 0
M  V30 6199 H 599.571 -1.62097 4.11311 0
M  V30 6200 N 598.631 -1.53133 0.372548 0
M  V30 6201 C 599.579 -2.27473 -0.485681 0
M  V30 6202 C 600.573 -1.30719 -1.07745 0
M  V30 6203 O 601.779 -1.48321 -1.01985 0
M  V30 6204 H 598.154 -0.731269 -0.175356 0
M  V30 6205 H 600.125 -2.97955 0.162986 0
M  V30 6206 C 598.874 -3.08191 -1.60978 0
M  V30 6207 H 598.197 -3.82488 -1.16373 0
M  V30 6208 H 599.637 -3.63373 -2.18485 0
M  V30 6209 C 598.096 -2.19461 -2.55614 0
M  V30 6210 O 598.626 -1.81008 -3.58607 0
M  V30 6211 N 596.832 -1.83955 -2.24965 0
M  V30 6212 H 596.379 -2.15423 -1.41247 0
M  V30 6213 H 596.337 -1.24874 -2.88538 0
M  V30 6214 N 600.109 -0.101901 -1.5727 0
M  V30 6215 C 601.355 0.554864 -1.95686 0
M  V30 6216 C 601.71 1.65368 -0.983415 0
M  V30 6217 O 601.003 1.91597 -0.0105374 0
M  V30 6218 C 601.197 1.14898 -3.38427 0
M  V30 6219 C 601.026 0.109251 -4.49567 0
M  V30 6220 C 599.796 -0.316633 -5.04307 0
M  V30 6221 C 601.994 -0.665196 -5.0998 0
M  V30 6222 N 599.976 -1.34393 -5.99009 0
M  V30 6223 C 601.347 -1.54413 -6.00464 0
M  V30 6224 C 603.402 -0.717966 -4.92696 0
M  V30 6225 C 602.105 -2.47122 -6.75517 0
M  V30 6226 C 604.131 -1.63268 -5.68417 0
M  V30 6227 C 603.493 -2.49923 -6.58572 0
M  V30 6228 H 599.592 0.17317 -0.762585 0
M  V30 6229 H 602.176 -0.18605 -1.93809 0
M  V30 6230 H 600.347 1.85969 -3.40984 0
M  V30 6231 H 602.079 1.76867 -3.64006 0
M  V30 6232 H 598.834 0.0724419 -4.73545 0
M  V30 6233 H 599.258 -1.85598 -6.51062 0
M  V30 6234 H 603.9 -0.0621637 -4.22754 0
M  V30 6235 H 601.618 -3.13724 -7.44717 0
M  V30 6236 H 605.204 -1.67874 -5.57054 0
M  V30 6237 H 604.084 -3.19553 -7.16139 0
M  V30 6238 N 601.587 1.56661 0.17182 0
M  V30 6239 C 602.836 1.81158 0.886831 0
M  V30 6240 C 603.149 0.679072 1.83434 0
M  V30 6241 O 604.355 0.808964 2.59168 0
M  V30 6242 C 602.811 3.20999 1.6275 0
M  V30 6243 C 602.419 4.42117 0.723652 0
M  V30 6244 C 604.163 3.5479 2.33076 0
M  V30 6245 C 602.07 5.7298 1.46452 0
M  V30 6246 H 601 0.675543 0.334899 0
M  V30 6247 H 603.651 1.82967 0.139765 0
M  V30 6248 H 602.033 3.13506 2.4193 0
M  V30 6249 H 603.207 4.60789 -0.0311485 0
M  V30 6250 H 601.522 4.16197 0.130063 0
M  V30 6251 H 604.119 4.49806 2.89099 0
M  V30 6252 H 604.462 2.79646 3.08389 0
M  V30 6253 H 604.995 3.63834 1.6084 0
M  V30 6254 H 601.734 6.51152 0.753729 0
M  V30 6255 H 601.254 5.58285 2.19266 0
M  V30 6256 H 602.933 6.14916 2.01214 0
M  V30 6257 N 603.065 -0.440357 1.51323 0
M  V30 6258 C 604.012 -1.53429 1.72419 0
M  V30 6259 C 604.982 -1.56165 0.565826 0
M  V30 6260 O 606.167 -1.73222 0.799917 0
M  V30 6261 C 603.307 -2.91169 1.85242 0
M  V30 6262 C 602.42 -2.97985 3.12777 0
M  V30 6263 C 601.555 -4.26829 3.16212 0
M  V30 6264 C 600.594 -4.27501 4.38074 0
M  V30 6265 N 599.731 -5.47866 4.39076 0
M  V30 6266 H 604.571 -1.34743 2.65797 0
M  V30 6267 H 602.108 -0.654608 1.31732 0
M  V30 6268 H 604.066 -3.71087 1.90658 0
M  V30 6269 H 602.696 -3.0842 0.952744 0
M  V30 6270 H 601.748 -2.10749 3.16685 0
M  V30 6271 H 603.06 -2.94342 4.02696 0
M  V30 6272 H 602.214 -5.15118 3.20527 0
M  V30 6273 H 600.953 -4.33124 2.24176 0
M  V30 6274 H 599.958 -3.37606 4.33938 0
M  V30 6275 H 601.183 -4.22873 5.31371 0
M  V30 6276 H 599.129 -5.54887 3.49909 0
M  V30 6277 H 599.046 -5.46091 5.22801 0
M  V30 6278 H 600.314 -6.38195 4.4758 0
M  V30 6279 N 604.543 -1.41418 -0.695603 0
M  V30 6280 C 605.453 -1.45622 -1.83933 0
M  V30 6281 C 606.469 -0.346825 -1.70508 0
M  V30 6282 O 607.645 -0.59454 -1.92424 0
M  V30 6283 C 604.71 -1.33627 -3.19914 0
M  V30 6284 C 603.771 -2.54882 -3.45447 0
M  V30 6285 C 603.004 -2.43449 -4.7494 0
M  V30 6286 O 603.227 -1.45905 -5.51424 0
M  V30 6287 O 602.161 -3.33206 -5.01256 0
M  V30 6288 H 605.987 -2.42114 -1.83342 0
M  V30 6289 H 603.572 -1.22956 -0.848658 0
M  V30 6290 H 605.454 -1.29221 -4.01098 0
M  V30 6291 H 604.129 -0.402508 -3.21188 0
M  V30 6292 H 603.036 -2.64865 -2.64192 0
M  V30 6293 H 604.369 -3.47087 -3.48987 0
M  V30 6294 N 606.021 0.929856 -1.27246 0
M  V30 6295 C 606.968 2.03017 -1.09785 0
M  V30 6296 C 607.938 1.661 0.000456744 0
M  V30 6297 O 609.123 1.90116 -0.161462 0
M  V30 6298 C 606.263 3.36878 -0.748816 0
M  V30 6299 C 605.376 3.86763 -1.92453 0
M  V30 6300 C 604.511 5.09061 -1.51758 0
M  V30 6301 C 603.55 5.51237 -2.66091 0
M  V30 6302 N 602.687 6.64732 -2.25999 0
M  V30 6303 H 607.527 2.17285 -2.03939 0
M  V30 6304 H 605.064 1.06448 -1.01524 0
M  V30 6305 H 607.022 4.13855 -0.527283 0
M  V30 6306 H 605.652 3.22424 0.155771 0
M  V30 6307 H 604.704 3.06086 -2.25867 0
M  V30 6308 H 606.016 4.13994 -2.78227 0
M  V30 6309 H 605.17 5.93532 -1.25716 0
M  V30 6310 H 603.909 4.83602 -0.630896 0
M  V30 6311 H 602.914 4.65316 -2.92849 0
M  V30 6312 H 604.139 5.78692 -3.55377 0
M  V30 6313 H 602.085 6.40935 -1.3978 0
M  V30 6314 H 602.002 6.91607 -3.05313 0
M  V30 6315 H 603.27 7.52549 -2.03199 0
M  V30 6316 N 607.499 1.09233 1.13605 0
M  V30 6317 C 608.727 0.848908 1.88683 0
M  V30 6318 C 609.142 -0.599667 1.79024 0
M  V30 6319 O 608.499 -1.41265 1.15544 0
M  V30 6320 C 608.55 1.27273 3.38355 0
M  V30 6321 O 608.271 2.66449 3.47759 0
M  V30 6322 C 609.772 1.0614 4.30406 0
M  V30 6323 H 606.992 0.305549 0.597395 0
M  V30 6324 H 609.536 1.4538 1.43823 0
M  V30 6325 H 607.691 0.711776 3.80805 0
M  V30 6326 H 608.105 2.84264 4.40788 0
M  V30 6327 H 609.579 1.40725 5.33761 0
M  V30 6328 H 610.056 -0.000960332 4.392 0
M  V30 6329 H 610.662 1.60821 3.93722 0
M  V30 6330 N 608.977 -1.30795 0.87923 0
M  V30 6331 C 609.924 -2.28282 0.339968 0
M  V30 6332 C 610.894 -1.56134 -0.566685 0
M  V30 6333 O 612.079 -1.84231 -0.496338 0
M  V30 6334 C 609.219 -3.42225 -0.444501 0
M  V30 6335 C 608.332 -4.29204 0.490717 0
M  V30 6336 C 607.467 -5.30302 -0.308784 0
M  V30 6337 C 606.506 -6.08929 0.622272 0
M  V30 6338 N 605.643 -7.01957 -0.14155 0
M  V30 6339 H 610.483 -2.73794 1.17647 0
M  V30 6340 H 608.02 -1.34682 0.591527 0
M  V30 6341 H 609.978 -4.07038 -0.915186 0
M  V30 6342 H 608.608 -2.97799 -1.24562 0
M  V30 6343 H 607.66 -3.6475 1.07988 0
M  V30 6344 H 608.972 -4.84045 1.20425 0
M  V30 6345 H 608.126 -6.00835 -0.841575 0
M  V30 6346 H 606.865 -4.7614 -1.05556 0
M  V30 6347 H 605.87 -5.37278 1.16674 0
M  V30 6348 H 607.095 -6.65178 1.36804 0
M  V30 6349 H 605.041 -6.50192 -0.870966 0
M  V30 6350 H 604.958 -7.54261 0.51246 0
M  V30 6351 H 606.226 -7.76741 -0.655271 0
M  V30 6352 N 610.455 -0.639598 -1.44038 0
M  V30 6353 C 611.385 0.0469443 -2.33453 0
M  V30 6354 C 612.366 0.82609 -1.48694 0
M  V30 6355 O 613.551 0.790285 -1.77393 0
M  V30 6356 C 610.681 1.02338 -3.3188 0
M  V30 6357 C 609.635 0.355284 -4.26523 0
M  V30 6358 C 608.961 1.44221 -5.14883 0
M  V30 6359 C 610.261 -0.743798 -5.16977 0
M  V30 6360 H 611.955 -0.699735 -2.91108 0
M  V30 6361 H 609.501 -0.337946 -1.39978 0
M  V30 6362 H 611.454 1.51247 -3.93322 0
M  V30 6363 H 610.178 1.80105 -2.72451 0
M  V30 6364 H 608.837 -0.113239 -3.66425 0
M  V30 6365 H 608.485 2.21097 -4.51802 0
M  V30 6366 H 608.185 1.00052 -5.79019 0
M  V30 6367 H 609.709 1.93295 -5.79197 0
M  V30 6368 H 611.123 -0.337444 -5.72306 0
M  V30 6369 H 609.52 -1.10914 -5.89761 0
M  V30 6370 H 610.59 -1.60745 -4.57481 0
M  V30 6371 N 611.933 1.52934 -0.380664 0
M  V30 6372 C 613.161 2.05886 0.204599 0
M  V30 6373 C 613.576 1.25305 1.41223 0
M  V30 6374 O 612.933 0.297504 1.80059 0
M  V30 6375 C 612.984 3.56764 0.583249 0
M  V30 6376 O 612.705 4.34292 -0.576398 0
M  V30 6377 C 614.206 4.2603 1.2253 0
M  V30 6378 H 611.426 0.670193 0.0328991 0
M  V30 6379 H 613.97 1.97148 -0.543397 0
M  V30 6380 H 612.125 3.65603 1.28115 0
M  V30 6381 H 612.539 5.23819 -0.267119 0
M  V30 6382 H 614.013 5.32868 1.44068 0
M  V30 6383 H 614.49 3.80698 2.19011 0
M  V30 6384 H 615.096 4.21485 0.568407 0
M  V30 6385 O 613.45 0.250515 1.59545 0
M  V30 6386 H 614.141 -0.324371 1.90965 0
M  V30 END ATOM
M  V30 BEGIN BOND
M  V30 END BOND
M  V30 END CTAB
M  END
$$$$
