drugbank_target|P61927 60S ribosomal protein L37 (DB02494; DB04602; DB04805; DB07374; DB08437)
 OpenBabel12092120423D

  0  0  0     0  0            999 V3000
M  V30 BEGIN CTAB
M  V30 COUNTS 1591 1606 0 0 0
M  V30 BEGIN ATOM
M  V30 1 H -0.908 1.98254 -0.117106 0
M  V30 2 N 0 1.576 0 0
M  V30 3 C 0.933 2.03868 1.02534 0
M  V30 4 C 1.911 0.928543 1.3348 0
M  V30 5 O 3.095 1.19667 1.45644 0
M  V30 6 C 0.222 2.43627 2.35294 0
M  V30 7 C -0.732 3.65373 2.2001 0
M  V30 8 S 0.101 5.13292 1.52614 0
M  V30 9 C 1.257 5.56322 2.86805 0
M  V30 10 H 1.49 2.90518 0.631377 0
M  V30 11 H -0.977 1.52953 0.210867 0
M  V30 12 H 0.981 2.67203 3.11629 0
M  V30 13 H -0.358 1.57376 2.7183 0
M  V30 14 H -1.165 3.90944 3.18086 0
M  V30 15 H -1.563 3.418 1.51819 0
M  V30 16 H 0.729 5.58782 3.83104 0
M  V30 17 H 1.672 6.56266 2.65933 0
M  V30 18 H 2.08 4.83886 2.90714 0
M  V30 19 N 1.4781 -0.272755 1.55222 0
M  V30 20 C 2.7061 -1.02255 1.79865 0
M  V30 21 C 3.1211 -1.79924 0.572088 0
M  V30 22 O 2.4781 -1.76638 -0.458842 0
M  V30 23 C 2.5291 -1.98094 3.02392 0
M  V30 24 O 2.2501 -1.23572 4.20311 0
M  V30 25 C 3.7511 -2.84884 3.39641 0
M  V30 26 H 0.9711 -0.302057 0.599168 0
M  V30 27 H 3.5151 -0.303465 2.02236 0
M  V30 28 H 1.6701 -2.65465 2.82147 0
M  V30 29 H 2.0841 -1.88172 4.89583 0
M  V30 30 H 3.5581 -3.47927 4.28545 0
M  V30 31 H 4.0351 -3.54665 2.59055 0
M  V30 32 H 4.6411 -2.23003 3.62146 0
M  V30 33 N 2.9562 -1.48159 -0.537278 0
M  V30 34 C 3.9032 -1.62138 -1.64256 0
M  V30 35 C 4.8732 -0.463668 -1.59497 0
M  V30 36 O 6.0582 -0.686241 -1.78032 0
M  V30 37 C 3.1982 -1.66028 -3.02537 0
M  V30 38 C 2.3112 -2.92855 -3.17585 0
M  V30 39 C 1.4462 -2.87952 -4.46382 0
M  V30 40 C 0.4852 -4.09516 -4.54932 0
M  V30 41 N -0.3778 -4.02733 -5.75109 0
M  V30 42 H 4.4622 -2.56529 -1.51647 0
M  V30 43 H 1.9992 -1.27224 -0.738414 0
M  V30 44 H 3.9572 -1.66265 -3.82638 0
M  V30 45 H 2.5872 -0.751331 -3.13934 0
M  V30 46 H 1.6392 -3.02395 -2.30784 0
M  V30 47 H 2.9512 -3.82822 -3.19764 0
M  V30 48 H 2.1052 -2.8655 -5.34765 0
M  V30 49 H 0.8442 -1.95702 -4.46712 0
M  V30 50 H -0.1508 -4.11201 -3.64957 0
M  V30 51 H 1.0742 -5.02917 -4.56346 0
M  V30 52 H -0.9798 -3.13299 -5.76351 0
M  V30 53 H -1.0628 -4.86397 -5.78752 0
M  V30 54 H 0.2052 -4.05379 -6.65799 0
M  V30 55 N 4.4343 0.785586 -1.36625 0
M  V30 56 C 5.6823 1.54057 -1.30808 0
M  V30 57 C 6.0033 1.94683 0.111157 0
M  V30 58 O 5.2733 1.65241 1.05224 0
M  V30 59 H 3.8533 0.571354 -0.481211 0
M  V30 60 H 6.5153 0.935821 -1.70963 0
M  V30 61 H 5.6113 2.44637 -1.93801 0
M  V30 62 N 5.9124 1.20967 1.01018 0
M  V30 63 C 7.1404 1.04956 1.78303 0
M  V30 64 C 7.5554 -0.400915 1.84494 0
M  V30 65 O 6.9124 -1.27826 1.30257 0
M  V30 66 C 6.9634 1.63403 3.22462 0
M  V30 67 O 6.6844 3.02775 3.16637 0
M  V30 68 C 8.1854 1.52432 4.16268 0
M  V30 69 H 5.4054 0.368858 0.560522 0
M  V30 70 H 7.9494 1.60193 1.27116 0
M  V30 71 H 6.1044 1.1227 3.70775 0
M  V30 72 H 6.5184 3.30626 4.07169 0
M  V30 73 H 7.9924 1.98078 5.15237 0
M  V30 74 H 8.4694 0.477875 4.36592 0
M  V30 75 H 9.0754 2.02787 3.73841 0
M  V30 76 N 7.3905 -1.2043 1.01659 0
M  V30 77 C 8.6155 -1.94318 0.724942 0
M  V30 78 C 9.0405 -1.74266 -0.708034 0
M  V30 79 O 8.3985 -1.03694 -1.48719 0
M  V30 80 C 8.4465 -3.44486 1.06591 0
M  V30 81 O 7.5505 -4.12017 0.177599 0
M  V30 82 H 6.8915 -0.60708 0.26898 0
M  V30 83 H 9.4215 -1.52861 1.35995 0
M  V30 84 H 9.4315 -3.95106 1.01762 0
M  V30 85 H 8.1065 -3.58404 2.10997 0
M  V30 86 H 6.6835 -3.71821 0.283421 0
M  V30 87 N 8.8686 -0.792821 -1.36206 0
M  V30 88 C 10.0936 -0.377701 -2.03932 0
M  V30 89 C 10.5186 0.998947 -1.59382 0
M  V30 90 O 9.8766 1.64421 -0.763903 0
M  V30 91 C 9.9246 -0.453635 -3.57735 0
M  V30 92 O 9.0286 0.538151 -4.08874 0
M  V30 93 H 8.3696 -0.159855 -0.644471 0
M  V30 94 H 10.8996 -1.07488 -1.7409 0
M  V30 95 H 10.9096 -0.318464 -4.06755 0
M  V30 96 H 9.5846 -1.45784 -3.89512 0
M  V30 97 H 8.1616 0.364359 -3.71116 0
M  V30 98 N 10.3467 1.47872 -0.545128 0
M  V30 99 C 11.5937 2.02493 -0.0165858 0
M  V30 100 C 11.9217 1.42073 1.32836 0
M  V30 101 O 11.1767 0.561459 1.87473 0
M  V30 102 C 11.4757 3.57131 0.13867 0
M  V30 103 C 11.1417 4.36411 -1.13384 0
M  V30 104 C 9.8037 4.57792 -1.48256 0
M  V30 105 C 12.1557 4.82223 -1.97764 0
M  V30 106 C 9.4837 5.22233 -2.67376 0
M  V30 107 C 11.8357 5.47977 -3.16076 0
M  V30 108 C 10.4997 5.67593 -3.51275 0
M  V30 109 H 9.7697 0.740975 -0.00606918 0
M  V30 110 H 12.4167 1.77683 -0.714207 0
M  V30 111 H 10.7217 3.80865 0.919172 0
M  V30 112 H 12.4187 3.97031 0.562782 0
M  V30 113 H 9.0087 4.2004 -0.852297 0
M  V30 114 H 13.1927 4.65493 -1.72132 0
M  V30 115 H 8.4487 5.35616 -2.94831 0
M  V30 116 H 12.6227 5.8244 -3.81755 0
M  V30 117 H 10.2497 6.17298 -4.43675 0
M  V30 118 N 11.8248 0.280983 1.55075 0
M  V30 119 C 13.0728 -0.333455 1.9933 0
M  V30 120 C 13.3938 -1.55937 1.17085 0
M  V30 121 O 12.6638 -1.94143 0.261805 0
M  V30 122 H 11.2438 -0.126197 0.736263 0
M  V30 123 H 13.9058 0.387678 1.91005 0
M  V30 124 H 13.0018 -0.619292 3.05894 0
M  V30 125 N 13.3029 -1.57598 0.00835791 0
M  V30 126 C 14.2499 -2.08945 -0.980346 0
M  V30 127 C 15.2199 -0.986738 -1.33614 0
M  V30 128 O 16.4049 -1.25968 -1.43306 0
M  V30 129 C 13.5449 -2.60425 -2.26435 0
M  V30 130 C 12.6579 -3.84628 -1.96685 0
M  V30 131 C 11.7929 -4.24579 -3.19228 0
M  V30 132 C 10.8319 -5.41596 -2.85202 0
M  V30 133 N 9.9689 -5.768 -4.00307 0
M  V30 134 H 14.8089 -2.93148 -0.535551 0
M  V30 135 H 12.3459 -1.44912 -0.252776 0
M  V30 136 H 14.3039 -2.88354 -3.01509 0
M  V30 137 H 12.9339 -1.79083 -2.68568 0
M  V30 138 H 11.9859 -3.63556 -1.11942 0
M  V30 139 H 13.2979 -4.69796 -1.67611 0
M  V30 140 H 12.4519 -4.53834 -4.02641 0
M  V30 141 H 11.1909 -3.38137 -3.51447 0
M  V30 142 H 10.1959 -5.12056 -2.00198 0
M  V30 143 H 11.4209 -6.29721 -2.54222 0
M  V30 144 H 9.3669 -4.93316 -4.32407 0
M  V30 145 H 9.2839 -6.5656 -3.74786 0
M  V30 146 H 10.5519 -6.10652 -4.84484 0
M  V30 147 N 14.781 0.264519 -1.55364 0
M  V30 148 C 16.197 0.61215 -1.47394 0
M  V30 149 C 16.397 1.89134 -0.695018 0
M  V30 150 O 15.453 2.51563 -0.217275 0
M  V30 151 C 16.766 0.731235 -2.91674 0
M  V30 152 C 18.314 0.82473 -3.01939 0
M  V30 153 C 18.789 0.975522 -4.4749 0
M  V30 154 N 20.28 1.04083 -4.51354 0
M  V30 155 C 21.015 1.17646 -5.61201 0
M  V30 156 N 20.511 1.27874 -6.80896 0
M  V30 157 N 22.304 1.20823 -5.48961 0
M  V30 158 H 14.455 -0.575456 -2.04456 0
M  V30 159 H 16.718 -0.196099 -0.927496 0
M  V30 160 H 16.424 -0.138392 -3.51428 0
M  V30 161 H 16.298 1.60883 -3.41169 0
M  V30 162 H 18.685 1.68482 -2.42276 0
M  V30 163 H 18.766 -0.0776479 -2.55682 0
M  V30 164 H 18.41 0.120058 -5.07758 0
M  V30 165 H 18.34 1.89268 -4.91412 0
M  V30 166 H 20.831 0.973846 -3.65136 0
M  V30 167 H 21.144 1.38081 -7.60364 0
M  V30 168 H 19.489 1.24863 -6.83692 0
M  V30 169 H 22.68 1.12469 -4.54388 0
M  V30 170 H 22.853 1.31049 -6.3461 0
M  V30 171 N 16.2591 1.48442 0.529413 0
M  V30 172 C 17.6751 1.34575 0.858004 0
M  V30 173 C 17.8751 0.3572 1.98309 0
M  V30 174 O 16.9311 -0.221379 2.51528 0
M  V30 175 C 18.2441 2.74617 1.22499 0
M  V30 176 C 19.7921 2.83109 1.33484 0
M  V30 177 C 20.2671 4.23854 1.73526 0
M  V30 178 N 21.7581 4.2653 1.80628 0
M  V30 179 C 22.4931 5.32372 2.12997 0
M  V30 180 N 21.9891 6.48491 2.43786 0
M  V30 181 N 23.7821 5.19766 2.14008 0
M  V30 182 H 15.9331 2.1133 -0.212925 0
M  V30 183 H 18.1961 0.947439 -0.0326199 0
M  V30 184 H 17.9021 3.4852 0.471905 0
M  V30 185 H 17.7761 3.08177 2.17501 0
M  V30 186 H 20.1631 2.09462 2.0787 0
M  V30 187 H 20.2441 2.53168 0.366027 0
M  V30 188 H 19.8881 4.98018 0.997013 0
M  V30 189 H 19.8181 4.5124 2.71459 0
M  V30 190 H 22.3091 3.42772 1.59108 0
M  V30 191 H 22.6221 7.24993 2.67592 0
M  V30 192 H 20.9671 6.51765 2.41304 0
M  V30 193 H 24.1581 4.28066 1.89412 0
M  V30 194 H 24.3311 6.02354 2.38902 0
M  V30 195 N 17.7372 -0.778329 1.37039 0
M  V30 196 C 18.6852 -1.91278 1.32345 0
M  V30 197 C 19.6792 -1.68051 0.213331 0
M  V30 198 O 20.8852 -1.75922 0.38098 0
M  V30 199 H 17.2602 -0.628909 0.412283 0
M  V30 200 H 19.2312 -1.92355 2.28127 0
M  V30 201 C 17.9802 -3.28455 1.14073 0
M  V30 202 H 17.3032 -3.46901 1.98746 0
M  V30 203 H 18.7432 -4.08152 1.14837 0
M  V30 204 C 17.2022 -3.36548 -0.154015 0
M  V30 205 O 17.7322 -3.85186 -1.13993 0
M  V30 206 N 15.9382 -2.89894 -0.202475 0
M  V30 207 H 15.4852 -2.50504 0.600476 0
M  V30 208 H 15.4432 -2.9569 -1.06841 0
M  V30 209 N 19.2153 -1.21501 -1.00376 0
M  V30 210 C 20.1623 -0.975387 -2.09177 0
M  V30 211 C 21.1323 0.0990615 -1.65804 0
M  V30 212 O 22.3173 -0.0483147 -1.90739 0
M  V30 213 C 19.4573 -0.547507 -3.40729 0
M  V30 214 C 18.5703 -1.69153 -3.97506 0
M  V30 215 C 17.7053 -1.2127 -5.17172 0
M  V30 216 C 16.7443 -2.32897 -5.66061 0
M  V30 217 N 15.8813 -1.86138 -6.76976 0
M  V30 218 H 20.7213 -1.9068 -2.29009 0
M  V30 219 H 18.2583 -0.950257 -1.12288 0
M  V30 220 H 20.2163 -0.280667 -4.16255 0
M  V30 221 H 18.8463 0.346904 -3.20931 0
M  V30 222 H 17.8983 -2.07298 -3.18954 0
M  V30 223 H 19.2103 -2.5316 -4.29781 0
M  V30 224 H 18.3643 -0.902591 -5.99948 0
M  V30 225 H 17.1033 -0.342692 -4.86495 0
M  V30 226 H 16.1083 -2.64709 -4.81881 0
M  V30 227 H 17.3333 -3.20396 -5.98768 0
M  V30 228 H 15.2793 -1.01484 -6.48103 0
M  V30 229 H 15.1963 -2.63717 -7.08512 0
M  V30 230 H 16.4643 -1.58165 -7.63285 0
M  V30 231 N 20.6934 1.19889 -1.02296 0
M  V30 232 C 21.9214 1.9339 -0.735399 0
M  V30 233 C 22.3364 1.75148 0.704887 0
M  V30 234 O 21.6934 1.06954 1.47875 0
M  V30 235 C 21.7444 3.45313 -1.06962 0
M  V30 236 O 21.4654 3.62964 -2.45334 0
M  V30 237 C 22.9664 4.35948 -0.804021 0
M  V30 238 H 20.1864 0.61448 -0.269546 0
M  V30 239 H 22.7304 1.522 -1.36585 0
M  V30 240 H 20.8854 3.84359 -0.484455 0
M  V30 241 H 21.2994 4.56886 -2.57595 0
M  V30 242 H 22.7734 5.41174 -1.0879 0
M  V30 243 H 23.2504 4.3842 0.261691 0
M  V30 244 H 23.8564 4.02574 -1.37164 0
M  V30 245 N 22.1715 0.800033 1.35784 0
M  V30 246 C 23.1215 0.178654 2.27299 0
M  V30 247 C 24.1055 -0.643667 1.47464 0
M  V30 248 O 25.2975 -0.502 1.69732 0
M  V30 249 C 22.4265 -0.677194 3.36555 0
M  V30 250 C 21.5125 0.154497 4.23818 0
M  V30 251 N 21.9035 1.21427 4.91008 0
M  V30 252 C 20.2015 -0.0649462 4.45953 0
M  V30 253 C 20.9025 1.72147 5.55644 0
M  V30 254 N 19.8785 1.02897 5.33773 0
M  V30 255 H 23.6805 0.989637 2.76737 0
M  V30 256 H 21.1945 0.64054 1.49234 0
M  V30 257 H 23.1915 -1.13835 4.01058 0
M  V30 258 H 21.8515 -1.4866 2.8867 0
M  V30 259 H 22.8625 1.59684 4.92668 0
M  V30 260 H 19.5395 -0.844016 4.0888 0
M  V30 261 H 20.9295 2.60683 6.19269 0
M  V30 262 N 23.6496 -1.47581 0.552962 0
M  V30 263 C 24.8776 -2.06875 0.0320556 0
M  V30 264 C 25.2926 -1.40625 -1.25976 0
M  V30 265 O 24.6496 -0.501349 -1.75479 0
M  V30 266 C 24.7006 -3.61092 -0.17167 0
M  V30 267 O 24.4216 -4.24858 1.06899 0
M  V30 268 C 25.9226 -4.37242 -0.730344 0
M  V30 269 H 23.1426 -0.669561 0.043915 0
M  V30 270 H 25.6866 -1.89646 0.765163 0
M  V30 271 H 23.8416 -3.7785 -0.854894 0
M  V30 272 H 24.2556 -5.17334 0.864059 0
M  V30 273 H 25.7296 -5.45842 -0.822203 0
M  V30 274 H 26.2066 -4.03235 -1.74064 0
M  V30 275 H 26.8126 -4.25219 -0.0829543 0
M  V30 276 N 25.1277 -0.289203 -1.54924 0
M  V30 277 C 26.0577 0.58549 -2.2604 0
M  V30 278 C 27.0387 1.14753 -1.25562 0
M  V30 279 O 28.2237 1.17906 -1.54311 0
M  V30 280 C 25.3537 1.76305 -2.99222 0
M  V30 281 C 24.3077 1.33191 -4.06748 0
M  V30 282 C 23.6337 2.5937 -4.6758 0
M  V30 283 C 24.9337 0.471775 -5.20165 0
M  V30 284 H 26.6277 -0.00763532 -2.99399 0
M  V30 285 H 24.1737 -0.00511229 -1.43999 0
M  V30 286 H 26.1267 2.38097 -3.47689 0
M  V30 287 H 24.8507 2.38223 -2.23422 0
M  V30 288 H 23.5097 0.737121 -3.59113 0
M  V30 289 H 23.1577 3.19576 -3.88433 0
M  V30 290 H 22.8577 2.31228 -5.40192 0
M  V30 291 H 24.3817 3.21985 -5.18804 0
M  V30 292 H 25.7957 0.995056 -5.64599 0
M  V30 293 H 24.1927 0.284639 -5.99425 0
M  V30 294 H 25.2627 -0.506041 -4.82252 0
M  V30 295 N 26.6058 1.57591 -0.0167156 0
M  V30 296 C 27.8458 1.93145 0.668902 0
M  V30 297 C 28.2098 0.892406 1.7 0
M  V30 298 O 29.4108 1.13373 2.43721 0
M  V30 299 C 27.6818 3.33678 1.28039 0
M  V30 300 S 29.2408 3.91142 1.9888 0
M  V30 301 H 26.0588 0.67593 0.220545 0
M  V30 302 H 28.6608 1.95347 -0.0774105 0
M  V30 303 H 27.3648 4.07126 0.517339 0
M  V30 304 H 26.8958 3.3489 2.06427 0
M  V30 305 H 28.9108 3.73571 3.26587 0
M  V30 306 N 28.0839 -0.256276 1.55502 0
M  V30 307 C 29.4999 -0.604325 1.47716 0
M  V30 308 C 29.6999 -1.88763 0.705039 0
M  V30 309 O 28.7559 -2.51445 0.230613 0
M  V30 310 C 30.0689 -0.715756 2.92057 0
M  V30 311 C 31.6169 -0.808706 3.02372 0
M  V30 312 C 32.0919 -0.951777 4.48001 0
M  V30 313 N 33.5829 -1.01688 4.519 0
M  V30 314 C 34.3179 -1.14668 5.61817 0
M  V30 315 N 33.8139 -1.24261 6.81565 0
M  V30 316 N 35.6069 -1.1791 5.49594 0
M  V30 317 H 27.7579 0.586291 2.04148 0
M  V30 318 H 30.0209 0.201015 0.926443 0
M  V30 319 H 29.7269 0.157027 3.51349 0
M  V30 320 H 29.6009 -1.59071 3.42018 0
M  V30 321 H 31.9879 -1.67195 2.43166 0
M  V30 322 H 32.0689 0.0912063 2.55637 0
M  V30 323 H 31.7129 -0.0931291 5.07815 0
M  V30 324 H 31.6429 -1.86659 4.92408 0
M  V30 325 H 34.1339 -0.954468 3.65648 0
M  V30 326 H 34.4469 -1.34046 7.61086 0
M  V30 327 H 32.7919 -1.21236 6.84344 0
M  V30 328 H 35.9829 -1.10057 4.54978 0
M  V30 329 H 36.1559 -1.27681 6.35296 0
M  V30 330 N 29.562 -1.4872 -0.521534 0
M  V30 331 C 30.978 -1.35028 -0.850855 0
M  V30 332 C 31.178 -0.367712 -1.98116 0
M  V30 333 O 30.234 0.208037 -2.51642 0
M  V30 334 C 31.547 -2.75263 -1.21041 0
M  V30 335 C 33.095 -2.83813 -1.31981 0
M  V30 336 C 33.57 -4.24769 -1.71276 0
M  V30 337 N 35.061 -4.27482 -1.78363 0
M  V30 338 C 35.796 -5.33494 -2.1017 0
M  V30 339 N 35.292 -6.49775 -2.40343 0
M  V30 340 N 37.085 -5.20894 -2.11248 0
M  V30 341 H 29.236 -2.11214 0.22413 0
M  V30 342 H 31.499 -0.947252 0.0376439 0
M  V30 343 H 31.205 -3.48765 -0.453415 0
M  V30 344 H 31.079 -3.09327 -2.15863 0
M  V30 345 H 33.466 -2.10561 -2.06756 0
M  V30 346 H 33.547 -2.53358 -0.352596 0
M  V30 347 H 33.191 -4.9854 -0.970588 0
M  V30 348 H 33.121 -4.52673 -2.69062 0
M  V30 349 H 35.612 -3.43611 -1.57288 0
M  V30 350 H 35.925 -7.26402 -2.63743 0
M  V30 351 H 34.27 -6.53035 -2.37844 0
M  V30 352 H 37.461 -4.29065 -1.87139 0
M  V30 353 H 37.634 -6.03612 -2.35704 0
M  V30 354 N 31.0401 0.771051 -1.3745 0
M  V30 355 C 32.2801 1.54264 -1.34096 0
M  V30 356 C 32.6441 1.91858 0.0737639 0
M  V30 357 O 33.8451 2.67797 0.23203 0
M  V30 358 C 32.1161 2.77326 -2.25445 0
M  V30 359 S 33.6751 3.67383 -2.39948 0
M  V30 360 H 30.4931 0.528122 -0.476034 0
M  V30 361 H 33.0951 0.906633 -1.73206 0
M  V30 362 H 31.7991 2.47788 -3.27153 0
M  V30 363 H 31.3301 3.45886 -1.87421 0
M  V30 364 H 33.3451 4.69334 -1.61059 0
M  V30 365 N 32.5182 1.22032 0.997298 0
M  V30 366 C 33.7662 1.04016 1.73278 0
M  V30 367 C 34.0872 -0.426255 1.90284 0
M  V30 368 O 33.3572 -1.30694 1.45931 0
M  V30 369 H 31.9372 0.381897 0.642 0
M  V30 370 H 34.5992 1.5347 1.20137 0
M  V30 371 H 33.6952 1.51441 2.72896 0
M  V30 372 N 33.9963 -1.19345 1.0293 0
M  V30 373 C 35.2213 -1.93538 0.745511 0
M  V30 374 C 35.6463 -1.75007 -0.689511 0
M  V30 375 O 35.0043 -1.05265 -1.47611 0
M  V30 376 C 35.0523 -3.43336 1.10239 0
M  V30 377 O 34.1563 -4.11806 0.221289 0
M  V30 378 H 33.4973 -0.604193 0.275404 0
M  V30 379 H 36.0273 -1.5141 1.37609 0
M  V30 380 H 36.0373 -3.94004 1.05947 0
M  V30 381 H 34.7123 -3.56146 2.14786 0
M  V30 382 H 33.2893 -3.715 0.322842 0
M  V30 383 N 35.4744 -0.807222 -1.35358 0
M  V30 384 C 36.4214 -0.216037 -2.29787 0
M  V30 385 C 37.3914 0.650278 -1.52842 0
M  V30 386 O 38.5764 0.595227 -1.81278 0
M  V30 387 C 35.7164 0.628893 -3.39321 0
M  V30 388 C 34.8294 -0.257927 -4.31229 0
M  V30 389 C 33.9644 0.595069 -5.27856 0
M  V30 390 C 33.0034 -0.292111 -6.11403 0
M  V30 391 N 32.1404 0.520895 -7.00165 0
M  V30 392 H 36.9804 -1.02671 -2.79755 0
M  V30 393 H 34.5174 -0.517839 -1.37684 0
M  V30 394 H 36.4754 1.13393 -4.01494 0
M  V30 395 H 35.1054 1.40482 -2.90628 0
M  V30 396 H 34.1574 -0.881076 -3.70056 0
M  V30 397 H 35.4694 -0.940759 -4.89848 0
M  V30 398 H 34.6234 1.16522 -5.95405 0
M  V30 399 H 33.3624 1.31146 -4.69736 0
M  V30 400 H 32.3674 -0.874525 -5.428 0
M  V30 401 H 33.5924 -1.00638 -6.71602 0
M  V30 402 H 31.5384 1.22125 -6.44532 0
M  V30 403 H 31.4554 -0.103877 -7.55929 0
M  V30 404 H 32.7234 1.0743 -7.72062 0
M  V30 405 N 36.9525 1.47285 -0.560781 0
M  V30 406 C 37.9155 2.28535 0.174488 0
M  V30 407 C 38.9155 1.37153 0.839388 0
M  V30 408 O 40.1055 1.59748 0.694702 0
M  V30 409 C 37.2375 3.16934 1.25561 0
M  V30 410 H 38.4305 2.95012 -0.539262 0
M  V30 411 H 35.9835 1.53034 -0.317865 0
M  V30 412 H 36.7185 2.55157 2.00164 0
M  V30 413 H 36.5035 3.8419 0.783604 0
M  V30 414 H 37.9935 3.78143 1.77193 0
M  V30 415 N 38.4306 0.297415 1.54768 0
M  V30 416 C 39.6606 -0.315165 2.04182 0
M  V30 417 C 40.0686 -1.4834 1.17439 0
M  V30 418 O 39.4116 -1.82695 0.191891 0
M  V30 419 C 39.4736 -0.837583 3.49607 0
M  V30 420 C 39.1376 0.204912 4.5654 0
M  V30 421 C 40.1346 1.03214 5.09552 0
M  V30 422 C 37.8196 0.345578 5.0111 0
M  V30 423 C 39.8136 1.986 6.05671 0
M  V30 424 C 37.5006 1.30289 5.97049 0
M  V30 425 C 38.4986 2.12159 6.49213 0
M  V30 426 O 38.1866 3.06268 7.43273 0
M  V30 427 H 37.9186 -0.0729646 0.672051 0
M  V30 428 H 40.4726 0.433907 2.00765 0
M  V30 429 H 38.7026 -1.63712 3.50336 0
M  V30 430 H 40.3916 -1.36566 3.82236 0
M  V30 431 H 41.1576 0.934312 4.75916 0
M  V30 432 H 37.0366 -0.28171 4.60138 0
M  V30 433 H 40.5806 2.62542 6.46311 0
M  V30 434 H 36.4776 1.40145 6.30103 0
M  V30 435 H 37.2456 3.01205 7.61064 0
M  V30 436 N 39.9087 -1.5758 0.0250728 0
M  V30 437 C 40.8587 -2.06468 -0.967201 0
M  V30 438 C 41.8427 -0.964376 -1.28797 0
M  V30 439 O 43.0347 -1.22797 -1.27475 0
M  V30 440 C 40.1637 -2.59203 -2.25097 0
M  V30 441 C 39.2497 -3.76157 -1.95874 0
M  V30 442 N 39.6407 -4.86919 -1.36905 0
M  V30 443 C 37.9387 -3.84566 -2.25887 0
M  V30 444 C 38.6397 -5.68172 -1.24724 0
M  V30 445 N 37.6157 -5.14953 -1.74138 0
M  V30 446 H 41.4177 -2.89508 -0.506176 0
M  V30 447 H 38.9317 -1.61399 -0.18004 0
M  V30 448 H 40.9287 -2.92517 -2.97052 0
M  V30 449 H 39.5887 -1.77592 -2.71829 0
M  V30 450 H 40.5997 -5.07256 -1.04459 0
M  V30 451 H 37.2767 -3.13854 -2.75321 0
M  V30 452 H 38.6667 -6.67221 -0.791605 0
M  V30 453 N 41.3868 0.248026 -1.55636 0
M  V30 454 C 42.3168 1.31079 -1.93237 0
M  V30 455 C 43.2978 1.50264 -0.797174 0
M  V30 456 O 44.4828 1.62891 -1.05737 0
M  V30 457 C 41.6128 2.66575 -2.22609 0
M  V30 458 C 40.5668 2.62087 -3.3837 0
M  V30 459 C 39.8928 4.01369 -3.53281 0
M  V30 460 C 41.1928 2.19171 -4.7409 0
M  V30 461 H 42.8868 0.998556 -2.82257 0
M  V30 462 H 40.4328 0.47891 -1.35803 0
M  V30 463 H 42.3858 3.41057 -2.47503 0
M  V30 464 H 41.1098 2.99432 -1.30414 0
M  V30 465 H 39.7688 1.90063 -3.13483 0
M  V30 466 H 39.4168 4.31489 -2.58508 0
M  V30 467 H 39.1168 3.99254 -4.31127 0
M  V30 468 H 40.6408 4.77552 -3.80495 0
M  V30 469 H 42.0548 2.83384 -4.98363 0
M  V30 470 H 40.4518 2.2817 -5.5503 0
M  V30 471 H 41.5218 1.14336 -4.71227 0
M  V30 472 N 42.8649 1.48995 0.513639 0
M  V30 473 C 43.7969 1.60836 1.63293 0
M  V30 474 C 44.8099 0.491701 1.55197 0
M  V30 475 O 45.9989 0.763238 1.6136 0
M  V30 476 C 43.0989 1.53731 3.02027 0
M  V30 477 C 42.2719 2.80715 3.35437 0
M  V30 478 C 41.3309 2.66837 4.53525 0
M  V30 479 O 40.3569 3.40753 4.55934 0
M  V30 480 N 41.5589 1.77539 5.52684 0
M  V30 481 H 44.3239 2.57366 1.53566 0
M  V30 482 H 41.8849 1.45925 0.701259 0
M  V30 483 H 43.8769 1.42118 3.78926 0
M  V30 484 H 42.4469 0.651092 3.05744 0
M  V30 485 H 41.6669 3.06772 2.47557 0
M  V30 486 H 42.9549 3.64927 3.54551 0
M  V30 487 H 42.3529 1.16719 5.53528 0
M  V30 488 H 40.9099 1.71856 6.28736 0
M  V30 489 N 44.343 -0.763751 1.37857 0
M  V30 490 C 45.29 -1.87726 1.34267 0
M  V30 491 C 46.26 -1.64807 0.206879 0
M  V30 492 O 47.445 -1.86613 0.397508 0
M  V30 493 C 44.585 -3.24896 1.16346 0
M  V30 494 C 43.698 -3.59716 2.39225 0
M  V30 495 C 42.833 -4.86137 2.14114 0
M  V30 496 C 41.872 -5.13711 3.32817 0
M  V30 497 N 41.009 -6.31323 3.07206 0
M  V30 498 H 45.849 -1.90129 2.29466 0
M  V30 499 H 43.386 -0.929433 1.14017 0
M  V30 500 H 45.344 -4.04036 1.03975 0
M  V30 501 H 43.974 -3.21847 0.247909 0
M  V30 502 H 43.026 -2.75498 2.62307 0
M  V30 503 H 44.338 -3.76027 3.27728 0
M  V30 504 H 43.492 -5.73198 1.9882 0
M  V30 505 H 42.231 -4.71945 1.22961 0
M  V30 506 H 41.236 -4.25123 3.48641 0
M  V30 507 H 42.461 -5.29807 4.24832 0
M  V30 508 H 40.407 -6.18474 2.1869 0
M  V30 509 H 40.324 -6.48087 3.89254 0
M  V30 510 H 41.592 -7.213 2.95546 0
M  V30 511 N 45.8211 -1.22559 -0.990812 0
M  V30 512 C 47.0461 -1.07862 -1.77145 0
M  V30 513 C 47.4711 0.366447 -1.84496 0
M  V30 514 O 46.8291 1.26478 -1.29896 0
M  V30 515 C 46.8771 -1.69686 -3.18181 0
M  V30 516 O 45.9811 -0.951946 -4.01263 0
M  V30 517 H 45.3221 -0.378712 -0.545411 0
M  V30 518 H 47.8521 -1.62399 -1.2445 0
M  V30 519 H 47.8621 -1.74496 -3.68802 0
M  V30 520 H 46.5371 -2.74841 -3.12146 0
M  V30 521 H 45.1141 -0.980011 -3.59792 0
M  V30 522 N 47.2992 1.18797 -1.03562 0
M  V30 523 C 48.5272 1.92599 -0.755869 0
M  V30 524 C 48.9422 1.75886 0.686271 0
M  V30 525 O 48.2992 1.08517 1.46732 0
M  V30 526 C 48.3502 3.44159 -1.10619 0
M  V30 527 O 48.0712 3.60341 -2.4917 0
M  V30 528 C 49.5722 4.3507 -0.850214 0
M  V30 529 H 46.7922 0.611587 -0.276048 0
M  V30 530 H 49.3362 1.50742 -1.38192 0
M  V30 531 H 47.4912 3.83823 -0.525194 0
M  V30 532 H 47.9052 4.54128 -2.62427 0
M  V30 533 H 49.3792 5.39989 -1.14523 0
M  V30 534 H 49.8562 4.38673 0.215176 0
M  V30 535 H 50.4622 4.01097 -1.41426 0
M  V30 536 N 48.7773 0.814389 1.34928 0
M  V30 537 C 50.0173 0.404165 2.00364 0
M  V30 538 C 50.3813 -1.01166 1.63185 0
M  V30 539 O 51.5823 -1.52431 2.21401 0
M  V30 540 C 49.8533 0.590718 3.52484 0
M  V30 541 S 51.4123 0.272075 4.37956 0
M  V30 542 H 48.2303 0.15311 0.694319 0
M  V30 543 H 50.8323 1.05834 1.64376 0
M  V30 544 H 49.5363 1.62099 3.77031 0
M  V30 545 H 49.0673 -0.0785013 3.93322 0
M  V30 546 H 51.0823 -0.917405 4.87645 0
M  V30 547 N 50.2554 -1.46986 0.568584 0
M  V30 548 C 51.5034 -2.02041 0.0487022 0
M  V30 549 C 51.8244 -1.44408 -1.31039 0
M  V30 550 O 51.0944 -0.623477 -1.85714 0
M  V30 551 H 49.6744 -0.746849 0.015014 0
M  V30 552 H 52.3364 -1.80257 0.741168 0
M  V30 553 H 51.4324 -3.12085 -0.0308961 0
M  V30 554 N 51.7335 -0.305618 -1.54608 0
M  V30 555 C 52.6805 0.568421 -2.23691 0
M  V30 556 C 53.6505 1.12592 -1.22116 0
M  V30 557 O 54.8355 1.16959 -1.50749 0
M  V30 558 C 51.9755 1.7322 -2.98477 0
M  V30 559 C 51.0885 1.20566 -4.14835 0
M  V30 560 C 50.2235 2.33368 -4.77193 0
M  V30 561 C 49.2625 1.7787 -5.85686 0
M  V30 562 N 48.3995 2.84263 -6.4198 0
M  V30 563 H 53.2395 -0.0272867 -2.97988 0
M  V30 564 H 50.7765 -0.0252363 -1.47078 0
M  V30 565 H 52.7345 2.41675 -3.40072 0
M  V30 566 H 51.3645 2.29947 -2.26548 0
M  V30 567 H 50.4165 0.413223 -3.78149 0
M  V30 568 H 51.7285 0.759417 -4.92985 0
M  V30 569 H 50.8825 3.09761 -5.21664 0
M  V30 570 H 49.6215 2.8132 -3.98385 0
M  V30 571 H 48.6265 0.99968 -5.40635 0
M  V30 572 H 49.8515 1.30816 -6.66381 0
M  V30 573 H 47.7975 3.31541 -5.66053 0
M  V30 574 H 47.7145 2.44149 -7.15491 0
M  V30 575 H 48.9825 3.6054 -6.91109 0
M  V30 576 N 53.2116 1.57565 -0.0334293 0
M  V30 577 C 54.4516 1.93844 0.648379 0
M  V30 578 C 54.8156 0.910387 1.69044 0
M  V30 579 O 56.0166 1.15952 2.42505 0
M  V30 580 C 54.2876 3.35017 1.24492 0
M  V30 581 S 55.8466 3.93229 1.94721 0
M  V30 582 H 52.6646 0.678231 0.213364 0
M  V30 583 H 55.2666 1.95254 -0.0981253 0
M  V30 584 H 53.9706 4.07652 0.474128 0
M  V30 585 H 53.5016 3.37061 2.02864 0
M  V30 586 H 55.5166 3.77014 3.22606 0
M  V30 587 N 54.6897 -0.239769 1.55765 0
M  V30 588 C 55.9377 -0.964892 1.77579 0
M  V30 589 C 56.2587 -1.85582 0.598699 0
M  V30 590 O 55.5287 -1.92075 -0.385226 0
M  V30 591 H 54.1087 -0.359265 0.654933 0
M  V30 592 H 56.7707 -0.256001 1.93211 0
M  V30 593 H 55.8667 -1.58243 2.69009 0
M  V30 594 N 56.1678 -1.49265 -0.50573 0
M  V30 595 C 57.3978 -1.61979 -1.28243 0
M  V30 596 C 57.8058 -0.288576 -1.86986 0
M  V30 597 O 57.1488 0.735408 -1.68337 0
M  V30 598 C 57.2108 -2.62632 -2.45489 0
M  V30 599 C 56.8748 -4.071 -2.07651 0
M  V30 600 C 57.8718 -4.94049 -1.61901 0
M  V30 601 C 55.5568 -4.52801 -2.17431 0
M  V30 602 C 57.5508 -6.24736 -1.26428 0
M  V30 603 C 55.2378 -5.83503 -1.8157 0
M  V30 604 C 56.2358 -6.69294 -1.36142 0
M  V30 605 O 55.9238 -7.9756 -1.00764 0
M  V30 606 H 55.6558 -0.54834 -0.395347 0
M  V30 607 H 58.2098 -1.96002 -0.614204 0
M  V30 608 H 56.4398 -2.2378 -3.15372 0
M  V30 609 H 58.1288 -2.64925 -3.07522 0
M  V30 610 H 58.8948 -4.5997 -1.53795 0
M  V30 611 H 54.7738 -3.86196 -2.51742 0
M  V30 612 H 58.3178 -6.91652 -0.908992 0
M  V30 613 H 54.2148 -6.17112 -1.89324 0
M  V30 614 H 54.9828 -8.10529 -1.13952 0
M  V30 615 N 57.6459 0.756429 -1.3826 0
M  V30 616 C 59.0569 1.33359 -1.30661 0
M  V30 617 C 59.4079 1.96161 0.0388875 0
M  V30 618 O 58.5329 1.94874 0.940918 0
M  V30 619 C 59.1279 2.42477 -2.36622 0
M  V30 620 C 57.6869 2.95922 -2.3261 0
M  V30 621 C 56.8339 1.69275 -2.19639 0
M  V30 622 H 59.7849 0.55552 -1.4866 0
M  V30 623 H 59.8059 3.22345 -2.02174 0
M  V30 624 H 59.3179 1.96739 -3.34538 0
M  V30 625 H 57.4189 3.45996 -1.38267 0
M  V30 626 H 57.5319 3.50494 -3.26636 0
M  V30 627 H 55.8959 1.92793 -1.66442 0
M  V30 628 H 56.6789 1.25619 -3.19491 0
M  V30 629 N 59.124 1.23083 0.984299 0
M  V30 630 C 60.087 1.00979 2.05757 0
M  V30 631 C 61.087 -0.0269573 1.60777 0
M  V30 632 O 62.277 0.212403 1.729 0
M  V30 633 C 59.409 0.527072 3.36801 0
M  V30 634 H 60.602 1.9622 2.26799 0
M  V30 635 H 58.155 1.05072 1.15714 0
M  V30 636 H 58.89 -0.429294 3.21446 0
M  V30 637 H 58.675 1.27515 3.70786 0
M  V30 638 H 60.165 0.392942 4.15747 0
M  V30 639 N 60.6021 -1.18246 1.0419 0
M  V30 640 C 61.5491 -2.2192 0.634037 0
M  V30 641 C 62.5191 -1.62179 -0.358765 0
M  V30 642 O 63.7041 -1.89122 -0.252466 0
M  V30 643 C 60.8441 -3.451 0.00445535 0
M  V30 644 C 59.9571 -4.19174 1.04487 0
M  V30 645 C 59.0921 -5.29813 0.383676 0
M  V30 646 C 58.1311 -5.9566 1.4091 0
M  V30 647 N 57.2681 -6.97834 0.772784 0
M  V30 648 H 62.1081 -2.56164 1.52263 0
M  V30 649 H 59.6451 -1.25843 0.761701 0
M  V30 650 H 61.6031 -4.15485 -0.377919 0
M  V30 651 H 60.2331 -3.11472 -0.847652 0
M  V30 652 H 59.2851 -3.47604 1.54518 0
M  V30 653 H 60.5971 -4.64267 1.82368 0
M  V30 654 H 59.7511 -6.06677 -0.0528366 0
M  V30 655 H 58.4901 -4.85825 -0.427208 0
M  V30 656 H 57.4951 -5.17535 1.85574 0
M  V30 657 H 58.7201 -6.4173 2.22171 0
M  V30 658 H 56.6661 -6.55998 -0.0177708 0
M  V30 659 H 56.5831 -7.41186 1.48928 0
M  V30 660 H 57.8511 -7.78665 0.36071 0
M  V30 661 N 62.0802 -0.821533 -1.34494 0
M  V30 662 C 63.4962 -0.507117 -1.51329 0
M  V30 663 C 63.6962 0.968964 -1.76673 0
M  V30 664 O 62.7522 1.75348 -1.81685 0
M  V30 665 C 64.0652 -1.36544 -2.67911 0
M  V30 666 C 65.6132 -1.36242 -2.81793 0
M  V30 667 C 66.0882 -2.2052 -4.01416 0
M  V30 668 N 67.5792 -2.18136 -4.08621 0
M  V30 669 C 68.3142 -2.80095 -5.00334 0
M  V30 670 N 67.8102 -3.51039 -5.9728 0
M  V30 671 N 69.6032 -2.69656 -4.93196 0
M  V30 672 H 61.7542 -1.77729 -1.16302 0
M  V30 673 H 64.0172 -0.757291 -0.570276 0
M  V30 674 H 63.7232 -2.41361 -2.55808 0
M  V30 675 H 63.5972 -1.02917 -3.62888 0
M  V30 676 H 65.9842 -0.322041 -2.93338 0
M  V30 677 H 66.0652 -1.73866 -1.87628 0
M  V30 678 H 65.7092 -3.24607 -3.90631 0
M  V30 679 H 65.6392 -1.80247 -4.94791 0
M  V30 680 H 68.1302 -1.6653 -3.39229 0
M  V30 681 H 68.4432 -3.95565 -6.63889 0
M  V30 682 H 66.7882 -3.55145 -5.97409 0
M  V30 683 H 69.9792 -2.13808 -4.16418 0
M  V30 684 H 70.1522 -3.1823 -5.64476 0
M  V30 685 N 63.5583 1.46682 -0.576371 0
M  V30 686 C 64.5053 2.30241 0.160499 0
M  V30 687 C 65.4753 1.40233 0.890162 0
M  V30 688 O 66.6603 1.69186 0.882084 0
M  V30 689 C 63.8003 3.24578 1.1723 0
M  V30 690 C 62.9133 4.29684 0.446736 0
M  V30 691 C 62.0483 5.11154 1.44551 0
M  V30 692 C 61.0873 6.08015 0.70599 0
M  V30 693 N 60.2243 6.82376 1.65251 0
M  V30 694 H 65.0643 2.92727 -0.558127 0
M  V30 695 H 62.6013 1.44272 -0.287056 0
M  V30 696 H 64.5593 3.77711 1.77172 0
M  V30 697 H 63.1893 2.63916 1.85872 0
M  V30 698 H 62.2413 3.79458 -0.267594 0
M  V30 699 H 63.5533 4.98626 -0.131686 0
M  V30 700 H 62.7073 5.68533 2.11791 0
M  V30 701 H 61.4463 4.42158 2.05786 0
M  V30 702 H 60.4513 5.49796 0.0197725 0
M  V30 703 H 61.6763 6.79028 0.09912 0
M  V30 704 H 59.6223 6.16094 2.25308 0
M  V30 705 H 59.5393 7.47556 1.12673 0
M  V30 706 H 60.8073 7.44316 2.31546 0
M  V30 707 N 65.0364 0.313813 1.54444 0
M  V30 708 C 66.4524 -0.0391619 1.59552 0
M  V30 709 C 66.6524 -1.51322 1.33056 0
M  V30 710 O 65.7084 -2.26782 1.11022 0
M  V30 711 C 67.0214 0.370302 2.98411 0
M  V30 712 C 68.5694 0.320139 3.11358 0
M  V30 713 C 69.0444 0.704617 4.52547 0
M  V30 714 N 70.5354 0.657645 4.58508 0
M  V30 715 C 71.2704 0.927453 5.6585 0
M  V30 716 N 70.7664 1.26389 6.81174 0
M  V30 717 N 72.5594 0.853662 5.5558 0
M  V30 718 H 64.7104 1.27433 1.69925 0
M  V30 719 H 66.9734 0.517511 0.794284 0
M  V30 720 H 66.6794 1.39694 3.22767 0
M  V30 721 H 66.5534 -0.269619 3.76235 0
M  V30 722 H 68.9404 -0.697275 2.86744 0
M  V30 723 H 69.0214 0.99486 2.35661 0
M  V30 724 H 68.6654 1.7199 4.77893 0
M  V30 725 H 68.5954 0.00768843 5.26599 0
M  V30 726 H 71.0864 0.409067 3.75679 0
M  V30 727 H 71.3994 1.4554 7.58972 0
M  V30 728 H 69.7444 1.30206 6.82694 0
M  V30 729 H 72.9354 0.590383 4.64362 0
M  V30 730 H 73.1084 1.0673 6.3915 0
M  V30 731 N 66.5145 -1.57545 0.0417849 0
M  V30 732 C 67.4615 -2.10977 -0.935805 0
M  V30 733 C 68.4315 -1.01486 -1.31491 0
M  V30 734 O 69.6165 -1.2898 -1.40602 0
M  V30 735 C 66.7565 -2.65169 -2.2086 0
M  V30 736 C 65.8695 -3.88714 -1.88482 0
M  V30 737 C 65.0045 -4.31254 -3.1015 0
M  V30 738 C 64.0435 -5.47524 -2.7365 0
M  V30 739 N 63.1805 -5.85162 -3.87982 0
M  V30 740 H 68.0205 -2.94218 -0.473249 0
M  V30 741 H 65.5575 -1.45415 -0.221981 0
M  V30 742 H 67.5155 -2.94685 -2.95325 0
M  V30 743 H 66.1455 -1.8474 -2.64709 0
M  V30 744 H 65.1975 -3.65849 -1.04205 0
M  V30 745 H 66.5095 -4.73245 -1.57608 0
M  V30 746 H 65.6635 -4.62273 -3.92923 0
M  V30 747 H 64.4025 -3.45516 -3.44195 0
M  V30 748 H 63.4075 -5.16187 -1.89291 0
M  V30 749 H 64.6325 -6.34971 -2.40807 0
M  V30 750 H 62.5785 -5.02377 -4.21846 0
M  V30 751 H 62.4955 -6.64362 -3.60775 0
M  V30 752 H 63.7635 -6.20791 -4.71422 0
M  V30 753 N 67.9926 0.231505 -1.5589 0
M  V30 754 C 69.2226 0.973092 -1.82248 0
M  V30 755 C 69.6306 1.78845 -0.617328 0
M  V30 756 O 68.9736 1.78752 0.423499 0
M  V30 757 C 69.0356 1.94732 -3.02192 0
M  V30 758 C 68.6996 1.31743 -4.37599 0
M  V30 759 C 69.6966 0.712238 -5.14998 0
M  V30 760 C 67.3816 1.33218 -4.84312 0
M  V30 761 C 69.3756 0.130195 -6.37267 0
M  V30 762 C 67.0626 0.746286 -6.06526 0
M  V30 763 C 68.0606 0.146337 -6.82843 0
M  V30 764 O 67.7486 -0.430465 -8.02747 0
M  V30 765 H 67.4806 0.29125 -0.61004 0
M  V30 766 H 70.0346 0.254915 -2.03812 0
M  V30 767 H 68.2646 2.70422 -2.76422 0
M  V30 768 H 69.9536 2.55362 -3.15508 0
M  V30 769 H 70.7196 0.69324 -4.8002 0
M  V30 770 H 66.5986 1.78854 -4.24891 0
M  V30 771 H 70.1426 -0.33871 -6.96777 0
M  V30 772 H 66.0396 0.762663 -6.40979 0
M  V30 773 H 66.8076 -0.323818 -8.17859 0
M  V30 774 N 69.4707 1.49531 0.497807 0
M  V30 775 C 70.4187 1.66926 1.61983 0
M  V30 776 C 71.4127 0.535167 1.60724 0
M  V30 777 O 72.6187 0.714896 1.65195 0
M  V30 778 H 68.9937 0.526415 0.537021 0
M  V30 779 H 70.9647 2.61098 1.44465 0
M  V30 780 C 69.7137 1.75602 3.00099 0
M  V30 781 H 69.0367 2.62244 3.01775 0
M  V30 782 H 70.4767 1.91807 3.78135 0
M  V30 783 C 68.9357 0.501543 3.33146 0
M  V30 784 O 69.4657 -0.371342 3.9998 0
M  V30 785 N 67.6717 0.363531 2.88317 0
M  V30 786 H 67.2187 1.07485 2.34104 0
M  V30 787 H 67.1767 -0.474728 3.10795 0
M  V30 788 N 70.9488 -0.749086 1.3866 0
M  V30 789 C 72.1948 -1.50959 1.36319 0
M  V30 790 C 72.5498 -1.92347 -0.0452451 0
M  V30 791 O 71.8428 -1.6289 -1.00884 0
M  V30 792 C 72.0368 -2.7712 2.25697 0
M  V30 793 C 71.8658 -2.48067 3.7509 0
M  V30 794 C 70.6358 -2.41062 4.44091 0
M  V30 795 C 72.8338 -2.14544 4.67414 0
M  V30 796 N 70.8158 -2.04331 5.78897 0
M  V30 797 C 72.1868 -1.88141 5.90765 0
M  V30 798 C 74.2418 -2.00892 4.55573 0
M  V30 799 C 72.9448 -1.49463 7.036 0
M  V30 800 C 74.9708 -1.63616 5.68317 0
M  V30 801 C 74.3328 -1.38088 6.90732 0
M  V30 802 H 70.4318 -0.551804 0.554108 0
M  V30 803 H 73.0158 -0.871886 1.74087 0
M  V30 804 H 71.1868 -3.38693 1.9011 0
M  V30 805 H 72.9188 -3.4321 2.1445 0
M  V30 806 H 69.6738 -2.57685 3.9736 0
M  V30 807 H 70.0978 -1.88598 6.502 0
M  V30 808 H 74.7398 -2.19301 3.61479 0
M  V30 809 H 72.4578 -1.29794 7.97608 0
M  V30 810 H 76.0438 -1.53678 5.61137 0
M  V30 811 H 74.9238 -1.09674 7.76493 0
M  V30 812 N 72.4269 -1.23603 -0.977757 0
M  V30 813 C 73.6519 -1.09735 -1.75991 0
M  V30 814 C 74.0769 0.346858 -1.84874 0
M  V30 815 O 73.4349 1.25093 -1.3123 0
M  V30 816 C 73.4829 -1.73051 -3.16363 0
M  V30 817 O 72.5869 -0.994452 -4.0023 0
M  V30 818 H 71.9279 -0.384476 -0.541364 0
M  V30 819 H 74.4579 -1.6371 -1.2272 0
M  V30 820 H 74.4679 -1.78398 -3.66931 0
M  V30 821 H 73.1429 -2.78137 -3.09213 0
M  V30 822 H 71.7199 -1.01812 -3.58732 0
M  V30 823 N 73.905 1.17692 -1.04816 0
M  V30 824 C 74.868 2.19787 -0.650117 0
M  V30 825 C 75.868 1.58044 0.296427 0
M  V30 826 O 77.058 1.74012 0.0808097 0
M  V30 827 C 74.19 3.40869 0.0456987 0
M  V30 828 H 75.383 2.56516 -1.5537 0
M  V30 829 H 72.936 1.31708 -0.841594 0
M  V30 830 H 73.671 3.09681 0.962726 0
M  V30 831 H 73.456 3.86928 -0.634727 0
M  V30 832 H 74.946 4.16445 0.310432 0
M  V30 833 N 75.3831 0.828654 1.34056 0
M  V30 834 C 76.3301 0.252567 2.29414 0
M  V30 835 C 77.3001 -0.62588 1.53857 0
M  V30 836 O 78.4851 -0.566312 1.82202 0
M  V30 837 C 75.6251 -0.574831 3.40279 0
M  V30 838 C 74.7381 0.326499 4.30764 0
M  V30 839 C 73.8731 -0.511016 5.28736 0
M  V30 840 C 72.9121 0.389342 6.1086 0
M  V30 841 N 72.0491 -0.409439 7.00905 0
M  V30 842 H 76.8891 1.07108 2.78086 0
M  V30 843 H 74.4261 0.539677 1.36843 0
M  V30 844 H 76.3841 -1.06992 4.03248 0
M  V30 845 H 75.0141 -1.35841 2.92826 0
M  V30 846 H 74.0661 0.939837 3.68607 0
M  V30 847 H 75.3781 1.01857 4.88289 0
M  V30 848 H 74.5321 -1.07035 5.97184 0
M  V30 849 H 73.2711 -1.23657 4.71763 0
M  V30 850 H 72.2761 0.960769 5.4134 0
M  V30 851 H 73.5011 1.1131 6.69916 0
M  V30 852 H 71.4471 -1.11856 6.46393 0
M  V30 853 H 71.3641 0.224126 7.55668 0
M  V30 854 H 72.6321 -0.951336 7.73673 0
M  V30 855 N 76.8612 -1.46375 0.584142 0
M  V30 856 C 77.8242 -2.28784 -0.138108 0
M  V30 857 C 78.8242 -1.38471 -0.817462 0
M  V30 858 O 80.0142 -1.60833 -0.669199 0
M  V30 859 C 77.1462 -3.18892 -1.20503 0
M  V30 860 H 78.3392 -2.94117 0.586127 0
M  V30 861 H 75.8922 -1.52509 0.342171 0
M  V30 862 H 76.6272 -2.58309 -1.96079 0
M  V30 863 H 76.4122 -3.85388 -0.722384 0
M  V30 864 H 77.9022 -3.80914 -1.71155 0
M  V30 865 N 78.3393 -0.321999 -1.54275 0
M  V30 866 C 79.2863 0.544664 -2.24281 0
M  V30 867 C 80.2563 1.1129 -1.23303 0
M  V30 868 O 81.4413 1.15354 -1.51981 0
M  V30 869 C 78.5813 1.70045 -3.00298 0
M  V30 870 C 77.6943 1.16159 -4.1609 0
M  V30 871 C 76.8293 2.28293 -4.79641 0
M  V30 872 C 75.8683 1.71648 -5.8754 0
M  V30 873 N 75.0053 2.77438 -6.44959 0
M  V30 874 H 79.8453 -0.0588907 -2.97942 0
M  V30 875 H 77.3823 -0.0408345 -1.47043 0
M  V30 876 H 79.3403 2.38054 -3.42616 0
M  V30 877 H 77.9703 2.27531 -2.28975 0
M  V30 878 H 77.0223 0.373092 -3.78566 0
M  V30 879 H 78.3343 0.707087 -4.93763 0
M  V30 880 H 77.4883 3.0421 -5.2492 0
M  V30 881 H 76.2273 2.77079 -4.01346 0
M  V30 882 H 75.2323 0.942282 -5.41665 0
M  V30 883 H 76.4573 1.23741 -6.67731 0
M  V30 884 H 74.4033 3.25519 -5.69538 0
M  V30 885 H 74.3203 2.36547 -7.1804 0
M  V30 886 H 75.5883 3.53189 -6.94894 0
M  V30 887 N 79.8174 1.5752 -0.0501392 0
M  V30 888 C 81.2334 1.56631 0.306402 0
M  V30 889 C 81.4334 1.0577 1.71508 0
M  V30 890 O 80.4894 0.713837 2.422 0
M  V30 891 C 81.8024 3.00393 0.135811 0
M  V30 892 C 83.3504 3.12315 0.206993 0
M  V30 893 C 83.8254 4.57954 0.064944 0
M  V30 894 N 85.3164 4.63041 0.121254 0
M  V30 895 C 86.0514 5.73389 0.0354381 0
M  V30 896 N 85.5474 6.92724 -0.102666 0
M  V30 897 N 87.3404 5.62026 0.090946 0
M  V30 898 H 79.4914 1.88903 -0.971046 0
M  V30 899 H 81.7544 0.869876 -0.376855 0
M  V30 900 H 81.4604 3.41635 -0.835384 0
M  V30 901 H 81.3344 3.66373 0.897275 0
M  V30 902 H 83.7214 2.70973 1.16866 0
M  V30 903 H 83.8024 2.49016 -0.585208 0
M  V30 904 H 83.4464 4.99981 -0.893394 0
M  V30 905 H 83.3764 5.19258 0.876277 0
M  V30 906 H 85.8674 3.77216 0.227284 0
M  V30 907 H 86.1804 7.72633 -0.160882 0
M  V30 908 H 84.5254 6.94864 -0.137737 0
M  V30 909 H 87.7164 4.67684 0.197388 0
M  V30 910 H 87.8894 6.47997 0.0206089 0
M  V30 911 N 81.2955 -0.223234 1.56011 0
M  V30 912 C 82.7115 -0.572856 1.48965 0
M  V30 913 C 82.9115 -1.87225 0.74492 0
M  V30 914 O 81.9675 -2.50899 0.283896 0
M  V30 915 C 83.2805 -0.653646 2.9351 0
M  V30 916 C 84.8285 -0.744386 3.0402 0
M  V30 917 C 85.3035 -0.856535 4.49919 0
M  V30 918 N 86.7945 -0.9208 4.53955 0
M  V30 919 C 87.5295 -1.02726 5.64123 0
M  V30 920 N 87.0255 -1.09777 6.84047 0
M  V30 921 N 88.8185 -1.06226 5.51971 0
M  V30 922 H 80.9695 0.629462 2.02858 0
M  V30 923 H 83.2325 0.220621 0.921971 0
M  V30 924 H 82.9385 0.231518 3.50937 0
M  V30 925 H 82.8125 -1.51781 3.45315 0
M  V30 926 H 85.1995 -1.61999 2.46658 0
M  V30 927 H 85.2805 0.14541 2.55386 0
M  V30 928 H 84.9245 0.0146069 5.07898 0
M  V30 929 H 84.8545 -1.76172 4.96257 0
M  V30 930 H 87.3455 -0.876694 3.6759 0
M  V30 931 H 87.6585 -1.17872 7.63758 0
M  V30 932 H 86.0035 -1.06693 6.86762 0
M  V30 933 H 89.1945 -1.00382 4.5721 0
M  V30 934 H 89.3675 -1.14177 6.37862 0
M  V30 935 N 82.7736 -1.49793 -0.48987 0
M  V30 936 C 83.7216 -1.67783 -1.61095 0
M  V30 937 C 84.7156 -0.543683 -1.60438 0
M  V30 938 O 85.9216 -0.723647 -1.64813 0
M  V30 939 H 82.2966 -0.529255 -0.534222 0
M  V30 940 H 84.2676 -2.61861 -1.43078 0
M  V30 941 C 83.0166 -1.77191 -2.99164 0
M  V30 942 H 82.3396 -2.63841 -3.0038 0
M  V30 943 H 83.7796 -1.93809 -3.77113 0
M  V30 944 C 82.2386 -0.519203 -3.32875 0
M  V30 945 O 82.7686 0.350124 -4.00171 0
M  V30 946 N 80.9746 -0.378816 -2.8812 0
M  V30 947 H 80.5216 -1.08725 -2.33531 0
M  V30 948 H 80.4796 0.458239 -3.11043 0
M  V30 949 N 84.2517 0.741722 -1.39055 0
M  V30 950 C 85.4797 1.53098 -1.39171 0
M  V30 951 C 85.8947 1.88794 0.0155099 0
M  V30 952 O 85.2517 1.53626 0.985159 0
M  V30 953 C 85.3027 2.82274 -2.2584 0
M  V30 954 O 85.0237 2.48097 -3.61081 0
M  V30 955 C 86.5247 3.76343 -2.34266 0
M  V30 956 H 83.7447 0.473335 -0.4756 0
M  V30 957 H 86.2887 0.917045 -1.82785 0
M  V30 958 H 84.4437 3.40015 -1.85656 0
M  V30 959 H 84.8577 3.31029 -4.06842 0
M  V30 960 H 86.3317 4.63898 -2.9917 0
M  V30 961 H 86.8087 4.17619 -1.35982 0
M  V30 962 H 87.4147 3.24523 -2.74891 0
M  V30 963 N 85.7298 1.2412 0.971189 0
M  V30 964 C 86.9578 1.10575 1.74874 0
M  V30 965 C 87.3728 -0.342017 1.85676 0
M  V30 966 O 86.7298 -1.23617 1.34258 0
M  V30 967 C 86.7808 1.73579 3.171 0
M  V30 968 O 86.5018 3.12695 3.06844 0
M  V30 969 C 88.0028 1.65598 4.11208 0
M  V30 970 H 85.2228 0.386504 0.548503 0
M  V30 971 H 87.7668 1.64156 1.21955 0
M  V30 972 H 85.9218 1.24009 3.67016 0
M  V30 973 H 86.3358 3.43412 3.96445 0
M  V30 974 H 87.8098 2.1437 5.08674 0
M  V30 975 H 88.2868 0.616532 4.34851 0
M  V30 976 H 88.8928 2.14578 3.67201 0
M  V30 977 N 87.2079 -1.17134 1.05439 0
M  V30 978 C 88.4559 -1.87085 0.764429 0
M  V30 979 C 88.7769 -1.81584 -0.710787 0
M  V30 980 O 88.0469 -1.24349 -1.51374 0
M  V30 981 H 86.6269 -0.692627 0.279779 0
M  V30 982 H 89.2889 -1.42087 1.33406 0
M  V30 983 H 88.3849 -2.92759 1.0816 0
M  V30 984 N 88.686 -0.835752 -1.33615 0
M  V30 985 C 89.914 -0.443344 -2.02094 0
M  V30 986 C 90.329 0.954522 -1.62894 0
M  V30 987 O 89.686 1.61982 -0.840723 0
M  V30 988 C 89.737 -0.550775 -3.5728 0
M  V30 989 O 89.458 -1.89356 -3.95065 0
M  V30 990 C 90.959 -0.154919 -4.43029 0
M  V30 991 H 88.179 -0.176359 -0.647409 0
M  V30 992 H 90.723 -1.12746 -1.70612 0
M  V30 993 H 88.878 0.0853997 -3.87306 0
M  V30 994 H 89.292 -1.87687 -4.89769 0
M  V30 995 H 90.766 -0.281144 -5.51284 0
M  V30 996 H 91.243 0.902863 -4.2982 0
M  V30 997 H 91.849 -0.765404 -4.18356 0
M  V30 998 N 90.1641 1.46063 -0.591896 0
M  V30 999 C 91.4121 2.01938 -0.0808391 0
M  V30 1000 C 91.7331 1.46475 1.28725 0
M  V30 1001 O 91.0031 0.652944 1.84698 0
M  V30 1002 H 89.5831 0.746516 -0.0268938 0
M  V30 1003 H 92.2451 1.79055 -0.769752 0
M  V30 1004 H 91.3411 3.12094 -0.0187578 0
M  V30 1005 N 91.6422 0.330177 1.54103 0
M  V30 1006 C 93.0582 -0.0222371 1.59585 0
M  V30 1007 C 93.2582 -1.49902 1.34654 0
M  V30 1008 O 92.3142 -2.25592 1.13421 0
M  V30 1009 C 93.6272 0.401932 2.98002 0
M  V30 1010 C 95.1752 0.353145 3.11001 0
M  V30 1011 C 95.6502 0.752576 4.51775 0
M  V30 1012 N 97.1412 0.706239 4.57784 0
M  V30 1013 C 97.8762 0.987417 5.64834 0
M  V30 1014 N 97.3722 1.33607 6.79795 0
M  V30 1015 N 99.1652 0.91254 5.54643 0
M  V30 1016 H 91.3162 1.29228 1.68564 0
M  V30 1017 H 93.5792 0.525906 0.78875 0
M  V30 1018 H 93.2852 1.4311 3.21267 0
M  V30 1019 H 93.1592 -0.229699 3.765 0
M  V30 1020 H 95.5462 -0.666822 2.87467 0
M  V30 1021 H 95.6272 1.0198 2.34593 0
M  V30 1022 H 95.2712 1.77049 4.76042 0
M  V30 1023 H 95.2012 0.0635409 5.26562 0
M  V30 1024 H 97.6922 0.44889 3.75224 0
M  V30 1025 H 98.0052 1.53582 7.57385 0
M  V30 1026 H 96.3502 1.37439 6.81275 0
M  V30 1027 H 99.5412 0.639601 4.6371 0
M  V30 1028 H 99.7142 1.13503 6.37982 0
M  V30 1029 N 93.1203 -1.57491 0.0584922 0
M  V30 1030 C 94.0533 -2.07533 -0.948969 0
M  V30 1031 C 95.0313 -0.977444 -1.29942 0
M  V30 1032 O 96.2153 -1.2499 -1.41102 0
M  V30 1033 C 93.3423 -2.52192 -2.2609 0
M  V30 1034 C 92.3883 -3.73287 -2.06298 0
M  V30 1035 S 93.2213 -5.18603 -1.33459 0
M  V30 1036 C 94.3773 -5.66583 -2.65959 0
M  V30 1037 H 94.6103 -2.92662 -0.523118 0
M  V30 1038 H 92.1433 -1.53631 -0.153954 0
M  V30 1039 H 94.1013 -2.78585 -3.01498 0
M  V30 1040 H 92.7623 -1.67356 -2.65802 0
M  V30 1041 H 91.9553 -4.0248 -3.03357 0
M  V30 1042 H 91.5573 -3.47199 -1.39029 0
M  V30 1043 H 93.8493 -5.72616 -3.62101 0
M  V30 1044 H 94.7923 -6.65684 -2.41393 0
M  V30 1045 H 95.2003 -4.94342 -2.72554 0
M  V30 1046 N 94.5984 0.214957 -1.56127 0
M  V30 1047 C 96.0144 0.564948 -1.49267 0
M  V30 1048 C 96.2144 1.86827 -0.754838 0
M  V30 1049 O 95.2704 2.50745 -0.297198 0
M  V30 1050 C 96.5834 0.638071 -2.93852 0
M  V30 1051 C 98.1314 0.728253 -3.0441 0
M  V30 1052 C 98.6064 0.832663 -4.50367 0
M  V30 1053 N 100.097 0.896712 -4.54437 0
M  V30 1054 C 100.832 0.997324 -5.6466 0
M  V30 1055 N 100.328 1.06147 -6.8462 0
M  V30 1056 N 102.121 1.03297 -5.52527 0
M  V30 1057 H 94.2724 -0.640211 -2.02522 0
M  V30 1058 H 96.5354 -0.225507 -0.920788 0
M  V30 1059 H 96.2414 -0.250126 -3.50809 0
M  V30 1060 H 96.1154 1.49947 -3.46115 0
M  V30 1061 H 98.5024 1.60689 -2.47514 0
M  V30 1062 H 98.5834 -0.158952 -2.55306 0
M  V30 1063 H 98.2274 -0.0415417 -5.07883 0
M  V30 1064 H 98.1574 1.73538 -4.97184 0
M  V30 1065 H 100.648 0.857188 -3.6805 0
M  V30 1066 H 100.961 1.1382 -7.64372 0
M  V30 1067 H 99.3064 1.03049 -6.87318 0
M  V30 1068 H 102.497 0.979558 -4.57736 0
M  V30 1069 H 102.67 1.10793 -6.38458 0
M  V30 1070 N 96.0765 1.50051 0.48192 0
M  V30 1071 C 97.0265 1.64512 1.5786 0
M  V30 1072 C 98.0105 0.500073 1.52932 0
M  V30 1073 O 99.2025 0.753964 1.60139 0
M  V30 1074 C 96.3315 1.73263 2.9637 0
M  V30 1075 C 95.4175 2.93409 3.06222 0
M  V30 1076 N 95.8085 4.17236 2.85915 0
M  V30 1077 C 94.1065 2.91742 3.37346 0
M  V30 1078 C 94.8075 4.981 3.00451 0
M  V30 1079 N 93.7835 4.3184 3.30174 0
M  V30 1080 H 97.5855 2.57955 1.40842 0
M  V30 1081 H 95.0995 1.47086 0.688439 0
M  V30 1082 H 97.0965 1.81724 3.75209 0
M  V30 1083 H 95.7565 0.809711 3.14442 0
M  V30 1084 H 96.7675 4.46909 2.6171 0
M  V30 1085 H 93.4445 2.08907 3.61475 0
M  V30 1086 H 94.8345 6.06532 2.89082 0
M  V30 1087 N 97.5546 -0.734337 1.39446 0
M  V30 1088 C 98.4846 -1.86155 1.40955 0
M  V30 1089 C 99.4656 -1.67898 0.272827 0
M  V30 1090 O 100.651 -1.88207 0.478743 0
M  V30 1091 C 97.7806 -3.23912 1.25294 0
M  V30 1092 C 96.7346 -3.56808 2.36373 0
M  V30 1093 C 96.0606 -4.93508 2.058 0
M  V30 1094 C 97.3606 -3.59713 3.78687 0
M  V30 1095 H 99.0546 -1.8515 2.35287 0
M  V30 1096 H 96.6006 -0.889367 1.13253 0
M  V30 1097 H 98.5536 -4.02443 1.2497 0
M  V30 1098 H 97.2776 -3.25446 0.274308 0
M  V30 1099 H 95.9366 -2.80606 2.35914 0
M  V30 1100 H 95.5846 -4.91623 1.06374 0
M  V30 1101 H 95.2846 -5.16486 2.80208 0
M  V30 1102 H 96.8086 -5.74396 2.07128 0
M  V30 1103 H 98.2226 -4.2832 3.81071 0
M  V30 1104 H 96.6196 -3.94209 4.52459 0
M  V30 1105 H 97.6896 -2.59504 4.09617 0
M  V30 1106 N 99.0327 -1.24633 -0.964593 0
M  V30 1107 C 99.9797 -1.04144 -2.05968 0
M  V30 1108 C 100.95 0.046262 -1.66036 0
M  V30 1109 O 102.135 -0.108972 -1.90489 0
M  V30 1110 C 99.2747 -0.65563 -3.38815 0
M  V30 1111 C 98.3877 -1.81714 -3.91923 0
M  V30 1112 C 97.5227 -1.37662 -5.13052 0
M  V30 1113 C 96.5617 -2.50788 -5.58365 0
M  V30 1114 N 95.6987 -2.07582 -6.70712 0
M  V30 1115 H 100.539 -1.9787 -2.22827 0
M  V30 1116 H 98.0757 -0.9855 -1.09208 0
M  V30 1117 H 100.034 -0.412954 -4.15151 0
M  V30 1118 H 98.6637 0.244627 -3.21872 0
M  V30 1119 H 97.7157 -2.1734 -3.12198 0
M  V30 1120 H 99.0277 -2.66705 -4.21509 0
M  V30 1121 H 98.1817 -1.093 -5.96773 0
M  V30 1122 H 96.9207 -0.497293 -4.85158 0
M  V30 1123 H 95.9257 -2.79906 -4.73215 0
M  V30 1124 H 97.1507 -3.39283 -5.88272 0
M  V30 1125 H 95.0967 -1.22051 -6.44546 0
M  V30 1126 H 95.0137 -2.86125 -6.99763 0
M  V30 1127 H 96.2817 -1.82369 -7.57867 0
M  V30 1128 N 100.511 1.16574 -1.06058 0
M  V30 1129 C 101.76 1.86385 -0.770944 0
M  V30 1130 C 102.073 1.82448 0.705129 0
M  V30 1131 O 103.279 2.47815 1.10905 0
M  V30 1132 C 101.735 3.34466 -1.32893 0
M  V30 1133 C 101.343 3.46883 -2.83507 0
M  V30 1134 C 103.087 4.09548 -1.11672 0
M  V30 1135 C 100.994 4.89036 -3.32562 0
M  V30 1136 H 99.9238 0.698181 -0.284709 0
M  V30 1137 H 102.575 1.31583 -1.27899 0
M  V30 1138 H 100.957 3.88859 -0.748662 0
M  V30 1139 H 102.131 3.02663 -3.47465 0
M  V30 1140 H 100.446 2.85232 -3.03368 0
M  V30 1141 H 103.043 5.14434 -1.45814 0
M  V30 1142 H 103.386 4.16264 -0.0549535 0
M  V30 1143 H 103.919 3.61387 -1.66265 0
M  V30 1144 H 100.658 4.87499 -4.38207 0
M  V30 1145 H 100.178 5.3389 -2.73351 0
M  V30 1146 H 101.857 5.57843 -3.2775 0
M  V30 1147 N 101.989 0.842826 1.3317 0
M  V30 1148 C 103.235 0.441099 1.97945 0
M  V30 1149 C 103.568 -0.998024 1.66593 0
M  V30 1150 O 102.843 -1.69839 0.947898 0
M  V30 1151 C 103.126 0.666841 3.53872 0
M  V30 1152 C 102.979 2.15352 3.94897 0
M  V30 1153 C 104.298 0.115544 4.39948 0
M  V30 1154 H 101.417 0.161739 0.719034 0
M  V30 1155 H 104.059 1.05907 1.57746 0
M  V30 1156 H 102.209 0.140828 3.88245 0
M  V30 1157 H 103.881 2.7447 3.70761 0
M  V30 1158 H 102.124 2.63653 3.44484 0
M  V30 1159 H 102.795 2.26221 5.03516 0
M  V30 1160 H 105.271 0.565213 4.12243 0
M  V30 1161 H 104.147 0.303152 5.48062 0
M  V30 1162 H 104.408 -0.980935 4.3108 0
M  V30 1163 N 103.467 -1.45747 0.599634 0
M  V30 1164 C 104.697 -2.06369 0.0977132 0
M  V30 1165 C 105.105 -1.44624 -1.21985 0
M  V30 1166 O 104.448 -0.551831 -1.75216 0
M  V30 1167 C 104.51 -3.59284 -0.124673 0
M  V30 1168 C 104.174 -4.43318 1.10987 0
M  V30 1169 C 105.171 -4.78796 2.02609 0
M  V30 1170 C 102.856 -4.84194 1.33647 0
M  V30 1171 C 104.85 -5.53997 3.15224 0
M  V30 1172 C 102.537 -5.5915 2.46565 0
M  V30 1173 C 103.535 -5.93968 3.37182 0
M  V30 1174 O 103.223 -6.67405 4.48136 0
M  V30 1175 H 102.955 -0.673122 0.0623153 0
M  V30 1176 H 105.509 -1.88104 0.824981 0
M  V30 1177 H 103.739 -3.75919 -0.906745 0
M  V30 1178 H 105.428 -4.01775 -0.577201 0
M  V30 1179 H 106.194 -4.47781 1.86325 0
M  V30 1180 H 102.073 -4.56534 0.64016 0
M  V30 1181 H 105.617 -5.81091 3.85978 0
M  V30 1182 H 101.514 -5.89579 2.62805 0
M  V30 1183 H 102.282 -6.85847 4.46717 0
M  V30 1184 N 104.945 -0.338344 -1.53925 0
M  V30 1185 C 106.361 0.0137736 -1.59594 0
M  V30 1186 C 106.561 1.49186 -1.35447 0
M  V30 1187 O 105.617 2.24987 -1.14616 0
M  V30 1188 C 106.93 -0.41773 -2.97784 0
M  V30 1189 C 108.478 -0.369633 -3.1081 0
M  V30 1190 C 108.953 -0.776524 -4.51369 0
M  V30 1191 N 110.444 -0.730506 -4.57403 0
M  V30 1192 C 111.179 -1.01736 -5.64303 0
M  V30 1193 N 110.675 -1.3721 -6.79077 0
M  V30 1194 N 112.468 -0.941942 -5.54151 0
M  V30 1195 H 104.619 -1.3012 -1.67876 0
M  V30 1196 H 106.882 -0.530082 -0.78595 0
M  V30 1197 H 106.588 -1.44811 -3.20504 0
M  V30 1198 H 106.462 0.209729 -3.76616 0
M  V30 1199 H 108.849 0.651568 -2.87817 0
M  V30 1200 H 108.93 -1.03223 -2.34049 0
M  V30 1201 H 108.574 -1.79571 -4.75096 0
M  V30 1202 H 108.504 -0.0914649 -5.26521 0
M  V30 1203 H 110.995 -0.468783 -3.74981 0
M  V30 1204 H 111.308 -1.57597 -7.5656 0
M  V30 1205 H 109.653 -1.4105 -6.80536 0
M  V30 1206 H 112.844 -0.664184 -4.63364 0
M  V30 1207 H 113.017 -1.16884 -6.37371 0
M  V30 1208 N 106.423 1.57458 -0.0668435 0
M  V30 1209 C 107.839 1.56947 0.289772 0
M  V30 1210 C 108.039 1.07584 1.70376 0
M  V30 1211 O 107.095 0.739486 2.41429 0
M  V30 1212 C 108.408 3.0052 0.103943 0
M  V30 1213 C 109.956 3.12517 0.173857 0
M  V30 1214 C 110.431 4.57997 0.0163682 0
M  V30 1215 N 111.922 4.63144 0.0721352 0
M  V30 1216 C 112.657 5.73394 -0.0253794 0
M  V30 1217 N 112.153 6.92576 -0.176133 0
M  V30 1218 N 113.946 5.62091 0.0313305 0
M  V30 1219 H 106.097 1.87863 -0.991027 0
M  V30 1220 H 108.36 0.86583 -0.38606 0
M  V30 1221 H 108.066 3.40729 -0.871572 0
M  V30 1222 H 107.94 3.67304 0.858366 0
M  V30 1223 H 110.327 2.72197 1.13985 0
M  V30 1224 H 110.408 2.48381 -0.611586 0
M  V30 1225 H 110.052 4.99005 -0.946374 0
M  V30 1226 H 109.982 5.20158 0.821153 0
M  V30 1227 H 112.473 3.77436 0.187263 0
M  V30 1228 H 112.786 7.72418 -0.242821 0
M  V30 1229 H 111.131 6.94678 -0.211429 0
M  V30 1230 H 114.322 4.67867 0.147773 0
M  V30 1231 H 114.495 6.47982 -0.048121 0
M  V30 1232 N 107.901 -0.206675 1.56239 0
M  V30 1233 C 109.148 -0.928842 1.79941 0
M  V30 1234 C 109.476 -1.83734 0.638131 0
M  V30 1235 O 108.731 -1.92039 -0.376746 0
M  V30 1236 C 109.03 -1.78675 3.09532 0
M  V30 1237 C 108.696 -1.03022 4.38973 0
M  V30 1238 C 107.358 -0.821302 4.74139 0
M  V30 1239 C 109.71 -0.497081 5.18824 0
M  V30 1240 C 107.038 -0.0675719 5.86661 0
M  V30 1241 C 109.39 0.24338 6.32132 0
M  V30 1242 C 108.054 0.463422 6.65889 0
M  V30 1243 H 107.324 -0.339887 0.658451 0
M  V30 1244 H 109.971 -0.195977 1.90495 0
M  V30 1245 H 108.276 -2.58794 2.94165 0
M  V30 1246 H 109.973 -2.34792 3.25075 0
M  V30 1247 H 106.563 -1.20306 4.11369 0
M  V30 1248 H 110.747 -0.645921 4.92079 0
M  V30 1249 H 106.003 0.112995 6.11296 0
M  V30 1250 H 110.177 0.66393 6.93228 0
M  V30 1251 H 107.804 1.04938 7.52922 0
M  V30 1252 N 109.379 -1.50304 -0.473955 0
M  V30 1253 C 110.795 -1.37667 -0.807466 0
M  V30 1254 C 110.995 -0.430555 -1.96846 0
M  V30 1255 O 110.051 0.127874 -2.52176 0
M  V30 1256 C 111.364 -2.78974 -1.12223 0
M  V30 1257 C 112.912 -2.87868 -1.22885 0
M  V30 1258 C 113.387 -4.30003 -1.57676 0
M  V30 1259 N 114.878 -4.3294 -1.64673 0
M  V30 1260 C 115.613 -5.3991 -1.93091 0
M  V30 1261 N 115.109 -6.57092 -2.1955 0
M  V30 1262 N 116.902 -5.27351 -1.94569 0
M  V30 1263 H 109.053 -2.10394 0.291212 0
M  V30 1264 H 111.316 -0.945575 0.0677609 0
M  V30 1265 H 111.022 -3.50031 -0.342229 0
M  V30 1266 H 110.896 -3.16038 -2.05913 0
M  V30 1267 H 113.283 -2.17032 -1.99953 0
M  V30 1268 H 113.364 -2.54352 -0.271814 0
M  V30 1269 H 113.008 -5.01375 -0.81149 0
M  V30 1270 H 112.938 -4.61004 -2.54525 0
M  V30 1271 H 115.429 -3.48441 -1.46277 0
M  V30 1272 H 115.742 -7.34425 -2.405 0
M  V30 1273 H 114.087 -6.60272 -2.16948 0
M  V30 1274 H 117.278 -4.34801 -1.73394 0
M  V30 1275 H 117.451 -6.10805 -2.16381 0
M  V30 1276 N 110.857 0.726932 -1.39834 0
M  V30 1277 C 111.807 1.83232 -1.35683 0
M  V30 1278 C 112.791 1.59155 -0.236295 0
M  V30 1279 O 113.983 1.70522 -0.474488 0
M  V30 1280 C 111.112 3.21246 -1.21062 0
M  V30 1281 C 110.198 3.51125 -2.37849 0
M  V30 1282 N 110.589 3.51889 -3.63329 0
M  V30 1283 C 108.887 3.81527 -2.30982 0
M  V30 1284 C 109.588 3.79791 -4.40606 0
M  V30 1285 N 108.564 3.97971 -3.70297 0
M  V30 1286 H 112.366 1.8214 -2.30656 0
M  V30 1287 H 109.88 0.925545 -1.33444 0
M  V30 1288 H 111.877 4.00387 -1.16171 0
M  V30 1289 H 110.537 3.23572 -0.270458 0
M  V30 1290 H 111.548 3.33008 -3.96643 0
M  V30 1291 H 108.225 3.91411 -1.45272 0
M  V30 1292 H 109.615 3.86783 -5.49408 0
M  V30 1293 N 112.336 1.25143 0.95797 0
M  V30 1294 C 113.584 1.09476 1.69881 0
M  V30 1295 C 113.905 -0.365502 1.91544 0
M  V30 1296 O 113.175 -1.25985 1.50015 0
M  V30 1297 H 111.755 0.402128 0.629525 0
M  V30 1298 H 114.417 1.57214 1.15194 0
M  V30 1299 H 113.513 1.60046 2.6794 0
M  V30 1300 N 113.814 -1.1601 1.06675 0
M  V30 1301 C 115.061 -1.86633 0.785781 0
M  V30 1302 C 115.389 -1.81929 -0.687896 0
M  V30 1303 O 114.644 -1.23253 -1.52011 0
M  V30 1304 C 114.943 -3.35547 1.23057 0
M  V30 1305 C 114.609 -3.60448 2.70902 0
M  V30 1306 C 113.271 -3.66954 3.11285 0
M  V30 1307 C 115.623 -3.7071 3.66365 0
M  V30 1308 C 112.951 -3.81225 4.45965 0
M  V30 1309 C 115.303 -3.86503 5.00797 0
M  V30 1310 C 113.967 -3.91252 5.40813 0
M  V30 1311 H 113.237 -0.682937 0.287538 0
M  V30 1312 H 115.884 -1.37146 1.33654 0
M  V30 1313 H 114.189 -3.87193 0.59907 0
M  V30 1314 H 115.886 -3.88583 0.990163 0
M  V30 1315 H 112.476 -3.56021 2.38636 0
M  V30 1316 H 116.66 -3.64991 3.36296 0
M  V30 1317 H 111.916 -3.83155 4.76447 0
M  V30 1318 H 116.09 -3.93385 5.74649 0
M  V30 1319 H 113.717 -4.02062 6.45174 0
M  V30 1320 N 115.292 -0.849877 -1.32721 0
M  V30 1321 C 116.708 -0.539102 -1.50219 0
M  V30 1322 C 116.908 0.931271 -1.78689 0
M  V30 1323 O 115.964 1.71455 -1.85363 0
M  V30 1324 C 117.277 -1.42196 -2.64954 0
M  V30 1325 C 118.825 -1.42189 -2.78839 0
M  V30 1326 C 119.3 -2.28985 -3.96648 0
M  V30 1327 N 120.791 -2.26754 -4.03902 0
M  V30 1328 C 121.526 -2.90644 -4.94281 0
M  V30 1329 N 121.022 -3.63629 -5.897 0
M  V30 1330 N 122.815 -2.80057 -4.87365 0
M  V30 1331 H 114.966 -1.80156 -1.12506 0
M  V30 1332 H 117.229 -0.769217 -0.554085 0
M  V30 1333 H 116.935 -2.46733 -2.50631 0
M  V30 1334 H 116.809 -1.10591 -3.60624 0
M  V30 1335 H 119.196 -0.38419 -2.92588 0
M  V30 1336 H 119.277 -1.77807 -1.83898 0
M  V30 1337 H 118.921 -3.32819 -3.83658 0
M  V30 1338 H 118.851 -1.90702 -4.90857 0
M  V30 1339 H 121.342 -1.73688 -3.3562 0
M  V30 1340 H 121.655 -4.09558 -6.55349 0
M  V30 1341 H 120 -3.67737 -5.89741 0
M  V30 1342 H 123.191 -2.22593 -4.11789 0
M  V30 1343 H 123.364 -3.30132 -5.57599 0
M  V30 1344 N 116.77 1.45427 -0.607355 0
M  V30 1345 C 117.68 2.34325 0.113463 0
M  V30 1346 C 118.696 1.51226 0.860617 0
M  V30 1347 O 119.872 1.84029 0.818255 0
M  V30 1348 C 116.937 3.28839 1.09844 0
M  V30 1349 C 115.998 4.27844 0.353271 0
M  V30 1350 C 115.231 5.17842 1.29133 0
M  V30 1351 O 115.454 5.11264 2.52913 0
M  V30 1352 O 114.388 5.96713 0.788523 0
M  V30 1353 H 118.214 2.97364 -0.617094 0
M  V30 1354 H 115.799 1.44807 -0.367619 0
M  V30 1355 H 117.681 3.8708 1.66575 0
M  V30 1356 H 116.356 2.68365 1.81003 0
M  V30 1357 H 115.263 3.7322 -0.256494 0
M  V30 1358 H 116.596 4.91173 -0.317822 0
M  V30 1359 N 118.248 0.346503 1.53744 0
M  V30 1360 C 119.496 -0.248612 2.00565 0
M  V30 1361 C 119.817 -1.5083 1.23593 0
M  V30 1362 O 119.087 -1.92858 0.343912 0
M  V30 1363 H 117.667 -0.0948564 0.740953 0
M  V30 1364 H 120.329 0.468341 1.89189 0
M  V30 1365 H 119.425 -0.488994 3.08245 0
M  V30 1366 N 119.726 -1.57421 0.075193 0
M  V30 1367 C 120.954 -1.97946 -0.602076 0
M  V30 1368 C 121.369 -0.953674 -1.62943 0
M  V30 1369 O 120.726 0.0592551 -1.82404 0
M  V30 1370 C 120.777 -3.38546 -1.26762 0
M  V30 1371 O 120.498 -4.37195 -0.281376 0
M  V30 1372 C 121.999 -3.93966 -2.03239 0
M  V30 1373 H 119.219 -0.650918 -0.162931 0
M  V30 1374 H 121.763 -2.03959 0.148601 0
M  V30 1375 H 119.918 -3.33609 -1.96936 0
M  V30 1376 H 120.332 -5.18975 -0.759267 0
M  V30 1377 H 121.806 -4.94555 -2.45193 0
M  V30 1378 H 122.283 -3.30693 -2.8903 0
M  V30 1379 H 122.889 -4.02315 -1.37924 0
M  V30 1380 N 121.204 0.198386 -1.56346 0
M  V30 1381 C 122.432 0.935572 -1.84539 0
M  V30 1382 C 122.847 1.76989 -0.657281 0
M  V30 1383 O 122.204 1.78626 0.374043 0
M  V30 1384 C 122.255 1.8344 -3.11499 0
M  V30 1385 O 121.976 1.03377 -4.25728 0
M  V30 1386 C 123.477 2.68355 -3.52846 0
M  V30 1387 H 120.697 0.273126 -0.612897 0
M  V30 1388 H 123.241 0.20663 -2.03453 0
M  V30 1389 H 121.396 2.51701 -2.94492 0
M  V30 1390 H 121.81 1.64599 -4.98003 0
M  V30 1391 H 123.284 3.27085 -4.44657 0
M  V30 1392 H 123.761 3.41901 -2.75681 0
M  V30 1393 H 124.367 2.05471 -3.72373 0
M  V30 1394 N 122.682 1.50554 0.465978 0
M  V30 1395 C 124.093 1.54599 1.04671 0
M  V30 1396 C 124.444 0.352488 1.93008 0
M  V30 1397 O 123.569 -0.534044 2.09707 0
M  V30 1398 C 124.164 2.80166 1.90505 0
M  V30 1399 C 122.723 2.86876 2.43678 0
M  V30 1400 C 121.87 2.48947 1.22151 0
M  V30 1401 H 124.821 1.56744 0.248384 0
M  V30 1402 H 124.842 2.62311 2.75633 0
M  V30 1403 H 124.354 3.67013 1.26186 0
M  V30 1404 H 122.455 2.04393 3.11536 0
M  V30 1405 H 122.568 3.89885 2.78436 0
M  V30 1406 H 120.932 2.01498 1.5579 0
M  V30 1407 H 121.715 3.38107 0.594866 0
M  V30 1408 N 124.16 -0.719506 1.40217 0
M  V30 1409 C 125.107 -1.83359 1.40172 0
M  V30 1410 C 126.077 -1.64065 0.259206 0
M  V30 1411 O 127.262 -1.85254 0.456677 0
M  V30 1412 C 124.402 -3.2103 1.26624 0
M  V30 1413 C 123.515 -3.51923 2.50548 0
M  V30 1414 C 122.65 -4.79079 2.29471 0
M  V30 1415 C 121.689 -5.02863 3.48992 0
M  V30 1416 N 120.826 -6.2123 3.27135 0
M  V30 1417 H 125.666 -1.82733 2.35399 0
M  V30 1418 H 123.203 -0.892688 1.16917 0
M  V30 1419 H 125.161 -4.00524 1.16776 0
M  V30 1420 H 123.791 -3.20895 0.350176 0
M  V30 1421 H 122.843 -2.67014 2.70939 0
M  V30 1422 H 124.155 -3.6541 3.39525 0
M  V30 1423 H 123.309 -5.66582 2.16955 0
M  V30 1424 H 122.048 -4.67794 1.37913 0
M  V30 1425 H 121.053 -4.13816 3.6199 0
M  V30 1426 H 122.278 -5.16023 4.41472 0
M  V30 1427 H 120.224 -6.11204 2.38256 0
M  V30 1428 H 120.141 -6.35375 4.09675 0
M  V30 1429 H 121.409 -7.11532 3.18344 0
M  V30 1430 N 125.638 -1.25649 -0.95132 0
M  V30 1431 C 127.049 -1.09654 -1.51106 0
M  V30 1432 C 127.4 0.326615 -1.93462 0
M  V30 1433 O 126.525 1.21697 -1.78938 0
M  V30 1434 C 127.12 -1.98437 -2.74605 0
M  V30 1435 C 125.679 -1.86618 -3.2688 0
M  V30 1436 C 124.826 -1.9239 -1.99703 0
M  V30 1437 H 127.777 -1.38887 -0.767865 0
M  V30 1438 H 127.798 -1.5263 -3.48546 0
M  V30 1439 H 127.31 -3.02009 -2.43746 0
M  V30 1440 H 125.411 -0.859421 -3.62553 0
M  V30 1441 H 125.524 -2.71607 -3.94673 0
M  V30 1442 H 123.888 -1.36317 -2.15151 0
M  V30 1443 H 124.671 -2.97573 -1.71188 0
M  V30 1444 N 127.117 1.15442 -1.07289 0
M  V30 1445 C 128.064 2.20161 -0.692653 0
M  V30 1446 C 129.034 1.63073 0.31564 0
M  V30 1447 O 130.219 1.89725 0.202235 0
M  V30 1448 C 127.359 3.44967 -0.0959509 0
M  V30 1449 C 126.472 4.16256 -1.15564 0
M  V30 1450 C 125.607 5.28609 -0.524011 0
M  V30 1451 C 124.646 5.91715 -1.56653 0
M  V30 1452 N 123.783 6.9554 -0.957531 0
M  V30 1453 H 128.623 2.52037 -1.59002 0
M  V30 1454 H 126.16 1.2378 -0.794798 0
M  V30 1455 H 128.118 4.16341 0.267628 0
M  V30 1456 H 126.748 3.1361 0.764772 0
M  V30 1457 H 125.8 3.43385 -1.6368 0
M  V30 1458 H 127.112 4.59268 -1.94613 0
M  V30 1459 H 126.266 6.06604 -0.108032 0
M  V30 1460 H 125.005 4.86787 0.29825 0
M  V30 1461 H 124.01 5.12433 -1.9923 0
M  V30 1462 H 125.235 6.35614 -2.39107 0
M  V30 1463 H 123.181 6.55814 -0.156162 0
M  V30 1464 H 123.098 7.36977 -1.68526 0
M  V30 1465 H 124.366 7.77435 -0.567032 0
M  V30 1466 N 128.595 0.856903 1.32268 0
M  V30 1467 C 130.011 0.547061 1.49931 0
M  V30 1468 C 130.211 -0.921781 1.7918 0
M  V30 1469 O 129.267 -1.70469 1.8627 0
M  V30 1470 C 130.58 1.43599 2.64196 0
M  V30 1471 C 132.128 1.43665 2.78081 0
M  V30 1472 C 132.603 2.31085 3.95428 0
M  V30 1473 N 134.094 2.28893 4.02694 0
M  V30 1474 C 134.829 2.93262 4.92732 0
M  V30 1475 N 134.325 3.66751 5.87763 0
M  V30 1476 N 136.118 2.82638 4.85873 0
M  V30 1477 H 128.269 1.8075 1.11549 0
M  V30 1478 H 130.532 0.772144 0.549997 0
M  V30 1479 H 130.238 2.48058 2.49319 0
M  V30 1480 H 130.112 1.12502 3.60032 0
M  V30 1481 H 132.499 0.399701 2.92381 0
M  V30 1482 H 132.58 1.7878 1.82952 0
M  V30 1483 H 132.224 3.34849 3.81888 0
M  V30 1484 H 132.154 1.93302 4.89839 0
M  V30 1485 H 134.645 1.75466 3.34694 0
M  V30 1486 H 134.958 4.13027 6.53168 0
M  V30 1487 H 133.303 3.70859 5.87783 0
M  V30 1488 H 136.494 2.24774 4.10602 0
M  V30 1489 H 136.667 3.33084 5.55841 0
M  V30 1490 N 130.073 -1.45103 0.615059 0
M  V30 1491 C 131.036 -2.29025 -0.0895485 0
M  V30 1492 C 132.036 -1.40174 -0.787906 0
M  V30 1493 O 133.226 -1.62217 -0.634933 0
M  V30 1494 C 130.358 -3.21376 -1.13711 0
M  V30 1495 H 131.551 -2.92807 0.648382 0
M  V30 1496 H 129.104 -1.51749 0.374444 0
M  V30 1497 H 129.839 -2.6241 -1.90556 0
M  V30 1498 H 129.624 -3.86834 -0.640475 0
M  V30 1499 H 131.114 -3.84459 -1.63036 0
M  V30 1500 N 131.551 -0.354651 -1.53558 0
M  V30 1501 C 132.514 0.484566 -2.24019 0
M  V30 1502 C 133.514 1.01861 -1.24422 0
M  V30 1503 O 134.704 0.906097 -1.4878 0
M  V30 1504 C 131.836 1.67615 -2.96847 0
M  V30 1505 H 133.029 -0.131843 -2.9961 0
M  V30 1506 H 130.582 -0.106165 -1.55939 0
M  V30 1507 H 131.317 2.33095 -2.25471 0
M  V30 1508 H 131.102 1.30029 -3.69912 0
M  V30 1509 H 132.592 2.27114 -3.50441 0
M  V30 1510 N 133.029 1.57378 -0.0835403 0
M  V30 1511 C 134.275 1.94217 0.583733 0
M  V30 1512 C 134.608 0.964653 1.68547 0
M  V30 1513 O 133.883 -0.00422258 1.945 0
M  V30 1514 C 134.166 3.41253 1.14972 0
M  V30 1515 C 134.019 4.49768 0.0538277 0
M  V30 1516 C 135.338 3.89352 2.05166 0
M  V30 1517 H 132.457 0.706233 0.210724 0
M  V30 1518 H 135.099 1.89392 -0.1519 0
M  V30 1519 H 133.249 3.45496 1.77665 0
M  V30 1520 H 134.921 4.57641 -0.579851 0
M  V30 1521 H 133.164 4.29432 -0.614068 0
M  V30 1522 H 133.835 5.49817 0.490452 0
M  V30 1523 H 136.311 3.87189 1.52393 0
M  V30 1524 H 135.187 4.92822 2.41698 0
M  V30 1525 H 135.448 3.27973 2.96456 0
M  V30 1526 N 134.507 -0.190092 1.56449 0
M  V30 1527 C 135.47 -1.21925 1.9408 0
M  V30 1528 C 136.47 -1.38176 0.822431 0
M  V30 1529 O 137.66 -1.35903 1.08977 0
M  V30 1530 C 134.792 -2.58773 2.21922 0
M  V30 1531 H 135.985 -0.897464 2.86157 0
M  V30 1532 H 133.538 -0.43181 1.50217 0
M  V30 1533 H 134.273 -2.95998 1.32499 0
M  V30 1534 H 134.058 -2.48348 3.03424 0
M  V30 1535 H 135.548 -3.32978 2.52022 0
M  V30 1536 N 135.985 -1.50799 -0.457987 0
M  V30 1537 C 136.948 -1.7005 -1.53674 0
M  V30 1538 C 137.948 -0.570881 -1.50325 0
M  V30 1539 O 139.138 -0.838126 -1.52712 0
M  V30 1540 C 136.27 -1.73788 -2.93276 0
M  V30 1541 H 137.463 -2.66306 -1.37917 0
M  V30 1542 H 135.016 -1.40477 -0.685271 0
M  V30 1543 H 135.751 -0.792717 -3.14462 0
M  V30 1544 H 135.536 -2.55864 -2.97113 0
M  V30 1545 H 137.026 -1.90591 -3.71571 0
M  V30 1546 N 137.463 0.71206 -1.40597 0
M  V30 1547 C 138.688 1.50617 -1.42581 0
M  V30 1548 C 139.113 1.88079 -0.0282102 0
M  V30 1549 O 138.471 1.53511 0.964579 0
M  V30 1550 C 138.519 2.7557 -2.3258 0
M  V30 1551 O 137.623 3.72414 -1.77148 0
M  V30 1552 H 136.964 0.453966 -0.484573 0
M  V30 1553 H 139.494 0.876649 -1.84868 0
M  V30 1554 H 139.504 3.2406 -2.47889 0
M  V30 1555 H 138.179 2.47639 -3.34138 0
M  V30 1556 H 136.756 3.31276 -1.71204 0
M  V30 1557 N 138.941 1.26152 0.944643 0
M  V30 1558 C 140.166 1.14363 1.7302 0
M  V30 1559 C 140.591 -0.29772 1.85729 0
M  V30 1560 O 139.949 -1.2157 1.34501 0
M  V30 1561 C 139.997 1.81378 3.11664 0
M  V30 1562 O 139.101 1.10022 3.97453 0
M  V30 1563 H 138.442 0.398694 0.53098 0
M  V30 1564 H 140.972 1.66906 1.18337 0
M  V30 1565 H 140.982 1.88064 3.62072 0
M  V30 1566 H 139.657 2.86237 3.0173 0
M  V30 1567 H 138.234 1.11287 3.55907 0
M  V30 1568 N 140.419 -1.14872 1.07899 0
M  V30 1569 C 141.644 -1.90202 0.826926 0
M  V30 1570 C 142.069 -1.77774 -0.614664 0
M  V30 1571 O 141.427 -1.11431 -1.43013 0
M  V30 1572 C 141.475 -3.38352 1.24702 0
M  V30 1573 O 140.579 -4.10497 0.39575 0
M  V30 1574 H 139.92 -0.591968 0.300782 0
M  V30 1575 H 142.45 -1.45437 1.43907 0
M  V30 1576 H 142.46 -3.89156 1.22563 0
M  V30 1577 H 141.135 -3.46715 2.29698 0
M  V30 1578 H 139.712 -3.69796 0.480117 0
M  V30 1579 N 141.898 -0.863906 -1.31812 0
M  V30 1580 C 143.123 -0.48527 -2.01643 0
M  V30 1581 C 143.548 0.913058 -1.64453 0
M  V30 1582 O 142.906 1.6014 -0.849985 0
M  V30 1583 C 142.954 -0.642625 -3.54828 0
M  V30 1584 O 142.058 0.320659 -4.11151 0
M  V30 1585 H 141.399 -0.193793 -0.635091 0
M  V30 1586 H 143.929 -1.16565 -1.68148 0
M  V30 1587 H 143.939 -0.533628 -4.04495 0
M  V30 1588 H 142.614 -1.66227 -3.81237 0
M  V30 1589 H 141.191 0.167126 -3.72525 0
M  V30 1590 O 143.415 1.42347 -0.762857 0
M  V30 1591 H 144.106 1.90974 -0.323817 0
M  V30 END ATOM
M  V30 BEGIN BOND
M  V30 END BOND
M  V30 END CTAB
M  END
$$$$
