drugbank_target|P08100 Rhodopsin (DB01159; DB01646; DB01728; DB02451; DB02482; DB03152; DB03381; DB03796; DB04079; DB04147; DB04233; DB04450; DB04522)
 OpenBabel12092119493D

  0  0  0     0  0            999 V3000
M  V30 BEGIN CTAB
M  V30 COUNTS 5462 5545 0 0 0
M  V30 BEGIN ATOM
M  V30 1 H -0.908 1.98254 -0.117106 0
M  V30 2 N 0 1.576 0 0
M  V30 3 C 0.933 2.03868 1.02534 0
M  V30 4 C 1.911 0.928543 1.3348 0
M  V30 5 O 3.095 1.19667 1.45644 0
M  V30 6 C 0.222 2.43627 2.35294 0
M  V30 7 C -0.732 3.65373 2.2001 0
M  V30 8 S 0.101 5.13292 1.52614 0
M  V30 9 C 1.257 5.56322 2.86805 0
M  V30 10 H 1.49 2.90518 0.631377 0
M  V30 11 H -0.977 1.52953 0.210867 0
M  V30 12 H 0.981 2.67203 3.11629 0
M  V30 13 H -0.358 1.57376 2.7183 0
M  V30 14 H -1.165 3.90944 3.18086 0
M  V30 15 H -1.563 3.418 1.51819 0
M  V30 16 H 0.729 5.58782 3.83104 0
M  V30 17 H 1.672 6.56266 2.65933 0
M  V30 18 H 2.08 4.83886 2.90714 0
M  V30 19 N 1.4781 -0.272755 1.55222 0
M  V30 20 C 2.4261 -1.35705 1.88909 0
M  V30 21 C 3.4201 -1.5112 0.765456 0
M  V30 22 O 4.6261 -1.52901 0.949802 0
M  V30 23 H 1.0011 -0.453868 0.59959 0
M  V30 24 H 2.9721 -1.04544 2.79487 0
M  V30 25 C 1.7211 -2.71049 2.17779 0
M  V30 26 H 1.0441 -2.59979 3.03728 0
M  V30 27 H 2.4841 -3.45858 2.45272 0
M  V30 28 C 0.9431 -3.22165 0.985473 0
M  V30 29 O 1.4731 -4.01096 0.220233 0
M  V30 30 N -0.3209 -2.7985 0.783108 0
M  V30 31 H -0.7739 -2.15775 1.40708 0
M  V30 32 H -0.8159 -3.14397 -0.0130392 0
M  V30 33 N 2.9562 -1.48159 -0.537278 0
M  V30 34 C 4.2042 -1.55497 -1.29094 0
M  V30 35 C 4.5252 -0.227454 -1.93669 0
M  V30 36 O 3.7952 0.750386 -1.80959 0
M  V30 37 H 2.3752 -0.572832 -0.47945 0
M  V30 38 H 5.0372 -1.84579 -0.625818 0
M  V30 39 H 4.1332 -2.33216 -2.07405 0
M  V30 40 N 4.4343 0.785586 -1.36625 0
M  V30 41 C 5.6623 1.57448 -1.3423 0
M  V30 42 C 6.0773 1.88649 0.0755653 0
M  V30 43 O 5.4343 1.50414 1.03354 0
M  V30 44 C 5.4853 2.89316 -2.16745 0
M  V30 45 O 5.2063 2.59459 -3.53005 0
M  V30 46 C 6.7073 3.83606 -2.22174 0
M  V30 47 H 3.9273 0.488226 -0.4603 0
M  V30 48 H 6.4713 0.974733 -1.79775 0
M  V30 49 H 4.6263 3.4575 -1.74745 0
M  V30 50 H 5.0403 3.43804 -3.96105 0
M  V30 51 H 6.5143 4.73181 -2.8426 0
M  V30 52 H 6.9913 4.21734 -1.22627 0
M  V30 53 H 7.5973 3.33104 -2.64427 0
M  V30 54 N 5.9124 1.20967 1.01018 0
M  V30 55 C 6.8224 0.980157 2.13143 0
M  V30 56 C 7.8384 -0.0660665 1.73875 0
M  V30 57 O 9.0144 0.122821 2.01025 0
M  V30 58 C 6.0794 0.54216 3.42435 0
M  V30 59 C 5.1404 1.65999 3.95908 0
M  V30 60 C 4.3734 1.2428 5.19028 0
M  V30 61 O 4.5964 0.114196 5.70286 0
M  V30 62 O 3.5304 2.05271 5.65816 0
M  V30 63 H 7.3564 1.91913 2.35379 0
M  V30 64 H 4.9414 0.994099 1.11526 0
M  V30 65 H 6.8234 0.30744 4.20277 0
M  V30 66 H 5.4984 -0.36815 3.216 0
M  V30 67 H 4.4054 1.94906 3.19316 0
M  V30 68 H 5.7384 2.54753 4.21143 0
M  V30 69 N 7.3905 -1.2043 1.01659 0
M  V30 70 C 8.6385 -1.89423 0.704522 0
M  V30 71 C 8.9595 -1.79231 -0.768197 0
M  V30 72 O 8.2295 -1.1947 -1.55254 0
M  V30 73 H 6.8095 -0.701178 0.257602 0
M  V30 74 H 9.4715 -1.4626 1.28818 0
M  V30 75 H 8.5675 -2.96052 0.987916 0
M  V30 76 N 8.8686 -0.792821 -1.36206 0
M  V30 77 C 10.2796 -0.429513 -1.81692 0
M  V30 78 C 10.6306 1.04695 -1.65932 0
M  V30 79 O 9.7556 1.81256 -1.18218 0
M  V30 80 C 10.3506 -0.772831 -3.29868 0
M  V30 81 C 8.9096 -0.462307 -3.7355 0
M  V30 82 C 8.0566 -1.00569 -2.5842 0
M  V30 83 H 11.0076 -0.985672 -1.24379 0
M  V30 84 H 11.0286 -0.0651928 -3.80444 0
M  V30 85 H 10.5406 -1.84747 -3.41307 0
M  V30 86 H 8.6416 0.604158 -3.67669 0
M  V30 87 H 8.7546 -0.985299 -4.68859 0
M  V30 88 H 7.1186 -0.428734 -2.51066 0
M  V30 89 H 7.9016 -2.08616 -2.72643 0
M  V30 90 N 10.3467 1.47872 -0.545128 0
M  V30 91 C 11.2947 2.31533 0.222512 0
M  V30 92 C 12.2887 1.42177 0.920985 0
M  V30 93 O 13.4947 1.59005 0.843645 0
M  V30 94 H 9.8697 0.746519 0.0906278 0
M  V30 95 H 11.8407 2.94139 -0.50246 0
M  V30 96 C 10.5897 3.2457 1.24699 0
M  V30 97 H 9.9127 3.93283 0.718944 0
M  V30 98 H 11.3527 3.85963 1.75523 0
M  V30 99 C 9.8117 2.47237 2.28856 0
M  V30 100 O 10.3417 2.20808 3.35569 0
M  V30 101 N 8.5477 2.08461 2.02466 0
M  V30 102 H 8.0947 2.30155 1.157 0
M  V30 103 H 8.0527 1.57033 2.72375 0
M  V30 104 N 11.8248 0.280983 1.55075 0
M  V30 105 C 13.0718 -0.334115 1.99725 0
M  V30 106 C 13.3998 -1.5542 1.1694 0
M  V30 107 O 12.6548 -1.94361 0.228531 0
M  V30 108 C 12.9538 -0.754656 3.49342 0
M  V30 109 C 12.6198 0.361445 4.49449 0
M  V30 110 C 11.2818 0.667893 4.76542 0
M  V30 111 C 13.6338 1.11322 5.09173 0
M  V30 112 C 10.9618 1.7296 5.60626 0
M  V30 113 C 13.3138 2.1647 5.9441 0
M  V30 114 C 11.9778 2.47742 6.19822 0
M  V30 115 H 11.2478 -0.122261 0.730844 0
M  V30 116 H 13.8948 0.395917 1.87363 0
M  V30 117 H 12.1998 -1.56446 3.5921 0
M  V30 118 H 13.8968 -1.24142 3.813 0
M  V30 119 H 10.4868 0.112481 4.28452 0
M  V30 120 H 14.6708 0.88973 4.8826 0
M  V30 121 H 9.9268 1.97684 5.78559 0
M  V30 122 H 14.1008 2.75193 6.3972 0
M  V30 123 H 11.7278 3.30145 6.84769 0
M  V30 124 N 13.3029 -1.57598 0.00835791 0
M  V30 125 C 14.5329 -1.94931 -0.684496 0
M  V30 126 C 14.9409 -0.882233 -1.67372 0
M  V30 127 O 14.2839 0.146621 -1.83114 0
M  V30 128 C 14.3459 -3.283 -1.4649 0
M  V30 129 C 14.0099 -4.52548 -0.63634 0
M  V30 130 C 15.0069 -5.19839 0.0795586 0
M  V30 131 C 12.6919 -4.98942 -0.579849 0
M  V30 132 C 14.6859 -6.3183 0.840843 0
M  V30 133 C 12.3729 -6.10819 0.185155 0
M  V30 134 C 13.3709 -6.77121 0.894227 0
M  V30 135 O 13.0589 -7.86853 1.64673 0
M  V30 136 H 12.7909 -0.647249 -0.19505 0
M  V30 137 H 15.3449 -2.05318 0.0581272 0
M  V30 138 H 13.5749 -3.14345 -2.2522 0
M  V30 139 H 15.2639 -3.50685 -2.04389 0
M  V30 140 H 16.0299 -4.84979 0.0451202 0
M  V30 141 H 11.9089 -4.47155 -1.1213 0
M  V30 142 H 15.4529 -6.83513 1.39483 0
M  V30 143 H 11.3499 -6.4512 0.221384 0
M  V30 144 H 12.1179 -8.03412 1.56432 0
M  V30 145 N 14.781 0.264519 -1.55364 0
M  V30 146 C 16.027 0.99646 -1.76631 0
M  V30 147 C 16.36 1.85632 -0.570478 0
M  V30 148 O 15.635 1.89647 0.43175 0
M  V30 149 C 15.918 1.87187 -3.07625 0
M  V30 150 C 15.771 1.04138 -4.37579 0
M  V30 151 C 17.09 2.85749 -3.34717 0
M  V30 152 H 14.209 0.360841 -0.642622 0
M  V30 153 H 16.851 0.268218 -1.88097 0
M  V30 154 H 15.001 2.49279 -2.9798 0
M  V30 155 H 16.673 0.440517 -4.59192 0
M  V30 156 H 14.916 0.345115 -4.32425 0
M  V30 157 H 15.587 1.68729 -5.2558 0
M  V30 158 H 18.063 2.33793 -3.4421 0
M  V30 159 H 16.939 3.44136 -4.27623 0
M  V30 160 H 17.2 3.61311 -2.54768 0
M  V30 161 N 16.2591 1.48442 0.529413 0
M  V30 162 C 17.6701 1.5002 1.11134 0
M  V30 163 C 18.0211 0.27031 1.94329 0
M  V30 164 O 17.1461 -0.622507 2.07253 0
M  V30 165 C 17.7411 2.71834 2.02217 0
M  V30 166 C 16.3001 2.76283 2.55627 0
M  V30 167 C 15.4471 2.43542 1.326 0
M  V30 168 H 18.3981 1.5555 0.314641 0
M  V30 169 H 18.4191 2.50384 2.8651 0
M  V30 170 H 17.9311 3.61331 1.41639 0
M  V30 171 H 16.0321 1.90995 3.19924 0
M  V30 172 H 16.1451 3.77725 2.94721 0
M  V30 173 H 14.5091 1.94709 1.64196 0
M  V30 174 H 15.2921 3.3528 0.737734 0
M  V30 175 N 17.7372 -0.778329 1.37039 0
M  V30 176 C 18.9842 -1.53665 1.31884 0
M  V30 177 C 19.3122 -1.9425 -0.0986303 0
M  V30 178 O 18.5672 -1.63832 -1.07041 0
M  V30 179 C 18.8662 -2.81845 2.19768 0
M  V30 180 C 18.5322 -2.60345 3.68146 0
M  V30 181 C 17.1942 -2.5419 4.08584 0
M  V30 182 C 19.5462 -2.40923 4.62175 0
M  V30 183 C 16.8742 -2.26594 5.41177 0
M  V30 184 C 19.2262 -2.14852 5.94997 0
M  V30 185 C 17.8902 -2.07137 6.34547 0
M  V30 186 H 17.1602 -0.562299 0.482598 0
M  V30 187 H 19.8072 -0.897069 1.69189 0
M  V30 188 H 18.1122 -3.50328 1.75436 0
M  V30 189 H 19.8092 -3.39692 2.13097 0
M  V30 190 H 16.3992 -2.65996 3.36072 0
M  V30 191 H 20.5832 -2.44673 4.31797 0
M  V30 192 H 15.8392 -2.19111 5.70789 0
M  V30 193 H 20.0132 -1.98822 6.67415 0
M  V30 194 H 17.6402 -1.85518 7.37216 0
M  V30 195 N 19.2153 -1.21501 -1.00376 0
M  V30 196 C 20.4403 -1.05977 -1.78279 0
M  V30 197 C 20.8653 0.385994 -1.84097 0
M  V30 198 O 20.2233 1.27849 -1.28547 0
M  V30 199 C 20.2713 -1.66302 -3.19963 0
M  V30 200 O 19.3753 -0.909333 -4.0225 0
M  V30 201 H 18.7163 -0.372906 -0.549397 0
M  V30 202 H 21.2463 -1.6107 -1.26165 0
M  V30 203 H 21.2563 -1.70574 -3.70632 0
M  V30 204 H 19.9313 -2.71515 -3.15043 0
M  V30 205 H 18.5083 -0.941795 -3.60811 0
M  V30 206 N 20.6934 1.19889 -1.02296 0
M  V30 207 C 21.6414 2.24938 -0.592081 0
M  V30 208 C 22.6354 1.65257 0.372357 0
M  V30 209 O 23.8414 1.78371 0.241583 0
M  V30 210 H 20.2164 0.731787 -0.173182 0
M  V30 211 H 22.1874 2.58603 -1.48885 0
M  V30 212 C 20.9364 3.47668 0.047351 0
M  V30 213 H 20.2594 3.93875 -0.685772 0
M  V30 214 H 21.6994 4.22852 0.311862 0
M  V30 215 C 20.1584 3.11136 1.29212 0
M  V30 216 O 20.6884 3.2325 2.38479 0
M  V30 217 N 18.8944 2.65625 1.17863 0
M  V30 218 H 18.4414 2.55968 0.289493 0
M  V30 219 H 18.3994 2.41553 2.01245 0
M  V30 220 N 22.1715 0.800033 1.35784 0
M  V30 221 C 23.1345 0.211565 2.28221 0
M  V30 222 C 24.1345 -0.59728 1.49296 0
M  V30 223 O 25.3245 -0.416721 1.69142 0
M  V30 224 C 22.4565 -0.705846 3.33513 0
M  V30 225 H 23.6495 1.02677 2.81776 0
M  V30 226 H 21.2025 0.570211 1.45528 0
M  V30 227 H 21.9375 -1.54498 2.85133 0
M  V30 228 H 21.7225 -0.127655 3.91892 0
M  V30 229 H 23.2125 -1.11211 4.02519 0
M  V30 230 N 23.6496 -1.47581 0.552962 0
M  V30 231 C 24.8776 -2.06875 0.0320556 0
M  V30 232 C 25.2926 -1.40625 -1.25976 0
M  V30 233 O 24.6496 -0.501349 -1.75479 0
M  V30 234 C 24.7006 -3.61092 -0.17167 0
M  V30 235 O 24.4216 -4.24858 1.06899 0
M  V30 236 C 25.9226 -4.37242 -0.730344 0
M  V30 237 H 23.1426 -0.669561 0.043915 0
M  V30 238 H 25.6866 -1.89646 0.765163 0
M  V30 239 H 23.8416 -3.7785 -0.854894 0
M  V30 240 H 24.2556 -5.17334 0.864059 0
M  V30 241 H 25.7296 -5.45842 -0.822203 0
M  V30 242 H 26.2066 -4.03235 -1.74064 0
M  V30 243 H 26.8126 -4.25219 -0.0829543 0
M  V30 244 N 25.1277 -0.289203 -1.54924 0
M  V30 245 C 26.3757 0.322879 -1.99504 0
M  V30 246 C 26.6967 1.55313 -1.1791 0
M  V30 247 O 25.9667 1.94001 -0.272097 0
M  V30 248 H 24.5467 0.122291 -0.736922 0
M  V30 249 H 27.2087 -0.397802 -1.90797 0
M  V30 250 H 26.3047 0.603061 -3.06218 0
M  V30 251 N 26.6058 1.57591 -0.0167156 0
M  V30 252 C 27.8518 1.91567 0.665582 0
M  V30 253 C 28.1848 0.892298 1.72487 0
M  V30 254 O 27.4598 -0.0867127 1.94307 0
M  V30 255 C 27.7428 3.36069 1.29342 0
M  V30 256 C 27.5958 4.49135 0.244541 0
M  V30 257 C 28.9148 3.803 2.21495 0
M  V30 258 H 26.0338 0.69666 0.240488 0
M  V30 259 H 28.6758 1.89866 -0.0714356 0
M  V30 260 H 26.8258 3.3765 1.92158 0
M  V30 261 H 28.4978 4.59689 -0.385228 0
M  V30 262 H 26.7408 4.3165 -0.431379 0
M  V30 263 H 27.4118 5.47242 0.723207 0
M  V30 264 H 29.8878 3.80377 1.68678 0
M  V30 265 H 28.7638 4.82127 2.62382 0
M  V30 266 H 29.0248 3.15104 3.101 0
M  V30 267 N 28.0839 -0.256276 1.55502 0
M  V30 268 C 29.3299 -0.987079 1.77157 0
M  V30 269 C 29.6629 -1.85327 0.580315 0
M  V30 270 O 28.9379 -1.89874 -0.421686 0
M  V30 271 C 29.2209 -1.85553 3.08613 0
M  V30 272 C 29.0739 -1.01816 4.38125 0
M  V30 273 C 30.3929 -2.8397 3.36228 0
M  V30 274 H 27.5119 -0.357428 0.644526 0
M  V30 275 H 30.1539 -0.258239 1.88237 0
M  V30 276 H 28.3039 -2.47695 2.99298 0
M  V30 277 H 29.9759 -0.416159 4.59419 0
M  V30 278 H 28.2189 -0.322178 4.32602 0
M  V30 279 H 28.8899 -1.65939 5.26468 0
M  V30 280 H 31.3659 -2.31964 3.45445 0
M  V30 281 H 30.2419 -3.41864 4.29442 0
M  V30 282 H 30.5029 -3.59955 2.56681 0
M  V30 283 N 29.562 -1.4872 -0.521534 0
M  V30 284 C 30.978 -1.35028 -0.850855 0
M  V30 285 C 31.178 -0.367712 -1.98116 0
M  V30 286 O 30.234 0.208037 -2.51642 0
M  V30 287 C 31.547 -2.75263 -1.21041 0
M  V30 288 C 33.095 -2.83813 -1.31981 0
M  V30 289 C 33.57 -4.24769 -1.71276 0
M  V30 290 N 35.061 -4.27482 -1.78363 0
M  V30 291 C 35.796 -5.33494 -2.1017 0
M  V30 292 N 35.292 -6.49775 -2.40343 0
M  V30 293 N 37.085 -5.20894 -2.11248 0
M  V30 294 H 29.236 -2.11214 0.22413 0
M  V30 295 H 31.499 -0.947252 0.0376439 0
M  V30 296 H 31.205 -3.48765 -0.453415 0
M  V30 297 H 31.079 -3.09327 -2.15863 0
M  V30 298 H 33.466 -2.10561 -2.06756 0
M  V30 299 H 33.547 -2.53358 -0.352596 0
M  V30 300 H 33.191 -4.9854 -0.970588 0
M  V30 301 H 33.121 -4.52673 -2.69062 0
M  V30 302 H 35.612 -3.43611 -1.57288 0
M  V30 303 H 35.925 -7.26402 -2.63743 0
M  V30 304 H 34.27 -6.53035 -2.37844 0
M  V30 305 H 37.461 -4.29065 -1.87139 0
M  V30 306 H 37.634 -6.03612 -2.35704 0
M  V30 307 N 31.0401 0.771051 -1.3745 0
M  V30 308 C 32.2651 1.56529 -1.36065 0
M  V30 309 C 32.6901 1.88029 0.0515859 0
M  V30 310 O 32.0481 1.49282 1.02882 0
M  V30 311 C 32.0961 2.85187 -2.20683 0
M  V30 312 O 31.2001 3.79593 -1.61193 0
M  V30 313 H 30.5411 0.47411 -0.464883 0
M  V30 314 H 33.0711 0.954269 -1.80983 0
M  V30 315 H 33.0811 3.34283 -2.33921 0
M  V30 316 H 31.7561 2.61588 -3.23334 0
M  V30 317 H 30.3331 3.38239 -1.56999 0
M  V30 318 N 32.5182 1.22032 0.997298 0
M  V30 319 C 33.9292 1.0397 1.55071 0
M  V30 320 C 34.2802 -0.398192 1.92117 0
M  V30 321 O 33.4052 -1.28254 1.74298 0
M  V30 322 C 34.0002 1.88109 2.81781 0
M  V30 323 C 32.5592 1.74357 3.33581 0
M  V30 324 C 31.7062 1.84846 2.06706 0
M  V30 325 H 34.6572 1.35941 0.818883 0
M  V30 326 H 34.6782 1.39589 3.53971 0
M  V30 327 H 34.1902 2.92754 2.54787 0
M  V30 328 H 32.2912 0.72427 3.65493 0
M  V30 329 H 32.4042 2.56772 4.04481 0
M  V30 330 H 30.7682 1.28238 2.20062 0
M  V30 331 H 31.5512 2.91014 1.82114 0
M  V30 332 N 33.9963 -1.19345 1.0293 0
M  V30 333 C 35.2433 -1.89038 0.726008 0
M  V30 334 C 35.5713 -1.79649 -0.745427 0
M  V30 335 O 34.8263 -1.18354 -1.55855 0
M  V30 336 C 35.1253 -3.39292 1.12319 0
M  V30 337 C 34.7913 -3.68885 2.59297 0
M  V30 338 C 33.4533 -3.76671 2.99453 0
M  V30 339 C 35.8053 -3.82178 3.54386 0
M  V30 340 C 33.1333 -3.9522 4.33611 0
M  V30 341 C 35.4853 -4.0224 4.88248 0
M  V30 342 C 34.1493 -4.08259 5.28092 0
M  V30 343 H 33.4193 -0.691739 0.265665 0
M  V30 344 H 36.0663 -1.41328 1.29223 0
M  V30 345 H 34.3713 -3.88903 0.475584 0
M  V30 346 H 36.0683 -3.91536 0.866037 0
M  V30 347 H 32.6583 -3.63433 2.27189 0
M  V30 348 H 36.8423 -3.75505 3.24514 0
M  V30 349 H 32.0983 -3.98119 4.64016 0
M  V30 350 H 36.2723 -4.11468 5.61843 0
M  V30 351 H 33.8993 -4.22384 6.32057 0
M  V30 352 N 35.4744 -0.807222 -1.35358 0
M  V30 353 C 36.3844 -0.219594 -2.3357 0
M  V30 354 C 37.4004 0.637734 -1.61892 0
M  V30 355 O 38.5764 0.549336 -1.93763 0
M  V30 356 C 35.6414 0.62158 -3.41083 0
M  V30 357 C 34.7024 -0.256315 -4.28534 0
M  V30 358 C 33.9354 0.544807 -5.30912 0
M  V30 359 O 34.1584 1.77944 -5.41934 0
M  V30 360 O 33.0924 -0.0646478 -6.01865 0
M  V30 361 H 36.9184 -1.03208 -2.85625 0
M  V30 362 H 34.5034 -0.569025 -1.38139 0
M  V30 363 H 36.3854 1.10067 -4.06772 0
M  V30 364 H 35.0604 1.41165 -2.91297 0
M  V30 365 H 33.9674 -0.782559 -3.65823 0
M  V30 366 H 35.3004 -1.01034 -4.81719 0
M  V30 367 N 36.9525 1.47285 -0.560781 0
M  V30 368 C 38.1825 2.06555 -0.0429638 0
M  V30 369 C 38.5905 1.41339 1.25777 0
M  V30 370 O 37.9335 0.505182 1.76617 0
M  V30 371 C 37.9955 3.58827 0.219887 0
M  V30 372 C 37.6595 4.46105 -0.991944 0
M  V30 373 C 38.6565 4.84 -1.89843 0
M  V30 374 C 36.3415 4.87567 -1.20762 0
M  V30 375 C 38.3355 5.6216 -3.00425 0
M  V30 376 C 36.0225 5.65491 -2.31653 0
M  V30 377 C 37.0205 6.02699 -3.21315 0
M  V30 378 O 36.7085 6.79052 -4.30283 0
M  V30 379 H 36.4405 0.674537 -0.0444468 0
M  V30 380 H 38.9945 1.90225 -0.774818 0
M  V30 381 H 37.2245 3.73383 1.00609 0
M  V30 382 H 38.9135 4.00103 0.683522 0
M  V30 383 H 39.6795 4.52564 -1.74387 0
M  V30 384 H 35.5585 4.5807 -0.518893 0
M  V30 385 H 39.1025 5.9112 -3.70436 0
M  V30 386 H 34.9995 5.9634 -2.47081 0
M  V30 387 H 35.7675 6.9745 -4.28376 0
M  V30 388 N 38.4306 0.297415 1.54768 0
M  V30 389 C 39.8416 -0.195947 1.85669 0
M  V30 390 C 40.1926 -1.53707 1.21937 0
M  V30 391 O 39.3176 -2.10164 0.515754 0
M  V30 392 C 39.9126 -0.362318 3.36857 0
M  V30 393 C 38.4716 -0.799901 3.67802 0
M  V30 394 C 37.6186 0.0938578 2.77141 0
M  V30 395 H 40.5696 0.518538 1.4999 0
M  V30 396 H 40.5906 -1.19745 3.61167 0
M  V30 397 H 40.1026 0.613921 3.83214 0
M  V30 398 H 38.2036 -1.78682 3.26961 0
M  V30 399 H 38.3166 -0.621773 4.75048 0
M  V30 400 H 36.6806 -0.426254 2.51108 0
M  V30 401 H 37.4636 1.06639 3.26318 0
M  V30 402 N 39.9087 -1.5758 0.0250728 0
M  V30 403 C 40.8407 -2.06869 -0.986796 0
M  V30 404 C 41.8537 -0.991332 -1.29137 0
M  V30 405 O 43.0427 -1.26761 -1.25674 0
M  V30 406 C 40.1427 -2.47486 -2.31525 0
M  V30 407 C 39.3157 -3.78253 -2.19643 0
M  V30 408 C 38.3747 -4.05464 -3.35388 0
M  V30 409 O 37.4007 -4.75774 -3.12454 0
M  V30 410 N 38.6027 -3.55321 -4.59051 0
M  V30 411 H 41.3677 -2.94302 -0.566276 0
M  V30 412 H 38.9287 -1.6109 -0.161776 0
M  V30 413 H 40.9207 -2.62785 -3.07776 0
M  V30 414 H 39.4907 -1.65441 -2.65232 0
M  V30 415 H 38.7107 -3.7279 -1.28144 0
M  V30 416 H 39.9987 -4.63936 -2.08903 0
M  V30 417 H 39.3967 -2.98431 -4.80578 0
M  V30 418 H 37.9537 -3.75905 -5.32483 0
M  V30 419 N 41.3868 0.248026 -1.55636 0
M  V30 420 C 42.6168 0.992367 -1.81206 0
M  V30 421 C 43.0248 1.7949 -0.598324 0
M  V30 422 O 42.3678 1.78292 0.442434 0
M  V30 423 C 42.4298 1.97926 -3.00109 0
M  V30 424 C 42.0938 1.36377 -4.36177 0
M  V30 425 C 43.0908 0.76682 -5.14214 0
M  V30 426 C 40.7758 1.38347 -4.82872 0
M  V30 427 C 42.7698 0.197778 -6.37093 0
M  V30 428 C 40.4568 0.810574 -6.057 0
M  V30 429 C 41.4548 0.218754 -6.8265 0
M  V30 430 O 41.1428 -0.345298 -8.03158 0
M  V30 431 H 40.8748 0.297704 -0.606917 0
M  V30 432 H 43.4288 0.276517 -2.0353 0
M  V30 433 H 41.6588 2.73339 -2.73538 0
M  V30 434 H 43.3478 2.58694 -3.12781 0
M  V30 435 H 44.1138 0.744114 -4.79258 0
M  V30 436 H 39.9928 1.8335 -4.2297 0
M  V30 437 H 43.5368 -0.264788 -6.97097 0
M  V30 438 H 39.4338 0.830604 -6.40134 0
M  V30 439 H 40.2018 -0.237055 -8.18157 0
M  V30 440 N 42.8649 1.48995 0.513639 0
M  V30 441 C 44.0949 1.61297 1.291 0
M  V30 442 C 44.5029 0.278656 1.87137 0
M  V30 443 O 43.8459 -0.744325 1.67945 0
M  V30 444 C 43.9079 2.61326 2.46879 0
M  V30 445 C 43.5719 4.05993 2.09807 0
M  V30 446 C 44.5689 4.93183 1.64519 0
M  V30 447 C 42.2539 4.51642 2.19829 0
M  V30 448 C 44.2479 6.24056 1.2974 0
M  V30 449 C 41.9349 5.82532 1.84662 0
M  V30 450 C 42.9329 6.68562 1.3969 0
M  V30 451 O 42.6209 7.97014 1.04992 0
M  V30 452 H 42.3529 0.546236 0.39825 0
M  V30 453 H 44.9069 1.95673 0.62459 0
M  V30 454 H 43.1369 2.22104 3.16554 0
M  V30 455 H 44.8259 2.6329 3.08923 0
M  V30 456 H 45.5919 4.59147 1.56233 0
M  V30 457 H 41.4709 3.84855 2.53786 0
M  V30 458 H 45.0149 6.91161 0.945659 0
M  V30 459 H 40.9119 6.16099 1.92594 0
M  V30 460 H 41.6799 8.09913 1.18249 0
M  V30 461 N 44.343 -0.763751 1.37857 0
M  V30 462 C 45.273 -1.89103 1.36975 0
M  V30 463 C 46.254 -1.68439 0.237152 0
M  V30 464 O 47.439 -1.8918 0.438713 0
M  V30 465 C 44.569 -3.26496 1.18395 0
M  V30 466 C 43.523 -3.61741 2.28751 0
M  V30 467 C 42.849 -4.97762 1.95286 0
M  V30 468 C 44.149 -3.67665 3.70972 0
M  V30 469 H 45.843 -1.90099 2.31307 0
M  V30 470 H 43.389 -0.91319 1.11341 0
M  V30 471 H 45.342 -4.05003 1.16406 0
M  V30 472 H 44.066 -3.25955 0.205215 0
M  V30 473 H 42.725 -2.85547 2.29909 0
M  V30 474 H 42.373 -4.93769 0.959221 0
M  V30 475 H 42.073 -5.22313 2.69189 0
M  V30 476 H 43.597 -5.7866 1.94898 0
M  V30 477 H 45.011 -4.36307 3.719 0
M  V30 478 H 43.408 -4.03718 4.43995 0
M  V30 479 H 44.478 -2.68134 4.0402 0
M  V30 480 N 45.8211 -1.22559 -0.990812 0
M  V30 481 C 46.7841 -0.998863 -2.0629 0
M  V30 482 C 47.7841 0.0354834 -1.60761 0
M  V30 483 O 48.9741 -0.203231 -1.7301 0
M  V30 484 C 46.1061 -0.509203 -3.37076 0
M  V30 485 H 47.2991 -1.95014 -2.27837 0
M  V30 486 H 44.8521 -1.04456 -1.16269 0
M  V30 487 H 45.5871 0.446335 -3.21214 0
M  V30 488 H 45.3721 -1.25547 -3.71457 0
M  V30 489 H 46.8621 -0.370888 -4.1595 0
M  V30 490 N 47.2992 1.18797 -1.03562 0
M  V30 491 C 48.2092 2.25913 -0.632505 0
M  V30 492 C 49.2252 1.70668 0.338882 0
M  V30 493 O 50.4012 2.00453 0.195076 0
M  V30 494 C 47.4662 3.467 0.00350942 0
M  V30 495 C 46.5272 4.17098 -1.01624 0
M  V30 496 C 45.7602 5.32119 -0.410478 0
M  V30 497 O 45.9832 5.64976 0.784725 0
M  V30 498 O 44.9172 5.9107 -1.13667 0
M  V30 499 H 48.7432 2.62648 -1.52478 0
M  V30 500 H 46.3282 1.25781 -0.806195 0
M  V30 501 H 48.2102 4.19878 0.35781 0
M  V30 502 H 46.8852 3.11798 0.869686 0
M  V30 503 H 45.7922 3.4601 -1.42224 0
M  V30 504 H 47.1252 4.55987 -1.85301 0
M  V30 505 N 48.7773 0.814389 1.34928 0
M  V30 506 C 50.1883 0.458364 1.80986 0
M  V30 507 C 50.5393 -1.02042 1.67577 0
M  V30 508 O 49.6643 -1.79352 1.21086 0
M  V30 509 C 50.2593 0.825212 3.28597 0
M  V30 510 C 48.8183 0.521677 3.72767 0
M  V30 511 C 47.9653 1.04668 2.56788 0
M  V30 512 H 50.9163 1.00533 1.22795 0
M  V30 513 H 50.9373 0.12571 3.80292 0
M  V30 514 H 50.4493 1.90154 3.38324 0
M  V30 515 H 48.5503 -0.545589 3.68584 0
M  V30 516 H 48.6633 1.05977 4.67232 0
M  V30 517 H 47.0273 0.468622 2.50352 0
M  V30 518 H 47.8103 2.12927 2.6929 0
M  V30 519 N 50.2554 -1.46986 0.568584 0
M  V30 520 C 51.5014 -2.0332 0.0571487 0
M  V30 521 C 51.8564 -1.43384 -1.28291 0
M  V30 522 O 51.1494 -0.584304 -1.82473 0
M  V30 523 C 51.3434 -3.57306 -0.081836 0
M  V30 524 C 51.1724 -4.32174 1.24321 0
M  V30 525 C 49.9424 -4.71633 1.81358 0
M  V30 526 C 52.1404 -4.66598 2.16312 0
M  V30 527 N 50.1224 -5.31191 3.07748 0
M  V30 528 C 51.4934 -5.26578 3.27285 0
M  V30 529 C 53.5484 -4.48527 2.16166 0
M  V30 530 C 52.2514 -5.70395 4.38226 0
M  V30 531 C 54.2774 -4.93351 3.26127 0
M  V30 532 C 53.6394 -5.5339 4.3582 0
M  V30 533 H 49.7384 -0.77943 0.063351 0
M  V30 534 H 52.3224 -1.79323 0.758378 0
M  V30 535 H 50.4934 -3.81046 -0.752207 0
M  V30 536 H 52.2254 -4.00282 -0.59637 0
M  V30 537 H 48.9804 -4.53946 1.35019 0
M  V30 538 H 49.4044 -5.65505 3.72201 0
M  V30 539 H 54.0464 -4.01456 1.32638 0
M  V30 540 H 51.7644 -6.16452 5.22506 0
M  V30 541 H 55.3504 -4.81131 3.27115 0
M  V30 542 H 54.2304 -5.87441 5.19503 0
M  V30 543 N 51.7335 -0.305618 -1.54608 0
M  V30 544 C 52.6655 0.602161 -2.21149 0
M  V30 545 C 53.6785 1.09394 -1.20569 0
M  V30 546 O 54.8675 1.0106 -1.47136 0
M  V30 547 C 51.9675 1.83692 -2.84799 0
M  V30 548 C 51.1405 1.48686 -4.11353 0
M  V30 549 C 50.1995 2.57725 -4.58764 0
M  V30 550 O 49.2255 2.22623 -5.23858 0
M  V30 551 N 50.4275 3.88346 -4.31471 0
M  V30 552 H 53.1925 0.0324966 -2.99682 0
M  V30 553 H 50.7535 -0.128021 -1.61393 0
M  V30 554 H 52.7455 2.55994 -3.13448 0
M  V30 555 H 51.3155 2.31486 -2.10078 0
M  V30 556 H 50.5355 0.596269 -3.89664 0
M  V30 557 H 51.8235 1.22842 -4.93748 0
M  V30 558 H 51.2215 4.19671 -3.79331 0
M  V30 559 H 49.7785 4.56932 -4.64818 0
M  V30 560 N 53.2116 1.57565 -0.0334293 0
M  V30 561 C 54.4586 1.91978 0.644272 0
M  V30 562 C 54.7866 0.910231 1.71887 0
M  V30 563 O 54.0416 -0.0801961 1.95536 0
M  V30 564 C 54.3406 3.33112 1.29504 0
M  V30 565 C 54.0066 4.49537 0.350388 0
M  V30 566 C 52.6686 4.81115 0.0903974 0
M  V30 567 C 55.0206 5.20347 -0.298032 0
M  V30 568 C 52.3486 5.8086 -0.825746 0
M  V30 569 C 54.7006 6.2107 -1.20226 0
M  V30 570 C 53.3646 6.51088 -1.4711 0
M  V30 571 H 52.6346 0.702496 0.235756 0
M  V30 572 H 55.2816 1.91259 -0.0961176 0
M  V30 573 H 53.5866 3.30113 2.11028 0
M  V30 574 H 55.2836 3.57011 1.82603 0
M  V30 575 H 51.8736 4.24883 0.563205 0
M  V30 576 H 56.0576 4.96178 -0.110234 0
M  V30 577 H 51.3136 6.02461 -1.04169 0
M  V30 578 H 55.4876 6.75057 -1.71086 0
M  V30 579 H 53.1146 7.28193 -2.18264 0
M  V30 580 N 54.6897 -0.239769 1.55765 0
M  V30 581 C 55.9147 -0.988373 1.82335 0
M  V30 582 C 56.3397 -1.77886 0.611421 0
M  V30 583 O 55.6977 -1.75889 -0.439639 0
M  V30 584 C 55.7457 -1.89627 3.06715 0
M  V30 585 O 54.8497 -2.98904 2.84131 0
M  V30 586 H 54.1907 -0.280858 0.601677 0
M  V30 587 H 56.7207 -0.258597 2.02959 0
M  V30 588 H 56.7307 -2.30957 3.36338 0
M  V30 589 H 55.4057 -1.31511 3.9456 0
M  V30 590 H 53.9827 -2.61651 2.65694 0
M  V30 591 N 56.1678 -1.49265 -0.50573 0
M  V30 592 C 57.1008 -1.60183 -1.62532 0
M  V30 593 C 58.0788 -0.451107 -1.56217 0
M  V30 594 O 59.2628 -0.666016 -1.76342 0
M  V30 595 C 56.3898 -1.55238 -3.01029 0
M  V30 596 C 55.4358 -2.7545 -3.25621 0
M  V30 597 S 56.2688 -4.37174 -3.09256 0
M  V30 598 C 57.4248 -4.34866 -4.50158 0
M  V30 599 H 57.6578 -2.54894 -1.53025 0
M  V30 600 H 55.1908 -1.38098 -0.690535 0
M  V30 601 H 57.1488 -1.53071 -3.80893 0
M  V30 602 H 55.8098 -0.618238 -3.07956 0
M  V30 603 H 55.0028 -2.68197 -4.26716 0
M  V30 604 H 54.6048 -2.75005 -2.53472 0
M  V30 605 H 56.8968 -4.06295 -5.42154 0
M  V30 606 H 57.8398 -5.36223 -4.62462 0
M  V30 607 H 58.2478 -3.65007 -4.30616 0
M  V30 608 N 57.6459 0.756429 -1.3826 0
M  V30 609 C 58.5759 1.88374 -1.37976 0
M  V30 610 C 59.5569 1.68311 -0.246082 0
M  V30 611 O 60.7419 1.88944 -0.44874 0
M  V30 612 C 57.8719 3.25864 -1.20125 0
M  V30 613 C 56.8259 3.60523 -2.30666 0
M  V30 614 C 56.1519 4.9672 -1.97923 0
M  V30 615 C 57.4519 3.65692 -3.72916 0
M  V30 616 H 59.1459 1.88869 -2.32312 0
M  V30 617 H 56.6919 0.907272 -1.11824 0
M  V30 618 H 58.6449 4.0438 -1.18552 0
M  V30 619 H 57.3689 3.25841 -0.222498 0
M  V30 620 H 56.0279 2.84324 -2.3142 0
M  V30 621 H 55.6759 4.93253 -0.985393 0
M  V30 622 H 55.3759 5.20878 -2.71955 0
M  V30 623 H 56.8999 5.77618 -1.97964 0
M  V30 624 H 58.3139 4.34328 -3.74208 0
M  V30 625 H 56.7109 4.01358 -4.4613 0
M  V30 626 H 57.7809 2.65987 -4.05436 0
M  V30 627 N 59.124 1.23083 0.984299 0
M  V30 628 C 60.087 1.00979 2.05757 0
M  V30 629 C 61.087 -0.0269573 1.60777 0
M  V30 630 O 62.277 0.212403 1.729 0
M  V30 631 C 59.409 0.527072 3.36801 0
M  V30 632 H 60.602 1.9622 2.26799 0
M  V30 633 H 58.155 1.05072 1.15714 0
M  V30 634 H 58.89 -0.429294 3.21446 0
M  V30 635 H 58.675 1.27515 3.70786 0
M  V30 636 H 60.165 0.392942 4.15747 0
M  V30 637 N 60.6021 -1.18246 1.0419 0
M  V30 638 C 61.5651 -2.20128 0.638452 0
M  V30 639 C 62.5651 -1.57885 -0.304805 0
M  V30 640 O 63.7551 -1.73967 -0.0900369 0
M  V30 641 C 60.8871 -3.4084 -0.0637751 0
M  V30 642 H 62.0801 -2.57336 1.54007 0
M  V30 643 H 59.6331 -1.32152 0.834598 0
M  V30 644 H 60.3681 -3.09166 -0.979136 0
M  V30 645 H 60.1531 -3.8726 0.614198 0
M  V30 646 H 61.6431 -4.16274 -0.332512 0
M  V30 647 N 62.0802 -0.821533 -1.34494 0
M  V30 648 C 63.3102 -0.421272 -2.02259 0
M  V30 649 C 63.7182 0.977047 -1.6202 0
M  V30 650 O 63.0612 1.64348 -0.820703 0
M  V30 651 C 63.1232 -0.44231 -3.56769 0
M  V30 652 C 62.7872 -1.79372 -4.20327 0
M  V30 653 C 63.7842 -2.75435 -4.40944 0
M  V30 654 C 61.4692 -2.08182 -4.57127 0
M  V30 655 C 63.4632 -3.98482 -4.97484 0
M  V30 656 C 61.1502 -3.31489 -5.13379 0
M  V30 657 C 62.1482 -4.26457 -5.33501 0
M  V30 658 O 61.8362 -5.47585 -5.88562 0
M  V30 659 H 61.5682 -0.167473 -0.654927 0
M  V30 660 H 64.1222 -1.11073 -1.72777 0
M  V30 661 H 62.3522 0.303836 -3.85505 0
M  V30 662 H 64.0412 -0.0622925 -4.05852 0
M  V30 663 H 64.8072 -2.54473 -4.12878 0
M  V30 664 H 60.6862 -1.35066 -4.4077 0
M  V30 665 H 64.2302 -4.72618 -5.13106 0
M  V30 666 H 60.1272 -3.52316 -5.40873 0
M  V30 667 H 60.8952 -5.49086 -6.06998 0
M  V30 668 N 63.5583 1.46682 -0.576371 0
M  V30 669 C 64.4913 2.27243 0.208731 0
M  V30 670 C 65.4693 1.35238 0.902746 0
M  V30 671 O 66.6533 1.64641 0.917904 0
M  V30 672 C 63.7803 3.12802 1.29896 0
M  V30 673 C 62.8263 4.20524 0.711457 0
M  V30 674 S 63.6593 5.33548 -0.456781 0
M  V30 675 C 64.8153 6.22673 0.634798 0
M  V30 676 H 65.0483 2.93484 -0.474838 0
M  V30 677 H 62.5813 1.50069 -0.363118 0
M  V30 678 H 64.5393 3.62661 1.92321 0
M  V30 679 H 63.2003 2.45887 1.95444 0
M  V30 680 H 62.3933 4.80191 1.53076 0
M  V30 681 H 61.9953 3.73645 0.162999 0
M  V30 682 H 64.2873 6.60181 1.52209 0
M  V30 683 H 65.2303 7.0806 0.0750311 0
M  V30 684 H 65.6383 5.56684 0.936092 0
M  V30 685 N 65.0364 0.313813 1.54444 0
M  V30 686 C 66.2834 -0.291675 2.00388 0
M  V30 687 C 66.6114 -1.52904 1.2021 0
M  V30 688 O 65.8664 -1.93833 0.269707 0
M  V30 689 C 66.1654 -0.680386 3.50864 0
M  V30 690 C 65.8314 0.456699 4.48581 0
M  V30 691 C 64.4934 0.768824 4.75018 0
M  V30 692 C 66.8454 1.22098 5.06697 0
M  V30 693 C 64.1734 1.84812 5.56831 0
M  V30 694 C 66.5254 2.29029 5.89685 0
M  V30 695 C 65.1894 2.60834 6.14428 0
M  V30 696 H 64.4594 -0.106732 0.733273 0
M  V30 697 H 67.1064 0.43557 1.86481 0
M  V30 698 H 65.4114 -1.48791 3.62448 0
M  V30 699 H 67.1084 -1.16026 3.83847 0
M  V30 700 H 63.6984 0.203337 4.28117 0
M  V30 701 H 67.8824 0.993096 4.86263 0
M  V30 702 H 63.1384 2.09912 5.74236 0
M  V30 703 H 67.3124 2.887 6.33739 0
M  V30 704 H 64.9394 3.44596 6.77612 0
M  V30 705 N 66.5145 -1.57545 0.0417849 0
M  V30 706 C 67.4445 -2.14009 -0.933929 0
M  V30 707 C 68.4255 -1.05938 -1.33083 0
M  V30 708 O 69.6105 -1.33833 -1.40721 0
M  V30 709 C 66.7405 -2.67747 -2.21199 0
M  V30 710 C 65.6945 -3.80718 -1.95544 0
M  V30 711 C 65.0205 -4.20935 -3.29724 0
M  V30 712 C 66.3205 -5.06258 -1.28452 0
M  V30 713 H 68.0145 -2.95788 -0.463645 0
M  V30 714 H 65.5605 -1.42285 -0.221573 0
M  V30 715 H 67.5135 -3.05886 -2.89848 0
M  V30 716 H 66.2375 -1.83147 -2.70416 0
M  V30 717 H 64.8965 -3.43037 -1.2931 0
M  V30 718 H 64.5445 -3.33298 -3.76724 0
M  V30 719 H 64.2445 -4.9707 -3.13361 0
M  V30 720 H 65.7685 -4.61666 -3.9962 0
M  V30 721 H 67.1825 -5.41903 -1.8712 0
M  V30 722 H 65.5795 -5.87475 -1.22445 0
M  V30 723 H 66.6495 -4.84207 -0.259219 0
M  V30 724 N 67.9926 0.231505 -1.5589 0
M  V30 725 C 68.9226 1.29022 -1.94617 0
M  V30 726 C 69.9036 1.4941 -0.813067 0
M  V30 727 O 71.0886 1.6176 -1.07459 0
M  V30 728 C 68.2186 2.64199 -2.25424 0
M  V30 729 C 67.1726 2.58484 -3.41131 0
M  V30 730 C 66.4986 3.97599 -3.57518 0
M  V30 731 C 67.7986 2.1413 -4.76388 0
M  V30 732 H 69.4926 0.968563 -2.83301 0
M  V30 733 H 67.0386 0.464479 -1.36303 0
M  V30 734 H 68.9916 3.38413 -2.51107 0
M  V30 735 H 67.7156 2.98032 -1.33583 0
M  V30 736 H 66.3746 1.86727 -3.15481 0
M  V30 737 H 66.0226 4.28723 -2.6307 0
M  V30 738 H 65.7226 3.94659 -4.35337 0
M  V30 739 H 67.2466 4.7349 -3.85538 0
M  V30 740 H 68.6606 2.78083 -5.01341 0
M  V30 741 H 67.0576 2.2227 -5.57419 0
M  V30 742 H 68.1276 1.09331 -4.72414 0
M  V30 743 N 69.4707 1.49531 0.497807 0
M  V30 744 C 70.7197 1.58426 1.24837 0
M  V30 745 C 71.0327 0.277643 1.93619 0
M  V30 746 O 72.2387 0.24517 2.70391 0
M  V30 747 C 70.6947 2.79538 2.26686 0
M  V30 748 C 70.3027 4.16971 1.63828 0
M  V30 749 C 72.0467 2.97764 3.0255 0
M  V30 750 C 69.9537 5.29301 2.63807 0
M  V30 751 H 68.8837 0.58989 0.469623 0
M  V30 752 H 71.5347 1.75923 0.521857 0
M  V30 753 H 69.9167 2.55542 3.02514 0
M  V30 754 H 71.0907 4.51116 0.939711 0
M  V30 755 H 69.4057 4.04129 1.00342 0
M  V30 756 H 72.0027 3.78856 3.77323 0
M  V30 757 H 72.3457 2.08448 3.60354 0
M  V30 758 H 72.8787 3.21815 2.33838 0
M  V30 759 H 69.6177 6.20687 2.10779 0
M  V30 760 H 69.1377 4.99606 3.31894 0
M  V30 761 H 70.8167 5.58768 3.2617 0
M  V30 762 N 70.9488 -0.749086 1.3866 0
M  V30 763 C 72.1948 -1.51056 1.35314 0
M  V30 764 C 72.5278 -1.94121 -0.0553751 0
M  V30 765 O 71.8028 -1.65763 -1.01749 0
M  V30 766 C 72.0858 -2.76003 2.31288 0
M  V30 767 C 71.9388 -2.39047 3.8102 0
M  V30 768 C 73.2578 -3.78046 2.2532 0
M  V30 769 H 70.3768 -0.547972 0.492844 0
M  V30 770 H 73.0188 -0.857628 1.69543 0
M  V30 771 H 71.1688 -3.31716 2.02229 0
M  V30 772 H 72.8408 -1.89074 4.20771 0
M  V30 773 H 71.0838 -1.71449 3.98482 0
M  V30 774 H 71.7548 -3.28462 4.4364 0
M  V30 775 H 74.2308 -3.31884 2.50983 0
M  V30 776 H 73.1068 -4.63159 2.94576 0
M  V30 777 H 73.3678 -4.23957 1.25352 0
M  V30 778 N 72.4269 -1.23603 -0.977757 0
M  V30 779 C 73.3569 -1.04401 -2.0886 0
M  V30 780 C 74.3379 0.0399052 -1.70053 0
M  V30 781 O 75.5229 -0.125246 -1.93796 0
M  V30 782 C 72.6529 -0.637269 -3.41403 0
M  V30 783 C 71.6069 -1.66883 -3.94124 0
M  V30 784 C 70.9329 -1.11745 -5.22893 0
M  V30 785 C 72.2329 -3.06247 -4.23096 0
M  V30 786 H 73.9269 -1.97316 -2.25182 0
M  V30 787 H 71.4729 -0.950096 -1.08209 0
M  V30 788 H 73.4259 -0.48998 -4.18542 0
M  V30 789 H 72.1499 0.327557 -3.24953 0
M  V30 790 H 70.8089 -1.80416 -3.19133 0
M  V30 791 H 70.4569 -0.143527 -5.02795 0
M  V30 792 H 70.1569 -1.80672 -5.59134 0
M  V30 793 H 71.6809 -0.982067 -6.02651 0
M  V30 794 H 73.0949 -2.96001 -4.90975 0
M  V30 795 H 71.4919 -3.72436 -4.70544 0
M  V30 796 H 72.5619 -3.55041 -3.30263 0
M  V30 797 N 73.905 1.17692 -1.04816 0
M  V30 798 C 75.153 1.87488 -0.754497 0
M  V30 799 C 75.474 1.81205 0.720407 0
M  V30 800 O 74.744 1.23544 1.52032 0
M  V30 801 H 73.324 0.694101 -0.276102 0
M  V30 802 H 75.986 1.42793 -1.32651 0
M  V30 803 H 75.082 2.93328 -1.06606 0
M  V30 804 N 75.3831 0.828654 1.34056 0
M  V30 805 C 76.6301 0.419458 1.98108 0
M  V30 806 C 76.9581 -1.01886 1.65679 0
M  V30 807 O 76.2131 -1.72539 0.923512 0
M  V30 808 C 76.5121 0.575226 3.52741 0
M  V30 809 C 76.1781 1.98012 4.05095 0
M  V30 810 C 74.8401 2.36442 4.19104 0
M  V30 811 C 77.1921 2.89824 4.33188 0
M  V30 812 C 74.5201 3.66009 4.58535 0
M  V30 813 C 76.8721 4.1886 4.74066 0
M  V30 814 C 75.5361 4.5726 4.86281 0
M  V30 815 H 74.8061 0.153491 0.724929 0
M  V30 816 H 77.4531 1.05371 1.59904 0
M  V30 817 H 75.7581 -0.142385 3.91541 0
M  V30 818 H 77.4551 0.239057 4.00287 0
M  V30 819 H 74.0451 1.67162 3.94658 0
M  V30 820 H 78.2291 2.61375 4.21897 0
M  V30 821 H 73.4851 3.95579 4.66184 0
M  V30 822 H 77.6591 4.90086 4.94761 0
M  V30 823 H 75.2861 5.57707 5.16592 0
M  V30 824 N 76.8612 -1.46375 0.584142 0
M  V30 825 C 78.2722 -1.86031 0.157959 0
M  V30 826 C 78.6232 -1.48753 -1.27933 0
M  V30 827 O 77.7482 -0.903098 -1.96655 0
M  V30 828 C 78.3432 -3.37642 0.279892 0
M  V30 829 C 76.9022 -3.76289 -0.09143 0
M  V30 830 C 76.0492 -2.7039 0.615178 0
M  V30 831 H 79.0002 -1.37509 0.792274 0
M  V30 832 H 79.0212 -3.77275 -0.494364 0
M  V30 833 H 78.5332 -3.64742 1.32607 0
M  V30 834 H 76.6342 -3.54806 -1.13769 0
M  V30 835 H 76.7472 -4.78246 0.285886 0
M  V30 836 H 75.1112 -2.5464 0.0552833 0
M  V30 837 H 75.8942 -3.0033 1.66303 0
M  V30 838 N 78.3393 -0.321999 -1.54275 0
M  V30 839 C 79.5883 0.281931 -1.9972 0
M  V30 840 C 79.9013 1.53369 -1.21397 0
M  V30 841 O 81.1073 2.21352 -1.57211 0
M  V30 842 C 79.5633 0.5529 -3.55628 0
M  V30 843 C 79.1713 -0.681721 -4.42783 0
M  V30 844 C 80.9153 1.11687 -4.09544 0
M  V30 845 C 78.8223 -0.382742 -5.9016 0
M  V30 846 H 77.7523 0.109124 -0.746062 0
M  V30 847 H 80.4033 -0.43398 -1.78294 0
M  V30 848 H 78.7853 1.32896 -3.73035 0
M  V30 849 H 79.9593 -1.45723 -4.37151 0
M  V30 850 H 78.2743 -1.1658 -3.99748 0
M  V30 851 H 80.8713 1.35515 -5.17242 0
M  V30 852 H 81.2143 2.06575 -3.61431 0
M  V30 853 H 81.7473 0.402032 -3.95763 0
M  V30 854 H 78.4863 -1.30076 -6.42464 0
M  V30 855 H 78.0063 0.355094 -5.98748 0
M  V30 856 H 79.6853 0.00800157 -6.47 0
M  V30 857 N 79.8174 1.5752 -0.0501392 0
M  V30 858 C 80.7654 2.12651 0.942459 0
M  V30 859 C 81.7594 1.05807 1.32292 0
M  V30 860 O 82.9654 1.24217 1.3027 0
M  V30 861 H 79.3404 0.679673 0.321789 0
M  V30 862 H 81.3114 2.94951 0.452356 0
M  V30 863 C 80.0604 2.68565 2.20836 0
M  V30 864 H 79.3834 3.50439 1.92439 0
M  V30 865 H 80.8234 3.10761 2.8845 0
M  V30 866 C 79.2824 1.62291 2.95234 0
M  V30 867 O 79.8124 1.03508 3.88135 0
M  V30 868 N 78.0184 1.33836 2.57946 0
M  V30 869 H 77.5654 1.81826 1.82475 0
M  V30 870 H 77.5234 0.629595 3.08032 0
M  V30 871 N 81.2955 -0.223234 1.56011 0
M  V30 872 C 82.5425 -0.947875 1.78946 0
M  V30 873 C 82.8705 -1.844 0.618608 0
M  V30 874 O 82.1255 -1.91629 -0.397093 0
M  V30 875 C 82.4245 -1.81948 3.0762 0
M  V30 876 C 82.0905 -1.07672 4.37856 0
M  V30 877 C 80.7525 -0.871544 4.73242 0
M  V30 878 C 83.1045 -0.552081 5.18268 0
M  V30 879 C 80.4325 -0.129791 5.86556 0
M  V30 880 C 82.7845 0.17632 6.32354 0
M  V30 881 C 81.4485 0.39277 6.66343 0
M  V30 882 H 80.7185 -0.346852 0.654809 0
M  V30 883 H 83.3655 -0.216171 1.90276 0
M  V30 884 H 81.6705 -2.61899 2.91404 0
M  V30 885 H 83.3675 -2.38227 3.22566 0
M  V30 886 H 79.9575 -1.24662 4.1007 0
M  V30 887 H 84.1415 -0.698076 4.91366 0
M  V30 888 H 79.3975 0.048153 6.11381 0
M  V30 889 H 83.5715 0.590367 6.93893 0
M  V30 890 H 81.1985 0.969466 7.53993 0
M  V30 891 N 82.7736 -1.49793 -0.48987 0
M  V30 892 C 83.7036 -1.70201 -1.59856 0
M  V30 893 C 84.6846 -0.55076 -1.60937 0
M  V30 894 O 85.8696 -0.787841 -1.77501 0
M  V30 895 C 82.9996 -1.77882 -2.98287 0
M  V30 896 C 81.9536 -2.92907 -3.12073 0
M  V30 897 C 81.2796 -2.85712 -4.51965 0
M  V30 898 C 82.5796 -4.3369 -2.91051 0
M  V30 899 H 84.2736 -2.63025 -1.43032 0
M  V30 900 H 81.8196 -1.26574 -0.686664 0
M  V30 901 H 83.7726 -1.90744 -3.75759 0
M  V30 902 H 82.4966 -0.816653 -3.16225 0
M  V30 903 H 81.1556 -2.79665 -2.37029 0
M  V30 904 H 80.8036 -1.8738 -4.66795 0
M  V30 905 H 80.5036 -3.62921 -4.62128 0
M  V30 906 H 82.0276 -3.00598 -5.31482 0
M  V30 907 H 83.4416 -4.47555 -3.58284 0
M  V30 908 H 81.8386 -5.12205 -3.12675 0
M  V30 909 H 82.9086 -4.47362 -1.87071 0
M  V30 910 N 84.2517 0.741722 -1.39055 0
M  V30 911 C 85.4797 1.53098 -1.39171 0
M  V30 912 C 85.8947 1.88794 0.0155099 0
M  V30 913 O 85.2517 1.53626 0.985159 0
M  V30 914 C 85.3027 2.82274 -2.2584 0
M  V30 915 O 85.0237 2.48097 -3.61081 0
M  V30 916 C 86.5247 3.76343 -2.34266 0
M  V30 917 H 83.7447 0.473335 -0.4756 0
M  V30 918 H 86.2887 0.917045 -1.82785 0
M  V30 919 H 84.4437 3.40015 -1.85656 0
M  V30 920 H 84.8577 3.31029 -4.06842 0
M  V30 921 H 86.3317 4.63898 -2.9917 0
M  V30 922 H 86.8087 4.17619 -1.35982 0
M  V30 923 H 87.4147 3.24523 -2.74891 0
M  V30 924 N 85.7298 1.2412 0.971189 0
M  V30 925 C 86.6598 1.05508 2.08304 0
M  V30 926 C 87.6408 -0.0308864 1.70072 0
M  V30 927 O 88.8258 0.135521 1.93727 0
M  V30 928 C 85.9558 0.655365 3.4106 0
M  V30 929 C 84.9098 1.68971 3.93234 0
M  V30 930 C 84.2358 1.14516 5.22293 0
M  V30 931 C 85.5358 3.08487 4.21465 0
M  V30 932 H 87.2298 1.98507 2.24132 0
M  V30 933 H 84.7758 0.955821 1.07704 0
M  V30 934 H 86.7288 0.51217 4.18276 0
M  V30 935 H 85.4528 -0.31032 3.25122 0
M  V30 936 H 84.1118 1.82106 3.18171 0
M  V30 937 H 83.7598 0.170189 5.02712 0
M  V30 938 H 83.4598 1.83635 5.58168 0
M  V30 939 H 84.9838 1.01401 6.02121 0
M  V30 940 H 86.3978 2.98601 4.89398 0
M  V30 941 H 84.7948 3.74926 4.68562 0
M  V30 942 H 85.8648 3.56787 3.28376 0
M  V30 943 N 87.2079 -1.17134 1.05439 0
M  V30 944 C 88.4379 -1.91094 0.785274 0
M  V30 945 C 88.8459 -1.77198 -0.663142 0
M  V30 946 O 88.1889 -1.10835 -1.46497 0
M  V30 947 C 88.2509 -3.42594 1.08949 0
M  V30 948 C 87.9149 -3.80274 2.53458 0
M  V30 949 C 88.9119 -3.82912 3.51673 0
M  V30 950 C 86.5969 -4.11162 2.88532 0
M  V30 951 C 88.5909 -4.15913 4.83006 0
M  V30 952 C 86.2779 -4.43831 4.20068 0
M  V30 953 C 87.2759 -4.46185 5.17115 0
M  V30 954 O 86.9639 -4.78083 6.46291 0
M  V30 955 H 86.6959 -0.613073 0.284811 0
M  V30 956 H 89.2499 -1.49461 1.40893 0
M  V30 957 H 87.4799 -3.84534 0.408741 0
M  V30 958 H 89.1689 -3.97817 0.805991 0
M  V30 959 H 89.9349 -3.5917 3.25917 0
M  V30 960 H 85.8139 -4.085 2.13656 0
M  V30 961 H 89.3579 -4.17665 5.5875 0
M  V30 962 H 85.2549 -4.67037 4.45586 0
M  V30 963 H 86.0229 -4.9593 6.51149 0
M  V30 964 N 88.686 -0.835752 -1.33615 0
M  V30 965 C 89.932 -0.430596 -1.98176 0
M  V30 966 C 90.265 1.00684 -1.66061 0
M  V30 967 O 89.54 1.70339 -0.938877 0
M  V30 968 C 89.823 -0.648065 -3.5422 0
M  V30 969 C 89.676 -2.13255 -3.96033 0
M  V30 970 C 90.995 -0.0922113 -4.40003 0
M  V30 971 H 88.114 -0.157924 -0.719881 0
M  V30 972 H 90.756 -1.05069 -1.58305 0
M  V30 973 H 88.906 -0.120237 -3.88314 0
M  V30 974 H 90.578 -2.725 -3.72211 0
M  V30 975 H 88.821 -2.61823 -3.45878 0
M  V30 976 H 89.492 -2.23547 -5.04708 0
M  V30 977 H 91.968 -0.543343 -4.12537 0
M  V30 978 H 90.844 -0.274083 -5.48215 0
M  V30 979 H 91.105 1.00378 -4.30554 0
M  V30 980 N 90.1641 1.46063 -0.591896 0
M  V30 981 C 91.3921 2.06717 -0.0868936 0
M  V30 982 C 91.8071 1.43916 1.22203 0
M  V30 983 O 91.1641 0.547698 1.74088 0
M  V30 984 C 91.2151 3.6142 0.0758725 0
M  V30 985 O 90.9361 4.21874 -1.18126 0
M  V30 986 C 92.4371 4.39025 0.61416 0
M  V30 987 H 89.6571 0.668162 -0.0616518 0
M  V30 988 H 92.2011 1.8755 -0.815175 0
M  V30 989 H 90.3561 3.79983 0.754413 0
M  V30 990 H 90.7701 5.14861 -1.00092 0
M  V30 991 H 92.2441 5.4783 0.677193 0
M  V30 992 H 92.7211 4.07708 1.63312 0
M  V30 993 H 93.3271 4.2529 -0.0298142 0
M  V30 994 N 91.6422 0.330177 1.54103 0
M  V30 995 C 92.8882 -0.270806 2.00984 0
M  V30 996 C 93.2212 -1.51265 1.21789 0
M  V30 997 O 92.4962 -1.92142 0.301927 0
M  V30 998 C 92.7792 -0.598339 3.55094 0
M  V30 999 C 92.6322 0.654674 4.4501 0
M  V30 1000 C 93.9512 -1.41334 4.16789 0
M  V30 1001 H 91.0702 -0.0969531 0.730595 0
M  V30 1002 H 93.7122 0.448066 1.84641 0
M  V30 1003 H 91.8622 -1.21078 3.69151 0
M  V30 1004 H 93.5342 1.29285 4.42813 0
M  V30 1005 H 91.7772 1.28224 4.14416 0
M  V30 1006 H 92.4482 0.380944 5.50684 0
M  V30 1007 H 94.9242 -0.895597 4.06347 0
M  V30 1008 H 93.8002 -1.61127 5.24718 0
M  V30 1009 H 94.0612 -2.41146 3.70541 0
M  V30 1010 N 93.1203 -1.57491 0.0584922 0
M  V30 1011 C 94.0523 -2.08916 -0.942694 0
M  V30 1012 C 95.0653 -1.0185 -1.27006 0
M  V30 1013 O 96.2543 -1.29398 -1.22957 0
M  V30 1014 C 93.3543 -2.52341 -2.26224 0
M  V30 1015 C 92.5273 -3.82827 -2.1157 0
M  V30 1016 C 91.5863 -4.12487 -3.26712 0
M  V30 1017 O 90.6123 -4.82295 -3.02292 0
M  V30 1018 N 91.8143 -3.64978 -4.5141 0
M  V30 1019 H 94.5793 -2.95437 -0.503722 0
M  V30 1020 H 92.1403 -1.61397 -0.12757 0
M  V30 1021 H 94.1323 -2.69254 -3.02133 0
M  V30 1022 H 92.7023 -1.7103 -2.61663 0
M  V30 1023 H 91.9223 -3.75425 -1.20208 0
M  V30 1024 H 93.2103 -4.68263 -1.99015 0
M  V30 1025 H 92.6083 -3.08558 -4.7414 0
M  V30 1026 H 91.1653 -3.87115 -5.2439 0
M  V30 1027 N 94.5984 0.214957 -1.56127 0
M  V30 1028 C 95.5484 1.27006 -1.8935 0
M  V30 1029 C 96.5324 1.41969 -0.757202 0
M  V30 1030 O 97.7244 1.44673 -1.01973 0
M  V30 1031 C 94.8534 2.61911 -2.2194 0
M  V30 1032 C 93.9394 2.50822 -3.41978 0
M  V30 1033 N 94.3304 2.09391 -4.60423 0
M  V30 1034 C 92.6284 2.81765 -3.45723 0
M  V30 1035 C 93.3294 2.09712 -5.42582 0
M  V30 1036 N 92.3054 2.50454 -4.82466 0
M  V30 1037 H 96.1074 0.940734 -2.78437 0
M  V30 1038 H 93.6214 0.423492 -1.56781 0
M  V30 1039 H 95.6184 3.38096 -2.43919 0
M  V30 1040 H 94.2784 2.95684 -1.34169 0
M  V30 1041 H 95.2894 1.80416 -4.85459 0
M  V30 1042 H 91.9664 3.19865 -2.68314 0
M  V30 1043 H 93.3564 1.79748 -6.4741 0
M  V30 1044 N 96.0765 1.50051 0.48192 0
M  V30 1045 C 97.0235 1.68122 1.58125 0
M  V30 1046 C 97.9935 0.522545 1.57666 0
M  V30 1047 O 99.1785 0.751844 1.75362 0
M  V30 1048 C 96.3185 1.77142 2.96167 0
M  V30 1049 C 95.4315 3.0444 3.06497 0
M  V30 1050 C 94.5665 3.04321 4.35387 0
M  V30 1051 C 93.6055 4.26118 4.3942 0
M  V30 1052 N 92.7425 4.238 5.59766 0
M  V30 1053 H 97.5825 2.6198 1.42022 0
M  V30 1054 H 95.1195 1.29877 0.690687 0
M  V30 1055 H 97.0775 1.80352 3.76203 0
M  V30 1056 H 95.7075 0.867329 3.1093 0
M  V30 1057 H 94.7595 3.10752 2.19402 0
M  V30 1058 H 96.0715 3.94426 3.05336 0
M  V30 1059 H 95.2255 3.062 5.23762 0
M  V30 1060 H 93.9645 2.12147 4.39141 0
M  V30 1061 H 92.9695 4.24463 3.49444 0
M  V30 1062 H 94.1945 5.19507 4.37366 0
M  V30 1063 H 92.1405 3.34474 5.64326 0
M  V30 1064 H 92.0575 5.07542 5.60301 0
M  V30 1065 H 93.3255 4.2981 6.50295 0
M  V30 1066 N 97.5546 -0.734337 1.39446 0
M  V30 1067 C 98.5016 -1.84835 1.38219 0
M  V30 1068 C 99.4716 -1.64331 0.24179 0
M  V30 1069 O 100.657 -1.85728 0.437002 0
M  V30 1070 C 97.7966 -3.22355 1.23212 0
M  V30 1071 C 96.9096 -3.5456 2.46801 0
M  V30 1072 C 96.0446 -4.81485 2.24377 0
M  V30 1073 C 95.0836 -5.06536 3.43639 0
M  V30 1074 N 94.2206 -6.24665 3.20528 0
M  V30 1075 H 99.0606 -1.85219 2.33448 0
M  V30 1076 H 96.5976 -0.905039 1.15963 0
M  V30 1077 H 98.5556 -4.0174 1.12522 0
M  V30 1078 H 97.1856 -3.21248 0.316121 0
M  V30 1079 H 96.2376 -2.69872 2.68092 0
M  V30 1080 H 97.5496 -3.6899 3.3563 0
M  V30 1081 H 96.7036 -5.68852 2.10933 0
M  V30 1082 H 95.4426 -4.6923 1.32944 0
M  V30 1083 H 94.4476 -4.17632 3.5758 0
M  V30 1084 H 95.6726 -5.20676 4.35974 0
M  V30 1085 H 93.6186 -6.13696 2.3176 0
M  V30 1086 H 93.5356 -6.39685 4.02913 0
M  V30 1087 H 94.8036 -7.14868 3.10779 0
M  V30 1088 N 99.0327 -1.24633 -0.964593 0
M  V30 1089 C 99.9627 -1.06611 -2.07741 0
M  V30 1090 C 100.944 0.0218666 -1.70086 0
M  V30 1091 O 102.129 -0.145793 -1.93652 0
M  V30 1092 C 99.2587 -0.673444 -3.40708 0
M  V30 1093 C 98.2127 -1.71054 -3.92332 0
M  V30 1094 C 97.5387 -1.17285 -5.21678 0
M  V30 1095 C 98.8387 -3.10718 -4.19824 0
M  V30 1096 H 100.533 -1.99693 -2.23076 0
M  V30 1097 H 98.0787 -0.96152 -1.07195 0
M  V30 1098 H 100.032 -0.534345 -4.17998 0
M  V30 1099 H 98.7557 0.293073 -3.25282 0
M  V30 1100 H 97.4147 -1.83791 -3.17201 0
M  V30 1101 H 97.0627 -0.196847 -5.02615 0
M  V30 1102 H 96.7627 -1.86592 -5.57187 0
M  V30 1103 H 98.2867 -1.04593 -6.01575 0
M  V30 1104 H 99.7007 -3.01192 -4.87808 0
M  V30 1105 H 98.0977 -3.77406 -4.66567 0
M  V30 1106 H 99.1677 -3.58524 -3.26479 0
M  V30 1107 N 100.511 1.16574 -1.06058 0
M  V30 1108 C 101.927 1.3904 -0.783585 0
M  V30 1109 C 102.127 1.91784 0.618145 0
M  V30 1110 O 101.183 2.11511 1.37911 0
M  V30 1111 C 102.496 2.37329 -1.84649 0
M  V30 1112 C 104.044 2.51018 -1.86973 0
M  V30 1113 C 104.519 3.52588 -2.92311 0
M  V30 1114 N 106.01 3.60113 -2.91329 0
M  V30 1115 C 106.745 4.38486 -3.69482 0
M  V30 1116 N 106.241 5.20302 -4.57447 0
M  V30 1117 N 108.034 4.33446 -3.57885 0
M  V30 1118 H 100.185 0.806725 -1.96483 0
M  V30 1119 H 102.448 0.417117 -0.851303 0
M  V30 1120 H 102.154 2.05663 -2.85299 0
M  V30 1121 H 102.028 3.36946 -1.6955 0
M  V30 1122 H 104.415 2.81989 -0.869827 0
M  V30 1123 H 104.496 1.51445 -2.0615 0
M  V30 1124 H 104.14 3.22354 -3.92492 0
M  V30 1125 H 104.07 4.51886 -2.70383 0
M  V30 1126 H 106.561 3.01707 -2.27555 0
M  V30 1127 H 106.874 5.77311 -5.13743 0
M  V30 1128 H 105.219 5.19653 -4.61503 0
M  V30 1129 H 108.41 3.68586 -2.88551 0
M  V30 1130 H 108.583 4.94279 -4.19037 0
M  V30 1131 N 101.989 0.842826 1.3317 0
M  V30 1132 C 103.217 0.454055 2.01856 0
M  V30 1133 C 103.632 -0.94587 1.63397 0
M  V30 1134 O 102.989 -1.61534 0.849302 0
M  V30 1135 C 103.04 0.569715 3.56982 0
M  V30 1136 O 102.761 1.91448 3.94055 0
M  V30 1137 C 104.262 0.178412 4.42941 0
M  V30 1138 H 101.482 0.17979 0.646465 0
M  V30 1139 H 104.026 1.1365 1.70012 0
M  V30 1140 H 102.181 -0.0648587 3.87346 0
M  V30 1141 H 102.595 1.90282 4.88767 0
M  V30 1142 H 104.069 0.310376 5.51127 0
M  V30 1143 H 104.546 -0.880056 4.30293 0
M  V30 1144 H 105.152 0.787579 4.17944 0
M  V30 1145 N 103.467 -1.45747 0.599634 0
M  V30 1146 C 104.878 -1.85853 0.177681 0
M  V30 1147 C 105.229 -1.50102 -1.26348 0
M  V30 1148 O 104.354 -0.923905 -1.95686 0
M  V30 1149 C 104.949 -3.37326 0.315688 0
M  V30 1150 C 103.508 -3.76365 -0.0515144 0
M  V30 1151 C 102.655 -2.69722 0.643822 0
M  V30 1152 H 105.606 -1.36661 0.806814 0
M  V30 1153 H 105.627 -3.77778 -0.454321 0
M  V30 1154 H 105.139 -3.63315 1.36468 0
M  V30 1155 H 103.24 -3.55993 -1.09999 0
M  V30 1156 H 103.353 -4.77916 0.336594 0
M  V30 1157 H 101.717 -2.54567 0.0822881 0
M  V30 1158 H 102.5 -2.98549 1.6948 0
M  V30 1159 N 104.945 -0.338344 -1.53925 0
M  V30 1160 C 105.875 0.51328 -2.27789 0
M  V30 1161 C 106.856 1.107 -1.29149 0
M  V30 1162 O 108.041 1.12937 -1.57984 0
M  V30 1163 C 105.171 1.66697 -3.04679 0
M  V30 1164 C 104.125 1.20183 -4.1078 0
M  V30 1165 C 103.451 2.44363 -4.75595 0
M  V30 1166 C 104.751 0.30605 -5.21403 0
M  V30 1167 H 106.445 -0.102883 -2.99223 0
M  V30 1168 H 103.991 -0.0509219 -1.4391 0
M  V30 1169 H 105.944 2.26915 -3.55088 0
M  V30 1170 H 104.668 2.30995 -2.30887 0
M  V30 1171 H 103.327 0.622499 -3.61276 0
M  V30 1172 H 102.975 3.07057 -3.98403 0
M  V30 1173 H 102.675 2.13925 -5.47275 0
M  V30 1174 H 104.199 3.05317 -5.28786 0
M  V30 1175 H 105.613 0.814929 -5.67478 0
M  V30 1176 H 104.01 0.0937929 -6.00027 0
M  V30 1177 H 105.08 -0.65921 -4.80398 0
M  V30 1178 N 106.423 1.57458 -0.0668435 0
M  V30 1179 C 107.371 2.13639 0.919851 0
M  V30 1180 C 108.365 1.07204 1.31163 0
M  V30 1181 O 109.571 1.25591 1.28945 0
M  V30 1182 H 105.946 0.683048 0.314562 0
M  V30 1183 H 107.917 2.95415 0.421047 0
M  V30 1184 C 106.666 2.70892 2.17975 0
M  V30 1185 H 105.989 3.5246 1.88711 0
M  V30 1186 H 107.429 3.13803 2.85138 0
M  V30 1187 C 105.888 1.65414 2.93496 0
M  V30 1188 O 106.418 1.07619 3.87015 0
M  V30 1189 N 104.624 1.36564 2.56512 0
M  V30 1190 H 104.171 1.83751 1.80536 0
M  V30 1191 H 104.129 0.66223 3.07347 0
M  V30 1192 N 107.901 -0.206675 1.56239 0
M  V30 1193 C 109.131 -0.943975 1.83773 0
M  V30 1194 C 109.539 -1.77841 0.645703 0
M  V30 1195 O 108.882 -1.79403 -0.395008 0
M  V30 1196 C 108.944 -1.899 3.05251 0
M  V30 1197 C 108.608 -1.24764 4.39639 0
M  V30 1198 C 109.605 -0.630216 5.16066 0
M  V30 1199 C 107.29 -1.25496 4.8637 0
M  V30 1200 C 109.284 -0.0287946 6.37393 0
M  V30 1201 C 106.971 -0.649698 6.07637 0
M  V30 1202 C 107.969 -0.0376845 6.8299 0
M  V30 1203 O 107.657 0.55812 8.0196 0
M  V30 1204 H 107.389 -0.281508 0.614597 0
M  V30 1205 H 109.943 -0.222458 2.04192 0
M  V30 1206 H 108.173 -2.6599 2.80689 0
M  V30 1207 H 109.862 -2.5031 3.1953 0
M  V30 1208 H 110.628 -0.616785 4.81062 0
M  V30 1209 H 106.507 -1.72072 4.27683 0
M  V30 1210 H 110.051 0.449518 6.9615 0
M  V30 1211 H 105.948 -0.660592 6.42111 0
M  V30 1212 H 106.716 0.453891 8.17241 0
M  V30 1213 N 109.379 -1.50304 -0.473955 0
M  V30 1214 C 110.628 -1.60392 -1.22301 0
M  V30 1215 C 110.941 -0.308411 -1.93153 0
M  V30 1216 O 112.147 -0.288156 -2.69966 0
M  V30 1217 C 110.603 -2.83109 -2.2221 0
M  V30 1218 C 110.211 -4.19524 -1.57173 0
M  V30 1219 C 111.955 -3.0254 -2.97775 0
M  V30 1220 C 109.862 -5.33431 -2.55353 0
M  V30 1221 H 108.792 -0.597286 -0.460179 0
M  V30 1222 H 111.443 -1.76731 -0.493803 0
M  V30 1223 H 109.825 -2.60322 -2.9841 0
M  V30 1224 H 110.999 -4.52554 -0.867824 0
M  V30 1225 H 109.314 -4.05674 -0.939002 0
M  V30 1226 H 111.911 -3.84811 -3.71248 0
M  V30 1227 H 112.254 -2.14154 -3.56992 0
M  V30 1228 H 112.787 -3.25494 -2.28688 0
M  V30 1229 H 109.526 -6.23962 -2.00878 0
M  V30 1230 H 109.046 -5.04823 -3.23904 0
M  V30 1231 H 110.725 -5.63887 -3.17239 0
M  V30 1232 N 110.857 0.726932 -1.39834 0
M  V30 1233 C 111.787 1.85405 -1.41941 0
M  V30 1234 C 112.768 1.67751 -0.281728 0
M  V30 1235 O 113.953 1.8795 -0.488717 0
M  V30 1236 C 111.083 3.23243 -1.2701 0
M  V30 1237 C 110.037 3.55549 -2.38262 0
M  V30 1238 C 109.363 4.9241 -2.08415 0
M  V30 1239 C 110.663 3.577 -3.80589 0
M  V30 1240 H 112.357 1.83899 -2.36266 0
M  V30 1241 H 109.903 0.883349 -1.13723 0
M  V30 1242 H 111.856 4.01775 -1.27103 0
M  V30 1243 H 110.58 3.25296 -0.291564 0
M  V30 1244 H 109.239 2.79351 -2.37399 0
M  V30 1245 H 108.887 4.91052 -1.0898 0
M  V30 1246 H 108.587 5.14992 -2.82943 0
M  V30 1247 H 110.111 5.73289 -2.10171 0
M  V30 1248 H 111.525 4.26293 -3.83337 0
M  V30 1249 H 109.922 3.91804 -4.54543 0
M  V30 1250 H 110.992 2.57328 -4.10987 0
M  V30 1251 N 112.336 1.25143 0.95797 0
M  V30 1252 C 113.266 1.07711 2.07173 0
M  V30 1253 C 114.247 -0.0128462 1.70095 0
M  V30 1254 O 115.432 0.156061 1.93572 0
M  V30 1255 C 112.562 0.691503 3.40346 0
M  V30 1256 C 111.516 1.73132 3.9142 0
M  V30 1257 C 110.842 1.20049 5.21049 0
M  V30 1258 C 112.142 3.1294 4.1817 0
M  V30 1259 H 113.836 2.00873 2.22014 0
M  V30 1260 H 111.382 0.967191 1.06684 0
M  V30 1261 H 113.335 0.556505 4.17709 0
M  V30 1262 H 112.059 -0.275819 3.25433 0
M  V30 1263 H 110.718 1.8547 3.16222 0
M  V30 1264 H 110.366 0.223499 5.02503 0
M  V30 1265 H 110.066 1.89545 5.56189 0
M  V30 1266 H 111.59 1.07782 6.01012 0
M  V30 1267 H 113.004 3.03775 4.86203 0
M  V30 1268 H 111.401 3.79875 4.64559 0
M  V30 1269 H 112.471 3.6025 3.24573 0
M  V30 1270 N 113.814 -1.1601 1.06675 0
M  V30 1271 C 114.762 -2.22586 0.675157 0
M  V30 1272 C 115.756 -1.66525 -0.310766 0
M  V30 1273 O 116.962 -1.79145 -0.175215 0
M  V30 1274 H 113.337 -0.724855 0.200223 0
M  V30 1275 H 115.308 -2.52899 1.58381 0
M  V30 1276 C 114.057 -3.47604 0.0817162 0
M  V30 1277 H 113.38 -3.91058 0.831484 0
M  V30 1278 H 114.82 -4.23718 -0.154708 0
M  V30 1279 C 113.279 -3.15718 -1.17576 0
M  V30 1280 O 113.809 -3.31878 -2.26318 0
M  V30 1281 N 112.015 -2.69816 -1.07923 0
M  V30 1282 H 111.562 -2.56866 -0.194293 0
M  V30 1283 H 111.52 -2.48855 -1.92141 0
M  V30 1284 N 115.292 -0.849877 -1.32721 0
M  V30 1285 C 116.222 -0.306308 -2.31482 0
M  V30 1286 C 117.203 0.591952 -1.59468 0
M  V30 1287 O 118.388 0.513199 -1.87296 0
M  V30 1288 C 115.518 0.510204 -3.43532 0
M  V30 1289 C 114.472 -0.293209 -4.26994 0
M  V30 1290 C 113.798 0.647743 -5.30762 0
M  V30 1291 C 115.098 -1.51634 -4.99804 0
M  V30 1292 H 116.792 -1.13153 -2.77195 0
M  V30 1293 H 114.338 -0.545553 -1.33266 0
M  V30 1294 H 116.291 0.900856 -4.11658 0
M  V30 1295 H 115.015 1.36874 -2.96535 0
M  V30 1296 H 113.674 -0.665555 -3.60508 0
M  V30 1297 H 113.322 1.50299 -4.8002 0
M  V30 1298 H 113.022 0.11422 -5.87489 0
M  V30 1299 H 114.546 1.03567 -6.01753 0
M  V30 1300 H 115.96 -1.19824 -5.60638 0
M  V30 1301 H 114.357 -1.98745 -5.66234 0
M  V30 1302 H 115.427 -2.28018 -4.27943 0
M  V30 1303 N 116.77 1.45427 -0.607355 0
M  V30 1304 C 117.733 2.28974 0.101693 0
M  V30 1305 C 118.733 1.39754 0.795329 0
M  V30 1306 O 119.923 1.61878 0.643527 0
M  V30 1307 C 117.055 3.20768 1.15414 0
M  V30 1308 H 118.248 2.93147 -0.632844 0
M  V30 1309 H 115.801 1.51945 -0.366391 0
M  V30 1310 H 116.536 2.61395 1.91945 0
M  V30 1311 H 116.321 3.86489 0.66098 0
M  V30 1312 H 117.811 3.83589 1.65073 0
M  V30 1313 N 118.248 0.346503 1.53744 0
M  V30 1314 C 119.494 -0.249473 2.0126 0
M  V30 1315 C 119.827 -1.49965 1.23386 0
M  V30 1316 O 119.102 -1.91811 0.32229 0
M  V30 1317 C 119.385 -0.560643 3.55709 0
M  V30 1318 C 119.238 0.701836 4.44291 0
M  V30 1319 C 120.557 -1.36905 4.18264 0
M  V30 1320 H 117.676 -0.0891987 0.731582 0
M  V30 1321 H 120.318 0.467624 1.84156 0
M  V30 1322 H 118.468 -1.17156 3.70414 0
M  V30 1323 H 120.14 1.33974 4.41417 0
M  V30 1324 H 118.383 1.32612 4.13033 0
M  V30 1325 H 119.054 0.43933 5.50249 0
M  V30 1326 H 121.53 -0.852448 4.07275 0
M  V30 1327 H 120.406 -1.55553 5.26398 0
M  V30 1328 H 120.667 -2.37203 3.73078 0
M  V30 1329 N 119.726 -1.57421 0.075193 0
M  V30 1330 C 120.689 -2.11791 -0.876203 0
M  V30 1331 C 121.689 -1.04268 -1.22412 0
M  V30 1332 O 122.879 -1.30242 -1.15684 0
M  V30 1333 C 120.011 -2.62207 -2.17854 0
M  V30 1334 H 121.204 -2.9716 -0.40444 0
M  V30 1335 H 118.757 -1.55333 -0.173557 0
M  V30 1336 H 119.492 -1.803 -2.6956 0
M  V30 1337 H 119.277 -3.40802 -1.93897 0
M  V30 1338 H 120.767 -3.04335 -2.85955 0
M  V30 1339 N 121.204 0.198386 -1.56346 0
M  V30 1340 C 122.481 0.944982 -1.71258 0
M  V30 1341 C 122.861 2.0151 -0.629048 0
M  V30 1342 O 122.209 2.25639 0.360473 0
M  V30 1343 C 122.419 1.5344 -3.1346 0
M  V30 1344 C 123.767 2.01778 -3.73591 0
M  V30 1345 O 124.791 1.63288 -3.16568 0
M  V30 1346 O 123.65 2.72594 -4.73661 0
M  V30 1347 H 120.744 0.442939 -0.69838 0
M  V30 1348 H 123.29 0.188342 -1.68652 0
M  V30 1349 H 122.062 0.762869 -3.83792 0
M  V30 1350 H 121.685 2.35596 -3.20282 0
M  V30 1351 N 122.682 1.50554 0.465978 0
M  V30 1352 C 123.612 1.72722 1.57128 0
M  V30 1353 C 124.593 0.576294 1.6004 0
M  V30 1354 O 125.778 0.81598 1.76225 0
M  V30 1355 C 122.908 1.82605 2.95419 0
M  V30 1356 C 121.862 2.97835 3.07373 0
M  V30 1357 C 121.188 2.92867 4.47363 0
M  V30 1358 C 122.488 4.38265 2.84114 0
M  V30 1359 H 124.182 2.65267 1.38829 0
M  V30 1360 H 121.728 1.2765 0.666441 0
M  V30 1361 H 123.681 1.96698 3.72677 0
M  V30 1362 H 122.405 0.866858 3.14886 0
M  V30 1363 H 121.064 2.83401 2.3255 0
M  V30 1364 H 120.712 1.94783 4.63755 0
M  V30 1365 H 120.412 3.70227 4.56296 0
M  V30 1366 H 121.936 3.09015 5.26633 0
M  V30 1367 H 123.35 4.53198 3.51118 0
M  V30 1368 H 121.747 5.17115 3.04487 0
M  V30 1369 H 122.817 4.50281 1.7993 0
M  V30 1370 N 124.16 -0.719506 1.40217 0
M  V30 1371 C 125.407 -1.47933 1.38283 0
M  V30 1372 C 125.735 -1.94493 -0.0161536 0
M  V30 1373 O 124.99 -1.68224 -0.999956 0
M  V30 1374 C 125.289 -2.72271 2.31524 0
M  V30 1375 C 124.955 -2.44496 3.78857 0
M  V30 1376 C 123.617 -2.36631 4.18998 0
M  V30 1377 C 125.969 -2.21104 4.71977 0
M  V30 1378 C 123.297 -2.03437 5.503 0
M  V30 1379 C 125.649 -1.89423 6.03574 0
M  V30 1380 C 124.313 -1.80038 6.42762 0
M  V30 1381 H 123.583 -0.541325 0.506012 0
M  V30 1382 H 126.23 -0.824502 1.72842 0
M  V30 1383 H 124.535 -3.42572 1.90137 0
M  V30 1384 H 126.232 -3.30348 2.27313 0
M  V30 1385 H 122.822 -2.51503 3.47051 0
M  V30 1386 H 127.006 -2.26139 4.41786 0
M  V30 1387 H 122.262 -1.94705 5.79569 0
M  V30 1388 H 126.436 -1.70336 6.75247 0
M  V30 1389 H 124.063 -1.54083 7.44421 0
M  V30 1390 N 125.638 -1.25649 -0.95132 0
M  V30 1391 C 126.571 -1.00644 -2.04807 0
M  V30 1392 C 127.549 0.0654271 -1.62468 0
M  V30 1393 O 128.733 -0.074911 -1.88351 0
M  V30 1394 C 125.86 -0.522052 -3.34653 0
M  V30 1395 C 124.906 -1.58495 -3.95957 0
M  V30 1396 S 125.739 -3.17108 -4.31512 0
M  V30 1397 C 126.895 -2.70412 -5.64471 0
M  V30 1398 H 127.128 -1.93508 -2.25703 0
M  V30 1399 H 124.661 -1.09216 -1.09139 0
M  V30 1400 H 126.619 -0.24923 -4.09743 0
M  V30 1401 H 125.28 0.386146 -3.11717 0
M  V30 1402 H 124.473 -1.1968 -4.89584 0
M  V30 1403 H 124.075 -1.80862 -3.2736 0
M  V30 1404 H 126.367 -2.14245 -6.42733 0
M  V30 1405 H 127.31 -3.62693 -6.08161 0
M  V30 1406 H 127.718 -2.10302 -5.23864 0
M  V30 1407 N 127.117 1.15442 -1.07289 0
M  V30 1408 C 128.363 1.86489 -0.796846 0
M  V30 1409 C 128.696 1.82078 0.675371 0
M  V30 1410 O 127.971 1.24346 1.4956 0
M  V30 1411 C 128.254 3.35626 -1.30489 0
M  V30 1412 C 128.107 3.48673 -2.84161 0
M  V30 1413 C 129.426 4.30357 -0.920907 0
M  V30 1414 H 126.545 0.677144 -0.290939 0
M  V30 1415 H 129.187 1.35633 -1.33056 0
M  V30 1416 H 127.337 3.79068 -0.850883 0
M  V30 1417 H 129.009 3.14099 -3.37846 0
M  V30 1418 H 127.252 2.90253 -3.22391 0
M  V30 1419 H 127.923 4.53453 -3.14777 0
M  V30 1420 H 130.399 3.94871 -1.3121 0
M  V30 1421 H 129.275 5.33193 -1.30372 0
M  V30 1422 H 129.536 4.4176 0.173226 0
M  V30 1423 N 128.595 0.856903 1.32268 0
M  V30 1424 C 129.525 0.31858 2.31316 0
M  V30 1425 C 130.506 -0.583487 1.59779 0
M  V30 1426 O 131.691 -0.503259 1.87566 0
M  V30 1427 C 128.821 -0.491979 3.43798 0
M  V30 1428 C 127.775 0.315849 4.26833 0
M  V30 1429 C 127.101 -0.619586 5.31098 0
M  V30 1430 C 128.401 1.54282 4.98993 0
M  V30 1431 H 130.095 1.14621 2.76591 0
M  V30 1432 H 127.641 0.552613 1.32974 0
M  V30 1433 H 129.594 -0.879012 4.1213 0
M  V30 1434 H 128.318 -1.35299 2.97257 0
M  V30 1435 H 126.977 0.684664 3.6015 0
M  V30 1436 H 126.625 -1.47751 4.8081 0
M  V30 1437 H 126.325 -0.0830621 5.87541 0
M  V30 1438 H 127.849 -1.00375 6.02293 0
M  V30 1439 H 129.263 1.22796 5.59995 0
M  V30 1440 H 127.66 2.01745 5.65172 0
M  V30 1441 H 128.73 2.30285 4.26728 0
M  V30 1442 N 130.073 -1.45103 0.615059 0
M  V30 1443 C 131.321 -2.01784 0.112955 0
M  V30 1444 C 131.642 -1.48504 -1.26378 0
M  V30 1445 O 130.912 -0.682245 -1.83636 0
M  V30 1446 H 129.492 -0.745993 0.0387668 0
M  V30 1447 H 132.154 -1.77808 0.798141 0
M  V30 1448 H 131.25 -3.12025 0.0684069 0
M  V30 1449 N 131.551 -0.354651 -1.53558 0
M  V30 1450 C 132.799 0.237972 -2.00694 0
M  V30 1451 C 133.12 1.50173 -1.24391 0
M  V30 1452 O 132.39 1.92673 -0.354135 0
M  V30 1453 H 130.97 0.0909256 -0.741446 0
M  V30 1454 H 133.632 -0.478368 -1.88938 0
M  V30 1455 H 132.728 0.47264 -3.085 0
M  V30 1456 N 133.029 1.57378 -0.0835403 0
M  V30 1457 C 134.276 1.9393 0.58287 0
M  V30 1458 C 134.604 0.964455 1.68904 0
M  V30 1459 O 133.859 -0.0179474 1.95692 0
M  V30 1460 C 134.158 3.37063 1.1884 0
M  V30 1461 C 133.824 4.50424 0.207194 0
M  V30 1462 C 132.486 4.81159 -0.0627115 0
M  V30 1463 C 134.838 5.19136 -0.463426 0
M  V30 1464 C 132.166 5.77939 -1.01012 0
M  V30 1465 C 134.518 6.16931 -1.39924 0
M  V30 1466 C 133.182 6.46078 -1.67749 0
M  V30 1467 H 132.452 0.70964 0.213287 0
M  V30 1468 H 135.099 1.90856 -0.156916 0
M  V30 1469 H 133.404 3.3666 2.00418 0
M  V30 1470 H 135.101 3.6264 1.71153 0
M  V30 1471 H 131.691 4.2646 0.427747 0
M  V30 1472 H 135.875 4.95576 -0.268034 0
M  V30 1473 H 131.131 5.98842 -1.23283 0
M  V30 1474 H 135.305 6.69273 -1.92476 0
M  V30 1475 H 132.932 7.2088 -2.41321 0
M  V30 1476 N 134.507 -0.190092 1.56449 0
M  V30 1477 C 135.735 -0.925772 1.85033 0
M  V30 1478 C 136.15 -1.76638 0.666658 0
M  V30 1479 O 135.507 -1.78822 -0.364565 0
M  V30 1480 C 135.558 -1.81786 3.12468 0
M  V30 1481 O 135.279 -1.01118 4.26271 0
M  V30 1482 C 136.78 -2.6648 3.54265 0
M  V30 1483 H 134 -0.269872 0.614337 0
M  V30 1484 H 136.544 -0.195837 2.0356 0
M  V30 1485 H 134.699 -2.50136 2.95822 0
M  V30 1486 H 135.113 -1.61956 4.98869 0
M  V30 1487 H 136.587 -3.24722 4.46385 0
M  V30 1488 H 137.064 -3.40434 2.77491 0
M  V30 1489 H 137.67 -2.03493 3.73458 0
M  V30 1490 N 135.985 -1.50799 -0.457987 0
M  V30 1491 C 137.21 -1.66496 -1.23668 0
M  V30 1492 C 137.635 -0.353288 -1.84752 0
M  V30 1493 O 136.993 0.684346 -1.67888 0
M  V30 1494 C 137.041 -2.76763 -2.3116 0
M  V30 1495 O 136.145 -2.38928 -3.36136 0
M  V30 1496 H 135.486 -0.555828 -0.363252 0
M  V30 1497 H 138.016 -1.9725 -0.543474 0
M  V30 1498 H 138.026 -3.00232 -2.76269 0
M  V30 1499 H 136.701 -3.71954 -1.86073 0
M  V30 1500 H 135.278 -2.25953 -2.96647 0
M  V30 1501 N 137.463 0.71206 -1.40597 0
M  V30 1502 C 138.691 1.50111 -1.42388 0
M  V30 1503 C 139.106 1.88784 -0.0245395 0
M  V30 1504 O 138.463 1.55681 0.952351 0
M  V30 1505 C 138.514 2.7742 -2.31776 0
M  V30 1506 O 138.235 2.40382 -3.66262 0
M  V30 1507 C 139.736 3.7129 -2.42196 0
M  V30 1508 H 136.956 0.46314 -0.485533 0
M  V30 1509 H 139.5 0.878068 -1.8469 0
M  V30 1510 H 137.655 3.36001 -1.92827 0
M  V30 1511 H 138.069 3.22324 -4.13772 0
M  V30 1512 H 139.543 4.57448 -3.08943 0
M  V30 1513 H 140.02 4.14641 -1.44809 0
M  V30 1514 H 140.626 3.18619 -2.81712 0
M  V30 1515 N 138.941 1.26152 0.944643 0
M  V30 1516 C 139.871 1.09902 2.06019 0
M  V30 1517 C 140.852 0.00519538 1.70099 0
M  V30 1518 O 142.037 0.176583 1.93396 0
M  V30 1519 C 139.167 0.727562 3.39594 0
M  V30 1520 C 138.121 1.77274 3.89561 0
M  V30 1521 C 137.447 1.25569 5.19747 0
M  V30 1522 C 138.747 3.17357 4.14827 0
M  V30 1523 H 140.441 2.03217 2.19871 0
M  V30 1524 H 137.987 0.978452 1.05652 0
M  V30 1525 H 139.94 0.600777 4.17095 0
M  V30 1526 H 138.664 -0.241287 3.25707 0
M  V30 1527 H 137.323 1.88814 3.14237 0
M  V30 1528 H 136.971 0.276783 5.02238 0
M  V30 1529 H 136.671 1.95433 5.54148 0
M  V30 1530 H 138.195 1.1415 5.99835 0
M  V30 1531 H 139.609 3.08914 4.82954 0
M  V30 1532 H 138.006 3.84781 4.60504 0
M  V30 1533 H 139.076 3.63673 3.20734 0
M  V30 1534 N 140.419 -1.14872 1.07899 0
M  V30 1535 C 141.649 -1.89386 0.825631 0
M  V30 1536 C 142.057 -1.78565 -0.625406 0
M  V30 1537 O 141.4 -1.13918 -1.44113 0
M  V30 1538 C 141.462 -3.40206 1.16191 0
M  V30 1539 C 141.126 -3.74812 2.61467 0
M  V30 1540 C 142.123 -3.75367 3.59716 0
M  V30 1541 C 139.808 -4.0495 2.97189 0
M  V30 1542 C 141.802 -4.05574 4.9172 0
M  V30 1543 C 139.489 -4.34821 4.29388 0
M  V30 1544 C 140.487 -4.35116 5.26463 0
M  V30 1545 O 140.175 -4.64267 6.56286 0
M  V30 1546 H 139.907 -0.606894 0.297751 0
M  V30 1547 H 142.461 -1.46438 1.44031 0
M  V30 1548 H 140.691 -3.8358 0.490214 0
M  V30 1549 H 142.38 -3.96018 0.890193 0
M  V30 1550 H 143.146 -3.52176 3.33462 0
M  V30 1551 H 139.025 -4.03876 2.22273 0
M  V30 1552 H 142.569 -4.05719 5.67484 0
M  V30 1553 H 138.466 -4.5748 4.55392 0
M  V30 1554 H 139.234 -4.82007 6.61522 0
M  V30 1555 N 141.898 -0.863906 -1.31812 0
M  V30 1556 C 143.126 -0.486111 -2.01108 0
M  V30 1557 C 143.541 0.919755 -1.64882 0
M  V30 1558 O 142.898 1.60162 -0.874893 0
M  V30 1559 C 142.949 -0.626435 -3.56031 0
M  V30 1560 O 142.67 -1.97693 -3.90959 0
M  V30 1561 C 144.171 -0.248857 -4.42601 0
M  V30 1562 H 141.391 -0.190052 -0.643523 0
M  V30 1563 H 143.935 -1.1634 -1.68182 0
M  V30 1564 H 142.09 0.00322717 -3.874 0
M  V30 1565 H 142.504 -1.98034 -4.85678 0
M  V30 1566 H 143.978 -0.398016 -5.50563 0
M  V30 1567 H 144.455 0.811489 -4.31638 0
M  V30 1568 H 145.061 -0.853971 -4.16638 0
M  V30 1569 N 143.376 1.44774 -0.622745 0
M  V30 1570 C 144.601 2.06999 -0.128968 0
M  V30 1571 C 145.026 1.4617 1.1839 0
M  V30 1572 O 144.384 0.560007 1.72434 0
M  V30 1573 C 144.432 3.60595 -0.0188351 0
M  V30 1574 O 143.536 3.99398 1.02739 0
M  V30 1575 H 142.877 0.659047 -0.0809544 0
M  V30 1576 H 145.407 1.85784 -0.85705 0
M  V30 1577 H 145.417 4.07627 0.174476 0
M  V30 1578 H 144.092 4.04252 -0.977384 0
M  V30 1579 H 142.669 3.64011 0.809326 0
M  V30 1580 N 144.854 0.36279 1.53368 0
M  V30 1581 C 145.784 -0.476976 2.28576 0
M  V30 1582 C 146.765 -1.08631 1.30894 0
M  V30 1583 O 147.95 -1.10409 1.59761 0
M  V30 1584 C 145.08 -1.61828 3.07293 0
M  V30 1585 C 144.034 -1.13633 4.1264 0
M  V30 1586 C 143.36 -2.36766 4.79423 0
M  V30 1587 C 144.66 -0.223061 5.21823 0
M  V30 1588 H 146.354 0.150474 2.99022 0
M  V30 1589 H 143.9 0.0738103 1.43811 0
M  V30 1590 H 145.853 -2.21237 3.58653 0
M  V30 1591 H 144.577 -2.27292 2.34533 0
M  V30 1592 H 143.236 -0.564945 3.62221 0
M  V30 1593 H 142.884 -3.0068 4.03238 0
M  V30 1594 H 142.584 -2.05192 5.50609 0
M  V30 1595 H 144.108 -2.96865 5.33576 0
M  V30 1596 H 145.522 -0.724545 5.68703 0
M  V30 1597 H 143.919 0.001678 6.001 0
M  V30 1598 H 144.989 0.735553 4.79289 0
M  V30 1599 N 146.332 -1.57332 0.0918853 0
M  V30 1600 C 147.282 -2.10385 -0.87876 0
M  V30 1601 C 148.266 -1.01814 -1.24591 0
M  V30 1602 O 149.458 -1.28093 -1.22152 0
M  V30 1603 C 146.587 -2.68517 -2.13901 0
M  V30 1604 C 145.673 -3.84126 -1.79744 0
M  V30 1605 N 146.064 -4.92288 -1.1613 0
M  V30 1606 C 144.362 -3.93801 -2.09373 0
M  V30 1607 C 145.063 -5.7295 -1.00513 0
M  V30 1608 N 144.039 -5.21876 -1.5214 0
M  V30 1609 H 147.841 -2.91395 -0.38293 0
M  V30 1610 H 145.355 -1.62017 -0.111423 0
M  V30 1611 H 147.352 -3.04852 -2.84378 0
M  V30 1612 H 146.012 -1.88961 -2.64053 0
M  V30 1613 H 147.023 -5.1123 -0.828504 0
M  V30 1614 H 143.7 -3.25249 -2.61762 0
M  V30 1615 H 145.09 -6.69978 -0.507902 0
M  V30 1616 N 147.81 0.181792 -1.56548 0
M  V30 1617 C 149.058 0.89832 -1.81038 0
M  V30 1618 C 149.379 1.83232 -0.667164 0
M  V30 1619 O 148.649 1.93372 0.313673 0
M  V30 1620 H 147.229 0.33471 -0.667816 0
M  V30 1621 H 149.891 0.184116 -1.94028 0
M  V30 1622 H 148.987 1.4815 -2.74696 0
M  V30 1623 N 149.288 1.51039 0.449983 0
M  V30 1624 C 150.518 1.66627 1.22143 0
M  V30 1625 C 150.926 0.357776 1.85786 0
M  V30 1626 O 150.269 -0.672424 1.70951 0
M  V30 1627 C 150.331 2.71562 2.35573 0
M  V30 1628 C 149.995 4.14526 1.92399 0
M  V30 1629 C 150.992 4.99717 1.43453 0
M  V30 1630 C 148.677 4.60559 2.00475 0
M  V30 1631 C 150.671 6.28998 1.03155 0
M  V30 1632 C 148.358 5.8984 1.59788 0
M  V30 1633 C 149.356 6.73886 1.11208 0
M  V30 1634 O 149.044 8.0075 0.710935 0
M  V30 1635 H 148.776 0.562635 0.374724 0
M  V30 1636 H 151.33 1.98146 0.541036 0
M  V30 1637 H 149.56 2.3533 3.06849 0
M  V30 1638 H 151.249 2.76156 2.97478 0
M  V30 1639 H 152.015 4.65361 1.36618 0
M  V30 1640 H 147.894 3.95273 2.37235 0
M  V30 1641 H 151.438 6.9455 0.651663 0
M  V30 1642 H 147.335 6.23713 1.66289 0
M  V30 1643 H 148.103 8.142 0.837913 0
M  V30 1644 N 150.766 -0.704594 1.40972 0
M  V30 1645 C 152.013 -1.46458 1.39844 0
M  V30 1646 C 152.341 -1.94499 0.00447594 0
M  V30 1647 O 151.596 -1.69275 -0.982057 0
M  V30 1648 C 151.895 -2.698 2.34399 0
M  V30 1649 C 151.561 -2.40464 3.81429 0
M  V30 1650 C 150.223 -2.32174 4.21484 0
M  V30 1651 C 152.575 -2.16086 4.74296 0
M  V30 1652 C 149.903 -1.97589 5.52427 0
M  V30 1653 C 152.255 -1.83011 6.05549 0
M  V30 1654 C 150.919 -1.7321 6.44635 0
M  V30 1655 H 150.189 -0.535927 0.511725 0
M  V30 1656 H 152.836 -0.806124 1.73706 0
M  V30 1657 H 151.141 -3.40536 1.93759 0
M  V30 1658 H 152.838 -3.27919 2.30804 0
M  V30 1659 H 149.428 -2.47808 3.49699 0
M  V30 1660 H 153.612 -2.2144 4.4416 0
M  V30 1661 H 148.868 -1.88547 5.81601 0
M  V30 1662 H 153.042 -1.63164 6.77016 0
M  V30 1663 H 150.669 -1.46179 7.46013 0
M  V30 1664 N 152.244 -1.26651 -0.937939 0
M  V30 1665 C 153.49 -1.12553 -1.687 0
M  V30 1666 C 153.823 0.329782 -1.91379 0
M  V30 1667 O 153.098 1.24202 -1.4968 0
M  V30 1668 C 153.381 -1.89862 -3.05981 0
M  V30 1669 C 153.234 -3.43318 -2.90607 0
M  V30 1670 C 154.553 -1.69499 -4.0615 0
M  V30 1671 H 151.672 -0.410257 -0.612257 0
M  V30 1672 H 154.314 -1.55685 -1.08913 0
M  V30 1673 H 152.464 -1.53204 -3.57017 0
M  V30 1674 H 154.136 -3.89747 -2.46769 0
M  V30 1675 H 152.379 -3.70179 -2.26164 0
M  V30 1676 H 153.05 -3.92642 -3.8799 0
M  V30 1677 H 155.526 -2.01442 -3.64088 0
M  V30 1678 H 154.402 -2.26002 -5.00214 0
M  V30 1679 H 154.663 -0.640365 -4.37438 0
M  V30 1680 N 153.722 1.14298 -1.08507 0
M  V30 1681 C 154.969 1.85359 -0.815373 0
M  V30 1682 C 155.297 1.83001 0.658865 0
M  V30 1683 O 154.552 1.25655 1.50031 0
M  V30 1684 C 154.851 3.33547 -1.28379 0
M  V30 1685 C 154.517 3.56093 -2.76602 0
M  V30 1686 C 153.179 3.61955 -3.17084 0
M  V30 1687 C 155.531 3.64834 -3.72217 0
M  V30 1688 C 152.859 3.74082 -4.51973 0
M  V30 1689 C 155.211 3.78487 -5.06883 0
M  V30 1690 C 153.875 3.82598 -5.46969 0
M  V30 1691 H 153.145 0.678276 -0.298366 0
M  V30 1692 H 155.792 1.35002 -1.35819 0
M  V30 1693 H 154.097 3.86191 -0.660593 0
M  V30 1694 H 155.794 3.86959 -1.05186 0
M  V30 1695 H 152.384 3.52179 -2.4427 0
M  V30 1696 H 156.568 3.59595 -3.42061 0
M  V30 1697 H 151.824 3.75527 -4.82483 0
M  V30 1698 H 155.998 3.84193 -5.80834 0
M  V30 1699 H 153.625 3.91747 -6.51489 0
M  V30 1700 N 155.201 0.870884 1.31352 0
M  V30 1701 C 156.449 0.48132 1.96285 0
M  V30 1702 C 156.77 -0.969813 1.69173 0
M  V30 1703 O 156.04 -1.67998 1.00764 0
M  V30 1704 H 154.62 0.175002 0.726212 0
M  V30 1705 H 157.282 1.11087 1.60143 0
M  V30 1706 H 156.378 0.639825 3.05471 0
M  V30 1707 N 156.679 -1.44442 0.630414 0
M  V30 1708 C 158.09 -1.85434 0.217063 0
M  V30 1709 C 158.441 -1.52748 -1.23136 0
M  V30 1710 O 157.566 -0.965205 -1.93682 0
M  V30 1711 C 158.161 -3.36581 0.387168 0
M  V30 1712 C 156.72 -3.76389 0.0283297 0
M  V30 1713 C 155.867 -2.68296 0.700889 0
M  V30 1714 H 158.818 -1.34919 0.83562 0
M  V30 1715 H 158.839 -3.78657 -0.374086 0
M  V30 1716 H 158.351 -3.60339 1.44144 0
M  V30 1717 H 156.452 -3.58246 -1.02423 0
M  V30 1718 H 156.565 -4.77095 0.437892 0
M  V30 1719 H 154.929 -2.54335 0.136267 0
M  V30 1720 H 155.712 -2.94887 1.75774 0
M  V30 1721 N 158.157 -0.370918 -1.53173 0
M  V30 1722 C 159.385 0.217704 -2.05751 0
M  V30 1723 C 159.8 1.42018 -1.24404 0
M  V30 1724 O 159.157 1.80245 -0.286033 0
M  V30 1725 C 159.208 0.605954 -3.56385 0
M  V30 1726 O 158.929 -0.548734 -4.3465 0
M  V30 1727 C 160.43 1.2524 -4.25241 0
M  V30 1728 H 157.65 0.0371659 -0.66997 0
M  V30 1729 H 160.194 -0.530832 -1.9749 0
M  V30 1730 H 158.349 1.3044 -3.6478 0
M  V30 1731 H 158.763 -0.23376 -5.23979 0
M  V30 1732 H 160.237 1.47458 -5.3194 0
M  V30 1733 H 160.714 2.2143 -3.79296 0
M  V30 1734 H 161.32 0.595233 -4.21114 0
M  V30 1735 N 159.635 1.57281 -0.100228 0
M  V30 1736 C 160.883 1.94153 0.561157 0
M  V30 1737 C 161.204 0.983157 1.68401 0
M  V30 1738 O 160.474 0.0361132 1.95867 0
M  V30 1739 H 159.054 0.716791 0.210283 0
M  V30 1740 H 161.716 1.94202 -0.164765 0
M  V30 1741 H 160.812 2.96709 0.968008 0
M  V30 1742 N 161.113 -0.173488 1.56642 0
M  V30 1743 C 162.353 -0.896984 1.83667 0
M  V30 1744 C 162.717 -1.79523 0.680842 0
M  V30 1745 O 163.918 -2.55616 0.831488 0
M  V30 1746 C 162.189 -1.67351 3.15798 0
M  V30 1747 S 163.748 -2.44607 3.64298 0
M  V30 1748 H 160.566 -0.300464 0.644393 0
M  V30 1749 H 163.168 -0.158775 1.94854 0
M  V30 1750 H 161.872 -1.00462 3.97914 0
M  V30 1751 H 161.403 -2.45313 3.07546 0
M  V30 1752 H 163.418 -3.69261 3.31452 0
M  V30 1753 N 162.591 -1.51276 -0.441967 0
M  V30 1754 C 163.539 -1.72823 -1.55676 0
M  V30 1755 C 164.533 -0.59445 -1.58627 0
M  V30 1756 O 165.739 -0.775715 -1.62427 0
M  V30 1757 H 162.114 -0.545983 -0.517113 0
M  V30 1758 H 164.085 -2.6628 -1.34675 0
M  V30 1759 C 162.834 -1.86619 -2.93375 0
M  V30 1760 H 162.157 -2.73264 -2.91834 0
M  V30 1761 H 163.597 -2.05709 -3.70756 0
M  V30 1762 C 162.056 -0.624842 -3.31055 0
M  V30 1763 O 162.586 0.222636 -4.01083 0
M  V30 1764 N 160.792 -0.470288 -2.86769 0
M  V30 1765 H 160.339 -1.161 -2.29953 0
M  V30 1766 H 160.297 0.359051 -3.12343 0
M  V30 1767 N 164.069 0.697108 -1.41344 0
M  V30 1768 C 164.999 1.82353 -1.45841 0
M  V30 1769 C 165.98 1.67115 -0.317247 0
M  V30 1770 O 167.165 1.86871 -0.528474 0
M  V30 1771 C 164.295 3.20476 -1.33838 0
M  V30 1772 C 163.249 3.50415 -2.4575 0
M  V30 1773 C 162.575 4.87878 -2.18813 0
M  V30 1774 C 163.875 3.49546 -3.88091 0
M  V30 1775 H 165.569 1.78846 -2.40113 0
M  V30 1776 H 163.115 0.859028 -1.15571 0
M  V30 1777 H 165.068 3.98988 -1.35596 0
M  V30 1778 H 163.792 3.24604 -0.360498 0
M  V30 1779 H 162.451 2.74253 -2.43271 0
M  V30 1780 H 162.099 4.8863 -1.19371 0
M  V30 1781 H 161.799 5.08875 -2.93803 0
M  V30 1782 H 163.323 5.68702 -2.22284 0
M  V30 1783 H 164.737 4.18066 -3.92293 0
M  V30 1784 H 163.134 3.82075 -4.62751 0
M  V30 1785 H 164.204 2.48552 -4.16353 0
M  V30 1786 N 165.547 1.27147 0.931209 0
M  V30 1787 C 166.457 1.11372 2.06478 0
M  V30 1788 C 167.473 0.044645 1.73943 0
M  V30 1789 O 168.649 0.250417 1.99837 0
M  V30 1790 C 165.714 0.758838 3.38294 0
M  V30 1791 C 164.775 1.90841 3.84549 0
M  V30 1792 C 164.008 1.57036 5.10074 0
M  V30 1793 O 164.231 0.476645 5.68405 0
M  V30 1794 O 163.165 2.40839 5.51616 0
M  V30 1795 H 166.991 2.06493 2.22698 0
M  V30 1796 H 164.576 1.06301 1.04978 0
M  V30 1797 H 166.458 0.574098 4.17471 0
M  V30 1798 H 165.133 -0.162879 3.2329 0
M  V30 1799 H 164.04 2.14819 3.06274 0
M  V30 1800 H 165.373 2.81021 4.04089 0
M  V30 1801 N 167.025 -1.13721 1.09112 0
M  V30 1802 C 168.273 -1.84559 0.823562 0
M  V30 1803 C 168.594 -1.83754 -0.652658 0
M  V30 1804 O 167.864 -1.29102 -1.47342 0
M  V30 1805 H 166.444 -0.683376 0.301673 0
M  V30 1806 H 169.106 -1.37771 1.37859 0
M  V30 1807 H 168.202 -2.8917 1.17419 0
M  V30 1808 N 168.503 -0.877838 -1.30888 0
M  V30 1809 C 169.75 -0.492696 -1.96415 0
M  V30 1810 C 170.078 0.956671 -1.69346 0
M  V30 1811 O 169.333 1.68993 -0.986913 0
M  V30 1812 C 169.632 -0.705748 -3.50363 0
M  V30 1813 C 169.298 -2.1291 -3.97467 0
M  V30 1814 C 167.96 -2.51834 -4.1004 0
M  V30 1815 C 170.312 -3.05702 -4.22132 0
M  V30 1816 C 167.64 -3.82775 -4.44635 0
M  V30 1817 C 169.992 -4.36166 -4.58194 0
M  V30 1818 C 168.656 -4.74993 -4.68975 0
M  V30 1819 H 167.926 -0.18029 -0.718733 0
M  V30 1820 H 170.573 -1.11233 -1.55883 0
M  V30 1821 H 168.878 -0.00303058 -3.918 0
M  V30 1822 H 170.575 -0.387456 -3.99124 0
M  V30 1823 H 167.165 -1.81694 -3.88182 0
M  V30 1824 H 171.349 -2.76853 -4.11906 0
M  V30 1825 H 166.605 -4.12609 -4.51181 0
M  V30 1826 H 170.779 -5.08111 -4.76231 0
M  V30 1827 H 168.406 -5.76495 -4.95537 0
M  V30 1828 N 169.982 1.44106 -0.638065 0
M  V30 1829 C 171.229 2.01978 -0.14533 0
M  V30 1830 C 171.557 1.50234 1.23532 0
M  V30 1831 O 170.812 0.679548 1.83523 0
M  V30 1832 C 171.111 3.5729 -0.0887327 0
M  V30 1833 C 170.777 4.28317 -1.40909 0
M  V30 1834 C 169.439 4.47437 -1.77069 0
M  V30 1835 C 171.791 4.6867 -2.28031 0
M  V30 1836 C 169.119 5.04171 -3.00047 0
M  V30 1837 C 171.471 5.26766 -3.50286 0
M  V30 1838 C 170.135 5.44104 -3.86661 0
M  V30 1839 H 169.405 0.739089 -0.0531801 0
M  V30 1840 H 172.052 1.72781 -0.825761 0
M  V30 1841 H 170.357 3.8594 0.675095 0
M  V30 1842 H 172.054 3.99807 0.309145 0
M  V30 1843 H 168.644 4.1377 -1.1177 0
M  V30 1844 H 172.828 4.53604 -2.01388 0
M  V30 1845 H 168.084 5.15782 -3.28298 0
M  V30 1846 H 172.258 5.56983 -4.18023 0
M  V30 1847 H 169.885 5.87832 -4.82034 0
M  V30 1848 N 171.46 0.379036 1.52974 0
M  V30 1849 C 172.423 -0.448865 2.24762 0
M  V30 1850 C 173.423 -0.998689 1.26027 0
M  V30 1851 O 174.613 -0.882313 1.50203 0
M  V30 1852 C 171.745 -1.62872 2.99476 0
M  V30 1853 H 172.938 0.179491 2.99362 0
M  V30 1854 H 170.491 0.13096 1.5575 0
M  V30 1855 H 171.226 -2.29479 2.29151 0
M  V30 1856 H 171.011 -1.24128 3.71934 0
M  V30 1857 H 172.501 -2.2151 3.5401 0
M  V30 1858 N 172.938 -1.57226 0.108567 0
M  V30 1859 C 174.166 -1.99179 -0.559954 0
M  V30 1860 C 174.581 -0.988022 -1.60884 0
M  V30 1861 O 173.938 0.0205512 -1.82488 0
M  V30 1862 C 173.989 -3.41159 -1.19552 0
M  V30 1863 O 173.71 -4.37694 -0.188577 0
M  V30 1864 C 175.211 -3.98188 -1.94837 0
M  V30 1865 H 172.431 -0.654228 -0.149088 0
M  V30 1866 H 174.975 -2.03598 0.19183 0
M  V30 1867 H 173.13 -3.37711 -1.89815 0
M  V30 1868 H 173.544 -5.20469 -0.649014 0
M  V30 1869 H 175.018 -4.99644 -2.34648 0
M  V30 1870 H 175.495 -3.3675 -2.81951 0
M  V30 1871 H 176.101 -4.0515 -1.2936 0
M  V30 1872 N 174.416 0.165178 -1.56732 0
M  V30 1873 C 175.346 1.20651 -1.99914 0
M  V30 1874 C 176.327 1.45827 -0.875705 0
M  V30 1875 O 177.512 1.57057 -1.14223 0
M  V30 1876 C 174.642 2.54401 -2.36427 0
M  V30 1877 C 173.596 2.43782 -3.51787 0
M  V30 1878 C 172.922 3.82078 -3.7406 0
M  V30 1879 C 174.222 1.93732 -4.85041 0
M  V30 1880 H 175.916 0.847534 -2.87154 0
M  V30 1881 H 173.462 0.40625 -1.38151 0
M  V30 1882 H 175.415 3.27458 -2.65234 0
M  V30 1883 H 174.139 2.92098 -1.46103 0
M  V30 1884 H 172.798 1.73178 -3.23117 0
M  V30 1885 H 172.446 4.17179 -2.81017 0
M  V30 1886 H 172.146 3.7584 -4.51684 0
M  V30 1887 H 173.67 4.56712 -4.05274 0
M  V30 1888 H 175.084 2.56569 -5.12684 0
M  V30 1889 H 173.481 1.98428 -5.66345 0
M  V30 1890 H 174.551 0.891962 -4.76626 0
M  V30 1891 N 175.894 1.51508 0.433938 0
M  V30 1892 C 177.142 1.6402 1.18075 0
M  V30 1893 C 177.463 0.360328 1.91642 0
M  V30 1894 O 176.733 -0.623945 1.85698 0
M  V30 1895 H 175.313 0.6045 0.43885 0
M  V30 1896 H 177.975 1.88452 0.497178 0
M  V30 1897 H 177.071 2.46949 1.90847 0
M  V30 1898 N 177.372 -0.689602 1.41712 0
M  V30 1899 C 178.62 -1.4468 1.4111 0
M  V30 1900 C 178.941 -1.94986 0.0232196 0
M  V30 1901 O 178.211 -1.72097 -0.935913 0
M  V30 1902 H 176.791 -0.536847 0.519427 0
M  V30 1903 H 179.453 -0.815825 1.77004 0
M  V30 1904 H 178.549 -2.30706 2.10193 0
M  V30 1905 N 178.85 -1.27639 -0.924453 0
M  V30 1906 C 179.76 -1.12466 -2.05885 0
M  V30 1907 C 180.776 -0.053869 -1.73917 0
M  V30 1908 O 181.952 -0.261012 -1.99702 0
M  V30 1909 C 179.017 -0.776768 -3.37886 0
M  V30 1910 C 178.078 -1.92878 -3.83532 0
M  V30 1911 C 177.311 -1.59739 -5.09234 0
M  V30 1912 O 177.534 -0.506782 -5.68144 0
M  V30 1913 O 176.468 -2.43761 -5.50331 0
M  V30 1914 H 180.294 -2.07671 -2.21599 0
M  V30 1915 H 177.879 -1.06857 -1.04413 0
M  V30 1916 H 179.761 -0.596229 -4.17161 0
M  V30 1917 H 178.436 0.145732 -3.23372 0
M  V30 1918 H 177.343 -2.1644 -3.0513 0
M  V30 1919 H 178.676 -2.8316 -4.02593 0
M  V30 1920 N 180.328 1.1314 -1.09713 0
M  V30 1921 C 181.577 1.83838 -0.829851 0
M  V30 1922 C 181.89 1.84599 0.646728 0
M  V30 1923 O 183.096 2.51218 1.02965 0
M  V30 1924 C 181.552 3.30069 -1.43466 0
M  V30 1925 C 181.16 3.37688 -2.94399 0
M  V30 1926 C 182.904 4.05788 -1.24645 0
M  V30 1927 C 180.811 4.78209 -3.47952 0
M  V30 1928 H 179.741 0.68877 -0.306777 0
M  V30 1929 H 182.392 1.27448 -1.3202 0
M  V30 1930 H 180.774 3.8628 -0.871996 0
M  V30 1931 H 181.948 2.91456 -3.56918 0
M  V30 1932 H 180.263 2.75436 -3.12289 0
M  V30 1933 H 182.86 5.09535 -1.62107 0
M  V30 1934 H 183.203 4.15878 -0.187357 0
M  V30 1935 H 183.736 3.55915 -1.77678 0
M  V30 1936 H 180.475 4.73311 -4.53495 0
M  V30 1937 H 179.995 5.24924 -2.90198 0
M  V30 1938 H 181.674 5.47133 -3.45332 0
M  V30 1939 N 181.806 0.884767 1.30421 0
M  V30 1940 C 182.769 0.356277 2.26414 0
M  V30 1941 C 183.769 -0.501124 1.52792 0
M  V30 1942 O 184.959 -0.30831 1.7145 0
M  V30 1943 C 182.091 -0.492316 3.37326 0
M  V30 1944 H 183.284 1.20389 2.74675 0
M  V30 1945 H 180.837 0.661607 1.41607 0
M  V30 1946 H 181.572 -1.36052 2.94381 0
M  V30 1947 H 181.357 0.121832 3.91911 0
M  V30 1948 H 182.847 -0.853871 4.08777 0
M  V30 1949 N 183.284 -1.43765 0.645699 0
M  V30 1950 C 184.214 -2.33471 -0.0370477 0
M  V30 1951 C 185.195 -1.49042 -0.819779 0
M  V30 1952 O 186.38 -1.77726 -0.782758 0
M  V30 1953 C 183.51 -3.32311 -1.0093 0
M  V30 1954 C 182.464 -4.2667 -0.337201 0
M  V30 1955 C 181.79 -5.1549 -1.42037 0
M  V30 1956 C 183.09 -5.16657 0.765706 0
M  V30 1957 H 184.784 -2.90809 0.712069 0
M  V30 1958 H 182.33 -1.39834 0.343876 0
M  V30 1959 H 184.283 -3.9396 -1.49578 0
M  V30 1960 H 183.007 -2.73213 -1.78948 0
M  V30 1961 H 181.666 -3.66374 0.128771 0
M  V30 1962 H 181.314 -4.52735 -2.1918 0
M  V30 1963 H 181.014 -5.79438 -0.975966 0
M  V30 1964 H 182.538 -5.80012 -1.90838 0
M  V30 1965 H 183.952 -5.72158 0.361702 0
M  V30 1966 H 182.349 -5.89286 1.13413 0
M  V30 1967 H 183.419 -4.56796 1.62683 0
M  V30 1968 N 184.763 -0.387143 -1.52771 0
M  V30 1969 C 186.009 0.188506 -2.02525 0
M  V30 1970 C 186.364 1.44649 -1.26864 0
M  V30 1971 O 185.657 1.88189 -0.359945 0
M  V30 1972 C 185.851 0.512209 -3.53711 0
M  V30 1973 C 185.68 -0.712855 -4.44014 0
M  V30 1974 C 184.45 -1.23147 -4.90064 0
M  V30 1975 C 186.648 -1.58453 -4.89282 0
M  V30 1976 N 184.63 -2.41431 -5.64433 0
M  V30 1977 C 186.001 -2.61381 -5.6221 0
M  V30 1978 C 188.056 -1.60488 -4.71326 0
M  V30 1979 C 186.759 -3.66227 -6.19088 0
M  V30 1980 C 188.785 -2.6424 -5.29085 0
M  V30 1981 C 188.147 -3.6589 -6.01917 0
M  V30 1982 H 184.246 0.0311236 -0.78138 0
M  V30 1983 H 186.83 -0.536548 -1.87161 0
M  V30 1984 H 185.001 1.20632 -3.69192 0
M  V30 1985 H 186.733 1.07482 -3.90166 0
M  V30 1986 H 183.488 -0.792795 -4.66917 0
M  V30 1987 H 183.912 -3.01274 -6.0627 0
M  V30 1988 H 188.554 -0.83247 -4.14524 0
M  V30 1989 H 186.272 -4.44337 -6.74974 0
M  V30 1990 H 189.858 -2.66695 -5.17074 0
M  V30 1991 H 188.738 -4.44855 -6.45813 0
M  V30 1992 N 186.241 1.57166 -0.116904 0
M  V30 1993 C 187.466 1.999 0.55271 0
M  V30 1994 C 187.891 0.996039 1.59564 0
M  V30 1995 O 187.249 -0.032556 1.81271 0
M  V30 1996 C 187.297 3.4152 1.15742 0
M  V30 1997 O 186.401 3.44106 2.27299 0
M  V30 1998 H 185.742 0.649447 0.138258 0
M  V30 1999 H 188.272 2.03573 -0.204759 0
M  V30 2000 H 188.282 3.79684 1.49346 0
M  V30 2001 H 186.957 4.14034 0.393493 0
M  V30 2002 H 185.534 3.17759 1.9515 0
M  V30 2003 N 187.719 -0.156864 1.56817 0
M  V30 2004 C 188.649 -1.19589 2.00551 0
M  V30 2005 C 189.63 -1.4536 0.883426 0
M  V30 2006 O 190.815 -1.56449 1.15054 0
M  V30 2007 C 187.945 -2.53143 2.37773 0
M  V30 2008 C 186.899 -2.41913 3.53075 0
M  V30 2009 C 186.225 -3.80088 3.76081 0
M  V30 2010 C 187.525 -1.91157 4.86062 0
M  V30 2011 H 189.219 -0.832293 2.87599 0
M  V30 2012 H 186.765 -0.398918 1.38364 0
M  V30 2013 H 188.718 -3.26047 2.66967 0
M  V30 2014 H 187.442 -2.91319 1.4765 0
M  V30 2015 H 186.101 -1.71462 3.24031 0
M  V30 2016 H 185.749 -4.15683 2.83225 0
M  V30 2017 H 185.449 -3.73439 4.53671 0
M  V30 2018 H 186.973 -4.54556 4.0769 0
M  V30 2019 H 188.387 -2.53846 5.14038 0
M  V30 2020 H 186.784 -1.95422 5.67389 0
M  V30 2021 H 187.854 -0.866673 4.77092 0
M  V30 2022 N 189.197 -1.51736 -0.425897 0
M  V30 2023 C 190.443 -1.65214 -1.1761 0
M  V30 2024 C 190.776 -0.372778 -1.90589 0
M  V30 2025 O 190.051 0.628139 -1.84078 0
M  V30 2026 C 190.334 -2.86312 -2.18398 0
M  V30 2027 C 190.187 -4.24254 -1.49426 0
M  V30 2028 C 191.506 -3.02925 -3.19256 0
M  V30 2029 H 188.625 -0.601263 -0.426206 0
M  V30 2030 H 191.267 -1.8425 -0.463882 0
M  V30 2031 H 189.417 -2.70213 -2.79137 0
M  V30 2032 H 191.089 -4.52046 -0.919362 0
M  V30 2033 H 189.332 -4.26426 -0.796432 0
M  V30 2034 H 190.003 -5.05001 -2.22885 0
M  V30 2035 H 192.479 -3.1781 -2.68581 0
M  V30 2036 H 191.355 -3.89199 -3.8706 0
M  V30 2037 H 191.616 -2.15497 -3.86023 0
M  V30 2038 N 190.675 0.682077 -1.42076 0
M  V30 2039 C 191.921 1.44428 -1.42367 0
M  V30 2040 C 192.254 1.94164 -0.0373056 0
M  V30 2041 O 191.529 1.70429 0.937239 0
M  V30 2042 C 191.812 2.64654 -2.44194 0
M  V30 2043 C 191.665 2.20596 -3.91991 0
M  V30 2044 C 192.984 3.66865 -2.431 0
M  V30 2045 H 190.103 0.523834 -0.518428 0
M  V30 2046 H 192.745 0.77576 -1.73442 0
M  V30 2047 H 190.895 3.2169 -2.17826 0
M  V30 2048 H 192.567 1.68783 -4.29313 0
M  V30 2049 H 190.81 1.52242 -4.06208 0
M  V30 2050 H 191.481 3.06921 -4.58807 0
M  V30 2051 H 193.957 3.19531 -2.66532 0
M  V30 2052 H 192.833 4.48577 -3.16339 0
M  V30 2053 H 193.094 4.17493 -1.45437 0
M  V30 2054 N 192.153 1.28127 0.917671 0
M  V30 2055 C 193.083 1.14248 2.03641 0
M  V30 2056 C 194.064 0.0412748 1.7005 0
M  V30 2057 O 195.249 0.217566 1.92977 0
M  V30 2058 C 192.379 0.799431 3.37974 0
M  V30 2059 C 191.333 1.85497 3.85713 0
M  V30 2060 C 190.659 1.36565 5.16966 0
M  V30 2061 C 191.959 3.26085 4.08002 0
M  V30 2062 H 193.653 2.07835 2.15511 0
M  V30 2063 H 191.199 1.00064 1.03553 0
M  V30 2064 H 193.152 0.689114 4.15727 0
M  V30 2065 H 191.876 -0.172145 3.26146 0
M  V30 2066 H 190.535 1.95437 3.10161 0
M  V30 2067 H 190.183 0.383253 5.01538 0
M  V30 2068 H 189.883 2.07143 5.49878 0
M  V30 2069 H 191.407 1.26848 5.97279 0
M  V30 2070 H 192.821 3.19089 4.76293 0
M  V30 2071 H 191.218 3.94462 4.52238 0
M  V30 2072 H 192.288 3.70394 3.12948 0
M  V30 2073 N 193.631 -1.12557 1.10312 0
M  V30 2074 C 194.594 -2.16434 0.75424 0
M  V30 2075 C 195.594 -1.59278 -0.220685 0
M  V30 2076 O 196.784 -1.742 0.00230591 0
M  V30 2077 C 193.916 -3.40699 0.116987 0
M  V30 2078 H 195.109 -2.48811 1.67431 0
M  V30 2079 H 192.662 -1.27542 0.903475 0
M  V30 2080 H 193.397 -3.13921 -0.813877 0
M  V30 2081 H 193.182 -3.83459 0.818613 0
M  V30 2082 H 194.672 -4.17451 -0.111387 0
M  V30 2083 N 195.109 -0.891671 -1.2995 0
M  V30 2084 C 196.358 -0.509521 -1.95158 0
M  V30 2085 C 196.671 0.947388 -1.71125 0
M  V30 2086 O 197.877 1.43669 -2.30372 0
M  V30 2087 C 196.333 -0.860315 -3.49466 0
M  V30 2088 C 195.941 -2.33545 -3.8231 0
M  V30 2089 C 197.685 -0.547687 -4.20952 0
M  V30 2090 C 195.592 -2.62752 -5.29826 0
M  V30 2091 H 194.522 -0.18682 -0.730489 0
M  V30 2092 H 197.173 -1.08756 -1.47798 0
M  V30 2093 H 195.555 -0.211285 -3.95436 0
M  V30 2094 H 196.729 -3.02936 -3.47227 0
M  V30 2095 H 195.044 -2.61629 -3.23944 0
M  V30 2096 H 197.641 -0.742854 -5.29515 0
M  V30 2097 H 197.984 0.51332 -4.13123 0
M  V30 2098 H 198.517 -1.1542 -3.80688 0
M  V30 2099 H 195.256 -3.6762 -5.42712 0
M  V30 2100 H 194.776 -1.97977 -5.66185 0
M  V30 2101 H 196.455 -2.48601 -5.97333 0
M  V30 2102 N 196.587 1.43421 -0.653314 0
M  V30 2103 C 197.497 2.34568 0.0388565 0
M  V30 2104 C 198.513 1.53888 0.81207 0
M  V30 2105 O 199.689 1.86539 0.759294 0
M  V30 2106 C 196.754 3.32167 0.993269 0
M  V30 2107 C 195.815 4.28751 0.216977 0
M  V30 2108 C 195.048 5.21688 1.12593 0
M  V30 2109 O 195.271 5.19052 2.36519 0
M  V30 2110 O 194.205 5.98919 0.598284 0
M  V30 2111 H 198.031 2.95251 -0.711386 0
M  V30 2112 H 195.616 1.43564 -0.413502 0
M  V30 2113 H 197.498 3.92183 1.54176 0
M  V30 2114 H 196.173 2.73987 1.72374 0
M  V30 2115 H 195.08 3.72215 -0.375101 0
M  V30 2116 H 196.413 4.89913 -0.473924 0
M  V30 2117 N 198.065 0.39524 1.52563 0
M  V30 2118 C 199.481 0.0454682 1.59535 0
M  V30 2119 C 199.681 -1.44056 1.4089 0
M  V30 2120 O 198.737 -2.20579 1.22888 0
M  V30 2121 C 200.05 0.527963 2.96029 0
M  V30 2122 C 201.598 0.484733 3.09224 0
M  V30 2123 C 202.073 0.943512 4.48176 0
M  V30 2124 N 203.564 0.899765 4.54377 0
M  V30 2125 C 204.299 1.22609 5.60138 0
M  V30 2126 N 203.795 1.62319 6.73516 0
M  V30 2127 N 205.588 1.14696 5.50274 0
M  V30 2128 H 197.739 1.36261 1.62931 0
M  V30 2129 H 200.002 0.558887 0.765735 0
M  V30 2130 H 199.708 1.56607 3.14908 0
M  V30 2131 H 199.582 -0.0698056 3.77135 0
M  V30 2132 H 201.969 -0.544298 2.90037 0
M  V30 2133 H 202.05 1.11838 2.30056 0
M  V30 2134 H 201.694 1.9708 4.68104 0
M  V30 2135 H 201.624 0.286817 5.25818 0
M  V30 2136 H 204.115 0.607632 3.72983 0
M  V30 2137 H 204.428 1.85567 7.5019 0
M  V30 2138 H 202.773 1.66211 6.74833 0
M  V30 2139 H 205.964 0.835701 4.6058 0
M  V30 2140 H 206.137 1.40459 6.32594 0
M  V30 2141 N 199.544 -1.57102 0.125237 0
M  V30 2142 C 200.774 -1.99472 -0.538015 0
M  V30 2143 C 201.182 -1.00395 -1.60366 0
M  V30 2144 O 200.525 0.0103875 -1.83697 0
M  V30 2145 C 200.587 -3.38262 -1.21734 0
M  V30 2146 C 200.251 -4.56021 -0.298897 0
M  V30 2147 C 201.248 -5.17817 0.464943 0
M  V30 2148 C 198.933 -5.01869 -0.208149 0
M  V30 2149 C 200.927 -6.23852 1.3072 0
M  V30 2150 C 198.614 -6.07763 0.637736 0
M  V30 2151 C 199.612 -6.68622 1.39403 0
M  V30 2152 O 199.3 -7.7247 2.22586 0
M  V30 2153 H 199.032 -0.659934 -0.146501 0
M  V30 2154 H 201.586 -2.04321 0.210267 0
M  V30 2155 H 199.816 -3.30185 -2.01282 0
M  V30 2156 H 201.505 -3.6488 -1.77813 0
M  V30 2157 H 202.271 -4.83308 0.404741 0
M  V30 2158 H 198.15 -4.54241 -0.786522 0
M  V30 2159 H 201.694 -6.71284 1.898 0
M  V30 2160 H 197.591 -6.41701 0.699309 0
M  V30 2161 H 198.359 -7.89595 2.15596 0
M  V30 2162 N 201.022 0.148545 -1.56898 0
M  V30 2163 C 202.268 0.862694 -1.83536 0
M  V30 2164 C 202.601 1.80889 -0.706604 0
M  V30 2165 O 201.876 1.92328 0.289885 0
M  V30 2166 C 202.159 1.63853 -3.20662 0
M  V30 2167 C 202.012 0.713925 -4.44098 0
M  V30 2168 C 203.331 2.60133 -3.54991 0
M  V30 2169 H 200.45 0.312179 -0.667618 0
M  V30 2170 H 203.092 0.127953 -1.89569 0
M  V30 2171 H 201.242 2.26489 -3.1565 0
M  V30 2172 H 202.914 0.098686 -4.61194 0
M  V30 2173 H 201.157 0.0234019 -4.33794 0
M  V30 2174 H 201.828 1.29278 -5.36648 0
M  V30 2175 H 204.304 2.07616 -3.60603 0
M  V30 2176 H 203.18 3.11468 -4.51972 0
M  V30 2177 H 203.441 3.41417 -2.80868 0
M  V30 2178 N 202.5 1.5196 0.417844 0
M  V30 2179 C 203.746 1.65836 1.16732 0
M  V30 2180 C 204.079 0.382881 1.90388 0
M  V30 2181 O 203.354 -0.618368 1.84408 0
M  V30 2182 C 203.637 2.87466 2.16876 0
M  V30 2183 C 203.49 4.25041 1.47174 0
M  V30 2184 C 204.809 3.04613 3.17646 0
M  V30 2185 H 201.928 0.603515 0.423011 0
M  V30 2186 H 204.57 1.84494 0.454105 0
M  V30 2187 H 202.72 2.71689 2.777 0
M  V30 2188 H 204.392 4.52527 0.895376 0
M  V30 2189 H 202.635 4.26843 0.773806 0
M  V30 2190 H 203.306 5.06176 2.20204 0
M  V30 2191 H 205.782 3.1923 2.66892 0
M  V30 2192 H 204.658 3.91247 3.8499 0
M  V30 2193 H 204.919 2.17541 3.84874 0
M  V30 2194 N 203.978 -0.674533 1.42435 0
M  V30 2195 C 205.224 -1.43671 1.43131 0
M  V30 2196 C 205.557 -1.94142 0.0476021 0
M  V30 2197 O 204.832 -1.70924 -0.928188 0
M  V30 2198 C 205.115 -2.63355 2.45594 0
M  V30 2199 C 204.968 -2.18514 3.93156 0
M  V30 2200 C 206.287 -3.65571 2.45043 0
M  V30 2201 H 203.406 -0.521077 0.521198 0
M  V30 2202 H 206.048 -0.766551 1.7385 0
M  V30 2203 H 204.198 -3.2053 2.19528 0
M  V30 2204 H 205.87 -1.66504 4.30202 0
M  V30 2205 H 204.113 -1.50086 4.07009 0
M  V30 2206 H 204.784 -3.04484 4.60428 0
M  V30 2207 H 207.26 -3.18113 2.68223 0
M  V30 2208 H 206.136 -4.46893 3.18713 0
M  V30 2209 H 206.397 -4.16716 1.47649 0
M  V30 2210 N 205.456 -1.28612 -0.910864 0
M  V30 2211 C 206.696 -1.1719 -1.67469 0
M  V30 2212 C 207.06 0.274441 -1.90028 0
M  V30 2213 O 208.261 0.511425 -2.6389 0
M  V30 2214 C 206.532 -1.95137 -2.99427 0
M  V30 2215 S 208.091 -2.00122 -3.90508 0
M  V30 2216 H 204.909 -0.41806 -0.575106 0
M  V30 2217 H 207.511 -1.6275 -1.08317 0
M  V30 2218 H 206.215 -2.99381 -2.80712 0
M  V30 2219 H 205.746 -1.50137 -3.63624 0
M  V30 2220 H 207.761 -1.10981 -4.8363 0
M  V30 2221 N 206.934 1.1197 -1.10907 0
M  V30 2222 C 207.881 2.17846 -0.762345 0
M  V30 2223 C 208.851 1.63995 0.263599 0
M  V30 2224 O 210.036 1.90273 0.141773 0
M  V30 2225 C 207.176 3.44487 -0.205651 0
M  V30 2226 C 206.289 4.12369 -1.28748 0
M  V30 2227 C 205.424 5.26674 -0.691919 0
M  V30 2228 C 204.463 5.86431 -1.75399 0
M  V30 2229 N 203.6 6.92142 -1.17833 0
M  V30 2230 H 208.44 2.46851 -1.6694 0
M  V30 2231 H 205.977 1.21188 -0.833776 0
M  V30 2232 H 207.935 4.16981 0.135037 0
M  V30 2233 H 206.565 3.15884 0.664613 0
M  V30 2234 H 205.617 3.38003 -1.74522 0
M  V30 2235 H 206.929 4.52844 -2.09125 0
M  V30 2236 H 206.083 6.05953 -0.300963 0
M  V30 2237 H 204.822 4.8749 0.143232 0
M  V30 2238 H 203.827 5.05835 -2.15432 0
M  V30 2239 H 205.052 6.27685 -2.59208 0
M  V30 2240 H 202.998 6.54985 -0.364725 0
M  V30 2241 H 202.915 7.31242 -1.91887 0
M  V30 2242 H 204.183 7.75237 -0.81408 0
M  V30 2243 N 208.412 0.89855 1.29475 0
M  V30 2244 C 209.823 0.572537 1.77705 0
M  V30 2245 C 210.174 -0.911778 1.73727 0
M  V30 2246 O 209.299 -1.71288 1.32247 0
M  V30 2247 C 209.894 1.03252 3.22683 0
M  V30 2248 C 208.453 0.757687 3.68695 0
M  V30 2249 C 207.6 1.20787 2.49612 0
M  V30 2250 H 210.551 1.08139 1.16153 0
M  V30 2251 H 210.572 0.367307 3.78723 0
M  V30 2252 H 210.084 2.11285 3.25546 0
M  V30 2253 H 208.185 -0.310079 3.71308 0
M  V30 2254 H 208.298 1.35476 4.59547 0
M  V30 2255 H 206.662 0.626888 2.46865 0
M  V30 2256 H 207.445 2.29622 2.55203 0
M  V30 2257 N 209.89 -1.43072 0.660911 0
M  V30 2258 C 210.823 -2.28074 -0.0758862 0
M  V30 2259 C 211.801 -1.40271 -0.822362 0
M  V30 2260 O 212.985 -1.69713 -0.820352 0
M  V30 2261 C 210.112 -3.19843 -1.11437 0
M  V30 2262 C 209.158 -4.23957 -0.465069 0
M  V30 2263 S 209.991 -5.29978 0.767078 0
M  V30 2264 C 211.147 -6.25314 -0.270682 0
M  V30 2265 H 211.38 -2.90216 0.645139 0
M  V30 2266 H 208.913 -1.47697 0.449995 0
M  V30 2267 H 210.871 -3.73257 -1.70849 0
M  V30 2268 H 209.532 -2.56863 -1.80776 0
M  V30 2269 H 208.725 -4.88299 -1.24819 0
M  V30 2270 H 208.327 -3.73959 0.0551242 0
M  V30 2271 H 210.619 -6.67932 -1.13459 0
M  V30 2272 H 211.562 -7.07293 0.337916 0
M  V30 2273 H 211.97 -5.61195 -0.609937 0
M  V30 2274 N 211.368 -0.403325 -1.52352 0
M  V30 2275 C 212.593 0.176499 -2.06648 0
M  V30 2276 C 213.018 1.38577 -1.27193 0
M  V30 2277 O 212.376 1.7879 -0.300637 0
M  V30 2278 C 212.424 0.511061 -3.5696 0
M  V30 2279 O 211.528 1.60294 -3.79973 0
M  V30 2280 H 210.869 0.0167337 -0.663789 0
M  V30 2281 H 213.399 -0.574848 -1.96359 0
M  V30 2282 H 213.409 0.771362 -4.00642 0
M  V30 2283 H 212.084 -0.37296 -4.14224 0
M  V30 2284 H 210.661 1.33526 -3.48174 0
M  V30 2285 N 212.846 1.57033 -0.133567 0
M  V30 2286 C 213.794 2.17348 0.828412 0
M  V30 2287 C 214.788 1.12671 1.26498 0
M  V30 2288 O 215.994 1.30947 1.23502 0
M  V30 2289 H 212.369 0.695775 0.285309 0
M  V30 2290 H 214.34 2.96935 0.295372 0
M  V30 2291 C 213.089 2.79893 2.06289 0
M  V30 2292 H 212.412 3.60147 1.73592 0
M  V30 2293 H 213.852 3.25615 2.71572 0
M  V30 2294 C 212.311 1.77713 2.86216 0
M  V30 2295 O 212.841 1.23937 3.82103 0
M  V30 2296 N 211.047 1.47321 2.50489 0
M  V30 2297 H 210.594 1.91243 1.7258 0
M  V30 2298 H 210.552 0.79199 3.04261 0
M  V30 2299 N 214.325 -0.140222 1.56975 0
M  V30 2300 C 215.572 -0.851687 1.83719 0
M  V30 2301 C 215.9 -1.80862 0.715485 0
M  V30 2302 O 215.155 -1.93464 -0.294956 0
M  V30 2303 C 215.454 -1.65386 3.16832 0
M  V30 2304 C 215.12 -0.843112 4.42947 0
M  V30 2305 C 213.782 -0.619464 4.77196 0
M  V30 2306 C 216.134 -0.276582 5.20466 0
M  V30 2307 C 213.462 0.181312 5.8642 0
M  V30 2308 C 215.814 0.51127 6.30531 0
M  V30 2309 C 214.478 0.745432 6.63325 0
M  V30 2310 H 213.748 -0.311654 0.672274 0
M  V30 2311 H 216.395 -0.115006 1.91154 0
M  V30 2312 H 214.7 -2.46084 3.04877 0
M  V30 2313 H 216.397 -2.20793 3.34741 0
M  V30 2314 H 212.987 -1.0275 4.16101 0
M  V30 2315 H 217.171 -0.436632 4.94376 0
M  V30 2316 H 212.427 0.372165 6.10266 0
M  V30 2317 H 216.601 0.957354 6.89788 0
M  V30 2318 H 214.228 1.36778 7.47794 0
M  V30 2319 N 215.803 -1.52179 -0.40978 0
M  V30 2320 C 217.219 -1.40968 -0.74835 0
M  V30 2321 C 217.419 -0.513657 -1.94843 0
M  V30 2322 O 216.475 0.0208026 -2.52491 0
M  V30 2323 C 217.788 -2.83483 -1.0029 0
M  V30 2324 C 219.336 -2.92821 -1.10565 0
M  V30 2325 C 219.811 -4.36303 -1.39296 0
M  V30 2326 N 221.302 -4.39535 -1.46162 0
M  V30 2327 C 222.037 -5.47614 -1.70018 0
M  V30 2328 N 221.533 -6.65812 -1.91483 0
M  V30 2329 N 223.326 -5.35129 -1.72027 0
M  V30 2330 H 215.477 -2.0897 0.380186 0
M  V30 2331 H 217.74 -0.94185 0.107805 0
M  V30 2332 H 217.446 -3.51168 -0.193461 0
M  V30 2333 H 217.32 -3.24487 -1.92323 0
M  V30 2334 H 219.707 -2.25318 -1.90568 0
M  V30 2335 H 219.788 -2.55276 -0.16369 0
M  V30 2336 H 219.432 -5.04366 -0.598109 0
M  V30 2337 H 219.362 -4.71385 -2.34743 0
M  V30 2338 H 221.853 -3.54332 -1.31367 0
M  V30 2339 H 222.166 -7.43964 -2.09134 0
M  V30 2340 H 220.511 -6.68879 -1.88749 0
M  V30 2341 H 223.702 -4.41764 -1.54796 0
M  V30 2342 H 223.875 -6.19433 -1.9028 0
M  V30 2343 N 217.281 0.66697 -1.42791 0
M  V30 2344 C 218.528 1.42699 -1.43678 0
M  V30 2345 C 218.856 1.94419 -0.0560425 0
M  V30 2346 O 218.111 1.7182 0.936831 0
M  V30 2347 C 218.41 2.6349 -2.4147 0
M  V30 2348 C 218.076 2.30267 -3.8767 0
M  V30 2349 C 216.738 2.20918 -4.27491 0
M  V30 2350 C 219.09 2.03435 -4.79858 0
M  V30 2351 C 216.418 1.82873 -5.57471 0
M  V30 2352 C 218.77 1.66892 -6.10188 0
M  V30 2353 C 217.434 1.56058 -6.49001 0
M  V30 2354 H 216.704 0.522171 -0.525755 0
M  V30 2355 H 219.351 0.759785 -1.75783 0
M  V30 2356 H 217.656 3.35279 -2.0272 0
M  V30 2357 H 219.353 3.21684 -2.39417 0
M  V30 2358 H 215.943 2.38449 -3.56146 0
M  V30 2359 H 220.127 2.09586 -4.49875 0
M  V30 2360 H 215.383 1.7306 -5.86396 0
M  V30 2361 H 219.557 1.45157 -6.81104 0
M  V30 2362 H 217.184 1.26348 -7.49627 0
M  V30 2363 N 218.759 1.29093 0.90403 0
M  V30 2364 C 220.007 1.16583 1.65085 0
M  V30 2365 C 220.328 -0.283933 1.92922 0
M  V30 2366 O 219.598 -1.19509 1.55224 0
M  V30 2367 H 218.178 0.428467 0.611903 0
M  V30 2368 H 220.84 1.61959 1.08422 0
M  V30 2369 H 219.936 1.71266 2.6091 0
M  V30 2370 N 220.237 -1.11381 1.11499 0
M  V30 2371 C 221.147 -2.21019 0.786628 0
M  V30 2372 C 222.163 -1.72597 -0.220507 0
M  V30 2373 O 223.339 -2.01321 -0.0565251 0
M  V30 2374 C 220.404 -3.459 0.235333 0
M  V30 2375 C 219.465 -4.09107 1.30115 0
M  V30 2376 C 218.698 -5.28027 0.776068 0
M  V30 2377 O 218.921 -5.6904 -0.393661 0
M  V30 2378 O 217.855 -5.81835 1.54114 0
M  V30 2379 H 221.681 -2.51521 1.70209 0
M  V30 2380 H 219.266 -1.19928 0.890928 0
M  V30 2381 H 221.148 -4.21346 -0.067715 0
M  V30 2382 H 219.823 -3.17049 -0.652828 0
M  V30 2383 H 218.73 -3.35391 1.65722 0
M  V30 2384 H 220.063 -4.42139 2.16273 0
M  V30 2385 N 221.715 -0.905404 -1.28997 0
M  V30 2386 C 222.663 -0.377431 -2.29517 0
M  V30 2387 C 223.657 0.526461 -1.61012 0
M  V30 2388 O 224.863 0.40863 -1.753 0
M  V30 2389 H 221.238 -0.103437 -0.744852 0
M  V30 2390 H 223.209 -1.23848 -2.71485 0
M  V30 2391 C 221.958 0.374833 -3.45674 0
M  V30 2392 H 221.281 -0.311474 -3.98585 0
M  V30 2393 H 222.721 0.70903 -4.1803 0
M  V30 2394 C 221.18 1.57963 -2.97572 0
M  V30 2395 O 221.71 2.67886 -2.99333 0
M  V30 2396 N 219.916 1.42375 -2.53333 0
M  V30 2397 H 219.463 0.529466 -2.521 0
M  V30 2398 H 219.421 2.23117 -2.21509 0
M  V30 2399 N 223.193 1.4272 -0.668489 0
M  V30 2400 C 224.143 2.27971 0.0363806 0
M  V30 2401 C 225.127 1.40741 0.779794 0
M  V30 2402 O 226.319 1.64245 0.659745 0
M  V30 2403 C 223.448 3.28673 0.991398 0
M  V30 2404 C 222.534 4.23388 0.245658 0
M  V30 2405 N 222.925 5.00267 -0.746069 0
M  V30 2406 C 221.223 4.43355 0.484988 0
M  V30 2407 C 221.924 5.69396 -1.19009 0
M  V30 2408 N 220.9 5.41095 -0.521287 0
M  V30 2409 H 224.702 2.84833 -0.724394 0
M  V30 2410 H 222.216 1.54607 -0.497028 0
M  V30 2411 H 224.213 3.88543 1.51129 0
M  V30 2412 H 222.873 2.73373 1.75207 0
M  V30 2413 H 223.884 5.05525 -1.12537 0
M  V30 2414 H 220.561 3.99104 1.22565 0
M  V30 2415 H 221.951 6.41083 -2.01153 0
M  V30 2416 N 224.671 0.411399 1.52136 0
M  V30 2417 C 225.634 -0.401089 2.25663 0
M  V30 2418 C 226.634 -0.971732 1.28117 0
M  V30 2419 O 227.824 -0.850254 1.52041 0
M  V30 2420 C 224.956 -1.56483 3.02863 0
M  V30 2421 H 226.149 0.24295 2.98914 0
M  V30 2422 H 223.702 0.163968 1.55438 0
M  V30 2423 H 224.437 -2.24567 2.33967 0
M  V30 2424 H 224.222 -1.16211 3.74483 0
M  V30 2425 H 225.712 -2.13951 3.58629 0
M  V30 2426 N 226.149 -1.5696 0.141893 0
M  V30 2427 C 227.398 -1.95135 -0.510427 0
M  V30 2428 C 227.711 -1.02896 -1.66348 0
M  V30 2429 O 228.917 -1.30629 -2.38009 0
M  V30 2430 C 227.373 -3.46876 -0.959427 0
M  V30 2431 C 226.981 -4.47691 0.166419 0
M  V30 2432 C 228.725 -3.93927 -1.58183 0
M  V30 2433 C 226.632 -5.90636 -0.300565 0
M  V30 2434 H 225.562 -0.728494 -0.194454 0
M  V30 2435 H 228.213 -1.8211 0.22542 0
M  V30 2436 H 226.595 -3.55215 -1.75038 0
M  V30 2437 H 227.769 -4.51043 0.94325 0
M  V30 2438 H 226.084 -4.10527 0.696905 0
M  V30 2439 H 228.681 -4.98158 -1.94275 0
M  V30 2440 H 229.024 -3.3519 -2.46888 0
M  V30 2441 H 229.557 -3.88484 -0.855863 0
M  V30 2442 H 226.296 -6.5318 0.550989 0
M  V30 2443 H 225.816 -5.90655 -1.04338 0
M  V30 2444 H 227.495 -6.42588 -0.754265 0
M  V30 2445 N 227.627 0.131896 -1.57047 0
M  V30 2446 C 228.56 1.19236 -1.94571 0
M  V30 2447 C 229.538 1.40782 -0.813576 0
M  V30 2448 O 230.722 1.55148 -1.07058 0
M  V30 2449 C 227.849 2.54858 -2.23081 0
M  V30 2450 C 226.895 2.49817 -3.45679 0
M  V30 2451 S 227.728 1.95036 -4.98719 0
M  V30 2452 C 228.884 3.32357 -5.30367 0
M  V30 2453 H 229.117 0.872297 -2.84215 0
M  V30 2454 H 226.65 0.338134 -1.50652 0
M  V30 2455 H 228.608 3.32898 -2.40185 0
M  V30 2456 H 227.269 2.84047 -1.34074 0
M  V30 2457 H 226.462 3.49688 -3.62952 0
M  V30 2458 H 226.064 1.79892 -3.27895 0
M  V30 2459 H 228.356 4.28525 -5.2476 0
M  V30 2460 H 229.299 3.19923 -6.31708 0
M  V30 2461 H 229.707 3.3019 -4.57859 0
M  V30 2462 N 229.106 1.52395 0.401703 0
M  V30 2463 C 230.354 1.66488 1.14569 0
M  V30 2464 C 230.675 0.400897 1.90835 0
M  V30 2465 O 229.945 -0.584415 1.8698 0
M  V30 2466 H 228.525 0.613672 0.425929 0
M  V30 2467 H 231.187 1.89464 0.457093 0
M  V30 2468 H 230.283 2.50942 1.85566 0
M  V30 2469 N 230.584 -0.659388 1.43143 0
M  V30 2470 C 231.83 -1.42145 1.44647 0
M  V30 2471 C 232.163 -1.9408 0.0681907 0
M  V30 2472 O 231.438 -1.71899 -0.910007 0
M  V30 2473 C 231.721 -2.60735 2.48373 0
M  V30 2474 C 231.574 -2.14332 3.95451 0
M  V30 2475 C 232.893 -3.62951 2.48906 0
M  V30 2476 H 230.012 -0.51552 0.526696 0
M  V30 2477 H 232.654 -0.748069 1.74654 0
M  V30 2478 H 230.804 -3.18184 2.22916 0
M  V30 2479 H 232.476 -1.61932 4.31944 0
M  V30 2480 H 230.719 -1.4576 4.08578 0
M  V30 2481 H 231.39 -2.99583 4.63631 0
M  V30 2482 H 233.866 -3.1525 2.71582 0
M  V30 2483 H 232.742 -4.43487 3.23435 0
M  V30 2484 H 233.003 -4.15126 1.52061 0
M  V30 2485 N 232.062 -1.29571 -0.897171 0
M  V30 2486 C 233.025 -1.14913 -1.98312 0
M  V30 2487 C 234.025 -0.0838629 -1.60581 0
M  V30 2488 O 235.215 -0.331006 -1.71026 0
M  V30 2489 C 232.347 -0.757835 -3.3237 0
M  V30 2490 H 233.54 -2.11377 -2.12743 0
M  V30 2491 H 231.093 -1.12793 -1.08201 0
M  V30 2492 H 231.828 0.206837 -3.2364 0
M  V30 2493 H 231.613 -1.52755 -3.61121 0
M  V30 2494 H 233.103 -0.678408 -4.12053 0
M  V30 2495 N 233.54 1.10788 -1.12088 0
M  V30 2496 C 234.787 1.82671 -0.873931 0
M  V30 2497 C 235.115 1.85004 0.600311 0
M  V30 2498 O 234.37 1.30365 1.45957 0
M  V30 2499 C 234.669 3.29294 -1.38926 0
M  V30 2500 C 234.335 3.47113 -2.87791 0
M  V30 2501 C 232.997 3.51684 -3.28439 0
M  V30 2502 C 235.349 3.52808 -3.83635 0
M  V30 2503 C 232.677 3.59513 -4.63646 0
M  V30 2504 C 235.029 3.62169 -5.18668 0
M  V30 2505 C 233.693 3.65003 -5.58864 0
M  V30 2506 H 232.963 0.668441 -0.319794 0
M  V30 2507 H 235.61 1.30613 -1.40045 0
M  V30 2508 H 233.915 3.83894 -0.783122 0
M  V30 2509 H 235.612 3.83416 -1.17443 0
M  V30 2510 H 232.202 3.4423 -2.5535 0
M  V30 2511 H 236.386 3.4853 -3.53328 0
M  V30 2512 H 231.642 3.59987 -4.94185 0
M  V30 2513 H 235.816 3.6552 -5.92763 0
M  V30 2514 H 233.443 3.70822 -6.63623 0
M  V30 2515 N 235.018 0.912232 1.28515 0
M  V30 2516 C 236.246 0.560416 1.99166 0
M  V30 2517 C 236.661 -0.857927 1.68182 0
M  V30 2518 O 236.018 -1.56805 0.933733 0
M  V30 2519 C 236.069 0.758142 3.53461 0
M  V30 2520 O 235.79 2.12067 3.83352 0
M  V30 2521 C 237.291 0.412954 4.41372 0
M  V30 2522 H 234.511 0.213805 0.636026 0
M  V30 2523 H 237.055 1.22502 1.63749 0
M  V30 2524 H 235.21 0.140556 3.87145 0
M  V30 2525 H 235.624 2.15923 4.77993 0
M  V30 2526 H 237.098 0.60208 5.48707 0
M  V30 2527 H 237.575 -0.65073 4.34353 0
M  V30 2528 H 238.181 1.00802 4.13182 0
M  V30 2529 N 236.496 -1.42363 0.676048 0
M  V30 2530 C 237.742 -2.02336 0.207809 0
M  V30 2531 C 238.097 -1.52506 -1.17302 0
M  V30 2532 O 237.39 -0.718048 -1.77636 0
M  V30 2533 C 237.584 -3.56929 0.183431 0
M  V30 2534 C 237.413 -4.21762 1.56036 0
M  V30 2535 C 236.183 -4.56881 2.15842 0
M  V30 2536 C 238.381 -4.49267 2.50327 0
M  V30 2537 N 236.363 -5.069 3.46303 0
M  V30 2538 C 237.734 -5.00851 3.65443 0
M  V30 2539 C 239.789 -4.31257 2.48841 0
M  V30 2540 C 238.492 -5.36317 4.79329 0
M  V30 2541 C 240.518 -4.678 3.61824 0
M  V30 2542 C 239.88 -5.19537 4.75668 0
M  V30 2543 H 235.979 -0.772583 0.120993 0
M  V30 2544 H 238.563 -1.73203 0.889306 0
M  V30 2545 H 236.734 -3.85576 -0.467483 0
M  V30 2546 H 238.466 -4.03603 -0.297808 0
M  V30 2547 H 235.221 -4.4268 1.68319 0
M  V30 2548 H 235.645 -5.36338 4.13123 0
M  V30 2549 H 240.287 -3.90511 1.62051 0
M  V30 2550 H 238.005 -5.75995 5.66794 0
M  V30 2551 H 241.591 -4.55541 3.61903 0
M  V30 2552 H 240.471 -5.47287 5.61646 0
M  V30 2553 N 237.974 -0.419461 -1.51915 0
M  V30 2554 C 239.22 0.153166 -2.02221 0
M  V30 2555 C 239.553 1.43907 -1.30401 0
M  V30 2556 O 238.828 1.90055 -0.413438 0
M  V30 2557 C 239.111 0.390291 -3.57979 0
M  V30 2558 C 238.964 -0.913014 -4.40436 0
M  V30 2559 C 240.283 1.16794 -4.2432 0
M  V30 2560 H 237.402 0.0541924 -0.735005 0
M  V30 2561 H 240.044 -0.554955 -1.81715 0
M  V30 2562 H 238.194 0.993491 -3.75582 0
M  V30 2563 H 239.866 -1.54882 -4.34522 0
M  V30 2564 H 238.109 -1.52168 -4.06236 0
M  V30 2565 H 238.78 -0.701361 -5.47526 0
M  V30 2566 H 241.256 0.657161 -4.10878 0
M  V30 2567 H 240.132 1.3026 -5.3322 0
M  V30 2568 H 240.393 2.19132 -3.83971 0
M  V30 2569 N 239.452 1.56882 -0.150215 0
M  V30 2570 C 240.385 2.12712 0.826358 0
M  V30 2571 C 241.363 1.05154 1.24022 0
M  V30 2572 O 242.547 1.33004 1.33575 0
M  V30 2573 C 239.674 2.64945 2.11002 0
M  V30 2574 C 238.72 3.8468 1.84183 0
M  V30 2575 S 239.553 5.25502 1.02995 0
M  V30 2576 C 240.709 5.81125 2.32474 0
M  V30 2577 H 240.942 2.95214 0.351598 0
M  V30 2578 H 238.475 1.54267 0.0641211 0
M  V30 2579 H 240.433 2.95689 2.84742 0
M  V30 2580 H 239.094 1.82568 2.55593 0
M  V30 2581 H 238.287 4.19482 2.79375 0
M  V30 2582 H 237.889 3.54714 1.1855 0
M  V30 2583 H 240.181 5.92753 3.281 0
M  V30 2584 H 241.124 6.78625 2.02171 0
M  V30 2585 H 241.532 5.09392 2.43269 0
M  V30 2586 N 240.93 -0.123565 1.57115 0
M  V30 2587 C 241.893 -1.13583 1.99076 0
M  V30 2588 C 242.893 -1.34564 0.880296 0
M  V30 2589 O 244.083 -1.31158 1.14644 0
M  V30 2590 C 241.215 -2.49128 2.32698 0
M  V30 2591 H 242.408 -0.775287 2.89706 0
M  V30 2592 H 239.961 -0.36771 1.51913 0
M  V30 2593 H 240.696 -2.90111 1.44934 0
M  V30 2594 H 240.481 -2.35255 3.13684 0
M  V30 2595 H 241.971 -3.2199 2.65918 0
M  V30 2596 N 242.408 -1.52605 -0.393616 0
M  V30 2597 C 243.338 -1.80022 -1.48709 0
M  V30 2598 C 244.319 -0.651995 -1.57108 0
M  V30 2599 O 245.504 -0.89913 -1.72132 0
M  V30 2600 C 242.634 -1.96492 -2.86371 0
M  V30 2601 C 241.588 -3.12161 -2.92813 0
M  V30 2602 C 240.914 -3.13877 -4.3288 0
M  V30 2603 C 242.214 -4.51322 -2.6288 0
M  V30 2604 H 243.908 -2.71589 -1.26015 0
M  V30 2605 H 241.454 -1.30684 -0.604778 0
M  V30 2606 H 243.407 -2.14255 -3.62867 0
M  V30 2607 H 242.131 -1.01611 -3.10391 0
M  V30 2608 H 240.79 -2.94173 -2.18764 0
M  V30 2609 H 240.438 -2.16687 -4.53933 0
M  V30 2610 H 240.138 -3.91576 -4.38112 0
M  V30 2611 H 241.662 -3.33789 -5.1129 0
M  V30 2612 H 243.076 -4.69435 -3.29096 0
M  V30 2613 H 241.473 -5.31053 -2.79468 0
M  V30 2614 H 242.543 -4.58353 -1.58242 0
M  V30 2615 N 243.887 0.651787 -1.4349 0
M  V30 2616 C 244.85 1.74647 -1.48429 0
M  V30 2617 C 245.85 1.56513 -0.368817 0
M  V30 2618 O 247.04 1.62385 -0.630623 0
M  V30 2619 C 244.172 3.13533 -1.33827 0
M  V30 2620 H 245.365 1.71649 -2.4592 0
M  V30 2621 H 242.918 0.863573 -1.30277 0
M  V30 2622 H 243.653 3.22142 -0.37349 0
M  V30 2623 H 243.438 3.28101 -2.14691 0
M  V30 2624 H 244.928 3.93356 -1.40218 0
M  V30 2625 N 245.365 1.30045 0.890287 0
M  V30 2626 C 246.605 1.19839 1.65584 0
M  V30 2627 C 246.969 -0.244175 1.90441 0
M  V30 2628 O 248.17 -0.469378 2.6467 0
M  V30 2629 C 246.441 1.99876 2.96284 0
M  V30 2630 S 248 2.06309 3.87275 0
M  V30 2631 H 244.818 0.427157 0.568382 0
M  V30 2632 H 247.42 1.64453 1.05715 0
M  V30 2633 H 246.124 3.03809 2.75913 0
M  V30 2634 H 245.655 1.55903 3.61189 0
M  V30 2635 H 247.67 1.18661 4.81803 0
M  V30 2636 N 246.843 -1.10192 1.12674 0
M  V30 2637 C 247.806 -2.14786 0.799979 0
M  V30 2638 C 248.806 -1.59711 -0.18685 0
M  V30 2639 O 249.996 -1.74156 0.0392558 0
M  V30 2640 C 247.128 -3.40374 0.189228 0
M  V30 2641 H 248.321 -2.45203 1.72671 0
M  V30 2642 H 245.874 -1.25597 0.930326 0
M  V30 2643 H 246.609 -3.15577 -0.747107 0
M  V30 2644 H 246.394 -3.81637 0.899766 0
M  V30 2645 H 247.884 -4.17594 -0.0228143 0
M  V30 2646 N 248.321 -0.919034 -1.28029 0
M  V30 2647 C 249.284 -0.416182 -2.2539 0
M  V30 2648 C 250.284 0.460438 -1.54067 0
M  V30 2649 O 251.474 0.262744 -1.72207 0
M  V30 2650 C 248.606 0.402707 -3.38513 0
M  V30 2651 H 249.799 -1.27629 -2.71387 0
M  V30 2652 H 247.352 -0.698919 -1.39803 0
M  V30 2653 H 248.087 1.282 -2.97885 0
M  V30 2654 H 247.872 -0.225698 -3.9145 0
M  V30 2655 H 249.362 0.745191 -4.10897 0
M  V30 2656 N 249.799 1.42003 -0.683588 0
M  V30 2657 C 251.21 1.84501 -0.285736 0
M  V30 2658 C 251.561 1.57213 1.17382 0
M  V30 2659 O 250.686 1.03642 1.89966 0
M  V30 2660 C 251.281 3.34912 -0.511821 0
M  V30 2661 C 249.84 3.76025 -0.168005 0
M  V30 2662 C 248.987 2.6551 -0.799983 0
M  V30 2663 H 251.938 1.31724 -0.885119 0
M  V30 2664 H 251.959 3.79784 0.233292 0
M  V30 2665 H 251.471 3.54741 -1.57418 0
M  V30 2666 H 249.572 3.61801 0.890567 0
M  V30 2667 H 249.685 4.75141 -0.614661 0
M  V30 2668 H 248.049 2.53654 -0.230568 0
M  V30 2669 H 248.832 2.8816 -1.86597 0
M  V30 2670 N 251.277 0.427512 1.51691 0
M  V30 2671 C 252.688 -0.0378867 1.86662 0
M  V30 2672 C 253.039 -1.42819 1.34525 0
M  V30 2673 O 252.164 -2.05037 0.692014 0
M  V30 2674 C 252.759 -0.0755266 3.38716 0
M  V30 2675 C 251.318 -0.485309 3.73258 0
M  V30 2676 C 250.465 0.328399 2.75349 0
M  V30 2677 H 253.416 0.64379 1.45055 0
M  V30 2678 H 253.437 -0.887056 3.70016 0
M  V30 2679 H 252.949 0.936487 3.76632 0
M  V30 2680 H 251.05 -1.50329 3.40928 0
M  V30 2681 H 251.163 -0.21693 4.78609 0
M  V30 2682 H 249.527 -0.211905 2.53817 0
M  V30 2683 H 250.31 1.3391 3.16106 0
M  V30 2684 N 252.755 -1.56801 0.158532 0
M  V30 2685 C 253.685 -2.20347 -0.772609 0
M  V30 2686 C 254.666 -1.15518 -1.24859 0
M  V30 2687 O 255.851 -1.43902 -1.30406 0
M  V30 2688 C 252.981 -2.83417 -2.00729 0
M  V30 2689 C 251.935 -3.94174 -1.66765 0
M  V30 2690 C 251.261 -4.44233 -2.97592 0
M  V30 2691 C 252.561 -5.14392 -0.905447 0
M  V30 2692 H 254.255 -2.98413 -0.242959 0
M  V30 2693 H 251.801 -1.43537 -0.115419 0
M  V30 2694 H 253.754 -3.26543 -2.6636 0
M  V30 2695 H 252.478 -2.02701 -2.56086 0
M  V30 2696 H 251.137 -3.51684 -1.03508 0
M  V30 2697 H 250.785 -3.60325 -3.50963 0
M  V30 2698 H 250.485 -5.18945 -2.75626 0
M  V30 2699 H 252.009 -4.90037 -3.64274 0
M  V30 2700 H 253.423 -5.5429 -1.46408 0
M  V30 2701 H 251.82 -5.9494 -0.7853 0
M  V30 2702 H 252.89 -4.84795 0.100668 0
M  V30 2703 N 254.233 0.115231 -1.57178 0
M  V30 2704 C 255.196 1.12526 -1.99676 0
M  V30 2705 C 256.196 1.34095 -0.88742 0
M  V30 2706 O 257.386 1.30548 -1.15337 0
M  V30 2707 C 254.518 2.4789 -2.34015 0
M  V30 2708 H 255.711 0.759912 -2.90113 0
M  V30 2709 H 253.264 0.359648 -1.52106 0
M  V30 2710 H 253.999 2.89339 -1.4647 0
M  V30 2711 H 253.784 2.33588 -3.14927 0
M  V30 2712 H 255.274 3.20575 -2.67622 0
M  V30 2713 N 255.711 1.52812 0.385517 0
M  V30 2714 C 256.959 1.67694 1.12797 0
M  V30 2715 C 257.28 0.421115 1.90399 0
M  V30 2716 O 256.55 -0.564551 1.87589 0
M  V30 2717 H 255.13 0.618155 0.419396 0
M  V30 2718 H 257.792 1.89938 0.436972 0
M  V30 2719 H 256.888 2.52896 1.82894 0
M  V30 2720 N 257.189 -0.644168 1.43834 0
M  V30 2721 C 258.435 -1.40431 1.47141 0
M  V30 2722 C 258.79 -1.92153 0.0975577 0
M  V30 2723 O 258.083 -1.69924 -0.885232 0
M  V30 2724 C 258.277 -2.59615 2.45631 0
M  V30 2725 C 258.106 -2.1956 3.92458 0
M  V30 2726 C 256.876 -2.07456 4.60749 0
M  V30 2727 C 259.074 -1.79281 4.8204 0
M  V30 2728 N 257.056 -1.60827 5.92459 0
M  V30 2729 C 258.427 -1.43801 6.03093 0
M  V30 2730 C 260.482 -1.66545 4.6922 0
M  V30 2731 C 259.185 -0.968599 7.12749 0
M  V30 2732 C 261.211 -1.21008 5.78888 0
M  V30 2733 C 260.573 -0.864711 6.99072 0
M  V30 2734 H 256.672 -0.509182 0.593513 0
M  V30 2735 H 259.256 -0.740351 1.80075 0
M  V30 2736 H 257.427 -3.23658 2.1471 0
M  V30 2737 H 259.159 -3.26357 2.39318 0
M  V30 2738 H 255.914 -2.275 4.1538 0
M  V30 2739 H 256.338 -1.39848 6.62398 0
M  V30 2740 H 260.98 -1.91883 3.7675 0
M  V30 2741 H 258.698 -0.702715 8.05039 0
M  V30 2742 H 262.284 -1.11631 5.7099 0
M  V30 2743 H 261.164 -0.517736 7.82489 0
M  V30 2744 N 258.668 -1.30515 -0.883378 0
M  V30 2745 C 259.893 -1.22487 -1.67367 0
M  V30 2746 C 260.318 0.208767 -1.86938 0
M  V30 2747 O 259.676 1.15015 -1.40148 0
M  V30 2748 C 259.724 -1.96041 -3.02655 0
M  V30 2749 O 258.828 -1.28859 -3.91751 0
M  V30 2750 H 258.169 -0.423573 -0.511353 0
M  V30 2751 H 260.699 -1.72362 -1.10239 0
M  V30 2752 H 260.709 -2.05124 -3.52687 0
M  V30 2753 H 259.384 -3.00307 -2.8773 0
M  V30 2754 H 257.961 -1.28141 -3.50192 0
M  V30 2755 N 260.146 1.09593 -1.13257 0
M  V30 2756 C 261.562 1.33775 -0.870423 0
M  V30 2757 C 261.762 1.95327 0.494926 0
M  V30 2758 O 260.818 2.19853 1.2418 0
M  V30 2759 C 262.131 2.25106 -1.99369 0
M  V30 2760 C 263.679 2.3862 -2.02558 0
M  V30 2761 C 264.154 3.33285 -3.14142 0
M  V30 2762 N 265.645 3.40857 -3.13641 0
M  V30 2763 C 266.38 4.14101 -3.96621 0
M  V30 2764 N 265.876 4.90157 -4.8961 0
M  V30 2765 N 267.669 4.09808 -3.84726 0
M  V30 2766 H 259.82 0.680136 -2.01216 0
M  V30 2767 H 262.083 0.362133 -0.876107 0
M  V30 2768 H 261.789 1.87103 -2.97801 0
M  V30 2769 H 261.663 3.25481 -1.90635 0
M  V30 2770 H 264.05 2.75887 -1.0474 0
M  V30 2771 H 264.131 1.38028 -2.15364 0
M  V30 2772 H 263.775 2.96741 -4.12198 0
M  V30 2773 H 263.705 4.33776 -2.98574 0
M  V30 2774 H 266.196 2.86624 -2.46282 0
M  V30 2775 H 266.509 5.4347 -5.49418 0
M  V30 2776 H 264.854 4.89251 -4.93617 0
M  V30 2777 H 268.045 3.4949 -3.11408 0
M  V30 2778 H 268.218 4.66629 -4.49623 0
M  V30 2779 N 261.624 0.925811 1.2754 0
M  V30 2780 C 262.854 0.580666 1.98272 0
M  V30 2781 C 263.262 -0.845207 1.69272 0
M  V30 2782 O 262.605 -1.57306 0.948707 0
M  V30 2783 C 262.667 0.724418 3.52126 0
M  V30 2784 C 262.331 2.12206 4.04744 0
M  V30 2785 C 263.328 3.09604 4.17662 0
M  V30 2786 C 261.013 2.4385 4.39138 0
M  V30 2787 C 263.007 4.36755 4.64246 0
M  V30 2788 C 260.694 3.71237 4.85414 0
M  V30 2789 C 261.692 4.67503 4.97926 0
M  V30 2790 O 261.38 5.92624 5.43187 0
M  V30 2791 H 261.112 0.218987 0.639547 0
M  V30 2792 H 263.666 1.24452 1.63404 0
M  V30 2793 H 261.896 0.0034663 3.867 0
M  V30 2794 H 263.585 0.384607 4.04074 0
M  V30 2795 H 264.351 2.86478 3.91351 0
M  V30 2796 H 260.23 1.69665 4.28643 0
M  V30 2797 H 263.774 5.11898 4.73927 0
M  V30 2798 H 259.671 3.94182 5.11166 0
M  V30 2799 H 260.439 5.95585 5.61445 0
M  V30 2800 N 263.102 -1.41638 0.69111 0
M  V30 2801 C 264.351 -2.00526 0.217318 0
M  V30 2802 C 264.664 -1.55353 -1.18848 0
M  V30 2803 O 265.87 -2.06769 -1.75951 0
M  V30 2804 C 264.326 -3.58313 0.337639 0
M  V30 2805 C 263.934 -4.12469 1.74852 0
M  V30 2806 C 265.678 -4.24431 -0.0766066 0
M  V30 2807 C 263.585 -5.62675 1.82074 0
M  V30 2808 H 262.515 -0.750008 0.0774893 0
M  V30 2809 H 265.166 -1.6217 0.858661 0
M  V30 2810 H 263.548 -3.9425 -0.371879 0
M  V30 2811 H 264.722 -3.8796 2.48644 0
M  V30 2812 H 263.037 -3.58861 2.11205 0
M  V30 2813 H 265.634 -5.34683 -0.0430284 0
M  V30 2814 H 265.977 -4.01101 -1.1146 0
M  V30 2815 H 266.51 -3.93512 0.582476 0
M  V30 2816 H 263.249 -5.90826 2.83911 0
M  V30 2817 H 262.769 -5.89124 1.12661 0
M  V30 2818 H 264.448 -6.27371 1.58159 0
M  V30 2819 N 264.58 -0.43555 -1.51462 0
M  V30 2820 C 265.991 0.0279871 -1.86679 0
M  V30 2821 C 266.342 1.42104 -1.35281 0
M  V30 2822 O 265.467 2.04667 -0.702878 0
M  V30 2823 C 266.062 0.0575626 -3.38751 0
M  V30 2824 C 264.621 0.465507 -3.7351 0
M  V30 2825 C 263.768 -0.342996 -2.75171 0
M  V30 2826 H 266.719 -0.651473 -1.44712 0
M  V30 2827 H 266.74 0.867421 -3.70481 0
M  V30 2828 H 266.252 -0.956448 -3.7613 0
M  V30 2829 H 264.353 1.48519 -3.41721 0
M  V30 2830 H 264.466 0.191546 -4.78717 0
M  V30 2831 H 262.83 0.198442 -2.53926 0
M  V30 2832 H 263.613 -1.35585 -3.15391 0
M  V30 2833 N 266.058 1.56714 -0.166846 0
M  V30 2834 C 266.968 2.21331 0.777791 0
M  V30 2835 C 267.984 1.20358 1.25658 0
M  V30 2836 O 269.16 1.53005 1.30964 0
M  V30 2837 C 266.225 2.83787 1.99163 0
M  V30 2838 C 265.286 3.99947 1.56016 0
M  V30 2839 C 264.519 4.59415 2.71613 0
M  V30 2840 O 264.742 4.17769 3.88362 0
M  V30 2841 O 263.676 5.49359 2.45945 0
M  V30 2842 H 267.502 3.02605 0.257636 0
M  V30 2843 H 265.087 1.49275 0.0611393 0
M  V30 2844 H 266.969 3.23405 2.70161 0
M  V30 2845 H 265.644 2.05513 2.50092 0
M  V30 2846 H 264.551 3.65007 0.819809 0
M  V30 2847 H 265.884 4.79801 1.09782 0
M  V30 2848 N 267.536 -0.106894 1.57237 0
M  V30 2849 C 268.784 -0.810921 1.85117 0
M  V30 2850 C 269.105 -1.7984 0.753827 0
M  V30 2851 O 268.375 -1.94649 -0.221056 0
M  V30 2852 H 266.955 -0.302466 0.683025 0
M  V30 2853 H 269.617 -0.0913324 1.94686 0
M  V30 2854 H 268.713 -1.34875 2.81452 0
M  V30 2855 N 269.014 -1.53014 -0.377408 0
M  V30 2856 C 269.944 -1.81589 -1.46791 0
M  V30 2857 C 270.925 -0.668622 -1.56408 0
M  V30 2858 O 272.11 -0.917337 -1.71168 0
M  V30 2859 C 269.24 -1.99519 -2.8427 0
M  V30 2860 C 268.194 -3.15249 -2.89486 0
M  V30 2861 C 267.52 -3.18451 -4.29527 0
M  V30 2862 C 268.82 -4.54084 -2.58079 0
M  V30 2863 H 270.514 -2.7291 -1.23127 0
M  V30 2864 H 268.06 -1.31319 -0.590883 0
M  V30 2865 H 270.013 -2.18092 -3.60575 0
M  V30 2866 H 268.737 -1.04897 -3.09296 0
M  V30 2867 H 267.396 -2.96477 -2.15631 0
M  V30 2868 H 267.044 -2.2149 -4.5161 0
M  V30 2869 H 266.744 -3.962 -4.33934 0
M  V30 2870 H 268.268 -3.39193 -5.07721 0
M  V30 2871 H 269.682 -4.72899 -3.24098 0
M  V30 2872 H 268.079 -5.33987 -2.7382 0
M  V30 2873 H 269.149 -4.60006 -1.53372 0
M  V30 2874 N 270.492 0.636531 -1.44174 0
M  V30 2875 C 271.424 1.7618 -1.46606 0
M  V30 2876 C 272.437 1.58768 -0.360091 0
M  V30 2877 O 273.626 1.67181 -0.625518 0
M  V30 2878 C 270.726 3.13833 -1.27915 0
M  V30 2879 C 269.899 3.57753 -2.51658 0
M  V30 2880 C 268.958 4.74265 -2.27945 0
M  V30 2881 O 267.984 4.82852 -3.01401 0
M  V30 2882 N 269.186 5.65604 -1.30662 0
M  V30 2883 H 271.951 1.74567 -2.43612 0
M  V30 2884 H 269.512 0.820924 -1.39544 0
M  V30 2885 H 271.504 3.8949 -1.09907 0
M  V30 2886 H 270.074 3.10121 -0.39293 0
M  V30 2887 H 269.294 2.72362 -2.84978 0
M  V30 2888 H 270.582 3.83847 -3.33974 0
M  V30 2889 H 269.98 5.61354 -0.699844 0
M  V30 2890 H 268.537 6.40913 -1.18634 0
M  V30 2891 N 271.97 1.30982 0.876444 0
M  V30 2892 C 273.21 1.21589 1.64303 0
M  V30 2893 C 273.574 -0.223962 1.90689 0
M  V30 2894 O 274.775 -0.44128 2.65153 0
M  V30 2895 C 273.046 2.03007 2.94148 0
M  V30 2896 S 274.605 2.10405 3.85065 0
M  V30 2897 H 271.423 0.433161 0.563819 0
M  V30 2898 H 274.025 1.65565 1.03964 0
M  V30 2899 H 272.729 3.06719 2.72675 0
M  V30 2900 H 272.26 1.59725 3.59515 0
M  V30 2901 H 274.275 1.23765 4.80517 0
M  V30 2902 N 273.449 -1.08991 1.13837 0
M  V30 2903 C 274.674 -1.85551 0.926585 0
M  V30 2904 C 275.099 -1.80782 -0.519566 0
M  V30 2905 O 274.457 -1.18855 -1.36906 0
M  V30 2906 C 274.505 -3.31266 1.42462 0
M  V30 2907 O 273.609 -4.07822 0.612789 0
M  V30 2908 H 272.95 -0.575192 0.331738 0
M  V30 2909 H 275.48 -1.37604 1.51414 0
M  V30 2910 H 275.49 -3.82112 1.43019 0
M  V30 2911 H 274.165 -3.34052 2.47754 0
M  V30 2912 H 272.742 -3.66731 0.675463 0
M  V30 2913 N 274.927 -0.932562 -1.27047 0
M  V30 2914 C 276.167 -0.582919 -1.95912 0
M  V30 2915 C 276.531 0.860629 -1.71631 0
M  V30 2916 O 277.732 1.31878 -2.34225 0
M  V30 2917 C 276.003 -0.905673 -3.45734 0
M  V30 2918 S 277.562 -0.665277 -4.33727 0
M  V30 2919 H 274.38 -0.215 -0.677714 0
M  V30 2920 H 276.982 -1.20204 -1.54179 0
M  V30 2921 H 275.686 -1.95386 -3.60905 0
M  V30 2922 H 275.217 -0.275939 -3.92431 0
M  V30 2923 H 277.232 0.474635 -4.93925 0
M  V30 2924 N 276.405 1.4127 -0.698611 0
M  V30 2925 C 277.653 2.00782 -0.230409 0
M  V30 2926 C 277.974 1.5562 1.17505 0
M  V30 2927 O 277.244 0.78815 1.79346 0
M  V30 2928 H 275.824 0.742464 -0.0821944 0
M  V30 2929 H 278.486 1.72852 -0.90045 0
M  V30 2930 H 277.582 3.11095 -0.25021 0
M  V30 2931 N 277.883 0.443576 1.51229 0
M  V30 2932 C 279.132 -0.122332 2.01329 0
M  V30 2933 C 279.445 -1.43237 1.33201 0
M  V30 2934 O 280.651 -2.0816 1.74304 0
M  V30 2935 C 279.107 -0.268551 3.58897 0
M  V30 2936 C 278.715 1.03142 4.35965 0
M  V30 2937 C 280.459 -0.787894 4.17124 0
M  V30 2938 C 278.366 0.850504 5.85252 0
M  V30 2939 H 277.296 -0.0494929 0.752374 0
M  V30 2940 H 279.947 0.574289 1.74282 0
M  V30 2941 H 278.329 -1.02832 3.82415 0
M  V30 2942 H 279.503 1.80001 4.24189 0
M  V30 2943 H 277.818 1.47977 3.89219 0
M  V30 2944 H 280.415 -0.939841 5.26375 0
M  V30 2945 H 280.758 -1.77201 3.76703 0
M  V30 2946 H 281.291 -0.0862669 3.97706 0
M  V30 2947 H 278.03 1.80718 6.30096 0
M  V30 2948 H 277.55 0.121825 5.99676 0
M  V30 2949 H 279.229 0.506163 6.45017 0
M  V30 2950 N 279.361 -1.56624 0.175154 0
M  V30 2951 C 280.638 -1.88688 -0.515373 0
M  V30 2952 C 281.018 -1.08564 -1.81044 0
M  V30 2953 O 280.366 -0.180703 -2.27784 0
M  V30 2954 C 280.576 -3.40768 -0.753552 0
M  V30 2955 C 281.924 -4.10587 -1.08184 0
M  V30 2956 O 282.948 -3.46106 -0.841961 0
M  V30 2957 O 281.807 -5.24512 -1.53459 0
M  V30 2958 H 278.901 -0.78301 -0.26613 0
M  V30 2959 H 281.447 -1.68347 0.213877 0
M  V30 2960 H 280.219 -3.90965 0.161829 0
M  V30 2961 H 279.842 -3.66733 -1.53598 0
M  V30 2962 N 280.839 0.0985539 -1.57292 0
M  V30 2963 C 282.069 0.815135 -1.8984 0
M  V30 2964 C 282.477 1.7297 -0.766679 0
M  V30 2965 O 281.82 1.81698 0.270483 0
M  V30 2966 C 281.882 1.6842 -3.17608 0
M  V30 2967 C 281.546 0.94182 -4.4719 0
M  V30 2968 C 282.543 0.273212 -5.19182 0
M  V30 2969 C 280.228 0.916927 -4.9386 0
M  V30 2970 C 282.222 -0.410361 -6.36078 0
M  V30 2971 C 279.909 0.229567 -6.10669 0
M  V30 2972 C 280.907 -0.432902 -6.81627 0
M  V30 2973 O 280.595 -1.10925 -7.9621 0
M  V30 2974 H 280.327 0.238501 -0.632529 0
M  V30 2975 H 282.881 0.0812659 -2.05239 0
M  V30 2976 H 281.111 2.46022 -2.98345 0
M  V30 2977 H 282.8 2.27704 -3.36015 0
M  V30 2978 H 283.566 0.283927 -4.84168 0
M  V30 2979 H 279.445 1.42201 -4.3852 0
M  V30 2980 H 282.989 -0.928013 -6.914 0
M  V30 2981 H 278.886 0.216686 -6.45136 0
M  V30 2982 H 279.654 -1.01579 -8.12172 0
M  V30 2983 N 282.317 1.53212 0.369288 0
M  V30 2984 C 283.547 1.72868 1.13139 0
M  V30 2985 C 283.955 0.455754 1.83629 0
M  V30 2986 O 283.298 -0.580861 1.74275 0
M  V30 2987 C 283.36 2.83667 2.20847 0
M  V30 2988 C 283.024 4.24142 1.70155 0
M  V30 2989 C 284.021 5.06619 1.16763 0
M  V30 2990 C 281.706 4.70539 1.7578 0
M  V30 2991 C 283.7 6.33581 0.696678 0
M  V30 2992 C 281.387 5.97481 1.28297 0
M  V30 2993 C 282.385 6.78833 0.753307 0
M  V30 2994 O 282.073 8.03393 0.285475 0
M  V30 2995 H 281.805 0.581707 0.344373 0
M  V30 2996 H 284.359 2.00736 0.435243 0
M  V30 2997 H 282.589 2.51265 2.93944 0
M  V30 2998 H 284.278 2.91536 2.82421 0
M  V30 2999 H 285.044 4.71948 1.11758 0
M  V30 3000 H 280.923 4.07293 2.15949 0
M  V30 3001 H 284.467 6.97027 0.282581 0
M  V30 3002 H 280.364 6.31651 1.32994 0
M  V30 3003 H 281.132 8.17497 0.405145 0
M  V30 3004 N 283.795 -0.628877 1.44509 0
M  V30 3005 C 285.023 -1.41554 1.50897 0
M  V30 3006 C 285.438 -1.8832 0.134564 0
M  V30 3007 O 284.795 -1.60969 -0.859965 0
M  V30 3008 C 284.846 -2.63435 2.47556 0
M  V30 3009 O 284.567 -2.18619 3.79654 0
M  V30 3010 C 286.068 -3.56537 2.63431 0
M  V30 3011 H 283.288 -0.434044 0.511709 0
M  V30 3012 H 285.832 -0.768895 1.89495 0
M  V30 3013 H 283.987 -3.24187 2.12089 0
M  V30 3014 H 284.401 -2.97652 4.31861 0
M  V30 3015 H 285.875 -4.38657 3.35088 0
M  V30 3016 H 286.352 -4.05493 1.68738 0
M  V30 3017 H 286.958 -3.01653 2.9981 0
M  V30 3018 N 285.273 -1.31445 -0.869486 0
M  V30 3019 C 286.203 -1.21727 -1.99261 0
M  V30 3020 C 287.184 -0.104359 -1.6978 0
M  V30 3021 O 288.369 -0.289038 -1.92037 0
M  V30 3022 C 285.499 -0.924317 -3.34774 0
M  V30 3023 C 284.453 -1.99685 -3.78563 0
M  V30 3024 C 283.779 -1.55658 -5.11541 0
M  V30 3025 C 285.079 -3.41003 -3.95619 0
M  V30 3026 H 286.773 -2.1569 -2.07649 0
M  V30 3027 H 284.319 -1.03839 -0.997675 0
M  V30 3028 H 286.272 -0.842934 -4.12883 0
M  V30 3029 H 284.996 0.0509793 -3.2656 0
M  V30 3030 H 283.655 -2.06813 -3.02694 0
M  V30 3031 H 283.303 -0.569132 -4.9977 0
M  V30 3032 H 283.003 -2.27409 -5.41811 0
M  V30 3033 H 284.527 -1.48928 -5.92159 0
M  V30 3034 H 285.941 -3.36547 -4.64122 0
M  V30 3035 H 284.338 -4.10975 -4.37286 0
M  V30 3036 H 285.408 -3.81754 -2.98985 0
M  V30 3037 N 286.751 1.08385 -1.14413 0
M  V30 3038 C 287.698 2.15311 -0.831265 0
M  V30 3039 C 288.668 1.64751 0.211292 0
M  V30 3040 O 289.853 1.90627 0.0811674 0
M  V30 3041 C 286.993 3.43658 -0.315143 0
M  V30 3042 C 286.106 4.08064 -1.41802 0
M  V30 3043 C 285.241 5.24207 -0.859126 0
M  V30 3044 C 284.28 5.80554 -1.93967 0
M  V30 3045 N 283.417 6.88042 -1.39793 0
M  V30 3046 H 288.257 2.41415 -1.74708 0
M  V30 3047 H 285.794 1.18474 -0.871909 0
M  V30 3048 H 287.752 4.172 0.00230884 0
M  V30 3049 H 286.382 3.17839 0.56378 0
M  V30 3050 H 285.434 3.3228 -1.85187 0
M  V30 3051 H 286.746 4.45962 -2.23427 0
M  V30 3052 H 285.9 6.04689 -0.49359 0
M  V30 3053 H 284.639 4.87699 -0.011932 0
M  V30 3054 H 283.644 4.98725 -2.31415 0
M  V30 3055 H 284.869 6.19121 -2.79046 0
M  V30 3056 H 282.815 6.53493 -0.572919 0
M  V30 3057 H 282.732 7.24767 -2.15054 0
M  V30 3058 H 284 7.72255 -1.0603 0
M  V30 3059 N 288.23 0.939286 1.26551 0
M  V30 3060 C 289.641 0.628782 1.75793 0
M  V30 3061 C 289.992 -0.856046 1.7654 0
M  V30 3062 O 289.117 -1.66994 1.3763 0
M  V30 3063 C 289.712 1.13465 3.19235 0
M  V30 3064 C 288.271 0.874601 3.66098 0
M  V30 3065 C 287.418 1.28667 2.45642 0
M  V30 3066 H 290.369 1.1178 1.12654 0
M  V30 3067 H 290.39 0.487609 3.77363 0
M  V30 3068 H 289.902 2.21535 3.1866 0
M  V30 3069 H 288.003 -0.191793 3.72106 0
M  V30 3070 H 288.116 1.50028 4.55004 0
M  V30 3071 H 286.48 0.705109 2.44745 0
M  V30 3072 H 287.263 2.37625 2.47769 0
M  V30 3073 N 289.708 -1.40897 0.706093 0
M  V30 3074 C 290.618 -2.3455 0.0482286 0
M  V30 3075 C 291.634 -1.56796 -0.754396 0
M  V30 3076 O 292.81 -1.89228 -0.689538 0
M  V30 3077 C 289.875 -3.35625 -0.869303 0
M  V30 3078 C 288.936 -4.29261 -0.0576994 0
M  V30 3079 C 288.169 -5.25508 -0.931531 0
M  V30 3080 O 288.392 -5.27472 -2.17092 0
M  V30 3081 O 287.326 -6.00727 -0.375587 0
M  V30 3082 H 291.152 -2.92407 0.820476 0
M  V30 3083 H 288.737 -1.4193 0.4665 0
M  V30 3084 H 290.619 -3.97635 -1.39514 0
M  V30 3085 H 289.294 -2.80196 -1.62086 0
M  V30 3086 H 288.201 -3.70566 0.512988 0
M  V30 3087 H 289.534 -4.87817 0.655426 0
M  V30 3088 N 291.186 -0.45159 -1.50991 0
M  V30 3089 C 292.432 0.110237 -2.025 0
M  V30 3090 C 292.765 1.41109 -1.33424 0
M  V30 3091 O 292.04 1.89135 -0.453659 0
M  V30 3092 C 292.323 0.314271 -3.58726 0
M  V30 3093 C 292.176 -1.00623 -4.38401 0
M  V30 3094 C 293.495 1.07767 -4.26702 0
M  V30 3095 H 290.614 0.0385897 -0.735989 0
M  V30 3096 H 293.256 -0.593374 -1.80497 0
M  V30 3097 H 291.406 0.913601 -3.77605 0
M  V30 3098 H 293.078 -1.64064 -4.31139 0
M  V30 3099 H 291.321 -1.6075 -4.02917 0
M  V30 3100 H 291.992 -0.817341 -5.45915 0
M  V30 3101 H 294.468 0.56986 -4.12179 0
M  V30 3102 H 293.344 1.18921 -5.35863 0
M  V30 3103 H 293.605 2.10939 -3.88532 0
M  V30 3104 N 292.664 1.56529 -0.183458 0
M  V30 3105 C 293.612 2.19873 0.758845 0
M  V30 3106 C 294.606 1.16638 1.22849 0
M  V30 3107 O 295.812 1.3481 1.19274 0
M  V30 3108 H 292.187 0.7045 0.263029 0
M  V30 3109 H 294.158 2.97724 0.200755 0
M  V30 3110 C 292.907 2.86314 1.9728 0
M  V30 3111 H 292.23 3.65487 1.62047 0
M  V30 3112 H 293.67 3.3409 2.61075 0
M  V30 3113 C 292.129 1.86729 2.80418 0
M  V30 3114 O 292.659 1.36031 3.77966 0
M  V30 3115 N 290.865 1.55216 2.45675 0
M  V30 3116 H 290.412 1.96636 1.66409 0
M  V30 3117 H 290.37 0.888388 3.01588 0
M  V30 3118 N 294.142 -0.090211 1.57342 0
M  V30 3119 C 295.09 -1.12792 2.03422 0
M  V30 3120 C 296.084 -1.41182 0.936166 0
M  V30 3121 O 297.29 -1.40805 1.12133 0
M  V30 3122 H 293.665 -0.380986 0.648347 0
M  V30 3123 H 295.636 -0.71299 2.89757 0
M  V30 3124 C 294.385 -2.43855 2.47851 0
M  V30 3125 H 293.708 -2.22855 3.31927 0
M  V30 3126 H 295.148 -3.14955 2.83865 0
M  V30 3127 C 293.607 -3.08503 1.3538 0
M  V30 3128 O 294.137 -3.95805 0.685641 0
M  V30 3129 N 292.343 -2.68831 1.10355 0
M  V30 3130 H 291.89 -1.97929 1.64869 0
M  V30 3131 H 291.848 -3.12412 0.353031 0
M  V30 3132 N 295.62 -1.53406 -0.361157 0
M  V30 3133 C 296.53 -1.83122 -1.4664 0
M  V30 3134 C 297.546 -0.719943 -1.58407 0
M  V30 3135 O 298.722 -1.01046 -1.74218 0
M  V30 3136 C 295.787 -2.01891 -2.81853 0
M  V30 3137 C 294.848 -3.25784 -2.79577 0
M  V30 3138 C 294.081 -3.43648 -4.0834 0
M  V30 3139 O 294.304 -2.65714 -5.0473 0
M  V30 3140 O 293.238 -4.37018 -4.13883 0
M  V30 3141 H 297.064 -2.7703 -1.24451 0
M  V30 3142 H 294.649 -1.38841 -0.551678 0
M  V30 3143 H 296.531 -2.15782 -3.61962 0
M  V30 3144 H 295.206 -1.11173 -3.0401 0
M  V30 3145 H 294.113 -3.17312 -1.98151 0
M  V30 3146 H 295.446 -4.16439 -2.62373 0
M  V30 3147 N 297.098 0.621204 -1.44841 0
M  V30 3148 C 298.323 1.41244 -1.51871 0
M  V30 3149 C 298.748 1.87519 -0.147764 0
M  V30 3150 O 298.106 1.59334 0.865 0
M  V30 3151 C 298.154 2.60221 -2.49634 0
M  V30 3152 O 297.258 3.60395 -2.00473 0
M  V30 3153 H 296.599 0.42223 -0.512463 0
M  V30 3154 H 299.129 0.757305 -1.90069 0
M  V30 3155 H 299.139 3.0764 -2.67996 0
M  V30 3156 H 297.814 2.25887 -3.4921 0
M  V30 3157 H 296.391 3.19717 -1.91925 0
M  V30 3158 N 298.576 1.31904 0.862503 0
M  V30 3159 C 299.823 1.22017 1.61611 0
M  V30 3160 C 300.151 -0.21991 1.93253 0
M  V30 3161 O 299.406 -1.17076 1.56817 0
M  V30 3162 C 299.705 2.01713 2.95037 0
M  V30 3163 C 299.371 3.51145 2.82857 0
M  V30 3164 C 298.033 3.91889 2.79243 0
M  V30 3165 C 300.385 4.46204 2.69353 0
M  V30 3166 C 297.713 5.25947 2.59993 0
M  V30 3167 C 300.065 5.80397 2.5164 0
M  V30 3168 C 298.729 6.20352 2.46413 0
M  V30 3169 H 297.999 0.44649 0.591378 0
M  V30 3170 H 300.646 1.63248 1.00111 0
M  V30 3171 H 298.951 1.53185 3.60613 0
M  V30 3172 H 300.648 1.91437 3.52353 0
M  V30 3173 H 297.238 3.1878 2.86491 0
M  V30 3174 H 301.422 4.15652 2.71196 0
M  V30 3175 H 296.678 5.5597 2.54376 0
M  V30 3176 H 300.852 6.53676 2.40169 0
M  V30 3177 H 298.479 7.24172 2.31256 0
M  V30 3178 N 300.054 -1.07777 1.14986 0
M  V30 3179 C 301.3 -1.80557 0.923422 0
M  V30 3180 C 301.633 -1.86298 -0.548337 0
M  V30 3181 O 300.908 -1.34354 -1.40639 0
M  V30 3182 C 301.191 -3.25839 1.53299 0
M  V30 3183 C 301.044 -3.28269 3.07505 0
M  V30 3184 C 302.363 -4.22991 1.21518 0
M  V30 3185 H 299.482 -0.655493 0.336894 0
M  V30 3186 H 302.124 -1.26144 1.42083 0
M  V30 3187 H 300.274 -3.72306 1.10999 0
M  V30 3188 H 301.946 -2.90079 3.58681 0
M  V30 3189 H 300.189 -2.67355 3.4162 0
M  V30 3190 H 300.86 -4.30691 3.45266 0
M  V30 3191 H 303.336 -3.84894 1.581 0
M  V30 3192 H 302.212 -5.22945 1.66793 0
M  V30 3193 H 302.473 -4.41904 0.131505 0
M  V30 3194 N 301.532 -0.945985 -1.26051 0
M  V30 3195 C 302.781 -0.591836 -1.92822 0
M  V30 3196 C 303.094 0.873956 -1.7499 0
M  V30 3197 O 304.3 1.33769 -2.36259 0
M  V30 3198 C 302.756 -1.00776 -3.45503 0
M  V30 3199 C 302.364 -2.4955 -3.7206 0
M  V30 3200 C 304.108 -0.725735 -4.1825 0
M  V30 3201 C 302.015 -2.84988 -5.18205 0
M  V30 3202 H 300.945 -0.217635 -0.721908 0
M  V30 3203 H 303.596 -1.14927 -1.43052 0
M  V30 3204 H 301.978 -0.378812 -3.94184 0
M  V30 3205 H 303.152 -3.1739 -3.34066 0
M  V30 3206 H 301.467 -2.75133 -3.12555 0
M  V30 3207 H 304.064 -0.966771 -5.25887 0
M  V30 3208 H 304.407 0.337639 -4.14929 0
M  V30 3209 H 304.94 -1.31463 -3.7545 0
M  V30 3210 H 301.679 -3.90307 -5.26631 0
M  V30 3211 H 301.199 -2.21813 -5.57278 0
M  V30 3212 H 302.878 -2.73712 -5.86252 0
M  V30 3213 N 303.011 1.40521 -0.713556 0
M  V30 3214 C 304.241 2.0494 -0.261395 0
M  V30 3215 C 304.649 1.53861 1.10107 0
M  V30 3216 O 303.992 0.689321 1.70276 0
M  V30 3217 C 304.054 3.59138 -0.161227 0
M  V30 3218 C 303.718 4.33096 -1.45865 0
M  V30 3219 C 304.715 4.61182 -2.40016 0
M  V30 3220 C 302.4 4.72043 -1.71701 0
M  V30 3221 C 304.394 5.27196 -3.58251 0
M  V30 3222 C 302.081 5.37789 -2.90218 0
M  V30 3223 C 303.079 5.65295 -3.83315 0
M  V30 3224 O 302.767 6.29683 -4.99754 0
M  V30 3225 H 302.499 0.666041 -0.115608 0
M  V30 3226 H 305.053 1.80954 -0.971849 0
M  V30 3227 H 303.283 3.81936 0.605153 0
M  V30 3228 H 304.972 4.05091 0.256105 0
M  V30 3229 H 305.738 4.31559 -2.21318 0
M  V30 3230 H 301.617 4.50003 -1.00092 0
M  V30 3231 H 305.161 5.48582 -4.30934 0
M  V30 3232 H 301.058 5.66831 -3.08825 0
M  V30 3233 H 301.826 6.4818 -4.99805 0
M  V30 3234 N 304.489 0.459591 1.5075 0
M  V30 3235 C 305.422 -0.386257 2.24907 0
M  V30 3236 C 306.4 -1.006 1.27744 0
M  V30 3237 O 307.584 -1.04416 1.56938 0
M  V30 3238 C 304.711 -1.54021 3.01654 0
M  V30 3239 C 303.757 -1.03898 4.13651 0
M  V30 3240 S 304.59 0.0370501 5.35487 0
M  V30 3241 C 305.746 -1.12105 6.15779 0
M  V30 3242 H 305.979 0.243272 2.96303 0
M  V30 3243 H 303.512 0.244339 1.52454 0
M  V30 3244 H 305.47 -2.20163 3.46466 0
M  V30 3245 H 304.131 -2.14121 2.29806 0
M  V30 3246 H 303.324 -1.90254 4.66711 0
M  V30 3247 H 302.926 -0.45545 3.71216 0
M  V30 3248 H 305.218 -2.03501 6.46215 0
M  V30 3249 H 306.161 -0.62995 7.05292 0
M  V30 3250 H 306.569 -1.36967 5.47631 0
M  V30 3251 N 305.967 -1.56429 0.191757 0
M  V30 3252 C 307.214 -1.97485 -0.447891 0
M  V30 3253 C 307.542 -1.07852 -1.61859 0
M  V30 3254 O 306.797 -0.116903 -1.95351 0
M  V30 3255 C 307.096 -3.44449 -0.953384 0
M  V30 3256 C 306.762 -4.50781 0.103586 0
M  V30 3257 C 305.424 -4.79584 0.394023 0
M  V30 3258 C 307.776 -5.1471 0.819946 0
M  V30 3259 C 305.104 -5.69607 1.40585 0
M  V30 3260 C 307.456 -6.05827 1.8209 0
M  V30 3261 C 306.12 -6.32987 2.11857 0
M  V30 3262 H 305.39 -0.722648 -0.163895 0
M  V30 3263 H 308.037 -1.89322 0.28802 0
M  V30 3264 H 306.342 -3.49666 -1.76751 0
M  V30 3265 H 308.039 -3.73569 -1.45765 0
M  V30 3266 H 304.629 -4.28394 -0.132951 0
M  V30 3267 H 308.813 -4.92552 0.608789 0
M  V30 3268 H 304.069 -5.88926 1.64243 0
M  V30 3269 H 308.243 -6.54424 2.38123 0
M  V30 3270 H 305.87 -7.02544 2.90407 0
M  V30 3271 N 307.445 0.0818655 -1.57387 0
M  V30 3272 C 308.691 0.784074 -1.8703 0
M  V30 3273 C 309.024 1.77729 -0.782689 0
M  V30 3274 O 308.299 1.93384 0.208051 0
M  V30 3275 C 308.582 1.50105 -3.27323 0
M  V30 3276 C 308.435 0.524925 -4.46727 0
M  V30 3277 C 309.754 2.44843 -3.65705 0
M  V30 3278 H 306.873 0.283582 -0.680257 0
M  V30 3279 H 309.515 0.0474352 -1.89941 0
M  V30 3280 H 307.665 2.12897 -3.24972 0
M  V30 3281 H 309.337 -0.0970111 -4.61198 0
M  V30 3282 H 307.58 -0.160606 -4.33503 0
M  V30 3283 H 308.251 1.064 -5.41648 0
M  V30 3284 H 310.727 1.92135 -3.69085 0
M  V30 3285 H 309.603 2.92018 -4.64776 0
M  V30 3286 H 309.864 3.29197 -2.95096 0
M  V30 3287 N 308.923 1.53595 0.353017 0
M  V30 3288 C 310.169 1.70638 1.09593 0
M  V30 3289 C 310.502 0.463286 1.88593 0
M  V30 3290 O 309.777 -0.539597 1.86865 0
M  V30 3291 C 310.06 2.96406 2.04489 0
M  V30 3292 C 309.913 4.30901 1.29014 0
M  V30 3293 C 311.232 3.17812 3.0444 0
M  V30 3294 H 308.351 0.620913 0.397034 0
M  V30 3295 H 310.993 1.86254 0.375446 0
M  V30 3296 H 309.143 2.83223 2.65927 0
M  V30 3297 H 310.815 4.55917 0.702638 0
M  V30 3298 H 309.058 4.29741 0.592071 0
M  V30 3299 H 309.729 5.1506 1.98537 0
M  V30 3300 H 312.205 3.30263 2.53112 0
M  V30 3301 H 311.081 4.07223 3.6805 0
M  V30 3302 H 311.342 2.33669 3.75301 0
M  V30 3303 N 310.401 -0.613514 1.45168 0
M  V30 3304 C 311.351 -1.71871 1.49815 0
M  V30 3305 C 312.335 -1.56774 0.362021 0
M  V30 3306 O 313.527 -1.66212 0.608493 0
M  V30 3307 C 310.656 -3.1061 1.46207 0
M  V30 3308 C 309.742 -3.31114 2.64999 0
M  V30 3309 N 310.133 -3.21904 3.90143 0
M  V30 3310 C 308.431 -3.61966 2.6057 0
M  V30 3311 C 309.132 -3.43577 4.69393 0
M  V30 3312 N 308.108 -3.67287 4.00751 0
M  V30 3313 H 311.91 -1.63235 2.444 0
M  V30 3314 H 309.424 -0.816577 1.40377 0
M  V30 3315 H 311.421 -3.8989 1.4762 0
M  V30 3316 H 310.081 -3.20399 0.52673 0
M  V30 3317 H 311.092 -3.00436 4.21852 0
M  V30 3318 H 307.769 -3.78629 1.75916 0
M  V30 3319 H 309.159 -3.41901 5.78406 0
M  V30 3320 N 311.879 -1.3236 -0.855495 0
M  V30 3321 C 313.126 -1.22872 -1.60962 0
M  V30 3322 C 313.454 0.209658 -1.93367 0
M  V30 3323 O 312.709 1.16243 -1.57436 0
M  V30 3324 C 313.008 -2.03275 -2.93963 0
M  V30 3325 C 312.674 -3.5264 -2.80991 0
M  V30 3326 C 311.336 -3.93364 -2.7716 0
M  V30 3327 C 313.688 -4.47626 -2.66983 0
M  V30 3328 C 311.016 -5.27319 -2.572 0
M  V30 3329 C 313.368 -5.81723 -2.48558 0
M  V30 3330 C 312.032 -6.2165 -2.4312 0
M  V30 3331 H 311.302 -0.44962 -0.589001 0
M  V30 3332 H 313.949 -1.63777 -0.992442 0
M  V30 3333 H 312.254 -1.55095 -3.59795 0
M  V30 3334 H 313.951 -1.93303 -3.51333 0
M  V30 3335 H 310.541 -3.20295 -2.84797 0
M  V30 3336 H 314.725 -4.17084 -2.68988 0
M  V30 3337 H 309.981 -5.57311 -2.51424 0
M  V30 3338 H 314.155 -6.5494 -2.36699 0
M  V30 3339 H 311.782 -7.25388 -2.27412 0
M  V30 3340 N 313.357 1.07166 -1.15556 0
M  V30 3341 C 314.585 1.83514 -0.955519 0
M  V30 3342 C 315 1.82163 0.49621 0
M  V30 3343 O 314.357 1.23441 1.34419 0
M  V30 3344 C 314.408 3.30515 -1.46432 0
M  V30 3345 O 314.129 3.31937 -2.85918 0
M  V30 3346 C 315.63 4.23625 -1.30603 0
M  V30 3347 H 312.85 0.578926 -0.339244 0
M  V30 3348 H 315.394 1.35265 -1.53374 0
M  V30 3349 H 313.549 3.76106 -0.928584 0
M  V30 3350 H 313.963 4.23794 -3.09029 0
M  V30 3351 H 315.437 5.24831 -1.71047 0
M  V30 3352 H 315.914 4.38485 -0.250441 0
M  V30 3353 H 316.52 3.83871 -1.83094 0
M  V30 3354 N 314.835 0.952656 1.25548 0
M  V30 3355 C 316.084 0.602053 1.92505 0
M  V30 3356 C 316.397 -0.864663 1.75451 0
M  V30 3357 O 317.603 -1.32514 2.36965 0
M  V30 3358 C 316.059 1.02607 3.44963 0
M  V30 3359 C 315.667 2.51519 3.70732 0
M  V30 3360 C 317.411 0.747905 4.1786 0
M  V30 3361 C 315.318 2.87732 5.16686 0
M  V30 3362 H 314.248 0.22146 0.720744 0
M  V30 3363 H 316.899 1.15684 1.42441 0
M  V30 3364 H 315.281 0.399712 3.93978 0
M  V30 3365 H 316.455 3.19157 3.32378 0
M  V30 3366 H 314.77 2.76786 3.11092 0
M  V30 3367 H 317.367 0.994647 5.25367 0
M  V30 3368 H 317.71 -0.315629 4.15102 0
M  V30 3369 H 318.243 1.33452 3.74747 0
M  V30 3370 H 314.982 3.93095 5.24554 0
M  V30 3371 H 314.502 2.24765 5.56094 0
M  V30 3372 H 316.181 2.76817 5.84792 0
M  V30 3373 N 316.313 -1.40141 0.720998 0
M  V30 3374 C 317.724 -1.83678 0.334553 0
M  V30 3375 C 318.075 -1.6027 -1.13173 0
M  V30 3376 O 317.2 -1.08643 -1.87152 0
M  V30 3377 C 317.795 -3.33437 0.600437 0
M  V30 3378 C 316.354 -3.75447 0.267642 0
M  V30 3379 C 315.501 -2.63296 0.870097 0
M  V30 3380 H 318.452 -1.29331 0.919732 0
M  V30 3381 H 318.473 -3.80269 -0.132517 0
M  V30 3382 H 317.985 -3.50442 1.66768 0
M  V30 3383 H 316.086 -3.64035 -0.794329 0
M  V30 3384 H 316.199 -4.73344 0.74042 0
M  V30 3385 H 314.563 -2.52954 0.297739 0
M  V30 3386 H 315.346 -2.83112 1.94172 0
M  V30 3387 N 317.792 -0.46758 -1.50504 0
M  V30 3388 C 318.725 0.374324 -2.25109 0
M  V30 3389 C 319.703 0.99921 -1.28275 0
M  V30 3390 O 320.887 1.03583 -1.57489 0
M  V30 3391 C 318.014 1.52419 -3.02467 0
M  V30 3392 C 317.06 1.01702 -4.14197 0
M  V30 3393 S 317.893 -0.0654477 -5.3546 0
M  V30 3394 C 319.049 1.08837 -6.16365 0
M  V30 3395 H 319.282 -0.258983 -2.9617 0
M  V30 3396 H 316.815 -0.252421 -1.52323 0
M  V30 3397 H 318.773 2.18322 -3.47628 0
M  V30 3398 H 317.434 2.129 -2.30938 0
M  V30 3399 H 316.627 1.87776 -4.67714 0
M  V30 3400 H 316.229 0.435757 -3.71453 0
M  V30 3401 H 318.521 2.00071 -6.47285 0
M  V30 3402 H 319.464 0.592538 -7.05616 0
M  V30 3403 H 319.872 1.34061 -5.4835 0
M  V30 3404 N 319.27 1.56325 -0.20005 0
M  V30 3405 C 320.519 1.96895 0.437652 0
M  V30 3406 C 320.832 1.08999 1.62415 0
M  V30 3407 O 322.038 1.39372 2.32997 0
M  V30 3408 C 320.494 3.50198 0.830025 0
M  V30 3409 C 320.102 4.46765 -0.332461 0
M  V30 3410 C 321.846 3.99526 1.43453 0
M  V30 3411 C 319.753 5.91344 0.0811468 0
M  V30 3412 H 318.683 0.735209 0.167282 0
M  V30 3413 H 321.334 1.81148 -0.292853 0
M  V30 3414 H 319.716 3.61467 1.61734 0
M  V30 3415 H 320.89 4.47231 -1.11 0
M  V30 3416 H 319.205 4.07657 -0.848789 0
M  V30 3417 H 321.802 5.05025 1.75652 0
M  V30 3418 H 322.145 3.44122 2.34277 0
M  V30 3419 H 322.678 3.91393 0.71109 0
M  V30 3420 H 319.417 6.50685 -0.793033 0
M  V30 3421 H 318.937 5.94121 0.823445 0
M  V30 3422 H 320.616 6.44945 0.515252 0
M  V30 3423 N 320.748 -0.0735177 1.57428 0
M  V30 3424 C 321.997 -0.771809 1.86349 0
M  V30 3425 C 322.31 -1.78828 0.792452 0
M  V30 3426 O 323.516 -2.53602 0.96945 0
M  V30 3427 C 321.972 -1.42358 3.30548 0
M  V30 3428 C 321.58 -0.445761 4.45777 0
M  V30 3429 C 323.324 -2.10434 3.6867 0
M  V30 3430 C 321.231 -1.10335 5.81016 0
M  V30 3431 H 320.161 -0.291999 0.695164 0
M  V30 3432 H 322.812 -0.0250749 1.83483 0
M  V30 3433 H 321.194 -2.21852 3.28021 0
M  V30 3434 H 322.368 0.319239 4.59693 0
M  V30 3435 H 320.683 0.130457 4.16196 0
M  V30 3436 H 323.28 -2.60405 4.67004 0
M  V30 3437 H 323.623 -2.90298 2.98383 0
M  V30 3438 H 324.156 -1.37773 3.7318 0
M  V30 3439 H 320.895 -0.345061 6.54591 0
M  V30 3440 H 320.415 -1.83925 5.70904 0
M  V30 3441 H 322.094 -1.62367 6.26295 0
M  V30 3442 N 322.226 -1.5378 -0.344866 0
M  V30 3443 C 323.475 -1.7018 -1.08267 0
M  V30 3444 C 323.788 -0.471 -1.89845 0
M  V30 3445 O 324.994 -0.515917 -2.66553 0
M  V30 3446 C 323.45 -3.00923 -1.97417 0
M  V30 3447 C 323.058 -4.31335 -1.21053 0
M  V30 3448 C 324.802 -3.26688 -2.71063 0
M  V30 3449 C 322.709 -5.53153 -2.09225 0
M  V30 3450 H 321.639 -0.634138 -0.407903 0
M  V30 3451 H 324.29 -1.8028 -0.342246 0
M  V30 3452 H 322.672 -2.84676 -2.75274 0
M  V30 3453 H 323.846 -4.58281 -0.481159 0
M  V30 3454 H 322.161 -4.12173 -0.591813 0
M  V30 3455 H 324.758 -4.1489 -3.37299 0
M  V30 3456 H 325.101 -2.43639 -3.37558 0
M  V30 3457 H 325.634 -3.43705 -2.0028 0
M  V30 3458 H 322.373 -6.38741 -1.47274 0
M  V30 3459 H 321.893 -5.30458 -2.79955 0
M  V30 3460 H 323.572 -5.88744 -2.68308 0
M  V30 3461 N 323.704 0.605807 -1.45491 0
M  V30 3462 C 324.951 1.36476 -1.49601 0
M  V30 3463 C 325.279 1.94007 -0.138452 0
M  V30 3464 O 324.534 1.75638 0.863114 0
M  V30 3465 C 324.833 2.53012 -2.52428 0
M  V30 3466 C 324.499 2.13617 -3.97087 0
M  V30 3467 C 323.161 2.02587 -4.36477 0
M  V30 3468 C 325.513 1.82899 -4.88055 0
M  V30 3469 C 322.841 1.59064 -5.64726 0
M  V30 3470 C 325.193 1.40861 -6.16718 0
M  V30 3471 C 323.857 1.28391 -6.55036 0
M  V30 3472 H 323.127 0.499402 -0.547429 0
M  V30 3473 H 325.774 0.684546 -1.78847 0
M  V30 3474 H 324.079 3.26379 -2.16758 0
M  V30 3475 H 325.776 3.1124 -2.52845 0
M  V30 3476 H 322.366 2.23129 -3.65939 0
M  V30 3477 H 326.55 1.90317 -4.58359 0
M  V30 3478 H 321.806 1.48034 -5.93208 0
M  V30 3479 H 325.98 1.16138 -6.86648 0
M  V30 3480 H 323.607 0.944403 -7.54311 0
M  V30 3481 N 325.182 1.32811 0.848464 0
M  V30 3482 C 326.429 1.23724 1.60308 0
M  V30 3483 C 326.757 -0.1994 1.93475 0
M  V30 3484 O 326.012 -1.15406 1.5805 0
M  V30 3485 C 326.311 2.04831 2.92881 0
M  V30 3486 C 325.977 3.54125 2.79117 0
M  V30 3487 C 324.639 3.94829 2.7507 0
M  V30 3488 C 326.991 4.49036 2.64606 0
M  V30 3489 C 324.319 5.28675 2.544 0
M  V30 3490 C 326.671 5.83033 2.4547 0
M  V30 3491 C 325.335 6.22931 2.39819 0
M  V30 3492 H 324.605 0.452737 0.586609 0
M  V30 3493 H 327.252 1.64301 0.983743 0
M  V30 3494 H 325.557 1.57001 3.58968 0
M  V30 3495 H 327.254 1.95164 3.50303 0
M  V30 3496 H 323.844 3.21801 2.83094 0
M  V30 3497 H 328.028 4.18505 2.66772 0
M  V30 3498 H 323.284 5.58637 2.48465 0
M  V30 3499 H 327.458 6.56186 2.33222 0
M  V30 3500 H 325.085 7.26584 2.23562 0
M  V30 3501 N 326.66 -1.06551 1.16123 0
M  V30 3502 C 327.9 -1.80889 0.951766 0
M  V30 3503 C 328.264 -1.85062 -0.511465 0
M  V30 3504 O 329.465 -2.55353 -0.83954 0
M  V30 3505 C 327.736 -3.21609 1.55893 0
M  V30 3506 S 329.295 -4.12593 1.49373 0
M  V30 3507 H 326.113 -0.623156 0.342341 0
M  V30 3508 H 328.715 -1.27943 1.47821 0
M  V30 3509 H 327.419 -3.16165 2.61664 0
M  V30 3510 H 326.95 -3.79631 1.0317 0
M  V30 3511 H 328.965 -4.93753 0.492196 0
M  V30 3512 N 328.138 -0.959301 -1.25041 0
M  V30 3513 C 329.368 -0.63303 -1.96663 0
M  V30 3514 C 329.776 0.800031 -1.71453 0
M  V30 3515 O 329.119 1.54736 -0.99008 0
M  V30 3516 C 329.181 -0.817523 -3.50081 0
M  V30 3517 C 328.845 -2.22863 -3.98975 0
M  V30 3518 C 329.842 -3.20569 -4.09306 0
M  V30 3519 C 327.527 -2.55407 -4.32519 0
M  V30 3520 C 329.521 -4.4891 -4.52503 0
M  V30 3521 C 327.208 -3.83976 -4.754 0
M  V30 3522 C 328.206 -4.8054 -4.85356 0
M  V30 3523 O 327.894 -6.06817 -5.27284 0
M  V30 3524 H 327.626 -0.235866 -0.633516 0
M  V30 3525 H 330.18 -1.2874 -1.60047 0
M  V30 3526 H 328.41 -0.105992 -3.86555 0
M  V30 3527 H 330.099 -0.491604 -4.02912 0
M  V30 3528 H 330.865 -2.96753 -3.83618 0
M  V30 3529 H 326.744 -1.8097 -4.23994 0
M  V30 3530 H 330.288 -5.24283 -4.60188 0
M  V30 3531 H 326.185 -4.07596 -5.00535 0
M  V30 3532 H 326.953 -6.10262 -5.45457 0
M  V30 3533 N 329.616 1.39756 -0.72842 0
M  V30 3534 C 330.864 2.00248 -0.272946 0
M  V30 3535 C 331.185 1.58077 1.14178 0
M  V30 3536 O 330.455 0.826014 1.77634 0
M  V30 3537 H 329.035 0.740554 -0.0979247 0
M  V30 3538 H 331.697 1.70903 -0.936912 0
M  V30 3539 H 330.793 3.10495 -0.316142 0
M  V30 3540 N 331.094 0.475555 1.50254 0
M  V30 3541 C 332.026 -0.352649 2.26471 0
M  V30 3542 C 333.039 -0.953165 1.3198 0
M  V30 3543 O 334.228 -0.840815 1.57457 0
M  V30 3544 C 331.328 -1.50902 3.0345 0
M  V30 3545 C 330.501 -1.02047 4.25329 0
M  V30 3546 C 329.56 -2.05142 4.84565 0
M  V30 3547 O 328.586 -1.63023 5.45355 0
M  V30 3548 N 329.788 -3.37987 4.71959 0
M  V30 3549 H 332.553 0.300767 2.98187 0
M  V30 3550 H 330.114 0.306598 1.5897 0
M  V30 3551 H 332.106 -2.19572 3.39956 0
M  V30 3552 H 330.676 -2.06705 2.34504 0
M  V30 3553 H 329.896 -0.159507 3.93877 0
M  V30 3554 H 331.184 -0.672061 5.04342 0
M  V30 3555 H 330.582 -3.74913 4.23623 0
M  V30 3556 H 329.139 -4.02443 5.12721 0
M  V30 3557 N 332.573 -1.56217 0.208337 0
M  V30 3558 C 333.503 -2.22694 -0.702116 0
M  V30 3559 C 334.484 -1.19432 -1.2112 0
M  V30 3560 O 335.669 -1.47978 -1.25762 0
M  V30 3561 C 332.799 -2.8966 -1.9161 0
M  V30 3562 C 331.753 -3.9928 -1.5414 0
M  V30 3563 C 331.079 -4.53476 -2.83308 0
M  V30 3564 C 332.379 -5.17012 -0.741339 0
M  V30 3565 H 334.073 -2.99034 -0.147898 0
M  V30 3566 H 331.619 -1.43831 -0.0696951 0
M  V30 3567 H 333.572 -3.34852 -2.55836 0
M  V30 3568 H 332.296 -2.10746 -2.49507 0
M  V30 3569 H 330.955 -3.54799 -0.922668 0
M  V30 3570 H 330.603 -3.71308 -3.39322 0
M  V30 3571 H 330.303 -5.27451 -2.58976 0
M  V30 3572 H 331.827 -5.01378 -3.485 0
M  V30 3573 H 333.241 -5.58667 -1.28699 0
M  V30 3574 H 331.638 -5.97137 -0.595627 0
M  V30 3575 H 332.708 -4.8423 0.254851 0
M  V30 3576 N 334.051 0.0651679 -1.57465 0
M  V30 3577 C 335.297 0.764193 -1.87851 0
M  V30 3578 C 335.63 1.76889 -0.801495 0
M  V30 3579 O 334.905 1.93594 0.187528 0
M  V30 3580 C 335.188 1.46625 -3.28897 0
M  V30 3581 C 335.041 0.477515 -4.47258 0
M  V30 3582 C 336.36 2.4095 -3.68281 0
M  V30 3583 H 333.479 0.276351 -0.683227 0
M  V30 3584 H 336.121 0.0272868 -1.8998 0
M  V30 3585 H 334.271 2.09438 -3.27212 0
M  V30 3586 H 335.943 -0.145922 -4.61069 0
M  V30 3587 H 334.186 -0.206576 -4.33308 0
M  V30 3588 H 334.857 1.0065 -5.42746 0
M  V30 3589 H 337.333 1.88209 -3.71102 0
M  V30 3590 H 336.209 2.87072 -4.67847 0
M  V30 3591 H 336.47 3.26049 -2.98571 0
M  V30 3592 N 335.529 1.53961 0.336706 0
M  V30 3593 C 336.776 1.71536 1.07618 0
M  V30 3594 C 337.104 0.482125 1.8843 0
M  V30 3595 O 336.359 -0.536142 1.88213 0
M  V30 3596 C 336.658 2.93493 2.03953 0
M  V30 3597 C 336.324 4.28811 1.39399 0
M  V30 3598 C 334.986 4.65602 1.21523 0
M  V30 3599 C 337.338 5.12844 0.929541 0
M  V30 3600 C 334.666 5.84037 0.558312 0
M  V30 3601 C 337.018 6.31951 0.286505 0
M  V30 3602 C 335.682 6.67432 0.0954869 0
M  V30 3603 H 334.952 0.627696 0.393801 0
M  V30 3604 H 337.599 1.88186 0.354715 0
M  V30 3605 H 335.904 2.71475 2.82504 0
M  V30 3606 H 337.601 3.04285 2.61174 0
M  V30 3607 H 334.191 3.99858 1.54311 0
M  V30 3608 H 338.375 4.84947 1.05548 0
M  V30 3609 H 333.631 6.10097 0.398995 0
M  V30 3610 H 337.805 6.96352 -0.0814376 0
M  V30 3611 H 335.432 7.59063 -0.415579 0
M  V30 3612 N 337.007 -0.598083 1.45811 0
M  V30 3613 C 338.235 -1.38322 1.53866 0
M  V30 3614 C 338.65 -1.87992 0.174479 0
M  V30 3615 O 338.007 -1.62756 -0.825627 0
M  V30 3616 C 338.058 -2.58125 2.53089 0
M  V30 3617 O 337.779 -2.10516 3.84206 0
M  V30 3618 C 339.28 -3.50869 2.70935 0
M  V30 3619 H 336.5 -0.423093 0.520801 0
M  V30 3620 H 339.044 -0.728527 1.91083 0
M  V30 3621 H 337.199 -3.19615 2.18917 0
M  V30 3622 H 337.613 -2.88425 4.38077 0
M  V30 3623 H 339.087 -4.31451 3.44317 0
M  V30 3624 H 339.564 -4.01822 1.77301 0
M  V30 3625 H 340.17 -2.95225 3.06141 0
M  V30 3626 N 338.485 -1.33259 -0.841409 0
M  V30 3627 C 339.731 -1.24757 -1.59886 0
M  V30 3628 C 340.064 0.186913 -1.93298 0
M  V30 3629 O 339.339 1.12757 -1.5848 0
M  V30 3630 C 339.622 -2.12036 -2.91055 0
M  V30 3631 C 339.475 -3.63929 -2.6434 0
M  V30 3632 C 340.794 -1.9916 -3.92458 0
M  V30 3633 H 337.913 -0.454542 -0.580138 0
M  V30 3634 H 340.555 -1.63335 -0.970647 0
M  V30 3635 H 338.705 -1.79265 -3.44669 0
M  V30 3636 H 340.377 -4.06978 -2.17178 0
M  V30 3637 H 338.62 -3.85935 -1.98082 0
M  V30 3638 H 339.291 -4.20341 -3.57796 0
M  V30 3639 H 341.767 -2.27895 -3.48143 0
M  V30 3640 H 340.643 -2.62484 -4.82072 0
M  V30 3641 H 340.904 -0.963082 -4.31482 0
M  V30 3642 N 339.963 1.05934 -1.16686 0
M  V30 3643 C 340.91 2.13499 -0.876748 0
M  V30 3644 C 341.88 1.65162 0.176299 0
M  V30 3645 O 343.065 1.90757 0.0407143 0
M  V30 3646 C 340.205 3.42912 -0.387967 0
M  V30 3647 C 339.318 4.04964 -1.50426 0
M  V30 3648 C 338.453 5.22266 -0.970125 0
M  V30 3649 C 337.492 5.76309 -2.06238 0
M  V30 3650 N 336.629 6.84922 -1.54356 0
M  V30 3651 H 341.469 2.37654 -1.7979 0
M  V30 3652 H 339.006 1.16598 -0.896843 0
M  V30 3653 H 340.964 4.17111 -0.086186 0
M  V30 3654 H 339.594 3.18963 0.496235 0
M  V30 3655 H 338.646 3.28277 -1.92193 0
M  V30 3656 H 339.958 4.41122 -2.32836 0
M  V30 3657 H 339.112 6.03506 -0.621743 0
M  V30 3658 H 337.851 4.87564 -0.115377 0
M  V30 3659 H 336.856 4.93704 -2.41942 0
M  V30 3660 H 338.081 6.13062 -2.92115 0
M  V30 3661 H 336.027 6.52131 -0.711406 0
M  V30 3662 H 335.944 7.20043 -2.30379 0
M  V30 3663 H 337.212 7.69832 -1.22387 0
M  V30 3664 N 341.441 0.965919 1.2453 0
M  V30 3665 C 342.351 0.502154 2.29163 0
M  V30 3666 C 343.367 -0.436017 1.68448 0
M  V30 3667 O 344.543 -0.309497 1.99008 0
M  V30 3668 C 341.608 -0.201956 3.46111 0
M  V30 3669 C 340.669 0.775821 4.22232 0
M  V30 3670 C 339.902 0.105217 5.33596 0
M  V30 3671 O 340.125 -1.10683 5.59558 0
M  V30 3672 O 339.059 0.796475 5.96607 0
M  V30 3673 H 342.885 1.37194 2.70946 0
M  V30 3674 H 340.47 0.732875 1.30189 0
M  V30 3675 H 342.352 -0.597564 4.17142 0
M  V30 3676 H 341.027 -1.04673 3.06309 0
M  V30 3677 H 339.934 1.22185 3.53584 0
M  V30 3678 H 341.267 1.58896 4.65846 0
M  V30 3679 N 342.919 -1.39368 0.735821 0
M  V30 3680 C 343.882 -2.2896 0.104874 0
M  V30 3681 C 344.882 -1.46347 -0.666274 0
M  V30 3682 O 346.072 -1.67014 -0.49517 0
M  V30 3683 C 343.204 -3.29857 -0.860656 0
M  V30 3684 H 344.397 -2.86259 0.894205 0
M  V30 3685 H 341.95 -1.48029 0.501704 0
M  V30 3686 H 342.685 -2.77615 -1.67631 0
M  V30 3687 H 342.47 -3.9087 -0.310327 0
M  V30 3688 H 343.96 -3.96893 -1.29867 0
M  V30 3689 N 344.397 -0.483516 -1.5 0
M  V30 3690 C 345.36 0.292965 -2.2732 0
M  V30 3691 C 346.36 0.909499 -1.32608 0
M  V30 3692 O 347.55 0.776745 -1.55924 0
M  V30 3693 C 344.682 1.41854 -3.09984 0
M  V30 3694 H 345.875 -0.385289 -2.97415 0
M  V30 3695 H 343.428 -0.237942 -1.54478 0
M  V30 3696 H 344.163 2.13148 -2.44414 0
M  V30 3697 H 343.948 0.982114 -3.79601 0
M  V30 3698 H 345.438 1.96597 -3.68429 0
M  V30 3699 N 345.875 1.56104 -0.216619 0
M  V30 3700 C 346.838 2.18819 0.681962 0
M  V30 3701 C 347.838 1.14866 1.12528 0
M  V30 3702 O 349.028 1.40128 1.03488 0
M  V30 3703 C 346.16 2.80756 1.93362 0
M  V30 3704 H 347.353 2.99595 0.135254 0
M  V30 3705 H 344.906 1.56265 0.0330003 0
M  V30 3706 H 345.641 2.03837 2.52232 0
M  V30 3707 H 345.426 3.56876 1.62426 0
M  V30 3708 H 346.916 3.28844 2.57393 0
M  V30 3709 N 347.353 -0.0568162 1.57498 0
M  V30 3710 C 348.285 -1.09292 2.01464 0
M  V30 3711 C 349.298 -1.34112 0.922913 0
M  V30 3712 O 350.487 -1.32089 1.20062 0
M  V30 3713 C 347.587 -2.44068 2.35125 0
M  V30 3714 C 346.76 -2.38995 3.66333 0
M  V30 3715 C 345.819 -3.55997 3.87495 0
M  V30 3716 O 344.845 -3.36746 4.58901 0
M  V30 3717 N 346.047 -4.76888 3.30996 0
M  V30 3718 H 348.812 -0.718386 2.90963 0
M  V30 3719 H 346.373 -0.245235 1.60032 0
M  V30 3720 H 348.365 -3.21011 2.46443 0
M  V30 3721 H 346.935 -2.73468 1.5144 0
M  V30 3722 H 346.155 -1.47336 3.65631 0
M  V30 3723 H 347.443 -2.3272 4.52458 0
M  V30 3724 H 346.841 -4.95431 2.73065 0
M  V30 3725 H 345.398 -5.51291 3.47738 0
M  V30 3726 N 348.832 -1.54138 -0.328536 0
M  V30 3727 C 349.764 -1.79509 -1.4251 0
M  V30 3728 C 350.777 -0.67688 -1.48061 0
M  V30 3729 O 351.966 -0.953898 -1.50874 0
M  V30 3730 C 349.066 -1.89337 -2.81078 0
M  V30 3731 C 348.239 -3.19443 -2.98789 0
M  V30 3732 C 347.298 -3.20036 -4.17688 0
M  V30 3733 O 346.324 -3.93697 -4.11086 0
M  V30 3734 N 347.526 -2.43467 -5.26976 0
M  V30 3735 H 350.291 -2.74139 -1.21111 0
M  V30 3736 H 347.852 -1.53373 -0.518499 0
M  V30 3737 H 349.844 -1.87167 -3.58818 0
M  V30 3738 H 348.414 -1.01826 -2.95551 0
M  V30 3739 H 347.634 -3.34614 -2.08391 0
M  V30 3740 H 348.922 -4.05354 -3.07515 0
M  V30 3741 H 348.32 -1.83201 -5.35214 0
M  V30 3742 H 346.877 -2.4708 -6.03154 0
M  V30 3743 N 350.31 0.590341 -1.46126 0
M  V30 3744 C 351.242 1.71427 -1.52136 0
M  V30 3745 C 352.255 1.57542 -0.41042 0
M  V30 3746 O 353.444 1.65106 -0.678389 0
M  V30 3747 C 350.544 3.09605 -1.37834 0
M  V30 3748 C 349.717 3.49566 -2.62912 0
M  V30 3749 C 348.776 4.66773 -2.42918 0
M  V30 3750 O 347.802 4.73019 -3.1661 0
M  V30 3751 N 349.004 5.61161 -1.4859 0
M  V30 3752 H 351.769 1.66728 -2.49042 0
M  V30 3753 H 349.33 0.776113 -1.42085 0
M  V30 3754 H 351.322 3.85796 -1.22243 0
M  V30 3755 H 349.892 3.08714 -0.491393 0
M  V30 3756 H 349.112 2.63158 -2.93499 0
M  V30 3757 H 350.4 3.73028 -3.46017 0
M  V30 3758 H 349.798 5.58844 -0.87808 0
M  V30 3759 H 348.355 6.36814 -1.38965 0
M  V30 3760 N 351.788 1.33704 0.83433 0
M  V30 3761 C 352.698 1.26382 1.97648 0
M  V30 3762 C 353.714 0.173548 1.73132 0
M  V30 3763 O 354.89 0.397962 1.97429 0
M  V30 3764 C 351.955 1.00769 3.31733 0
M  V30 3765 C 351.016 2.1884 3.69334 0
M  V30 3766 C 350.249 1.9444 4.9702 0
M  V30 3767 O 350.472 0.896961 5.63303 0
M  V30 3768 O 349.406 2.81093 5.32231 0
M  V30 3769 H 353.232 2.22444 2.06767 0
M  V30 3770 H 350.817 1.13795 0.968037 0
M  V30 3771 H 352.699 0.882186 4.12062 0
M  V30 3772 H 351.374 0.0773783 3.23608 0
M  V30 3773 H 350.281 2.36946 2.89495 0
M  V30 3774 H 351.614 3.10221 3.82131 0
M  V30 3775 N 353.266 -1.05314 1.17247 0
M  V30 3776 C 354.491 -1.82509 0.985148 0
M  V30 3777 C 354.916 -1.82343 -0.461788 0
M  V30 3778 O 354.274 -1.23151 -1.33055 0
M  V30 3779 C 354.322 -3.26566 1.52929 0
M  V30 3780 O 353.426 -4.05666 0.742225 0
M  V30 3781 H 352.767 -0.564347 0.349869 0
M  V30 3782 H 355.297 -1.32718 1.55715 0
M  V30 3783 H 355.307 -3.77369 1.55103 0
M  V30 3784 H 353.982 -3.26001 2.58256 0
M  V30 3785 H 352.559 -3.64397 0.791794 0
M  V30 3786 N 354.744 -0.972509 -1.24016 0
M  V30 3787 C 355.707 -0.511403 -2.23422 0
M  V30 3788 C 356.707 0.394679 -1.55881 0
M  V30 3789 O 357.897 0.189469 -1.73167 0
M  V30 3790 C 355.029 0.258769 -3.39916 0
M  V30 3791 H 356.222 -1.39024 -2.6573 0
M  V30 3792 H 353.775 -0.757585 -1.36713 0
M  V30 3793 H 354.51 1.1545 -3.03054 0
M  V30 3794 H 354.295 -0.391522 -3.9014 0
M  V30 3795 H 355.785 0.570244 -4.13688 0
M  V30 3796 N 356.222 1.38976 -0.743202 0
M  V30 3797 C 357.45 2.04636 -0.30525 0
M  V30 3798 C 357.865 1.56044 1.06281 0
M  V30 3799 O 357.222 0.728921 1.67311 0
M  V30 3800 C 357.273 3.60193 -0.307177 0
M  V30 3801 O 356.994 4.06998 -1.62124 0
M  V30 3802 C 358.495 4.4306 0.145928 0
M  V30 3803 H 355.715 0.65788 -0.132041 0
M  V30 3804 H 358.259 1.77866 -1.00915 0
M  V30 3805 H 356.414 3.85835 0.347898 0
M  V30 3806 H 356.828 5.01371 -1.54036 0
M  V30 3807 H 358.302 5.51921 0.0934183 0
M  V30 3808 H 358.779 4.22706 1.19231 0
M  V30 3809 H 359.385 4.22584 -0.479886 0
M  V30 3810 N 357.7 0.491464 1.49741 0
M  V30 3811 C 358.928 -0.0535151 2.06831 0
M  V30 3812 C 359.343 -1.31683 1.35296 0
M  V30 3813 O 358.7 -1.77402 0.42836 0
M  V30 3814 C 358.751 -0.320835 3.60073 0
M  V30 3815 O 358.472 0.892394 4.28915 0
M  V30 3816 C 359.973 -0.910519 4.33848 0
M  V30 3817 H 357.193 0.0161909 0.670805 0
M  V30 3818 H 359.737 0.68609 1.92647 0
M  V30 3819 H 357.892 -1.0104 3.73991 0
M  V30 3820 H 358.306 0.649401 5.20464 0
M  V30 3821 H 359.78 -1.04721 5.41976 0
M  V30 3822 H 360.257 -1.90589 3.95692 0
M  V30 3823 H 360.863 -0.258712 4.24512 0
M  V30 3824 N 359.178 -1.55987 0.224894 0
M  V30 3825 C 360.11 -2.17722 -0.716224 0
M  V30 3826 C 361.123 -1.14723 -1.15509 0
M  V30 3827 O 362.312 -1.41688 -1.08567 0
M  V30 3828 C 359.412 -2.74873 -1.98238 0
M  V30 3829 C 358.585 -4.03074 -1.69853 0
M  V30 3830 C 357.644 -4.44757 -2.81208 0
M  V30 3831 O 356.67 -5.11587 -2.49534 0
M  V30 3832 N 357.872 -4.10716 -4.10235 0
M  V30 3833 H 360.637 -2.99109 -0.188123 0
M  V30 3834 H 358.198 -1.6184 0.0440123 0
M  V30 3835 H 360.19 -2.99727 -2.7193 0
M  V30 3836 H 358.76 -1.9777 -2.42086 0
M  V30 3837 H 357.98 -3.86041 -0.797875 0
M  V30 3838 H 359.268 -4.86701 -1.48324 0
M  V30 3839 H 358.666 -3.57019 -4.38809 0
M  V30 3840 H 357.223 -4.40455 -4.80461 0
M  V30 3841 N 360.656 0.0484629 -1.57525 0
M  V30 3842 C 361.603 1.05504 -2.05275 0
M  V30 3843 C 362.573 1.37084 -0.937927 0
M  V30 3844 O 363.758 1.47754 -1.2072 0
M  V30 3845 C 360.898 2.35676 -2.52093 0
M  V30 3846 C 360.011 2.10423 -3.77288 0
M  V30 3847 C 359.146 3.34327 -4.12794 0
M  V30 3848 C 358.185 3.04542 -5.30962 0
M  V30 3849 N 357.322 4.20841 -5.61994 0
M  V30 3850 H 362.162 0.640885 -2.91027 0
M  V30 3851 H 359.699 0.304854 -1.43906 0
M  V30 3852 H 361.657 3.11709 -2.77297 0
M  V30 3853 H 360.287 2.7485 -1.69285 0
M  V30 3854 H 359.339 1.24976 -3.59284 0
M  V30 3855 H 360.651 1.84438 -4.63448 0
M  V30 3856 H 359.805 4.1874 -4.39024 0
M  V30 3857 H 358.544 3.63408 -3.25247 0
M  V30 3858 H 357.549 2.18528 -5.04505 0
M  V30 3859 H 358.774 2.76758 -6.20146 0
M  V30 3860 H 356.72 4.4991 -4.77406 0
M  V30 3861 H 356.637 3.98212 -6.42622 0
M  V30 3862 H 357.905 5.06184 -5.92789 0
M  V30 3863 N 362.134 1.5431 0.320358 0
M  V30 3864 C 363.097 1.83195 1.3774 0
M  V30 3865 C 364.097 0.703906 1.44575 0
M  V30 3866 O 365.287 0.972214 1.44546 0
M  V30 3867 C 362.419 1.99487 2.76438 0
M  V30 3868 H 363.612 2.77642 1.1338 0
M  V30 3869 H 361.165 1.46076 0.556012 0
M  V30 3870 H 361.9 1.07262 3.06048 0
M  V30 3871 H 361.685 2.81575 2.7287 0
M  V30 3872 H 363.175 2.23271 3.52902 0
M  V30 3873 N 363.613 -0.582584 1.46437 0
M  V30 3874 C 364.523 -1.71949 1.59595 0
M  V30 3875 C 365.539 -1.67264 0.479443 0
M  V30 3876 O 366.715 -1.87171 0.743579 0
M  V30 3877 C 363.78 -3.08452 1.58298 0
M  V30 3878 C 362.841 -3.244 2.81182 0
M  V30 3879 C 362.074 -4.54391 2.79937 0
M  V30 3880 O 362.297 -5.38287 1.8869 0
M  V30 3881 O 361.231 -4.73588 3.71481 0
M  V30 3882 H 365.057 -1.63795 2.55744 0
M  V30 3883 H 362.642 -0.749643 1.29231 0
M  V30 3884 H 364.524 -3.89732 1.60271 0
M  V30 3885 H 363.199 -3.17043 0.653094 0
M  V30 3886 H 362.106 -2.42613 2.84763 0
M  V30 3887 H 363.439 -3.20699 3.7338 0
M  V30 3888 N 365.091 -1.34144 -0.827227 0
M  V30 3889 C 366.038 -1.25364 -1.93785 0
M  V30 3890 C 367.008 -0.129774 -1.65592 0
M  V30 3891 O 368.193 -0.310024 -1.88264 0
M  V30 3892 C 365.333 -1.01064 -3.2997 0
M  V30 3893 C 364.446 -2.22185 -3.70484 0
M  V30 3894 C 363.581 -1.91203 -4.95595 0
M  V30 3895 C 362.62 -3.08491 -5.28677 0
M  V30 3896 N 361.757 -2.77421 -6.44967 0
M  V30 3897 H 366.597 -2.20347 -2.00627 0
M  V30 3898 H 364.134 -1.09558 -0.981608 0
M  V30 3899 H 366.092 -0.850139 -4.08446 0
M  V30 3900 H 364.722 -0.0975026 -3.22653 0
M  V30 3901 H 363.774 -2.4917 -2.87434 0
M  V30 3902 H 365.086 -3.0983 -3.90905 0
M  V30 3903 H 364.24 -1.71864 -5.81848 0
M  V30 3904 H 362.979 -1.00812 -4.77167 0
M  V30 3905 H 361.984 -3.28431 -4.40923 0
M  V30 3906 H 363.209 -3.99655 -5.49047 0
M  V30 3907 H 361.155 -1.89601 -6.28003 0
M  V30 3908 H 361.072 -3.58598 -6.6554 0
M  V30 3909 H 362.34 -2.61577 -7.34301 0
M  V30 3910 N 366.569 1.04691 -1.17803 0
M  V30 3911 C 367.479 2.16057 -0.914151 0
M  V30 3912 C 368.495 1.73589 0.119503 0
M  V30 3913 O 369.671 2.01308 -0.0609468 0
M  V30 3914 C 366.736 3.4394 -0.436603 0
M  V30 3915 C 365.797 4.00825 -1.53746 0
M  V30 3916 C 365.03 5.22604 -1.0826 0
M  V30 3917 O 365.253 5.70367 0.0612244 0
M  V30 3918 O 364.187 5.7186 -1.87775 0
M  V30 3919 H 368.013 2.41169 -1.84584 0
M  V30 3920 H 365.598 1.1453 -0.959334 0
M  V30 3921 H 367.48 4.21024 -0.178057 0
M  V30 3922 H 366.155 3.20316 0.466869 0
M  V30 3923 H 365.062 3.25158 -1.84995 0
M  V30 3924 H 366.395 4.28778 -2.41683 0
M  V30 3925 N 368.047 0.979072 1.23499 0
M  V30 3926 C 369.293 0.648178 1.92163 0
M  V30 3927 C 369.626 -0.816049 1.76222 0
M  V30 3928 O 368.901 -1.58849 1.12237 0
M  V30 3929 C 369.184 1.03773 3.44824 0
M  V30 3930 C 369.037 2.55948 3.69879 0
M  V30 3931 C 370.356 0.580653 4.36253 0
M  V30 3932 H 367.475 0.236952 0.69787 0
M  V30 3933 H 370.117 1.22012 1.45647 0
M  V30 3934 H 368.267 0.551058 3.84572 0
M  V30 3935 H 369.939 3.12179 3.3962 0
M  V30 3936 H 368.182 2.98641 3.14636 0
M  V30 3937 H 368.853 2.78255 4.76737 0
M  V30 3938 H 371.329 0.998465 4.03943 0
M  V30 3939 H 370.205 0.881663 5.41773 0
M  V30 3940 H 370.466 -0.519052 4.39042 0
M  V30 3941 N 369.525 -1.3858 0.750561 0
M  V30 3942 C 370.753 -2.04471 0.316098 0
M  V30 3943 C 371.168 -1.56606 -1.05452 0
M  V30 3944 O 370.525 -0.737784 -1.66922 0
M  V30 3945 C 370.576 -3.60025 0.326275 0
M  V30 3946 O 370.297 -4.06133 1.6428 0
M  V30 3947 C 371.798 -4.43131 -0.122429 0
M  V30 3948 H 369.018 -0.65717 0.135528 0
M  V30 3949 H 371.562 -1.77329 1.01857 0
M  V30 3950 H 369.717 -3.86014 -0.327431 0
M  V30 3951 H 370.131 -5.00547 1.56693 0
M  V30 3952 H 371.605 -5.51963 -0.0641473 0
M  V30 3953 H 372.082 -4.23333 -1.16988 0
M  V30 3954 H 372.688 -4.22323 0.50229 0
M  V30 3955 N 371.003 -0.499398 -1.49478 0
M  V30 3956 C 372.419 -0.155261 -1.58843 0
M  V30 3957 C 372.619 1.34008 -1.50479 0
M  V30 3958 O 371.675 2.11589 -1.37791 0
M  V30 3959 C 372.988 -0.730636 -2.91689 0
M  V30 3960 C 374.536 -0.696599 -3.0515 0
M  V30 3961 C 375.011 -1.25001 -4.40612 0
M  V30 3962 N 376.502 -1.21064 -4.47099 0
M  V30 3963 C 377.237 -1.60905 -5.50361 0
M  V30 3964 N 376.733 -2.08331 -6.60735 0
M  V30 3965 N 378.526 -1.52331 -5.41065 0
M  V30 3966 H 370.677 -1.47162 -1.53158 0
M  V30 3967 H 372.94 -0.610309 -0.725415 0
M  V30 3968 H 372.646 -1.77928 -3.03372 0
M  V30 3969 H 372.52 -0.190161 -3.7672 0
M  V30 3970 H 374.907 0.343204 -2.93097 0
M  V30 3971 H 374.988 -1.2742 -2.21806 0
M  V30 3972 H 374.632 -2.28859 -4.53416 0
M  V30 3973 H 374.562 -0.64836 -5.22593 0
M  V30 3974 H 377.053 -0.863128 -3.67911 0
M  V30 3975 H 377.366 -2.36805 -7.35624 0
M  V30 3976 H 375.711 -2.12304 -6.6178 0
M  V30 3977 H 378.902 -1.151 -4.53729 0
M  V30 3978 H 379.075 -1.83704 -6.21415 0
M  V30 3979 N 372.481 1.55866 -0.233164 0
M  V30 3980 C 373.414 2.16794 0.712442 0
M  V30 3981 C 374.392 1.1158 1.18273 0
M  V30 3982 O 375.576 1.39897 1.26337 0
M  V30 3983 C 372.703 2.75757 1.96661 0
M  V30 3984 C 371.749 3.93902 1.63533 0
M  V30 3985 S 372.582 5.30223 0.74995 0
M  V30 3986 C 373.738 5.92631 2.01343 0
M  V30 3987 H 373.971 2.96662 0.194617 0
M  V30 3988 H 371.504 1.5439 -0.0177425 0
M  V30 3989 H 373.462 3.10367 2.68668 0
M  V30 3990 H 372.123 1.9586 2.45556 0
M  V30 3991 H 371.316 4.33702 2.56747 0
M  V30 3992 H 370.918 3.60499 0.995804 0
M  V30 3993 H 373.21 6.09312 2.96219 0
M  V30 3994 H 374.153 6.88388 1.65915 0
M  V30 3995 H 374.561 5.21571 2.15925 0
M  V30 3996 N 373.959 -0.0401083 1.57549 0
M  V30 3997 C 375.205 -0.734211 1.89043 0
M  V30 3998 C 375.538 -1.75591 0.829535 0
M  V30 3999 O 374.813 -1.93868 -0.156706 0
M  V30 4000 C 375.096 -1.41374 3.31188 0
M  V30 4001 C 374.949 -0.406299 4.47961 0
M  V30 4002 C 376.268 -2.35061 3.72068 0
M  V30 4003 H 373.387 -0.265447 0.687537 0
M  V30 4004 H 376.029 0.00294087 1.9 0
M  V30 4005 H 374.179 -2.04206 3.30503 0
M  V30 4006 H 375.851 0.219255 4.60779 0
M  V30 4007 H 374.094 0.275485 4.32924 0
M  V30 4008 H 374.765 -0.920022 5.44279 0
M  V30 4009 H 377.241 -1.82282 3.74049 0
M  V30 4010 H 376.117 -2.79593 4.72355 0
M  V30 4011 H 376.378 -3.21258 3.0372 0
M  V30 4012 N 375.437 -1.54477 -0.31217 0
M  V30 4013 C 376.686 -1.72438 -1.04633 0
M  V30 4014 C 376.999 -0.511163 -1.88803 0
M  V30 4015 O 378.205 -0.572341 -2.65399 0
M  V30 4016 C 376.661 -3.05043 -1.9099 0
M  V30 4017 C 376.269 -4.33806 -1.11877 0
M  V30 4018 C 378.013 -3.32364 -2.64073 0
M  V30 4019 C 375.92 -5.57467 -1.97445 0
M  V30 4020 H 374.85 -0.642647 -0.394361 0
M  V30 4021 H 377.501 -1.80966 -0.303929 0
M  V30 4022 H 375.883 -2.90451 -2.69173 0
M  V30 4023 H 377.057 -4.59199 -0.383843 0
M  V30 4024 H 375.372 -4.13336 -0.504252 0
M  V30 4025 H 377.969 -4.21951 -3.28423 0
M  V30 4026 H 378.312 -2.50745 -3.32314 0
M  V30 4027 H 378.845 -3.47875 -1.92944 0
M  V30 4028 H 375.584 -6.41722 -1.33692 0
M  V30 4029 H 375.104 -5.36277 -2.6864 0
M  V30 4030 H 376.783 -5.94303 -2.5576 0
M  V30 4031 N 376.915 0.57481 -1.46744 0
M  V30 4032 C 378.164 1.32898 -1.51727 0
M  V30 4033 C 378.477 1.948 -0.176692 0
M  V30 4034 O 379.683 2.71299 -0.104385 0
M  V30 4035 C 378.139 2.40901 -2.67385 0
M  V30 4036 C 377.747 1.85266 -4.07898 0
M  V30 4037 C 379.491 3.17609 -2.81646 0
M  V30 4038 C 377.398 2.90945 -5.14883 0
M  V30 4039 H 376.328 0.499631 -0.564699 0
M  V30 4040 H 378.979 0.612536 -1.72975 0
M  V30 4041 H 377.361 3.15379 -2.39483 0
M  V30 4042 H 378.535 1.17278 -4.45626 0
M  V30 4043 H 376.85 1.21199 -3.98371 0
M  V30 4044 H 379.447 3.96493 -3.58744 0
M  V30 4045 H 379.79 3.70696 -1.89448 0
M  V30 4046 H 380.323 2.50239 -3.09233 0
M  V30 4047 H 377.062 2.42736 -6.089 0
M  V30 4048 H 376.582 3.57398 -4.81691 0
M  V30 4049 H 378.261 3.54755 -5.41071 0
M  V30 4050 N 378.394 1.34581 0.820102 0
M  V30 4051 C 379.327 1.20735 1.93644 0
M  V30 4052 C 380.305 0.0983343 1.62302 0
M  V30 4053 O 381.489 0.263997 1.86642 0
M  V30 4054 C 378.616 0.856037 3.27704 0
M  V30 4055 C 377.662 1.97521 3.78005 0
M  V30 4056 S 378.495 3.58906 3.97425 0
M  V30 4057 C 379.651 3.25822 5.34407 0
M  V30 4058 H 379.884 2.15231 2.05093 0
M  V30 4059 H 377.417 1.1964 0.97599 0
M  V30 4060 H 379.375 0.660133 4.05157 0
M  V30 4061 H 378.036 -0.0706253 3.14021 0
M  V30 4062 H 377.229 1.68321 4.75062 0
M  V30 4063 H 376.831 2.12875 3.07507 0
M  V30 4064 H 379.123 2.77812 6.17922 0
M  V30 4065 H 380.066 4.22029 5.68592 0
M  V30 4066 H 380.474 2.61932 5.00052 0
M  V30 4067 N 379.872 -1.04064 1.18357 0
M  V30 4068 C 381.118 -1.77528 0.980397 0
M  V30 4069 C 381.451 -1.87948 -0.48879 0
M  V30 4070 O 380.726 -1.3876 -1.36293 0
M  V30 4071 C 381.009 -3.20797 1.63588 0
M  V30 4072 C 380.862 -3.1832 3.17793 0
M  V30 4073 C 382.181 -4.18911 1.34914 0
M  V30 4074 H 379.3 -0.644443 0.357578 0
M  V30 4075 H 381.942 -1.2156 1.46024 0
M  V30 4076 H 380.092 -3.68586 1.22788 0
M  V30 4077 H 381.764 -2.78521 3.67728 0
M  V30 4078 H 380.007 -2.56351 3.49952 0
M  V30 4079 H 380.678 -4.19489 3.58794 0
M  V30 4080 H 383.154 -3.7967 1.70265 0
M  V30 4081 H 382.03 -5.17374 1.83346 0
M  V30 4082 H 382.291 -4.41262 0.272027 0
M  V30 4083 N 381.35 -0.985608 -1.22978 0
M  V30 4084 C 382.599 -0.652881 -1.90841 0
M  V30 4085 C 382.912 0.817842 -1.77681 0
M  V30 4086 O 384.118 1.26185 -2.40395 0
M  V30 4087 C 382.574 -1.11717 -3.42122 0
M  V30 4088 C 382.182 -2.6126 -3.63933 0
M  V30 4089 C 383.926 -0.85843 -4.1573 0
M  V30 4090 C 381.833 -3.0133 -5.08876 0
M  V30 4091 H 380.763 -0.240491 -0.714619 0
M  V30 4092 H 383.414 -1.1942 -1.39324 0
M  V30 4093 H 381.796 -0.504027 -3.92779 0
M  V30 4094 H 382.97 -3.27858 -3.23799 0
M  V30 4095 H 381.285 -2.84937 -3.03644 0
M  V30 4096 H 383.882 -1.13359 -5.22546 0
M  V30 4097 H 384.225 0.205461 -4.15793 0
M  V30 4098 H 384.758 -1.43341 -3.71077 0
M  V30 4099 H 381.497 -4.06864 -5.13947 0
M  V30 4100 H 381.017 -2.3943 -5.49939 0
M  V30 4101 H 382.696 -2.92224 -5.77247 0
M  V30 4102 N 382.828 1.3818 -0.7579 0
M  V30 4103 C 383.791 2.28764 -0.141286 0
M  V30 4104 C 384.791 1.47388 0.642907 0
M  V30 4105 O 385.981 1.67781 0.468536 0
M  V30 4106 C 383.113 3.31184 0.808069 0
M  V30 4107 H 384.306 2.848 -0.939633 0
M  V30 4108 H 381.859 1.47212 -0.525191 0
M  V30 4109 H 382.594 2.80247 1.63193 0
M  V30 4110 H 382.379 3.91314 0.248104 0
M  V30 4111 H 383.869 3.98909 1.23536 0
M  V30 4112 N 384.306 0.507319 1.49211 0
M  V30 4113 C 385.553 -0.0349529 2.0247 0
M  V30 4114 C 385.881 -1.36409 1.38647 0
M  V30 4115 O 385.136 -1.88841 0.513566 0
M  V30 4116 C 385.435 -0.229513 3.56662 0
M  V30 4117 C 385.101 1.02241 4.39156 0
M  V30 4118 C 383.763 1.36557 4.61417 0
M  V30 4119 C 386.115 1.85428 4.871 0
M  V30 4120 C 383.443 2.53999 5.28868 0
M  V30 4121 C 385.795 3.02028 5.55843 0
M  V30 4122 C 384.459 3.36717 5.76349 0
M  V30 4123 H 383.729 -0.0127902 0.74089 0
M  V30 4124 H 386.376 0.668756 1.79443 0
M  V30 4125 H 384.681 -1.0158 3.78403 0
M  V30 4126 H 386.378 -0.663641 3.9547 0
M  V30 4127 H 382.968 0.745124 4.22073 0
M  V30 4128 H 387.152 1.6023 4.69723 0
M  V30 4129 H 382.408 2.81105 5.42946 0
M  V30 4130 H 386.582 3.66808 5.91967 0
M  V30 4131 H 384.209 4.27821 6.28389 0
M  V30 4132 N 385.784 -1.5574 0.241426 0
M  V30 4133 C 386.714 -2.24133 -0.654722 0
M  V30 4134 C 387.695 -1.21974 -1.1856 0
M  V30 4135 O 388.88 -1.50612 -1.22595 0
M  V30 4136 C 386.01 -2.93659 -1.85423 0
M  V30 4137 C 384.964 -4.0246 -1.45636 0
M  V30 4138 C 384.29 -4.59383 -2.73626 0
M  V30 4139 C 385.59 -5.18468 -0.631506 0
M  V30 4140 H 387.284 -2.99281 -0.0844353 0
M  V30 4141 H 384.83 -1.43947 -0.0391707 0
M  V30 4142 H 386.783 -3.40203 -2.48676 0
M  V30 4143 H 385.507 -2.15991 -2.44981 0
M  V30 4144 H 384.166 -3.56676 -0.847202 0
M  V30 4145 H 383.814 -3.78422 -3.3137 0
M  V30 4146 H 383.514 -5.32826 -2.4773 0
M  V30 4147 H 385.038 -5.08658 -3.37786 0
M  V30 4148 H 386.452 -5.61272 -1.1682 0
M  V30 4149 H 384.849 -5.98266 -0.468831 0
M  V30 4150 H 385.919 -4.8358 0.357506 0
M  V30 4151 N 387.262 0.0317525 -1.57568 0
M  V30 4152 C 388.511 0.722131 -1.8833 0
M  V30 4153 C 388.824 1.76664 -0.839587 0
M  V30 4154 O 390.03 2.50942 -1.03635 0
M  V30 4155 C 388.486 1.33544 -3.34207 0
M  V30 4156 C 388.094 0.327415 -4.46802 0
M  V30 4157 C 389.838 2.00585 -3.7412 0
M  V30 4158 C 387.745 0.948915 -5.83738 0
M  V30 4159 H 386.675 0.273466 -0.702661 0
M  V30 4160 H 389.326 -0.0235811 -1.83485 0
M  V30 4161 H 387.708 2.13077 -3.33788 0
M  V30 4162 H 388.882 -0.441006 -4.58685 0
M  V30 4163 H 387.197 -0.240758 -4.15703 0
M  V30 4164 H 389.794 2.47932 -4.73744 0
M  V30 4165 H 390.137 2.82285 -3.05975 0
M  V30 4166 H 390.67 1.27831 -3.76702 0
M  V30 4167 H 387.409 0.171387 -6.55276 0
M  V30 4168 H 386.929 1.68724 -5.7558 0
M  V30 4169 H 388.608 1.45705 -6.3038 0
M  V30 4170 N 388.74 1.54641 0.303973 0
M  V30 4171 C 389.98 1.75516 1.04755 0
M  V30 4172 C 390.344 0.528211 1.84591 0
M  V30 4173 O 391.545 0.614645 2.61678 0
M  V30 4174 C 389.816 3.00685 1.93193 0
M  V30 4175 S 391.375 3.42549 2.74237 0
M  V30 4176 H 388.193 0.616987 0.353339 0
M  V30 4177 H 390.795 1.92842 0.321292 0
M  V30 4178 H 389.499 3.8811 1.33411 0
M  V30 4179 H 389.03 2.85937 2.70191 0
M  V30 4180 H 391.045 2.99386 3.95705 0
M  V30 4181 N 390.218 -0.567019 1.47046 0
M  V30 4182 C 391.464 -1.32434 1.54379 0
M  V30 4183 C 391.819 -1.91365 0.199276 0
M  V30 4184 O 391.112 -1.74378 -0.793915 0
M  V30 4185 C 391.306 -2.4623 2.59047 0
M  V30 4186 C 391.135 -1.98448 4.03545 0
M  V30 4187 C 389.905 -1.82741 4.71098 0
M  V30 4188 C 392.103 -1.53477 4.90866 0
M  V30 4189 N 390.085 -1.29196 6.00151 0
M  V30 4190 C 391.456 -1.1163 6.09868 0
M  V30 4191 C 393.511 -1.41438 4.77388 0
M  V30 4192 C 392.214 -0.589425 7.16881 0
M  V30 4193 C 394.24 -0.901528 5.84488 0
M  V30 4194 C 393.602 -0.492932 7.02673 0
M  V30 4195 H 389.701 -0.477005 0.61967 0
M  V30 4196 H 392.285 -0.643856 1.83746 0
M  V30 4197 H 390.456 -3.11821 2.31564 0
M  V30 4198 H 392.188 -3.13213 2.56281 0
M  V30 4199 H 388.943 -2.05162 4.26855 0
M  V30 4200 H 389.367 -1.0454 6.6888 0
M  V30 4201 H 394.009 -1.71643 3.86392 0
M  V30 4202 H 391.727 -0.274994 8.07632 0
M  V30 4203 H 395.313 -0.812071 5.76105 0
M  V30 4204 H 394.193 -0.102227 7.84133 0
M  V30 4205 N 391.696 -1.35014 -0.812953 0
M  V30 4206 C 392.942 -1.2812 -1.57204 0
M  V30 4207 C 393.275 0.145869 -1.93651 0
M  V30 4208 O 392.55 1.0937 -1.60836 0
M  V30 4209 C 392.833 -2.18162 -2.86492 0
M  V30 4210 C 392.686 -3.69454 -2.56561 0
M  V30 4211 C 394.005 -2.07439 -3.88145 0
M  V30 4212 H 391.124 -0.466746 -0.570366 0
M  V30 4213 H 393.766 -1.65357 -0.935783 0
M  V30 4214 H 391.916 -1.86535 -3.40789 0
M  V30 4215 H 393.588 -4.11493 -2.08497 0
M  V30 4216 H 391.831 -3.9005 -1.89851 0
M  V30 4217 H 392.502 -4.27835 -3.48799 0
M  V30 4218 H 394.978 -2.35228 -3.4323 0
M  V30 4219 H 393.854 -2.7265 -4.76396 0
M  V30 4220 H 394.115 -1.05439 -4.29343 0
M  V30 4221 N 393.175 1.03435 -1.18907 0
M  V30 4222 C 394.586 1.58195 -0.991523 0
M  V30 4223 C 394.937 1.90801 0.457081 0
M  V30 4224 O 394.062 1.70272 1.33553 0
M  V30 4225 C 394.657 2.87432 -1.79355 0
M  V30 4226 C 393.216 3.38785 -1.64017 0
M  V30 4227 C 392.363 2.12292 -1.78402 0
M  V30 4228 H 395.314 0.860299 -1.33359 0
M  V30 4229 H 395.335 3.58096 -1.28638 0
M  V30 4230 H 394.847 2.63669 -2.84781 0
M  V30 4231 H 392.948 3.67547 -0.611536 0
M  V30 4232 H 393.061 4.12186 -2.44212 0
M  V30 4233 H 391.425 2.23901 -1.2141 0
M  V30 4234 H 392.208 1.90977 -2.85277 0
M  V30 4235 N 394.653 0.992116 1.22453 0
M  V30 4236 C 395.883 0.684949 1.94915 0
M  V30 4237 C 396.291 -0.754292 1.73514 0
M  V30 4238 O 395.634 -1.52056 1.03076 0
M  V30 4239 C 395.696 0.910054 3.47791 0
M  V30 4240 C 395.36 2.33363 3.92926 0
M  V30 4241 C 396.357 3.31308 4.00663 0
M  V30 4242 C 394.042 2.66785 4.25595 0
M  V30 4243 C 396.036 4.6075 4.40441 0
M  V30 4244 C 393.723 3.96446 4.65053 0
M  V30 4245 C 394.721 4.9324 4.72444 0
M  V30 4246 O 394.409 6.20584 5.1101 0
M  V30 4247 H 394.141 0.25258 0.62704 0
M  V30 4248 H 396.695 1.32939 1.56577 0
M  V30 4249 H 394.925 0.208443 3.86138 0
M  V30 4250 H 396.614 0.598257 4.01467 0
M  V30 4251 H 397.38 3.0682 3.75615 0
M  V30 4252 H 393.259 1.92148 4.19047 0
M  V30 4253 H 396.803 5.363 4.46126 0
M  V30 4254 H 392.7 4.20724 4.89552 0
M  V30 4255 H 393.468 6.24509 5.29085 0
M  V30 4256 N 396.131 -1.37776 0.765217 0
M  V30 4257 C 397.094 -2.28686 0.153416 0
M  V30 4258 C 398.094 -1.47727 -0.635081 0
M  V30 4259 O 399.284 -1.68027 -0.459632 0
M  V30 4260 C 396.416 -3.31608 -0.790495 0
M  V30 4261 H 397.609 -2.84297 0.954723 0
M  V30 4262 H 395.162 -1.46932 0.53299 0
M  V30 4263 H 395.897 -2.81109 -1.61705 0
M  V30 4264 H 395.682 -3.9144 -0.227348 0
M  V30 4265 H 397.172 -3.99559 -1.21419 0
M  V30 4266 N 397.609 -0.515225 -1.4894 0
M  V30 4267 C 398.834 0.022727 -2.07388 0
M  V30 4268 C 399.259 1.2876 -1.37122 0
M  V30 4269 O 398.617 1.76067 -0.432431 0
M  V30 4270 C 398.665 0.244869 -3.59768 0
M  V30 4271 O 397.769 1.31667 -3.90817 0
M  V30 4272 H 397.11 -0.0325506 -0.663202 0
M  V30 4273 H 399.64 -0.718918 -1.91553 0
M  V30 4274 H 399.65 0.47205 -4.0526 0
M  V30 4275 H 398.325 -0.679194 -4.10317 0
M  V30 4276 H 396.902 1.07331 -3.5712 0
M  V30 4277 N 399.087 1.5561 -0.249682 0
M  V30 4278 C 400.333 1.99306 0.374841 0
M  V30 4279 C 400.666 1.13767 1.57387 0
M  V30 4280 O 399.941 0.201711 1.93451 0
M  V30 4281 C 400.224 3.51507 0.781986 0
M  V30 4282 C 400.077 4.4781 -0.422629 0
M  V30 4283 C 401.396 4.08884 1.62793 0
M  V30 4284 H 398.515 0.724572 0.134773 0
M  V30 4285 H 401.157 1.86719 -0.351549 0
M  V30 4286 H 399.307 3.62363 1.4009 0
M  V30 4287 H 400.979 4.48931 -1.06108 0
M  V30 4288 H 399.222 4.20518 -1.06524 0
M  V30 4289 H 399.893 5.51919 -0.0943766 0
M  V30 4290 H 402.369 4.01147 1.10547 0
M  V30 4291 H 401.245 5.1564 1.88166 0
M  V30 4292 H 401.506 3.57515 2.60068 0
M  V30 4293 N 400.565 -0.0233959 1.57583 0
M  V30 4294 C 401.528 -1.00693 2.05897 0
M  V30 4295 C 402.528 -1.28693 0.964092 0
M  V30 4296 O 403.718 -1.23602 1.22753 0
M  V30 4297 C 400.85 -2.33825 2.4807 0
M  V30 4298 H 402.043 -0.589476 2.9405 0
M  V30 4299 H 399.596 -0.270354 1.53944 0
M  V30 4300 H 400.331 -2.80307 1.6309 0
M  V30 4301 H 400.116 -2.1483 3.2801 0
M  V30 4302 H 401.606 -3.04426 2.85857 0
M  V30 4303 N 402.043 -1.548 -0.295768 0
M  V30 4304 C 403.29 -1.74329 -1.03032 0
M  V30 4305 C 403.618 -0.531915 -1.87085 0
M  V30 4306 O 402.873 0.486052 -1.89568 0
M  V30 4307 C 403.172 -2.98797 -1.961 0
M  V30 4308 C 402.838 -4.32356 -1.2798 0
M  V30 4309 C 401.5 -4.68661 -1.09135 0
M  V30 4310 C 403.852 -5.15128 -0.793243 0
M  V30 4311 C 401.18 -5.85312 -0.403269 0
M  V30 4312 C 403.532 -6.32488 -0.118854 0
M  V30 4313 C 402.196 -6.6745 0.0815043 0
M  V30 4314 H 401.466 -0.637916 -0.37702 0
M  V30 4315 H 404.113 -1.8906 -0.304696 0
M  V30 4316 H 402.418 -2.78869 -2.75207 0
M  V30 4317 H 404.115 -3.11102 -2.53015 0
M  V30 4318 H 400.705 -4.03808 -1.43655 0
M  V30 4319 H 404.889 -4.87575 -0.92653 0
M  V30 4320 H 400.145 -6.1094 -0.237098 0
M  V30 4321 H 404.319 -6.95892 0.266035 0
M  V30 4322 H 401.946 -7.57695 0.616685 0
M  V30 4323 N 403.521 0.559213 -1.47345 0
M  V30 4324 C 404.751 1.33999 -1.57251 0
M  V30 4325 C 405.159 1.87905 -0.220978 0
M  V30 4326 O 404.502 1.65577 0.795617 0
M  V30 4327 C 404.564 2.54798 -2.53611 0
M  V30 4328 C 404.228 2.22192 -3.99349 0
M  V30 4329 C 405.225 1.79607 -4.87891 0
M  V30 4330 C 402.91 2.33613 -4.44669 0
M  V30 4331 C 404.904 1.48868 -6.19772 0
M  V30 4332 C 402.591 2.02487 -5.76578 0
M  V30 4333 C 403.589 1.60183 -6.63951 0
M  V30 4334 O 403.277 1.29451 -7.93409 0
M  V30 4335 H 403.009 0.414858 -0.533731 0
M  V30 4336 H 405.563 0.684465 -1.9366 0
M  V30 4337 H 403.793 3.23235 -2.12265 0
M  V30 4338 H 405.482 3.16873 -2.53666 0
M  V30 4339 H 406.248 1.70278 -4.54126 0
M  V30 4340 H 402.127 2.65501 -3.76869 0
M  V30 4341 H 405.671 1.15775 -6.87926 0
M  V30 4342 H 401.568 2.11448 -6.09885 0
M  V30 4343 H 402.336 1.43098 -8.05894 0
M  V30 4344 N 404.999 1.35443 0.805782 0
M  V30 4345 C 406.248 1.28097 1.55801 0
M  V30 4346 C 406.561 -0.142428 1.95081 0
M  V30 4347 O 407.767 -0.33817 2.69386 0
M  V30 4348 C 406.223 2.24653 2.81174 0
M  V30 4349 C 405.831 3.72342 2.49129 0
M  V30 4350 C 407.575 2.2625 3.59181 0
M  V30 4351 C 405.482 4.60719 3.70799 0
M  V30 4352 H 404.412 0.475937 0.584808 0
M  V30 4353 H 407.063 1.60712 0.885661 0
M  V30 4354 H 405.445 1.85011 3.50124 0
M  V30 4355 H 406.619 4.20624 1.88181 0
M  V30 4356 H 404.934 3.73361 1.84366 0
M  V30 4357 H 407.531 2.89495 4.49552 0
M  V30 4358 H 407.874 1.26647 3.96568 0
M  V30 4359 H 408.407 2.64426 2.97193 0
M  V30 4360 H 405.146 5.61324 3.3852 0
M  V30 4361 H 404.666 4.17163 4.3097 0
M  V30 4362 H 406.345 4.76182 4.38018 0
M  V30 4363 N 406.477 -1.02803 1.19454 0
M  V30 4364 C 407.724 -1.76217 0.997693 0
M  V30 4365 C 408.052 -1.887 -0.47144 0
M  V30 4366 O 407.307 -1.4011 -1.3663 0
M  V30 4367 C 407.606 -3.18941 1.6128 0
M  V30 4368 C 407.272 -3.26463 3.11019 0
M  V30 4369 C 405.934 -3.28223 3.51885 0
M  V30 4370 C 408.286 -3.25542 4.07028 0
M  V30 4371 C 405.614 -3.26719 4.8731 0
M  V30 4372 C 407.966 -3.25579 5.42385 0
M  V30 4373 C 406.63 -3.25637 5.82681 0
M  V30 4374 H 405.9 -0.644823 0.365082 0
M  V30 4375 H 408.547 -1.20655 1.4871 0
M  V30 4376 H 406.852 -3.77587 1.04572 0
M  V30 4377 H 408.549 -3.74415 1.43577 0
M  V30 4378 H 405.139 -3.25822 2.78457 0
M  V30 4379 H 409.323 -3.23362 3.76498 0
M  V30 4380 H 404.579 -3.25089 5.1781 0
M  V30 4381 H 408.753 -3.23817 6.16535 0
M  V30 4382 H 406.38 -3.24226 6.87591 0
M  V30 4383 N 407.956 -0.998596 -1.21925 0
M  V30 4384 C 409.184 -0.696286 -1.94832 0
M  V30 4385 C 409.599 0.740032 -1.73692 0
M  V30 4386 O 408.956 1.5 -1.03953 0
M  V30 4387 C 409.007 -0.999833 -3.47398 0
M  V30 4388 O 408.728 -2.37972 -3.67833 0
M  V30 4389 C 410.229 -0.716025 -4.37479 0
M  V30 4390 H 407.449 -0.257111 -0.619786 0
M  V30 4391 H 409.993 -1.33491 -1.54921 0
M  V30 4392 H 408.148 -0.406918 -3.85257 0
M  V30 4393 H 408.562 -2.48338 -4.61983 0
M  V30 4394 H 410.036 -0.978642 -5.43256 0
M  V30 4395 H 410.513 0.349968 -4.37803 0
M  V30 4396 H 411.119 -1.29025 -4.05256 0
M  V30 4397 N 409.434 1.37368 -0.772513 0
M  V30 4398 C 410.384 2.27613 -0.132823 0
M  V30 4399 C 411.368 1.46138 0.673247 0
M  V30 4400 O 412.56 1.68686 0.536095 0
M  V30 4401 C 409.689 3.35122 0.744864 0
M  V30 4402 C 408.775 4.24044 -0.0690771 0
M  V30 4403 N 409.166 4.93355 -1.1151 0
M  V30 4404 C 407.464 4.45731 0.154782 0
M  V30 4405 C 408.165 5.59 -1.60917 0
M  V30 4406 N 407.141 5.35737 -0.921222 0
M  V30 4407 H 410.943 2.78675 -0.933681 0
M  V30 4408 H 408.457 1.50494 -0.610342 0
M  V30 4409 H 410.454 3.98683 1.21892 0
M  V30 4410 H 409.114 2.85616 1.54446 0
M  V30 4411 H 410.125 4.95785 -1.49726 0
M  V30 4412 H 406.802 4.07096 0.926224 0
M  V30 4413 H 408.192 6.24395 -2.48153 0
M  V30 4414 N 410.912 0.523116 1.48665 0
M  V30 4415 C 411.844 -0.280421 2.27478 0
M  V30 4416 C 412.857 -0.910694 1.34945 0
M  V30 4417 O 414.046 -0.790295 1.60052 0
M  V30 4418 C 411.146 -1.41171 3.08097 0
M  V30 4419 C 410.319 -0.884642 4.28361 0
M  V30 4420 C 409.378 -1.89622 4.90846 0
M  V30 4421 O 408.404 -1.4559 5.50265 0
M  V30 4422 N 409.606 -3.22801 4.82472 0
M  V30 4423 H 412.371 0.395481 2.97079 0
M  V30 4424 H 409.932 0.357018 1.57915 0
M  V30 4425 H 411.924 -2.08645 3.4677 0
M  V30 4426 H 410.494 -1.99139 2.40961 0
M  V30 4427 H 409.714 -0.0341177 3.94185 0
M  V30 4428 H 411.002 -0.511268 5.06225 0
M  V30 4429 H 410.4 -3.61246 4.35336 0
M  V30 4430 H 408.957 -3.85927 5.25265 0
M  V30 4431 N 412.39 -1.55475 0.257931 0
M  V30 4432 C 413.638 -1.98813 -0.363009 0
M  V30 4433 C 413.959 -1.14757 -1.57657 0
M  V30 4434 O 413.229 -0.232956 -1.9451 0
M  V30 4435 H 411.809 -0.734308 -0.137113 0
M  V30 4436 H 414.471 -1.9156 0.359281 0
M  V30 4437 H 413.567 -3.04941 -0.664634 0
M  V30 4438 N 413.868 0.0150385 -1.57593 0
M  V30 4439 C 415.093 0.718067 -1.94573 0
M  V30 4440 C 415.518 1.6734 -0.859005 0
M  V30 4441 O 414.876 1.80362 0.184147 0
M  V30 4442 C 414.924 1.43918 -3.30636 0
M  V30 4443 O 414.028 2.55299 -3.23876 0
M  V30 4444 H 413.369 0.192125 -0.635597 0
M  V30 4445 H 415.899 -0.0336708 -2.04572 0
M  V30 4446 H 415.909 1.80598 -3.65853 0
M  V30 4447 H 414.584 0.738619 -4.09289 0
M  V30 4448 H 413.161 2.21058 -3.00312 0
M  V30 4449 N 415.346 1.54954 0.287554 0
M  V30 4450 C 416.294 1.87606 1.37502 0
M  V30 4451 C 417.288 0.751001 1.51843 0
M  V30 4452 O 418.494 0.935169 1.53801 0
M  V30 4453 H 414.869 0.595231 0.459569 0
M  V30 4454 H 416.84 2.78477 1.07206 0
M  V30 4455 C 415.589 2.15183 2.73115 0
M  V30 4456 H 414.912 3.01234 2.62866 0
M  V30 4457 H 416.352 2.4196 3.48183 0
M  V30 4458 C 414.811 0.954686 3.2309 0
M  V30 4459 O 415.341 0.181949 4.01288 0
M  V30 4460 N 413.547 0.756368 2.80584 0
M  V30 4461 H 413.094 1.38643 2.17108 0
M  V30 4462 H 413.052 -0.0430391 3.14371 0
M  V30 4463 N 416.824 -0.551391 1.4764 0
M  V30 4464 C 418.071 -1.3083 1.54563 0
M  V30 4465 C 418.399 -1.93359 0.210361 0
M  V30 4466 O 417.654 -1.78721 -0.797332 0
M  V30 4467 C 417.953 -2.43469 2.61644 0
M  V30 4468 C 417.619 -1.98732 4.04742 0
M  V30 4469 C 416.281 -1.86248 4.43695 0
M  V30 4470 C 418.633 -1.64659 4.94507 0
M  V30 4471 C 415.961 -1.37995 5.70241 0
M  V30 4472 C 418.313 -1.17875 6.21521 0
M  V30 4473 C 416.977 -1.03992 6.5935 0
M  V30 4474 H 416.247 -0.478741 0.565587 0
M  V30 4475 H 418.894 -0.617697 1.81264 0
M  V30 4476 H 417.199 -3.18109 2.28722 0
M  V30 4477 H 418.896 -3.01642 2.64222 0
M  V30 4478 H 415.486 -2.09393 3.73968 0
M  V30 4479 H 419.67 -1.73174 4.65107 0
M  V30 4480 H 414.926 -1.25915 5.98294 0
M  V30 4481 H 419.1 -0.905739 6.90485 0
M  V30 4482 H 416.727 -0.663794 7.57296 0
M  V30 4483 N 418.302 -1.35869 -0.798587 0
M  V30 4484 C 419.55 -1.29332 -1.55298 0
M  V30 4485 C 419.871 0.129729 -1.94568 0
M  V30 4486 O 419.141 1.06796 -1.6423 0
M  V30 4487 H 417.721 -0.475737 -0.57592 0
M  V30 4488 H 420.383 -1.70062 -0.952093 0
M  V30 4489 H 419.479 -1.91458 -2.46476 0
M  V30 4490 N 419.78 1.02168 -1.19998 0
M  V30 4491 C 421.191 1.57135 -1.00825 0
M  V30 4492 C 421.542 1.91276 0.436818 0
M  V30 4493 O 420.667 1.71679 1.3174 0
M  V30 4494 C 421.262 2.85514 -1.82393 0
M  V30 4495 C 419.821 3.37027 -1.67601 0
M  V30 4496 C 418.968 2.10388 -1.80644 0
M  V30 4497 H 421.919 0.846106 -1.34264 0
M  V30 4498 H 421.94 3.56711 -1.32429 0
M  V30 4499 H 421.452 2.60634 -2.87561 0
M  V30 4500 H 419.553 3.66878 -0.650485 0
M  V30 4501 H 419.666 4.09572 -2.4857 0
M  V30 4502 H 418.03 2.22601 -1.23778 0
M  V30 4503 H 418.813 1.8794 -2.87286 0
M  V30 4504 N 421.258 1.00505 1.21394 0
M  V30 4505 C 422.507 0.683159 1.89778 0
M  V30 4506 C 422.82 -0.789471 1.7896 0
M  V30 4507 O 424.026 -1.22344 2.42372 0
M  V30 4508 C 422.482 1.17146 3.40301 0
M  V30 4509 C 422.09 2.67017 3.5973 0
M  V30 4510 C 423.834 0.924461 4.14311 0
M  V30 4511 C 421.741 3.09387 5.04017 0
M  V30 4512 H 420.671 0.25183 0.710702 0
M  V30 4513 H 423.322 1.21622 1.37406 0
M  V30 4514 H 421.704 0.566451 3.91928 0
M  V30 4515 H 422.878 3.32968 3.18542 0
M  V30 4516 H 421.193 2.89732 2.99073 0
M  V30 4517 H 423.79 1.21658 5.20676 0
M  V30 4518 H 424.133 -0.139286 4.16067 0
M  V30 4519 H 424.666 1.49226 3.6875 0
M  V30 4520 H 421.405 4.14989 5.07409 0
M  V30 4521 H 420.925 2.48149 5.46061 0
M  V30 4522 H 422.604 3.01371 5.72525 0
M  V30 4523 N 422.737 -1.36956 0.779787 0
M  V30 4524 C 423.984 -1.99491 0.347766 0
M  V30 4525 C 424.312 -1.61898 -1.07793 0
M  V30 4526 O 423.567 -0.86071 -1.75756 0
M  V30 4527 C 423.866 -3.54585 0.447686 0
M  V30 4528 C 423.532 -4.1197 1.83279 0
M  V30 4529 C 422.194 -4.27356 2.2118 0
M  V30 4530 C 424.546 -4.43354 2.74019 0
M  V30 4531 C 421.874 -4.71432 3.4924 0
M  V30 4532 C 424.226 -4.88858 4.01497 0
M  V30 4533 C 422.89 -5.0245 4.39432 0
M  V30 4534 H 422.16 -0.729991 0.127257 0
M  V30 4535 H 424.807 -1.63599 0.995376 0
M  V30 4536 H 423.112 -3.90773 -0.283447 0
M  V30 4537 H 424.809 -4.00888 0.0945948 0
M  V30 4538 H 421.399 -4.00428 1.52825 0
M  V30 4539 H 425.583 -4.31045 2.45995 0
M  V30 4540 H 420.839 -4.80141 3.78516 0
M  V30 4541 H 425.013 -5.12108 4.71931 0
M  V30 4542 H 422.64 -5.36362 5.38721 0
M  V30 4543 N 424.215 -0.530993 -1.48385 0
M  V30 4544 C 425.148 0.278511 -2.26494 0
M  V30 4545 C 426.126 0.943905 -1.32398 0
M  V30 4546 O 427.31 0.968098 -1.61741 0
M  V30 4547 C 424.437 1.39453 -3.08659 0
M  V30 4548 C 423.483 0.840434 -4.18137 0
M  V30 4549 S 424.316 -0.292496 -5.34701 0
M  V30 4550 C 425.472 0.825973 -6.20426 0
M  V30 4551 H 425.705 -0.384365 -2.94805 0
M  V30 4552 H 423.238 -0.316799 -1.51115 0
M  V30 4553 H 425.196 2.03382 -3.56575 0
M  V30 4554 H 423.857 2.02913 -2.3976 0
M  V30 4555 H 423.05 1.67769 -4.75257 0
M  V30 4556 H 422.652 0.277819 -3.72967 0
M  V30 4557 H 424.944 1.72438 -6.55188 0
M  V30 4558 H 425.887 0.292728 -7.07495 0
M  V30 4559 H 426.295 1.10683 -5.53543 0
M  V30 4560 N 425.693 1.55336 -0.266172 0
M  V30 4561 C 426.921 2.03801 0.356756 0
M  V30 4562 C 427.336 1.14485 1.50129 0
M  V30 4563 O 426.693 0.163121 1.8177 0
M  V30 4564 C 426.744 3.51455 0.846281 0
M  V30 4565 O 426.465 4.37371 -0.252663 0
M  V30 4566 C 427.966 4.15767 1.53794 0
M  V30 4567 H 425.186 0.665906 0.0825218 0
M  V30 4568 H 427.73 2.00636 -0.39566 0
M  V30 4569 H 425.885 3.55092 1.54881 0
M  V30 4570 H 426.299 5.24358 0.122173 0
M  V30 4571 H 427.773 5.20714 1.83198 0
M  V30 4572 H 428.25 3.63404 2.46646 0
M  V30 4573 H 428.856 4.16107 0.879488 0
M  V30 4574 N 427.171 -0.0066808 1.57599 0
M  V30 4575 C 428.42 -0.692078 1.89455 0
M  V30 4576 C 428.733 -1.75306 0.867586 0
M  V30 4577 O 429.939 -2.49262 1.07614 0
M  V30 4578 C 428.395 -1.2821 3.36289 0
M  V30 4579 C 428.003 -0.256291 4.47266 0
M  V30 4580 C 429.747 -1.94608 3.77264 0
M  V30 4581 C 427.654 -0.855927 5.85173 0
M  V30 4582 H 426.584 -0.262252 0.706923 0
M  V30 4583 H 429.235 0.052769 1.83424 0
M  V30 4584 H 427.617 -2.0774 3.37135 0
M  V30 4585 H 428.791 0.513923 4.57925 0
M  V30 4586 H 427.106 0.306862 4.15268 0
M  V30 4587 H 429.703 -2.40364 4.77629 0
M  V30 4588 H 430.046 -2.77382 3.10427 0
M  V30 4589 H 430.579 -1.21822 3.78688 0
M  V30 4590 H 427.318 -0.0671161 6.55466 0
M  V30 4591 H 426.838 -1.59546 5.78191 0
M  V30 4592 H 428.517 -1.35658 6.32618 0
M  V30 4593 N 428.649 -1.55105 -0.279332 0
M  V30 4594 C 430.06 -1.66186 -0.850832 0
M  V30 4595 C 430.411 -0.584707 -1.87285 0
M  V30 4596 O 429.536 0.274919 -2.14647 0
M  V30 4597 C 430.131 -3.01264 -1.55001 0
M  V30 4598 C 428.69 -3.14394 -2.06963 0
M  V30 4599 C 427.837 -2.61959 -0.909536 0
M  V30 4600 H 430.788 -1.58602 -0.0558235 0
M  V30 4601 H 430.809 -2.93899 -2.41669 0
M  V30 4602 H 430.321 -3.7964 -0.805931 0
M  V30 4603 H 428.422 -2.4078 -2.84352 0
M  V30 4604 H 428.535 -4.20867 -2.28928 0
M  V30 4605 H 426.899 -2.18957 -1.30116 0
M  V30 4606 H 427.682 -3.42833 -0.179062 0
M  V30 4607 N 430.127 0.543554 -1.4793 0
M  V30 4608 C 431.09 1.63156 -1.60975 0
M  V30 4609 C 432.09 1.53346 -0.483899 0
M  V30 4610 O 433.28 1.5726 -0.749339 0
M  V30 4611 C 430.412 3.02743 -1.56716 0
M  V30 4612 H 431.605 1.52934 -2.57975 0
M  V30 4613 H 429.158 0.764557 -1.36324 0
M  V30 4614 H 429.893 3.18484 -0.611418 0
M  V30 4615 H 429.678 3.11272 -2.38438 0
M  V30 4616 H 431.168 3.81871 -1.6901 0
M  V30 4617 N 431.605 1.3629 0.791371 0
M  V30 4618 C 432.852 1.30412 1.54916 0
M  V30 4619 C 433.18 -0.117162 1.94147 0
M  V30 4620 O 432.435 -1.08599 1.62803 0
M  V30 4621 C 432.734 2.17068 2.8393 0
M  V30 4622 C 432.4 3.65645 2.63846 0
M  V30 4623 C 431.062 4.0614 2.58077 0
M  V30 4624 C 433.414 4.59855 2.45322 0
M  V30 4625 C 430.742 5.3899 2.31748 0
M  V30 4626 C 433.094 5.9292 2.2052 0
M  V30 4627 C 431.758 6.32542 2.13183 0
M  V30 4628 H 431.028 0.47721 0.566879 0
M  V30 4629 H 433.675 1.68325 0.913172 0
M  V30 4630 H 431.98 1.72085 3.51986 0
M  V30 4631 H 433.677 2.09846 3.4171 0
M  V30 4632 H 430.267 3.33518 2.69191 0
M  V30 4633 H 434.451 4.29443 2.48782 0
M  V30 4634 H 429.707 5.68672 2.24548 0
M  V30 4635 H 433.881 6.65487 2.05182 0
M  V30 4636 H 431.508 7.35412 1.92544 0
M  V30 4637 N 433.083 -1.0153 1.20538 0
M  V30 4638 C 434.33 -1.75149 1.01633 0
M  V30 4639 C 434.658 -1.89189 -0.451399 0
M  V30 4640 O 433.913 -1.41551 -1.35136 0
M  V30 4641 C 434.212 -3.17213 1.64654 0
M  V30 4642 C 433.878 -3.23146 3.14464 0
M  V30 4643 C 432.54 -3.24472 3.55347 0
M  V30 4644 C 434.892 -3.21207 4.10458 0
M  V30 4645 C 432.22 -3.21532 4.90748 0
M  V30 4646 C 434.572 -3.19808 5.45807 0
M  V30 4647 C 433.236 -3.19439 5.86102 0
M  V30 4648 H 432.506 -0.640914 0.3719 0
M  V30 4649 H 435.153 -1.19071 1.49981 0
M  V30 4650 H 433.458 -3.76457 1.08571 0
M  V30 4651 H 435.155 -3.72871 1.4754 0
M  V30 4652 H 431.745 -3.2285 2.81897 0
M  V30 4653 H 435.929 -3.19351 3.79906 0
M  V30 4654 H 431.185 -3.19578 5.21229 0
M  V30 4655 H 435.359 -3.1726 6.19935 0
M  V30 4656 H 432.986 -3.16915 6.90991 0
M  V30 4657 N 434.561 -1.01147 -1.20859 0
M  V30 4658 C 435.524 -0.582224 -2.21682 0
M  V30 4659 C 436.524 0.344887 -1.57058 0
M  V30 4660 O 437.714 0.134281 -1.73682 0
M  V30 4661 C 434.846 0.150496 -3.40568 0
M  V30 4662 H 436.039 -1.47408 -2.61172 0
M  V30 4663 H 433.592 -0.800695 -1.34233 0
M  V30 4664 H 434.327 1.0575 -3.06574 0
M  V30 4665 H 434.112 -0.515444 -3.88697 0
M  V30 4666 H 435.602 0.438344 -4.15293 0
M  V30 4667 N 436.039 1.36541 -0.78704 0
M  V30 4668 C 436.986 2.30082 -0.181901 0
M  V30 4669 C 437.956 1.5186 0.672896 0
M  V30 4670 O 439.141 1.80374 0.622072 0
M  V30 4671 C 436.281 3.3835 0.679197 0
M  V30 4672 C 435.394 4.31565 -0.193882 0
M  V30 4673 C 434.529 5.26915 0.673364 0
M  V30 4674 C 433.568 6.11769 -0.201315 0
M  V30 4675 N 432.705 6.99315 0.624777 0
M  V30 4676 H 437.545 2.81248 -0.985064 0
M  V30 4677 H 435.082 1.38437 -0.497342 0
M  V30 4678 H 437.04 3.99767 1.19341 0
M  V30 4679 H 435.67 2.8851 1.44781 0
M  V30 4680 H 434.722 3.71323 -0.826044 0
M  V30 4681 H 436.034 4.91191 -0.867937 0
M  V30 4682 H 435.188 5.9361 1.25348 0
M  V30 4683 H 433.927 4.67737 1.38105 0
M  V30 4684 H 432.932 5.44039 -0.793849 0
M  V30 4685 H 434.157 6.73022 -0.906568 0
M  V30 4686 H 432.103 6.42648 1.3168 0
M  V30 4687 H 432.02 7.56 0.00835237 0
M  V30 4688 H 433.288 7.70382 1.18879 0
M  V30 4689 N 437.518 0.538854 1.48102 0
M  V30 4690 C 438.743 0.0102694 2.07397 0
M  V30 4691 C 439.168 -1.26562 1.39153 0
M  V30 4692 O 438.526 -1.75357 0.460387 0
M  V30 4693 C 438.574 -0.187602 3.60112 0
M  V30 4694 O 437.678 -1.25432 3.92862 0
M  V30 4695 H 437.019 0.0430975 0.6626 0
M  V30 4696 H 439.549 0.749301 1.90385 0
M  V30 4697 H 439.559 -0.407517 4.0596 0
M  V30 4698 H 438.234 0.744386 4.09184 0
M  V30 4699 H 436.811 -1.01636 3.58782 0
M  V30 4700 N 438.996 -1.55193 0.274407 0
M  V30 4701 C 439.959 -2.212 -0.600279 0
M  V30 4702 C 440.959 -1.18963 -1.08187 0
M  V30 4703 O 442.149 -1.43873 -0.982158 0
M  V30 4704 C 439.281 -2.87739 -1.82809 0
M  V30 4705 H 440.474 -2.9989 -0.0239682 0
M  V30 4706 H 438.027 -1.5628 0.0250192 0
M  V30 4707 H 438.762 -2.13058 -2.44493 0
M  V30 4708 H 438.547 -3.62658 -1.49069 0
M  V30 4709 H 440.037 -3.38171 -2.45011 0
M  V30 4710 N 440.474 -0.00167713 -1.576 0
M  V30 4711 C 441.437 0.974046 -2.07473 0
M  V30 4712 C 442.437 1.27143 -0.984444 0
M  V30 4713 O 443.627 1.21633 -1.24703 0
M  V30 4714 C 440.759 2.29849 -2.51759 0
M  V30 4715 H 441.952 0.54262 -2.9495 0
M  V30 4716 H 439.505 0.245829 -1.54355 0
M  V30 4717 H 440.24 2.77677 -1.67529 0
M  V30 4718 H 440.025 2.09584 -3.31386 0
M  V30 4719 H 441.515 2.9984 -2.90664 0
M  V30 4720 N 441.952 1.55251 0.271103 0
M  V30 4721 C 443.201 1.75151 1.00025 0
M  V30 4722 C 443.514 0.561041 1.87381 0
M  V30 4723 O 444.72 0.642506 2.63788 0
M  V30 4724 C 443.176 3.09999 1.82835 0
M  V30 4725 C 442.784 4.3662 1.00336 0
M  V30 4726 C 444.528 3.39249 2.55168 0
M  V30 4727 C 442.435 5.62506 1.82595 0
M  V30 4728 H 441.365 0.652877 0.377183 0
M  V30 4729 H 444.016 1.81708 0.255843 0
M  V30 4730 H 442.398 2.97485 2.61378 0
M  V30 4731 H 443.572 4.60055 0.261959 0
M  V30 4732 H 441.887 4.14527 0.394486 0
M  V30 4733 H 444.484 4.3051 3.1712 0
M  V30 4734 H 444.827 2.59467 3.2555 0
M  V30 4735 H 445.36 3.52869 1.83653 0
M  V30 4736 H 442.099 6.45041 1.16631 0
M  V30 4737 H 441.619 5.43211 2.54327 0
M  V30 4738 H 443.298 6.00875 2.39913 0
M  V30 4739 N 443.43 -0.535701 1.48216 0
M  V30 4740 C 444.66 -1.3148 1.59363 0
M  V30 4741 C 445.068 -1.8753 0.250844 0
M  V30 4742 O 444.411 -1.66821 -0.769174 0
M  V30 4743 C 444.473 -2.50731 2.57632 0
M  V30 4744 C 444.137 -2.15811 4.02833 0
M  V30 4745 C 445.134 -1.71822 4.90686 0
M  V30 4746 C 442.819 -2.26509 4.48329 0
M  V30 4747 C 444.813 -1.3899 6.22062 0
M  V30 4748 C 442.5 -1.93289 5.79726 0
M  V30 4749 C 443.498 -1.49599 6.66415 0
M  V30 4750 O 443.186 -1.16812 7.95368 0
M  V30 4751 H 442.918 -0.406315 0.540263 0
M  V30 4752 H 445.472 -0.653569 1.94725 0
M  V30 4753 H 443.702 -3.19817 2.1738 0
M  V30 4754 H 445.391 -3.12797 2.58675 0
M  V30 4755 H 446.157 -1.63031 4.56778 0
M  V30 4756 H 442.036 -2.59471 3.81045 0
M  V30 4757 H 445.58 -1.04816 6.89681 0
M  V30 4758 H 441.477 -2.01718 6.13172 0
M  V30 4759 H 442.245 -1.30259 8.08069 0
M  V30 4760 N 444.908 -1.36708 -0.784132 0
M  V30 4761 C 445.856 -1.31533 -1.91838 0
M  V30 4762 C 446.85 -0.206205 -1.6814 0
M  V30 4763 O 448.056 -0.373519 -1.76082 0
M  V30 4764 H 444.431 -0.409613 -0.630651 0
M  V30 4765 H 446.402 -2.2731 -1.9332 0
M  V30 4766 C 445.151 -1.12679 -3.28936 0
M  V30 4767 H 444.474 -1.97274 -3.4774 0
M  V30 4768 H 445.914 -1.13106 -4.08636 0
M  V30 4769 C 444.373 0.168281 -3.36479 0
M  V30 4770 O 444.903 1.15625 -3.84699 0
M  V30 4771 N 443.109 0.214762 -2.89805 0
M  V30 4772 H 442.656 -0.589852 -2.50756 0
M  V30 4773 H 442.614 1.08094 -2.95234 0
M  V30 4774 N 446.386 1.0089 -1.21074 0
M  V30 4775 C 447.797 1.56056 -1.02486 0
M  V30 4776 C 448.148 1.91728 0.416506 0
M  V30 4777 O 447.273 1.73066 1.29912 0
M  V30 4778 C 447.868 2.83563 -1.85411 0
M  V30 4779 C 446.427 3.3523 -1.71166 0
M  V30 4780 C 445.574 2.0846 -1.82865 0
M  V30 4781 H 448.525 0.831818 -1.35154 0
M  V30 4782 H 448.546 3.55286 -1.36205 0
M  V30 4783 H 448.058 2.57569 -2.9031 0
M  V30 4784 H 446.159 3.66167 -0.689361 0
M  V30 4785 H 446.272 4.06913 -2.52901 0
M  V30 4786 H 444.636 2.21275 -1.26132 0
M  V30 4787 H 445.419 1.84883 -2.89263 0
M  V30 4788 N 447.864 1.01787 1.20321 0
M  V30 4789 C 449.11 0.708985 1.90003 0
M  V30 4790 C 449.443 -0.759572 1.78729 0
M  V30 4791 O 448.718 -1.55198 1.17234 0
M  V30 4792 C 449.001 1.1469 3.41348 0
M  V30 4793 C 448.854 2.67586 3.61549 0
M  V30 4794 C 450.173 0.71915 4.34185 0
M  V30 4795 H 447.292 0.259034 0.689978 0
M  V30 4796 H 449.934 1.26584 1.41692 0
M  V30 4797 H 448.084 0.673128 3.82624 0
M  V30 4798 H 449.756 3.22826 3.29517 0
M  V30 4799 H 447.999 3.085 3.04976 0
M  V30 4800 H 448.67 2.93281 4.67643 0
M  V30 4801 H 451.146 1.12647 4.00562 0
M  V30 4802 H 450.022 1.05358 5.38694 0
M  V30 4803 H 450.283 -0.379111 4.40472 0
M  V30 4804 N 449.342 -1.36122 0.79427 0
M  V30 4805 C 450.591 -1.98361 0.365464 0
M  V30 4806 C 450.904 -1.6374 -1.06997 0
M  V30 4807 O 452.11 -2.19251 -1.60129 0
M  V30 4808 C 450.566 -3.54821 0.602496 0
M  V30 4809 C 450.174 -3.98362 2.04967 0
M  V30 4810 C 451.918 -4.2383 0.238437 0
M  V30 4811 C 449.825 -5.47619 2.2331 0
M  V30 4812 H 448.755 -0.742193 0.13291 0
M  V30 4813 H 451.406 -1.55354 0.976589 0
M  V30 4814 H 449.788 -3.95922 -0.078409 0
M  V30 4815 H 450.962 -3.68447 2.76737 0
M  V30 4816 H 449.277 -3.42206 2.37243 0
M  V30 4817 H 451.874 -5.33529 0.353705 0
M  V30 4818 H 452.217 -4.08264 -0.814006 0
M  V30 4819 H 452.75 -3.88108 0.872769 0
M  V30 4820 H 449.489 -5.68138 3.26955 0
M  V30 4821 H 449.009 -5.79145 1.5605 0
M  V30 4822 H 450.688 -6.13911 2.0426 0
M  V30 4823 N 450.82 -0.546701 -1.47814 0
M  V30 4824 C 452.05 -0.0232519 -2.06587 0
M  V30 4825 C 452.458 1.2712 -1.40133 0
M  V30 4826 O 451.801 1.77091 -0.488305 0
M  V30 4827 C 451.863 0.254117 -3.58601 0
M  V30 4828 C 451.527 -0.949331 -4.47031 0
M  V30 4829 C 452.524 -1.85216 -4.85789 0
M  V30 4830 C 450.209 -1.16104 -4.88697 0
M  V30 4831 C 452.203 -2.95047 -5.65001 0
M  V30 4832 C 449.89 -2.26247 -5.67676 0
M  V30 4833 C 450.888 -3.1555 -6.05737 0
M  V30 4834 O 450.576 -4.23784 -6.83127 0
M  V30 4835 H 450.308 -0.0380082 -0.674931 0
M  V30 4836 H 452.862 -0.756631 -1.90956 0
M  V30 4837 H 451.092 1.04168 -3.72406 0
M  V30 4838 H 452.781 0.72167 -3.99433 0
M  V30 4839 H 453.547 -1.70061 -4.54207 0
M  V30 4840 H 449.426 -0.475159 -4.58545 0
M  V30 4841 H 452.97 -3.64778 -5.94628 0
M  V30 4842 H 448.867 -2.41379 -5.98671 0
M  V30 4843 H 449.635 -4.21701 -7.01506 0
M  V30 4844 N 452.299 1.55045 -0.282633 0
M  V30 4845 C 453.548 1.98938 0.332667 0
M  V30 4846 C 453.861 1.17455 1.56409 0
M  V30 4847 O 455.067 1.51527 2.25282 0
M  V30 4848 C 453.523 3.54105 0.643226 0
M  V30 4849 C 453.131 4.44374 -0.568814 0
M  V30 4850 C 454.875 4.06569 1.22074 0
M  V30 4851 C 452.782 5.90943 -0.232426 0
M  V30 4852 H 451.712 0.743043 0.128075 0
M  V30 4853 H 454.363 1.79341 -0.388464 0
M  V30 4854 H 452.745 3.69532 1.42346 0
M  V30 4855 H 453.919 4.40718 -1.34551 0
M  V30 4856 H 452.234 4.02585 -1.06369 0
M  V30 4857 H 454.831 5.13626 1.48635 0
M  V30 4858 H 455.174 3.56057 2.15707 0
M  V30 4859 H 455.707 3.94612 0.502621 0
M  V30 4860 H 452.446 6.45567 -1.13683 0
M  V30 4861 H 451.966 5.9765 0.507357 0
M  V30 4862 H 453.645 6.4677 0.172657 0
M  V30 4863 N 453.777 0.010035 1.57597 0
M  V30 4864 C 454.71 -1.01234 2.04516 0
M  V30 4865 C 455.688 -1.32886 0.937024 0
M  V30 4866 O 456.872 -1.44879 1.20592 0
M  V30 4867 C 453.999 -2.33738 2.45121 0
M  V30 4868 C 453.045 -2.17679 3.66767 0
M  V30 4869 S 453.878 -1.49343 5.14254 0
M  V30 4870 C 455.034 -2.83256 5.58137 0
M  V30 4871 H 455.267 -0.612866 2.90914 0
M  V30 4872 H 452.8 -0.201124 1.53084 0
M  V30 4873 H 454.758 -3.09922 2.69182 0
M  V30 4874 H 453.419 -2.70823 1.59103 0
M  V30 4875 H 452.612 -3.1559 3.92962 0
M  V30 4876 H 452.214 -1.4964 3.42759 0
M  V30 4877 H 454.506 -3.79538 5.6121 0
M  V30 4878 H 455.449 -2.61749 6.57946 0
M  V30 4879 H 455.857 -2.87627 4.85727 0
M  V30 4880 N 455.255 -1.55392 -0.262866 0
M  V30 4881 C 456.188 -1.8391 -1.35101 0
M  V30 4882 C 457.166 -0.692901 -1.47097 0
M  V30 4883 O 458.35 -0.936979 -1.63563 0
M  V30 4884 C 455.477 -2.00969 -2.72634 0
M  V30 4885 C 454.523 -3.23559 -2.7787 0
M  V30 4886 S 455.356 -4.80647 -2.3609 0
M  V30 4887 C 456.512 -5.00692 -3.75578 0
M  V30 4888 H 456.745 -2.75918 -1.1071 0
M  V30 4889 H 454.278 -1.47294 -0.463029 0
M  V30 4890 H 456.236 -2.11482 -3.51832 0
M  V30 4891 H 454.897 -1.09832 -2.94272 0
M  V30 4892 H 454.09 -3.32413 -3.78837 0
M  V30 4893 H 453.692 -3.11689 -2.06702 0
M  V30 4894 H 455.984 -4.87055 -4.70939 0
M  V30 4895 H 456.927 -6.02717 -3.71669 0
M  V30 4896 H 457.335 -4.28619 -3.6735 0
M  V30 4897 N 456.733 0.527833 -1.48498 0
M  V30 4898 C 457.681 1.65313 -1.63628 0
M  V30 4899 C 458.675 1.6177 -0.502676 0
M  V30 4900 O 459.881 1.66601 -0.681469 0
M  V30 4901 H 456.256 0.547518 -0.515488 0
M  V30 4902 H 458.227 1.49696 -2.58135 0
M  V30 4903 C 456.976 3.03576 -1.6952 0
M  V30 4904 H 456.299 3.06997 -2.56111 0
M  V30 4905 H 457.739 3.81923 -1.84149 0
M  V30 4906 C 456.198 3.34089 -0.43432 0
M  V30 4907 O 456.728 3.99151 0.451852 0
M  V30 4908 N 454.934 2.88991 -0.305368 0
M  V30 4909 H 454.481 2.36222 -1.02747 0
M  V30 4910 H 454.439 3.09776 0.537249 0
M  V30 4911 N 458.211 1.37122 0.776871 0
M  V30 4912 C 459.158 1.3247 1.88998 0
M  V30 4913 C 460.128 0.191143 1.64997 0
M  V30 4914 O 461.313 0.379683 1.86984 0
M  V30 4915 C 458.453 1.13241 3.25992 0
M  V30 4916 C 457.566 2.35782 3.61982 0
M  V30 4917 C 456.701 2.09465 4.88158 0
M  V30 4918 C 455.74 3.279 5.16864 0
M  V30 4919 N 454.877 3.01167 6.34226 0
M  V30 4920 H 459.717 2.27642 1.9231 0
M  V30 4921 H 457.254 1.13125 0.94027 0
M  V30 4922 H 459.212 1.00115 4.0501 0
M  V30 4923 H 457.842 0.217186 3.22069 0
M  V30 4924 H 456.894 2.59666 2.77989 0
M  V30 4925 H 458.206 3.24125 3.79137 0
M  V30 4926 H 457.36 1.93341 5.75069 0
M  V30 4927 H 456.099 1.18452 4.73097 0
M  V30 4928 H 455.104 3.44569 4.2843 0
M  V30 4929 H 456.329 4.19757 5.33836 0
M  V30 4930 H 454.275 2.12779 6.20533 0
M  V30 4931 H 454.192 3.83052 6.51772 0
M  V30 4932 H 455.46 2.88649 7.24087 0
M  V30 4933 N 459.689 -1.00246 1.21608 0
M  V30 4934 C 460.621 -2.09244 0.935401 0
M  V30 4935 C 461.634 -1.62592 -0.0823594 0
M  V30 4936 O 462.823 -1.77865 0.150456 0
M  V30 4937 C 459.923 -3.36724 0.383453 0
M  V30 4938 C 459.096 -4.1245 1.45615 0
M  V30 4939 C 458.155 -5.18219 0.912991 0
M  V30 4940 O 457.181 -5.46337 1.59701 0
M  V30 4941 N 458.383 -5.7987 -0.270478 0
M  V30 4942 H 461.148 -2.33905 1.87373 0
M  V30 4943 H 458.709 -1.16748 1.12167 0
M  V30 4944 H 460.701 -4.047 0.00562157 0
M  V30 4945 H 459.271 -3.09201 -0.459758 0
M  V30 4946 H 458.491 -3.39241 2.00772 0
M  V30 4947 H 459.779 -4.59819 2.17817 0
M  V30 4948 H 459.177 -5.59381 -0.843195 0
M  V30 4949 H 457.734 -6.49126 -0.589794 0
M  V30 4950 N 461.167 -1.02423 -1.1978 0
M  V30 4951 C 462.414 -0.717988 -1.89344 0
M  V30 4952 C 462.742 0.753036 -1.79331 0
M  V30 4953 O 461.997 1.56355 -1.17692 0
M  V30 4954 C 462.296 -1.1088 -3.39765 0
M  V30 4955 C 461.962 -2.57731 -3.6998 0
M  V30 4956 C 460.624 -2.97854 -3.77937 0
M  V30 4957 C 462.976 -3.52763 -3.83677 0
M  V30 4958 C 460.304 -4.31931 -3.97054 0
M  V30 4959 C 462.656 -4.86538 -4.04306 0
M  V30 4960 C 461.32 -5.26356 -4.10494 0
M  V30 4961 H 460.59 -0.26273 -0.692859 0
M  V30 4962 H 463.237 -1.28623 -1.41875 0
M  V30 4963 H 461.542 -0.459094 -3.89101 0
M  V30 4964 H 463.239 -0.849432 -3.919 0
M  V30 4965 H 459.829 -2.25646 -3.64393 0
M  V30 4966 H 464.013 -3.2292 -3.76877 0
M  V30 4967 H 459.269 -4.62324 -4.00083 0
M  V30 4968 H 463.443 -5.60093 -4.13846 0
M  V30 4969 H 461.07 -6.3026 -4.2506 0
M  V30 4970 N 462.645 1.35699 -0.801477 0
M  V30 4971 C 464.061 1.52065 -0.484596 0
M  V30 4972 C 464.261 1.75215 0.995084 0
M  V30 4973 O 463.317 1.79061 1.78026 0
M  V30 4974 C 464.63 2.69908 -1.32552 0
M  V30 4975 C 466.178 2.83784 -1.32044 0
M  V30 4976 C 466.653 4.04646 -2.14536 0
M  V30 4977 N 468.144 4.11814 -2.12046 0
M  V30 4978 C 468.879 5.04437 -2.72636 0
M  V30 4979 N 468.375 6.02426 -3.42133 0
M  V30 4980 N 470.168 4.97144 -2.62305 0
M  V30 4981 H 462.319 1.18928 -1.75983 0
M  V30 4982 H 464.582 0.581455 -0.748741 0
M  V30 4983 H 464.288 2.59363 -2.37537 0
M  V30 4984 H 464.162 3.64376 -0.975181 0
M  V30 4985 H 466.549 2.93783 -0.27846 0
M  V30 4986 H 466.63 1.90188 -1.71062 0
M  V30 4987 H 466.274 3.95407 -3.18772 0
M  V30 4988 H 466.204 4.97413 -1.72882 0
M  V30 4989 H 468.695 3.41664 -1.61476 0
M  V30 4990 H 469.008 6.69688 -3.85666 0
M  V30 4991 H 467.353 6.02615 -3.46237 0
M  V30 4992 H 470.544 4.19546 -2.07603 0
M  V30 4993 H 470.717 5.69138 -3.09815 0
M  V30 4994 N 464.123 0.554532 1.47522 0
M  V30 4995 C 465.071 -0.207765 2.3167 0
M  V30 4996 C 466.065 -0.911914 1.4276 0
M  V30 4997 O 467.271 -0.833504 1.59539 0
M  V30 4998 H 463.646 -0.0858726 0.747081 0
M  V30 4999 H 465.617 0.521178 2.93813 0
M  V30 5000 C 464.366 -1.2263 3.25357 0
M  V30 5001 H 463.689 -0.693887 3.93732 0
M  V30 5002 H 465.129 -1.73062 3.87073 0
M  V30 5003 C 463.588 -2.27278 2.4869 0
M  V30 5004 O 464.118 -3.34156 2.22941 0
M  V30 5005 N 462.324 -2.01134 2.09746 0
M  V30 5006 H 461.871 -1.14232 2.30887 0
M  V30 5007 H 461.829 -2.71369 1.58765 0
M  V30 5008 N 465.601 -1.54893 0.290851 0
M  V30 5009 C 466.841 -2.01842 -0.322388 0
M  V30 5010 C 467.205 -1.17477 -1.51865 0
M  V30 5011 O 468.406 -1.54077 -2.20258 0
M  V30 5012 C 466.677 -3.50874 -0.679844 0
M  V30 5013 S 468.236 -4.19796 -1.27739 0
M  V30 5014 H 465.054 -0.704005 -0.0994866 0
M  V30 5015 H 467.656 -1.91015 0.416358 0
M  V30 5016 H 466.36 -4.09915 0.199435 0
M  V30 5017 H 465.891 -3.65717 -1.44964 0
M  V30 5018 H 467.906 -4.24729 -2.56554 0
M  V30 5019 N 467.08 -0.0183926 -1.57589 0
M  V30 5020 C 468.013 1.00148 -2.0505 0
M  V30 5021 C 468.991 1.32387 -0.944058 0
M  V30 5022 O 470.175 1.44237 -1.21358 0
M  V30 5023 C 467.302 2.32435 -2.46357 0
M  V30 5024 C 466.348 2.15731 -3.67916 0
M  V30 5025 S 467.181 1.46613 -5.15039 0
M  V30 5026 C 468.337 2.80293 -5.59631 0
M  V30 5027 H 468.57 0.597429 -2.91235 0
M  V30 5028 H 466.103 0.193002 -1.53189 0
M  V30 5029 H 468.061 3.0849 -2.70822 0
M  V30 5030 H 466.722 2.69975 -1.60537 0
M  V30 5031 H 465.915 3.13502 -3.9463 0
M  V30 5032 H 465.517 1.4782 -3.43548 0
M  V30 5033 H 467.809 3.76557 -5.63215 0
M  V30 5034 H 468.752 2.58256 -6.59325 0
M  V30 5035 H 469.16 2.85047 -4.87246 0
M  V30 5036 N 468.558 1.5553 0.254621 0
M  V30 5037 C 469.488 1.9268 1.31897 0
M  V30 5038 C 470.469 0.790797 1.506 0
M  V30 5039 O 471.654 1.05045 1.63337 0
M  V30 5040 C 468.784 2.21477 2.67517 0
M  V30 5041 C 467.738 3.37256 2.63519 0
M  V30 5042 C 467.064 3.51576 4.02862 0
M  V30 5043 C 468.364 4.73157 2.21179 0
M  V30 5044 H 470.058 2.81832 1.01051 0
M  V30 5045 H 467.604 1.35599 0.484662 0
M  V30 5046 H 469.557 2.46055 3.42104 0
M  V30 5047 H 468.281 1.29144 2.99982 0
M  V30 5048 H 466.94 3.12675 1.9139 0
M  V30 5049 H 466.588 2.56676 4.32581 0
M  V30 5050 H 466.288 4.2943 4.01078 0
M  V30 5051 H 467.812 3.78467 4.79161 0
M  V30 5052 H 469.226 4.97158 2.85494 0
M  V30 5053 H 467.623 5.54058 2.30521 0
M  V30 5054 H 468.693 4.70739 1.16332 0
M  V30 5055 N 470.036 -0.519951 1.48776 0
M  V30 5056 C 471.264 -1.29971 1.60982 0
M  V30 5057 C 471.679 -1.86803 0.273885 0
M  V30 5058 O 471.036 -1.66904 -0.738193 0
M  V30 5059 C 471.087 -2.44346 2.66415 0
M  V30 5060 O 470.808 -1.89855 3.94825 0
M  V30 5061 C 472.309 -3.36014 2.89153 0
M  V30 5062 H 469.529 -0.394891 0.542496 0
M  V30 5063 H 472.073 -0.626214 1.94676 0
M  V30 5064 H 470.228 -3.07562 2.35552 0
M  V30 5065 H 470.642 -2.64798 4.5275 0
M  V30 5066 H 472.116 -4.12593 3.66703 0
M  V30 5067 H 472.593 -3.91859 1.98351 0
M  V30 5068 H 473.199 -2.78582 3.21359 0
M  V30 5069 N 471.514 -1.37532 -0.769588 0
M  V30 5070 C 472.742 -1.36059 -1.55871 0
M  V30 5071 C 473.157 0.053544 -1.88724 0
M  V30 5072 O 472.514 1.01591 -1.5161 0
M  V30 5073 C 472.565 -2.20107 -2.86767 0
M  V30 5074 O 472.286 -3.56009 -2.55321 0
M  V30 5075 C 473.787 -2.26636 -3.80987 0
M  V30 5076 H 471.007 -0.465967 -0.482821 0
M  V30 5077 H 473.551 -1.80901 -0.953686 0
M  V30 5078 H 471.706 -1.78768 -3.43687 0
M  V30 5079 H 472.12 -4.0009 -3.39158 0
M  V30 5080 H 473.594 -2.89763 -4.69831 0
M  V30 5081 H 474.071 -1.2754 -4.20274 0
M  V30 5082 H 474.677 -2.68296 -3.29996 0
M  V30 5083 N 472.992 0.995999 -1.22138 0
M  V30 5084 C 474.241 1.72928 -1.03821 0
M  V30 5085 C 474.554 1.90872 0.427444 0
M  V30 5086 O 475.76 2.61496 0.730212 0
M  V30 5087 C 474.216 3.11124 -1.80913 0
M  V30 5088 C 473.824 3.01122 -3.31707 0
M  V30 5089 C 475.568 3.8852 -1.71035 0
M  V30 5090 C 473.475 4.34453 -4.01253 0
M  V30 5091 H 472.405 0.648376 -0.384869 0
M  V30 5092 H 475.056 1.11213 -1.45959 0
M  V30 5093 H 473.438 3.73503 -1.31573 0
M  V30 5094 H 474.612 2.47926 -3.88419 0
M  V30 5095 H 472.927 2.3721 -3.42228 0
M  V30 5096 H 475.524 4.872 -2.20318 0
M  V30 5097 H 475.867 4.1087 -0.670196 0
M  V30 5098 H 476.4 3.32812 -2.17902 0
M  V30 5099 H 473.139 4.17303 -5.05508 0
M  V30 5100 H 472.659 4.87574 -3.49331 0
M  V30 5101 H 474.338 5.03215 -4.06674 0
M  V30 5102 N 474.47 1.03057 1.19235 0
M  V30 5103 C 475.71 0.736757 1.9066 0
M  V30 5104 C 476.074 -0.721521 1.77927 0
M  V30 5105 O 477.275 -1.12849 2.43964 0
M  V30 5106 C 475.546 1.17755 3.37444 0
M  V30 5107 S 477.105 1.00783 4.27069 0
M  V30 5108 H 473.923 0.268174 0.658486 0
M  V30 5109 H 476.525 1.32076 1.4414 0
M  V30 5110 H 475.229 2.23448 3.44237 0
M  V30 5111 H 474.76 0.586912 3.88997 0
M  V30 5112 H 476.775 -0.0806356 4.96134 0
M  V30 5113 N 475.948 -1.35272 0.808662 0
M  V30 5114 C 477.188 -2.00534 0.395668 0
M  V30 5115 C 477.552 -1.62755 -1.01857 0
M  V30 5116 O 478.753 -2.20752 -1.53368 0
M  V30 5117 C 477.024 -3.52732 0.575771 0
M  V30 5118 S 478.583 -4.38067 0.253507 0
M  V30 5119 H 475.401 -0.694962 0.150165 0
M  V30 5120 H 478.003 -1.64823 1.05137 0
M  V30 5121 H 476.707 -3.77714 1.60499 0
M  V30 5122 H 476.238 -3.93285 -0.0951739 0
M  V30 5123 H 478.253 -4.87252 -0.938068 0
M  V30 5124 N 477.426 -0.562348 -1.47226 0
M  V30 5125 C 478.674 -0.0401371 -2.0206 0
M  V30 5126 C 478.995 1.3165 -1.43852 0
M  V30 5127 O 478.265 1.85976 -0.615599 0
M  V30 5128 H 476.845 -0.0118479 -0.746906 0
M  V30 5129 H 479.507 -0.73352 -1.8057 0
M  V30 5130 H 478.603 0.0441254 -3.12069 0
M  V30 5131 N 478.904 1.54736 -0.299062 0
M  V30 5132 C 479.851 2.23448 0.577899 0
M  V30 5133 C 480.821 1.21637 1.13109 0
M  V30 5134 O 482.006 1.50252 1.17597 0
M  V30 5135 C 479.146 2.9774 1.74484 0
M  V30 5136 C 478.259 4.1432 1.22323 0
M  V30 5137 C 477.394 4.76199 2.35388 0
M  V30 5138 C 476.433 5.84927 1.80351 0
M  V30 5139 N 475.57 6.4077 2.86982 0
M  V30 5140 H 480.41 2.97996 -0.0146545 0
M  V30 5141 H 477.947 1.47088 -0.0190013 0
M  V30 5142 H 479.905 3.39045 2.43114 0
M  V30 5143 H 478.535 2.25572 2.30905 0
M  V30 5144 H 477.587 3.7797 0.429249 0
M  V30 5145 H 478.899 4.92659 0.780309 0
M  V30 5146 H 478.053 5.20346 3.11969 0
M  V30 5147 H 476.792 3.97188 2.83006 0
M  V30 5148 H 475.797 5.40207 1.02259 0
M  V30 5149 H 477.022 6.65821 1.3364 0
M  V30 5150 H 474.968 5.64643 3.33938 0
M  V30 5151 H 474.885 7.1445 2.4718 0
M  V30 5152 H 476.153 6.89574 3.63466 0
M  V30 5153 N 480.382 0.0267497 1.57577 0
M  V30 5154 C 481.33 -0.973923 2.11229 0
M  V30 5155 C 482.324 -1.33849 1.03831 0
M  V30 5156 O 483.53 -1.321 1.22269 0
M  V30 5157 H 479.905 -0.331844 0.674821 0
M  V30 5158 H 481.876 -0.496092 2.94247 0
M  V30 5159 C 480.625 -2.24798 2.65257 0
M  V30 5160 H 479.948 -1.9762 3.47543 0
M  V30 5161 H 481.388 -2.93031 3.06445 0
M  V30 5162 C 479.847 -2.97611 1.57891 0
M  V30 5163 O 480.377 -3.89629 0.97735 0
M  V30 5164 N 478.583 -2.59905 1.29992 0
M  V30 5165 H 478.13 -1.85154 1.79097 0
M  V30 5166 H 478.088 -3.08932 0.583798 0
M  V30 5167 N 481.861 -1.55662 -0.24637 0
M  V30 5168 C 483.272 -1.67953 -0.81539 0
M  V30 5169 C 483.623 -0.624302 -1.86002 0
M  V30 5170 O 482.748 0.229328 -2.15181 0
M  V30 5171 C 483.343 -3.04484 -1.48576 0
M  V30 5172 C 481.902 -3.18713 -2.00248 0
M  V30 5173 C 481.049 -2.6383 -0.853766 0
M  V30 5174 H 484 -1.58685 -0.0221692 0
M  V30 5175 H 484.021 -2.98959 -2.3538 0
M  V30 5176 H 483.533 -3.81264 -0.725222 0
M  V30 5177 H 481.634 -2.46757 -2.79181 0
M  V30 5178 H 481.747 -4.25628 -2.1995 0
M  V30 5179 H 480.111 -2.21667 -1.25442 0
M  V30 5180 H 480.894 -3.43135 -0.106302 0
M  V30 5181 N 483.339 0.512053 -1.4905 0
M  V30 5182 C 484.269 1.62365 -1.67809 0
M  V30 5183 C 485.25 1.61737 -0.526809 0
M  V30 5184 O 486.435 1.78651 -0.761404 0
M  V30 5185 C 483.565 3.00895 -1.73435 0
M  V30 5186 C 482.519 3.16387 -2.88242 0
M  V30 5187 C 481.845 4.56157 -2.78971 0
M  V30 5188 C 483.145 2.97457 -4.29321 0
M  V30 5189 H 484.839 1.46921 -2.60873 0
M  V30 5190 H 482.385 0.705379 -1.2554 0
M  V30 5191 H 484.338 3.78549 -1.85145 0
M  V30 5192 H 483.062 3.17403 -0.769619 0
M  V30 5193 H 481.721 2.41155 -2.76116 0
M  V30 5194 H 481.369 4.69525 -1.8043 0
M  V30 5195 H 481.069 4.67465 -3.5602 0
M  V30 5196 H 482.593 5.35886 -2.92675 0
M  V30 5197 H 484.007 3.64888 -4.42187 0
M  V30 5198 H 482.404 3.20245 -5.07507 0
M  V30 5199 H 483.474 1.93692 -4.44535 0
M  V30 5200 N 484.817 1.37938 0.762283 0
M  V30 5201 C 486.065 1.33404 1.51815 0
M  V30 5202 C 486.386 -0.0780975 1.94844 0
M  V30 5203 O 485.656 -1.02405 1.67003 0
M  V30 5204 H 484.236 0.490839 0.563104 0
M  V30 5205 H 486.898 1.72527 0.906669 0
M  V30 5206 H 485.994 1.97926 2.41313 0
M  V30 5207 N 486.295 -0.989507 1.22664 0
M  V30 5208 C 487.572 -1.70326 0.961688 0
M  V30 5209 C 487.952 -2.04537 -0.522279 0
M  V30 5210 O 487.3 -1.73136 -1.49118 0
M  V30 5211 C 487.51 -2.95135 1.86269 0
M  V30 5212 C 488.858 -3.67842 2.12078 0
M  V30 5213 O 489.882 -3.0515 1.83745 0
M  V30 5214 O 488.741 -4.80644 2.60083 0
M  V30 5215 H 485.835 -0.743589 0.361946 0
M  V30 5216 H 488.381 -1.04555 1.33665 0
M  V30 5217 H 487.153 -2.66382 2.8663 0
M  V30 5218 H 486.776 -3.68645 1.48952 0
M  V30 5219 N 487.773 -1.03688 -1.18687 0
M  V30 5220 C 489.05 -0.652397 -1.84399 0
M  V30 5221 C 489.43 0.868386 -1.92412 0
M  V30 5222 O 488.778 1.76832 -1.44716 0
M  V30 5223 C 488.988 -1.3238 -3.22919 0
M  V30 5224 C 490.336 -1.45216 -3.98996 0
M  V30 5225 O 491.36 -1.2816 -3.32345 0
M  V30 5226 O 490.219 -1.72975 -5.18403 0
M  V30 5227 H 487.313 -0.227793 -0.795009 0
M  V30 5228 H 489.859 -1.13553 -1.2611 0
M  V30 5229 H 488.631 -2.36202 -3.11968 0
M  V30 5230 H 488.254 -0.829039 -3.88861 0
M  V30 5231 N 489.251 1.34841 -0.815825 0
M  V30 5232 C 490.161 2.33425 -0.234462 0
M  V30 5233 C 491.177 1.62295 0.627413 0
M  V30 5234 O 492.353 1.94109 0.536987 0
M  V30 5235 C 489.418 3.41471 0.599849 0
M  V30 5236 C 488.479 4.28362 -0.283596 0
M  V30 5237 C 487.712 5.31248 0.51099 0
M  V30 5238 O 487.935 5.43056 1.7449 0
M  V30 5239 O 486.869 6.01812 -0.10297 0
M  V30 5240 H 490.695 2.84962 -1.05024 0
M  V30 5241 H 488.28 1.37774 -0.577809 0
M  V30 5242 H 490.162 4.07464 1.07475 0
M  V30 5243 H 488.837 2.9219 1.39308 0
M  V30 5244 H 487.744 3.65318 -0.805836 0
M  V30 5245 H 489.077 4.81066 -1.041 0
M  V30 5246 N 490.729 0.570148 1.46925 0
M  V30 5247 C 491.692 -0.159933 2.28641 0
M  V30 5248 C 492.692 -0.830638 1.37685 0
M  V30 5249 O 493.882 -0.684516 1.60187 0
M  V30 5250 C 491.014 -1.2354 3.17727 0
M  V30 5251 H 492.207 0.558035 2.94662 0
M  V30 5252 H 489.76 0.327603 1.52828 0
M  V30 5253 H 490.495 -1.98535 2.56426 0
M  V30 5254 H 490.28 -0.759125 3.84681 0
M  V30 5255 H 491.77 -1.74782 3.79264 0
M  V30 5256 N 492.207 -1.54576 0.307264 0
M  V30 5257 C 493.432 -2.05139 -0.305379 0
M  V30 5258 C 493.857 -1.18278 -1.46259 0
M  V30 5259 O 493.215 -0.188243 -1.8032 0
M  V30 5260 C 493.263 -3.53066 -0.733283 0
M  V30 5261 O 492.367 -3.69206 -1.83741 0
M  V30 5262 H 491.708 -0.661444 -0.0582105 0
M  V30 5263 H 494.238 -1.99569 0.450931 0
M  V30 5264 H 494.248 -3.95034 -1.02039 0
M  V30 5265 H 492.923 -4.15746 0.113198 0
M  V30 5266 H 491.5 -3.39143 -1.55037 0
M  V30 5267 N 493.685 -0.035106 -1.57561 0
M  V30 5268 C 494.648 0.929819 -2.09492 0
M  V30 5269 C 495.648 1.25026 -1.01119 0
M  V30 5270 O 496.838 1.18961 -1.27255 0
M  V30 5271 C 493.97 2.24457 -2.56577 0
M  V30 5272 H 495.163 0.479935 -2.96035 0
M  V30 5273 H 492.716 0.213033 -1.54841 0
M  V30 5274 H 493.451 2.74061 -1.73382 0
M  V30 5275 H 493.236 2.02508 -3.35757 0
M  V30 5276 H 494.726 2.93607 -2.96959 0
M  V30 5277 N 495.163 1.55791 0.238111 0
M  V30 5278 C 496.391 1.82098 0.982233 0
M  V30 5279 C 496.806 0.612025 1.78605 0
M  V30 5280 O 496.163 -0.419381 1.77616 0
M  V30 5281 C 496.214 3.0673 1.91309 0
M  V30 5282 O 495.935 4.2296 1.14179 0
M  V30 5283 C 497.436 3.45903 2.77248 0
M  V30 5284 H 494.656 0.605748 0.288635 0
M  V30 5285 H 497.2 2.02862 0.258341 0
M  V30 5286 H 495.355 2.87991 2.59114 0
M  V30 5287 H 495.769 4.93653 1.7722 0
M  V30 5288 H 497.243 4.36189 3.38295 0
M  V30 5289 H 497.72 2.66891 3.48806 0
M  V30 5290 H 498.326 3.67024 2.14881 0
M  V30 5291 N 496.642 -0.504142 1.49319 0
M  V30 5292 C 497.888 -1.26033 1.58882 0
M  V30 5293 C 498.221 -1.92268 0.273274 0
M  V30 5294 O 497.496 -1.80567 -0.72291 0
M  V30 5295 C 497.779 -2.32976 2.7458 0
M  V30 5296 C 497.632 -1.71263 4.1592 0
M  V30 5297 C 498.951 -3.34561 2.85932 0
M  V30 5298 H 496.07 -0.456863 0.578312 0
M  V30 5299 H 498.712 -0.558965 1.81592 0
M  V30 5300 H 496.862 -2.92796 2.55348 0
M  V30 5301 H 498.534 -1.15294 4.4666 0
M  V30 5302 H 496.777 -1.01686 4.21714 0
M  V30 5303 H 497.448 -2.48816 4.92742 0
M  V30 5304 H 499.924 -2.84727 3.0343 0
M  V30 5305 H 498.8 -4.06754 3.68568 0
M  V30 5306 H 499.061 -3.96695 1.95154 0
M  V30 5307 N 498.12 -1.38341 -0.754957 0
M  V30 5308 C 499.345 -1.37882 -1.5493 0
M  V30 5309 C 499.77 0.0296385 -1.88077 0
M  V30 5310 O 499.128 1.01133 -1.50472 0
M  V30 5311 C 499.176 -2.23996 -2.82592 0
M  V30 5312 O 498.28 -1.65612 -3.77686 0
M  V30 5313 H 497.621 -0.470384 -0.468652 0
M  V30 5314 H 500.151 -1.82084 -0.933082 0
M  V30 5315 H 500.161 -2.37806 -3.3153 0
M  V30 5316 H 498.836 -3.26365 -2.57796 0
M  V30 5317 H 497.413 -1.60936 -3.36384 0
M  V30 5318 N 499.598 0.982988 -1.23187 0
M  V30 5319 C 500.545 2.07491 -1.01075 0
M  V30 5320 C 501.515 1.65949 0.070905 0
M  V30 5321 O 502.7 1.90629 -0.0806822 0
M  V30 5322 C 499.84 3.39751 -0.605261 0
M  V30 5323 C 498.953 3.94578 -1.75876 0
M  V30 5324 C 498.088 5.15039 -1.3003 0
M  V30 5325 C 497.127 5.62027 -2.42472 0
M  V30 5326 N 496.264 6.73719 -1.97602 0
M  V30 5327 H 501.104 2.25739 -1.9454 0
M  V30 5328 H 498.641 1.10659 -0.969179 0
M  V30 5329 H 500.599 4.15719 -0.351279 0
M  V30 5330 H 499.229 3.21473 0.292382 0
M  V30 5331 H 498.281 3.1539 -2.12681 0
M  V30 5332 H 499.593 4.25422 -2.60418 0
M  V30 5333 H 498.747 5.9833 -1.00429 0
M  V30 5334 H 497.486 4.85843 -0.425216 0
M  V30 5335 H 496.491 4.77318 -2.7285 0
M  V30 5336 H 497.716 5.93244 -3.30512 0
M  V30 5337 H 495.662 6.46287 -1.1247 0
M  V30 5338 H 495.579 7.03934 -2.75705 0
M  V30 5339 H 496.847 7.6049 -1.71098 0
M  V30 5340 N 501.076 1.04316 1.18135 0
M  V30 5341 C 502.304 0.768117 1.92113 0
M  V30 5342 C 502.719 -0.675057 1.76319 0
M  V30 5343 O 502.076 -1.46038 1.09449 0
M  V30 5344 C 502.127 1.12808 3.43448 0
M  V30 5345 O 501.848 2.5146 3.58747 0
M  V30 5346 C 503.349 0.8779 4.3452 0
M  V30 5347 H 500.569 0.279937 0.609817 0
M  V30 5348 H 503.113 1.39149 1.49859 0
M  V30 5349 H 501.268 0.549623 3.83481 0
M  V30 5350 H 501.682 2.65313 4.52448 0
M  V30 5351 H 503.156 1.17959 5.39249 0
M  V30 5352 H 503.633 -0.187239 4.38801 0
M  V30 5353 H 504.239 1.43977 4.00188 0
M  V30 5354 N 502.554 -1.34406 0.822964 0
M  V30 5355 C 503.464 -2.33298 0.246838 0
M  V30 5356 C 504.48 -1.62625 -0.618797 0
M  V30 5357 O 505.656 -1.94391 -0.526685 0
M  V30 5358 C 502.721 -3.41785 -0.581731 0
M  V30 5359 C 501.782 -4.28206 0.306309 0
M  V30 5360 C 501.015 -5.31512 -0.48281 0
M  V30 5361 O 501.238 -5.43973 -1.71607 0
M  V30 5362 O 500.172 -6.01749 0.134884 0
M  V30 5363 H 503.998 -2.84401 1.06534 0
M  V30 5364 H 501.583 -1.37466 0.585108 0
M  V30 5365 H 503.465 -4.08028 -1.05313 0
M  V30 5366 H 502.14 -2.92925 -1.37756 0
M  V30 5367 H 501.047 -3.64885 0.825199 0
M  V30 5368 H 502.38 -4.80507 1.06649 0
M  V30 5369 N 504.032 -0.577932 -1.46621 0
M  V30 5370 C 505.26 -0.0671642 -2.06791 0
M  V30 5371 C 505.675 1.23571 -1.42743 0
M  V30 5372 O 505.032 1.74602 -0.531062 0
M  V30 5373 C 505.083 0.110357 -3.61332 0
M  V30 5374 O 504.804 -1.14095 -4.22982 0
M  V30 5375 C 506.305 0.656025 -4.38419 0
M  V30 5376 H 503.525 -0.0552732 -0.66872 0
M  V30 5377 H 506.069 -0.797242 -1.8832 0
M  V30 5378 H 504.224 0.790637 -3.79246 0
M  V30 5379 H 504.638 -0.951742 -5.15793 0
M  V30 5380 H 506.112 0.729438 -5.47159 0
M  V30 5381 H 506.589 1.67195 -4.06131 0
M  V30 5382 H 507.195 0.0107692 -4.25299 0
M  V30 5383 N 505.51 1.54411 -0.315457 0
M  V30 5384 C 506.735 2.05299 0.294496 0
M  V30 5385 C 507.16 1.19052 1.4563 0
M  V30 5386 O 506.518 0.197804 1.80218 0
M  V30 5387 C 506.566 3.5345 0.714549 0
M  V30 5388 O 505.67 3.70175 1.81781 0
M  V30 5389 H 505.011 0.661743 0.0547019 0
M  V30 5390 H 507.541 1.99327 -0.461508 0
M  V30 5391 H 507.551 3.9557 0.999426 0
M  V30 5392 H 506.226 4.1568 -0.135244 0
M  V30 5393 H 504.803 3.3996 1.53236 0
M  V30 5394 N 506.988 0.0434614 1.5754 0
M  V30 5395 C 507.92 -0.962586 2.08007 0
M  V30 5396 C 508.933 -1.27972 1.00634 0
M  V30 5397 O 510.122 -1.24186 1.28219 0
M  V30 5398 C 507.222 -2.28621 2.50171 0
M  V30 5399 C 506.395 -2.15214 3.80791 0
M  V30 5400 C 505.454 -3.30633 4.09351 0
M  V30 5401 O 504.48 -3.0688 4.79388 0
M  V30 5402 N 505.682 -4.54873 3.60654 0
M  V30 5403 H 508.447 -0.531891 2.94942 0
M  V30 5404 H 506.008 -0.142965 1.61268 0
M  V30 5405 H 508 -3.04689 2.66359 0
M  V30 5406 H 506.57 -2.63283 1.68525 0
M  V30 5407 H 505.79 -1.23785 3.74261 0
M  V30 5408 H 507.078 -2.03475 4.66343 0
M  V30 5409 H 506.476 -4.77063 3.04019 0
M  V30 5410 H 505.033 -5.2806 3.82094 0
M  V30 5411 N 508.466 -1.55915 -0.229846 0
M  V30 5412 C 509.712 -1.78807 -0.956868 0
M  V30 5413 C 510.045 -0.611687 -1.84315 0
M  V30 5414 O 509.32 0.389398 -1.90562 0
M  V30 5415 C 509.603 -3.11718 -1.80288 0
M  V30 5416 C 509.456 -4.3979 -0.943649 0
M  V30 5417 C 510.775 -3.40999 -2.78222 0
M  V30 5418 H 507.894 -0.6505 -0.346437 0
M  V30 5419 H 510.536 -1.88648 -0.226252 0
M  V30 5420 H 508.686 -3.03459 -2.42579 0
M  V30 5421 H 510.358 -4.60059 -0.338121 0
M  V30 5422 H 508.601 -4.33086 -0.248705 0
M  V30 5423 H 509.272 -5.29208 -1.5698 0
M  V30 5424 H 511.748 -3.49332 -2.26067 0
M  V30 5425 H 510.624 -4.35183 -3.34526 0
M  V30 5426 H 510.885 -2.62754 -3.55546 0
M  V30 5427 N 509.944 0.496216 -1.49584 0
M  V30 5428 C 510.907 1.57952 -1.66084 0
M  V30 5429 C 511.907 1.51729 -0.53244 0
M  V30 5430 O 513.097 1.54796 -0.79899 0
M  V30 5431 C 510.229 2.97604 -1.66268 0
M  V30 5432 H 511.422 1.44649 -2.6271 0
M  V30 5433 H 508.975 0.7208 -1.38687 0
M  V30 5434 H 509.71 3.16378 -0.712432 0
M  V30 5435 H 509.495 3.03528 -2.4822 0
M  V30 5436 H 510.985 3.76301 -1.81073 0
M  V30 5437 N 511.423 1.38739 0.74761 0
M  V30 5438 C 512.834 1.31507 1.32524 0
M  V30 5439 C 513.185 -0.0263963 1.96182 0
M  V30 5440 O 512.31 -0.92849 1.95469 0
M  V30 5441 C 512.905 2.38162 2.40966 0
M  V30 5442 C 511.464 2.34489 2.94434 0
M  V30 5443 C 510.611 2.20712 1.67873 0
M  V30 5444 H 513.562 1.4901 0.546043 0
M  V30 5445 H 513.583 2.04222 3.21051 0
M  V30 5446 H 513.095 3.35783 1.94605 0
M  V30 5447 H 511.196 1.40467 3.45108 0
M  V30 5448 H 511.309 3.28861 3.48407 0
M  V30 5449 H 509.673 1.67667 1.91729 0
M  V30 5450 H 510.456 3.20285 1.23582 0
M  V30 5451 N 512.901 -0.976442 1.23707 0
M  V30 5452 C 513.864 -2.0511 1.02287 0
M  V30 5453 C 514.864 -1.60791 -0.0167195 0
M  V30 5454 O 516.054 -1.72761 0.223408 0
M  V30 5455 C 513.186 -3.36458 0.548507 0
M  V30 5456 H 514.379 -2.25545 1.9766 0
M  V30 5457 H 511.932 -1.15042 1.05806 0
M  V30 5458 H 512.667 -3.21713 -0.408818 0
M  V30 5459 H 512.452 -3.69967 1.29874 0
M  V30 5460 H 513.942 -4.15489 0.419406 0
M  V30 5461 O 514.418 -1.17461 -1.10838 0
M  V30 5462 H 515.109 -0.912283 -1.70872 0
M  V30 END ATOM
M  V30 BEGIN BOND
M  V30 END BOND
M  V30 END CTAB
M  END
$$$$
