drugbank_drug|DB14040 eptinezumab|Heavy
 OpenBabel12092119123D

  0  0  0     0  0            999 V3000
M  V30 BEGIN CTAB
M  V30 COUNTS 6700 6788 0 0 0
M  V30 BEGIN ATOM
M  V30 1 H -0.908 1.98254 -0.117106 0
M  V30 2 N 0 1.576 0 0
M  V30 3 C 0.91 2.11853 1.00774 0
M  V30 4 C 1.926 1.06379 1.37693 0
M  V30 5 O 3.102 1.3828 1.46426 0
M  V30 6 C 0.167 2.61108 2.28087 0
M  V30 7 C -0.772 3.81183 1.9748 0
M  V30 8 C -1.539 4.28079 3.18723 0
M  V30 9 O -1.316 3.74307 4.30407 0
M  V30 10 O -2.382 5.20234 3.02721 0
M  V30 11 H 1.444 2.98177 0.576547 0
M  V30 12 H -0.971 1.47789 0.218828 0
M  V30 13 H 0.911 2.92987 3.0288 0
M  V30 14 H -0.414 1.77881 2.70444 0
M  V30 15 H -1.507 3.54277 1.20162 0
M  V30 16 H -0.174 4.65482 1.5996 0
M  V30 17 N 1.4781 -0.272755 1.55222 0
M  V30 18 C 2.7241 -1.00581 1.761 0
M  V30 19 C 3.0571 -1.85932 0.560625 0
M  V30 20 O 2.3321 -1.89416 -0.441801 0
M  V30 21 C 2.6151 -1.88816 3.06628 0
M  V30 22 C 2.4681 -1.06457 4.37021 0
M  V30 23 C 3.7871 -2.8752 3.33197 0
M  V30 24 H 0.9061 -0.364244 0.640699 0
M  V30 25 H 3.5481 -0.278189 1.87952 0
M  V30 26 H 1.6981 -2.50856 2.96654 0
M  V30 27 H 3.3701 -0.464863 4.58952 0
M  V30 28 H 1.6131 -0.368043 4.32236 0
M  V30 29 H 2.2841 -1.71514 5.24678 0
M  V30 30 H 4.7601 -2.35615 3.42965 0
M  V30 31 H 3.6361 -3.46399 4.25792 0
M  V30 32 H 3.8971 -3.62657 2.52849 0
M  V30 33 N 2.9562 -1.48159 -0.537278 0
M  V30 34 C 3.8882 -1.58218 -1.65831 0
M  V30 35 C 4.9012 -0.466948 -1.5596 0
M  V30 36 O 6.0902 -0.73747 -1.62553 0
M  V30 37 C 3.1902 -1.48906 -3.04434 0
M  V30 38 C 2.3632 -2.75343 -3.3986 0
M  V30 39 C 1.4222 -2.59588 -4.57712 0
M  V30 40 O 0.4482 -3.33457 -4.61297 0
M  V30 41 N 1.6502 -1.68724 -5.55439 0
M  V30 42 H 4.4152 -2.54891 -1.57641 0
M  V30 43 H 1.9762 -1.4479 -0.724386 0
M  V30 44 H 3.9682 -1.36072 -3.81139 0
M  V30 45 H 2.5382 -0.602368 -3.06741 0
M  V30 46 H 1.7582 -3.02795 -2.52406 0
M  V30 47 H 3.0462 -3.5924 -3.60311 0
M  V30 48 H 2.4442 -1.07898 -5.55315 0
M  V30 49 H 1.0012 -1.61832 -6.3139 0
M  V30 50 N 4.4343 0.785586 -1.36625 0
M  V30 51 C 5.3643 1.91259 -1.33949 0
M  V30 52 C 6.3453 1.68795 -0.210325 0
M  V30 53 O 7.5303 1.89854 -0.408561 0
M  V30 54 C 4.6603 3.28339 -1.13186 0
M  V30 55 C 3.6143 3.65335 -2.22967 0
M  V30 56 C 2.9403 5.00806 -1.87342 0
M  V30 57 C 4.2403 3.7352 -3.65075 0
M  V30 58 H 5.9343 1.93755 -2.28253 0
M  V30 59 H 3.4803 0.930788 -1.09874 0
M  V30 60 H 5.4333 4.06804 -1.09948 0
M  V30 61 H 4.1573 3.2624 -0.153332 0
M  V30 62 H 2.8163 2.89169 -2.25337 0
M  V30 63 H 2.4643 4.95233 -0.880545 0
M  V30 64 H 2.1643 5.26529 -2.60846 0
M  V30 65 H 3.6883 5.81687 -1.85667 0
M  V30 66 H 5.1023 4.42168 -3.64911 0
M  V30 67 H 3.4993 4.10731 -4.37516 0
M  V30 68 H 4.5693 2.74527 -3.99703 0
M  V30 69 N 5.9124 1.20967 1.01018 0
M  V30 70 C 7.1584 1.02526 1.74975 0
M  V30 71 C 7.4914 -0.4408 1.89131 0
M  V30 72 O 6.7664 -1.32718 1.42184 0
M  V30 73 C 7.0494 1.71699 3.1653 0
M  V30 74 C 6.9024 3.25791 3.10129 0
M  V30 75 C 8.2214 1.45531 4.15342 0
M  V30 76 H 5.3404 0.373863 0.635134 0
M  V30 77 H 7.9824 1.49071 1.17805 0
M  V30 78 H 6.1324 1.32128 3.65341 0
M  V30 79 H 7.8044 3.74697 2.69072 0
M  V30 80 H 6.0474 3.56363 2.47362 0
M  V30 81 H 6.7184 3.69353 4.10222 0
M  V30 82 H 9.1944 1.79872 3.75213 0
M  V30 83 H 8.0704 1.96453 5.1254 0
M  V30 84 H 8.3314 0.384237 4.40427 0
M  V30 85 N 7.3905 -1.2043 1.01659 0
M  V30 86 C 8.3005 -2.2689 0.596484 0
M  V30 87 C 9.3165 -1.70107 -0.36599 0
M  V30 88 O 10.4925 -2.00117 -0.226942 0
M  V30 89 C 7.5575 -3.4665 -0.0586659 0
M  V30 90 C 6.6185 -4.18662 0.949751 0
M  V30 91 C 5.8515 -5.32705 0.32577 0
M  V30 92 O 6.0745 -5.63656 -0.874509 0
M  V30 93 O 5.0085 -5.92803 1.04249 0
M  V30 94 H 8.8345 -2.65041 1.4828 0
M  V30 95 H 6.4195 -1.27048 0.786082 0
M  V30 96 H 8.3015 -4.19256 -0.424564 0
M  V30 97 H 6.9765 -3.10375 -0.91918 0
M  V30 98 H 5.8835 -3.48229 1.36702 0
M  V30 99 H 7.2165 -4.58878 1.78023 0
M  V30 100 N 8.8686 -0.792821 -1.36206 0
M  V30 101 C 10.0936 -0.377701 -2.03932 0
M  V30 102 C 10.5186 0.998947 -1.59382 0
M  V30 103 O 9.8766 1.64421 -0.763903 0
M  V30 104 C 9.9246 -0.453635 -3.57735 0
M  V30 105 O 9.0286 0.538151 -4.08874 0
M  V30 106 H 8.3696 -0.159855 -0.644471 0
M  V30 107 H 10.8996 -1.07488 -1.7409 0
M  V30 108 H 10.9096 -0.318464 -4.06755 0
M  V30 109 H 9.5846 -1.45784 -3.89512 0
M  V30 110 H 8.1616 0.364359 -3.71116 0
M  V30 111 N 10.3467 1.47872 -0.545128 0
M  V30 112 C 11.5947 2.02093 -0.016553 0
M  V30 113 C 11.9157 1.42305 1.3332 0
M  V30 114 O 11.1857 0.593853 1.86682 0
M  V30 115 H 9.7657 0.746993 -0.00313038 0
M  V30 116 H 12.4277 1.81414 -0.712397 0
M  V30 117 H 11.5237 3.11996 0.0805422 0
M  V30 118 N 11.8248 0.280983 1.55075 0
M  V30 119 C 13.0728 -0.333455 1.9933 0
M  V30 120 C 13.3938 -1.55937 1.17085 0
M  V30 121 O 12.6638 -1.94143 0.261805 0
M  V30 122 H 11.2438 -0.126197 0.736263 0
M  V30 123 H 13.9058 0.387678 1.91005 0
M  V30 124 H 13.0018 -0.619292 3.05894 0
M  V30 125 N 13.3029 -1.57598 0.00835791 0
M  V30 126 C 14.5509 -1.90551 -0.6734 0
M  V30 127 C 14.8719 -0.883301 -1.73847 0
M  V30 128 O 14.1419 0.0781442 -1.95744 0
M  V30 129 H 12.7219 -0.703312 -0.251717 0
M  V30 130 H 15.3839 -1.94833 0.0512592 0
M  V30 131 H 14.4799 -2.9056 -1.13935 0
M  V30 132 N 14.781 0.264519 -1.55364 0
M  V30 133 C 15.711 1.33121 -1.91836 0
M  V30 134 C 16.692 1.51101 -0.781192 0
M  V30 135 O 17.877 1.64003 -1.04003 0
M  V30 136 C 15.007 2.68921 -2.19769 0
M  V30 137 C 13.961 2.65661 -3.35571 0
M  V30 138 C 13.287 4.05093 -3.49004 0
M  V30 139 C 14.587 2.24187 -4.71739 0
M  V30 140 H 16.281 1.02844 -2.81182 0
M  V30 141 H 13.827 0.493286 -1.35287 0
M  V30 142 H 15.78 3.43663 -2.43872 0
M  V30 143 H 14.504 3.00799 -1.27231 0
M  V30 144 H 13.163 1.93377 -3.1145 0
M  V30 145 H 12.811 4.34206 -2.53917 0
M  V30 146 H 12.511 4.03804 -4.26868 0
M  V30 147 H 14.035 4.81561 -3.75408 0
M  V30 148 H 15.449 2.88654 -4.9533 0
M  V30 149 H 13.846 2.34044 -5.52579 0
M  V30 150 H 14.916 1.19327 -4.69988 0
M  V30 151 N 16.2591 1.48442 0.529413 0
M  V30 152 C 17.5051 1.5672 1.28711 0
M  V30 153 C 17.8381 0.2406 1.92704 0
M  V30 154 O 17.1131 -0.753454 1.79313 0
M  V30 155 C 17.3961 2.70587 2.37603 0
M  V30 156 C 17.2491 4.12953 1.78297 0
M  V30 157 C 18.5681 2.80212 3.39366 0
M  V30 158 H 15.6871 0.570474 0.466613 0
M  V30 159 H 18.3291 1.80617 0.589706 0
M  V30 160 H 16.4791 2.50342 2.97088 0
M  V30 161 H 18.1511 4.44639 1.22858 0
M  V30 162 H 16.3941 4.19927 1.0883 0
M  V30 163 H 17.0651 4.88448 2.57144 0
M  V30 164 H 19.5411 2.98553 2.89836 0
M  V30 165 H 18.4171 3.61611 4.12951 0
M  V30 166 H 18.6781 1.88393 3.99951 0
M  V30 167 N 17.7372 -0.778329 1.37039 0
M  V30 168 C 18.6692 -1.90034 1.2814 0
M  V30 169 C 19.6822 -1.61585 0.198558 0
M  V30 170 O 20.8712 -1.72625 0.454175 0
M  V30 171 C 17.9712 -3.25108 0.956968 0
M  V30 172 C 17.1442 -3.81253 2.14394 0
M  V30 173 C 16.2032 -4.94789 1.79082 0
M  V30 174 O 15.2292 -5.10721 2.51301 0
M  V30 175 N 16.4312 -5.75878 0.731043 0
M  V30 176 H 19.1962 -1.98186 2.24816 0
M  V30 177 H 16.7572 -0.957129 1.30578 0
M  V30 178 H 18.7492 -3.9857 0.701701 0
M  V30 179 H 17.3192 -3.125 0.0789812 0
M  V30 180 H 16.5392 -2.99647 2.56135 0
M  V30 181 H 17.8272 -4.15495 2.93668 0
M  V30 182 H 17.2252 -5.65547 0.131618 0
M  V30 183 H 15.7822 -6.49596 0.535622 0
M  V30 184 N 19.2153 -1.21501 -1.00376 0
M  V30 185 C 20.6263 -1.03146 -1.55621 0
M  V30 186 C 20.9773 0.408375 -1.91903 0
M  V30 187 O 20.1023 1.29177 -1.73616 0
M  V30 188 C 20.6973 -1.86612 -2.82775 0
M  V30 189 C 19.2563 -1.72586 -3.34501 0
M  V30 190 C 18.4033 -1.83747 -2.07683 0
M  V30 191 H 21.3543 -1.35505 -0.826081 0
M  V30 192 H 21.3753 -1.3771 -3.54706 0
M  V30 193 H 20.8873 -2.91399 -2.56336 0
M  V30 194 H 18.9883 -0.704877 -3.65872 0
M  V30 195 H 19.1013 -2.54623 -4.05837 0
M  V30 196 H 17.4653 -1.27069 -2.20739 0
M  V30 197 H 18.2483 -2.90044 -1.83655 0
M  V30 198 N 20.6934 1.19889 -1.02296 0
M  V30 199 C 21.9414 1.89046 -0.714558 0
M  V30 200 C 22.2624 1.79636 0.758681 0
M  V30 201 O 21.5324 1.20292 1.54618 0
M  V30 202 H 20.1124 0.699802 -0.261317 0
M  V30 203 H 22.7744 1.45574 -1.29592 0
M  V30 204 H 21.8704 2.95524 -1.0036 0
M  V30 205 N 22.1715 0.800033 1.35784 0
M  V30 206 C 23.4195 0.376597 1.9856 0
M  V30 207 C 23.7405 -1.05812 1.63795 0
M  V30 208 O 23.0105 -1.73103 0.917171 0
M  V30 209 H 21.5905 0.136261 0.734467 0
M  V30 210 H 24.2525 1.02442 1.65806 0
M  V30 211 H 23.3485 0.477002 3.08433 0
M  V30 212 N 23.6496 -1.47581 0.552962 0
M  V30 213 C 24.8746 -2.07378 0.0300593 0
M  V30 214 C 25.2996 -1.40355 -1.25229 0
M  V30 215 O 24.6576 -0.477099 -1.7491 0
M  V30 216 C 24.7056 -3.60274 -0.153231 0
M  V30 217 O 23.8096 -3.94041 -1.21678 0
M  V30 218 H 23.1506 -0.662158 0.0494182 0
M  V30 219 H 25.6806 -1.89662 0.767434 0
M  V30 220 H 25.6906 -4.0633 -0.368761 0
M  V30 221 H 24.3656 -4.08455 0.783397 0
M  V30 222 H 22.9426 -3.59735 -0.982079 0
M  V30 223 N 25.1277 -0.289203 -1.54924 0
M  V30 224 C 26.0577 0.58549 -2.2604 0
M  V30 225 C 27.0387 1.14753 -1.25562 0
M  V30 226 O 28.2237 1.17906 -1.54311 0
M  V30 227 C 25.3537 1.76305 -2.99222 0
M  V30 228 C 24.3077 1.33191 -4.06748 0
M  V30 229 C 23.6337 2.5937 -4.6758 0
M  V30 230 C 24.9337 0.471775 -5.20165 0
M  V30 231 H 26.6277 -0.00763532 -2.99399 0
M  V30 232 H 24.1737 -0.00511229 -1.43999 0
M  V30 233 H 26.1267 2.38097 -3.47689 0
M  V30 234 H 24.8507 2.38223 -2.23422 0
M  V30 235 H 23.5097 0.737121 -3.59113 0
M  V30 236 H 23.1577 3.19576 -3.88433 0
M  V30 237 H 22.8577 2.31228 -5.40192 0
M  V30 238 H 24.3817 3.21985 -5.18804 0
M  V30 239 H 25.7957 0.995056 -5.64599 0
M  V30 240 H 24.1927 0.284639 -5.99425 0
M  V30 241 H 25.2627 -0.506041 -4.82252 0
M  V30 242 N 26.6058 1.57591 -0.0167156 0
M  V30 243 C 28.0218 1.55946 0.339557 0
M  V30 244 C 28.2218 1.02109 1.73713 0
M  V30 245 O 27.2778 0.662303 2.43659 0
M  V30 246 C 28.5908 3.00037 0.199499 0
M  V30 247 C 30.1388 3.11805 0.273193 0
M  V30 248 C 30.6138 4.57713 0.162068 0
M  V30 249 N 32.1048 4.6268 0.219444 0
M  V30 250 C 32.8398 5.73185 0.157054 0
M  V30 251 N 32.3358 6.92786 0.0442936 0
M  V30 252 N 34.1288 5.61707 0.21014 0
M  V30 253 H 26.2798 1.90921 -0.930758 0
M  V30 254 H 28.5428 0.877674 -0.358319 0
M  V30 255 H 28.2488 3.4333 -0.76273 0
M  V30 256 H 28.1228 3.64387 0.974786 0
M  V30 257 H 30.5098 2.68433 1.22587 0
M  V30 258 H 30.5908 2.50201 -0.532256 0
M  V30 259 H 30.2348 5.01763 -0.78714 0
M  V30 260 H 30.1648 5.17283 0.986222 0
M  V30 261 H 32.6558 3.76649 0.307246 0
M  V30 262 H 32.9688 7.728 0.00304069 0
M  V30 263 H 31.3138 6.94999 0.00968457 0
M  V30 264 H 34.5048 4.6716 0.296546 0
M  V30 265 H 34.6778 6.47807 0.158054 0
M  V30 266 N 28.0839 -0.256276 1.55502 0
M  V30 267 C 29.0139 -1.32102 1.92539 0
M  V30 268 C 29.9949 -1.50684 0.789194 0
M  V30 269 O 31.1799 -1.63449 1.04872 0
M  V30 270 C 28.3099 -2.67752 2.21192 0
M  V30 271 C 27.2639 -2.63878 3.36975 0
M  V30 272 C 26.5899 -4.03236 3.51147 0
M  V30 273 C 27.8899 -2.21682 4.72921 0
M  V30 274 H 29.5839 -1.01351 2.81724 0
M  V30 275 H 27.1299 -0.486105 1.35547 0
M  V30 276 H 29.0829 -3.42365 2.45691 0
M  V30 277 H 27.8069 -3.0012 1.28824 0
M  V30 278 H 26.4659 -1.91722 3.12471 0
M  V30 279 H 26.1139 -4.32854 2.56216 0
M  V30 280 H 25.8139 -4.01535 4.29003 0
M  V30 281 H 27.3379 -4.79563 3.77957 0
M  V30 282 H 28.7519 -2.86023 4.96854 0
M  V30 283 H 27.1489 -2.3111 5.53812 0
M  V30 284 H 28.2189 -1.16833 4.70615 0
M  V30 285 N 29.562 -1.4872 -0.521534 0
M  V30 286 C 30.787 -1.61101 -1.30618 0
M  V30 287 C 31.212 -0.274611 -1.86085 0
M  V30 288 O 30.57 0.754937 -1.64834 0
M  V30 289 C 30.618 -2.66709 -2.4269 0
M  V30 290 O 29.722 -2.24456 -3.45967 0
M  V30 291 H 29.063 -0.539921 -0.386499 0
M  V30 292 H 31.593 -1.94767 -0.626645 0
M  V30 293 H 31.603 -2.88245 -2.88754 0
M  V30 294 H 30.278 -3.63727 -2.01682 0
M  V30 295 H 28.855 -2.13168 -3.05964 0
M  V30 296 N 31.0401 0.771051 -1.3745 0
M  V30 297 C 32.2801 1.54264 -1.34096 0
M  V30 298 C 32.6441 1.91858 0.0737639 0
M  V30 299 O 33.8451 2.67797 0.23203 0
M  V30 300 C 32.1161 2.77326 -2.25445 0
M  V30 301 S 33.6751 3.67383 -2.39948 0
M  V30 302 H 30.4931 0.528122 -0.476034 0
M  V30 303 H 33.0951 0.906633 -1.73206 0
M  V30 304 H 31.7991 2.47788 -3.27153 0
M  V30 305 H 31.3301 3.45886 -1.87421 0
M  V30 306 H 33.3451 4.69334 -1.61059 0
M  V30 307 N 32.5182 1.22032 0.997298 0
M  V30 308 C 33.4812 0.987909 2.06816 0
M  V30 309 C 34.4812 -0.0440084 1.6074 0
M  V30 310 O 35.6712 0.194053 1.73116 0
M  V30 311 C 32.8032 0.49132 3.37341 0
M  V30 312 H 33.9962 1.93803 2.28868 0
M  V30 313 H 31.5492 1.03838 1.16822 0
M  V30 314 H 32.2842 -0.463364 3.20973 0
M  V30 315 H 32.0692 1.23575 3.72118 0
M  V30 316 H 33.5592 0.348824 4.16141 0
M  V30 317 N 33.9963 -1.19345 1.0293 0
M  V30 318 C 35.2423 -1.89318 0.727083 0
M  V30 319 C 35.5753 -1.79446 -0.742483 0
M  V30 320 O 34.8503 -1.1871 -1.54072 0
M  V30 321 C 35.1333 -3.40238 1.17942 0
M  V30 322 C 34.9863 -3.58979 2.71024 0
M  V30 323 C 36.3053 -4.33479 0.760548 0
M  V30 324 H 33.4243 -0.687475 0.265606 0
M  V30 325 H 36.0663 -1.40477 1.2793 0
M  V30 326 H 34.2163 -3.81964 0.709608 0
M  V30 327 H 35.8883 -3.26421 3.25955 0
M  V30 328 H 34.1313 -3.02018 3.11396 0
M  V30 329 H 34.8023 -4.64823 2.9773 0
M  V30 330 H 37.2783 -3.99469 1.16464 0
M  V30 331 H 36.1543 -5.37664 1.10493 0
M  V30 332 H 36.4153 -4.40813 -0.337063 0
M  V30 333 N 35.4744 -0.807222 -1.35358 0
M  V30 334 C 36.6994 -0.399309 -2.0352 0
M  V30 335 C 37.1244 0.981986 -1.60433 0
M  V30 336 O 36.4824 1.63601 -0.781299 0
M  V30 337 C 36.5304 -0.491552 -3.57234 0
M  V30 338 O 35.6344 0.494754 -4.09421 0
M  V30 339 H 34.9754 -0.166682 -0.642739 0
M  V30 340 H 37.5054 -1.09328 -1.72941 0
M  V30 341 H 37.5154 -0.361588 -4.06395 0
M  V30 342 H 36.1904 -1.49907 -3.87944 0
M  V30 343 H 34.7674 0.324977 -3.71481 0
M  V30 344 N 36.9525 1.47285 -0.560781 0
M  V30 345 C 38.2005 2.02064 -0.0379868 0
M  V30 346 C 38.5215 1.43711 1.31803 0
M  V30 347 O 37.7915 0.61362 1.86042 0
M  V30 348 H 36.3715 0.746918 -0.0110531 0
M  V30 349 H 39.0335 1.80648 -0.731598 0
M  V30 350 H 38.1295 3.12064 0.0474463 0
M  V30 351 N 38.4306 0.297415 1.54768 0
M  V30 352 C 39.6796 -0.313669 1.99246 0
M  V30 353 C 39.9926 -1.55281 1.18942 0
M  V30 354 O 41.1986 -2.23825 1.5367 0
M  V30 355 C 39.6546 -0.609407 3.54703 0
M  V30 356 C 39.2626 0.611192 4.43811 0
M  V30 357 C 41.0066 -1.18188 4.07715 0
M  V30 358 C 38.9136 0.288805 5.90694 0
M  V30 359 H 37.8436 -0.120979 0.744231 0
M  V30 360 H 40.4946 0.40556 1.78962 0
M  V30 361 H 38.8766 -1.38813 3.70873 0
M  V30 362 H 40.0506 1.3875 4.39414 0
M  V30 363 H 38.3656 1.10205 4.01552 0
M  V30 364 H 40.9626 -1.43727 5.15021 0
M  V30 365 H 41.3056 -2.12299 3.58099 0
M  V30 366 H 41.8386 -0.464944 3.95074 0
M  V30 367 H 38.5776 1.19838 6.44453 0
M  V30 368 H 38.0976 -0.450305 5.98107 0
M  V30 369 H 39.7766 -0.110933 6.46905 0
M  V30 370 N 39.9087 -1.5758 0.0250728 0
M  V30 371 C 41.1857 -1.82917 -0.692873 0
M  V30 372 C 41.5657 -0.908137 -1.90568 0
M  V30 373 O 40.9137 0.0372298 -2.2847 0
M  V30 374 C 41.1237 -3.32034 -1.07492 0
M  V30 375 C 42.4717 -3.98406 -1.46826 0
M  V30 376 O 43.4957 -3.36505 -1.16801 0
M  V30 377 O 42.3547 -5.07497 -2.02754 0
M  V30 378 H 39.4487 -0.754079 -0.33955 0
M  V30 379 H 41.9947 -1.69619 0.0524456 0
M  V30 380 H 40.7667 -3.90728 -0.211552 0
M  V30 381 H 40.3897 -3.50424 -1.87854 0
M  V30 382 N 41.3868 0.248026 -1.55636 0
M  V30 383 C 42.3168 1.31079 -1.93237 0
M  V30 384 C 43.2978 1.50264 -0.797174 0
M  V30 385 O 44.4828 1.62891 -1.05737 0
M  V30 386 C 41.6128 2.66575 -2.22609 0
M  V30 387 C 40.5668 2.62087 -3.3837 0
M  V30 388 C 39.8928 4.01369 -3.53281 0
M  V30 389 C 41.1928 2.19171 -4.7409 0
M  V30 390 H 42.8868 0.998556 -2.82257 0
M  V30 391 H 40.4328 0.47891 -1.35803 0
M  V30 392 H 42.3858 3.41057 -2.47503 0
M  V30 393 H 41.1098 2.99432 -1.30414 0
M  V30 394 H 39.7688 1.90063 -3.13483 0
M  V30 395 H 39.4168 4.31489 -2.58508 0
M  V30 396 H 39.1168 3.99254 -4.31127 0
M  V30 397 H 40.6408 4.77552 -3.80495 0
M  V30 398 H 42.0548 2.83384 -4.98363 0
M  V30 399 H 40.4518 2.2817 -5.5503 0
M  V30 400 H 41.5218 1.14336 -4.71227 0
M  V30 401 N 42.8649 1.48995 0.513639 0
M  V30 402 C 44.0899 1.61792 1.29762 0
M  V30 403 C 44.5149 0.284475 1.85936 0
M  V30 404 O 43.8729 -0.746185 1.65232 0
M  V30 405 C 43.9209 2.67993 2.41272 0
M  V30 406 O 43.0249 2.26287 3.44772 0
M  V30 407 H 42.3659 0.541963 0.38363 0
M  V30 408 H 44.8959 1.95097 0.616307 0
M  V30 409 H 44.9059 2.89772 2.87221 0
M  V30 410 H 43.5809 3.64791 1.9975 0
M  V30 411 H 42.1579 2.14788 3.04829 0
M  V30 412 N 44.343 -0.763751 1.37857 0
M  V30 413 C 45.591 -1.51957 1.33243 0
M  V30 414 C 45.912 -1.94835 -0.0801709 0
M  V30 415 O 45.182 -1.66894 -1.02582 0
M  V30 416 H 43.762 -0.563626 0.49024 0
M  V30 417 H 46.424 -0.908504 1.7243 0
M  V30 418 H 45.52 -2.41523 1.97669 0
M  V30 419 N 45.8211 -1.22559 -0.990812 0
M  V30 420 C 47.0511 -1.07623 -1.76355 0
M  V30 421 C 47.4591 0.37601 -1.85426 0
M  V30 422 O 46.8021 1.27228 -1.32509 0
M  V30 423 C 46.8641 -1.61507 -3.21179 0
M  V30 424 C 46.5281 -3.10146 -3.35646 0
M  V30 425 C 47.5251 -4.07553 -3.22796 0
M  V30 426 C 45.2101 -3.49644 -3.60631 0
M  V30 427 C 47.2041 -5.42442 -3.34716 0
M  V30 428 C 44.8911 -4.84682 -3.72192 0
M  V30 429 C 45.8891 -5.8089 -3.59243 0
M  V30 430 O 45.5771 -7.13476 -3.70415 0
M  V30 431 H 45.3091 -0.377745 -0.560611 0
M  V30 432 H 47.8631 -1.62658 -1.25425 0
M  V30 433 H 46.0931 -1.00881 -3.73309 0
M  V30 434 H 47.7821 -1.42202 -3.80175 0
M  V30 435 H 48.5481 -3.78381 -3.03403 0
M  V30 436 H 44.4271 -2.75282 -3.69785 0
M  V30 437 H 47.9711 -6.17518 -3.24526 0
M  V30 438 H 43.8681 -5.13534 -3.91092 0
M  V30 439 H 44.6361 -7.21083 -3.87275 0
M  V30 440 N 47.2992 1.18797 -1.03562 0
M  V30 441 C 48.5292 1.92319 -0.754773 0
M  V30 442 C 48.9372 1.7612 0.691248 0
M  V30 443 O 48.2802 1.08491 1.48241 0
M  V30 444 C 48.3422 3.44284 -1.03484 0
M  V30 445 C 48.0062 3.84258 -2.47376 0
M  V30 446 C 49.0032 3.88459 -3.45537 0
M  V30 447 C 46.6882 4.15701 -2.81954 0
M  V30 448 C 48.6822 4.23545 -4.76328 0
M  V30 449 C 46.3692 4.50458 -4.12954 0
M  V30 450 C 47.3672 4.54356 -5.09951 0
M  V30 451 O 47.0552 4.88305 -6.38603 0
M  V30 452 H 46.7872 0.617527 -0.275021 0
M  V30 453 H 49.3412 1.51683 -1.38497 0
M  V30 454 H 47.5712 3.85135 -0.347513 0
M  V30 455 H 49.2602 3.99049 -0.7426 0
M  V30 456 H 50.0262 3.6431 -3.20162 0
M  V30 457 H 45.9052 4.11847 -2.0713 0
M  V30 458 H 49.4492 4.26502 -5.52035 0
M  V30 459 H 45.3462 4.74067 -4.38099 0
M  V30 460 H 46.1142 5.06227 -6.43177 0
M  V30 461 N 48.7773 0.814389 1.34928 0
M  V30 462 C 49.7103 0.175641 2.27523 0
M  V30 463 C 50.6883 -0.662953 1.48471 0
M  V30 464 O 51.8723 -0.628545 1.77712 0
M  V30 465 C 48.9993 -0.755516 3.30166 0
M  V30 466 C 48.0453 0.00445305 4.265 0
M  V30 467 S 48.8783 1.34582 5.18313 0
M  V30 468 C 50.0343 0.419315 6.24494 0
M  V30 469 H 50.2673 0.960691 2.8135 0
M  V30 470 H 47.8003 0.609846 1.41846 0
M  V30 471 H 49.7583 -1.28723 3.89796 0
M  V30 472 H 48.4193 -1.51402 2.75202 0
M  V30 473 H 47.6123 -0.703077 4.99072 0
M  V30 474 H 47.2143 0.466447 3.7108 0
M  V30 475 H 49.5063 -0.392432 6.76362 0
M  V30 476 H 50.4493 1.11446 6.99275 0
M  V30 477 H 50.8573 0.0115389 5.64499 0
M  V30 478 N 50.2554 -1.46986 0.568584 0
M  V30 479 C 51.2034 -2.31858 -0.185649 0
M  V30 480 C 52.1974 -1.43624 -0.898249 0
M  V30 481 O 53.4034 -1.60327 -0.818242 0
M  V30 482 H 49.7784 -0.747866 -0.0787399 0
M  V30 483 H 51.7494 -2.93303 0.549191 0
M  V30 484 C 50.4984 -3.26513 -1.19519 0
M  V30 485 H 49.8214 -3.94377 -0.656285 0
M  V30 486 H 51.2614 -3.88707 -1.6936 0
M  V30 487 C 49.7204 -2.50847 -2.24894 0
M  V30 488 O 50.2504 -2.26119 -3.32014 0
M  V30 489 N 48.4564 -2.11656 -1.99124 0
M  V30 490 H 48.0034 -2.31966 -1.12024 0
M  V30 491 H 47.9614 -1.61347 -2.69842 0
M  V30 492 N 51.7335 -0.305618 -1.54608 0
M  V30 493 C 52.9795 0.295595 -2.01241 0
M  V30 494 C 53.3345 1.51171 -1.19018 0
M  V30 495 O 52.6275 1.89832 -0.259684 0
M  V30 496 C 52.8215 0.698983 -3.50498 0
M  V30 497 C 52.6505 -0.476491 -4.47168 0
M  V30 498 C 51.4205 -0.969963 -4.95903 0
M  V30 499 C 53.6185 -1.32294 -4.96994 0
M  V30 500 N 51.6005 -2.11172 -5.76437 0
M  V30 501 C 52.9715 -2.31212 -5.75275 0
M  V30 502 C 55.0265 -1.35278 -4.7917 0
M  V30 503 C 53.7295 -3.32896 -6.37631 0
M  V30 504 C 55.7555 -2.35823 -5.42348 0
M  V30 505 C 55.1175 -3.33469 -6.20466 0
M  V30 506 H 51.2165 0.0724992 -0.778632 0
M  V30 507 H 53.8005 -0.436583 -1.89742 0
M  V30 508 H 51.9715 1.40032 -3.62278 0
M  V30 509 H 53.7035 1.28013 -3.8392 0
M  V30 510 H 50.4585 -0.544178 -4.70463 0
M  V30 511 H 50.8825 -2.68714 -6.21387 0
M  V30 512 H 55.5245 -0.61157 -4.18354 0
M  V30 513 H 53.2425 -4.07933 -6.97579 0
M  V30 514 H 56.8285 -2.38911 -5.30484 0
M  V30 515 H 55.7085 -4.09996 -6.68485 0
M  V30 516 N 53.2116 1.57565 -0.0334293 0
M  V30 517 C 54.4576 1.92262 0.645226 0
M  V30 518 C 54.7906 0.910543 1.71531 0
M  V30 519 O 54.0656 -0.066099 1.94388 0
M  V30 520 C 54.3486 3.37422 1.2577 0
M  V30 521 C 54.2016 4.49369 0.196891 0
M  V30 522 C 55.5206 3.82628 2.17449 0
M  V30 523 H 52.6396 0.699171 0.233085 0
M  V30 524 H 55.2816 1.89779 -0.0915694 0
M  V30 525 H 53.4316 3.39669 1.88566 0
M  V30 526 H 55.1036 4.59254 -0.433962 0
M  V30 527 H 53.3466 4.31168 -0.477137 0
M  V30 528 H 54.0176 5.47978 0.665124 0
M  V30 529 H 56.4936 3.82145 1.64634 0
M  V30 530 H 55.3696 4.84883 2.57254 0
M  V30 531 H 55.6306 3.18376 3.0674 0
M  V30 532 N 54.6897 -0.239769 1.55765 0
M  V30 533 C 56.1057 -0.588624 1.48349 0
M  V30 534 C 56.3057 -1.88005 0.72502 0
M  V30 535 O 55.3617 -2.51186 0.257269 0
M  V30 536 C 56.6747 -0.68474 2.928 0
M  V30 537 C 58.2227 -0.77659 3.03213 0
M  V30 538 C 58.6977 -0.904207 4.48986 0
M  V30 539 N 60.1887 -0.968896 4.52953 0
M  V30 540 C 60.9237 -1.08703 5.63002 0
M  V30 541 N 60.4197 -1.17026 6.82845 0
M  V30 542 N 62.2127 -1.12074 5.50814 0
M  V30 543 H 54.3637 0.607911 2.03515 0
M  V30 544 H 56.6267 0.21083 0.924259 0
M  V30 545 H 56.3327 0.194284 3.51163 0
M  V30 546 H 56.2067 -1.55435 3.43686 0
M  V30 547 H 58.5937 -1.64606 2.44926 0
M  V30 548 H 58.6747 0.118315 2.55526 0
M  V30 549 H 58.3187 -0.0392633 5.07885 0
M  V30 550 H 58.2487 -1.81426 4.9436 0
M  V30 551 H 60.7397 -0.915633 3.6664 0
M  V30 552 H 61.0527 -1.25966 7.62465 0
M  V30 553 H 59.3977 -1.13971 6.85591 0
M  V30 554 H 62.5887 -1.05226 4.5612 0
M  V30 555 H 62.7617 -1.20936 6.36615 0
M  V30 556 N 56.1678 -1.49265 -0.50573 0
M  V30 557 C 57.0998 -1.617 -1.62437 0
M  V30 558 C 58.1128 -0.499924 -1.54934 0
M  V30 559 O 59.3018 -0.771785 -1.60953 0
M  V30 560 C 56.4018 -1.5533 -3.01207 0
M  V30 561 C 55.5748 -2.8249 -3.33943 0
M  V30 562 C 54.6338 -2.69238 -4.52103 0
M  V30 563 O 53.6598 -3.43167 -4.5412 0
M  V30 564 N 54.8618 -1.80468 -5.51735 0
M  V30 565 H 57.6268 -2.58177 -1.52199 0
M  V30 566 H 55.1878 -1.46294 -0.693511 0
M  V30 567 H 57.1798 -1.44125 -3.78167 0
M  V30 568 H 55.7498 -0.667297 -3.05395 0
M  V30 569 H 54.9698 -3.08081 -2.45926 0
M  V30 570 H 56.2578 -3.66802 -3.5261 0
M  V30 571 H 55.6558 -1.19653 -5.52901 0
M  V30 572 H 54.2128 -1.75188 -6.27816 0
M  V30 573 N 57.6459 0.756429 -1.3826 0
M  V30 574 C 58.6089 1.85176 -1.35065 0
M  V30 575 C 59.6089 1.58818 -0.251703 0
M  V30 576 O 60.7989 1.66615 -0.508433 0
M  V30 577 C 57.9309 3.22596 -1.10201 0
M  V30 578 H 59.1239 1.89417 -2.3251 0
M  V30 579 H 56.6769 0.95783 -1.23512 0
M  V30 580 H 57.4119 3.24025 -0.133504 0
M  V30 581 H 57.1969 3.43122 -1.89762 0
M  V30 582 H 58.6869 4.02673 -1.10654 0
M  V30 583 N 59.124 1.23083 0.984299 0
M  V30 584 C 60.535 1.05609 1.5396 0
M  V30 585 C 60.886 -0.377793 1.92528 0
M  V30 586 O 60.011 -1.26398 1.75649 0
M  V30 587 C 60.606 1.91087 2.7977 0
M  V30 588 C 59.165 1.77885 3.31713 0
M  V30 589 C 58.312 1.87028 2.04733 0
M  V30 590 H 61.263 1.36802 0.804419 0
M  V30 591 H 61.284 1.43336 3.5247 0
M  V30 592 H 60.796 2.9544 2.51668 0
M  V30 593 H 58.897 0.762995 3.64704 0
M  V30 594 H 59.01 2.61047 4.01735 0
M  V30 595 H 57.374 1.30565 2.18689 0
M  V30 596 H 58.157 2.92929 1.79017 0
M  V30 597 N 60.6021 -1.18246 1.0419 0
M  V30 598 C 61.8501 -1.87886 0.744543 0
M  V30 599 C 62.1711 -1.8082 -0.730006 0
M  V30 600 O 61.4411 -1.22736 -1.52685 0
M  V30 601 H 60.0211 -0.695556 0.272417 0
M  V30 602 H 62.6831 -1.43494 1.31892 0
M  V30 603 H 61.7791 -2.9389 1.05049 0
M  V30 604 N 62.0802 -0.821533 -1.34494 0
M  V30 605 C 63.0272 -0.240397 -2.29545 0
M  V30 606 C 63.9972 0.634031 -1.53523 0
M  V30 607 O 65.1822 0.575966 -1.81899 0
M  V30 608 C 62.3222 0.592869 -3.39969 0
M  V30 609 C 61.4352 -0.30365 -4.30932 0
M  V30 610 C 60.5702 0.539049 -5.28458 0
M  V30 611 C 59.6092 -0.356942 -6.11058 0
M  V30 612 N 58.7462 0.446603 -7.00678 0
M  V30 613 H 63.5862 -1.05632 -2.7865 0
M  V30 614 H 61.1232 -0.532413 -1.37127 0
M  V30 615 H 63.0812 1.09129 -4.02675 0
M  V30 616 H 61.7112 1.37392 -2.92102 0
M  V30 617 H 60.7632 -0.920276 -3.691 0
M  V30 618 H 62.0752 -0.992661 -4.88823 0
M  V30 619 H 61.2292 1.102 -5.96608 0
M  V30 620 H 59.9682 1.26157 -4.71101 0
M  V30 621 H 58.9732 -0.932047 -5.41842 0
M  V30 622 H 60.1982 -1.07755 -6.70497 0
M  V30 623 H 58.1442 1.15282 -6.45791 0
M  V30 624 H 58.0612 -0.184048 -7.55776 0
M  V30 625 H 59.3292 0.992352 -7.73158 0
M  V30 626 N 63.5583 1.46682 -0.576371 0
M  V30 627 C 64.8063 2.02013 -0.0594163 0
M  V30 628 C 65.1273 1.45101 1.30271 0
M  V30 629 O 64.3973 0.633317 1.8538 0
M  V30 630 H 62.9773 0.746759 -0.0189745 0
M  V30 631 H 65.6393 1.79862 -0.750717 0
M  V30 632 H 64.7353 3.12097 0.014345 0
M  V30 633 N 65.0364 0.313813 1.54444 0
M  V30 634 C 65.9664 -0.549454 2.26943 0
M  V30 635 C 66.9474 -1.12741 1.27372 0
M  V30 636 O 68.1324 -1.15436 1.56167 0
M  V30 637 C 65.2624 -1.71523 3.01989 0
M  V30 638 C 64.2164 -1.26703 4.08816 0
M  V30 639 C 63.5424 -2.51898 4.71647 0
M  V30 640 C 64.8424 -0.388962 5.2085 0
M  V30 641 H 66.5364 0.0552661 2.99349 0
M  V30 642 H 64.0824 0.0280207 1.43973 0
M  V30 643 H 66.0354 -2.32535 3.51433 0
M  V30 644 H 64.7594 -2.34639 2.27183 0
M  V30 645 H 63.4184 -0.679896 3.6024 0
M  V30 646 H 63.0664 -3.13356 3.93468 0
M  V30 647 H 62.7664 -2.22605 5.43802 0
M  V30 648 H 64.2904 -3.1369 5.23861 0
M  V30 649 H 65.7044 -0.905107 5.6611 0
M  V30 650 H 64.1014 -0.18924 5.99802 0
M  V30 651 H 65.1714 0.582699 4.81386 0
M  V30 652 N 66.5145 -1.57545 0.0417849 0
M  V30 653 C 67.4245 -2.14451 -0.951213 0
M  V30 654 C 68.4405 -1.09992 -1.34825 0
M  V30 655 O 69.6165 -1.42114 -1.42708 0
M  V30 656 C 66.6815 -2.67063 -2.21084 0
M  V30 657 C 65.7425 -3.86284 -1.87304 0
M  V30 658 C 64.9755 -4.36378 -3.07261 0
M  V30 659 O 65.1985 -3.85587 -4.20332 0
M  V30 660 O 64.1325 -5.28077 -2.88822 0
M  V30 661 H 67.9585 -2.99601 -0.497287 0
M  V30 662 H 65.5435 -1.48317 -0.179567 0
M  V30 663 H 67.4255 -3.00914 -2.95006 0
M  V30 664 H 66.1005 -1.84989 -2.65633 0
M  V30 665 H 65.0075 -3.57338 -1.10727 0
M  V30 666 H 66.3405 -4.6956 -1.47562 0
M  V30 667 N 67.9926 0.231505 -1.5589 0
M  V30 668 C 69.2386 0.954429 -1.79617 0
M  V30 669 C 69.5936 1.82367 -0.613199 0
M  V30 670 O 68.8866 1.87524 0.393094 0
M  V30 671 C 69.0806 1.83577 -3.0665 0
M  V30 672 C 68.9096 1.05334 -4.3719 0
M  V30 673 C 67.6796 0.75225 -4.99669 0
M  V30 674 C 69.8776 0.423444 -5.12554 0
M  V30 675 N 67.8596 -0.052627 -6.13877 0
M  V30 676 C 69.2306 -0.245287 -6.19515 0
M  V30 677 C 71.2856 0.335466 -4.96769 0
M  V30 678 C 69.9886 -0.993566 -7.12405 0
M  V30 679 C 72.0146 -0.399321 -5.9005 0
M  V30 680 C 71.3766 -1.05663 -6.9643 0
M  V30 681 H 67.4756 0.329846 -0.709031 0
M  V30 682 H 70.0596 0.226172 -1.93382 0
M  V30 683 H 68.2306 2.53592 -2.94186 0
M  V30 684 H 69.9626 2.49541 -3.18608 0
M  V30 685 H 66.7176 1.06783 -4.61405 0
M  V30 686 H 67.1416 -0.443609 -6.75545 0
M  V30 687 H 71.7836 0.829311 -4.14587 0
M  V30 688 H 69.5016 -1.49896 -7.94076 0
M  V30 689 H 73.0876 -0.468265 -5.79913 0
M  V30 690 H 71.9676 -1.61612 -7.67366 0
M  V30 691 N 69.4707 1.49531 0.497807 0
M  V30 692 C 70.7167 1.59415 1.25358 0
M  V30 693 C 71.0497 0.281422 1.9215 0
M  V30 694 O 70.3247 -0.715249 1.80871 0
M  V30 695 C 70.6077 2.75566 2.3181 0
M  V30 696 C 70.4607 4.16642 1.69498 0
M  V30 697 C 71.7797 2.87347 3.33346 0
M  V30 698 H 68.8987 0.580244 0.454408 0
M  V30 699 H 71.5407 1.81827 0.551262 0
M  V30 700 H 69.6907 2.56587 2.91711 0
M  V30 701 H 71.3627 4.47145 1.13399 0
M  V30 702 H 69.6057 4.22141 0.998978 0
M  V30 703 H 70.2767 4.93792 2.46725 0
M  V30 704 H 72.7527 3.04634 2.83438 0
M  V30 705 H 71.6287 3.70289 4.05188 0
M  V30 706 H 71.8897 1.96834 3.95865 0
M  V30 707 N 70.9488 -0.749086 1.3866 0
M  V30 708 C 72.1968 -1.50535 1.34847 0
M  V30 709 C 72.5178 -1.94909 -0.0595016 0
M  V30 710 O 71.7878 -1.67973 -1.00806 0
M  V30 711 H 70.3678 -0.558395 0.49619 0
M  V30 712 H 73.0298 -0.890165 1.73384 0
M  V30 713 H 72.1258 -2.39413 2.00219 0
M  V30 714 N 72.4269 -1.23603 -0.977757 0
M  V30 715 C 73.6729 -1.07129 -1.72195 0
M  V30 716 C 74.0059 0.390501 -1.90233 0
M  V30 717 O 73.2809 1.28902 -1.45653 0
M  V30 718 C 73.5639 -1.80031 -3.11867 0
M  V30 719 C 73.4169 -3.33899 -3.01383 0
M  V30 720 C 74.7359 -1.56492 -4.11337 0
M  V30 721 H 71.8549 -0.390571 -0.624999 0
M  V30 722 H 74.4969 -1.52142 -1.13811 0
M  V30 723 H 72.6469 -1.41768 -3.6171 0
M  V30 724 H 74.3189 -3.81699 -2.59043 0
M  V30 725 H 72.5619 -3.62796 -2.37827 0
M  V30 726 H 73.2329 -3.801 -4.00285 0
M  V30 727 H 75.7089 -1.89757 -3.70313 0
M  V30 728 H 74.5849 -2.09973 -5.07151 0
M  V30 729 H 74.8459 -0.500874 -4.39254 0
M  V30 730 N 73.905 1.17692 -1.04816 0
M  V30 731 C 75.154 1.87192 -0.751132 0
M  V30 732 C 75.467 1.8169 0.724441 0
M  V30 733 O 76.673 2.46625 1.13527 0
M  V30 734 C 75.129 3.35857 -1.29338 0
M  V30 735 C 74.737 3.4987 -2.79812 0
M  V30 736 C 76.481 4.10709 -1.07322 0
M  V30 737 C 74.388 4.92536 -3.27356 0
M  V30 738 H 73.318 0.701162 -0.277288 0
M  V30 739 H 75.969 1.32932 -1.26496 0
M  V30 740 H 74.351 3.89631 -0.707376 0
M  V30 741 H 75.525 3.06332 -3.44235 0
M  V30 742 H 73.84 2.88433 -3.00325 0
M  V30 743 H 76.437 5.15952 -1.4035 0
M  V30 744 H 76.78 4.16299 -0.0108001 0
M  V30 745 H 77.313 3.6313 -1.62423 0
M  V30 746 H 74.052 4.92119 -4.33012 0
M  V30 747 H 73.572 5.3676 -2.67673 0
M  V30 748 H 75.251 5.61288 -3.21815 0
M  V30 749 N 75.3831 0.828654 1.34056 0
M  V30 750 C 76.6311 0.41863 1.97717 0
M  V30 751 C 76.9521 -1.02314 1.66002 0
M  V30 752 O 76.2221 -1.71119 0.953683 0
M  V30 753 H 74.8021 0.151809 0.731412 0
M  V30 754 H 77.4641 1.05936 1.63596 0
M  V30 755 H 76.5601 0.542318 3.07352 0
M  V30 756 N 76.8612 -1.46375 0.584142 0
M  V30 757 C 78.1102 -2.01585 0.0679741 0
M  V30 758 C 78.4232 -1.46109 -1.30045 0
M  V30 759 O 79.6292 -1.93148 -1.90804 0
M  V30 760 C 78.0852 -3.5983 0.0709207 0
M  V30 761 C 77.6932 -4.24303 1.43775 0
M  V30 762 C 79.4372 -4.22693 -0.391228 0
M  V30 763 C 77.3442 -5.74631 1.39834 0
M  V30 764 H 76.2742 -0.753689 0.0216421 0
M  V30 765 H 78.9252 -1.68093 0.736001 0
M  V30 766 H 77.3072 -3.90405 -0.663299 0
M  V30 767 H 78.4812 -4.05335 2.19181 0
M  V30 768 H 76.7962 -3.73539 1.84004 0
M  V30 769 H 79.3932 -5.3289 -0.439524 0
M  V30 770 H 79.7362 -3.91728 -1.40906 0
M  V30 771 H 80.2692 -3.96749 0.288974 0
M  V30 772 H 77.0082 -6.10258 2.39303 0
M  V30 773 H 76.5282 -5.95858 0.686505 0
M  V30 774 H 78.2072 -6.37375 1.11187 0
M  V30 775 N 78.3393 -0.321999 -1.54275 0
M  V30 776 C 79.2873 0.560206 -2.25753 0
M  V30 777 C 80.2813 1.11984 -1.27106 0
M  V30 778 O 81.4873 1.06806 -1.44888 0
M  V30 779 H 77.8623 0.199304 -0.725108 0
M  V30 780 H 79.8333 -0.0649365 -2.98329 0
M  V30 781 C 78.5823 1.71023 -3.02731 0
M  V30 782 H 77.9053 1.28885 -3.78456 0
M  V30 783 H 79.3453 2.30314 -3.55993 0
M  V30 784 C 77.8043 2.62692 -2.10938 0
M  V30 785 O 78.3343 3.64364 -1.6912 0
M  V30 786 N 76.5403 2.30891 -1.76459 0
M  V30 787 H 76.0873 1.48253 -2.10663 0
M  V30 788 H 76.0453 2.92487 -1.1532 0
M  V30 789 N 79.8174 1.5752 -0.0501392 0
M  V30 790 C 81.0654 1.9227 0.622642 0
M  V30 791 C 81.3864 0.929083 1.71444 0
M  V30 792 O 80.6564 -0.0262186 1.95882 0
M  V30 793 H 79.2364 0.709739 0.232981 0
M  V30 794 H 81.8984 1.94628 -0.102898 0
M  V30 795 H 80.9944 2.93479 1.06191 0
M  V30 796 N 81.2955 -0.223234 1.56011 0
M  V30 797 C 82.2585 -1.26014 1.9145 0
M  V30 798 C 83.2585 -1.3989 0.792937 0
M  V30 799 O 84.4485 -1.38184 1.0607 0
M  V30 800 C 81.5805 -2.63422 2.16383 0
M  V30 801 H 82.7735 -0.95796 2.84189 0
M  V30 802 H 80.3265 -0.463576 1.49267 0
M  V30 803 H 81.0615 -2.98741 1.2619 0
M  V30 804 H 80.8465 -2.54728 2.98088 0
M  V30 805 H 82.3365 -3.38249 2.44903 0
M  V30 806 N 82.7736 -1.49793 -0.48987 0
M  V30 807 C 84.0016 -1.63568 -1.26701 0
M  V30 808 C 84.4166 -0.311465 -1.86213 0
M  V30 809 O 83.7736 0.704416 -1.68357 0
M  V30 810 C 83.8246 -2.71284 -2.38929 0
M  V30 811 O 83.5456 -3.9857 -1.81861 0
M  V30 812 C 85.0466 -2.95864 -3.3012 0
M  V30 813 H 82.2666 -0.550342 -0.383881 0
M  V30 814 H 84.8106 -1.95898 -0.586864 0
M  V30 815 H 82.9656 -2.417 -3.02753 0
M  V30 816 H 83.3796 -4.57993 -2.55622 0
M  V30 817 H 84.8536 -3.74941 -4.05121 0
M  V30 818 H 85.3306 -2.06206 -3.87783 0
M  V30 819 H 85.9366 -3.26907 -2.72051 0
M  V30 820 N 84.2517 0.741722 -1.39055 0
M  V30 821 C 85.4817 1.52876 -1.3897 0
M  V30 822 C 85.8897 1.8919 0.0193266 0
M  V30 823 O 85.2327 1.54138 0.999356 0
M  V30 824 C 85.2947 2.84929 -2.19216 0
M  V30 825 C 84.9587 2.71086 -3.67915 0
M  V30 826 C 85.9557 2.40084 -4.61146 0
M  V30 827 C 83.6407 2.88168 -4.11418 0
M  V30 828 C 85.6347 2.26335 -5.95862 0
M  V30 829 C 83.3217 2.74037 -5.46211 0
M  V30 830 C 84.3197 2.43166 -6.38247 0
M  V30 831 O 84.0077 2.29115 -7.70559 0
M  V30 832 H 83.7397 0.479252 -0.476753 0
M  V30 833 H 86.2937 0.924751 -1.83405 0
M  V30 834 H 84.5237 3.47564 -1.69518 0
M  V30 835 H 86.2127 3.46509 -2.11392 0
M  V30 836 H 86.9787 2.26545 -4.28838 0
M  V30 837 H 82.8577 3.11191 -3.40119 0
M  V30 838 H 86.4017 2.0216 -6.67665 0
M  V30 839 H 82.2987 2.87153 -5.78112 0
M  V30 840 H 83.0667 2.44237 -7.81211 0
M  V30 841 N 85.7298 1.2412 0.971189 0
M  V30 842 C 86.9598 1.10415 1.7462 0
M  V30 843 C 87.3678 -0.346462 1.86001 0
M  V30 844 O 86.7108 -1.25104 1.34517 0
M  V30 845 C 86.7728 1.66596 3.18568 0
M  V30 846 C 86.4368 3.15446 3.3067 0
M  V30 847 C 87.4338 4.12636 3.16271 0
M  V30 848 C 85.1188 3.55337 3.55022 0
M  V30 849 C 87.1128 5.47699 3.26044 0
M  V30 850 C 84.7998 4.90542 3.64434 0
M  V30 851 C 85.7978 5.86532 3.49956 0
M  V30 852 O 85.4858 7.19279 3.59017 0
M  V30 853 H 85.2178 0.386616 0.55453 0
M  V30 854 H 87.7718 1.64633 1.22821 0
M  V30 855 H 86.0018 1.06808 3.71657 0
M  V30 856 H 87.6908 1.48232 3.77865 0
M  V30 857 H 88.4568 3.8316 2.97344 0
M  V30 858 H 84.3358 2.8113 3.65359 0
M  V30 859 H 87.8798 6.22603 3.14661 0
M  V30 860 H 83.7768 5.19691 3.82873 0
M  V30 861 H 84.5448 7.27153 3.75754 0
M  V30 862 N 87.2079 -1.17134 1.05439 0
M  V30 863 C 88.1709 -2.19439 0.661764 0
M  V30 864 C 89.1709 -1.58199 -0.288042 0
M  V30 865 O 90.3609 -1.74053 -0.0715803 0
M  V30 866 C 87.4929 -3.40889 -0.0276209 0
M  V30 867 H 88.6859 -2.55688 1.56728 0
M  V30 868 H 86.2389 -1.31259 0.848567 0
M  V30 869 H 86.9739 -3.10187 -0.94629 0
M  V30 870 H 86.7589 -3.86586 0.655238 0
M  V30 871 H 88.2489 -4.16603 -0.288342 0
M  V30 872 N 88.686 -0.835752 -1.33615 0
M  V30 873 C 89.911 -0.442389 -2.02627 0
M  V30 874 C 90.336 0.947735 -1.62479 0
M  V30 875 O 89.694 1.61907 -0.815826 0
M  V30 876 C 89.742 -0.567216 -3.56111 0
M  V30 877 O 88.846 0.407799 -4.10379 0
M  V30 878 H 88.187 -0.180278 -0.639059 0
M  V30 879 H 90.717 -1.12972 -1.70583 0
M  V30 880 H 90.727 -0.447708 -4.05536 0
M  V30 881 H 89.402 -1.58103 -3.84677 0
M  V30 882 H 87.979 0.246107 -3.72087 0
M  V30 883 N 90.1641 1.46063 -0.591896 0
M  V30 884 C 91.4101 2.03203 -0.0894879 0
M  V30 885 C 91.7651 1.45407 1.25994 0
M  V30 886 O 91.0581 0.61326 1.8152 0
M  V30 887 C 91.2521 3.57391 0.0249813 0
M  V30 888 C 91.0811 4.30142 -1.3118 0
M  V30 889 C 89.8511 4.68688 -1.88838 0
M  V30 890 C 92.0491 4.63098 -2.23708 0
M  V30 891 N 90.0311 5.26228 -3.1616 0
M  V30 892 C 91.4021 5.21305 -3.3562 0
M  V30 893 C 93.4571 4.45031 -2.23274 0
M  V30 894 C 92.1601 5.63351 -4.47245 0
M  V30 895 C 94.1861 4.881 -3.33935 0
M  V30 896 C 93.5481 5.46386 -4.44569 0
M  V30 897 H 89.6471 0.778323 -0.0757431 0
M  V30 898 H 92.2311 1.78094 -0.78681 0
M  V30 899 H 90.4021 3.82195 0.69149 0
M  V30 900 H 92.1341 4.0118 0.532613 0
M  V30 901 H 88.8891 4.5174 -1.42223 0
M  V30 902 H 89.3131 5.59512 -3.8115 0
M  V30 903 H 93.9551 3.99295 -1.39008 0
M  V30 904 H 91.6731 6.08061 -5.32247 0
M  V30 905 H 95.2591 4.75866 -3.34728 0
M  V30 906 H 94.1391 5.79102 -5.28782 0
M  V30 907 N 91.6422 0.330177 1.54103 0
M  V30 908 C 92.6052 -0.520144 2.2322 0
M  V30 909 C 93.6052 -1.03828 1.22786 0
M  V30 910 O 94.7952 -0.929652 1.4732 0
M  V30 911 C 91.9272 -1.72317 2.94142 0
M  V30 912 H 93.1202 0.0841605 2.99782 0
M  V30 913 H 90.6732 0.0813433 1.56088 0
M  V30 914 H 91.4082 -2.36653 2.21734 0
M  V30 915 H 91.1932 -1.35898 3.67796 0
M  V30 916 H 92.6832 -2.3266 3.46784 0
M  V30 917 N 93.1203 -1.57491 0.0584922 0
M  V30 918 C 94.0673 -2.11958 -0.913376 0
M  V30 919 C 95.0373 -1.02875 -1.30407 0
M  V30 920 O 96.2223 -1.30464 -1.39226 0
M  V30 921 C 93.3623 -2.67497 -2.18035 0
M  V30 922 C 92.4753 -3.90691 -1.84349 0
M  V30 923 C 91.6103 -4.3452 -3.05559 0
M  V30 924 C 90.6493 -5.50395 -2.67827 0
M  V30 925 N 89.7863 -5.89244 -3.81754 0
M  V30 926 H 94.6263 -2.94704 -0.442017 0
M  V30 927 H 92.1633 -1.45643 -0.206545 0
M  V30 928 H 94.1213 -2.978 -2.92183 0
M  V30 929 H 92.7513 -1.87537 -2.62735 0
M  V30 930 H 91.8033 -3.66934 -1.00319 0
M  V30 931 H 93.1153 -4.7489 -1.5258 0
M  V30 932 H 92.2693 -4.66414 -3.87998 0
M  V30 933 H 91.0083 -3.49147 -3.40511 0
M  V30 934 H 90.0133 -5.18165 -1.83806 0
M  V30 935 H 91.2383 -6.3749 -2.34059 0
M  V30 936 H 89.1843 -5.06823 -4.16493 0
M  V30 937 H 89.1013 -6.68151 -3.53708 0
M  V30 938 H 90.3693 -6.25756 -4.64811 0
M  V30 939 N 94.5984 0.214957 -1.56127 0
M  V30 940 C 95.8464 0.936518 -1.79091 0
M  V30 941 C 96.1674 1.84606 -0.628148 0
M  V30 942 O 95.4374 1.92664 0.35462 0
M  V30 943 H 94.0174 0.3488 -0.660566 0
M  V30 944 H 96.6794 0.22523 -1.93594 0
M  V30 945 H 95.7754 1.53943 -2.71492 0
M  V30 946 N 96.0765 1.50051 0.48192 0
M  V30 947 C 97.4925 1.37237 0.814756 0
M  V30 948 C 97.6925 0.420109 1.97072 0
M  V30 949 O 96.7485 -0.141246 2.52105 0
M  V30 950 C 98.0615 2.78375 1.13701 0
M  V30 951 C 99.6095 2.87213 1.2441 0
M  V30 952 C 100.084 4.29161 1.59954 0
M  V30 953 N 101.575 4.32061 1.66967 0
M  V30 954 C 102.31 5.38879 1.95952 0
M  V30 955 N 101.806 6.55918 2.23031 0
M  V30 956 N 103.599 5.26312 1.97363 0
M  V30 957 H 95.7505 2.10546 -0.28005 0
M  V30 958 H 98.0135 0.945921 -0.0627454 0
M  V30 959 H 97.7195 3.49845 0.360787 0
M  V30 960 H 97.5935 3.14941 2.07586 0
M  V30 961 H 99.9805 2.15969 2.01101 0
M  V30 962 H 100.061 2.54204 0.285299 0
M  V30 963 H 99.7055 5.00938 0.838067 0
M  V30 964 H 99.6355 4.59648 2.56966 0
M  V30 965 H 102.126 3.47661 1.48123 0
M  V30 966 H 102.439 7.33139 2.44391 0
M  V30 967 H 100.784 6.59112 2.20447 0
M  V30 968 H 103.975 4.33876 1.75697 0
M  V30 969 H 104.148 6.09649 2.19618 0
M  V30 970 N 97.5546 -0.734337 1.39446 0
M  V30 971 C 98.8016 -1.49391 1.36706 0
M  V30 972 C 99.1296 -1.94465 -0.0367813 0
M  V30 973 O 98.3846 -1.67154 -1.01774 0
M  V30 974 C 98.6836 -2.74711 2.28623 0
M  V30 975 C 98.3496 -2.48501 3.76242 0
M  V30 976 C 97.0116 -2.41062 4.16464 0
M  V30 977 C 99.3636 -2.26098 4.69606 0
M  V30 978 C 96.6916 -2.09262 5.48112 0
M  V30 979 C 99.0436 -1.95814 6.01531 0
M  V30 980 C 97.7076 -1.86845 6.40816 0
M  V30 981 H 96.9776 -0.546661 0.500243 0
M  V30 982 H 99.6246 -0.842788 1.71957 0
M  V30 983 H 97.9296 -3.44569 1.86492 0
M  V30 984 H 99.6266 -3.32741 2.23796 0
M  V30 985 H 96.2166 -2.55169 3.44364 0
M  V30 986 H 100.401 -2.30812 4.39363 0
M  V30 987 H 95.6566 -2.00841 5.77471 0
M  V30 988 H 99.8306 -1.77488 6.73403 0
M  V30 989 H 97.4576 -1.6197 7.42745 0
M  V30 990 N 99.0327 -1.24633 -0.964593 0
M  V30 991 C 100.261 -1.11501 -1.74285 0
M  V30 992 C 100.676 0.332165 -1.85855 0
M  V30 993 O 100.033 1.22903 -1.34911 0
M  V30 994 C 100.084 -1.75258 -3.16175 0
M  V30 995 O 99.8047 -3.14318 -3.05182 0
M  V30 996 C 101.306 -1.67776 -4.10324 0
M  V30 997 H 98.5257 -0.389407 -0.546446 0
M  V30 998 H 101.07 -1.64801 -1.21083 0
M  V30 999 H 99.2247 -1.25954 -3.66353 0
M  V30 1000 H 99.6387 -3.4551 -3.94618 0
M  V30 1001 H 101.113 -2.17064 -5.0753 0
M  V30 1002 H 101.59 -0.639584 -4.34518 0
M  V30 1003 H 102.196 -2.16522 -3.66058 0
M  V30 1004 N 100.511 1.16574 -1.06058 0
M  V30 1005 C 101.76 1.86385 -0.770944 0
M  V30 1006 C 102.073 1.82448 0.705129 0
M  V30 1007 O 103.279 2.47815 1.10905 0
M  V30 1008 C 101.735 3.34466 -1.32893 0
M  V30 1009 C 101.343 3.46883 -2.83507 0
M  V30 1010 C 103.087 4.09548 -1.11672 0
M  V30 1011 C 100.994 4.89036 -3.32562 0
M  V30 1012 H 99.9238 0.698181 -0.284709 0
M  V30 1013 H 102.575 1.31583 -1.27899 0
M  V30 1014 H 100.957 3.88859 -0.748662 0
M  V30 1015 H 102.131 3.02663 -3.47465 0
M  V30 1016 H 100.446 2.85232 -3.03368 0
M  V30 1017 H 103.043 5.14434 -1.45814 0
M  V30 1018 H 103.386 4.16264 -0.0549535 0
M  V30 1019 H 103.919 3.61387 -1.66265 0
M  V30 1020 H 100.658 4.87499 -4.38207 0
M  V30 1021 H 100.178 5.3389 -2.73351 0
M  V30 1022 H 101.857 5.57843 -3.2775 0
M  V30 1023 N 101.989 0.842826 1.3317 0
M  V30 1024 C 103.214 0.453129 2.02389 0
M  V30 1025 C 103.639 -0.939105 1.6298 0
M  V30 1026 O 102.997 -1.61472 0.8244 0
M  V30 1027 C 103.045 0.586094 3.55805 0
M  V30 1028 O 102.149 -0.386029 4.10589 0
M  V30 1029 H 101.49 0.183664 0.638094 0
M  V30 1030 H 104.02 1.13875 1.69981 0
M  V30 1031 H 104.03 0.469209 4.05293 0
M  V30 1032 H 102.705 1.6014 3.83833 0
M  V30 1033 H 101.282 -0.226371 3.72212 0
M  V30 1034 N 103.467 -1.45747 0.599634 0
M  V30 1035 C 104.883 -1.57424 0.26264 0
M  V30 1036 C 105.083 -1.59222 -1.23493 0
M  V30 1037 O 104.139 -1.51825 -2.01756 0
M  V30 1038 C 105.452 -2.86061 0.926795 0
M  V30 1039 C 107 -2.99722 0.901967 0
M  V30 1040 C 107.475 -4.31119 1.54598 0
M  V30 1041 N 108.966 -4.37858 1.5111 0
M  V30 1042 C 109.701 -5.3818 1.97863 0
M  V30 1043 N 109.197 -6.45083 2.52666 0
M  V30 1044 N 110.99 -5.29487 1.88679 0
M  V30 1045 H 103.141 -1.42823 1.57211 0
M  V30 1046 H 105.404 -0.68235 0.658105 0
M  V30 1047 H 105.11 -2.90605 1.98095 0
M  V30 1048 H 104.984 -3.74563 0.445238 0
M  V30 1049 H 107.371 -2.9475 -0.143617 0
M  V30 1050 H 107.452 -2.12652 1.42171 0
M  V30 1051 H 107.096 -4.36849 2.59085 0
M  V30 1052 H 107.026 -5.16992 1.00132 0
M  V30 1053 H 109.517 -3.61209 1.11068 0
M  V30 1054 H 109.83 -7.17869 2.86155 0
M  V30 1055 H 108.175 -6.45856 2.56701 0
M  V30 1056 H 111.366 -4.44877 1.4561 0
M  V30 1057 H 111.539 -6.07524 2.25429 0
M  V30 1058 N 104.945 -0.338344 -1.53925 0
M  V30 1059 C 106.222 0.314774 -1.93051 0
M  V30 1060 C 106.602 1.68669 -1.26941 0
M  V30 1061 O 105.95 2.24636 -0.418445 0
M  V30 1062 C 106.16 0.392249 -3.46789 0
M  V30 1063 C 107.508 0.645554 -4.19664 0
M  V30 1064 O 108.532 0.474575 -3.53024 0
M  V30 1065 O 107.391 0.976408 -5.37707 0
M  V30 1066 H 104.485 0.182598 -0.80659 0
M  V30 1067 H 107.031 -0.389141 -1.65178 0
M  V30 1068 H 105.803 -0.570702 -3.87116 0
M  V30 1069 H 105.426 1.14316 -3.80812 0
M  V30 1070 N 106.423 1.57458 -0.0668435 0
M  V30 1071 C 107.371 2.13639 0.919851 0
M  V30 1072 C 108.365 1.07204 1.31163 0
M  V30 1073 O 109.571 1.25591 1.28945 0
M  V30 1074 H 105.946 0.683048 0.314562 0
M  V30 1075 H 107.917 2.95415 0.421047 0
M  V30 1076 C 106.666 2.70892 2.17975 0
M  V30 1077 H 105.989 3.5246 1.88711 0
M  V30 1078 H 107.429 3.13803 2.85138 0
M  V30 1079 C 105.888 1.65414 2.93496 0
M  V30 1080 O 106.418 1.07619 3.87015 0
M  V30 1081 N 104.624 1.36564 2.56512 0
M  V30 1082 H 104.171 1.83751 1.80536 0
M  V30 1083 H 104.129 0.66223 3.07347 0
M  V30 1084 N 107.901 -0.206675 1.56239 0
M  V30 1085 C 109.126 -0.949474 1.8439 0
M  V30 1086 C 109.551 -1.76549 0.649016 0
M  V30 1087 O 108.909 -1.76782 -0.402231 0
M  V30 1088 C 108.957 -1.83078 3.10668 0
M  V30 1089 O 108.061 -2.9281 2.90407 0
M  V30 1090 H 107.402 -0.268033 0.607499 0
M  V30 1091 H 109.932 -0.215488 2.03462 0
M  V30 1092 H 109.942 -2.2377 3.41161 0
M  V30 1093 H 108.617 -1.23112 3.97261 0
M  V30 1094 H 107.194 -2.55956 2.71184 0
M  V30 1095 N 109.379 -1.50304 -0.473955 0
M  V30 1096 C 110.326 -1.68959 -1.57231 0
M  V30 1097 C 111.296 -0.530899 -1.57387 0
M  V30 1098 O 112.481 -0.761133 -1.74961 0
M  V30 1099 C 109.621 -1.7871 -2.95223 0
M  V30 1100 C 108.734 -3.06061 -3.04878 0
M  V30 1101 C 107.869 -3.06626 -4.33767 0
M  V30 1102 C 106.908 -4.28443 -4.37154 0
M  V30 1103 N 106.045 -4.26763 -5.5751 0
M  V30 1104 H 110.885 -2.6273 -1.40631 0
M  V30 1105 H 108.422 -1.30241 -0.683789 0
M  V30 1106 H 110.38 -1.82344 -3.75242 0
M  V30 1107 H 109.01 -0.883806 -3.10465 0
M  V30 1108 H 108.062 -3.11911 -2.17751 0
M  V30 1109 H 109.374 -3.96039 -3.0324 0
M  V30 1110 H 108.528 -3.08973 -5.22131 0
M  V30 1111 H 107.267 -2.14473 -4.3801 0
M  V30 1112 H 106.272 -4.2631 -3.47188 0
M  V30 1113 H 107.497 -5.2182 -4.34605 0
M  V30 1114 H 105.443 -3.37462 -5.62544 0
M  V30 1115 H 105.36 -5.10507 -5.57601 0
M  V30 1116 H 106.628 -4.33253 -6.48006 0
M  V30 1117 N 110.857 0.726932 -1.39834 0
M  V30 1118 C 112.085 1.51613 -1.40787 0
M  V30 1119 C 112.5 1.88799 -0.00451505 0
M  V30 1120 O 111.857 1.54662 0.968809 0
M  V30 1121 C 111.908 2.79863 -2.28821 0
M  V30 1122 O 111.629 2.44253 -3.63692 0
M  V30 1123 C 113.13 3.73837 -2.38245 0
M  V30 1124 H 110.35 0.468264 -0.480593 0
M  V30 1125 H 112.894 0.897607 -1.83748 0
M  V30 1126 H 111.049 3.38027 -1.89252 0
M  V30 1127 H 111.463 3.26695 -4.1033 0
M  V30 1128 H 112.937 4.60699 -3.04073 0
M  V30 1129 H 113.414 4.16153 -1.40403 0
M  V30 1130 H 114.02 3.21589 -2.78317 0
M  V30 1131 N 112.336 1.25143 0.95797 0
M  V30 1132 C 113.564 1.12424 1.73691 0
M  V30 1133 C 113.979 -0.322304 1.86029 0
M  V30 1134 O 113.336 -1.22186 1.35561 0
M  V30 1135 C 113.387 1.76933 3.15241 0
M  V30 1136 O 113.108 3.15932 3.03511 0
M  V30 1137 C 114.609 1.6995 4.09429 0
M  V30 1138 H 111.829 0.3923 0.544373 0
M  V30 1139 H 114.373 1.6544 1.20207 0
M  V30 1140 H 112.528 1.27895 3.6568 0
M  V30 1141 H 112.942 3.47598 3.9278 0
M  V30 1142 H 114.416 2.19753 5.06372 0
M  V30 1143 H 114.893 0.662619 4.34173 0
M  V30 1144 H 115.499 2.18461 3.64904 0
M  V30 1145 N 113.814 -1.1601 1.06675 0
M  V30 1146 C 115.06 -1.86909 0.786945 0
M  V30 1147 C 115.393 -1.81717 -0.685018 0
M  V30 1148 O 114.668 -1.23551 -1.50218 0
M  V30 1149 C 114.951 -3.36313 1.28707 0
M  V30 1150 C 114.804 -3.50175 2.82308 0
M  V30 1151 C 116.123 -4.3084 0.898071 0
M  V30 1152 H 113.242 -0.678677 0.287343 0
M  V30 1153 H 115.884 -1.36336 1.32334 0
M  V30 1154 H 114.034 -3.79513 0.830768 0
M  V30 1155 H 115.706 -3.15886 3.36175 0
M  V30 1156 H 113.949 -2.91959 3.20847 0
M  V30 1157 H 114.62 -4.55116 3.12368 0
M  V30 1158 H 117.096 -3.95561 1.29114 0
M  V30 1159 H 115.972 -5.33876 1.27543 0
M  V30 1160 H 116.233 -4.41662 -0.196651 0
M  V30 1161 N 115.292 -0.849877 -1.32721 0
M  V30 1162 C 116.522 -0.46408 -2.0132 0
M  V30 1163 C 116.93 0.94246 -1.64056 0
M  V30 1164 O 116.273 1.6257 -0.855379 0
M  V30 1165 C 116.335 -0.517887 -3.5575 0
M  V30 1166 C 115.999 -1.88248 -4.16427 0
M  V30 1167 C 116.996 -2.84726 -4.35002 0
M  V30 1168 C 114.681 -2.17832 -4.52609 0
M  V30 1169 C 116.675 -4.08945 -4.8892 0
M  V30 1170 C 114.362 -3.42304 -5.06232 0
M  V30 1171 C 115.36 -4.37677 -5.24335 0
M  V30 1172 O 115.048 -5.59946 -5.76815 0
M  V30 1173 H 114.78 -0.181327 -0.651227 0
M  V30 1174 H 117.334 -1.14713 -1.70382 0
M  V30 1175 H 115.564 0.221997 -3.86062 0
M  V30 1176 H 117.253 -0.148366 -4.05629 0
M  V30 1177 H 118.019 -2.63174 -4.07388 0
M  V30 1178 H 113.898 -1.44385 -4.37806 0
M  V30 1179 H 117.442 -4.83396 -5.02966 0
M  V30 1180 H 113.339 -3.63709 -5.33278 0
M  V30 1181 H 114.107 -5.61838 -5.95214 0
M  V30 1182 N 116.77 1.45427 -0.607355 0
M  V30 1183 C 117.7 2.3329 0.0989352 0
M  V30 1184 C 118.681 1.46816 0.859007 0
M  V30 1185 O 119.866 1.75588 0.829604 0
M  V30 1186 C 116.996 3.29518 1.09705 0
M  V30 1187 C 115.95 4.25626 0.450206 0
M  V30 1188 C 115.276 5.11542 1.55655 0
M  V30 1189 C 116.576 5.18505 -0.628455 0
M  V30 1190 H 118.27 2.92595 -0.634716 0
M  V30 1191 H 115.816 1.40696 -0.306681 0
M  V30 1192 H 117.769 3.89855 1.59971 0
M  V30 1193 H 116.493 2.68372 1.86129 0
M  V30 1194 H 115.152 3.66586 -0.0315886 0
M  V30 1195 H 114.8 4.46765 2.31107 0
M  V30 1196 H 114.5 5.76647 1.12925 0
M  V30 1197 H 116.024 5.74748 2.06148 0
M  V30 1198 H 117.438 5.72916 -0.209877 0
M  V30 1199 H 115.835 5.92085 -0.977489 0
M  V30 1200 H 116.905 4.60948 -1.50514 0
M  V30 1201 N 118.248 0.346503 1.53744 0
M  V30 1202 C 119.18 -0.543316 2.22667 0
M  V30 1203 C 120.193 -1.06159 1.23427 0
M  V30 1204 O 121.382 -0.971235 1.49764 0
M  V30 1205 C 118.482 -1.76076 2.89569 0
M  V30 1206 C 117.655 -1.37727 4.15151 0
M  V30 1207 C 116.714 -2.45471 4.65436 0
M  V30 1208 O 115.74 -2.08655 5.29577 0
M  V30 1209 N 116.942 -3.7677 4.41616 0
M  V30 1210 H 119.707 0.0469703 2.99663 0
M  V30 1211 H 117.268 0.170766 1.60997 0
M  V30 1212 H 119.26 -2.47593 3.20125 0
M  V30 1213 H 117.83 -2.25835 2.16142 0
M  V30 1214 H 117.05 -0.492746 3.91108 0
M  V30 1215 H 118.338 -1.09708 4.96832 0
M  V30 1216 H 117.736 -4.09467 3.90325 0
M  V30 1217 H 116.293 -4.44448 4.7677 0
M  V30 1218 N 119.726 -1.57421 0.075193 0
M  V30 1219 C 120.659 -2.08528 -0.926904 0
M  V30 1220 C 121.637 -0.991171 -1.28898 0
M  V30 1221 O 122.821 -1.26479 -1.39769 0
M  V30 1222 C 119.948 -2.54576 -2.23402 0
M  V30 1223 C 118.994 -3.75454 -2.02327 0
M  V30 1224 S 119.827 -5.19989 -1.27951 0
M  V30 1225 C 120.983 -5.69372 -2.59935 0
M  V30 1226 H 121.216 -2.932 -0.492048 0
M  V30 1227 H 118.749 -1.53785 -0.137651 0
M  V30 1228 H 120.707 -2.81767 -2.98526 0
M  V30 1229 H 119.368 -1.70166 -2.64012 0
M  V30 1230 H 118.561 -4.05675 -2.99071 0
M  V30 1231 H 118.163 -3.48654 -1.35339 0
M  V30 1232 H 120.455 -5.76424 -3.56008 0
M  V30 1233 H 121.398 -6.68207 -2.34319 0
M  V30 1234 H 121.806 -4.97205 -2.67296 0
M  V30 1235 N 121.204 0.198386 -1.56346 0
M  V30 1236 C 122.152 1.26538 -1.95169 0
M  V30 1237 C 123.146 1.47295 -0.836685 0
M  V30 1238 O 124.352 1.48195 -1.02167 0
M  V30 1239 H 120.727 0.424744 -0.620561 0
M  V30 1240 H 122.698 0.910904 -2.84157 0
M  V30 1241 C 121.447 2.6035 -2.30463 0
M  V30 1242 H 120.77 2.45192 -3.15786 0
M  V30 1243 H 122.21 3.33762 -2.61494 0
M  V30 1244 C 120.669 3.17096 -1.13806 0
M  V30 1245 O 121.199 3.99588 -0.41135 0
M  V30 1246 N 119.405 2.75795 -0.915736 0
M  V30 1247 H 118.952 2.08816 -1.50843 0
M  V30 1248 H 118.91 3.14101 -0.136979 0
M  V30 1249 N 122.682 1.50554 0.465978 0
M  V30 1250 C 123.907 1.65838 1.24549 0
M  V30 1251 C 124.332 0.343486 1.84937 0
M  V30 1252 O 123.69 -0.69324 1.67523 0
M  V30 1253 C 123.738 2.75533 2.32624 0
M  V30 1254 O 122.842 2.37142 3.37398 0
M  V30 1255 H 122.183 0.553893 0.366194 0
M  V30 1256 H 124.713 1.96959 0.553927 0
M  V30 1257 H 124.723 2.98763 2.77857 0
M  V30 1258 H 123.398 3.70962 1.88043 0
M  V30 1259 H 121.975 2.24377 2.97841 0
M  V30 1260 N 124.16 -0.719506 1.40217 0
M  V30 1261 C 125.09 -1.8465 1.42922 0
M  V30 1262 C 126.071 -1.67599 0.29062 0
M  V30 1263 O 127.256 -1.87688 0.498677 0
M  V30 1264 C 124.386 -3.22565 1.28722 0
M  V30 1265 C 123.34 -3.54281 2.40144 0
M  V30 1266 C 122.666 -4.91298 2.11023 0
M  V30 1267 C 123.966 -3.55676 3.82481 0
M  V30 1268 H 125.66 -1.82644 2.37237 0
M  V30 1269 H 123.206 -0.877305 1.1419 0
M  V30 1270 H 125.159 -4.01095 1.29232 0
M  V30 1271 H 123.883 -3.25137 0.308811 0
M  V30 1272 H 122.542 -2.78088 2.38877 0
M  V30 1273 H 122.19 -4.90468 1.11582 0
M  V30 1274 H 121.89 -5.13485 2.8567 0
M  V30 1275 H 123.414 -5.72166 2.13209 0
M  V30 1276 H 124.828 -4.24254 3.85592 0
M  V30 1277 H 123.225 -3.89388 4.56614 0
M  V30 1278 H 124.295 -2.55144 4.12346 0
M  V30 1279 N 125.638 -1.25649 -0.95132 0
M  V30 1280 C 127.054 -1.02542 -1.223 0
M  V30 1281 C 127.254 0.255715 -1.99871 0
M  V30 1282 O 126.31 0.967558 -2.33226 0
M  V30 1283 C 127.623 -2.25065 -1.99415 0
M  V30 1284 C 129.171 -2.29861 -2.12446 0
M  V30 1285 C 129.646 -3.52048 -2.92961 0
M  V30 1286 N 131.137 -3.52465 -3.00538 0
M  V30 1287 C 131.872 -4.43672 -3.63239 0
M  V30 1288 N 131.368 -5.45157 -4.27523 0
M  V30 1289 N 133.161 -4.31346 -3.60412 0
M  V30 1290 H 125.312 -2.07951 -0.432471 0
M  V30 1291 H 127.575 -0.91339 -0.253816 0
M  V30 1292 H 127.281 -3.18194 -1.49817 0
M  V30 1293 H 127.155 -2.28502 -3.00111 0
M  V30 1294 H 129.542 -1.37252 -2.61239 0
M  V30 1295 H 129.623 -2.3044 -1.11044 0
M  V30 1296 H 129.267 -4.44981 -2.44856 0
M  V30 1297 H 129.197 -3.48715 -3.94596 0
M  V30 1298 H 131.688 -2.79056 -2.54826 0
M  V30 1299 H 132.001 -6.10958 -4.73234 0
M  V30 1300 H 130.346 -5.49025 -4.26141 0
M  V30 1301 H 133.537 -3.51288 -3.09377 0
M  V30 1302 H 133.71 -5.02624 -4.0899 0
M  V30 1303 N 127.117 1.15442 -1.07289 0
M  V30 1304 C 128.08 2.18358 -0.696591 0
M  V30 1305 C 129.08 1.58637 0.262837 0
M  V30 1306 O 130.27 1.74145 0.0438809 0
M  V30 1307 C 127.402 3.4089 -0.0266151 0
M  V30 1308 H 128.595 2.53162 -1.60776 0
M  V30 1309 H 126.148 1.29893 -0.869342 0
M  V30 1310 H 126.883 3.11653 0.896822 0
M  V30 1311 H 126.668 3.85495 -0.716657 0
M  V30 1312 H 128.158 4.17009 0.222028 0
M  V30 1313 N 128.595 0.856903 1.32268 0
M  V30 1314 C 129.505 0.306131 2.32594 0
M  V30 1315 C 130.521 -0.577209 1.64147 0
M  V30 1316 O 131.697 -0.477043 1.95669 0
M  V30 1317 C 128.762 -0.494561 3.43154 0
M  V30 1318 C 127.823 0.415186 4.27288 0
M  V30 1319 C 127.056 -0.347387 5.32568 0
M  V30 1320 O 127.279 -1.57708 5.48165 0
M  V30 1321 O 126.213 0.287982 6.01211 0
M  V30 1322 H 130.039 1.13737 2.81598 0
M  V30 1323 H 127.624 0.619902 1.35932 0
M  V30 1324 H 129.506 -0.948944 4.10576 0
M  V30 1325 H 128.181 -1.30257 2.96336 0
M  V30 1326 H 127.088 0.917793 3.62667 0
M  V30 1327 H 128.421 1.18844 4.77637 0
M  V30 1328 N 130.073 -1.45103 0.615059 0
M  V30 1329 C 131.35 -1.95549 0.0448276 0
M  V30 1330 C 131.73 -1.55737 -1.4251 0
M  V30 1331 O 131.078 -0.823556 -2.13143 0
M  V30 1332 C 131.288 -3.48098 0.250785 0
M  V30 1333 C 132.636 -4.24384 0.135509 0
M  V30 1334 O 133.66 -3.55738 0.181299 0
M  V30 1335 O 132.519 -5.46493 0.0268878 0
M  V30 1336 H 129.613 -0.8264 -0.0314845 0
M  V30 1337 H 132.159 -1.55232 0.685642 0
M  V30 1338 H 130.931 -3.7007 1.27139 0
M  V30 1339 H 130.554 -3.95323 -0.424937 0
M  V30 1340 N 131.551 -0.354651 -1.53558 0
M  V30 1341 C 132.779 0.239515 -2.05509 0
M  V30 1342 C 133.194 1.4333 -1.2289 0
M  V30 1343 O 132.551 1.80538 -0.266899 0
M  V30 1344 C 132.602 0.643719 -3.55723 0
M  V30 1345 O 132.323 -0.502602 -4.35207 0
M  V30 1346 C 133.824 1.29743 -4.23889 0
M  V30 1347 H 131.044 0.0442697 -0.669538 0
M  V30 1348 H 133.588 -0.509856 -1.98042 0
M  V30 1349 H 131.743 1.34302 -3.63376 0
M  V30 1350 H 132.157 -0.178172 -5.24197 0
M  V30 1351 H 133.631 1.53091 -5.30346 0
M  V30 1352 H 134.108 2.25441 -3.76926 0
M  V30 1353 H 134.714 0.639865 -4.20459 0
M  V30 1354 N 133.029 1.57378 -0.0835403 0
M  V30 1355 C 133.992 2.12252 0.864959 0
M  V30 1356 C 134.992 1.04916 1.21858 0
M  V30 1357 O 136.182 1.30853 1.14991 0
M  V30 1358 C 133.314 2.63358 2.16461 0
M  V30 1359 H 134.507 2.97371 0.388676 0
M  V30 1360 H 132.06 1.55423 0.165317 0
M  V30 1361 H 132.795 1.81727 2.686 0
M  V30 1362 H 132.58 3.41826 1.92087 0
M  V30 1363 H 134.07 3.05847 2.84337 0
M  V30 1364 N 134.507 -0.190092 1.56449 0
M  V30 1365 C 135.753 -0.911052 1.81184 0
M  V30 1366 C 136.086 -1.82699 0.658396 0
M  V30 1367 O 135.361 -1.91491 -0.340775 0
M  V30 1368 C 135.644 -1.72297 3.16205 0
M  V30 1369 C 135.497 -0.831419 4.42049 0
M  V30 1370 C 136.816 -2.69454 3.47969 0
M  V30 1371 H 133.935 -0.32977 0.659106 0
M  V30 1372 H 136.577 -0.178169 1.89163 0
M  V30 1373 H 134.727 -2.34778 3.09534 0
M  V30 1374 H 136.399 -0.220929 4.60771 0
M  V30 1375 H 134.642 -0.138406 4.33579 0
M  V30 1376 H 135.313 -1.43461 5.33032 0
M  V30 1377 H 137.789 -2.17104 3.54972 0
M  V30 1378 H 136.665 -3.23342 4.43555 0
M  V30 1379 H 136.926 -3.48744 2.71717 0
M  V30 1380 N 135.985 -1.50799 -0.457987 0
M  V30 1381 C 137.215 -1.65977 -1.23025 0
M  V30 1382 C 137.623 -0.347918 -1.85974 0
M  V30 1383 O 136.966 0.68148 -1.70592 0
M  V30 1384 C 137.028 -2.70309 -2.3701 0
M  V30 1385 C 136.692 -4.135 -1.94594 0
M  V30 1386 C 137.689 -4.98949 -1.46101 0
M  V30 1387 C 135.374 -4.5949 -2.02915 0
M  V30 1388 C 137.368 -6.28442 -1.06489 0
M  V30 1389 C 135.055 -5.88984 -1.62914 0
M  V30 1390 C 136.053 -6.73286 -1.1478 0
M  V30 1391 O 135.741 -8.00362 -0.75339 0
M  V30 1392 H 135.473 -0.56064 -0.377702 0
M  V30 1393 H 138.027 -1.97857 -0.551537 0
M  V30 1394 H 136.257 -2.337 -3.08093 0
M  V30 1395 H 137.946 -2.74574 -2.98938 0
M  V30 1396 H 138.712 -4.6463 -1.39084 0
M  V30 1397 H 134.591 -3.94009 -2.39328 0
M  V30 1398 H 138.135 -6.94194 -0.688488 0
M  V30 1399 H 134.032 -6.22822 -1.69595 0
M  V30 1400 H 134.8 -8.13744 -0.88108 0
M  V30 1401 N 137.463 0.71206 -1.40597 0
M  V30 1402 C 138.71 1.47197 -1.39065 0
M  V30 1403 C 139.038 1.94499 0.00583891 0
M  V30 1404 O 138.293 1.68752 0.99102 0
M  V30 1405 C 138.592 2.71039 -2.32965 0
M  V30 1406 C 138.258 2.42484 -3.80148 0
M  V30 1407 C 136.92 2.34406 -4.20247 0
M  V30 1408 C 139.272 2.18598 -4.73143 0
M  V30 1409 C 136.6 2.00516 -5.51371 0
M  V30 1410 C 138.952 1.8622 -6.0457 0
M  V30 1411 C 137.616 1.76626 -6.43708 0
M  V30 1412 H 136.886 0.538634 -0.508876 0
M  V30 1413 H 139.533 0.815325 -1.73276 0
M  V30 1414 H 137.838 3.41558 -1.91951 0
M  V30 1415 H 139.535 3.29138 -2.29061 0
M  V30 1416 H 136.125 2.49659 -3.4838 0
M  V30 1417 H 140.309 2.23793 -4.42979 0
M  V30 1418 H 135.565 1.91628 -5.80593 0
M  V30 1419 H 139.739 1.66752 -6.76141 0
M  V30 1420 H 137.366 1.50133 -7.45228 0
M  V30 1421 N 138.941 1.26152 0.944643 0
M  V30 1422 C 140.181 1.12708 1.70517 0
M  V30 1423 C 140.545 -0.324727 1.89234 0
M  V30 1424 O 141.746 -0.581211 2.62441 0
M  V30 1425 C 140.017 1.8713 3.04495 0
M  V30 1426 S 141.576 1.89698 3.95677 0
M  V30 1427 H 138.394 0.402665 0.585988 0
M  V30 1428 H 140.996 1.59821 1.12594 0
M  V30 1429 H 139.7 2.91833 2.88551 0
M  V30 1430 H 139.231 1.40444 3.67477 0
M  V30 1431 H 141.246 0.981198 4.86402 0
M  V30 1432 N 140.419 -1.14872 1.07899 0
M  V30 1433 C 141.382 -2.17986 0.708161 0
M  V30 1434 C 142.382 -1.58775 -0.25442 0
M  V30 1435 O 143.572 -1.74166 -0.034645 0
M  V30 1436 C 140.704 -3.40871 0.0446929 0
M  V30 1437 H 141.897 -2.52306 1.62116 0
M  V30 1438 H 139.45 -1.2943 0.876218 0
M  V30 1439 H 140.185 -3.12124 -0.880281 0
M  V30 1440 H 139.97 -3.8511 0.737091 0
M  V30 1441 H 141.46 -4.17121 -0.19991 0
M  V30 1442 N 141.898 -0.863906 -1.31812 0
M  V30 1443 C 143.314 -0.555004 -1.49639 0
M  V30 1444 C 143.514 0.912266 -1.79666 0
M  V30 1445 O 142.57 1.69479 -1.87171 0
M  V30 1446 C 143.883 -1.44998 -2.63431 0
M  V30 1447 C 145.431 -1.45138 -2.77316 0
M  V30 1448 C 145.906 -2.33179 -3.94197 0
M  V30 1449 N 147.397 -2.31025 -4.01474 0
M  V30 1450 C 148.132 -2.95871 -4.9117 0
M  V30 1451 N 147.628 -3.69863 -5.8581 0
M  V30 1452 N 149.421 -2.85211 -4.84367 0
M  V30 1453 H 141.572 -1.81339 -1.10589 0
M  V30 1454 H 143.835 -0.77505 -0.545895 0
M  V30 1455 H 143.541 -2.49377 -2.48 0
M  V30 1456 H 143.415 -1.14409 -3.59431 0
M  V30 1457 H 145.802 -0.415201 -2.92164 0
M  V30 1458 H 145.883 -1.79747 -1.82001 0
M  V30 1459 H 145.527 -3.3687 -3.80107 0
M  V30 1460 H 145.457 -1.95897 -4.88807 0
M  V30 1461 H 147.948 -1.77238 -3.33759 0
M  V30 1462 H 148.261 -4.16486 -6.50968 0
M  V30 1463 H 146.606 -3.73971 -5.85808 0
M  V30 1464 H 149.797 -2.26948 -4.09405 0
M  V30 1465 H 149.97 -3.36027 -5.54066 0
M  V30 1466 N 143.376 1.44774 -0.622745 0
M  V30 1467 C 144.624 2.01721 -0.123655 0
M  V30 1468 C 144.945 1.49172 1.25589 0
M  V30 1469 O 144.215 0.691974 1.83272 0
M  V30 1470 H 142.795 0.745777 -0.0427225 0
M  V30 1471 H 145.457 1.77382 -0.807559 0
M  V30 1472 H 144.553 3.11984 -0.0849534 0
M  V30 1473 N 144.854 0.36279 1.53368 0
M  V30 1474 C 146.131 -0.284021 1.93527 0
M  V30 1475 C 146.511 -1.66628 1.29608 0
M  V30 1476 O 145.859 -2.23942 0.45413 0
M  V30 1477 C 146.069 -0.337028 3.47369 0
M  V30 1478 C 147.417 -0.578708 4.20638 0
M  V30 1479 O 148.441 -0.418352 3.53735 0
M  V30 1480 O 147.3 -0.89074 5.39192 0
M  V30 1481 H 144.394 -0.169743 0.809393 0
M  V30 1482 H 146.94 0.41537 1.64538 0
M  V30 1483 H 145.712 0.632217 3.86159 0
M  V30 1484 H 145.335 -1.08243 3.82582 0
M  V30 1485 N 146.332 -1.57332 0.0918853 0
M  V30 1486 C 147.581 -1.93412 -0.572249 0
M  V30 1487 C 147.894 -0.975515 -1.69538 0
M  V30 1488 O 149.1 -1.22991 -2.42045 0
M  V30 1489 C 147.556 -3.43648 -1.0693 0
M  V30 1490 C 147.164 -4.47994 0.0239049 0
M  V30 1491 C 148.908 -3.88695 -1.70635 0
M  V30 1492 C 146.815 -5.89381 -0.488319 0
M  V30 1493 H 145.745 -0.721939 -0.217532 0
M  V30 1494 H 148.396 -1.82735 0.167369 0
M  V30 1495 H 146.778 -3.49466 -1.8625 0
M  V30 1496 H 147.952 -4.53815 0.799277 0
M  V30 1497 H 146.267 -4.12536 0.565946 0
M  V30 1498 H 148.864 -4.91725 -2.10025 0
M  V30 1499 H 149.207 -3.27166 -2.57426 0
M  V30 1500 H 149.74 -3.85564 -0.979023 0
M  V30 1501 H 146.479 -6.54602 0.342906 0
M  V30 1502 H 145.999 -5.87037 -1.23077 0
M  V30 1503 H 147.678 -6.39863 -0.958317 0
M  V30 1504 N 147.81 0.181792 -1.56548 0
M  V30 1505 C 149.056 0.896803 -1.82562 0
M  V30 1506 C 149.411 1.80324 -0.670908 0
M  V30 1507 O 148.704 1.8868 0.333235 0
M  V30 1508 C 148.898 1.73728 -3.12335 0
M  V30 1509 C 148.727 0.913714 -4.4032 0
M  V30 1510 C 147.497 0.592903 -5.01809 0
M  V30 1511 C 149.695 0.260164 -5.13642 0
M  V30 1512 N 147.677 -0.247901 -6.13399 0
M  V30 1513 C 149.048 -0.442256 -6.18421 0
M  V30 1514 C 151.103 0.177253 -4.97584 0
M  V30 1515 C 149.806 -1.21971 -7.08883 0
M  V30 1516 C 151.832 -0.586839 -5.88481 0
M  V30 1517 C 151.194 -1.27766 -6.92716 0
M  V30 1518 H 147.293 0.307122 -0.719166 0
M  V30 1519 H 149.877 0.164535 -1.94004 0
M  V30 1520 H 148.048 2.44105 -3.02105 0
M  V30 1521 H 149.78 2.39279 -3.26386 0
M  V30 1522 H 146.535 0.920502 -4.64568 0
M  V30 1523 H 146.959 -0.658304 -6.73792 0
M  V30 1524 H 151.601 0.696993 -4.17015 0
M  V30 1525 H 149.319 -1.75083 -7.88905 0
M  V30 1526 H 152.905 -0.652522 -5.78129 0
M  V30 1527 H 151.785 -1.85943 -7.61836 0
M  V30 1528 N 149.288 1.51039 0.449983 0
M  V30 1529 C 150.536 1.62759 1.19808 0
M  V30 1530 C 150.857 0.339981 1.92013 0
M  V30 1531 O 150.127 -0.643606 1.85026 0
M  V30 1532 H 148.707 0.599811 0.445237 0
M  V30 1533 H 151.369 1.87914 0.517138 0
M  V30 1534 H 150.465 2.44911 1.93455 0
M  V30 1535 N 150.766 -0.704594 1.40972 0
M  V30 1536 C 151.698 -1.82974 1.38033 0
M  V30 1537 C 152.711 -1.60305 0.283931 0
M  V30 1538 O 153.9 -1.69975 0.545042 0
M  V30 1539 C 151 -3.19578 1.12795 0
M  V30 1540 C 150.173 -3.69352 2.34302 0
M  V30 1541 C 149.232 -4.84601 2.05058 0
M  V30 1542 O 148.258 -4.96682 2.7802 0
M  V30 1543 N 149.46 -5.71194 1.03528 0
M  V30 1544 H 152.225 -1.85991 2.35005 0
M  V30 1545 H 149.786 -0.886567 1.35468 0
M  V30 1546 H 151.778 -3.9429 0.911987 0
M  V30 1547 H 150.348 -3.11642 0.24452 0
M  V30 1548 H 149.568 -2.85649 2.71659 0
M  V30 1549 H 150.856 -3.99345 3.1528 0
M  V30 1550 H 150.254 -5.64054 0.431217 0
M  V30 1551 H 148.811 -6.45843 0.879205 0
M  V30 1552 N 152.244 -1.26651 -0.937939 0
M  V30 1553 C 153.492 -1.12165 -1.68118 0
M  V30 1554 C 153.813 0.334983 -1.92101 0
M  V30 1555 O 153.083 1.23583 -1.52 0
M  V30 1556 H 151.663 -0.412093 -0.623048 0
M  V30 1557 H 154.325 -1.59027 -1.12678 0
M  V30 1558 H 153.421 -1.64289 -2.6536 0
M  V30 1559 N 153.722 1.14298 -1.08507 0
M  V30 1560 C 154.95 1.89219 -0.836876 0
M  V30 1561 C 155.365 1.78638 0.611054 0
M  V30 1562 O 154.722 1.14643 1.41998 0
M  V30 1563 C 154.773 3.39158 -1.25116 0
M  V30 1564 O 154.494 3.49449 -2.64229 0
M  V30 1565 C 155.995 4.31073 -1.03398 0
M  V30 1566 H 153.215 0.599328 -0.301739 0
M  V30 1567 H 155.759 1.44746 -1.44461 0
M  V30 1568 H 153.914 3.81251 -0.687514 0
M  V30 1569 H 154.328 4.42589 -2.81452 0
M  V30 1570 H 155.802 5.34646 -1.37323 0
M  V30 1571 H 156.279 4.3919 0.0289259 0
M  V30 1572 H 156.885 3.94738 -1.58311 0
M  V30 1573 N 155.201 0.870884 1.31352 0
M  V30 1574 C 156.131 0.343096 2.30966 0
M  V30 1575 C 157.112 -0.566507 1.60389 0
M  V30 1576 O 158.297 -0.483336 1.88089 0
M  V30 1577 C 155.427 -0.455487 3.443 0
M  V30 1578 C 154.381 0.361103 4.26474 0
M  V30 1579 C 153.707 -0.563221 5.31725 0
M  V30 1580 C 155.007 1.59566 4.97329 0
M  V30 1581 H 156.701 1.17548 2.75359 0
M  V30 1582 H 154.247 0.566686 1.32381 0
M  V30 1583 H 156.2 -0.83525 4.13039 0
M  V30 1584 H 154.924 -1.32139 2.98675 0
M  V30 1585 H 153.583 0.722825 3.59403 0
M  V30 1586 H 153.231 -1.42643 4.82351 0
M  V30 1587 H 152.931 -0.0207409 5.87596 0
M  V30 1588 H 154.455 -0.939808 6.03324 0
M  V30 1589 H 155.869 1.28728 5.58661 0
M  V30 1590 H 154.266 2.07728 5.63 0
M  V30 1591 H 155.336 2.34798 4.24262 0
M  V30 1592 N 156.679 -1.44442 0.630414 0
M  V30 1593 C 157.925 -2.02351 0.134816 0
M  V30 1594 C 158.258 -1.4947 -1.23986 0
M  V30 1595 O 157.533 -0.678475 -1.82283 0
M  V30 1596 C 157.816 -3.59898 0.120707 0
M  V30 1597 C 157.669 -4.23063 1.52767 0
M  V30 1598 C 158.988 -4.36585 -0.555127 0
M  V30 1599 H 156.107 -0.73527 0.0504646 0
M  V30 1600 H 158.749 -1.72022 0.806751 0
M  V30 1601 H 156.899 -3.85868 -0.451477 0
M  V30 1602 H 158.571 -4.08202 2.14869 0
M  V30 1603 H 156.814 -3.80586 2.08175 0
M  V30 1604 H 157.485 -5.32071 1.46984 0
M  V30 1605 H 159.961 -4.16044 -0.0685429 0
M  V30 1606 H 158.837 -5.46294 -0.534185 0
M  V30 1607 H 159.098 -4.11138 -1.62535 0
M  V30 1608 N 158.157 -0.370918 -1.53173 0
M  V30 1609 C 159.385 0.217704 -2.05751 0
M  V30 1610 C 159.8 1.42018 -1.24404 0
M  V30 1611 O 159.157 1.80245 -0.286033 0
M  V30 1612 C 159.208 0.605954 -3.56385 0
M  V30 1613 O 158.929 -0.548734 -4.3465 0
M  V30 1614 C 160.43 1.2524 -4.25241 0
M  V30 1615 H 157.65 0.0371659 -0.66997 0
M  V30 1616 H 160.194 -0.530832 -1.9749 0
M  V30 1617 H 158.349 1.3044 -3.6478 0
M  V30 1618 H 158.763 -0.23376 -5.23979 0
M  V30 1619 H 160.237 1.47458 -5.3194 0
M  V30 1620 H 160.714 2.2143 -3.79296 0
M  V30 1621 H 161.32 0.595233 -4.21114 0
M  V30 1622 N 159.635 1.57281 -0.100228 0
M  V30 1623 C 160.881 1.94826 0.563101 0
M  V30 1624 C 161.214 0.982475 1.67514 0
M  V30 1625 O 160.489 0.0164069 1.94493 0
M  V30 1626 C 160.772 3.42453 1.11346 0
M  V30 1627 C 160.625 4.498 0.00612081 0
M  V30 1628 C 161.944 3.91506 2.01024 0
M  V30 1629 H 159.063 0.708428 0.203221 0
M  V30 1630 H 161.705 1.8922 -0.171979 0
M  V30 1631 H 159.855 3.47361 1.7399 0
M  V30 1632 H 161.527 4.57 -0.628357 0
M  V30 1633 H 159.77 4.28756 -0.659581 0
M  V30 1634 H 160.441 5.50306 0.432109 0
M  V30 1635 H 162.917 3.88784 1.48278 0
M  V30 1636 H 161.793 4.95358 2.36457 0
M  V30 1637 H 162.054 3.31099 2.92961 0
M  V30 1638 N 161.113 -0.173488 1.56642 0
M  V30 1639 C 162.338 -0.910149 1.86363 0
M  V30 1640 C 162.763 -1.75132 0.686318 0
M  V30 1641 O 162.121 -1.77595 -0.364643 0
M  V30 1642 C 162.169 -1.76447 3.14482 0
M  V30 1643 O 161.273 -2.86584 2.96553 0
M  V30 1644 H 160.614 -0.255086 0.613047 0
M  V30 1645 H 163.144 -0.172283 2.03873 0
M  V30 1646 H 163.154 -2.16483 3.45831 0
M  V30 1647 H 161.829 -1.14658 3.99783 0
M  V30 1648 H 160.406 -2.50146 2.76553 0
M  V30 1649 N 162.591 -1.51276 -0.441967 0
M  V30 1650 C 163.816 -1.67799 -1.21895 0
M  V30 1651 C 164.241 -0.372864 -1.84367 0
M  V30 1652 O 163.599 0.666501 -1.68604 0
M  V30 1653 C 163.647 -2.79199 -2.28211 0
M  V30 1654 O 162.751 -2.42479 -3.33583 0
M  V30 1655 H 162.092 -0.559649 -0.357336 0
M  V30 1656 H 164.622 -1.97815 -0.522522 0
M  V30 1657 H 164.632 -3.03146 -2.73069 0
M  V30 1658 H 163.307 -3.73906 -1.82118 0
M  V30 1659 H 161.884 -2.29087 -2.94234 0
M  V30 1660 N 164.069 0.697108 -1.41344 0
M  V30 1661 C 165.032 1.79281 -1.42797 0
M  V30 1662 C 166.032 1.57607 -0.318837 0
M  V30 1663 O 167.222 1.64309 -0.578642 0
M  V30 1664 C 164.354 3.17632 -1.23785 0
M  V30 1665 H 165.547 1.79385 -2.40335 0
M  V30 1666 H 163.1 0.904582 -1.27464 0
M  V30 1667 H 163.835 3.23167 -0.270814 0
M  V30 1668 H 163.62 3.34765 -2.04144 0
M  V30 1669 H 165.11 3.97617 -1.27633 0
M  V30 1670 N 165.547 1.27147 0.931209 0
M  V30 1671 C 166.772 1.16191 1.71797 0
M  V30 1672 C 167.197 -0.278004 1.86034 0
M  V30 1673 O 166.555 -1.20137 1.35782 0
M  V30 1674 C 166.603 1.84673 3.09723 0
M  V30 1675 O 165.707 1.14231 3.96264 0
M  V30 1676 H 165.048 0.404303 0.526721 0
M  V30 1677 H 167.578 1.68152 1.1656 0
M  V30 1678 H 167.588 1.91893 3.60057 0
M  V30 1679 H 166.263 2.89421 2.98677 0
M  V30 1680 H 164.84 1.15056 3.54706 0
M  V30 1681 N 167.025 -1.13721 1.09112 0
M  V30 1682 C 168.253 -1.88773 0.846899 0
M  V30 1683 C 168.668 -1.7896 -0.601572 0
M  V30 1684 O 168.025 -1.15394 -1.41388 0
M  V30 1685 C 168.076 -3.3849 1.26913 0
M  V30 1686 O 167.797 -3.48043 2.66079 0
M  V30 1687 C 169.298 -4.30518 1.05682 0
M  V30 1688 H 166.518 -0.59772 0.304914 0
M  V30 1689 H 169.062 -1.43977 1.45227 0
M  V30 1690 H 167.217 -3.80881 0.707723 0
M  V30 1691 H 167.631 -4.4109 2.83795 0
M  V30 1692 H 169.105 -5.3391 1.40156 0
M  V30 1693 H 169.582 -4.392 -0.00563416 0
M  V30 1694 H 170.188 -3.93893 1.60402 0
M  V30 1695 N 168.503 -0.877838 -1.30888 0
M  V30 1696 C 169.45 -0.337538 -2.28318 0
M  V30 1697 C 170.42 0.568346 -1.56074 0
M  V30 1698 O 171.605 0.498298 -1.84178 0
M  V30 1699 C 168.745 0.448142 -3.42178 0
M  V30 1700 C 167.858 -0.48615 -4.29256 0
M  V30 1701 C 166.993 0.314427 -5.30269 0
M  V30 1702 C 166.032 -0.615791 -6.08995 0
M  V30 1703 N 165.169 0.14902 -7.01942 0
M  V30 1704 H 170.009 -1.17356 -2.73919 0
M  V30 1705 H 167.546 -0.590094 -1.34745 0
M  V30 1706 H 169.504 0.919517 -4.06941 0
M  V30 1707 H 168.134 1.24879 -2.97666 0
M  V30 1708 H 167.186 -1.076 -3.64865 0
M  V30 1709 H 168.498 -1.19909 -4.84173 0
M  V30 1710 H 167.652 0.847969 -6.00745 0
M  V30 1711 H 166.391 1.06062 -4.76027 0
M  V30 1712 H 165.396 -1.16102 -5.37401 0
M  V30 1713 H 166.621 -1.36097 -6.65323 0
M  V30 1714 H 164.567 0.877884 -6.50099 0
M  V30 1715 H 164.484 -0.504433 -7.54315 0
M  V30 1716 H 165.752 0.663537 -7.76671 0
M  V30 1717 N 169.982 1.44106 -0.638065 0
M  V30 1718 C 171.23 2.01579 -0.145043 0
M  V30 1719 C 171.551 1.50496 1.24 0
M  V30 1720 O 170.821 0.711374 1.82527 0
M  V30 1721 H 169.401 0.745282 -0.05063 0
M  V30 1722 H 172.063 1.76516 -0.826327 0
M  V30 1723 H 171.159 3.11877 -0.118039 0
M  V30 1724 N 171.46 0.379036 1.52974 0
M  V30 1725 C 172.871 -0.0972525 1.86447 0
M  V30 1726 C 173.222 -1.47027 1.29914 0
M  V30 1727 O 172.347 -2.07135 0.626433 0
M  V30 1728 C 172.942 -0.183248 3.38304 0
M  V30 1729 C 171.501 -0.603812 3.71525 0
M  V30 1730 C 170.648 0.240632 2.76254 0
M  V30 1731 H 173.599 0.597316 1.4703 0
M  V30 1732 H 173.62 -1.00432 3.67006 0
M  V30 1733 H 173.132 0.816191 3.79421 0
M  V30 1734 H 171.233 -1.61099 3.35973 0
M  V30 1735 H 171.346 -0.369086 4.77676 0
M  V30 1736 H 169.71 -0.292548 2.53014 0
M  V30 1737 H 170.493 1.23786 3.20206 0
M  V30 1738 N 172.938 -1.57226 0.108567 0
M  V30 1739 C 174.163 -1.99604 -0.563303 0
M  V30 1740 C 174.588 -0.987563 -1.6009 0
M  V30 1741 O 173.946 0.0421687 -1.81251 0
M  V30 1742 C 173.994 -3.40902 -1.17552 0
M  V30 1743 O 173.098 -3.42896 -2.2912 0
M  V30 1744 H 172.439 -0.648704 -0.1417 0
M  V30 1745 H 174.969 -2.03679 0.193961 0
M  V30 1746 H 174.979 -3.78886 -1.51357 0
M  V30 1747 H 173.654 -4.1382 -0.415445 0
M  V30 1748 H 172.231 -3.1672 -1.96832 0
M  V30 1749 N 174.416 0.165178 -1.56732 0
M  V30 1750 C 175.662 0.882112 -1.82611 0
M  V30 1751 C 175.995 1.81628 -0.687378 0
M  V30 1752 O 175.27 1.92009 0.310267 0
M  V30 1753 C 175.553 1.67245 -3.18906 0
M  V30 1754 C 175.406 0.760987 -4.43316 0
M  V30 1755 C 176.725 2.63884 -3.52212 0
M  V30 1756 H 173.844 0.319242 -0.664269 0
M  V30 1757 H 176.486 0.148052 -1.89422 0
M  V30 1758 H 174.636 2.29824 -3.1323 0
M  V30 1759 H 176.308 0.147596 -4.61064 0
M  V30 1760 H 174.551 0.0694102 -4.33744 0
M  V30 1761 H 175.222 1.34962 -5.35247 0
M  V30 1762 H 177.698 2.11429 -3.58381 0
M  V30 1763 H 176.574 3.16245 -4.48643 0
M  V30 1764 H 176.835 3.44377 -2.77231 0
M  V30 1765 N 175.894 1.51508 0.433938 0
M  V30 1766 C 177.141 1.64345 1.18309 0
M  V30 1767 C 177.469 0.361315 1.91115 0
M  V30 1768 O 176.724 -0.654753 1.84422 0
M  V30 1769 C 177.023 2.79928 2.22205 0
M  V30 1770 C 176.689 4.19078 1.66387 0
M  V30 1771 C 175.351 4.56932 1.50887 0
M  V30 1772 C 177.703 5.05894 1.25381 0
M  V30 1773 C 175.031 5.79305 0.928608 0
M  V30 1774 C 177.383 6.2885 0.687823 0
M  V30 1775 C 176.047 6.65473 0.519755 0
M  V30 1776 H 175.317 0.601381 0.432923 0
M  V30 1777 H 177.964 1.85549 0.473676 0
M  V30 1778 H 176.269 2.52959 2.99197 0
M  V30 1779 H 177.966 2.87059 2.79997 0
M  V30 1780 H 174.556 3.89234 1.79428 0
M  V30 1781 H 178.74 4.77253 1.36175 0
M  V30 1782 H 173.996 6.06324 0.786186 0
M  V30 1783 H 178.17 6.95461 0.361581 0
M  V30 1784 H 175.797 7.6017 0.0679979 0
M  V30 1785 N 177.372 -0.689602 1.41712 0
M  V30 1786 C 178.783 -1.26973 1.36875 0
M  V30 1787 C 179.134 -1.96124 0.054748 0
M  V30 1788 O 178.259 -1.99141 -0.84687 0
M  V30 1789 C 178.854 -2.30912 2.47922 0
M  V30 1790 C 177.413 -2.84486 2.46464 0
M  V30 1791 C 176.56 -1.58603 2.27465 0
M  V30 1792 H 179.511 -0.48396 1.51141 0
M  V30 1793 H 179.532 -3.12331 2.17323 0
M  V30 1794 H 179.044 -1.80554 3.43543 0
M  V30 1795 H 177.145 -3.39005 1.54617 0
M  V30 1796 H 177.258 -3.34511 3.42986 0
M  V30 1797 H 175.622 -1.84632 1.75451 0
M  V30 1798 H 176.405 -1.10233 3.25121 0
M  V30 1799 N 178.85 -1.27639 -0.924453 0
M  V30 1800 C 179.78 -1.13166 -2.04244 0
M  V30 1801 C 180.761 -0.032256 -1.70069 0
M  V30 1802 O 181.946 -0.207328 -1.9309 0
M  V30 1803 C 179.076 -0.781496 -3.38393 0
M  V30 1804 C 178.03 -1.83449 -3.86692 0
M  V30 1805 C 177.356 -1.33822 -5.17683 0
M  V30 1806 C 178.656 -3.23917 -4.09726 0
M  V30 1807 H 180.35 -2.06689 -2.1661 0
M  V30 1808 H 177.896 -0.995136 -1.04082 0
M  V30 1809 H 179.849 -0.667057 -4.16087 0
M  V30 1810 H 178.573 0.189439 -3.2605 0
M  V30 1811 H 177.232 -1.93789 -3.11193 0
M  V30 1812 H 176.88 -0.35665 -5.01734 0
M  V30 1813 H 176.58 -2.04224 -5.50968 0
M  V30 1814 H 178.104 -1.23679 -5.97943 0
M  V30 1815 H 179.518 -3.16559 -4.77978 0
M  V30 1816 H 177.915 -3.92059 -4.54324 0
M  V30 1817 H 178.985 -3.68729 -3.14908 0
M  V30 1818 N 180.328 1.1314 -1.09713 0
M  V30 1819 C 181.291 2.16831 -0.742751 0
M  V30 1820 C 182.291 1.59159 0.229129 0
M  V30 1821 O 183.481 1.74199 0.00693237 0
M  V30 1822 C 180.613 3.40756 -0.0989168 0
M  V30 1823 H 181.806 2.49695 -1.66109 0
M  V30 1824 H 179.359 1.2802 -0.896699 0
M  V30 1825 H 180.094 3.13485 0.830514 0
M  V30 1826 H 179.879 3.83888 -0.798265 0
M  V30 1827 H 181.369 4.17386 0.133524 0
M  V30 1828 N 181.806 0.884767 1.30421 0
M  V30 1829 C 183.217 0.553656 1.78302 0
M  V30 1830 C 183.568 -0.930153 1.7275 0
M  V30 1831 O 182.693 -1.72681 1.30423 0
M  V30 1832 C 183.288 0.998234 3.2376 0
M  V30 1833 C 181.847 0.71854 3.69478 0
M  V30 1834 C 180.994 1.18132 2.50879 0
M  V30 1835 H 183.945 1.06901 1.17294 0
M  V30 1836 H 183.966 0.327118 3.79091 0
M  V30 1837 H 183.478 2.0782 3.27769 0
M  V30 1838 H 181.579 -0.349444 3.70958 0
M  V30 1839 H 181.692 1.30595 4.60958 0
M  V30 1840 H 180.056 0.600669 2.47516 0
M  V30 1841 H 180.839 2.26902 2.57624 0
M  V30 1842 N 183.284 -1.43765 0.645699 0
M  V30 1843 C 184.509 -2.06767 0.161883 0
M  V30 1844 C 184.934 -1.48034 -1.16049 0
M  V30 1845 O 184.292 -0.587369 -1.71522 0
M  V30 1846 C 184.34 -3.60519 0.0762003 0
M  V30 1847 O 183.444 -4.00982 -0.963721 0
M  V30 1848 H 182.785 -0.657675 0.091429 0
M  V30 1849 H 185.315 -1.84397 0.886499 0
M  V30 1850 H 185.325 -4.07853 -0.109604 0
M  V30 1851 H 184 -4.02646 1.04157 0
M  V30 1852 H 182.577 -3.65253 -0.751312 0
M  V30 1853 N 184.763 -0.387143 -1.52771 0
M  V30 1854 C 185.988 0.198407 -2.06449 0
M  V30 1855 C 186.413 1.39918 -1.25716 0
M  V30 1856 O 185.771 1.79099 -0.281657 0
M  V30 1857 C 185.819 0.548893 -3.56398 0
M  V30 1858 O 184.923 1.64315 -3.78252 0
M  V30 1859 H 184.264 0.0237731 -0.663574 0
M  V30 1860 H 186.794 -0.553989 -1.96957 0
M  V30 1861 H 186.804 0.813812 -3.99801 0
M  V30 1862 H 185.479 -0.329005 -4.14597 0
M  V30 1863 H 184.056 1.37211 -3.46738 0
M  V30 1864 N 186.241 1.57166 -0.116904 0
M  V30 1865 C 187.188 2.15202 0.83408 0
M  V30 1866 C 188.158 1.07644 1.26499 0
M  V30 1867 O 189.343 1.35541 1.34288 0
M  V30 1868 C 186.483 2.75405 2.07957 0
M  V30 1869 C 185.596 3.97264 1.69721 0
M  V30 1870 C 184.731 4.45561 2.89221 0
M  V30 1871 C 183.77 5.59956 2.47215 0
M  V30 1872 N 182.907 6.03006 3.59622 0
M  V30 1873 H 187.747 2.96141 0.332335 0
M  V30 1874 H 185.284 1.46309 0.152349 0
M  V30 1875 H 187.242 3.08439 2.80929 0
M  V30 1876 H 185.872 1.97159 2.55594 0
M  V30 1877 H 184.924 3.70404 0.866316 0
M  V30 1878 H 186.236 4.80226 1.34849 0
M  V30 1879 H 185.39 4.80493 3.7042 0
M  V30 1880 H 184.129 3.61544 3.27318 0
M  V30 1881 H 183.134 5.2463 1.64448 0
M  V30 1882 H 184.359 6.45738 2.10238 0
M  V30 1883 H 182.305 5.21931 3.97396 0
M  V30 1884 H 182.222 6.80819 3.28667 0
M  V30 1885 H 183.49 6.42576 4.41267 0
M  V30 1886 N 187.719 -0.156864 1.56817 0
M  V30 1887 C 188.944 -0.890331 1.87318 0
M  V30 1888 C 189.369 -1.74394 0.704855 0
M  V30 1889 O 188.727 -1.77972 -0.345786 0
M  V30 1890 C 188.775 -1.73102 3.16336 0
M  V30 1891 O 187.879 -2.83422 2.99576 0
M  V30 1892 H 187.22 -0.24857 0.615718 0
M  V30 1893 H 189.75 -0.150649 2.04045 0
M  V30 1894 H 189.76 -2.12803 3.48107 0
M  V30 1895 H 188.435 -1.10412 4.00976 0
M  V30 1896 H 187.012 -2.47199 2.7919 0
M  V30 1897 N 189.197 -1.51736 -0.425897 0
M  V30 1898 C 190.425 -1.68794 -1.1965 0
M  V30 1899 C 190.84 -0.390164 -1.84725 0
M  V30 1900 O 190.197 0.632376 -1.71194 0
M  V30 1901 C 190.248 -2.81174 -2.27208 0
M  V30 1902 O 189.969 -4.05925 -1.64793 0
M  V30 1903 C 191.47 -3.09599 -3.17275 0
M  V30 1904 H 188.69 -0.566128 -0.360194 0
M  V30 1905 H 191.234 -1.98211 -0.503249 0
M  V30 1906 H 189.389 -2.54324 -2.9223 0
M  V30 1907 H 189.803 -4.68423 -2.35967 0
M  V30 1908 H 191.277 -3.91786 -3.88854 0
M  V30 1909 H 191.754 -2.22468 -3.78688 0
M  V30 1910 H 192.36 -3.38151 -2.57941 0
M  V30 1911 N 190.675 0.682077 -1.42076 0
M  V30 1912 C 191.9 1.47558 -1.45744 0
M  V30 1913 C 192.325 1.87977 -0.0680981 0
M  V30 1914 O 191.683 1.55522 0.9318 0
M  V30 1915 C 191.731 2.70575 -2.38373 0
M  V30 1916 O 190.835 3.68573 -1.85007 0
M  V30 1917 H 190.176 0.443585 -0.494093 0
M  V30 1918 H 192.706 0.837238 -1.86686 0
M  V30 1919 H 192.716 3.18729 -2.54707 0
M  V30 1920 H 191.391 2.40495 -3.39315 0
M  V30 1921 H 189.968 3.2757 -1.78192 0
M  V30 1922 N 192.153 1.28127 0.917671 0
M  V30 1923 C 193.401 1.14825 1.66312 0
M  V30 1924 C 193.722 -0.304379 1.9261 0
M  V30 1925 O 192.992 -1.21149 1.53947 0
M  V30 1926 H 191.572 0.421953 0.616413 0
M  V30 1927 H 194.234 1.608 1.10134 0
M  V30 1928 H 193.33 1.68489 2.62712 0
M  V30 1929 N 193.631 -1.12557 1.10312 0
M  V30 1930 C 194.879 -1.83675 0.843091 0
M  V30 1931 C 195.2 -1.84435 -0.633131 0
M  V30 1932 O 194.47 -1.30657 -1.45964 0
M  V30 1933 H 193.05 -0.680138 0.308904 0
M  V30 1934 H 195.712 -1.36301 1.39313 0
M  V30 1935 H 194.808 -2.87908 1.2048 0
M  V30 1936 N 195.109 -0.891671 -1.2995 0
M  V30 1937 C 196.337 -0.52866 -2.00032 0
M  V30 1938 C 196.752 0.884574 -1.66795 0
M  V30 1939 O 196.109 1.5827 -0.908669 0
M  V30 1940 C 196.16 -0.701814 -3.54622 0
M  V30 1941 O 195.881 -2.05942 -3.86678 0
M  V30 1942 C 197.382 -0.342683 -4.41973 0
M  V30 1943 H 194.602 -0.203659 -0.639347 0
M  V30 1944 H 197.146 -1.19881 -1.65677 0
M  V30 1945 H 195.301 -0.0789468 -3.8732 0
M  V30 1946 H 195.715 -2.08291 -4.81368 0
M  V30 1947 H 197.189 -0.514709 -5.49595 0
M  V30 1948 H 197.666 0.71975 -4.33262 0
M  V30 1949 H 198.272 -0.942154 -4.14733 0
M  V30 1950 N 196.587 1.43421 -0.653314 0
M  V30 1951 C 197.55 2.29182 0.0287951 0
M  V30 1952 C 198.55 1.42213 0.750465 0
M  V30 1953 O 199.74 1.63843 0.591701 0
M  V30 1954 C 196.872 3.24278 1.05151 0
M  V30 1955 H 198.065 2.90985 -0.725786 0
M  V30 1956 H 195.618 1.50702 -0.414545 0
M  V30 1957 H 196.353 2.6737 1.83532 0
M  V30 1958 H 196.138 3.88396 0.537687 0
M  V30 1959 H 197.628 3.88647 1.52786 0
M  V30 1960 N 198.065 0.39524 1.52563 0
M  V30 1961 C 199.028 -0.425001 2.25225 0
M  V30 1962 C 200.028 -0.985266 1.27079 0
M  V30 1963 O 201.218 -0.866332 1.5113 0
M  V30 1964 C 198.35 -1.59686 3.01186 0
M  V30 1965 H 199.543 0.211233 2.99155 0
M  V30 1966 H 197.096 0.147472 1.55603 0
M  V30 1967 H 197.831 -2.27035 2.31572 0
M  V30 1968 H 197.616 -1.20176 3.73229 0
M  V30 1969 H 199.106 -2.17743 3.5634 0
M  V30 1970 N 199.544 -1.57102 0.125237 0
M  V30 1971 C 200.474 -2.18659 -0.819174 0
M  V30 1972 C 201.455 -1.12843 -1.27281 0
M  V30 1973 O 202.64 -1.41104 -1.33429 0
M  V30 1974 C 199.77 -2.79096 -2.06695 0
M  V30 1975 C 198.724 -3.90548 -1.75088 0
M  V30 1976 C 198.05 -4.37821 -3.06948 0
M  V30 1977 C 199.35 -5.12356 -1.01435 0
M  V30 1978 H 201.044 -2.9783 -0.306202 0
M  V30 1979 H 198.59 -1.4326 -0.145839 0
M  V30 1980 H 200.543 -3.2082 -2.73226 0
M  V30 1981 H 199.267 -1.97223 -2.60328 0
M  V30 1982 H 197.926 -3.49409 -1.10944 0
M  V30 1983 H 197.574 -3.52799 -3.58527 0
M  V30 1984 H 197.274 -5.12982 -2.86571 0
M  V30 1985 H 198.798 -4.822 -3.74587 0
M  V30 1986 H 200.212 -5.5106 -1.58132 0
M  V30 1987 H 198.609 -5.9314 -0.911319 0
M  V30 1988 H 199.679 -4.849 -0.00218681 0
M  V30 1989 N 201.022 0.148545 -1.56898 0
M  V30 1990 C 202.27 0.859717 -1.82902 0
M  V30 1991 C 202.591 1.81775 -0.70588 0
M  V30 1992 O 201.861 1.93994 0.272586 0
M  V30 1993 H 200.441 0.320469 -0.674766 0
M  V30 1994 H 203.103 0.142918 -1.94375 0
M  V30 1995 H 202.199 1.4229 -2.77777 0
M  V30 1996 N 202.5 1.5196 0.417844 0
M  V30 1997 C 203.74 1.67262 1.17486 0
M  V30 1998 C 204.104 0.38983 1.88001 0
M  V30 1999 O 205.305 0.418845 2.65517 0
M  V30 2000 C 203.576 2.85526 2.14965 0
M  V30 2001 S 205.135 3.21263 2.98891 0
M  V30 2002 H 201.953 0.589077 0.398132 0
M  V30 2003 H 204.555 1.89927 0.463452 0
M  V30 2004 H 203.259 3.77145 1.61833 0
M  V30 2005 H 202.79 2.65107 2.90657 0
M  V30 2006 H 204.805 2.69208 4.16823 0
M  V30 2007 N 203.978 -0.674533 1.42435 0
M  V30 2008 C 204.908 -1.80009 1.48724 0
M  V30 2009 C 205.889 -1.6659 0.343793 0
M  V30 2010 O 207.074 -1.86007 0.558137 0
M  V30 2011 C 204.204 -3.18306 1.38919 0
M  V30 2012 C 203.158 -3.46461 2.51294 0
M  V30 2013 C 202.484 -4.84335 2.26547 0
M  V30 2014 C 203.784 -3.43328 3.93603 0
M  V30 2015 H 205.478 -1.75004 2.42928 0
M  V30 2016 H 203.024 -0.840533 1.16923 0
M  V30 2017 H 204.977 -3.9678 1.41927 0
M  V30 2018 H 203.701 -3.2399 0.412094 0
M  V30 2019 H 202.36 -2.70348 2.47604 0
M  V30 2020 H 202.008 -4.86669 1.2713 0
M  V30 2021 H 201.708 -5.04136 3.01861 0
M  V30 2022 H 203.232 -5.65094 2.31304 0
M  V30 2023 H 204.646 -4.11772 3.98894 0
M  V30 2024 H 203.043 -3.74664 4.68771 0
M  V30 2025 H 204.113 -2.41897 4.20255 0
M  V30 2026 N 205.456 -1.28612 -0.910864 0
M  V30 2027 C 206.702 -1.16106 -1.66274 0
M  V30 2028 C 207.035 0.289113 -1.92036 0
M  V30 2029 O 206.31 1.21 -1.52281 0
M  V30 2030 C 206.593 -1.96309 -3.01885 0
M  V30 2031 C 206.446 -3.49405 -2.8326 0
M  V30 2032 C 207.765 -1.78076 -4.02463 0
M  V30 2033 H 204.884 -0.423152 -0.603417 0
M  V30 2034 H 207.526 -1.57961 -1.05586 0
M  V30 2035 H 205.676 -1.60742 -3.53687 0
M  V30 2036 H 207.348 -3.94894 -2.38446 0
M  V30 2037 H 205.591 -3.74893 -2.18261 0
M  V30 2038 H 206.262 -4.00784 -3.79574 0
M  V30 2039 H 208.738 -2.0912 -3.59733 0
M  V30 2040 H 207.614 -2.36561 -4.95308 0
M  V30 2041 H 207.875 -0.733008 -4.35981 0
M  V30 2042 N 206.934 1.1197 -1.10907 0
M  V30 2043 C 207.881 2.17846 -0.762345 0
M  V30 2044 C 208.851 1.63995 0.263599 0
M  V30 2045 O 210.036 1.90273 0.141773 0
M  V30 2046 C 207.176 3.44487 -0.205651 0
M  V30 2047 C 206.289 4.12369 -1.28748 0
M  V30 2048 C 205.424 5.26674 -0.691919 0
M  V30 2049 C 204.463 5.86431 -1.75399 0
M  V30 2050 N 203.6 6.92142 -1.17833 0
M  V30 2051 H 208.44 2.46851 -1.6694 0
M  V30 2052 H 205.977 1.21188 -0.833776 0
M  V30 2053 H 207.935 4.16981 0.135037 0
M  V30 2054 H 206.565 3.15884 0.664613 0
M  V30 2055 H 205.617 3.38003 -1.74522 0
M  V30 2056 H 206.929 4.52844 -2.09125 0
M  V30 2057 H 206.083 6.05953 -0.300963 0
M  V30 2058 H 204.822 4.8749 0.143232 0
M  V30 2059 H 203.827 5.05835 -2.15432 0
M  V30 2060 H 205.052 6.27685 -2.59208 0
M  V30 2061 H 202.998 6.54985 -0.364725 0
M  V30 2062 H 202.915 7.31242 -1.91887 0
M  V30 2063 H 204.183 7.75237 -0.81408 0
M  V30 2064 N 208.412 0.89855 1.29475 0
M  V30 2065 C 209.689 0.443416 1.90508 0
M  V30 2066 C 210.069 -1.07685 1.81569 0
M  V30 2067 O 209.417 -1.9182 1.24166 0
M  V30 2068 C 209.627 0.956708 3.35631 0
M  V30 2069 C 210.975 0.999728 4.12663 0
M  V30 2070 O 211.999 0.904299 3.4453 0
M  V30 2071 O 210.858 1.14289 5.34416 0
M  V30 2072 H 207.952 0.138025 0.815401 0
M  V30 2073 H 210.498 0.98834 1.37949 0
M  V30 2074 H 209.27 2.00067 3.36287 0
M  V30 2075 H 208.893 0.391728 3.95666 0
M  V30 2076 N 209.89 -1.43072 0.660911 0
M  V30 2077 C 211.12 -2.05769 0.185153 0
M  V30 2078 C 211.528 -1.49668 -1.15742 0
M  V30 2079 O 210.871 -0.625649 -1.72717 0
M  V30 2080 C 210.933 -3.59489 0.0278237 0
M  V30 2081 C 210.597 -4.38212 1.2969 0
M  V30 2082 C 211.594 -4.69772 2.22734 0
M  V30 2083 C 209.279 -4.7809 1.54063 0
M  V30 2084 C 211.273 -5.40129 3.38437 0
M  V30 2085 C 208.96 -5.4819 2.70058 0
M  V30 2086 C 209.958 -5.79132 3.62071 0
M  V30 2087 O 209.646 -6.47798 4.76039 0
M  V30 2088 H 209.378 -0.669873 0.0908086 0
M  V30 2089 H 211.932 -1.84436 0.90402 0
M  V30 2090 H 210.162 -3.79426 -0.746489 0
M  V30 2091 H 211.851 -4.03862 -0.406275 0
M  V30 2092 H 212.617 -4.39476 2.05149 0
M  V30 2093 H 208.496 -4.53408 0.833215 0
M  V30 2094 H 212.04 -5.64198 4.10277 0
M  V30 2095 H 207.937 -5.77902 2.87574 0
M  V30 2096 H 208.705 -6.66283 4.75404 0
M  V30 2097 N 211.368 -0.403325 -1.52352 0
M  V30 2098 C 212.615 0.174347 -2.01748 0
M  V30 2099 C 212.943 1.45636 -1.2892 0
M  V30 2100 O 212.198 1.9193 -0.382258 0
M  V30 2101 C 212.497 0.474665 -3.54234 0
M  V30 2102 C 212.163 -0.717458 -4.45155 0
M  V30 2103 C 210.825 -1.04447 -4.69728 0
M  V30 2104 C 213.177 -1.51432 -4.98716 0
M  V30 2105 C 210.505 -2.16963 -5.45109 0
M  V30 2106 C 212.857 -2.6302 -5.75329 0
M  V30 2107 C 211.521 -2.96213 -5.98175 0
M  V30 2108 H 210.791 0.0637981 -0.738248 0
M  V30 2109 H 213.438 -0.543553 -1.83624 0
M  V30 2110 H 211.743 1.27406 -3.70506 0
M  V30 2111 H 213.44 0.934496 -3.89959 0
M  V30 2112 H 210.03 -0.452596 -4.26204 0
M  V30 2113 H 214.214 -1.27491 -4.79645 0
M  V30 2114 H 209.47 -2.43034 -5.61021 0
M  V30 2115 H 213.644 -3.25158 -6.15829 0
M  V30 2116 H 211.271 -3.83516 -6.56368 0
M  V30 2117 N 212.846 1.57033 -0.133567 0
M  V30 2118 C 214.257 1.82593 0.389464 0
M  V30 2119 C 214.608 1.05156 1.6564 0
M  V30 2120 O 213.733 0.292644 2.14412 0
M  V30 2121 C 214.328 3.31204 0.713377 0
M  V30 2122 C 212.887 3.57393 1.18098 0
M  V30 2123 C 212.034 2.76598 0.197126 0
M  V30 2124 H 214.985 1.54598 -0.358481 0
M  V30 2125 H 215.006 3.46627 1.56939 0
M  V30 2126 H 214.518 3.87537 -0.2089 0
M  V30 2127 H 212.619 3.06433 2.11966 0
M  V30 2128 H 212.732 4.65915 1.11624 0
M  V30 2129 H 211.096 2.45257 0.687088 0
M  V30 2130 H 211.879 3.35697 -0.718504 0
M  V30 2131 N 214.325 -0.140222 1.56975 0
M  V30 2132 C 215.235 -1.19223 2.02047 0
M  V30 2133 C 216.251 -1.46612 0.937062 0
M  V30 2134 O 217.427 -1.58148 1.24704 0
M  V30 2135 C 214.492 -2.50414 2.39778 0
M  V30 2136 C 213.553 -2.30612 3.621 0
M  V30 2137 C 212.786 -3.55547 3.98023 0
M  V30 2138 O 213.009 -4.62004 3.34528 0
M  V30 2139 O 211.943 -3.47808 4.91237 0
M  V30 2140 H 215.769 -0.839559 2.91865 0
M  V30 2141 H 213.354 -0.349453 1.45256 0
M  V30 2142 H 215.236 -3.27747 2.64877 0
M  V30 2143 H 213.911 -2.85198 1.53114 0
M  V30 2144 H 212.818 -1.51207 3.4218 0
M  V30 2145 H 214.151 -2.00741 4.49404 0
M  V30 2146 N 215.803 -1.52179 -0.40978 0
M  V30 2147 C 217.214 -1.58377 -0.988615 0
M  V30 2148 C 217.565 -0.423879 -1.91566 0
M  V30 2149 O 216.69 0.455844 -2.11544 0
M  V30 2150 C 217.285 -2.87044 -1.79976 0
M  V30 2151 C 215.844 -2.95722 -2.32863 0
M  V30 2152 C 214.991 -2.53309 -1.12828 0
M  V30 2153 H 217.942 -1.57558 -0.190039 0
M  V30 2154 H 217.963 -2.7236 -2.65707 0
M  V30 2155 H 217.475 -3.71444 -1.12478 0
M  V30 2156 H 215.576 -2.15814 -3.03735 0
M  V30 2157 H 215.689 -3.99951 -2.63773 0
M  V30 2158 H 214.053 -2.07142 -1.48204 0
M  V30 2159 H 214.836 -3.40082 -0.46897 0
M  V30 2160 N 217.281 0.66697 -1.42791 0
M  V30 2161 C 218.527 1.4291 -1.43891 0
M  V30 2162 C 218.86 1.94114 -0.0578972 0
M  V30 2163 O 218.135 1.71414 0.91911 0
M  V30 2164 C 218.418 2.62049 -2.46987 0
M  V30 2165 C 218.271 2.16426 -3.94309 0
M  V30 2166 C 219.59 3.64266 -2.46978 0
M  V30 2167 H 216.709 0.518306 -0.523954 0
M  V30 2168 H 219.351 0.757321 -1.74255 0
M  V30 2169 H 217.501 3.19361 -2.21225 0
M  V30 2170 H 219.173 1.64221 -4.31079 0
M  V30 2171 H 217.416 1.47925 -4.078 0
M  V30 2172 H 218.087 3.02038 -4.62036 0
M  V30 2173 H 220.563 3.16686 -2.69906 0
M  V30 2174 H 219.439 4.45196 -3.21079 0
M  V30 2175 H 219.7 4.15927 -1.49857 0
M  V30 2176 N 218.759 1.29093 0.90403 0
M  V30 2177 C 219.987 1.19689 1.68766 0
M  V30 2178 C 220.402 -0.243113 1.87228 0
M  V30 2179 O 219.759 -1.16326 1.40621 0
M  V30 2180 C 219.81 1.90144 3.07453 0
M  V30 2181 O 219.531 3.2852 2.89838 0
M  V30 2182 C 221.032 1.87162 4.01852 0
M  V30 2183 H 218.252 0.415035 0.527244 0
M  V30 2184 H 220.796 1.7039 1.13082 0
M  V30 2185 H 218.951 1.43289 3.59926 0
M  V30 2186 H 219.365 3.63944 3.77684 0
M  V30 2187 H 220.839 2.41032 4.96596 0
M  V30 2188 H 221.316 0.84617 4.30972 0
M  V30 2189 H 221.922 2.33741 3.5531 0
M  V30 2190 N 220.237 -1.11381 1.11499 0
M  V30 2191 C 221.483 -1.83403 0.865512 0
M  V30 2192 C 221.816 -1.84459 -0.607329 0
M  V30 2193 O 221.091 -1.29811 -1.44842 0
M  V30 2194 C 221.374 -3.30552 1.42855 0
M  V30 2195 C 221.227 -3.37886 2.96906 0
M  V30 2196 C 222.546 -4.26643 1.08 0
M  V30 2197 H 219.665 -0.665879 0.31587 0
M  V30 2198 H 222.307 -1.30601 1.37998 0
M  V30 2199 H 220.457 -3.75648 0.990985 0
M  V30 2200 H 222.129 -3.01343 3.49271 0
M  V30 2201 H 220.372 -2.78088 3.32941 0
M  V30 2202 H 221.043 -4.41458 3.31389 0
M  V30 2203 H 223.519 -3.89729 1.45775 0
M  V30 2204 H 222.395 -5.27986 1.50072 0
M  V30 2205 H 222.656 -4.42099 -0.00915037 0
M  V30 2206 N 221.715 -0.905404 -1.28997 0
M  V30 2207 C 222.94 -0.549175 -1.99997 0
M  V30 2208 C 223.365 0.860276 -1.67275 0
M  V30 2209 O 222.723 1.57355 -0.900502 0
M  V30 2210 C 222.771 -0.755185 -3.52604 0
M  V30 2211 O 221.875 0.189692 -4.11964 0
M  V30 2212 H 221.216 -0.213899 -0.628604 0
M  V30 2213 H 223.746 -1.21856 -1.64354 0
M  V30 2214 H 223.756 -0.662045 -4.02593 0
M  V30 2215 H 222.431 -1.78271 -3.75755 0
M  V30 2216 H 221.008 0.0485257 -3.72868 0
M  V30 2217 N 223.193 1.4272 -0.668489 0
M  V30 2218 C 224.439 2.02443 -0.197076 0
M  V30 2219 C 224.794 1.51882 1.18109 0
M  V30 2220 O 224.087 0.708618 1.78015 0
M  V30 2221 C 224.281 3.57021 -0.164499 0
M  V30 2222 C 224.11 4.22583 -1.53797 0
M  V30 2223 C 222.88 4.58019 -2.13416 0
M  V30 2224 C 225.078 4.50588 -2.47941 0
M  V30 2225 N 223.06 5.08729 -3.4361 0
M  V30 2226 C 224.431 5.02782 -3.62782 0
M  V30 2227 C 226.486 4.32571 -2.46551 0
M  V30 2228 C 225.189 5.38852 -4.76478 0
M  V30 2229 C 227.215 4.69713 -3.59338 0
M  V30 2230 C 226.577 5.22053 -4.72906 0
M  V30 2231 H 222.676 0.773214 -0.116894 0
M  V30 2232 H 225.26 1.73673 -0.880108 0
M  V30 2233 H 223.431 3.85323 0.487925 0
M  V30 2234 H 225.163 4.03439 0.319207 0
M  V30 2235 H 221.918 4.43566 -1.65969 0
M  V30 2236 H 222.342 5.38521 -4.10273 0
M  V30 2237 H 226.984 3.91365 -1.59978 0
M  V30 2238 H 224.702 5.78993 -5.63731 0
M  V30 2239 H 228.288 4.57454 -3.59482 0
M  V30 2240 H 227.168 5.50258 -5.58736 0
M  V30 2241 N 224.671 0.411399 1.52136 0
M  V30 2242 C 225.619 -0.427633 2.28635 0
M  V30 2243 C 226.613 -1.04383 1.33419 0
M  V30 2244 O 227.819 -0.981772 1.50868 0
M  V30 2245 H 224.194 -0.156689 0.735495 0
M  V30 2246 H 226.165 0.238761 2.97443 0
M  V30 2247 C 224.914 -1.53082 3.12188 0
M  V30 2248 H 224.237 -1.06601 3.85326 0
M  V30 2249 H 225.677 -2.09167 3.68816 0
M  V30 2250 C 224.136 -2.49946 2.25895 0
M  V30 2251 O 224.666 -3.53884 1.90076 0
M  V30 2252 N 222.872 -2.2021 1.8962 0
M  V30 2253 H 222.419 -1.35719 2.18948 0
M  V30 2254 H 222.377 -2.85266 1.32176 0
M  V30 2255 N 226.149 -1.5696 0.141893 0
M  V30 2256 C 227.374 -2.00754 -0.520838 0
M  V30 2257 C 227.799 -1.0213 -1.57959 0
M  V30 2258 O 227.157 0.00371324 -1.813 0
M  V30 2259 C 227.205 -3.43318 -1.10294 0
M  V30 2260 O 226.309 -3.47679 -2.21795 0
M  V30 2261 H 225.65 -0.651564 -0.127908 0
M  V30 2262 H 228.18 -2.03221 0.23712 0
M  V30 2263 H 228.19 -3.82012 -1.43287 0
M  V30 2264 H 226.865 -4.14608 -0.327574 0
M  V30 2265 H 225.442 -3.20824 -1.9007 0
M  V30 2266 N 227.627 0.131896 -1.57047 0
M  V30 2267 C 228.875 0.840269 -1.83804 0
M  V30 2268 C 229.196 1.81017 -0.72512 0
M  V30 2269 O 228.466 1.94272 0.251995 0
M  V30 2270 H 227.046 0.313294 -0.678127 0
M  V30 2271 H 229.708 0.122294 -1.94516 0
M  V30 2272 H 228.804 1.39335 -2.79271 0
M  V30 2273 N 229.106 1.52395 0.401703 0
M  V30 2274 C 230.069 1.75636 1.47257 0
M  V30 2275 C 231.069 0.62628 1.48103 0
M  V30 2276 O 232.259 0.894227 1.49497 0
M  V30 2277 C 229.391 1.84553 2.86624 0
M  V30 2278 H 230.584 2.71241 1.27938 0
M  V30 2279 H 228.137 1.42923 0.632662 0
M  V30 2280 H 228.872 0.908882 3.11303 0
M  V30 2281 H 228.657 2.66715 2.87412 0
M  V30 2282 H 230.147 2.04251 3.64241 0
M  V30 2283 N 230.584 -0.659388 1.43143 0
M  V30 2284 C 231.514 -1.78422 1.50625 0
M  V30 2285 C 232.495 -1.66216 0.361443 0
M  V30 2286 O 233.68 -1.85404 0.577834 0
M  V30 2287 C 230.81 -3.16815 1.42287 0
M  V30 2288 C 229.764 -3.43777 2.54954 0
M  V30 2289 C 229.09 -4.81905 2.31671 0
M  V30 2290 C 230.39 -3.39134 3.97222 0
M  V30 2291 H 232.084 -1.72417 2.44771 0
M  V30 2292 H 229.63 -0.828084 1.17808 0
M  V30 2293 H 231.583 -3.95253 1.46127 0
M  V30 2294 H 230.307 -3.23534 0.446435 0
M  V30 2295 H 228.966 -2.67707 2.50457 0
M  V30 2296 H 228.614 -4.85294 1.32284 0
M  V30 2297 H 228.314 -5.00906 3.07192 0
M  V30 2298 H 229.838 -5.62609 2.37284 0
M  V30 2299 H 231.252 -4.07518 4.03239 0
M  V30 2300 H 229.649 -3.69671 4.72719 0
M  V30 2301 H 230.719 -2.37426 4.22797 0
M  V30 2302 N 232.062 -1.29571 -0.897171 0
M  V30 2303 C 233.29 -1.20583 -1.68129 0
M  V30 2304 C 233.705 0.233181 -1.87354 0
M  V30 2305 O 233.062 1.15579 -1.41236 0
M  V30 2306 C 233.113 -1.91772 -3.06441 0
M  V30 2307 O 232.834 -3.30053 -2.88091 0
M  V30 2308 C 234.335 -1.89291 -4.00854 0
M  V30 2309 H 231.555 -0.417826 -0.525036 0
M  V30 2310 H 234.099 -1.70987 -1.12177 0
M  V30 2311 H 232.254 -1.45196 -3.59161 0
M  V30 2312 H 232.668 -3.65942 -3.75748 0
M  V30 2313 H 234.142 -2.43662 -4.95311 0
M  V30 2314 H 234.619 -0.869014 -4.30517 0
M  V30 2315 H 235.225 -2.35622 -3.54066 0
M  V30 2316 N 233.54 1.10788 -1.12088 0
M  V30 2317 C 234.765 1.87002 -0.896949 0
M  V30 2318 C 235.19 1.79933 0.548261 0
M  V30 2319 O 234.548 1.16662 1.38779 0
M  V30 2320 C 234.596 3.3349 -1.37174 0
M  V30 2321 O 233.7 4.08745 -0.547831 0
M  V30 2322 H 233.041 0.580397 -0.322545 0
M  V30 2323 H 235.571 1.39996 -1.49206 0
M  V30 2324 H 235.581 3.84339 -1.36922 0
M  V30 2325 H 234.256 3.37951 -2.42408 0
M  V30 2326 H 232.833 3.6776 -0.617034 0
M  V30 2327 N 235.018 0.912232 1.28515 0
M  V30 2328 C 236.266 0.543523 1.94654 0
M  V30 2329 C 236.587 -0.9155 1.72173 0
M  V30 2330 O 235.857 -1.64708 1.06058 0
M  V30 2331 H 234.437 0.198017 0.720277 0
M  V30 2332 H 237.099 1.16126 1.56527 0
M  V30 2333 H 236.195 0.736684 3.03281 0
M  V30 2334 N 236.496 -1.42363 0.676048 0
M  V30 2335 C 237.742 -2.0182 0.199125 0
M  V30 2336 C 238.075 -1.53339 -1.19168 0
M  V30 2337 O 237.35 -0.736124 -1.80032 0
M  V30 2338 C 237.633 -3.59331 0.235144 0
M  V30 2339 C 237.486 -4.17989 1.66149 0
M  V30 2340 C 238.805 -4.3813 -0.41595 0
M  V30 2341 H 235.924 -0.733293 0.0738311 0
M  V30 2342 H 238.566 -1.69368 0.86107 0
M  V30 2343 H 236.716 -3.87109 -0.328487 0
M  V30 2344 H 238.388 -4.0116 2.27747 0
M  V30 2345 H 236.631 -3.7377 2.20178 0
M  V30 2346 H 237.302 -5.27126 1.63837 0
M  V30 2347 H 239.778 -4.16051 0.0638529 0
M  V30 2348 H 238.654 -5.47717 -0.360115 0
M  V30 2349 H 238.915 -4.16101 -1.49373 0
M  V30 2350 N 237.974 -0.419461 -1.51915 0
M  V30 2351 C 238.924 0.418496 -2.24126 0
M  V30 2352 C 239.908 1.00495 -1.25656 0
M  V30 2353 O 241.1 0.926058 -1.50842 0
M  V30 2354 C 238.229 1.52899 -3.07371 0
M  V30 2355 C 237.315 0.952797 -4.13258 0
M  V30 2356 N 237.706 0.104175 -5.05693 0
M  V30 2357 C 236.004 1.22224 -4.28926 0
M  V30 2358 C 236.705 -0.21752 -5.81293 0
M  V30 2359 N 235.681 0.394293 -5.42168 0
M  V30 2360 H 239.483 -0.236048 -2.92951 0
M  V30 2361 H 236.997 -0.230481 -1.60756 0
M  V30 2362 H 238.994 2.14199 -3.57665 0
M  V30 2363 H 237.654 2.18605 -2.40088 0
M  V30 2364 H 238.665 -0.260924 -5.17242 0
M  V30 2365 H 235.342 1.87812 -3.72871 0
M  V30 2366 H 236.732 -0.906992 -6.6575 0
M  V30 2367 N 239.452 1.56882 -0.150215 0
M  V30 2368 C 240.68 2.00593 0.506948 0
M  V30 2369 C 241.095 1.03033 1.58208 0
M  V30 2370 O 240.452 0.0278396 1.82479 0
M  V30 2371 C 240.503 3.44209 1.10465 0
M  V30 2372 O 240.224 4.3804 0.0724636 0
M  V30 2373 C 241.725 4.03214 1.84211 0
M  V30 2374 H 238.945 0.65795 0.13169 0
M  V30 2375 H 241.489 2.03018 -0.245743 0
M  V30 2376 H 239.644 3.42625 1.80795 0
M  V30 2377 H 240.058 5.22007 0.510793 0
M  V30 2378 H 241.532 5.0569 2.21318 0
M  V30 2379 H 242.009 3.44107 2.72923 0
M  V30 2380 H 242.615 4.08437 1.18572 0
M  V30 2381 N 240.93 -0.123565 1.57115 0
M  V30 2382 C 242.177 -0.832153 1.84612 0
M  V30 2383 C 242.505 -1.80093 0.734627 0
M  V30 2384 O 241.76 -1.93766 -0.27442 0
M  V30 2385 C 242.059 -1.62016 3.18568 0
M  V30 2386 C 241.725 -0.796084 4.43817 0
M  V30 2387 C 240.387 -0.568816 4.77826 0
M  V30 2388 C 242.739 -0.221364 5.2073 0
M  V30 2389 C 240.067 0.243499 5.86194 0
M  V30 2390 C 242.419 0.578117 6.29953 0
M  V30 2391 C 241.083 0.815744 6.62497 0
M  V30 2392 H 240.353 -0.304507 0.675542 0
M  V30 2393 H 243 -0.0947248 1.91266 0
M  V30 2394 H 241.305 -2.42837 3.0747 0
M  V30 2395 H 243.002 -2.17231 3.37064 0
M  V30 2396 H 239.592 -0.983307 4.17168 0
M  V30 2397 H 243.776 -0.384173 4.94811 0
M  V30 2398 H 239.032 0.436871 6.09837 0
M  V30 2399 H 243.206 1.03046 6.88734 0
M  V30 2400 H 240.833 1.44701 7.46301 0
M  V30 2401 N 242.408 -1.52605 -0.393616 0
M  V30 2402 C 243.819 -1.59417 -0.971761 0
M  V30 2403 C 244.17 -0.444173 -1.91106 0
M  V30 2404 O 243.295 0.433382 -2.12016 0
M  V30 2405 C 243.89 -2.88936 -1.76921 0
M  V30 2406 C 242.449 -2.98175 -2.29714 0
M  V30 2407 C 241.596 -2.54491 -1.10135 0
M  V30 2408 H 244.547 -1.57751 -0.173317 0
M  V30 2409 H 244.568 -2.75163 -2.62804 0
M  V30 2410 H 244.08 -3.72616 -1.08532 0
M  V30 2411 H 242.181 -2.19024 -3.01429 0
M  V30 2412 H 242.294 -4.02726 -2.59517 0
M  V30 2413 H 240.658 -2.08702 -1.45999 0
M  V30 2414 H 241.441 -3.4056 -0.432874 0
M  V30 2415 N 243.887 0.651787 -1.4349 0
M  V30 2416 C 244.85 1.74647 -1.48429 0
M  V30 2417 C 245.85 1.56513 -0.368817 0
M  V30 2418 O 247.04 1.62385 -0.630623 0
M  V30 2419 C 244.172 3.13533 -1.33827 0
M  V30 2420 H 245.365 1.71649 -2.4592 0
M  V30 2421 H 242.918 0.863573 -1.30277 0
M  V30 2422 H 243.653 3.22142 -0.37349 0
M  V30 2423 H 243.438 3.28101 -2.14691 0
M  V30 2424 H 244.928 3.93356 -1.40218 0
M  V30 2425 N 245.365 1.30045 0.890287 0
M  V30 2426 C 246.611 1.18737 1.64406 0
M  V30 2427 C 246.944 -0.258525 1.92472 0
M  V30 2428 O 246.219 -1.18562 1.54186 0
M  V30 2429 C 246.502 2.01087 2.98724 0
M  V30 2430 C 246.355 3.53867 2.77665 0
M  V30 2431 C 247.674 1.84457 3.9958 0
M  V30 2432 H 244.793 0.432698 0.596608 0
M  V30 2433 H 247.435 1.5962 1.0306 0
M  V30 2434 H 245.585 1.66349 3.51084 0
M  V30 2435 H 247.257 3.98637 2.32133 0
M  V30 2436 H 245.5 3.78318 2.12269 0
M  V30 2437 H 246.171 4.06772 3.7315 0
M  V30 2438 H 248.647 2.14817 3.56361 0
M  V30 2439 H 247.523 2.44411 4.91482 0
M  V30 2440 H 247.784 0.802276 4.3476 0
M  V30 2441 N 246.843 -1.10192 1.12674 0
M  V30 2442 C 247.773 -2.18652 0.819362 0
M  V30 2443 C 248.754 -1.68698 -0.217915 0
M  V30 2444 O 249.939 -1.94041 -0.0785581 0
M  V30 2445 C 247.069 -3.46202 0.27594 0
M  V30 2446 C 246.023 -4.09444 1.24656 0
M  V30 2447 C 245.349 -5.31725 0.563258 0
M  V30 2448 C 246.649 -4.52863 2.60217 0
M  V30 2449 H 248.343 -2.44622 1.72628 0
M  V30 2450 H 245.889 -1.17571 0.831451 0
M  V30 2451 H 247.842 -4.21372 0.0486149 0
M  V30 2452 H 246.566 -3.1973 -0.666331 0
M  V30 2453 H 245.225 -3.36284 1.45974 0
M  V30 2454 H 244.873 -5.0153 -0.384235 0
M  V30 2455 H 244.573 -5.74991 1.21075 0
M  V30 2456 H 246.097 -6.09624 0.34503 0
M  V30 2457 H 247.511 -5.19294 2.42913 0
M  V30 2458 H 245.908 -5.06986 3.21068 0
M  V30 2459 H 246.978 -3.65656 3.18471 0
M  V30 2460 N 248.321 -0.919034 -1.28029 0
M  V30 2461 C 249.253 -0.368762 -2.26214 0
M  V30 2462 C 250.266 0.495716 -1.55069 0
M  V30 2463 O 251.455 0.30974 -1.75792 0
M  V30 2464 C 248.555 0.491049 -3.35324 0
M  V30 2465 C 247.728 -0.352133 -4.3598 0
M  V30 2466 C 246.787 0.443622 -5.24327 0
M  V30 2467 O 245.813 -0.14566 -5.69014 0
M  V30 2468 N 247.015 1.74545 -5.53637 0
M  V30 2469 H 249.78 -1.21273 -2.74068 0
M  V30 2470 H 247.341 -0.785541 -1.41566 0
M  V30 2471 H 249.333 1.03026 -3.91366 0
M  V30 2472 H 247.903 1.23574 -2.87138 0
M  V30 2473 H 247.123 -1.07269 -3.79324 0
M  V30 2474 H 248.411 -0.928883 -5.00249 0
M  V30 2475 H 247.809 2.24666 -5.19174 0
M  V30 2476 H 246.366 2.23138 -6.12416 0
M  V30 2477 N 249.799 1.42003 -0.683588 0
M  V30 2478 C 251.024 2.06265 -0.216647 0
M  V30 2479 C 251.449 1.51059 1.12083 0
M  V30 2480 O 250.807 0.632638 1.69904 0
M  V30 2481 C 250.855 3.60191 -0.171759 0
M  V30 2482 O 249.959 4.03396 0.857069 0
M  V30 2483 H 249.3 0.65502 -0.108834 0
M  V30 2484 H 251.83 1.81982 -0.935077 0
M  V30 2485 H 251.84 4.08 0.0014303 0
M  V30 2486 H 250.515 3.99743 -1.14796 0
M  V30 2487 H 249.092 3.67117 0.654208 0
M  V30 2488 N 251.277 0.427512 1.51691 0
M  V30 2489 C 252.502 -0.143601 2.06902 0
M  V30 2490 C 252.927 -1.36536 1.29382 0
M  V30 2491 O 252.285 -1.78289 0.329043 0
M  V30 2492 C 252.333 -0.454207 3.57728 0
M  V30 2493 O 251.437 -1.54228 3.82475 0
M  V30 2494 H 250.778 -0.00617128 0.663971 0
M  V30 2495 H 253.308 0.606014 1.95419 0
M  V30 2496 H 253.318 -0.707525 4.01818 0
M  V30 2497 H 251.993 0.438812 4.13579 0
M  V30 2498 H 250.57 -1.2797 3.50254 0
M  V30 2499 N 252.755 -1.56801 0.158532 0
M  V30 2500 C 254.003 -1.96102 -0.488712 0
M  V30 2501 C 254.324 -1.04498 -1.64636 0
M  V30 2502 O 253.594 -0.108783 -1.95598 0
M  V30 2503 H 252.174 -0.724102 -0.183535 0
M  V30 2504 H 254.836 -1.93457 0.236728 0
M  V30 2505 H 253.932 -3.00097 -0.857219 0
M  V30 2506 N 254.233 0.115231 -1.57178 0
M  V30 2507 C 255.163 1.1423 -2.03651 0
M  V30 2508 C 256.144 1.42967 -0.921655 0
M  V30 2509 O 257.329 1.53343 -1.19162 0
M  V30 2510 C 254.459 2.4675 -2.44401 0
M  V30 2511 C 253.413 2.32467 -3.59365 0
M  V30 2512 C 252.739 3.69984 -3.86026 0
M  V30 2513 C 254.039 1.78203 -4.90959 0
M  V30 2514 H 255.733 0.755749 -2.89705 0
M  V30 2515 H 253.279 0.362093 -1.39373 0
M  V30 2516 H 255.232 3.18854 -2.75517 0
M  V30 2517 H 253.956 2.87302 -1.55322 0
M  V30 2518 H 252.615 1.62811 -3.28463 0
M  V30 2519 H 252.263 4.08028 -2.94147 0
M  V30 2520 H 251.963 3.61279 -4.63412 0
M  V30 2521 H 253.487 4.43587 -4.19599 0
M  V30 2522 H 254.901 2.40128 -5.20587 0
M  V30 2523 H 253.298 1.8031 -5.72371 0
M  V30 2524 H 254.368 0.739876 -4.79222 0
M  V30 2525 N 255.711 1.52812 0.385517 0
M  V30 2526 C 256.941 1.71658 1.14966 0
M  V30 2527 C 257.349 0.436253 1.84102 0
M  V30 2528 O 256.692 -0.599313 1.73649 0
M  V30 2529 C 256.754 2.81309 2.23843 0
M  V30 2530 C 256.418 4.22313 1.74644 0
M  V30 2531 C 257.415 5.05352 1.22129 0
M  V30 2532 C 255.1 4.68648 1.80761 0
M  V30 2533 C 257.094 6.32807 0.763838 0
M  V30 2534 C 254.781 5.96086 1.34627 0
M  V30 2535 C 255.779 6.77996 0.825264 0
M  V30 2536 O 255.467 8.03045 0.370669 0
M  V30 2537 H 255.199 0.578022 0.350523 0
M  V30 2538 H 257.753 2.00263 0.456509 0
M  V30 2539 H 255.983 2.48133 2.96592 0
M  V30 2540 H 257.672 2.88524 2.85497 0
M  V30 2541 H 258.438 4.70736 1.16758 0
M  V30 2542 H 254.317 4.04979 2.20256 0
M  V30 2543 H 257.861 6.96689 0.356494 0
M  V30 2544 H 253.758 6.30205 1.39686 0
M  V30 2545 H 254.526 8.17021 0.491829 0
M  V30 2546 N 257.189 -0.644168 1.43834 0
M  V30 2547 C 258.414 -1.43642 1.49605 0
M  V30 2548 C 258.839 -1.8773 0.117913 0
M  V30 2549 O 258.197 -1.57938 -0.890239 0
M  V30 2550 C 258.245 -2.6416 2.45463 0
M  V30 2551 O 257.349 -3.63538 1.94714 0
M  V30 2552 H 256.69 -0.430329 0.50568 0
M  V30 2553 H 259.22 -0.787448 1.8884 0
M  V30 2554 H 259.23 -3.11864 2.63068 0
M  V30 2555 H 257.905 -2.31414 3.45572 0
M  V30 2556 H 256.482 -3.2273 1.86814 0
M  V30 2557 N 258.668 -1.30515 -0.883378 0
M  V30 2558 C 259.598 -1.19607 -2.00541 0
M  V30 2559 C 260.579 -0.086346 -1.69881 0
M  V30 2560 O 261.764 -0.268654 -1.92333 0
M  V30 2561 C 258.894 -0.888758 -3.35736 0
M  V30 2562 C 257.848 -1.95659 -3.8066 0
M  V30 2563 C 257.174 -1.50224 -5.13164 0
M  V30 2564 C 258.474 -3.36788 -3.99213 0
M  V30 2565 H 260.168 -2.13476 -2.09925 0
M  V30 2566 H 257.714 -1.02775 -1.00863 0
M  V30 2567 H 259.667 -0.799094 -4.13754 0
M  V30 2568 H 258.391 0.0856125 -3.26488 0
M  V30 2569 H 257.05 -2.03591 -3.04871 0
M  V30 2570 H 256.698 -0.516092 -5.00345 0
M  V30 2571 H 256.398 -2.2165 -5.44192 0
M  V30 2572 H 257.922 -1.42639 -5.93706 0
M  V30 2573 H 259.336 -3.31605 -4.67665 0
M  V30 2574 H 257.733 -4.06314 -4.41621 0
M  V30 2575 H 258.803 -3.78561 -3.03017 0
M  V30 2576 N 260.146 1.09593 -1.13257 0
M  V30 2577 C 261.371 1.8604 -0.916732 0
M  V30 2578 C 261.796 1.80504 0.529146 0
M  V30 2579 O 261.154 1.18127 1.37534 0
M  V30 2580 C 261.202 3.32017 -1.40703 0
M  V30 2581 O 260.306 4.08141 -0.591153 0
M  V30 2582 H 259.647 0.576943 -0.328683 0
M  V30 2583 H 262.177 1.38405 -1.50682 0
M  V30 2584 H 262.187 3.82865 -1.4099 0
M  V30 2585 H 260.862 3.35361 -2.45979 0
M  V30 2586 H 259.439 3.67084 -0.656005 0
M  V30 2587 N 261.624 0.925811 1.2754 0
M  V30 2588 C 262.849 0.580924 1.99098 0
M  V30 2589 C 263.274 -0.833555 1.68622 0
M  V30 2590 O 262.632 -1.55903 0.925422 0
M  V30 2591 C 262.68 0.811186 3.51358 0
M  V30 2592 O 261.784 -0.124129 4.12213 0
M  V30 2593 H 261.125 0.223873 0.625122 0
M  V30 2594 H 263.655 1.24455 1.62395 0
M  V30 2595 H 263.665 0.72601 4.01489 0
M  V30 2596 H 262.34 1.84227 3.72872 0
M  V30 2597 H 260.917 0.0108006 3.72898 0
M  V30 2598 N 263.102 -1.41638 0.69111 0
M  V30 2599 C 264.348 -2.01598 0.220519 0
M  V30 2600 C 264.681 -1.54594 -1.17535 0
M  V30 2601 O 263.956 -0.755177 -1.79241 0
M  V30 2602 C 264.239 -3.59062 0.273243 0
M  V30 2603 C 264.092 -4.16203 1.70573 0
M  V30 2604 C 265.411 -4.38546 -0.369457 0
M  V30 2605 H 262.53 -0.732468 0.0816045 0
M  V30 2606 H 265.172 -1.68445 0.878986 0
M  V30 2607 H 263.322 -3.87435 -0.287411 0
M  V30 2608 H 264.994 -3.98722 2.31989 0
M  V30 2609 H 263.237 -3.71414 2.2413 0
M  V30 2610 H 263.908 -5.25358 1.69419 0
M  V30 2611 H 266.384 -4.1596 0.107977 0
M  V30 2612 H 265.26 -5.48069 -0.302002 0
M  V30 2613 H 265.521 -4.17662 -1.44951 0
M  V30 2614 N 264.58 -0.43555 -1.51462 0
M  V30 2615 C 265.826 0.131709 -2.02372 0
M  V30 2616 C 266.159 1.42516 -1.3192 0
M  V30 2617 O 265.434 1.89606 -0.433573 0
M  V30 2618 C 265.717 0.352301 -3.58373 0
M  V30 2619 C 265.57 -0.959676 -4.39443 0
M  V30 2620 C 266.889 1.12286 -4.25535 0
M  V30 2621 H 264.008 0.0463936 -0.735538 0
M  V30 2622 H 266.65 -0.574197 -1.81116 0
M  V30 2623 H 264.8 0.9536 -3.76615 0
M  V30 2624 H 266.472 -1.59482 -4.32855 0
M  V30 2625 H 264.715 -1.56468 -4.04599 0
M  V30 2626 H 265.386 -0.759394 -5.46752 0
M  V30 2627 H 267.862 0.613545 -4.11552 0
M  V30 2628 H 266.738 1.24598 -5.34571 0
M  V30 2629 H 266.999 2.15048 -3.86273 0
M  V30 2630 N 266.058 1.56714 -0.166846 0
M  V30 2631 C 267.286 2.0112 0.485644 0
M  V30 2632 C 267.701 1.04705 1.57106 0
M  V30 2633 O 267.058 0.0471923 1.82439 0
M  V30 2634 C 267.109 3.45361 1.06808 0
M  V30 2635 O 266.83 4.38092 0.0259995 0
M  V30 2636 C 268.331 4.05145 1.79924 0
M  V30 2637 H 265.551 0.65931 0.124704 0
M  V30 2638 H 268.095 2.02746 -0.267262 0
M  V30 2639 H 266.25 3.44524 1.7715 0
M  V30 2640 H 266.664 5.22519 0.455398 0
M  V30 2641 H 268.138 5.08009 2.15942 0
M  V30 2642 H 268.615 3.46982 2.69258 0
M  V30 2643 H 269.221 4.09672 1.14234 0
M  V30 2644 N 267.536 -0.106894 1.57237 0
M  V30 2645 C 268.782 -0.81373 1.85759 0
M  V30 2646 C 269.115 -1.78952 0.754315 0
M  V30 2647 O 268.39 -1.93029 -0.23879 0
M  V30 2648 C 268.673 -1.55293 3.24894 0
M  V30 2649 C 268.526 -0.595929 4.45835 0
M  V30 2650 C 269.845 -2.5063 3.61763 0
M  V30 2651 H 266.964 -0.294369 0.67566 0
M  V30 2652 H 269.606 -0.0776472 1.89841 0
M  V30 2653 H 267.756 -2.1804 3.21544 0
M  V30 2654 H 269.428 0.0236262 4.61294 0
M  V30 2655 H 267.671 0.0916191 4.33703 0
M  V30 2656 H 268.342 -1.15004 5.39887 0
M  V30 2657 H 270.818 -1.97982 3.65981 0
M  V30 2658 H 269.694 -2.99376 4.60071 0
M  V30 2659 H 269.955 -3.3385 2.89821 0
M  V30 2660 N 269.014 -1.53014 -0.377408 0
M  V30 2661 C 270.425 -1.60438 -0.954798 0
M  V30 2662 C 270.776 -0.464418 -1.90624 0
M  V30 2663 O 269.901 0.41087 -2.12464 0
M  V30 2664 C 270.496 -2.90797 -1.73847 0
M  V30 2665 C 269.055 -3.00595 -2.26538 0
M  V30 2666 C 268.202 -2.55645 -1.07429 0
M  V30 2667 H 271.153 -1.57926 -0.156575 0
M  V30 2668 H 271.174 -2.77935 -2.5987 0
M  V30 2669 H 270.686 -3.73746 -1.04574 0
M  V30 2670 H 268.787 -2.22208 -2.99089 0
M  V30 2671 H 268.9 -4.05456 -2.5523 0
M  V30 2672 H 267.264 -2.10239 -1.43777 0
M  V30 2673 H 268.047 -3.41 -0.396728 0
M  V30 2674 N 270.492 0.636531 -1.44174 0
M  V30 2675 C 271.717 1.42847 -1.50364 0
M  V30 2676 C 272.142 1.87665 -0.127867 0
M  V30 2677 O 271.5 1.58408 0.88185 0
M  V30 2678 C 271.548 2.62854 -2.4686 0
M  V30 2679 O 270.652 3.62501 -1.9664 0
M  V30 2680 H 269.993 0.427642 -0.507955 0
M  V30 2681 H 272.523 0.777422 -1.89255 0
M  V30 2682 H 272.533 3.10465 -2.64718 0
M  V30 2683 H 271.208 2.29578 -3.46795 0
M  V30 2684 H 269.785 3.21735 -1.88523 0
M  V30 2685 N 271.97 1.30982 0.876444 0
M  V30 2686 C 273.195 1.23373 1.66715 0
M  V30 2687 C 273.62 -0.19885 1.87046 0
M  V30 2688 O 272.978 -1.1427 1.40756 0
M  V30 2689 C 273.026 1.97644 3.01611 0
M  V30 2690 O 272.13 1.30935 3.91062 0
M  V30 2691 H 271.471 0.426279 0.509099 0
M  V30 2692 H 274.001 1.72944 1.09323 0
M  V30 2693 H 274.011 2.06992 3.51594 0
M  V30 2694 H 272.686 3.01829 2.86133 0
M  V30 2695 H 271.263 1.29996 3.49507 0
M  V30 2696 N 273.449 -1.08991 1.13837 0
M  V30 2697 C 274.674 -1.85551 0.926585 0
M  V30 2698 C 275.099 -1.80782 -0.519566 0
M  V30 2699 O 274.457 -1.18855 -1.36906 0
M  V30 2700 C 274.505 -3.31266 1.42462 0
M  V30 2701 O 273.609 -4.07822 0.612789 0
M  V30 2702 H 272.95 -0.575192 0.331738 0
M  V30 2703 H 275.48 -1.37604 1.51414 0
M  V30 2704 H 275.49 -3.82112 1.43019 0
M  V30 2705 H 274.165 -3.34052 2.47754 0
M  V30 2706 H 272.742 -3.66731 0.675463 0
M  V30 2707 N 274.927 -0.932562 -1.27047 0
M  V30 2708 C 275.857 -0.452902 -2.29066 0
M  V30 2709 C 276.838 0.489338 -1.62909 0
M  V30 2710 O 278.023 0.393046 -1.90181 0
M  V30 2711 C 275.153 0.290698 -3.46081 0
M  V30 2712 C 274.107 -0.564168 -4.24265 0
M  V30 2713 C 273.433 0.308886 -5.33807 0
M  V30 2714 C 274.733 -1.83112 -4.89149 0
M  V30 2715 H 276.427 -1.30552 -2.69437 0
M  V30 2716 H 273.973 -0.629201 -1.29526 0
M  V30 2717 H 275.926 0.637233 -4.16554 0
M  V30 2718 H 274.65 1.17738 -3.0464 0
M  V30 2719 H 273.309 -0.893477 -3.55545 0
M  V30 2720 H 272.957 1.19467 -4.88607 0
M  V30 2721 H 272.657 -0.259633 -5.87026 0
M  V30 2722 H 274.181 0.650884 -6.07121 0
M  V30 2723 H 275.595 -1.55236 -5.51883 0
M  V30 2724 H 273.992 -2.34353 -5.52448 0
M  V30 2725 H 275.062 -2.54772 -4.12576 0
M  V30 2726 N 276.405 1.4127 -0.698611 0
M  V30 2727 C 277.653 2.00782 -0.230409 0
M  V30 2728 C 277.974 1.5562 1.17505 0
M  V30 2729 O 277.244 0.78815 1.79346 0
M  V30 2730 H 275.824 0.742464 -0.0821944 0
M  V30 2731 H 278.486 1.72852 -0.90045 0
M  V30 2732 H 277.582 3.11095 -0.25021 0
M  V30 2733 N 277.883 0.443576 1.51229 0
M  V30 2734 C 279.111 -0.11929 2.06556 0
M  V30 2735 C 279.526 -1.35921 1.31038 0
M  V30 2736 O 278.883 -1.78675 0.371704 0
M  V30 2737 C 278.934 -0.435228 3.5887 0
M  V30 2738 O 278.655 0.755486 4.31537 0
M  V30 2739 C 280.156 -1.04808 4.30732 0
M  V30 2740 H 277.376 -0.0051584 0.67098 0
M  V30 2741 H 279.92 0.624453 1.94733 0
M  V30 2742 H 278.075 -1.12887 3.70588 0
M  V30 2743 H 278.489 0.483491 5.22267 0
M  V30 2744 H 279.963 -1.2191 5.3837 0
M  V30 2745 H 280.44 -2.03081 3.89429 0
M  V30 2746 H 281.046 -0.393637 4.23474 0
M  V30 2747 N 279.361 -1.56624 0.175154 0
M  V30 2748 C 280.293 -2.15333 -0.785128 0
M  V30 2749 C 281.306 -1.1099 -1.19101 0
M  V30 2750 O 282.495 -1.38162 -1.13019 0
M  V30 2751 C 279.595 -2.68427 -2.06882 0
M  V30 2752 C 278.768 -3.97466 -1.8259 0
M  V30 2753 C 277.827 -4.35585 -2.95215 0
M  V30 2754 O 276.853 -5.03389 -2.65684 0
M  V30 2755 N 278.055 -3.97457 -4.23094 0
M  V30 2756 H 280.82 -2.98359 -0.283187 0
M  V30 2757 H 278.381 -1.61898 -0.00749817 0
M  V30 2758 H 280.373 -2.90924 -2.81328 0
M  V30 2759 H 278.943 -1.89968 -2.48256 0
M  V30 2760 H 278.163 -3.83307 -0.920287 0
M  V30 2761 H 279.451 -4.81736 -1.63733 0
M  V30 2762 H 278.849 -3.42878 -4.49945 0
M  V30 2763 H 277.406 -4.24947 -4.9423 0
M  V30 2764 N 280.839 0.0985539 -1.57292 0
M  V30 2765 C 282.067 0.816318 -1.90115 0
M  V30 2766 C 282.482 1.72451 -0.768509 0
M  V30 2767 O 281.839 1.80643 0.259687 0
M  V30 2768 C 281.89 1.63259 -3.22535 0
M  V30 2769 O 281.611 0.760934 -4.31441 0
M  V30 2770 C 283.112 2.45372 -3.69199 0
M  V30 2771 H 280.332 0.233595 -0.629027 0
M  V30 2772 H 282.876 0.0768229 -2.04356 0
M  V30 2773 H 281.031 2.32463 -3.09903 0
M  V30 2774 H 281.445 1.32595 -5.07463 0
M  V30 2775 H 282.919 2.98144 -4.64558 0
M  V30 2776 H 283.396 3.23677 -2.96867 0
M  V30 2777 H 284.002 1.81373 -3.84687 0
M  V30 2778 N 282.317 1.53212 0.369288 0
M  V30 2779 C 283.547 1.72868 1.13139 0
M  V30 2780 C 283.955 0.455754 1.83629 0
M  V30 2781 O 283.298 -0.580861 1.74275 0
M  V30 2782 C 283.36 2.83667 2.20847 0
M  V30 2783 C 283.024 4.24142 1.70155 0
M  V30 2784 C 284.021 5.06619 1.16763 0
M  V30 2785 C 281.706 4.70539 1.7578 0
M  V30 2786 C 283.7 6.33581 0.696678 0
M  V30 2787 C 281.387 5.97481 1.28297 0
M  V30 2788 C 282.385 6.78833 0.753307 0
M  V30 2789 O 282.073 8.03393 0.285475 0
M  V30 2790 H 281.805 0.581707 0.344373 0
M  V30 2791 H 284.359 2.00736 0.435243 0
M  V30 2792 H 282.589 2.51265 2.93944 0
M  V30 2793 H 284.278 2.91536 2.82421 0
M  V30 2794 H 285.044 4.71948 1.11758 0
M  V30 2795 H 280.923 4.07293 2.15949 0
M  V30 2796 H 284.467 6.97027 0.282581 0
M  V30 2797 H 280.364 6.31651 1.32994 0
M  V30 2798 H 281.132 8.17497 0.405145 0
M  V30 2799 N 283.795 -0.628877 1.44509 0
M  V30 2800 C 285.044 -1.38437 1.4669 0
M  V30 2801 C 285.357 -1.95322 0.104272 0
M  V30 2802 O 286.563 -2.715 0.00362163 0
M  V30 2803 C 285.019 -2.50659 2.5826 0
M  V30 2804 C 284.627 -2.00277 4.0074 0
M  V30 2805 C 286.371 -3.27844 2.69664 0
M  V30 2806 C 284.278 -3.09854 5.0373 0
M  V30 2807 H 283.208 -0.520245 0.545766 0
M  V30 2808 H 285.859 -0.676313 1.70582 0
M  V30 2809 H 284.241 -3.2405 2.27612 0
M  V30 2810 H 285.415 -1.33736 4.40966 0
M  V30 2811 H 283.73 -1.35901 3.93599 0
M  V30 2812 H 286.327 -4.09534 3.43781 0
M  V30 2813 H 286.67 -3.77471 1.75559 0
M  V30 2814 H 287.203 -2.61543 2.99733 0
M  V30 2815 H 283.942 -2.65168 5.99472 0
M  V30 2816 H 283.462 -3.7503 4.68095 0
M  V30 2817 H 285.141 -3.74592 5.27532 0
M  V30 2818 N 285.273 -1.31445 -0.869486 0
M  V30 2819 C 286.513 -1.22458 -1.63656 0
M  V30 2820 C 286.877 0.213846 -1.90805 0
M  V30 2821 O 288.078 0.427212 -2.65383 0
M  V30 2822 C 286.349 -2.04564 -2.93067 0
M  V30 2823 S 287.908 -2.12445 -3.83944 0
M  V30 2824 H 284.726 -0.436145 -0.561514 0
M  V30 2825 H 287.328 -1.66114 -1.03085 0
M  V30 2826 H 286.032 -3.0816 -2.71045 0
M  V30 2827 H 285.563 -1.6163 -3.58663 0
M  V30 2828 H 287.578 -1.26312 -4.79854 0
M  V30 2829 N 286.751 1.08385 -1.14413 0
M  V30 2830 C 287.699 2.17406 -0.826888 0
M  V30 2831 C 288.693 1.6827 0.195312 0
M  V30 2832 O 289.899 1.79927 0.0513892 0
M  V30 2833 H 286.274 0.70934 -0.249681 0
M  V30 2834 H 288.245 2.41388 -1.75426 0
M  V30 2835 C 286.994 3.46215 -0.320979 0
M  V30 2836 H 286.317 3.84401 -1.0989 0
M  V30 2837 H 287.757 4.23777 -0.137549 0
M  V30 2838 C 286.216 3.23067 0.955472 0
M  V30 2839 O 286.746 3.4668 2.02918 0
M  V30 2840 N 284.952 2.7661 0.890798 0
M  V30 2841 H 284.499 2.57594 0.0168815 0
M  V30 2842 H 284.457 2.61501 1.74542 0
M  V30 2843 N 288.23 0.939286 1.26551 0
M  V30 2844 C 289.476 0.586715 1.94128 0
M  V30 2845 C 289.809 -0.8717 1.73537 0
M  V30 2846 O 289.084 -1.62339 1.07127 0
M  V30 2847 C 289.367 0.927497 3.4795 0
M  V30 2848 C 289.22 2.44052 3.77834 0
M  V30 2849 C 290.539 0.441569 4.37879 0
M  V30 2850 H 287.658 0.21463 0.705055 0
M  V30 2851 H 290.3 1.17316 1.49455 0
M  V30 2852 H 288.45 0.428431 3.8613 0
M  V30 2853 H 290.122 3.01216 3.4938 0
M  V30 2854 H 288.365 2.8848 3.23978 0
M  V30 2855 H 289.036 2.62947 4.85348 0
M  V30 2856 H 291.512 0.869448 4.06915 0
M  V30 2857 H 290.388 0.708856 5.44304 0
M  V30 2858 H 290.649 -0.658467 4.37169 0
M  V30 2859 N 289.708 -1.40897 0.706093 0
M  V30 2860 C 290.656 -2.32572 0.0361893 0
M  V30 2861 C 291.65 -1.51532 -0.757266 0
M  V30 2862 O 292.856 -1.67396 -0.661703 0
M  V30 2863 H 289.231 -0.751966 -0.00709935 0
M  V30 2864 H 291.202 -2.86733 0.826249 0
M  V30 2865 C 289.951 -3.36418 -0.87854 0
M  V30 2866 H 289.274 -3.98836 -0.277401 0
M  V30 2867 H 290.714 -4.0308 -1.3154 0
M  V30 2868 C 289.173 -2.71141 -1.99961 0
M  V30 2869 O 289.703 -2.56735 -3.0895 0
M  V30 2870 N 287.909 -2.29671 -1.78043 0
M  V30 2871 H 287.456 -2.41588 -0.894042 0
M  V30 2872 H 287.414 -1.86332 -2.53235 0
M  V30 2873 N 291.186 -0.45159 -1.50991 0
M  V30 2874 C 292.136 0.370861 -2.24964 0
M  V30 2875 C 293.12 0.978074 -1.2776 0
M  V30 2876 O 294.312 0.893854 -1.52772 0
M  V30 2877 C 291.441 1.46344 -3.10545 0
M  V30 2878 C 290.527 0.864924 -4.15187 0
M  V30 2879 N 290.918 -0.00311354 -5.058 0
M  V30 2880 C 289.216 1.13099 -4.31422 0
M  V30 2881 C 289.917 -0.340772 -5.80701 0
M  V30 2882 N 288.893 0.279203 -5.42883 0
M  V30 2883 H 292.695 -0.298134 -2.92384 0
M  V30 2884 H 290.209 -0.264528 -1.60231 0
M  V30 2885 H 292.206 2.06565 -3.62128 0
M  V30 2886 H 290.866 2.13463 -2.4467 0
M  V30 2887 H 291.877 -0.37058 -5.16572 0
M  V30 2888 H 288.554 1.79861 -3.76771 0
M  V30 2889 H 289.944 -1.048 -6.63677 0
M  V30 2890 N 292.664 1.56529 -0.183458 0
M  V30 2891 C 293.611 2.18546 0.742055 0
M  V30 2892 C 294.581 1.12912 1.2182 0
M  V30 2893 O 295.766 1.41115 1.28418 0
M  V30 2894 C 292.906 2.83977 1.96089 0
M  V30 2895 C 292.019 4.04105 1.52719 0
M  V30 2896 C 291.154 4.57427 2.70063 0
M  V30 2897 C 290.193 5.69938 2.23243 0
M  V30 2898 N 289.33 6.17717 3.33722 0
M  V30 2899 H 294.17 2.97284 0.206432 0
M  V30 2900 H 291.707 1.46823 0.0901571 0
M  V30 2901 H 293.665 3.20077 2.67594 0
M  V30 2902 H 292.295 2.07822 2.47002 0
M  V30 2903 H 291.347 3.73745 0.708436 0
M  V30 2904 H 292.659 4.85513 1.1436 0
M  V30 2905 H 291.813 4.95772 3.49708 0
M  V30 2906 H 290.552 3.75101 3.11689 0
M  V30 2907 H 289.557 5.31133 1.42048 0
M  V30 2908 H 290.782 6.54073 1.82661 0
M  V30 2909 H 288.728 5.38317 3.74902 0
M  V30 2910 H 288.645 6.94146 2.99495 0
M  V30 2911 H 289.913 6.60713 4.13616 0
M  V30 2912 N 294.142 -0.090211 1.57342 0
M  V30 2913 C 295.553 -0.644173 1.75235 0
M  V30 2914 C 295.904 -1.78865 0.806335 0
M  V30 2915 O 295.029 -2.16395 -0.0140128 0
M  V30 2916 C 295.624 -1.17532 3.1776 0
M  V30 2917 C 294.183 -1.67531 3.37061 0
M  V30 2918 C 293.33 -0.58693 2.71017 0
M  V30 2919 H 296.281 0.135884 1.58117 0
M  V30 2920 H 296.302 -2.04455 3.20902 0
M  V30 2921 H 295.814 -0.342138 3.86589 0
M  V30 2922 H 293.915 -2.53234 2.73319 0
M  V30 2923 H 294.028 -1.76493 4.45406 0
M  V30 2924 H 292.392 -1.02756 2.33052 0
M  V30 2925 H 293.175 0.235758 3.4249 0
M  V30 2926 N 295.62 -1.53406 -0.361157 0
M  V30 2927 C 296.845 -1.74024 -1.12829 0
M  V30 2928 C 297.27 -0.470069 -1.82132 0
M  V30 2929 O 296.628 0.57619 -1.719 0
M  V30 2930 C 296.676 -2.90903 -2.13091 0
M  V30 2931 O 295.78 -2.59821 -3.20261 0
M  V30 2932 H 295.121 -0.577804 -0.327168 0
M  V30 2933 H 297.651 -2.00307 -0.41693 0
M  V30 2934 H 297.661 -3.17194 -2.56616 0
M  V30 2935 H 296.336 -3.83034 -1.62042 0
M  V30 2936 H 294.913 -2.44362 -2.81677 0
M  V30 2937 N 297.098 0.621204 -1.44841 0
M  V30 2938 C 298.046 1.75385 -1.52784 0
M  V30 2939 C 299.04 1.64639 -0.398779 0
M  V30 2940 O 300.246 1.70598 -0.574137 0
M  V30 2941 H 296.621 0.579193 -0.479625 0
M  V30 2942 H 298.592 1.6581 -2.48092 0
M  V30 2943 C 297.341 3.13742 -1.4987 0
M  V30 2944 H 296.664 3.22663 -2.36069 0
M  V30 2945 H 298.104 3.92861 -1.59487 0
M  V30 2946 C 296.563 3.36175 -0.220973 0
M  V30 2947 O 297.093 3.95469 0.704782 0
M  V30 2948 N 295.299 2.90348 -0.120963 0
M  V30 2949 H 294.846 2.42278 -0.875162 0
M  V30 2950 H 294.804 3.05732 0.733168 0
M  V30 2951 N 298.576 1.31904 0.862503 0
M  V30 2952 C 299.804 1.24998 1.64873 0
M  V30 2953 C 300.219 -0.183425 1.87907 0
M  V30 2954 O 299.576 -1.11794 1.44251 0
M  V30 2955 C 299.627 1.99829 3.01248 0
M  V30 2956 O 299.348 3.37575 2.79239 0
M  V30 2957 C 300.849 1.99852 3.95694 0
M  V30 2958 H 298.069 0.431599 0.513773 0
M  V30 2959 H 300.613 1.73901 1.07604 0
M  V30 2960 H 298.768 1.54668 3.55185 0
M  V30 2961 H 299.182 3.75776 3.65914 0
M  V30 2962 H 300.656 2.56709 4.88676 0
M  V30 2963 H 301.133 0.982852 4.28062 0
M  V30 2964 H 301.739 2.44926 3.47694 0
M  V30 2965 N 300.054 -1.07777 1.14986 0
M  V30 2966 C 301.001 -2.14867 0.842672 0
M  V30 2967 C 301.971 -1.6486 -0.202552 0
M  V30 2968 O 303.156 -1.90668 -0.0710568 0
M  V30 2969 C 300.296 -3.43486 0.333363 0
M  V30 2970 C 299.409 -4.07306 1.43965 0
M  V30 2971 C 298.544 -5.23744 0.886914 0
M  V30 2972 C 297.583 -5.79517 1.97043 0
M  V30 2973 N 296.72 -6.87291 1.4344 0
M  V30 2974 H 301.56 -2.40485 1.75986 0
M  V30 2975 H 299.097 -1.1801 0.878179 0
M  V30 2976 H 301.055 -4.17195 0.0198163 0
M  V30 2977 H 299.685 -3.18133 -0.546916 0
M  V30 2978 H 298.737 -3.31293 1.86946 0
M  V30 2979 H 300.049 -4.44771 2.25788 0
M  V30 2980 H 299.203 -6.04419 0.525651 0
M  V30 2981 H 297.942 -4.87685 0.0377957 0
M  V30 2982 H 296.947 -4.97491 2.34057 0
M  V30 2983 H 298.172 -6.17632 2.82325 0
M  V30 2984 H 296.118 -6.5318 0.607567 0
M  V30 2985 H 296.035 -7.23617 2.18895 0
M  V30 2986 H 297.303 -7.71682 1.10124 0
M  V30 2987 N 301.532 -0.945985 -1.26051 0
M  V30 2988 C 302.778 -0.597002 -1.93814 0
M  V30 2989 C 303.111 0.862484 -1.73997 0
M  V30 2990 O 302.386 1.61769 -1.07986 0
M  V30 2991 C 302.669 -0.945937 -3.47454 0
M  V30 2992 C 302.522 -2.46052 -3.76535 0
M  V30 2993 C 303.841 -0.464785 -4.37639 0
M  V30 2994 H 300.96 -0.218366 -0.703907 0
M  V30 2995 H 303.602 -1.18107 -1.48831 0
M  V30 2996 H 301.752 -0.448902 -3.85898 0
M  V30 2997 H 303.424 -3.03065 -3.47778 0
M  V30 2998 H 301.667 -2.90194 -3.22444 0
M  V30 2999 H 302.338 -2.65517 -4.83947 0
M  V30 3000 H 304.814 -0.891016 -4.06448 0
M  V30 3001 H 303.69 -0.737712 -5.4392 0
M  V30 3002 H 303.951 0.635274 -4.37512 0
M  V30 3003 N 303.011 1.40521 -0.713556 0
M  V30 3004 C 304.288 1.94775 -0.17943 0
M  V30 3005 C 304.668 1.65184 1.31444 0
M  V30 3006 O 304.016 0.968429 2.06963 0
M  V30 3007 C 304.226 3.45543 -0.489986 0
M  V30 3008 C 305.574 4.22442 -0.427536 0
M  V30 3009 O 306.598 3.53644 -0.425929 0
M  V30 3010 O 305.457 5.4501 -0.403292 0
M  V30 3011 H 302.551 0.826606 -0.0255192 0
M  V30 3012 H 305.097 1.5014 -0.790949 0
M  V30 3013 H 303.869 3.60432 -1.5233 0
M  V30 3014 H 303.492 3.97311 0.151598 0
M  V30 3015 N 304.489 0.459591 1.5075 0
M  V30 3016 C 305.452 -0.329093 2.26825 0
M  V30 3017 C 306.452 -0.930481 1.31144 0
M  V30 3018 O 307.642 -0.801453 1.54669 0
M  V30 3019 C 304.774 -1.46768 3.07688 0
M  V30 3020 H 305.967 0.337924 2.9799 0
M  V30 3021 H 303.52 0.213336 1.54837 0
M  V30 3022 H 304.255 -2.17009 2.40993 0
M  V30 3023 H 304.04 -1.04238 3.77991 0
M  V30 3024 H 305.53 -2.02433 3.65254 0
M  V30 3025 N 305.967 -1.56429 0.191757 0
M  V30 3026 C 307.383 -1.58754 -0.164137 0
M  V30 3027 C 307.583 -1.20782 -1.61288 0
M  V30 3028 O 306.639 -0.928999 -2.34789 0
M  V30 3029 C 307.952 -3.00396 0.135195 0
M  V30 3030 C 309.5 -3.1291 0.0750351 0
M  V30 3031 C 309.975 -4.56679 0.347632 0
M  V30 3032 N 311.466 -4.62252 0.296131 0
M  V30 3033 C 312.201 -5.71379 0.480948 0
M  V30 3034 N 311.697 -6.88986 0.725933 0
M  V30 3035 N 313.49 -5.60563 0.415435 0
M  V30 3036 H 305.641 -1.79393 1.13718 0
M  V30 3037 H 307.904 -0.832414 0.453643 0
M  V30 3038 H 307.61 -3.32726 1.13958 0
M  V30 3039 H 307.484 -3.72963 -0.563773 0
M  V30 3040 H 309.871 -2.80394 -0.919948 0
M  V30 3041 H 309.952 -2.42736 0.807029 0
M  V30 3042 H 309.596 -4.89907 1.33992 0
M  V30 3043 H 309.526 -5.25039 -0.405212 0
M  V30 3044 H 312.017 -3.7773 0.113259 0
M  V30 3045 H 312.33 -7.68046 0.855857 0
M  V30 3046 H 310.675 -6.90801 0.762788 0
M  V30 3047 H 313.866 -4.67561 0.224486 0
M  V30 3048 H 314.039 -6.45551 0.562889 0
M  V30 3049 N 307.445 0.0818655 -1.57387 0
M  V30 3050 C 308.691 0.784074 -1.8703 0
M  V30 3051 C 309.024 1.77729 -0.782689 0
M  V30 3052 O 308.299 1.93384 0.208051 0
M  V30 3053 C 308.582 1.50105 -3.27323 0
M  V30 3054 C 308.435 0.524925 -4.46727 0
M  V30 3055 C 309.754 2.44843 -3.65705 0
M  V30 3056 H 306.873 0.283582 -0.680257 0
M  V30 3057 H 309.515 0.0474352 -1.89941 0
M  V30 3058 H 307.665 2.12897 -3.24972 0
M  V30 3059 H 309.337 -0.0970111 -4.61198 0
M  V30 3060 H 307.58 -0.160606 -4.33503 0
M  V30 3061 H 308.251 1.064 -5.41648 0
M  V30 3062 H 310.727 1.92135 -3.69085 0
M  V30 3063 H 309.603 2.92018 -4.64776 0
M  V30 3064 H 309.864 3.29197 -2.95096 0
M  V30 3065 N 308.923 1.53595 0.353017 0
M  V30 3066 C 309.833 1.83897 1.45667 0
M  V30 3067 C 310.849 0.728334 1.58023 0
M  V30 3068 O 312.025 1.01968 1.73679 0
M  V30 3069 C 309.09 2.03383 2.80778 0
M  V30 3070 C 308.151 3.27262 2.77845 0
M  V30 3071 C 307.384 3.45809 4.06512 0
M  V30 3072 O 307.607 2.68387 5.03314 0
M  V30 3073 O 306.541 4.39207 4.11559 0
M  V30 3074 H 310.367 2.77686 1.2298 0
M  V30 3075 H 307.952 1.39132 0.544308 0
M  V30 3076 H 309.834 2.17698 3.60812 0
M  V30 3077 H 308.509 1.12783 3.03417 0
M  V30 3078 H 307.416 3.18359 1.96465 0
M  V30 3079 H 308.749 4.17824 2.60161 0
M  V30 3080 N 310.401 -0.613514 1.45168 0
M  V30 3081 C 311.812 -1.19539 1.43413 0
M  V30 3082 C 312.163 -1.95558 0.158632 0
M  V30 3083 O 311.288 -2.0335 -0.740119 0
M  V30 3084 C 311.883 -2.17445 2.59813 0
M  V30 3085 C 310.442 -2.71022 2.61197 0
M  V30 3086 C 309.589 -1.46323 2.35552 0
M  V30 3087 H 312.54 -0.403163 1.53494 0
M  V30 3088 H 312.561 -3.00373 2.33574 0
M  V30 3089 H 312.073 -1.62089 3.52631 0
M  V30 3090 H 310.174 -3.30332 1.7237 0
M  V30 3091 H 310.287 -3.15859 3.60236 0
M  V30 3092 H 308.651 -1.75072 1.84992 0
M  V30 3093 H 309.434 -0.92844 3.30507 0
M  V30 3094 N 311.879 -1.3236 -0.855495 0
M  V30 3095 C 312.826 -1.21225 -1.964 0
M  V30 3096 C 313.796 -0.0946204 -1.6583 0
M  V30 3097 O 314.981 -0.27002 -1.8888 0
M  V30 3098 C 312.121 -0.940419 -3.32039 0
M  V30 3099 C 311.234 -2.14276 -3.75113 0
M  V30 3100 C 310.369 -1.80648 -4.9954 0
M  V30 3101 C 309.408 -2.97208 -5.35102 0
M  V30 3102 N 308.545 -2.63678 -6.50706 0
M  V30 3103 H 313.385 -2.16042 -2.05255 0
M  V30 3104 H 310.922 -1.07451 -1.00463 0
M  V30 3105 H 312.88 -0.763311 -4.10158 0
M  V30 3106 H 311.51 -0.0290413 -3.22787 0
M  V30 3107 H 310.562 -2.43017 -2.92655 0
M  V30 3108 H 311.874 -3.01468 -3.97389 0
M  V30 3109 H 311.028 -1.59484 -5.85363 0
M  V30 3110 H 309.767 -0.906678 -4.79198 0
M  V30 3111 H 308.772 -3.19004 -4.47791 0
M  V30 3112 H 309.997 -3.87918 -5.57401 0
M  V30 3113 H 307.943 -1.76238 -6.31883 0
M  V30 3114 H 307.86 -3.444 -6.72997 0
M  V30 3115 H 309.128 -2.45942 -7.39684 0
M  V30 3116 N 313.357 1.07166 -1.15556 0
M  V30 3117 C 314.582 1.84053 -0.955988 0
M  V30 3118 C 315.007 1.81586 0.490739 0
M  V30 3119 O 314.365 1.21018 1.34997 0
M  V30 3120 C 314.413 3.28957 -1.47714 0
M  V30 3121 O 313.517 4.06795 -0.677593 0
M  V30 3122 H 312.858 0.569842 -0.340847 0
M  V30 3123 H 315.388 1.35178 -1.53584 0
M  V30 3124 H 315.398 3.79788 -1.4908 0
M  V30 3125 H 314.073 3.30068 -2.53037 0
M  V30 3126 H 312.65 3.6561 -0.733721 0
M  V30 3127 N 314.835 0.952656 1.25548 0
M  V30 3128 C 316.075 0.614013 1.9496 0
M  V30 3129 C 316.439 -0.833215 1.72978 0
M  V30 3130 O 317.64 -1.28135 2.36294 0
M  V30 3131 C 315.911 0.960562 3.4425 0
M  V30 3132 S 317.47 0.734195 4.32614 0
M  V30 3133 H 314.288 0.225754 0.674208 0
M  V30 3134 H 316.89 1.22641 1.52248 0
M  V30 3135 H 315.594 2.01103 3.57751 0
M  V30 3136 H 315.125 0.338336 3.91942 0
M  V30 3137 H 317.14 -0.395995 4.94617 0
M  V30 3138 N 316.313 -1.40141 0.720998 0
M  V30 3139 C 317.59 -1.94677 0.189757 0
M  V30 3140 C 317.97 -1.65879 -1.30566 0
M  V30 3141 O 317.318 -0.979391 -2.06447 0
M  V30 3142 C 317.528 -3.45279 0.508304 0
M  V30 3143 C 318.876 -4.22209 0.449934 0
M  V30 3144 O 319.9 -3.53413 0.444677 0
M  V30 3145 O 318.759 -5.44788 0.432189 0
M  V30 3146 H 315.853 -0.826459 0.0299026 0
M  V30 3147 H 318.399 -1.49719 0.7989 0
M  V30 3148 H 317.171 -3.59619 1.54239 0
M  V30 3149 H 316.794 -3.97386 -0.130525 0
M  V30 3150 N 317.792 -0.46758 -1.50504 0
M  V30 3151 C 318.739 0.328413 -2.28452 0
M  V30 3152 C 319.709 0.990313 -1.33349 0
M  V30 3153 O 320.894 1.00343 -1.62284 0
M  V30 3154 C 318.034 1.40648 -3.15138 0
M  V30 3155 C 317.147 0.759709 -4.25267 0
M  V30 3156 C 316.282 1.81537 -4.99217 0
M  V30 3157 C 315.321 1.14866 -6.01226 0
M  V30 3158 N 314.458 2.14702 -6.68467 0
M  V30 3159 H 319.298 -0.342603 -2.96024 0
M  V30 3160 H 316.835 -0.180801 -1.45985 0
M  V30 3161 H 318.793 2.04315 -3.63746 0
M  V30 3162 H 317.423 2.04671 -2.49619 0
M  V30 3163 H 316.475 0.0105671 -3.80399 0
M  V30 3164 H 317.787 0.233243 -4.98254 0
M  V30 3165 H 316.941 2.52793 -5.51526 0
M  V30 3166 H 315.68 2.37564 -4.25928 0
M  V30 3167 H 314.685 0.42171 -5.4818 0
M  V30 3168 H 315.91 0.595334 -6.76485 0
M  V30 3169 H 313.856 2.69752 -5.97972 0
M  V30 3170 H 313.773 1.6703 -7.37317 0
M  V30 3171 H 315.041 2.85348 -7.25394 0
M  V30 3172 N 319.27 1.56325 -0.20005 0
M  V30 3173 C 320.498 2.02105 0.442874 0
M  V30 3174 C 320.913 1.08014 1.5485 0
M  V30 3175 O 320.27 0.0858797 1.82298 0
M  V30 3176 C 320.321 3.47549 0.994583 0
M  V30 3177 O 320.042 4.38049 -0.0669322 0
M  V30 3178 C 321.543 4.0887 1.7129 0
M  V30 3179 H 318.763 0.661807 0.110691 0
M  V30 3180 H 321.307 2.02134 -0.310207 0
M  V30 3181 H 319.462 3.48204 1.69803 0
M  V30 3182 H 319.876 5.23368 0.344462 0
M  V30 3183 H 321.35 5.12475 2.05118 0
M  V30 3184 H 321.827 3.52615 2.61838 0
M  V30 3185 H 322.433 4.12002 1.05518 0
M  V30 3186 N 320.748 -0.0735177 1.57428 0
M  V30 3187 C 321.698 -1.09442 2.00016 0
M  V30 3188 C 322.682 -1.34575 0.881947 0
M  V30 3189 O 323.874 -1.34905 1.14585 0
M  V30 3190 C 321.003 -2.40865 2.4462 0
M  V30 3191 C 320.089 -2.19014 3.63172 0
M  V30 3192 N 320.48 -1.67087 4.77405 0
M  V30 3193 C 318.778 -2.49494 3.69688 0
M  V30 3194 C 319.479 -1.6001 5.5926 0
M  V30 3195 N 318.455 -2.05999 5.03056 0
M  V30 3196 H 322.257 -0.686227 2.85776 0
M  V30 3197 H 319.771 -0.280617 1.59957 0
M  V30 3198 H 321.768 -3.14763 2.73368 0
M  V30 3199 H 320.428 -2.82403 1.60246 0
M  V30 3200 H 321.439 -1.35975 4.99731 0
M  V30 3201 H 318.116 -2.94409 2.96023 0
M  V30 3202 H 319.506 -1.2073 6.60964 0
M  V30 3203 N 322.226 -1.5378 -0.344866 0
M  V30 3204 C 323.454 -1.74899 -1.10534 0
M  V30 3205 C 323.869 -0.487534 -1.82397 0
M  V30 3206 O 323.226 0.540741 -1.74305 0
M  V30 3207 C 323.277 -2.92822 -2.11984 0
M  V30 3208 O 322.998 -4.14089 -1.43044 0
M  V30 3209 C 324.499 -3.25982 -3.00417 0
M  V30 3210 H 321.719 -0.584426 -0.329678 0
M  V30 3211 H 324.263 -2.006 -0.397474 0
M  V30 3212 H 322.418 -2.69457 -2.78338 0
M  V30 3213 H 322.832 -4.80272 -2.10805 0
M  V30 3214 H 324.306 -4.11848 -3.67539 0
M  V30 3215 H 324.783 -2.42228 -3.66363 0
M  V30 3216 H 325.389 -3.51349 -2.39654 0
M  V30 3217 N 323.704 0.605807 -1.45491 0
M  V30 3218 C 324.944 1.37606 -1.51142 0
M  V30 3219 C 325.308 1.91413 -0.150075 0
M  V30 3220 O 326.509 2.68677 -0.0812828 0
M  V30 3221 C 324.78 2.49197 -2.56195 0
M  V30 3222 S 326.339 3.36953 -2.81083 0
M  V30 3223 H 323.157 0.469118 -0.534275 0
M  V30 3224 H 325.759 0.698845 -1.82583 0
M  V30 3225 H 324.463 2.0802 -3.53773 0
M  V30 3226 H 323.994 3.21717 -2.26411 0
M  V30 3227 H 326.009 4.47395 -2.14598 0
M  V30 3228 N 325.182 1.32811 0.848464 0
M  V30 3229 C 326.593 1.21315 1.41914 0
M  V30 3230 C 326.944 -0.171847 1.95446 0
M  V30 3231 O 326.069 -1.07093 1.88043 0
M  V30 3232 C 326.664 2.19631 2.57968 0
M  V30 3233 C 325.223 2.12003 3.11017 0
M  V30 3234 C 324.37 2.07651 1.83783 0
M  V30 3235 H 327.321 1.44549 0.655071 0
M  V30 3236 H 327.342 1.79845 3.35315 0
M  V30 3237 H 326.854 3.20423 2.18976 0
M  V30 3238 H 324.955 1.14481 3.54577 0
M  V30 3239 H 325.068 3.02111 3.71841 0
M  V30 3240 H 323.432 1.52983 2.03638 0
M  V30 3241 H 324.215 3.10235 1.47 0
M  V30 3242 N 326.66 -1.06551 1.16123 0
M  V30 3243 C 328.071 -1.60768 0.949232 0
M  V30 3244 C 328.422 -1.89523 -0.507508 0
M  V30 3245 O 327.547 -1.66671 -1.38021 0
M  V30 3246 C 328.142 -2.92086 1.71671 0
M  V30 3247 C 326.701 -3.43015 1.54977 0
M  V30 3248 C 325.848 -2.16947 1.72711 0
M  V30 3249 H 328.799 -0.895354 1.31031 0
M  V30 3250 H 328.82 -3.6138 1.19099 0
M  V30 3251 H 328.332 -2.71127 2.7769 0
M  V30 3252 H 326.433 -3.69039 0.513873 0
M  V30 3253 H 326.546 -4.18516 2.33198 0
M  V30 3254 H 324.91 -2.27041 1.15431 0
M  V30 3255 H 325.693 -1.98473 2.80113 0
M  V30 3256 N 328.138 -0.959301 -1.25041 0
M  V30 3257 C 329.378 -0.624343 -1.94631 0
M  V30 3258 C 329.742 0.82403 -1.73418 0
M  V30 3259 O 330.943 1.26881 -2.3697 0
M  V30 3260 C 329.214 -0.978805 -3.43736 0
M  V30 3261 S 330.773 -0.757127 -4.32219 0
M  V30 3262 H 327.591 -0.229327 -0.673001 0
M  V30 3263 H 330.193 -1.23447 -1.51595 0
M  V30 3264 H 328.897 -2.02997 -3.56679 0
M  V30 3265 H 328.428 -0.359117 -3.91757 0
M  V30 3266 H 330.443 0.369759 -4.9482 0
M  V30 3267 N 329.616 1.39756 -0.72842 0
M  V30 3268 C 331.027 1.83498 -0.344289 0
M  V30 3269 C 331.378 1.60868 1.12321 0
M  V30 3270 O 330.503 1.09634 1.86573 0
M  V30 3271 C 331.098 3.33114 -0.618112 0
M  V30 3272 C 329.657 3.753 -0.287549 0
M  V30 3273 C 328.804 2.62831 -0.884048 0
M  V30 3274 H 331.755 1.28842 -0.926578 0
M  V30 3275 H 331.776 3.80334 0.112349 0
M  V30 3276 H 331.288 3.49553 -1.68625 0
M  V30 3277 H 329.389 3.64451 0.775012 0
M  V30 3278 H 329.502 4.72945 -0.765512 0
M  V30 3279 H 327.866 2.52792 -0.311149 0
M  V30 3280 H 328.649 2.82078 -1.95671 0
M  V30 3281 N 331.094 0.475555 1.50254 0
M  V30 3282 C 332.057 -0.305016 2.27161 0
M  V30 3283 C 333.057 -0.916519 1.32123 0
M  V30 3284 O 334.247 -0.785003 1.5551 0
M  V30 3285 C 331.379 -1.43496 3.09227 0
M  V30 3286 H 332.572 0.369511 2.97615 0
M  V30 3287 H 330.125 0.229747 1.54602 0
M  V30 3288 H 330.86 -2.14441 2.43281 0
M  V30 3289 H 330.645 -1.00223 3.79075 0
M  V30 3290 H 332.135 -1.98548 3.67381 0
M  V30 3291 N 332.573 -1.56217 0.208337 0
M  V30 3292 C 333.984 -1.84243 -0.301904 0
M  V30 3293 C 334.335 -1.12939 -1.60434 0
M  V30 3294 O 333.46 -0.39461 -2.12772 0
M  V30 3295 C 334.055 -3.34231 -0.554543 0
M  V30 3296 C 332.614 -3.62621 -1.00912 0
M  V30 3297 C 331.761 -2.77224 -0.064933 0
M  V30 3298 H 334.712 -1.52712 0.431833 0
M  V30 3299 H 334.733 -3.5372 -1.40223 0
M  V30 3300 H 334.245 -3.86099 0.393561 0
M  V30 3301 H 332.346 -3.16197 -1.97104 0
M  V30 3302 H 332.459 -4.7071 -0.892674 0
M  V30 3303 H 330.823 -2.48256 -0.56929 0
M  V30 3304 H 331.606 -3.31887 0.877851 0
M  V30 3305 N 334.051 0.0651679 -1.57465 0
M  V30 3306 C 334.961 1.09448 -2.07505 0
M  V30 3307 C 335.977 1.41974 -1.00595 0
M  V30 3308 O 337.153 1.52018 -1.32107 0
M  V30 3309 C 334.218 2.38689 -2.51453 0
M  V30 3310 C 333.279 2.13073 -3.72691 0
M  V30 3311 C 332.512 3.36152 -4.14533 0
M  V30 3312 O 332.735 4.45517 -3.56189 0
M  V30 3313 O 331.669 3.23974 -5.07272 0
M  V30 3314 H 335.495 0.69935 -2.95538 0
M  V30 3315 H 333.08 0.279752 -1.46757 0
M  V30 3316 H 334.962 3.14736 -2.80212 0
M  V30 3317 H 333.637 2.77568 -1.66546 0
M  V30 3318 H 332.544 1.34709 -3.49005 0
M  V30 3319 H 333.877 1.79071 -4.5847 0
M  V30 3320 N 335.529 1.53961 0.336706 0
M  V30 3321 C 336.459 1.85417 1.41925 0
M  V30 3322 C 337.44 0.709856 1.5458 0
M  V30 3323 O 338.625 0.962396 1.68676 0
M  V30 3324 C 335.755 2.06985 2.78881 0
M  V30 3325 C 334.709 3.22813 2.81026 0
M  V30 3326 C 334.035 3.29727 4.20932 0
M  V30 3327 C 335.335 4.60767 2.45949 0
M  V30 3328 H 337.029 2.76079 1.15848 0
M  V30 3329 H 334.575 1.32839 0.555859 0
M  V30 3330 H 336.528 2.27575 3.54665 0
M  V30 3331 H 335.252 1.13061 3.06406 0
M  V30 3332 H 333.911 3.0209 2.07695 0
M  V30 3333 H 333.559 2.33385 4.45579 0
M  V30 3334 H 333.259 4.07566 4.23277 0
M  V30 3335 H 334.783 3.52536 4.98549 0
M  V30 3336 H 336.197 4.81325 3.11446 0
M  V30 3337 H 334.594 5.4106 2.59566 0
M  V30 3338 H 335.664 4.6391 1.41122 0
M  V30 3339 N 337.007 -0.598083 1.45811 0
M  V30 3340 C 337.937 -1.71873 1.58057 0
M  V30 3341 C 338.918 -1.64533 0.431615 0
M  V30 3342 O 340.103 -1.82787 0.65595 0
M  V30 3343 C 337.233 -3.10495 1.55597 0
M  V30 3344 C 336.187 -3.32654 2.69305 0
M  V30 3345 C 335.513 -4.71646 2.51902 0
M  V30 3346 C 336.813 -3.21981 4.11248 0
M  V30 3347 H 338.507 -1.61881 2.51863 0
M  V30 3348 H 336.053 -0.777372 1.21214 0
M  V30 3349 H 338.006 -3.88699 1.6276 0
M  V30 3350 H 336.73 -3.2135 0.583255 0
M  V30 3351 H 335.389 -2.56843 2.61586 0
M  V30 3352 H 335.037 -4.79246 1.52748 0
M  V30 3353 H 334.737 -4.87426 3.2816 0
M  V30 3354 H 336.261 -5.52038 2.60933 0
M  V30 3355 H 337.675 -3.90049 4.20161 0
M  V30 3356 H 336.072 -3.49289 4.87972 0
M  V30 3357 H 337.142 -2.1928 4.32486 0
M  V30 3358 N 338.485 -1.33259 -0.841409 0
M  V30 3359 C 339.733 -1.24326 -1.59334 0
M  V30 3360 C 340.054 0.191564 -1.94057 0
M  V30 3361 O 339.324 1.11967 -1.60749 0
M  V30 3362 H 337.904 -0.457174 -0.590763 0
M  V30 3363 H 340.566 -1.66947 -1.00571 0
M  V30 3364 H 339.662 -1.8352 -2.52442 0
M  V30 3365 N 339.963 1.05934 -1.16686 0
M  V30 3366 C 341.211 1.78447 -0.948744 0
M  V30 3367 C 341.532 1.87813 0.524523 0
M  V30 3368 O 340.802 1.38945 1.38098 0
M  V30 3369 H 339.382 0.660971 -0.348033 0
M  V30 3370 H 342.044 1.27947 -1.47022 0
M  V30 3371 H 341.14 2.80394 -1.37061 0
M  V30 3372 N 341.441 0.965919 1.2453 0
M  V30 3373 C 342.852 0.665929 1.7442 0
M  V30 3374 C 343.203 -0.818407 1.78316 0
M  V30 3375 O 342.328 -1.64037 1.41141 0
M  V30 3376 C 342.923 1.20211 3.16757 0
M  V30 3377 C 341.482 0.952059 3.6416 0
M  V30 3378 C 340.629 1.33848 2.42858 0
M  V30 3379 H 343.58 1.14144 1.10258 0
M  V30 3380 H 343.601 0.567544 3.76244 0
M  V30 3381 H 343.113 2.28244 3.13889 0
M  V30 3382 H 341.214 -0.112821 3.72429 0
M  V30 3383 H 341.327 1.59645 4.51719 0
M  V30 3384 H 339.691 0.756864 2.43195 0
M  V30 3385 H 340.474 2.42827 2.42673 0
M  V30 3386 N 342.919 -1.39368 0.735821 0
M  V30 3387 C 344.144 -2.05319 0.293052 0
M  V30 3388 C 344.569 -1.55115 -1.064 0
M  V30 3389 O 343.927 -0.695261 -1.67439 0
M  V30 3390 C 343.975 -3.59305 0.305323 0
M  V30 3391 O 343.079 -4.06299 -0.706761 0
M  V30 3392 H 342.42 -0.650529 0.13307 0
M  V30 3393 H 344.95 -1.78386 1.00197 0
M  V30 3394 H 344.96 -4.07724 0.149997 0
M  V30 3395 H 343.635 -3.95207 1.29553 0
M  V30 3396 H 342.212 -3.69292 -0.517504 0
M  V30 3397 N 344.397 -0.483516 -1.5 0
M  V30 3398 C 345.643 0.0672592 -2.02688 0
M  V30 3399 C 345.976 1.38247 -1.36387 0
M  V30 3400 O 345.251 1.88131 -0.493675 0
M  V30 3401 C 345.534 0.238109 -3.59312 0
M  V30 3402 C 345.387 -1.099 -4.36168 0
M  V30 3403 C 346.706 0.986916 -4.28892 0
M  V30 3404 H 343.825 0.0229696 -0.736642 0
M  V30 3405 H 346.467 -0.631527 -1.79197 0
M  V30 3406 H 344.617 0.8333 -3.79458 0
M  V30 3407 H 346.289 -1.73172 -4.27562 0
M  V30 3408 H 344.532 -1.69261 -3.99416 0
M  V30 3409 H 345.203 -0.932954 -5.44059 0
M  V30 3410 H 347.679 0.482302 -4.13295 0
M  V30 3411 H 346.555 1.07527 -5.38265 0
M  V30 3412 H 346.816 2.0265 -3.92919 0
M  V30 3413 N 345.875 1.56104 -0.216619 0
M  V30 3414 C 347.103 2.02563 0.421413 0
M  V30 3415 C 347.518 1.0965 1.53695 0
M  V30 3416 O 346.875 0.10521 1.82196 0
M  V30 3417 C 346.926 3.48584 0.957665 0
M  V30 3418 O 346.647 4.37953 -0.113389 0
M  V30 3419 C 348.148 4.10664 1.66943 0
M  V30 3420 H 345.368 0.662944 0.103665 0
M  V30 3421 H 347.912 2.01793 -0.331629 0
M  V30 3422 H 346.067 3.49985 1.661 0
M  V30 3423 H 346.481 5.23704 0.288932 0
M  V30 3424 H 347.955 5.14622 1.99671 0
M  V30 3425 H 348.432 3.55373 2.58083 0
M  V30 3426 H 349.038 4.13098 1.01142 0
M  V30 3427 N 347.353 -0.0568162 1.57498 0
M  V30 3428 C 348.283 -1.06593 2.0775 0
M  V30 3429 C 349.264 -1.39448 0.974082 0
M  V30 3430 O 350.449 -1.48815 1.24771 0
M  V30 3431 C 347.579 -2.37509 2.5339 0
M  V30 3432 C 346.533 -2.1897 3.67745 0
M  V30 3433 C 345.859 -3.55402 3.99492 0
M  V30 3434 C 347.159 -1.59859 4.97235 0
M  V30 3435 H 348.853 -0.647706 2.9231 0
M  V30 3436 H 346.399 -0.310116 1.40621 0
M  V30 3437 H 348.352 -3.08409 2.87162 0
M  V30 3438 H 347.076 -2.8134 1.65878 0
M  V30 3439 H 345.735 -1.50508 3.3428 0
M  V30 3440 H 345.383 -3.9683 3.09088 0
M  V30 3441 H 345.083 -3.43831 4.76502 0
M  V30 3442 H 346.607 -4.27708 4.35773 0
M  V30 3443 H 348.021 -2.20642 5.29141 0
M  V30 3444 H 346.418 -1.58942 5.78669 0
M  V30 3445 H 347.488 -0.561506 4.81638 0
M  V30 3446 N 348.832 -1.54138 -0.328536 0
M  V30 3447 C 350.079 -1.72105 -1.06706 0
M  V30 3448 C 350.407 -0.492111 -1.88171 0
M  V30 3449 O 349.662 0.526153 -1.88494 0
M  V30 3450 C 349.961 -2.9457 -2.02393 0
M  V30 3451 C 349.627 -4.29544 -1.37122 0
M  V30 3452 C 348.289 -4.6624 -1.19052 0
M  V30 3453 C 350.641 -5.1333 -0.902331 0
M  V30 3454 C 347.969 -5.84325 -0.527331 0
M  V30 3455 C 350.321 -6.32094 -0.252988 0
M  V30 3456 C 348.985 -6.67473 -0.0600901 0
M  V30 3457 H 348.255 -0.629775 -0.390466 0
M  V30 3458 H 350.902 -1.88372 -0.34473 0
M  V30 3459 H 349.207 -2.72969 -2.81061 0
M  V30 3460 H 350.904 -3.05665 -2.59557 0
M  V30 3461 H 347.494 -4.0067 -1.52188 0
M  V30 3462 H 351.678 -4.855 -1.02974 0
M  V30 3463 H 346.934 -6.103 -0.366634 0
M  V30 3464 H 351.108 -6.96299 0.118366 0
M  V30 3465 H 348.735 -7.58832 0.455828 0
M  V30 3466 N 350.31 0.590341 -1.46126 0
M  V30 3467 C 351.721 1.17243 -1.45296 0
M  V30 3468 C 352.072 1.95281 -0.189723 0
M  V30 3469 O 351.197 2.04502 0.707674 0
M  V30 3470 C 351.792 2.13284 -2.6324 0
M  V30 3471 C 350.351 2.66832 -2.65476 0
M  V30 3472 C 349.498 1.42557 -2.3785 0
M  V30 3473 H 352.449 0.378692 -1.54116 0
M  V30 3474 H 352.47 2.96619 -2.38323 0
M  V30 3475 H 351.982 1.56459 -3.55165 0
M  V30 3476 H 350.083 3.27548 -1.77603 0
M  V30 3477 H 350.196 3.10088 -3.65215 0
M  V30 3478 H 348.56 1.72107 -1.87753 0
M  V30 3479 H 349.343 0.875741 -3.31942 0
M  V30 3480 N 351.788 1.33704 0.83433 0
M  V30 3481 C 353.199 1.22813 1.4062 0
M  V30 3482 C 353.55 -0.151107 1.95617 0
M  V30 3483 O 352.675 -1.05092 1.89168 0
M  V30 3484 C 353.27 2.22355 2.55624 0
M  V30 3485 C 351.829 2.1529 3.08751 0
M  V30 3486 C 350.976 2.09589 1.8157 0
M  V30 3487 H 353.927 1.45236 0.639702 0
M  V30 3488 H 353.948 1.83391 3.33389 0
M  V30 3489 H 353.46 3.22728 2.15566 0
M  V30 3490 H 351.561 1.18235 3.53343 0
M  V30 3491 H 351.674 3.06038 3.68616 0
M  V30 3492 H 350.038 1.55134 2.02004 0
M  V30 3493 H 350.821 3.11777 1.43701 0
M  V30 3494 N 353.266 -1.05314 1.17247 0
M  V30 3495 C 354.213 -2.13031 0.888058 0
M  V30 3496 C 355.183 -1.65253 -0.167537 0
M  V30 3497 O 356.368 -1.90775 -0.0305974 0
M  V30 3498 C 353.508 -3.42702 0.406147 0
M  V30 3499 C 352.621 -4.04161 1.52572 0
M  V30 3500 C 351.756 -5.21744 0.997808 0
M  V30 3501 C 350.795 -5.75207 2.09291 0
M  V30 3502 N 349.932 -6.84094 1.57986 0
M  V30 3503 H 354.772 -2.36698 1.81048 0
M  V30 3504 H 352.309 -1.16121 0.903013 0
M  V30 3505 H 354.267 -4.17059 0.108305 0
M  V30 3506 H 352.897 -3.19222 -0.479313 0
M  V30 3507 H 351.949 -3.27253 1.93931 0
M  V30 3508 H 353.261 -4.39881 2.35172 0
M  V30 3509 H 352.415 -6.03168 0.653739 0
M  V30 3510 H 351.154 -4.87495 0.141232 0
M  V30 3511 H 350.159 -4.92414 2.44557 0
M  V30 3512 H 351.384 -6.11505 2.95362 0
M  V30 3513 H 349.33 -6.51745 0.74598 0
M  V30 3514 H 349.247 -7.18811 2.34195 0
M  V30 3515 H 350.515 -7.69172 1.26468 0
M  V30 3516 N 354.744 -0.972509 -1.24016 0
M  V30 3517 C 356.155 -0.67517 -1.74064 0
M  V30 3518 C 356.506 0.808939 -1.78747 0
M  V30 3519 O 355.631 1.63286 -1.42009 0
M  V30 3520 C 356.226 -1.21889 -3.16115 0
M  V30 3521 C 354.785 -0.971358 -3.6365 0
M  V30 3522 C 353.932 -1.35134 -2.42145 0
M  V30 3523 H 356.883 -1.14727 -1.09651 0
M  V30 3524 H 356.904 -0.587489 -3.75937 0
M  V30 3525 H 356.416 -2.29906 -3.12674 0
M  V30 3526 H 354.517 0.0930686 -3.72484 0
M  V30 3527 H 354.63 -1.62039 -4.50866 0
M  V30 3528 H 352.994 -0.769751 -2.4279 0
M  V30 3529 H 353.777 -2.4411 -2.41381 0
M  V30 3530 N 356.222 1.38976 -0.743202 0
M  V30 3531 C 357.169 2.30544 -0.10861 0
M  V30 3532 C 358.139 1.49642 0.720869 0
M  V30 3533 O 359.324 1.78304 0.679142 0
M  V30 3534 C 356.464 3.36018 0.786496 0
M  V30 3535 C 355.577 4.31963 -0.0564849 0
M  V30 3536 C 354.712 5.24506 0.840657 0
M  V30 3537 C 353.751 6.121 -0.00658363 0
M  V30 3538 N 352.888 6.96973 0.846943 0
M  V30 3539 H 357.728 2.8424 -0.895088 0
M  V30 3540 H 355.265 1.3995 -0.453048 0
M  V30 3541 H 357.223 3.95768 1.31999 0
M  V30 3542 H 355.853 2.83758 1.53887 0
M  V30 3543 H 354.905 3.73763 -0.707492 0
M  V30 3544 H 356.217 4.93703 -0.711229 0
M  V30 3545 H 355.371 5.89322 1.4417 0
M  V30 3546 H 354.11 4.63107 1.52916 0
M  V30 3547 H 353.115 5.46289 -0.620366 0
M  V30 3548 H 354.34 6.75565 -0.691992 0
M  V30 3549 H 352.286 6.38133 1.52059 0
M  V30 3550 H 352.203 7.5559 0.248864 0
M  V30 3551 H 353.471 7.6621 1.43328 0
M  V30 3552 N 357.7 0.491464 1.49741 0
M  V30 3553 C 358.977 -0.118984 1.95238 0
M  V30 3554 C 359.357 -1.55044 1.43264 0
M  V30 3555 O 358.705 -2.19287 0.642287 0
M  V30 3556 C 358.915 -0.0414187 3.48975 0
M  V30 3557 C 360.263 -0.220133 4.24029 0
M  V30 3558 O 361.287 -0.117055 3.56008 0
M  V30 3559 O 360.146 -0.430567 5.44801 0
M  V30 3560 H 357.24 -0.100536 0.820866 0
M  V30 3561 H 359.786 0.553322 1.60426 0
M  V30 3562 H 358.558 0.957214 3.79412 0
M  V30 3563 H 358.181 -0.754292 3.9038 0
M  V30 3564 N 359.178 -1.55987 0.224894 0
M  V30 3565 C 360.406 -2.02784 -0.410665 0
M  V30 3566 C 360.821 -1.10464 -1.53112 0
M  V30 3567 O 360.178 -0.114871 -1.82138 0
M  V30 3568 C 360.229 -3.49087 -0.939165 0
M  V30 3569 O 359.95 -4.37887 0.136614 0
M  V30 3570 C 361.451 -4.11543 -1.64763 0
M  V30 3571 H 358.671 -0.663484 -0.100148 0
M  V30 3572 H 361.215 -2.01614 0.342326 0
M  V30 3573 H 359.37 -3.50861 -1.64242 0
M  V30 3574 H 359.784 -5.23849 -0.261155 0
M  V30 3575 H 361.258 -5.15673 -1.96939 0
M  V30 3576 H 361.735 -3.56736 -2.56195 0
M  V30 3577 H 362.341 -4.13629 -0.989503 0
M  V30 3578 N 360.656 0.0484629 -1.57525 0
M  V30 3579 C 361.586 1.0549 -2.08313 0
M  V30 3580 C 362.567 1.38929 -0.981463 0
M  V30 3581 O 363.752 1.48151 -1.25558 0
M  V30 3582 C 360.882 2.36162 -2.54646 0
M  V30 3583 C 359.836 2.17016 -3.68901 0
M  V30 3584 C 359.162 3.53278 -4.01371 0
M  V30 3585 C 360.462 1.57219 -4.98076 0
M  V30 3586 H 362.156 0.632195 -2.92649 0
M  V30 3587 H 359.702 0.302654 -1.40784 0
M  V30 3588 H 361.655 3.06882 -2.88793 0
M  V30 3589 H 360.379 2.80456 -1.67368 0
M  V30 3590 H 359.038 1.48733 -3.35073 0
M  V30 3591 H 358.686 3.95185 -3.11188 0
M  V30 3592 H 358.386 3.41299 -4.78318 0
M  V30 3593 H 359.91 4.25391 -4.38035 0
M  V30 3594 H 361.324 2.17832 -5.30304 0
M  V30 3595 H 359.721 1.55871 -5.79503 0
M  V30 3596 H 360.791 0.535956 -4.81929 0
M  V30 3597 N 362.134 1.5431 0.320358 0
M  V30 3598 C 363.067 1.78769 1.41834 0
M  V30 3599 C 364.045 0.63783 1.49568 0
M  V30 3600 O 365.229 0.875628 1.66928 0
M  V30 3601 C 362.356 1.90712 2.79905 0
M  V30 3602 C 361.402 3.13023 2.89687 0
M  V30 3603 S 362.235 4.71554 2.53766 0
M  V30 3604 C 363.391 4.86408 3.93902 0
M  V30 3605 H 363.624 2.71619 1.20874 0
M  V30 3606 H 361.157 1.45474 0.517377 0
M  V30 3607 H 363.115 1.98279 3.59438 0
M  V30 3608 H 361.776 0.988343 2.98145 0
M  V30 3609 H 360.969 3.18124 3.90913 0
M  V30 3610 H 360.571 3.03803 2.18128 0
M  V30 3611 H 362.863 4.69241 4.88691 0
M  V30 3612 H 363.806 5.88508 3.93782 0
M  V30 3613 H 364.214 4.14689 3.83005 0
M  V30 3614 N 363.613 -0.582584 1.46437 0
M  V30 3615 C 364.862 -1.337 1.5102 0
M  V30 3616 C 365.175 -1.94891 0.166359 0
M  V30 3617 O 366.381 -2.71351 0.0899954 0
M  V30 3618 C 364.837 -2.42315 2.66104 0
M  V30 3619 C 364.445 -1.87427 4.06909 0
M  V30 3620 C 366.189 -3.19099 2.79958 0
M  V30 3621 C 364.096 -2.93672 5.13333 0
M  V30 3622 H 363.026 -0.502619 0.562041 0
M  V30 3623 H 365.677 -0.621701 1.72647 0
M  V30 3624 H 364.059 -3.16645 2.37807 0
M  V30 3625 H 365.233 -1.19639 4.44998 0
M  V30 3626 H 363.548 -1.2331 3.97723 0
M  V30 3627 H 366.145 -3.9839 3.56636 0
M  V30 3628 H 366.488 -3.71695 1.87479 0
M  V30 3629 H 367.021 -2.51875 3.07902 0
M  V30 3630 H 363.76 -2.45962 6.07604 0
M  V30 3631 H 363.28 -3.59948 4.79789 0
M  V30 3632 H 364.959 -3.5762 5.39182 0
M  V30 3633 N 365.091 -1.34144 -0.827227 0
M  V30 3634 C 366.316 -1.29476 -1.62021 0
M  V30 3635 C 366.741 0.129292 -1.87655 0
M  V30 3636 O 366.099 1.08967 -1.449 0
M  V30 3637 C 366.147 -2.08702 -2.94068 0
M  V30 3638 O 365.251 -1.45359 -3.85933 0
M  V30 3639 H 364.592 -0.444881 -0.492927 0
M  V30 3640 H 367.122 -1.76882 -1.02829 0
M  V30 3641 H 367.132 -2.19898 -3.43669 0
M  V30 3642 H 365.807 -3.12241 -2.74734 0
M  V30 3643 H 364.384 -1.42879 -3.44442 0
M  V30 3644 N 366.569 1.04691 -1.17803 0
M  V30 3645 C 367.985 1.29963 -0.926379 0
M  V30 3646 C 368.185 1.97251 0.411635 0
M  V30 3647 O 367.241 2.24922 1.14744 0
M  V30 3648 C 368.554 2.16447 -2.08737 0
M  V30 3649 C 370.102 2.29814 -2.12496 0
M  V30 3650 C 370.577 3.19661 -3.27995 0
M  V30 3651 N 372.068 3.27247 -3.27816 0
M  V30 3652 C 372.803 3.96906 -4.13827 0
M  V30 3653 N 372.299 4.6895 -5.09959 0
M  V30 3654 N 374.092 3.93122 -4.01761 0
M  V30 3655 H 366.243 0.594182 -2.0392 0
M  V30 3656 H 368.506 0.324649 -0.890678 0
M  V30 3657 H 368.212 1.74304 -3.05469 0
M  V30 3658 H 368.086 3.17103 -2.04268 0
M  V30 3659 H 370.473 2.71196 -1.16347 0
M  V30 3660 H 370.554 1.2877 -2.21025 0
M  V30 3661 H 370.198 2.78991 -4.24413 0
M  V30 3662 H 370.128 4.20722 -3.16703 0
M  V30 3663 H 372.619 2.75921 -2.58217 0
M  V30 3664 H 372.932 5.19679 -5.71974 0
M  V30 3665 H 371.277 4.67875 -5.13924 0
M  V30 3666 H 374.468 3.35967 -3.2595 0
M  V30 3667 H 374.641 4.47139 -4.6901 0
M  V30 3668 N 368.047 0.979072 1.23499 0
M  V30 3669 C 369.275 0.665202 1.95915 0
M  V30 3670 C 369.69 -0.767571 1.72493 0
M  V30 3671 O 369.047 -1.51635 1.01554 0
M  V30 3672 C 369.098 0.944438 3.48945 0
M  V30 3673 O 368.819 2.3209 3.71572 0
M  V30 3674 C 370.32 0.646336 4.38563 0
M  V30 3675 H 367.54 0.247218 0.623798 0
M  V30 3676 H 370.084 1.31009 1.57025 0
M  V30 3677 H 368.239 0.345575 3.85856 0
M  V30 3678 H 368.653 2.40957 4.65876 0
M  V30 3679 H 370.127 0.892091 5.44744 0
M  V30 3680 H 370.604 -0.419575 4.37191 0
M  V30 3681 H 371.21 1.22562 4.07258 0
M  V30 3682 N 369.525 -1.3858 0.750561 0
M  V30 3683 C 370.936 -1.82927 0.373438 0
M  V30 3684 C 371.287 -1.62634 -1.09748 0
M  V30 3685 O 370.412 -1.12588 -1.84805 0
M  V30 3686 C 371.007 -3.32088 0.671029 0
M  V30 3687 C 369.566 -3.74795 0.34722 0
M  V30 3688 C 368.713 -2.61391 0.92575 0
M  V30 3689 H 371.664 -1.27351 0.946958 0
M  V30 3690 H 371.685 -3.80465 -0.0518269 0
M  V30 3691 H 371.197 -3.46826 1.74164 0
M  V30 3692 H 369.298 -3.65638 -0.716933 0
M  V30 3693 H 369.411 -4.71667 0.840656 0
M  V30 3694 H 367.775 -2.52265 0.351327 0
M  V30 3695 H 368.558 -2.78929 2.00133 0
M  V30 3696 N 371.003 -0.499398 -1.49478 0
M  V30 3697 C 371.913 0.284489 -2.32869 0
M  V30 3698 C 372.929 0.968885 -1.44529 0
M  V30 3699 O 374.105 0.95062 -1.77553 0
M  V30 3700 C 371.17 1.33594 -3.19928 0
M  V30 3701 C 370.231 0.665149 -4.24116 0
M  V30 3702 C 369.464 1.6665 -5.07014 0
M  V30 3703 O 369.687 2.89618 -4.91404 0
M  V30 3704 O 368.621 1.22271 -5.8935 0
M  V30 3705 H 372.447 -0.39802 -3.01081 0
M  V30 3706 H 370.032 -0.260758 -1.47107 0
M  V30 3707 H 371.914 1.94431 -3.73864 0
M  V30 3708 H 370.589 2.0014 -2.54412 0
M  V30 3709 H 369.496 0.0170769 -3.74096 0
M  V30 3710 H 370.829 0.0421555 -4.92182 0
M  V30 3711 N 372.481 1.55866 -0.233164 0
M  V30 3712 C 373.727 1.98897 0.395959 0
M  V30 3713 C 374.06 1.12091 1.58585 0
M  V30 3714 O 373.335 0.181182 1.93654 0
M  V30 3715 C 373.618 3.50658 0.819224 0
M  V30 3716 C 373.471 4.48233 -0.375109 0
M  V30 3717 C 374.79 4.07135 1.67121 0
M  V30 3718 H 371.909 0.723102 0.142451 0
M  V30 3719 H 374.551 1.87082 -0.331725 0
M  V30 3720 H 372.701 3.60857 1.43925 0
M  V30 3721 H 374.373 4.50031 -1.01341 0
M  V30 3722 H 372.616 4.21624 -1.02058 0
M  V30 3723 H 373.287 5.51988 -0.0358328 0
M  V30 3724 H 375.763 3.99952 1.14795 0
M  V30 3725 H 374.639 5.13615 1.93625 0
M  V30 3726 H 374.9 3.54736 2.63846 0
M  V30 3727 N 373.959 -0.0401083 1.57549 0
M  V30 3728 C 375.187 -0.745196 1.93014 0
M  V30 3729 C 375.602 -1.6948 0.831984 0
M  V30 3730 O 374.959 -1.81482 -0.192463 0
M  V30 3731 C 375.01 -1.51176 3.28372 0
M  V30 3732 O 374.731 -0.600284 4.33968 0
M  V30 3733 C 376.232 -2.315 3.78051 0
M  V30 3734 H 373.452 -0.210088 0.637263 0
M  V30 3735 H 375.996 -0.000924689 2.045 0
M  V30 3736 H 374.151 -2.20801 3.18317 0
M  V30 3737 H 374.565 -1.13669 5.12035 0
M  V30 3738 H 376.039 -2.80697 4.75303 0
M  V30 3739 H 376.516 -3.12436 3.08675 0
M  V30 3740 H 377.122 -1.66971 3.91153 0
M  V30 3741 N 375.437 -1.54477 -0.31217 0
M  V30 3742 C 376.677 -1.74958 -1.05684 0
M  V30 3743 C 377.041 -0.518414 -1.84869 0
M  V30 3744 O 378.242 -0.600759 -2.62001 0
M  V30 3745 C 376.513 -2.99656 -1.94785 0
M  V30 3746 S 378.072 -3.4109 -2.76049 0
M  V30 3747 H 374.89 -0.615104 -0.356606 0
M  V30 3748 H 377.492 -1.92669 -0.331514 0
M  V30 3749 H 376.196 -3.87397 -1.35468 0
M  V30 3750 H 375.727 -2.845 -2.71704 0
M  V30 3751 H 377.742 -2.97283 -3.97287 0
M  V30 3752 N 376.915 0.57481 -1.46744 0
M  V30 3753 C 378.161 1.3347 -1.52688 0
M  V30 3754 C 378.494 1.93353 -0.181229 0
M  V30 3755 O 377.769 1.76912 0.808237 0
M  V30 3756 C 378.052 2.45811 -2.63152 0
M  V30 3757 C 377.905 1.90912 -4.07275 0
M  V30 3758 C 379.224 3.47822 -2.69644 0
M  V30 3759 H 376.343 0.483935 -0.555856 0
M  V30 3760 H 378.985 0.644968 -1.78718 0
M  V30 3761 H 377.135 3.04646 -2.41088 0
M  V30 3762 H 378.807 1.36473 -4.4065 0
M  V30 3763 H 377.05 1.21691 -4.16382 0
M  V30 3764 H 377.721 2.72042 -4.80309 0
M  V30 3765 H 380.197 2.9888 -2.895 0
M  V30 3766 H 379.073 4.23876 -3.48742 0
M  V30 3767 H 379.334 4.05555 -1.76005 0
M  V30 3768 N 378.394 1.34581 0.820102 0
M  V30 3769 C 379.64 1.27285 1.57881 0
M  V30 3770 C 379.973 -0.156137 1.93571 0
M  V30 3771 O 379.248 -1.10222 1.60254 0
M  V30 3772 C 379.531 2.16639 2.87645 0
M  V30 3773 C 379.384 3.68088 2.58517 0
M  V30 3774 C 380.703 2.05378 3.8924 0
M  V30 3775 H 377.822 0.463714 0.572833 0
M  V30 3776 H 380.464 1.64859 0.944539 0
M  V30 3777 H 378.614 1.84725 3.41773 0
M  V30 3778 H 380.286 4.10382 2.10676 0
M  V30 3779 H 378.529 3.89038 1.91917 0
M  V30 3780 H 379.2 4.2598 3.51063 0
M  V30 3781 H 381.676 2.33404 3.44473 0
M  V30 3782 H 380.552 2.7012 4.77835 0
M  V30 3783 H 380.813 1.0316 4.29896 0
M  V30 3784 N 379.872 -1.04064 1.18357 0
M  V30 3785 C 381.118 -1.77528 0.980397 0
M  V30 3786 C 381.451 -1.87948 -0.48879 0
M  V30 3787 O 380.726 -1.3876 -1.36293 0
M  V30 3788 C 381.009 -3.20797 1.63588 0
M  V30 3789 C 380.862 -3.1832 3.17793 0
M  V30 3790 C 382.181 -4.18911 1.34914 0
M  V30 3791 H 379.3 -0.644443 0.357578 0
M  V30 3792 H 381.942 -1.2156 1.46024 0
M  V30 3793 H 380.092 -3.68586 1.22788 0
M  V30 3794 H 381.764 -2.78521 3.67728 0
M  V30 3795 H 380.007 -2.56351 3.49952 0
M  V30 3796 H 380.678 -4.19489 3.58794 0
M  V30 3797 H 383.154 -3.7967 1.70265 0
M  V30 3798 H 382.03 -5.17374 1.83346 0
M  V30 3799 H 382.291 -4.41262 0.272027 0
M  V30 3800 N 381.35 -0.985608 -1.22978 0
M  V30 3801 C 382.627 -0.573599 -1.87001 0
M  V30 3802 C 383.007 0.949213 -1.88555 0
M  V30 3803 O 382.355 1.82811 -1.37086 0
M  V30 3804 C 382.565 -1.18564 -3.28243 0
M  V30 3805 C 383.913 -1.28163 -4.04796 0
M  V30 3806 O 384.937 -1.13949 -3.37482 0
M  V30 3807 O 383.796 -1.50832 -5.25273 0
M  V30 3808 H 380.89 -0.193868 -0.803955 0
M  V30 3809 H 383.436 -1.08102 -1.30813 0
M  V30 3810 H 382.208 -2.22758 -3.21706 0
M  V30 3811 H 381.831 -0.663363 -3.92027 0
M  V30 3812 N 382.828 1.3818 -0.7579 0
M  V30 3813 C 384.074 2.00316 -0.316453 0
M  V30 3814 C 384.407 1.60026 1.10025 0
M  V30 3815 O 383.682 0.839835 1.75434 0
M  V30 3816 C 383.965 3.57349 -0.444245 0
M  V30 3817 C 383.818 4.07591 -1.90236 0
M  V30 3818 C 385.137 4.3981 0.1598 0
M  V30 3819 H 382.256 0.727741 -0.116459 0
M  V30 3820 H 384.898 1.6406 -0.958352 0
M  V30 3821 H 383.048 3.88365 0.102233 0
M  V30 3822 H 384.72 3.87199 -2.50748 0
M  V30 3823 H 382.963 3.60297 -2.41595 0
M  V30 3824 H 383.634 5.16677 -1.94291 0
M  V30 3825 H 386.11 4.14971 -0.306314 0
M  V30 3826 H 384.986 5.48885 0.0401675 0
M  V30 3827 H 385.247 4.24102 1.24859 0
M  V30 3828 N 384.306 0.507319 1.49211 0
M  V30 3829 C 385.531 -0.033725 2.07373 0
M  V30 3830 C 385.956 -1.29485 1.36437 0
M  V30 3831 O 385.314 -1.76294 0.423087 0
M  V30 3832 C 385.362 -0.263945 3.59633 0
M  V30 3833 O 384.466 -1.33737 3.90113 0
M  V30 3834 H 383.807 0.0290331 0.663365 0
M  V30 3835 H 386.337 0.708749 1.91932 0
M  V30 3836 H 386.347 -0.493536 4.05004 0
M  V30 3837 H 385.022 0.657424 4.10671 0
M  V30 3838 H 383.599 -1.09224 3.56545 0
M  V30 3839 N 385.784 -1.5574 0.241426 0
M  V30 3840 C 386.734 -2.17803 -0.674233 0
M  V30 3841 C 387.718 -1.13225 -1.14319 0
M  V30 3842 O 388.91 -1.39153 -1.09387 0
M  V30 3843 C 386.039 -2.87682 -1.87333 0
M  V30 3844 C 385.125 -3.99509 -1.42313 0
M  V30 3845 N 385.516 -5.01115 -0.686798 0
M  V30 3846 C 383.814 -4.11964 -1.70885 0
M  V30 3847 C 384.515 -5.79922 -0.454456 0
M  V30 3848 N 383.491 -5.34001 -1.01705 0
M  V30 3849 H 387.293 -2.93718 -0.103447 0
M  V30 3850 H 384.807 -1.62342 0.0435095 0
M  V30 3851 H 386.804 -3.3057 -2.54026 0
M  V30 3852 H 385.464 -2.13269 -2.4484 0
M  V30 3853 H 386.475 -5.16799 -0.337459 0
M  V30 3854 H 383.152 -3.48718 -2.2957 0
M  V30 3855 H 384.542 -6.71768 0.132992 0
M  V30 3856 N 387.262 0.0317525 -1.57568 0
M  V30 3857 C 388.172 1.05021 -2.0978 0
M  V30 3858 C 389.188 1.39809 -1.03583 0
M  V30 3859 O 390.364 1.49182 -1.35302 0
M  V30 3860 C 387.429 2.33301 -2.56459 0
M  V30 3861 C 386.49 2.0512 -3.77127 0
M  V30 3862 C 385.723 3.27283 -4.2157 0
M  V30 3863 O 385.946 4.37861 -3.65559 0
M  V30 3864 O 384.88 3.13141 -5.14029 0
M  V30 3865 H 388.706 0.636505 -2.96955 0
M  V30 3866 H 386.291 0.248559 -1.47318 0
M  V30 3867 H 388.173 3.08722 -2.86825 0
M  V30 3868 H 386.848 2.73973 -1.72397 0
M  V30 3869 H 385.755 1.27276 -3.51784 0
M  V30 3870 H 387.088 1.69305 -4.62165 0
M  V30 3871 N 388.74 1.54641 0.303973 0
M  V30 3872 C 390.017 1.64455 1.05896 0
M  V30 3873 C 390.397 0.490923 2.05312 0
M  V30 3874 O 389.745 -0.512685 2.22674 0
M  V30 3875 C 389.955 3.02331 1.74347 0
M  V30 3876 C 391.303 3.59045 2.26653 0
M  V30 3877 O 392.327 3.04764 1.84384 0
M  V30 3878 O 391.186 4.54081 3.04093 0
M  V30 3879 H 388.28 0.666729 0.489287 0
M  V30 3880 H 390.826 1.66986 0.302298 0
M  V30 3881 H 389.598 3.77734 1.02142 0
M  V30 3882 H 389.221 3.03565 2.56777 0
M  V30 3883 N 390.218 -0.567019 1.47046 0
M  V30 3884 C 391.629 -1.14916 1.47143 0
M  V30 3885 C 391.98 -1.94954 0.220767 0
M  V30 3886 O 391.105 -2.05602 -0.67505 0
M  V30 3887 C 391.7 -2.09069 2.666 0
M  V30 3888 C 390.259 -2.62575 2.69687 0
M  V30 3889 C 389.406 -1.38755 2.40088 0
M  V30 3890 H 392.357 -0.354126 1.54699 0
M  V30 3891 H 392.378 -2.92789 2.43011 0
M  V30 3892 H 391.89 -1.50789 3.57609 0
M  V30 3893 H 389.991 -3.24681 1.82792 0
M  V30 3894 H 390.104 -3.04239 3.70102 0
M  V30 3895 H 388.468 -1.69098 1.90468 0
M  V30 3896 H 389.251 -0.822822 3.33293 0
M  V30 3897 N 391.696 -1.35014 -0.812953 0
M  V30 3898 C 392.606 -1.2951 -1.95613 0
M  V30 3899 C 393.622 -0.20107 -1.72834 0
M  V30 3900 O 394.798 -0.42932 -1.96771 0
M  V30 3901 C 391.863 -1.06033 -3.30088 0
M  V30 3902 C 390.924 -2.24688 -3.65805 0
M  V30 3903 C 390.157 -2.02322 -4.93864 0
M  V30 3904 O 390.38 -0.986464 -5.61805 0
M  V30 3905 O 389.314 -2.89525 -5.27692 0
M  V30 3906 H 393.14 -2.25705 -2.03202 0
M  V30 3907 H 390.725 -1.15321 -0.949811 0
M  V30 3908 H 392.607 -0.94763 -4.10607 0
M  V30 3909 H 391.282 -0.128852 -3.23443 0
M  V30 3910 H 390.189 -2.41521 -2.85689 0
M  V30 3911 H 391.522 -3.16261 -3.77147 0
M  V30 3912 N 393.175 1.03435 -1.18907 0
M  V30 3913 C 394.421 1.77005 -0.989798 0
M  V30 3914 C 394.754 1.88205 0.478816 0
M  V30 3915 O 394.029 1.39481 1.35556 0
M  V30 3916 C 394.312 3.19925 -1.65287 0
M  V30 3917 C 394.165 3.1663 -3.19477 0
M  V30 3918 C 395.484 4.18189 -1.37134 0
M  V30 3919 H 392.603 0.642538 -0.360991 0
M  V30 3920 H 395.245 1.20784 -1.46667 0
M  V30 3921 H 393.395 3.67929 -1.24741 0
M  V30 3922 H 395.067 2.76567 -3.692 0
M  V30 3923 H 393.31 2.54491 -3.51307 0
M  V30 3924 H 393.981 4.1758 -3.61013 0
M  V30 3925 H 396.457 3.78761 -1.72276 0
M  V30 3926 H 395.333 5.16394 -1.86087 0
M  V30 3927 H 395.594 4.41112 -0.295424 0
M  V30 3928 N 394.653 0.992116 1.22453 0
M  V30 3929 C 395.6 0.541731 2.24352 0
M  V30 3930 C 396.57 -0.425519 1.60557 0
M  V30 3931 O 397.755 -0.330453 1.87917 0
M  V30 3932 C 394.895 -0.138248 3.44823 0
M  V30 3933 C 394.008 0.870649 4.23136 0
M  V30 3934 C 393.143 0.164269 5.30946 0
M  V30 3935 C 392.182 1.16159 6.00977 0
M  V30 3936 N 391.319 0.483568 7.00433 0
M  V30 3937 H 396.159 1.41541 2.62241 0
M  V30 3938 H 393.696 0.709013 1.28885 0
M  V30 3939 H 395.654 -0.5494 4.13567 0
M  V30 3940 H 394.284 -0.975721 3.077 0
M  V30 3941 H 393.336 1.40013 3.53696 0
M  V30 3942 H 394.648 1.63014 4.7141 0
M  V30 3943 H 393.802 -0.303653 6.0594 0
M  V30 3944 H 392.541 -0.627733 4.83643 0
M  V30 3945 H 391.546 1.64015 5.24766 0
M  V30 3946 H 392.771 1.95445 6.50368 0
M  V30 3947 H 390.717 -0.289012 6.55363 0
M  V30 3948 H 390.634 1.18152 7.4671 0
M  V30 3949 H 391.902 0.0384219 7.79491 0
M  V30 3950 N 396.131 -1.37776 0.765217 0
M  V30 3951 C 397.378 -1.99849 0.326588 0
M  V30 3952 C 397.706 -1.60746 -1.09504 0
M  V30 3953 O 396.961 -0.84202 -1.76659 0
M  V30 3954 C 397.26 -3.5504 0.410053 0
M  V30 3955 C 396.926 -4.13891 1.78899 0
M  V30 3956 C 395.588 -4.29678 2.16635 0
M  V30 3957 C 397.94 -4.46236 2.69301 0
M  V30 3958 C 395.268 -4.7511 3.44221 0
M  V30 3959 C 397.62 -4.93089 3.9629 0
M  V30 3960 C 396.284 -5.07082 4.34078 0
M  V30 3961 H 395.554 -0.7313 0.119507 0
M  V30 3962 H 398.201 -1.64645 0.977968 0
M  V30 3963 H 396.506 -3.90451 -0.324878 0
M  V30 3964 H 398.203 -4.00966 0.0520699 0
M  V30 3965 H 394.793 -4.02026 1.48569 0
M  V30 3966 H 398.977 -4.3363 2.41409 0
M  V30 3967 H 394.233 -4.84129 3.73402 0
M  V30 3968 H 398.407 -5.17084 4.66472 0
M  V30 3969 H 396.034 -5.42046 5.33001 0
M  V30 3970 N 397.609 -0.515225 -1.4894 0
M  V30 3971 C 398.557 0.269115 -2.31038 0
M  V30 3972 C 399.551 0.949443 -1.40292 0
M  V30 3973 O 400.757 0.87551 -1.57273 0
M  V30 3974 H 397.132 0.10565 -0.744542 0
M  V30 3975 H 399.103 -0.443096 -2.95092 0
M  V30 3976 C 397.852 1.31213 -3.21991 0
M  V30 3977 H 397.175 0.798034 -3.91754 0
M  V30 3978 H 398.615 1.83263 -3.82349 0
M  V30 3979 C 397.074 2.33791 -2.42576 0
M  V30 3980 O 397.604 3.3995 -2.14003 0
M  V30 3981 N 395.81 2.06625 -2.0434 0
M  V30 3982 H 395.357 1.20314 -2.27777 0
M  V30 3983 H 395.315 2.75483 -1.51514 0
M  V30 3984 N 399.087 1.5561 -0.249682 0
M  V30 3985 C 400.333 2.00044 0.367952 0
M  V30 3986 C 400.688 1.1349 1.55363 0
M  V30 3987 O 399.981 0.191079 1.90645 0
M  V30 3988 C 400.175 3.4775 0.824887 0
M  V30 3989 C 400.004 4.48596 -0.314973 0
M  V30 3990 C 398.774 4.99077 -0.790555 0
M  V30 3991 C 400.972 5.0144 -1.14291 0
M  V30 3992 N 398.954 5.83675 -1.90254 0
M  V30 3993 C 400.325 5.83236 -2.10322 0
M  V30 3994 C 402.38 4.83736 -1.17916 0
M  V30 3995 C 401.083 6.49217 -3.09692 0
M  V30 3996 C 403.109 5.50497 -2.16117 0
M  V30 3997 C 402.471 6.32084 -3.10884 0
M  V30 3998 H 398.57 0.775512 0.100522 0
M  V30 3999 H 401.154 1.91193 -0.367896 0
M  V30 4000 H 399.325 3.56994 1.53002 0
M  V30 4001 H 401.057 3.79056 1.4177 0
M  V30 4002 H 397.812 4.72119 -0.374218 0
M  V30 4003 H 398.236 6.30671 -2.46137 0
M  V30 4004 H 402.878 4.20286 -0.460352 0
M  V30 4005 H 400.596 7.11832 -3.8252 0
M  V30 4006 H 404.182 5.38752 -2.19631 0
M  V30 4007 H 403.062 6.82832 -3.8563 0
M  V30 4008 N 400.565 -0.0233959 1.57583 0
M  V30 4009 C 401.795 -0.723631 1.93513 0
M  V30 4010 C 402.203 -1.69115 0.848333 0
M  V30 4011 O 401.546 -1.82781 -0.183484 0
M  V30 4012 C 401.608 -1.53075 3.25282 0
M  V30 4013 C 401.272 -0.727388 4.51174 0
M  V30 4014 C 402.269 -0.0251924 5.19894 0
M  V30 4015 C 399.954 -0.680256 4.97672 0
M  V30 4016 C 401.948 0.713374 6.33395 0
M  V30 4017 C 399.635 0.0620523 6.11068 0
M  V30 4018 C 400.633 0.757622 6.78785 0
M  V30 4019 O 400.321 1.48787 7.90011 0
M  V30 4020 H 400.053 -0.208051 0.643188 0
M  V30 4021 H 402.607 0.0167489 2.05393 0
M  V30 4022 H 400.837 -2.31508 3.09744 0
M  V30 4023 H 402.526 -2.11413 3.46496 0
M  V30 4024 H 403.292 -0.0526003 4.84971 0
M  V30 4025 H 399.171 -1.21116 4.44805 0
M  V30 4026 H 402.715 1.25683 6.86185 0
M  V30 4027 H 398.612 0.0913634 6.45435 0
M  V30 4028 H 399.38 1.40213 8.06401 0
M  V30 4029 N 402.043 -1.548 -0.295768 0
M  V30 4030 C 403.289 -1.74588 -1.03184 0
M  V30 4031 C 403.622 -0.532962 -1.86744 0
M  V30 4032 O 402.897 0.469872 -1.88739 0
M  V30 4033 C 403.18 -3.03791 -1.93347 0
M  V30 4034 C 403.033 -4.35392 -1.12933 0
M  V30 4035 C 404.352 -3.28892 -2.92435 0
M  V30 4036 H 401.471 -0.635221 -0.373715 0
M  V30 4037 H 404.113 -1.87519 -0.30606 0
M  V30 4038 H 402.263 -2.92898 -2.55232 0
M  V30 4039 H 403.935 -4.58211 -0.532943 0
M  V30 4040 H 402.178 -4.31642 -0.432168 0
M  V30 4041 H 402.849 -5.22074 -1.79284 0
M  V30 4042 H 405.325 -3.39429 -2.4068 0
M  V30 4043 H 404.201 -4.20603 -3.52682 0
M  V30 4044 H 404.462 -2.47437 -3.6637 0
M  V30 4045 N 403.521 0.559213 -1.47345 0
M  V30 4046 C 404.798 1.31997 -1.44348 0
M  V30 4047 C 405.178 2.1064 -0.139358 0
M  V30 4048 O 404.526 2.1091 0.879153 0
M  V30 4049 C 404.736 2.22618 -2.68779 0
M  V30 4050 C 406.084 2.83701 -3.1591 0
M  V30 4051 O 407.108 2.32921 -2.69493 0
M  V30 4052 O 405.967 3.75993 -3.966 0
M  V30 4053 H 403.061 0.594251 -0.575147 0
M  V30 4054 H 405.607 0.578282 -1.59543 0
M  V30 4055 H 404.379 1.64093 -3.55231 0
M  V30 4056 H 404.002 3.04085 -2.5616 0
M  V30 4057 N 404.999 1.35443 0.805782 0
M  V30 4058 C 406.247 1.28507 1.55982 0
M  V30 4059 C 406.568 -0.140046 1.94496 0
M  V30 4060 O 405.838 -1.07666 1.63661 0
M  V30 4061 H 404.418 0.472676 0.578434 0
M  V30 4062 H 407.08 1.69555 0.961098 0
M  V30 4063 H 406.176 1.90148 2.47488 0
M  V30 4064 N 406.477 -1.02803 1.19454 0
M  V30 4065 C 407.723 -1.76478 0.999171 0
M  V30 4066 C 408.056 -1.88456 -0.468828 0
M  V30 4067 O 407.331 -1.40198 -1.34814 0
M  V30 4068 C 407.614 -3.19044 1.66981 0
M  V30 4069 C 407.467 -3.14932 3.21151 0
M  V30 4070 C 408.786 -4.17456 1.39349 0
M  V30 4071 H 405.905 -0.640614 0.364393 0
M  V30 4072 H 408.547 -1.20005 1.47305 0
M  V30 4073 H 406.697 -3.67263 1.2669 0
M  V30 4074 H 408.369 -2.74605 3.70661 0
M  V30 4075 H 406.612 -2.52625 3.52652 0
M  V30 4076 H 407.283 -4.1566 3.63223 0
M  V30 4077 H 409.759 -3.77842 1.74283 0
M  V30 4078 H 408.635 -5.154 1.88823 0
M  V30 4079 H 408.896 -4.40949 0.318813 0
M  V30 4080 N 407.956 -0.998596 -1.21925 0
M  V30 4081 C 408.866 -0.562736 -2.27751 0
M  V30 4082 C 409.882 0.391203 -1.69545 0
M  V30 4083 O 411.058 0.256625 -1.99758 0
M  V30 4084 C 408.123 0.11012 -3.46525 0
M  V30 4085 C 407.184 -0.887495 -4.20026 0
M  V30 4086 C 406.417 -0.246654 -5.3313 0
M  V30 4087 O 406.64 0.958088 -5.62296 0
M  V30 4088 O 405.574 -0.954374 -5.94286 0
M  V30 4089 H 409.4 -1.44329 -2.67213 0
M  V30 4090 H 406.985 -0.767135 -1.28201 0
M  V30 4091 H 408.867 0.486756 -4.18579 0
M  V30 4092 H 407.542 0.965154 -3.08976 0
M  V30 4093 H 406.449 -1.31517 -3.5022 0
M  V30 4094 H 407.782 -1.71191 -4.6147 0
M  V30 4095 N 409.434 1.37368 -0.772513 0
M  V30 4096 C 410.68 1.99969 -0.337681 0
M  V30 4097 C 411.013 1.61184 1.08321 0
M  V30 4098 O 410.288 0.858395 1.74533 0
M  V30 4099 C 410.571 3.56858 -0.482121 0
M  V30 4100 C 410.424 4.0555 -1.94549 0
M  V30 4101 C 411.743 4.39955 0.113143 0
M  V30 4102 H 408.862 0.726464 -0.124171 0
M  V30 4103 H 411.504 1.63034 -0.975699 0
M  V30 4104 H 409.654 3.88452 0.0610361 0
M  V30 4105 H 411.326 3.84518 -2.54841 0
M  V30 4106 H 409.569 3.57715 -2.45403 0
M  V30 4107 H 410.24 5.14587 -1.9976 0
M  V30 4108 H 412.716 4.14623 -0.35031 0
M  V30 4109 H 411.592 5.48897 -0.0180514 0
M  V30 4110 H 411.853 4.25403 1.20354 0
M  V30 4111 N 410.912 0.523116 1.48665 0
M  V30 4112 C 411.862 -0.263106 2.26477 0
M  V30 4113 C 412.846 -0.916005 1.32281 0
M  V30 4114 O 414.038 -0.819946 1.56863 0
M  V30 4115 C 411.167 -1.31361 3.17174 0
M  V30 4116 C 410.253 -0.665849 4.1884 0
M  V30 4117 N 410.644 0.244434 5.05209 0
M  V30 4118 C 408.942 -0.923863 4.36326 0
M  V30 4119 C 409.643 0.617443 5.78414 0
M  V30 4120 N 408.619 -0.0198686 5.43596 0
M  V30 4121 H 412.421 0.437295 2.90629 0
M  V30 4122 H 409.935 0.340675 1.58787 0
M  V30 4123 H 411.932 -1.89052 3.71571 0
M  V30 4124 H 410.592 -2.01546 2.54576 0
M  V30 4125 H 411.603 0.616621 5.14216 0
M  V30 4126 H 408.28 -1.6168 3.84923 0
M  V30 4127 H 409.67 1.36346 6.57921 0
M  V30 4128 N 412.39 -1.55475 0.257931 0
M  V30 4129 C 413.338 -2.23244 -0.653076 0
M  V30 4130 C 414.332 -1.22366 -1.17144 0
M  V30 4131 O 415.538 -1.40347 -1.12706 0
M  V30 4132 H 411.913 -0.716247 -0.229117 0
M  V30 4133 H 413.884 -2.98343 -0.0584788 0
M  V30 4134 C 412.633 -2.95401 -1.83395 0
M  V30 4135 H 411.956 -3.72802 -1.44424 0
M  V30 4136 H 413.396 -3.46165 -2.44838 0
M  V30 4137 C 411.855 -1.99895 -2.71189 0
M  V30 4138 O 412.385 -1.53909 -3.71046 0
M  V30 4139 N 410.591 -1.6676 -2.3799 0
M  V30 4140 H 410.138 -2.04352 -1.56837 0
M  V30 4141 H 410.096 -1.03127 -2.97005 0
M  V30 4142 N 413.868 0.0150385 -1.57593 0
M  V30 4143 C 414.831 0.995996 -2.06428 0
M  V30 4144 C 415.831 1.2818 -0.970903 0
M  V30 4145 O 417.021 1.22949 -1.23406 0
M  V30 4146 C 414.153 2.32506 -2.49307 0
M  V30 4147 H 415.346 0.573873 -2.94358 0
M  V30 4148 H 412.899 0.262186 -1.54085 0
M  V30 4149 H 413.634 2.79438 -1.64575 0
M  V30 4150 H 413.419 2.13087 -3.29145 0
M  V30 4151 H 414.909 3.02906 -2.87468 0
M  V30 4152 N 415.346 1.54954 0.287554 0
M  V30 4153 C 416.293 1.86834 1.35505 0
M  V30 4154 C 417.263 0.718452 1.49758 0
M  V30 4155 O 418.448 0.968358 1.644 0
M  V30 4156 C 415.588 2.13303 2.71286 0
M  V30 4157 C 414.701 3.40883 2.65373 0
M  V30 4158 C 413.836 3.57125 3.93236 0
M  V30 4159 C 412.875 4.78449 3.81776 0
M  V30 4160 N 412.012 4.91426 5.01443 0
M  V30 4161 H 416.852 2.77889 1.07619 0
M  V30 4162 H 414.389 1.37593 0.520241 0
M  V30 4163 H 416.347 2.26646 3.50267 0
M  V30 4164 H 414.977 1.25499 2.97405 0
M  V30 4165 H 414.029 3.36088 1.78182 0
M  V30 4166 H 415.341 4.29993 2.52799 0
M  V30 4167 H 414.495 3.70207 4.80658 0
M  V30 4168 H 413.234 2.66173 4.0866 0
M  V30 4169 H 412.239 4.65386 2.92738 0
M  V30 4170 H 413.464 5.70822 3.67884 0
M  V30 4171 H 411.41 4.03401 5.17304 0
M  V30 4172 H 411.327 5.74559 4.91343 0
M  V30 4173 H 412.595 5.08879 5.90477 0
M  V30 4174 N 416.824 -0.551391 1.4764 0
M  V30 4175 C 418.052 -1.33357 1.58189 0
M  V30 4176 C 418.467 -1.87342 0.234199 0
M  V30 4177 O 417.824 -1.65301 -0.77343 0
M  V30 4178 C 417.875 -2.49942 2.61173 0
M  V30 4179 O 417.596 -1.98187 3.90709 0
M  V30 4180 C 419.097 -3.42072 2.8196 0
M  V30 4181 H 416.317 -0.40631 0.533998 0
M  V30 4182 H 418.861 -0.667367 1.93304 0
M  V30 4183 H 417.016 -3.12489 2.28975 0
M  V30 4184 H 417.43 -2.74342 4.47031 0
M  V30 4185 H 418.904 -4.20278 3.57869 0
M  V30 4186 H 419.381 -3.95978 1.89995 0
M  V30 4187 H 419.987 -2.85336 3.15378 0
M  V30 4188 N 418.302 -1.35869 -0.798587 0
M  V30 4189 C 419.249 -1.29446 -1.91082 0
M  V30 4190 C 420.219 -0.16487 -1.6528 0
M  V30 4191 O 421.404 -0.349888 -1.87564 0
M  V30 4192 C 418.544 -1.0804 -3.27752 0
M  V30 4193 C 417.657 -2.29993 -3.65687 0
M  V30 4194 C 416.792 -2.01673 -4.91428 0
M  V30 4195 C 415.831 -3.19636 -5.22015 0
M  V30 4196 N 414.968 -2.91039 -6.38937 0
M  V30 4197 H 419.808 -2.24553 -1.95907 0
M  V30 4198 H 417.345 -1.11615 -0.958148 0
M  V30 4199 H 419.303 -0.936586 -4.06551 0
M  V30 4200 H 417.933 -0.16592 -3.22373 0
M  V30 4201 H 416.985 -2.55211 -2.82085 0
M  V30 4202 H 418.297 -3.18052 -3.84245 0
M  V30 4203 H 417.451 -1.84168 -5.78072 0
M  V30 4204 H 416.19 -1.10911 -4.74921 0
M  V30 4205 H 415.195 -3.37709 -4.33858 0
M  V30 4206 H 416.42 -4.11211 -5.40447 0
M  V30 4207 H 414.366 -2.0288 -6.2384 0
M  V30 4208 H 414.283 -3.72635 -6.57784 0
M  V30 4209 H 415.551 -2.77093 -7.28587 0
M  V30 4210 N 419.78 1.02168 -1.19998 0
M  V30 4211 C 421.191 1.57135 -1.00825 0
M  V30 4212 C 421.542 1.91276 0.436818 0
M  V30 4213 O 420.667 1.71679 1.3174 0
M  V30 4214 C 421.262 2.85514 -1.82393 0
M  V30 4215 C 419.821 3.37027 -1.67601 0
M  V30 4216 C 418.968 2.10388 -1.80644 0
M  V30 4217 H 421.919 0.846106 -1.34264 0
M  V30 4218 H 421.94 3.56711 -1.32429 0
M  V30 4219 H 421.452 2.60634 -2.87561 0
M  V30 4220 H 419.553 3.66878 -0.650485 0
M  V30 4221 H 419.666 4.09572 -2.4857 0
M  V30 4222 H 418.03 2.22601 -1.23778 0
M  V30 4223 H 418.813 1.8794 -2.87286 0
M  V30 4224 N 421.258 1.00505 1.21394 0
M  V30 4225 C 422.674 0.717873 1.42544 0
M  V30 4226 C 422.874 -0.706936 1.88692 0
M  V30 4227 O 421.93 -1.47627 2.04847 0
M  V30 4228 C 423.243 1.73377 2.45684 0
M  V30 4229 C 424.791 1.75059 2.59467 0
M  V30 4230 C 425.266 2.75545 3.6584 0
M  V30 4231 N 426.757 2.74213 3.73311 0
M  V30 4232 C 427.492 3.48626 4.55245 0
M  V30 4233 N 426.988 4.32678 5.41075 0
M  V30 4234 N 428.781 3.37276 4.49668 0
M  V30 4235 H 420.932 1.92506 0.897503 0
M  V30 4236 H 423.195 0.830919 0.456375 0
M  V30 4237 H 422.901 2.75395 2.18748 0
M  V30 4238 H 422.775 1.53647 3.44489 0
M  V30 4239 H 425.162 0.737337 2.8574 0
M  V30 4240 H 425.243 1.98861 1.60897 0
M  V30 4241 H 424.887 3.77028 3.40313 0
M  V30 4242 H 424.817 2.49009 4.64007 0
M  V30 4243 H 427.308 2.13234 3.11993 0
M  V30 4244 H 427.621 4.86253 6.00648 0
M  V30 4245 H 425.966 4.3676 5.40616 0
M  V30 4246 H 429.157 2.71043 3.81646 0
M  V30 4247 H 429.33 3.95524 5.13288 0
M  V30 4248 N 422.737 -1.36956 0.779787 0
M  V30 4249 C 423.647 -2.33965 0.172491 0
M  V30 4250 C 424.663 -1.60574 -0.670222 0
M  V30 4251 O 425.839 -1.92617 -0.588263 0
M  V30 4252 C 422.904 -3.39761 -0.690173 0
M  V30 4253 C 421.965 -4.28964 0.169924 0
M  V30 4254 C 421.198 -5.29707 -0.651662 0
M  V30 4255 O 421.421 -5.38238 -1.88827 0
M  V30 4256 O 420.355 -6.01873 -0.0566264 0
M  V30 4257 H 424.181 -2.87647 0.974321 0
M  V30 4258 H 421.766 -1.39258 0.541078 0
M  V30 4259 H 423.648 -4.04471 -1.1824 0
M  V30 4260 H 422.323 -2.88394 -1.47006 0
M  V30 4261 H 421.23 -3.67326 0.708696 0
M  V30 4262 H 422.563 -4.83656 0.913085 0
M  V30 4263 N 424.215 -0.530993 -1.48385 0
M  V30 4264 C 425.125 0.23503 -2.3342 0
M  V30 4265 C 426.141 0.93801 -1.46552 0
M  V30 4266 O 427.317 0.912745 -1.7953 0
M  V30 4267 C 424.382 1.26778 -3.22689 0
M  V30 4268 C 423.443 0.575038 -4.25431 0
M  V30 4269 C 422.676 1.55858 -5.10435 0
M  V30 4270 O 422.899 2.79129 -4.97437 0
M  V30 4271 O 421.833 1.09742 -5.91811 0
M  V30 4272 H 425.659 -0.461794 -3.00169 0
M  V30 4273 H 423.244 -0.291903 -1.46521 0
M  V30 4274 H 425.126 1.86457 -3.77904 0
M  V30 4275 H 423.801 1.94699 -2.586 0
M  V30 4276 H 422.708 -0.0622782 -3.74048 0
M  V30 4277 H 424.041 -0.062253 -4.92161 0
M  V30 4278 N 425.693 1.55336 -0.266172 0
M  V30 4279 C 426.625 2.19544 0.658247 0
M  V30 4280 C 427.638 1.17746 1.12427 0
M  V30 4281 O 428.827 1.44517 1.04772 0
M  V30 4282 C 425.927 2.80032 1.9088 0
M  V30 4283 C 425.1 4.07436 1.59106 0
M  V30 4284 C 424.159 4.52056 2.69317 0
M  V30 4285 O 423.185 5.18023 2.35883 0
M  V30 4286 N 424.387 4.21448 3.99201 0
M  V30 4287 H 427.152 2.99503 0.108754 0
M  V30 4288 H 424.713 1.61667 -0.0869059 0
M  V30 4289 H 426.705 3.06831 2.63888 0
M  V30 4290 H 425.275 2.04119 2.36758 0
M  V30 4291 H 424.495 3.88021 0.695243 0
M  V30 4292 H 425.783 4.90462 1.35367 0
M  V30 4293 H 425.181 3.68528 4.29189 0
M  V30 4294 H 423.738 4.53039 4.68614 0
M  V30 4295 N 427.171 -0.0066808 1.57599 0
M  V30 4296 C 428.401 -0.703066 1.94269 0
M  V30 4297 C 428.809 -1.68206 0.866222 0
M  V30 4298 O 428.152 -1.82966 -0.164087 0
M  V30 4299 C 428.214 -1.49616 3.26887 0
M  V30 4300 C 427.878 -0.679494 4.5192 0
M  V30 4301 C 428.875 0.0299508 5.19891 0
M  V30 4302 C 426.56 -0.627433 4.98366 0
M  V30 4303 C 428.554 0.780514 6.32603 0
M  V30 4304 C 426.241 0.126861 6.10968 0
M  V30 4305 C 427.239 0.829574 6.77943 0
M  V30 4306 O 426.927 1.57157 7.88389 0
M  V30 4307 H 426.659 -0.201217 0.645359 0
M  V30 4308 H 429.213 0.0385326 2.05364 0
M  V30 4309 H 427.443 -2.28209 3.12182 0
M  V30 4310 H 429.132 -2.07726 3.48719 0
M  V30 4311 H 429.898 -0.00115963 4.85 0
M  V30 4312 H 425.777 -1.16392 4.46065 0
M  V30 4313 H 429.321 1.32954 6.84813 0
M  V30 4314 H 425.218 0.159815 6.45302 0
M  V30 4315 H 425.986 1.48758 8.04868 0
M  V30 4316 N 428.649 -1.55105 -0.279332 0
M  V30 4317 C 429.612 -1.86783 -1.32834 0
M  V30 4318 C 430.612 -0.74199 -1.42657 0
M  V30 4319 O 431.802 -1.0102 -1.41918 0
M  V30 4320 C 428.934 -2.06746 -2.71052 0
M  V30 4321 H 430.127 -2.8055 -1.05979 0
M  V30 4322 H 427.68 -1.47499 -0.517087 0
M  V30 4323 H 428.415 -1.15339 -3.03097 0
M  V30 4324 H 428.2 -2.88711 -2.65309 0
M  V30 4325 H 429.69 -2.32549 -3.46858 0
M  V30 4326 N 430.127 0.543554 -1.4793 0
M  V30 4327 C 431.352 1.32995 -1.59145 0
M  V30 4328 C 431.777 1.86472 -0.246956 0
M  V30 4329 O 431.135 1.63696 0.779324 0
M  V30 4330 C 431.183 2.46623 -2.63077 0
M  V30 4331 O 430.287 3.49261 -2.19295 0
M  V30 4332 H 429.628 0.394472 -0.534124 0
M  V30 4333 H 432.158 0.655489 -1.93816 0
M  V30 4334 H 432.168 2.93001 -2.83926 0
M  V30 4335 H 430.843 2.07059 -3.60693 0
M  V30 4336 H 429.42 3.09094 -2.08603 0
M  V30 4337 N 431.605 1.3629 0.791371 0
M  V30 4338 C 432.833 1.33562 1.58016 0
M  V30 4339 C 433.248 -0.0835616 1.88615 0
M  V30 4340 O 432.605 -1.0399 1.49974 0
M  V30 4341 C 432.656 2.15517 2.90232 0
M  V30 4342 O 432.377 3.51902 2.60953 0
M  V30 4343 C 433.878 2.20546 3.84544 0
M  V30 4344 H 431.098 0.458226 0.490173 0
M  V30 4345 H 433.642 1.79361 0.982345 0
M  V30 4346 H 431.797 1.73278 3.46487 0
M  V30 4347 H 432.211 3.94644 3.4548 0
M  V30 4348 H 433.685 2.82252 4.74382 0
M  V30 4349 H 434.162 1.20838 4.2225 0
M  V30 4350 H 434.768 2.63013 3.34222 0
M  V30 4351 N 433.083 -1.0153 1.20538 0
M  V30 4352 C 434.313 -1.78487 1.04048 0
M  V30 4353 C 434.721 -1.84631 -0.413292 0
M  V30 4354 O 434.064 -1.29919 -1.29872 0
M  V30 4355 C 434.126 -3.24367 1.55003 0
M  V30 4356 C 433.79 -3.41827 3.0332 0
M  V30 4357 C 434.787 -3.30941 4.00966 0
M  V30 4358 C 432.472 -3.67602 3.42307 0
M  V30 4359 C 434.466 -3.45577 5.35589 0
M  V30 4360 C 432.153 -3.81881 4.77085 0
M  V30 4361 C 433.151 -3.70874 5.73534 0
M  V30 4362 O 432.839 -3.84714 7.05868 0
M  V30 4363 H 432.571 -0.568108 0.366373 0
M  V30 4364 H 435.125 -1.28677 1.60098 0
M  V30 4365 H 433.355 -3.75266 0.933397 0
M  V30 4366 H 435.044 -3.82963 1.34514 0
M  V30 4367 H 435.81 -3.10964 3.72191 0
M  V30 4368 H 431.689 -3.75256 2.67776 0
M  V30 4369 H 435.233 -3.36902 6.10854 0
M  V30 4370 H 431.13 -4.01359 5.0555 0
M  V30 4371 H 431.898 -4.01724 7.13134 0
M  V30 4372 N 434.561 -1.01147 -1.20859 0
M  V30 4373 C 435.977 -0.725422 -1.42161 0
M  V30 4374 C 436.177 0.696919 -1.89064 0
M  V30 4375 O 435.233 1.46539 -2.05627 0
M  V30 4376 C 436.546 -1.74678 -2.44761 0
M  V30 4377 C 438.094 -1.76433 -2.58535 0
M  V30 4378 C 438.569 -2.77481 -3.64374 0
M  V30 4379 N 440.06 -2.76189 -3.71852 0
M  V30 4380 C 440.795 -3.51035 -4.53389 0
M  V30 4381 N 440.291 -4.35541 -5.38773 0
M  V30 4382 N 442.084 -3.39655 -4.47873 0
M  V30 4383 H 434.235 -1.92979 -0.887282 0
M  V30 4384 H 436.498 -0.833327 -0.451962 0
M  V30 4385 H 436.204 -2.76551 -2.17285 0
M  V30 4386 H 436.078 -1.55472 -3.43669 0
M  V30 4387 H 438.465 -0.75248 -2.85345 0
M  V30 4388 H 438.546 -1.99712 -1.5984 0
M  V30 4389 H 438.19 -3.78827 -3.38308 0
M  V30 4390 H 438.12 -2.51466 -4.6268 0
M  V30 4391 H 440.611 -2.14885 -3.10858 0
M  V30 4392 H 440.924 -4.89432 -5.98061 0
M  V30 4393 H 439.269 -4.39621 -5.38292 0
M  V30 4394 H 442.46 -2.73063 -3.80203 0
M  V30 4395 H 442.633 -3.9824 -5.11184 0
M  V30 4396 N 436.039 1.36541 -0.78704 0
M  V30 4397 C 437.285 1.99599 -0.358872 0
M  V30 4398 C 437.618 1.62323 1.06606 0
M  V30 4399 O 436.893 0.876858 1.73613 0
M  V30 4400 C 437.176 3.56327 -0.519944 0
M  V30 4401 C 437.029 4.03464 -1.98839 0
M  V30 4402 C 438.348 4.4005 0.0664737 0
M  V30 4403 H 435.467 0.725107 -0.131869 0
M  V30 4404 H 438.109 1.6199 -0.992936 0
M  V30 4405 H 436.259 3.88495 0.0198321 0
M  V30 4406 H 437.931 3.81793 -2.58905 0
M  V30 4407 H 436.174 3.55092 -2.49183 0
M  V30 4408 H 436.845 5.12439 -2.05207 0
M  V30 4409 H 439.321 4.14228 -0.394267 0
M  V30 4410 H 438.197 5.48847 -0.0762682 0
M  V30 4411 H 438.458 4.26655 1.15835 0
M  V30 4412 N 437.518 0.538854 1.48102 0
M  V30 4413 C 438.764 0.00801365 2.02798 0
M  V30 4414 C 439.097 -1.3309 1.41424 0
M  V30 4415 O 438.372 -1.86169 0.563158 0
M  V30 4416 C 438.655 -0.104589 3.59948 0
M  V30 4417 C 438.508 1.26012 4.31788 0
M  V30 4418 C 439.827 -0.827055 4.32259 0
M  V30 4419 H 436.946 0.00438624 0.736987 0
M  V30 4420 H 439.588 0.6976 1.7673 0
M  V30 4421 H 437.738 -0.691893 3.82289 0
M  V30 4422 H 439.41 1.88922 4.2084 0
M  V30 4423 H 437.653 1.83968 3.92859 0
M  V30 4424 H 438.324 1.13424 5.40221 0
M  V30 4425 H 440.8 -0.328578 4.14801 0
M  V30 4426 H 439.676 -0.87476 5.41885 0
M  V30 4427 H 439.937 -1.87927 4.0017 0
M  V30 4428 N 438.996 -1.55193 0.274407 0
M  V30 4429 C 440.221 -2.04446 -0.348824 0
M  V30 4430 C 440.646 -1.15149 -1.48735 0
M  V30 4431 O 440.004 -0.149952 -1.80679 0
M  V30 4432 C 440.052 -3.51431 -0.808009 0
M  V30 4433 O 439.156 -3.65225 -1.91531 0
M  V30 4434 H 438.497 -0.66006 -0.0722276 0
M  V30 4435 H 441.027 -2.00481 0.408498 0
M  V30 4436 H 441.037 -3.92781 -1.10395 0
M  V30 4437 H 439.712 -4.15892 0.0249865 0
M  V30 4438 H 438.289 -3.35778 -1.62196 0
M  V30 4439 N 440.474 -0.00167713 -1.576 0
M  V30 4440 C 441.72 0.683832 -1.90923 0
M  V30 4441 C 442.053 1.7333 -0.875799 0
M  V30 4442 O 441.328 1.94215 0.10525 0
M  V30 4443 C 441.611 1.32543 -3.3482 0
M  V30 4444 C 441.464 0.287387 -4.48881 0
M  V30 4445 C 442.783 2.25114 -3.78169 0
M  V30 4446 H 439.902 0.247125 -0.694333 0
M  V30 4447 H 442.544 -0.0533149 -1.89925 0
M  V30 4448 H 440.694 1.95372 -3.35801 0
M  V30 4449 H 442.366 -0.341346 -4.60035 0
M  V30 4450 H 440.609 -0.39017 -4.32042 0
M  V30 4451 H 441.28 0.775393 -5.46527 0
M  V30 4452 H 443.756 1.723 -3.7875 0
M  V30 4453 H 442.632 2.66971 -4.79602 0
M  V30 4454 H 442.893 3.13092 -3.12131 0
M  V30 4455 N 441.952 1.55251 0.271103 0
M  V30 4456 C 442.882 1.9127 1.33933 0
M  V30 4457 C 443.863 0.77478 1.5143 0
M  V30 4458 O 445.048 1.03307 1.64442 0
M  V30 4459 C 442.178 2.18627 2.69851 0
M  V30 4460 C 441.132 3.34442 2.67081 0
M  V30 4461 C 440.458 3.47284 4.06569 0
M  V30 4462 C 441.758 4.70784 2.26185 0
M  V30 4463 H 443.452 2.80744 1.04035 0
M  V30 4464 H 440.998 1.35077 0.499017 0
M  V30 4465 H 442.951 2.42413 3.44694 0
M  V30 4466 H 441.675 1.25955 3.01335 0
M  V30 4467 H 440.334 3.10627 1.94695 0
M  V30 4468 H 439.982 2.52074 4.35279 0
M  V30 4469 H 439.682 4.25152 4.0561 0
M  V30 4470 H 441.206 3.73363 4.83148 0
M  V30 4471 H 442.62 4.94102 2.90751 0
M  V30 4472 H 441.017 5.51582 2.36384 0
M  V30 4473 H 442.087 4.69478 1.21319 0
M  V30 4474 N 443.43 -0.535701 1.48216 0
M  V30 4475 C 444.658 -1.31671 1.59594 0
M  V30 4476 C 445.073 -1.87083 0.254056 0
M  V30 4477 O 444.43 -1.66112 -0.755854 0
M  V30 4478 C 444.481 -2.47158 2.63809 0
M  V30 4479 O 444.202 -1.94032 3.92789 0
M  V30 4480 C 445.703 -3.39062 2.85573 0
M  V30 4481 H 442.923 -0.400623 0.538277 0
M  V30 4482 H 445.467 -0.646827 1.94001 0
M  V30 4483 H 443.622 -3.10043 2.32276 0
M  V30 4484 H 444.036 -2.69585 4.49916 0
M  V30 4485 H 445.51 -4.16459 3.62306 0
M  V30 4486 H 445.987 -3.93941 1.94184 0
M  V30 4487 H 446.593 -2.81975 3.18387 0
M  V30 4488 N 444.908 -1.36708 -0.784132 0
M  V30 4489 C 446.154 -1.31426 -1.54451 0
M  V30 4490 C 446.487 0.10476 -1.93917 0
M  V30 4491 O 445.762 1.05934 -1.6312 0
M  V30 4492 C 446.045 -2.24189 -2.818 0
M  V30 4493 C 445.898 -3.74813 -2.48667 0
M  V30 4494 C 447.217 -2.15626 -3.83658 0
M  V30 4495 H 444.336 -0.478739 -0.560337 0
M  V30 4496 H 446.978 -1.67305 -0.900498 0
M  V30 4497 H 445.128 -1.93722 -3.36755 0
M  V30 4498 H 446.8 -4.15823 -1.99722 0
M  V30 4499 H 445.043 -3.93989 -1.81535 0
M  V30 4500 H 445.714 -4.35138 -3.39646 0
M  V30 4501 H 448.19 -2.42456 -3.38163 0
M  V30 4502 H 447.066 -2.82694 -4.70506 0
M  V30 4503 H 447.327 -1.14522 -4.27009 0
M  V30 4504 N 446.386 1.0089 -1.21074 0
M  V30 4505 C 447.316 2.1145 -0.990523 0
M  V30 4506 C 448.297 1.69897 0.0831699 0
M  V30 4507 O 449.482 1.94052 -0.0758853 0
M  V30 4508 C 446.612 3.42914 -0.550177 0
M  V30 4509 C 445.566 3.98244 -1.56799 0
M  V30 4510 C 444.892 5.25568 -0.984013 0
M  V30 4511 C 446.192 4.30752 -2.95381 0
M  V30 4512 H 447.886 2.3013 -1.91521 0
M  V30 4513 H 445.432 1.10592 -0.92225 0
M  V30 4514 H 447.385 4.19653 -0.383305 0
M  V30 4515 H 446.109 3.24014 0.41015 0
M  V30 4516 H 444.768 3.23621 -1.72236 0
M  V30 4517 H 444.416 5.02998 -0.0155216 0
M  V30 4518 H 444.116 5.63551 -1.66384 0
M  V30 4519 H 445.64 6.04955 -0.828378 0
M  V30 4520 H 447.054 4.98349 -2.8341 0
M  V30 4521 H 445.451 4.79869 -3.60341 0
M  V30 4522 H 446.521 3.39192 -3.46521 0
M  V30 4523 N 447.864 1.01787 1.20321 0
M  V30 4524 C 448.814 0.559976 2.21016 0
M  V30 4525 C 449.798 -0.385366 1.56217 0
M  V30 4526 O 450.99 -0.208126 1.75772 0
M  V30 4527 C 448.119 -0.0990553 3.43157 0
M  V30 4528 C 447.205 0.86807 4.15121 0
M  V30 4529 N 447.596 2.0261 4.63447 0
M  V30 4530 C 445.894 0.689162 4.40643 0
M  V30 4531 C 446.595 2.63518 5.18588 0
M  V30 4532 N 445.571 1.91569 5.08726 0
M  V30 4533 H 449.373 1.44281 2.56048 0
M  V30 4534 H 446.887 0.883381 1.36272 0
M  V30 4535 H 448.884 -0.444643 4.14522 0
M  V30 4536 H 447.544 -0.977709 3.0963 0
M  V30 4537 H 448.555 2.40598 4.58621 0
M  V30 4538 H 445.232 -0.14133 4.17261 0
M  V30 4539 H 446.622 3.61527 5.66346 0
M  V30 4540 N 449.342 -1.36122 0.79427 0
M  V30 4541 C 450.274 -2.28683 0.153903 0
M  V30 4542 C 451.287 -1.49707 -0.639669 0
M  V30 4543 O 452.476 -1.7209 -0.474054 0
M  V30 4544 C 449.576 -3.29202 -0.804921 0
M  V30 4545 C 448.749 -4.37358 -0.060366 0
M  V30 4546 C 447.808 -5.17811 -0.935849 0
M  V30 4547 O 446.834 -5.67853 -0.391309 0
M  V30 4548 N 448.036 -5.34721 -2.25951 0
M  V30 4549 H 450.801 -2.84278 0.949008 0
M  V30 4550 H 448.362 -1.4834 0.648611 0
M  V30 4551 H 450.354 -3.79914 -1.39455 0
M  V30 4552 H 448.924 -2.74212 -1.50088 0
M  V30 4553 H 448.144 -3.87746 0.710382 0
M  V30 4554 H 449.432 -5.06777 0.45324 0
M  V30 4555 H 448.83 -4.95687 -2.72601 0
M  V30 4556 H 447.387 -5.88657 -2.79867 0
M  V30 4557 N 450.82 -0.546701 -1.47814 0
M  V30 4558 C 452.097 0.0464413 -1.95545 0
M  V30 4559 C 452.477 1.4962 -1.48919 0
M  V30 4560 O 451.825 2.16752 -0.723232 0
M  V30 4561 C 452.035 -0.0881298 -3.48889 0
M  V30 4562 C 453.383 0.0626059 -4.24554 0
M  V30 4563 O 454.407 -0.0151555 -3.56197 0
M  V30 4564 O 453.266 0.228071 -5.46024 0
M  V30 4565 H 450.36 0.0700004 -0.824032 0
M  V30 4566 H 452.906 -0.612482 -1.58262 0
M  V30 4567 H 451.678 -1.09737 -3.75597 0
M  V30 4568 H 451.301 0.608886 -3.9291 0
M  V30 4569 N 452.299 1.55045 -0.282633 0
M  V30 4570 C 453.545 2.0078 0.325436 0
M  V30 4571 C 453.9 1.1676 1.52921 0
M  V30 4572 O 453.193 0.231475 1.90197 0
M  V30 4573 C 453.387 3.49422 0.750938 0
M  V30 4574 C 453.216 4.47827 -0.410056 0
M  V30 4575 C 451.986 4.97288 -0.896239 0
M  V30 4576 C 454.184 4.98903 -1.24902 0
M  V30 4577 N 452.166 5.79508 -2.02591 0
M  V30 4578 C 453.537 5.78644 -2.22646 0
M  V30 4579 C 455.592 4.81126 -1.2815 0
M  V30 4580 C 454.295 6.42502 -3.23393 0
M  V30 4581 C 456.321 5.45789 -2.27745 0
M  V30 4582 C 455.683 6.25348 -3.24222 0
M  V30 4583 H 451.782 0.77747 0.08405 0
M  V30 4584 H 454.366 1.90369 -0.408368 0
M  V30 4585 H 452.537 3.60159 1.45395 0
M  V30 4586 H 454.269 3.81978 1.33698 0
M  V30 4587 H 451.024 4.71219 -0.474277 0
M  V30 4588 H 451.448 6.25308 -2.59459 0
M  V30 4589 H 456.09 4.19215 -0.549397 0
M  V30 4590 H 453.808 7.03558 -3.97533 0
M  V30 4591 H 457.394 5.33972 -2.31009 0
M  V30 4592 H 456.274 6.74498 -4.00027 0
M  V30 4593 N 453.777 0.010035 1.57597 0
M  V30 4594 C 454.707 -0.976857 2.12084 0
M  V30 4595 C 455.688 -1.35191 1.03235 0
M  V30 4596 O 456.873 -1.43389 1.3097 0
M  V30 4597 C 454.003 -2.26548 2.63236 0
M  V30 4598 C 452.957 -2.03175 3.76701 0
M  V30 4599 C 452.283 -3.38138 4.14206 0
M  V30 4600 C 453.583 -1.38625 5.03568 0
M  V30 4601 H 455.277 -0.523145 2.94794 0
M  V30 4602 H 452.823 -0.250195 1.4181 0
M  V30 4603 H 454.776 -2.95952 2.99984 0
M  V30 4604 H 453.5 -2.74051 1.77661 0
M  V30 4605 H 452.159 -1.36195 3.40362 0
M  V30 4606 H 451.807 -3.83363 3.25641 0
M  V30 4607 H 451.507 -3.23312 4.90656 0
M  V30 4608 H 453.031 -4.08841 4.53521 0
M  V30 4609 H 454.445 -1.98 5.38023 0
M  V30 4610 H 452.842 -1.34256 5.84889 0
M  V30 4611 H 453.912 -0.356722 4.83586 0
M  V30 4612 N 455.255 -1.55392 -0.262866 0
M  V30 4613 C 456.203 -1.8977 -1.345 0
M  V30 4614 C 457.197 -0.775063 -1.50629 0
M  V30 4615 O 458.403 -0.959519 -1.52293 0
M  V30 4616 H 454.778 -0.602467 -0.450041 0
M  V30 4617 H 456.749 -2.80147 -1.02762 0
M  V30 4618 C 455.498 -2.19501 -2.69657 0
M  V30 4619 H 454.821 -3.05378 -2.5804 0
M  V30 4620 H 456.261 -2.47469 -3.44289 0
M  V30 4621 C 454.72 -1.00597 -3.21531 0
M  V30 4622 O 455.25 -0.245768 -4.00947 0
M  V30 4623 N 453.456 -0.800911 -2.79345 0
M  V30 4624 H 453.003 -1.42079 -2.14875 0
M  V30 4625 H 452.961 -0.00697996 -3.14399 0
M  V30 4626 N 456.733 0.527833 -1.48498 0
M  V30 4627 C 457.981 1.28101 -1.56316 0
M  V30 4628 C 458.302 1.9352 -0.239781 0
M  V30 4629 O 457.572 1.81433 0.738849 0
M  V30 4630 H 456.152 0.475793 -0.575873 0
M  V30 4631 H 458.814 0.614052 -1.84974 0
M  V30 4632 H 457.91 2.05916 -2.34532 0
M  V30 4633 N 458.211 1.37122 0.776871 0
M  V30 4634 C 459.158 1.3247 1.88998 0
M  V30 4635 C 460.128 0.191143 1.64997 0
M  V30 4636 O 461.313 0.379683 1.86984 0
M  V30 4637 C 458.453 1.13241 3.25992 0
M  V30 4638 C 457.566 2.35782 3.61982 0
M  V30 4639 C 456.701 2.09465 4.88158 0
M  V30 4640 C 455.74 3.279 5.16864 0
M  V30 4641 N 454.877 3.01167 6.34226 0
M  V30 4642 H 459.717 2.27642 1.9231 0
M  V30 4643 H 457.254 1.13125 0.94027 0
M  V30 4644 H 459.212 1.00115 4.0501 0
M  V30 4645 H 457.842 0.217186 3.22069 0
M  V30 4646 H 456.894 2.59666 2.77989 0
M  V30 4647 H 458.206 3.24125 3.79137 0
M  V30 4648 H 457.36 1.93341 5.75069 0
M  V30 4649 H 456.099 1.18452 4.73097 0
M  V30 4650 H 455.104 3.44569 4.2843 0
M  V30 4651 H 456.329 4.19757 5.33836 0
M  V30 4652 H 454.275 2.12779 6.20533 0
M  V30 4653 H 454.192 3.83052 6.51772 0
M  V30 4654 H 455.46 2.88649 7.24087 0
M  V30 4655 N 459.689 -1.00246 1.21608 0
M  V30 4656 C 460.599 -2.12515 0.993709 0
M  V30 4657 C 461.615 -1.73913 -0.0549939 0
M  V30 4658 O 462.791 -2.00943 0.135619 0
M  V30 4659 C 459.856 -3.42083 0.563953 0
M  V30 4660 C 458.917 -3.94843 1.68516 0
M  V30 4661 C 458.15 -5.18226 1.27582 0
M  V30 4662 O 458.373 -5.70201 0.150506 0
M  V30 4663 O 457.307 -5.64497 2.0887 0
M  V30 4664 H 461.133 -2.34152 1.93407 0
M  V30 4665 H 458.718 -1.10891 1.00118 0
M  V30 4666 H 460.6 -4.20073 0.334194 0
M  V30 4667 H 459.275 -3.21828 -0.347665 0
M  V30 4668 H 458.182 -3.18068 1.96935 0
M  V30 4669 H 459.515 -4.19512 2.5743 0
M  V30 4670 N 461.167 -1.02423 -1.1978 0
M  V30 4671 C 462.397 -0.736387 -1.93031 0
M  V30 4672 C 462.805 0.708023 -1.75453 0
M  V30 4673 O 462.148 1.4927 -1.07071 0
M  V30 4674 C 462.21 -1.00194 -3.45255 0
M  V30 4675 C 461.874 -2.43698 -3.86601 0
M  V30 4676 C 462.871 -3.41814 -3.91738 0
M  V30 4677 C 460.556 -2.77975 -4.18372 0
M  V30 4678 C 462.55 -4.72265 -4.28071 0
M  V30 4679 C 460.237 -4.08636 -4.54378 0
M  V30 4680 C 461.235 -5.05592 -4.59201 0
M  V30 4681 O 460.923 -6.33914 -4.94376 0
M  V30 4682 H 460.655 -0.269116 -0.620123 0
M  V30 4683 H 463.209 -1.37043 -1.52998 0
M  V30 4684 H 461.439 -0.310747 -3.85449 0
M  V30 4685 H 463.128 -0.704488 -3.9974 0
M  V30 4686 H 463.894 -3.16671 -3.67348 0
M  V30 4687 H 459.773 -2.0319 -4.13805 0
M  V30 4688 H 463.317 -5.4794 -4.3175 0
M  V30 4689 H 459.214 -4.33556 -4.78226 0
M  V30 4690 H 459.982 -6.38317 -5.12341 0
M  V30 4691 N 462.645 1.35699 -0.801477 0
M  V30 4692 C 463.592 2.29876 -0.206294 0
M  V30 4693 C 464.562 1.52565 0.656752 0
M  V30 4694 O 465.747 1.81024 0.602906 0
M  V30 4695 C 462.887 3.39052 0.643272 0
M  V30 4696 C 462 4.31335 -0.239644 0
M  V30 4697 C 461.135 5.27599 0.61744 0
M  V30 4698 C 460.174 6.11521 -0.26619 0
M  V30 4699 N 459.311 6.99938 0.550571 0
M  V30 4700 H 464.151 2.80187 -1.01484 0
M  V30 4701 H 461.688 1.37902 -0.511997 0
M  V30 4702 H 463.646 4.0101 1.15094 0
M  V30 4703 H 462.276 2.9003 1.41713 0
M  V30 4704 H 461.328 3.70426 -0.865381 0
M  V30 4705 H 462.64 4.90243 -0.919985 0
M  V30 4706 H 461.794 5.94906 1.19045 0
M  V30 4707 H 460.533 4.69176 1.33137 0
M  V30 4708 H 459.538 5.43166 -0.851507 0
M  V30 4709 H 460.763 6.72022 -0.9779 0
M  V30 4710 H 458.709 6.44008 1.24856 0
M  V30 4711 H 458.626 7.55966 -0.071832 0
M  V30 4712 H 459.894 7.71599 1.10702 0
M  V30 4713 N 464.123 0.554532 1.47522 0
M  V30 4714 C 465.363 0.0317994 2.04375 0
M  V30 4715 C 465.727 -1.29242 1.41988 0
M  V30 4716 O 466.928 -1.90269 1.89872 0
M  V30 4717 C 465.199 -0.0623344 3.57346 0
M  V30 4718 S 466.758 -0.531578 4.35568 0
M  V30 4719 H 463.576 0.0238553 0.7106 0
M  V30 4720 H 466.178 0.74066 1.80927 0
M  V30 4721 H 464.882 0.905857 4.00278 0
M  V30 4722 H 464.413 -0.794831 3.85287 0
M  V30 4723 H 466.428 -1.79175 4.62721 0
M  V30 4724 N 465.601 -1.54893 0.290851 0
M  V30 4725 C 466.548 -2.23138 -0.58974 0
M  V30 4726 C 467.518 -1.21036 -1.13752 0
M  V30 4727 O 468.703 -1.49626 -1.18392 0
M  V30 4728 C 465.843 -2.96811 -1.76061 0
M  V30 4729 C 464.956 -4.13665 -1.24519 0
M  V30 4730 C 464.091 -4.74944 -2.3791 0
M  V30 4731 C 463.13 -5.83963 -1.83451 0
M  V30 4732 N 462.267 -6.39239 -2.90376 0
M  V30 4733 H 467.107 -2.98 -0.00114915 0
M  V30 4734 H 464.644 -1.47096 0.0112006 0
M  V30 4735 H 466.602 -3.37751 -2.44909 0
M  V30 4736 H 465.232 -2.24344 -2.32098 0
M  V30 4737 H 464.284 -3.77737 -0.449288 0
M  V30 4738 H 465.596 -4.92238 -0.806424 0
M  V30 4739 H 464.75 -5.18684 -3.14724 0
M  V30 4740 H 463.489 -3.95682 -2.85109 0
M  V30 4741 H 462.494 -5.39657 -1.05122 0
M  V30 4742 H 463.719 -6.65103 -1.37169 0
M  V30 4743 H 461.665 -5.62864 -3.36927 0
M  V30 4744 H 461.582 -7.13129 -2.50965 0
M  V30 4745 H 462.85 -6.87637 -3.67118 0
M  V30 4746 N 467.08 -0.0183926 -1.57589 0
M  V30 4747 C 468.326 0.663543 -1.91638 0
M  V30 4748 C 468.659 1.72392 -0.894134 0
M  V30 4749 O 467.934 1.94316 0.0846449 0
M  V30 4750 C 468.217 1.28984 -3.36207 0
M  V30 4751 C 468.07 0.239761 -4.49161 0
M  V30 4752 C 469.389 2.2109 -3.80536 0
M  V30 4753 H 466.508 0.239746 -0.696915 0
M  V30 4754 H 469.15 -0.073456 -1.89858 0
M  V30 4755 H 467.3 1.91799 -3.37854 0
M  V30 4756 H 468.972 -0.390119 -4.59647 0
M  V30 4757 H 467.215 -0.435972 -4.31604 0
M  V30 4758 H 467.886 0.717383 -5.47319 0
M  V30 4759 H 470.362 1.68273 -3.80557 0
M  V30 4760 H 469.238 2.61869 -4.82406 0
M  V30 4761 H 469.499 3.09764 -3.15434 0
M  V30 4762 N 468.558 1.5553 0.254621 0
M  V30 4763 C 469.783 1.81383 1.00573 0
M  V30 4764 C 470.208 0.594419 1.78461 0
M  V30 4765 O 469.566 -0.456403 1.75461 0
M  V30 4766 C 469.614 3.04892 1.92545 0
M  V30 4767 O 468.718 2.81266 3.01601 0
M  V30 4768 H 468.059 0.598969 0.286587 0
M  V30 4769 H 470.589 2.02703 0.277952 0
M  V30 4770 H 470.599 3.34119 2.34155 0
M  V30 4771 H 469.274 3.93287 1.3527 0
M  V30 4772 H 467.851 2.63185 2.64174 0
M  V30 4773 N 470.036 -0.519951 1.48776 0
M  V30 4774 C 470.984 -1.64443 1.64503 0
M  V30 4775 C 471.978 -1.61501 0.511248 0
M  V30 4776 O 473.184 -1.66238 0.690294 0
M  V30 4777 H 469.559 -0.544776 0.518385 0
M  V30 4778 H 471.53 -1.48325 2.58925 0
M  V30 4779 C 470.279 -3.02673 1.71127 0
M  V30 4780 H 469.602 -3.05635 2.57735 0
M  V30 4781 H 471.042 -3.80941 1.86172 0
M  V30 4782 C 469.501 -3.33854 0.452032 0
M  V30 4783 O 470.031 -3.99385 -0.430678 0
M  V30 4784 N 468.237 -2.88825 0.32069 0
M  V30 4785 H 467.784 -2.35674 1.03998 0
M  V30 4786 H 467.742 -3.10056 -0.520814 0
M  V30 4787 N 471.514 -1.37532 -0.769588 0
M  V30 4788 C 472.461 -1.3347 -1.88293 0
M  V30 4789 C 473.431 -0.199891 -1.64893 0
M  V30 4790 O 474.616 -0.389594 -1.8678 0
M  V30 4791 C 471.756 -1.14968 -3.25387 0
M  V30 4792 C 470.869 -2.37698 -3.60727 0
M  V30 4793 C 470.004 -2.12051 -4.8704 0
M  V30 4794 C 469.043 -3.30636 -5.15117 0
M  V30 4795 N 468.18 -3.04527 -6.3262 0
M  V30 4796 H 473.02 -2.28658 -1.911 0
M  V30 4797 H 470.557 -1.13622 -0.934257 0
M  V30 4798 H 472.515 -1.02261 -4.04473 0
M  V30 4799 H 471.145 -0.234263 -3.21949 0
M  V30 4800 H 470.197 -2.61137 -2.76608 0
M  V30 4801 H 471.509 -3.26131 -3.77413 0
M  V30 4802 H 470.663 -1.96388 -5.74035 0
M  V30 4803 H 469.402 -1.20959 -4.72462 0
M  V30 4804 H 468.407 -3.46836 -4.26597 0
M  V30 4805 H 469.632 -4.22582 -5.31603 0
M  V30 4806 H 467.578 -2.16067 -6.19396 0
M  V30 4807 H 467.495 -3.86503 -6.49732 0
M  V30 4808 H 468.763 -2.92485 -7.22546 0
M  V30 4809 N 472.992 0.995999 -1.22138 0
M  V30 4810 C 473.955 2.06711 -0.990109 0
M  V30 4811 C 474.955 1.60744 0.0422978 0
M  V30 4812 O 476.145 1.73095 -0.195895 0
M  V30 4813 C 473.277 3.37288 -0.49491 0
M  V30 4814 H 474.47 2.28661 -1.94047 0
M  V30 4815 H 472.023 1.16711 -1.03963 0
M  V30 4816 H 472.758 3.21022 0.459948 0
M  V30 4817 H 472.543 3.71986 -1.23971 0
M  V30 4818 H 474.033 4.16103 -0.353253 0
M  V30 4819 N 474.47 1.03057 1.19235 0
M  V30 4820 C 475.4 0.633497 2.24742 0
M  V30 4821 C 476.381 -0.358335 1.66283 0
M  V30 4822 O 477.566 -0.240676 1.92703 0
M  V30 4823 C 474.696 -0.0147648 3.47297 0
M  V30 4824 C 473.65 0.899527 4.18441 0
M  V30 4825 C 472.976 0.116281 5.34574 0
M  V30 4826 C 474.276 2.21404 4.73051 0
M  V30 4827 H 475.97 1.5155 2.58211 0
M  V30 4828 H 473.516 0.73014 1.24117 0
M  V30 4829 H 475.469 -0.304202 4.20301 0
M  V30 4830 H 474.193 -0.931577 3.13032 0
M  V30 4831 H 472.852 1.17319 3.47321 0
M  V30 4832 H 472.5 -0.802619 4.96555 0
M  V30 4833 H 472.2 0.725293 5.83107 0
M  V30 4834 H 473.724 -0.166376 6.10373 0
M  V30 4835 H 475.138 1.98601 5.37802 0
M  V30 4836 H 473.535 2.77512 5.32078 0
M  V30 4837 H 474.605 2.86752 3.91026 0
M  V30 4838 N 475.948 -1.35272 0.808662 0
M  V30 4839 C 477.359 -1.81179 0.450688 0
M  V30 4840 C 477.71 -1.67143 -1.02751 0
M  V30 4841 O 476.835 -1.20325 -1.79864 0
M  V30 4842 C 477.43 -3.28943 0.811275 0
M  V30 4843 C 475.989 -3.72985 0.505871 0
M  V30 4844 C 475.136 -2.57229 1.03578 0
M  V30 4845 H 478.087 -1.2322 1.00012 0
M  V30 4846 H 478.108 -3.80342 0.109588 0
M  V30 4847 H 477.62 -3.39127 1.88718 0
M  V30 4848 H 475.721 -3.68349 -0.561209 0
M  V30 4849 H 475.834 -4.67677 1.03995 0
M  V30 4850 H 474.198 -2.50548 0.458005 0
M  V30 4851 H 474.981 -2.7019 2.11784 0
M  V30 4852 N 477.426 -0.562348 -1.47226 0
M  V30 4853 C 478.389 0.172056 -2.28553 0
M  V30 4854 C 479.389 0.837928 -1.37242 0
M  V30 4855 O 480.579 0.693001 -1.59822 0
M  V30 4856 C 477.711 1.25223 -3.17068 0
M  V30 4857 H 478.904 -0.542401 -2.94954 0
M  V30 4858 H 476.457 -0.319493 -1.53 0
M  V30 4859 H 477.192 1.99892 -2.55369 0
M  V30 4860 H 476.977 0.779515 -3.84273 0
M  V30 4861 H 478.467 1.76791 -3.78332 0
M  V30 4862 N 478.904 1.54736 -0.299062 0
M  V30 4863 C 480.315 1.8569 0.193971 0
M  V30 4864 C 480.666 1.22101 1.53577 0
M  V30 4865 O 479.791 0.51799 2.10109 0
M  V30 4866 C 480.386 3.36895 0.358733 0
M  V30 4867 C 478.945 3.67887 0.795986 0
M  V30 4868 C 478.092 2.77131 -0.096807 0
M  V30 4869 H 481.043 1.49934 -0.520134 0
M  V30 4870 H 481.064 3.61294 1.19361 0
M  V30 4871 H 480.576 3.83148 -0.617998 0
M  V30 4872 H 478.677 3.27151 1.78334 0
M  V30 4873 H 478.79 4.75114 0.616718 0
M  V30 4874 H 477.154 2.51153 0.423581 0
M  V30 4875 H 477.937 3.26204 -1.06986 0
M  V30 4876 N 480.382 0.0267497 1.57577 0
M  V30 4877 C 481.631 -0.651736 1.9088 0
M  V30 4878 C 481.944 -1.73427 0.904576 0
M  V30 4879 O 483.15 -2.46923 1.12877 0
M  V30 4880 C 481.606 -1.21048 3.38933 0
M  V30 4881 C 481.214 -0.161362 4.47709 0
M  V30 4882 C 482.958 -1.86562 3.81307 0
M  V30 4883 C 480.865 -0.731611 5.86857 0
M  V30 4884 H 479.795 -0.247198 0.712326 0
M  V30 4885 H 482.446 0.0916641 1.83271 0
M  V30 4886 H 480.828 -2.00542 3.41466 0
M  V30 4887 H 482.002 0.61094 4.56732 0
M  V30 4888 H 480.317 0.394877 4.14523 0
M  V30 4889 H 482.914 -2.30178 4.8262 0
M  V30 4890 H 483.257 -2.70735 3.16241 0
M  V30 4891 H 483.79 -1.13762 3.81186 0
M  V30 4892 H 480.529 0.0719329 6.55461 0
M  V30 4893 H 480.049 -1.47245 5.81445 0
M  V30 4894 H 481.728 -1.22208 6.35354 0
M  V30 4895 N 481.861 -1.55662 -0.24637 0
M  V30 4896 C 482.771 -1.93495 -1.32653 0
M  V30 4897 C 483.787 -0.835462 -1.5263 0
M  V30 4898 O 484.963 -1.1369 -1.66242 0
M  V30 4899 C 482.028 -2.22242 -2.66101 0
M  V30 4900 C 481.089 -3.45625 -2.54641 0
M  V30 4901 C 480.322 -3.72991 -3.81724 0
M  V30 4902 O 480.545 -3.02421 -4.8363 0
M  V30 4903 O 479.479 -4.66515 -3.80325 0
M  V30 4904 H 483.305 -2.85498 -1.03559 0
M  V30 4905 H 480.89 -1.42551 -0.44717 0
M  V30 4906 H 482.772 -2.42037 -3.44958 0
M  V30 4907 H 481.447 -1.33417 -2.94926 0
M  V30 4908 H 480.354 -3.31136 -1.74067 0
M  V30 4909 H 481.687 -4.34754 -2.3076 0
M  V30 4910 N 483.339 0.512053 -1.4905 0
M  V30 4911 C 484.286 1.6148 -1.64902 0
M  V30 4912 C 485.256 1.58687 -0.490673 0
M  V30 4913 O 486.441 1.76842 -0.71636 0
M  V30 4914 C 483.581 2.99676 -1.71139 0
M  V30 4915 C 482.694 3.12568 -2.98203 0
M  V30 4916 C 481.829 4.4143 -2.95487 0
M  V30 4917 C 480.868 4.47916 -4.17179 0
M  V30 4918 N 480.005 5.68191 -4.12437 0
M  V30 4919 H 484.845 1.47271 -2.59066 0
M  V30 4920 H 482.382 0.716713 -1.28459 0
M  V30 4921 H 484.34 3.79761 -1.72736 0
M  V30 4922 H 482.97 3.12614 -0.804508 0
M  V30 4923 H 482.022 2.25618 -3.06269 0
M  V30 4924 H 483.334 3.1322 -3.88194 0
M  V30 4925 H 482.488 5.29825 -2.95585 0
M  V30 4926 H 481.227 4.43326 -2.03256 0
M  V30 4927 H 480.232 3.57925 -4.17337 0
M  V30 4928 H 481.457 4.47744 -5.1059 0
M  V30 4929 H 479.403 5.7095 -3.23036 0
M  V30 4930 H 479.32 5.70413 -4.96151 0
M  V30 4931 H 480.588 6.58823 -4.16621 0
M  V30 4932 N 484.817 1.37938 0.762283 0
M  V30 4933 C 486.045 1.36883 1.55147 0
M  V30 4934 C 486.46 -0.0435348 1.8875 0
M  V30 4935 O 485.817 -1.00786 1.52146 0
M  V30 4936 C 485.868 2.21624 2.85596 0
M  V30 4937 O 485.589 3.57358 2.5343 0
M  V30 4938 C 487.09 2.28653 3.7978 0
M  V30 4939 H 484.31 0.468521 0.480343 0
M  V30 4940 H 486.854 1.81404 0.944079 0
M  V30 4941 H 485.009 1.80588 3.42734 0
M  V30 4942 H 485.423 4.01883 3.37032 0
M  V30 4943 H 486.897 2.9225 4.68288 0
M  V30 4944 H 487.374 1.29767 4.19592 0
M  V30 4945 H 487.98 2.70043 3.28568 0
M  V30 4946 N 486.295 -0.989507 1.22664 0
M  V30 4947 C 487.544 -1.72375 1.04737 0
M  V30 4948 C 487.857 -1.91096 -0.417316 0
M  V30 4949 O 489.063 -2.6188 -0.716334 0
M  V30 4950 C 487.519 -3.10161 1.82561 0
M  V30 4951 C 487.127 -2.99358 3.333 0
M  V30 4952 C 488.871 -3.87607 1.73093 0
M  V30 4953 C 486.778 -4.32319 4.03552 0
M  V30 4954 H 485.708 -0.646326 0.388302 0
M  V30 4955 H 488.359 -1.10437 1.46546 0
M  V30 4956 H 486.741 -3.728 1.33552 0
M  V30 4957 H 487.915 -2.45863 3.89728 0
M  V30 4958 H 486.23 -2.35392 3.43481 0
M  V30 4959 H 488.827 -4.86025 2.22899 0
M  V30 4960 H 489.17 -4.10509 0.691976 0
M  V30 4961 H 489.703 -3.31652 2.19663 0
M  V30 4962 H 486.442 -4.14616 5.07714 0
M  V30 4963 H 485.962 -4.85714 3.51911 0
M  V30 4964 H 487.641 -5.01051 4.09337 0
M  V30 4965 N 487.773 -1.03688 -1.18687 0
M  V30 4966 C 488.998 -0.757819 -1.93059 0
M  V30 4967 C 489.423 0.678353 -1.75442 0
M  V30 4968 O 488.781 1.46938 -1.06203 0
M  V30 4969 C 488.829 -1.12423 -3.42627 0
M  V30 4970 O 487.933 -0.247505 -4.11657 0
M  V30 4971 H 487.274 -0.279245 -0.602427 0
M  V30 4972 H 489.804 -1.3857 -1.5053 0
M  V30 4973 H 489.814 -1.08454 -3.93322 0
M  V30 4974 H 488.489 -2.17049 -3.54771 0
M  V30 4975 H 487.066 -0.34649 -3.71287 0
M  V30 4976 N 489.251 1.34841 -0.815825 0
M  V30 4977 C 490.198 2.29644 -0.230664 0
M  V30 4978 C 491.168 1.53253 0.640533 0
M  V30 4979 O 492.353 1.81653 0.583672 0
M  V30 4980 C 489.493 3.39715 0.607275 0
M  V30 4981 C 488.606 4.31056 -0.28538 0
M  V30 4982 C 487.741 5.28225 0.561446 0
M  V30 4983 C 486.78 6.11204 -0.331035 0
M  V30 4984 N 485.917 7.00483 0.476302 0
M  V30 4985 H 490.757 2.79095 -1.0445 0
M  V30 4986 H 488.294 1.37351 -0.526595 0
M  V30 4987 H 490.252 4.02208 1.10835 0
M  V30 4988 H 488.882 2.91517 1.38629 0
M  V30 4989 H 487.934 3.69487 -0.904621 0
M  V30 4990 H 489.246 4.89239 -0.97193 0
M  V30 4991 H 488.4 5.96135 1.12728 0
M  V30 4992 H 487.139 4.70562 1.28153 0
M  V30 4993 H 486.144 5.42232 -0.909069 0
M  V30 4994 H 487.369 6.70947 -1.04912 0
M  V30 4995 H 485.315 6.45296 1.18019 0
M  V30 4996 H 485.232 7.55847 -0.152008 0
M  V30 4997 H 486.5 7.7273 1.02512 0
M  V30 4998 N 490.729 0.570148 1.46925 0
M  V30 4999 C 491.692 -0.159933 2.28641 0
M  V30 5000 C 492.692 -0.830638 1.37685 0
M  V30 5001 O 493.882 -0.684516 1.60187 0
M  V30 5002 C 491.014 -1.2354 3.17727 0
M  V30 5003 H 492.207 0.558035 2.94662 0
M  V30 5004 H 489.76 0.327603 1.52828 0
M  V30 5005 H 490.495 -1.98535 2.56426 0
M  V30 5006 H 490.28 -0.759125 3.84681 0
M  V30 5007 H 491.77 -1.74782 3.79264 0
M  V30 5008 N 492.207 -1.54576 0.307264 0
M  V30 5009 C 493.154 -2.23751 -0.56604 0
M  V30 5010 C 494.124 -1.22235 -1.12462 0
M  V30 5011 O 495.309 -1.50873 -1.16799 0
M  V30 5012 C 492.449 -2.98661 -1.72903 0
M  V30 5013 C 491.562 -4.14963 -1.20124 0
M  V30 5014 C 490.697 -4.77441 -2.3286 0
M  V30 5015 C 489.736 -5.85875 -1.77247 0
M  V30 5016 N 488.873 -6.42282 -2.8358 0
M  V30 5017 H 493.713 -2.97984 0.0304578 0
M  V30 5018 H 491.25 -1.47076 0.0268015 0
M  V30 5019 H 493.208 -3.40329 -2.41313 0
M  V30 5020 H 491.838 -2.26793 -2.29706 0
M  V30 5021 H 490.89 -3.78193 -0.409198 0
M  V30 5022 H 492.202 -4.93066 -0.754171 0
M  V30 5023 H 491.356 -5.21993 -3.09205 0
M  V30 5024 H 490.095 -3.98684 -2.80896 0
M  V30 5025 H 489.1 -5.40741 -0.993926 0
M  V30 5026 H 490.325 -6.6652 -1.30107 0
M  V30 5027 H 488.271 -5.66406 -3.30939 0
M  V30 5028 H 488.188 -7.1575 -2.43388 0
M  V30 5029 H 489.456 -6.91492 -3.59804 0
M  V30 5030 N 493.685 -0.035106 -1.57561 0
M  V30 5031 C 494.933 0.64096 -1.91667 0
M  V30 5032 C 495.254 1.72323 -0.912681 0
M  V30 5033 O 494.524 1.95849 0.0449089 0
M  V30 5034 H 493.104 0.239743 -0.707483 0
M  V30 5035 H 495.766 -0.084321 -1.94718 0
M  V30 5036 H 494.862 1.08987 -2.92452 0
M  V30 5037 N 495.163 1.55791 0.238111 0
M  V30 5038 C 496.095 1.87513 1.31802 0
M  V30 5039 C 497.108 0.762053 1.43863 0
M  V30 5040 O 498.297 1.04024 1.45056 0
M  V30 5041 C 495.397 2.05402 2.69561 0
M  V30 5042 C 494.57 3.3632 2.79656 0
M  V30 5043 C 493.629 3.43844 3.98319 0
M  V30 5044 O 492.655 4.16994 3.87433 0
M  V30 5045 N 493.857 2.73777 5.11885 0
M  V30 5046 H 496.622 2.80734 1.04922 0
M  V30 5047 H 494.183 1.56135 0.428196 0
M  V30 5048 H 496.175 2.07769 3.47296 0
M  V30 5049 H 494.745 1.18884 2.89111 0
M  V30 5050 H 493.965 3.46195 1.88528 0
M  V30 5051 H 495.253 4.22594 2.83358 0
M  V30 5052 H 494.651 2.14094 5.23622 0
M  V30 5053 H 493.208 2.81825 5.87723 0
M  V30 5054 N 496.642 -0.504142 1.49319 0
M  V30 5055 C 498.053 -1.08572 1.51885 0
M  V30 5056 C 498.404 -1.93842 0.303255 0
M  V30 5057 O 497.529 -2.0828 -0.58724 0
M  V30 5058 C 498.124 -1.97574 2.75227 0
M  V30 5059 C 496.683 -2.509 2.80581 0
M  V30 5060 C 495.83 -1.28447 2.45757 0
M  V30 5061 H 498.781 -0.288194 1.56061 0
M  V30 5062 H 498.802 -2.82219 2.55211 0
M  V30 5063 H 498.314 -1.35486 3.63683 0
M  V30 5064 H 496.415 -3.16636 1.96398 0
M  V30 5065 H 496.528 -2.88268 3.82673 0
M  V30 5066 H 494.892 -1.60868 1.97468 0
M  V30 5067 H 495.675 -0.68072 3.36483 0
M  V30 5068 N 498.12 -1.38341 -0.754957 0
M  V30 5069 C 499.536 -1.19508 -1.05783 0
M  V30 5070 C 499.736 -0.0428005 -2.01455 0
M  V30 5071 O 498.792 0.611861 -2.44975 0
M  V30 5072 C 500.105 -2.52091 -1.63923 0
M  V30 5073 C 501.653 -2.58762 -1.76101 0
M  V30 5074 C 502.128 -3.91517 -2.37652 0
M  V30 5075 N 503.619 -3.93049 -2.45085 0
M  V30 5076 C 504.354 -4.9253 -2.93602 0
M  V30 5077 N 503.85 -6.02408 -3.42165 0
M  V30 5078 N 505.643 -4.79921 -2.92629 0
M  V30 5079 H 497.794 -2.1206 -0.120056 0
M  V30 5080 H 500.057 -0.94089 -0.11589 0
M  V30 5081 H 499.763 -3.36858 -1.01093 0
M  V30 5082 H 499.637 -2.70388 -2.63003 0
M  V30 5083 H 502.024 -1.74391 -2.38058 0
M  V30 5084 H 502.105 -2.44333 -0.757294 0
M  V30 5085 H 501.749 -4.76309 -1.76329 0
M  V30 5086 H 501.679 -4.03256 -3.38662 0
M  V30 5087 H 504.17 -3.13685 -2.10736 0
M  V30 5088 H 504.483 -6.74248 -3.77637 0
M  V30 5089 H 502.828 -6.0603 -3.40225 0
M  V30 5090 H 506.019 -3.93194 -2.54001 0
M  V30 5091 H 506.192 -5.57601 -3.30128 0
M  V30 5092 N 499.598 0.982988 -1.23187 0
M  V30 5093 C 500.508 2.10907 -1.02739 0
M  V30 5094 C 501.524 1.73979 0.0273188 0
M  V30 5095 O 502.7 2.00702 -0.16757 0
M  V30 5096 C 499.765 3.41142 -0.618304 0
M  V30 5097 C 498.826 3.92112 -1.74777 0
M  V30 5098 C 498.059 5.16131 -1.3581 0
M  V30 5099 O 498.282 5.6989 -0.241201 0
M  V30 5100 O 497.216 5.61103 -2.17824 0
M  V30 5101 H 501.042 2.31046 -1.97108 0
M  V30 5102 H 498.627 1.09284 -1.01869 0
M  V30 5103 H 500.509 4.19488 -0.400982 0
M  V30 5104 H 499.184 3.2234 0.296421 0
M  V30 5105 H 498.091 3.14895 -2.0197 0
M  V30 5106 H 499.424 4.15364 -2.64071 0
M  V30 5107 N 501.076 1.04316 1.18135 0
M  V30 5108 C 502.487 0.775505 1.69832 0
M  V30 5109 C 502.838 -0.703348 1.8316 0
M  V30 5110 O 501.963 -1.54729 1.51287 0
M  V30 5111 C 502.558 1.40112 3.0847 0
M  V30 5112 C 501.117 1.18172 3.57368 0
M  V30 5113 C 500.264 1.49022 2.33854 0
M  V30 5114 H 503.215 1.20925 1.02775 0
M  V30 5115 H 503.236 0.805672 3.71873 0
M  V30 5116 H 502.748 2.47744 2.98738 0
M  V30 5117 H 500.849 0.124258 3.72393 0
M  V30 5118 H 500.962 1.8805 4.40652 0
M  V30 5119 H 499.326 0.909995 2.37889 0
M  V30 5120 H 500.109 2.57768 2.26738 0
M  V30 5121 N 502.554 -1.34406 0.822964 0
M  V30 5122 C 503.486 -2.28305 0.202375 0
M  V30 5123 C 504.499 -1.5103 -0.60777 0
M  V30 5124 O 505.688 -1.73057 -0.437444 0
M  V30 5125 C 502.788 -3.30836 -0.734911 0
M  V30 5126 C 501.961 -4.37388 0.0324177 0
M  V30 5127 C 501.02 -5.1968 -0.825803 0
M  V30 5128 O 500.046 -5.68556 -0.270771 0
M  V30 5129 N 501.248 -5.39393 -2.14558 0
M  V30 5130 H 504.013 -2.82201 1.00909 0
M  V30 5131 H 501.574 -1.4693 0.67993 0
M  V30 5132 H 503.566 -3.82786 -1.31365 0
M  V30 5133 H 502.136 -2.77334 -1.44238 0
M  V30 5134 H 501.356 -3.86152 0.792469 0
M  V30 5135 H 502.644 -5.05702 0.560633 0
M  V30 5136 H 502.042 -5.01357 -2.62025 0
M  V30 5137 H 500.599 -5.94461 -2.67318 0
M  V30 5138 N 504.032 -0.577932 -1.46621 0
M  V30 5139 C 505.278 -0.0617793 -2.02706 0
M  V30 5140 C 505.611 1.29294 -1.44903 0
M  V30 5141 O 504.886 1.8461 -0.61232 0
M  V30 5142 C 505.169 0.00911824 -3.60099 0
M  V30 5143 C 505.022 -1.37416 -4.28295 0
M  V30 5144 C 506.341 0.712159 -4.343 0
M  V30 5145 H 503.46 -0.0239246 -0.736612 0
M  V30 5146 H 506.102 -0.744211 -1.74818 0
M  V30 5147 H 504.252 0.590292 -3.83989 0
M  V30 5148 H 505.924 -2.00013 -4.15683 0
M  V30 5149 H 504.167 -1.94319 -3.87843 0
M  V30 5150 H 504.838 -1.27707 -5.37024 0
M  V30 5151 H 507.314 0.218486 -4.15526 0
M  V30 5152 H 506.19 0.730782 -5.44014 0
M  V30 5153 H 506.451 1.77251 -4.05012 0
M  V30 5154 N 505.51 1.54411 -0.315457 0
M  V30 5155 C 506.74 2.04536 0.291315 0
M  V30 5156 C 507.148 1.19162 1.4696 0
M  V30 5157 O 506.491 0.213199 1.82459 0
M  V30 5158 C 506.553 3.5056 0.796725 0
M  V30 5159 C 506.217 4.5627 -0.258178 0
M  V30 5160 C 507.214 5.08312 -1.09153 0
M  V30 5161 C 504.899 5.00672 -0.404036 0
M  V30 5162 C 506.893 6.03312 -2.05655 0
M  V30 5163 C 504.58 5.95488 -1.37248 0
M  V30 5164 C 505.578 6.46693 -2.19721 0
M  V30 5165 O 505.266 7.39648 -3.14921 0
M  V30 5166 H 504.998 0.672856 0.0651165 0
M  V30 5167 H 507.552 2.00244 -0.457308 0
M  V30 5168 H 505.782 3.52223 1.59612 0
M  V30 5169 H 507.471 3.83804 1.32096 0
M  V30 5170 H 508.237 4.74793 -0.98979 0
M  V30 5171 H 504.116 4.60436 0.22799 0
M  V30 5172 H 507.66 6.43203 -2.70067 0
M  V30 5173 H 503.557 6.28424 -1.47489 0
M  V30 5174 H 504.325 7.57496 -3.10067 0
M  V30 5175 N 506.988 0.0434614 1.5754 0
M  V30 5176 C 508.216 -0.641835 1.96693 0
M  V30 5177 C 508.631 -1.64832 0.920652 0
M  V30 5178 O 507.988 -1.82247 -0.095993 0
M  V30 5179 C 508.039 -1.33557 3.35924 0
M  V30 5180 O 507.76 -0.369403 4.3654 0
M  V30 5181 C 509.261 -2.11135 3.89791 0
M  V30 5182 H 506.481 -0.176013 0.647503 0
M  V30 5183 H 509.025 0.107478 2.04217 0
M  V30 5184 H 507.18 -2.03617 3.29574 0
M  V30 5185 H 507.594 -0.863674 5.1734 0
M  V30 5186 H 509.068 -2.55107 4.89514 0
M  V30 5187 H 509.545 -2.95634 3.24803 0
M  V30 5188 H 510.151 -1.46002 3.99454 0
M  V30 5189 N 508.466 -1.55915 -0.229846 0
M  V30 5190 C 509.396 -1.94754 -1.28815 0
M  V30 5191 C 510.377 -0.814657 -1.49323 0
M  V30 5192 O 511.562 -1.07631 -1.61645 0
M  V30 5193 C 508.692 -2.25705 -2.63959 0
M  V30 5194 C 507.646 -3.41406 -2.5812 0
M  V30 5195 C 506.972 -3.57941 -3.97218 0
M  V30 5196 C 508.272 -4.76616 -2.13623 0
M  V30 5197 H 509.966 -2.83404 -0.965547 0
M  V30 5198 H 507.512 -1.36353 -0.463028 0
M  V30 5199 H 509.465 -2.51467 -3.38146 0
M  V30 5200 H 508.189 -1.339 -2.9789 0
M  V30 5201 H 506.848 -3.1568 -1.86391 0
M  V30 5202 H 506.496 -2.63526 -4.28443 0
M  V30 5203 H 506.196 -4.35757 -3.94195 0
M  V30 5204 H 507.72 -3.86042 -4.73079 0
M  V30 5205 H 509.134 -5.01637 -2.77549 0
M  V30 5206 H 507.531 -5.57655 -2.21677 0
M  V30 5207 H 508.601 -4.7253 -1.08829 0
M  V30 5208 N 509.944 0.496216 -1.49584 0
M  V30 5209 C 511.355 1.07765 -1.52459 0
M  V30 5210 C 511.706 1.93679 -0.31353 0
M  V30 5211 O 510.831 2.08588 0.576186 0
M  V30 5212 C 511.426 1.96111 -2.76271 0
M  V30 5213 C 509.985 2.49409 -2.81908 0
M  V30 5214 C 509.132 1.27142 -2.46435 0
M  V30 5215 H 512.083 0.279914 -1.56212 0
M  V30 5216 H 512.104 2.80862 -2.56704 0
M  V30 5217 H 511.616 1.33555 -3.64396 0
M  V30 5218 H 509.717 3.1559 -1.98074 0
M  V30 5219 H 509.83 2.86234 -3.84196 0
M  V30 5220 H 508.194 1.59818 -1.98319 0
M  V30 5221 H 508.977 0.662866 -3.3684 0
M  V30 5222 N 511.423 1.38739 0.74761 0
M  V30 5223 C 512.834 1.31507 1.32524 0
M  V30 5224 C 513.185 -0.0263963 1.96182 0
M  V30 5225 O 512.31 -0.92849 1.95469 0
M  V30 5226 C 512.905 2.38162 2.40966 0
M  V30 5227 C 511.464 2.34489 2.94434 0
M  V30 5228 C 510.611 2.20712 1.67873 0
M  V30 5229 H 513.562 1.4901 0.546043 0
M  V30 5230 H 513.583 2.04222 3.21051 0
M  V30 5231 H 513.095 3.35783 1.94605 0
M  V30 5232 H 511.196 1.40467 3.45108 0
M  V30 5233 H 511.309 3.28861 3.48407 0
M  V30 5234 H 509.673 1.67667 1.91729 0
M  V30 5235 H 510.456 3.20285 1.23582 0
M  V30 5236 N 512.901 -0.976442 1.23707 0
M  V30 5237 C 514.126 -1.75875 1.09922 0
M  V30 5238 C 514.551 -1.84911 -0.34489 0
M  V30 5239 O 513.909 -1.31363 -1.24954 0
M  V30 5240 C 513.957 -3.16179 1.73388 0
M  V30 5241 O 513.061 -4.00124 0.99871 0
M  V30 5242 H 512.402 -0.540954 0.385052 0
M  V30 5243 H 514.932 -1.22546 1.6384 0
M  V30 5244 H 514.942 -3.66741 1.78788 0
M  V30 5245 H 513.617 -3.08917 2.78466 0
M  V30 5246 H 512.194 -3.58624 1.02193 0
M  V30 5247 N 514.379 -1.04941 -1.1758 0
M  V30 5248 C 515.795 -0.770282 -1.39781 0
M  V30 5249 C 515.995 0.636417 -1.91186 0
M  V30 5250 O 515.051 1.39923 -2.10185 0
M  V30 5251 C 516.364 -1.82376 -2.3908 0
M  V30 5252 C 517.912 -1.84569 -2.52791 0
M  V30 5253 C 518.387 -2.88933 -3.55361 0
M  V30 5254 N 519.878 -2.8788 -3.62877 0
M  V30 5255 C 520.613 -3.65282 -4.41992 0
M  V30 5256 N 520.109 -4.52461 -5.24643 0
M  V30 5257 N 521.902 -3.53732 -4.36841 0
M  V30 5258 H 514.053 -1.95705 -0.825438 0
M  V30 5259 H 516.316 -0.847284 -0.425222 0
M  V30 5260 H 516.022 -2.83323 -2.08376 0
M  V30 5261 H 515.896 -1.66327 -3.38549 0
M  V30 5262 H 518.283 -0.842879 -2.82807 0
M  V30 5263 H 518.364 -2.04696 -1.53406 0
M  V30 5264 H 518.008 -3.89398 -3.26085 0
M  V30 5265 H 517.938 -2.66059 -4.54445 0
M  V30 5266 H 520.429 -2.24666 -3.03864 0
M  V30 5267 H 520.742 -5.08211 -5.82187 0
M  V30 5268 H 519.087 -4.56524 -5.24033 0
M  V30 5269 H 522.278 -2.85021 -3.71323 0
M  V30 5270 H 522.451 -4.14302 -4.98255 0
M  V30 5271 N 515.857 1.33968 -0.830081 0
M  V30 5272 C 516.767 2.33164 -0.259207 0
M  V30 5273 C 517.783 1.62951 0.610164 0
M  V30 5274 O 518.959 1.94668 0.516369 0
M  V30 5275 C 516.024 3.42088 0.563598 0
M  V30 5276 C 515.085 4.28037 -0.329014 0
M  V30 5277 C 514.318 5.3176 0.454616 0
M  V30 5278 O 514.541 5.44876 1.6872 0
M  V30 5279 O 513.475 6.01669 -0.166794 0
M  V30 5280 H 517.301 2.83832 -1.08041 0
M  V30 5281 H 514.886 1.37154 -0.59239 0
M  V30 5282 H 516.768 4.08581 1.03147 0
M  V30 5283 H 515.443 2.93651 1.36201 0
M  V30 5284 H 514.35 3.64443 -0.844538 0
M  V30 5285 H 515.683 4.79934 -1.09196 0
M  V30 5286 N 517.335 0.585699 1.46312 0
M  V30 5287 C 518.245 -0.148236 2.34131 0
M  V30 5288 C 519.261 -0.882972 1.49932 0
M  V30 5289 O 520.437 -0.845484 1.82794 0
M  V30 5290 C 517.502 -1.14714 3.27172 0
M  V30 5291 C 516.563 -0.416746 4.27272 0
M  V30 5292 C 515.796 -1.36806 5.15868 0
M  V30 5293 O 516.019 -2.60475 5.07454 0
M  V30 5294 O 514.953 -0.877018 5.95476 0
M  V30 5295 H 518.779 0.572882 2.98248 0
M  V30 5296 H 516.364 0.346082 1.45336 0
M  V30 5297 H 518.246 -1.72303 3.84564 0
M  V30 5298 H 516.921 -1.84967 2.65648 0
M  V30 5299 H 515.828 0.201061 3.73559 0
M  V30 5300 H 517.161 0.244872 4.9159 0
M  V30 5301 N 518.813 -1.54241 0.323641 0
M  V30 5302 C 519.746 -2.20579 -0.584833 0
M  V30 5303 C 520.724 -1.18286 -1.11567 0
M  V30 5304 O 521.908 -1.47025 -1.17966 0
M  V30 5305 C 519.035 -2.86754 -1.80249 0
M  V30 5306 C 518.081 -4.02767 -1.4029 0
M  V30 5307 S 518.914 -5.33693 -0.439539 0
M  V30 5308 C 520.07 -6.03362 -1.66448 0
M  V30 5309 H 520.303 -2.97292 -0.0213238 0
M  V30 5310 H 517.836 -1.54024 0.107726 0
M  V30 5311 H 519.794 -3.25503 -2.50116 0
M  V30 5312 H 518.455 -2.09844 -2.33719 0
M  V30 5313 H 517.648 -4.47933 -2.31024 0
M  V30 5314 H 517.25 -3.65692 -0.783928 0
M  V30 5315 H 519.542 -6.25546 -2.6019 0
M  V30 5316 H 520.485 -6.9689 -1.25498 0
M  V30 5317 H 520.893 -5.33273 -1.85149 0
M  V30 5318 N 520.291 -0.0518155 -1.57515 0
M  V30 5319 C 521.519 0.631395 -1.9703 0
M  V30 5320 C 521.934 1.64341 -0.92938 0
M  V30 5321 O 521.291 1.82296 0.0863266 0
M  V30 5322 C 521.342 1.31774 -3.36627 0
M  V30 5323 O 521.063 0.346247 -4.3673 0
M  V30 5324 C 522.564 2.09065 -3.90905 0
M  V30 5325 H 519.784 0.172576 -0.648428 0
M  V30 5326 H 522.328 -0.118306 -2.04158 0
M  V30 5327 H 520.483 2.01867 -3.30649 0
M  V30 5328 H 520.897 0.836226 -5.17791 0
M  V30 5329 H 522.371 2.52508 -4.9086 0
M  V30 5330 H 522.848 2.93908 -3.26366 0
M  V30 5331 H 523.454 1.43882 -4.00223 0
M  V30 5332 N 521.769 1.56035 0.221574 0
M  V30 5333 C 522.716 1.92413 1.27459 0
M  V30 5334 C 523.686 0.781323 1.46576 0
M  V30 5335 O 524.871 1.03721 1.60145 0
M  V30 5336 C 522.011 2.24617 2.61995 0
M  V30 5337 C 521.124 3.51831 2.50677 0
M  V30 5338 C 520.259 3.73482 3.77736 0
M  V30 5339 C 519.298 4.94211 3.6114 0
M  V30 5340 N 518.435 5.12252 4.80148 0
M  V30 5341 H 523.275 2.82203 0.957355 0
M  V30 5342 H 520.812 1.39676 0.461415 0
M  V30 5343 H 522.77 2.41298 3.40339 0
M  V30 5344 H 521.4 1.38 2.91815 0
M  V30 5345 H 520.452 3.43343 1.63767 0
M  V30 5346 H 521.764 4.40328 2.34334 0
M  V30 5347 H 520.918 3.9026 4.64523 0
M  V30 5348 H 519.657 2.83266 3.97003 0
M  V30 5349 H 518.662 4.77384 2.72736 0
M  V30 5350 H 519.887 5.85912 3.43343 0
M  V30 5351 H 517.833 4.24978 4.99729 0
M  V30 5352 H 517.75 5.94881 4.66532 0
M  V30 5353 H 519.018 5.33465 5.68362 0
M  V30 5354 N 523.247 -0.488276 1.49845 0
M  V30 5355 C 524.195 -1.60917 1.67954 0
M  V30 5356 C 525.189 -1.6038 0.54539 0
M  V30 5357 O 526.395 -1.64736 0.7254 0
M  V30 5358 H 522.77 -0.533658 0.529824 0
M  V30 5359 H 524.741 -1.428 2.62013 0
M  V30 5360 C 523.49 -2.98975 1.77509 0
M  V30 5361 H 522.813 -3.00099 2.6416 0
M  V30 5362 H 524.253 -3.76906 1.9421 0
M  V30 5363 C 522.712 -3.3282 0.522745 0
M  V30 5364 O 523.242 -4.00208 -0.345866 0
M  V30 5365 N 521.448 -2.8808 0.381882 0
M  V30 5366 H 520.995 -2.33415 1.08974 0
M  V30 5367 H 520.953 -3.11091 -0.454929 0
M  V30 5368 N 524.725 -1.39134 -0.740242 0
M  V30 5369 C 525.657 -1.33332 -1.86428 0
M  V30 5370 C 526.67 -0.243042 -1.60976 0
M  V30 5371 O 527.859 -0.501608 -1.71307 0
M  V30 5372 C 524.959 -1.04626 -3.22346 0
M  V30 5373 C 524.132 -2.24826 -3.75196 0
M  V30 5374 C 523.191 -1.92659 -4.89662 0
M  V30 5375 O 522.217 -2.6529 -5.03597 0
M  V30 5376 N 523.419 -0.889575 -5.73643 0
M  V30 5377 H 526.184 -2.30196 -1.91911 0
M  V30 5378 H 523.745 -1.33168 -0.920756 0
M  V30 5379 H 525.737 -0.811347 -3.96484 0
M  V30 5380 H 524.307 -0.165129 -3.12164 0
M  V30 5381 H 523.527 -2.64301 -2.9247 0
M  V30 5382 H 524.815 -3.05015 -4.07239 0
M  V30 5383 H 524.213 -0.287529 -5.64969 0
M  V30 5384 H 522.77 -0.714557 -6.47871 0
M  V30 5385 N 526.204 0.969867 -1.24223 0
M  V30 5386 C 527.45 1.7151 -1.08223 0
M  V30 5387 C 527.783 1.90478 0.37838 0
M  V30 5388 O 527.058 1.4647 1.27971 0
M  V30 5389 C 527.341 3.10714 -1.82013 0
M  V30 5390 C 527.194 2.9925 -3.35811 0
M  V30 5391 C 528.513 4.10332 -1.59108 0
M  V30 5392 H 525.632 0.622499 -0.394543 0
M  V30 5393 H 528.274 1.1284 -1.52863 0
M  V30 5394 H 526.424 3.608 -1.44068 0
M  V30 5395 H 528.096 2.56608 -3.83341 0
M  V30 5396 H 526.339 2.35512 -3.64303 0
M  V30 5397 H 527.01 3.97857 -3.82641 0
M  V30 5398 H 529.486 3.69097 -1.92111 0
M  V30 5399 H 528.362 5.05804 -2.13198 0
M  V30 5400 H 528.623 4.38926 -0.528832 0
M  V30 5401 N 527.682 1.05563 1.17022 0
M  V30 5402 C 528.907 0.788437 1.91829 0
M  V30 5403 C 529.332 -0.650356 1.76499 0
M  V30 5404 O 528.69 -1.45229 1.08527 0
M  V30 5405 C 528.738 1.1786 3.40795 0
M  V30 5406 O 527.842 0.312965 4.11211 0
M  V30 5407 H 527.183 0.288794 0.597908 0
M  V30 5408 H 529.713 1.40948 1.48307 0
M  V30 5409 H 529.723 1.14697 3.91546 0
M  V30 5410 H 528.398 2.22666 3.51273 0
M  V30 5411 H 526.975 0.405515 3.70689 0
M  V30 5412 N 529.16 -1.33526 0.837174 0
M  V30 5413 C 530.09 -2.31764 0.284206 0
M  V30 5414 C 531.071 -1.58896 -0.607142 0
M  V30 5415 O 532.256 -1.86798 -0.531047 0
M  V30 5416 C 529.386 -3.43029 -0.542962 0
M  V30 5417 C 528.34 -4.27255 0.252451 0
M  V30 5418 C 527.666 -5.3012 -0.69836 0
M  V30 5419 C 528.966 -5.01229 1.46858 0
M  V30 5420 H 530.66 -2.78262 1.10502 0
M  V30 5421 H 528.206 -1.3378 0.532812 0
M  V30 5422 H 530.159 -4.1078 -0.940096 0
M  V30 5423 H 528.883 -2.95216 -1.39697 0
M  V30 5424 H 527.542 -3.61127 0.631124 0
M  V30 5425 H 527.19 -4.78564 -1.54872 0
M  V30 5426 H 526.89 -5.87353 -0.170274 0
M  V30 5427 H 528.414 -6.00737 -1.09305 0
M  V30 5428 H 529.828 -5.61756 1.14469 0
M  V30 5429 H 528.225 -5.68104 1.93333 0
M  V30 5430 H 529.295 -4.301 2.23924 0
M  V30 5431 N 530.638 -0.59345 -1.46 0
M  V30 5432 C 531.866 -0.0890934 -2.06708 0
M  V30 5433 C 532.281 1.2205 -1.44046 0
M  V30 5434 O 531.638 1.74029 -0.549551 0
M  V30 5435 C 531.689 0.0720263 -3.61428 0
M  V30 5436 O 531.41 -1.18574 -4.21748 0
M  V30 5437 C 532.911 0.609487 -4.3909 0
M  V30 5438 H 530.131 -0.0623628 -0.668096 0
M  V30 5439 H 532.675 -0.817171 -1.87464 0
M  V30 5440 H 530.83 0.750369 -3.80063 0
M  V30 5441 H 531.244 -1.0064 -5.14754 0
M  V30 5442 H 532.718 0.671363 -5.47902 0
M  V30 5443 H 533.195 1.62878 -4.07882 0
M  V30 5444 H 533.801 -0.03434 -4.25286 0
M  V30 5445 N 532.116 1.54067 -0.331816 0
M  V30 5446 C 533.356 2.02625 0.26876 0
M  V30 5447 C 533.72 1.21462 1.48697 0
M  V30 5448 O 534.921 1.59863 2.16096 0
M  V30 5449 C 533.192 3.52554 0.586577 0
M  V30 5450 S 534.751 4.23035 1.16563 0
M  V30 5451 H 531.569 0.706395 0.0807862 0
M  V30 5452 H 534.171 1.89844 -0.466856 0
M  V30 5453 H 532.875 4.09242 -0.308046 0
M  V30 5454 H 532.406 3.69432 1.35217 0
M  V30 5455 H 534.421 4.31382 2.45203 0
M  V30 5456 N 533.594 0.0601682 1.57485 0
M  V30 5457 C 534.524 -0.90889 2.15085 0
M  V30 5458 C 535.505 -1.31838 1.07484 0
M  V30 5459 O 536.69 -1.3915 1.35466 0
M  V30 5460 C 533.82 -2.18059 2.7031 0
M  V30 5461 C 532.774 -1.91088 3.82974 0
M  V30 5462 C 532.1 -3.24789 4.24754 0
M  V30 5463 C 533.4 -1.22535 5.07723 0
M  V30 5464 H 535.094 -0.429093 2.96309 0
M  V30 5465 H 532.64 -0.204952 1.42534 0
M  V30 5466 H 534.593 -2.86258 3.09248 0
M  V30 5467 H 533.317 -2.6826 1.8629 0
M  V30 5468 H 531.976 -1.25297 3.44523 0
M  V30 5469 H 531.624 -3.72809 3.37672 0
M  V30 5470 H 531.324 -3.07538 5.00694 0
M  V30 5471 H 532.848 -3.94205 4.66299 0
M  V30 5472 H 534.262 -1.80783 5.4405 0
M  V30 5473 H 532.659 -1.1558 5.88864 0
M  V30 5474 H 533.729 -0.202692 4.84476 0
M  V30 5475 N 535.072 -1.5615 -0.213296 0
M  V30 5476 C 536.318 -1.79812 -0.937849 0
M  V30 5477 C 536.651 -0.631201 -1.83656 0
M  V30 5478 O 535.926 0.369165 -1.90964 0
M  V30 5479 C 536.209 -3.13613 -1.76972 0
M  V30 5480 C 536.062 -4.40766 -0.89695 0
M  V30 5481 C 537.381 -3.43931 -2.7459 0
M  V30 5482 H 534.5 -0.654138 -0.339518 0
M  V30 5483 H 537.142 -1.88877 -0.20623 0
M  V30 5484 H 535.292 -3.06015 -2.39347 0
M  V30 5485 H 536.964 -4.60392 -0.289306 0
M  V30 5486 H 535.207 -4.33326 -0.202756 0
M  V30 5487 H 535.878 -5.30843 -1.51358 0
M  V30 5488 H 538.354 -3.5171 -2.22349 0
M  V30 5489 H 537.23 -4.38706 -3.29891 0
M  V30 5490 H 537.491 -2.6651 -3.52739 0
M  V30 5491 N 536.55 0.480323 -1.50102 0
M  V30 5492 C 537.497 1.57946 -1.6829 0
M  V30 5493 C 538.467 1.57611 -0.524223 0
M  V30 5494 O 539.652 1.75282 -0.753709 0
M  V30 5495 C 536.792 2.95978 -1.77457 0
M  V30 5496 C 535.905 3.06173 -3.04766 0
M  V30 5497 C 535.04 4.35063 -3.04784 0
M  V30 5498 C 534.079 4.38966 -4.26586 0
M  V30 5499 N 533.216 5.59314 -4.24396 0
M  V30 5500 H 538.056 1.41743 -2.62131 0
M  V30 5501 H 535.593 0.689304 -1.2995 0
M  V30 5502 H 537.551 3.76011 -1.80752 0
M  V30 5503 H 536.181 3.10837 -0.870637 0
M  V30 5504 H 535.233 2.19071 -3.10986 0
M  V30 5505 H 536.545 3.04916 -3.9475 0
M  V30 5506 H 535.699 5.23436 -3.06757 0
M  V30 5507 H 534.438 4.38915 -2.12614 0
M  V30 5508 H 533.443 3.48992 -4.24835 0
M  V30 5509 H 534.668 4.36813 -5.19972 0
M  V30 5510 H 532.614 5.63969 -3.35074 0
M  V30 5511 H 532.531 5.5976 -5.08138 0
M  V30 5512 H 533.799 6.49837 -4.30502 0
M  V30 5513 N 538.028 1.39524 0.732853 0
M  V30 5514 C 539.276 1.36594 1.48951 0
M  V30 5515 C 539.597 -0.0367507 1.94965 0
M  V30 5516 O 538.867 -0.988391 1.69138 0
M  V30 5517 H 537.447 0.502673 0.552566 0
M  V30 5518 H 540.109 1.74411 0.869869 0
M  V30 5519 H 539.205 2.03 2.3706 0
M  V30 5520 N 539.506 -0.963266 1.24736 0
M  V30 5521 C 540.753 -1.7068 1.0897 0
M  V30 5522 C 541.081 -1.90934 -0.370751 0
M  V30 5523 O 540.336 -1.47155 -1.29011 0
M  V30 5524 C 540.635 -3.09944 1.7796 0
M  V30 5525 C 540.301 -3.09518 3.27887 0
M  V30 5526 C 538.963 -3.09109 3.68789 0
M  V30 5527 C 541.315 -3.03509 4.23712 0
M  V30 5528 C 538.643 -3.00429 5.03944 0
M  V30 5529 C 540.995 -2.96371 5.5888 0
M  V30 5530 C 539.659 -2.94293 5.99123 0
M  V30 5531 H 538.929 -0.624564 0.398749 0
M  V30 5532 H 541.576 -1.12603 1.54896 0
M  V30 5533 H 539.881 -3.71513 1.2444 0
M  V30 5534 H 541.578 -3.66278 1.63222 0
M  V30 5535 H 538.168 -3.10603 2.95337 0
M  V30 5536 H 542.352 -3.0295 3.93109 0
M  V30 5537 H 537.608 -2.97183 5.34314 0
M  V30 5538 H 541.782 -2.90681 6.32833 0
M  V30 5539 H 539.409 -2.87322 7.03811 0
M  V30 5540 N 540.985 -1.06182 -1.16461 0
M  V30 5541 C 542.215 -0.797425 -1.9059 0
M  V30 5542 C 542.623 0.651845 -1.77616 0
M  V30 5543 O 541.966 1.45788 -1.11766 0
M  V30 5544 C 542.028 -1.11128 -3.41893 0
M  V30 5545 C 541.692 -2.55874 -3.78652 0
M  V30 5546 C 542.689 -3.54104 -3.80665 0
M  V30 5547 C 540.374 -2.91144 -4.09317 0
M  V30 5548 C 542.368 -4.85645 -4.12829 0
M  V30 5549 C 540.055 -4.22885 -4.41148 0
M  V30 5550 C 541.053 -5.19945 -4.42883 0
M  V30 5551 O 540.741 -6.49322 -4.73959 0
M  V30 5552 H 540.473 -0.288709 -0.611247 0
M  V30 5553 H 543.027 -1.41841 -1.4856 0
M  V30 5554 H 541.257 -0.433217 -3.84266 0
M  V30 5555 H 542.946 -0.831306 -3.97296 0
M  V30 5556 H 543.712 -3.28197 -3.57088 0
M  V30 5557 H 539.591 -2.16252 -4.07131 0
M  V30 5558 H 543.135 -5.61398 -4.14099 0
M  V30 5559 H 539.032 -4.48551 -4.6419 0
M  V30 5560 H 539.8 -6.54294 -4.91774 0
M  V30 5561 N 542.463 1.3308 -0.844243 0
M  V30 5562 C 543.874 1.7992 -0.498566 0
M  V30 5563 C 544.225 1.69808 0.982834 0
M  V30 5564 O 543.35 1.25051 1.7661 0
M  V30 5565 C 543.945 3.26677 -0.898204 0
M  V30 5566 C 542.504 3.71513 -0.604583 0
M  V30 5567 C 541.651 2.54393 -1.10362 0
M  V30 5568 H 544.602 1.20526 -1.03244 0
M  V30 5569 H 544.623 3.79918 -0.21039 0
M  V30 5570 H 544.135 3.34004 -1.97643 0
M  V30 5571 H 542.236 3.69708 0.46335 0
M  V30 5572 H 542.349 4.64755 -1.16358 0
M  V30 5573 H 540.713 2.49246 -0.524273 0
M  V30 5574 H 541.496 2.6448 -2.18873 0
M  V30 5575 N 543.941 0.601185 1.45683 0
M  V30 5576 C 545.166 0.0982245 2.07167 0
M  V30 5577 C 545.591 -1.20546 1.44396 0
M  V30 5578 O 544.949 -1.73247 0.534347 0
M  V30 5579 C 544.997 -0.0346976 3.60583 0
M  V30 5580 O 544.101 -1.08657 3.97828 0
M  V30 5581 H 543.442 0.0711618 0.660176 0
M  V30 5582 H 545.972 0.829376 1.87036 0
M  V30 5583 H 545.982 -0.234969 4.07323 0
M  V30 5584 H 544.657 0.917265 4.05659 0
M  V30 5585 H 543.234 -0.863275 3.6277 0
M  V30 5586 N 545.419 -1.53889 0.339982 0
M  V30 5587 C 546.696 -1.93084 -0.312719 0
M  V30 5588 C 547.076 -1.2712 -1.68534 0
M  V30 5589 O 546.424 -0.420835 -2.24591 0
M  V30 5590 C 546.634 -3.4683 -0.388558 0
M  V30 5591 C 547.982 -4.19732 -0.641088 0
M  V30 5592 O 549.006 -3.53075 -0.470818 0
M  V30 5593 O 547.865 -5.3781 -0.970685 0
M  V30 5594 H 544.959 -0.806784 -0.18174 0
M  V30 5595 H 547.505 -1.65137 0.390898 0
M  V30 5596 H 546.277 -3.87055 0.574821 0
M  V30 5597 H 545.9 -3.80933 -1.1391 0
M  V30 5598 N 546.897 -0.0685191 -1.57451 0
M  V30 5599 C 548.146 0.600898 -1.92541 0
M  V30 5600 C 548.459 1.70967 -0.950239 0
M  V30 5601 O 549.665 2.43844 -1.19384 0
M  V30 5602 C 548.121 1.12019 -3.42023 0
M  V30 5603 C 547.729 0.0426028 -4.4798 0
M  V30 5604 C 549.473 1.76386 -3.86119 0
M  V30 5605 C 547.38 0.575759 -5.88591 0
M  V30 5606 H 546.31 0.228225 -0.71863 0
M  V30 5607 H 548.961 -0.140223 -1.82963 0
M  V30 5608 H 547.343 1.91418 -3.46663 0
M  V30 5609 H 548.517 -0.73182 -4.54952 0
M  V30 5610 H 546.832 -0.504642 -4.13331 0
M  V30 5611 H 549.429 2.17302 -4.88553 0
M  V30 5612 H 549.772 2.62255 -3.23308 0
M  V30 5613 H 550.305 1.03615 -3.84069 0
M  V30 5614 H 547.044 -0.245691 -6.55039 0
M  V30 5615 H 546.564 1.31778 -5.85145 0
M  V30 5616 H 548.243 1.0532 -6.3837 0
M  V30 5617 N 548.375 1.56261 0.205012 0
M  V30 5618 C 549.338 1.92908 1.23771 0
M  V30 5619 C 550.338 0.809208 1.38955 0
M  V30 5620 O 551.528 1.07676 1.36936 0
M  V30 5621 C 548.66 2.19442 2.60879 0
M  V30 5622 H 549.853 2.85287 0.924728 0
M  V30 5623 H 547.406 1.49798 0.446125 0
M  V30 5624 H 548.141 1.29668 2.97248 0
M  V30 5625 H 547.926 3.0104 2.51232 0
M  V30 5626 H 549.416 2.48833 3.35368 0
M  V30 5627 N 549.853 -0.472356 1.50355 0
M  V30 5628 C 551.099 -1.22634 1.6152 0
M  V30 5629 C 551.432 -1.91645 0.313995 0
M  V30 5630 O 550.707 -1.82059 -0.684446 0
M  V30 5631 C 550.99 -2.27099 2.7946 0
M  V30 5632 C 550.843 -1.62402 4.19459 0
M  V30 5633 C 552.162 -3.28421 2.92964 0
M  V30 5634 H 549.281 -0.444494 0.587873 0
M  V30 5635 H 551.923 -0.520321 1.82737 0
M  V30 5636 H 550.073 -2.87314 2.61501 0
M  V30 5637 H 551.745 -1.05793 4.49005 0
M  V30 5638 H 549.988 -0.927184 4.23776 0
M  V30 5639 H 550.659 -2.38309 4.97909 0
M  V30 5640 H 553.135 -2.78227 3.09401 0
M  V30 5641 H 552.011 -3.98845 3.77113 0
M  V30 5642 H 552.272 -3.92467 2.03525 0
M  V30 5643 N 551.331 -1.39911 -0.725443 0
M  V30 5644 C 552.241 -1.41688 -1.8698 0
M  V30 5645 C 553.257 -0.310579 -1.71206 0
M  V30 5646 O 554.433 -0.55359 -1.93642 0
M  V30 5647 C 551.498 -1.26811 -3.22676 0
M  V30 5648 C 550.559 -2.47497 -3.50776 0
M  V30 5649 C 549.792 -2.3332 -4.79997 0
M  V30 5650 O 550.015 -1.34175 -5.54394 0
M  V30 5651 O 548.949 -3.22498 -5.08211 0
M  V30 5652 H 552.775 -2.38171 -1.88436 0
M  V30 5653 H 550.36 -1.21128 -0.874548 0
M  V30 5654 H 552.242 -1.20684 -4.03749 0
M  V30 5655 H 550.917 -0.334289 -3.21969 0
M  V30 5656 H 549.824 -2.59201 -2.69751 0
M  V30 5657 H 551.157 -3.39606 -3.5627 0
M  V30 5658 N 552.809 0.956637 -1.25245 0
M  V30 5659 C 554.055 1.70413 -1.11044 0
M  V30 5660 C 554.41 1.89275 0.345377 0
M  V30 5661 O 553.703 1.45116 1.25107 0
M  V30 5662 C 553.897 3.08996 -1.79601 0
M  V30 5663 C 553.726 3.03654 -3.317 0
M  V30 5664 C 552.496 3.07521 -4.00947 0
M  V30 5665 C 554.694 2.84975 -4.28128 0
M  V30 5666 N 552.676 2.92316 -5.39838 0
M  V30 5667 C 554.047 2.7818 -5.5409 0
M  V30 5668 C 556.102 2.6964 -4.18568 0
M  V30 5669 C 554.805 2.57616 -6.71585 0
M  V30 5670 C 556.831 2.50447 -5.35752 0
M  V30 5671 C 556.193 2.4437 -6.60653 0
M  V30 5672 H 552.292 0.631642 -0.461035 0
M  V30 5673 H 554.876 1.13331 -1.58317 0
M  V30 5674 H 553.047 3.64248 -1.34826 0
M  V30 5675 H 554.779 3.72515 -1.58161 0
M  V30 5676 H 551.534 3.16635 -3.52192 0
M  V30 5677 H 551.958 2.87923 -6.12723 0
M  V30 5678 H 556.6 2.73113 -3.22752 0
M  V30 5679 H 554.318 2.52885 -7.67512 0
M  V30 5680 H 557.904 2.39509 -5.30214 0
M  V30 5681 H 556.784 2.29712 -7.49801 0
M  V30 5682 N 554.287 1.06798 1.15896 0
M  V30 5683 C 555.197 0.694564 2.24083 0
M  V30 5684 C 556.213 -0.291687 1.71538 0
M  V30 5685 O 557.389 -0.139723 2.00915 0
M  V30 5686 C 554.454 0.0921014 3.46578 0
M  V30 5687 C 553.515 1.13087 4.14137 0
M  V30 5688 C 552.748 0.557064 5.30785 0
M  V30 5689 O 552.971 -0.628623 5.66925 0
M  V30 5690 O 551.905 1.29924 5.8771 0
M  V30 5691 H 555.731 1.59663 2.58344 0
M  V30 5692 H 553.316 0.840575 1.2351 0
M  V30 5693 H 555.198 -0.241884 4.20705 0
M  V30 5694 H 553.873 -0.78337 3.14078 0
M  V30 5695 H 552.78 1.51712 3.41957 0
M  V30 5696 H 554.113 1.97805 4.50704 0
M  V30 5697 N 555.766 -1.3263 0.851289 0
M  V30 5698 C 556.991 -2.02097 0.466006 0
M  V30 5699 C 557.416 -1.63574 -0.928709 0
M  V30 5700 O 556.774 -0.834665 -1.60944 0
M  V30 5701 C 556.822 -3.55425 0.608737 0
M  V30 5702 O 555.926 -4.10827 -0.359878 0
M  V30 5703 H 555.267 -0.636911 0.187724 0
M  V30 5704 H 557.797 -1.69253 1.14955 0
M  V30 5705 H 557.807 -4.04986 0.495006 0
M  V30 5706 H 556.482 -3.82806 1.62581 0
M  V30 5707 H 555.059 -3.72349 -0.202666 0
M  V30 5708 N 557.244 -0.608902 -1.45362 0
M  V30 5709 C 558.192 0.121639 -2.32282 0
M  V30 5710 C 559.186 0.858301 -1.46046 0
M  V30 5711 O 560.392 0.773718 -1.62523 0
M  V30 5712 H 556.767 0.058086 -0.749753 0
M  V30 5713 H 558.738 -0.629866 -2.91677 0
M  V30 5714 C 557.487 1.1047 -3.29684 0
M  V30 5715 H 556.81 0.547278 -3.96036 0
M  V30 5716 H 558.25 1.58576 -3.9323 0
M  V30 5717 C 556.709 2.17891 -2.56954 0
M  V30 5718 O 557.239 3.25652 -2.35189 0
M  V30 5719 N 555.445 1.93211 -2.17066 0
M  V30 5720 H 554.992 1.05584 -2.34967 0
M  V30 5721 H 554.95 2.6529 -1.68727 0
M  V30 5722 N 558.722 1.53707 -0.348139 0
M  V30 5723 C 559.97 2.00591 0.246478 0
M  V30 5724 C 560.291 1.23753 1.50699 0
M  V30 5725 O 559.561 0.345964 1.92821 0
M  V30 5726 H 558.141 0.741053 0.0940679 0
M  V30 5727 H 560.803 1.89139 -0.470354 0
M  V30 5728 H 559.899 3.08297 0.485714 0
M  V30 5729 N 560.2 0.0768682 1.57412 0
M  V30 5730 C 561.132 -0.918248 2.10002 0
M  V30 5731 C 562.145 -1.25808 1.03325 0
M  V30 5732 O 563.334 -1.21438 1.30824 0
M  V30 5733 C 560.434 -2.23263 2.54964 0
M  V30 5734 C 559.607 -2.07088 3.8527 0
M  V30 5735 C 558.666 -3.21876 4.16272 0
M  V30 5736 O 557.692 -2.96643 4.8579 0
M  V30 5737 N 558.894 -4.4712 3.70221 0
M  V30 5738 H 561.659 -0.469209 2.96004 0
M  V30 5739 H 559.22 -0.108725 1.61535 0
M  V30 5740 H 561.212 -2.9897 2.72762 0
M  V30 5741 H 559.782 -2.59649 1.74072 0
M  V30 5742 H 559.002 -1.15818 3.76802 0
M  V30 5743 H 560.29 -1.93537 4.70554 0
M  V30 5744 H 559.688 -4.70506 3.1407 0
M  V30 5745 H 558.245 -5.19837 3.93209 0
M  V30 5746 N 561.678 -1.56367 -0.196722 0
M  V30 5747 C 563.089 -1.70462 -0.761545 0
M  V30 5748 C 563.44 -0.683161 -1.83922 0
M  V30 5749 O 562.565 0.160753 -2.15802 0
M  V30 5750 C 563.16 -3.09057 -1.38814 0
M  V30 5751 C 561.719 -3.24922 -1.90007 0
M  V30 5752 C 560.866 -2.66412 -0.769399 0
M  V30 5753 H 563.817 -1.58675 0.0283263 0
M  V30 5754 H 563.838 -3.06296 -2.2575 0
M  V30 5755 H 563.35 -3.83378 -0.603559 0
M  V30 5756 H 561.451 -2.55514 -2.71189 0
M  V30 5757 H 561.564 -4.3241 -2.06297 0
M  V30 5758 H 559.928 -2.25546 -1.18326 0
M  V30 5759 H 560.711 -3.433 0.00291773 0
M  V30 5760 N 563.156 0.464375 -1.50603 0
M  V30 5761 C 564.066 1.58723 -1.72754 0
M  V30 5762 C 565.082 1.62925 -0.610844 0
M  V30 5763 O 566.258 1.8067 -0.889963 0
M  V30 5764 C 563.323 2.94897 -1.82309 0
M  V30 5765 C 562.384 3.0103 -3.06071 0
M  V30 5766 C 561.617 4.30708 -3.1516 0
M  V30 5767 O 561.84 5.2159 -2.30868 0
M  V30 5768 O 560.774 4.42571 -4.0794 0
M  V30 5769 H 564.6 1.42954 -2.67951 0
M  V30 5770 H 562.185 0.644579 -1.3478 0
M  V30 5771 H 564.067 3.75764 -1.90735 0
M  V30 5772 H 562.742 3.10851 -0.902967 0
M  V30 5773 H 561.649 2.19217 -3.03142 0
M  V30 5774 H 562.982 2.90014 -3.97684 0
M  V30 5775 N 564.634 1.40294 0.718013 0
M  V30 5776 C 565.582 1.40536 1.85344 0
M  V30 5777 C 566.576 0.286192 1.66965 0
M  V30 5778 O 567.782 0.457105 1.74099 0
M  V30 5779 H 564.157 0.439236 0.61039 0
M  V30 5780 H 566.128 2.36275 1.82255 0
M  V30 5781 C 564.877 1.28245 3.23185 0
M  V30 5782 H 564.2 2.1364 3.37932 0
M  V30 5783 H 565.64 1.32474 4.02774 0
M  V30 5784 C 564.099 -0.0075503 3.36899 0
M  V30 5785 O 564.629 -0.971391 3.89778 0
M  V30 5786 N 562.835 -0.0762479 2.905 0
M  V30 5787 H 562.382 0.708819 2.47656 0
M  V30 5788 H 562.34 -0.938846 3.00055 0
M  V30 5789 N 566.112 -0.949982 1.2575 0
M  V30 5790 C 567.06 -2.06869 1.06339 0
M  V30 5791 C 568.054 -1.69399 -0.00708901 0
M  V30 5792 O 569.26 -1.79383 0.148897 0
M  V30 5793 H 565.635 -0.677197 0.326969 0
M  V30 5794 H 567.606 -2.20396 2.01167 0
M  V30 5795 C 566.355 -3.40503 0.703769 0
M  V30 5796 H 565.678 -3.69807 1.51931 0
M  V30 5797 H 567.118 -4.19623 0.607677 0
M  V30 5798 C 565.577 -3.31685 -0.5905 0
M  V30 5799 O 566.107 -3.67085 -1.63131 0
M  V30 5800 N 564.313 -2.84797 -0.577859 0
M  V30 5801 H 563.86 -2.56186 0.26951 0
M  V30 5802 H 563.818 -2.79279 -1.44398 0
M  V30 5803 N 567.59 -1.07411 -1.15328 0
M  V30 5804 C 568.82 -0.817595 -1.89734 0
M  V30 5805 C 569.228 0.63297 -1.78298 0
M  V30 5806 O 568.571 1.44594 -1.13306 0
M  V30 5807 C 568.633 -1.14748 -3.40695 0
M  V30 5808 C 568.297 -2.59876 -3.75917 0
M  V30 5809 C 569.294 -3.58122 -3.76888 0
M  V30 5810 C 566.979 -2.95469 -4.06206 0
M  V30 5811 C 568.973 -4.89996 -4.07655 0
M  V30 5812 C 566.66 -4.2754 -4.36638 0
M  V30 5813 C 567.658 -5.24614 -4.37344 0
M  V30 5814 O 567.346 -6.54312 -4.67045 0
M  V30 5815 H 567.078 -0.295175 -0.608151 0
M  V30 5816 H 569.632 -1.43409 -1.47048 0
M  V30 5817 H 567.862 -0.47395 -3.83785 0
M  V30 5818 H 569.551 -0.873397 -3.96392 0
M  V30 5819 H 570.317 -3.31966 -3.53587 0
M  V30 5820 H 566.196 -2.20558 -4.04815 0
M  V30 5821 H 569.74 -5.65759 -4.08121 0
M  V30 5822 H 565.637 -4.53449 -4.59407 0
M  V30 5823 H 566.405 -6.59473 -4.84807 0
M  V30 5824 N 569.068 1.32177 -0.85831 0
M  V30 5825 C 570.015 2.28794 -0.303607 0
M  V30 5826 C 570.985 1.55213 0.591453 0
M  V30 5827 O 572.17 1.83418 0.525585 0
M  V30 5828 C 569.31 3.41475 0.49889 0
M  V30 5829 C 568.423 4.2993 -0.422373 0
M  V30 5830 C 567.558 5.29743 0.393111 0
M  V30 5831 C 566.597 6.09842 -0.525317 0
M  V30 5832 N 565.734 7.01643 0.253208 0
M  V30 5833 H 570.574 2.75631 -1.13276 0
M  V30 5834 H 568.111 1.35606 -0.570026 0
M  V30 5835 H 570.069 4.05531 0.979826 0
M  V30 5836 H 568.699 2.95779 1.29284 0
M  V30 5837 H 567.751 3.66422 -1.02171 0
M  V30 5838 H 569.063 4.85899 -1.12709 0
M  V30 5839 H 568.217 5.9942 0.937056 0
M  V30 5840 H 566.956 4.744 1.13117 0
M  V30 5841 H 565.961 5.39066 -1.08112 0
M  V30 5842 H 567.186 6.6727 -1.26205 0
M  V30 5843 H 565.132 6.48725 0.974295 0
M  V30 5844 H 565.049 7.54981 -0.392398 0
M  V30 5845 H 566.317 7.756 0.778761 0
M  V30 5846 N 570.547 0.616602 1.45037 0
M  V30 5847 C 571.775 0.121968 2.0654 0
M  V30 5848 C 572.19 -1.19743 1.45969 0
M  V30 5849 O 571.547 -1.73133 0.577168 0
M  V30 5850 C 571.598 -0.0145171 3.61497 0
M  V30 5851 O 571.319 1.25269 4.19809 0
M  V30 5852 C 572.82 -0.539555 4.40004 0
M  V30 5853 H 570.04 0.0729837 0.667019 0
M  V30 5854 H 572.584 0.846891 1.8614 0
M  V30 5855 H 570.739 -0.689809 3.81209 0
M  V30 5856 H 571.153 1.08816 5.13088 0
M  V30 5857 H 572.627 -0.584112 5.48901 0
M  V30 5858 H 573.104 -1.56368 4.10421 0
M  V30 5859 H 573.71 0.101995 4.25178 0
M  V30 5860 N 572.025 -1.5352 0.356285 0
M  V30 5861 C 573.253 -2.05534 -0.237328 0
M  V30 5862 C 573.668 -1.23043 -1.43199 0
M  V30 5863 O 573.025 -0.268821 -1.80509 0
M  V30 5864 C 573.076 -3.55791 -0.639933 0
M  V30 5865 O 572.797 -4.35154 0.507233 0
M  V30 5866 C 574.298 -4.24027 -1.29292 0
M  V30 5867 H 571.518 -0.669585 -0.0435572 0
M  V30 5868 H 574.062 -1.97988 0.511963 0
M  V30 5869 H 572.217 -3.63518 -1.33915 0
M  V30 5870 H 572.631 -5.24178 0.18375 0
M  V30 5871 H 574.105 -5.30509 -1.52527 0
M  V30 5872 H 574.582 -3.77166 -2.25039 0
M  V30 5873 H 575.188 -4.20527 -0.63539 0
M  V30 5874 N 573.503 -0.0852151 -1.57369 0
M  V30 5875 C 574.914 0.445428 -1.81309 0
M  V30 5876 C 575.265 1.68795 -1.00013 0
M  V30 5877 O 574.39 2.15211 -0.226573 0
M  V30 5878 C 574.985 0.814887 -3.28854 0
M  V30 5879 C 573.544 1.29032 -3.53592 0
M  V30 5880 C 572.691 0.282089 -2.75861 0
M  V30 5881 H 575.642 -0.310771 -1.55627 0
M  V30 5882 H 575.663 1.67524 -3.41637 0
M  V30 5883 H 575.175 -0.0896309 -3.87996 0
M  V30 5884 H 573.276 2.21289 -2.9977 0
M  V30 5885 H 573.389 1.25898 -4.62262 0
M  V30 5886 H 571.753 0.762182 -2.43029 0
M  V30 5887 H 572.536 -0.614936 -3.37748 0
M  V30 5888 N 574.981 1.5647 0.188427 0
M  V30 5889 C 576.392 1.70864 0.752494 0
M  V30 5890 C 576.743 0.692905 1.83557 0
M  V30 5891 O 575.868 -0.149307 2.15884 0
M  V30 5892 C 576.463 3.09789 1.37173 0
M  V30 5893 C 575.022 3.25925 1.88281 0
M  V30 5894 C 574.169 2.66817 0.755259 0
M  V30 5895 H 577.12 1.58657 -0.0367408 0
M  V30 5896 H 577.141 3.07489 2.24122 0
M  V30 5897 H 576.653 3.83693 0.583219 0
M  V30 5898 H 574.754 2.56948 2.6983 0
M  V30 5899 H 574.867 4.33498 2.04001 0
M  V30 5900 H 573.231 2.2617 1.17128 0
M  V30 5901 H 574.014 3.43294 -0.0211237 0
M  V30 5902 N 576.459 -0.456382 1.50847 0
M  V30 5903 C 577.705 -1.20914 1.62811 0
M  V30 5904 C 578.038 -1.91301 0.334304 0
M  V30 5905 O 577.313 -1.82775 -0.665098 0
M  V30 5906 C 577.596 -2.24122 2.81853 0
M  V30 5907 C 577.449 -1.57944 4.21158 0
M  V30 5908 C 578.768 -3.25295 2.96431 0
M  V30 5909 H 575.887 -0.438233 0.592554 0
M  V30 5910 H 578.529 -0.50091 1.83278 0
M  V30 5911 H 576.679 -2.84524 2.64534 0
M  V30 5912 H 578.351 -1.01025 4.50102 0
M  V30 5913 H 576.594 -0.882185 4.24735 0
M  V30 5914 H 577.265 -2.33014 5.00408 0
M  V30 5915 H 579.741 -2.7493 3.12335 0
M  V30 5916 H 578.617 -3.94822 3.81322 0
M  V30 5917 H 578.878 -3.90286 2.07676 0
M  V30 5918 N 577.937 -1.40673 -0.710563 0
M  V30 5919 C 578.867 -1.44095 -1.83736 0
M  V30 5920 C 579.848 -0.301286 -1.67411 0
M  V30 5921 O 581.033 -0.510618 -1.87367 0
M  V30 5922 C 578.163 -1.30773 -3.21738 0
M  V30 5923 C 577.117 -2.42395 -3.52745 0
M  V30 5924 C 576.443 -2.14147 -4.89944 0
M  V30 5925 C 577.743 -3.84738 -3.53234 0
M  V30 5926 H 579.437 -2.38396 -1.81129 0
M  V30 5927 H 576.983 -1.14746 -0.870017 0
M  V30 5928 H 578.936 -1.31783 -4.00264 0
M  V30 5929 H 577.66 -0.329507 -3.24934 0
M  V30 5930 H 576.319 -2.40643 -2.76562 0
M  V30 5931 H 575.967 -1.14703 -4.89747 0
M  V30 5932 H 575.667 -2.88934 -5.11655 0
M  V30 5933 H 577.191 -2.16848 -5.70797 0
M  V30 5934 H 578.605 -3.88286 -4.2179 0
M  V30 5935 H 577.002 -4.59085 -3.86473 0
M  V30 5936 H 578.072 -4.13962 -2.52514 0
M  V30 5937 N 579.415 0.9433 -1.26252 0
M  V30 5938 C 580.692 1.66639 -1.02424 0
M  V30 5939 C 581.072 2.06335 0.446006 0
M  V30 5940 O 580.42 1.78551 1.42589 0
M  V30 5941 C 580.63 2.88019 -1.97094 0
M  V30 5942 C 581.978 3.59718 -2.25584 0
M  V30 5943 O 583.002 2.9812 -1.94943 0
M  V30 5944 O 581.861 4.7066 -2.77743 0
M  V30 5945 H 578.955 0.729643 -0.389294 0
M  V30 5946 H 581.501 0.995218 -1.37454 0
M  V30 5947 H 580.273 2.5556 -2.96319 0
M  V30 5948 H 579.896 3.62863 -1.62532 0
M  V30 5949 N 580.893 1.08022 1.14757 0
M  V30 5950 C 582.118 0.82895 1.90114 0
M  V30 5951 C 582.543 -0.612772 1.77839 0
M  V30 5952 O 581.901 -1.42895 1.11583 0
M  V30 5953 C 581.949 1.25062 3.38219 0
M  V30 5954 O 581.053 0.400119 4.10454 0
M  V30 5955 H 580.394 0.301412 0.591648 0
M  V30 5956 H 582.924 1.44062 1.45284 0
M  V30 5957 H 582.934 1.22977 3.89025 0
M  V30 5958 H 581.609 2.30067 3.46471 0
M  V30 5959 H 580.186 0.484052 3.69745 0
M  V30 5960 N 582.371 -1.3172 0.865308 0
M  V30 5961 C 583.648 -1.91574 0.394789 0
M  V30 5962 C 584.028 -1.78769 -1.12271 0
M  V30 5963 O 583.376 -1.19245 -1.94918 0
M  V30 5964 C 583.586 -3.37957 0.870982 0
M  V30 5965 C 584.934 -4.15073 0.894384 0
M  V30 5966 O 585.958 -3.4672 0.816325 0
M  V30 5967 O 584.817 -5.37151 1.00651 0
M  V30 5968 H 581.911 -0.818649 0.117229 0
M  V30 5969 H 584.457 -1.4042 0.952913 0
M  V30 5970 H 583.229 -3.41269 1.91444 0
M  V30 5971 H 582.852 -3.96534 0.290907 0
M  V30 5972 N 583.85 -0.624285 -1.44708 0
M  V30 5973 C 585.098 -0.125802 -2.01708 0
M  V30 5974 C 585.418 1.2543 -1.49306 0
M  V30 5975 O 584.689 1.83198 -0.693924 0
M  V30 5976 H 583.269 -0.0435161 -0.745731 0
M  V30 5977 H 585.931 -0.809446 -1.77296 0
M  V30 5978 H 585.027 -0.0882734 -3.11975 0
M  V30 5979 N 585.328 1.53329 -0.364422 0
M  V30 5980 C 586.553 2.06132 0.229033 0
M  V30 5981 C 586.978 1.23625 1.41769 0
M  V30 5982 O 586.336 0.255038 1.79497 0
M  V30 5983 C 586.384 3.55544 0.60174 0
M  V30 5984 O 585.488 3.75771 1.69912 0
M  V30 5985 H 584.829 0.663148 0.0336213 0
M  V30 5986 H 587.359 1.97758 -0.524689 0
M  V30 5987 H 587.369 3.98549 0.873073 0
M  V30 5988 H 586.044 4.15039 -0.267421 0
M  V30 5989 H 584.621 3.44663 1.42343 0
M  V30 5990 N 586.806 0.0935595 1.57322 0
M  V30 5991 C 588.053 -0.570509 1.94297 0
M  V30 5992 C 588.381 -1.68286 0.97519 0
M  V30 5993 O 587.636 -1.95699 -0.00548655 0
M  V30 5994 C 587.935 -1.16692 3.37813 0
M  V30 5995 C 587.601 -0.178509 4.50547 0
M  V30 5996 C 586.263 0.0933475 4.81109 0
M  V30 5997 C 588.615 0.496472 5.1883 0
M  V30 5998 C 585.943 1.0469 5.77284 0
M  V30 5999 C 588.295 1.43849 6.16028 0
M  V30 6000 C 586.959 1.71859 6.44997 0
M  V30 6001 H 586.229 -0.208764 0.710984 0
M  V30 6002 H 588.876 0.169066 1.90752 0
M  V30 6003 H 587.181 -1.98271 3.37929 0
M  V30 6004 H 588.878 -1.6884 3.63722 0
M  V30 6005 H 585.468 -0.400584 4.26724 0
M  V30 6006 H 589.652 0.299584 4.95395 0
M  V30 6007 H 584.908 1.27094 5.98044 0
M  V30 6008 H 589.082 1.96734 6.68034 0
M  V30 6009 H 586.709 2.45906 7.19329 0
M  V30 6010 N 588.284 -1.56567 -0.180126 0
M  V30 6011 C 589.531 -1.81492 -0.898167 0
M  V30 6012 C 589.859 -0.669225 -1.82624 0
M  V30 6013 O 589.114 0.344096 -1.92651 0
M  V30 6014 C 589.413 -3.1252 -1.73395 0
M  V30 6015 C 589.079 -4.40658 -0.955567 0
M  V30 6016 C 587.741 -4.75465 -0.740707 0
M  V30 6017 C 590.093 -5.19593 -0.408948 0
M  V30 6018 C 587.421 -5.86691 0.0320128 0
M  V30 6019 C 589.773 -6.31627 0.350638 0
M  V30 6020 C 588.437 -6.65007 0.576378 0
M  V30 6021 H 587.707 -0.664125 -0.328662 0
M  V30 6022 H 590.354 -1.908 -0.163616 0
M  V30 6023 H 588.659 -2.98515 -2.53763 0
M  V30 6024 H 590.356 -3.29013 -2.29241 0
M  V30 6025 H 586.946 -4.13352 -1.13306 0
M  V30 6026 H 591.13 -4.93104 -0.562307 0
M  V30 6027 H 586.386 -6.11016 0.216735 0
M  V30 6028 H 590.56 -6.92001 0.781497 0
M  V30 6029 H 588.187 -7.51033 1.17703 0
M  V30 6030 N 589.762 0.448376 -1.51087 0
M  V30 6031 C 590.692 1.55102 -1.74544 0
M  V30 6032 C 591.673 1.59357 -0.594932 0
M  V30 6033 O 592.858 1.75261 -0.836491 0
M  V30 6034 C 589.988 2.93268 -1.86041 0
M  V30 6035 C 588.942 3.03877 -3.01402 0
M  V30 6036 C 588.268 4.43914 -2.98068 0
M  V30 6037 C 589.568 2.7898 -4.41551 0
M  V30 6038 H 591.262 1.35724 -2.66869 0
M  V30 6039 H 588.808 0.651498 -1.28419 0
M  V30 6040 H 590.761 3.70356 -2.01034 0
M  V30 6041 H 589.485 3.13853 -0.903548 0
M  V30 6042 H 588.144 2.29227 -2.86096 0
M  V30 6043 H 587.792 4.6145 -2.00182 0
M  V30 6044 H 587.492 4.51944 -3.75527 0
M  V30 6045 H 589.016 5.22991 -3.1514 0
M  V30 6046 H 590.43 3.45805 -4.57265 0
M  V30 6047 H 588.827 2.98431 -5.20633 0
M  V30 6048 H 589.897 1.74663 -4.5235 0
M  V30 6049 N 591.24 1.41047 0.703093 0
M  V30 6050 C 592.47 1.43133 1.48985 0
M  V30 6051 C 592.878 0.0328537 1.89171 0
M  V30 6052 O 592.221 -0.956469 1.56835 0
M  V30 6053 C 592.283 2.26991 2.78775 0
M  V30 6054 C 591.947 3.7525 2.60837 0
M  V30 6055 C 592.944 4.67591 2.27276 0
M  V30 6056 C 590.629 4.19208 2.76712 0
M  V30 6057 C 592.623 6.01877 2.09817 0
M  V30 6058 C 590.31 5.53561 2.5887 0
M  V30 6059 C 591.308 6.4471 2.25472 0
M  V30 6060 O 590.996 7.76584 2.07778 0
M  V30 6061 H 590.728 0.489788 0.465922 0
M  V30 6062 H 593.282 1.85886 0.873822 0
M  V30 6063 H 591.512 1.79038 3.42757 0
M  V30 6064 H 593.201 2.20867 3.40547 0
M  V30 6065 H 593.967 4.34923 2.14633 0
M  V30 6066 H 589.846 3.48572 3.01693 0
M  V30 6067 H 593.39 6.72986 1.83671 0
M  V30 6068 H 589.287 5.85811 2.71102 0
M  V30 6069 H 590.055 7.87649 2.22601 0
M  V30 6070 N 592.718 -0.936591 1.26751 0
M  V30 6071 C 593.943 -1.72288 1.15462 0
M  V30 6072 C 594.368 -1.85915 -0.285887 0
M  V30 6073 O 593.726 -1.35272 -1.20711 0
M  V30 6074 C 593.774 -3.10503 1.83359 0
M  V30 6075 O 592.878 -3.96745 1.1255 0
M  V30 6076 H 592.219 -0.52843 0.402067 0
M  V30 6077 H 594.749 -1.17271 1.67656 0
M  V30 6078 H 594.759 -3.60867 1.90365 0
M  V30 6079 H 593.434 -2.99901 2.88153 0
M  V30 6080 H 592.011 -3.55191 1.13551 0
M  V30 6081 N 594.196 -1.08629 -1.14182 0
M  V30 6082 C 595.143 -0.718299 -2.19338 0
M  V30 6083 C 596.113 0.296587 -1.63431 0
M  V30 6084 O 597.298 0.180079 -1.89948 0
M  V30 6085 C 594.438 -0.136203 -3.44831 0
M  V30 6086 C 593.551 -1.20414 -4.14879 0
M  V30 6087 C 592.686 -0.585666 -5.27962 0
M  V30 6088 C 591.725 -1.63548 -5.89846 0
M  V30 6089 N 590.862 -1.03864 -6.94375 0
M  V30 6090 H 595.702 -1.61932 -2.50164 0
M  V30 6091 H 593.239 -0.80919 -1.22844 0
M  V30 6092 H 595.197 0.219021 -4.16625 0
M  V30 6093 H 593.827 0.728121 -3.14481 0
M  V30 6094 H 592.879 -1.67676 -3.41451 0
M  V30 6095 H 594.191 -1.99959 -4.56966 0
M  V30 6096 H 593.345 -0.178818 -6.06436 0
M  V30 6097 H 592.084 0.24142 -4.87102 0
M  V30 6098 H 591.089 -2.05197 -5.10073 0
M  V30 6099 H 592.314 -2.46509 -6.3278 0
M  V30 6100 H 590.26 -0.232687 -6.55587 0
M  V30 6101 H 590.177 -1.77116 -7.3496 0
M  V30 6102 H 591.445 -0.657724 -7.7672 0
M  V30 6103 N 595.674 1.31259 -0.872281 0
M  V30 6104 C 596.604 2.30929 -0.345554 0
M  V30 6105 C 597.585 1.60449 0.5648 0
M  V30 6106 O 598.77 1.8814 0.481335 0
M  V30 6107 C 595.9 3.44348 0.451823 0
M  V30 6108 C 594.854 4.26435 -0.365641 0
M  V30 6109 C 594.18 5.31785 0.557562 0
M  V30 6110 C 595.48 4.97159 -1.60095 0
M  V30 6111 H 597.174 2.75234 -1.17841 0
M  V30 6112 H 594.72 1.3232 -0.568094 0
M  V30 6113 H 596.673 4.13128 0.830854 0
M  V30 6114 H 595.397 2.98816 1.31821 0
M  V30 6115 H 594.056 3.59326 -0.726649 0
M  V30 6116 H 593.704 4.82502 1.4213 0
M  V30 6117 H 593.404 5.87598 0.0144878 0
M  V30 6118 H 594.928 6.03424 0.933387 0
M  V30 6119 H 596.342 5.58523 -1.29323 0
M  V30 6120 H 594.739 5.62779 -2.08327 0
M  V30 6121 H 595.809 4.24012 -2.35249 0
M  V30 6122 N 597.152 0.631951 1.44375 0
M  V30 6123 C 598.38 0.143867 2.06399 0
M  V30 6124 C 598.795 -1.18188 1.47231 0
M  V30 6125 O 598.152 -1.72511 0.595498 0
M  V30 6126 C 598.203 0.0238253 3.61492 0
M  V30 6127 O 597.924 1.29715 4.18456 0
M  V30 6128 C 599.425 -0.492856 4.40552 0
M  V30 6129 H 596.645 0.0800542 0.666207 0
M  V30 6130 H 599.189 0.866586 1.85231 0
M  V30 6131 H 597.344 -0.649338 3.81919 0
M  V30 6132 H 597.758 1.14252 5.11905 0
M  V30 6133 H 599.232 -0.525861 5.49489 0
M  V30 6134 H 599.709 -1.52006 4.12057 0
M  V30 6135 H 600.315 0.147085 4.25046 0
M  V30 6136 N 598.631 -1.53133 0.372548 0
M  V30 6137 C 599.877 -2.01654 -0.215277 0
M  V30 6138 C 600.21 -1.25914 -1.47849 0
M  V30 6139 O 599.485 -0.3548 -1.91237 0
M  V30 6140 C 599.768 -3.56609 -0.500187 0
M  V30 6141 C 599.621 -4.43036 0.777145 0
M  V30 6142 C 600.94 -4.20528 -1.29786 0
M  V30 6143 H 598.059 -0.732991 -0.0767686 0
M  V30 6144 H 600.701 -1.83335 0.498814 0
M  V30 6145 H 598.851 -3.7235 -1.10852 0
M  V30 6146 H 600.523 -4.39079 1.41447 0
M  V30 6147 H 598.766 -4.10723 1.39604 0
M  V30 6148 H 599.437 -5.49424 0.532662 0
M  V30 6149 H 601.913 -4.08663 -0.783198 0
M  V30 6150 H 600.789 -5.28962 -1.46596 0
M  V30 6151 H 601.05 -3.77051 -2.30836 0
M  V30 6152 N 600.109 -0.101901 -1.5727 0
M  V30 6153 C 601.386 0.602832 -1.86079 0
M  V30 6154 C 601.766 1.85912 -1 0
M  V30 6155 O 601.114 2.28379 -0.0742488 0
M  V30 6156 C 601.324 0.911694 -3.36881 0
M  V30 6157 C 602.672 1.2722 -4.05093 0
M  V30 6158 O 603.696 1.0025 -3.41802 0
M  V30 6159 O 602.555 1.7776 -5.16782 0
M  V30 6160 H 599.649 0.302366 -0.769743 0
M  V30 6161 H 602.195 -0.135113 -1.69161 0
M  V30 6162 H 600.967 0.0207256 -3.91295 0
M  V30 6163 H 600.59 1.70538 -3.59169 0
M  V30 6164 N 601.587 1.56661 0.17182 0
M  V30 6165 C 602.534 1.96371 1.21273 0
M  V30 6166 C 603.504 0.82756 1.44016 0
M  V30 6167 O 604.689 1.08764 1.56764 0
M  V30 6168 C 601.829 2.32838 2.54716 0
M  V30 6169 C 600.942 3.59628 2.39356 0
M  V30 6170 C 600.077 3.85311 3.65662 0
M  V30 6171 C 599.116 5.0545 3.45234 0
M  V30 6172 N 598.253 5.27268 4.63608 0
M  V30 6173 H 603.093 2.85106 0.86709 0
M  V30 6174 H 600.63 1.41073 0.416744 0
M  V30 6175 H 602.588 2.52004 3.3249 0
M  V30 6176 H 601.218 1.47214 2.87277 0
M  V30 6177 H 600.27 3.4838 1.52761 0
M  V30 6178 H 601.582 4.4756 2.20207 0
M  V30 6179 H 600.736 4.04841 4.51872 0
M  V30 6180 H 599.475 2.95753 3.8779 0
M  V30 6181 H 598.48 4.85819 2.5741 0
M  V30 6182 H 599.705 5.96538 3.24529 0
M  V30 6183 H 597.651 4.40662 4.85956 0
M  V30 6184 H 597.568 6.09422 4.4737 0
M  V30 6185 H 598.836 5.51277 5.51103 0
M  V30 6186 N 603.065 -0.440357 1.51323 0
M  V30 6187 C 604.29 -1.21716 1.67928 0
M  V30 6188 C 604.715 -1.84328 0.374826 0
M  V30 6189 O 604.073 -1.68675 -0.664706 0
M  V30 6190 C 604.121 -2.27914 2.79442 0
M  V30 6191 O 603.225 -3.33325 2.42834 0
M  V30 6192 H 602.566 -0.35674 0.560029 0
M  V30 6193 H 605.096 -0.520417 1.97871 0
M  V30 6194 H 605.106 -2.72746 3.03436 0
M  V30 6195 H 603.781 -1.8172 3.741 0
M  V30 6196 H 602.358 -2.9399 2.294 0
M  V30 6197 N 604.543 -1.41418 -0.695603 0
M  V30 6198 C 605.959 -1.23887 -1.00619 0
M  V30 6199 C 606.159 -0.128206 -2.01092 0
M  V30 6200 O 605.215 0.507408 -2.47349 0
M  V30 6201 C 606.528 -2.58816 -1.53083 0
M  V30 6202 C 608.076 -2.65998 -1.64967 0
M  V30 6203 C 608.551 -4.01244 -2.20833 0
M  V30 6204 N 610.042 -4.0309 -2.28194 0
M  V30 6205 C 610.777 -5.04539 -2.72448 0
M  V30 6206 N 610.273 -6.16378 -3.16306 0
M  V30 6207 N 612.066 -4.91901 -2.72011 0
M  V30 6208 H 604.217 -2.12379 -0.0300061 0
M  V30 6209 H 606.48 -0.944958 -0.0758797 0
M  V30 6210 H 606.186 -3.40842 -0.867147 0
M  V30 6211 H 606.06 -2.81299 -2.51298 0
M  V30 6212 H 608.447 -1.84331 -2.30448 0
M  V30 6213 H 608.528 -2.47325 -0.652982 0
M  V30 6214 H 608.172 -4.83359 -1.55968 0
M  V30 6215 H 608.102 -4.17257 -3.21254 0
M  V30 6216 H 610.593 -3.22341 -1.97242 0
M  V30 6217 H 610.906 -6.89658 -3.487 0
M  V30 6218 H 609.251 -6.19914 -3.14215 0
M  V30 6219 H 612.442 -4.03613 -2.37095 0
M  V30 6220 H 612.615 -5.71102 -3.06181 0
M  V30 6221 N 606.021 0.929856 -1.27246 0
M  V30 6222 C 607.267 1.6802 -1.14634 0
M  V30 6223 C 607.622 1.89965 0.305151 0
M  V30 6224 O 606.915 1.47737 1.22001 0
M  V30 6225 C 607.109 3.05116 -1.86115 0
M  V30 6226 C 606.938 2.96549 -3.38066 0
M  V30 6227 C 605.708 2.98947 -4.0738 0
M  V30 6228 C 607.906 2.7583 -4.34077 0
M  V30 6229 N 605.888 2.80799 -5.45917 0
M  V30 6230 C 607.259 2.66364 -5.59866 0
M  V30 6231 C 609.314 2.60701 -4.24193 0
M  V30 6232 C 608.017 2.43313 -6.76898 0
M  V30 6233 C 610.043 2.39026 -5.40944 0
M  V30 6234 C 609.405 2.30302 -6.65688 0
M  V30 6235 H 605.504 0.62172 -0.474329 0
M  V30 6236 H 608.088 1.09947 -1.60685 0
M  V30 6237 H 606.259 3.61306 -1.42522 0
M  V30 6238 H 607.991 3.69076 -1.66027 0
M  V30 6239 H 604.746 3.09093 -3.58829 0
M  V30 6240 H 605.17 2.74861 -6.18692 0
M  V30 6241 H 609.812 2.66206 -3.28473 0
M  V30 6242 H 607.53 2.36548 -7.72704 0
M  V30 6243 H 611.116 2.28208 -5.35175 0
M  V30 6244 H 609.996 2.13756 -7.54505 0
M  V30 6245 N 607.499 1.09233 1.13605 0
M  V30 6246 C 608.431 0.687794 2.18637 0
M  V30 6247 C 609.444 -0.26936 1.60556 0
M  V30 6248 O 610.633 -0.0557162 1.78413 0
M  V30 6249 C 607.733 -0.00751901 3.38899 0
M  V30 6250 C 606.906 0.97067 4.26494 0
M  V30 6251 C 605.965 0.309129 5.25291 0
M  V30 6252 O 604.991 0.956149 5.61112 0
M  V30 6253 N 606.193 -0.937555 5.72879 0
M  V30 6254 H 608.958 1.59141 2.53957 0
M  V30 6255 H 606.519 0.979515 1.28907 0
M  V30 6256 H 608.511 -0.461238 4.02063 0
M  V30 6257 H 607.081 -0.813353 3.01833 0
M  V30 6258 H 606.301 1.603 3.60135 0
M  V30 6259 H 607.589 1.63323 4.81875 0
M  V30 6260 H 606.987 -1.48281 5.4592 0
M  V30 6261 H 605.544 -1.33463 6.3799 0
M  V30 6262 N 608.977 -1.30795 0.87923 0
M  V30 6263 C 609.909 -2.27241 0.299025 0
M  V30 6264 C 610.922 -1.53472 -0.543166 0
M  V30 6265 O 612.111 -1.74756 -0.363651 0
M  V30 6266 C 609.211 -3.33655 -0.593931 0
M  V30 6267 C 608.384 -4.36857 0.2179 0
M  V30 6268 C 607.443 -5.22715 -0.604646 0
M  V30 6269 O 606.469 -5.69192 -0.0293838 0
M  V30 6270 N 607.671 -5.48008 -1.91488 0
M  V30 6271 H 610.436 -2.77667 1.12788 0
M  V30 6272 H 607.997 -1.43914 0.741637 0
M  V30 6273 H 609.989 -3.88013 -1.15012 0
M  V30 6274 H 608.559 -2.83202 -1.32346 0
M  V30 6275 H 607.779 -3.82444 0.955536 0
M  V30 6276 H 609.067 -5.02869 0.774614 0
M  V30 6277 H 608.465 -5.1202 -2.40525 0
M  V30 6278 H 607.022 -6.05264 -2.41864 0
M  V30 6279 N 610.455 -0.639598 -1.44038 0
M  V30 6280 C 611.703 -0.147188 -2.01563 0
M  V30 6281 C 612.024 1.2384 -1.50628 0
M  V30 6282 O 611.294 1.82452 -0.713316 0
M  V30 6283 H 609.874 -0.0514231 -0.745228 0
M  V30 6284 H 612.536 -0.828205 -1.76428 0
M  V30 6285 H 611.632 -0.121358 -3.11864 0
M  V30 6286 N 611.933 1.52934 -0.380664 0
M  V30 6287 C 612.881 2.27727 0.47361 0
M  V30 6288 C 613.875 1.31288 1.0705 0
M  V30 6289 O 615.081 1.4886 1.01197 0
M  V30 6290 H 611.456 0.732189 0.171475 0
M  V30 6291 H 613.427 2.97864 -0.178785 0
M  V30 6292 C 612.176 3.0904 1.59341 0
M  V30 6293 H 611.499 3.831 1.14343 0
M  V30 6294 H 612.939 3.64527 2.16555 0
M  V30 6295 C 611.398 2.20813 2.54447 0
M  V30 6296 O 611.928 1.82907 3.57642 0
M  V30 6297 N 610.134 1.85145 2.23986 0
M  V30 6298 H 609.681 2.16169 1.40103 0
M  V30 6299 H 609.639 1.26402 2.87871 0
M  V30 6300 N 613.412 0.11024 1.57214 0
M  V30 6301 C 614.658 -0.550684 1.9518 0
M  V30 6302 C 614.991 -1.66885 0.993122 0
M  V30 6303 O 614.266 -1.94479 0.0287907 0
M  V30 6304 C 614.549 -1.09163 3.43155 0
M  V30 6305 C 614.402 0.0225198 4.49794 0
M  V30 6306 C 615.721 -1.98527 3.92778 0
M  V30 6307 H 612.84 -0.198706 0.709708 0
M  V30 6308 H 615.482 0.184024 1.89107 0
M  V30 6309 H 613.632 -1.71775 3.48462 0
M  V30 6310 H 615.304 0.657443 4.56591 0
M  V30 6311 H 613.547 0.686868 4.28328 0
M  V30 6312 H 614.218 -0.39706 5.5057 0
M  V30 6313 H 616.694 -1.458 3.8972 0
M  V30 6314 H 615.57 -2.33298 4.96853 0
M  V30 6315 H 615.831 -2.90846 3.32958 0
M  V30 6316 N 614.89 -1.56749 -0.16351 0
M  V30 6317 C 616.137 -1.82434 -0.878866 0
M  V30 6318 C 616.465 -0.688557 -1.81904 0
M  V30 6319 O 615.72 0.323644 -1.93005 0
M  V30 6320 C 616.019 -3.14342 -1.70071 0
M  V30 6321 C 615.685 -4.41647 -0.908775 0
M  V30 6322 C 614.347 -4.76224 -0.690236 0
M  V30 6323 C 616.699 -5.19998 -0.353815 0
M  V30 6324 C 614.027 -5.86624 0.0942374 0
M  V30 6325 C 616.379 -6.3122 0.41761 0
M  V30 6326 C 615.043 -6.64358 0.646879 0
M  V30 6327 H 614.313 -0.667574 -0.3216 0
M  V30 6328 H 616.96 -1.90963 -0.14337 0
M  V30 6329 H 615.265 -3.0119 -2.50583 0
M  V30 6330 H 616.962 -3.31426 -2.25738 0
M  V30 6331 H 613.552 -4.1453 -1.08916 0
M  V30 6332 H 617.736 -4.93673 -0.509975 0
M  V30 6333 H 612.992 -6.10751 0.281529 0
M  V30 6334 H 617.166 -6.91133 0.854849 0
M  V30 6335 H 614.793 -7.49742 1.25662 0
M  V30 6336 N 616.368 0.432326 -1.51554 0
M  V30 6337 C 617.593 1.20824 -1.68571 0
M  V30 6338 C 618.018 1.84126 -0.384596 0
M  V30 6339 O 617.376 1.69025 0.655751 0
M  V30 6340 C 617.424 2.26429 -2.80646 0
M  V30 6341 O 616.528 3.32032 -2.44598 0
M  V30 6342 H 615.869 0.353765 -0.561913 0
M  V30 6343 H 618.399 0.509916 -1.98144 0
M  V30 6344 H 618.409 2.71133 -3.04878 0
M  V30 6345 H 617.084 1.79733 -3.75058 0
M  V30 6346 H 615.661 2.92769 -2.30956 0
M  V30 6347 N 617.846 1.41785 0.688094 0
M  V30 6348 C 619.086 1.43018 1.46032 0
M  V30 6349 C 619.45 0.0402632 1.91958 0
M  V30 6350 O 620.651 -0.0726425 2.68702 0
M  V30 6351 C 618.922 2.4151 2.63453 0
M  V30 6352 S 620.481 2.61335 3.5249 0
M  V30 6353 H 617.299 0.506546 0.498931 0
M  V30 6354 H 619.901 1.78283 0.80221 0
M  V30 6355 H 618.605 3.41286 2.27929 0
M  V30 6356 H 618.136 2.07624 3.34149 0
M  V30 6357 H 620.151 1.88637 4.58945 0
M  V30 6358 N 619.324 -0.923095 1.27737 0
M  V30 6359 C 620.549 -1.71054 1.17283 0
M  V30 6360 C 620.974 -1.86208 -0.266153 0
M  V30 6361 O 620.332 -1.36545 -1.1927 0
M  V30 6362 C 620.38 -3.0854 1.86642 0
M  V30 6363 O 619.484 -3.95528 1.16752 0
M  V30 6364 H 618.825 -0.524136 0.407649 0
M  V30 6365 H 621.355 -1.15487 1.6889 0
M  V30 6366 H 621.365 -3.58828 1.94182 0
M  V30 6367 H 620.04 -2.96828 2.91317 0
M  V30 6368 H 618.617 -3.53967 1.17312 0
M  V30 6369 N 620.802 -1.09834 -1.13024 0
M  V30 6370 C 622.048 -0.83819 -1.84668 0
M  V30 6371 C 622.381 0.634645 -1.83537 0
M  V30 6372 O 621.656 1.46753 -1.27647 0
M  V30 6373 C 621.939 -1.37933 -3.32636 0
M  V30 6374 C 621.792 -2.91857 -3.42257 0
M  V30 6375 C 623.111 -1.01654 -4.28199 0
M  V30 6376 H 620.23 -0.30595 -0.670495 0
M  V30 6377 H 622.872 -1.36044 -1.32635 0
M  V30 6378 H 621.022 -0.935111 -3.77078 0
M  V30 6379 H 622.694 -3.44759 -3.06495 0
M  V30 6380 H 620.937 -3.28776 -2.83 0
M  V30 6381 H 621.608 -3.24799 -4.46329 0
M  V30 6382 H 624.084 -1.39973 -3.9185 0
M  V30 6383 H 622.96 -1.42217 -5.30156 0
M  V30 6384 H 623.221 0.0747794 -4.42037 0
M  V30 6385 N 622.28 1.30327 -0.886154 0
M  V30 6386 C 623.213 2.26241 -0.298407 0
M  V30 6387 C 624.191 1.51839 0.581704 0
M  V30 6388 O 625.375 1.80851 0.531536 0
M  V30 6389 C 622.502 3.33768 0.575888 0
M  V30 6390 C 621.548 4.25852 -0.235057 0
M  V30 6391 S 622.381 5.10277 -1.62411 0
M  V30 6392 C 623.537 6.21313 -0.756368 0
M  V30 6393 H 623.77 2.75744 -1.11141 0
M  V30 6394 H 621.303 1.38341 -0.685651 0
M  V30 6395 H 623.261 3.96186 1.07458 0
M  V30 6396 H 621.922 2.82986 1.363 0
M  V30 6397 H 621.115 5.02143 0.432198 0
M  V30 6398 H 620.717 3.68015 -0.666409 0
M  V30 6399 H 623.009 6.77495 0.0261451 0
M  V30 6400 H 623.952 6.92226 -1.49093 0
M  V30 6401 H 624.36 5.63611 -0.316749 0
M  V30 6402 N 623.758 0.647228 1.43697 0
M  V30 6403 C 624.708 -0.0702191 2.27892 0
M  V30 6404 C 625.692 -0.800601 1.39568 0
M  V30 6405 O 626.884 -0.684055 1.63247 0
M  V30 6406 C 624.013 -1.04008 3.27165 0
M  V30 6407 C 623.099 -0.308484 4.22977 0
M  V30 6408 N 623.49 0.671721 5.0132 0
M  V30 6409 C 621.788 -0.550751 4.42586 0
M  V30 6410 C 622.489 1.10543 5.711 0
M  V30 6411 N 621.465 0.440903 5.41809 0
M  V30 6412 H 625.267 0.682031 2.85877 0
M  V30 6413 H 622.781 0.474022 1.55328 0
M  V30 6414 H 624.778 -1.56881 3.86256 0
M  V30 6415 H 623.438 -1.79246 2.70742 0
M  V30 6416 H 624.449 1.0502 5.0714 0
M  V30 6417 H 621.126 -1.28476 3.97241 0
M  V30 6418 H 622.516 1.91614 6.43998 0
M  V30 6419 N 625.236 -1.5273 0.388769 0
M  V30 6420 C 626.146 -2.30165 -0.453993 0
M  V30 6421 C 627.162 -1.37058 -1.07197 0
M  V30 6422 O 628.338 -1.70127 -1.0779 0
M  V30 6423 C 625.403 -3.09303 -1.56628 0
M  V30 6424 C 624.464 -4.18117 -0.973467 0
M  V30 6425 C 623.697 -4.93472 -2.03275 0
M  V30 6426 O 623.92 -4.68913 -3.24772 0
M  V30 6427 O 622.854 -5.78833 -1.65034 0
M  V30 6428 H 626.68 -3.03185 0.176816 0
M  V30 6429 H 624.265 -1.4862 0.152501 0
M  V30 6430 H 626.147 -3.58648 -2.21246 0
M  V30 6431 H 624.822 -2.39098 -2.18206 0
M  V30 6432 H 623.729 -3.7297 -0.290556 0
M  V30 6433 H 625.062 -4.90556 -0.401908 0
M  V30 6434 N 626.714 -0.118576 -1.57153 0
M  V30 6435 C 627.677 0.817464 -2.14127 0
M  V30 6436 C 628.677 1.1949 -1.07604 0
M  V30 6437 O 629.867 1.12048 -1.33382 0
M  V30 6438 C 626.999 2.10541 -2.68115 0
M  V30 6439 H 628.192 0.322339 -2.98163 0
M  V30 6440 H 625.745 0.130655 -1.55753 0
M  V30 6441 H 626.48 2.64485 -1.87665 0
M  V30 6442 H 626.265 1.84425 -3.4602 0
M  V30 6443 H 627.755 2.77453 -3.12105 0
M  V30 6444 N 628.193 1.56834 0.155195 0
M  V30 6445 C 629.123 2.00678 1.19376 0
M  V30 6446 C 630.104 0.884973 1.45266 0
M  V30 6447 O 631.289 1.1522 1.56326 0
M  V30 6448 C 628.419 2.38042 2.5289 0
M  V30 6449 C 627.373 3.53332 2.41538 0
M  V30 6450 C 626.699 3.76485 3.79688 0
M  V30 6451 C 627.999 4.86265 1.9064 0
M  V30 6452 H 629.693 2.87688 0.829232 0
M  V30 6453 H 627.239 1.38407 0.397445 0
M  V30 6454 H 629.192 2.67314 3.25763 0
M  V30 6455 H 627.916 1.4796 2.91162 0
M  V30 6456 H 626.575 3.24213 1.71117 0
M  V30 6457 H 626.223 2.83667 4.15382 0
M  V30 6458 H 625.923 4.54068 3.72956 0
M  V30 6459 H 627.447 4.08174 4.54122 0
M  V30 6460 H 628.861 5.14308 2.53299 0
M  V30 6461 H 627.258 5.67597 1.94818 0
M  V30 6462 H 628.328 4.77184 0.861596 0
M  V30 6463 N 629.671 -0.424282 1.51781 0
M  V30 6464 C 630.621 -1.51464 1.70419 0
M  V30 6465 C 631.605 -1.50911 0.558094 0
M  V30 6466 O 632.797 -1.57143 0.814552 0
M  V30 6467 C 629.926 -2.89539 1.84451 0
M  V30 6468 C 629.012 -2.94798 3.04886 0
M  V30 6469 N 629.403 -2.69778 4.27848 0
M  V30 6470 C 627.701 -3.25962 3.04408 0
M  V30 6471 C 628.402 -2.81216 5.09208 0
M  V30 6472 N 627.378 -3.13447 4.44131 0
M  V30 6473 H 631.18 -1.30892 2.63144 0
M  V30 6474 H 628.694 -0.631783 1.49607 0
M  V30 6475 H 630.691 -3.67998 1.95917 0
M  V30 6476 H 629.351 -3.11121 0.929168 0
M  V30 6477 H 630.362 -2.44458 4.56575 0
M  V30 6478 H 627.039 -3.53236 2.22555 0
M  V30 6479 H 628.429 -2.65715 6.17127 0
M  V30 6480 N 631.149 -1.42148 -0.680565 0
M  V30 6481 C 632.097 -1.45401 -1.81552 0
M  V30 6482 C 633.091 -0.33036 -1.66147 0
M  V30 6483 O 634.297 -0.503103 -1.72826 0
M  V30 6484 H 630.672 -0.455265 -0.59853 0
M  V30 6485 H 632.643 -2.41024 -1.75926 0
M  V30 6486 C 631.392 -1.36769 -3.19671 0
M  V30 6487 H 630.715 -2.22525 -3.32149 0
M  V30 6488 H 632.155 -1.43106 -3.9912 0
M  V30 6489 C 630.614 -0.0817752 -3.36801 0
M  V30 6490 O 631.144 0.867707 -3.92216 0
M  V30 6491 N 629.35 -0.000799811 -2.906 0
M  V30 6492 H 628.897 -0.774231 -2.4569 0
M  V30 6493 H 628.855 0.858961 -3.02439 0
M  V30 6494 N 632.627 0.916307 -1.28225 0
M  V30 6495 C 633.577 2.00488 -1.08574 0
M  V30 6496 C 634.561 1.60897 -0.0101874 0
M  V30 6497 O 635.753 1.75499 -0.230034 0
M  V30 6498 C 632.882 3.35076 -0.746943 0
M  V30 6499 C 631.968 3.81077 -1.86121 0
M  V30 6500 N 632.359 3.99475 -3.10247 0
M  V30 6501 C 630.657 4.10212 -1.75048 0
M  V30 6502 C 631.358 4.37965 -3.82834 0
M  V30 6503 N 630.334 4.4608 -3.10667 0
M  V30 6504 H 634.136 2.1276 -2.02757 0
M  V30 6505 H 631.65 1.10397 -1.19107 0
M  V30 6506 H 633.647 4.12743 -0.587252 0
M  V30 6507 H 632.307 3.2416 0.187146 0
M  V30 6508 H 633.318 3.85466 -3.45885 0
M  V30 6509 H 629.995 4.07947 -0.887999 0
M  V30 6510 H 631.385 4.60183 -4.89572 0
M  V30 6511 N 634.105 1.10431 1.1244 0
M  V30 6512 C 635.335 0.867612 1.87499 0
M  V30 6513 C 635.743 -0.585475 1.79913 0
M  V30 6514 O 635.086 -1.41539 1.171 0
M  V30 6515 C 635.148 1.2374 3.37533 0
M  V30 6516 C 634.812 2.69751 3.68895 0
M  V30 6517 C 635.809 3.67988 3.67261 0
M  V30 6518 C 633.494 3.06135 3.98229 0
M  V30 6519 C 635.488 5.00632 3.9452 0
M  V30 6520 C 633.175 4.38967 4.25149 0
M  V30 6521 C 634.173 5.36025 4.23281 0
M  V30 6522 O 633.861 6.66465 4.49533 0
M  V30 6523 H 633.593 0.311196 0.600111 0
M  V30 6524 H 636.147 1.47257 1.43194 0
M  V30 6525 H 634.377 0.575537 3.82393 0
M  V30 6526 H 636.066 0.978187 3.93937 0
M  V30 6527 H 636.832 3.41224 3.44661 0
M  V30 6528 H 632.711 2.31214 3.98825 0
M  V30 6529 H 636.255 5.7638 3.92978 0
M  V30 6530 H 632.152 4.6547 4.47223 0
M  V30 6531 H 632.92 6.72095 4.67152 0
M  V30 6532 N 635.583 -1.29855 0.893053 0
M  V30 6533 C 636.811 -1.99976 0.530788 0
M  V30 6534 C 637.226 -1.66889 -0.882799 0
M  V30 6535 O 636.583 -0.910352 -1.58173 0
M  V30 6536 C 636.634 -3.54547 0.705587 0
M  V30 6537 O 636.355 -3.86458 2.06353 0
M  V30 6538 C 637.856 -4.41937 0.347387 0
M  V30 6539 H 635.076 -0.639129 0.204339 0
M  V30 6540 H 637.62 -1.65549 1.20057 0
M  V30 6541 H 635.775 -3.87311 0.0830685 0
M  V30 6542 H 636.189 -4.81146 2.08803 0
M  V30 6543 H 637.663 -5.4954 0.520557 0
M  V30 6544 H 638.14 -4.33339 -0.715139 0
M  V30 6545 H 638.746 -4.14633 0.946567 0
M  V30 6546 N 637.061 -0.65484 -1.43351 0
M  V30 6547 C 637.993 0.0744757 -2.29079 0
M  V30 6548 C 639.006 0.7855 -1.42596 0
M  V30 6549 O 640.195 0.642986 -1.66517 0
M  V30 6550 C 637.295 1.12859 -3.19556 0
M  V30 6551 C 636.468 0.495381 -4.34586 0
M  V30 6552 C 635.527 1.44659 -5.05925 0
M  V30 6553 O 634.553 0.954567 -5.61139 0
M  V30 6554 N 635.755 2.78051 -5.09576 0
M  V30 6555 H 638.52 -0.661346 -2.92312 0
M  V30 6556 H 636.081 -0.497744 -1.54059 0
M  V30 6557 H 638.073 1.76577 -3.64147 0
M  V30 6558 H 636.643 1.76636 -2.57912 0
M  V30 6559 H 635.863 -0.32092 -3.92892 0
M  V30 6560 H 637.151 0.0534203 -5.08772 0
M  V30 6561 H 636.549 3.20584 -4.66093 0
M  V30 6562 H 635.106 3.37068 -5.57878 0
M  V30 6563 N 638.539 1.52521 -0.396863 0
M  V30 6564 C 639.486 2.26671 0.434624 0
M  V30 6565 C 640.456 1.28584 1.05144 0
M  V30 6566 O 641.641 1.57426 1.07804 0
M  V30 6567 C 638.781 3.08234 1.55196 0
M  V30 6568 C 637.894 4.21261 0.957262 0
M  V30 6569 C 637.029 4.90205 2.04627 0
M  V30 6570 C 636.068 5.95213 1.42787 0
M  V30 6571 N 635.205 6.57723 2.45651 0
M  V30 6572 H 640.045 2.973 -0.204139 0
M  V30 6573 H 637.582 1.46669 -0.112505 0
M  V30 6574 H 639.54 3.53819 2.2106 0
M  V30 6575 H 638.17 2.398 2.16092 0
M  V30 6576 H 637.222 3.79935 0.188005 0
M  V30 6577 H 638.534 4.96624 0.465416 0
M  V30 6578 H 637.688 5.39133 2.78246 0
M  V30 6579 H 636.427 4.14383 2.57174 0
M  V30 6580 H 635.432 5.45616 0.676968 0
M  V30 6581 H 636.657 6.72972 0.910255 0
M  V30 6582 H 634.603 5.84737 2.97353 0
M  V30 6583 H 634.52 7.28723 2.01243 0
M  V30 6584 H 635.788 7.11293 3.18876 0
M  V30 6585 N 640.017 0.126909 1.57088 0
M  V30 6586 C 641.242 -0.53997 2.00248 0
M  V30 6587 C 641.667 -1.58927 1.00618 0
M  V30 6588 O 641.025 -1.81288 -0.0210131 0
M  V30 6589 C 641.073 -1.13565 3.4225 0
M  V30 6590 O 640.177 -2.25103 3.45547 0
M  V30 6591 H 639.518 -0.13412 0.650314 0
M  V30 6592 H 642.048 0.217718 2.03438 0
M  V30 6593 H 642.058 -1.46925 3.80627 0
M  V30 6594 H 640.733 -0.367122 4.14277 0
M  V30 6595 H 639.31 -1.93123 3.18995 0
M  V30 6596 N 641.495 -1.56914 -0.146875 0
M  V30 6597 C 642.425 -2.01308 -1.1831 0
M  V30 6598 C 643.406 -0.892664 -1.44795 0
M  V30 6599 O 644.591 -1.16048 -1.55713 0
M  V30 6600 C 641.721 -2.3938 -2.51624 0
M  V30 6601 C 640.675 -3.54608 -2.3966 0
M  V30 6602 C 640.001 -3.78493 -3.77686 0
M  V30 6603 C 641.301 -4.87269 -1.88058 0
M  V30 6604 H 642.995 -2.88123 -0.813964 0
M  V30 6605 H 640.541 -1.38615 -0.3901 0
M  V30 6606 H 642.494 -2.69037 -3.24341 0
M  V30 6607 H 641.218 -1.49502 -2.90373 0
M  V30 6608 H 639.877 -3.25116 -1.69396 0
M  V30 6609 H 639.525 -2.85866 -4.13871 0
M  V30 6610 H 639.225 -4.56039 -3.70543 0
M  V30 6611 H 640.749 -4.10576 -4.51951 0
M  V30 6612 H 642.163 -5.15644 -2.50568 0
M  V30 6613 H 640.56 -5.68622 -1.91805 0
M  V30 6614 H 641.63 -4.77634 -0.836277 0
M  V30 6615 N 642.974 0.416227 -1.52004 0
M  V30 6616 C 644.199 1.19029 -1.69843 0
M  V30 6617 C 644.624 1.83708 -0.404103 0
M  V30 6618 O 643.982 1.69711 0.637787 0
M  V30 6619 C 644.03 2.23439 -2.83032 0
M  V30 6620 O 643.134 3.29419 -2.48106 0
M  V30 6621 H 642.475 0.347785 -0.565634 0
M  V30 6622 H 645.005 0.488871 -1.98674 0
M  V30 6623 H 645.015 2.67884 -3.07737 0
M  V30 6624 H 643.69 1.75745 -3.76944 0
M  V30 6625 H 642.267 2.90303 -2.34048 0
M  V30 6626 N 644.452 1.42507 0.673017 0
M  V30 6627 C 645.382 1.48916 1.79851 0
M  V30 6628 C 646.363 0.345566 1.66553 0
M  V30 6629 O 647.548 0.560116 1.85947 0
M  V30 6630 C 644.678 1.39258 3.18158 0
M  V30 6631 C 643.632 2.51662 3.46194 0
M  V30 6632 C 642.958 2.27062 4.84094 0
M  V30 6633 C 644.258 3.93968 3.42909 0
M  V30 6634 H 645.952 2.43114 1.74745 0
M  V30 6635 H 643.498 1.17013 0.839288 0
M  V30 6636 H 645.451 1.42349 3.96629 0
M  V30 6637 H 644.175 0.415542 3.23946 0
M  V30 6638 H 642.834 2.47891 2.70084 0
M  V30 6639 H 642.482 1.27648 4.86534 0
M  V30 6640 H 642.182 3.02398 5.03815 0
M  V30 6641 H 643.706 2.31905 5.64847 0
M  V30 6642 H 645.12 3.99332 4.11347 0
M  V30 6643 H 643.517 4.6917 3.74165 0
M  V30 6644 H 644.587 4.20512 2.41449 0
M  V30 6645 N 645.93 -0.909495 1.28709 0
M  V30 6646 C 647.155 -1.69801 1.1909 0
M  V30 6647 C 647.58 -1.86479 -0.246388 0
M  V30 6648 O 646.938 -1.37802 -1.17815 0
M  V30 6649 C 646.986 -3.06543 1.89904 0
M  V30 6650 O 646.09 -3.94268 1.2094 0
M  V30 6651 H 645.431 -0.519783 0.413185 0
M  V30 6652 H 647.961 -1.13689 1.70106 0
M  V30 6653 H 647.971 -3.56748 1.97977 0
M  V30 6654 H 646.646 -2.93722 2.94449 0
M  V30 6655 H 645.223 -3.52702 1.2106 0
M  V30 6656 N 647.408 -1.11026 -1.11852 0
M  V30 6657 C 648.819 -0.873203 -1.65021 0
M  V30 6658 C 649.17 0.595364 -1.86949 0
M  V30 6659 O 648.295 1.45645 -1.60051 0
M  V30 6660 C 648.89 -1.57859 -2.99777 0
M  V30 6661 C 647.449 -1.38807 -3.49871 0
M  V30 6662 C 646.596 -1.62403 -2.24768 0
M  V30 6663 H 649.547 -1.26712 -0.955503 0
M  V30 6664 H 649.568 -1.02111 -3.66543 0
M  V30 6665 H 649.08 -2.6474 -2.83786 0
M  V30 6666 H 647.181 -0.341163 -3.71035 0
M  V30 6667 H 647.294 -2.13421 -4.28938 0
M  V30 6668 H 645.658 -1.04714 -2.32179 0
M  V30 6669 H 646.441 -2.70549 -2.11324 0
M  V30 6670 N 648.886 1.2938 -0.899927 0
M  V30 6671 C 650.134 1.95164 -0.524924 0
M  V30 6672 C 650.455 1.71292 0.931888 0
M  V30 6673 O 649.725 1.04481 1.65712 0
M  V30 6674 H 648.305 0.722133 -0.191135 0
M  V30 6675 H 650.967 1.57628 -1.14627 0
M  V30 6676 H 650.063 3.0397 -0.707711 0
M  V30 6677 N 650.364 0.662433 1.43002 0
M  V30 6678 C 651.311 -0.0235324 2.30788 0
M  V30 6679 C 652.281 -0.805342 1.4527 0
M  V30 6680 O 653.466 -0.78009 1.74124 0
M  V30 6681 C 650.606 -0.977545 3.30965 0
M  V30 6682 C 649.719 -0.190865 4.31578 0
M  V30 6683 C 648.854 -1.13951 5.18834 0
M  V30 6684 C 647.893 -0.343796 6.11134 0
M  V30 6685 N 647.03 -1.2445 6.90982 0
M  V30 6686 H 651.87 0.730921 2.88897 0
M  V30 6687 H 649.407 0.372197 1.42313 0
M  V30 6688 H 651.365 -1.54437 3.87563 0
M  V30 6689 H 649.995 -1.69877 2.74484 0
M  V30 6690 H 649.047 0.492388 3.772 0
M  V30 6691 H 650.359 0.427464 4.96965 0
M  V30 6692 H 649.513 -1.77666 5.80103 0
M  V30 6693 H 648.252 -1.79174 4.53595 0
M  V30 6694 H 647.257 0.30665 5.48944 0
M  V30 6695 H 648.482 0.304161 6.78419 0
M  V30 6696 H 646.428 -1.88336 6.28383 0
M  V30 6697 H 646.345 -0.680959 7.52927 0
M  V30 6698 H 647.613 -1.86952 7.56749 0
M  V30 6699 O 651.881 -1.51951 0.5471 0
M  V30 6700 H 652.572 -1.93655 0.0418362 0
M  V30 END ATOM
M  V30 BEGIN BOND
M  V30 END BOND
M  V30 END CTAB
M  END
$$$$
