drugbank_target|Q09470 Potassium voltage-gated channel subfamily A member 1 (DB00321; DB00753; DB01028; DB01189; DB06637; DB08837; DB11640)
 OpenBabel12092119403D

  0  0  0     0  0            999 V3000
M  V30 BEGIN CTAB
M  V30 COUNTS 7899 7990 0 0 0
M  V30 BEGIN ATOM
M  V30 1 H -0.908 1.98254 -0.117106 0
M  V30 2 N 0 1.576 0 0
M  V30 3 C 0.933 2.03868 1.02534 0
M  V30 4 C 1.911 0.928543 1.3348 0
M  V30 5 O 3.095 1.19667 1.45644 0
M  V30 6 C 0.222 2.43627 2.35294 0
M  V30 7 C -0.732 3.65373 2.2001 0
M  V30 8 S 0.101 5.13292 1.52614 0
M  V30 9 C 1.257 5.56322 2.86805 0
M  V30 10 H 1.49 2.90518 0.631377 0
M  V30 11 H -0.977 1.52953 0.210867 0
M  V30 12 H 0.981 2.67203 3.11629 0
M  V30 13 H -0.358 1.57376 2.7183 0
M  V30 14 H -1.165 3.90944 3.18086 0
M  V30 15 H -1.563 3.418 1.51819 0
M  V30 16 H 0.729 5.58782 3.83104 0
M  V30 17 H 1.672 6.56266 2.65933 0
M  V30 18 H 2.08 4.83886 2.90714 0
M  V30 19 N 1.4781 -0.272755 1.55222 0
M  V30 20 C 2.7061 -1.02255 1.79865 0
M  V30 21 C 3.1211 -1.79924 0.572088 0
M  V30 22 O 2.4781 -1.76638 -0.458842 0
M  V30 23 C 2.5291 -1.98094 3.02392 0
M  V30 24 O 2.2501 -1.23572 4.20311 0
M  V30 25 C 3.7511 -2.84884 3.39641 0
M  V30 26 H 0.9711 -0.302057 0.599168 0
M  V30 27 H 3.5151 -0.303465 2.02236 0
M  V30 28 H 1.6701 -2.65465 2.82147 0
M  V30 29 H 2.0841 -1.88172 4.89583 0
M  V30 30 H 3.5581 -3.47927 4.28545 0
M  V30 31 H 4.0351 -3.54665 2.59055 0
M  V30 32 H 4.6411 -2.23003 3.62146 0
M  V30 33 N 2.9562 -1.48159 -0.537278 0
M  V30 34 C 4.2022 -1.56035 -1.29541 0
M  V30 35 C 4.5352 -0.230377 -1.92829 0
M  V30 36 O 3.8102 0.762952 -1.78911 0
M  V30 37 C 4.0932 -2.69323 -2.39034 0
M  V30 38 C 3.9462 -4.12002 -1.80485 0
M  V30 39 C 5.2652 -2.78408 -3.40847 0
M  V30 40 H 2.3842 -0.567992 -0.469632 0
M  V30 41 H 5.0262 -1.80302 -0.599277 0
M  V30 42 H 3.1762 -2.48763 -2.98412 0
M  V30 43 H 4.8482 -4.43981 -1.25215 0
M  V30 44 H 3.0912 -4.19344 -1.11055 0
M  V30 45 H 3.7622 -4.87077 -2.59731 0
M  V30 46 H 6.2382 -2.97012 -2.91416 0
M  V30 47 H 5.1142 -3.59416 -4.14863 0
M  V30 48 H 5.3752 -1.86269 -4.00944 0
M  V30 49 N 4.4343 0.785586 -1.36625 0
M  V30 50 C 5.3673 1.90509 -1.25625 0
M  V30 51 C 6.3453 1.62 -0.139607 0
M  V30 52 O 7.5293 1.8591 -0.31141 0
M  V30 53 C 4.6563 3.25419 -0.939158 0
M  V30 54 C 3.7023 3.72856 -2.07077 0
M  V30 55 S 4.5353 3.88162 -3.68904 0
M  V30 56 C 5.6913 5.25942 -3.39317 0
M  V30 57 H 5.9243 1.99549 -2.20381 0
M  V30 58 H 3.4573 0.945226 -1.22085 0
M  V30 59 H 5.4153 4.03346 -0.763029 0
M  V30 60 H 4.0763 3.14099 -0.00931402 0
M  V30 61 H 3.2693 4.70624 -1.80357 0
M  V30 62 H 2.8713 3.01989 -2.20632 0
M  V30 63 H 5.1633 6.10651 -2.93447 0
M  V30 64 H 6.1063 5.57668 -4.36363 0
M  V30 65 H 6.5143 4.93224 -2.74573 0
M  V30 66 N 5.9124 1.20967 1.01018 0
M  V30 67 C 7.1374 1.0503 1.78839 0
M  V30 68 C 7.5624 -0.395752 1.8389 0
M  V30 69 O 6.9204 -1.28529 1.27867 0
M  V30 70 C 6.9684 1.64602 3.2084 0
M  V30 71 O 6.0724 0.887988 4.02726 0
M  V30 72 H 5.4134 0.369987 0.551367 0
M  V30 73 H 7.9434 1.60399 1.27018 0
M  V30 74 H 7.9534 1.68607 3.71532 0
M  V30 75 H 6.6284 2.69841 3.16479 0
M  V30 76 H 5.2054 0.922648 3.61305 0
M  V30 77 N 7.3905 -1.2043 1.01659 0
M  V30 78 C 8.6385 -1.89423 0.704522 0
M  V30 79 C 8.9595 -1.79231 -0.768197 0
M  V30 80 O 8.2295 -1.1947 -1.55254 0
M  V30 81 H 6.8095 -0.701178 0.257602 0
M  V30 82 H 9.4715 -1.4626 1.28818 0
M  V30 83 H 8.5675 -2.96052 0.987916 0
M  V30 84 N 8.8686 -0.792821 -1.36206 0
M  V30 85 C 9.7786 -0.194808 -2.3379 0
M  V30 86 C 10.7946 0.654869 -1.61206 0
M  V30 87 O 11.9706 0.569856 -1.9317 0
M  V30 88 C 9.0356 0.657721 -3.40404 0
M  V30 89 C 8.0966 -0.210849 -4.28782 0
M  V30 90 C 7.3296 0.601086 -5.30304 0
M  V30 91 O 7.5526 1.83682 -5.40016 0
M  V30 92 O 6.4866 -0.000808277 -6.019 0
M  V30 93 H 10.3126 -1.00172 -2.86704 0
M  V30 94 H 7.8976 -0.554341 -1.38735 0
M  V30 95 H 9.7796 1.14375 -4.05581 0
M  V30 96 H 8.4546 1.44247 -2.89784 0
M  V30 97 H 7.3616 -0.743714 -3.66633 0
M  V30 98 H 8.6946 -0.959195 -4.82763 0
M  V30 99 N 10.3467 1.47872 -0.545128 0
M  V30 100 C 11.2947 2.31533 0.222512 0
M  V30 101 C 12.2887 1.42177 0.920985 0
M  V30 102 O 13.4947 1.59005 0.843645 0
M  V30 103 H 9.8697 0.746519 0.0906278 0
M  V30 104 H 11.8407 2.94139 -0.50246 0
M  V30 105 C 10.5897 3.2457 1.24699 0
M  V30 106 H 9.9127 3.93283 0.718944 0
M  V30 107 H 11.3527 3.85963 1.75523 0
M  V30 108 C 9.8117 2.47237 2.28856 0
M  V30 109 O 10.3417 2.20808 3.35569 0
M  V30 110 N 8.5477 2.08461 2.02466 0
M  V30 111 H 8.0947 2.30155 1.157 0
M  V30 112 H 8.0527 1.57033 2.72375 0
M  V30 113 N 11.8248 0.280983 1.55075 0
M  V30 114 C 13.0708 -0.33461 2.00021 0
M  V30 115 C 13.4038 -1.55063 1.16915 0
M  V30 116 O 12.6788 -1.93006 0.240646 0
M  V30 117 C 12.9618 -0.711007 3.53011 0
M  V30 118 C 12.8148 0.512766 4.46868 0
M  V30 119 C 14.1338 -1.54522 4.12081 0
M  V30 120 H 11.2528 -0.120147 0.727141 0
M  V30 121 H 13.8948 0.389097 1.85973 0
M  V30 122 H 12.0448 -1.32761 3.65112 0
M  V30 123 H 13.7168 1.15131 4.46702 0
M  V30 124 H 11.9598 1.14975 4.18286 0
M  V30 125 H 12.6308 0.205556 5.51617 0
M  V30 126 H 15.1068 -1.02442 4.03293 0
M  V30 127 H 13.9828 -1.77739 5.19327 0
M  V30 128 H 14.2438 -2.52813 3.62682 0
M  V30 129 N 13.3029 -1.57598 0.00835791 0
M  V30 130 C 14.5799 -1.82172 -0.712235 0
M  V30 131 C 14.9599 -0.887873 -1.9152 0
M  V30 132 O 14.3079 0.06146 -2.28417 0
M  V30 133 C 14.5179 -3.30875 -1.11008 0
M  V30 134 C 15.8659 -3.96826 -1.51044 0
M  V30 135 O 16.8899 -3.35248 -1.20364 0
M  V30 136 O 15.7489 -5.05318 -2.08125 0
M  V30 137 H 12.8429 -0.750435 -0.347529 0
M  V30 138 H 15.3889 -1.69665 0.0344523 0
M  V30 139 H 14.1609 -3.90481 -0.252982 0
M  V30 140 H 13.7839 -3.48412 -1.9156 0
M  V30 141 N 14.781 0.264519 -1.55364 0
M  V30 142 C 15.691 1.34902 -1.91934 0
M  V30 143 C 16.707 1.53595 -0.817593 0
M  V30 144 O 17.883 1.67558 -1.11742 0
M  V30 145 C 14.948 2.68676 -2.19121 0
M  V30 146 C 14.009 2.58657 -3.4263 0
M  V30 147 C 13.242 3.86051 -3.68511 0
M  V30 148 O 13.465 4.87126 -2.96757 0
M  V30 149 O 12.399 3.85744 -4.62045 0
M  V30 150 H 16.225 1.06883 -2.8427 0
M  V30 151 H 13.81 0.463775 -1.42019 0
M  V30 152 H 15.692 3.47759 -2.37995 0
M  V30 153 H 14.367 2.96463 -1.29966 0
M  V30 154 H 13.274 1.7792 -3.29082 0
M  V30 155 H 14.607 2.35818 -4.32031 0
M  V30 156 N 16.2591 1.48442 0.529413 0
M  V30 157 C 17.2221 1.62524 1.61612 0
M  V30 158 C 18.2221 0.498509 1.52877 0
M  V30 159 O 19.4121 0.76431 1.56537 0
M  V30 160 C 16.5441 1.59597 3.01233 0
M  V30 161 H 17.7371 2.59423 1.50465 0
M  V30 162 H 15.2901 1.37047 0.751514 0
M  V30 163 H 16.0251 0.641781 3.17886 0
M  V30 164 H 15.8101 2.41397 3.08982 0
M  V30 165 H 17.3001 1.72646 3.80241 0
M  V30 166 N 17.7372 -0.778329 1.37039 0
M  V30 167 C 18.9622 -1.57248 1.35233 0
M  V30 168 C 19.3872 -1.87999 -0.0615568 0
M  V30 169 O 18.7452 -1.48734 -1.03672 0
M  V30 170 C 18.7932 -2.86353 2.19167 0
M  V30 171 O 17.8972 -3.80442 1.59178 0
M  V30 172 H 17.2382 -0.476569 0.462362 0
M  V30 173 H 19.7682 -0.963853 1.80474 0
M  V30 174 H 19.7782 -3.35519 2.32145 0
M  V30 175 H 18.4532 -2.63299 3.21942 0
M  V30 176 H 17.0302 -3.39067 1.55203 0
M  V30 177 N 19.2153 -1.21501 -1.00376 0
M  V30 178 C 20.1783 -0.976927 -2.07337 0
M  V30 179 C 21.1783 0.0525322 -1.60714 0
M  V30 180 O 22.3683 -0.184869 -1.73216 0
M  V30 181 C 19.5003 -0.473423 -3.37597 0
M  V30 182 H 20.6933 -1.92587 -2.29892 0
M  V30 183 H 18.2463 -1.03217 -1.17371 0
M  V30 184 H 18.9813 0.480379 -3.20722 0
M  V30 185 H 18.7663 -1.216 -3.72768 0
M  V30 186 H 20.2563 -0.32675 -4.1632 0
M  V30 187 N 20.6934 1.19889 -1.02296 0
M  V30 188 C 21.6564 2.21116 -0.603351 0
M  V30 189 C 22.6564 1.5738 0.329884 0
M  V30 190 O 23.8464 1.73802 0.117702 0
M  V30 191 C 20.9784 3.40696 0.117992 0
M  V30 192 H 22.1714 2.59754 -1.49893 0
M  V30 193 H 19.7244 1.33463 -0.813468 0
M  V30 194 H 20.4594 3.07569 1.0282 0
M  V30 195 H 20.2444 3.88188 -0.552511 0
M  V30 196 H 21.7344 4.15692 0.398696 0
M  V30 197 N 22.1715 0.800033 1.35784 0
M  V30 198 C 23.5825 0.439142 1.81462 0
M  V30 199 C 23.9335 -1.03813 1.66485 0
M  V30 200 O 23.0585 -1.80626 1.19177 0
M  V30 201 C 23.6535 0.790314 3.29453 0
M  V30 202 C 22.2125 0.482111 3.733 0
M  V30 203 C 21.3595 1.01938 2.57883 0
M  V30 204 H 24.3105 0.992254 1.23855 0
M  V30 205 H 24.3315 0.0853677 3.80404 0
M  V30 206 H 23.8435 1.86554 3.40322 0
M  V30 207 H 21.9445 -0.584652 3.67984 0
M  V30 208 H 22.0575 1.01015 4.6833 0
M  V30 209 H 20.4215 0.442043 2.50835 0
M  V30 210 H 21.2045 2.10059 2.71533 0
M  V30 211 N 23.6496 -1.47581 0.552962 0
M  V30 212 C 24.8976 -2.02082 0.0272703 0
M  V30 213 C 25.2186 -1.4301 -1.32563 0
M  V30 214 O 24.4886 -0.603745 -1.86365 0
M  V30 215 H 23.0686 -0.746966 0.00709182 0
M  V30 216 H 25.7306 -1.81033 0.722008 0
M  V30 217 H 24.8266 -3.12034 -0.0639951 0
M  V30 218 N 25.1277 -0.289203 -1.54924 0
M  V30 219 C 26.0777 0.606939 -2.19773 0
M  V30 220 C 27.0617 1.10783 -1.16687 0
M  V30 221 O 28.2537 1.05057 -1.4245 0
M  V30 222 C 25.3827 1.78398 -2.93307 0
M  V30 223 C 24.4687 1.29961 -4.03697 0
M  V30 224 N 24.8597 0.532377 -5.0299 0
M  V30 225 C 23.1577 1.58136 -4.17024 0
M  V30 226 C 23.8587 0.275912 -5.81045 0
M  V30 227 N 22.8347 0.852365 -5.36876 0
M  V30 228 H 26.6367 0.0130779 -2.93897 0
M  V30 229 H 24.1507 -0.09341 -1.62131 0
M  V30 230 H 26.1477 2.43741 -3.38225 0
M  V30 231 H 24.8077 2.38166 -2.20697 0
M  V30 232 H 25.8187 0.17838 -5.17593 0
M  V30 233 H 22.4957 2.18738 -3.55612 0
M  V30 234 H 23.8857 -0.339502 -6.71042 0
M  V30 235 N 26.6058 1.57591 -0.0167156 0
M  V30 236 C 28.0168 1.79201 0.523834 0
M  V30 237 C 28.3678 0.925796 1.72984 0
M  V30 238 O 27.4928 0.132792 2.15992 0
M  V30 239 C 28.0878 3.25 0.957091 0
M  V30 240 C 26.6468 3.47648 1.44283 0
M  V30 241 C 25.7938 2.74374 0.401757 0
M  V30 242 H 28.7448 1.56831 -0.242816 0
M  V30 243 H 28.7658 3.34031 1.82219 0
M  V30 244 H 28.2778 3.88019 0.0791415 0
M  V30 245 H 26.3788 2.89866 2.34113 0
M  V30 246 H 26.4918 4.56352 1.45877 0
M  V30 247 H 24.8558 2.39485 0.867121 0
M  V30 248 H 25.6388 3.40102 -0.467513 0
M  V30 249 N 28.0839 -0.256276 1.55502 0
M  V30 250 C 29.0159 -1.33981 1.85962 0
M  V30 251 C 30.0289 -1.44743 0.745212 0
M  V30 252 O 31.2179 -1.4626 1.02324 0
M  V30 253 C 28.3179 -2.7194 2.02242 0
M  V30 254 C 27.4909 -2.83562 3.33033 0
M  V30 255 C 26.5499 -4.02304 3.39172 0
M  V30 256 O 25.5759 -3.92273 4.12444 0
M  V30 257 N 26.7779 -5.15045 2.67784 0
M  V30 258 H 29.5429 -1.08191 2.7949 0
M  V30 259 H 27.1039 -0.446388 1.55624 0
M  V30 260 H 29.0959 -3.49697 2.03701 0
M  V30 261 H 27.6659 -2.90479 1.15502 0
M  V30 262 H 26.8859 -1.92555 3.43971 0
M  V30 263 H 28.1739 -2.88271 4.19258 0
M  V30 264 H 27.5719 -5.26085 2.07968 0
M  V30 265 H 26.1289 -5.90972 2.74947 0
M  V30 266 N 29.562 -1.4872 -0.521534 0
M  V30 267 C 30.839 -1.4766 -1.2828 0
M  V30 268 C 31.219 -0.19292 -2.10217 0
M  V30 269 O 30.567 0.825193 -2.13079 0
M  V30 270 C 30.777 -2.74358 -2.15705 0
M  V30 271 C 32.125 -3.23028 -2.75569 0
M  V30 272 O 33.149 -2.75333 -2.25987 0
M  V30 273 O 32.008 -4.0604 -3.65778 0
M  V30 274 H 29.102 -0.590085 -0.579421 0
M  V30 275 H 31.648 -1.60963 -0.537492 0
M  V30 276 H 30.42 -3.59292 -1.54999 0
M  V30 277 H 30.043 -2.63816 -2.97467 0
M  V30 278 N 31.0401 0.771051 -1.3745 0
M  V30 279 C 32.2881 1.52661 -1.32435 0
M  V30 280 C 32.6091 1.9479 0.0905024 0
M  V30 281 O 31.8791 1.66348 1.03466 0
M  V30 282 H 30.4591 0.566218 -0.487244 0
M  V30 283 H 33.1211 0.917636 -1.71946 0
M  V30 284 H 32.2171 2.42568 -1.96385 0
M  V30 285 N 32.5182 1.22032 0.997298 0
M  V30 286 C 33.7432 1.06921 1.77715 0
M  V30 287 C 34.1682 -0.376226 1.84299 0
M  V30 288 O 33.5262 -1.27165 1.29223 0
M  V30 289 C 33.5742 1.67996 3.19076 0
M  V30 290 O 32.6782 0.930653 4.01762 0
M  V30 291 H 32.0192 0.375814 0.547412 0
M  V30 292 H 34.5492 1.61737 1.25309 0
M  V30 293 H 34.5592 1.72538 3.69723 0
M  V30 294 H 33.2342 2.73182 3.13599 0
M  V30 295 H 31.8112 0.960917 3.60307 0
M  V30 296 N 33.9963 -1.19345 1.0293 0
M  V30 297 C 35.2263 -1.92717 0.744563 0
M  V30 298 C 35.6343 -1.75751 -0.700579 0
M  V30 299 O 34.9773 -1.07703 -1.48815 0
M  V30 300 C 35.0393 -3.44828 1.01657 0
M  V30 301 C 34.7033 -3.85564 2.45335 0
M  V30 302 C 35.7003 -3.90286 3.43472 0
M  V30 303 C 33.3853 -4.1719 2.79746 0
M  V30 304 C 35.3793 -4.26065 4.74075 0
M  V30 305 C 33.0663 -4.52642 4.10559 0
M  V30 306 C 34.0643 -4.57054 5.07534 0
M  V30 307 O 33.7523 -4.91685 6.36004 0
M  V30 308 H 33.4843 -0.618977 0.271742 0
M  V30 309 H 36.0383 -1.52415 1.37691 0
M  V30 310 H 34.2683 -3.85314 0.327084 0
M  V30 311 H 35.9573 -3.99437 0.721427 0
M  V30 312 H 36.7233 -3.66002 3.18225 0
M  V30 313 H 32.6023 -4.1294 2.04943 0
M  V30 314 H 36.1463 -4.29423 5.49765 0
M  V30 315 H 32.0433 -4.76383 4.35579 0
M  V30 316 H 32.8113 -5.09631 6.40483 0
M  V30 317 N 35.4744 -0.807222 -1.35358 0
M  V30 318 C 36.8854 -0.44876 -1.81226 0
M  V30 319 C 37.2364 1.02929 -1.67033 0
M  V30 320 O 36.3614 1.79991 -1.20133 0
M  V30 321 C 36.9564 -0.807774 -3.2903 0
M  V30 322 C 35.5154 -0.501901 -3.73039 0
M  V30 323 C 34.6624 -1.03304 -2.57339 0
M  V30 324 H 37.6134 -0.998808 -1.23327 0
M  V30 325 H 37.6344 -0.10554 -3.80354 0
M  V30 326 H 37.1464 -1.88357 -3.39328 0
M  V30 327 H 35.2474 0.565128 -3.68289 0
M  V30 328 H 35.3604 -1.03497 -4.67787 0
M  V30 329 H 33.7244 -0.455339 -2.50597 0
M  V30 330 H 34.5074 -2.11496 -2.70415 0
M  V30 331 N 36.9525 1.47285 -0.560781 0
M  V30 332 C 38.3685 1.58065 -0.22081 0
M  V30 333 C 38.5685 1.55892 1.27671 0
M  V30 334 O 37.6245 1.46422 2.0571 0
M  V30 335 C 38.9375 2.88418 -0.850625 0
M  V30 336 C 40.4855 3.02009 -0.822184 0
M  V30 337 C 40.9605 4.35066 -1.43113 0
M  V30 338 N 42.4515 4.41711 -1.39448 0
M  V30 339 C 43.1865 5.43237 -1.83525 0
M  V30 340 N 42.6825 6.51555 -2.35474 0
M  V30 341 N 44.4755 5.34304 -1.74574 0
M  V30 342 H 36.6265 1.46941 -1.53369 0
M  V30 343 H 38.8895 0.699558 -0.639783 0
M  V30 344 H 38.5955 2.95755 -1.9032 0
M  V30 345 H 38.4695 3.75612 -0.345773 0
M  V30 346 H 40.8565 2.94266 0.221714 0
M  V30 347 H 40.9375 2.16347 -1.36483 0
M  V30 348 H 40.5815 4.43565 -2.47412 0
M  V30 349 H 40.5115 5.19465 -0.863899 0
M  V30 350 H 43.0025 3.64027 -1.01452 0
M  V30 351 H 43.3155 7.25203 -2.67021 0
M  V30 352 H 41.6605 6.52435 -2.39487 0
M  V30 353 H 44.8515 4.48581 -1.33763 0
M  V30 354 H 45.0245 6.13288 -2.09242 0
M  V30 355 N 38.4306 0.297415 1.54768 0
M  V30 356 C 39.3626 -0.613881 2.20826 0
M  V30 357 C 40.3756 -1.10032 1.19987 0
M  V30 358 O 41.5646 -1.01839 1.46598 0
M  V30 359 C 38.6646 -1.852 2.83821 0
M  V30 360 C 37.8376 -1.50865 4.10559 0
M  V30 361 C 36.8966 -2.60154 4.57391 0
M  V30 362 O 35.9226 -2.25398 5.2267 0
M  V30 363 N 37.1246 -3.90629 4.29406 0
M  V30 364 H 39.8896 -0.048389 2.99661 0
M  V30 365 H 37.4506 0.11946 1.61459 0
M  V30 366 H 39.4426 -2.57652 3.12086 0
M  V30 367 H 38.0126 -2.32597 2.08847 0
M  V30 368 H 37.2326 -0.616925 3.89343 0
M  V30 369 H 38.5206 -1.25458 4.9309 0
M  V30 370 H 37.9186 -4.21677 3.77101 0
M  V30 371 H 36.4756 -4.59391 4.62388 0
M  V30 372 N 39.9087 -1.5758 0.0250728 0
M  V30 373 C 40.8717 -2.08896 -0.943139 0
M  V30 374 C 41.8717 -1.00321 -1.25668 0
M  V30 375 O 43.0617 -1.26495 -1.19769 0
M  V30 376 C 40.1937 -2.55143 -2.26086 0
M  V30 377 H 41.3867 -2.95723 -0.498775 0
M  V30 378 H 38.9397 -1.54703 -0.222888 0
M  V30 379 H 39.6747 -1.71633 -2.75159 0
M  V30 380 H 39.4597 -3.34461 -2.04641 0
M  V30 381 H 40.9497 -2.95083 -2.95492 0
M  V30 382 N 41.3868 0.248026 -1.55636 0
M  V30 383 C 42.6638 0.998988 -1.68165 0
M  V30 384 C 43.0438 2.03409 -0.564621 0
M  V30 385 O 42.3918 2.24378 0.432076 0
M  V30 386 C 42.6018 1.63334 -3.0842 0
M  V30 387 C 43.9498 2.13562 -3.66983 0
M  V30 388 O 44.9738 1.73277 -3.11213 0
M  V30 389 O 43.8328 2.87526 -4.64749 0
M  V30 390 H 40.9268 0.464933 -0.683935 0
M  V30 391 H 43.4728 0.241902 -1.67967 0
M  V30 392 H 42.2448 0.884583 -3.8117 0
M  V30 393 H 41.8678 2.45666 -3.12624 0
M  V30 394 N 42.8649 1.48995 0.513639 0
M  V30 395 C 43.8149 1.61127 1.61314 0
M  V30 396 C 44.7989 0.467521 1.53958 0
M  V30 397 O 45.9909 0.719826 1.61702 0
M  V30 398 C 43.1199 1.66937 2.99978 0
M  V30 399 C 42.2059 2.86847 3.12377 0
M  V30 400 N 42.5969 4.11078 2.94701 0
M  V30 401 C 40.8949 2.84521 3.43459 0
M  V30 402 C 41.5959 4.91615 3.10949 0
M  V30 403 N 40.5719 4.24739 3.3926 0
M  V30 404 H 44.3739 2.54909 1.46282 0
M  V30 405 H 41.8879 1.45593 0.719483 0
M  V30 406 H 43.8849 1.73725 3.78979 0
M  V30 407 H 42.5449 0.742831 3.16089 0
M  V30 408 H 43.5559 4.41258 2.71131 0
M  V30 409 H 40.2329 2.01192 3.65825 0
M  V30 410 H 41.6229 6.00264 3.01882 0
M  V30 411 N 44.343 -0.763751 1.37857 0
M  V30 412 C 45.62 -1.51244 1.24035 0
M  V30 413 C 46 -2.10472 -0.162649 0
M  V30 414 O 45.348 -1.96206 -1.17112 0
M  V30 415 C 45.558 -2.58694 2.34261 0
M  V30 416 C 46.906 -3.25878 2.72193 0
M  V30 417 O 47.93 -2.68993 2.33497 0
M  V30 418 O 46.789 -4.2874 3.38887 0
M  V30 419 H 43.883 -0.670243 0.484462 0
M  V30 420 H 46.429 -0.800031 1.49658 0
M  V30 421 H 45.201 -2.13105 3.2818 0
M  V30 422 H 44.824 -3.37527 2.10146 0
M  V30 423 N 45.8211 -1.22559 -0.990812 0
M  V30 424 C 47.0981 -0.959875 -1.70428 0
M  V30 425 C 47.4781 0.524455 -2.04481 0
M  V30 426 O 46.8261 1.49302 -1.72977 0
M  V30 427 C 47.0361 -1.85955 -2.95333 0
M  V30 428 C 48.3841 -2.11687 -3.68068 0
M  V30 429 O 49.4081 -1.8342 -3.05345 0
M  V30 430 O 48.2671 -2.59572 -4.80921 0
M  V30 431 H 45.3611 -0.361154 -0.743974 0
M  V30 432 H 47.9071 -1.33554 -1.04697 0
M  V30 433 H 46.6791 -2.86346 -2.66687 0
M  V30 434 H 46.3021 -1.4856 -3.68803 0
M  V30 435 N 47.2992 1.18797 -1.03562 0
M  V30 436 C 48.2492 2.20161 -0.592724 0
M  V30 437 C 49.2332 1.56772 0.362133 0
M  V30 438 O 50.4252 1.76062 0.182009 0
M  V30 439 C 47.5542 3.43266 0.0481024 0
M  V30 440 C 46.6402 4.13786 -0.9296 0
M  V30 441 N 47.0312 4.60388 -2.09467 0
M  V30 442 C 45.3292 4.39572 -0.754499 0
M  V30 443 C 46.0302 5.14619 -2.71187 0
M  V30 444 N 45.0062 5.05826 -1.991 0
M  V30 445 H 48.8082 2.53877 -1.48066 0
M  V30 446 H 46.3222 1.34946 -0.903514 0
M  V30 447 H 48.3192 4.15136 0.383058 0
M  V30 448 H 46.9792 3.11048 0.931636 0
M  V30 449 H 47.9902 4.54999 -2.47379 0
M  V30 450 H 44.6672 4.17425 0.0793713 0
M  V30 451 H 46.0572 5.60917 -3.69895 0
M  V30 452 N 48.7773 0.814389 1.34928 0
M  V30 453 C 49.6873 0.231978 2.3345 0
M  V30 454 C 50.7033 -0.629139 1.62228 0
M  V30 455 O 51.8793 -0.539052 1.94052 0
M  V30 456 C 48.9443 -0.603482 3.41407 0
M  V30 457 C 48.0053 0.279037 4.28392 0
M  V30 458 C 47.2383 -0.516643 5.31193 0
M  V30 459 O 47.4613 -1.75068 5.4287 0
M  V30 460 O 46.3953 0.0965652 6.01823 0
M  V30 461 H 50.2213 1.04721 2.85074 0
M  V30 462 H 47.8063 0.576343 1.37836 0
M  V30 463 H 49.6883 -1.07908 4.0735 0
M  V30 464 H 48.3633 -1.39618 2.92042 0
M  V30 465 H 47.2703 0.801948 3.65403 0
M  V30 466 H 48.6033 1.03588 4.81176 0
M  V30 467 N 50.2554 -1.46986 0.568584 0
M  V30 468 C 51.4954 -2.04336 0.0512999 0
M  V30 469 C 51.8594 -1.43214 -1.27881 0
M  V30 470 O 53.0604 -1.91679 -1.88448 0
M  V30 471 C 51.3314 -3.57389 -0.0282328 0
M  V30 472 S 52.8904 -4.36056 -0.489991 0
M  V30 473 H 49.7084 -0.71034 0.0306349 0
M  V30 474 H 52.3104 -1.80212 0.757891 0
M  V30 475 H 51.0144 -3.99395 0.944011 0
M  V30 476 H 50.5454 -3.86028 -0.75803 0
M  V30 477 H 52.5604 -4.6441 -1.74752 0
M  V30 478 N 51.7335 -0.305618 -1.54608 0
M  V30 479 C 52.9735 0.303114 -2.0214 0
M  V30 480 C 53.3375 1.50737 -1.18921 0
M  V30 481 O 54.5385 2.18778 -1.56172 0
M  V30 482 C 52.8095 0.646332 -3.51507 0
M  V30 483 S 54.3685 1.23727 -4.20995 0
M  V30 484 H 51.1865 0.0927643 -0.704923 0
M  V30 485 H 53.7885 -0.434566 -1.90609 0
M  V30 486 H 52.4925 -0.238541 -4.09706 0
M  V30 487 H 52.0235 1.41468 -3.67084 0
M  V30 488 H 54.0385 2.52489 -4.27158 0
M  V30 489 N 53.2116 1.57565 -0.0334293 0
M  V30 490 C 54.1216 2.13943 0.962572 0
M  V30 491 C 55.1376 1.09276 1.35406 0
M  V30 492 O 56.3136 1.41355 1.4346 0
M  V30 493 C 53.3786 2.65887 2.22497 0
M  V30 494 C 52.4396 3.85286 1.8935 0
M  V30 495 C 51.6726 4.34743 3.09571 0
M  V30 496 O 51.8956 3.83352 4.22371 0
M  V30 497 O 50.8296 5.26538 2.91618 0
M  V30 498 H 54.6556 2.99333 0.513169 0
M  V30 499 H 52.2406 1.4822 0.18743 0
M  V30 500 H 54.1226 2.99346 2.96598 0
M  V30 501 H 52.7976 1.83578 2.6661 0
M  V30 502 H 51.7046 3.56746 1.1262 0
M  V30 503 H 53.0376 4.68771 1.5005 0
M  V30 504 N 54.6897 -0.239769 1.55765 0
M  V30 505 C 56.1057 -0.588624 1.48349 0
M  V30 506 C 56.3057 -1.88005 0.72502 0
M  V30 507 O 55.3617 -2.51186 0.257269 0
M  V30 508 C 56.6747 -0.68474 2.928 0
M  V30 509 C 58.2227 -0.77659 3.03213 0
M  V30 510 C 58.6977 -0.904207 4.48986 0
M  V30 511 N 60.1887 -0.968896 4.52953 0
M  V30 512 C 60.9237 -1.08703 5.63002 0
M  V30 513 N 60.4197 -1.17026 6.82845 0
M  V30 514 N 62.2127 -1.12074 5.50814 0
M  V30 515 H 54.3637 0.607911 2.03515 0
M  V30 516 H 56.6267 0.21083 0.924259 0
M  V30 517 H 56.3327 0.194284 3.51163 0
M  V30 518 H 56.2067 -1.55435 3.43686 0
M  V30 519 H 58.5937 -1.64606 2.44926 0
M  V30 520 H 58.6747 0.118315 2.55526 0
M  V30 521 H 58.3187 -0.0392633 5.07885 0
M  V30 522 H 58.2487 -1.81426 4.9436 0
M  V30 523 H 60.7397 -0.915633 3.6664 0
M  V30 524 H 61.0527 -1.25966 7.62465 0
M  V30 525 H 59.3977 -1.13971 6.85591 0
M  V30 526 H 62.5887 -1.05226 4.5612 0
M  V30 527 H 62.7617 -1.20936 6.36615 0
M  V30 528 N 56.1678 -1.49265 -0.50573 0
M  V30 529 C 57.4138 -1.58748 -1.26202 0
M  V30 530 C 57.7468 -0.271227 -1.92297 0
M  V30 531 O 57.0218 0.724831 -1.80489 0
M  V30 532 C 57.3048 -2.74332 -2.33268 0
M  V30 533 C 57.1578 -4.15737 -1.71705 0
M  V30 534 C 58.4768 -2.85576 -3.34865 0
M  V30 535 H 55.5958 -0.577826 -0.457478 0
M  V30 536 H 58.2378 -1.81532 -0.560897 0
M  V30 537 H 56.3878 -2.55036 -2.93068 0
M  V30 538 H 58.0598 -4.46537 -1.15769 0
M  V30 539 H 56.3028 -4.21605 -1.02135 0
M  V30 540 H 56.9738 -4.92477 -2.49341 0
M  V30 541 H 59.4498 -3.03127 -2.8505 0
M  V30 542 H 58.3258 -3.68135 -4.07146 0
M  V30 543 H 58.5868 -1.94732 -3.96903 0
M  V30 544 N 57.6459 0.756429 -1.3826 0
M  V30 545 C 58.8919 1.51772 -1.34511 0
M  V30 546 C 59.2249 1.94089 0.0656691 0
M  V30 547 O 58.4999 1.65221 1.02626 0
M  V30 548 C 58.7829 2.77226 -2.29821 0
M  V30 549 C 58.6359 2.41065 -3.79747 0
M  V30 550 C 59.9549 3.79236 -2.23312 0
M  V30 551 H 57.0739 0.550578 -0.489931 0
M  V30 552 H 59.7159 0.866607 -1.69086 0
M  V30 553 H 57.8659 3.32784 -2.00467 0
M  V30 554 H 59.5379 1.91303 -4.19763 0
M  V30 555 H 57.7809 1.7356 -3.97567 0
M  V30 556 H 58.4519 3.3081 -4.41892 0
M  V30 557 H 60.9279 3.3321 -2.49219 0
M  V30 558 H 59.8039 4.64714 -2.92116 0
M  V30 559 H 60.0649 4.24615 -1.23102 0
M  V30 560 N 59.124 1.23083 0.984299 0
M  V30 561 C 60.373 1.05466 1.71929 0
M  V30 562 C 60.686 -0.409211 1.91272 0
M  V30 563 O 61.892 -0.705226 2.62181 0
M  V30 564 C 60.348 1.83874 3.09384 0
M  V30 565 C 59.956 3.34566 2.97943 0
M  V30 566 C 61.7 1.74734 3.8687 0
M  V30 567 C 59.607 4.05381 4.30605 0
M  V30 568 H 58.537 0.391039 0.644674 0
M  V30 569 H 61.188 1.47013 1.09815 0
M  V30 570 H 59.57 1.35131 3.72231 0
M  V30 571 H 60.744 3.90767 2.44209 0
M  V30 572 H 59.059 3.44476 2.33934 0
M  V30 573 H 61.656 2.24957 4.85076 0
M  V30 574 H 61.999 0.709372 4.10212 0
M  V30 575 H 62.532 2.21067 3.30717 0
M  V30 576 H 59.271 5.09467 4.1246 0
M  V30 577 H 58.791 3.53967 4.84218 0
M  V30 578 H 60.47 4.11458 4.99311 0
M  V30 579 N 60.6021 -1.18246 1.0419 0
M  V30 580 C 61.5501 -2.23968 0.627792 0
M  V30 581 C 62.5441 -1.65828 -0.346019 0
M  V30 582 O 63.7501 -1.78733 -0.213175 0
M  V30 583 H 60.1251 -0.728939 0.184802 0
M  V30 584 H 62.0961 -2.56202 1.52981 0
M  V30 585 C 60.8451 -3.47699 0.00796591 0
M  V30 586 H 60.1681 -3.92734 0.748347 0
M  V30 587 H 61.6081 -4.23294 -0.24455 0
M  V30 588 C 60.0671 -3.13153 -1.24246 0
M  V30 589 O 60.5971 -3.27003 -2.33307 0
M  V30 590 N 58.8031 -2.67467 -1.13622 0
M  V30 591 H 58.3501 -2.56396 -0.248734 0
M  V30 592 H 58.3081 -2.44724 -1.97377 0
M  V30 593 N 62.0802 -0.821533 -1.34494 0
M  V30 594 C 63.3292 -0.405355 -1.97585 0
M  V30 595 C 63.6422 1.03677 -1.65863 0
M  V30 596 O 64.8482 1.55679 -2.22433 0
M  V30 597 C 63.3042 -0.673861 -3.53535 0
M  V30 598 C 62.9122 -2.12951 -3.94152 0
M  V30 599 C 64.6562 -0.32378 -4.23263 0
M  V30 600 C 62.5632 -2.34298 -5.43009 0
M  V30 601 H 61.4932 -0.147836 -0.739365 0
M  V30 602 H 64.1442 -1.00769 -1.53355 0
M  V30 603 H 62.5262 -0.00137554 -3.96 0
M  V30 604 H 63.7002 -2.84104 -3.62797 0
M  V30 605 H 62.0152 -2.44089 -3.37356 0
M  V30 606 H 64.6122 -0.461126 -5.32708 0
M  V30 607 H 64.9552 0.731586 -4.09821 0
M  V30 608 H 65.4882 -0.950786 -3.8627 0
M  V30 609 H 62.2272 -3.38335 -5.61435 0
M  V30 610 H 61.7472 -1.67687 -5.75883 0
M  V30 611 H 63.4262 -2.16588 -6.09671 0
M  V30 612 N 63.5583 1.46682 -0.576371 0
M  V30 613 C 64.7833 2.07304 -0.0630475 0
M  V30 614 C 65.2083 1.42329 1.2298 0
M  V30 615 O 64.5663 0.504865 1.74129 0
M  V30 616 C 64.6143 3.60472 0.095895 0
M  V30 617 O 63.7183 3.95927 1.15394 0
M  V30 618 H 63.0593 0.661288 -0.0599463 0
M  V30 619 H 65.5893 1.88417 -0.797511 0
M  V30 620 H 65.5993 4.06865 0.304071 0
M  V30 621 H 64.2743 4.07157 -0.84828 0
M  V30 622 H 62.8513 3.61252 0.924724 0
M  V30 623 N 65.0364 0.313813 1.54444 0
M  V30 624 C 66.2844 -0.291099 1.99993 0
M  V30 625 C 66.6054 -1.53418 1.20366 0
M  V30 626 O 65.8754 -1.93544 0.302927 0
M  V30 627 H 64.4554 -0.110552 0.738774 0
M  V30 628 H 67.1174 0.428106 1.9014 0
M  V30 629 H 66.2134 -0.554268 3.07139 0
M  V30 630 N 66.5145 -1.57545 0.0417849 0
M  V30 631 C 67.4445 -2.14009 -0.933929 0
M  V30 632 C 68.4255 -1.05938 -1.33083 0
M  V30 633 O 69.6105 -1.33833 -1.40721 0
M  V30 634 C 66.7405 -2.67747 -2.21199 0
M  V30 635 C 65.6945 -3.80718 -1.95544 0
M  V30 636 C 65.0205 -4.20935 -3.29724 0
M  V30 637 C 66.3205 -5.06258 -1.28452 0
M  V30 638 H 68.0145 -2.95788 -0.463645 0
M  V30 639 H 65.5605 -1.42285 -0.221573 0
M  V30 640 H 67.5135 -3.05886 -2.89848 0
M  V30 641 H 66.2375 -1.83147 -2.70416 0
M  V30 642 H 64.8965 -3.43037 -1.2931 0
M  V30 643 H 64.5445 -3.33298 -3.76724 0
M  V30 644 H 64.2445 -4.9707 -3.13361 0
M  V30 645 H 65.7685 -4.61666 -3.9962 0
M  V30 646 H 67.1825 -5.41903 -1.8712 0
M  V30 647 H 65.5795 -5.87475 -1.22445 0
M  V30 648 H 66.6495 -4.84207 -0.259219 0
M  V30 649 N 67.9926 0.231505 -1.5589 0
M  V30 650 C 69.4086 0.580748 -1.48659 0
M  V30 651 C 69.6086 1.87617 -0.73498 0
M  V30 652 O 68.6646 2.51046 -0.270586 0
M  V30 653 C 69.9776 0.669202 -2.93159 0
M  V30 654 C 71.5256 0.760499 -3.03621 0
M  V30 655 C 72.0006 0.880383 -4.49459 0
M  V30 656 N 73.4916 0.944861 -4.53461 0
M  V30 657 C 74.2266 1.05716 -5.63571 0
M  V30 658 N 73.7226 1.13403 -6.83456 0
M  V30 659 N 75.5156 1.09152 -5.514 0
M  V30 660 H 67.6666 -0.618695 -2.03189 0
M  V30 661 H 69.9296 -0.215728 -0.923128 0
M  V30 662 H 69.6356 -0.212904 -3.51055 0
M  V30 663 H 69.5096 1.5361 -3.44505 0
M  V30 664 H 71.8966 1.63305 -2.45796 0
M  V30 665 H 71.9776 -0.131864 -2.5546 0
M  V30 666 H 71.6216 0.0123284 -5.07899 0
M  V30 667 H 71.5516 1.78802 -4.95316 0
M  V30 668 H 74.0426 0.896176 -3.6712 0
M  V30 669 H 74.3556 1.21921 -7.63122 0
M  V30 670 H 72.7006 1.10333 -6.86186 0
M  V30 671 H 75.8916 1.02805 -4.56671 0
M  V30 672 H 76.0646 1.17558 -6.37247 0
M  V30 673 N 69.4707 1.49531 0.497807 0
M  V30 674 C 70.7177 1.59179 1.25173 0
M  V30 675 C 71.0457 0.279932 1.92475 0
M  V30 676 O 70.3007 -0.732383 1.81479 0
M  V30 677 C 70.5997 2.70252 2.33878 0
M  V30 678 C 70.2657 4.11644 1.84012 0
M  V30 679 C 68.9277 4.50121 1.70132 0
M  V30 680 C 71.2797 5.00121 1.46725 0
M  V30 681 C 68.6077 5.74845 1.17348 0
M  V30 682 C 70.9597 6.25366 0.95392 0
M  V30 683 C 69.6237 6.6267 0.801538 0
M  V30 684 H 68.8937 0.582478 0.45804 0
M  V30 685 H 71.5407 1.83373 0.551948 0
M  V30 686 H 69.8457 2.40041 3.09657 0
M  V30 687 H 71.5427 2.74925 2.9192 0
M  V30 688 H 68.1327 3.81274 1.95775 0
M  V30 689 H 72.3167 4.71048 1.56294 0
M  V30 690 H 67.5727 6.02444 1.04264 0
M  V30 691 H 71.7467 6.93301 0.656225 0
M  V30 692 H 69.3737 7.59197 0.390351 0
M  V30 693 N 70.9488 -0.749086 1.3866 0
M  V30 694 C 71.8588 -1.89358 1.38494 0
M  V30 695 C 72.8748 -1.71708 0.281476 0
M  V30 696 O 74.0508 -1.94554 0.520643 0
M  V30 697 C 71.1158 -3.24782 1.21316 0
M  V30 698 C 70.1768 -3.54926 2.41508 0
M  V30 699 C 69.4098 -4.83888 2.2514 0
M  V30 700 O 69.6328 -5.56592 1.24746 0
M  V30 701 O 68.5668 -5.13612 3.13826 0
M  V30 702 H 72.3928 -1.92452 2.34938 0
M  V30 703 H 69.9778 -0.894981 1.19626 0
M  V30 704 H 71.8598 -4.05739 1.13814 0
M  V30 705 H 70.5348 -3.2249 0.279592 0
M  V30 706 H 69.4418 -2.74112 2.54585 0
M  V30 707 H 70.7748 -3.61983 3.3351 0
M  V30 708 N 72.4269 -1.23603 -0.977757 0
M  V30 709 C 73.6549 -1.09646 -1.75458 0
M  V30 710 C 74.0699 0.351859 -1.85492 0
M  V30 711 O 73.4269 1.24327 -1.336 0
M  V30 712 C 73.4779 -1.71895 -3.18016 0
M  V30 713 O 73.1989 -3.11063 -3.08498 0
M  V30 714 C 74.6999 -1.63415 -4.12081 0
M  V30 715 H 71.9199 -0.38359 -0.550545 0
M  V30 716 H 74.4639 -1.63507 -1.22824 0
M  V30 717 H 72.6189 -1.22061 -3.67668 0
M  V30 718 H 73.0329 -3.41305 -3.9826 0
M  V30 719 H 74.5069 -2.11669 -5.09804 0
M  V30 720 H 74.9839 -0.593462 -4.35172 0
M  V30 721 H 75.5899 -2.12628 -3.68334 0
M  V30 722 N 73.905 1.17692 -1.04816 0
M  V30 723 C 74.837 2.21103 -0.603822 0
M  V30 724 C 75.85 1.59411 0.33046 0
M  V30 725 O 77.039 1.7807 0.12379 0
M  V30 726 C 74.139 3.38623 0.136898 0
M  V30 727 C 73.312 4.29888 -0.807137 0
M  V30 728 C 72.371 5.26088 -0.10836 0
M  V30 729 O 71.397 5.64353 -0.741232 0
M  V30 730 N 72.599 5.68882 1.15558 0
M  V30 731 H 75.364 2.59848 -1.49329 0
M  V30 732 H 72.925 1.32553 -0.929587 0
M  V30 733 H 74.917 4.00009 0.614401 0
M  V30 734 H 73.487 2.98508 0.927993 0
M  V30 735 H 72.707 3.65993 -1.46434 0
M  V30 736 H 73.995 4.87759 -1.44807 0
M  V30 737 H 73.393 5.39861 1.69015 0
M  V30 738 H 71.95 6.32429 1.57722 0
M  V30 739 N 75.3831 0.828654 1.34056 0
M  V30 740 C 76.3131 0.269443 2.3194 0
M  V30 741 C 77.2941 -0.617247 1.58506 0
M  V30 742 O 78.4791 -0.542931 1.86456 0
M  V30 743 C 75.6091 -0.564793 3.42677 0
M  V30 744 C 74.5631 0.225241 4.27407 0
M  V30 745 C 73.8891 -0.7321 5.29664 0
M  V30 746 C 75.1891 1.43663 5.02154 0
M  V30 747 H 76.8831 1.08728 2.7896 0
M  V30 748 H 74.4291 0.524283 1.34117 0
M  V30 749 H 76.3821 -0.966233 4.10173 0
M  V30 750 H 75.1061 -1.41574 2.9432 0
M  V30 751 H 73.7651 0.608117 3.61521 0
M  V30 752 H 73.4131 -1.57916 4.77568 0
M  V30 753 H 73.1131 -0.20767 5.87233 0
M  V30 754 H 74.6371 -1.13128 6.00029 0
M  V30 755 H 76.0511 1.1089 5.62473 0
M  V30 756 H 74.4481 1.89711 5.69324 0
M  V30 757 H 75.5181 2.21181 4.31517 0
M  V30 758 N 76.8612 -1.46375 0.584142 0
M  V30 759 C 77.8082 -2.30323 -0.148286 0
M  V30 760 C 78.7782 -1.40703 -0.882713 0
M  V30 761 O 79.9632 -1.69651 -0.873099 0
M  V30 762 C 77.1032 -3.25196 -1.15507 0
M  V30 763 C 76.2162 -4.29915 -0.423943 0
M  V30 764 C 75.3512 -5.11914 -1.41838 0
M  V30 765 C 74.3902 -6.08381 -0.673736 0
M  V30 766 N 73.5272 -6.83242 -1.6163 0
M  V30 767 H 78.3672 -2.92427 0.573644 0
M  V30 768 H 75.9042 -1.44118 0.294703 0
M  V30 769 H 77.8622 -3.78646 -1.75166 0
M  V30 770 H 76.4922 -2.64898 -1.8447 0
M  V30 771 H 75.5442 -3.7931 0.287714 0
M  V30 772 H 76.8562 -4.98549 0.158128 0
M  V30 773 H 76.0102 -5.69648 -2.08773 0
M  V30 774 H 74.7492 -4.43243 -2.03438 0
M  V30 775 H 73.7542 -5.49799 0.00938483 0
M  V30 776 H 74.9792 -6.79071 -0.0631082 0
M  V30 777 H 72.9252 -6.1728 -2.22038 0
M  V30 778 H 72.8422 -7.48144 -1.08707 0
M  V30 779 H 74.1102 -7.45534 -2.27596 0
M  V30 780 N 78.3393 -0.321999 -1.54275 0
M  V30 781 C 79.5673 0.283052 -2.04955 0
M  V30 782 C 79.9823 1.45904 -1.19823 0
M  V30 783 O 79.3393 1.81063 -0.228545 0
M  V30 784 C 79.3903 0.719028 -3.54277 0
M  V30 785 O 79.1113 -0.410175 -4.36176 0
M  V30 786 C 80.6123 1.38705 -4.21041 0
M  V30 787 H 77.8323 0.0584616 -0.668448 0
M  V30 788 H 80.3763 -0.467734 -1.99079 0
M  V30 789 H 78.5313 1.41979 -3.60445 0
M  V30 790 H 78.9453 -0.0669416 -5.24457 0
M  V30 791 H 80.4193 1.64306 -5.2698 0
M  V30 792 H 80.8963 2.33385 -3.72059 0
M  V30 793 H 81.5023 0.728906 -4.19007 0
M  V30 794 N 79.8174 1.5752 -0.0501392 0
M  V30 795 C 80.7474 2.14502 0.922566 0
M  V30 796 C 81.7284 1.06642 1.3252 0
M  V30 797 O 82.9134 1.34577 1.4001 0
M  V30 798 C 80.0434 2.68916 2.19776 0
M  V30 799 C 78.9974 3.8175 1.93523 0
M  V30 800 C 78.3234 4.22677 3.27487 0
M  V30 801 C 79.6234 5.06932 1.25765 0
M  V30 802 H 81.3174 2.9603 0.447952 0
M  V30 803 H 78.8634 1.42401 0.214024 0
M  V30 804 H 80.8164 3.07419 2.88222 0
M  V30 805 H 79.5404 1.84578 2.69441 0
M  V30 806 H 78.1994 3.43718 1.27489 0
M  V30 807 H 77.8474 3.35291 3.74952 0
M  V30 808 H 77.5474 4.98725 3.1072 0
M  V30 809 H 79.0714 4.63779 3.97166 0
M  V30 810 H 80.4854 5.42888 1.84244 0
M  V30 811 H 78.8824 5.88116 1.19328 0
M  V30 812 H 79.9524 4.84337 0.233536 0
M  V30 813 N 81.2955 -0.223234 1.56011 0
M  V30 814 C 82.2585 -1.26014 1.9145 0
M  V30 815 C 83.2585 -1.3989 0.792937 0
M  V30 816 O 84.4485 -1.38184 1.0607 0
M  V30 817 C 81.5805 -2.63422 2.16383 0
M  V30 818 H 82.7735 -0.95796 2.84189 0
M  V30 819 H 80.3265 -0.463576 1.49267 0
M  V30 820 H 81.0615 -2.98741 1.2619 0
M  V30 821 H 80.8465 -2.54728 2.98088 0
M  V30 822 H 82.3365 -3.38249 2.44903 0
M  V30 823 N 82.7736 -1.49793 -0.48987 0
M  V30 824 C 83.7056 -1.63413 -1.60713 0
M  V30 825 C 84.7186 -0.516329 -1.54395 0
M  V30 826 O 85.9076 -0.788812 -1.60125 0
M  V30 827 C 83.0076 -1.58516 -2.99543 0
M  V30 828 C 82.1806 -2.86016 -3.30928 0
M  V30 829 C 81.2396 -2.74018 -4.49222 0
M  V30 830 O 80.2656 -3.47964 -4.50455 0
M  V30 831 N 81.4676 -1.86309 -5.4979 0
M  V30 832 H 84.2326 -2.59777 -1.49452 0
M  V30 833 H 81.7936 -1.47022 -0.677955 0
M  V30 834 H 83.7856 -1.48128 -3.76617 0
M  V30 835 H 82.3556 -0.69965 -3.0467 0
M  V30 836 H 81.5756 -3.10672 -2.42645 0
M  V30 837 H 82.8636 -3.70521 -3.487 0
M  V30 838 H 82.2616 -1.2551 -5.51601 0
M  V30 839 H 80.8186 -1.81837 -6.25922 0
M  V30 840 N 84.2517 0.741722 -1.39055 0
M  V30 841 C 85.4987 1.50114 -1.35912 0
M  V30 842 C 85.8267 1.94443 0.0470937 0
M  V30 843 O 85.0817 1.66612 1.02659 0
M  V30 844 C 85.3807 2.7592 -2.27163 0
M  V30 845 C 85.0467 2.50493 -3.74919 0
M  V30 846 C 83.7087 2.43267 -4.1518 0
M  V30 847 C 86.0607 2.28585 -4.684 0
M  V30 848 C 83.3887 2.12166 -5.46994 0
M  V30 849 C 85.7407 1.99002 -6.00484 0
M  V30 850 C 84.4047 1.90241 -6.39816 0
M  V30 851 H 83.6747 0.549306 -0.497336 0
M  V30 852 H 86.3217 0.851896 -1.71508 0
M  V30 853 H 84.6267 3.45553 -1.84663 0
M  V30 854 H 86.3237 3.33923 -2.22028 0
M  V30 855 H 82.9137 2.56992 -3.43006 0
M  V30 856 H 87.0977 2.33139 -4.38132 0
M  V30 857 H 82.3537 2.03901 -5.76398 0
M  V30 858 H 86.5277 1.81057 -6.72452 0
M  V30 859 H 84.1547 1.65907 -7.41875 0
M  V30 860 N 85.7298 1.2412 0.971189 0
M  V30 861 C 87.1408 1.07236 1.52831 0
M  V30 862 C 87.4918 -0.357352 1.92918 0
M  V30 863 O 86.6168 -1.24528 1.76979 0
M  V30 864 C 87.2118 1.94043 2.77728 0
M  V30 865 C 85.7708 1.81394 3.29808 0
M  V30 866 C 84.9178 1.89189 2.02738 0
M  V30 867 H 87.8688 1.37648 0.789864 0
M  V30 868 H 87.8898 1.47066 3.5093 0
M  V30 869 H 87.4018 2.98093 2.4852 0
M  V30 870 H 85.5028 0.801634 3.63874 0
M  V30 871 H 85.6158 2.65294 3.98944 0
M  V30 872 H 83.9798 1.32877 2.17292 0
M  V30 873 H 84.7628 2.94812 1.759 0
M  V30 874 N 87.2079 -1.17134 1.05439 0
M  V30 875 C 88.1559 -2.23289 0.651511 0
M  V30 876 C 89.1499 -1.66186 -0.328411 0
M  V30 877 O 90.3559 -1.78949 -0.194206 0
M  V30 878 H 86.7309 -0.726938 0.192523 0
M  V30 879 H 88.7019 -2.54565 1.55689 0
M  V30 880 C 87.4509 -3.47671 0.0448436 0
M  V30 881 H 86.7739 -3.91918 0.78996 0
M  V30 882 H 88.2139 -4.2353 -0.19964 0
M  V30 883 C 86.6729 -3.14453 -1.20918 0
M  V30 884 O 87.2029 -3.29459 -2.29825 0
M  V30 885 N 85.4089 -2.68657 -1.10779 0
M  V30 886 H 84.9559 -2.56646 -0.221526 0
M  V30 887 H 84.9139 -2.46804 -1.9477 0
M  V30 888 N 88.686 -0.835752 -1.33615 0
M  V30 889 C 89.914 -0.443344 -2.02094 0
M  V30 890 C 90.329 0.954522 -1.62894 0
M  V30 891 O 89.686 1.61982 -0.840723 0
M  V30 892 C 89.737 -0.550775 -3.5728 0
M  V30 893 O 89.458 -1.89356 -3.95065 0
M  V30 894 C 90.959 -0.154919 -4.43029 0
M  V30 895 H 88.179 -0.176359 -0.647409 0
M  V30 896 H 90.723 -1.12746 -1.70612 0
M  V30 897 H 88.878 0.0853997 -3.87306 0
M  V30 898 H 89.292 -1.87687 -4.89769 0
M  V30 899 H 90.766 -0.281144 -5.51284 0
M  V30 900 H 91.243 0.902863 -4.2982 0
M  V30 901 H 91.849 -0.765404 -4.18356 0
M  V30 902 N 90.1641 1.46063 -0.591896 0
M  V30 903 C 91.0941 2.33172 0.123673 0
M  V30 904 C 92.0751 1.45897 0.87453 0
M  V30 905 O 93.2601 1.74698 0.848181 0
M  V30 906 C 90.3901 3.28336 1.13194 0
M  V30 907 C 89.3441 4.25124 0.495324 0
M  V30 908 C 88.6701 5.09863 1.61071 0
M  V30 909 C 89.9701 5.19143 -0.573425 0
M  V30 910 H 91.6641 2.93252 -0.603646 0
M  V30 911 H 89.2101 1.41014 -0.291741 0
M  V30 912 H 91.1631 3.88137 1.64097 0
M  V30 913 H 89.8871 2.66383 1.88965 0
M  V30 914 H 88.5461 3.66599 0.00729452 0
M  V30 915 H 88.1941 4.44288 2.35832 0
M  V30 916 H 87.8941 5.75417 1.19035 0
M  V30 917 H 89.4181 5.72529 2.12233 0
M  V30 918 H 90.8321 5.73106 -0.1491 0
M  V30 919 H 89.2291 5.93089 -0.914636 0
M  V30 920 H 90.2991 4.62519 -1.45617 0
M  V30 921 N 91.6422 0.330177 1.54103 0
M  V30 922 C 92.5722 -0.525353 2.27513 0
M  V30 923 C 93.5532 -1.11383 1.2856 0
M  V30 924 O 94.7382 -1.13773 1.57383 0
M  V30 925 C 91.8682 -1.6831 3.03791 0
M  V30 926 C 90.8222 -1.2236 4.10137 0
M  V30 927 C 90.1482 -2.46882 4.74293 0
M  V30 928 C 91.4482 -0.333697 5.21233 0
M  V30 929 H 93.1422 0.087013 2.99274 0
M  V30 930 H 90.6882 0.0432893 1.43935 0
M  V30 931 H 92.6412 -2.28795 3.5388 0
M  V30 932 H 91.3652 -2.32216 2.29659 0
M  V30 933 H 90.0242 -0.64165 3.60941 0
M  V30 934 H 89.6722 -3.09165 3.96769 0
M  V30 935 H 89.3722 -2.16825 5.46133 0
M  V30 936 H 90.8962 -3.08117 5.27159 0
M  V30 937 H 92.3102 -0.845013 5.67038 0
M  V30 938 H 90.7072 -0.125612 5.99969 0
M  V30 939 H 91.7772 0.633724 4.80741 0
M  V30 940 N 93.1203 -1.57491 0.0584922 0
M  V30 941 C 94.3683 -1.92597 -0.612436 0
M  V30 942 C 94.6893 -0.938162 -1.70949 0
M  V30 943 O 93.9593 0.0158301 -1.95894 0
M  V30 944 H 92.5393 -0.710964 -0.229214 0
M  V30 945 H 95.2013 -1.94571 0.113218 0
M  V30 946 H 94.2973 -2.94038 -1.04633 0
M  V30 947 N 94.5984 0.214957 -1.56127 0
M  V30 948 C 95.5464 1.28601 -1.93816 0
M  V30 949 C 96.5404 1.48175 -0.821016 0
M  V30 950 O 97.7464 1.49271 -1.0059 0
M  V30 951 H 94.1214 0.431302 -0.616022 0
M  V30 952 H 96.0924 0.940991 -2.83175 0
M  V30 953 C 94.8414 2.62779 -2.27689 0
M  V30 954 H 94.1644 2.48527 -3.13168 0
M  V30 955 H 95.6044 3.36517 -2.57939 0
M  V30 956 C 94.0634 3.18285 -1.10436 0
M  V30 957 O 94.5934 4.00002 -0.368945 0
M  V30 958 N 92.7994 2.7675 -0.886433 0
M  V30 959 H 92.3464 2.10404 -1.48619 0
M  V30 960 H 92.3044 3.14229 -0.103656 0
M  V30 961 N 96.0765 1.50051 0.48192 0
M  V30 962 C 97.4875 1.5348 1.06305 0
M  V30 963 C 97.8385 0.331997 1.93371 0
M  V30 964 O 96.9635 -0.556256 2.09129 0
M  V30 965 C 97.5585 2.7813 1.93466 0
M  V30 966 C 96.1175 2.84275 2.46707 0
M  V30 967 C 95.2645 2.47637 1.24785 0
M  V30 968 H 98.2155 1.56472 0.264995 0
M  V30 969 H 98.2365 2.59372 2.78399 0
M  V30 970 H 97.7485 3.65654 1.30072 0
M  V30 971 H 95.8495 2.01077 3.13686 0
M  V30 972 H 95.9625 3.8691 2.82555 0
M  V30 973 H 94.3265 1.99835 1.57918 0
M  V30 974 H 95.1095 3.37457 0.630694 0
M  V30 975 N 97.5546 -0.734337 1.39446 0
M  V30 976 C 98.5016 -1.84835 1.38219 0
M  V30 977 C 99.4716 -1.64331 0.24179 0
M  V30 978 O 100.657 -1.85728 0.437002 0
M  V30 979 C 97.7966 -3.22355 1.23212 0
M  V30 980 C 96.9096 -3.5456 2.46801 0
M  V30 981 C 96.0446 -4.81485 2.24377 0
M  V30 982 C 95.0836 -5.06536 3.43639 0
M  V30 983 N 94.2206 -6.24665 3.20528 0
M  V30 984 H 99.0606 -1.85219 2.33448 0
M  V30 985 H 96.5976 -0.905039 1.15963 0
M  V30 986 H 98.5556 -4.0174 1.12522 0
M  V30 987 H 97.1856 -3.21248 0.316121 0
M  V30 988 H 96.2376 -2.69872 2.68092 0
M  V30 989 H 97.5496 -3.6899 3.3563 0
M  V30 990 H 96.7036 -5.68852 2.10933 0
M  V30 991 H 95.4426 -4.6923 1.32944 0
M  V30 992 H 94.4476 -4.17632 3.5758 0
M  V30 993 H 95.6726 -5.20676 4.35974 0
M  V30 994 H 93.6186 -6.13696 2.3176 0
M  V30 995 H 93.5356 -6.39685 4.02913 0
M  V30 996 H 94.8036 -7.14868 3.10779 0
M  V30 997 N 99.0327 -1.24633 -0.964593 0
M  V30 998 C 99.9797 -1.04144 -2.05968 0
M  V30 999 C 100.95 0.046262 -1.66036 0
M  V30 1000 O 102.135 -0.108972 -1.90489 0
M  V30 1001 C 99.2747 -0.65563 -3.38815 0
M  V30 1002 C 98.3877 -1.81714 -3.91923 0
M  V30 1003 C 97.5227 -1.37662 -5.13052 0
M  V30 1004 C 96.5617 -2.50788 -5.58365 0
M  V30 1005 N 95.6987 -2.07582 -6.70712 0
M  V30 1006 H 100.539 -1.9787 -2.22827 0
M  V30 1007 H 98.0757 -0.9855 -1.09208 0
M  V30 1008 H 100.034 -0.412954 -4.15151 0
M  V30 1009 H 98.6637 0.244627 -3.21872 0
M  V30 1010 H 97.7157 -2.1734 -3.12198 0
M  V30 1011 H 99.0277 -2.66705 -4.21509 0
M  V30 1012 H 98.1817 -1.093 -5.96773 0
M  V30 1013 H 96.9207 -0.497293 -4.85158 0
M  V30 1014 H 95.9257 -2.79906 -4.73215 0
M  V30 1015 H 97.1507 -3.39283 -5.88272 0
M  V30 1016 H 95.0967 -1.22051 -6.44546 0
M  V30 1017 H 95.0137 -2.86125 -6.99763 0
M  V30 1018 H 96.2817 -1.82369 -7.57867 0
M  V30 1019 N 100.511 1.16574 -1.06058 0
M  V30 1020 C 101.927 1.3904 -0.783585 0
M  V30 1021 C 102.127 1.91784 0.618145 0
M  V30 1022 O 101.183 2.11511 1.37911 0
M  V30 1023 C 102.496 2.37329 -1.84649 0
M  V30 1024 C 104.044 2.51018 -1.86973 0
M  V30 1025 C 104.519 3.52588 -2.92311 0
M  V30 1026 N 106.01 3.60113 -2.91329 0
M  V30 1027 C 106.745 4.38486 -3.69482 0
M  V30 1028 N 106.241 5.20302 -4.57447 0
M  V30 1029 N 108.034 4.33446 -3.57885 0
M  V30 1030 H 100.185 0.806725 -1.96483 0
M  V30 1031 H 102.448 0.417117 -0.851303 0
M  V30 1032 H 102.154 2.05663 -2.85299 0
M  V30 1033 H 102.028 3.36946 -1.6955 0
M  V30 1034 H 104.415 2.81989 -0.869827 0
M  V30 1035 H 104.496 1.51445 -2.0615 0
M  V30 1036 H 104.14 3.22354 -3.92492 0
M  V30 1037 H 104.07 4.51886 -2.70383 0
M  V30 1038 H 106.561 3.01707 -2.27555 0
M  V30 1039 H 106.874 5.77311 -5.13743 0
M  V30 1040 H 105.219 5.19653 -4.61503 0
M  V30 1041 H 108.41 3.68586 -2.88551 0
M  V30 1042 H 108.583 4.94279 -4.19037 0
M  V30 1043 N 101.989 0.842826 1.3317 0
M  V30 1044 C 102.922 0.223862 2.27099 0
M  V30 1045 C 103.9 -0.631311 1.49844 0
M  V30 1046 O 105.084 -0.590708 1.79005 0
M  V30 1047 C 102.211 -0.685313 3.31694 0
M  V30 1048 C 101.257 0.094919 4.26394 0
M  V30 1049 S 102.09 1.45546 5.15341 0
M  V30 1050 C 103.246 0.551685 6.23464 0
M  V30 1051 H 103.479 1.02015 2.79249 0
M  V30 1052 H 101.012 0.639797 1.4052 0
M  V30 1053 H 102.97 -1.20426 3.92438 0
M  V30 1054 H 101.631 -1.4553 2.78352 0
M  V30 1055 H 100.824 -0.597059 5.00451 0
M  V30 1056 H 100.426 0.545054 3.70007 0
M  V30 1057 H 102.718 -0.248877 6.77043 0
M  V30 1058 H 103.661 1.26253 6.96754 0
M  V30 1059 H 104.069 0.131275 5.64347 0
M  V30 1060 N 103.467 -1.45747 0.599634 0
M  V30 1061 C 104.883 -1.57424 0.26264 0
M  V30 1062 C 105.083 -1.59222 -1.23493 0
M  V30 1063 O 104.139 -1.51825 -2.01756 0
M  V30 1064 C 105.452 -2.86061 0.926795 0
M  V30 1065 C 107 -2.99722 0.901967 0
M  V30 1066 C 107.475 -4.31119 1.54598 0
M  V30 1067 N 108.966 -4.37858 1.5111 0
M  V30 1068 C 109.701 -5.3818 1.97863 0
M  V30 1069 N 109.197 -6.45083 2.52666 0
M  V30 1070 N 110.99 -5.29487 1.88679 0
M  V30 1071 H 103.141 -1.42823 1.57211 0
M  V30 1072 H 105.404 -0.68235 0.658105 0
M  V30 1073 H 105.11 -2.90605 1.98095 0
M  V30 1074 H 104.984 -3.74563 0.445238 0
M  V30 1075 H 107.371 -2.9475 -0.143617 0
M  V30 1076 H 107.452 -2.12652 1.42171 0
M  V30 1077 H 107.096 -4.36849 2.59085 0
M  V30 1078 H 107.026 -5.16992 1.00132 0
M  V30 1079 H 109.517 -3.61209 1.11068 0
M  V30 1080 H 109.83 -7.17869 2.86155 0
M  V30 1081 H 108.175 -6.45856 2.56701 0
M  V30 1082 H 111.366 -4.44877 1.4561 0
M  V30 1083 H 111.539 -6.07524 2.25429 0
M  V30 1084 N 104.945 -0.338344 -1.53925 0
M  V30 1085 C 106.175 0.260919 -2.04946 0
M  V30 1086 C 106.583 1.45174 -1.2133 0
M  V30 1087 O 105.926 1.82122 -0.240262 0
M  V30 1088 C 105.988 0.744596 -3.51704 0
M  V30 1089 C 105.652 -0.325883 -4.55837 0
M  V30 1090 C 106.649 -1.16687 -5.06636 0
M  V30 1091 C 104.334 -0.478317 -5.00017 0
M  V30 1092 C 106.328 -2.14588 -6.00192 0
M  V30 1093 C 104.015 -1.46073 -5.93385 0
M  V30 1094 C 105.013 -2.29297 -6.4336 0
M  V30 1095 O 104.701 -3.25867 -7.34892 0
M  V30 1096 H 104.433 0.0551207 -0.673749 0
M  V30 1097 H 106.987 -0.486984 -1.99544 0
M  V30 1098 H 105.217 1.54366 -3.54553 0
M  V30 1099 H 106.906 1.26383 -3.85723 0
M  V30 1100 H 107.672 -1.06016 -4.73271 0
M  V30 1101 H 103.551 0.159613 -4.60724 0
M  V30 1102 H 107.095 -2.79585 -6.39123 0
M  V30 1103 H 102.992 -1.56802 -6.26166 0
M  V30 1104 H 103.76 -3.21278 -7.5281 0
M  V30 1105 N 106.423 1.57458 -0.0668435 0
M  V30 1106 C 107.67 1.93301 0.603406 0
M  V30 1107 C 107.998 0.946486 1.69917 0
M  V30 1108 O 107.253 -0.0387021 1.95662 0
M  V30 1109 C 107.552 3.35784 1.22409 0
M  V30 1110 C 107.218 4.50179 0.254955 0
M  V30 1111 C 105.88 4.81199 -0.0116746 0
M  V30 1112 C 108.232 5.19598 -0.408338 0
M  V30 1113 C 105.56 5.78978 -0.94877 0
M  V30 1114 C 107.912 6.18381 -1.33372 0
M  V30 1115 C 106.576 6.47821 -1.60887 0
M  V30 1116 H 105.846 0.707338 0.220802 0
M  V30 1117 H 108.493 1.91012 -0.136665 0
M  V30 1118 H 106.798 3.34515 2.03978 0
M  V30 1119 H 108.495 3.60804 1.74989 0
M  V30 1120 H 105.085 4.25983 0.472954 0
M  V30 1121 H 109.269 4.95832 -0.215456 0
M  V30 1122 H 104.525 6.00115 -1.16925 0
M  V30 1123 H 108.699 6.71277 -1.85367 0
M  V30 1124 H 106.326 7.23399 -2.33661 0
M  V30 1125 N 107.901 -0.206675 1.56239 0
M  V30 1126 C 109.178 -0.954051 1.70755 0
M  V30 1127 C 109.558 -2.01841 0.618353 0
M  V30 1128 O 108.906 -2.25444 -0.372434 0
M  V30 1129 C 109.116 -1.551 3.12642 0
M  V30 1130 C 110.464 -2.03757 3.72516 0
M  V30 1131 O 111.488 -1.64965 3.15698 0
M  V30 1132 O 110.347 -2.75103 4.72208 0
M  V30 1133 H 107.441 -0.446636 0.696021 0
M  V30 1134 H 109.987 -0.197283 1.68549 0
M  V30 1135 H 108.759 -0.783212 3.83382 0
M  V30 1136 H 108.382 -2.37291 3.19028 0
M  V30 1137 N 109.379 -1.50304 -0.473955 0
M  V30 1138 C 110.79 -1.54042 -1.0549 0
M  V30 1139 C 111.141 -0.342248 -1.93192 0
M  V30 1140 O 110.266 0.545157 -2.09421 0
M  V30 1141 C 110.861 -2.79152 -1.91989 0
M  V30 1142 C 109.42 -2.8558 -2.45196 0
M  V30 1143 C 108.567 -2.48295 -1.2347 0
M  V30 1144 H 111.518 -1.5661 -0.256693 0
M  V30 1145 H 111.539 -2.60845 -2.7702 0
M  V30 1146 H 111.051 -3.66339 -1.28131 0
M  V30 1147 H 109.152 -2.02738 -3.12615 0
M  V30 1148 H 109.265 -3.88403 -2.80499 0
M  V30 1149 H 107.629 -2.00669 -1.56856 0
M  V30 1150 H 108.412 -3.37787 -0.612789 0
M  V30 1151 N 110.857 0.726932 -1.39834 0
M  V30 1152 C 111.787 1.85405 -1.41941 0
M  V30 1153 C 112.768 1.67751 -0.281728 0
M  V30 1154 O 113.953 1.8795 -0.488717 0
M  V30 1155 C 111.083 3.23243 -1.2701 0
M  V30 1156 C 110.037 3.55549 -2.38262 0
M  V30 1157 C 109.363 4.9241 -2.08415 0
M  V30 1158 C 110.663 3.577 -3.80589 0
M  V30 1159 H 112.357 1.83899 -2.36266 0
M  V30 1160 H 109.903 0.883349 -1.13723 0
M  V30 1161 H 111.856 4.01775 -1.27103 0
M  V30 1162 H 110.58 3.25296 -0.291564 0
M  V30 1163 H 109.239 2.79351 -2.37399 0
M  V30 1164 H 108.887 4.91052 -1.0898 0
M  V30 1165 H 108.587 5.14992 -2.82943 0
M  V30 1166 H 110.111 5.73289 -2.10171 0
M  V30 1167 H 111.525 4.26293 -3.83337 0
M  V30 1168 H 109.922 3.91804 -4.54543 0
M  V30 1169 H 110.992 2.57328 -4.10987 0
M  V30 1170 N 112.336 1.25143 0.95797 0
M  V30 1171 C 113.752 1.01892 1.22842 0
M  V30 1172 C 113.952 -0.266311 1.99732 0
M  V30 1173 O 113.008 -0.979913 2.3271 0
M  V30 1174 C 114.321 2.24004 2.00606 0
M  V30 1175 C 115.869 2.28731 2.13662 0
M  V30 1176 C 116.344 3.5049 2.94823 0
M  V30 1177 N 117.835 3.50866 3.02403 0
M  V30 1178 C 118.57 4.4174 3.65586 0
M  V30 1179 N 118.066 5.42882 4.30408 0
M  V30 1180 N 119.859 4.29429 3.62694 0
M  V30 1181 H 112.01 2.07718 0.443493 0
M  V30 1182 H 114.273 0.912031 0.258657 0
M  V30 1183 H 113.979 3.17395 1.51503 0
M  V30 1184 H 113.853 2.26907 3.01319 0
M  V30 1185 H 116.24 1.35865 2.61963 0
M  V30 1186 H 116.321 2.29848 1.12265 0
M  V30 1187 H 115.965 4.43676 2.47213 0
M  V30 1188 H 115.895 3.46617 3.96439 0
M  V30 1189 H 118.386 2.777 2.56302 0
M  V30 1190 H 118.699 6.0844 4.76467 0
M  V30 1191 H 117.044 5.46758 4.29047 0
M  V30 1192 H 120.235 3.49643 3.11236 0
M  V30 1193 H 120.408 5.00448 4.1165 0
M  V30 1194 N 113.814 -1.1601 1.06675 0
M  V30 1195 C 114.762 -2.22586 0.675157 0
M  V30 1196 C 115.756 -1.66525 -0.310766 0
M  V30 1197 O 116.962 -1.79145 -0.175215 0
M  V30 1198 H 113.337 -0.724855 0.200223 0
M  V30 1199 H 115.308 -2.52899 1.58381 0
M  V30 1200 C 114.057 -3.47604 0.0817162 0
M  V30 1201 H 113.38 -3.91058 0.831484 0
M  V30 1202 H 114.82 -4.23718 -0.154708 0
M  V30 1203 C 113.279 -3.15718 -1.17576 0
M  V30 1204 O 113.809 -3.31878 -2.26318 0
M  V30 1205 N 112.015 -2.69816 -1.07923 0
M  V30 1206 H 111.562 -2.56866 -0.194293 0
M  V30 1207 H 111.52 -2.48855 -1.92141 0
M  V30 1208 N 115.292 -0.849877 -1.32721 0
M  V30 1209 C 116.202 -0.293791 -2.32753 0
M  V30 1210 C 117.218 0.585906 -1.63839 0
M  V30 1211 O 118.394 0.487413 -1.95413 0
M  V30 1212 C 115.459 0.512752 -3.42887 0
M  V30 1213 C 114.52 -0.39252 -4.27502 0
M  V30 1214 C 113.753 0.375625 -5.32377 0
M  V30 1215 O 113.976 1.60613 -5.4732 0
M  V30 1216 O 112.91 -0.256094 -6.01355 0
M  V30 1217 H 116.736 -1.12242 -2.82197 0
M  V30 1218 H 114.321 -0.612685 -1.36259 0
M  V30 1219 H 116.203 0.970704 -4.10067 0
M  V30 1220 H 114.878 1.31826 -2.95641 0
M  V30 1221 H 113.785 -0.898547 -3.63149 0
M  V30 1222 H 115.118 -1.16309 -4.7826 0
M  V30 1223 N 116.77 1.45427 -0.607355 0
M  V30 1224 C 118 2.06314 -0.108656 0
M  V30 1225 C 118.408 1.45269 1.21217 0
M  V30 1226 O 117.751 0.561115 1.74921 0
M  V30 1227 C 117.813 3.59345 0.105618 0
M  V30 1228 C 117.477 4.42723 -1.13337 0
M  V30 1229 C 118.474 4.77715 -2.05145 0
M  V30 1230 C 116.159 4.83478 -1.36213 0
M  V30 1231 C 118.153 5.52317 -3.18158 0
M  V30 1232 C 115.84 5.57835 -2.49527 0
M  V30 1233 C 116.838 5.92171 -3.40327 0
M  V30 1234 O 116.526 6.65019 -4.51669 0
M  V30 1235 H 116.258 0.672782 -0.0658842 0
M  V30 1236 H 118.812 1.87664 -0.834945 0
M  V30 1237 H 117.042 3.76394 0.886796 0
M  V30 1238 H 118.731 4.02076 0.555886 0
M  V30 1239 H 119.497 4.46787 -1.88697 0
M  V30 1240 H 115.376 4.56188 -0.664362 0
M  V30 1241 H 118.92 5.79036 -3.89054 0
M  V30 1242 H 114.817 5.88177 -2.65928 0
M  V30 1243 H 115.585 6.83469 -4.50348 0
M  V30 1244 N 118.248 0.346503 1.53744 0
M  V30 1245 C 119.495 -0.249104 2.00962 0
M  V30 1246 C 119.823 -1.5032 1.23426 0
M  V30 1247 O 119.078 -1.93217 0.310761 0
M  V30 1248 C 119.377 -0.605809 3.52228 0
M  V30 1249 C 119.043 0.551747 4.47512 0
M  V30 1250 C 117.705 0.86941 4.73281 0
M  V30 1251 C 120.057 1.32818 5.03993 0
M  V30 1252 C 117.385 1.96582 5.52786 0
M  V30 1253 C 119.737 2.41486 5.84694 0
M  V30 1254 C 118.401 2.73808 6.08757 0
M  V30 1255 H 117.671 -0.0911538 0.735372 0
M  V30 1256 H 120.318 0.475027 1.85515 0
M  V30 1257 H 118.623 -1.4107 3.65522 0
M  V30 1258 H 120.32 -1.07858 3.86222 0
M  V30 1259 H 116.91 0.294102 4.2759 0
M  V30 1260 H 121.094 1.09602 4.84047 0
M  V30 1261 H 116.35 2.22045 5.69654 0
M  V30 1262 H 120.524 3.02078 6.27473 0
M  V30 1263 H 118.151 3.58892 6.7015 0
M  V30 1264 N 119.726 -1.57421 0.075193 0
M  V30 1265 C 120.973 -1.93618 -0.593146 0
M  V30 1266 C 121.301 -0.955484 -1.69413 0
M  V30 1267 O 120.556 0.0283251 -1.9568 0
M  V30 1268 C 120.855 -3.36428 -1.20626 0
M  V30 1269 C 120.521 -4.50307 -0.231078 0
M  V30 1270 C 119.183 -4.81186 0.0371936 0
M  V30 1271 C 121.535 -5.19374 0.435888 0
M  V30 1272 C 118.863 -5.78466 0.979461 0
M  V30 1273 C 121.215 -6.17665 1.3665 0
M  V30 1274 C 119.879 -6.46958 1.6432 0
M  V30 1275 H 119.149 -0.708499 -0.217047 0
M  V30 1276 H 121.796 -1.90937 0.146793 0
M  V30 1277 H 120.101 -3.35592 -2.02201 0
M  V30 1278 H 121.798 -3.61727 -1.73073 0
M  V30 1279 H 118.388 -4.26227 -0.450357 0
M  V30 1280 H 122.572 -4.95711 0.241748 0
M  V30 1281 H 117.828 -5.99487 1.20106 0
M  V30 1282 H 122.002 -6.70284 1.88924 0
M  V30 1283 H 119.629 -7.2215 2.37494 0
M  V30 1284 N 121.204 0.198386 -1.56346 0
M  V30 1285 C 122.481 0.944982 -1.71258 0
M  V30 1286 C 122.861 2.0151 -0.629048 0
M  V30 1287 O 122.209 2.25639 0.360473 0
M  V30 1288 C 122.419 1.5344 -3.1346 0
M  V30 1289 C 123.767 2.01778 -3.73591 0
M  V30 1290 O 124.791 1.63288 -3.16568 0
M  V30 1291 O 123.65 2.72594 -4.73661 0
M  V30 1292 H 120.744 0.442939 -0.69838 0
M  V30 1293 H 123.29 0.188342 -1.68652 0
M  V30 1294 H 122.062 0.762869 -3.83792 0
M  V30 1295 H 121.685 2.35596 -3.20282 0
M  V30 1296 N 122.682 1.50554 0.465978 0
M  V30 1297 C 124.098 1.38093 0.800154 0
M  V30 1298 C 124.298 0.440988 1.96615 0
M  V30 1299 O 123.354 -0.114499 2.5224 0
M  V30 1300 C 124.667 2.79565 1.10742 0
M  V30 1301 C 126.215 2.88516 1.21357 0
M  V30 1302 C 126.69 4.30833 1.55393 0
M  V30 1303 N 128.181 4.33807 1.62375 0
M  V30 1304 C 128.916 5.40927 1.90225 0
M  V30 1305 N 128.412 6.58247 2.16062 0
M  V30 1306 N 130.205 5.28376 1.9177 0
M  V30 1307 H 122.356 2.10237 -0.302366 0
M  V30 1308 H 124.619 0.945203 -0.0727746 0
M  V30 1309 H 124.325 3.50208 0.323661 0
M  V30 1310 H 124.199 3.17125 2.04234 0
M  V30 1311 H 126.586 2.1809 1.98799 0
M  V30 1312 H 126.667 2.54492 0.258321 0
M  V30 1313 H 126.311 5.01799 0.784889 0
M  V30 1314 H 126.241 4.62347 2.52076 0
M  V30 1315 H 128.732 3.49212 1.44427 0
M  V30 1316 H 129.045 7.3569 2.36601 0
M  V30 1317 H 127.39 6.61413 2.13444 0
M  V30 1318 H 130.581 4.35715 1.71085 0
M  V30 1319 H 130.754 6.11944 2.13139 0
M  V30 1320 N 124.16 -0.719506 1.40217 0
M  V30 1321 C 125.108 -1.85493 1.40339 0
M  V30 1322 C 126.102 -1.66995 0.284415 0
M  V30 1323 O 127.308 -1.74148 0.455252 0
M  V30 1324 H 123.683 -0.610857 0.438586 0
M  V30 1325 H 125.654 -1.82506 2.36081 0
M  V30 1326 C 124.403 -3.23321 1.27901 0
M  V30 1327 H 123.726 -3.38159 2.1328 0
M  V30 1328 H 125.166 -4.02914 1.32045 0
M  V30 1329 C 123.625 -3.36898 -0.0111355 0
M  V30 1330 O 124.155 -3.89674 -0.975538 0
M  V30 1331 N 122.361 -2.90492 -0.0793393 0
M  V30 1332 H 121.908 -2.47731 0.706183 0
M  V30 1333 H 121.866 -2.99955 -0.942038 0
M  V30 1334 N 125.638 -1.25649 -0.95132 0
M  V30 1335 C 127.054 -1.02542 -1.223 0
M  V30 1336 C 127.254 0.255715 -1.99871 0
M  V30 1337 O 126.31 0.967558 -2.33226 0
M  V30 1338 C 127.623 -2.25065 -1.99415 0
M  V30 1339 C 129.171 -2.29861 -2.12446 0
M  V30 1340 C 129.646 -3.52048 -2.92961 0
M  V30 1341 N 131.137 -3.52465 -3.00538 0
M  V30 1342 C 131.872 -4.43672 -3.63239 0
M  V30 1343 N 131.368 -5.45157 -4.27523 0
M  V30 1344 N 133.161 -4.31346 -3.60412 0
M  V30 1345 H 125.312 -2.07951 -0.432471 0
M  V30 1346 H 127.575 -0.91339 -0.253816 0
M  V30 1347 H 127.281 -3.18194 -1.49817 0
M  V30 1348 H 127.155 -2.28502 -3.00111 0
M  V30 1349 H 129.542 -1.37252 -2.61239 0
M  V30 1350 H 129.623 -2.3044 -1.11044 0
M  V30 1351 H 129.267 -4.44981 -2.44856 0
M  V30 1352 H 129.197 -3.48715 -3.94596 0
M  V30 1353 H 131.688 -2.79056 -2.54826 0
M  V30 1354 H 132.001 -6.10958 -4.73234 0
M  V30 1355 H 130.346 -5.49025 -4.26141 0
M  V30 1356 H 133.537 -3.51288 -3.09377 0
M  V30 1357 H 133.71 -5.02624 -4.0899 0
M  V30 1358 N 127.117 1.15442 -1.07289 0
M  V30 1359 C 128.528 1.67803 -0.818475 0
M  V30 1360 C 128.879 1.8489 0.656507 0
M  V30 1361 O 128.004 1.55176 1.50829 0
M  V30 1362 C 128.599 3.04805 -1.47917 0
M  V30 1363 C 127.158 3.54245 -1.27229 0
M  V30 1364 C 126.305 2.29986 -1.54925 0
M  V30 1365 H 129.256 0.996646 -1.23502 0
M  V30 1366 H 129.277 3.69702 -0.90005 0
M  V30 1367 H 128.789 2.92336 -2.55267 0
M  V30 1368 H 126.89 3.71956 -0.21899 0
M  V30 1369 H 127.003 4.35723 -1.99203 0
M  V30 1370 H 125.367 2.35496 -0.970242 0
M  V30 1371 H 126.15 2.20105 -2.63455 0
M  V30 1372 N 128.595 0.856903 1.32268 0
M  V30 1373 C 129.82 0.474569 2.01897 0
M  V30 1374 C 130.245 -0.921766 1.63967 0
M  V30 1375 O 129.603 -1.60589 0.84148 0
M  V30 1376 C 129.651 0.623799 3.55164 0
M  V30 1377 O 128.755 -0.342459 4.10976 0
M  V30 1378 H 128.096 0.190422 0.63611 0
M  V30 1379 H 130.626 1.15672 1.68764 0
M  V30 1380 H 130.636 0.512169 4.04773 0
M  V30 1381 H 129.311 1.64202 3.82113 0
M  V30 1382 H 127.888 -0.18688 3.72431 0
M  V30 1383 N 130.073 -1.45103 0.615059 0
M  V30 1384 C 131.32 -2.02183 0.113179 0
M  V30 1385 C 131.648 -1.48249 -1.25906 0
M  V30 1386 O 130.903 -0.650265 -1.84581 0
M  V30 1387 C 131.202 -3.57386 0.0318797 0
M  V30 1388 C 130.868 -4.30505 1.34077 0
M  V30 1389 C 129.53 -4.50197 1.69929 0
M  V30 1390 C 131.882 -4.72238 2.20546 0
M  V30 1391 C 129.21 -5.08881 2.91988 0
M  V30 1392 C 131.562 -5.32272 3.41861 0
M  V30 1393 C 130.226 -5.50187 3.77956 0
M  V30 1394 H 129.496 -0.739842 0.0414151 0
M  V30 1395 H 132.143 -1.74073 0.798168 0
M  V30 1396 H 130.448 -3.84817 -0.736409 0
M  V30 1397 H 132.145 -3.99264 -0.372712 0
M  V30 1398 H 128.735 -4.15496 1.05173 0
M  V30 1399 H 132.919 -4.56751 1.94146 0
M  V30 1400 H 128.175 -5.20939 3.2005 0
M  V30 1401 H 132.349 -5.63563 4.09109 0
M  V30 1402 H 129.976 -5.95427 4.72622 0
M  V30 1403 N 131.551 -0.354651 -1.53558 0
M  V30 1404 C 132.828 0.294281 -1.93374 0
M  V30 1405 C 133.208 1.67313 -1.28723 0
M  V30 1406 O 132.556 2.24179 -0.442247 0
M  V30 1407 C 132.766 0.355445 -3.47185 0
M  V30 1408 C 134.114 0.601007 -4.20325 0
M  V30 1409 O 135.138 0.437106 -3.53508 0
M  V30 1410 O 133.997 0.919322 -5.38712 0
M  V30 1411 H 131.091 0.174033 -0.808481 0
M  V30 1412 H 133.637 -0.406638 -1.64756 0
M  V30 1413 H 132.409 -0.611729 -3.86489 0
M  V30 1414 H 132.032 1.1027 -3.82003 0
M  V30 1415 N 133.029 1.57378 -0.0835403 0
M  V30 1416 C 133.992 2.12252 0.864959 0
M  V30 1417 C 134.992 1.04916 1.21858 0
M  V30 1418 O 136.182 1.30853 1.14991 0
M  V30 1419 C 133.314 2.63358 2.16461 0
M  V30 1420 H 134.507 2.97371 0.388676 0
M  V30 1421 H 132.06 1.55423 0.165317 0
M  V30 1422 H 132.795 1.81727 2.686 0
M  V30 1423 H 132.58 3.41826 1.92087 0
M  V30 1424 H 134.07 3.05847 2.84337 0
M  V30 1425 N 134.507 -0.190092 1.56449 0
M  V30 1426 C 135.756 -0.907912 1.80111 0
M  V30 1427 C 136.069 -1.84214 0.657619 0
M  V30 1428 O 137.275 -2.60094 0.778663 0
M  V30 1429 C 135.731 -1.66485 3.19078 0
M  V30 1430 C 135.339 -0.7752 4.41242 0
M  V30 1431 C 137.083 -2.37201 3.52045 0
M  V30 1432 C 134.99 -1.53129 5.71231 0
M  V30 1433 H 133.92 -0.34276 0.671589 0
M  V30 1434 H 136.571 -0.161109 1.82791 0
M  V30 1435 H 134.953 -2.45572 3.10661 0
M  V30 1436 H 136.127 -0.0226298 4.60794 0
M  V30 1437 H 134.442 -0.178627 4.16017 0
M  V30 1438 H 137.039 -2.94329 4.46402 0
M  V30 1439 H 137.382 -3.11632 2.76028 0
M  V30 1440 H 137.915 -1.65075 3.61932 0
M  V30 1441 H 134.654 -0.82967 6.50228 0
M  V30 1442 H 134.174 -2.25767 5.55688 0
M  V30 1443 H 135.853 -2.08377 6.12526 0
M  V30 1444 N 135.985 -1.50799 -0.457987 0
M  V30 1445 C 136.915 -1.73553 -1.5621 0
M  V30 1446 C 137.896 -0.584774 -1.59732 0
M  V30 1447 O 139.081 -0.825314 -1.7579 0
M  V30 1448 C 136.211 -1.84169 -2.94447 0
M  V30 1449 C 135.165 -2.99461 -3.0579 0
M  V30 1450 C 134.491 -2.95235 -4.45803 0
M  V30 1451 C 135.791 -4.39766 -2.81786 0
M  V30 1452 H 137.485 -2.66 -1.37421 0
M  V30 1453 H 135.031 -1.28002 -0.659662 0
M  V30 1454 H 136.984 -1.98672 -3.71628 0
M  V30 1455 H 135.708 -0.883545 -3.14422 0
M  V30 1456 H 134.367 -2.8463 -2.31044 0
M  V30 1457 H 134.015 -1.97239 -4.62715 0
M  V30 1458 H 133.715 -3.72642 -4.54326 0
M  V30 1459 H 135.239 -3.11803 -5.24987 0
M  V30 1460 H 136.653 -4.55054 -3.4871 0
M  V30 1461 H 135.05 -5.18722 -3.0174 0
M  V30 1462 H 136.12 -4.51229 -1.7754 0
M  V30 1463 N 137.463 0.71206 -1.40597 0
M  V30 1464 C 138.693 1.49894 -1.42181 0
M  V30 1465 C 139.101 1.89189 -0.0208078 0
M  V30 1466 O 138.444 1.56223 0.966436 0
M  V30 1467 C 138.506 2.80215 -2.25211 0
M  V30 1468 C 138.17 2.63221 -3.73582 0
M  V30 1469 C 139.167 2.30249 -4.66135 0
M  V30 1470 C 136.852 2.79376 -4.17438 0
M  V30 1471 C 138.846 2.13645 -6.00529 0
M  V30 1472 C 136.533 2.6239 -5.51901 0
M  V30 1473 C 137.531 2.29573 -6.43262 0
M  V30 1474 O 137.219 2.12719 -7.75246 0
M  V30 1475 H 136.951 0.469031 -0.486812 0
M  V30 1476 H 139.505 0.88564 -1.85326 0
M  V30 1477 H 137.735 3.4389 -1.76852 0
M  V30 1478 H 139.424 3.41947 -2.18694 0
M  V30 1479 H 140.19 2.17398 -4.33547 0
M  V30 1480 H 136.069 3.03906 -3.46644 0
M  V30 1481 H 139.613 1.87953 -6.71803 0
M  V30 1482 H 135.51 2.74826 -5.84073 0
M  V30 1483 H 136.278 2.27611 -7.86216 0
M  V30 1484 N 138.941 1.26152 0.944643 0
M  V30 1485 C 140.171 1.14094 1.72239 0
M  V30 1486 C 140.579 -0.306931 1.86694 0
M  V30 1487 O 139.922 -1.22222 1.3714 0
M  V30 1488 C 139.984 1.73316 3.14963 0
M  V30 1489 C 139.648 3.2239 3.23904 0
M  V30 1490 C 140.645 4.19252 3.07447 0
M  V30 1491 C 138.33 3.62788 3.47405 0
M  V30 1492 C 140.324 5.54491 3.14353 0
M  V30 1493 C 138.011 4.98162 3.53947 0
M  V30 1494 C 139.009 5.93823 3.37436 0
M  V30 1495 O 138.697 7.26732 3.43679 0
M  V30 1496 H 138.429 0.398292 0.546205 0
M  V30 1497 H 140.983 1.67201 1.19301 0
M  V30 1498 H 139.213 1.14667 3.69308 0
M  V30 1499 H 140.902 1.56214 3.74636 0
M  V30 1500 H 141.668 3.8938 2.8915 0
M  V30 1501 H 137.547 2.88816 3.59313 0
M  V30 1502 H 141.091 6.29137 3.01384 0
M  V30 1503 H 136.988 5.27695 3.71763 0
M  V30 1504 H 137.756 7.3496 3.60245 0
M  V30 1505 N 140.419 -1.14872 1.07899 0
M  V30 1506 C 141.649 -1.89386 0.825631 0
M  V30 1507 C 142.057 -1.78565 -0.625406 0
M  V30 1508 O 141.4 -1.13918 -1.44113 0
M  V30 1509 C 141.462 -3.40206 1.16191 0
M  V30 1510 C 141.126 -3.74812 2.61467 0
M  V30 1511 C 142.123 -3.75367 3.59716 0
M  V30 1512 C 139.808 -4.0495 2.97189 0
M  V30 1513 C 141.802 -4.05574 4.9172 0
M  V30 1514 C 139.489 -4.34821 4.29388 0
M  V30 1515 C 140.487 -4.35116 5.26463 0
M  V30 1516 O 140.175 -4.64267 6.56286 0
M  V30 1517 H 139.907 -0.606894 0.297751 0
M  V30 1518 H 142.461 -1.46438 1.44031 0
M  V30 1519 H 140.691 -3.8358 0.490214 0
M  V30 1520 H 142.38 -3.96018 0.890193 0
M  V30 1521 H 143.146 -3.52176 3.33462 0
M  V30 1522 H 139.025 -4.03876 2.22273 0
M  V30 1523 H 142.569 -4.05719 5.67484 0
M  V30 1524 H 138.466 -4.5748 4.55392 0
M  V30 1525 H 139.234 -4.82007 6.61522 0
M  V30 1526 N 141.898 -0.863906 -1.31812 0
M  V30 1527 C 142.83 -0.272485 -2.27575 0
M  V30 1528 C 143.843 0.56104 -1.52827 0
M  V30 1529 O 145.032 0.384021 -1.7432 0
M  V30 1530 C 142.132 0.63283 -3.32939 0
M  V30 1531 C 141.305 -0.166902 -4.37081 0
M  V30 1532 C 140.364 0.665608 -5.21973 0
M  V30 1533 O 139.39 0.0958091 -5.69119 0
M  V30 1534 N 140.592 1.9787 -5.45736 0
M  V30 1535 H 143.357 -1.0954 -2.78964 0
M  V30 1536 H 140.918 -0.724791 -1.4477 0
M  V30 1537 H 142.91 1.19532 -3.86645 0
M  V30 1538 H 141.48 1.35642 -2.81638 0
M  V30 1539 H 140.7 -0.910838 -3.83533 0
M  V30 1540 H 141.988 -0.715874 -5.03739 0
M  V30 1541 H 141.386 2.46484 -5.09178 0
M  V30 1542 H 139.943 2.48911 -6.024 0
M  V30 1543 N 143.376 1.44774 -0.622745 0
M  V30 1544 C 144.601 2.06999 -0.128968 0
M  V30 1545 C 145.026 1.4617 1.1839 0
M  V30 1546 O 144.384 0.560007 1.72434 0
M  V30 1547 C 144.432 3.60595 -0.0188351 0
M  V30 1548 O 143.536 3.99398 1.02739 0
M  V30 1549 H 142.877 0.659047 -0.0809544 0
M  V30 1550 H 145.407 1.85784 -0.85705 0
M  V30 1551 H 145.417 4.07627 0.174476 0
M  V30 1552 H 144.092 4.04252 -0.977384 0
M  V30 1553 H 142.669 3.64011 0.809326 0
M  V30 1554 N 144.854 0.36279 1.53368 0
M  V30 1555 C 146.102 -0.227326 2.00817 0
M  V30 1556 C 146.423 -1.49511 1.25186 0
M  V30 1557 O 145.693 -1.92482 0.364348 0
M  V30 1558 H 144.273 -0.0869923 0.741917 0
M  V30 1559 H 146.935 0.488381 1.88682 0
M  V30 1560 H 146.031 -0.456273 3.08747 0
M  V30 1561 N 146.332 -1.57332 0.0918853 0
M  V30 1562 C 147.58 -1.93853 -0.571446 0
M  V30 1563 C 147.901 -0.974212 -1.6892 0
M  V30 1564 O 147.171 -0.0257254 -1.95883 0
M  V30 1565 H 145.751 -0.715666 -0.214082 0
M  V30 1566 H 148.413 -1.94287 0.154464 0
M  V30 1567 H 147.509 -2.96191 -0.983729 0
M  V30 1568 N 147.81 0.181792 -1.56548 0
M  V30 1569 C 149.226 0.53316 -1.50431 0
M  V30 1570 C 149.426 1.85184 -0.794297 0
M  V30 1571 O 148.482 2.50058 -0.350318 0
M  V30 1572 C 149.795 0.575597 -2.9514 0
M  V30 1573 C 151.343 0.663519 -3.05886 0
M  V30 1574 C 151.818 0.736946 -4.52032 0
M  V30 1575 N 153.309 0.800118 -4.56237 0
M  V30 1576 C 154.044 0.877327 -5.66649 0
M  V30 1577 N 153.54 0.916016 -6.86718 0
M  V30 1578 N 155.333 0.915542 -5.54594 0
M  V30 1579 H 147.484 -0.683025 -2.01118 0
M  V30 1580 H 149.747 -0.244988 -0.915797 0
M  V30 1581 H 149.453 -0.324482 -3.502 0
M  V30 1582 H 149.327 1.42572 -3.49218 0
M  V30 1583 H 151.714 1.55403 -2.50867 0
M  V30 1584 H 151.795 -0.21307 -2.54911 0
M  V30 1585 H 151.439 -0.149262 -5.07681 0
M  V30 1586 H 151.369 1.62953 -5.00753 0
M  V30 1587 H 153.86 0.778926 -3.69785 0
M  V30 1588 H 154.173 0.975813 -7.66614 0
M  V30 1589 H 152.518 0.884469 -6.89349 0
M  V30 1590 H 155.709 0.882245 -4.59711 0
M  V30 1591 H 155.882 0.972253 -6.40665 0
M  V30 1592 N 149.288 1.51039 0.449983 0
M  V30 1593 C 150.218 1.74379 1.55288 0
M  V30 1594 C 151.199 0.593236 1.5942 0
M  V30 1595 O 152.384 0.834625 1.7535 0
M  V30 1596 C 149.514 1.85728 2.93466 0
M  V30 1597 C 148.468 3.01078 3.04197 0
M  V30 1598 C 147.794 2.97595 4.44231 0
M  V30 1599 C 149.094 4.41254 2.7945 0
M  V30 1600 H 150.788 2.66725 1.36008 0
M  V30 1601 H 148.334 1.2835 0.652864 0
M  V30 1602 H 150.287 2.0064 3.70569 0
M  V30 1603 H 149.011 0.900207 3.13949 0
M  V30 1604 H 147.67 2.85851 2.29531 0
M  V30 1605 H 147.318 1.99691 4.61663 0
M  V30 1606 H 147.018 3.75046 4.52343 0
M  V30 1607 H 148.542 3.14583 5.23326 0
M  V30 1608 H 149.956 4.56897 3.46292 0
M  V30 1609 H 148.353 5.20315 2.98985 0
M  V30 1610 H 149.423 4.52164 1.75144 0
M  V30 1611 N 150.766 -0.704594 1.40972 0
M  V30 1612 C 152.182 -1.01406 1.23244 0
M  V30 1613 C 152.382 -2.01169 0.115399 0
M  V30 1614 O 151.438 -2.47021 -0.523147 0
M  V30 1615 C 152.751 -1.54728 2.57836 0
M  V30 1616 C 154.299 -1.66658 2.64942 0
M  V30 1617 C 154.774 -2.23383 3.9983 0
M  V30 1618 N 156.265 -2.30756 4.01629 0
M  V30 1619 C 157 -2.75655 5.02794 0
M  V30 1620 N 156.496 -3.20225 6.14352 0
M  V30 1621 N 158.289 -2.75138 4.90159 0
M  V30 1622 H 150.44 -0.0435285 2.12355 0
M  V30 1623 H 152.703 -0.0818951 0.944456 0
M  V30 1624 H 152.409 -0.888832 3.40283 0
M  V30 1625 H 152.283 -2.53084 2.79693 0
M  V30 1626 H 154.67 -2.31617 1.8286 0
M  V30 1627 H 154.751 -0.668717 2.46904 0
M  V30 1628 H 154.395 -1.59043 4.82357 0
M  V30 1629 H 154.325 -3.23904 4.15203 0
M  V30 1630 H 156.816 -1.99291 3.21079 0
M  V30 1631 H 157.129 -3.53084 6.87424 0
M  V30 1632 H 155.474 -3.18156 6.17901 0
M  V30 1633 H 158.665 -2.39661 4.02095 0
M  V30 1634 H 158.838 -3.09812 5.6914 0
M  V30 1635 N 152.244 -1.26651 -0.937939 0
M  V30 1636 C 153.66 -1.03834 -1.21205 0
M  V30 1637 C 153.86 0.234502 -2.00131 0
M  V30 1638 O 152.916 0.942767 -2.3424 0
M  V30 1639 C 154.229 -2.27167 -1.97017 0
M  V30 1640 C 155.777 -2.32101 -2.09996 0
M  V30 1641 C 156.252 -3.55136 -2.8921 0
M  V30 1642 N 157.743 -3.55632 -2.96783 0
M  V30 1643 C 158.478 -4.475 -3.58512 0
M  V30 1644 N 157.974 -5.4966 -4.21717 0
M  V30 1645 N 159.767 -4.35145 -3.55816 0
M  V30 1646 H 151.918 -2.08398 -0.410391 0
M  V30 1647 H 154.181 -0.916031 -0.244114 0
M  V30 1648 H 153.887 -3.19765 -1.46434 0
M  V30 1649 H 153.761 -2.31672 -2.97671 0
M  V30 1650 H 156.148 -1.40015 -2.59769 0
M  V30 1651 H 156.229 -2.31605 -1.08594 0
M  V30 1652 H 155.873 -4.47553 -2.40123 0
M  V30 1653 H 155.803 -3.5288 -3.90875 0
M  V30 1654 H 158.294 -2.81743 -2.51852 0
M  V30 1655 H 158.607 -6.15943 -4.66727 0
M  V30 1656 H 156.952 -5.53514 -4.20294 0
M  V30 1657 H 160.143 -3.5455 -3.05634 0
M  V30 1658 H 160.316 -5.06934 -4.03636 0
M  V30 1659 N 153.722 1.14298 -1.08507 0
M  V30 1660 C 155.133 1.66926 -0.836227 0
M  V30 1661 C 155.484 1.85576 0.63686 0
M  V30 1662 O 154.609 1.56767 1.49175 0
M  V30 1663 C 155.204 3.03219 -1.51142 0
M  V30 1664 C 153.763 3.52876 -1.30979 0
M  V30 1665 C 152.91 2.2833 -1.57356 0
M  V30 1666 H 155.861 0.983491 -1.24552 0
M  V30 1667 H 155.882 3.68726 -0.939211 0
M  V30 1668 H 155.394 2.89612 -2.58353 0
M  V30 1669 H 153.495 3.71703 -0.258429 0
M  V30 1670 H 153.608 4.33586 -2.03814 0
M  V30 1671 H 151.972 2.34454 -0.995164 0
M  V30 1672 H 152.755 2.17298 -2.65775 0
M  V30 1673 N 155.201 0.870884 1.31352 0
M  V30 1674 C 156.447 0.482987 1.96965 0
M  V30 1675 C 156.78 -0.962462 1.68672 0
M  V30 1676 O 156.055 -1.6779 0.98371 0
M  V30 1677 C 156.338 0.741752 3.52378 0
M  V30 1678 C 156.191 2.2368 3.9024 0
M  V30 1679 C 157.51 0.208838 4.39604 0
M  V30 1680 H 154.629 0.176955 0.715441 0
M  V30 1681 H 157.271 1.09229 1.55464 0
M  V30 1682 H 155.421 0.223149 3.87859 0
M  V30 1683 H 157.093 2.82273 3.64856 0
M  V30 1684 H 155.336 2.70901 3.38814 0
M  V30 1685 H 156.007 2.3685 4.98604 0
M  V30 1686 H 158.483 0.652529 4.10952 0
M  V30 1687 H 157.359 0.419336 5.47296 0
M  V30 1688 H 157.62 -0.889275 4.33064 0
M  V30 1689 N 156.679 -1.44442 0.630414 0
M  V30 1690 C 157.627 -2.32437 -0.0871428 0
M  V30 1691 C 158.621 -1.47304 -0.836525 0
M  V30 1692 O 159.827 -1.63653 -0.749506 0
M  V30 1693 H 156.202 -0.750533 -0.0469495 0
M  V30 1694 H 158.173 -2.90709 0.673096 0
M  V30 1695 C 156.922 -3.31288 -1.05563 0
M  V30 1696 H 156.245 -3.96805 -0.488426 0
M  V30 1697 H 157.685 -3.9554 -1.52721 0
M  V30 1698 C 156.144 -2.6016 -2.14052 0
M  V30 1699 O 156.674 -2.39997 -3.22124 0
M  V30 1700 N 154.88 -2.19911 -1.89967 0
M  V30 1701 H 154.427 -2.36509 -1.02085 0
M  V30 1702 H 154.385 -1.72646 -2.62756 0
M  V30 1703 N 158.157 -0.370918 -1.53173 0
M  V30 1704 C 159.403 0.217423 -2.01631 0
M  V30 1705 C 159.736 1.47983 -1.25756 0
M  V30 1706 O 159.011 1.91274 -0.352764 0
M  V30 1707 C 159.294 0.503982 -3.56556 0
M  V30 1708 C 159.147 -0.77243 -4.43118 0
M  V30 1709 C 160.466 1.30234 -4.20389 0
M  V30 1710 H 157.585 0.0775486 -0.732909 0
M  V30 1711 H 160.227 -0.496863 -1.83388 0
M  V30 1712 H 158.377 1.11248 -3.72231 0
M  V30 1713 H 160.049 -1.4098 -4.39229 0
M  V30 1714 H 158.292 -1.39167 -4.10871 0
M  V30 1715 H 158.963 -0.526815 -5.4948 0
M  V30 1716 H 161.439 0.787546 -4.08579 0
M  V30 1717 H 160.315 1.47158 -5.28806 0
M  V30 1718 H 160.576 2.31237 -3.76805 0
M  V30 1719 N 159.635 1.57281 -0.100228 0
M  V30 1720 C 161.046 1.81725 0.428107 0
M  V30 1721 C 161.397 1.01619 1.67833 0
M  V30 1722 O 160.522 0.247098 2.14985 0
M  V30 1723 C 161.117 3.29617 0.78347 0
M  V30 1724 C 159.676 3.54808 1.25653 0
M  V30 1725 C 158.823 2.76118 0.255752 0
M  V30 1726 H 161.774 1.55324 -0.325608 0
M  V30 1727 H 161.795 3.4322 1.64256 0
M  V30 1728 H 161.307 3.87893 -0.12665 0
M  V30 1729 H 159.408 3.01868 2.18418 0
M  V30 1730 H 159.521 4.63443 1.21482 0
M  V30 1731 H 157.885 2.43745 0.738956 0
M  V30 1732 H 158.668 3.37145 -0.647136 0
M  V30 1733 N 161.113 -0.173488 1.56642 0
M  V30 1734 C 162.043 -1.2171 1.99271 0
M  V30 1735 C 163.024 -1.46289 0.867959 0
M  V30 1736 O 164.209 -1.5766 1.13388 0
M  V30 1737 C 161.339 -2.55651 2.35074 0
M  V30 1738 C 160.293 -2.45645 3.50489 0
M  V30 1739 C 159.619 -3.84056 3.72028 0
M  V30 1740 C 160.919 -1.96302 4.84007 0
M  V30 1741 H 162.613 -0.86275 2.867 0
M  V30 1742 H 160.159 -0.413571 1.37933 0
M  V30 1743 H 162.112 -3.2886 2.63494 0
M  V30 1744 H 160.836 -2.92869 1.44552 0
M  V30 1745 H 159.495 -1.7489 3.22194 0
M  V30 1746 H 159.143 -4.18664 2.788 0
M  V30 1747 H 158.843 -3.7823 4.49684 0
M  V30 1748 H 160.367 -4.58854 4.02846 0
M  V30 1749 H 161.781 -2.59284 5.11317 0
M  V30 1750 H 160.178 -2.01429 5.65284 0
M  V30 1751 H 161.248 -0.917226 4.76146 0
M  V30 1752 N 162.591 -1.51276 -0.441967 0
M  V30 1753 C 163.868 -1.54252 -1.20273 0
M  V30 1754 C 164.248 -0.30408 -2.08898 0
M  V30 1755 O 163.596 0.711084 -2.17154 0
M  V30 1756 C 163.806 -2.85406 -2.00859 0
M  V30 1757 C 165.154 -3.37181 -2.58059 0
M  V30 1758 O 166.178 -2.86925 -2.11074 0
M  V30 1759 O 165.037 -4.24858 -3.43741 0
M  V30 1760 H 162.131 -0.619969 -0.547328 0
M  V30 1761 H 164.677 -1.63586 -0.451413 0
M  V30 1762 H 163.449 -3.67003 -1.35736 0
M  V30 1763 H 163.072 -2.79213 -2.83065 0
M  V30 1764 N 164.069 0.697108 -1.41344 0
M  V30 1765 C 165.002 1.82134 -1.37486 0
M  V30 1766 C 165.98 1.60784 -0.242351 0
M  V30 1767 O 167.164 1.83553 -0.429012 0
M  V30 1768 C 164.291 3.18788 -1.14421 0
M  V30 1769 C 163.337 3.58932 -2.3037 0
M  V30 1770 S 164.17 3.63916 -3.92843 0
M  V30 1771 C 165.326 5.03298 -3.72078 0
M  V30 1772 H 165.559 1.85129 -2.32625 0
M  V30 1773 H 163.092 0.865671 -1.2785 0
M  V30 1774 H 165.05 3.97677 -1.018 0
M  V30 1775 H 163.711 3.13404 -0.20905 0
M  V30 1776 H 162.904 4.58202 -2.09922 0
M  V30 1777 H 162.506 2.87347 -2.39391 0
M  V30 1778 H 164.798 5.90753 -3.31688 0
M  V30 1779 H 165.741 5.28788 -4.70945 0
M  V30 1780 H 166.149 4.74764 -3.05384 0
M  V30 1781 N 165.547 1.27147 0.931209 0
M  V30 1782 C 166.794 1.13278 1.67852 0
M  V30 1783 C 167.122 -0.32204 1.91815 0
M  V30 1784 O 166.377 -1.25224 1.50391 0
M  V30 1785 C 166.676 1.8579 3.05314 0
M  V30 1786 C 166.342 3.35657 3.01073 0
M  V30 1787 C 165.004 3.76536 2.99623 0
M  V30 1788 C 167.356 4.31299 2.92627 0
M  V30 1789 C 164.684 5.11426 2.87506 0
M  V30 1790 C 167.036 5.66242 2.82051 0
M  V30 1791 C 165.7 6.06418 2.7895 0
M  V30 1792 H 164.97 0.414515 0.614214 0
M  V30 1793 H 167.617 1.57712 1.08624 0
M  V30 1794 H 165.922 1.33854 3.68226 0
M  V30 1795 H 167.619 1.72491 3.62005 0
M  V30 1796 H 164.209 3.03146 3.02986 0
M  V30 1797 H 168.393 4.00692 2.92848 0
M  V30 1798 H 163.649 5.41705 2.83489 0
M  V30 1799 H 167.823 6.40026 2.74481 0
M  V30 1800 H 165.45 7.10895 2.69318 0
M  V30 1801 N 167.025 -1.13721 1.09112 0
M  V30 1802 C 168.25 -1.89314 0.847053 0
M  V30 1803 C 168.675 -1.78416 -0.595774 0
M  V30 1804 O 168.033 -1.12942 -1.41823 0
M  V30 1805 C 168.081 -3.3701 1.28284 0
M  V30 1806 O 167.185 -4.10054 0.439267 0
M  V30 1807 H 166.526 -0.588745 0.307044 0
M  V30 1808 H 169.056 -1.43902 1.45442 0
M  V30 1809 H 169.066 -3.87834 1.26683 0
M  V30 1810 H 167.741 -3.4426 2.33363 0
M  V30 1811 H 166.318 -3.69266 0.519312 0
M  V30 1812 N 168.503 -0.877838 -1.30888 0
M  V30 1813 C 169.413 -0.343096 -2.32078 0
M  V30 1814 C 170.429 0.551022 -1.65045 0
M  V30 1815 O 171.605 0.445854 -1.96403 0
M  V30 1816 C 168.67 0.439905 -3.43898 0
M  V30 1817 C 167.731 -0.483111 -4.26573 0
M  V30 1818 C 166.964 0.262616 -5.33053 0
M  V30 1819 O 167.187 1.48967 -5.50604 0
M  V30 1820 O 166.121 -0.383593 -6.00676 0
M  V30 1821 H 169.947 -1.18203 -2.79753 0
M  V30 1822 H 167.532 -0.64145 -1.34929 0
M  V30 1823 H 169.414 0.883504 -4.12034 0
M  V30 1824 H 168.089 1.25526 -2.98371 0
M  V30 1825 H 166.996 -0.975374 -3.61161 0
M  V30 1826 H 168.329 -1.26427 -4.75686 0
M  V30 1827 N 169.982 1.44106 -0.638065 0
M  V30 1828 C 170.892 2.34513 0.0637334 0
M  V30 1829 C 171.908 1.53018 0.828346 0
M  V30 1830 O 173.084 1.85723 0.779036 0
M  V30 1831 C 170.149 3.31095 1.02844 0
M  V30 1832 C 169.21 4.28497 0.26244 0
M  V30 1833 C 168.443 5.20465 1.1812 0
M  V30 1834 O 168.666 5.16514 2.42011 0
M  V30 1835 O 167.6 5.98251 0.661774 0
M  V30 1836 H 171.426 2.95989 -0.68003 0
M  V30 1837 H 169.011 1.43994 -0.398252 0
M  V30 1838 H 170.893 3.90526 1.58327 0
M  V30 1839 H 169.568 2.72144 1.7527 0
M  V30 1840 H 168.475 3.72592 -0.335602 0
M  V30 1841 H 169.808 4.90388 -0.421936 0
M  V30 1842 N 171.46 0.379036 1.52974 0
M  V30 1843 C 172.709 -0.207612 2.00629 0
M  V30 1844 C 173.022 -1.48758 1.27006 0
M  V30 1845 O 174.228 -2.15365 1.65318 0
M  V30 1846 C 172.684 -0.42053 3.57435 0
M  V30 1847 C 172.292 0.845587 4.39948 0
M  V30 1848 C 174.036 -0.964102 4.13407 0
M  V30 1849 C 171.943 0.601513 5.88333 0
M  V30 1850 H 170.873 -0.0813591 0.749598 0
M  V30 1851 H 173.524 0.499853 1.76561 0
M  V30 1852 H 171.906 -1.18959 3.7771 0
M  V30 1853 H 173.08 1.61848 4.31442 0
M  V30 1854 H 171.395 1.31336 3.95145 0
M  V30 1855 H 173.992 -1.16225 5.21916 0
M  V30 1856 H 174.335 -1.93019 3.68849 0
M  V30 1857 H 174.868 -0.25487 3.96983 0
M  V30 1858 H 171.607 1.53831 6.37194 0
M  V30 1859 H 171.127 -0.132628 5.99653 0
M  V30 1860 H 172.806 0.232134 6.46583 0
M  V30 1861 N 172.938 -1.57226 0.108567 0
M  V30 1862 C 173.885 -2.14756 -0.845481 0
M  V30 1863 C 174.855 -1.06971 -1.27068 0
M  V30 1864 O 176.04 -1.34827 -1.35005 0
M  V30 1865 C 173.18 -2.74298 -2.09415 0
M  V30 1866 C 172.293 -3.96358 -1.71826 0
M  V30 1867 C 171.428 -4.44021 -2.9158 0
M  V30 1868 C 170.467 -5.58637 -2.50181 0
M  V30 1869 N 169.604 -6.01091 -3.62814 0
M  V30 1870 H 174.444 -2.95961 -0.348035 0
M  V30 1871 H 171.981 -1.46226 -0.160106 0
M  V30 1872 H 173.939 -3.06945 -2.82561 0
M  V30 1873 H 172.569 -1.95801 -2.56636 0
M  V30 1874 H 171.621 -3.69939 -0.885947 0
M  V30 1875 H 172.933 -4.79504 -1.37394 0
M  V30 1876 H 172.087 -4.78522 -3.72963 0
M  V30 1877 H 170.826 -3.59803 -3.29231 0
M  V30 1878 H 169.831 -5.23751 -1.67228 0
M  V30 1879 H 171.056 -6.44613 -2.13659 0
M  V30 1880 H 169.002 -5.19817 -4.00158 0
M  V30 1881 H 168.919 -6.79066 -3.32273 0
M  V30 1882 H 170.187 -6.40227 -4.44668 0
M  V30 1883 N 174.416 0.165178 -1.56732 0
M  V30 1884 C 175.663 0.880807 -1.8234 0
M  V30 1885 C 175.991 1.81977 -0.686621 0
M  V30 1886 O 175.246 1.92971 0.325697 0
M  V30 1887 C 175.545 1.70405 -3.1416 0
M  V30 1888 C 175.211 0.913475 -4.4155 0
M  V30 1889 C 173.873 0.695303 -4.7615 0
M  V30 1890 C 176.225 0.359349 -5.1996 0
M  V30 1891 C 173.553 -0.0879947 -5.86634 0
M  V30 1892 C 175.905 -0.410893 -6.31264 0
M  V30 1893 C 174.569 -0.639808 -6.64427 0
M  V30 1894 H 173.839 0.32231 -0.667231 0
M  V30 1895 H 176.486 0.145402 -1.90947 0
M  V30 1896 H 174.791 2.50903 -3.00923 0
M  V30 1897 H 176.488 2.26091 -3.31186 0
M  V30 1898 H 173.078 1.09357 -4.14414 0
M  V30 1899 H 177.262 0.515228 -4.93618 0
M  V30 1900 H 172.518 -0.27503 -6.10781 0
M  V30 1901 H 176.692 -0.847494 -6.91224 0
M  V30 1902 H 174.319 -1.24864 -7.49875 0
M  V30 1903 N 175.894 1.51508 0.433938 0
M  V30 1904 C 177.124 1.67914 1.20369 0
M  V30 1905 C 177.532 0.377461 1.85397 0
M  V30 1906 O 176.875 -0.654255 1.71654 0
M  V30 1907 C 176.937 2.74045 2.32679 0
M  V30 1908 C 176.601 4.16543 1.87991 0
M  V30 1909 C 177.598 5.01211 1.38145 0
M  V30 1910 C 175.283 4.6266 1.95579 0
M  V30 1911 C 177.277 6.30056 0.964774 0
M  V30 1912 C 174.964 5.91501 1.53523 0
M  V30 1913 C 175.962 6.75027 1.04055 0
M  V30 1914 O 175.65 8.01459 0.625964 0
M  V30 1915 H 175.382 0.566578 0.368735 0
M  V30 1916 H 177.936 1.98709 0.51999 0
M  V30 1917 H 176.166 2.38572 3.04336 0
M  V30 1918 H 177.855 2.79295 2.94532 0
M  V30 1919 H 178.621 4.66783 1.31675 0
M  V30 1920 H 174.5 3.97767 2.33029 0
M  V30 1921 H 178.044 6.95202 0.57796 0
M  V30 1922 H 173.941 6.25442 1.59665 0
M  V30 1923 H 174.709 8.15043 0.751509 0
M  V30 1924 N 177.372 -0.689602 1.41712 0
M  V30 1925 C 178.282 -1.83314 1.46401 0
M  V30 1926 C 179.298 -1.7036 0.35405 0
M  V30 1927 O 180.474 -1.92171 0.602692 0
M  V30 1928 C 177.539 -3.19344 1.34982 0
M  V30 1929 C 176.6 -3.44363 2.56344 0
M  V30 1930 C 175.833 -4.73904 2.45461 0
M  V30 1931 O 176.056 -5.508 1.48241 0
M  V30 1932 O 174.99 -4.99839 3.35328 0
M  V30 1933 H 178.816 -1.82314 2.42889 0
M  V30 1934 H 176.401 -0.843438 1.23315 0
M  V30 1935 H 178.283 -4.00547 1.3092 0
M  V30 1936 H 176.958 -3.21014 0.41612 0
M  V30 1937 H 175.865 -2.63067 2.65982 0
M  V30 1938 H 177.198 -3.47512 3.48563 0
M  V30 1939 N 178.85 -1.27639 -0.924453 0
M  V30 1940 C 179.78 -1.13166 -2.04244 0
M  V30 1941 C 180.761 -0.032256 -1.70069 0
M  V30 1942 O 181.946 -0.207328 -1.9309 0
M  V30 1943 C 179.076 -0.781496 -3.38393 0
M  V30 1944 C 178.03 -1.83449 -3.86692 0
M  V30 1945 C 177.356 -1.33822 -5.17683 0
M  V30 1946 C 178.656 -3.23917 -4.09726 0
M  V30 1947 H 180.35 -2.06689 -2.1661 0
M  V30 1948 H 177.896 -0.995136 -1.04082 0
M  V30 1949 H 179.849 -0.667057 -4.16087 0
M  V30 1950 H 178.573 0.189439 -3.2605 0
M  V30 1951 H 177.232 -1.93789 -3.11193 0
M  V30 1952 H 176.88 -0.35665 -5.01734 0
M  V30 1953 H 176.58 -2.04224 -5.50968 0
M  V30 1954 H 178.104 -1.23679 -5.97943 0
M  V30 1955 H 179.518 -3.16559 -4.77978 0
M  V30 1956 H 177.915 -3.92059 -4.54324 0
M  V30 1957 H 178.985 -3.68729 -3.14908 0
M  V30 1958 N 180.328 1.1314 -1.09713 0
M  V30 1959 C 181.576 1.84119 -0.833338 0
M  V30 1960 C 181.897 1.84097 0.642904 0
M  V30 1961 O 181.167 1.29881 1.46655 0
M  V30 1962 H 179.747 0.681766 -0.305293 0
M  V30 1963 H 182.409 1.37038 -1.38588 0
M  V30 1964 H 181.505 2.88543 -1.18951 0
M  V30 1965 N 181.806 0.884767 1.30421 0
M  V30 1966 C 182.716 0.355398 2.31892 0
M  V30 1967 C 183.732 -0.542261 1.65335 0
M  V30 1968 O 184.908 -0.435432 1.96637 0
M  V30 1969 C 181.973 -0.421661 3.44126 0
M  V30 1970 C 181.034 0.505727 4.26311 0
M  V30 1971 C 180.267 -0.234343 5.33185 0
M  V30 1972 O 180.49 -1.46045 5.51386 0
M  V30 1973 O 179.424 0.415443 6.00465 0
M  V30 1974 H 183.25 1.19685 2.79122 0
M  V30 1975 H 180.835 0.648596 1.34587 0
M  V30 1976 H 182.717 -0.861641 4.12497 0
M  V30 1977 H 181.392 -1.23942 2.99032 0
M  V30 1978 H 180.299 0.994513 3.60639 0
M  V30 1979 H 181.632 1.28948 4.75009 0
M  V30 1980 N 183.284 -1.43765 0.645699 0
M  V30 1981 C 184.194 -2.34544 -0.0512957 0
M  V30 1982 C 185.21 -1.53455 -0.82022 0
M  V30 1983 O 186.386 -1.86133 -0.769176 0
M  V30 1984 C 183.451 -3.31636 -1.01087 0
M  V30 1985 C 182.512 -4.2863 -0.239712 0
M  V30 1986 C 181.745 -5.21084 -1.15358 0
M  V30 1987 O 181.968 -5.1779 -2.39269 0
M  V30 1988 O 180.902 -5.98593 -0.630038 0
M  V30 1989 H 184.728 -2.95624 0.695718 0
M  V30 1990 H 182.313 -1.43781 0.405882 0
M  V30 1991 H 184.195 -3.9136 -1.56254 0
M  V30 1992 H 182.87 -2.73069 -1.73824 0
M  V30 1993 H 181.777 -3.72408 0.355356 0
M  V30 1994 H 183.11 -4.90157 0.447936 0
M  V30 1995 N 184.763 -0.387143 -1.52771 0
M  V30 1996 C 185.726 0.436939 -2.24997 0
M  V30 1997 C 186.726 0.991991 -1.26555 0
M  V30 1998 O 187.916 0.874335 -1.50669 0
M  V30 1999 C 185.048 1.61281 -3.00335 0
M  V30 2000 H 186.241 -0.195365 -2.99263 0
M  V30 2001 H 183.794 -0.139218 -1.55679 0
M  V30 2002 H 184.529 2.2826 -2.30364 0
M  V30 2003 H 184.314 1.22154 -3.72587 0
M  V30 2004 H 185.804 2.19629 -3.5518 0
M  V30 2005 N 186.241 1.57166 -0.116904 0
M  V30 2006 C 187.174 2.10912 0.871291 0
M  V30 2007 C 188.152 1.025 1.26224 0
M  V30 2008 O 189.336 1.3014 1.36366 0
M  V30 2009 C 186.463 2.6041 2.16574 0
M  V30 2010 C 185.509 3.80687 1.92302 0
M  V30 2011 S 186.342 5.23199 1.14119 0
M  V30 2012 C 187.498 5.76064 2.44748 0
M  V30 2013 H 187.731 2.94401 0.414138 0
M  V30 2014 H 185.264 1.54096 0.096829 0
M  V30 2015 H 187.222 2.89583 2.9095 0
M  V30 2016 H 185.883 1.77106 2.59408 0
M  V30 2017 H 185.076 4.13462 2.8821 0
M  V30 2018 H 184.678 3.5212 1.26047 0
M  V30 2019 H 186.97 5.8566 3.406 0
M  V30 2020 H 187.913 6.74184 2.16521 0
M  V30 2021 H 188.321 5.04117 2.54019 0
M  V30 2022 N 187.719 -0.156864 1.56817 0
M  V30 2023 C 188.629 -1.2136 2.00771 0
M  V30 2024 C 189.645 -1.47598 0.921459 0
M  V30 2025 O 190.821 -1.59462 1.2302 0
M  V30 2026 C 187.886 -2.52943 2.37109 0
M  V30 2027 C 186.947 -2.34439 3.59634 0
M  V30 2028 C 186.18 -3.59748 3.94229 0
M  V30 2029 O 186.403 -4.65526 3.29609 0
M  V30 2030 O 185.337 -3.52998 4.8752 0
M  V30 2031 H 189.163 -0.870468 2.90958 0
M  V30 2032 H 186.748 -0.36484 1.44877 0
M  V30 2033 H 188.63 -3.30538 2.61386 0
M  V30 2034 H 187.305 -2.86806 1.5008 0
M  V30 2035 H 186.212 -1.54828 3.40557 0
M  V30 2036 H 187.545 -2.05496 4.4725 0
M  V30 2037 N 189.197 -1.51736 -0.425897 0
M  V30 2038 C 190.144 -1.73875 -1.51776 0
M  V30 2039 C 191.114 -0.580702 -1.55618 0
M  V30 2040 O 192.299 -0.81641 -1.72451 0
M  V30 2041 C 189.439 -1.88012 -2.89388 0
M  V30 2042 C 188.552 -3.15606 -2.94986 0
M  V30 2043 C 187.687 -3.20271 -4.23793 0
M  V30 2044 C 186.726 -4.42134 -4.23302 0
M  V30 2045 N 185.863 -4.44284 -5.43651 0
M  V30 2046 H 190.703 -2.67071 -1.32201 0
M  V30 2047 H 188.24 -1.32351 -0.642008 0
M  V30 2048 H 190.198 -1.9419 -3.69251 0
M  V30 2049 H 188.828 -0.98213 -3.07496 0
M  V30 2050 H 187.88 -3.18681 -2.07717 0
M  V30 2051 H 189.192 -4.05486 -2.90486 0
M  V30 2052 H 188.346 -3.25428 -5.12036 0
M  V30 2053 H 187.085 -2.28299 -4.30965 0
M  V30 2054 H 186.09 -4.3714 -3.3345 0
M  V30 2055 H 187.315 -5.35382 -4.17783 0
M  V30 2056 H 185.261 -3.55188 -5.51523 0
M  V30 2057 H 185.178 -5.27988 -5.41078 0
M  V30 2058 H 186.446 -4.53649 -6.33895 0
M  V30 2059 N 190.675 0.682077 -1.42076 0
M  V30 2060 C 191.922 1.44215 -1.42156 0
M  V30 2061 C 192.25 1.94468 -0.0354186 0
M  V30 2062 O 191.505 1.70816 0.955002 0
M  V30 2063 C 191.804 2.66036 -2.38662 0
M  V30 2064 C 191.47 2.34366 -3.85206 0
M  V30 2065 C 190.132 2.25439 -4.25124 0
M  V30 2066 C 192.484 2.08513 -4.77673 0
M  V30 2067 C 189.812 1.88775 -5.55501 0
M  V30 2068 C 192.164 1.73354 -6.08384 0
M  V30 2069 C 190.828 1.62933 -6.47309 0
M  V30 2070 H 190.098 0.527718 -0.520187 0
M  V30 2071 H 192.745 0.778387 -1.74967 0
M  V30 2072 H 191.05 3.3741 -1.99152 0
M  V30 2073 H 192.747 3.24205 -2.35991 0
M  V30 2074 H 189.337 2.42213 -3.53597 0
M  V30 2075 H 193.521 2.14346 -4.47626 0
M  V30 2076 H 188.777 1.7927 -5.84527 0
M  V30 2077 H 192.951 1.52373 -6.79526 0
M  V30 2078 H 190.578 1.34292 -7.48244 0
M  V30 2079 N 192.153 1.28127 0.917671 0
M  V30 2080 C 193.569 1.05749 1.19538 0
M  V30 2081 C 193.769 -0.202633 2.00479 0
M  V30 2082 O 192.825 -0.905382 2.3571 0
M  V30 2083 C 194.138 2.30273 1.93378 0
M  V30 2084 C 195.686 2.35412 2.06277 0
M  V30 2085 C 196.161 3.59692 2.83524 0
M  V30 2086 N 197.652 3.60309 2.91087 0
M  V30 2087 C 198.387 4.53147 3.51348 0
M  V30 2088 N 197.883 5.563 4.12919 0
M  V30 2089 N 199.676 4.40751 3.48849 0
M  V30 2090 H 191.827 2.09024 0.377184 0
M  V30 2091 H 194.09 0.919798 0.22951 0
M  V30 2092 H 193.796 3.22055 1.41328 0
M  V30 2093 H 193.67 2.36378 2.93947 0
M  V30 2094 H 196.057 1.4413 2.57508 0
M  V30 2095 H 196.138 2.33304 1.04895 0
M  V30 2096 H 195.782 4.51316 2.32973 0
M  V30 2097 H 195.712 3.59054 3.85211 0
M  V30 2098 H 198.203 2.85714 2.47338 0
M  V30 2099 H 198.516 6.2329 4.56869 0
M  V30 2100 H 196.861 5.60131 4.11435 0
M  V30 2101 H 200.052 3.59367 2.99955 0
M  V30 2102 H 200.225 5.13291 3.9552 0
M  V30 2103 N 193.631 -1.12557 1.10312 0
M  V30 2104 C 194.541 -2.21841 0.763142 0
M  V30 2105 C 195.557 -1.72354 -0.238801 0
M  V30 2106 O 196.733 -2.01249 -0.0778746 0
M  V30 2107 C 193.798 -3.46131 0.198632 0
M  V30 2108 C 192.859 -4.10464 1.25769 0
M  V30 2109 C 192.092 -5.28821 0.72002 0
M  V30 2110 O 192.315 -5.6859 -0.453993 0
M  V30 2111 O 191.249 -5.83437 1.47935 0
M  V30 2112 H 195.075 -2.53312 1.67532 0
M  V30 2113 H 192.66 -1.20867 0.878157 0
M  V30 2114 H 194.542 -4.2125 -0.112401 0
M  V30 2115 H 193.217 -3.16338 -0.686419 0
M  V30 2116 H 192.124 -3.3713 1.62156 0
M  V30 2117 H 193.457 -4.44408 2.11571 0
M  V30 2118 N 195.109 -0.891671 -1.2995 0
M  V30 2119 C 196.386 -0.433307 -1.9074 0
M  V30 2120 C 196.766 1.08646 -1.80995 0
M  V30 2121 O 196.114 1.92476 -1.23147 0
M  V30 2122 C 196.324 -0.938895 -3.36134 0
M  V30 2123 C 197.672 -0.977829 -4.13187 0
M  V30 2124 O 198.696 -0.886015 -3.45005 0
M  V30 2125 O 197.555 -1.11453 -5.35015 0
M  V30 2126 H 194.649 -0.133699 -0.816121 0
M  V30 2127 H 197.195 -0.981011 -1.38471 0
M  V30 2128 H 195.967 -1.98281 -3.37343 0
M  V30 2129 H 195.59 -0.37074 -3.95868 0
M  V30 2130 N 196.587 1.43421 -0.653314 0
M  V30 2131 C 197.497 2.34568 0.0388565 0
M  V30 2132 C 198.513 1.53888 0.81207 0
M  V30 2133 O 199.689 1.86539 0.759294 0
M  V30 2134 C 196.754 3.32167 0.993269 0
M  V30 2135 C 195.815 4.28751 0.216977 0
M  V30 2136 C 195.048 5.21688 1.12593 0
M  V30 2137 O 195.271 5.19052 2.36519 0
M  V30 2138 O 194.205 5.98919 0.598284 0
M  V30 2139 H 198.031 2.95251 -0.711386 0
M  V30 2140 H 195.616 1.43564 -0.413502 0
M  V30 2141 H 197.498 3.92183 1.54176 0
M  V30 2142 H 196.173 2.73987 1.72374 0
M  V30 2143 H 195.08 3.72215 -0.375101 0
M  V30 2144 H 196.413 4.89913 -0.473924 0
M  V30 2145 N 198.065 0.39524 1.52563 0
M  V30 2146 C 199.313 -0.184678 2.01254 0
M  V30 2147 C 199.634 -1.46822 1.28329 0
M  V30 2148 O 198.904 -1.91666 0.405094 0
M  V30 2149 H 197.484 -0.0712355 0.743596 0
M  V30 2150 H 200.146 0.528293 1.87603 0
M  V30 2151 H 199.242 -0.390681 3.09645 0
M  V30 2152 N 199.544 -1.57102 0.125237 0
M  V30 2153 C 200.791 -1.95407 -0.531248 0
M  V30 2154 C 201.119 -1.0089 -1.66287 0
M  V30 2155 O 200.374 -0.0339431 -1.95671 0
M  V30 2156 C 200.673 -3.40096 -1.09862 0
M  V30 2157 C 200.339 -4.50815 -0.0876989 0
M  V30 2158 C 199.001 -4.80824 0.19026 0
M  V30 2159 C 201.353 -5.17724 0.600902 0
M  V30 2160 C 198.681 -5.75058 1.163 0
M  V30 2161 C 201.033 -6.13005 1.56231 0
M  V30 2162 C 199.697 -6.41403 1.8482 0
M  V30 2163 H 198.967 -0.715046 -0.194397 0
M  V30 2164 H 201.614 -1.90373 0.207463 0
M  V30 2165 H 199.919 -3.41855 -1.91422 0
M  V30 2166 H 201.616 -3.6705 -1.61478 0
M  V30 2167 H 198.206 -4.27444 -0.314528 0
M  V30 2168 H 202.39 -4.94691 0.399333 0
M  V30 2169 H 197.646 -5.95362 1.39117 0
M  V30 2170 H 201.82 -6.63934 2.10153 0
M  V30 2171 H 199.447 -7.14229 2.60349 0
M  V30 2172 N 201.022 0.148545 -1.56898 0
M  V30 2173 C 202.271 0.85984 -1.82454 0
M  V30 2174 C 202.584 1.82406 -0.706229 0
M  V30 2175 O 203.79 2.57938 -0.847349 0
M  V30 2176 C 202.246 1.57967 -3.2338 0
M  V30 2177 C 201.854 0.65794 -4.43142 0
M  V30 2178 C 203.598 2.27784 -3.58211 0
M  V30 2179 C 201.505 1.3793 -5.75091 0
M  V30 2180 H 200.435 0.324834 -0.68044 0
M  V30 2181 H 203.086 0.112588 -1.83154 0
M  V30 2182 H 201.468 2.37249 -3.17063 0
M  V30 2183 H 202.642 -0.0995497 -4.60692 0
M  V30 2184 H 200.957 0.0682643 -4.16344 0
M  V30 2185 H 203.554 2.8239 -4.54048 0
M  V30 2186 H 203.897 3.04204 -2.84193 0
M  V30 2187 H 204.43 1.55421 -3.66182 0
M  V30 2188 H 201.169 0.656982 -6.52199 0
M  V30 2189 H 200.689 2.10954 -5.61479 0
M  V30 2190 H 202.368 1.92063 -6.17835 0
M  V30 2191 N 202.5 1.5196 0.417844 0
M  V30 2192 C 203.447 1.74678 1.50852 0
M  V30 2193 C 204.417 0.588947 1.55308 0
M  V30 2194 O 205.602 0.825544 1.72016 0
M  V30 2195 C 202.742 1.89544 2.88387 0
M  V30 2196 C 201.855 3.17166 2.93309 0
M  V30 2197 C 200.99 3.22513 4.22088 0
M  V30 2198 C 200.029 4.44372 4.20951 0
M  V30 2199 N 199.166 4.47161 5.41287 0
M  V30 2200 H 204.006 2.67768 1.30783 0
M  V30 2201 H 201.543 1.32689 0.63498 0
M  V30 2202 H 203.501 1.96146 3.68216 0
M  V30 2203 H 202.131 0.998424 3.06971 0
M  V30 2204 H 201.183 3.19778 2.06024 0
M  V30 2205 H 202.495 4.07021 2.88332 0
M  V30 2206 H 201.649 3.28139 5.10303 0
M  V30 2207 H 200.388 2.30581 4.29748 0
M  V30 2208 H 199.393 4.38902 3.31127 0
M  V30 2209 H 200.618 5.3759 4.14938 0
M  V30 2210 H 198.564 3.58108 5.49632 0
M  V30 2211 H 198.481 5.3085 5.3827 0
M  V30 2212 H 199.749 4.57005 6.3148 0
M  V30 2213 N 203.978 -0.674533 1.42435 0
M  V30 2214 C 204.888 -1.81751 1.48337 0
M  V30 2215 C 205.904 -1.69975 0.372099 0
M  V30 2216 O 207.08 -1.91521 0.62304 0
M  V30 2217 C 204.145 -3.17895 1.38361 0
M  V30 2218 C 203.206 -3.41625 2.59982 0
M  V30 2219 C 202.439 -4.71274 2.50473 0
M  V30 2220 O 202.662 -5.49197 1.54075 0
M  V30 2221 O 201.596 -4.96254 3.4061 0
M  V30 2222 H 205.422 -1.79728 2.44809 0
M  V30 2223 H 203.007 -0.830312 1.24202 0
M  V30 2224 H 204.889 -3.99136 1.35161 0
M  V30 2225 H 203.564 -3.20555 0.450144 0
M  V30 2226 H 202.471 -2.60231 2.68757 0
M  V30 2227 H 203.804 -3.43796 3.52229 0
M  V30 2228 N 205.456 -1.28612 -0.910864 0
M  V30 2229 C 206.366 -1.14643 -2.0468 0
M  V30 2230 C 207.382 -0.0723121 -1.7385 0
M  V30 2231 O 208.558 -0.282178 -1.99413 0
M  V30 2232 C 205.623 -0.812561 -3.37044 0
M  V30 2233 C 204.684 -1.96935 -3.81465 0
M  V30 2234 C 203.917 -1.65131 -5.07511 0
M  V30 2235 O 204.14 -0.567013 -5.67575 0
M  V30 2236 O 203.074 -2.49585 -5.47714 0
M  V30 2237 H 206.9 -2.1001 -2.19384 0
M  V30 2238 H 204.485 -1.07958 -1.03274 0
M  V30 2239 H 206.367 -0.640441 -4.16505 0
M  V30 2240 H 205.042 0.111426 -3.23508 0
M  V30 2241 H 203.949 -2.19664 -3.02818 0
M  V30 2242 H 205.282 -2.87414 -3.99567 0
M  V30 2243 N 206.934 1.1197 -1.10907 0
M  V30 2244 C 207.844 2.21433 -0.774896 0
M  V30 2245 C 208.86 1.72478 0.229657 0
M  V30 2246 O 210.036 2.01288 0.0672008 0
M  V30 2247 C 207.101 3.4602 -0.216986 0
M  V30 2248 C 206.162 4.09791 -1.27944 0
M  V30 2249 C 205.395 5.28431 -0.748055 0
M  V30 2250 O 205.618 5.68823 0.423833 0
M  V30 2251 O 204.552 5.82644 -1.51027 0
M  V30 2252 H 208.378 2.5242 -1.68873 0
M  V30 2253 H 205.963 1.20399 -0.884555 0
M  V30 2254 H 207.845 4.21304 0.090059 0
M  V30 2255 H 206.52 3.16698 0.669633 0
M  V30 2256 H 205.427 3.36265 -1.63941 0
M  V30 2257 H 206.76 4.4328 -2.13925 0
M  V30 2258 N 208.412 0.89855 1.29475 0
M  V30 2259 C 209.828 0.594483 1.48115 0
M  V30 2260 C 210.028 -0.86431 1.82022 0
M  V30 2261 O 209.084 -1.64457 1.91599 0
M  V30 2262 C 210.397 1.51932 2.59494 0
M  V30 2263 C 211.945 1.5244 2.7337 0
M  V30 2264 C 212.42 2.43548 3.87877 0
M  V30 2265 N 213.911 2.41589 3.95208 0
M  V30 2266 C 214.646 3.08789 4.83153 0
M  V30 2267 N 214.142 3.85265 5.75798 0
M  V30 2268 N 215.935 2.97952 4.76635 0
M  V30 2269 H 208.086 1.84207 1.05742 0
M  V30 2270 H 210.349 0.789251 0.525154 0
M  V30 2271 H 210.055 2.55865 2.41301 0
M  V30 2272 H 209.929 1.23899 3.56271 0
M  V30 2273 H 212.316 0.492518 2.90961 0
M  V30 2274 H 212.397 1.8451 1.77172 0
M  V30 2275 H 212.041 3.46829 3.71041 0
M  V30 2276 H 211.971 2.08788 4.83441 0
M  V30 2277 H 214.462 1.86025 3.28943 0
M  V30 2278 H 214.775 4.33598 6.39697 0
M  V30 2279 H 213.12 3.89371 5.75687 0
M  V30 2280 H 216.311 2.37723 4.03244 0
M  V30 2281 H 216.484 3.50599 5.44962 0
M  V30 2282 N 209.89 -1.43072 0.660911 0
M  V30 2283 C 211.301 -1.84932 0.256348 0
M  V30 2284 C 211.652 -1.55325 -1.19868 0
M  V30 2285 O 210.777 -1.00607 -1.91591 0
M  V30 2286 C 211.372 -3.35684 0.458475 0
M  V30 2287 C 209.931 -3.76245 0.108161 0
M  V30 2288 C 209.078 -2.66749 0.757641 0
M  V30 2289 H 212.029 -1.33116 0.864051 0
M  V30 2290 H 212.05 -3.79365 -0.293683 0
M  V30 2291 H 211.562 -3.572 1.51755 0
M  V30 2292 H 209.663 -3.60338 -0.948014 0
M  V30 2293 H 209.776 -4.76058 0.538992 0
M  V30 2294 H 208.14 -2.53989 0.190185 0
M  V30 2295 H 208.923 -2.91092 1.81989 0
M  V30 2296 N 211.368 -0.403325 -1.52352 0
M  V30 2297 C 212.298 0.416205 -2.29761 0
M  V30 2298 C 213.279 1.05123 -1.33728 0
M  V30 2299 O 214.464 1.06134 -1.62632 0
M  V30 2300 C 211.594 1.53624 -3.11475 0
M  V30 2301 C 210.548 1.02653 -4.15507 0
M  V30 2302 C 209.874 2.23971 -4.85532 0
M  V30 2303 C 211.174 0.08463 -5.22231 0
M  V30 2304 H 212.868 -0.229701 -2.98518 0
M  V30 2305 H 210.414 -0.111913 -1.43564 0
M  V30 2306 H 212.367 2.1165 -3.64393 0
M  V30 2307 H 211.091 2.20994 -2.40477 0
M  V30 2308 H 209.75 0.46871 -3.63591 0
M  V30 2309 H 209.398 2.89883 -4.11068 0
M  V30 2310 H 209.098 1.90521 -5.55856 0
M  V30 2311 H 210.622 2.82614 -5.41259 0
M  V30 2312 H 212.036 0.573509 -5.70424 0
M  V30 2313 H 210.433 -0.160783 -5.99885 0
M  V30 2314 H 211.503 -0.86237 -4.7717 0
M  V30 2315 N 212.846 1.57033 -0.133567 0
M  V30 2316 C 214.257 1.82593 0.389464 0
M  V30 2317 C 214.608 1.05156 1.6564 0
M  V30 2318 O 213.733 0.292644 2.14412 0
M  V30 2319 C 214.328 3.31204 0.713377 0
M  V30 2320 C 212.887 3.57393 1.18098 0
M  V30 2321 C 212.034 2.76598 0.197126 0
M  V30 2322 H 214.985 1.54598 -0.358481 0
M  V30 2323 H 215.006 3.46627 1.56939 0
M  V30 2324 H 214.518 3.87537 -0.2089 0
M  V30 2325 H 212.619 3.06433 2.11966 0
M  V30 2326 H 212.732 4.65915 1.11624 0
M  V30 2327 H 211.096 2.45257 0.687088 0
M  V30 2328 H 211.879 3.35697 -0.718504 0
M  V30 2329 N 214.325 -0.140222 1.56975 0
M  V30 2330 C 215.235 -1.19223 2.02047 0
M  V30 2331 C 216.251 -1.46612 0.937062 0
M  V30 2332 O 217.427 -1.58148 1.24704 0
M  V30 2333 C 214.492 -2.50414 2.39778 0
M  V30 2334 C 213.553 -2.30612 3.621 0
M  V30 2335 C 212.786 -3.55547 3.98023 0
M  V30 2336 O 213.009 -4.62004 3.34528 0
M  V30 2337 O 211.943 -3.47808 4.91237 0
M  V30 2338 H 215.769 -0.839559 2.91865 0
M  V30 2339 H 213.354 -0.349453 1.45256 0
M  V30 2340 H 215.236 -3.27747 2.64877 0
M  V30 2341 H 213.911 -2.85198 1.53114 0
M  V30 2342 H 212.818 -1.51207 3.4218 0
M  V30 2343 H 214.151 -2.00741 4.49404 0
M  V30 2344 N 215.803 -1.52179 -0.40978 0
M  V30 2345 C 216.75 -1.75475 -1.49924 0
M  V30 2346 C 217.72 -0.597175 -1.54994 0
M  V30 2347 O 218.905 -0.834655 -1.71575 0
M  V30 2348 C 216.045 -1.9107 -2.87378 0
M  V30 2349 C 215.158 -3.18717 -2.91622 0
M  V30 2350 C 214.293 -3.24747 -4.20372 0
M  V30 2351 C 213.332 -4.46598 -4.18588 0
M  V30 2352 N 212.469 -4.50025 -5.38908 0
M  V30 2353 H 217.309 -2.68458 -1.29361 0
M  V30 2354 H 214.846 -1.33024 -0.627934 0
M  V30 2355 H 216.804 -1.98096 -3.6717 0
M  V30 2356 H 215.434 -1.01469 -3.06437 0
M  V30 2357 H 214.486 -3.20866 -2.04326 0
M  V30 2358 H 215.798 -4.08544 -2.86169 0
M  V30 2359 H 214.952 -3.30841 -5.08556 0
M  V30 2360 H 213.691 -2.32857 -4.28519 0
M  V30 2361 H 212.696 -4.40652 -3.28794 0
M  V30 2362 H 213.921 -5.39783 -4.12081 0
M  V30 2363 H 211.867 -3.61017 -5.47725 0
M  V30 2364 H 211.784 -5.33697 -5.35447 0
M  V30 2365 H 213.052 -4.60347 -6.29048 0
M  V30 2366 N 217.281 0.66697 -1.42791 0
M  V30 2367 C 218.191 1.80962 -1.49299 0
M  V30 2368 C 219.207 1.69775 -0.381108 0
M  V30 2369 O 220.383 1.91188 -0.633188 0
M  V30 2370 C 217.448 3.17156 -1.40045 0
M  V30 2371 C 216.509 3.40242 -2.6179 0
M  V30 2372 C 215.742 4.69939 -2.52969 0
M  V30 2373 O 215.965 5.48372 -1.56985 0
M  V30 2374 O 214.899 4.94441 -3.43237 0
M  V30 2375 H 218.725 1.78427 -2.45759 0
M  V30 2376 H 216.31 0.823713 -1.24641 0
M  V30 2377 H 218.192 3.98413 -1.37276 0
M  V30 2378 H 216.867 3.20312 -0.467138 0
M  V30 2379 H 215.774 2.58802 -2.70134 0
M  V30 2380 H 217.107 3.41923 -3.54047 0
M  V30 2381 N 218.759 1.29093 0.90403 0
M  V30 2382 C 219.989 1.19516 1.68522 0
M  V30 2383 C 220.397 -0.24738 1.87576 0
M  V30 2384 O 219.74 -1.17798 1.40959 0
M  V30 2385 C 219.802 1.83249 3.0929 0
M  V30 2386 C 219.466 3.32531 3.13484 0
M  V30 2387 C 220.463 4.28821 2.93953 0
M  V30 2388 C 218.148 3.73656 3.35688 0
M  V30 2389 C 220.142 5.64212 2.96553 0
M  V30 2390 C 217.829 5.0917 3.37919 0
M  V30 2391 C 218.827 6.04258 3.18373 0
M  V30 2392 O 218.515 7.37298 3.20385 0
M  V30 2393 H 218.247 0.415467 0.533257 0
M  V30 2394 H 220.801 1.70912 1.13922 0
M  V30 2395 H 219.031 1.26358 3.65473 0
M  V30 2396 H 220.72 1.68054 3.69476 0
M  V30 2397 H 221.486 3.98382 2.76616 0
M  V30 2398 H 217.365 3.00101 3.49943 0
M  V30 2399 H 220.909 6.38407 2.81216 0
M  V30 2400 H 216.806 5.39256 3.54787 0
M  V30 2401 H 217.574 7.46048 3.36681 0
M  V30 2402 N 220.237 -1.11381 1.11499 0
M  V30 2403 C 221.169 -2.17207 0.731704 0
M  V30 2404 C 222.182 -1.61066 -0.236957 0
M  V30 2405 O 223.371 -1.78489 -0.0197591 0
M  V30 2406 C 220.471 -3.38846 0.0607624 0
M  V30 2407 C 219.644 -4.24451 1.0564 0
M  V30 2408 C 218.703 -5.24562 0.4149 0
M  V30 2409 O 217.729 -5.59071 1.069 0
M  V30 2410 N 218.931 -5.74651 -0.821943 0
M  V30 2411 H 221.696 -2.50699 1.64225 0
M  V30 2412 H 219.257 -1.26908 1.00529 0
M  V30 2413 H 221.249 -4.02911 -0.380139 0
M  V30 2414 H 219.819 -3.03411 -0.752376 0
M  V30 2415 H 219.039 -3.56833 1.67524 0
M  V30 2416 H 220.327 -4.78486 1.72998 0
M  V30 2417 H 219.725 -5.48797 -1.37252 0
M  V30 2418 H 218.282 -6.40549 -1.20582 0
M  V30 2419 N 221.715 -0.905404 -1.28997 0
M  V30 2420 C 223.131 -0.60233 -1.47798 0
M  V30 2421 C 223.331 0.854645 -1.82478 0
M  V30 2422 O 222.387 1.63439 -1.92468 0
M  V30 2423 C 223.7 -1.53306 -2.58685 0
M  V30 2424 C 225.248 -1.53887 -2.72558 0
M  V30 2425 C 225.723 -2.45602 -3.86579 0
M  V30 2426 N 227.214 -2.43681 -3.93921 0
M  V30 2427 C 227.949 -3.11347 -4.81509 0
M  V30 2428 N 227.445 -3.88313 -5.73746 0
M  V30 2429 N 229.238 -3.00476 -4.75048 0
M  V30 2430 H 221.389 -1.84765 -1.04764 0
M  V30 2431 H 223.652 -0.792025 -0.520961 0
M  V30 2432 H 223.358 -2.57141 -2.39941 0
M  V30 2433 H 223.232 -1.25787 -3.55609 0
M  V30 2434 H 225.619 -0.507941 -2.90696 0
M  V30 2435 H 225.7 -1.85447 -1.76191 0
M  V30 2436 H 225.344 -3.48792 -3.69197 0
M  V30 2437 H 225.274 -2.11349 -4.82327 0
M  V30 2438 H 227.765 -1.87767 -3.27951 0
M  V30 2439 H 228.078 -4.36985 -6.37389 0
M  V30 2440 H 226.423 -3.92419 -5.73614 0
M  V30 2441 H 229.614 -2.39858 -4.01977 0
M  V30 2442 H 229.787 -3.53485 -5.43095 0
M  V30 2443 N 223.193 1.4272 -0.668489 0
M  V30 2444 C 224.125 2.2914 0.052613 0
M  V30 2445 C 225.138 1.43339 0.771857 0
M  V30 2446 O 226.327 1.67123 0.627067 0
M  V30 2447 C 223.427 3.20618 1.09804 0
M  V30 2448 C 222.6 4.35039 0.45389 0
M  V30 2449 C 221.659 5.07282 1.39825 0
M  V30 2450 O 220.685 5.62024 0.900978 0
M  V30 2451 N 221.887 5.12206 2.73176 0
M  V30 2452 H 224.652 2.91668 -0.689209 0
M  V30 2453 H 222.213 1.53577 -0.512422 0
M  V30 2454 H 224.205 3.65815 1.73094 0
M  V30 2455 H 222.775 2.59585 1.74167 0
M  V30 2456 H 221.995 3.92567 -0.358396 0
M  V30 2457 H 223.283 5.088 0.00486972 0
M  V30 2458 H 222.681 4.6913 3.16122 0
M  V30 2459 H 221.238 5.61069 3.31729 0
M  V30 2460 N 224.671 0.411399 1.52136 0
M  V30 2461 C 225.917 -0.163888 2.02137 0
M  V30 2462 C 226.25 -1.44597 1.29636 0
M  V30 2463 O 225.525 -1.90272 0.403353 0
M  V30 2464 C 225.808 -0.40927 3.57767 0
M  V30 2465 C 225.661 0.889643 4.40914 0
M  V30 2466 C 226.98 -1.19042 4.23694 0
M  V30 2467 H 224.099 -0.0580896 0.734707 0
M  V30 2468 H 226.741 0.54531 1.82007 0
M  V30 2469 H 224.891 -1.0134 3.7505 0
M  V30 2470 H 226.563 1.52575 4.35337 0
M  V30 2471 H 224.806 1.50011 4.07037 0
M  V30 2472 H 225.477 0.672314 5.4789 0
M  V30 2473 H 227.953 -0.678942 4.10524 0
M  V30 2474 H 226.829 -1.33086 5.32522 0
M  V30 2475 H 227.09 -2.21166 3.82803 0
M  V30 2476 N 226.149 -1.5696 0.141893 0
M  V30 2477 C 227.395 -1.97034 -0.504884 0
M  V30 2478 C 227.75 -1.02518 -1.62812 0
M  V30 2479 O 227.043 -0.0592943 -1.91508 0
M  V30 2480 C 227.237 -3.41242 -1.06249 0
M  V30 2481 C 227.066 -4.497 0.00519653 0
M  V30 2482 C 225.836 -5.03338 0.444873 0
M  V30 2483 C 228.034 -5.08122 0.794767 0
M  V30 2484 N 226.016 -5.95395 1.49593 0
M  V30 2485 C 227.387 -5.96339 1.69645 0
M  V30 2486 C 229.442 -4.9071 0.843122 0
M  V30 2487 C 228.145 -6.69009 2.64233 0
M  V30 2488 C 230.171 -5.64077 1.77681 0
M  V30 2489 C 229.533 -6.51999 2.66603 0
M  V30 2490 H 225.632 -0.766745 -0.153707 0
M  V30 2491 H 228.216 -1.93273 0.235313 0
M  V30 2492 H 226.387 -3.45606 -1.77231 0
M  V30 2493 H 228.119 -3.68389 -1.67546 0
M  V30 2494 H 224.874 -4.73576 0.0480959 0
M  V30 2495 H 225.298 -6.46128 2.02107 0
M  V30 2496 H 229.94 -4.22459 0.169732 0
M  V30 2497 H 227.658 -7.36492 3.32575 0
M  V30 2498 H 231.244 -5.52602 1.81996 0
M  V30 2499 H 230.124 -7.07775 3.37675 0
M  V30 2500 N 227.627 0.131896 -1.57047 0
M  V30 2501 C 228.557 1.16384 -2.02428 0
M  V30 2502 C 229.538 1.43936 -0.90644 0
M  V30 2503 O 230.723 1.54599 -1.17528 0
M  V30 2504 C 227.853 2.49328 -2.4177 0
M  V30 2505 C 226.807 2.36266 -3.56879 0
M  V30 2506 C 226.133 3.74057 -3.8208 0
M  V30 2507 C 227.433 1.834 -4.89042 0
M  V30 2508 H 229.127 0.786433 -2.88887 0
M  V30 2509 H 226.673 0.376855 -1.38981 0
M  V30 2510 H 228.626 3.21759 -2.7212 0
M  V30 2511 H 227.35 2.88934 -1.52266 0
M  V30 2512 H 226.009 1.66286 -3.26718 0
M  V30 2513 H 225.657 4.11125 -2.89803 0
M  V30 2514 H 225.357 3.66174 -4.59554 0
M  V30 2515 H 226.881 4.48012 -4.1487 0
M  V30 2516 H 228.295 2.45636 -5.18011 0
M  V30 2517 H 226.692 1.8637 -5.70426 0
M  V30 2518 H 227.762 0.790662 -4.7841 0
M  V30 2519 N 229.106 1.52395 0.401703 0
M  V30 2520 C 230.036 1.79231 1.49661 0
M  V30 2521 C 231.017 0.643654 1.57452 0
M  V30 2522 O 232.202 0.889989 1.72606 0
M  V30 2523 C 229.332 1.94971 2.87409 0
M  V30 2524 C 228.286 3.10604 2.94465 0
M  V30 2525 C 227.612 3.11577 4.34538 0
M  V30 2526 C 228.912 4.49921 2.6527 0
M  V30 2527 H 230.606 2.70917 1.27454 0
M  V30 2528 H 228.152 1.30362 0.6117 0
M  V30 2529 H 230.105 2.12328 3.63999 0
M  V30 2530 H 228.829 0.999632 3.10926 0
M  V30 2531 H 227.488 2.93009 2.20321 0
M  V30 2532 H 227.136 2.14277 4.55076 0
M  V30 2533 H 226.836 3.89247 4.40183 0
M  V30 2534 H 228.36 3.31073 5.13053 0
M  V30 2535 H 229.774 4.67683 3.31581 0
M  V30 2536 H 228.171 5.29564 2.82281 0
M  V30 2537 H 229.241 4.57507 1.60671 0
M  V30 2538 N 230.584 -0.659388 1.43143 0
M  V30 2539 C 231.831 -1.41935 1.44433 0
M  V30 2540 C 232.159 -1.94387 0.0663522 0
M  V30 2541 O 231.414 -1.72314 -0.927706 0
M  V30 2542 C 231.713 -2.62206 2.42864 0
M  V30 2543 C 231.379 -2.28208 3.88886 0
M  V30 2544 C 230.041 -2.18647 4.28657 0
M  V30 2545 C 232.393 -2.00887 4.8093 0
M  V30 2546 C 229.721 -1.79914 5.58433 0
M  V30 2547 C 232.073 -1.63653 6.11065 0
M  V30 2548 C 230.737 -1.52614 6.49819 0
M  V30 2549 H 230.007 -0.519376 0.528517 0
M  V30 2550 H 232.654 -0.750453 1.76183 0
M  V30 2551 H 230.959 -3.34199 2.04495 0
M  V30 2552 H 232.656 -3.2041 2.41119 0
M  V30 2553 H 229.246 -2.36557 3.57406 0
M  V30 2554 H 233.43 -2.07198 4.5098 0
M  V30 2555 H 228.686 -1.69948 5.87305 0
M  V30 2556 H 232.86 -1.41543 6.81864 0
M  V30 2557 H 230.487 -1.22371 7.50286 0
M  V30 2558 N 232.062 -1.29571 -0.897171 0
M  V30 2559 C 232.972 -1.16808 -2.03453 0
M  V30 2560 C 233.988 -0.0907471 -1.73763 0
M  V30 2561 O 235.164 -0.303312 -1.99103 0
M  V30 2562 C 232.229 -0.848264 -3.36163 0
M  V30 2563 C 231.29 -2.0097 -3.79354 0
M  V30 2564 C 230.523 -1.70505 -5.05731 0
M  V30 2565 O 230.746 -0.62718 -5.66941 0
M  V30 2566 O 229.68 -2.5538 -5.45036 0
M  V30 2567 H 233.506 -2.12325 -2.17144 0
M  V30 2568 H 231.091 -1.09047 -1.02123 0
M  V30 2569 H 232.973 -0.684581 -4.15802 0
M  V30 2570 H 231.648 0.0771071 -3.23608 0
M  V30 2571 H 230.555 -2.22863 -3.00471 0
M  V30 2572 H 231.888 -2.91636 -3.96496 0
M  V30 2573 N 233.54 1.10788 -1.12088 0
M  V30 2574 C 234.77 1.86191 -0.895351 0
M  V30 2575 C 235.178 1.80763 0.558702 0
M  V30 2576 O 234.521 1.19188 1.39785 0
M  V30 2577 C 234.583 3.35659 -1.28737 0
M  V30 2578 C 234.247 3.64849 -2.75198 0
M  V30 2579 C 235.244 3.61757 -3.734 0
M  V30 2580 C 232.929 3.93641 -3.12013 0
M  V30 2581 C 234.923 3.87045 -5.06434 0
M  V30 2582 C 232.61 4.18585 -4.4523 0
M  V30 2583 C 233.608 4.15277 -5.42249 0
M  V30 2584 O 233.296 4.3959 -6.73065 0
M  V30 2585 H 233.028 0.595425 -0.32007 0
M  V30 2586 H 235.582 1.40992 -1.49367 0
M  V30 2587 H 233.812 3.81497 -0.63224 0
M  V30 2588 H 235.501 3.92441 -1.03656 0
M  V30 2589 H 236.267 3.39557 -3.46303 0
M  V30 2590 H 232.146 3.95348 -2.37109 0
M  V30 2591 H 235.69 3.84378 -5.82151 0
M  V30 2592 H 231.587 4.40264 -4.72057 0
M  V30 2593 H 232.355 4.57123 -6.78956 0
M  V30 2594 N 235.018 0.912232 1.28515 0
M  V30 2595 C 236.429 0.591352 1.77087 0
M  V30 2596 C 236.78 -0.8933 1.74684 0
M  V30 2597 O 235.905 -1.69876 1.34056 0
M  V30 2598 C 236.5 1.06668 3.2157 0
M  V30 2599 C 235.059 0.79675 3.67871 0
M  V30 2600 C 234.206 1.23427 2.48316 0
M  V30 2601 H 237.157 1.09365 1.15 0
M  V30 2602 H 237.178 0.407455 3.78312 0
M  V30 2603 H 236.69 2.14726 3.23287 0
M  V30 2604 H 234.791 -0.270679 3.71616 0
M  V30 2605 H 234.904 1.40343 4.58084 0
M  V30 2606 H 233.268 0.653036 2.46186 0
M  V30 2607 H 234.051 2.32316 2.52753 0
M  V30 2608 N 236.496 -1.42363 0.676048 0
M  V30 2609 C 237.406 -2.346 -0.00153389 0
M  V30 2610 C 238.422 -1.5516 -0.787485 0
M  V30 2611 O 239.598 -1.87723 -0.729521 0
M  V30 2612 C 236.663 -3.33705 -0.940298 0
M  V30 2613 C 235.724 -4.29042 -0.148739 0
M  V30 2614 C 234.957 -5.23413 -1.04279 0
M  V30 2615 O 235.18 -5.22749 -2.28232 0
M  V30 2616 O 234.114 -5.99795 -0.502925 0
M  V30 2617 H 237.94 -2.94082 0.758268 0
M  V30 2618 H 235.525 -1.42888 0.436289 0
M  V30 2619 H 237.407 -3.94586 -1.47917 0
M  V30 2620 H 236.082 -2.76695 -1.67993 0
M  V30 2621 H 234.989 -3.71571 0.43427 0
M  V30 2622 H 236.322 -4.89097 0.551805 0
M  V30 2623 N 237.974 -0.419461 -1.51915 0
M  V30 2624 C 239.199 0.154572 -2.06823 0
M  V30 2625 C 239.624 1.3722 -1.28656 0
M  V30 2626 O 238.982 1.78461 -0.319583 0
M  V30 2627 C 239.03 0.473172 -3.57482 0
M  V30 2628 O 238.134 1.56255 -3.81652 0
M  V30 2629 H 237.475 0.0096924 -0.663929 0
M  V30 2630 H 240.005 -0.595642 -1.95738 0
M  V30 2631 H 240.015 0.728825 -4.01438 0
M  V30 2632 H 238.69 -0.416873 -4.13805 0
M  V30 2633 H 237.267 1.29825 -3.49571 0
M  V30 2634 N 239.452 1.56882 -0.150215 0
M  V30 2635 C 240.677 2.01027 0.510184 0
M  V30 2636 C 241.102 1.02966 1.57415 0
M  V30 2637 O 240.46 0.00590158 1.81299 0
M  V30 2638 C 240.508 3.43899 1.08472 0
M  V30 2639 O 239.612 3.4885 2.19948 0
M  V30 2640 H 238.953 0.652233 0.124451 0
M  V30 2641 H 241.483 2.03093 -0.247894 0
M  V30 2642 H 241.493 3.82766 1.41259 0
M  V30 2643 H 240.168 4.14776 0.305582 0
M  V30 2644 H 238.745 3.21827 1.88366 0
M  V30 2645 N 240.93 -0.123565 1.57115 0
M  V30 2646 C 242.178 -0.83051 1.84247 0
M  V30 2647 C 242.499 -1.80629 0.73471 0
M  V30 2648 O 241.769 -1.94403 -0.241688 0
M  V30 2649 H 240.349 -0.309694 0.679778 0
M  V30 2650 H 243.011 -0.111976 1.94578 0
M  V30 2651 H 242.107 -1.37852 2.80006 0
M  V30 2652 N 242.408 -1.52605 -0.393616 0
M  V30 2653 C 243.819 -1.59417 -0.971761 0
M  V30 2654 C 244.17 -0.444173 -1.91106 0
M  V30 2655 O 243.295 0.433382 -2.12016 0
M  V30 2656 C 243.89 -2.88936 -1.76921 0
M  V30 2657 C 242.449 -2.98175 -2.29714 0
M  V30 2658 C 241.596 -2.54491 -1.10135 0
M  V30 2659 H 244.547 -1.57751 -0.173317 0
M  V30 2660 H 244.568 -2.75163 -2.62804 0
M  V30 2661 H 244.08 -3.72616 -1.08532 0
M  V30 2662 H 242.181 -2.19024 -3.01429 0
M  V30 2663 H 242.294 -4.02726 -2.59517 0
M  V30 2664 H 240.658 -2.08702 -1.45999 0
M  V30 2665 H 241.441 -3.4056 -0.432874 0
M  V30 2666 N 243.887 0.651787 -1.4349 0
M  V30 2667 C 244.85 1.74647 -1.48429 0
M  V30 2668 C 245.85 1.56513 -0.368817 0
M  V30 2669 O 247.04 1.62385 -0.630623 0
M  V30 2670 C 244.172 3.13533 -1.33827 0
M  V30 2671 H 245.365 1.71649 -2.4592 0
M  V30 2672 H 242.918 0.863573 -1.30277 0
M  V30 2673 H 243.653 3.22142 -0.37349 0
M  V30 2674 H 243.438 3.28101 -2.14691 0
M  V30 2675 H 244.928 3.93356 -1.40218 0
M  V30 2676 N 245.365 1.30045 0.890287 0
M  V30 2677 C 246.781 1.08261 1.17268 0
M  V30 2678 C 246.981 -0.160063 2.00863 0
M  V30 2679 O 246.037 -0.855181 2.37577 0
M  V30 2680 C 247.35 2.34323 1.8845 0
M  V30 2681 C 248.898 2.39735 2.01237 0
M  V30 2682 C 249.373 3.65625 2.7583 0
M  V30 2683 N 250.864 3.66402 2.83379 0
M  V30 2684 C 251.599 4.60498 3.41657 0
M  V30 2685 N 251.095 5.64933 4.01026 0
M  V30 2686 N 252.888 4.48051 3.39421 0
M  V30 2687 H 245.039 2.09777 0.332762 0
M  V30 2688 H 247.302 0.92446 0.209948 0
M  V30 2689 H 247.008 3.2498 1.34465 0
M  V30 2690 H 246.882 2.4256 2.88867 0
M  V30 2691 H 249.269 1.4956 2.54393 0
M  V30 2692 H 249.35 2.35476 0.999232 0
M  V30 2693 H 248.994 4.56156 2.23347 0
M  V30 2694 H 248.924 3.67144 3.77509 0
M  V30 2695 H 251.415 2.90896 2.41222 0
M  V30 2696 H 251.728 6.32841 4.43545 0
M  V30 2697 H 250.073 5.68732 3.99461 0
M  V30 2698 H 253.264 3.65649 2.92264 0
M  V30 2699 H 253.437 5.21565 3.84544 0
M  V30 2700 N 246.843 -1.10192 1.12674 0
M  V30 2701 C 248.089 -1.82475 0.884915 0
M  V30 2702 C 248.422 -1.85093 -0.58773 0
M  V30 2703 O 247.697 -1.3134 -1.43457 0
M  V30 2704 C 247.98 -3.29018 1.46353 0
M  V30 2705 C 247.833 -3.34718 3.00473 0
M  V30 2706 C 249.152 -4.25473 1.12519 0
M  V30 2707 H 246.271 -0.662492 0.322915 0
M  V30 2708 H 248.913 -1.2913 1.39375 0
M  V30 2709 H 247.063 -3.74576 1.03077 0
M  V30 2710 H 248.735 -2.97622 3.52447 0
M  V30 2711 H 246.978 -2.74541 3.35872 0
M  V30 2712 H 247.649 -4.37918 3.36053 0
M  V30 2713 H 250.125 -3.88161 1.499 0
M  V30 2714 H 249.001 -5.26365 1.55663 0
M  V30 2715 H 249.262 -4.42084 0.0377407 0
M  V30 2716 N 248.321 -0.919034 -1.28029 0
M  V30 2717 C 249.57 -0.550802 -1.94034 0
M  V30 2718 C 249.883 0.910877 -1.73096 0
M  V30 2719 O 251.089 1.3875 -2.33368 0
M  V30 2720 C 249.545 -0.934249 -3.47563 0
M  V30 2721 C 249.153 -2.41602 -3.7727 0
M  V30 2722 C 250.897 -0.636854 -4.19696 0
M  V30 2723 C 248.804 -2.73932 -5.24133 0
M  V30 2724 H 247.734 -0.202273 -0.726362 0
M  V30 2725 H 250.385 -1.11867 -1.45458 0
M  V30 2726 H 248.767 -0.295115 -3.94899 0
M  V30 2727 H 249.941 -3.10233 -3.40723 0
M  V30 2728 H 248.256 -2.68441 -3.18321 0
M  V30 2729 H 250.853 -0.855005 -5.2782 0
M  V30 2730 H 251.196 0.425575 -4.14119 0
M  V30 2731 H 251.729 -1.23469 -3.78154 0
M  V30 2732 H 248.468 -3.79049 -5.34792 0
M  V30 2733 H 247.988 -2.09942 -5.61858 0
M  V30 2734 H 249.667 -2.61215 -5.91925 0
M  V30 2735 N 249.799 1.42003 -0.683588 0
M  V30 2736 C 250.762 2.29191 -0.0198243 0
M  V30 2737 C 251.762 1.43773 0.72013 0
M  V30 2738 O 252.952 1.65061 0.556815 0
M  V30 2739 C 250.084 3.26435 0.982487 0
M  V30 2740 H 251.277 2.8938 -0.787345 0
M  V30 2741 H 248.83 1.49789 -0.446418 0
M  V30 2742 H 249.565 2.71203 1.77819 0
M  V30 2743 H 249.35 3.89449 0.455182 0
M  V30 2744 H 250.84 3.918 1.44508 0
M  V30 2745 N 251.277 0.427512 1.51691 0
M  V30 2746 C 252.526 -0.143679 2.01188 0
M  V30 2747 C 252.839 -1.44642 1.31674 0
M  V30 2748 O 254.045 -2.09997 1.72086 0
M  V30 2749 C 252.501 -0.306602 3.58592 0
M  V30 2750 C 252.109 0.985125 4.37035 0
M  V30 2751 C 253.853 -0.832091 4.16265 0
M  V30 2752 C 251.76 0.788382 5.86122 0
M  V30 2753 H 250.69 -0.0574701 0.751807 0
M  V30 2754 H 253.341 0.555772 1.74881 0
M  V30 2755 H 251.723 -1.06882 3.81303 0
M  V30 2756 H 252.897 1.75492 4.26074 0
M  V30 2757 H 251.212 1.4384 3.90767 0
M  V30 2758 H 253.809 -0.995617 5.25349 0
M  V30 2759 H 254.152 -1.81186 3.74803 0
M  V30 2760 H 254.685 -0.128444 3.97593 0
M  V30 2761 H 251.424 1.74025 6.31978 0
M  V30 2762 H 250.944 0.0582143 5.99772 0
M  V30 2763 H 252.623 0.437722 6.45518 0
M  V30 2764 N 252.755 -1.56801 0.158532 0
M  V30 2765 C 254.001 -1.96781 -0.490405 0
M  V30 2766 C 254.334 -1.04397 -1.63753 0
M  V30 2767 O 253.609 -0.0885805 -1.94298 0
M  V30 2768 C 253.892 -3.4635 -0.985594 0
M  V30 2769 C 253.745 -4.49512 0.160824 0
M  V30 2770 C 255.064 -3.98697 -1.86355 0
M  V30 2771 H 252.183 -0.715482 -0.176788 0
M  V30 2772 H 254.825 -1.88451 0.242088 0
M  V30 2773 H 252.975 -3.53579 -1.60978 0
M  V30 2774 H 254.647 -4.54353 0.797537 0
M  V30 2775 H 252.89 -4.26013 0.818256 0
M  V30 2776 H 253.561 -5.51531 -0.227569 0
M  V30 2777 H 256.037 -3.94019 -1.33746 0
M  V30 2778 H 254.913 -5.03792 -2.17909 0
M  V30 2779 H 255.174 -3.41744 -2.8047 0
M  V30 2780 N 254.233 0.115231 -1.57178 0
M  V30 2781 C 255.458 0.840354 -1.89612 0
M  V30 2782 C 255.883 1.72464 -0.750845 0
M  V30 2783 O 255.241 1.78826 0.298478 0
M  V30 2784 C 255.289 1.64654 -3.20814 0
M  V30 2785 O 254.393 2.7538 -3.06985 0
M  V30 2786 H 253.734 0.232158 -0.622092 0
M  V30 2787 H 256.264 0.0964977 -2.04372 0
M  V30 2788 H 256.274 2.03499 -3.53627 0
M  V30 2789 H 254.949 0.997416 -4.03763 0
M  V30 2790 H 253.526 2.3971 -2.85646 0
M  V30 2791 N 255.711 1.52812 0.385517 0
M  V30 2792 C 256.957 1.68275 1.13188 0
M  V30 2793 C 257.29 0.423179 1.89533 0
M  V30 2794 O 256.565 -0.579113 1.85679 0
M  V30 2795 C 256.848 2.92001 2.1073 0
M  V30 2796 C 256.701 4.28067 1.38125 0
M  V30 2797 C 258.02 3.11283 3.11113 0
M  V30 2798 H 255.139 0.612352 0.410115 0
M  V30 2799 H 257.781 1.85415 0.414869 0
M  V30 2800 H 255.931 2.77519 2.71874 0
M  V30 2801 H 257.603 4.54324 0.799187 0
M  V30 2802 H 255.846 4.28388 0.683092 0
M  V30 2803 H 256.517 5.10733 2.09417 0
M  V30 2804 H 258.993 3.2482 2.6006 0
M  V30 2805 H 257.869 3.99325 3.76605 0
M  V30 2806 H 258.13 2.25656 3.80173 0
M  V30 2807 N 257.189 -0.644168 1.43834 0
M  V30 2808 C 258.122 -1.76906 1.44151 0
M  V30 2809 C 259.1 -1.59774 0.301857 0
M  V30 2810 O 260.284 -1.81834 0.496841 0
M  V30 2811 C 257.411 -3.14321 1.26174 0
M  V30 2812 C 256.457 -3.50134 2.43533 0
M  V30 2813 S 257.29 -3.49085 4.06079 0
M  V30 2814 C 258.446 -4.89142 3.90501 0
M  V30 2815 H 258.679 -1.76368 2.39336 0
M  V30 2816 H 256.212 -0.817624 1.30974 0
M  V30 2817 H 258.17 -3.93625 1.16489 0
M  V30 2818 H 256.831 -3.12412 0.325224 0
M  V30 2819 H 256.024 -4.50095 2.26783 0
M  V30 2820 H 255.626 -2.78264 2.4989 0
M  V30 2821 H 257.918 -5.78036 3.53385 0
M  V30 2822 H 258.861 -5.10945 4.90246 0
M  V30 2823 H 259.269 -4.63102 3.22795 0
M  V30 2824 N 258.668 -1.30515 -0.883378 0
M  V30 2825 C 259.914 -1.19607 -1.63774 0
M  V30 2826 C 260.247 0.248314 -1.92606 0
M  V30 2827 O 259.522 1.17742 -1.54813 0
M  V30 2828 C 259.805 -2.02669 -2.97653 0
M  V30 2829 C 259.658 -3.55335 -2.75784 0
M  V30 2830 C 260.977 -1.86573 -3.98596 0
M  V30 2831 H 258.096 -0.435856 -0.594305 0
M  V30 2832 H 260.738 -1.60165 -1.02212 0
M  V30 2833 H 258.888 -1.68208 -3.50197 0
M  V30 2834 H 260.56 -3.99863 -2.30016 0
M  V30 2835 H 258.803 -3.79438 -2.1026 0
M  V30 2836 H 259.474 -4.08745 -3.70988 0
M  V30 2837 H 261.95 -2.16703 -3.55217 0
M  V30 2838 H 260.826 -2.47014 -4.90179 0
M  V30 2839 H 261.087 -0.825321 -4.34328 0
M  V30 2840 N 260.146 1.09593 -1.13257 0
M  V30 2841 C 261.395 1.81105 -0.887917 0
M  V30 2842 C 261.708 1.86563 0.587672 0
M  V30 2843 O 262.914 2.54367 0.949204 0
M  V30 2844 C 261.37 3.25338 -1.53895 0
M  V30 2845 C 260.978 3.28151 -3.04994 0
M  V30 2846 C 262.722 4.01617 -1.37492 0
M  V30 2847 C 260.629 4.66897 -3.6299 0
M  V30 2848 H 259.559 0.678661 -0.328534 0
M  V30 2849 H 262.21 1.23183 -1.36008 0
M  V30 2850 H 260.592 3.8331 -0.994446 0
M  V30 2851 H 261.766 2.79953 -3.66009 0
M  V30 2852 H 260.081 2.65361 -3.20893 0
M  V30 2853 H 262.678 5.04119 -1.78235 0
M  V30 2854 H 263.021 4.15072 -0.31957 0
M  V30 2855 H 263.554 3.50082 -1.88912 0
M  V30 2856 H 260.293 4.58643 -4.68323 0
M  V30 2857 H 259.813 5.15426 -3.06752 0
M  V30 2858 H 261.492 5.3587 -3.62563 0
M  V30 2859 N 261.624 0.925811 1.2754 0
M  V30 2860 C 262.554 0.440748 2.29303 0
M  V30 2861 C 263.535 -0.497971 1.62648 0
M  V30 2862 O 264.72 -0.403126 1.8997 0
M  V30 2863 C 261.85 -0.309048 3.45922 0
M  V30 2864 C 260.804 0.54166 4.24559 0
M  V30 2865 C 260.13 -0.337191 5.33636 0
M  V30 2866 C 261.43 1.80516 4.90114 0
M  V30 2867 H 263.124 1.29121 2.70126 0
M  V30 2868 H 260.67 0.622323 1.29858 0
M  V30 2869 H 262.623 -0.659315 4.1621 0
M  V30 2870 H 261.347 -1.19352 3.04011 0
M  V30 2871 H 260.006 0.874609 3.56014 0
M  V30 2872 H 259.654 -1.22056 4.87966 0
M  V30 2873 H 259.354 0.228497 5.87156 0
M  V30 2874 H 260.878 -0.683072 6.06767 0
M  V30 2875 H 262.292 1.52307 5.52698 0
M  V30 2876 H 260.689 2.3142 5.53683 0
M  V30 2877 H 261.759 2.52581 4.13921 0
M  V30 2878 N 263.102 -1.41638 0.69111 0
M  V30 2879 C 264.351 -2.00526 0.217318 0
M  V30 2880 C 264.664 -1.55353 -1.18848 0
M  V30 2881 O 265.87 -2.06769 -1.75951 0
M  V30 2882 C 264.326 -3.58313 0.337639 0
M  V30 2883 C 263.934 -4.12469 1.74852 0
M  V30 2884 C 265.678 -4.24431 -0.0766066 0
M  V30 2885 C 263.585 -5.62675 1.82074 0
M  V30 2886 H 262.515 -0.750008 0.0774893 0
M  V30 2887 H 265.166 -1.6217 0.858661 0
M  V30 2888 H 263.548 -3.9425 -0.371879 0
M  V30 2889 H 264.722 -3.8796 2.48644 0
M  V30 2890 H 263.037 -3.58861 2.11205 0
M  V30 2891 H 265.634 -5.34683 -0.0430284 0
M  V30 2892 H 265.977 -4.01101 -1.1146 0
M  V30 2893 H 266.51 -3.93512 0.582476 0
M  V30 2894 H 263.249 -5.90826 2.83911 0
M  V30 2895 H 262.769 -5.89124 1.12661 0
M  V30 2896 H 264.448 -6.27371 1.58159 0
M  V30 2897 N 264.58 -0.43555 -1.51462 0
M  V30 2898 C 265.805 0.132627 -2.06976 0
M  V30 2899 C 266.23 1.35848 -1.30104 0
M  V30 2900 O 265.588 1.78112 -0.338493 0
M  V30 2901 C 265.636 0.43523 -3.57964 0
M  V30 2902 O 264.74 1.52198 -3.83288 0
M  V30 2903 H 264.081 0.00265 -0.663995 0
M  V30 2904 H 266.611 -0.616369 -1.95095 0
M  V30 2905 H 266.621 0.686206 -4.02188 0
M  V30 2906 H 265.296 -0.460739 -4.1334 0
M  V30 2907 H 263.873 1.2611 -3.50928 0
M  V30 2908 N 266.058 1.56714 -0.166846 0
M  V30 2909 C 267.307 1.95922 0.479318 0
M  V30 2910 C 267.62 1.05529 1.6469 0
M  V30 2911 O 268.826 1.34399 2.35901 0
M  V30 2912 C 267.282 3.48359 0.90412 0
M  V30 2913 C 266.89 4.47369 -0.237621 0
M  V30 2914 C 268.634 3.96394 1.51896 0
M  V30 2915 C 266.541 5.91039 0.206561 0
M  V30 2916 H 265.471 0.731495 0.18284 0
M  V30 2917 H 268.122 1.81728 -0.254363 0
M  V30 2918 H 266.504 3.57955 1.69365 0
M  V30 2919 H 267.678 4.49485 -1.01489 0
M  V30 2920 H 265.993 4.09366 -0.762128 0
M  V30 2921 H 268.59 5.01186 1.86325 0
M  V30 2922 H 268.933 3.39075 2.41524 0
M  V30 2923 H 269.466 3.89796 0.79395 0
M  V30 2924 H 266.205 6.52221 -0.654834 0
M  V30 2925 H 265.725 5.9224 0.949282 0
M  V30 2926 H 267.404 6.43707 0.651939 0
M  V30 2927 N 267.536 -0.106894 1.57237 0
M  V30 2928 C 268.782 -0.81373 1.85759 0
M  V30 2929 C 269.115 -1.78952 0.754315 0
M  V30 2930 O 268.39 -1.93029 -0.23879 0
M  V30 2931 C 268.673 -1.55293 3.24894 0
M  V30 2932 C 268.526 -0.595929 4.45835 0
M  V30 2933 C 269.845 -2.5063 3.61763 0
M  V30 2934 H 266.964 -0.294369 0.67566 0
M  V30 2935 H 269.606 -0.0776472 1.89841 0
M  V30 2936 H 267.756 -2.1804 3.21544 0
M  V30 2937 H 269.428 0.0236262 4.61294 0
M  V30 2938 H 267.671 0.0916191 4.33703 0
M  V30 2939 H 268.342 -1.15004 5.39887 0
M  V30 2940 H 270.818 -1.97982 3.65981 0
M  V30 2941 H 269.694 -2.99376 4.60071 0
M  V30 2942 H 269.955 -3.3385 2.89821 0
M  V30 2943 N 269.014 -1.53014 -0.377408 0
M  V30 2944 C 270.263 -1.67845 -1.11853 0
M  V30 2945 C 270.576 -0.430625 -1.90801 0
M  V30 2946 O 271.782 -0.459261 -2.67587 0
M  V30 2947 C 270.238 -2.96668 -2.03756 0
M  V30 2948 C 269.846 -4.28671 -1.30175 0
M  V30 2949 C 271.59 -3.20865 -2.77932 0
M  V30 2950 C 269.497 -5.48591 -2.20911 0
M  V30 2951 H 268.427 -0.625343 -0.421263 0
M  V30 2952 H 271.078 -1.79514 -0.380409 0
M  V30 2953 H 269.46 -2.78773 -2.8125 0
M  V30 2954 H 270.634 -4.57157 -0.578259 0
M  V30 2955 H 268.949 -4.10825 -0.679108 0
M  V30 2956 H 271.546 -4.07642 -3.46024 0
M  V30 2957 H 271.889 -2.36424 -3.4265 0
M  V30 2958 H 272.422 -3.39379 -2.07525 0
M  V30 2959 H 269.161 -6.35474 -1.6079 0
M  V30 2960 H 268.681 -5.244 -2.91144 0
M  V30 2961 H 270.36 -5.8292 -2.80736 0
M  V30 2962 N 270.492 0.636531 -1.44174 0
M  V30 2963 C 271.739 1.39619 -1.46672 0
M  V30 2964 C 272.067 1.94257 -0.0972691 0
M  V30 2965 O 271.322 1.73768 0.900175 0
M  V30 2966 C 271.621 2.58309 -2.47005 0
M  V30 2967 C 271.287 2.21992 -3.92467 0
M  V30 2968 C 269.949 2.118 -4.32081 0
M  V30 2969 C 272.301 1.9321 -4.84065 0
M  V30 2970 C 269.629 1.71007 -5.61225 0
M  V30 2971 C 271.981 1.53911 -6.13591 0
M  V30 2972 C 270.645 1.42257 -6.52165 0
M  V30 2973 H 269.915 0.510902 -0.536712 0
M  V30 2974 H 272.562 0.722328 -1.77355 0
M  V30 2975 H 270.867 3.30903 -2.09786 0
M  V30 2976 H 272.564 3.16533 -2.46186 0
M  V30 2977 H 269.154 2.30841 -3.61124 0
M  V30 2978 H 273.338 1.99997 -4.54219 0
M  V30 2979 H 268.594 1.60583 -5.89935 0
M  V30 2980 H 272.768 1.30677 -6.8403 0
M  V30 2981 H 270.395 1.10419 -7.52138 0
M  V30 2982 N 271.97 1.30982 0.876444 0
M  V30 2983 C 273.21 1.21589 1.64303 0
M  V30 2984 C 273.574 -0.223962 1.90689 0
M  V30 2985 O 274.775 -0.44128 2.65153 0
M  V30 2986 C 273.046 2.03007 2.94148 0
M  V30 2987 S 274.605 2.10405 3.85065 0
M  V30 2988 H 271.423 0.433161 0.563819 0
M  V30 2989 H 274.025 1.65565 1.03964 0
M  V30 2990 H 272.729 3.06719 2.72675 0
M  V30 2991 H 272.26 1.59725 3.59515 0
M  V30 2992 H 274.275 1.23765 4.80517 0
M  V30 2993 N 273.449 -1.08991 1.13837 0
M  V30 2994 C 274.379 -2.17771 0.842507 0
M  V30 2995 C 275.36 -1.6892 -0.20001 0
M  V30 2996 O 276.545 -1.94113 -0.0579731 0
M  V30 2997 C 273.675 -3.4589 0.312644 0
M  V30 2998 C 272.629 -4.08099 1.28992 0
M  V30 2999 C 271.955 -5.31098 0.619623 0
M  V30 3000 C 273.255 -4.50077 2.65005 0
M  V30 3001 H 274.949 -2.42777 1.75213 0
M  V30 3002 H 272.495 -1.16682 0.843875 0
M  V30 3003 H 274.448 -4.21297 0.0933043 0
M  V30 3004 H 273.172 -3.20419 -0.632382 0
M  V30 3005 H 271.831 -3.34717 1.49533 0
M  V30 3006 H 271.479 -5.0191 -0.33102 0
M  V30 3007 H 271.179 -5.73674 1.27167 0
M  V30 3008 H 272.703 -6.09224 0.409669 0
M  V30 3009 H 274.117 -5.16688 2.48407 0
M  V30 3010 H 272.514 -5.03553 3.26427 0
M  V30 3011 H 273.584 -3.62257 3.22332 0
M  V30 3012 N 274.927 -0.932562 -1.27047 0
M  V30 3013 C 275.837 -0.441219 -2.30414 0
M  V30 3014 C 276.853 0.480525 -1.67233 0
M  V30 3015 O 278.029 0.362151 -1.98117 0
M  V30 3016 C 275.094 0.293651 -3.45454 0
M  V30 3017 C 274.155 -0.663601 -4.2414 0
M  V30 3018 C 273.388 0.0362932 -5.33688 0
M  V30 3019 O 273.611 1.2548 -5.56427 0
M  V30 3020 O 272.545 -0.638015 -5.98509 0
M  V30 3021 H 276.371 -1.29962 -2.74488 0
M  V30 3022 H 273.956 -0.6981 -1.32087 0
M  V30 3023 H 275.838 0.707951 -4.15411 0
M  V30 3024 H 274.513 1.12758 -3.03426 0
M  V30 3025 H 273.42 -1.12768 -3.56699 0
M  V30 3026 H 274.753 -1.46489 -4.69896 0
M  V30 3027 N 276.405 1.4127 -0.698611 0
M  V30 3028 C 277.633 2.05503 -0.239992 0
M  V30 3029 C 278.048 1.52584 1.11191 0
M  V30 3030 O 277.405 0.675323 1.69545 0
M  V30 3031 C 277.456 3.60987 -0.192429 0
M  V30 3032 O 277.177 4.1195 -1.49094 0
M  V30 3033 C 278.678 4.42371 0.28681 0
M  V30 3034 H 275.898 0.661748 -0.111045 0
M  V30 3035 H 278.442 1.80987 -0.95205 0
M  V30 3036 H 276.597 3.84533 0.470472 0
M  V30 3037 H 277.011 5.06018 -1.38007 0
M  V30 3038 H 278.485 5.51344 0.26896 0
M  V30 3039 H 278.962 4.18699 1.32619 0
M  V30 3040 H 279.568 4.23897 -0.345201 0
M  V30 3041 N 277.883 0.443576 1.51229 0
M  V30 3042 C 278.813 -0.355142 2.30783 0
M  V30 3043 C 279.794 -1.0154 1.36468 0
M  V30 3044 O 280.979 -1.01785 1.65389 0
M  V30 3045 C 278.109 -1.45312 3.15439 0
M  V30 3046 C 277.063 -0.916002 4.18083 0
M  V30 3047 C 276.389 -2.1102 4.91299 0
M  V30 3048 C 277.689 0.0538602 5.22272 0
M  V30 3049 H 279.383 0.308767 2.97804 0
M  V30 3050 H 276.929 0.149937 1.43217 0
M  V30 3051 H 278.882 -2.01914 3.69876 0
M  V30 3052 H 277.606 -2.14541 2.46252 0
M  V30 3053 H 276.265 -0.372145 3.64706 0
M  V30 3054 H 275.913 -2.78882 4.18609 0
M  V30 3055 H 275.613 -1.75717 5.60712 0
M  V30 3056 H 277.137 -2.68164 5.48562 0
M  V30 3057 H 278.551 -0.422069 5.71744 0
M  V30 3058 H 276.948 0.319776 5.99247 0
M  V30 3059 H 278.018 0.98858 4.74716 0
M  V30 3060 N 279.361 -1.56624 0.175154 0
M  V30 3061 C 280.772 -1.83561 -0.340916 0
M  V30 3062 C 281.123 -1.09511 -1.62794 0
M  V30 3063 O 280.248 -0.349389 -2.13561 0
M  V30 3064 C 280.843 -3.32979 -0.625313 0
M  V30 3065 C 279.402 -3.60399 -1.08581 0
M  V30 3066 C 278.549 -2.77024 -0.123722 0
M  V30 3067 H 281.5 -1.53593 0.399344 0
M  V30 3068 H 281.521 -3.50666 -1.47694 0
M  V30 3069 H 281.033 -3.86847 0.311575 0
M  V30 3070 H 279.134 -3.11945 -2.03767 0
M  V30 3071 H 279.247 -4.68711 -0.992317 0
M  V30 3072 H 277.611 -2.46993 -0.621821 0
M  V30 3073 H 278.394 -3.33674 0.807256 0
M  V30 3074 N 280.839 0.0985539 -1.57292 0
M  V30 3075 C 281.749 1.13824 -2.05137 0
M  V30 3076 C 282.765 1.44076 -0.975604 0
M  V30 3077 O 283.941 1.54786 -1.28853 0
M  V30 3078 C 281.006 2.43969 -2.46333 0
M  V30 3079 C 280.067 2.2093 -3.68087 0
M  V30 3080 C 279.3 3.44869 -4.0731 0
M  V30 3081 O 279.523 4.52972 -3.46659 0
M  V30 3082 O 278.457 3.34661 -5.00285 0
M  V30 3083 H 282.283 0.761881 -2.93988 0
M  V30 3084 H 279.868 0.310818 -1.46131 0
M  V30 3085 H 281.75 3.20609 -2.73473 0
M  V30 3086 H 280.425 2.81038 -1.60621 0
M  V30 3087 H 279.332 1.42081 -3.46069 0
M  V30 3088 H 280.665 1.88755 -4.54568 0
M  V30 3089 N 282.317 1.53212 0.369288 0
M  V30 3090 C 283.247 1.82365 1.45826 0
M  V30 3091 C 284.228 0.676907 1.56051 0
M  V30 3092 O 285.413 0.926401 1.70679 0
M  V30 3093 C 282.543 2.01023 2.83208 0
M  V30 3094 C 281.497 3.1678 2.8781 0
M  V30 3095 C 280.823 3.20724 4.27832 0
M  V30 3096 C 282.123 4.55447 2.55667 0
M  V30 3097 H 283.817 2.73559 1.21678 0
M  V30 3098 H 281.363 1.3163 0.583911 0
M  V30 3099 H 283.316 2.20001 3.59413 0
M  V30 3100 H 282.04 1.06536 3.08736 0
M  V30 3101 H 280.699 2.97616 2.14056 0
M  V30 3102 H 280.347 2.23882 4.50429 0
M  V30 3103 H 280.047 3.98496 4.31827 0
M  V30 3104 H 281.571 3.41881 5.05915 0
M  V30 3105 H 282.985 4.74611 3.21586 0
M  V30 3106 H 281.382 5.35432 2.70984 0
M  V30 3107 H 282.452 4.60812 1.5093 0
M  V30 3108 N 283.795 -0.628877 1.44509 0
M  V30 3109 C 284.742 -1.74074 1.51549 0
M  V30 3110 C 285.712 -1.62084 0.363021 0
M  V30 3111 O 286.897 -1.81975 0.573567 0
M  V30 3112 C 284.037 -3.12328 1.46784 0
M  V30 3113 C 283.15 -3.35277 2.72422 0
M  V30 3114 C 282.285 -4.63515 2.59475 0
M  V30 3115 C 281.324 -4.7965 3.80266 0
M  V30 3116 N 280.461 -5.99168 3.65981 0
M  V30 3117 H 285.301 -1.67392 2.46544 0
M  V30 3118 H 282.838 -0.816527 1.22357 0
M  V30 3119 H 284.796 -3.92286 1.42012 0
M  V30 3120 H 283.426 -3.18018 0.553544 0
M  V30 3121 H 282.478 -2.49242 2.87372 0
M  V30 3122 H 283.79 -3.43078 3.62076 0
M  V30 3123 H 282.944 -5.51638 2.52548 0
M  V30 3124 H 281.683 -4.58076 1.67384 0
M  V30 3125 H 280.688 -3.89957 3.87574 0
M  V30 3126 H 281.913 -4.86902 4.73395 0
M  V30 3127 H 279.859 -5.94814 2.76644 0
M  V30 3128 H 279.776 -6.08035 4.49254 0
M  V30 3129 H 281.044 -6.89846 3.6295 0
M  V30 3130 N 285.273 -1.31445 -0.869486 0
M  V30 3131 C 286.55 -1.11795 -1.60503 0
M  V30 3132 C 286.93 0.327168 -2.08549 0
M  V30 3133 O 286.278 1.32135 -1.8642 0
M  V30 3134 C 286.488 -2.13258 -2.76265 0
M  V30 3135 C 287.836 -2.45805 -3.46215 0
M  V30 3136 O 288.86 -2.11688 -2.86473 0
M  V30 3137 O 287.719 -3.04228 -4.5399 0
M  V30 3138 H 284.813 -0.430421 -0.706163 0
M  V30 3139 H 287.359 -1.42925 -0.914907 0
M  V30 3140 H 286.131 -3.10461 -2.3818 0
M  V30 3141 H 285.754 -1.83035 -3.52964 0
M  V30 3142 N 286.751 1.08385 -1.14413 0
M  V30 3143 C 288.028 1.77429 -0.823297 0
M  V30 3144 C 288.408 1.9974 0.683163 0
M  V30 3145 O 287.756 1.60739 1.62405 0
M  V30 3146 C 287.966 3.09004 -1.62227 0
M  V30 3147 C 289.314 3.83532 -1.82177 0
M  V30 3148 O 290.338 3.18786 -1.58915 0
M  V30 3149 O 289.197 4.99792 -2.21067 0
M  V30 3150 H 286.291 0.769999 -0.301712 0
M  V30 3151 H 288.837 1.14846 -1.24934 0
M  V30 3152 H 287.609 2.88316 -2.64555 0
M  V30 3153 H 287.232 3.79316 -1.19187 0
M  V30 3154 N 288.23 0.939286 1.26551 0
M  V30 3155 C 289.177 0.446088 2.26448 0
M  V30 3156 C 290.147 -0.493234 1.58608 0
M  V30 3157 O 291.332 -0.409857 1.86346 0
M  V30 3158 C 288.472 -0.284375 3.43926 0
M  V30 3159 C 287.585 0.690399 4.26448 0
M  V30 3160 C 286.72 -0.0610712 5.31165 0
M  V30 3161 C 285.759 0.905649 6.05363 0
M  V30 3162 N 284.896 0.186055 7.01853 0
M  V30 3163 H 289.736 1.30291 2.68008 0
M  V30 3164 H 287.273 0.65371 1.31776 0
M  V30 3165 H 289.231 -0.724313 4.10864 0
M  V30 3166 H 287.861 -1.10535 3.03285 0
M  V30 3167 H 286.913 1.24885 3.59316 0
M  V30 3168 H 288.225 1.42873 4.779 0
M  V30 3169 H 287.379 -0.56038 6.04106 0
M  V30 3170 H 286.118 -0.832297 4.80546 0
M  V30 3171 H 285.123 1.4161 5.3125 0
M  V30 3172 H 286.348 1.67685 6.58072 0
M  V30 3173 H 284.294 -0.566714 6.53548 0
M  V30 3174 H 284.211 0.863752 7.51049 0
M  V30 3175 H 285.479 -0.292221 7.78952 0
M  V30 3176 N 289.708 -1.40897 0.706093 0
M  V30 3177 C 290.985 -1.94868 0.169099 0
M  V30 3178 C 291.365 -1.64485 -1.32318 0
M  V30 3179 O 290.713 -0.95744 -2.07474 0
M  V30 3180 C 290.923 -3.45798 0.471654 0
M  V30 3181 C 292.271 -4.22663 0.405127 0
M  V30 3182 O 293.295 -3.53865 0.407168 0
M  V30 3183 O 292.154 -5.45216 0.374383 0
M  V30 3184 H 289.248 -0.82673 0.0211352 0
M  V30 3185 H 291.794 -1.50558 0.782976 0
M  V30 3186 H 290.566 -3.61235 1.50416 0
M  V30 3187 H 290.189 -3.97225 -0.172666 0
M  V30 3188 N 291.186 -0.45159 -1.50991 0
M  V30 3189 C 292.433 0.110074 -2.02201 0
M  V30 3190 C 292.761 1.4146 -1.33489 0
M  V30 3191 O 292.016 1.90617 -0.443125 0
M  V30 3192 C 292.315 0.361728 -3.55565 0
M  V30 3193 C 291.981 -0.858717 -4.42648 0
M  V30 3194 C 290.643 -1.19338 -4.66167 0
M  V30 3195 C 292.995 -1.67221 -4.93646 0
M  V30 3196 C 290.323 -2.34195 -5.37931 0
M  V30 3197 C 292.675 -2.8119 -5.6667 0
M  V30 3198 C 291.339 -3.15094 -5.88449 0
M  V30 3199 H 290.609 0.040279 -0.739904 0
M  V30 3200 H 293.256 -0.601696 -1.81802 0
M  V30 3201 H 291.561 1.15554 -3.74372 0
M  V30 3202 H 293.258 0.80996 -3.92735 0
M  V30 3203 H 289.848 -0.58796 -4.24548 0
M  V30 3204 H 294.032 -1.42686 -4.75347 0
M  V30 3205 H 289.288 -2.6076 -5.53005 0
M  V30 3206 H 293.462 -3.44585 -6.05173 0
M  V30 3207 H 291.089 -4.04204 -6.43835 0
M  V30 3208 N 292.664 1.56529 -0.183458 0
M  V30 3209 C 293.892 2.01623 0.464285 0
M  V30 3210 C 294.307 1.06366 1.55986 0
M  V30 3211 O 293.664 0.0665398 1.82379 0
M  V30 3212 C 293.715 3.46475 1.03139 0
M  V30 3213 O 293.436 4.38095 -0.0204675 0
M  V30 3214 C 294.937 4.0703 1.75617 0
M  V30 3215 H 292.157 0.660596 0.117704 0
M  V30 3216 H 294.701 2.02451 -0.288751 0
M  V30 3217 H 292.856 3.46383 1.73486 0
M  V30 3218 H 293.27 5.22973 0.399952 0
M  V30 3219 H 294.744 5.10271 2.10542 0
M  V30 3220 H 295.221 3.49819 2.65563 0
M  V30 3221 H 295.827 4.1086 1.09882 0
M  V30 3222 N 294.142 -0.090211 1.57342 0
M  V30 3223 C 295.39 -0.791241 1.85967 0
M  V30 3224 C 295.711 -1.7903 0.772859 0
M  V30 3225 O 294.981 -1.94872 -0.200398 0
M  V30 3226 H 293.561 -0.295205 0.686195 0
M  V30 3227 H 296.223 -0.0706782 1.94772 0
M  V30 3228 H 295.319 -1.31882 2.82867 0
M  V30 3229 N 295.62 -1.53406 -0.361157 0
M  V30 3230 C 296.848 -1.73717 -1.12383 0
M  V30 3231 C 297.263 -0.468161 -1.82904 0
M  V30 3232 O 296.62 0.559198 -1.73722 0
M  V30 3233 C 296.671 -2.90558 -2.15078 0
M  V30 3234 O 296.392 -4.12549 -1.47428 0
M  V30 3235 C 297.893 -3.22777 -3.03858 0
M  V30 3236 H 295.113 -0.580896 -0.335858 0
M  V30 3237 H 297.657 -2.00167 -0.418728 0
M  V30 3238 H 295.812 -2.66489 -2.8118 0
M  V30 3239 H 296.226 -4.78009 -2.15887 0
M  V30 3240 H 297.7 -4.07927 -3.71887 0
M  V30 3241 H 298.177 -2.38329 -3.68912 0
M  V30 3242 H 298.783 -3.48787 -2.43367 0
M  V30 3243 N 297.098 0.621204 -1.44841 0
M  V30 3244 C 298.344 1.3826 -1.48365 0
M  V30 3245 C 298.677 1.93831 -0.119624 0
M  V30 3246 O 297.952 1.74251 0.864111 0
M  V30 3247 C 298.235 2.54058 -2.55199 0
M  V30 3248 C 298.088 2.03772 -4.00995 0
M  V30 3249 C 299.407 3.56225 -2.58442 0
M  V30 3250 H 296.526 0.501374 -0.540179 0
M  V30 3251 H 299.168 0.7015 -1.76576 0
M  V30 3252 H 297.318 3.12162 -2.31274 0
M  V30 3253 H 298.99 1.50423 -4.36086 0
M  V30 3254 H 297.233 1.34876 -4.12299 0
M  V30 3255 H 297.904 2.87185 -4.71411 0
M  V30 3256 H 300.38 3.07939 -2.79844 0
M  V30 3257 H 299.256 4.34756 -3.3508 0
M  V30 3258 H 299.517 4.10949 -1.63013 0
M  V30 3259 N 298.576 1.31904 0.862503 0
M  V30 3260 C 299.526 1.16772 1.95827 0
M  V30 3261 C 300.51 0.0767098 1.60717 0
M  V30 3262 O 301.702 0.302407 1.74398 0
M  V30 3263 C 298.831 0.884858 3.317 0
M  V30 3264 C 297.917 2.0172 3.73055 0
M  V30 3265 N 298.308 3.265 3.86305 0
M  V30 3266 C 296.606 1.91861 4.02623 0
M  V30 3267 C 297.307 4.00616 4.2176 0
M  V30 3268 N 296.283 3.28847 4.32852 0
M  V30 3269 H 300.085 2.11382 2.04193 0
M  V30 3270 H 297.599 1.2357 1.05377 0
M  V30 3271 H 299.596 0.757419 4.09962 0
M  V30 3272 H 298.256 -0.0529448 3.24657 0
M  V30 3273 H 299.267 3.61529 3.70833 0
M  V30 3274 H 295.944 1.05593 4.03926 0
M  V30 3275 H 297.334 5.08182 4.39546 0
M  V30 3276 N 300.054 -1.07777 1.14986 0
M  V30 3277 C 301.47 -1.32373 0.891596 0
M  V30 3278 C 301.67 -1.9609 -0.463788 0
M  V30 3279 O 300.726 -2.21801 -1.20667 0
M  V30 3280 C 302.039 -2.21905 2.02925 0
M  V30 3281 C 303.587 -2.35367 2.06329 0
M  V30 3282 C 304.062 -3.28245 3.19405 0
M  V30 3283 N 305.553 -3.35824 3.19024 0
M  V30 3284 C 306.288 -4.07739 4.03158 0
M  V30 3285 N 305.784 -4.82306 4.97346 0
M  V30 3286 N 307.577 -4.03635 3.91197 0
M  V30 3287 H 299.728 -0.648039 2.02273 0
M  V30 3288 H 301.991 -0.348149 0.881757 0
M  V30 3289 H 301.697 -1.82342 3.0074 0
M  V30 3290 H 301.571 -3.22407 1.95789 0
M  V30 3291 H 303.958 -2.74186 1.09116 0
M  V30 3292 H 304.039 -1.34585 2.17533 0
M  V30 3293 H 303.683 -2.90146 4.16867 0
M  V30 3294 H 303.613 -4.28971 3.05437 0
M  V30 3295 H 306.104 -2.8267 2.50811 0
M  V30 3296 H 306.417 -5.34661 5.57994 0
M  V30 3297 H 304.762 -4.81337 5.01338 0
M  V30 3298 H 307.953 -3.44491 3.16928 0
M  V30 3299 H 308.126 -4.59417 4.5699 0
M  V30 3300 N 301.532 -0.945985 -1.26051 0
M  V30 3301 C 302.781 -0.591836 -1.92822 0
M  V30 3302 C 303.094 0.873956 -1.7499 0
M  V30 3303 O 304.3 1.33769 -2.36259 0
M  V30 3304 C 302.756 -1.00776 -3.45503 0
M  V30 3305 C 302.364 -2.4955 -3.7206 0
M  V30 3306 C 304.108 -0.725735 -4.1825 0
M  V30 3307 C 302.015 -2.84988 -5.18205 0
M  V30 3308 H 300.945 -0.217635 -0.721908 0
M  V30 3309 H 303.596 -1.14927 -1.43052 0
M  V30 3310 H 301.978 -0.378812 -3.94184 0
M  V30 3311 H 303.152 -3.1739 -3.34066 0
M  V30 3312 H 301.467 -2.75133 -3.12555 0
M  V30 3313 H 304.064 -0.966771 -5.25887 0
M  V30 3314 H 304.407 0.337639 -4.14929 0
M  V30 3315 H 304.94 -1.31463 -3.7545 0
M  V30 3316 H 301.679 -3.90307 -5.26631 0
M  V30 3317 H 301.199 -2.21813 -5.57278 0
M  V30 3318 H 302.878 -2.73712 -5.86252 0
M  V30 3319 N 303.011 1.40521 -0.713556 0
M  V30 3320 C 304.288 1.94775 -0.17943 0
M  V30 3321 C 304.668 1.65184 1.31444 0
M  V30 3322 O 304.016 0.968429 2.06963 0
M  V30 3323 C 304.226 3.45543 -0.489986 0
M  V30 3324 C 305.574 4.22442 -0.427536 0
M  V30 3325 O 306.598 3.53644 -0.425929 0
M  V30 3326 O 305.457 5.4501 -0.403292 0
M  V30 3327 H 302.551 0.826606 -0.0255192 0
M  V30 3328 H 305.097 1.5014 -0.790949 0
M  V30 3329 H 303.869 3.60432 -1.5233 0
M  V30 3330 H 303.492 3.97311 0.151598 0
M  V30 3331 N 304.489 0.459591 1.5075 0
M  V30 3332 C 305.437 -0.354678 2.2988 0
M  V30 3333 C 306.431 -1.00086 1.36672 0
M  V30 3334 O 307.637 -0.933277 1.53915 0
M  V30 3335 H 304.012 -0.13321 0.740107 0
M  V30 3336 H 305.983 0.333269 2.96533 0
M  V30 3337 C 304.732 -1.43073 3.169 0
M  V30 3338 H 304.055 -0.942882 3.88523 0
M  V30 3339 H 305.495 -1.97328 3.75284 0
M  V30 3340 C 303.954 -2.42633 2.33732 0
M  V30 3341 O 304.484 -3.47658 2.01238 0
M  V30 3342 N 302.69 -2.14066 1.9653 0
M  V30 3343 H 302.237 -1.28685 2.23155 0
M  V30 3344 H 302.195 -2.80917 1.41185 0
M  V30 3345 N 305.967 -1.56429 0.191757 0
M  V30 3346 C 307.195 -2.01867 -0.453586 0
M  V30 3347 C 307.61 -1.07191 -1.5542 0
M  V30 3348 O 306.967 -0.0762108 -1.82341 0
M  V30 3349 C 307.018 -3.47017 -1.013 0
M  V30 3350 O 306.739 -4.38078 0.0437005 0
M  V30 3351 C 308.24 -4.07956 -1.73456 0
M  V30 3352 H 305.46 -0.661211 -0.114199 0
M  V30 3353 H 308.004 -2.02295 0.299483 0
M  V30 3354 H 306.159 -3.47298 -1.71647 0
M  V30 3355 H 306.573 -5.23178 -0.372212 0
M  V30 3356 H 308.047 -5.1138 -2.07833 0
M  V30 3357 H 308.524 -3.51222 -2.63704 0
M  V30 3358 H 309.13 -4.11437 -1.07702 0
M  V30 3359 N 307.445 0.0818655 -1.57387 0
M  V30 3360 C 308.673 0.796108 -1.9097 0
M  V30 3361 C 309.088 1.71626 -0.786757 0
M  V30 3362 O 308.445 1.80908 0.240513 0
M  V30 3363 C 308.496 1.59829 -3.24248 0
M  V30 3364 O 308.217 0.715131 -4.32224 0
M  V30 3365 C 309.718 2.41442 -3.7178 0
M  V30 3366 H 306.938 0.22691 -0.631469 0
M  V30 3367 H 309.482 0.0551439 -2.04426 0
M  V30 3368 H 307.637 2.29163 -3.12351 0
M  V30 3369 H 308.051 1.27205 -5.08841 0
M  V30 3370 H 309.525 2.932 -4.67694 0
M  V30 3371 H 310.002 3.2051 -3.00283 0
M  V30 3372 H 310.608 1.77283 -3.86589 0
M  V30 3373 N 308.923 1.53595 0.353017 0
M  V30 3374 C 310.169 1.70638 1.09593 0
M  V30 3375 C 310.502 0.463286 1.88593 0
M  V30 3376 O 309.777 -0.539597 1.86865 0
M  V30 3377 C 310.06 2.96406 2.04489 0
M  V30 3378 C 309.913 4.30901 1.29014 0
M  V30 3379 C 311.232 3.17812 3.0444 0
M  V30 3380 H 308.351 0.620913 0.397034 0
M  V30 3381 H 310.993 1.86254 0.375446 0
M  V30 3382 H 309.143 2.83223 2.65927 0
M  V30 3383 H 310.815 4.55917 0.702638 0
M  V30 3384 H 309.058 4.29741 0.592071 0
M  V30 3385 H 309.729 5.1506 1.98537 0
M  V30 3386 H 312.205 3.30263 2.53112 0
M  V30 3387 H 311.081 4.07223 3.6805 0
M  V30 3388 H 311.342 2.33669 3.75301 0
M  V30 3389 N 310.401 -0.613514 1.45168 0
M  V30 3390 C 311.65 -1.36874 1.4815 0
M  V30 3391 C 311.963 -1.952 0.124982 0
M  V30 3392 O 313.169 -2.71481 0.0324176 0
M  V30 3393 C 311.625 -2.47905 2.60904 0
M  V30 3394 C 311.233 -1.96016 4.02842 0
M  V30 3395 C 312.977 -3.24965 2.73126 0
M  V30 3396 C 310.884 -3.04494 5.06988 0
M  V30 3397 H 309.814 -0.514428 0.551253 0
M  V30 3398 H 312.465 -0.658182 1.7129 0
M  V30 3399 H 310.847 -3.21618 2.31037 0
M  V30 3400 H 312.021 -1.29051 4.4236 0
M  V30 3401 H 310.336 -1.31719 3.95018 0
M  V30 3402 H 312.933 -4.05865 3.48106 0
M  V30 3403 H 313.276 -3.75588 1.79553 0
M  V30 3404 H 313.809 -2.5835 3.0249 0
M  V30 3405 H 310.548 -2.58795 6.0225 0
M  V30 3406 H 310.068 -3.70044 4.72046 0
M  V30 3407 H 311.747 -3.68976 5.31475 0
M  V30 3408 N 311.879 -1.3236 -0.855495 0
M  V30 3409 C 313.109 -1.25688 -1.6397 0
M  V30 3410 C 313.517 0.177592 -1.88365 0
M  V30 3411 O 312.86 1.12485 -1.45234 0
M  V30 3412 C 312.922 -1.94602 -3.02275 0
M  V30 3413 C 312.586 -3.43937 -3.00926 0
M  V30 3414 C 313.583 -4.39435 -2.77835 0
M  V30 3415 C 311.268 -3.85858 -3.21588 0
M  V30 3416 C 313.262 -5.74829 -2.75409 0
M  V30 3417 C 310.949 -5.21361 -3.18789 0
M  V30 3418 C 311.947 -6.15658 -2.95727 0
M  V30 3419 O 311.635 -7.48681 -2.928 0
M  V30 3420 H 311.367 -0.434972 -0.51747 0
M  V30 3421 H 313.921 -1.75023 -1.075 0
M  V30 3422 H 312.151 -1.39836 -3.60531 0
M  V30 3423 H 313.84 -1.81651 -3.62985 0
M  V30 3424 H 314.606 -4.08374 -2.6164 0
M  V30 3425 H 310.485 -3.12883 -3.38564 0
M  V30 3426 H 314.029 -6.48404 -2.57328 0
M  V30 3427 H 309.926 -5.52052 -3.34528 0
M  V30 3428 H 310.694 -7.5803 -3.0876 0
M  V30 3429 N 313.357 1.07166 -1.15556 0
M  V30 3430 C 314.305 2.16517 -0.8499 0
M  V30 3431 C 315.299 1.68468 0.177454 0
M  V30 3432 O 316.505 1.79971 0.0323026 0
M  V30 3433 H 312.88 0.706652 -0.25719 0
M  V30 3434 H 314.851 2.39514 -1.77976 0
M  V30 3435 C 313.6 3.45855 -0.357682 0
M  V30 3436 H 312.923 3.83214 -1.13961 0
M  V30 3437 H 314.363 4.23607 -0.182489 0
M  V30 3438 C 312.822 3.24062 0.921152 0
M  V30 3439 O 313.352 3.48813 1.9923 0
M  V30 3440 N 311.558 2.77539 0.86141 0
M  V30 3441 H 311.105 2.57598 -0.0104408 0
M  V30 3442 H 311.063 2.63337 1.71758 0
M  V30 3443 N 314.835 0.952656 1.25548 0
M  V30 3444 C 316.06 0.623025 1.97821 0
M  V30 3445 C 316.485 -0.7976 1.70352 0
M  V30 3446 O 315.843 -1.53905 0.958283 0
M  V30 3447 C 315.891 0.885532 3.49558 0
M  V30 3448 O 314.995 -0.0366641 4.12384 0
M  V30 3449 H 314.336 0.237082 0.620232 0
M  V30 3450 H 316.866 1.27871 1.59719 0
M  V30 3451 H 316.876 0.811009 3.99858 0
M  V30 3452 H 315.551 1.92094 3.6888 0
M  V30 3453 H 314.128 0.0898954 3.72792 0
M  V30 3454 N 316.313 -1.40141 0.720998 0
M  V30 3455 C 317.261 -2.3252 0.0608547 0
M  V30 3456 C 318.255 -1.52326 -0.741152 0
M  V30 3457 O 319.461 -1.68089 -0.643911 0
M  V30 3458 H 315.836 -0.751999 0.000876664 0
M  V30 3459 H 317.807 -2.8584 0.856614 0
M  V30 3460 C 316.556 -3.37331 -0.842809 0
M  V30 3461 H 315.879 -3.99108 -0.235084 0
M  V30 3462 H 317.319 -4.04452 -1.27257 0
M  V30 3463 C 315.778 -2.73246 -1.97074 0
M  V30 3464 O 316.308 -2.59998 -3.06209 0
M  V30 3465 N 314.514 -2.31547 -1.75597 0
M  V30 3466 H 314.061 -2.42522 -0.868368 0
M  V30 3467 H 314.019 -1.89007 -2.51244 0
M  V30 3468 N 317.792 -0.46758 -1.50504 0
M  V30 3469 C 319.041 0.0902868 -2.01498 0
M  V30 3470 C 319.354 1.411 -1.35463 0
M  V30 3471 O 320.56 2.0536 -1.77594 0
M  V30 3472 C 319.016 0.21142 -3.59278 0
M  V30 3473 C 318.624 -1.10065 -4.34269 0
M  V30 3474 C 320.368 0.721433 -4.18325 0
M  V30 3475 C 318.275 -0.943505 -5.83825 0
M  V30 3476 H 317.205 0.037517 -0.753066 0
M  V30 3477 H 319.856 -0.601943 -1.73346 0
M  V30 3478 H 318.238 0.967352 -3.84003 0
M  V30 3479 H 319.412 -1.86726 -4.21272 0
M  V30 3480 H 317.727 -1.5415 -3.86816 0
M  V30 3481 H 320.324 0.85598 -5.27804 0
M  V30 3482 H 320.667 1.71186 -3.79475 0
M  V30 3483 H 321.2 0.0229843 -3.97793 0
M  V30 3484 H 317.939 -1.90719 -6.27141 0
M  V30 3485 H 317.459 -0.217213 -5.99407 0
M  V30 3486 H 319.138 -0.608715 -6.4413 0
M  V30 3487 N 319.27 1.56325 -0.20005 0
M  V30 3488 C 320.517 1.97719 0.437411 0
M  V30 3489 C 320.845 1.08709 1.61284 0
M  V30 3490 O 320.1 0.127261 1.95286 0
M  V30 3491 C 320.399 3.4495 0.935103 0
M  V30 3492 C 320.065 4.5072 -0.12749 0
M  V30 3493 C 318.727 4.79368 -0.419451 0
M  V30 3494 C 321.079 5.14268 -0.847231 0
M  V30 3495 C 318.407 5.68854 -1.43604 0
M  V30 3496 C 320.759 6.04852 -1.85301 0
M  V30 3497 C 319.423 6.31855 -2.15211 0
M  V30 3498 H 318.693 0.723507 0.16006 0
M  V30 3499 H 321.34 1.89166 -0.298056 0
M  V30 3500 H 319.645 3.50599 1.74894 0
M  V30 3501 H 321.342 3.74337 1.43781 0
M  V30 3502 H 317.932 4.28458 0.11023 0
M  V30 3503 H 322.116 4.92222 -0.634901 0
M  V30 3504 H 317.372 5.88047 -1.67364 0
M  V30 3505 H 321.546 6.53152 -2.41591 0
M  V30 3506 H 319.173 7.00994 -2.94129 0
M  V30 3507 N 320.748 -0.0735177 1.57428 0
M  V30 3508 C 321.976 -0.785969 1.9139 0
M  V30 3509 C 322.391 -1.71207 0.795847 0
M  V30 3510 O 321.748 -1.81033 -0.230915 0
M  V30 3511 C 321.799 -1.58107 3.25091 0
M  V30 3512 O 321.52 -0.6922 4.32597 0
M  V30 3513 C 323.021 -2.39467 3.73055 0
M  V30 3514 H 320.241 -0.223558 0.632663 0
M  V30 3515 H 322.785 -0.044302 2.04452 0
M  V30 3516 H 320.94 -2.27503 3.13562 0
M  V30 3517 H 321.354 -1.24504 5.09508 0
M  V30 3518 H 322.828 -2.90716 4.69242 0
M  V30 3519 H 323.305 -3.18913 3.01979 0
M  V30 3520 H 323.911 -1.7523 3.87523 0
M  V30 3521 N 322.226 -1.5378 -0.344866 0
M  V30 3522 C 323.503 -1.61589 -1.10219 0
M  V30 3523 C 323.883 -0.436316 -2.06542 0
M  V30 3524 O 323.231 0.571543 -2.21237 0
M  V30 3525 C 323.441 -2.97602 -1.82301 0
M  V30 3526 C 324.789 -3.5291 -2.36093 0
M  V30 3527 O 325.813 -2.99768 -1.924 0
M  V30 3528 O 324.672 -4.45859 -3.16026 0
M  V30 3529 H 321.766 -0.653522 -0.506792 0
M  V30 3530 H 324.312 -1.66126 -0.346465 0
M  V30 3531 H 323.084 -3.74893 -1.12121 0
M  V30 3532 H 322.707 -2.9665 -2.64735 0
M  V30 3533 N 323.704 0.605807 -1.45491 0
M  V30 3534 C 325.115 1.18777 -1.44045 0
M  V30 3535 C 325.466 1.95471 -0.169001 0
M  V30 3536 O 324.591 2.0374 0.729324 0
M  V30 3537 C 325.186 2.16064 -2.60963 0
M  V30 3538 C 323.745 2.69633 -2.62631 0
M  V30 3539 C 322.892 1.45072 -2.36325 0
M  V30 3540 H 325.843 0.395017 -1.53705 0
M  V30 3541 H 325.864 2.9913 -2.35163 0
M  V30 3542 H 325.376 1.60217 -3.53486 0
M  V30 3543 H 323.477 3.29414 -1.74119 0
M  V30 3544 H 323.59 3.13944 -3.61906 0
M  V30 3545 H 321.954 1.74089 -1.85917 0
M  V30 3546 H 322.737 0.910899 -3.30995 0
M  V30 3547 N 325.182 1.32811 0.848464 0
M  V30 3548 C 326.429 1.23724 1.60308 0
M  V30 3549 C 326.757 -0.1994 1.93475 0
M  V30 3550 O 326.012 -1.15406 1.5805 0
M  V30 3551 C 326.311 2.04831 2.92881 0
M  V30 3552 C 325.977 3.54125 2.79117 0
M  V30 3553 C 324.639 3.94829 2.7507 0
M  V30 3554 C 326.991 4.49036 2.64606 0
M  V30 3555 C 324.319 5.28675 2.544 0
M  V30 3556 C 326.671 5.83033 2.4547 0
M  V30 3557 C 325.335 6.22931 2.39819 0
M  V30 3558 H 324.605 0.452737 0.586609 0
M  V30 3559 H 327.252 1.64301 0.983743 0
M  V30 3560 H 325.557 1.57001 3.58968 0
M  V30 3561 H 327.254 1.95164 3.50303 0
M  V30 3562 H 323.844 3.21801 2.83094 0
M  V30 3563 H 328.028 4.18505 2.66772 0
M  V30 3564 H 323.284 5.58637 2.48465 0
M  V30 3565 H 327.458 6.56186 2.33222 0
M  V30 3566 H 325.085 7.26584 2.23562 0
M  V30 3567 N 326.66 -1.06551 1.16123 0
M  V30 3568 C 327.907 -1.79302 0.941126 0
M  V30 3569 C 328.235 -1.87105 -0.531235 0
M  V30 3570 O 327.49 -1.35692 -1.41018 0
M  V30 3571 C 327.789 -3.23911 1.51052 0
M  V30 3572 C 327.455 -3.36193 3.00475 0
M  V30 3573 C 326.117 -3.39252 3.41265 0
M  V30 3574 C 328.469 -3.38326 3.96465 0
M  V30 3575 C 325.797 -3.42057 4.76669 0
M  V30 3576 C 328.149 -3.4267 5.31752 0
M  V30 3577 C 326.813 -3.4401 5.72026 0
M  V30 3578 H 326.083 -0.656111 0.344382 0
M  V30 3579 H 328.73 -1.25325 1.44796 0
M  V30 3580 H 327.035 -3.80723 0.925063 0
M  V30 3581 H 328.732 -3.78793 1.31593 0
M  V30 3582 H 325.322 -3.34516 2.6795 0
M  V30 3583 H 329.506 -3.35176 3.6602 0
M  V30 3584 H 324.762 -3.41398 5.07206 0
M  V30 3585 H 328.936 -3.43268 6.05921 0
M  V30 3586 H 326.563 -3.45937 6.76928 0
M  V30 3587 N 328.138 -0.959301 -1.25041 0
M  V30 3588 C 329.387 -0.612254 -1.92183 0
M  V30 3589 C 329.7 0.855347 -1.75907 0
M  V30 3590 O 330.906 1.31256 -2.37664 0
M  V30 3591 C 329.362 -1.04435 -3.44414 0
M  V30 3592 C 328.97 -2.53482 -3.69393 0
M  V30 3593 C 330.714 -0.770055 -4.17457 0
M  V30 3594 C 328.621 -2.90468 -5.15153 0
M  V30 3595 H 327.551 -0.225279 -0.719559 0
M  V30 3596 H 330.202 -1.16438 -1.41825 0
M  V30 3597 H 328.584 -0.4206 -3.9376 0
M  V30 3598 H 329.758 -3.20916 -3.30681 0
M  V30 3599 H 328.073 -2.78432 -3.0962 0
M  V30 3600 H 330.67 -1.02249 -5.24832 0
M  V30 3601 H 331.013 0.293611 -4.15263 0
M  V30 3602 H 331.546 -1.35437 -3.74034 0
M  V30 3603 H 328.285 -3.95871 -5.22462 0
M  V30 3604 H 327.805 -2.27711 -5.54894 0
M  V30 3605 H 329.484 -2.79914 -5.83315 0
M  V30 3606 N 329.616 1.39756 -0.72842 0
M  V30 3607 C 330.862 2.00942 -0.273892 0
M  V30 3608 C 331.195 1.57656 1.13394 0
M  V30 3609 O 330.47 0.802434 1.77176 0
M  V30 3610 C 330.753 3.58211 -0.368346 0
M  V30 3611 C 330.606 4.11534 -1.81548 0
M  V30 3612 C 331.925 4.39372 0.253054 0
M  V30 3613 H 329.044 0.730047 -0.100996 0
M  V30 3614 H 331.686 1.66056 -0.923337 0
M  V30 3615 H 329.836 3.88061 0.184588 0
M  V30 3616 H 331.508 3.92431 -2.42478 0
M  V30 3617 H 329.751 3.65341 -2.33898 0
M  V30 3618 H 330.422 5.20682 -1.83288 0
M  V30 3619 H 332.898 4.15527 -0.218224 0
M  V30 3620 H 331.774 5.48677 0.156585 0
M  V30 3621 H 332.035 4.21358 1.33826 0
M  V30 3622 N 331.094 0.475555 1.50254 0
M  V30 3623 C 332.004 -0.321501 2.32387 0
M  V30 3624 C 333.02 -0.991755 1.42969 0
M  V30 3625 O 334.196 -0.978747 1.76018 0
M  V30 3626 C 331.261 -1.38667 3.17762 0
M  V30 3627 C 330.322 -0.732538 4.23004 0
M  V30 3628 C 329.555 -1.74695 5.04299 0
M  V30 3629 O 329.778 -2.97399 4.86734 0
M  V30 3630 O 328.712 -1.31631 5.8733 0
M  V30 3631 H 332.538 0.350071 3.01676 0
M  V30 3632 H 330.123 0.237321 1.47503 0
M  V30 3633 H 332.005 -2.00354 3.70724 0
M  V30 3634 H 330.68 -2.04163 2.51196 0
M  V30 3635 H 329.587 -0.0765902 3.74022 0
M  V30 3636 H 330.92 -0.120452 4.92053 0
M  V30 3637 N 332.573 -1.56217 0.208337 0
M  V30 3638 C 333.801 -2.02337 -0.43215 0
M  V30 3639 C 334.216 -1.08834 -1.54275 0
M  V30 3640 O 333.573 -0.0955462 -1.8225 0
M  V30 3641 C 333.624 -3.48072 -0.976138 0
M  V30 3642 O 333.345 -4.38007 0.0901621 0
M  V30 3643 C 334.846 -4.09773 -1.69119 0
M  V30 3644 H 332.066 -0.662385 -0.10718 0
M  V30 3645 H 334.61 -2.01966 0.320923 0
M  V30 3646 H 332.765 -3.49099 -1.67954 0
M  V30 3647 H 333.179 -5.23543 -0.316701 0
M  V30 3648 H 334.653 -5.13556 -2.02397 0
M  V30 3649 H 335.13 -3.53999 -2.59964 0
M  V30 3650 H 335.736 -4.12556 -1.03332 0
M  V30 3651 N 334.051 0.0651679 -1.57465 0
M  V30 3652 C 334.981 1.07693 -2.07182 0
M  V30 3653 C 335.962 1.39962 -0.966673 0
M  V30 3654 O 337.147 1.49475 -1.2398 0
M  V30 3655 C 334.277 2.3885 -2.52127 0
M  V30 3656 C 333.231 2.20917 -3.66579 0
M  V30 3657 C 332.557 3.57515 -3.97601 0
M  V30 3658 C 333.857 1.62493 -4.9638 0
M  V30 3659 H 335.551 0.663199 -2.91962 0
M  V30 3660 H 333.097 0.317569 -1.40455 0
M  V30 3661 H 335.05 3.09928 -2.85522 0
M  V30 3662 H 333.774 2.82215 -1.64384 0
M  V30 3663 H 332.433 1.52279 -3.33477 0
M  V30 3664 H 332.081 3.98463 -3.06979 0
M  V30 3665 H 331.781 3.46353 -4.74672 0
M  V30 3666 H 333.305 4.30013 -4.33499 0
M  V30 3667 H 334.719 2.23445 -5.27963 0
M  V30 3668 H 333.116 1.62009 -5.77818 0
M  V30 3669 H 334.186 0.587041 -4.81333 0
M  V30 3670 N 335.529 1.53961 0.336706 0
M  V30 3671 C 336.769 1.73254 1.08454 0
M  V30 3672 C 337.133 0.488937 1.8567 0
M  V30 3673 O 338.334 0.559001 2.62923 0
M  V30 3674 C 336.605 2.96519 1.99528 0
M  V30 3675 S 338.164 3.36655 2.81441 0
M  V30 3676 H 334.982 0.609353 0.366347 0
M  V30 3677 H 337.584 1.92117 0.362124 0
M  V30 3678 H 336.288 3.85193 1.41614 0
M  V30 3679 H 335.819 2.80142 2.76196 0
M  V30 3680 H 337.834 2.90925 4.01967 0
M  V30 3681 N 337.007 -0.598083 1.45811 0
M  V30 3682 C 338.256 -1.35295 1.49594 0
M  V30 3683 C 338.569 -1.95057 0.145679 0
M  V30 3684 O 339.775 -2.71431 0.0612099 0
M  V30 3685 C 338.231 -2.45124 2.63519 0
M  V30 3686 C 337.839 -1.91732 4.04899 0
M  V30 3687 C 339.583 -3.2205 2.76558 0
M  V30 3688 C 337.49 -2.991 5.1019 0
M  V30 3689 H 336.42 -0.508552 0.556679 0
M  V30 3690 H 339.071 -0.639977 1.71978 0
M  V30 3691 H 337.453 -3.19149 2.34435 0
M  V30 3692 H 338.627 -1.24352 4.43704 0
M  V30 3693 H 336.942 -1.27522 3.96393 0
M  V30 3694 H 339.539 -4.0215 3.52391 0
M  V30 3695 H 339.882 -3.73663 1.83526 0
M  V30 3696 H 340.415 -2.55127 3.05213 0
M  V30 3697 H 337.154 -2.52393 6.04961 0
M  V30 3698 H 336.674 -3.65017 4.75944 0
M  V30 3699 H 338.353 -3.63318 5.35359 0
M  V30 3700 N 338.485 -1.33259 -0.841409 0
M  V30 3701 C 339.734 -1.23921 -1.59143 0
M  V30 3702 C 340.047 0.1941 -1.94635 0
M  V30 3703 O 341.253 0.409474 -2.68394 0
M  V30 3704 C 339.709 -2.17119 -2.87032 0
M  V30 3705 C 339.317 -3.65606 -2.58914 0
M  V30 3706 C 341.061 -2.16648 -3.65053 0
M  V30 3707 C 338.968 -4.50726 -3.82884 0
M  V30 3708 H 337.898 -0.460264 -0.597221 0
M  V30 3709 H 340.549 -1.58307 -0.927959 0
M  V30 3710 H 338.931 -1.75663 -3.54906 0
M  V30 3711 H 340.105 -4.15487 -1.99267 0
M  V30 3712 H 338.42 -3.68341 -1.942 0
M  V30 3713 H 341.017 -2.77474 -4.57069 0
M  V30 3714 H 341.36 -1.16088 -3.99787 0
M  V30 3715 H 341.893 -2.56453 -3.041 0
M  V30 3716 H 338.632 -5.52151 -3.53283 0
M  V30 3717 H 338.152 -4.0559 -4.41879 0
M  V30 3718 H 339.831 -4.64401 -4.50489 0
M  V30 3719 N 339.963 1.05934 -1.16686 0
M  V30 3720 C 341.209 1.79211 -0.962023 0
M  V30 3721 C 341.564 1.85667 0.504545 0
M  V30 3722 O 340.857 1.33991 1.36956 0
M  V30 3723 C 341.051 3.23105 -1.52767 0
M  V30 3724 C 340.88 3.30673 -3.04771 0
M  V30 3725 C 339.65 3.40395 -3.73442 0
M  V30 3726 C 341.848 3.20234 -4.02436 0
M  V30 3727 N 339.83 3.37015 -5.13122 0
M  V30 3728 C 341.201 3.24138 -5.28521 0
M  V30 3729 C 343.256 3.04143 -3.9421 0
M  V30 3730 C 341.959 3.13607 -6.47336 0
M  V30 3731 C 343.985 2.94951 -5.12599 0
M  V30 3732 C 343.347 2.99481 -6.37566 0
M  V30 3733 H 339.446 0.668442 -0.405844 0
M  V30 3734 H 342.03 1.26341 -1.48142 0
M  V30 3735 H 340.201 3.74364 -1.03471 0
M  V30 3736 H 341.933 3.84579 -1.26021 0
M  V30 3737 H 338.688 3.45344 -3.2409 0
M  V30 3738 H 339.112 3.38815 -5.86117 0
M  V30 3739 H 343.754 2.99484 -2.98445 0
M  V30 3740 H 341.472 3.17022 -7.43319 0
M  V30 3741 H 345.058 2.83583 -5.08008 0
M  V30 3742 H 343.938 2.92431 -7.27636 0
M  V30 3743 N 341.441 0.965919 1.2453 0
M  V30 3744 C 342.688 0.626831 1.92554 0
M  V30 3745 C 343.016 -0.837739 1.75534 0
M  V30 3746 O 342.271 -1.61793 1.10098 0
M  V30 3747 C 342.57 0.945428 3.44669 0
M  V30 3748 C 342.236 2.39785 3.81856 0
M  V30 3749 C 340.898 2.79483 3.91718 0
M  V30 3750 C 343.25 3.34055 4.00071 0
M  V30 3751 C 340.578 4.12496 4.1721 0
M  V30 3752 C 342.93 4.66694 4.27059 0
M  V30 3753 C 341.594 5.06172 4.3514 0
M  V30 3754 H 340.864 0.229374 0.704605 0
M  V30 3755 H 343.511 1.21707 1.4785 0
M  V30 3756 H 341.816 0.272926 3.90848 0
M  V30 3757 H 343.513 0.661484 3.95507 0
M  V30 3758 H 340.103 2.08003 3.74743 0
M  V30 3759 H 344.287 3.04571 3.91855 0
M  V30 3760 H 339.543 4.42709 4.21685 0
M  V30 3761 H 343.717 5.3971 4.40097 0
M  V30 3762 H 341.344 6.09262 4.54646 0
M  V30 3763 N 342.919 -1.39368 0.735821 0
M  V30 3764 C 344.144 -2.05319 0.293052 0
M  V30 3765 C 344.569 -1.55115 -1.064 0
M  V30 3766 O 343.927 -0.695261 -1.67439 0
M  V30 3767 C 343.975 -3.59305 0.305323 0
M  V30 3768 O 343.079 -4.06299 -0.706761 0
M  V30 3769 H 342.42 -0.650529 0.13307 0
M  V30 3770 H 344.95 -1.78386 1.00197 0
M  V30 3771 H 344.96 -4.07724 0.149997 0
M  V30 3772 H 343.635 -3.95207 1.29553 0
M  V30 3773 H 342.212 -3.69292 -0.517504 0
M  V30 3774 N 344.397 -0.483516 -1.5 0
M  V30 3775 C 345.644 0.0671597 -2.02389 0
M  V30 3776 C 345.972 1.38597 -1.36459 0
M  V30 3777 O 345.227 1.89634 -0.483458 0
M  V30 3778 C 345.526 0.286226 -3.56252 0
M  V30 3779 C 345.192 -0.952416 -4.40726 0
M  V30 3780 C 343.854 -1.29199 -4.63531 0
M  V30 3781 C 346.206 -1.77655 -4.89988 0
M  V30 3782 C 343.534 -2.45553 -5.32842 0
M  V30 3783 C 345.886 -2.93147 -5.60578 0
M  V30 3784 C 344.55 -3.27505 -5.81633 0
M  V30 3785 H 343.82 0.0245755 -0.740592 0
M  V30 3786 H 346.467 -0.640124 -1.80485 0
M  V30 3787 H 344.772 1.07587 -3.76739 0
M  V30 3788 H 346.469 0.726473 -3.94365 0
M  V30 3789 H 343.059 -0.677881 -4.23205 0
M  V30 3790 H 347.243 -1.52737 -4.72213 0
M  V30 3791 H 342.499 -2.72431 -5.47349 0
M  V30 3792 H 346.673 -3.57344 -5.97727 0
M  V30 3793 H 344.3 -4.1777 -6.35116 0
M  V30 3794 N 345.875 1.56104 -0.216619 0
M  V30 3795 C 346.785 2.23694 0.706982 0
M  V30 3796 C 347.801 1.24295 1.21765 0
M  V30 3797 O 348.977 1.57094 1.2603 0
M  V30 3798 C 346.042 2.8998 1.90033 0
M  V30 3799 C 345.103 4.04708 1.43213 0
M  V30 3800 C 344.336 4.67824 2.56859 0
M  V30 3801 O 344.559 4.29913 3.74874 0
M  V30 3802 O 343.493 5.56905 2.28343 0
M  V30 3803 H 347.319 3.03272 0.161235 0
M  V30 3804 H 344.904 1.49394 0.0136177 0
M  V30 3805 H 346.786 3.31837 2.59735 0
M  V30 3806 H 345.461 2.13365 2.43428 0
M  V30 3807 H 344.368 3.6743 0.70327 0
M  V30 3808 H 345.701 4.83051 0.944615 0
M  V30 3809 N 347.353 -0.0568162 1.57498 0
M  V30 3810 C 348.283 -1.06593 2.0775 0
M  V30 3811 C 349.264 -1.39448 0.974082 0
M  V30 3812 O 350.449 -1.48815 1.24771 0
M  V30 3813 C 347.579 -2.37509 2.5339 0
M  V30 3814 C 346.533 -2.1897 3.67745 0
M  V30 3815 C 345.859 -3.55402 3.99492 0
M  V30 3816 C 347.159 -1.59859 4.97235 0
M  V30 3817 H 348.853 -0.647706 2.9231 0
M  V30 3818 H 346.399 -0.310116 1.40621 0
M  V30 3819 H 348.352 -3.08409 2.87162 0
M  V30 3820 H 347.076 -2.8134 1.65878 0
M  V30 3821 H 345.735 -1.50508 3.3428 0
M  V30 3822 H 345.383 -3.9683 3.09088 0
M  V30 3823 H 345.083 -3.43831 4.76502 0
M  V30 3824 H 346.607 -4.27708 4.35773 0
M  V30 3825 H 348.021 -2.20642 5.29141 0
M  V30 3826 H 346.418 -1.58942 5.78669 0
M  V30 3827 H 347.488 -0.561506 4.81638 0
M  V30 3828 N 348.832 -1.54138 -0.328536 0
M  V30 3829 C 350.078 -1.7236 -1.06865 0
M  V30 3830 C 350.411 -0.493231 -1.87832 0
M  V30 3831 O 349.686 0.5098 -1.877 0
M  V30 3832 C 349.969 -2.99621 -1.99747 0
M  V30 3833 C 349.822 -4.32899 -1.22143 0
M  V30 3834 C 351.141 -3.22615 -2.99345 0
M  V30 3835 H 348.26 -0.627151 -0.387105 0
M  V30 3836 H 350.902 -1.86827 -0.345767 0
M  V30 3837 H 349.052 -2.87418 -2.61387 0
M  V30 3838 H 350.724 -4.56978 -0.630017 0
M  V30 3839 H 348.967 -4.30628 -0.523628 0
M  V30 3840 H 349.638 -5.18154 -1.90318 0
M  V30 3841 H 352.114 -3.34248 -2.47826 0
M  V30 3842 H 350.99 -4.13027 -3.61524 0
M  V30 3843 H 351.251 -2.3961 -3.71536 0
M  V30 3844 N 350.31 0.590341 -1.46126 0
M  V30 3845 C 351.556 1.35082 -1.51264 0
M  V30 3846 C 351.889 1.93534 -0.160711 0
M  V30 3847 O 351.164 1.76045 0.826956 0
M  V30 3848 C 351.447 2.48588 -2.6053 0
M  V30 3849 C 351.3 1.95221 -4.05227 0
M  V30 3850 C 352.619 3.50662 -2.6594 0
M  V30 3851 H 349.738 0.489803 -0.550692 0
M  V30 3852 H 352.38 0.663887 -1.78024 0
M  V30 3853 H 350.53 3.07186 -2.37843 0
M  V30 3854 H 352.202 1.41139 -4.39178 0
M  V30 3855 H 350.445 1.26101 -4.15068 0
M  V30 3856 H 351.116 2.77121 -4.77397 0
M  V30 3857 H 353.592 3.01934 -2.86313 0
M  V30 3858 H 352.468 4.27551 -3.44226 0
M  V30 3859 H 352.729 4.07399 -1.71694 0
M  V30 3860 N 351.788 1.33704 0.83433 0
M  V30 3861 C 353.204 1.13137 1.12571 0
M  V30 3862 C 353.404 -0.0747261 2.01361 0
M  V30 3863 O 352.46 -0.753647 2.4099 0
M  V30 3864 C 353.773 2.42105 1.78342 0
M  V30 3865 C 355.321 2.48054 1.90888 0
M  V30 3866 C 355.796 3.76995 2.60075 0
M  V30 3867 N 357.287 3.78092 2.67584 0
M  V30 3868 C 358.022 4.74574 3.21818 0
M  V30 3869 N 357.518 5.81434 3.76705 0
M  V30 3870 N 359.311 4.62044 3.20112 0
M  V30 3871 H 351.462 2.11 0.243489 0
M  V30 3872 H 353.725 0.932532 0.17055 0
M  V30 3873 H 353.431 3.30391 1.20561 0
M  V30 3874 H 353.305 2.54594 2.7832 0
M  V30 3875 H 355.692 1.60215 2.47821 0
M  V30 3876 H 355.773 2.39502 0.898459 0
M  V30 3877 H 355.417 4.65219 2.03799 0
M  V30 3878 H 355.347 3.82825 3.61597 0
M  V30 3879 H 357.838 3.00865 2.28667 0
M  V30 3880 H 358.151 6.51084 4.16305 0
M  V30 3881 H 356.496 5.85163 3.7498 0
M  V30 3882 H 359.687 3.77716 2.76493 0
M  V30 3883 H 359.86 5.37406 3.62076 0
M  V30 3884 N 353.266 -1.05314 1.17247 0
M  V30 3885 C 354.513 -1.78293 0.960091 0
M  V30 3886 C 354.841 -1.87658 -0.51136 0
M  V30 3887 O 354.096 -1.3718 -1.39571 0
M  V30 3888 C 354.395 -3.2229 1.54479 0
M  V30 3889 C 354.061 -3.32987 3.04024 0
M  V30 3890 C 352.723 -3.35613 3.44844 0
M  V30 3891 C 355.075 -3.34102 4.00031 0
M  V30 3892 C 352.403 -3.36982 4.8027 0
M  V30 3893 C 354.755 -3.3701 5.35357 0
M  V30 3894 C 353.419 -3.37923 5.75642 0
M  V30 3895 H 352.689 -0.652422 0.351322 0
M  V30 3896 H 355.336 -1.23782 1.46117 0
M  V30 3897 H 353.641 -3.7972 0.965391 0
M  V30 3898 H 355.338 -3.77376 1.35603 0
M  V30 3899 H 351.928 -3.31655 2.71483 0
M  V30 3900 H 356.112 -3.31276 3.69554 0
M  V30 3901 H 351.368 -3.35999 5.10798 0
M  V30 3902 H 355.542 -3.36822 6.09528 0
M  V30 3903 H 353.169 -3.38738 6.80559 0
M  V30 3904 N 354.744 -0.972509 -1.24016 0
M  V30 3905 C 355.991 -0.637034 -1.92219 0
M  V30 3906 C 356.319 0.828418 -1.75976 0
M  V30 3907 O 355.574 1.61206 -1.10955 0
M  V30 3908 C 355.873 -0.963694 -3.44162 0
M  V30 3909 C 355.539 -2.41807 -3.80579 0
M  V30 3910 C 354.201 -2.81556 -3.9023 0
M  V30 3911 C 356.553 -3.36172 -3.98293 0
M  V30 3912 C 353.881 -4.14702 -4.15017 0
M  V30 3913 C 356.233 -4.68952 -4.24578 0
M  V30 3914 C 354.897 -5.08472 -4.32449 0
M  V30 3915 H 354.167 -0.233107 -0.703379 0
M  V30 3916 H 356.814 -1.2249 -1.47202 0
M  V30 3917 H 355.119 -0.29365 -3.90698 0
M  V30 3918 H 356.816 -0.682449 -3.9515 0
M  V30 3919 H 353.406 -2.09988 -3.73635 0
M  V30 3920 H 357.59 -3.06644 -3.90234 0
M  V30 3921 H 352.846 -4.4494 -4.19331 0
M  V30 3922 H 357.02 -5.42037 -4.37229 0
M  V30 3923 H 354.647 -6.11665 -4.51409 0
M  V30 3924 N 356.222 1.38976 -0.743202 0
M  V30 3925 C 357.185 2.28901 -0.117014 0
M  V30 3926 C 358.185 1.46698 0.658503 0
M  V30 3927 O 359.375 1.67274 0.486305 0
M  V30 3928 C 356.507 3.30309 0.84315 0
M  V30 3929 H 357.7 2.8578 -0.909373 0
M  V30 3930 H 355.253 1.47761 -0.509547 0
M  V30 3931 H 355.988 2.785 1.66157 0
M  V30 3932 H 355.773 3.91029 0.289594 0
M  V30 3933 H 357.263 3.97577 1.2776 0
M  V30 3934 N 357.7 0.491464 1.49741 0
M  V30 3935 C 358.94 -0.0549118 2.04326 0
M  V30 3936 C 359.304 -1.35148 1.36378 0
M  V30 3937 O 360.505 -1.9815 1.81631 0
M  V30 3938 C 358.776 -0.213841 3.5676 0
M  V30 3939 S 360.335 -0.715839 4.32922 0
M  V30 3940 H 357.153 -0.00630513 0.710972 0
M  V30 3941 H 359.755 0.663257 1.83905 0
M  V30 3942 H 358.459 0.73527 4.0376 0
M  V30 3943 H 357.99 -0.957529 3.81569 0
M  V30 3944 H 360.005 -1.9864 4.54705 0
M  V30 3945 N 359.178 -1.55987 0.224894 0
M  V30 3946 C 360.589 -1.84553 -0.282345 0
M  V30 3947 C 360.94 -1.14634 -1.59227 0
M  V30 3948 O 360.065 -0.417155 -2.12341 0
M  V30 3949 C 360.66 -3.348 -0.519062 0
M  V30 3950 C 359.219 -3.63671 -0.970604 0
M  V30 3951 C 358.366 -2.77277 -0.0355261 0
M  V30 3952 H 361.317 -1.52245 0.448006 0
M  V30 3953 H 361.338 -3.55187 -1.36463 0
M  V30 3954 H 360.85 -3.8566 0.43449 0
M  V30 3955 H 358.951 -3.1827 -1.9374 0
M  V30 3956 H 359.064 -4.71631 -0.842698 0
M  V30 3957 H 357.428 -2.48846 -0.542927 0
M  V30 3958 H 358.211 -3.30937 0.913003 0
M  V30 3959 N 360.656 0.0484629 -1.57525 0
M  V30 3960 C 361.881 0.759177 -1.93006 0
M  V30 3961 C 362.306 1.69125 -0.823317 0
M  V30 3962 O 361.664 1.79931 0.222364 0
M  V30 3963 C 361.712 1.50899 -3.27509 0
M  V30 3964 O 360.816 2.62112 -3.18388 0
M  V30 3965 H 360.157 0.205564 -0.631379 0
M  V30 3966 H 362.687 0.00972959 -2.04598 0
M  V30 3967 H 362.697 1.88317 -3.6194 0
M  V30 3968 H 361.372 0.825269 -4.0763 0
M  V30 3969 H 359.949 2.27379 -2.95556 0
M  V30 3970 N 362.134 1.5431 0.320358 0
M  V30 3971 C 363.081 1.83918 1.39438 0
M  V30 3972 C 364.051 0.686525 1.51248 0
M  V30 3973 O 365.236 0.933269 1.66417 0
M  V30 3974 C 362.376 2.075 2.75749 0
M  V30 3975 C 361.489 3.35177 2.72544 0
M  V30 3976 C 360.624 3.48704 4.00723 0
M  V30 3977 C 359.663 4.70244 3.91838 0
M  V30 3978 N 358.8 4.80679 5.11754 0
M  V30 3979 H 363.64 2.75544 1.13489 0
M  V30 3980 H 361.177 1.36459 0.549309 0
M  V30 3981 H 363.135 2.19166 3.54996 0
M  V30 3982 H 361.765 1.19163 3 0
M  V30 3983 H 360.817 3.32233 1.85271 0
M  V30 3984 H 362.129 4.24534 2.61863 0
M  V30 3985 H 361.283 3.59928 4.88402 0
M  V30 3986 H 360.022 2.57445 4.14214 0
M  V30 3987 H 359.027 4.59072 3.02544 0
M  V30 3988 H 360.252 5.6289 3.7991 0
M  V30 3989 H 358.198 3.92337 5.25745 0
M  V30 3990 H 358.115 5.64007 5.0342 0
M  V30 3991 H 359.383 4.96239 6.01138 0
M  V30 3992 N 363.613 -0.582584 1.46437 0
M  V30 3993 C 364.841 -1.36682 1.55324 0
M  V30 3994 C 365.256 -1.87796 0.194409 0
M  V30 3995 O 364.613 -1.63623 -0.808318 0
M  V30 3996 C 364.664 -2.55426 2.55812 0
M  V30 3997 O 364.385 -2.0643 3.86417 0
M  V30 3998 C 365.886 -3.47976 2.74641 0
M  V30 3999 H 363.106 -0.417545 0.525259 0
M  V30 4000 H 365.65 -0.708219 1.91845 0
M  V30 4001 H 363.805 -3.17275 2.22295 0
M  V30 4002 H 364.219 -2.83762 4.41111 0
M  V30 4003 H 365.693 -4.27775 3.48874 0
M  V30 4004 H 366.17 -3.99919 1.81553 0
M  V30 4005 H 366.776 -2.91962 3.09255 0
M  V30 4006 N 365.091 -1.34144 -0.827227 0
M  V30 4007 C 366.368 -1.16844 -1.56865 0
M  V30 4008 C 366.748 0.260654 -2.09485 0
M  V30 4009 O 366.096 1.26138 -1.9053 0
M  V30 4010 C 366.306 -2.21939 -2.6934 0
M  V30 4011 C 367.654 -2.56695 -3.3822 0
M  V30 4012 O 368.678 -2.20695 -2.79593 0
M  V30 4013 O 367.537 -3.18518 -4.44082 0
M  V30 4014 H 364.631 -0.452669 -0.692112 0
M  V30 4015 H 367.177 -1.45763 -0.868973 0
M  V30 4016 H 365.949 -3.17882 -2.28182 0
M  V30 4017 H 365.572 -1.94172 -3.46962 0
M  V30 4018 N 366.569 1.04691 -1.17803 0
M  V30 4019 C 367.816 1.77782 -0.969532 0
M  V30 4020 C 368.144 1.87926 0.501401 0
M  V30 4021 O 367.399 1.37918 1.38842 0
M  V30 4022 C 367.698 3.21467 -1.56186 0
M  V30 4023 C 367.364 3.3137 -3.05786 0
M  V30 4024 C 366.026 3.3378 -3.46619 0
M  V30 4025 C 368.378 3.31976 -4.01797 0
M  V30 4026 C 365.706 3.34431 -4.82051 0
M  V30 4027 C 368.058 3.34167 -5.37136 0
M  V30 4028 C 366.722 3.34866 -5.77426 0
M  V30 4029 H 365.992 0.650549 -0.354777 0
M  V30 4030 H 368.639 1.23006 -1.46772 0
M  V30 4031 H 366.944 3.79203 -0.985515 0
M  V30 4032 H 368.641 3.76652 -1.37602 0
M  V30 4033 H 365.231 3.3021 -2.73238 0
M  V30 4034 H 369.415 3.29311 -3.71306 0
M  V30 4035 H 364.671 3.33285 -5.12573 0
M  V30 4036 H 368.845 3.33585 -6.11305 0
M  V30 4037 H 366.472 3.35124 -6.82346 0
M  V30 4038 N 368.047 0.979072 1.23499 0
M  V30 4039 C 369.294 0.647219 1.91878 0
M  V30 4040 C 369.622 -0.819074 1.76413 0
M  V30 4041 O 368.877 -1.60616 1.11808 0
M  V30 4042 C 369.176 0.981932 3.43646 0
M  V30 4043 C 368.842 2.43822 3.79291 0
M  V30 4044 C 367.504 2.83622 3.88731 0
M  V30 4045 C 369.856 3.3828 3.96505 0
M  V30 4046 C 367.184 4.16897 4.12812 0
M  V30 4047 C 369.536 4.71197 4.22085 0
M  V30 4048 C 368.2 5.10758 4.29747 0
M  V30 4049 H 367.47 0.236834 0.702133 0
M  V30 4050 H 370.117 1.23268 1.46551 0
M  V30 4051 H 368.422 0.314365 3.90537 0
M  V30 4052 H 370.119 0.703395 3.94783 0
M  V30 4053 H 366.709 2.11966 3.72516 0
M  V30 4054 H 370.893 3.0871 3.88603 0
M  V30 4055 H 366.149 4.47157 4.16966 0
M  V30 4056 H 370.323 5.44348 4.34348 0
M  V30 4057 H 367.95 6.1405 4.48159 0
M  V30 4058 N 369.525 -1.3858 0.750561 0
M  V30 4059 C 370.472 -2.30483 0.120835 0
M  V30 4060 C 371.442 -1.50022 -0.712923 0
M  V30 4061 O 372.627 -1.78662 -0.669676 0
M  V30 4062 C 369.767 -3.36431 -0.768666 0
M  V30 4063 C 368.88 -4.31927 0.0793922 0
M  V30 4064 C 368.015 -5.24944 -0.81283 0
M  V30 4065 C 367.054 -6.12088 0.0390447 0
M  V30 4066 N 366.191 -6.97412 -0.809969 0
M  V30 4067 H 371.031 -2.83761 0.91015 0
M  V30 4068 H 368.568 -1.39707 0.460463 0
M  V30 4069 H 370.526 -3.96462 -1.29898 0
M  V30 4070 H 369.156 -2.8457 -1.5238 0
M  V30 4071 H 368.208 -3.73382 0.727303 0
M  V30 4072 H 369.52 -4.93319 0.737401 0
M  V30 4073 H 368.674 -5.90078 -1.41042 0
M  V30 4074 H 367.413 -4.63911 -1.50458 0
M  V30 4075 H 366.418 -5.45952 0.649328 0
M  V30 4076 H 367.643 -6.75189 0.727809 0
M  V30 4077 H 365.589 -6.38931 -1.48672 0
M  V30 4078 H 365.506 -7.55712 -0.208789 0
M  V30 4079 H 366.774 -7.66959 -1.39263 0
M  V30 4080 N 371.003 -0.499398 -1.49478 0
M  V30 4081 C 371.951 0.293604 -2.3074 0
M  V30 4082 C 372.945 0.96427 -1.39277 0
M  V30 4083 O 374.151 0.892141 -1.56336 0
M  V30 4084 H 370.526 0.113541 -0.743379 0
M  V30 4085 H 372.497 -0.411772 -2.95545 0
M  V30 4086 C 371.246 1.3462 -3.20582 0
M  V30 4087 H 370.569 0.83954 -3.90886 0
M  V30 4088 H 372.009 1.87308 -3.80384 0
M  V30 4089 C 370.468 2.36351 -2.40083 0
M  V30 4090 O 370.998 3.422 -2.10385 0
M  V30 4091 N 369.204 2.0878 -2.02137 0
M  V30 4092 H 368.751 1.22723 -2.26488 0
M  V30 4093 H 368.709 2.77075 -1.48583 0
M  V30 4094 N 372.481 1.55866 -0.233164 0
M  V30 4095 C 373.73 1.97779 0.39579 0
M  V30 4096 C 374.043 1.12419 1.60066 0
M  V30 4097 O 375.249 1.44283 2.29988 0
M  V30 4098 C 373.705 3.5188 0.755556 0
M  V30 4099 C 373.313 4.45959 -0.427152 0
M  V30 4100 C 375.057 4.02479 1.34946 0
M  V30 4101 C 372.964 5.91383 -0.0443043 0
M  V30 4102 H 371.894 0.738592 0.15165 0
M  V30 4103 H 374.545 1.80486 -0.331212 0
M  V30 4104 H 372.927 3.64816 1.5403 0
M  V30 4105 H 374.101 4.44776 -1.20462 0
M  V30 4106 H 372.416 4.05765 -0.935068 0
M  V30 4107 H 375.013 5.08637 1.649 0
M  V30 4108 H 375.356 3.49014 2.26925 0
M  V30 4109 H 375.889 3.92813 0.62791 0
M  V30 4110 H 372.628 6.48857 -0.930874 0
M  V30 4111 H 372.148 5.95734 0.697238 0
M  V30 4112 H 373.827 6.45893 0.378334 0
M  V30 4113 N 373.959 -0.0401083 1.57549 0
M  V30 4114 C 374.892 -1.07689 2.01192 0
M  V30 4115 C 375.87 -1.358 0.894273 0
M  V30 4116 O 377.054 -1.48642 1.15921 0
M  V30 4117 C 374.181 -2.41418 2.3756 0
M  V30 4118 C 373.227 -2.29237 3.59656 0
M  V30 4119 S 374.06 -1.65628 5.09242 0
M  V30 4120 C 375.216 -3.0087 5.48843 0
M  V30 4121 H 375.449 -0.705108 2.88817 0
M  V30 4122 H 372.982 -0.249724 1.52367 0
M  V30 4123 H 374.94 -3.18329 2.59186 0
M  V30 4124 H 373.601 -2.75747 1.50407 0
M  V30 4125 H 372.794 -3.27932 3.82722 0
M  V30 4126 H 372.396 -1.60469 3.37825 0
M  V30 4127 H 374.688 -3.97201 5.48851 0
M  V30 4128 H 375.631 -2.82549 6.49286 0
M  V30 4129 H 376.039 -3.02934 4.76331 0
M  V30 4130 N 375.437 -1.54477 -0.31217 0
M  V30 4131 C 376.385 -1.85395 -1.40469 0
M  V30 4132 C 377.379 -0.726749 -1.53019 0
M  V30 4133 O 378.585 -0.910582 -1.55269 0
M  V30 4134 H 374.96 -0.587845 -0.46898 0
M  V30 4135 H 376.931 -2.76736 -1.11623 0
M  V30 4136 C 375.68 -2.10811 -2.76503 0
M  V30 4137 H 375.003 -2.97014 -2.67625 0
M  V30 4138 H 376.443 -2.3639 -3.51988 0
M  V30 4139 C 374.902 -0.903165 -3.24568 0
M  V30 4140 O 375.432 -0.118085 -4.01526 0
M  V30 4141 N 373.638 -0.711634 -2.81752 0
M  V30 4142 H 373.185 -1.35171 -2.19286 0
M  V30 4143 H 373.143 0.0930473 -3.14262 0
M  V30 4144 N 376.915 0.57481 -1.46744 0
M  V30 4145 C 378.162 1.33272 -1.52462 0
M  V30 4146 C 378.49 1.93669 -0.179572 0
M  V30 4147 O 377.745 1.7743 0.825664 0
M  V30 4148 C 378.044 2.476 -2.57738 0
M  V30 4149 C 377.71 2.05146 -4.01529 0
M  V30 4150 C 376.372 1.93284 -4.40676 0
M  V30 4151 C 378.724 1.72506 -4.91824 0
M  V30 4152 C 376.052 1.47049 -5.67973 0
M  V30 4153 C 378.404 1.27748 -6.19567 0
M  V30 4154 C 377.068 1.14468 -6.57612 0
M  V30 4155 H 376.338 0.487678 -0.557899 0
M  V30 4156 H 378.985 0.646456 -1.80259 0
M  V30 4157 H 377.29 3.21708 -2.23632 0
M  V30 4158 H 378.987 3.05807 -2.5939 0
M  V30 4159 H 375.577 2.15316 -3.7059 0
M  V30 4160 H 379.761 1.80552 -4.62293 0
M  V30 4161 H 375.017 1.35417 -5.96215 0
M  V30 4162 H 379.191 1.01547 -6.88957 0
M  V30 4163 H 376.818 0.78419 -7.56145 0
M  V30 4164 N 378.394 1.34581 0.820102 0
M  V30 4165 C 379.643 1.26437 1.57151 0
M  V30 4166 C 379.956 -0.163111 1.94919 0
M  V30 4167 O 381.162 -0.366722 2.69012 0
M  V30 4168 C 379.618 2.21658 2.83541 0
M  V30 4169 C 379.226 3.69679 2.53065 0
M  V30 4170 C 380.97 2.22428 3.61561 0
M  V30 4171 C 378.877 4.56761 3.75664 0
M  V30 4172 H 377.807 0.469707 0.589823 0
M  V30 4173 H 380.458 1.59763 0.902656 0
M  V30 4174 H 378.84 1.81287 3.52067 0
M  V30 4175 H 380.014 4.18605 1.92631 0
M  V30 4176 H 378.329 3.71384 1.88316 0
M  V30 4177 H 380.926 2.8471 4.52597 0
M  V30 4178 H 381.269 1.22434 3.97889 0
M  V30 4179 H 381.802 2.61259 2.99981 0
M  V30 4180 H 378.541 5.57702 3.44454 0
M  V30 4181 H 378.061 4.12568 4.35371 0
M  V30 4182 H 379.74 4.71509 4.43044 0
M  V30 4183 N 379.872 -1.04064 1.18357 0
M  V30 4184 C 381.149 -1.74252 0.888581 0
M  V30 4185 C 381.529 -2.02138 -0.60856 0
M  V30 4186 O 380.877 -1.66656 -1.56327 0
M  V30 4187 C 381.087 -3.0277 1.73584 0
M  V30 4188 C 382.435 -3.76506 1.96286 0
M  V30 4189 O 383.459 -3.12668 1.70637 0
M  V30 4190 O 382.318 -4.91243 2.39464 0
M  V30 4191 H 379.412 -0.758271 0.330082 0
M  V30 4192 H 381.958 -1.1013 1.2911 0
M  V30 4193 H 380.73 -2.78299 2.75073 0
M  V30 4194 H 380.353 -3.74631 1.33183 0
M  V30 4195 N 381.35 -0.985608 -1.22978 0
M  V30 4196 C 382.599 -0.652881 -1.90841 0
M  V30 4197 C 382.912 0.817842 -1.77681 0
M  V30 4198 O 384.118 1.26185 -2.40395 0
M  V30 4199 C 382.574 -1.11717 -3.42122 0
M  V30 4200 C 382.182 -2.6126 -3.63933 0
M  V30 4201 C 383.926 -0.85843 -4.1573 0
M  V30 4202 C 381.833 -3.0133 -5.08876 0
M  V30 4203 H 380.763 -0.240491 -0.714619 0
M  V30 4204 H 383.414 -1.1942 -1.39324 0
M  V30 4205 H 381.796 -0.504027 -3.92779 0
M  V30 4206 H 382.97 -3.27858 -3.23799 0
M  V30 4207 H 381.285 -2.84937 -3.03644 0
M  V30 4208 H 383.882 -1.13359 -5.22546 0
M  V30 4209 H 384.225 0.205461 -4.15793 0
M  V30 4210 H 384.758 -1.43341 -3.71077 0
M  V30 4211 H 381.497 -4.06864 -5.13947 0
M  V30 4212 H 381.017 -2.3943 -5.49939 0
M  V30 4213 H 382.696 -2.92224 -5.77247 0
M  V30 4214 N 382.828 1.3818 -0.7579 0
M  V30 4215 C 384.074 2.00316 -0.316453 0
M  V30 4216 C 384.407 1.60026 1.10025 0
M  V30 4217 O 383.682 0.839835 1.75434 0
M  V30 4218 C 383.965 3.57349 -0.444245 0
M  V30 4219 C 383.818 4.07591 -1.90236 0
M  V30 4220 C 385.137 4.3981 0.1598 0
M  V30 4221 H 382.256 0.727741 -0.116459 0
M  V30 4222 H 384.898 1.6406 -0.958352 0
M  V30 4223 H 383.048 3.88365 0.102233 0
M  V30 4224 H 384.72 3.87199 -2.50748 0
M  V30 4225 H 382.963 3.60297 -2.41595 0
M  V30 4226 H 383.634 5.16677 -1.94291 0
M  V30 4227 H 386.11 4.14971 -0.306314 0
M  V30 4228 H 384.986 5.48885 0.0401675 0
M  V30 4229 H 385.247 4.24102 1.24859 0
M  V30 4230 N 384.306 0.507319 1.49211 0
M  V30 4231 C 385.269 -0.256763 2.27757 0
M  V30 4232 C 386.269 -0.888287 1.34038 0
M  V30 4233 O 387.459 -0.751841 1.5714 0
M  V30 4234 C 384.591 -1.36905 3.12202 0
M  V30 4235 H 385.784 0.432557 2.96764 0
M  V30 4236 H 383.337 0.262488 1.5408 0
M  V30 4237 H 384.072 -2.09233 2.47775 0
M  V30 4238 H 383.857 -0.921599 3.81115 0
M  V30 4239 H 385.347 -1.9071 3.7151 0
M  V30 4240 N 385.784 -1.5574 0.241426 0
M  V30 4241 C 387.033 -1.97986 -0.385295 0
M  V30 4242 C 387.346 -1.13267 -1.59468 0
M  V30 4243 O 388.552 -1.45501 -2.2922 0
M  V30 4244 C 387.008 -3.52275 -0.736884 0
M  V30 4245 C 386.616 -4.45726 0.450796 0
M  V30 4246 C 388.36 -4.03189 -1.3281 0
M  V30 4247 C 386.267 -5.91352 0.0756662 0
M  V30 4248 H 385.197 -0.739386 -0.147731 0
M  V30 4249 H 387.848 -1.80308 0.340779 0
M  V30 4250 H 386.23 -3.65628 -1.52094 0
M  V30 4251 H 387.404 -4.44131 1.22819 0
M  V30 4252 H 385.719 -4.05264 0.956573 0
M  V30 4253 H 388.316 -5.09505 -1.62201 0
M  V30 4254 H 388.659 -3.50212 -2.25071 0
M  V30 4255 H 389.192 -3.93141 -0.607069 0
M  V30 4256 H 385.931 -6.48354 0.965272 0
M  V30 4257 H 385.451 -5.96095 -0.665635 0
M  V30 4258 H 387.13 -6.46084 -0.344075 0
M  V30 4259 N 387.262 0.0317525 -1.57568 0
M  V30 4260 C 388.511 0.722131 -1.8833 0
M  V30 4261 C 388.824 1.76664 -0.839587 0
M  V30 4262 O 390.03 2.50942 -1.03635 0
M  V30 4263 C 388.486 1.33544 -3.34207 0
M  V30 4264 C 388.094 0.327415 -4.46802 0
M  V30 4265 C 389.838 2.00585 -3.7412 0
M  V30 4266 C 387.745 0.948915 -5.83738 0
M  V30 4267 H 386.675 0.273466 -0.702661 0
M  V30 4268 H 389.326 -0.0235811 -1.83485 0
M  V30 4269 H 387.708 2.13077 -3.33788 0
M  V30 4270 H 388.882 -0.441006 -4.58685 0
M  V30 4271 H 387.197 -0.240758 -4.15703 0
M  V30 4272 H 389.794 2.47932 -4.73744 0
M  V30 4273 H 390.137 2.82285 -3.05975 0
M  V30 4274 H 390.67 1.27831 -3.76702 0
M  V30 4275 H 387.409 0.171387 -6.55276 0
M  V30 4276 H 386.929 1.68724 -5.7558 0
M  V30 4277 H 388.608 1.45705 -6.3038 0
M  V30 4278 N 388.74 1.54641 0.303973 0
M  V30 4279 C 390.151 1.64811 0.877163 0
M  V30 4280 C 390.502 0.554838 1.88191 0
M  V30 4281 O 389.627 -0.309033 2.14182 0
M  V30 4282 C 390.222 2.9876 1.59775 0
M  V30 4283 C 388.781 3.11061 2.11938 0
M  V30 4284 C 387.928 2.60479 0.951097 0
M  V30 4285 H 390.879 1.58493 0.0810486 0
M  V30 4286 H 390.9 2.90017 2.46314 0
M  V30 4287 H 390.412 3.7831 0.866226 0
M  V30 4288 H 388.513 2.36225 2.88146 0
M  V30 4289 H 388.626 4.17171 2.35595 0
M  V30 4290 H 386.99 2.16859 1.33583 0
M  V30 4291 H 387.773 3.42504 0.233581 0
M  V30 4292 N 390.218 -0.567019 1.47046 0
M  V30 4293 C 391.448 -1.34831 1.56538 0
M  V30 4294 C 391.856 -1.8802 0.21101 0
M  V30 4295 O 391.199 -1.65152 -0.804387 0
M  V30 4296 C 391.261 -2.56139 2.52256 0
M  V30 4297 C 390.925 -2.24307 3.98165 0
M  V30 4298 C 391.922 -1.82192 4.86931 0
M  V30 4299 C 389.607 -2.35968 4.43423 0
M  V30 4300 C 391.601 -1.52153 6.18973 0
M  V30 4301 C 389.288 -2.05542 5.75496 0
M  V30 4302 C 390.286 -1.63701 6.63092 0
M  V30 4303 O 389.974 -1.33657 7.92711 0
M  V30 4304 H 389.706 -0.417683 0.531523 0
M  V30 4305 H 392.26 -0.694726 1.93294 0
M  V30 4306 H 390.49 -3.24356 2.10548 0
M  V30 4307 H 392.179 -3.18214 2.51982 0
M  V30 4308 H 392.945 -1.72684 4.53217 0
M  V30 4309 H 388.824 -2.67495 3.75456 0
M  V30 4310 H 392.368 -1.19421 6.87302 0
M  V30 4311 H 388.265 -2.14679 6.08755 0
M  V30 4312 H 389.033 -1.4737 8.05124 0
M  V30 4313 N 391.696 -1.35014 -0.812953 0
M  V30 4314 C 392.943 -1.27931 -1.56971 0
M  V30 4315 C 393.271 0.148034 -1.93936 0
M  V30 4316 O 392.526 1.11175 -1.61054 0
M  V30 4317 C 392.825 -2.12524 -2.87347 0
M  V30 4318 C 392.491 -3.61401 -2.6963 0
M  V30 4319 C 391.153 -4.01983 -2.64506 0
M  V30 4320 C 393.505 -4.55894 -2.52607 0
M  V30 4321 C 390.833 -5.35235 -2.40293 0
M  V30 4322 C 393.185 -5.89336 -2.29925 0
M  V30 4323 C 391.849 -6.2907 -2.23219 0
M  V30 4324 H 391.119 -0.468131 -0.574399 0
M  V30 4325 H 393.766 -1.66851 -0.939836 0
M  V30 4326 H 392.071 -1.66463 -3.54679 0
M  V30 4327 H 393.768 -2.04383 -3.45005 0
M  V30 4328 H 390.358 -3.29193 -2.74463 0
M  V30 4329 H 394.542 -4.25431 -2.55583 0
M  V30 4330 H 389.798 -5.65028 -2.33566 0
M  V30 4331 H 393.972 -6.62139 -2.15743 0
M  V30 4332 H 391.599 -7.32256 -2.04219 0
M  V30 4333 N 393.175 1.03435 -1.18907 0
M  V30 4334 C 394.424 1.76143 -0.982669 0
M  V30 4335 C 394.737 1.89416 0.487953 0
M  V30 4336 O 395.943 2.59041 0.813036 0
M  V30 4337 C 394.399 3.16722 -1.70924 0
M  V30 4338 C 394.007 3.11522 -3.21959 0
M  V30 4339 C 395.751 3.93764 -1.58588 0
M  V30 4340 C 393.658 4.46999 -3.87228 0
M  V30 4341 H 392.588 0.660292 -0.364047 0
M  V30 4342 H 395.239 1.158 -1.42347 0
M  V30 4343 H 393.621 3.775 -1.19623 0
M  V30 4344 H 394.795 2.60158 -3.80335 0
M  V30 4345 H 393.11 2.47978 -3.34508 0
M  V30 4346 H 395.707 4.93963 -2.04707 0
M  V30 4347 H 396.05 4.12794 -0.539142 0
M  V30 4348 H 396.583 3.39576 -2.07203 0
M  V30 4349 H 393.322 4.33174 -4.91976 0
M  V30 4350 H 392.842 4.98441 -3.33642 0
M  V30 4351 H 394.521 5.15898 -3.90459 0
M  V30 4352 N 394.653 0.992116 1.22453 0
M  V30 4353 C 395.881 0.685944 1.95198 0
M  V30 4354 C 396.296 -0.749233 1.73297 0
M  V30 4355 O 395.653 -1.50549 1.03156 0
M  V30 4356 C 395.704 0.981395 3.47924 0
M  V30 4357 O 395.425 2.36018 3.6909 0
M  V30 4358 C 396.926 0.692815 4.37853 0
M  V30 4359 H 394.146 0.253821 0.621141 0
M  V30 4360 H 396.69 1.32668 1.55626 0
M  V30 4361 H 394.845 0.386481 3.85467 0
M  V30 4362 H 395.259 2.45884 4.63294 0
M  V30 4363 H 396.733 0.949818 5.43767 0
M  V30 4364 H 397.21 -0.373181 4.37612 0
M  V30 4365 H 397.816 1.26874 4.05935 0
M  V30 4366 N 396.131 -1.37776 0.765217 0
M  V30 4367 C 397.061 -2.32945 0.160953 0
M  V30 4368 C 398.042 -1.55454 -0.690516 0
M  V30 4369 O 399.227 -1.83721 -0.629318 0
M  V30 4370 C 396.357 -3.39669 -0.724031 0
M  V30 4371 C 395.311 -4.27992 0.0256173 0
M  V30 4372 C 394.637 -5.25673 -0.978383 0
M  V30 4373 C 395.937 -5.08309 1.20082 0
M  V30 4374 H 397.631 -2.83728 0.955969 0
M  V30 4375 H 395.177 -1.36416 0.461149 0
M  V30 4376 H 397.13 -4.05219 -1.15652 0
M  V30 4377 H 395.854 -2.87396 -1.5515 0
M  V30 4378 H 394.513 -3.63964 0.438812 0
M  V30 4379 H 394.161 -4.69682 -1.80022 0
M  V30 4380 H 393.861 -5.85625 -0.481378 0
M  V30 4381 H 395.385 -5.94098 -1.40995 0
M  V30 4382 H 396.799 -5.67034 0.845307 0
M  V30 4383 H 395.196 -5.77554 1.62947 0
M  V30 4384 H 396.266 -4.41365 2.00811 0
M  V30 4385 N 397.609 -0.515225 -1.4894 0
M  V30 4386 C 398.857 0.0241671 -2.02086 0
M  V30 4387 C 399.178 1.3616 -1.3959 0
M  V30 4388 O 398.448 1.87841 -0.556121 0
M  V30 4389 H 397.028 0.0119203 -0.746905 0
M  V30 4390 H 399.69 -0.675702 -1.82812 0
M  V30 4391 H 398.786 0.143385 -3.1177 0
M  V30 4392 N 399.087 1.5561 -0.249682 0
M  V30 4393 C 400.315 2.03411 0.378352 0
M  V30 4394 C 400.73 1.12886 1.51335 0
M  V30 4395 O 400.087 0.143833 1.81932 0
M  V30 4396 C 400.138 3.50537 0.88351 0
M  V30 4397 O 399.859 4.37614 -0.20626 0
M  V30 4398 C 401.36 4.14113 1.58195 0
M  V30 4399 H 398.58 0.664994 0.08958 0
M  V30 4400 H 401.124 2.01044 -0.374357 0
M  V30 4401 H 399.279 3.5343 1.58639 0
M  V30 4402 H 399.693 5.24199 0.177782 0
M  V30 4403 H 401.167 5.18741 1.8871 0
M  V30 4404 H 401.644 3.60767 2.50487 0
M  V30 4405 H 402.25 4.15151 0.923573 0
M  V30 4406 N 400.565 -0.0233959 1.57583 0
M  V30 4407 C 401.475 -1.03907 2.10334 0
M  V30 4408 C 402.491 -1.39257 1.04323 0
M  V30 4409 O 403.667 -1.48462 1.36091 0
M  V30 4410 C 400.732 -2.31938 2.57693 0
M  V30 4411 C 399.793 -2.03117 3.78209 0
M  V30 4412 C 399.026 -3.25043 4.233 0
M  V30 4413 O 399.249 -4.35916 3.67876 0
M  V30 4414 O 398.183 -3.10411 5.15683 0
M  V30 4415 H 402.009 -0.620748 2.97288 0
M  V30 4416 H 399.594 -0.240743 1.47448 0
M  V30 4417 H 401.476 -3.07196 2.88458 0
M  V30 4418 H 400.151 -2.73055 1.73847 0
M  V30 4419 H 399.058 -1.25408 3.52454 0
M  V30 4420 H 400.391 -1.66852 4.63056 0
M  V30 4421 N 402.043 -1.548 -0.295768 0
M  V30 4422 C 403.292 -1.73538 -1.02798 0
M  V30 4423 C 403.605 -0.531159 -1.8825 0
M  V30 4424 O 404.811 -0.600458 -2.64777 0
M  V30 4425 C 403.267 -3.07051 -1.87744 0
M  V30 4426 C 402.875 -4.34968 -1.07269 0
M  V30 4427 C 404.619 -3.35146 -2.60533 0
M  V30 4428 C 402.526 -5.5953 -1.91521 0
M  V30 4429 H 401.456 -0.646794 -0.387522 0
M  V30 4430 H 404.107 -1.81278 -0.284718 0
M  V30 4431 H 402.489 -2.93289 -2.66078 0
M  V30 4432 H 403.663 -4.5958 -0.335117 0
M  V30 4433 H 401.978 -4.13847 -0.460384 0
M  V30 4434 H 404.575 -4.2541 -3.23929 0
M  V30 4435 H 404.918 -2.54255 -3.29636 0
M  V30 4436 H 405.451 -3.49902 -1.89244 0
M  V30 4437 H 402.19 -6.43103 -1.26878 0
M  V30 4438 H 401.71 -5.39096 -2.62937 0
M  V30 4439 H 403.389 -5.96982 -2.49442 0
M  V30 4440 N 403.521 0.559213 -1.47345 0
M  V30 4441 C 404.484 1.64854 -1.59235 0
M  V30 4442 C 405.484 1.53851 -0.467607 0
M  V30 4443 O 406.674 1.58045 -0.732617 0
M  V30 4444 C 403.806 3.04388 -1.53496 0
M  V30 4445 H 404.999 1.55662 -2.56339 0
M  V30 4446 H 402.552 0.778973 -1.35505 0
M  V30 4447 H 403.287 3.19115 -0.577604 0
M  V30 4448 H 403.072 3.13783 -2.35123 0
M  V30 4449 H 404.562 3.83642 -1.6495 0
M  V30 4450 N 404.999 1.35443 0.805782 0
M  V30 4451 C 405.909 1.30546 1.94923 0
M  V30 4452 C 406.925 0.210233 1.72725 0
M  V30 4453 O 408.101 0.43975 1.9654 0
M  V30 4454 C 405.166 1.07782 3.29521 0
M  V30 4455 C 404.227 2.26625 3.64609 0
M  V30 4456 C 403.46 2.04938 4.92784 0
M  V30 4457 O 403.683 1.01624 5.61274 0
M  V30 4458 O 402.617 2.9232 5.26149 0
M  V30 4459 H 406.443 2.26779 2.02002 0
M  V30 4460 H 404.028 1.15823 0.943682 0
M  V30 4461 H 405.91 0.969392 4.10098 0
M  V30 4462 H 404.585 0.146003 3.23371 0
M  V30 4463 H 403.492 2.43033 2.84404 0
M  V30 4464 H 404.825 3.18257 3.75464 0
M  V30 4465 N 406.477 -1.02803 1.19454 0
M  V30 4466 C 407.409 -2.11181 0.890807 0
M  V30 4467 C 408.422 -1.6238 -0.116829 0
M  V30 4468 O 409.611 -1.78144 0.112694 0
M  V30 4469 C 406.711 -3.37461 0.311942 0
M  V30 4470 C 405.884 -4.15446 1.36834 0
M  V30 4471 C 404.943 -5.20039 0.802864 0
M  V30 4472 O 403.969 -5.49602 1.48077 0
M  V30 4473 N 405.171 -5.79165 -0.393417 0
M  V30 4474 H 407.936 -2.37827 1.82369 0
M  V30 4475 H 405.497 -1.19101 1.09666 0
M  V30 4476 H 407.489 -4.0462 -0.0802225 0
M  V30 4477 H 406.059 -3.08156 -0.52524 0
M  V30 4478 H 405.279 -3.43423 1.93531 0
M  V30 4479 H 406.567 -4.64335 2.08015 0
M  V30 4480 H 405.965 -5.57466 -0.961658 0
M  V30 4481 H 404.522 -6.47729 -0.727351 0
M  V30 4482 N 407.956 -0.998596 -1.21925 0
M  V30 4483 C 408.866 -0.562736 -2.27751 0
M  V30 4484 C 409.882 0.391203 -1.69545 0
M  V30 4485 O 411.058 0.256625 -1.99758 0
M  V30 4486 C 408.123 0.11012 -3.46525 0
M  V30 4487 C 407.184 -0.887495 -4.20026 0
M  V30 4488 C 406.417 -0.246654 -5.3313 0
M  V30 4489 O 406.64 0.958088 -5.62296 0
M  V30 4490 O 405.574 -0.954374 -5.94286 0
M  V30 4491 H 409.4 -1.44329 -2.67213 0
M  V30 4492 H 406.985 -0.767135 -1.28201 0
M  V30 4493 H 408.867 0.486756 -4.18579 0
M  V30 4494 H 407.542 0.965154 -3.08976 0
M  V30 4495 H 406.449 -1.31517 -3.5022 0
M  V30 4496 H 407.782 -1.71191 -4.6147 0
M  V30 4497 N 409.434 1.37368 -0.772513 0
M  V30 4498 C 410.682 1.99279 -0.336516 0
M  V30 4499 C 411.003 1.6163 1.09091 0
M  V30 4500 O 410.273 0.882109 1.74916 0
M  V30 4501 H 408.853 0.737063 -0.121435 0
M  V30 4502 H 411.515 1.67836 -0.990809 0
M  V30 4503 H 410.611 3.09332 -0.414763 0
M  V30 4504 N 410.912 0.523116 1.48665 0
M  V30 4505 C 411.86 -0.256859 2.31177 0
M  V30 4506 C 412.854 -0.94199 1.40794 0
M  V30 4507 O 414.06 -0.867157 1.57735 0
M  V30 4508 H 410.435 -0.1017 0.745091 0
M  V30 4509 H 412.406 0.458739 2.94853 0
M  V30 4510 C 411.155 -1.29503 3.22683 0
M  V30 4511 H 410.478 -0.777248 3.92172 0
M  V30 4512 H 411.918 -1.81233 3.83315 0
M  V30 4513 C 410.377 -2.32501 2.43813 0
M  V30 4514 O 410.907 -3.3881 2.15803 0
M  V30 4515 N 409.113 -2.05538 2.05432 0
M  V30 4516 H 408.66 -1.19104 2.28412 0
M  V30 4517 H 408.618 -2.74676 1.52973 0
M  V30 4518 N 412.39 -1.55475 0.257931 0
M  V30 4519 C 413.322 -2.19192 -0.669881 0
M  V30 4520 C 414.335 -1.17148 -1.1305 0
M  V30 4521 O 415.524 -1.43959 -1.05537 0
M  V30 4522 C 412.624 -2.79016 -1.92363 0
M  V30 4523 C 411.797 -4.06586 -1.61265 0
M  V30 4524 C 410.856 -4.50622 -2.7171 0
M  V30 4525 O 409.882 -5.16765 -2.38627 0
M  V30 4526 N 411.084 -4.19325 -4.01431 0
M  V30 4527 H 413.849 -2.99441 -0.124635 0
M  V30 4528 H 411.41 -1.6171 0.0783311 0
M  V30 4529 H 413.402 -3.05427 -2.65511 0
M  V30 4530 H 411.972 -2.0286 -2.37837 0
M  V30 4531 H 411.192 -3.87646 -0.715811 0
M  V30 4532 H 412.48 -4.89737 -1.37967 0
M  V30 4533 H 411.878 -3.66247 -4.31138 0
M  V30 4534 H 410.435 -4.50547 -4.7101 0
M  V30 4535 N 413.868 0.0150385 -1.57593 0
M  V30 4536 C 414.815 1.01126 -2.07466 0
M  V30 4537 C 415.785 1.35064 -0.966794 0
M  V30 4538 O 416.97 1.4516 -1.23827 0
M  V30 4539 C 414.11 2.30276 -2.57035 0
M  V30 4540 C 413.223 2.02373 -3.81666 0
M  V30 4541 C 412.358 3.25496 -4.19793 0
M  V30 4542 C 411.397 2.93211 -5.37303 0
M  V30 4543 N 410.534 4.08826 -5.70794 0
M  V30 4544 H 415.374 0.57901 -2.92321 0
M  V30 4545 H 412.911 0.27426 -1.44521 0
M  V30 4546 H 414.869 3.05757 -2.83846 0
M  V30 4547 H 413.499 2.71197 -1.75077 0
M  V30 4548 H 412.551 1.17327 -3.61854 0
M  V30 4549 H 413.863 1.74567 -4.67256 0
M  V30 4550 H 413.017 4.09333 -4.47807 0
M  V30 4551 H 411.756 3.56428 -3.32882 0
M  V30 4552 H 410.761 2.07777 -5.09027 0
M  V30 4553 H 411.986 2.63542 -6.25877 0
M  V30 4554 H 409.932 4.39682 -4.86842 0
M  V30 4555 H 409.849 3.84491 -6.50924 0
M  V30 4556 H 411.117 4.93496 -6.03392 0
M  V30 4557 N 415.346 1.54954 0.287554 0
M  V30 4558 C 416.594 1.74528 1.01904 0
M  V30 4559 C 416.915 0.541349 1.87335 0
M  V30 4560 O 416.185 -0.444108 1.908 0
M  V30 4561 H 414.765 0.643576 0.379235 0
M  V30 4562 H 417.427 1.92333 0.315294 0
M  V30 4563 H 416.523 2.64015 1.6644 0
M  V30 4564 N 416.824 -0.551391 1.4764 0
M  V30 4565 C 417.734 -1.68525 1.63207 0
M  V30 4566 C 418.75 -1.6621 0.514815 0
M  V30 4567 O 419.926 -1.85551 0.783113 0
M  V30 4568 C 416.991 -3.05025 1.64805 0
M  V30 4569 C 416.052 -3.18362 2.88 0
M  V30 4570 C 415.285 -4.4835 2.89513 0
M  V30 4571 O 415.508 -5.34163 2.00065 0
M  V30 4572 O 414.442 -4.65602 3.81443 0
M  V30 4573 H 418.268 -1.58333 2.59161 0
M  V30 4574 H 415.853 -0.722063 1.30792 0
M  V30 4575 H 417.735 -3.86245 1.68502 0
M  V30 4576 H 416.41 -3.15587 0.720197 0
M  V30 4577 H 415.317 -2.36518 2.89845 0
M  V30 4578 H 416.65 -3.12707 3.80099 0
M  V30 4579 N 418.302 -1.35869 -0.798587 0
M  V30 4580 C 419.234 -1.25305 -1.91915 0
M  V30 4581 C 420.247 -0.174548 -1.61862 0
M  V30 4582 O 421.436 -0.428499 -1.73281 0
M  V30 4583 C 418.536 -0.9086 -3.26493 0
M  V30 4584 C 417.709 -2.08711 -3.84394 0
M  V30 4585 C 416.768 -1.71717 -4.97393 0
M  V30 4586 O 415.794 -2.43692 -5.14396 0
M  V30 4587 N 416.996 -0.645473 -5.769 0
M  V30 4588 H 419.761 -2.21849 -2.01502 0
M  V30 4589 H 417.322 -1.29143 -0.976408 0
M  V30 4590 H 419.314 -0.642455 -3.99568 0
M  V30 4591 H 417.884 -0.0325815 -3.12583 0
M  V30 4592 H 417.104 -2.51659 -3.03416 0
M  V30 4593 H 418.392 -2.87468 -4.19809 0
M  V30 4594 H 417.79 -0.047648 -5.6568 0
M  V30 4595 H 416.347 -0.43913 -6.50319 0
M  V30 4596 N 419.78 1.02168 -1.19998 0
M  V30 4597 C 420.743 2.08765 -0.94604 0
M  V30 4598 C 421.743 1.60618 0.0763846 0
M  V30 4599 O 422.933 1.73472 -0.159135 0
M  V30 4600 C 420.065 3.38262 -0.423255 0
M  V30 4601 H 421.258 2.32726 -1.89153 0
M  V30 4602 H 418.811 1.1889 -1.01464 0
M  V30 4603 H 419.546 3.19974 0.527938 0
M  V30 4604 H 419.331 3.74532 -1.16053 0
M  V30 4605 H 420.821 4.16759 -0.264911 0
M  V30 4606 N 421.258 1.00505 1.21394 0
M  V30 4607 C 422.486 0.706609 1.9446 0
M  V30 4608 C 422.901 -0.73081 1.74082 0
M  V30 4609 O 422.258 -1.49446 1.04747 0
M  V30 4610 C 422.309 1.01824 3.46863 0
M  V30 4611 O 422.03 2.39919 3.66566 0
M  V30 4612 C 423.531 0.739216 4.37093 0
M  V30 4613 H 420.751 0.260394 0.618414 0
M  V30 4614 H 423.295 1.34311 1.54211 0
M  V30 4615 H 421.45 0.427343 3.85036 0
M  V30 4616 H 421.864 2.50784 4.6066 0
M  V30 4617 H 423.338 1.00744 5.42729 0
M  V30 4618 H 423.815 -0.326746 4.37983 0
M  V30 4619 H 424.421 1.31173 4.04566 0
M  V30 4620 N 422.737 -1.36956 0.779787 0
M  V30 4621 C 423.962 -2.04283 0.358224 0
M  V30 4622 C 424.387 -1.58422 -1.01411 0
M  V30 4623 O 423.745 -0.748179 -1.65142 0
M  V30 4624 C 423.793 -3.58152 0.419479 0
M  V30 4625 O 422.897 -4.08342 -0.577142 0
M  V30 4626 H 422.238 -0.645967 0.153698 0
M  V30 4627 H 424.768 -1.75108 1.05822 0
M  V30 4628 H 424.778 -4.07041 0.279636 0
M  V30 4629 H 423.453 -3.90886 1.42061 0
M  V30 4630 H 422.03 -3.70751 -0.399755 0
M  V30 4631 N 424.215 -0.530993 -1.48385 0
M  V30 4632 C 425.145 0.219985 -2.32461 0
M  V30 4633 C 426.126 0.934111 -1.42156 0
M  V30 4634 O 427.311 0.919694 -1.71042 0
M  V30 4635 C 424.441 1.26674 -3.23375 0
M  V30 4636 C 423.395 0.67069 -4.22712 0
M  V30 4637 C 422.721 1.82017 -5.02766 0
M  V30 4638 C 424.021 -0.358268 -5.2107 0
M  V30 4639 H 425.715 -0.48187 -2.95497 0
M  V30 4640 H 423.261 -0.233182 -1.42099 0
M  V30 4641 H 425.214 1.80006 -3.81019 0
M  V30 4642 H 423.938 1.99818 -2.58341 0
M  V30 4643 H 422.597 0.158878 -3.66256 0
M  V30 4644 H 422.245 2.54002 -4.34157 0
M  V30 4645 H 421.945 1.42727 -5.70003 0
M  V30 4646 H 423.469 2.35725 -5.63264 0
M  V30 4647 H 424.883 0.0880081 -5.73232 0
M  V30 4648 H 423.28 -0.66861 -5.96364 0
M  V30 4649 H 424.35 -1.26367 -4.68145 0
M  V30 4650 N 425.693 1.55336 -0.266172 0
M  V30 4651 C 426.656 2.20878 0.612001 0
M  V30 4652 C 427.656 1.18388 1.08816 0
M  V30 4653 O 428.846 1.4335 0.989774 0
M  V30 4654 C 425.978 2.86765 1.84332 0
M  V30 4655 H 427.171 2.99873 0.0398718 0
M  V30 4656 H 424.724 1.56291 -0.0167309 0
M  V30 4657 H 425.459 2.11759 2.45619 0
M  V30 4658 H 425.244 3.61862 1.5099 0
M  V30 4659 H 426.734 3.36867 2.46801 0
M  V30 4660 N 427.171 -0.0066808 1.57599 0
M  V30 4661 C 428.42 -0.692078 1.89455 0
M  V30 4662 C 428.733 -1.75306 0.867586 0
M  V30 4663 O 429.939 -2.49262 1.07614 0
M  V30 4664 C 428.395 -1.2821 3.36289 0
M  V30 4665 C 428.003 -0.256291 4.47266 0
M  V30 4666 C 429.747 -1.94608 3.77264 0
M  V30 4667 C 427.654 -0.855927 5.85173 0
M  V30 4668 H 426.584 -0.262252 0.706923 0
M  V30 4669 H 429.235 0.052769 1.83424 0
M  V30 4670 H 427.617 -2.0774 3.37135 0
M  V30 4671 H 428.791 0.513923 4.57925 0
M  V30 4672 H 427.106 0.306862 4.15268 0
M  V30 4673 H 429.703 -2.40364 4.77629 0
M  V30 4674 H 430.046 -2.77382 3.10427 0
M  V30 4675 H 430.579 -1.21822 3.78688 0
M  V30 4676 H 427.318 -0.0671161 6.55466 0
M  V30 4677 H 426.838 -1.59546 5.78191 0
M  V30 4678 H 428.517 -1.35658 6.32618 0
M  V30 4679 N 428.649 -1.55105 -0.279332 0
M  V30 4680 C 429.579 -1.90557 -1.34945 0
M  V30 4681 C 430.56 -0.766738 -1.51839 0
M  V30 4682 O 431.745 -1.02434 -1.64988 0
M  V30 4683 C 428.875 -2.17193 -2.71006 0
M  V30 4684 C 427.829 -3.33021 -2.68851 0
M  V30 4685 C 427.155 -3.45123 -4.08405 0
M  V30 4686 C 428.455 -4.69578 -2.28678 0
M  V30 4687 H 430.149 -2.80188 -1.05522 0
M  V30 4688 H 427.695 -1.34811 -0.506173 0
M  V30 4689 H 429.648 -2.40581 -3.45975 0
M  V30 4690 H 428.372 -1.24355 -3.01999 0
M  V30 4691 H 427.031 -3.0959 -1.9634 0
M  V30 4692 H 426.679 -2.49762 -4.3661 0
M  V30 4693 H 426.379 -4.22995 -4.07859 0
M  V30 4694 H 427.903 -3.70796 -4.85121 0
M  V30 4695 H 429.317 -4.92553 -2.93368 0
M  V30 4696 H 427.714 -5.5032 -2.39306 0
M  V30 4697 H 428.784 -4.68828 -1.23807 0
M  V30 4698 N 430.127 0.543554 -1.4793 0
M  V30 4699 C 431.543 0.870806 -1.3375 0
M  V30 4700 C 431.743 1.9864 -0.338261 0
M  V30 4701 O 430.799 2.51305 0.245371 0
M  V30 4702 C 432.112 1.25114 -2.73435 0
M  V30 4703 C 433.66 1.3618 -2.81823 0
M  V30 4704 C 434.135 1.77563 -4.22179 0
M  V30 4705 N 435.626 1.8469 -4.24787 0
M  V30 4706 C 436.361 2.18067 -5.30315 0
M  V30 4707 N 435.857 2.49963 -6.46135 0
M  V30 4708 N 437.65 2.18958 -5.17701 0
M  V30 4709 H 429.801 -0.19275 -2.11524 0
M  V30 4710 H 432.064 -0.0235777 -0.947707 0
M  V30 4711 H 431.77 0.50514 -3.48053 0
M  V30 4712 H 431.644 2.20431 -3.06088 0
M  V30 4713 H 434.031 2.09859 -2.07468 0
M  V30 4714 H 434.112 0.390169 -2.52807 0
M  V30 4715 H 433.756 1.04449 -4.97044 0
M  V30 4716 H 433.686 2.75753 -4.48629 0
M  V30 4717 H 436.177 1.62372 -3.41239 0
M  V30 4718 H 436.49 2.74497 -7.22406 0
M  V30 4719 H 434.835 2.47513 -6.49432 0
M  V30 4720 H 438.026 1.93488 -4.2624 0
M  V30 4721 H 438.199 2.44639 -6.00047 0
M  V30 4722 N 431.605 1.3629 0.791371 0
M  V30 4723 C 432.851 1.30605 1.55146 0
M  V30 4724 C 433.184 -0.115042 1.93859 0
M  V30 4725 O 432.459 -1.06798 1.62556 0
M  V30 4726 C 432.742 2.22692 2.82985 0
M  V30 4727 C 432.595 3.73489 2.50651 0
M  V30 4728 C 433.914 2.13588 3.84796 0
M  V30 4729 H 431.033 0.475761 0.562868 0
M  V30 4730 H 433.675 1.66825 0.909358 0
M  V30 4731 H 431.825 1.91933 3.37778 0
M  V30 4732 H 433.497 4.14758 2.01924 0
M  V30 4733 H 431.74 3.93021 1.83622 0
M  V30 4734 H 432.411 4.3333 3.41949 0
M  V30 4735 H 434.887 2.40659 3.39445 0
M  V30 4736 H 433.763 2.80195 4.71998 0
M  V30 4737 H 434.024 1.12256 4.27611 0
M  V30 4738 N 433.083 -1.0153 1.20538 0
M  V30 4739 C 434.332 -1.74558 1.01057 0
M  V30 4740 C 434.645 -1.90168 -0.457756 0
M  V30 4741 O 435.851 -2.60301 -0.771722 0
M  V30 4742 C 434.307 -3.13963 1.75941 0
M  V30 4743 C 433.915 -3.06361 3.26875 0
M  V30 4744 C 435.659 -3.91191 1.64832 0
M  V30 4745 C 433.566 -4.40782 3.94291 0
M  V30 4746 H 432.496 -0.654417 0.374505 0
M  V30 4747 H 435.147 -1.13521 1.44171 0
M  V30 4748 H 433.529 -3.75549 1.25614 0
M  V30 4749 H 434.703 -2.54074 3.84425 0
M  V30 4750 H 433.018 -2.42625 3.38411 0
M  V30 4751 H 435.615 -4.90644 2.12539 0
M  V30 4752 H 435.958 -4.11884 0.604745 0
M  V30 4753 H 436.491 -3.36236 2.12579 0
M  V30 4754 H 433.23 -4.25292 4.98805 0
M  V30 4755 H 432.75 -4.9307 3.41529 0
M  V30 4756 H 434.429 -5.09621 3.98617 0
M  V30 4757 N 434.561 -1.01147 -1.20859 0
M  V30 4758 C 435.977 -0.725422 -1.42161 0
M  V30 4759 C 436.177 0.696919 -1.89064 0
M  V30 4760 O 435.233 1.46539 -2.05627 0
M  V30 4761 C 436.546 -1.74678 -2.44761 0
M  V30 4762 C 438.094 -1.76433 -2.58535 0
M  V30 4763 C 438.569 -2.77481 -3.64374 0
M  V30 4764 N 440.06 -2.76189 -3.71852 0
M  V30 4765 C 440.795 -3.51035 -4.53389 0
M  V30 4766 N 440.291 -4.35541 -5.38773 0
M  V30 4767 N 442.084 -3.39655 -4.47873 0
M  V30 4768 H 434.235 -1.92979 -0.887282 0
M  V30 4769 H 436.498 -0.833327 -0.451962 0
M  V30 4770 H 436.204 -2.76551 -2.17285 0
M  V30 4771 H 436.078 -1.55472 -3.43669 0
M  V30 4772 H 438.465 -0.75248 -2.85345 0
M  V30 4773 H 438.546 -1.99712 -1.5984 0
M  V30 4774 H 438.19 -3.78827 -3.38308 0
M  V30 4775 H 438.12 -2.51466 -4.6268 0
M  V30 4776 H 440.611 -2.14885 -3.10858 0
M  V30 4777 H 440.924 -4.89432 -5.98061 0
M  V30 4778 H 439.269 -4.39621 -5.38292 0
M  V30 4779 H 442.46 -2.73063 -3.80203 0
M  V30 4780 H 442.633 -3.9824 -5.11184 0
M  V30 4781 N 436.039 1.36541 -0.78704 0
M  V30 4782 C 436.969 2.32659 -0.197992 0
M  V30 4783 C 437.95 1.56533 0.665697 0
M  V30 4784 O 439.135 1.84698 0.60001 0
M  V30 4785 C 436.265 3.40778 0.669901 0
M  V30 4786 C 435.219 4.27897 -0.0937039 0
M  V30 4787 C 434.545 5.27163 0.894629 0
M  V30 4788 C 435.845 5.06334 -1.28154 0
M  V30 4789 H 437.539 2.82171 -1.00099 0
M  V30 4790 H 435.085 1.35665 -0.482793 0
M  V30 4791 H 437.038 4.07008 1.09191 0
M  V30 4792 H 435.762 2.89827 1.50558 0
M  V30 4793 H 434.421 3.6322 -0.49666 0
M  V30 4794 H 434.069 4.72486 1.72527 0
M  V30 4795 H 433.769 5.86317 0.388149 0
M  V30 4796 H 435.293 5.96266 1.31525 0
M  V30 4797 H 436.707 5.65617 -0.93541 0
M  V30 4798 H 435.104 5.74888 -1.72115 0
M  V30 4799 H 436.174 4.38114 -2.07807 0
M  V30 4800 N 437.518 0.538854 1.48102 0
M  V30 4801 C 438.764 0.00801365 2.02798 0
M  V30 4802 C 439.097 -1.3309 1.41424 0
M  V30 4803 O 438.372 -1.86169 0.563158 0
M  V30 4804 C 438.655 -0.104589 3.59948 0
M  V30 4805 C 438.508 1.26012 4.31788 0
M  V30 4806 C 439.827 -0.827055 4.32259 0
M  V30 4807 H 436.946 0.00438624 0.736987 0
M  V30 4808 H 439.588 0.6976 1.7673 0
M  V30 4809 H 437.738 -0.691893 3.82289 0
M  V30 4810 H 439.41 1.88922 4.2084 0
M  V30 4811 H 437.653 1.83968 3.92859 0
M  V30 4812 H 438.324 1.13424 5.40221 0
M  V30 4813 H 440.8 -0.328578 4.14801 0
M  V30 4814 H 439.676 -0.87476 5.41885 0
M  V30 4815 H 439.937 -1.87927 4.0017 0
M  V30 4816 N 438.996 -1.55193 0.274407 0
M  V30 4817 C 440.412 -1.59401 -0.0797543 0
M  V30 4818 C 440.612 -1.29162 -1.54659 0
M  V30 4819 O 439.668 -1.05215 -2.29534 0
M  V30 4820 C 440.981 -2.99257 0.294238 0
M  V30 4821 C 442.529 -3.12072 0.240796 0
M  V30 4822 C 443.004 -4.54194 0.589218 0
M  V30 4823 N 444.495 -4.60033 0.540744 0
M  V30 4824 C 445.23 -5.68027 0.783147 0
M  V30 4825 N 444.726 -6.8417 1.09013 0
M  V30 4826 N 446.519 -5.57572 0.711993 0
M  V30 4827 H 438.67 -1.73113 1.23067 0
M  V30 4828 H 440.933 -0.807197 0.497129 0
M  V30 4829 H 440.639 -3.26217 1.31435 0
M  V30 4830 H 440.513 -3.75427 -0.365281 0
M  V30 4831 H 442.9 -2.84877 -0.770024 0
M  V30 4832 H 442.981 -2.38117 0.934563 0
M  V30 4833 H 442.625 -4.82115 1.59772 0
M  V30 4834 H 442.555 -5.26448 -0.126331 0
M  V30 4835 H 445.046 -3.76599 0.313327 0
M  V30 4836 H 445.359 -7.6243 1.26178 0
M  V30 4837 H 443.704 -6.85787 1.12789 0
M  V30 4838 H 446.895 -4.65714 0.472014 0
M  V30 4839 H 447.068 -6.41659 0.90429 0
M  V30 4840 N 440.474 -0.00167713 -1.576 0
M  V30 4841 C 441.72 0.683832 -1.90923 0
M  V30 4842 C 442.053 1.7333 -0.875799 0
M  V30 4843 O 441.328 1.94215 0.10525 0
M  V30 4844 C 441.611 1.32543 -3.3482 0
M  V30 4845 C 441.464 0.287387 -4.48881 0
M  V30 4846 C 442.783 2.25114 -3.78169 0
M  V30 4847 H 439.902 0.247125 -0.694333 0
M  V30 4848 H 442.544 -0.0533149 -1.89925 0
M  V30 4849 H 440.694 1.95372 -3.35801 0
M  V30 4850 H 442.366 -0.341346 -4.60035 0
M  V30 4851 H 440.609 -0.39017 -4.32042 0
M  V30 4852 H 441.28 0.775393 -5.46527 0
M  V30 4853 H 443.756 1.723 -3.7875 0
M  V30 4854 H 442.632 2.66971 -4.79602 0
M  V30 4855 H 442.893 3.13092 -3.12131 0
M  V30 4856 N 441.952 1.55251 0.271103 0
M  V30 4857 C 443.199 1.75946 1.00245 0
M  V30 4858 C 443.527 0.561611 1.86215 0
M  V30 4859 O 442.782 -0.455832 1.90317 0
M  V30 4860 C 443.081 3.01879 1.91321 0
M  V30 4861 C 442.747 4.34337 1.21086 0
M  V30 4862 C 441.409 4.70338 1.01666 0
M  V30 4863 C 443.761 5.16325 0.71119 0
M  V30 4864 C 441.089 5.8588 0.310099 0
M  V30 4865 C 443.441 6.32597 0.0182157 0
M  V30 4866 C 442.105 6.67236 -0.18768 0
M  V30 4867 H 441.375 0.643833 0.366824 0
M  V30 4868 H 444.022 1.89521 0.27458 0
M  V30 4869 H 442.327 2.83212 2.70736 0
M  V30 4870 H 444.024 3.15088 2.48033 0
M  V30 4871 H 440.614 4.06043 1.37213 0
M  V30 4872 H 444.798 4.88987 0.848844 0
M  V30 4873 H 440.054 6.1124 0.139873 0
M  V30 4874 H 444.228 6.9538 -0.376711 0
M  V30 4875 H 441.855 7.56618 -0.73715 0
M  V30 4876 N 443.43 -0.535701 1.48216 0
M  V30 4877 C 444.846 -0.863701 1.3421 0
M  V30 4878 C 445.046 -1.98458 0.34879 0
M  V30 4879 O 444.102 -2.51432 -0.23204 0
M  V30 4880 C 445.415 -1.23662 2.74095 0
M  V30 4881 C 446.963 -1.34683 2.82541 0
M  V30 4882 C 447.438 -1.75322 4.23115 0
M  V30 4883 N 448.929 -1.82434 4.2576 0
M  V30 4884 C 449.664 -2.15252 5.31464 0
M  V30 4885 N 449.16 -2.46533 6.47452 0
M  V30 4886 N 450.953 -2.16209 5.18855 0
M  V30 4887 H 443.104 0.203965 2.11418 0
M  V30 4888 H 445.367 0.0286033 0.947568 0
M  V30 4889 H 445.073 -0.486674 3.48316 0
M  V30 4890 H 444.947 -2.18805 3.07253 0
M  V30 4891 H 447.334 -2.08756 2.08579 0
M  V30 4892 H 447.415 -0.376756 2.5301 0
M  V30 4893 H 447.059 -1.01812 4.97591 0
M  V30 4894 H 446.989 -2.7337 4.50085 0
M  V30 4895 H 449.48 -1.6056 3.42095 0
M  V30 4896 H 449.793 -2.70662 7.23852 0
M  V30 4897 H 448.138 -2.44065 6.50736 0
M  V30 4898 H 451.329 -1.91224 4.2726 0
M  V30 4899 H 451.502 -2.41453 6.01335 0
M  V30 4900 N 444.908 -1.36708 -0.784132 0
M  V30 4901 C 446.157 -1.30559 -1.53744 0
M  V30 4902 C 446.47 0.111374 -1.95283 0
M  V30 4903 O 447.676 0.29527 -2.6989 0
M  V30 4904 C 446.132 -2.29098 -2.77565 0
M  V30 4905 C 445.74 -3.76258 -2.43174 0
M  V30 4906 C 447.484 -2.31936 -3.55536 0
M  V30 4907 C 445.391 -4.6656 -3.63422 0
M  V30 4908 H 444.321 -0.48518 -0.577162 0
M  V30 4909 H 446.972 -1.62101 -0.859981 0
M  V30 4910 H 445.354 -1.90557 -3.47137 0
M  V30 4911 H 446.528 -4.23565 -1.81465 0
M  V30 4912 H 444.843 -3.76246 -1.78403 0
M  V30 4913 H 447.44 -2.9661 -4.44889 0
M  V30 4914 H 447.783 -1.3294 -3.94503 0
M  V30 4915 H 448.316 -2.6912 -2.92949 0
M  V30 4916 H 445.055 -5.66638 -3.29547 0
M  V30 4917 H 444.575 -4.23966 -4.24279 0
M  V30 4918 H 446.254 -4.8309 -4.30387 0
M  V30 4919 N 446.386 1.0089 -1.21074 0
M  V30 4920 C 447.633 1.74607 -1.0256 0
M  V30 4921 C 447.961 1.89426 0.44136 0
M  V30 4922 O 447.216 1.42266 1.34384 0
M  V30 4923 C 447.515 3.16335 -1.66334 0
M  V30 4924 C 447.181 3.21474 -3.16173 0
M  V30 4925 C 445.843 3.22583 -3.57062 0
M  V30 4926 C 448.195 3.19025 -4.12156 0
M  V30 4927 C 445.523 3.18925 -4.92446 0
M  V30 4928 C 447.875 3.16909 -5.47496 0
M  V30 4929 C 446.539 3.16326 -5.87787 0
M  V30 4930 H 445.809 0.638933 -0.375294 0
M  V30 4931 H 448.456 1.18274 -1.50611 0
M  V30 4932 H 446.761 3.75876 -1.10566 0
M  V30 4933 H 448.458 3.72083 -1.49516 0
M  V30 4934 H 445.048 3.2135 -2.83605 0
M  V30 4935 H 449.232 3.17332 -3.81595 0
M  V30 4936 H 444.488 3.16809 -5.22917 0
M  V30 4937 H 448.662 3.13968 -6.21609 0
M  V30 4938 H 446.289 3.13246 -6.92662 0
M  V30 4939 N 447.864 1.01787 1.20321 0
M  V30 4940 C 448.811 0.589197 2.23153 0
M  V30 4941 C 449.781 -0.391367 1.61423 0
M  V30 4942 O 450.966 -0.290518 1.88575 0
M  V30 4943 C 448.106 -0.0650747 3.45039 0
M  V30 4944 C 447.219 0.960207 4.21194 0
M  V30 4945 C 446.354 0.276854 5.30478 0
M  V30 4946 C 445.393 1.2888 5.98378 0
M  V30 4947 N 444.53 0.632031 6.99249 0
M  V30 4948 H 449.37 1.47071 2.59179 0
M  V30 4949 H 446.907 0.736192 1.27352 0
M  V30 4950 H 448.865 -0.461552 4.14639 0
M  V30 4951 H 447.495 -0.910233 3.09701 0
M  V30 4952 H 446.547 1.47484 3.50646 0
M  V30 4953 H 447.859 1.72977 4.67847 0
M  V30 4954 H 447.013 -0.175056 6.06447 0
M  V30 4955 H 445.752 -0.525004 4.84866 0
M  V30 4956 H 444.757 1.75109 5.21169 0
M  V30 4957 H 445.982 2.09196 6.46076 0
M  V30 4958 H 443.928 -0.149935 6.55829 0
M  V30 4959 H 443.845 1.33964 7.44036 0
M  V30 4960 H 445.113 0.203755 7.79234 0
M  V30 4961 N 449.342 -1.36122 0.79427 0
M  V30 4962 C 450.272 -2.32551 0.210328 0
M  V30 4963 C 451.253 -1.56884 -0.657386 0
M  V30 4964 O 452.438 -1.85014 -0.590207 0
M  V30 4965 C 449.568 -3.41128 -0.651819 0
M  V30 4966 C 448.522 -4.27842 0.116395 0
M  V30 4967 C 447.848 -5.2763 -0.86666 0
M  V30 4968 C 449.148 -5.05647 1.30837 0
M  V30 4969 H 450.842 -2.81636 1.01594 0
M  V30 4970 H 448.388 -1.35407 0.489981 0
M  V30 4971 H 450.341 -4.07581 -1.07031 0
M  V30 4972 H 449.065 -2.90622 -1.49019 0
M  V30 4973 H 447.724 -3.62952 0.515915 0
M  V30 4974 H 447.372 -4.73395 -1.70019 0
M  V30 4975 H 447.072 -5.86514 -0.35705 0
M  V30 4976 H 448.596 -5.96955 -1.28361 0
M  V30 4977 H 450.01 -5.65113 0.965393 0
M  V30 4978 H 448.407 -5.73967 1.75161 0
M  V30 4979 H 449.477 -4.37006 2.10128 0
M  V30 4980 N 450.82 -0.546701 -1.47814 0
M  V30 4981 C 452.045 -0.021268 -2.07389 0
M  V30 4982 C 452.47 1.25822 -1.39822 0
M  V30 4983 O 451.828 1.75111 -0.46968 0
M  V30 4984 C 451.876 0.168502 -3.60206 0
M  V30 4985 O 450.98 1.23347 -3.93522 0
M  V30 4986 H 450.321 -0.0466108 -0.662362 0
M  V30 4987 H 452.851 -0.759387 -1.89985 0
M  V30 4988 H 452.861 0.385982 -4.0617 0
M  V30 4989 H 451.536 -0.766075 -4.08784 0
M  V30 4990 H 450.113 0.997319 -3.59316 0
M  V30 4991 N 452.299 1.55045 -0.282633 0
M  V30 4992 C 453.715 1.59441 0.0712997 0
M  V30 4993 C 453.915 1.2998 1.53972 0
M  V30 4994 O 452.971 1.06431 2.28973 0
M  V30 4995 C 454.284 2.99097 -0.310104 0
M  V30 4996 C 455.832 3.1194 -0.257343 0
M  V30 4997 C 456.307 4.53875 -0.613297 0
M  V30 4998 N 457.798 4.5974 -0.565134 0
M  V30 4999 C 458.533 5.67603 -0.81326 0
M  V30 5000 N 458.029 6.83582 -1.1264 0
M  V30 5001 N 459.822 5.57187 -0.741553 0
M  V30 5002 H 451.973 1.72458 -1.23984 0
M  V30 5003 H 454.236 0.804549 -0.501403 0
M  V30 5004 H 453.942 3.25516 -1.33163 0
M  V30 5005 H 453.816 3.75616 0.345366 0
M  V30 5006 H 456.203 2.85281 0.754905 0
M  V30 5007 H 456.284 2.37618 -0.947178 0
M  V30 5008 H 455.928 4.81261 -1.62327 0
M  V30 5009 H 455.858 5.26508 0.09841 0
M  V30 5010 H 458.349 3.76427 -0.333294 0
M  V30 5011 H 458.662 7.6175 -1.30219 0
M  V30 5012 H 457.007 6.85179 -1.16425 0
M  V30 5013 H 460.198 4.65457 -0.496705 0
M  V30 5014 H 460.371 6.41171 -0.938306 0
M  V30 5015 N 453.777 0.010035 1.57597 0
M  V30 5016 C 454.727 -0.986858 2.05536 0
M  V30 5017 C 455.711 -1.29711 0.952042 0
M  V30 5018 O 456.903 -1.28641 1.21575 0
M  V30 5019 C 454.032 -2.2756 2.57043 0
M  V30 5020 C 453.118 -1.99455 3.74271 0
M  V30 5021 N 453.509 -1.41546 4.85591 0
M  V30 5022 C 451.807 -2.29547 3.82393 0
M  V30 5023 C 452.508 -1.3014 5.66956 0
M  V30 5024 N 451.484 -1.79044 5.13268 0
M  V30 5025 H 455.286 -0.533778 2.89012 0
M  V30 5026 H 452.8 -0.195432 1.6122 0
M  V30 5027 H 454.797 -2.99829 2.89669 0
M  V30 5028 H 453.457 -2.73512 1.7499 0
M  V30 5029 H 454.468 -1.09294 5.06236 0
M  V30 5030 H 451.145 -2.78304 3.11213 0
M  V30 5031 H 452.535 -0.855237 6.66435 0
M  V30 5032 N 455.255 -1.55392 -0.262866 0
M  V30 5033 C 456.48 -1.80847 -1.01533 0
M  V30 5034 C 456.905 -0.584946 -1.78774 0
M  V30 5035 O 456.263 0.465701 -1.75217 0
M  V30 5036 C 456.311 -3.03866 -1.94159 0
M  V30 5037 O 455.415 -2.79662 -3.03089 0
M  V30 5038 H 454.756 -0.597441 -0.289759 0
M  V30 5039 H 457.286 -2.02553 -0.288698 0
M  V30 5040 H 457.296 -3.32872 -2.35924 0
M  V30 5041 H 455.971 -3.92564 -1.37354 0
M  V30 5042 H 454.548 -2.61781 -2.65566 0
M  V30 5043 N 456.733 0.527833 -1.48498 0
M  V30 5044 C 457.68 1.6322 -1.6318 0
M  V30 5045 C 458.65 1.59199 -0.473815 0
M  V30 5046 O 459.835 1.77591 -0.697563 0
M  V30 5047 C 456.975 3.01474 -1.67951 0
M  V30 5048 C 456.088 3.15713 -2.94871 0
M  V30 5049 C 455.223 4.44539 -2.90789 0
M  V30 5050 C 454.262 4.52315 -4.12404 0
M  V30 5051 N 453.399 5.72533 -4.06387 0
M  V30 5052 H 458.239 1.50011 -2.57489 0
M  V30 5053 H 455.776 0.730298 -1.27691 0
M  V30 5054 H 457.734 3.81572 -1.68698 0
M  V30 5055 H 456.364 3.1345 -0.771306 0
M  V30 5056 H 455.416 2.28854 -3.03859 0
M  V30 5057 H 456.728 3.1732 -3.8485 0
M  V30 5058 H 455.882 5.3293 -2.89949 0
M  V30 5059 H 454.621 4.45457 -1.98542 0
M  V30 5060 H 453.626 3.62331 -4.13517 0
M  V30 5061 H 454.851 4.53134 -5.05812 0
M  V30 5062 H 452.797 5.74344 -3.16962 0
M  V30 5063 H 452.714 5.75643 -4.90073 0
M  V30 5064 H 453.982 6.63204 -4.0961 0
M  V30 5065 N 458.211 1.37122 0.776871 0
M  V30 5066 C 459.459 1.31787 1.53221 0
M  V30 5067 C 459.78 -0.0987589 1.9475 0
M  V30 5068 O 459.05 -1.0417 1.65908 0
M  V30 5069 H 457.63 0.484839 0.568278 0
M  V30 5070 H 460.292 1.71556 0.924917 0
M  V30 5071 H 459.388 1.95355 2.43398 0
M  V30 5072 N 459.689 -1.00246 1.21608 0
M  V30 5073 C 460.619 -2.10921 1.00172 0
M  V30 5074 C 461.6 -1.69938 -0.0741587 0
M  V30 5075 O 462.785 -1.94009 0.0861753 0
M  V30 5076 C 459.915 -3.42618 0.568355 0
M  V30 5077 C 458.869 -3.97407 1.58909 0
M  V30 5078 C 458.195 -5.25038 1.01187 0
M  V30 5079 C 459.495 -4.2918 2.97661 0
M  V30 5080 H 461.189 -2.29112 1.92739 0
M  V30 5081 H 458.735 -1.10101 0.928102 0
M  V30 5082 H 460.688 -4.19444 0.405555 0
M  V30 5083 H 459.412 -3.24227 -0.392961 0
M  V30 5084 H 458.071 -3.22703 1.73949 0
M  V30 5085 H 457.719 -5.02982 0.0421965 0
M  V30 5086 H 457.419 -5.62661 1.6937 0
M  V30 5087 H 458.943 -6.04507 0.860448 0
M  V30 5088 H 460.357 -4.96839 2.86049 0
M  V30 5089 H 458.754 -4.77952 3.6288 0
M  V30 5090 H 459.824 -3.3735 3.48315 0
M  V30 5091 N 461.167 -1.02423 -1.1978 0
M  V30 5092 C 462.099 -0.559152 -2.22275 0
M  V30 5093 C 463.112 0.36251 -1.58713 0
M  V30 5094 O 464.301 0.159641 -1.77785 0
M  V30 5095 C 461.401 0.205094 -3.38279 0
M  V30 5096 C 460.574 -0.720361 -4.31427 0
M  V30 5097 C 459.633 -0.00234368 -5.262 0
M  V30 5098 O 458.659 -0.627378 -5.65732 0
M  V30 5099 N 459.861 1.26996 -5.66438 0
M  V30 5100 H 462.626 -1.44064 -2.62804 0
M  V30 5101 H 460.187 -0.902692 -1.34399 0
M  V30 5102 H 462.179 0.694868 -3.9869 0
M  V30 5103 H 460.749 0.987947 -2.96578 0
M  V30 5104 H 459.969 -1.39031 -3.68869 0
M  V30 5105 H 461.257 -1.3495 -4.90577 0
M  V30 5106 H 460.655 1.79858 -5.36347 0
M  V30 5107 H 459.212 1.70432 -6.29123 0
M  V30 5108 N 462.645 1.35699 -0.801477 0
M  V30 5109 C 463.894 1.98165 -0.375979 0
M  V30 5110 C 464.207 1.64306 1.06127 0
M  V30 5111 O 465.413 2.20097 1.58964 0
M  V30 5112 C 463.869 3.54497 -0.621305 0
M  V30 5113 C 463.477 3.9727 -2.07076 0
M  V30 5114 C 465.221 4.23697 -0.26091 0
M  V30 5115 C 463.128 5.46427 -2.26211 0
M  V30 5116 H 462.058 0.741478 -0.136844 0
M  V30 5117 H 464.709 1.54834 -0.984814 0
M  V30 5118 H 463.091 3.95958 0.0574112 0
M  V30 5119 H 464.265 3.66974 -2.78687 0
M  V30 5120 H 462.58 3.40943 -2.39054 0
M  V30 5121 H 465.177 5.33334 -0.381994 0
M  V30 5122 H 465.52 4.0869 0.792344 0
M  V30 5123 H 466.053 3.87639 -0.893339 0
M  V30 5124 H 462.792 5.66396 -3.29963 0
M  V30 5125 H 462.312 5.78309 -1.59119 0
M  V30 5126 H 463.991 6.12819 -2.07513 0
M  V30 5127 N 464.123 0.554532 1.47522 0
M  V30 5128 C 465.053 -0.182974 2.32782 0
M  V30 5129 C 466.034 -0.911377 1.43624 0
M  V30 5130 O 467.219 -0.892366 1.72483 0
M  V30 5131 C 464.349 -1.21513 3.25349 0
M  V30 5132 C 463.303 -0.603355 4.23726 0
M  V30 5133 C 462.629 -1.73995 5.05598 0
M  V30 5134 C 463.929 0.441121 5.20434 0
M  V30 5135 H 465.623 0.52882 2.94693 0
M  V30 5136 H 463.169 0.255759 1.41711 0
M  V30 5137 H 465.122 -1.73922 3.83835 0
M  V30 5138 H 463.846 -1.95683 2.61487 0
M  V30 5139 H 462.505 -0.10059 3.66462 0
M  V30 5140 H 462.153 -2.47063 4.38143 0
M  V30 5141 H 461.853 -1.3364 5.72201 0
M  V30 5142 H 463.377 -2.26735 5.66942 0
M  V30 5143 H 464.791 0.00319931 5.733 0
M  V30 5144 H 463.188 0.763402 5.95224 0
M  V30 5145 H 464.258 1.33799 4.66075 0
M  V30 5146 N 465.601 -1.54893 0.290851 0
M  V30 5147 C 466.849 -1.99538 -0.320756 0
M  V30 5148 C 467.17 -1.18075 -1.55188 0
M  V30 5149 O 466.44 -0.274162 -1.93972 0
M  V30 5150 H 465.02 -0.737052 -0.121507 0
M  V30 5151 H 467.682 -1.90755 0.399832 0
M  V30 5152 H 466.778 -3.06282 -0.599802 0
M  V30 5153 N 467.08 -0.0183926 -1.57589 0
M  V30 5154 C 468.012 0.995557 -2.06449 0
M  V30 5155 C 469.025 1.29556 -0.985849 0
M  V30 5156 O 470.214 1.2621 -1.26227 0
M  V30 5157 C 467.314 2.32572 -2.46502 0
M  V30 5158 C 466.487 2.21245 -3.77319 0
M  V30 5159 C 465.546 3.37104 -4.04039 0
M  V30 5160 O 464.572 3.14468 -4.74445 0
M  V30 5161 N 465.774 4.60553 -3.53372 0
M  V30 5162 H 468.539 0.578746 -2.94059 0
M  V30 5163 H 466.1 0.168603 -1.6102 0
M  V30 5164 H 468.092 3.08887 -2.61478 0
M  V30 5165 H 466.662 2.65931 -1.64315 0
M  V30 5166 H 465.882 1.29723 -3.72244 0
M  V30 5167 H 467.17 2.10868 -4.63047 0
M  V30 5168 H 466.568 4.81839 -2.96391 0
M  V30 5169 H 465.125 5.34072 -3.73644 0
M  V30 5170 N 468.558 1.5553 0.254621 0
M  V30 5171 C 469.786 1.81046 1.00149 0
M  V30 5172 C 470.201 0.593047 1.79244 0
M  V30 5173 O 469.558 -0.438196 1.77161 0
M  V30 5174 C 469.609 3.04684 1.94551 0
M  V30 5175 O 469.33 4.21725 1.18658 0
M  V30 5176 C 470.831 3.42943 2.80901 0
M  V30 5177 H 468.051 0.602653 0.295044 0
M  V30 5178 H 470.595 2.02576 0.279842 0
M  V30 5179 H 468.75 2.85226 2.62154 0
M  V30 5180 H 469.164 4.91746 1.82445 0
M  V30 5181 H 470.638 4.32576 3.42902 0
M  V30 5182 H 471.115 2.63176 3.51617 0
M  V30 5183 H 471.721 3.64724 2.18762 0
M  V30 5184 N 470.036 -0.519951 1.48776 0
M  V30 5185 C 470.966 -1.63253 1.66945 0
M  V30 5186 C 471.947 -1.62014 0.518224 0
M  V30 5187 O 473.132 -1.79053 0.751919 0
M  V30 5188 C 470.262 -3.0181 1.71836 0
M  V30 5189 C 469.216 -3.17911 2.8656 0
M  V30 5190 C 468.542 -4.5763 2.76548 0
M  V30 5191 C 469.842 -2.99729 4.27738 0
M  V30 5192 H 471.536 -1.48302 2.6009 0
M  V30 5193 H 469.082 -0.712026 1.25165 0
M  V30 5194 H 471.035 -3.79525 1.83135 0
M  V30 5195 H 469.759 -3.17806 0.752775 0
M  V30 5196 H 468.418 -2.42616 2.74833 0
M  V30 5197 H 468.066 -4.70476 1.77937 0
M  V30 5198 H 467.766 -4.69346 3.53536 0
M  V30 5199 H 469.29 -5.37431 2.89828 0
M  V30 5200 H 470.704 -3.67228 4.40246 0
M  V30 5201 H 469.101 -3.22932 5.05801 0
M  V30 5202 H 470.171 -1.96047 4.43502 0
M  V30 5203 N 471.514 -1.37532 -0.769588 0
M  V30 5204 C 472.461 -1.3347 -1.88293 0
M  V30 5205 C 473.431 -0.199891 -1.64893 0
M  V30 5206 O 474.616 -0.389594 -1.8678 0
M  V30 5207 C 471.756 -1.14968 -3.25387 0
M  V30 5208 C 470.869 -2.37698 -3.60727 0
M  V30 5209 C 470.004 -2.12051 -4.8704 0
M  V30 5210 C 469.043 -3.30636 -5.15117 0
M  V30 5211 N 468.18 -3.04527 -6.3262 0
M  V30 5212 H 473.02 -2.28658 -1.911 0
M  V30 5213 H 470.557 -1.13622 -0.934257 0
M  V30 5214 H 472.515 -1.02261 -4.04473 0
M  V30 5215 H 471.145 -0.234263 -3.21949 0
M  V30 5216 H 470.197 -2.61137 -2.76608 0
M  V30 5217 H 471.509 -3.26131 -3.77413 0
M  V30 5218 H 470.663 -1.96388 -5.74035 0
M  V30 5219 H 469.402 -1.20959 -4.72462 0
M  V30 5220 H 468.407 -3.46836 -4.26597 0
M  V30 5221 H 469.632 -4.22582 -5.31603 0
M  V30 5222 H 467.578 -2.16067 -6.19396 0
M  V30 5223 H 467.495 -3.86503 -6.49732 0
M  V30 5224 H 468.763 -2.92485 -7.22546 0
M  V30 5225 N 472.992 0.995999 -1.22138 0
M  V30 5226 C 473.955 2.06711 -0.990109 0
M  V30 5227 C 474.955 1.60744 0.0422978 0
M  V30 5228 O 476.145 1.73095 -0.195895 0
M  V30 5229 C 473.277 3.37288 -0.49491 0
M  V30 5230 H 474.47 2.28661 -1.94047 0
M  V30 5231 H 472.023 1.16711 -1.03963 0
M  V30 5232 H 472.758 3.21022 0.459948 0
M  V30 5233 H 472.543 3.71986 -1.23971 0
M  V30 5234 H 474.033 4.16103 -0.353253 0
M  V30 5235 N 474.47 1.03057 1.19235 0
M  V30 5236 C 475.695 0.74757 1.93458 0
M  V30 5237 C 476.12 -0.687648 1.7508 0
M  V30 5238 O 475.478 -1.47499 1.05422 0
M  V30 5239 C 475.526 1.10604 3.43219 0
M  V30 5240 O 474.63 0.225671 4.11782 0
M  V30 5241 H 473.971 0.276047 0.603899 0
M  V30 5242 H 476.501 1.3777 1.51263 0
M  V30 5243 H 476.511 1.06366 3.93891 0
M  V30 5244 H 475.186 2.15165 3.55917 0
M  V30 5245 H 473.763 0.326795 3.71465 0
M  V30 5246 N 475.948 -1.35272 0.808662 0
M  V30 5247 C 476.881 -2.27595 0.165994 0
M  V30 5248 C 477.859 -1.48189 -0.669241 0
M  V30 5249 O 479.043 -1.77444 -0.636073 0
M  V30 5250 C 476.17 -3.29843 -0.769505 0
M  V30 5251 C 475.216 -4.26498 -0.0136267 0
M  V30 5252 S 476.049 -5.18878 1.32384 0
M  V30 5253 C 477.205 -6.24666 0.392838 0
M  V30 5254 H 477.438 -2.81755 0.948756 0
M  V30 5255 H 474.971 -1.42103 0.603828 0
M  V30 5256 H 476.929 -3.89247 -1.30374 0
M  V30 5257 H 475.59 -2.74558 -1.52567 0
M  V30 5258 H 474.783 -4.98769 -0.724227 0
M  V30 5259 H 474.385 -3.71274 0.450713 0
M  V30 5260 H 476.677 -6.7619 -0.4211 0
M  V30 5261 H 477.62 -6.99741 1.0848 0
M  V30 5262 H 478.028 -5.64499 -0.0123908 0
M  V30 5263 N 477.426 -0.562348 -1.47226 0
M  V30 5264 C 478.842 -0.222492 -1.58042 0
M  V30 5265 C 479.042 1.27505 -1.56028 0
M  V30 5266 O 478.098 2.05555 -1.46641 0
M  V30 5267 C 479.411 -0.853694 -2.88327 0
M  V30 5268 C 480.959 -0.825397 -3.01921 0
M  V30 5269 C 481.434 -1.43576 -4.34914 0
M  V30 5270 N 482.925 -1.39918 -4.41562 0
M  V30 5271 C 483.66 -1.84103 -5.43041 0
M  V30 5272 N 483.156 -2.36167 -6.51304 0
M  V30 5273 N 484.949 -1.75142 -5.34118 0
M  V30 5274 H 477.1 -1.53525 -1.46778 0
M  V30 5275 H 479.363 -0.640527 -0.698877 0
M  V30 5276 H 479.069 -1.90635 -2.95552 0
M  V30 5277 H 478.943 -0.34977 -3.75575 0
M  V30 5278 H 481.33 0.218583 -2.94289 0
M  V30 5279 H 481.411 -1.36713 -2.16202 0
M  V30 5280 H 481.055 -2.47884 -4.43301 0
M  V30 5281 H 480.985 -0.869427 -5.19373 0
M  V30 5282 H 483.476 -1.0184 -3.63919 0
M  V30 5283 H 483.789 -2.67793 -7.24919 0
M  V30 5284 H 482.134 -2.40181 -6.52179 0
M  V30 5285 H 485.325 -1.34241 -4.48439 0
M  V30 5286 H 485.498 -2.09895 -6.13065 0
M  V30 5287 N 478.904 1.54736 -0.299062 0
M  V30 5288 C 479.814 2.27127 0.587413 0
M  V30 5289 C 480.83 1.30575 1.15005 0
M  V30 5290 O 482.006 1.63554 1.17525 0
M  V30 5291 C 479.071 2.99645 1.74395 0
M  V30 5292 C 478.132 4.11731 1.21559 0
M  V30 5293 C 477.365 4.80781 2.317 0
M  V30 5294 O 477.588 4.4918 3.51558 0
M  V30 5295 O 476.522 5.68226 1.98501 0
M  V30 5296 H 480.348 3.037 0.000250109 0
M  V30 5297 H 477.933 1.49256 -0.0655919 0
M  V30 5298 H 479.815 3.45138 2.4178 0
M  V30 5299 H 478.49 2.25969 2.31775 0
M  V30 5300 H 477.397 3.70641 0.507514 0
M  V30 5301 H 478.73 4.87379 0.687233 0
M  V30 5302 N 480.382 0.0267497 1.57577 0
M  V30 5303 C 481.312 -0.954308 2.13108 0
M  V30 5304 C 482.293 -1.34088 1.04663 0
M  V30 5305 O 483.478 -1.41992 1.32484 0
M  V30 5306 C 480.608 -2.23744 2.65624 0
M  V30 5307 C 479.562 -1.99168 3.78835 0
M  V30 5308 C 478.888 -3.33726 4.17769 0
M  V30 5309 C 480.188 -1.33277 5.0501 0
M  V30 5310 H 481.882 -0.491848 2.95332 0
M  V30 5311 H 479.428 -0.23514 1.42067 0
M  V30 5312 H 481.381 -2.92754 3.03106 0
M  V30 5313 H 480.105 -2.72151 1.80558 0
M  V30 5314 H 478.764 -1.32577 3.41788 0
M  V30 5315 H 478.412 -3.79888 3.29688 0
M  V30 5316 H 478.112 -3.18089 4.94058 0
M  V30 5317 H 479.636 -4.04008 4.57832 0
M  V30 5318 H 481.05 -1.92283 5.40093 0
M  V30 5319 H 479.447 -1.28045 5.8628 0
M  V30 5320 H 480.517 -0.305411 4.83937 0
M  V30 5321 N 481.861 -1.55662 -0.24637 0
M  V30 5322 C 483.109 -1.77168 -0.972411 0
M  V30 5323 C 483.43 -0.590827 -1.85834 0
M  V30 5324 O 482.7 0.393365 -1.9191 0
M  V30 5325 H 481.28 -0.653405 -0.362038 0
M  V30 5326 H 483.942 -1.93101 -0.264189 0
M  V30 5327 H 483.038 -2.68335 -1.59382 0
M  V30 5328 N 483.339 0.512053 -1.4905 0
M  V30 5329 C 484.269 1.62365 -1.67809 0
M  V30 5330 C 485.25 1.61737 -0.526809 0
M  V30 5331 O 486.435 1.78651 -0.761404 0
M  V30 5332 C 483.565 3.00895 -1.73435 0
M  V30 5333 C 482.519 3.16387 -2.88242 0
M  V30 5334 C 481.845 4.56157 -2.78971 0
M  V30 5335 C 483.145 2.97457 -4.29321 0
M  V30 5336 H 484.839 1.46921 -2.60873 0
M  V30 5337 H 482.385 0.705379 -1.2554 0
M  V30 5338 H 484.338 3.78549 -1.85145 0
M  V30 5339 H 483.062 3.17403 -0.769619 0
M  V30 5340 H 481.721 2.41155 -2.76116 0
M  V30 5341 H 481.369 4.69525 -1.8043 0
M  V30 5342 H 481.069 4.67465 -3.5602 0
M  V30 5343 H 482.593 5.35886 -2.92675 0
M  V30 5344 H 484.007 3.64888 -4.42187 0
M  V30 5345 H 482.404 3.20245 -5.07507 0
M  V30 5346 H 483.474 1.93692 -4.44535 0
M  V30 5347 N 484.817 1.37938 0.762283 0
M  V30 5348 C 485.747 1.37176 1.88958 0
M  V30 5349 C 486.728 0.238945 1.68413 0
M  V30 5350 O 487.913 0.440726 1.89133 0
M  V30 5351 C 485.043 1.18742 3.2637 0
M  V30 5352 C 483.997 2.29136 3.61498 0
M  V30 5353 C 483.323 1.95816 4.97554 0
M  V30 5354 C 484.623 3.71363 3.6727 0
M  V30 5355 H 486.317 2.31509 1.89853 0
M  V30 5356 H 483.863 1.11438 0.912005 0
M  V30 5357 H 485.816 1.16837 4.04879 0
M  V30 5358 H 484.54 0.208683 3.25933 0
M  V30 5359 H 483.199 2.30213 2.85303 0
M  V30 5360 H 482.847 0.964475 4.93667 0
M  V30 5361 H 482.547 2.69745 5.22026 0
M  V30 5362 H 484.071 1.95513 5.78452 0
M  V30 5363 H 485.485 3.72364 4.35911 0
M  V30 5364 H 483.882 4.44425 4.03245 0
M  V30 5365 H 484.952 4.04305 2.67704 0
M  V30 5366 N 486.295 -0.989507 1.22664 0
M  V30 5367 C 487.544 -1.72375 1.04737 0
M  V30 5368 C 487.857 -1.91096 -0.417316 0
M  V30 5369 O 489.063 -2.6188 -0.716334 0
M  V30 5370 C 487.519 -3.10161 1.82561 0
M  V30 5371 C 487.127 -2.99358 3.333 0
M  V30 5372 C 488.871 -3.87607 1.73093 0
M  V30 5373 C 486.778 -4.32319 4.03552 0
M  V30 5374 H 485.708 -0.646326 0.388302 0
M  V30 5375 H 488.359 -1.10437 1.46546 0
M  V30 5376 H 486.741 -3.728 1.33552 0
M  V30 5377 H 487.915 -2.45863 3.89728 0
M  V30 5378 H 486.23 -2.35392 3.43481 0
M  V30 5379 H 488.827 -4.86025 2.22899 0
M  V30 5380 H 489.17 -4.10509 0.691976 0
M  V30 5381 H 489.703 -3.31652 2.19663 0
M  V30 5382 H 486.442 -4.14616 5.07714 0
M  V30 5383 H 485.962 -4.85714 3.51911 0
M  V30 5384 H 487.641 -5.01051 4.09337 0
M  V30 5385 N 487.773 -1.03688 -1.18687 0
M  V30 5386 C 489.02 -0.73803 -1.88572 0
M  V30 5387 C 489.348 0.733973 -1.8012 0
M  V30 5388 O 488.603 1.55098 -1.19344 0
M  V30 5389 C 488.902 -1.14477 -3.3857 0
M  V30 5390 C 488.568 -2.61641 -3.67226 0
M  V30 5391 C 487.23 -3.01846 -3.74757 0
M  V30 5392 C 489.582 -3.56812 -3.79914 0
M  V30 5393 C 486.91 -4.36118 -3.92451 0
M  V30 5394 C 489.262 -4.90799 -3.99123 0
M  V30 5395 C 487.926 -5.3068 -4.04888 0
M  V30 5396 H 487.196 -0.270064 -0.690034 0
M  V30 5397 H 489.843 -1.3012 -1.40503 0
M  V30 5398 H 488.148 -0.500337 -3.88592 0
M  V30 5399 H 489.845 -0.89095 -3.90977 0
M  V30 5400 H 486.435 -2.29498 -3.61979 0
M  V30 5401 H 490.619 -3.26899 -3.73431 0
M  V30 5402 H 485.875 -4.66542 -3.95157 0
M  V30 5403 H 490.049 -5.64451 -4.07882 0
M  V30 5404 H 487.676 -6.34733 -4.18351 0
M  V30 5405 N 489.251 1.34841 -0.815825 0
M  V30 5406 C 490.498 1.98499 -0.400535 0
M  V30 5407 C 490.826 1.64699 1.03463 0
M  V30 5408 O 490.081 0.907006 1.73412 0
M  V30 5409 C 490.38 3.53273 -0.541541 0
M  V30 5410 C 490.046 4.06966 -1.94138 0
M  V30 5411 C 488.708 4.21341 -2.32433 0
M  V30 5412 C 491.06 4.35933 -2.85677 0
M  V30 5413 C 488.388 4.62007 -3.61617 0
M  V30 5414 C 490.74 4.78042 -4.14317 0
M  V30 5415 C 489.404 4.90622 -4.52599 0
M  V30 5416 H 488.674 0.72636 -0.146566 0
M  V30 5417 H 491.321 1.60902 -1.0384 0
M  V30 5418 H 489.626 3.91387 0.179741 0
M  V30 5419 H 491.323 4.00497 -0.20085 0
M  V30 5420 H 487.913 3.96235 -1.63388 0
M  V30 5421 H 492.097 4.24372 -2.57337 0
M  V30 5422 H 487.353 4.69937 -3.91113 0
M  V30 5423 H 491.527 4.99415 -4.85342 0
M  V30 5424 H 489.154 5.2189 -5.52752 0
M  V30 5425 N 490.729 0.570148 1.46925 0
M  V30 5426 C 491.659 -0.158274 2.32963 0
M  V30 5427 C 492.64 -0.896093 1.44583 0
M  V30 5428 O 493.825 -0.874022 1.7342 0
M  V30 5429 C 490.955 -1.18055 3.26619 0
M  V30 5430 C 489.909 -0.558379 4.24342 0
M  V30 5431 C 489.235 -1.68623 5.07415 0
M  V30 5432 C 490.535 0.496295 5.19937 0
M  V30 5433 H 492.229 0.560046 2.94115 0
M  V30 5434 H 489.775 0.270775 1.41431 0
M  V30 5435 H 491.728 -1.69841 3.85658 0
M  V30 5436 H 490.452 -1.92899 2.63548 0
M  V30 5437 H 489.111 -0.0617157 3.66548 0
M  V30 5438 H 488.759 -2.42402 4.40738 0
M  V30 5439 H 488.459 -1.27564 5.73586 0
M  V30 5440 H 489.983 -2.20709 5.69315 0
M  V30 5441 H 491.397 0.0640052 5.73264 0
M  V30 5442 H 489.794 0.82649 5.94381 0
M  V30 5443 H 490.864 1.38735 4.6463 0
M  V30 5444 N 492.207 -1.54576 0.307264 0
M  V30 5445 C 493.454 -2.00263 -0.300167 0
M  V30 5446 C 493.782 -1.19561 -1.53413 0
M  V30 5447 O 493.037 -0.261487 -1.93945 0
M  V30 5448 C 493.336 -3.50572 -0.695253 0
M  V30 5449 C 493.002 -4.48771 0.437679 0
M  V30 5450 C 491.664 -4.7534 0.748681 0
M  V30 5451 C 494.016 -5.0721 1.19949 0
M  V30 5452 C 491.344 -5.5761 1.8245 0
M  V30 5453 C 493.696 -5.90651 2.26527 0
M  V30 5454 C 492.36 -6.15528 2.58227 0
M  V30 5455 H 491.63 -0.732814 -0.109839 0
M  V30 5456 H 494.277 -1.86664 0.427661 0
M  V30 5457 H 492.582 -3.61814 -1.50326 0
M  V30 5458 H 494.279 -3.83352 -1.17653 0
M  V30 5459 H 490.869 -4.282 0.185187 0
M  V30 5460 H 495.053 -4.86679 0.972474 0
M  V30 5461 H 490.309 -5.75121 2.07476 0
M  V30 5462 H 494.483 -6.34957 2.86011 0
M  V30 5463 H 492.11 -6.79066 3.4172 0
M  V30 5464 N 493.685 -0.035106 -1.57561 0
M  V30 5465 C 494.934 0.641604 -1.91223 0
M  V30 5466 C 495.247 1.72944 -0.913761 0
M  V30 5467 O 496.453 2.46321 -1.14185 0
M  V30 5468 C 494.909 1.19249 -3.3957 0
M  V30 5469 C 494.517 0.137616 -4.47789 0
M  V30 5470 C 496.261 1.84537 -3.82291 0
M  V30 5471 C 494.168 0.700478 -5.87237 0
M  V30 5472 H 493.098 0.243417 -0.713627 0
M  V30 5473 H 495.749 -0.101382 -1.8322 0
M  V30 5474 H 494.131 1.98728 -3.42525 0
M  V30 5475 H 495.305 -0.635153 -4.56402 0
M  V30 5476 H 493.62 -0.416855 -4.14308 0
M  V30 5477 H 496.217 2.27616 -4.83834 0
M  V30 5478 H 496.56 2.69054 -3.17672 0
M  V30 5479 H 497.093 1.11739 -3.81784 0
M  V30 5480 H 493.832 -0.106693 -6.55413 0
M  V30 5481 H 493.352 1.4416 -5.82218 0
M  V30 5482 H 495.031 1.18837 -6.35993 0
M  V30 5483 N 495.163 1.55791 0.238111 0
M  V30 5484 C 496.411 1.77681 0.963001 0
M  V30 5485 C 496.732 0.600674 1.85518 0
M  V30 5486 O 496.002 -0.383182 1.92116 0
M  V30 5487 H 494.582 0.655315 0.358568 0
M  V30 5488 H 497.244 1.93239 0.253945 0
M  V30 5489 H 496.34 2.69177 1.57956 0
M  V30 5490 N 496.642 -0.504142 1.49319 0
M  V30 5491 C 497.888 -1.26033 1.58882 0
M  V30 5492 C 498.221 -1.92268 0.273274 0
M  V30 5493 O 497.496 -1.80567 -0.72291 0
M  V30 5494 C 497.779 -2.32976 2.7458 0
M  V30 5495 C 497.632 -1.71263 4.1592 0
M  V30 5496 C 498.951 -3.34561 2.85932 0
M  V30 5497 H 496.07 -0.456863 0.578312 0
M  V30 5498 H 498.712 -0.558965 1.81592 0
M  V30 5499 H 496.862 -2.92796 2.55348 0
M  V30 5500 H 498.534 -1.15294 4.4666 0
M  V30 5501 H 496.777 -1.01686 4.21714 0
M  V30 5502 H 497.448 -2.48816 4.92742 0
M  V30 5503 H 499.924 -2.84727 3.0343 0
M  V30 5504 H 498.8 -4.06754 3.68568 0
M  V30 5505 H 499.061 -3.96695 1.95154 0
M  V30 5506 N 498.12 -1.38341 -0.754957 0
M  V30 5507 C 499.369 -1.33791 -1.5094 0
M  V30 5508 C 499.682 0.0699267 -1.95475 0
M  V30 5509 O 500.888 0.237956 -2.70455 0
M  V30 5510 C 499.344 -2.34934 -2.72643 0
M  V30 5511 C 498.952 -3.81332 -2.35138 0
M  V30 5512 C 500.696 -2.39425 -3.50536 0
M  V30 5513 C 498.603 -4.74164 -3.53444 0
M  V30 5514 H 497.533 -0.497314 -0.566741 0
M  V30 5515 H 500.184 -1.63888 -0.825403 0
M  V30 5516 H 498.566 -1.97878 -3.43017 0
M  V30 5517 H 499.74 -4.27319 -1.7244 0
M  V30 5518 H 498.055 -3.79946 -1.70382 0
M  V30 5519 H 500.652 -3.0598 -4.38498 0
M  V30 5520 H 500.995 -1.41278 -3.91594 0
M  V30 5521 H 501.528 -2.75274 -2.87174 0
M  V30 5522 H 498.267 -5.73501 -3.17453 0
M  V30 5523 H 497.787 -4.3287 -4.15191 0
M  V30 5524 H 499.466 -4.92111 -4.20043 0
M  V30 5525 N 499.598 0.982988 -1.23187 0
M  V30 5526 C 500.528 2.09301 -1.03515 0
M  V30 5527 C 501.509 1.70035 0.0471136 0
M  V30 5528 O 502.694 1.93847 -0.117029 0
M  V30 5529 C 499.824 3.4167 -0.622791 0
M  V30 5530 C 498.778 3.94828 -1.65211 0
M  V30 5531 C 498.104 5.23362 -1.09527 0
M  V30 5532 C 499.404 4.2439 -3.04451 0
M  V30 5533 H 501.098 2.26016 -1.96359 0
M  V30 5534 H 498.644 1.08611 -0.945501 0
M  V30 5535 H 500.597 4.18746 -0.472233 0
M  V30 5536 H 499.321 3.24811 0.341329 0
M  V30 5537 H 497.98 3.19895 -1.79061 0
M  V30 5538 H 497.628 5.02852 -0.122211 0
M  V30 5539 H 497.328 5.59895 -1.783 0
M  V30 5540 H 498.852 6.03062 -0.956511 0
M  V30 5541 H 500.266 4.92225 -2.93917 0
M  V30 5542 H 498.663 4.72118 -3.70438 0
M  V30 5543 H 499.733 3.31765 -3.53638 0
M  V30 5544 N 501.076 1.04316 1.18135 0
M  V30 5545 C 502.323 0.74802 1.88178 0
M  V30 5546 C 502.651 -0.72441 1.80506 0
M  V30 5547 O 501.906 -1.54463 1.20165 0
M  V30 5548 C 502.205 1.16271 3.37958 0
M  V30 5549 C 501.871 2.63585 3.65833 0
M  V30 5550 C 500.533 3.03829 3.73151 0
M  V30 5551 C 502.885 3.58822 3.78016 0
M  V30 5552 C 500.213 4.38194 3.90132 0
M  V30 5553 C 502.565 4.92909 3.96514 0
M  V30 5554 C 501.229 5.3282 4.02068 0
M  V30 5555 H 500.499 0.27372 0.688592 0
M  V30 5556 H 503.146 1.30863 1.39811 0
M  V30 5557 H 501.451 0.520938 3.88321 0
M  V30 5558 H 503.148 0.911672 3.90499 0
M  V30 5559 H 499.738 2.31414 3.60757 0
M  V30 5560 H 503.922 3.28875 3.71692 0
M  V30 5561 H 499.178 4.68631 3.92677 0
M  V30 5562 H 503.352 5.66606 4.04883 0
M  V30 5563 H 500.979 6.36943 4.14979 0
M  V30 5564 N 502.554 -1.34406 0.822964 0
M  V30 5565 C 503.779 -2.0304 0.423034 0
M  V30 5566 C 504.204 -1.61568 -0.963196 0
M  V30 5567 O 503.562 -0.800339 -1.62678 0
M  V30 5568 C 503.61 -3.56636 0.53321 0
M  V30 5569 O 502.714 -4.09971 -0.446939 0
M  V30 5570 H 502.055 -0.64075 0.174171 0
M  V30 5571 H 504.585 -1.71653 1.11339 0
M  V30 5572 H 504.595 -4.05945 0.408991 0
M  V30 5573 H 503.27 -3.86168 1.54425 0
M  V30 5574 H 501.847 -3.71835 -0.281601 0
M  V30 5575 N 504.032 -0.577932 -1.46621 0
M  V30 5576 C 505.257 -0.0652536 -2.07297 0
M  V30 5577 C 505.682 1.22828 -1.4246 0
M  V30 5578 O 505.04 1.74075 -0.506718 0
M  V30 5579 C 505.088 0.0920589 -3.60482 0
M  V30 5580 O 504.192 1.14972 -3.96049 0
M  V30 5581 H 503.533 -0.06065 -0.661224 0
M  V30 5582 H 506.063 -0.799515 -1.88332 0
M  V30 5583 H 506.073 0.299741 -4.06897 0
M  V30 5584 H 504.748 -0.852612 -4.07067 0
M  V30 5585 H 503.325 0.920879 -3.61351 0
M  V30 5586 N 505.51 1.54411 -0.315457 0
M  V30 5587 C 506.473 2.22713 0.54142 0
M  V30 5588 C 507.473 1.2179 1.04995 0
M  V30 5589 O 508.663 1.46426 0.943667 0
M  V30 5590 C 505.795 2.92485 1.75116 0
M  V30 5591 H 506.988 2.99849 -0.0555508 0
M  V30 5592 H 504.541 1.56159 -0.0664453 0
M  V30 5593 H 505.276 2.19466 2.38758 0
M  V30 5594 H 505.061 3.66483 1.39401 0
M  V30 5595 H 506.551 3.44548 2.35959 0
M  V30 5596 N 506.988 0.0434614 1.5754 0
M  V30 5597 C 508.234 -0.632971 1.92669 0
M  V30 5598 C 508.567 -1.70947 0.921446 0
M  V30 5599 O 507.842 -1.94426 -0.0537202 0
M  V30 5600 C 508.125 -1.23619 3.38216 0
M  V30 5601 C 507.978 -0.168274 4.49485 0
M  V30 5602 C 509.297 -2.15008 3.84005 0
M  V30 5603 H 506.416 -0.228629 0.700641 0
M  V30 5604 H 509.058 0.103651 1.89717 0
M  V30 5605 H 507.208 -1.864 3.40863 0
M  V30 5606 H 508.88 0.463196 4.58969 0
M  V30 5607 H 507.123 0.504581 4.30855 0
M  V30 5608 H 507.794 -0.630218 5.48391 0
M  V30 5609 H 510.27 -1.62198 3.83185 0
M  V30 5610 H 509.146 -2.54161 4.86511 0
M  V30 5611 H 509.407 -3.04707 3.20322 0
M  V30 5612 N 508.466 -1.55915 -0.229846 0
M  V30 5613 C 509.696 -1.82352 -0.971152 0
M  V30 5614 C 510.104 -0.619231 -1.7878 0
M  V30 5615 O 509.447 0.421597 -1.78797 0
M  V30 5616 C 509.509 -3.02399 -1.9441 0
M  V30 5617 C 509.173 -4.37739 -1.31277 0
M  V30 5618 C 510.17 -5.15074 -0.706757 0
M  V30 5619 C 507.855 -4.84454 -1.32702 0
M  V30 5620 C 509.849 -6.37281 -0.123413 0
M  V30 5621 C 507.536 -6.06605 -0.739831 0
M  V30 5622 C 508.534 -6.82858 -0.139071 0
M  V30 5623 O 508.222 -8.027 0.439007 0
M  V30 5624 H 507.954 -0.61035 -0.290601 0
M  V30 5625 H 510.508 -2.03839 -0.252746 0
M  V30 5626 H 508.738 -2.76709 -2.70128 0
M  V30 5627 H 510.427 -3.15779 -2.55026 0
M  V30 5628 H 511.193 -4.80093 -0.688131 0
M  V30 5629 H 507.072 -4.25081 -1.78402 0
M  V30 5630 H 510.616 -6.96741 0.346124 0
M  V30 5631 H 506.513 -6.4106 -0.755841 0
M  V30 5632 H 507.281 -8.17824 0.332521 0
M  V30 5633 N 509.944 0.496216 -1.49584 0
M  V30 5634 C 511.191 1.25003 -1.59312 0
M  V30 5635 C 511.519 1.92445 -0.28198 0
M  V30 5636 O 510.774 1.81557 0.730452 0
M  V30 5637 C 511.073 2.3359 -2.705 0
M  V30 5638 C 510.739 1.83574 -4.11839 0
M  V30 5639 C 509.401 1.69653 -4.50302 0
M  V30 5640 C 511.753 1.46193 -5.00277 0
M  V30 5641 C 509.081 1.16736 -5.74969 0
M  V30 5642 C 511.433 0.947265 -6.25468 0
M  V30 5643 C 510.097 0.794485 -6.62755 0
M  V30 5644 H 509.367 0.45742 -0.582965 0
M  V30 5645 H 512.014 0.549996 -1.83432 0
M  V30 5646 H 510.319 3.09401 -2.40371 0
M  V30 5647 H 512.016 2.91627 -2.75235 0
M  V30 5648 H 508.606 1.9537 -3.81482 0
M  V30 5649 H 512.79 1.55793 -4.71214 0
M  V30 5650 H 508.046 1.03623 -6.02555 0
M  V30 5651 H 512.22 0.648846 -6.93371 0
M  V30 5652 H 509.847 0.382271 -7.59238 0
M  V30 5653 N 511.423 1.38739 0.74761 0
M  V30 5654 C 512.386 1.36241 1.84312 0
M  V30 5655 C 513.386 0.261811 1.58654 0
M  V30 5656 O 514.576 0.519031 1.66288 0
M  V30 5657 C 511.708 1.12253 3.21888 0
M  V30 5658 H 512.901 2.33712 1.87933 0
M  V30 5659 H 510.454 1.2412 0.949946 0
M  V30 5660 H 511.189 0.154133 3.23934 0
M  V30 5661 H 510.974 1.91943 3.41907 0
M  V30 5662 H 512.464 1.13215 4.0196 0
M  V30 5663 N 512.901 -0.976442 1.23707 0
M  V30 5664 C 513.811 -2.10359 1.03856 0
M  V30 5665 C 514.827 -1.73991 -0.0180919 0
M  V30 5666 O 516.003 -2.0061 0.178211 0
M  V30 5667 C 513.068 -3.40809 0.636387 0
M  V30 5668 C 512.129 -3.91179 1.76854 0
M  V30 5669 C 511.362 -5.15404 1.38546 0
M  V30 5670 O 511.585 -5.69754 0.27142 0
M  V30 5671 O 510.519 -5.5994 2.20797 0
M  V30 5672 H 514.345 -2.29997 1.98331 0
M  V30 5673 H 511.93 -1.08742 1.02448 0
M  V30 5674 H 513.812 -4.19269 0.423223 0
M  V30 5675 H 512.487 -3.22493 -0.279322 0
M  V30 5676 H 511.394 -3.13819 2.03638 0
M  V30 5677 H 512.727 -4.13958 2.6627 0
M  V30 5678 N 514.379 -1.04941 -1.1758 0
M  V30 5679 C 515.342 -0.652456 -2.19717 0
M  V30 5680 C 516.342 0.294745 -1.58076 0
M  V30 5681 O 517.532 0.0789579 -1.74021 0
M  V30 5682 C 514.664 0.0420712 -3.40874 0
M  V30 5683 H 515.857 -1.55642 -2.5635 0
M  V30 5684 H 513.41 -0.842995 -1.31618 0
M  V30 5685 H 514.145 0.95943 -3.09783 0
M  V30 5686 H 513.93 -0.638844 -3.86861 0
M  V30 5687 H 515.42 0.306 -4.16477 0
M  V30 5688 N 515.857 1.33968 -0.830081 0
M  V30 5689 C 516.767 2.33164 -0.259207 0
M  V30 5690 C 517.783 1.62951 0.610164 0
M  V30 5691 O 518.959 1.94668 0.516369 0
M  V30 5692 C 516.024 3.42088 0.563598 0
M  V30 5693 C 515.085 4.28037 -0.329014 0
M  V30 5694 C 514.318 5.3176 0.454616 0
M  V30 5695 O 514.541 5.44876 1.6872 0
M  V30 5696 O 513.475 6.01669 -0.166794 0
M  V30 5697 H 517.301 2.83832 -1.08041 0
M  V30 5698 H 514.886 1.37154 -0.59239 0
M  V30 5699 H 516.768 4.08581 1.03147 0
M  V30 5700 H 515.443 2.93651 1.36201 0
M  V30 5701 H 514.35 3.64443 -0.844538 0
M  V30 5702 H 515.683 4.79934 -1.09196 0
M  V30 5703 N 517.335 0.585699 1.46312 0
M  V30 5704 C 518.245 -0.148236 2.34131 0
M  V30 5705 C 519.261 -0.882972 1.49932 0
M  V30 5706 O 520.437 -0.845484 1.82794 0
M  V30 5707 C 517.502 -1.14714 3.27172 0
M  V30 5708 C 516.563 -0.416746 4.27272 0
M  V30 5709 C 515.796 -1.36806 5.15868 0
M  V30 5710 O 516.019 -2.60475 5.07454 0
M  V30 5711 O 514.953 -0.877018 5.95476 0
M  V30 5712 H 518.779 0.572882 2.98248 0
M  V30 5713 H 516.364 0.346082 1.45336 0
M  V30 5714 H 518.246 -1.72303 3.84564 0
M  V30 5715 H 516.921 -1.84967 2.65648 0
M  V30 5716 H 515.828 0.201061 3.73559 0
M  V30 5717 H 517.161 0.244872 4.9159 0
M  V30 5718 N 518.813 -1.54241 0.323641 0
M  V30 5719 C 519.776 -2.22997 -0.529602 0
M  V30 5720 C 520.776 -1.22345 -1.04347 0
M  V30 5721 O 521.966 -1.46924 -0.935889 0
M  V30 5722 C 519.098 -2.93409 -1.73562 0
M  V30 5723 H 520.291 -2.99815 0.0714518 0
M  V30 5724 H 517.844 -1.56121 0.0747258 0
M  V30 5725 H 518.579 -2.20729 -2.37591 0
M  V30 5726 H 518.364 -3.67217 -1.37456 0
M  V30 5727 H 519.854 -3.45794 -2.34128 0
M  V30 5728 N 520.291 -0.0518155 -1.57515 0
M  V30 5729 C 521.201 0.937539 -2.15052 0
M  V30 5730 C 522.217 1.34121 -1.10849 0
M  V30 5731 O 523.393 1.418 -1.4302 0
M  V30 5732 C 520.458 2.19379 -2.68466 0
M  V30 5733 C 519.519 1.84841 -3.87469 0
M  V30 5734 C 518.752 3.04477 -4.38326 0
M  V30 5735 O 518.975 4.17868 -3.88256 0
M  V30 5736 O 517.909 2.85453 -5.29906 0
M  V30 5737 H 521.735 0.478201 -2.99912 0
M  V30 5738 H 519.32 0.17012 -1.48428 0
M  V30 5739 H 521.202 2.93084 -3.02787 0
M  V30 5740 H 519.877 2.64449 -1.86677 0
M  V30 5741 H 518.784 1.08449 -3.58036 0
M  V30 5742 H 520.117 1.44569 -4.7049 0
M  V30 5743 N 521.769 1.56035 0.221574 0
M  V30 5744 C 522.994 1.83476 0.967026 0
M  V30 5745 C 523.419 0.632139 1.7716 0
M  V30 5746 O 522.777 -0.419082 1.7639 0
M  V30 5747 C 522.825 3.08907 1.86034 0
M  V30 5748 O 521.929 2.876 2.95567 0
M  V30 5749 H 521.27 0.604913 0.273817 0
M  V30 5750 H 523.8 2.03247 0.234893 0
M  V30 5751 H 523.81 3.3901 2.27016 0
M  V30 5752 H 522.485 3.96068 1.26898 0
M  V30 5753 H 521.062 2.6873 2.58532 0
M  V30 5754 N 523.247 -0.488276 1.49845 0
M  V30 5755 C 524.197 -1.58556 1.63842 0
M  V30 5756 C 525.181 -1.53142 0.493586 0
M  V30 5757 O 526.373 -1.60457 0.747169 0
M  V30 5758 C 523.502 -2.97101 1.72005 0
M  V30 5759 C 522.588 -3.07463 2.92108 0
M  V30 5760 N 522.979 -2.87681 4.16021 0
M  V30 5761 C 521.277 -3.3858 2.90309 0
M  V30 5762 C 521.978 -3.0256 4.96822 0
M  V30 5763 N 520.954 -3.32002 4.30437 0
M  V30 5764 H 524.756 -1.41935 2.57355 0
M  V30 5765 H 522.27 -0.694668 1.46793 0
M  V30 5766 H 524.267 -3.75976 1.80132 0
M  V30 5767 H 522.927 -3.14782 0.796375 0
M  V30 5768 H 523.938 -2.63603 4.45796 0
M  V30 5769 H 520.615 -3.62357 2.07372 0
M  V30 5770 H 522.005 -2.9165 6.05301 0
M  V30 5771 N 524.725 -1.39134 -0.740242 0
M  V30 5772 C 525.972 -1.36071 -1.49969 0
M  V30 5773 C 526.3 0.0450245 -1.94448 0
M  V30 5774 O 525.555 1.02482 -1.66721 0
M  V30 5775 C 525.854 -2.27457 -2.75678 0
M  V30 5776 C 525.52 -3.75185 -2.50094 0
M  V30 5777 C 524.182 -4.15439 -2.42825 0
M  V30 5778 C 526.534 -4.68643 -2.28086 0
M  V30 5779 C 523.862 -5.4722 -2.11584 0
M  V30 5780 C 526.214 -6.00695 -1.98363 0
M  V30 5781 C 524.878 -6.40018 -1.8956 0
M  V30 5782 H 524.148 -0.497921 -0.548777 0
M  V30 5783 H 526.795 -1.71599 -0.85007 0
M  V30 5784 H 525.1 -1.8503 -3.45356 0
M  V30 5785 H 526.797 -2.22384 -3.33686 0
M  V30 5786 H 523.387 -3.43279 -2.56627 0
M  V30 5787 H 527.571 -4.3838 -2.32672 0
M  V30 5788 H 522.827 -5.76615 -2.03287 0
M  V30 5789 H 527.001 -6.72644 -1.80341 0
M  V30 5790 H 524.628 -7.42051 -1.65117 0
M  V30 5791 N 526.204 0.969867 -1.24223 0
M  V30 5792 C 527.429 1.75289 -1.10853 0
M  V30 5793 C 527.854 1.85091 0.335079 0
M  V30 5794 O 527.212 1.32024 1.24255 0
M  V30 5795 C 527.26 3.15255 -1.75062 0
M  V30 5796 O 526.364 3.99589 -1.01992 0
M  V30 5797 H 525.705 0.538904 -0.387915 0
M  V30 5798 H 528.235 1.21675 -1.64488 0
M  V30 5799 H 528.245 3.65787 -1.80731 0
M  V30 5800 H 526.92 3.07436 -2.801 0
M  V30 5801 H 525.497 3.58077 -1.04094 0
M  V30 5802 N 527.682 1.05563 1.17022 0
M  V30 5803 C 528.907 0.788437 1.91829 0
M  V30 5804 C 529.332 -0.650356 1.76499 0
M  V30 5805 O 528.69 -1.45229 1.08527 0
M  V30 5806 C 528.738 1.1786 3.40795 0
M  V30 5807 O 527.842 0.312965 4.11211 0
M  V30 5808 H 527.183 0.288794 0.597908 0
M  V30 5809 H 529.713 1.40948 1.48307 0
M  V30 5810 H 529.723 1.14697 3.91546 0
M  V30 5811 H 528.398 2.22666 3.51273 0
M  V30 5812 H 526.975 0.405515 3.70689 0
M  V30 5813 N 529.16 -1.33526 0.837174 0
M  V30 5814 C 530.409 -1.97098 0.428387 0
M  V30 5815 C 530.722 -1.67062 -1.01734 0
M  V30 5816 O 531.928 -2.24235 -1.53072 0
M  V30 5817 C 530.384 -3.52725 0.715075 0
M  V30 5818 C 529.992 -3.9164 2.17537 0
M  V30 5819 C 531.736 -4.22857 0.373154 0
M  V30 5820 C 529.643 -5.40237 2.40619 0
M  V30 5821 H 528.573 -0.737589 0.156455 0
M  V30 5822 H 531.224 -1.52169 1.02552 0
M  V30 5823 H 529.606 -3.95971 0.0475904 0
M  V30 5824 H 530.78 -3.59456 2.88319 0
M  V30 5825 H 529.095 -3.34485 2.4801 0
M  V30 5826 H 531.692 -5.32133 0.523264 0
M  V30 5827 H 532.035 -4.10647 -0.683708 0
M  V30 5828 H 532.568 -3.85135 0.995801 0
M  V30 5829 H 529.307 -5.57449 3.44864 0
M  V30 5830 H 528.827 -5.73887 1.74396 0
M  V30 5831 H 530.506 -6.07102 2.23688 0
M  V30 5832 N 530.638 -0.59345 -1.46 0
M  V30 5833 C 532.049 -0.169801 -1.85926 0
M  V30 5834 C 532.4 1.26984 -1.49565 0
M  V30 5835 O 531.525 1.96076 -0.915602 0
M  V30 5836 C 532.12 -0.301385 -3.37457 0
M  V30 5837 C 530.679 0.0674684 -3.7634 0
M  V30 5838 C 529.826 -0.632383 -2.69993 0
M  V30 5839 H 532.777 -0.801014 -1.37002 0
M  V30 5840 H 532.798 0.470331 -3.77582 0
M  V30 5841 H 532.31 -1.34927 -3.63891 0
M  V30 5842 H 530.411 1.11507 -3.55523 0
M  V30 5843 H 530.524 -0.316332 -4.78055 0
M  V30 5844 H 528.888 -0.0714961 -2.546 0
M  V30 5845 H 529.671 -1.68212 -2.99265 0
M  V30 5846 N 532.116 1.54067 -0.331816 0
M  V30 5847 C 533.393 1.92915 0.322955 0
M  V30 5848 C 533.773 1.26225 1.69205 0
M  V30 5849 O 533.121 0.408919 2.24811 0
M  V30 5850 C 533.331 3.46619 0.406946 0
M  V30 5851 C 534.679 4.19386 0.663339 0
M  V30 5852 O 535.703 3.5282 0.489536 0
M  V30 5853 O 534.562 5.37288 0.999193 0
M  V30 5854 H 531.656 0.805808 0.186016 0
M  V30 5855 H 534.202 1.65342 -0.382135 0
M  V30 5856 H 532.974 3.87354 -0.554287 0
M  V30 5857 H 532.597 3.80324 1.15929 0
M  V30 5858 N 533.594 0.0601682 1.57485 0
M  V30 5859 C 534.557 -0.896373 2.10945 0
M  V30 5860 C 535.557 -1.23402 1.03095 0
M  V30 5861 O 536.747 -1.16921 1.29132 0
M  V30 5862 C 533.879 -2.20346 2.60116 0
M  V30 5863 H 535.072 -0.432778 2.96761 0
M  V30 5864 H 532.625 -0.188372 1.55161 0
M  V30 5865 H 533.36 -2.71268 1.7772 0
M  V30 5866 H 533.145 -1.9714 3.38937 0
M  V30 5867 H 534.635 -2.88846 3.01592 0
M  V30 5868 N 535.072 -1.5615 -0.213296 0
M  V30 5869 C 536.319 -1.79546 -0.936462 0
M  V30 5870 C 536.647 -0.630337 -1.84003 0
M  V30 5871 O 535.902 0.384883 -1.91878 0
M  V30 5872 C 536.201 -3.08772 -1.79985 0
M  V30 5873 C 535.867 -4.38532 -1.04882 0
M  V30 5874 C 534.529 -4.73787 -0.841393 0
M  V30 5875 C 536.881 -5.18609 -0.51907 0
M  V30 5876 C 534.209 -5.86627 -0.0924403 0
M  V30 5877 C 536.561 -6.32229 0.216581 0
M  V30 5878 C 535.225 -6.6608 0.435191 0
M  V30 5879 H 534.495 -0.657004 -0.342676 0
M  V30 5880 H 537.142 -1.9041 -0.204051 0
M  V30 5881 H 535.447 -2.93065 -2.60038 0
M  V30 5882 H 537.144 -3.24077 -2.36168 0
M  V30 5883 H 533.734 -4.10855 -1.22048 0
M  V30 5884 H 537.918 -4.91801 -0.666775 0
M  V30 5885 H 533.174 -6.11338 0.087081 0
M  V30 5886 H 537.348 -6.93503 0.634538 0
M  V30 5887 H 534.975 -7.5336 1.01746 0
M  V30 5888 N 536.55 0.480323 -1.50102 0
M  V30 5889 C 537.796 1.23208 -1.61837 0
M  V30 5890 C 538.151 1.89878 -0.310509 0
M  V30 5891 O 537.444 1.7871 0.690897 0
M  V30 5892 C 537.638 2.30708 -2.72963 0
M  V30 5893 C 537.467 1.74583 -4.14428 0
M  V30 5894 C 536.237 1.54964 -4.80951 0
M  V30 5895 C 538.435 1.24597 -4.98979 0
M  V30 5896 N 536.417 0.939855 -6.06663 0
M  V30 5897 C 537.788 0.758834 -6.15339 0
M  V30 5898 C 539.843 1.13365 -4.84822 0
M  V30 5899 C 538.546 0.17046 -7.19098 0
M  V30 5900 C 540.572 0.559221 -5.8875 0
M  V30 5901 C 539.934 0.082415 -7.04352 0
M  V30 5902 H 536.033 0.440065 -0.646426 0
M  V30 5903 H 538.617 0.535632 -1.87187 0
M  V30 5904 H 536.788 2.9779 -2.4935 0
M  V30 5905 H 538.52 2.97738 -2.74106 0
M  V30 5906 H 535.275 1.79926 -4.38091 0
M  V30 5907 H 535.699 0.653641 -6.73837 0
M  V30 5908 H 540.341 1.48823 -3.95742 0
M  V30 5909 H 538.059 -0.196347 -8.07861 0
M  V30 5910 H 541.645 0.474804 -5.79859 0
M  V30 5911 H 540.525 -0.355119 -7.83396 0
M  V30 5912 N 538.028 1.39524 0.732853 0
M  V30 5913 C 539.274 1.38072 1.49358 0
M  V30 5914 C 539.629 -0.0227943 1.92386 0
M  V30 5915 O 538.922 -0.98976 1.64056 0
M  V30 5916 C 539.116 2.28916 2.74468 0
M  V30 5917 C 538.945 3.7796 2.43673 0
M  V30 5918 C 537.715 4.46874 2.35863 0
M  V30 5919 C 539.913 4.69886 2.09074 0
M  V30 5920 N 537.895 5.81242 1.97561 0
M  V30 5921 C 539.266 5.9292 1.81234 0
M  V30 5922 C 541.321 4.57887 1.95561 0
M  V30 5923 C 540.024 7.05297 1.41242 0
M  V30 5924 C 542.05 5.70187 1.56972 0
M  V30 5925 C 541.412 6.92297 1.30018 0
M  V30 5926 H 537.511 0.56051 0.5453 0
M  V30 5927 H 540.095 1.75093 0.85151 0
M  V30 5928 H 538.266 1.9405 3.36451 0
M  V30 5929 H 539.998 2.18441 3.40684 0
M  V30 5930 H 536.753 4.00341 2.5303 0
M  V30 5931 H 537.177 6.52356 1.80997 0
M  V30 5932 H 541.819 3.64014 2.15067 0
M  V30 5933 H 539.537 7.99069 1.20476 0
M  V30 5934 H 543.123 5.62892 1.47119 0
M  V30 5935 H 542.003 7.7772 1.00605 0
M  V30 5936 N 539.506 -0.963266 1.24736 0
M  V30 5937 C 540.469 -2.04013 1.04457 0
M  V30 5938 C 541.469 -1.608 0.000335555 0
M  V30 5939 O 542.659 -1.72515 0.241719 0
M  V30 5940 C 539.791 -3.35858 0.584162 0
M  V30 5941 H 540.984 -2.23436 2.00041 0
M  V30 5942 H 538.537 -1.13914 1.07021 0
M  V30 5943 H 539.272 -3.22128 -0.374673 0
M  V30 5944 H 539.057 -3.68568 1.3379 0
M  V30 5945 H 540.547 -4.1502 0.463451 0
M  V30 5946 N 540.985 -1.06182 -1.16461 0
M  V30 5947 C 542.231 -0.779015 -1.87241 0
M  V30 5948 C 542.564 0.692715 -1.81425 0
M  V30 5949 O 541.839 1.5074 -1.22913 0
M  V30 5950 C 542.122 -1.2728 -3.36856 0
M  V30 5951 C 541.975 -2.80821 -3.51368 0
M  V30 5952 C 543.294 -0.879799 -4.31216 0
M  V30 5953 H 540.413 -0.284464 -0.679889 0
M  V30 5954 H 543.055 -1.31755 -1.36896 0
M  V30 5955 H 541.205 -0.814673 -3.79862 0
M  V30 5956 H 542.877 -3.34833 -3.17308 0
M  V30 5957 H 541.12 -3.19606 -2.93316 0
M  V30 5958 H 541.791 -3.10435 -4.56436 0
M  V30 5959 H 544.267 -1.27436 -3.96105 0
M  V30 5960 H 543.143 -1.25278 -5.34412 0
M  V30 5961 H 543.404 0.215372 -4.41575 0
M  V30 5962 N 542.463 1.3308 -0.844243 0
M  V30 5963 C 543.709 1.97898 -0.443206 0
M  V30 5964 C 544.042 1.66699 0.99625 0
M  V30 5965 O 543.317 0.949704 1.69738 0
M  V30 5966 C 543.6 3.53801 -0.670606 0
M  V30 5967 C 543.453 3.94667 -2.15772 0
M  V30 5968 C 544.772 4.39936 -0.120226 0
M  V30 5969 H 541.891 0.718861 -0.162504 0
M  V30 5970 H 544.533 1.57633 -1.06075 0
M  V30 5971 H 542.683 3.88229 -0.14496 0
M  V30 5972 H 544.355 3.70469 -2.74865 0
M  V30 5973 H 542.598 3.44203 -2.6402 0
M  V30 5974 H 543.269 5.03275 -2.26757 0
M  V30 5975 H 545.745 4.12183 -0.5696 0
M  V30 5976 H 544.621 5.4803 -0.308984 0
M  V30 5977 H 544.882 4.31184 0.976347 0
M  V30 5978 N 543.941 0.601185 1.45683 0
M  V30 5979 C 545.166 0.0982245 2.07167 0
M  V30 5980 C 545.591 -1.20546 1.44396 0
M  V30 5981 O 544.949 -1.73247 0.534347 0
M  V30 5982 C 544.997 -0.0346976 3.60583 0
M  V30 5983 O 544.101 -1.08657 3.97828 0
M  V30 5984 H 543.442 0.0711618 0.660176 0
M  V30 5985 H 545.972 0.829376 1.87036 0
M  V30 5986 H 545.982 -0.234969 4.07323 0
M  V30 5987 H 544.657 0.917265 4.05659 0
M  V30 5988 H 543.234 -0.863275 3.6277 0
M  V30 5989 N 545.419 -1.53889 0.339982 0
M  V30 5990 C 546.352 -2.21187 -0.561405 0
M  V30 5991 C 547.33 -1.19463 -1.10306 0
M  V30 5992 O 548.514 -1.48268 -1.164 0
M  V30 5993 C 545.641 -2.8865 -1.77198 0
M  V30 5994 C 544.687 -4.04232 -1.3601 0
M  V30 5995 S 545.52 -5.34129 -0.382909 0
M  V30 5996 C 546.676 -6.05094 -1.60039 0
M  V30 5997 H 546.909 -2.97298 0.0102092 0
M  V30 5998 H 544.442 -1.53901 0.124056 0
M  V30 5999 H 546.4 -3.28138 -2.4665 0
M  V30 6000 H 545.061 -2.12311 -2.3148 0
M  V30 6001 H 544.254 -4.50358 -2.2626 0
M  V30 6002 H 543.856 -3.66503 -0.745098 0
M  V30 6003 H 546.148 -6.2827 -2.53541 0
M  V30 6004 H 547.091 -6.98182 -1.18099 0
M  V30 6005 H 547.499 -5.35207 -1.79483 0
M  V30 6006 N 546.897 -0.0685191 -1.57451 0
M  V30 6007 C 548.125 0.610462 -1.97689 0
M  V30 6008 C 548.54 1.63346 -0.946758 0
M  V30 6009 O 547.897 1.82377 0.0669868 0
M  V30 6010 C 547.948 1.28196 -3.38006 0
M  V30 6011 O 547.669 0.299906 -4.37072 0
M  V30 6012 C 549.17 2.04907 -3.931 0
M  V30 6013 H 546.39 0.165689 -0.650222 0
M  V30 6014 H 548.934 -0.139953 -2.04021 0
M  V30 6015 H 547.089 1.98348 -3.32771 0
M  V30 6016 H 547.503 0.78126 -5.18649 0
M  V30 6017 H 548.977 2.47287 -4.93511 0
M  V30 6018 H 549.454 2.9043 -3.29465 0
M  V30 6019 H 550.06 1.39629 -4.01726 0
M  V30 6020 N 548.375 1.56261 0.205012 0
M  V30 6021 C 549.603 1.84141 0.943386 0
M  V30 6022 C 550.018 0.649772 1.77266 0
M  V30 6023 O 549.375 -0.381612 1.78466 0
M  V30 6024 C 549.426 3.10719 1.84759 0
M  V30 6025 O 549.147 4.25286 1.05181 0
M  V30 6026 C 550.648 3.51706 2.69848 0
M  V30 6027 H 547.868 0.611734 0.275721 0
M  V30 6028 H 550.412 2.03364 0.215253 0
M  V30 6029 H 548.567 2.93422 2.52947 0
M  V30 6030 H 548.981 4.97301 1.66709 0
M  V30 6031 H 550.455 4.43266 3.28967 0
M  V30 6032 H 550.932 2.7423 3.43067 0
M  V30 6033 H 551.538 3.71499 2.07047 0
M  V30 6034 N 549.853 -0.472356 1.50355 0
M  V30 6035 C 551.099 -1.22634 1.6152 0
M  V30 6036 C 551.432 -1.91645 0.313995 0
M  V30 6037 O 550.707 -1.82059 -0.684446 0
M  V30 6038 C 550.99 -2.27099 2.7946 0
M  V30 6039 C 550.843 -1.62402 4.19459 0
M  V30 6040 C 552.162 -3.28421 2.92964 0
M  V30 6041 H 549.281 -0.444494 0.587873 0
M  V30 6042 H 551.923 -0.520321 1.82737 0
M  V30 6043 H 550.073 -2.87314 2.61501 0
M  V30 6044 H 551.745 -1.05793 4.49005 0
M  V30 6045 H 549.988 -0.927184 4.23776 0
M  V30 6046 H 550.659 -2.38309 4.97909 0
M  V30 6047 H 553.135 -2.78227 3.09401 0
M  V30 6048 H 552.011 -3.98845 3.77113 0
M  V30 6049 H 552.272 -3.92467 2.03525 0
M  V30 6050 N 551.331 -1.39911 -0.725443 0
M  V30 6051 C 552.579 -1.37382 -1.48224 0
M  V30 6052 C 552.9 0.0264107 -1.94982 0
M  V30 6053 O 552.17 0.979408 -1.6966 0
M  V30 6054 H 550.75 -0.505596 -0.549892 0
M  V30 6055 H 553.412 -1.7487 -0.860608 0
M  V30 6056 H 552.508 -2.04254 -2.3598 0
M  V30 6057 N 552.809 0.956637 -1.25245 0
M  V30 6058 C 554.039 1.7332 -1.12445 0
M  V30 6059 C 554.447 1.86392 0.324732 0
M  V30 6060 O 553.79 1.35967 1.23526 0
M  V30 6061 C 553.852 3.16603 -1.70303 0
M  V30 6062 C 553.516 3.26966 -3.19284 0
M  V30 6063 C 554.513 3.11434 -4.16299 0
M  V30 6064 C 552.198 3.50851 -3.59456 0
M  V30 6065 C 554.192 3.1963 -5.51467 0
M  V30 6066 C 551.879 3.58684 -4.94761 0
M  V30 6067 C 552.877 3.43087 -5.90576 0
M  V30 6068 O 552.565 3.50598 -7.2342 0
M  V30 6069 H 552.297 0.549981 -0.393061 0
M  V30 6070 H 554.851 1.20892 -1.66055 0
M  V30 6071 H 553.081 3.70385 -1.11138 0
M  V30 6072 H 554.77 3.76109 -1.52632 0
M  V30 6073 H 555.536 2.92853 -3.86604 0
M  V30 6074 H 551.415 3.62053 -2.85375 0
M  V30 6075 H 554.959 3.07373 -6.26233 0
M  V30 6076 H 550.856 3.76782 -5.24124 0
M  V30 6077 H 551.624 3.67242 -7.31489 0
M  V30 6078 N 554.287 1.06798 1.15896 0
M  V30 6079 C 555.535 0.786211 1.8618 0
M  V30 6080 C 555.856 -0.689547 1.82401 0
M  V30 6081 O 555.126 -1.49913 1.26107 0
M  V30 6082 H 553.706 0.287843 0.689315 0
M  V30 6083 H 556.368 1.35055 1.40521 0
M  V30 6084 H 555.464 1.1157 2.91477 0
M  V30 6085 N 555.766 -1.3263 0.851289 0
M  V30 6086 C 557.043 -1.91982 0.374448 0
M  V30 6087 C 557.423 -1.77568 -1.14161 0
M  V30 6088 O 556.771 -1.1717 -1.96172 0
M  V30 6089 C 556.981 -3.38862 0.835088 0
M  V30 6090 C 558.329 -4.15999 0.850309 0
M  V30 6091 O 559.353 -3.47566 0.779505 0
M  V30 6092 O 558.212 -5.38189 0.949481 0
M  V30 6093 H 555.306 -0.819846 0.10854 0
M  V30 6094 H 557.852 -1.41422 0.937966 0
M  V30 6095 H 556.624 -3.43281 1.87814 0
M  V30 6096 H 556.247 -3.96821 0.248833 0
M  V30 6097 N 557.244 -0.608902 -1.45362 0
M  V30 6098 C 558.177 0.158059 -2.27652 0
M  V30 6099 C 559.155 0.872397 -1.37215 0
M  V30 6100 O 560.339 0.881002 -1.66645 0
M  V30 6101 C 557.466 1.22896 -3.15617 0
M  V30 6102 C 556.512 0.617607 -4.22005 0
M  V30 6103 S 557.345 -0.575518 -5.32398 0
M  V30 6104 C 558.501 0.495938 -6.23932 0
M  V30 6105 H 558.734 -0.540095 -2.92353 0
M  V30 6106 H 556.267 -0.396456 -1.49223 0
M  V30 6107 H 558.225 1.84195 -3.66855 0
M  V30 6108 H 556.886 1.89919 -2.50179 0
M  V30 6109 H 556.079 1.42341 -4.83482 0
M  V30 6110 H 555.681 0.0797273 -3.73915 0
M  V30 6111 H 557.973 1.37465 -6.63408 0
M  V30 6112 H 558.916 -0.0827108 -7.08052 0
M  V30 6113 H 559.324 0.811856 -5.58631 0
M  V30 6114 N 558.722 1.53707 -0.348139 0
M  V30 6115 C 559.952 2.05108 0.247864 0
M  V30 6116 C 560.36 1.22252 1.44399 0
M  V30 6117 O 559.703 0.251853 1.81965 0
M  V30 6118 C 559.765 3.52171 0.722187 0
M  V30 6119 C 559.429 4.5562 -0.354902 0
M  V30 6120 C 560.426 5.05883 -1.19911 0
M  V30 6121 C 558.111 4.99703 -0.510145 0
M  V30 6122 C 560.105 5.98814 -2.18406 0
M  V30 6123 C 557.792 5.92443 -1.49848 0
M  V30 6124 C 558.79 6.41887 -2.33389 0
M  V30 6125 O 558.478 7.32802 -3.3054 0
M  V30 6126 H 558.21 0.674086 0.0508296 0
M  V30 6127 H 560.764 1.99229 -0.49968 0
M  V30 6128 H 558.994 3.55529 1.52105 0
M  V30 6129 H 560.683 3.8652 1.23925 0
M  V30 6130 H 561.449 4.72586 -1.09028 0
M  V30 6131 H 557.328 4.60816 0.130274 0
M  V30 6132 H 560.872 6.3733 -2.83649 0
M  V30 6133 H 556.769 6.25155 -1.60786 0
M  V30 6134 H 557.537 7.50749 -3.26064 0
M  V30 6135 N 560.2 0.0768682 1.57412 0
M  V30 6136 C 561.611 -0.455037 1.8107 0
M  V30 6137 C 561.962 -1.69323 0.991162 0
M  V30 6138 O 561.087 -2.15328 0.215156 0
M  V30 6139 C 561.682 -0.832316 3.28417 0
M  V30 6140 C 560.241 -1.30906 3.52903 0
M  V30 6141 C 559.388 -0.296714 2.75708 0
M  V30 6142 H 562.339 0.302514 1.5579 0
M  V30 6143 H 562.36 -1.69333 3.40744 0
M  V30 6144 H 561.872 0.0690532 3.88039 0
M  V30 6145 H 559.973 -2.22875 2.98592 0
M  V30 6146 H 560.086 -1.28348 4.61588 0
M  V30 6147 H 558.45 -0.775059 2.42621 0
M  V30 6148 H 559.233 0.597015 3.38069 0
M  V30 6149 N 561.678 -1.56367 -0.196722 0
M  V30 6150 C 562.924 -1.80796 -0.918725 0
M  V30 6151 C 563.257 -0.650645 -1.82976 0
M  V30 6152 O 562.532 0.348889 -1.91345 0
M  V30 6153 C 562.815 -3.15472 -1.73636 0
M  V30 6154 C 562.668 -4.41693 -0.85015 0
M  V30 6155 C 563.987 -3.46824 -2.70927 0
M  V30 6156 H 561.106 -0.657702 -0.332561 0
M  V30 6157 H 563.748 -1.89086 -0.186186 0
M  V30 6158 H 561.898 -3.08536 -2.36088 0
M  V30 6159 H 563.57 -4.60673 -0.240459 0
M  V30 6160 H 561.813 -4.33517 -0.156785 0
M  V30 6161 H 562.484 -5.32419 -1.45719 0
M  V30 6162 H 564.96 -3.54049 -2.18607 0
M  V30 6163 H 563.836 -4.4218 -3.25219 0
M  V30 6164 H 564.097 -2.70236 -3.49893 0
M  V30 6165 N 563.156 0.464375 -1.50603 0
M  V30 6166 C 564.384 1.23907 -1.65695 0
M  V30 6167 C 564.799 1.85658 -0.343027 0
M  V30 6168 O 564.156 1.69529 0.675739 0
M  V30 6169 C 564.207 2.3429 -2.75301 0
M  V30 6170 O 563.928 1.7507 -4.01599 0
M  V30 6171 C 565.429 3.25051 -3.01424 0
M  V30 6172 H 562.649 0.374485 -0.556778 0
M  V30 6173 H 565.193 0.55353 -1.96866 0
M  V30 6174 H 563.348 2.98607 -2.46804 0
M  V30 6175 H 563.762 2.47812 -4.62266 0
M  V30 6176 H 565.236 3.98699 -3.81763 0
M  V30 6177 H 565.713 3.84227 -2.12758 0
M  V30 6178 H 566.319 2.66463 -3.31477 0
M  V30 6179 N 564.634 1.40294 0.718013 0
M  V30 6180 C 565.883 1.37746 1.4734 0
M  V30 6181 C 566.196 -0.0180754 1.95592 0
M  V30 6182 O 567.402 -0.166166 2.70991 0
M  V30 6183 C 565.858 2.4208 2.66318 0
M  V30 6184 C 565.466 3.87432 2.24945 0
M  V30 6185 C 567.21 2.48635 3.44065 0
M  V30 6186 C 565.117 4.83368 3.40748 0
M  V30 6187 H 564.047 0.512165 0.553356 0
M  V30 6188 H 566.698 1.66019 0.781661 0
M  V30 6189 H 565.08 2.06903 3.3765 0
M  V30 6190 H 566.254 4.3174 1.6105 0
M  V30 6191 H 564.569 3.8433 1.60249 0
M  V30 6192 H 567.166 3.17499 4.30231 0
M  V30 6193 H 567.509 1.51611 3.87711 0
M  V30 6194 H 568.042 2.82791 2.79775 0
M  V30 6195 H 564.781 5.81716 3.02136 0
M  V30 6196 H 564.301 4.43726 4.03568 0
M  V30 6197 H 565.98 5.03074 4.06848 0
M  V30 6198 N 566.112 -0.949982 1.2575 0
M  V30 6199 C 567.36 -1.6918 1.10555 0
M  V30 6200 C 567.681 -1.91773 -0.353298 0
M  V30 6201 O 566.951 -1.50814 -1.25027 0
M  V30 6202 H 565.531 -0.626952 0.406129 0
M  V30 6203 H 568.193 -1.1419 1.57945 0
M  V30 6204 H 567.289 -2.66915 1.61749 0
M  V30 6205 N 567.59 -1.07411 -1.15328 0
M  V30 6206 C 568.838 -0.796073 -1.85761 0
M  V30 6207 C 569.159 0.679864 -1.82764 0
M  V30 6208 O 568.429 1.49242 -1.269 0
M  V30 6209 H 567.009 -0.291495 -0.687779 0
M  V30 6210 H 569.671 -1.35799 -1.39802 0
M  V30 6211 H 568.767 -1.13114 -2.90881 0
M  V30 6212 N 569.068 1.32177 -0.85831 0
M  V30 6213 C 570.015 2.28794 -0.303607 0
M  V30 6214 C 570.985 1.55213 0.591453 0
M  V30 6215 O 572.17 1.83418 0.525585 0
M  V30 6216 C 569.31 3.41475 0.49889 0
M  V30 6217 C 568.423 4.2993 -0.422373 0
M  V30 6218 C 567.558 5.29743 0.393111 0
M  V30 6219 C 566.597 6.09842 -0.525317 0
M  V30 6220 N 565.734 7.01643 0.253208 0
M  V30 6221 H 570.574 2.75631 -1.13276 0
M  V30 6222 H 568.111 1.35606 -0.570026 0
M  V30 6223 H 570.069 4.05531 0.979826 0
M  V30 6224 H 568.699 2.95779 1.29284 0
M  V30 6225 H 567.751 3.66422 -1.02171 0
M  V30 6226 H 569.063 4.85899 -1.12709 0
M  V30 6227 H 568.217 5.9942 0.937056 0
M  V30 6228 H 566.956 4.744 1.13117 0
M  V30 6229 H 565.961 5.39066 -1.08112 0
M  V30 6230 H 567.186 6.6727 -1.26205 0
M  V30 6231 H 565.132 6.48725 0.974295 0
M  V30 6232 H 565.049 7.54981 -0.392398 0
M  V30 6233 H 566.317 7.756 0.778761 0
M  V30 6234 N 570.547 0.616602 1.45037 0
M  V30 6235 C 571.796 0.112861 2.01384 0
M  V30 6236 C 572.109 -1.26758 1.48969 0
M  V30 6237 O 573.315 -1.86454 1.9735 0
M  V30 6238 C 571.771 0.151057 3.59583 0
M  V30 6239 C 571.379 1.53191 4.20995 0
M  V30 6240 C 573.123 -0.296974 4.2346 0
M  V30 6241 C 571.03 1.526 5.71373 0
M  V30 6242 H 569.96 0.0384254 0.75302 0
M  V30 6243 H 572.611 0.773262 1.66412 0
M  V30 6244 H 570.993 -0.57617 3.91786 0
M  V30 6245 H 572.167 2.28156 4.00352 0
M  V30 6246 H 570.482 1.92279 3.69348 0
M  V30 6247 H 573.079 -0.320712 5.33737 0
M  V30 6248 H 573.422 -1.32145 3.9477 0
M  V30 6249 H 573.955 0.377279 3.96007 0
M  V30 6250 H 570.694 2.52837 6.04776 0
M  V30 6251 H 570.214 0.819064 5.94181 0
M  V30 6252 H 571.893 1.25357 6.3474 0
M  V30 6253 N 572.025 -1.5352 0.356285 0
M  V30 6254 C 573.271 -2.01414 -0.236653 0
M  V30 6255 C 573.604 -1.24339 -1.49176 0
M  V30 6256 O 572.879 -0.334496 -1.91602 0
M  V30 6257 C 573.162 -3.56059 -0.537982 0
M  V30 6258 C 573.015 -4.43835 0.730112 0
M  V30 6259 C 574.334 -4.19127 -1.34239 0
M  V30 6260 H 571.453 -0.732135 -0.0845386 0
M  V30 6261 H 574.095 -1.83854 0.479341 0
M  V30 6262 H 572.245 -3.71153 -1.14795 0
M  V30 6263 H 573.917 -4.40555 1.36782 0
M  V30 6264 H 572.16 -4.1218 1.3524 0
M  V30 6265 H 572.831 -5.49958 0.474358 0
M  V30 6266 H 575.307 -4.07809 -0.826498 0
M  V30 6267 H 574.183 -5.27378 -1.52198 0
M  V30 6268 H 574.444 -3.74581 -2.34822 0
M  V30 6269 N 573.503 -0.0852151 -1.57369 0
M  V30 6270 C 574.751 0.579658 -1.93609 0
M  V30 6271 C 575.072 1.69332 -0.967043 0
M  V30 6272 O 574.342 1.95892 -0.0174215 0
M  V30 6273 H 572.922 0.217113 -0.714752 0
M  V30 6274 H 575.584 -0.146226 -1.94351 0
M  V30 6275 H 574.68 0.996276 -2.95771 0
M  V30 6276 N 574.981 1.5647 0.188427 0
M  V30 6277 C 576.206 1.85486 0.927891 0
M  V30 6278 C 576.631 0.669575 1.75779 0
M  V30 6279 O 575.989 -0.381573 1.77239 0
M  V30 6280 C 576.037 3.12784 1.7944 0
M  V30 6281 O 575.141 2.93805 2.894 0
M  V30 6282 H 574.482 0.610585 0.260925 0
M  V30 6283 H 577.012 2.037 0.191729 0
M  V30 6284 H 577.022 3.43749 2.19774 0
M  V30 6285 H 575.697 3.98671 1.18468 0
M  V30 6286 H 574.274 2.74153 2.52774 0
M  V30 6287 N 576.459 -0.456382 1.50847 0
M  V30 6288 C 577.389 -1.56025 1.73719 0
M  V30 6289 C 578.37 -1.5967 0.586473 0
M  V30 6290 O 579.555 -1.75702 0.827185 0
M  V30 6291 C 576.685 -2.94251 1.84483 0
M  V30 6292 C 575.639 -3.05471 2.99786 0
M  V30 6293 C 574.965 -4.45489 2.95709 0
M  V30 6294 C 576.265 -2.81318 4.40065 0
M  V30 6295 H 577.959 -1.37138 2.66146 0
M  V30 6296 H 575.505 -0.658299 1.28072 0
M  V30 6297 H 577.458 -3.71417 1.99067 0
M  V30 6298 H 576.182 -3.14328 0.886891 0
M  V30 6299 H 574.841 -2.30741 2.84876 0
M  V30 6300 H 574.489 -4.62505 1.97732 0
M  V30 6301 H 574.189 -4.53929 3.73125 0
M  V30 6302 H 575.713 -5.24655 3.12362 0
M  V30 6303 H 577.127 -3.48226 4.55425 0
M  V30 6304 H 575.524 -3.01188 5.19043 0
M  V30 6305 H 576.594 -1.7706 4.51418 0
M  V30 6306 N 577.937 -1.40673 -0.710563 0
M  V30 6307 C 579.177 -1.40677 -1.48288 0
M  V30 6308 C 579.541 -0.0097193 -1.91998 0
M  V30 6309 O 580.742 0.115381 -2.68552 0
M  V30 6310 C 579.013 -2.37289 -2.67262 0
M  V30 6311 S 580.572 -2.55694 -3.56603 0
M  V30 6312 H 577.39 -0.498545 -0.506926 0
M  V30 6313 H 579.992 -1.76984 -0.830472 0
M  V30 6314 H 578.696 -3.37617 -2.3333 0
M  V30 6315 H 578.227 -2.02282 -3.3741 0
M  V30 6316 H 580.242 -1.81311 -4.61888 0
M  V30 6317 N 579.415 0.9433 -1.26252 0
M  V30 6318 C 580.378 2.02326 -1.07689 0
M  V30 6319 C 581.378 1.60779 -0.0259174 0
M  V30 6320 O 582.568 1.72108 -0.269134 0
M  V30 6321 C 579.7 3.34886 -0.63752 0
M  V30 6322 H 580.893 2.20225 -2.0357 0
M  V30 6323 H 578.446 1.12197 -1.08819 0
M  V30 6324 H 579.181 3.22684 0.323377 0
M  V30 6325 H 578.966 3.66393 -1.39637 0
M  V30 6326 H 580.456 4.14231 -0.529418 0
M  V30 6327 N 580.893 1.08022 1.14757 0
M  V30 6328 C 582.142 0.802468 1.8505 0
M  V30 6329 C 582.455 -0.674061 1.83619 0
M  V30 6330 O 583.661 -1.06683 2.49662 0
M  V30 6331 C 582.117 1.38551 3.32162 0
M  V30 6332 C 581.725 2.89354 3.42021 0
M  V30 6333 C 583.469 1.18608 4.07594 0
M  V30 6334 C 581.376 3.40815 4.83321 0
M  V30 6335 H 580.306 0.296518 0.693248 0
M  V30 6336 H 582.957 1.30114 1.29393 0
M  V30 6337 H 581.339 0.814556 3.87532 0
M  V30 6338 H 582.513 3.52552 2.96722 0
M  V30 6339 H 580.828 3.08165 2.80041 0
M  V30 6340 H 583.425 1.54525 5.11885 0
M  V30 6341 H 583.768 0.125599 4.1611 0
M  V30 6342 H 584.301 1.72375 3.58513 0
M  V30 6343 H 581.04 4.46418 4.79991 0
M  V30 6344 H 580.56 2.82374 5.29174 0
M  V30 6345 H 582.239 3.37171 5.522 0
M  V30 6346 N 582.371 -1.3172 0.865308 0
M  V30 6347 C 583.334 -2.26918 0.322627 0
M  V30 6348 C 584.334 -1.52031 -0.523751 0
M  V30 6349 O 585.524 -1.70973 -0.333727 0
M  V30 6350 C 582.656 -3.36558 -0.542338 0
M  V30 6351 H 583.849 -2.76432 1.16298 0
M  V30 6352 H 581.402 -1.42573 0.640512 0
M  V30 6353 H 582.137 -2.92329 -1.40407 0
M  V30 6354 H 581.922 -3.92048 0.0636395 0
M  V30 6355 H 583.412 -4.07465 -0.91446 0
M  V30 6356 N 583.85 -0.624285 -1.44708 0
M  V30 6357 C 585.098 -0.125802 -2.01708 0
M  V30 6358 C 585.418 1.2543 -1.49306 0
M  V30 6359 O 584.689 1.83198 -0.693924 0
M  V30 6360 H 583.269 -0.0435161 -0.745731 0
M  V30 6361 H 585.931 -0.809446 -1.77296 0
M  V30 6362 H 585.027 -0.0882734 -3.11975 0
M  V30 6363 N 585.328 1.53329 -0.364422 0
M  V30 6364 C 586.574 2.01537 0.225969 0
M  V30 6365 C 586.907 1.25128 1.48515 0
M  V30 6366 O 586.182 0.344653 1.91422 0
M  V30 6367 C 586.465 3.56339 0.519092 0
M  V30 6368 C 586.318 4.43441 -0.753639 0
M  V30 6369 C 587.637 4.19833 1.32015 0
M  V30 6370 H 584.756 0.732573 0.0806548 0
M  V30 6371 H 587.398 1.83597 -0.489084 0
M  V30 6372 H 585.548 3.71756 1.12825 0
M  V30 6373 H 587.22 4.39823 -1.39116 0
M  V30 6374 H 585.463 4.11457 -1.37424 0
M  V30 6375 H 586.134 5.49699 -0.503517 0
M  V30 6376 H 588.61 4.08242 0.804859 0
M  V30 6377 H 587.486 5.28177 1.49399 0
M  V30 6378 H 587.747 3.75821 2.32832 0
M  V30 6379 N 586.806 0.0935595 1.57322 0
M  V30 6380 C 587.736 -0.863062 2.16964 0
M  V30 6381 C 588.717 -1.29528 1.10256 0
M  V30 6382 O 589.902 -1.36245 1.38387 0
M  V30 6383 C 587.032 -2.12276 2.74875 0
M  V30 6384 C 585.986 -1.82921 3.86942 0
M  V30 6385 C 585.312 -3.15707 4.31548 0
M  V30 6386 C 586.612 -1.11737 5.10208 0
M  V30 6387 H 588.306 -0.366145 2.97153 0
M  V30 6388 H 585.852 -0.174673 1.42937 0
M  V30 6389 H 587.805 -2.79634 3.1525 0
M  V30 6390 H 586.529 -2.64248 1.91938 0
M  V30 6391 H 585.188 -1.17961 3.47103 0
M  V30 6392 H 584.836 -3.65563 3.45504 0
M  V30 6393 H 584.536 -2.96849 5.07104 0
M  V30 6394 H 586.06 -3.84226 4.74555 0
M  V30 6395 H 587.474 -1.69203 5.47762 0
M  V30 6396 H 585.871 -1.03064 5.91183 0
M  V30 6397 H 586.941 -0.0998818 4.84797 0
M  V30 6398 N 588.284 -1.56567 -0.180126 0
M  V30 6399 C 589.512 -1.85618 -0.913972 0
M  V30 6400 C 589.927 -0.677892 -1.7621 0
M  V30 6401 O 589.284 0.353171 -1.7905 0
M  V30 6402 C 589.335 -3.13619 -1.79793 0
M  V30 6403 O 589.056 -4.26906 -0.98402 0
M  V30 6404 C 590.557 -3.55954 -2.64219 0
M  V30 6405 H 587.777 -0.616043 -0.265954 0
M  V30 6406 H 590.321 -2.03681 -0.182872 0
M  V30 6407 H 588.476 -2.97409 -2.48247 0
M  V30 6408 H 588.89 -4.9989 -1.58776 0
M  V30 6409 H 590.364 -4.48444 -3.21873 0
M  V30 6410 H 590.841 -2.79653 -3.38661 0
M  V30 6411 H 591.447 -3.74746 -2.01111 0
M  V30 6412 N 589.762 0.448376 -1.51087 0
M  V30 6413 C 591.011 1.19561 -1.62444 0
M  V30 6414 C 591.324 1.92602 -0.341151 0
M  V30 6415 O 592.53 2.69439 -0.333936 0
M  V30 6416 C 590.986 2.17373 -2.8684 0
M  V30 6417 C 590.594 1.5003 -4.22131 0
M  V30 6418 C 592.338 2.92597 -3.0755 0
M  V30 6419 C 590.245 2.46262 -5.37689 0
M  V30 6420 H 589.175 0.449975 -0.605011 0
M  V30 6421 H 591.826 0.463735 -1.77544 0
M  V30 6422 H 590.208 2.93948 -2.65349 0
M  V30 6423 H 591.382 0.790886 -4.53962 0
M  V30 6424 H 589.697 0.870011 -4.0721 0
M  V30 6425 H 592.294 3.64663 -3.91056 0
M  V30 6426 H 592.637 3.53306 -2.20183 0
M  V30 6427 H 593.17 2.23131 -3.29329 0
M  V30 6428 H 589.909 1.90258 -6.27281 0
M  V30 6429 H 589.429 3.15289 -5.10248 0
M  V30 6430 H 591.108 3.07623 -5.6919 0
M  V30 6431 N 591.24 1.41047 0.703093 0
M  V30 6432 C 592.203 1.42036 1.79884 0
M  V30 6433 C 593.203 0.312153 1.57741 0
M  V30 6434 O 594.393 0.571672 1.64553 0
M  V30 6435 C 591.525 1.22437 3.18154 0
M  V30 6436 H 592.718 2.39572 1.80403 0
M  V30 6437 H 590.271 1.27079 0.909977 0
M  V30 6438 H 591.006 0.257112 3.23279 0
M  V30 6439 H 590.791 2.02723 3.35627 0
M  V30 6440 H 592.281 1.25946 3.98155 0
M  V30 6441 N 592.718 -0.936591 1.26751 0
M  V30 6442 C 593.648 -2.05315 1.11212 0
M  V30 6443 C 594.629 -1.70092 0.0160262 0
M  V30 6444 O 595.814 -1.93279 0.188894 0
M  V30 6445 C 592.944 -3.39123 0.749171 0
M  V30 6446 C 591.898 -3.88425 1.79751 0
M  V30 6447 C 591.224 -5.18936 1.28876 0
M  V30 6448 C 592.524 -4.12798 3.19992 0
M  V30 6449 H 594.218 -2.18573 2.04613 0
M  V30 6450 H 591.764 -1.05027 0.985159 0
M  V30 6451 H 593.717 -4.16704 0.627323 0
M  V30 6452 H 592.441 -3.25855 -0.220543 0
M  V30 6453 H 591.1 -3.13028 1.90811 0
M  V30 6454 H 590.748 -5.02051 0.308757 0
M  V30 6455 H 590.448 -5.52892 1.98958 0
M  V30 6456 H 591.972 -5.99096 1.17967 0
M  V30 6457 H 593.386 -4.80977 3.11983 0
M  V30 6458 H 591.783 -4.58044 3.87705 0
M  V30 6459 H 592.853 -3.18412 3.65707 0
M  V30 6460 N 594.196 -1.08629 -1.14182 0
M  V30 6461 C 595.607 -0.838003 -1.66836 0
M  V30 6462 C 595.958 0.634885 -1.85644 0
M  V30 6463 O 595.083 1.49008 -1.56926 0
M  V30 6464 C 595.678 -1.51465 -3.03058 0
M  V30 6465 C 594.237 -1.31355 -3.52736 0
M  V30 6466 C 593.384 -1.57599 -2.28162 0
M  V30 6467 H 596.335 -1.24656 -0.982165 0
M  V30 6468 H 596.356 -0.943134 -3.68626 0
M  V30 6469 H 595.868 -2.58661 -2.89337 0
M  V30 6470 H 593.969 -0.262384 -3.71675 0
M  V30 6471 H 594.082 -2.04275 -4.33369 0
M  V30 6472 H 592.446 -0.997659 -2.34348 0
M  V30 6473 H 593.229 -2.66006 -2.17015 0
M  V30 6474 N 595.674 1.31259 -0.872281 0
M  V30 6475 C 596.92 1.96913 -0.485083 0
M  V30 6476 C 597.253 1.68774 0.960667 0
M  V30 6477 O 596.528 0.985495 1.67685 0
M  V30 6478 C 596.811 3.52299 -0.745502 0
M  V30 6479 C 596.664 3.90002 -2.24095 0
M  V30 6480 C 597.983 4.39582 -0.213516 0
M  V30 6481 H 595.102 0.715252 -0.177716 0
M  V30 6482 H 597.744 1.55347 -1.09395 0
M  V30 6483 H 595.894 3.87835 -0.227276 0
M  V30 6484 H 597.566 3.64555 -2.82661 0
M  V30 6485 H 595.809 3.38526 -2.71261 0
M  V30 6486 H 596.48 4.98352 -2.37381 0
M  V30 6487 H 598.956 4.10882 -0.656902 0
M  V30 6488 H 597.832 5.47251 -0.42516 0
M  V30 6489 H 598.093 4.33158 0.884666 0
M  V30 6490 N 597.152 0.631951 1.44375 0
M  V30 6491 C 598.563 0.219036 1.85411 0
M  V30 6492 C 598.914 -1.22974 1.52879 0
M  V30 6493 O 598.039 -1.93579 0.967266 0
M  V30 6494 C 598.634 0.39075 3.36539 0
M  V30 6495 C 597.193 0.0323351 3.76386 0
M  V30 6496 C 596.34 0.703744 2.68221 0
M  V30 6497 H 599.291 0.837056 1.3483 0
M  V30 6498 H 599.312 -0.370056 3.78696 0
M  V30 6499 H 598.824 1.44527 3.60185 0
M  V30 6500 H 596.925 -1.02042 3.58355 0
M  V30 6501 H 597.038 0.442969 4.77048 0
M  V30 6502 H 595.402 0.138974 2.54321 0
M  V30 6503 H 596.185 1.76088 2.947 0
M  V30 6504 N 598.631 -1.53133 0.372548 0
M  V30 6505 C 599.877 -2.01654 -0.215277 0
M  V30 6506 C 600.21 -1.25914 -1.47849 0
M  V30 6507 O 599.485 -0.3548 -1.91237 0
M  V30 6508 C 599.768 -3.56609 -0.500187 0
M  V30 6509 C 599.621 -4.43036 0.777145 0
M  V30 6510 C 600.94 -4.20528 -1.29786 0
M  V30 6511 H 598.059 -0.732991 -0.0767686 0
M  V30 6512 H 600.701 -1.83335 0.498814 0
M  V30 6513 H 598.851 -3.7235 -1.10852 0
M  V30 6514 H 600.523 -4.39079 1.41447 0
M  V30 6515 H 598.766 -4.10723 1.39604 0
M  V30 6516 H 599.437 -5.49424 0.532662 0
M  V30 6517 H 601.913 -4.08663 -0.783198 0
M  V30 6518 H 600.789 -5.28962 -1.46596 0
M  V30 6519 H 601.05 -3.77051 -2.30836 0
M  V30 6520 N 600.109 -0.101901 -1.5727 0
M  V30 6521 C 601.358 0.559922 -1.93772 0
M  V30 6522 C 601.671 1.68913 -0.98629 0
M  V30 6523 O 602.877 2.41256 -1.24529 0
M  V30 6524 C 601.333 1.04739 -3.44322 0
M  V30 6525 C 600.941 -0.05243 -4.47969 0
M  V30 6526 C 602.685 1.68157 -3.89774 0
M  V30 6527 C 600.592 0.450781 -5.8968 0
M  V30 6528 H 599.522 0.212931 -0.723309 0
M  V30 6529 H 602.173 -0.179001 -1.82625 0
M  V30 6530 H 600.555 1.84021 -3.50645 0
M  V30 6531 H 601.729 -0.828157 -4.53297 0
M  V30 6532 H 600.044 -0.592202 -4.12167 0
M  V30 6533 H 602.641 2.0689 -4.93052 0
M  V30 6534 H 602.984 2.55338 -3.28798 0
M  V30 6535 H 603.517 0.954453 -3.8618 0
M  V30 6536 H 600.256 -0.38458 -6.54371 0
M  V30 6537 H 599.776 1.19336 -5.87809 0
M  V30 6538 H 601.455 0.917555 -6.40461 0
M  V30 6539 N 601.587 1.56661 0.17182 0
M  V30 6540 C 602.833 1.82235 0.889845 0
M  V30 6541 C 603.166 0.679673 1.81918 0
M  V30 6542 O 602.441 -0.318404 1.91876 0
M  V30 6543 C 602.724 3.18195 1.68595 0
M  V30 6544 C 602.577 4.42989 0.779773 0
M  V30 6545 C 603.896 3.5109 2.65375 0
M  V30 6546 H 601.015 0.66291 0.322056 0
M  V30 6547 H 603.657 1.89358 0.15608 0
M  V30 6548 H 601.807 3.12253 2.3115 0
M  V30 6549 H 603.479 4.60997 0.16714 0
M  V30 6550 H 601.722 4.33711 0.0877964 0
M  V30 6551 H 602.393 5.3467 1.3723 0
M  V30 6552 H 604.869 3.57482 2.12946 0
M  V30 6553 H 603.745 4.47298 3.18144 0
M  V30 6554 H 604.006 2.75768 3.45549 0
M  V30 6555 N 603.065 -0.440357 1.51323 0
M  V30 6556 C 604.29 -1.21716 1.67928 0
M  V30 6557 C 604.715 -1.84328 0.374826 0
M  V30 6558 O 604.073 -1.68675 -0.664706 0
M  V30 6559 C 604.121 -2.27914 2.79442 0
M  V30 6560 O 603.225 -3.33325 2.42834 0
M  V30 6561 H 602.566 -0.35674 0.560029 0
M  V30 6562 H 605.096 -0.520417 1.97871 0
M  V30 6563 H 605.106 -2.72746 3.03436 0
M  V30 6564 H 603.781 -1.8172 3.741 0
M  V30 6565 H 602.358 -2.9399 2.294 0
M  V30 6566 N 604.543 -1.41418 -0.695603 0
M  V30 6567 C 605.491 -1.43467 -1.83084 0
M  V30 6568 C 606.485 -0.312719 -1.66489 0
M  V30 6569 O 607.691 -0.484744 -1.7335 0
M  V30 6570 H 604.066 -0.448891 -0.603325 0
M  V30 6571 H 606.037 -2.39144 -1.78473 0
M  V30 6572 C 604.786 -1.3337 -3.21104 0
M  V30 6573 H 604.109 -2.18989 -3.3449 0
M  V30 6574 H 605.549 -1.38865 -4.00615 0
M  V30 6575 C 604.008 -0.0460484 -3.36869 0
M  V30 6576 O 604.538 0.909258 -3.91274 0
M  V30 6577 N 602.744 0.0300222 -2.90584 0
M  V30 6578 H 602.291 -0.748129 -2.46497 0
M  V30 6579 H 602.249 0.890991 -3.01511 0
M  V30 6580 N 606.021 0.929856 -1.27246 0
M  V30 6581 C 607.268 1.67731 -1.13457 0
M  V30 6582 C 607.596 1.9185 0.319998 0
M  V30 6583 O 606.851 1.50524 1.25064 0
M  V30 6584 C 607.15 3.05116 -1.86115 0
M  V30 6585 C 606.816 3.00715 -3.35978 0
M  V30 6586 C 605.478 2.99222 -3.76855 0
M  V30 6587 C 607.83 2.92168 -4.3161 0
M  V30 6588 C 605.158 2.86962 -5.11732 0
M  V30 6589 C 607.51 2.81449 -5.66542 0
M  V30 6590 C 606.174 2.78305 -6.06715 0
M  V30 6591 H 605.444 0.613772 -0.415168 0
M  V30 6592 H 608.091 1.08456 -1.57827 0
M  V30 6593 H 606.396 3.68083 -1.34246 0
M  V30 6594 H 608.093 3.61822 -1.72876 0
M  V30 6595 H 604.683 3.02664 -3.03468 0
M  V30 6596 H 608.867 2.92421 -4.01003 0
M  V30 6597 H 604.123 2.82913 -5.42006 0
M  V30 6598 H 608.297 2.738 -6.40317 0
M  V30 6599 H 605.924 2.68561 -7.11181 0
M  V30 6600 N 607.499 1.09233 1.13605 0
M  V30 6601 C 608.447 0.724572 2.21027 0
M  V30 6602 C 609.441 -0.273595 1.67176 0
M  V30 6603 O 610.647 -0.135266 1.79491 0
M  V30 6604 H 607.022 0.216319 0.720215 0
M  V30 6605 H 608.993 1.63975 2.49309 0
M  V30 6606 C 607.742 0.159126 3.47336 0
M  V30 6607 H 607.065 0.918387 3.89109 0
M  V30 6608 H 608.505 -0.0602851 4.23957 0
M  V30 6609 C 606.964 -1.10514 3.18258 0
M  V30 6610 O 607.494 -2.18869 3.36837 0
M  V30 6611 N 605.7 -1.01886 2.72154 0
M  V30 6612 H 605.247 -0.137027 2.57235 0
M  V30 6613 H 605.205 -1.8655 2.53074 0
M  V30 6614 N 608.977 -1.30795 0.87923 0
M  V30 6615 C 610.207 -2.00237 0.50881 0
M  V30 6616 C 610.615 -1.66115 -0.905682 0
M  V30 6617 O 609.958 -0.89138 -1.60624 0
M  V30 6618 C 610.02 -3.54508 0.597003 0
M  V30 6619 C 609.684 -4.12131 1.97477 0
M  V30 6620 C 610.681 -4.28552 2.94346 0
M  V30 6621 C 608.366 -4.47644 2.2786 0
M  V30 6622 C 610.36 -4.79689 4.19735 0
M  V30 6623 C 608.047 -4.98481 3.53496 0
M  V30 6624 C 609.045 -5.14456 4.49248 0
M  V30 6625 O 608.733 -5.64199 5.72656 0
M  V30 6626 H 608.465 -0.647026 0.195788 0
M  V30 6627 H 611.019 -1.67785 1.1848 0
M  V30 6628 H 609.249 -3.86461 -0.135945 0
M  V30 6629 H 610.938 -4.05198 0.238684 0
M  V30 6630 H 611.704 -4.01424 2.72183 0
M  V30 6631 H 607.583 -4.34481 1.54102 0
M  V30 6632 H 611.127 -4.92073 4.9448 0
M  V30 6633 H 607.024 -5.25044 3.75498 0
M  V30 6634 H 607.792 -5.82551 5.74957 0
M  V30 6635 N 610.455 -0.639598 -1.44038 0
M  V30 6636 C 611.702 -0.14748 -2.01962 0
M  V30 6637 C 612.03 1.23372 -1.50365 0
M  V30 6638 O 611.285 1.8345 -0.681501 0
M  V30 6639 C 611.584 -0.0925348 -3.5728 0
M  V30 6640 C 611.25 -1.41365 -4.28167 0
M  V30 6641 C 609.912 -1.77545 -4.47248 0
M  V30 6642 C 612.264 -2.2853 -4.68427 0
M  V30 6643 C 609.592 -3.00583 -5.03852 0
M  V30 6644 C 611.944 -3.50846 -5.26393 0
M  V30 6645 C 610.608 -3.8724 -5.43692 0
M  V30 6646 H 609.878 -0.0539666 -0.739032 0
M  V30 6647 H 612.525 -0.827599 -1.72694 0
M  V30 6648 H 610.83 0.670987 -3.86012 0
M  V30 6649 H 612.527 0.304891 -3.99839 0
M  V30 6650 H 609.117 -1.1221 -4.13651 0
M  V30 6651 H 613.301 -2.0187 -4.5339 0
M  V30 6652 H 608.557 -3.28846 -5.15432 0
M  V30 6653 H 612.731 -4.18616 -5.56537 0
M  V30 6654 H 610.358 -4.8266 -5.87319 0
M  V30 6655 N 611.933 1.52934 -0.380664 0
M  V30 6656 C 613.163 2.05587 0.204302 0
M  V30 6657 C 613.571 1.25288 1.41773 0
M  V30 6658 O 612.914 0.290394 1.8139 0
M  V30 6659 C 612.976 3.53624 0.647324 0
M  V30 6660 C 612.64 4.54765 -0.451465 0
M  V30 6661 C 613.637 5.03226 -1.30614 0
M  V30 6662 C 611.322 4.98508 -0.616025 0
M  V30 6663 C 613.316 5.94046 -2.31058 0
M  V30 6664 C 611.003 5.89131 -1.62381 0
M  V30 6665 C 612.001 6.36792 -2.46952 0
M  V30 6666 O 611.689 7.25626 -3.46009 0
M  V30 6667 H 611.421 0.675013 0.0365198 0
M  V30 6668 H 613.975 1.98125 -0.541827 0
M  V30 6669 H 612.205 3.58676 1.44529 0
M  V30 6670 H 613.894 3.89061 1.15698 0
M  V30 6671 H 614.66 4.70167 -1.19027 0
M  V30 6672 H 610.539 4.60989 0.0324987 0
M  V30 6673 H 614.083 6.3117 -2.97104 0
M  V30 6674 H 609.98 6.21603 -1.7401 0
M  V30 6675 H 610.748 7.43664 -3.41916 0
M  V30 6676 N 613.412 0.11024 1.57214 0
M  V30 6677 C 614.362 -0.854147 2.11396 0
M  V30 6678 C 615.346 -1.23394 1.03261 0
M  V30 6679 O 616.538 -1.20649 1.2951 0
M  V30 6680 C 613.667 -2.10752 2.70995 0
M  V30 6681 C 612.753 -1.75249 3.86198 0
M  V30 6682 N 613.144 -1.10377 4.9361 0
M  V30 6683 C 611.442 -2.04763 3.96217 0
M  V30 6684 C 612.143 -0.938199 5.74084 0
M  V30 6685 N 611.119 -1.46039 5.23616 0
M  V30 6686 H 614.921 -0.348897 2.91822 0
M  V30 6687 H 612.435 -0.0925071 1.62136 0
M  V30 6688 H 614.432 -2.80801 3.0815 0
M  V30 6689 H 613.092 -2.61829 1.9203 0
M  V30 6690 H 614.103 -0.768785 5.12162 0
M  V30 6691 H 610.78 -2.57948 3.28282 0
M  V30 6692 H 612.17 -0.429678 6.70525 0
M  V30 6693 N 614.89 -1.56749 -0.16351 0
M  V30 6694 C 616.306 -1.51043 -0.515567 0
M  V30 6695 C 616.506 -0.815855 -1.84245 0
M  V30 6696 O 615.562 -0.379477 -2.49632 0
M  V30 6697 C 616.875 -2.95791 -0.541114 0
M  V30 6698 C 618.423 -3.0664 -0.627776 0
M  V30 6699 C 618.898 -4.52861 -0.684141 0
M  V30 6700 N 620.389 -4.5714 -0.746818 0
M  V30 6701 C 621.124 -5.67634 -0.811137 0
M  V30 6702 N 620.62 -6.8774 -0.835811 0
M  V30 6703 N 622.413 -5.55624 -0.850756 0
M  V30 6704 H 614.564 -2.00307 0.70645 0
M  V30 6705 H 616.827 -0.912876 0.255659 0
M  V30 6706 H 616.533 -3.49797 0.365329 0
M  V30 6707 H 616.407 -3.50858 -1.38487 0
M  V30 6708 H 618.794 -2.52663 -1.52464 0
M  V30 6709 H 618.875 -2.54645 0.242805 0
M  V30 6710 H 618.519 -5.07472 0.2085 0
M  V30 6711 H 618.449 -5.02621 -1.57098 0
M  V30 6712 H 620.94 -3.70669 -0.735717 0
M  V30 6713 H 621.253 -7.67701 -0.886279 0
M  V30 6714 H 619.598 -6.90334 -0.803958 0
M  V30 6715 H 622.789 -4.60709 -0.828535 0
M  V30 6716 H 622.962 -6.41756 -0.897418 0
M  V30 6717 N 616.368 0.432326 -1.51554 0
M  V30 6718 C 617.278 1.55023 -1.76082 0
M  V30 6719 C 618.294 1.61593 -0.645265 0
M  V30 6720 O 619.47 1.78742 -0.928086 0
M  V30 6721 C 616.535 2.90964 -1.88523 0
M  V30 6722 C 615.596 2.9447 -3.12388 0
M  V30 6723 C 614.829 4.23926 -3.24225 0
M  V30 6724 O 615.052 5.16576 -2.4188 0
M  V30 6725 O 613.986 4.33818 -4.17235 0
M  V30 6726 H 617.812 1.37238 -2.70923 0
M  V30 6727 H 615.397 0.615845 -1.36117 0
M  V30 6728 H 617.279 3.71633 -1.98662 0
M  V30 6729 H 615.954 3.08865 -0.9687 0
M  V30 6730 H 614.861 2.12737 -3.07723 0
M  V30 6731 H 616.194 2.81514 -4.03746 0
M  V30 6732 N 617.846 1.41785 0.688094 0
M  V30 6733 C 619.074 1.44915 1.47673 0
M  V30 6734 C 619.489 0.0565786 1.88715 0
M  V30 6735 O 618.846 -0.92579 1.57275 0
M  V30 6736 C 618.897 2.36452 2.73446 0
M  V30 6737 O 618.618 3.7029 2.34131 0
M  V30 6738 C 620.119 2.48463 3.67125 0
M  V30 6739 H 617.339 0.493324 0.454832 0
M  V30 6740 H 619.883 1.86153 0.846594 0
M  V30 6741 H 618.038 1.98502 3.3268 0
M  V30 6742 H 618.452 4.19183 3.15255 0
M  V30 6743 H 619.926 3.16662 4.52138 0
M  V30 6744 H 620.403 1.51826 4.12123 0
M  V30 6745 H 621.009 2.8708 3.13792 0
M  V30 6746 N 619.324 -0.923095 1.27737 0
M  V30 6747 C 620.234 -2.05765 1.12685 0
M  V30 6748 C 621.25 -1.73911 0.0557197 0
M  V30 6749 O 622.426 -1.99674 0.263137 0
M  V30 6750 C 619.491 -3.37804 0.780363 0
M  V30 6751 C 618.552 -3.83326 1.93286 0
M  V30 6752 C 617.785 -5.09064 1.60281 0
M  V30 6753 O 618.008 -5.6809 0.512828 0
M  V30 6754 O 616.942 -5.50071 2.44347 0
M  V30 6755 H 620.768 -2.21378 2.07907 0
M  V30 6756 H 618.353 -1.04299 1.06968 0
M  V30 6757 H 620.235 -4.17097 0.600668 0
M  V30 6758 H 618.91 -3.23387 -0.142291 0
M  V30 6759 H 617.817 -3.049 2.16764 0
M  V30 6760 H 619.15 -4.02292 2.83588 0
M  V30 6761 N 620.802 -1.09834 -1.13024 0
M  V30 6762 C 622.05 -0.835297 -1.8403 0
M  V30 6763 C 622.371 0.640944 -1.84165 0
M  V30 6764 O 621.641 1.46517 -1.30037 0
M  V30 6765 H 620.221 -0.306018 -0.681441 0
M  V30 6766 H 622.883 -1.38734 -1.36891 0
M  V30 6767 H 621.979 -1.19258 -2.88416 0
M  V30 6768 N 622.28 1.30327 -0.886154 0
M  V30 6769 C 623.19 2.31854 -0.357866 0
M  V30 6770 C 624.206 1.65392 0.540502 0
M  V30 6771 O 625.382 1.96683 0.433339 0
M  V30 6772 C 622.447 3.44171 0.417999 0
M  V30 6773 C 621.508 4.26257 -0.510263 0
M  V30 6774 C 620.741 5.3321 0.228669 0
M  V30 6775 O 620.964 5.51542 1.45458 0
M  V30 6776 O 619.898 6.0042 -0.421832 0
M  V30 6777 H 623.724 2.78995 -1.19982 0
M  V30 6778 H 621.309 1.34518 -0.650028 0
M  V30 6779 H 623.191 4.12588 0.857251 0
M  V30 6780 H 621.866 2.99164 1.23623 0
M  V30 6781 H 620.773 3.60533 -0.99835 0
M  V30 6782 H 622.106 4.74871 -1.29454 0
M  V30 6783 N 623.758 0.647228 1.43697 0
M  V30 6784 C 624.668 -0.0487997 2.34549 0
M  V30 6785 C 625.684 -0.818586 1.53542 0
M  V30 6786 O 626.86 -0.767195 1.86215 0
M  V30 6787 C 623.925 -1.00734 3.31743 0
M  V30 6788 C 622.986 -0.23515 4.28655 0
M  V30 6789 C 622.219 -1.14803 5.21206 0
M  V30 6790 O 622.442 -2.38717 5.18045 0
M  V30 6791 O 621.376 -0.623667 5.9866 0
M  V30 6792 H 625.202 0.698863 2.9555 0
M  V30 6793 H 622.787 0.407412 1.43738 0
M  V30 6794 H 624.669 -1.55837 3.91526 0
M  V30 6795 H 623.344 -1.73534 2.73254 0
M  V30 6796 H 622.251 0.359319 3.7237 0
M  V30 6797 H 623.584 0.453152 4.9011 0
M  V30 6798 N 625.236 -1.5273 0.388769 0
M  V30 6799 C 626.168 -2.24081 -0.481704 0
M  V30 6800 C 627.181 -1.26307 -1.02715 0
M  V30 6801 O 628.37 -1.52386 -0.929565 0
M  V30 6802 C 625.47 -2.94315 -1.68024 0
M  V30 6803 C 624.643 -4.18791 -1.26226 0
M  V30 6804 C 623.702 -4.72028 -2.32542 0
M  V30 6805 O 622.728 -5.35129 -1.93972 0
M  V30 6806 N 623.93 -4.51838 -3.64448 0
M  V30 6807 H 626.695 -2.9942 0.129591 0
M  V30 6808 H 624.256 -1.60465 0.2151 0
M  V30 6809 H 626.248 -3.26831 -2.38671 0
M  V30 6810 H 624.818 -2.22287 -2.19789 0
M  V30 6811 H 624.038 -3.92318 -0.384703 0
M  V30 6812 H 625.326 -4.99668 -0.959647 0
M  V30 6813 H 624.724 -4.01468 -3.98547 0
M  V30 6814 H 623.281 -4.88845 -4.31131 0
M  V30 6815 N 626.714 -0.118576 -1.57153 0
M  V30 6816 C 627.677 0.817464 -2.14127 0
M  V30 6817 C 628.677 1.1949 -1.07604 0
M  V30 6818 O 629.867 1.12048 -1.33382 0
M  V30 6819 C 626.999 2.10541 -2.68115 0
M  V30 6820 H 628.192 0.322339 -2.98163 0
M  V30 6821 H 625.745 0.130655 -1.55753 0
M  V30 6822 H 626.48 2.64485 -1.87665 0
M  V30 6823 H 626.265 1.84425 -3.4602 0
M  V30 6824 H 627.755 2.77453 -3.12105 0
M  V30 6825 N 628.193 1.56834 0.155195 0
M  V30 6826 C 629.125 1.94235 1.21677 0
M  V30 6827 C 630.138 0.83724 1.39621 0
M  V30 6828 O 631.327 1.11567 1.39338 0
M  V30 6829 C 628.427 2.19402 2.58294 0
M  V30 6830 C 627.6 3.50671 2.61436 0
M  V30 6831 C 626.659 3.64475 3.79532 0
M  V30 6832 O 625.685 4.36945 3.64784 0
M  V30 6833 N 626.887 3.00526 4.96653 0
M  V30 6834 H 629.652 2.85901 0.898932 0
M  V30 6835 H 627.213 1.58185 0.34483 0
M  V30 6836 H 629.205 2.25886 3.35794 0
M  V30 6837 H 627.775 1.34042 2.82403 0
M  V30 6838 H 626.995 3.55702 1.69912 0
M  V30 6839 H 628.283 4.3702 2.60559 0
M  V30 6840 H 627.681 2.41549 5.11538 0
M  V30 6841 H 626.238 3.12583 5.71958 0
M  V30 6842 N 629.671 -0.424282 1.51781 0
M  V30 6843 C 630.601 -1.52305 1.7699 0
M  V30 6844 C 631.582 -1.5839 0.620209 0
M  V30 6845 O 632.767 -1.73908 0.864268 0
M  V30 6846 C 629.897 -2.90271 1.90683 0
M  V30 6847 C 628.851 -2.99043 3.06198 0
M  V30 6848 C 628.177 -4.39116 3.05092 0
M  V30 6849 C 629.477 -2.7192 4.45934 0
M  V30 6850 H 631.171 -1.31461 2.68995 0
M  V30 6851 H 628.717 -0.630985 1.29439 0
M  V30 6852 H 630.67 -3.6711 2.06901 0
M  V30 6853 H 629.394 -3.12376 0.953365 0
M  V30 6854 H 628.053 -2.24646 2.89706 0
M  V30 6855 H 627.701 -4.58207 2.07498 0
M  V30 6856 H 627.401 -4.45912 3.82669 0
M  V30 6857 H 628.925 -5.17911 3.2342 0
M  V30 6858 H 630.339 -3.38487 4.62709 0
M  V30 6859 H 628.736 -2.90111 5.25315 0
M  V30 6860 H 629.806 -1.67445 4.55072 0
M  V30 6861 N 631.149 -1.42148 -0.680565 0
M  V30 6862 C 632.079 -1.4796 -1.80638 0
M  V30 6863 C 633.06 -0.336728 -1.66734 0
M  V30 6864 O 634.245 -0.550247 -1.86242 0
M  V30 6865 C 631.375 -1.37569 -3.18892 0
M  V30 6866 C 630.329 -2.49823 -3.47524 0
M  V30 6867 C 629.655 -2.24491 -4.85291 0
M  V30 6868 C 630.955 -3.92144 -3.44994 0
M  V30 6869 H 632.649 -2.42184 -1.76032 0
M  V30 6870 H 630.195 -1.16566 -0.845481 0
M  V30 6871 H 632.148 -1.40243 -3.97379 0
M  V30 6872 H 630.872 -0.398357 -3.24162 0
M  V30 6873 H 629.531 -2.46455 -2.71395 0
M  V30 6874 H 629.179 -1.25066 -4.87204 0
M  V30 6875 H 628.879 -2.99722 -5.05411 0
M  V30 6876 H 630.403 -2.28906 -5.66069 0
M  V30 6877 H 631.817 -3.97145 -4.13459 0
M  V30 6878 H 630.214 -4.67179 -3.76648 0
M  V30 6879 H 631.284 -4.19225 -2.43676 0
M  V30 6880 N 632.627 0.916307 -1.28225 0
M  V30 6881 C 633.577 2.00488 -1.08574 0
M  V30 6882 C 634.561 1.60897 -0.0101874 0
M  V30 6883 O 635.753 1.75499 -0.230034 0
M  V30 6884 C 632.882 3.35076 -0.746943 0
M  V30 6885 C 631.968 3.81077 -1.86121 0
M  V30 6886 N 632.359 3.99475 -3.10247 0
M  V30 6887 C 630.657 4.10212 -1.75048 0
M  V30 6888 C 631.358 4.37965 -3.82834 0
M  V30 6889 N 630.334 4.4608 -3.10667 0
M  V30 6890 H 634.136 2.1276 -2.02757 0
M  V30 6891 H 631.65 1.10397 -1.19107 0
M  V30 6892 H 633.647 4.12743 -0.587252 0
M  V30 6893 H 632.307 3.2416 0.187146 0
M  V30 6894 H 633.318 3.85466 -3.45885 0
M  V30 6895 H 629.995 4.07947 -0.887999 0
M  V30 6896 H 631.385 4.60183 -4.89572 0
M  V30 6897 N 634.105 1.10431 1.1244 0
M  V30 6898 C 635.351 0.847972 1.84221 0
M  V30 6899 C 635.684 -0.624903 1.83871 0
M  V30 6900 O 634.959 -1.46074 1.28423 0
M  V30 6901 C 635.242 1.39695 3.319 0
M  V30 6902 C 635.095 2.93668 3.40704 0
M  V30 6903 C 636.414 1.03924 4.27654 0
M  V30 6904 H 633.533 0.309502 0.668863 0
M  V30 6905 H 636.175 1.36745 1.31912 0
M  V30 6906 H 634.325 0.955095 3.76577 0
M  V30 6907 H 635.997 3.46379 3.04662 0
M  V30 6908 H 634.24 3.30272 2.81252 0
M  V30 6909 H 634.911 3.27162 4.446 0
M  V30 6910 H 637.387 1.42049 3.91102 0
M  V30 6911 H 636.263 1.45027 5.29394 0
M  V30 6912 H 636.524 -0.051336 4.4207 0
M  V30 6913 N 635.583 -1.29855 0.893053 0
M  V30 6914 C 636.808 -2.00512 0.530066 0
M  V30 6915 C 637.233 -1.66446 -0.876199 0
M  V30 6916 O 636.591 -0.885446 -1.58207 0
M  V30 6917 C 636.639 -3.53308 0.721505 0
M  V30 6918 O 635.743 -4.11764 -0.228994 0
M  V30 6919 H 635.084 -0.630617 0.207891 0
M  V30 6920 H 637.614 -1.6551 1.20282 0
M  V30 6921 H 637.624 -4.03206 0.623599 0
M  V30 6922 H 636.299 -3.77439 1.74678 0
M  V30 6923 H 634.876 -3.72805 -0.0841034 0
M  V30 6924 N 637.061 -0.65484 -1.43351 0
M  V30 6925 C 638.286 -0.175046 -2.0666 0
M  V30 6926 C 638.711 1.15104 -1.4877 0
M  V30 6927 O 638.069 1.71144 -0.598279 0
M  V30 6928 C 638.117 -0.0991544 -3.60464 0
M  V30 6929 O 637.221 0.938169 -4.01587 0
M  V30 6930 H 636.562 -0.0956148 -0.65708 0
M  V30 6931 H 639.092 -0.898222 -1.83829 0
M  V30 6932 H 639.102 0.083632 -4.07914 0
M  V30 6933 H 637.777 -1.06719 -4.01975 0
M  V30 6934 H 636.354 0.72804 -3.65724 0
M  V30 6935 N 638.539 1.52521 -0.396863 0
M  V30 6936 C 639.95 1.86547 0.0754868 0
M  V30 6937 C 640.301 1.31621 1.45501 0
M  V30 6938 O 639.426 0.650563 2.0639 0
M  V30 6939 C 640.021 3.38495 0.143754 0
M  V30 6940 C 638.58 3.72205 0.560413 0
M  V30 6941 C 637.727 2.75954 -0.272856 0
M  V30 6942 H 640.678 1.46323 -0.614434 0
M  V30 6943 H 640.699 3.68153 0.961425 0
M  V30 6944 H 640.211 3.78442 -0.860415 0
M  V30 6945 H 638.312 3.3783 1.57167 0
M  V30 6946 H 638.425 4.78074 0.313314 0
M  V30 6947 H 636.789 2.53339 0.263 0
M  V30 6948 H 637.572 3.1874 -1.27515 0
M  V30 6949 N 640.017 0.126909 1.57088 0
M  V30 6950 C 640.965 -0.837618 2.16995 0
M  V30 6951 C 641.959 -1.26974 1.12133 0
M  V30 6952 O 643.165 -1.24056 1.30423 0
M  V30 6953 H 639.54 -0.288256 0.694559 0
M  V30 6954 H 641.511 -0.307957 2.96807 0
M  V30 6955 C 640.26 -2.07474 2.79016 0
M  V30 6956 H 639.583 -1.75117 3.59408 0
M  V30 6957 H 641.023 -2.72949 3.24461 0
M  V30 6958 C 639.482 -2.86967 1.76498 0
M  V30 6959 O 640.012 -3.82625 1.22316 0
M  V30 6960 N 638.218 -2.51111 1.46258 0
M  V30 6961 H 637.765 -1.73389 1.90509 0
M  V30 6962 H 637.723 -3.04594 0.779085 0
M  V30 6963 N 641.495 -1.56914 -0.146875 0
M  V30 6964 C 642.425 -2.01308 -1.1831 0
M  V30 6965 C 643.406 -0.892664 -1.44795 0
M  V30 6966 O 644.591 -1.16048 -1.55713 0
M  V30 6967 C 641.721 -2.3938 -2.51624 0
M  V30 6968 C 640.675 -3.54608 -2.3966 0
M  V30 6969 C 640.001 -3.78493 -3.77686 0
M  V30 6970 C 641.301 -4.87269 -1.88058 0
M  V30 6971 H 642.995 -2.88123 -0.813964 0
M  V30 6972 H 640.541 -1.38615 -0.3901 0
M  V30 6973 H 642.494 -2.69037 -3.24341 0
M  V30 6974 H 641.218 -1.49502 -2.90373 0
M  V30 6975 H 639.877 -3.25116 -1.69396 0
M  V30 6976 H 639.525 -2.85866 -4.13871 0
M  V30 6977 H 639.225 -4.56039 -3.70543 0
M  V30 6978 H 640.749 -4.10576 -4.51951 0
M  V30 6979 H 642.163 -5.15644 -2.50568 0
M  V30 6980 H 640.56 -5.68622 -1.91805 0
M  V30 6981 H 641.63 -4.77634 -0.836277 0
M  V30 6982 N 642.974 0.416227 -1.52004 0
M  V30 6983 C 643.937 1.48926 -1.74223 0
M  V30 6984 C 644.937 1.48693 -0.612119 0
M  V30 6985 O 646.127 1.50343 -0.879921 0
M  V30 6986 C 643.259 2.88372 -1.81809 0
M  V30 6987 H 644.452 1.3052 -2.70008 0
M  V30 6988 H 642.005 0.646271 -1.42313 0
M  V30 6989 H 642.74 3.12157 -0.879135 0
M  V30 6990 H 642.525 2.89944 -2.6396 0
M  V30 6991 H 644.015 3.66173 -2.00766 0
M  V30 6992 N 644.452 1.42507 0.673017 0
M  V30 6993 C 645.677 1.4668 1.46627 0
M  V30 6994 C 646.102 0.080066 1.8793 0
M  V30 6995 O 645.46 -0.921879 1.56112 0
M  V30 6996 C 645.508 2.40091 2.69051 0
M  V30 6997 O 644.612 1.8735 3.67387 0
M  V30 6998 H 643.953 0.496908 0.44043 0
M  V30 6999 H 646.483 1.87215 0.825334 0
M  V30 7000 H 646.493 2.56731 3.17101 0
M  V30 7001 H 645.168 3.4084 2.3833 0
M  V30 7002 H 643.745 1.80274 3.26429 0
M  V30 7003 N 645.93 -0.909495 1.28709 0
M  V30 7004 C 647.207 -1.63865 1.06806 0
M  V30 7005 C 647.587 -2.07445 -0.391143 0
M  V30 7006 O 646.935 -1.82269 -1.37805 0
M  V30 7007 C 647.145 -2.82692 2.04661 0
M  V30 7008 C 648.493 -3.5361 2.35042 0
M  V30 7009 O 649.517 -2.92847 2.02779 0
M  V30 7010 O 648.376 -4.63131 2.90124 0
M  V30 7011 H 645.47 -0.719065 0.408502 0
M  V30 7012 H 648.016 -0.958424 1.40044 0
M  V30 7013 H 646.788 -2.47614 3.0299 0
M  V30 7014 H 646.411 -3.58426 1.72095 0
M  V30 7015 N 647.408 -1.11026 -1.11852 0
M  V30 7016 C 648.633 -0.879064 -1.87849 0
M  V30 7017 C 649.058 0.565406 -1.79401 0
M  V30 7018 O 648.416 1.39886 -1.15333 0
M  V30 7019 C 648.464 -1.33985 -3.34784 0
M  V30 7020 O 647.568 -0.508803 -4.09249 0
M  V30 7021 H 646.909 -0.316992 -0.583448 0
M  V30 7022 H 649.439 -1.47863 -1.41413 0
M  V30 7023 H 649.449 -1.33248 -3.85628 0
M  V30 7024 H 648.124 -2.39172 -3.40249 0
M  V30 7025 H 646.701 -0.581913 -3.68332 0
M  V30 7026 N 648.886 1.2938 -0.899927 0
M  V30 7027 C 650.163 1.9046 -0.445443 0
M  V30 7028 C 650.543 1.81683 1.07492 0
M  V30 7029 O 649.891 1.24371 1.91688 0
M  V30 7030 C 650.101 3.35529 -0.960279 0
M  V30 7031 C 651.449 4.12556 -1.00412 0
M  V30 7032 O 652.473 3.44434 -0.907965 0
M  V30 7033 O 651.332 5.34294 -1.14857 0
M  V30 7034 H 648.426 0.815253 -0.138893 0
M  V30 7035 H 650.972 1.37844 -0.989808 0
M  V30 7036 H 649.744 3.36074 -2.00425 0
M  V30 7037 H 649.367 3.95624 -0.395939 0
M  V30 7038 N 650.364 0.662433 1.43002 0
M  V30 7039 C 651.294 -0.00979809 2.33498 0
M  V30 7040 C 652.275 -0.802329 1.49989 0
M  V30 7041 O 653.46 -0.761964 1.78627 0
M  V30 7042 C 650.59 -0.970446 3.33466 0
M  V30 7043 C 649.544 -0.287383 4.27034 0
M  V30 7044 C 648.87 -1.36012 5.17112 0
M  V30 7045 C 650.17 0.82595 5.15728 0
M  V30 7046 H 651.864 0.745959 2.89958 0
M  V30 7047 H 649.41 0.360172 1.39423 0
M  V30 7048 H 651.363 -1.44971 3.95679 0
M  V30 7049 H 650.087 -1.75748 2.75282 0
M  V30 7050 H 648.746 0.17152 3.66199 0
M  V30 7051 H 648.394 -2.13882 4.55262 0
M  V30 7052 H 648.094 -0.908276 5.80538 0
M  V30 7053 H 649.618 -1.84056 5.82199 0
M  V30 7054 H 651.032 0.42845 5.71697 0
M  V30 7055 H 649.429 1.20282 5.87922 0
M  V30 7056 H 650.499 1.68003 4.54866 0
M  V30 7057 N 651.842 -1.52309 0.404946 0
M  V30 7058 C 653.067 -2.06666 -0.1743 0
M  V30 7059 C 653.492 -1.27341 -1.38441 0
M  V30 7060 O 652.85 -0.302539 -1.78758 0
M  V30 7061 C 652.898 -3.57014 -0.507262 0
M  V30 7062 O 652.002 -3.80144 -1.59889 0
M  V30 7063 H 651.343 -0.663807 -0.0160273 0
M  V30 7064 H 653.873 -1.96297 0.576937 0
M  V30 7065 H 653.883 -4.00724 -0.767098 0
M  V30 7066 H 652.558 -4.14184 0.377368 0
M  V30 7067 H 651.135 -3.48316 -1.33155 0
M  V30 7068 N 653.32 -0.135238 -1.57019 0
M  V30 7069 C 654.736 0.221262 -1.58059 0
M  V30 7070 C 654.936 1.65538 -1.14889 0
M  V30 7071 O 653.992 2.37985 -0.843751 0
M  V30 7072 C 655.305 -0.0268114 -3.00688 0
M  V30 7073 C 656.853 0.0378206 -3.12977 0
M  V30 7074 C 657.328 -0.182769 -4.57635 0
M  V30 7075 N 658.819 -0.129292 -4.6302 0
M  V30 7076 C 659.554 -0.274648 -5.72742 0
M  V30 7077 N 659.05 -0.477075 -6.91155 0
M  V30 7078 N 660.843 -0.213077 -5.61696 0
M  V30 7079 H 652.994 -1.07177 -1.83376 0
M  V30 7080 H 655.257 -0.423338 -0.848227 0
M  V30 7081 H 654.963 -1.01889 -3.36618 0
M  V30 7082 H 654.837 0.697863 -3.70688 0
M  V30 7083 H 657.224 1.02043 -2.76896 0
M  V30 7084 H 657.305 -0.718996 -2.45487 0
M  V30 7085 H 656.949 -1.16243 -4.94419 0
M  V30 7086 H 656.879 0.59423 -5.23237 0
M  V30 7087 H 659.37 0.0229896 -3.77893 0
M  V30 7088 H 659.683 -0.578413 -7.70632 0
M  V30 7089 H 658.028 -0.513252 -6.93102 0
M  V30 7090 H 661.219 -0.0557796 -4.68067 0
M  V30 7091 H 661.392 -0.329796 -6.4716 0
M  V30 7092 N 654.798 1.5699 0.138552 0
M  V30 7093 C 656.214 1.51844 0.491472 0
M  V30 7094 C 656.414 0.845063 1.82923 0
M  V30 7095 O 655.47 0.419143 2.48997 0
M  V30 7096 C 656.783 2.96615 0.493987 0
M  V30 7097 C 658.331 3.076 0.578913 0
M  V30 7098 C 658.806 4.53893 0.612009 0
M  V30 7099 N 660.297 4.5827 0.673997 0
M  V30 7100 C 661.032 5.68852 0.720729 0
M  V30 7101 N 660.528 6.88982 0.726292 0
M  V30 7102 N 662.321 5.56908 0.762253 0
M  V30 7103 H 654.472 1.99158 -0.738228 0
M  V30 7104 H 656.735 0.908693 -0.270149 0
M  V30 7105 H 656.441 3.49172 -0.420933 0
M  V30 7106 H 656.315 3.53017 1.32887 0
M  V30 7107 H 658.702 2.55057 1.48425 0
M  V30 7108 H 658.783 2.54227 -0.283286 0
M  V30 7109 H 658.427 5.07076 -0.289208 0
M  V30 7110 H 658.357 5.05057 1.49082 0
M  V30 7111 H 660.848 3.71793 0.676654 0
M  V30 7112 H 661.161 7.69014 0.764032 0
M  V30 7113 H 659.506 6.91526 0.69403 0
M  V30 7114 H 662.697 4.61969 0.755135 0
M  V30 7115 H 662.87 6.43102 0.795207 0
M  V30 7116 N 656.276 -0.40816 1.52223 0
M  V30 7117 C 657.501 -1.18127 1.70472 0
M  V30 7118 C 657.926 -1.83491 0.41384 0
M  V30 7119 O 657.284 -1.70047 -0.628778 0
M  V30 7120 C 657.332 -2.21935 2.84213 0
M  V30 7121 O 656.436 -3.28099 2.4985 0
M  V30 7122 H 655.777 -0.344781 0.56747 0
M  V30 7123 H 658.307 -0.478328 1.9893 0
M  V30 7124 H 658.317 -2.66248 3.09153 0
M  V30 7125 H 656.992 -1.73744 3.7787 0
M  V30 7126 H 655.569 -2.89058 2.35584 0
M  V30 7127 N 657.755 -1.42862 -0.66545 0
M  V30 7128 C 658.98 -1.47456 -1.45848 0
M  V30 7129 C 659.405 -0.0900312 -1.87884 0
M  V30 7130 O 658.763 0.913587 -1.56599 0
M  V30 7131 C 658.811 -2.41514 -2.67774 0
M  V30 7132 O 657.915 -1.89296 -3.66389 0
M  V30 7133 H 657.256 -0.499236 -0.437789 0
M  V30 7134 H 659.786 -1.8765 -0.815394 0
M  V30 7135 H 659.796 -2.58409 -3.15735 0
M  V30 7136 H 658.471 -3.42099 -2.36519 0
M  V30 7137 H 657.048 -1.82003 -3.25468 0
M  V30 7138 N 659.233 0.902656 -1.29189 0
M  V30 7139 C 660.458 1.69167 -1.19989 0
M  V30 7140 C 660.883 1.86607 0.236495 0
M  V30 7141 O 660.241 1.38425 1.17082 0
M  V30 7142 C 660.289 3.05532 -1.91527 0
M  V30 7143 O 659.393 3.93621 -1.2303 0
M  V30 7144 H 658.734 0.517584 -0.415936 0
M  V30 7145 H 661.264 1.12785 -1.70706 0
M  V30 7146 H 661.274 3.55693 -1.99866 0
M  V30 7147 H 659.949 2.92156 -2.96003 0
M  V30 7148 H 658.526 3.52055 -1.22928 0
M  V30 7149 N 660.711 1.11618 1.11262 0
M  V30 7150 C 661.939 0.888739 1.8684 0
M  V30 7151 C 662.354 -0.561558 1.80255 0
M  V30 7152 O 661.711 -1.38782 1.18515 0
M  V30 7153 C 661.762 1.34422 3.35579 0
M  V30 7154 O 661.483 2.73766 3.42029 0
M  V30 7155 C 662.984 1.15246 4.28058 0
M  V30 7156 H 660.204 0.318152 0.590779 0
M  V30 7157 H 662.748 1.48398 1.40707 0
M  V30 7158 H 660.903 0.79239 3.7921 0
M  V30 7159 H 661.317 2.9355 4.34659 0
M  V30 7160 H 662.791 1.52015 5.30656 0
M  V30 7161 H 663.268 0.0922007 4.39103 0
M  V30 7162 H 663.874 1.69136 3.90222 0
M  V30 7163 N 662.189 -1.289 0.906776 0
M  V30 7164 C 663.122 -2.25737 0.334362 0
M  V30 7165 C 664.1 -1.52745 -0.557474 0
M  V30 7166 O 665.284 -1.81673 -0.502697 0
M  V30 7167 C 662.411 -3.34642 -0.522716 0
M  V30 7168 C 661.457 -4.25424 0.302777 0
M  V30 7169 S 662.29 -5.07629 1.70508 0
M  V30 7170 C 663.446 -6.20031 0.855118 0
M  V30 7171 H 663.679 -2.73941 1.15514 0
M  V30 7172 H 661.212 -1.37233 0.707573 0
M  V30 7173 H 663.17 -3.97845 -1.01141 0
M  V30 7174 H 661.831 -2.85119 -1.31781 0
M  V30 7175 H 661.024 -5.02767 -0.352257 0
M  V30 7176 H 660.626 -3.66908 0.724873 0
M  V30 7177 H 662.918 -6.77451 0.0816418 0
M  V30 7178 H 663.861 -6.89767 1.60087 0
M  V30 7179 H 664.269 -5.63035 0.406375 0
M  V30 7180 N 663.667 -0.670007 -1.42649 0
M  V30 7181 C 664.892 -0.196955 -2.06463 0
M  V30 7182 C 665.317 1.1352 -1.49983 0
M  V30 7183 O 664.675 1.705 -0.616397 0
M  V30 7184 C 664.723 -0.137381 -3.60338 0
M  V30 7185 O 663.827 0.895523 -4.02559 0
M  V30 7186 H 663.168 -0.102579 -0.656029 0
M  V30 7187 H 665.698 -0.917669 -1.82866 0
M  V30 7188 H 665.708 0.0403625 -4.0798 0
M  V30 7189 H 664.383 -1.10977 -4.0082 0
M  V30 7190 H 662.96 0.689209 -3.66476 0
M  V30 7191 N 665.145 1.52092 -0.413018 0
M  V30 7192 C 666.092 2.27119 0.410558 0
M  V30 7193 C 667.062 1.29692 1.03774 0
M  V30 7194 O 668.247 1.58561 1.06128 0
M  V30 7195 C 665.387 3.09863 1.51918 0
M  V30 7196 C 664.5 4.22252 0.912528 0
M  V30 7197 C 663.635 4.92348 1.99417 0
M  V30 7198 C 662.674 5.96694 1.36466 0
M  V30 7199 N 661.811 6.60292 2.38661 0
M  V30 7200 H 666.651 2.97067 -0.235661 0
M  V30 7201 H 664.188 1.46542 -0.128055 0
M  V30 7202 H 666.146 3.56144 2.17295 0
M  V30 7203 H 664.776 2.42078 2.13537 0
M  V30 7204 H 663.828 3.80113 0.147697 0
M  V30 7205 H 665.14 4.9709 0.412717 0
M  V30 7206 H 664.294 5.42054 2.72512 0
M  V30 7207 H 663.033 4.17087 2.52764 0
M  V30 7208 H 662.038 5.46304 0.61906 0
M  V30 7209 H 663.263 6.73899 0.838827 0
M  V30 7210 H 661.209 5.87858 2.91134 0
M  V30 7211 H 661.126 7.30816 1.93503 0
M  V30 7212 H 662.394 7.14635 3.11314 0
M  V30 7213 N 666.623 0.143563 1.56945 0
M  V30 7214 C 667.848 -0.518701 2.00809 0
M  V30 7215 C 668.273 -1.5785 1.02298 0
M  V30 7216 O 667.631 -1.813 -0.0017839 0
M  V30 7217 C 667.679 -1.09929 3.43436 0
M  V30 7218 O 666.783 -2.21425 3.47915 0
M  V30 7219 H 666.124 -0.127215 0.6517 0
M  V30 7220 H 668.654 0.239283 2.03196 0
M  V30 7221 H 668.664 -1.4288 3.82164 0
M  V30 7222 H 667.339 -0.323162 4.14643 0
M  V30 7223 H 665.916 -1.89728 3.21026 0
M  V30 7224 N 668.101 -1.57061 -0.130224 0
M  V30 7225 C 669.011 -2.02802 -1.17934 0
M  V30 7226 C 670.027 -0.946378 -1.46013 0
M  V30 7227 O 671.203 -1.25708 -1.57351 0
M  V30 7228 C 668.268 -2.41368 -2.48882 0
M  V30 7229 C 667.329 -3.63561 -2.28301 0
M  V30 7230 C 666.562 -4.00279 -3.53005 0
M  V30 7231 O 666.785 -3.37463 -4.59864 0
M  V30 7232 O 665.719 -4.93441 -3.44673 0
M  V30 7233 H 669.545 -2.92394 -0.820958 0
M  V30 7234 H 667.13 -1.45475 -0.340197 0
M  V30 7235 H 669.012 -2.66958 -3.26054 0
M  V30 7236 H 667.687 -1.54926 -2.84217 0
M  V30 7237 H 666.594 -3.43136 -1.49025 0
M  V30 7238 H 667.927 -4.50673 -1.97875 0
M  V30 7239 N 669.579 0.400081 -1.52437 0
M  V30 7240 C 670.809 1.16598 -1.70553 0
M  V30 7241 C 671.217 1.8451 -0.418665 0
M  V30 7242 O 670.56 1.73069 0.615855 0
M  V30 7243 C 670.622 2.26517 -2.7916 0
M  V30 7244 C 670.286 1.78666 -4.20628 0
M  V30 7245 C 671.283 1.26946 -5.04163 0
M  V30 7246 C 668.968 1.85225 -4.66902 0
M  V30 7247 C 670.962 0.824187 -6.32049 0
M  V30 7248 C 668.649 1.40309 -5.94774 0
M  V30 7249 C 669.647 0.889922 -6.77178 0
M  V30 7250 O 669.335 0.447281 -8.02655 0
M  V30 7251 H 669.067 0.356023 -0.574651 0
M  V30 7252 H 671.621 0.475598 -1.99818 0
M  V30 7253 H 669.851 2.98946 -2.45292 0
M  V30 7254 H 671.54 2.88237 -2.85787 0
M  V30 7255 H 672.306 1.21244 -4.69601 0
M  V30 7256 H 668.185 2.24111 -4.02859 0
M  V30 7257 H 671.729 0.422958 -6.96317 0
M  V30 7258 H 667.626 1.45693 -6.28843 0
M  V30 7259 H 668.394 0.569768 -8.16514 0
M  V30 7260 N 671.057 1.43213 0.657864 0
M  V30 7261 C 671.99 1.42456 1.78273 0
M  V30 7262 C 672.968 0.286598 1.60054 0
M  V30 7263 O 674.152 0.479467 1.823 0
M  V30 7264 C 671.279 1.23169 3.15511 0
M  V30 7265 C 670.325 2.40181 3.52442 0
M  V30 7266 S 671.158 4.02729 3.52944 0
M  V30 7267 C 672.314 3.85816 4.92846 0
M  V30 7268 H 672.547 2.37642 1.78644 0
M  V30 7269 H 670.08 1.30188 0.830084 0
M  V30 7270 H 672.038 1.12728 3.94719 0
M  V30 7271 H 670.699 0.295398 3.12708 0
M  V30 7272 H 669.892 2.22478 4.52239 0
M  V30 7273 H 669.494 2.47224 2.80636 0
M  V30 7274 H 671.786 3.47853 5.81381 0
M  V30 7275 H 672.729 4.85348 5.15599 0
M  V30 7276 H 673.137 3.18361 4.66162 0
M  V30 7277 N 672.536 -0.895792 1.29666 0
M  V30 7278 C 673.446 -2.03329 1.17024 0
M  V30 7279 C 674.462 -1.73753 0.0925962 0
M  V30 7280 O 675.638 -1.99071 0.305431 0
M  V30 7281 C 672.703 -3.36072 0.851841 0
M  V30 7282 C 671.764 -3.7914 2.01373 0
M  V30 7283 C 670.997 -5.05549 1.71043 0
M  V30 7284 O 671.22 -5.66874 0.633213 0
M  V30 7285 O 670.154 -5.44764 2.5596 0
M  V30 7286 H 673.98 -2.16918 2.12556 0
M  V30 7287 H 671.565 -1.02007 1.09156 0
M  V30 7288 H 673.447 -4.15729 0.689006 0
M  V30 7289 H 672.122 -3.23616 -0.0736634 0
M  V30 7290 H 671.029 -3.00233 2.23183 0
M  V30 7291 H 672.362 -3.96186 2.92058 0
M  V30 7292 N 674.014 -1.12206 -1.10668 0
M  V30 7293 C 675.263 -0.870595 -1.81944 0
M  V30 7294 C 675.576 0.605447 -1.85994 0
M  V30 7295 O 676.782 0.973433 -2.53449 0
M  V30 7296 C 675.238 -1.50783 -3.26791 0
M  V30 7297 C 674.846 -3.01849 -3.31046 0
M  V30 7298 C 676.59 -1.33653 -4.02911 0
M  V30 7299 C 674.497 -3.58518 -4.70339 0
M  V30 7300 H 673.427 -0.322043 -0.681765 0
M  V30 7301 H 676.078 -1.34827 -1.24475 0
M  V30 7302 H 674.46 -0.957825 -3.84242 0
M  V30 7303 H 675.634 -3.63321 -2.83433 0
M  V30 7304 H 673.949 -3.18346 -2.68411 0
M  V30 7305 H 676.546 -1.73416 -5.05797 0
M  V30 7306 H 676.889 -0.279949 -4.15358 0
M  V30 7307 H 677.422 -1.85562 -3.51868 0
M  V30 7308 H 674.161 -4.63925 -4.63091 0
M  V30 7309 H 673.681 -3.01819 -5.18329 0
M  V30 7310 H 675.36 -3.57434 -5.39305 0
M  V30 7311 N 675.492 1.28418 -0.913599 0
M  V30 7312 C 676.402 2.31043 -0.406965 0
M  V30 7313 C 677.418 1.66501 0.505298 0
M  V30 7314 O 678.594 1.97558 0.391522 0
M  V30 7315 C 675.659 3.4498 0.344901 0
M  V30 7316 C 674.72 4.25078 -0.600563 0
M  V30 7317 C 673.953 5.33575 0.115516 0
M  V30 7318 O 674.176 5.54503 1.33727 0
M  V30 7319 O 673.11 5.9939 -0.549095 0
M  V30 7320 H 676.936 2.76387 -1.25873 0
M  V30 7321 H 674.521 1.33109 -0.678415 0
M  V30 7322 H 676.403 4.14314 0.769542 0
M  V30 7323 H 675.078 3.01719 1.1725 0
M  V30 7324 H 673.985 3.58334 -1.0746 0
M  V30 7325 H 675.318 4.72018 -1.39497 0
M  V30 7326 N 676.97 0.677563 1.42291 0
M  V30 7327 C 677.88 0.000962654 2.346 0
M  V30 7328 C 678.896 -0.785833 1.55244 0
M  V30 7329 O 680.072 -0.727523 1.87801 0
M  V30 7330 C 677.137 -0.936746 3.33805 0
M  V30 7331 C 676.198 -0.144173 4.29058 0
M  V30 7332 C 675.431 -1.03722 5.23524 0
M  V30 7333 O 675.654 -2.27675 5.22992 0
M  V30 7334 O 674.588 -0.496542 5.99848 0
M  V30 7335 H 678.414 0.761397 2.94001 0
M  V30 7336 H 675.999 0.43781 1.42841 0
M  V30 7337 H 677.881 -1.47497 3.94744 0
M  V30 7338 H 676.556 -1.67698 2.76874 0
M  V30 7339 H 675.463 0.438224 3.71524 0
M  V30 7340 H 676.796 0.55701 4.89038 0
M  V30 7341 N 678.448 -1.51871 0.421078 0
M  V30 7342 C 679.725 -1.9447 -0.20993 0
M  V30 7343 C 680.105 -1.35875 -1.61558 0
M  V30 7344 O 679.453 -0.539294 -2.22045 0
M  V30 7345 C 679.663 -3.48402 -0.204165 0
M  V30 7346 C 681.011 -4.2254 -0.417696 0
M  V30 7347 O 682.035 -3.55074 -0.282999 0
M  V30 7348 O 680.894 -5.422 -0.684239 0
M  V30 7349 H 677.988 -0.815283 -0.138718 0
M  V30 7350 H 680.534 -1.62832 0.477884 0
M  V30 7351 H 679.306 -3.83464 0.779183 0
M  V30 7352 H 678.929 -3.86436 -0.935576 0
M  V30 7353 N 679.926 -0.151884 -1.56866 0
M  V30 7354 C 680.859 0.824094 -2.128 0
M  V30 7355 C 681.837 1.2391 -1.05286 0
M  V30 7356 O 683.021 1.33433 -1.33146 0
M  V30 7357 C 680.148 2.1072 -2.65169 0
M  V30 7358 C 679.194 1.83774 -3.84876 0
M  V30 7359 S 680.027 1.02436 -5.25611 0
M  V30 7360 C 681.183 2.31855 -5.81373 0
M  V30 7361 H 681.416 0.348456 -2.95251 0
M  V30 7362 H 678.949 0.0624794 -1.54274 0
M  V30 7363 H 680.907 2.84428 -2.95992 0
M  V30 7364 H 679.568 2.55398 -1.8284 0
M  V30 7365 H 678.761 2.78929 -4.19779 0
M  V30 7366 H 678.363 1.18172 -3.5484 0
M  V30 7367 H 680.655 3.27469 -5.93102 0
M  V30 7368 H 681.598 2.01449 -6.7884 0
M  V30 7369 H 682.006 2.42727 -5.09651 0
M  V30 7370 N 681.404 1.57128 0.121893 0
M  V30 7371 C 682.352 2.01109 1.16868 0
M  V30 7372 C 683.346 0.907532 1.43039 0
M  V30 7373 O 684.552 1.09274 1.43036 0
M  V30 7374 H 680.927 0.640539 0.393971 0
M  V30 7375 H 682.898 2.88261 0.771224 0
M  V30 7376 C 681.647 2.42887 2.48799 0
M  V30 7377 H 680.97 3.2737 2.29498 0
M  V30 7378 H 682.41 2.77461 3.20611 0
M  V30 7379 C 680.869 1.29137 3.11168 0
M  V30 7380 O 681.399 0.605756 3.97106 0
M  V30 7381 N 679.605 1.04916 2.71 0
M  V30 7382 H 679.152 1.60848 2.01211 0
M  V30 7383 H 679.11 0.290016 3.1306 0
M  V30 7384 N 682.882 -0.391992 1.52647 0
M  V30 7385 C 683.83 -1.4991 1.77848 0
M  V30 7386 C 684.824 -1.56587 0.646282 0
M  V30 7387 O 686.03 -1.59789 0.828698 0
M  V30 7388 H 682.405 -0.498883 0.56269 0
M  V30 7389 H 684.376 -1.25847 2.70564 0
M  V30 7390 C 683.125 -2.87081 1.96163 0
M  V30 7391 H 682.448 -2.82692 2.82711 0
M  V30 7392 H 683.888 -3.63792 2.17787 0
M  V30 7393 C 682.347 -3.28822 0.733348 0
M  V30 7394 O 682.877 -4.01598 -0.0906481 0
M  V30 7395 N 681.083 -2.85068 0.564317 0
M  V30 7396 H 680.63 -2.26012 1.23598 0
M  V30 7397 H 680.588 -3.13355 -0.256166 0
M  V30 7398 N 684.36 -1.4356 -0.65026 0
M  V30 7399 C 685.585 -1.48995 -1.44275 0
M  V30 7400 C 686.01 -0.109954 -1.87778 0
M  V30 7401 O 685.368 0.896926 -1.57559 0
M  V30 7402 C 685.416 -2.44341 -2.65198 0
M  V30 7403 O 684.52 -1.93172 -3.6436 0
M  V30 7404 H 683.861 -0.503852 -0.432469 0
M  V30 7405 H 686.391 -1.88504 -0.795446 0
M  V30 7406 H 686.401 -2.61743 -3.12977 0
M  V30 7407 H 685.076 -3.44588 -2.32877 0
M  V30 7408 H 683.653 -1.85445 -3.23519 0
M  V30 7409 N 685.838 0.888903 -1.30139 0
M  V30 7410 C 687.087 1.63507 -1.18103 0
M  V30 7411 C 687.4 1.93808 0.264141 0
M  V30 7412 O 688.606 2.66744 0.505966 0
M  V30 7413 C 687.062 2.94673 -2.0663 0
M  V30 7414 C 686.67 2.71926 -3.56034 0
M  V30 7415 C 688.414 3.72626 -2.03346 0
M  V30 7416 C 686.321 3.98884 -4.3663 0
M  V30 7417 H 685.251 0.613426 -0.438435 0
M  V30 7418 H 687.902 0.984427 -1.54859 0
M  V30 7419 H 686.284 3.61009 -1.62754 0
M  V30 7420 H 687.458 2.14116 -4.08033 0
M  V30 7421 H 685.773 2.07353 -3.61101 0
M  V30 7422 H 688.37 4.66775 -2.60816 0
M  V30 7423 H 688.713 4.03712 -1.016 0
M  V30 7424 H 689.246 3.13147 -2.45324 0
M  V30 7425 H 685.985 3.72959 -5.39056 0
M  V30 7426 H 685.505 4.56214 -3.89396 0
M  V30 7427 H 687.184 4.66938 -4.47859 0
M  V30 7428 N 687.317 1.12792 1.10072 0
M  V30 7429 C 688.28 0.802264 2.14701 0
M  V30 7430 C 689.28 -0.18515 1.59731 0
M  V30 7431 O 690.47 0.041109 1.74151 0
M  V30 7432 C 687.602 0.19285 3.40354 0
M  V30 7433 H 688.795 1.72932 2.45019 0
M  V30 7434 H 686.348 0.931662 1.25498 0
M  V30 7435 H 687.083 -0.743748 3.15656 0
M  V30 7436 H 686.868 0.903827 3.81541 0
M  V30 7437 H 688.358 -0.0183704 4.17596 0
M  V30 7438 N 688.795 -1.27931 0.920396 0
M  V30 7439 C 689.745 -2.24727 0.384966 0
M  V30 7440 C 690.729 -1.52715 -0.506661 0
M  V30 7441 O 691.921 -1.73599 -0.345298 0
M  V30 7442 C 689.05 -3.41324 -0.3678 0
M  V30 7443 C 688.136 -4.20649 0.539925 0
M  V30 7444 N 688.527 -4.77906 1.6565 0
M  V30 7445 C 686.825 -4.4469 0.341557 0
M  V30 7446 C 687.526 -5.37652 2.22047 0
M  V30 7447 N 686.502 -5.2218 1.51093 0
M  V30 7448 H 690.304 -2.66572 1.23761 0
M  V30 7449 H 687.818 -1.42779 0.773819 0
M  V30 7450 H 689.815 -4.0976 -0.768277 0
M  V30 7451 H 688.475 -3.01012 -1.21746 0
M  V30 7452 H 689.486 -4.76073 2.03899 0
M  V30 7453 H 686.163 -4.14868 -0.468045 0
M  V30 7454 H 687.553 -5.92948 3.1601 0
M  V30 7455 N 690.273 -0.685099 -1.4193 0
M  V30 7456 C 691.503 -0.220052 -2.05425 0
M  V30 7457 C 691.911 1.13185 -1.51611 0
M  V30 7458 O 691.254 1.71631 -0.654875 0
M  V30 7459 C 691.316 -0.0888364 -3.5939 0
M  V30 7460 C 690.98 -1.37109 -4.35947 0
M  V30 7461 C 691.977 -2.30675 -4.65924 0
M  V30 7462 C 689.662 -1.62155 -4.75406 0
M  V30 7463 C 691.656 -3.47556 -5.34306 0
M  V30 7464 C 689.343 -2.79324 -5.43527 0
M  V30 7465 C 690.341 -3.71848 -5.72903 0
M  V30 7466 O 690.029 -4.86966 -6.39624 0
M  V30 7467 H 689.761 -0.102165 -0.668235 0
M  V30 7468 H 692.315 -0.935194 -1.82875 0
M  V30 7469 H 690.545 0.681981 -3.80639 0
M  V30 7470 H 692.234 0.337669 -4.04493 0
M  V30 7471 H 693 -2.12579 -4.3593 0
M  V30 7472 H 688.879 -0.910053 -4.51928 0
M  V30 7473 H 692.423 -4.19794 -5.57153 0
M  V30 7474 H 688.32 -2.97342 -5.72938 0
M  V30 7475 H 689.088 -4.86644 -6.58118 0
M  V30 7476 N 691.751 1.51645 -0.429126 0
M  V30 7477 C 693.167 1.59394 -0.080994 0
M  V30 7478 C 693.367 1.44064 1.40882 0
M  V30 7479 O 692.423 1.27771 2.17786 0
M  V30 7480 C 693.736 2.94779 -0.593773 0
M  V30 7481 C 695.284 3.08067 -0.553494 0
M  V30 7482 C 695.759 4.45963 -1.04311 0
M  V30 7483 N 697.25 4.5226 -1.00076 0
M  V30 7484 C 697.985 5.57268 -1.35056 0
M  V30 7485 N 697.481 6.69734 -1.77282 0
M  V30 7486 N 699.274 5.47582 -1.26925 0
M  V30 7487 H 691.425 1.59856 -1.39857 0
M  V30 7488 H 693.688 0.753095 -0.575805 0
M  V30 7489 H 693.394 3.11342 -1.63583 0
M  V30 7490 H 693.268 3.77197 -0.0142202 0
M  V30 7491 H 695.655 2.91177 0.479556 0
M  V30 7492 H 695.736 2.27508 -1.16935 0
M  V30 7493 H 695.38 4.63598 -2.07459 0
M  V30 7494 H 695.31 5.25049 -0.403873 0
M  V30 7495 H 697.801 3.71537 -0.690564 0
M  V30 7496 H 698.114 7.4587 -2.02232 0
M  V30 7497 H 696.459 6.70963 -1.81202 0
M  V30 7498 H 699.65 4.58604 -0.93809 0
M  V30 7499 H 699.823 6.29308 -1.54516 0
M  V30 7500 N 693.229 0.160201 1.56784 0
M  V30 7501 C 694.161 -0.80564 2.14574 0
M  V30 7502 C 695.174 -1.20154 1.09849 0
M  V30 7503 O 696.363 -1.14333 1.37078 0
M  V30 7504 C 693.463 -2.09434 2.6644 0
M  V30 7505 C 692.636 -1.86375 3.95706 0
M  V30 7506 C 691.695 -2.99358 4.32749 0
M  V30 7507 O 690.721 -2.70475 5.00831 0
M  V30 7508 N 691.923 -4.26867 3.93402 0
M  V30 7509 H 694.688 -0.311644 2.98075 0
M  V30 7510 H 692.249 -0.0229465 1.61884 0
M  V30 7511 H 694.241 -2.84091 2.88226 0
M  V30 7512 H 692.811 -2.50057 1.8759 0
M  V30 7513 H 692.031 -0.956821 3.82412 0
M  V30 7514 H 693.319 -1.68322 4.80151 0
M  V30 7515 H 692.717 -4.53197 3.38569 0
M  V30 7516 H 691.274 -4.98263 4.20211 0
M  V30 7517 N 694.707 -1.5719 -0.113559 0
M  V30 7518 C 695.953 -1.85412 -0.821597 0
M  V30 7519 C 696.286 -0.746722 -1.7927 0
M  V30 7520 O 695.561 0.246971 -1.92926 0
M  V30 7521 C 695.844 -3.24233 -1.56669 0
M  V30 7522 C 695.697 -4.45578 -0.614823 0
M  V30 7523 C 697.016 -3.60697 -2.52161 0
M  V30 7524 H 694.135 -0.674406 -0.29723 0
M  V30 7525 H 696.777 -1.89807 -0.085694 0
M  V30 7526 H 694.927 -3.20617 -2.19401 0
M  V30 7527 H 696.599 -4.613 0.00407137 0
M  V30 7528 H 694.842 -4.33738 0.0732332 0
M  V30 7529 H 695.513 -5.39395 -1.17292 0
M  V30 7530 H 697.989 -3.65139 -1.99532 0
M  V30 7531 H 696.865 -4.58798 -3.01323 0
M  V30 7532 H 697.126 -2.88403 -3.35076 0
M  V30 7533 N 696.185 0.383891 -1.52853 0
M  V30 7534 C 697.133 1.48965 -1.7864 0
M  V30 7535 C 698.127 1.56242 -0.654577 0
M  V30 7536 O 699.333 1.59347 -0.83716 0
M  V30 7537 H 695.708 0.495892 -0.565328 0
M  V30 7538 H 697.679 1.24411 -2.71228 0
M  V30 7539 C 696.428 2.86036 -1.97683 0
M  V30 7540 H 695.751 2.81188 -2.84206 0
M  V30 7541 H 697.191 3.62632 -2.19713 0
M  V30 7542 C 695.65 3.28428 -0.750776 0
M  V30 7543 O 696.18 4.0164 0.0693491 0
M  V30 7544 N 694.386 2.84765 -0.579427 0
M  V30 7545 H 693.933 2.25353 -1.24795 0
M  V30 7546 H 693.891 3.13486 0.239544 0
M  V30 7547 N 697.663 1.43903 0.642637 0
M  V30 7548 C 698.912 1.45362 1.39831 0
M  V30 7549 C 699.225 0.0856289 1.95412 0
M  V30 7550 O 700.431 -0.0222856 2.71491 0
M  V30 7551 C 698.887 2.55857 2.53111 0
M  V30 7552 C 698.495 3.98811 2.04092 0
M  V30 7553 C 700.239 2.66524 3.30402 0
M  V30 7554 C 698.146 5.00751 3.14647 0
M  V30 7555 H 697.076 0.540777 0.52543 0
M  V30 7556 H 699.727 1.69929 0.692559 0
M  V30 7557 H 698.109 2.2451 3.26207 0
M  V30 7558 H 699.283 4.3967 1.37938 0
M  V30 7559 H 697.598 3.92284 1.39651 0
M  V30 7560 H 700.195 3.39858 4.12796 0
M  V30 7561 H 700.538 1.71949 3.79129 0
M  V30 7562 H 701.071 2.97224 2.64392 0
M  V30 7563 H 697.81 5.96914 2.70876 0
M  V30 7564 H 697.33 4.64495 3.79479 0
M  V30 7565 H 699.009 5.23933 3.79609 0
M  V30 7566 N 699.141 -0.881989 1.30609 0
M  V30 7567 C 700.557 -1.16576 1.09005 0
M  V30 7568 C 700.757 -2.00961 -0.14727 0
M  V30 7569 O 699.813 -2.38117 -0.840036 0
M  V30 7570 C 701.126 -1.86954 2.35518 0
M  V30 7571 C 702.674 -1.99706 2.41011 0
M  V30 7572 C 703.149 -2.73497 3.67374 0
M  V30 7573 N 704.64 -2.8104 3.68199 0
M  V30 7574 C 705.375 -3.38718 4.62664 0
M  V30 7575 N 704.871 -3.97421 5.67475 0
M  V30 7576 N 706.664 -3.36561 4.50203 0
M  V30 7577 H 698.815 -0.319398 2.09985 0
M  V30 7578 H 701.078 -0.204058 0.925778 0
M  V30 7579 H 700.784 -1.32393 3.2583 0
M  V30 7580 H 700.658 -2.87317 2.44395 0
M  V30 7581 H 703.045 -2.53436 1.51176 0
M  V30 7582 H 703.126 -0.984218 2.36108 0
M  V30 7583 H 702.77 -2.20438 4.57569 0
M  V30 7584 H 702.7 -3.75163 3.6954 0
M  V30 7585 H 705.191 -2.39365 2.92426 0
M  V30 7586 H 705.504 -4.39507 6.35652 0
M  V30 7587 H 703.849 -3.95832 5.71264 0
M  V30 7588 H 707.04 -2.8993 3.67503 0
M  V30 7589 H 707.213 -3.81215 5.24003 0
M  V30 7590 N 700.619 -1.13374 -1.09472 0
M  V30 7591 C 701.847 -0.918351 -1.85402 0
M  V30 7592 C 702.262 0.53281 -1.81126 0
M  V30 7593 O 701.619 1.36879 -1.20708 0
M  V30 7594 C 701.67 -1.39743 -3.33398 0
M  V30 7595 O 701.391 -2.79172 -3.37631 0
M  V30 7596 C 702.892 -1.22042 -4.2617 0
M  V30 7597 H 700.112 -0.327511 -0.585643 0
M  V30 7598 H 702.656 -1.50617 -1.38328 0
M  V30 7599 H 700.811 -0.852619 -3.77901 0
M  V30 7600 H 701.225 -3.00428 -4.29934 0
M  V30 7601 H 702.699 -1.60438 -5.2817 0
M  V30 7602 H 703.176 -0.162047 -4.38901 0
M  V30 7603 H 703.782 -1.75323 -3.87482 0
M  V30 7604 N 702.098 1.27442 -0.927168 0
M  V30 7605 C 703.061 2.2512 -0.430525 0
M  V30 7606 C 704.061 1.54357 0.450619 0
M  V30 7607 O 705.251 1.72371 0.251774 0
M  V30 7608 C 702.383 3.38763 0.381144 0
M  V30 7609 H 703.576 2.70569 -1.29354 0
M  V30 7610 H 701.129 1.39355 -0.707806 0
M  V30 7611 H 701.864 2.98695 1.263 0
M  V30 7612 H 701.649 3.91298 -0.250618 0
M  V30 7613 H 703.139 4.11364 0.719012 0
M  V30 7614 N 703.576 0.692616 1.41565 0
M  V30 7615 C 704.524 0.0139952 2.32596 0
M  V30 7616 C 705.518 -0.771691 1.50802 0
M  V30 7617 O 706.724 -0.677646 1.66757 0
M  V30 7618 H 703.099 -0.0142745 0.751865 0
M  V30 7619 H 705.07 0.798851 2.87508 0
M  V30 7620 C 703.819 -0.910602 3.35564 0
M  V30 7621 H 703.142 -0.315446 3.98554 0
M  V30 7622 H 704.582 -1.3538 4.01806 0
M  V30 7623 C 703.041 -2.02539 2.6922 0
M  V30 7624 O 703.571 -3.11386 2.53775 0
M  V30 7625 N 701.777 -1.80227 2.27962 0
M  V30 7626 H 701.324 -0.917054 2.40724 0
M  V30 7627 H 701.282 -2.55001 1.83907 0
M  V30 7628 N 705.054 -1.51416 0.437162 0
M  V30 7629 C 706.294 -2.03995 -0.128538 0
M  V30 7630 C 706.658 -1.31417 -1.39977 0
M  V30 7631 O 707.859 -1.74369 -2.0457 0
M  V30 7632 C 706.13 -3.55757 -0.342317 0
M  V30 7633 S 707.689 -4.3006 -0.871446 0
M  V30 7634 H 704.507 -0.710283 -0.0319322 0
M  V30 7635 H 707.109 -1.86177 0.596526 0
M  V30 7636 H 705.813 -4.06148 0.589233 0
M  V30 7637 H 705.344 -3.77869 -1.09447 0
M  V30 7638 H 707.359 -4.47248 -2.14903 0
M  V30 7639 N 706.532 -0.168513 -1.56696 0
M  V30 7640 C 707.76 0.483503 -2.01171 0
M  V30 7641 C 708.175 1.56994 -1.04872 0
M  V30 7642 O 707.532 1.82434 -0.0491337 0
M  V30 7643 C 707.583 1.0644 -3.45475 0
M  V30 7644 O 707.304 0.0213375 -4.38095 0
M  V30 7645 C 708.805 1.79493 -4.05336 0
M  V30 7646 H 706.025 0.124002 -0.659443 0
M  V30 7647 H 708.569 -0.269419 -2.02717 0
M  V30 7648 H 706.724 1.76784 -3.44712 0
M  V30 7649 H 707.138 0.449837 -5.22567 0
M  V30 7650 H 708.612 2.15401 -5.08238 0
M  V30 7651 H 709.089 2.68889 -3.47269 0
M  V30 7652 H 709.695 1.13798 -4.09793 0
M  V30 7653 N 708.01 1.57248 0.105221 0
M  V30 7654 C 709.238 1.89768 0.82437 0
M  V30 7655 C 709.653 0.761192 1.72775 0
M  V30 7656 O 709.01 -0.267342 1.80531 0
M  V30 7657 C 709.061 3.2184 1.64625 0
M  V30 7658 O 708.782 4.31115 0.779217 0
M  V30 7659 C 710.283 3.68155 2.46935 0
M  V30 7660 H 707.503 0.628031 0.236259 0
M  V30 7661 H 710.047 2.04321 0.085485 0
M  V30 7662 H 708.202 3.08915 2.33775 0
M  V30 7663 H 708.616 5.06897 1.34745 0
M  V30 7664 H 710.09 4.6329 3.00111 0
M  V30 7665 H 710.567 2.95492 3.24932 0
M  V30 7666 H 711.173 3.83914 1.83002 0
M  V30 7667 N 709.488 -0.375779 1.53054 0
M  V30 7668 C 710.451 -1.44254 1.7811 0
M  V30 7669 C 711.451 -1.47018 0.651328 0
M  V30 7670 O 712.641 -1.47957 0.919472 0
M  V30 7671 C 709.773 -2.8345 1.89391 0
M  V30 7672 H 710.966 -1.23316 2.73374 0
M  V30 7673 H 708.519 -0.608312 1.43977 0
M  V30 7674 H 709.254 -3.09716 0.961589 0
M  V30 7675 H 709.039 -2.82844 2.71555 0
M  V30 7676 H 710.529 -3.60722 2.10404 0
M  V30 7677 N 710.966 -1.44241 -0.634997 0
M  V30 7678 C 711.914 -1.51103 -1.76835 0
M  V30 7679 C 712.908 -0.383051 -1.65012 0
M  V30 7680 O 714.114 -0.557832 -1.71138 0
M  V30 7681 H 710.489 -0.474076 -0.583743 0
M  V30 7682 H 712.46 -2.46499 -1.68169 0
M  V30 7683 C 711.209 -1.4687 -3.15158 0
M  V30 7684 H 710.532 -2.32979 -3.24901 0
M  V30 7685 H 711.972 -1.55731 -3.94365 0
M  V30 7686 C 710.431 -0.188884 -3.3637 0
M  V30 7687 O 710.961 0.742487 -3.94778 0
M  V30 7688 N 709.167 -0.0932516 -2.9045 0
M  V30 7689 H 708.714 -0.852004 -2.43102 0
M  V30 7690 H 708.672 0.762308 -3.05018 0
M  V30 7691 N 712.444 0.87505 -1.31075 0
M  V30 7692 C 713.376 1.98773 -1.14114 0
M  V30 7693 C 714.389 1.62595 -0.0816119 0
M  V30 7694 O 715.578 1.75449 -0.32861 0
M  V30 7695 C 712.678 3.31159 -0.720224 0
M  V30 7696 C 711.851 3.9571 -1.86366 0
M  V30 7697 C 710.91 5.06407 -1.42965 0
M  V30 7698 O 709.936 5.27501 -2.13848 0
M  V30 7699 N 711.138 5.79649 -0.314194 0
M  V30 7700 H 713.903 2.1387 -2.09951 0
M  V30 7701 H 711.464 1.04873 -1.23342 0
M  V30 7702 H 713.456 4.0259 -0.412687 0
M  V30 7703 H 712.026 3.12257 0.146396 0
M  V30 7704 H 711.246 3.17324 -2.33879 0
M  V30 7705 H 712.534 4.35576 -2.62966 0
M  V30 7706 H 711.932 5.65025 0.276228 0
M  V30 7707 H 710.489 6.51766 -0.0661641 0
M  V30 7708 N 713.922 1.13953 1.08869 0
M  V30 7709 C 714.87 0.817664 2.17754 0
M  V30 7710 C 715.864 -0.202444 1.68186 0
M  V30 7711 O 717.07 -0.0590159 1.79903 0
M  V30 7712 H 713.445 0.246671 0.710392 0
M  V30 7713 H 715.416 1.74401 2.4213 0
M  V30 7714 C 714.165 0.3063 3.46348 0
M  V30 7715 H 713.488 1.08259 3.84864 0
M  V30 7716 H 714.928 0.119584 4.23831 0
M  V30 7717 C 713.387 -0.969158 3.22659 0
M  V30 7718 O 713.917 -2.04386 3.45817 0
M  V30 7719 N 712.123 -0.902516 2.7623 0
M  V30 7720 H 711.67 -0.027801 2.57585 0
M  V30 7721 H 711.628 -1.75649 2.60758 0
M  V30 7722 N 715.4 -1.26948 0.933913 0
M  V30 7723 C 716.64 -1.9585 0.585003 0
M  V30 7724 C 717.004 -1.71722 -0.858802 0
M  V30 7725 O 718.205 -2.34366 -1.31629 0
M  V30 7726 C 716.476 -3.45638 0.909352 0
M  V30 7727 S 718.035 -4.33656 0.669892 0
M  V30 7728 H 714.853 -0.677485 0.215721 0
M  V30 7729 H 717.455 -1.54051 1.20368 0
M  V30 7730 H 716.159 -3.60697 1.9577 0
M  V30 7731 H 715.69 -3.92401 0.280115 0
M  V30 7732 H 717.705 -4.93975 -0.469378 0
M  V30 7733 N 716.879 -0.700114 -1.41195 0
M  V30 7734 C 718.125 -0.233351 -2.01453 0
M  V30 7735 C 718.458 1.16548 -1.55339 0
M  V30 7736 O 717.733 1.78756 -0.766575 0
M  V30 7737 C 718.016 -0.2961 -3.58881 0
M  V30 7738 C 717.869 -1.7322 -4.15108 0
M  V30 7739 C 719.188 0.341525 -4.38773 0
M  V30 7740 H 716.307 -0.0862667 -0.731934 0
M  V30 7741 H 718.949 -0.889693 -1.67882 0
M  V30 7742 H 717.099 0.262736 -3.87611 0
M  V30 7743 H 718.771 -2.34523 -3.97236 0
M  V30 7744 H 717.014 -2.2649 -3.69979 0
M  V30 7745 H 717.685 -1.7276 -5.24269 0
M  V30 7746 H 720.161 -0.134461 -4.15883 0
M  V30 7747 H 719.037 0.267098 -5.4825 0
M  V30 7748 H 719.298 1.42289 -4.18577 0
M  V30 7749 N 718.357 1.51182 -0.445186 0
M  V30 7750 C 719.305 2.29531 0.376597 0
M  V30 7751 C 720.299 1.35711 1.01385 0
M  V30 7752 O 721.505 1.53018 0.947922 0
M  V30 7753 H 717.88 0.738803 0.140267 0
M  V30 7754 H 719.851 2.96838 -0.304958 0
M  V30 7755 C 718.6 3.1552 1.4609 0
M  V30 7756 H 717.923 3.87605 0.979912 0
M  V30 7757 H 719.363 3.73384 2.009 0
M  V30 7758 C 717.822 2.31406 2.44852 0
M  V30 7759 O 718.352 1.97912 3.49562 0
M  V30 7760 N 716.558 1.94478 2.15932 0
M  V30 7761 H 716.105 2.21917 1.30808 0
M  V30 7762 H 716.063 1.38498 2.82251 0
M  V30 7763 N 719.835 0.176821 1.56605 0
M  V30 7764 C 720.782 -0.751312 2.18229 0
M  V30 7765 C 721.752 -1.22297 1.12395 0
M  V30 7766 O 722.937 -1.29015 1.40569 0
M  V30 7767 C 720.077 -1.97291 2.83143 0
M  V30 7768 C 719.19 -1.54431 4.03454 0
M  V30 7769 C 718.325 -2.72 4.56278 0
M  V30 7770 C 717.364 -2.25657 5.68986 0
M  V30 7771 N 716.501 -3.36338 6.16296 0
M  V30 7772 H 721.341 -0.219033 2.97194 0
M  V30 7773 H 718.878 -0.0963803 1.46784 0
M  V30 7774 H 720.836 -2.68949 3.1894 0
M  V30 7775 H 719.466 -2.4788 2.06773 0
M  V30 7776 H 718.518 -0.724273 3.73441 0
M  V30 7777 H 719.83 -1.16417 4.85024 0
M  V30 7778 H 718.984 -3.51806 4.94285 0
M  V30 7779 H 717.723 -3.13277 3.73777 0
M  V30 7780 H 716.728 -1.44299 5.30526 0
M  V30 7781 H 717.953 -1.85432 6.53293 0
M  V30 7782 H 715.899 -3.7718 5.36723 0
M  V30 7783 H 715.816 -3.02435 6.9287 0
M  V30 7784 H 717.084 -4.16413 6.58954 0
M  V30 7785 N 721.313 -1.57302 -0.09688 0
M  V30 7786 C 722.538 -1.9058 -0.818169 0
M  V30 7787 C 722.963 -0.770921 -1.71576 0
M  V30 7788 O 722.321 0.277588 -1.79162 0
M  V30 7789 C 722.369 -3.22714 -1.60898 0
M  V30 7790 O 721.473 -3.10178 -2.71779 0
M  V30 7791 H 720.814 -0.624759 -0.224882 0
M  V30 7792 H 723.344 -2.04471 -0.07264 0
M  V30 7793 H 723.354 -3.55978 -1.99358 0
M  V30 7794 H 722.029 -4.04899 -0.950227 0
M  V30 7795 H 720.606 -2.88424 -2.3636 0
M  V30 7796 N 722.791 0.367657 -1.53252 0
M  V30 7797 C 723.738 1.45028 -1.79543 0
M  V30 7798 C 724.708 1.53288 -0.63969 0
M  V30 7799 O 725.893 1.69209 -0.881653 0
M  V30 7800 C 723.033 2.82 -1.98923 0
M  V30 7801 C 722.146 2.82722 -3.26638 0
M  V30 7802 C 721.281 4.11257 -3.36216 0
M  V30 7803 C 720.32 4.06113 -4.57972 0
M  V30 7804 N 719.457 5.26293 -4.64715 0
M  V30 7805 H 724.297 1.21908 -2.71923 0
M  V30 7806 H 721.834 0.591011 -1.34705 0
M  V30 7807 H 723.792 3.61568 -2.08146 0
M  V30 7808 H 722.422 3.03523 -1.09881 0
M  V30 7809 H 721.474 1.95399 -3.26379 0
M  V30 7810 H 722.786 2.74794 -4.16281 0
M  V30 7811 H 721.94 4.99239 -3.44739 0
M  V30 7812 H 720.679 4.21935 -2.44586 0
M  V30 7813 H 719.684 3.16517 -4.49552 0
M  V30 7814 H 720.909 3.97039 -5.50942 0
M  V30 7815 H 718.855 5.37561 -3.75985 0
M  V30 7816 H 718.772 5.20526 -5.4826 0
M  V30 7817 H 720.04 6.16113 -4.77519 0
M  V30 7818 N 724.269 1.44576 0.627338 0
M  V30 7819 C 725.199 1.54562 1.75022 0
M  V30 7820 C 726.18 0.398378 1.65369 0
M  V30 7821 O 727.365 0.61899 1.84071 0
M  V30 7822 C 724.495 1.49309 3.13567 0
M  V30 7823 C 723.449 2.62549 3.38012 0
M  V30 7824 C 722.775 2.42348 4.76625 0
M  V30 7825 C 724.075 4.04678 3.30202 0
M  V30 7826 H 725.769 2.4855 1.66922 0
M  V30 7827 H 723.315 1.19624 0.801636 0
M  V30 7828 H 725.268 1.54895 3.919 0
M  V30 7829 H 723.992 0.518392 3.2246 0
M  V30 7830 H 722.651 2.56358 2.62061 0
M  V30 7831 H 722.299 1.43062 4.82226 0
M  V30 7832 H 721.999 3.18273 4.93939 0
M  V30 7833 H 723.523 2.49758 5.57183 0
M  V30 7834 H 724.937 4.12217 3.98435 0
M  V30 7835 H 723.334 4.80836 3.5905 0
M  V30 7836 H 724.404 4.2798 2.27949 0
M  V30 7837 N 725.747 -0.868086 1.31537 0
M  V30 7838 C 726.677 -1.99131 1.21939 0
M  V30 7839 C 727.658 -1.69768 0.106166 0
M  V30 7840 O 728.843 -1.92006 0.291081 0
M  V30 7841 C 725.973 -3.34676 0.927879 0
M  V30 7842 C 724.927 -3.7835 2.00088 0
M  V30 7843 C 724.253 -5.11375 1.56203 0
M  V30 7844 C 725.553 -3.95256 3.41424 0
M  V30 7845 H 727.247 -2.07419 2.15911 0
M  V30 7846 H 724.793 -0.996569 1.03945 0
M  V30 7847 H 726.746 -4.12793 0.847327 0
M  V30 7848 H 725.47 -3.26565 -0.0475042 0
M  V30 7849 H 724.129 -3.02474 2.07135 0
M  V30 7850 H 723.777 -4.99709 0.57445 0
M  V30 7851 H 723.477 -5.41568 2.27985 0
M  V30 7852 H 725.001 -5.92001 1.49558 0
M  V30 7853 H 726.415 -4.63764 3.3704 0
M  V30 7854 H 724.812 -4.36849 4.1144 0
M  V30 7855 H 725.882 -2.98579 3.82072 0
M  V30 7856 N 727.225 -1.14528 -1.08264 0
M  V30 7857 C 728.453 -0.937964 -1.84418 0
M  V30 7858 C 728.868 0.51357 -1.81681 0
M  V30 7859 O 728.225 1.35591 -1.22153 0
M  V30 7860 C 728.276 -1.43272 -3.31897 0
M  V30 7861 O 727.997 -2.82738 -3.34651 0
M  V30 7862 C 729.498 -1.26555 -4.24851 0
M  V30 7863 H 726.718 -0.333704 -0.582136 0
M  V30 7864 H 729.262 -1.52076 -1.36723 0
M  V30 7865 H 727.417 -0.892653 -3.76975 0
M  V30 7866 H 727.831 -3.04971 -4.26724 0
M  V30 7867 H 729.305 -1.66031 -5.26439 0
M  V30 7868 H 729.782 -0.208589 -4.38704 0
M  V30 7869 H 730.388 -1.79423 -3.856 0
M  V30 7870 N 728.703 1.26451 -0.940633 0
M  V30 7871 C 729.98 1.88947 -0.505811 0
M  V30 7872 C 730.36 1.85011 1.01657 0
M  V30 7873 O 729.708 1.30406 1.87634 0
M  V30 7874 C 729.918 3.32304 -1.06654 0
M  V30 7875 C 731.266 4.09153 -1.13486 0
M  V30 7876 O 732.29 3.41371 -1.01708 0
M  V30 7877 O 731.149 5.30369 -1.31797 0
M  V30 7878 H 728.243 0.810422 -0.164759 0
M  V30 7879 H 730.789 1.34625 -1.03316 0
M  V30 7880 H 729.561 3.29527 -2.11015 0
M  V30 7881 H 729.184 3.94164 -0.521603 0
M  V30 7882 N 730.181 0.707592 1.40822 0
M  V30 7883 C 731.427 0.244031 2.01326 0
M  V30 7884 C 731.76 -1.15722 1.55955 0
M  V30 7885 O 731.035 -1.78347 0.776044 0
M  V30 7886 C 731.318 0.315128 3.58718 0
M  V30 7887 C 731.171 1.75419 4.14184 0
M  V30 7888 C 732.49 -0.318251 4.38948 0
M  V30 7889 H 729.609 0.0901471 0.731466 0
M  V30 7890 H 732.251 0.898584 1.67408 0
M  V30 7891 H 730.401 -0.242176 3.87744 0
M  V30 7892 H 732.073 2.36626 3.95987 0
M  V30 7893 H 730.316 2.28449 3.68773 0
M  V30 7894 H 730.987 1.75538 5.23345 0
M  V30 7895 H 733.463 0.156514 4.15806 0
M  V30 7896 H 732.339 -0.238019 5.48384 0
M  V30 7897 H 732.6 -1.40067 4.19325 0
M  V30 7898 O 731.698 -1.50133 0.595165 0
M  V30 7899 H 732.389 -1.93424 0.103425 0
M  V30 END ATOM
M  V30 BEGIN BOND
M  V30 END BOND
M  V30 END CTAB
M  END
$$$$
