drugbank_target|P31949 Protein S100-A11 (DB02482)
 OpenBabel12092120243D

  0  0  0     0  0            999 V3000
M  V30 BEGIN CTAB
M  V30 COUNTS 1642 1655 0 0 0
M  V30 BEGIN ATOM
M  V30 1 H -0.908 1.98254 -0.117106 0
M  V30 2 N 0 1.576 0 0
M  V30 3 C 0.933 2.03868 1.02534 0
M  V30 4 C 1.911 0.928543 1.3348 0
M  V30 5 O 3.095 1.19667 1.45644 0
M  V30 6 C 0.222 2.43627 2.35294 0
M  V30 7 C -0.732 3.65373 2.2001 0
M  V30 8 S 0.101 5.13292 1.52614 0
M  V30 9 C 1.257 5.56322 2.86805 0
M  V30 10 H 1.49 2.90518 0.631377 0
M  V30 11 H -0.977 1.52953 0.210867 0
M  V30 12 H 0.981 2.67203 3.11629 0
M  V30 13 H -0.358 1.57376 2.7183 0
M  V30 14 H -1.165 3.90944 3.18086 0
M  V30 15 H -1.563 3.418 1.51819 0
M  V30 16 H 0.729 5.58782 3.83104 0
M  V30 17 H 1.672 6.56266 2.65933 0
M  V30 18 H 2.08 4.83886 2.90714 0
M  V30 19 N 1.4781 -0.272755 1.55222 0
M  V30 20 C 2.4411 -1.32041 1.87344 0
M  V30 21 C 3.4411 -1.42342 0.74803 0
M  V30 22 O 4.6311 -1.41488 1.0162 0
M  V30 23 C 1.7631 -2.70173 2.07893 0
M  V30 24 H 2.9561 -1.04789 2.80997 0
M  V30 25 H 0.5091 -0.51083 1.47717 0
M  V30 26 H 1.2441 -3.02605 1.16622 0
M  V30 27 H 1.0291 -2.64082 2.89833 0
M  V30 28 H 2.5191 -3.45869 2.34017 0
M  V30 29 N 2.9562 -1.48159 -0.537278 0
M  V30 30 C 3.9032 -1.62138 -1.64256 0
M  V30 31 C 4.8732 -0.463668 -1.59497 0
M  V30 32 O 6.0582 -0.686241 -1.78032 0
M  V30 33 C 3.1982 -1.66028 -3.02537 0
M  V30 34 C 2.3112 -2.92855 -3.17585 0
M  V30 35 C 1.4462 -2.87952 -4.46382 0
M  V30 36 C 0.4852 -4.09516 -4.54932 0
M  V30 37 N -0.3778 -4.02733 -5.75109 0
M  V30 38 H 4.4622 -2.56529 -1.51647 0
M  V30 39 H 1.9992 -1.27224 -0.738414 0
M  V30 40 H 3.9572 -1.66265 -3.82638 0
M  V30 41 H 2.5872 -0.751331 -3.13934 0
M  V30 42 H 1.6392 -3.02395 -2.30784 0
M  V30 43 H 2.9512 -3.82822 -3.19764 0
M  V30 44 H 2.1052 -2.8655 -5.34765 0
M  V30 45 H 0.8442 -1.95702 -4.46712 0
M  V30 46 H -0.1508 -4.11201 -3.64957 0
M  V30 47 H 1.0742 -5.02917 -4.56346 0
M  V30 48 H -0.9798 -3.13299 -5.76351 0
M  V30 49 H -1.0628 -4.86397 -5.78752 0
M  V30 50 H 0.2052 -4.05379 -6.65799 0
M  V30 51 N 4.4343 0.785586 -1.36625 0
M  V30 52 C 5.6833 1.53883 -1.30396 0
M  V30 53 C 5.9963 1.95271 0.113452 0
M  V30 54 O 7.2023 2.69858 0.298142 0
M  V30 55 C 5.6583 2.77808 -2.28802 0
M  V30 56 C 5.2663 2.43574 -3.75999 0
M  V30 57 C 7.0103 3.55783 -2.31558 0
M  V30 58 C 4.9173 3.63919 -4.66173 0
M  V30 59 H 3.8473 0.577678 -0.484566 0
M  V30 60 H 6.4983 0.861705 -1.62009 0
M  V30 61 H 4.8803 3.47339 -1.90188 0
M  V30 62 H 6.0543 1.81916 -4.23371 0
M  V30 63 H 4.3693 1.78803 -3.76056 0
M  V30 64 H 6.9663 4.45205 -2.96137 0
M  V30 65 H 7.3093 3.94644 -1.3252 0
M  V30 66 H 7.8423 2.93235 -2.68809 0
M  V30 67 H 4.5813 3.3015 -5.66287 0
M  V30 68 H 4.1013 4.2473 -4.23515 0
M  V30 69 H 5.7803 4.30901 -4.82632 0
M  V30 70 N 5.9124 1.20967 1.01018 0
M  V30 71 C 7.1374 1.0503 1.78839 0
M  V30 72 C 7.5624 -0.395752 1.8389 0
M  V30 73 O 6.9204 -1.28529 1.27867 0
M  V30 74 C 6.9684 1.64602 3.2084 0
M  V30 75 O 6.0724 0.887988 4.02726 0
M  V30 76 H 5.4134 0.369987 0.551367 0
M  V30 77 H 7.9434 1.60399 1.27018 0
M  V30 78 H 7.9534 1.68607 3.71532 0
M  V30 79 H 6.6284 2.69841 3.16479 0
M  V30 80 H 5.2054 0.922648 3.61305 0
M  V30 81 N 7.3905 -1.2043 1.01659 0
M  V30 82 C 8.6155 -1.94318 0.724942 0
M  V30 83 C 9.0405 -1.74266 -0.708034 0
M  V30 84 O 8.3985 -1.03694 -1.48719 0
M  V30 85 C 8.4465 -3.44486 1.06591 0
M  V30 86 O 7.5505 -4.12017 0.177599 0
M  V30 87 H 6.8915 -0.60708 0.26898 0
M  V30 88 H 9.4215 -1.52861 1.35995 0
M  V30 89 H 9.4315 -3.95106 1.01762 0
M  V30 90 H 8.1065 -3.58404 2.10997 0
M  V30 91 H 6.6835 -3.71821 0.283421 0
M  V30 92 N 8.8686 -0.792821 -1.36206 0
M  V30 93 C 10.2796 -0.429513 -1.81692 0
M  V30 94 C 10.6306 1.04695 -1.65932 0
M  V30 95 O 9.7556 1.81256 -1.18218 0
M  V30 96 C 10.3506 -0.772831 -3.29868 0
M  V30 97 C 8.9096 -0.462307 -3.7355 0
M  V30 98 C 8.0566 -1.00569 -2.5842 0
M  V30 99 H 11.0076 -0.985672 -1.24379 0
M  V30 100 H 11.0286 -0.0651928 -3.80444 0
M  V30 101 H 10.5406 -1.84747 -3.41307 0
M  V30 102 H 8.6416 0.604158 -3.67669 0
M  V30 103 H 8.7546 -0.985299 -4.68859 0
M  V30 104 H 7.1186 -0.428734 -2.51066 0
M  V30 105 H 7.9016 -2.08616 -2.72643 0
M  V30 106 N 10.3467 1.47872 -0.545128 0
M  V30 107 C 11.5747 2.06889 -0.021084 0
M  V30 108 C 11.9897 1.39955 1.2672 0
M  V30 109 O 11.3467 0.492036 1.75742 0
M  V30 110 C 11.3977 3.60996 0.190817 0
M  V30 111 O 11.1187 4.25419 -1.04644 0
M  V30 112 C 12.6197 4.36849 0.753521 0
M  V30 113 H 9.8397 0.669785 -0.0403635 0
M  V30 114 H 12.3837 1.90049 -0.755095 0
M  V30 115 H 10.5387 3.77391 0.87492 0
M  V30 116 H 10.9527 5.17785 -0.836611 0
M  V30 117 H 12.4267 5.45399 0.851139 0
M  V30 118 H 12.9037 4.02306 1.762 0
M  V30 119 H 13.5097 4.25169 0.105503 0
M  V30 120 N 11.8248 0.280983 1.55075 0
M  V30 121 C 12.7348 -0.61388 2.26426 0
M  V30 122 C 13.7508 -1.16521 1.29224 0
M  V30 123 O 14.9268 -1.19426 1.62171 0
M  V30 124 C 11.9918 -1.7788 2.9759 0
M  V30 125 C 11.0528 -1.26355 4.10284 0
M  V30 126 C 10.2858 -2.37295 4.78045 0
M  V30 127 O 10.5088 -3.56777 4.45047 0
M  V30 128 O 9.4428 -2.05119 5.65871 0
M  V30 129 H 13.2688 -0.0356932 3.03679 0
M  V30 130 H 10.8538 0.0481686 1.49322 0
M  V30 131 H 12.7358 -2.45791 3.42293 0
M  V30 132 H 11.4108 -2.34397 2.23249 0
M  V30 133 H 10.3178 -0.550735 3.70024 0
M  V30 134 H 11.6508 -0.744065 4.86543 0
M  V30 135 N 13.3029 -1.57598 0.00835791 0
M  V30 136 C 14.5309 -1.95214 -0.68549 0
M  V30 137 C 14.9459 -0.883706 -1.66841 0
M  V30 138 O 14.3029 0.136565 -1.81988 0
M  V30 139 C 14.3539 -3.32865 -1.41007 0
M  V30 140 O 14.0749 -4.35609 -0.466552 0
M  V30 141 C 15.5759 -3.84991 -2.19765 0
M  V30 142 H 12.7959 -0.643422 -0.190392 0
M  V30 143 H 15.3399 -2.04406 0.0619607 0
M  V30 144 H 13.4949 -3.24956 -2.10908 0
M  V30 145 H 13.9089 -5.15288 -0.978699 0
M  V30 146 H 15.3829 -4.8371 -2.65948 0
M  V30 147 H 15.8599 -3.18137 -3.02796 0
M  V30 148 H 16.4659 -3.96103 -1.54864 0
M  V30 149 N 14.781 0.264519 -1.55364 0
M  V30 150 C 15.691 1.34902 -1.91934 0
M  V30 151 C 16.707 1.53595 -0.817593 0
M  V30 152 O 17.883 1.67558 -1.11742 0
M  V30 153 C 14.948 2.68676 -2.19121 0
M  V30 154 C 14.009 2.58657 -3.4263 0
M  V30 155 C 13.242 3.86051 -3.68511 0
M  V30 156 O 13.465 4.87126 -2.96757 0
M  V30 157 O 12.399 3.85744 -4.62045 0
M  V30 158 H 16.225 1.06883 -2.8427 0
M  V30 159 H 13.81 0.463775 -1.42019 0
M  V30 160 H 15.692 3.47759 -2.37995 0
M  V30 161 H 14.367 2.96463 -1.29966 0
M  V30 162 H 13.274 1.7792 -3.29082 0
M  V30 163 H 14.607 2.35818 -4.32031 0
M  V30 164 N 16.2591 1.48442 0.529413 0
M  V30 165 C 17.6751 1.34575 0.858004 0
M  V30 166 C 17.8751 0.3572 1.98309 0
M  V30 167 O 16.9311 -0.221379 2.51528 0
M  V30 168 C 18.2441 2.74617 1.22499 0
M  V30 169 C 19.7921 2.83109 1.33484 0
M  V30 170 C 20.2671 4.23854 1.73526 0
M  V30 171 N 21.7581 4.2653 1.80628 0
M  V30 172 C 22.4931 5.32372 2.12997 0
M  V30 173 N 21.9891 6.48491 2.43786 0
M  V30 174 N 23.7821 5.19766 2.14008 0
M  V30 175 H 15.9331 2.1133 -0.212925 0
M  V30 176 H 18.1961 0.947439 -0.0326199 0
M  V30 177 H 17.9021 3.4852 0.471905 0
M  V30 178 H 17.7761 3.08177 2.17501 0
M  V30 179 H 20.1631 2.09462 2.0787 0
M  V30 180 H 20.2441 2.53168 0.366027 0
M  V30 181 H 19.8881 4.98018 0.997013 0
M  V30 182 H 19.8181 4.5124 2.71459 0
M  V30 183 H 22.3091 3.42772 1.59108 0
M  V30 184 H 22.6221 7.24993 2.67592 0
M  V30 185 H 20.9671 6.51765 2.41304 0
M  V30 186 H 24.1581 4.28066 1.89412 0
M  V30 187 H 24.3311 6.02354 2.38902 0
M  V30 188 N 17.7372 -0.778329 1.37039 0
M  V30 189 C 18.9772 -1.54973 1.33276 0
M  V30 190 C 19.3412 -1.91816 -0.0839376 0
M  V30 191 O 20.5422 -2.6767 -0.246228 0
M  V30 192 C 18.8132 -2.78517 2.23971 0
M  V30 193 S 20.3722 -3.6865 2.37997 0
M  V30 194 H 17.1902 -0.530639 0.473226 0
M  V30 195 H 19.7922 -0.915806 1.72723 0
M  V30 196 H 18.4962 -2.4952 3.25835 0
M  V30 197 H 18.0272 -3.46875 1.85584 0
M  V30 198 H 20.0422 -4.70182 1.58567 0
M  V30 199 N 19.2153 -1.21501 -1.00376 0
M  V30 200 C 20.4643 -1.02718 -1.73586 0
M  V30 201 C 20.7773 0.439589 -1.90596 0
M  V30 202 O 21.9833 0.746848 -2.61026 0
M  V30 203 C 20.4393 -1.78929 -3.1227 0
M  V30 204 C 20.0473 -3.29783 -3.03228 0
M  V30 205 C 21.7913 -1.68557 -3.89601 0
M  V30 206 C 19.6983 -3.98479 -4.36999 0
M  V30 207 H 18.6283 -0.380733 -0.650814 0
M  V30 208 H 21.2793 -1.45248 -1.1214 0
M  V30 209 H 19.6613 -1.29192 -3.74333 0
M  V30 210 H 20.8353 -3.86832 -2.50395 0
M  V30 211 H 19.1503 -3.40711 -2.39385 0
M  V30 212 H 21.7473 -2.17211 -4.88593 0
M  V30 213 H 22.0903 -0.644021 -4.11288 0
M  V30 214 H 22.6233 -2.15778 -3.34193 0
M  V30 215 H 19.3623 -5.02841 -4.20513 0
M  V30 216 H 18.8823 -3.46219 -4.89788 0
M  V30 217 H 20.5613 -4.03462 -5.05794 0
M  V30 218 N 20.6934 1.19889 -1.02296 0
M  V30 219 C 21.6034 2.26571 -0.608508 0
M  V30 220 C 22.6194 1.70299 0.356964 0
M  V30 221 O 23.7954 2.00235 0.216326 0
M  V30 222 C 20.8604 3.46677 0.0402814 0
M  V30 223 C 19.9214 4.18153 -0.97194 0
M  V30 224 C 19.1544 5.32525 -0.354016 0
M  V30 225 O 19.3774 5.64112 0.844604 0
M  V30 226 O 18.3114 5.92242 -1.07391 0
M  V30 227 H 22.1374 2.64251 -1.49684 0
M  V30 228 H 19.7224 1.26629 -0.792809 0
M  V30 229 H 21.6044 4.19475 0.402324 0
M  V30 230 H 20.2794 3.10858 0.902707 0
M  V30 231 H 19.1864 3.47499 -1.38546 0
M  V30 232 H 20.5194 4.57927 -1.80454 0
M  V30 233 N 22.1715 0.800033 1.35784 0
M  V30 234 C 23.3965 0.388511 2.03729 0
M  V30 235 C 23.8215 -0.990481 1.5991 0
M  V30 236 O 23.1795 -1.64013 0.772612 0
M  V30 237 C 23.2275 0.4726 3.5749 0
M  V30 238 O 22.3315 -0.51646 4.09153 0
M  V30 239 H 21.6725 0.163271 0.643614 0
M  V30 240 H 24.2025 1.0841 1.73518 0
M  V30 241 H 24.2125 0.34003 4.06581 0
M  V30 242 H 22.8875 1.47848 3.88734 0
M  V30 243 H 21.4645 -0.344673 3.71304 0
M  V30 244 N 23.6496 -1.47581 0.552962 0
M  V30 245 C 24.5796 -2.32762 -0.185451 0
M  V30 246 C 25.5606 -1.43527 -0.912905 0
M  V30 247 O 26.7456 -1.72388 -0.894201 0
M  V30 248 C 23.8756 -3.25219 -1.21859 0
M  V30 249 C 22.8296 -4.23661 -0.607864 0
M  V30 250 C 22.1556 -5.05413 -1.74533 0
M  V30 251 C 23.4556 -5.20481 0.435582 0
M  V30 252 H 25.1496 -2.94749 0.525684 0
M  V30 253 H 22.6956 -1.41738 0.254251 0
M  V30 254 H 24.6486 -3.8365 -1.7433 0
M  V30 255 H 23.3726 -2.61279 -1.95961 0
M  V30 256 H 22.0316 -3.66451 -0.104489 0
M  V30 257 H 21.6796 -4.3788 -2.47529 0
M  V30 258 H 21.3796 -5.72059 -1.34249 0
M  V30 259 H 22.9036 -5.66701 -2.27338 0
M  V30 260 H 24.3176 -5.733 -0.00290157 0
M  V30 261 H 22.7146 -5.95305 0.757067 0
M  V30 262 H 23.7846 -4.66217 1.33303 0
M  V30 263 N 25.1277 -0.289203 -1.54924 0
M  V30 264 C 26.3767 0.324231 -1.99077 0
M  V30 265 C 26.6897 1.5591 -1.18117 0
M  V30 266 O 27.8957 2.24637 -1.52481 0
M  V30 267 C 26.3517 0.628209 -3.54375 0
M  V30 268 C 25.9597 -0.587647 -4.44129 0
M  V30 269 C 27.7037 1.20349 -4.07083 0
M  V30 270 C 25.6107 -0.257475 -5.90839 0
M  V30 271 H 24.5407 0.124924 -0.743579 0
M  V30 272 H 27.1917 -0.396063 -1.79175 0
M  V30 273 H 25.5737 1.40778 -3.70132 0
M  V30 274 H 26.7477 -1.36418 -4.40144 0
M  V30 275 H 25.0627 -1.08074 -4.0213 0
M  V30 276 H 27.6597 1.46456 -5.14252 0
M  V30 277 H 28.0027 2.14195 -3.56968 0
M  V30 278 H 28.5357 0.485889 -3.94821 0
M  V30 279 H 25.2747 -1.16419 -6.45079 0
M  V30 280 H 24.7947 0.482018 -5.9786 0
M  V30 281 H 26.4737 0.145238 -6.46837 0
M  V30 282 N 26.6058 1.57591 -0.0167156 0
M  V30 283 C 27.5688 2.08393 0.954204 0
M  V30 284 C 28.5688 0.996531 1.26198 0
M  V30 285 O 29.7588 1.25858 1.20438 0
M  V30 286 C 26.8908 2.5394 2.27436 0
M  V30 287 H 28.0838 2.95455 0.514451 0
M  V30 288 H 25.6368 1.54582 0.231089 0
M  V30 289 H 26.3718 1.70171 2.76066 0
M  V30 290 H 26.1568 3.33371 2.06412 0
M  V30 291 H 27.6468 2.93512 2.97053 0
M  V30 292 N 28.0839 -0.256276 1.55502 0
M  V30 293 C 29.3299 -0.987079 1.77157 0
M  V30 294 C 29.6629 -1.85327 0.580315 0
M  V30 295 O 28.9379 -1.89874 -0.421686 0
M  V30 296 C 29.2209 -1.85553 3.08613 0
M  V30 297 C 29.0739 -1.01816 4.38125 0
M  V30 298 C 30.3929 -2.8397 3.36228 0
M  V30 299 H 27.5119 -0.357428 0.644526 0
M  V30 300 H 30.1539 -0.258239 1.88237 0
M  V30 301 H 28.3039 -2.47695 2.99298 0
M  V30 302 H 29.9759 -0.416159 4.59419 0
M  V30 303 H 28.2189 -0.322178 4.32602 0
M  V30 304 H 28.8899 -1.65939 5.26468 0
M  V30 305 H 31.3659 -2.31964 3.45445 0
M  V30 306 H 30.2419 -3.41864 4.29442 0
M  V30 307 H 30.5029 -3.59955 2.56681 0
M  V30 308 N 29.562 -1.4872 -0.521534 0
M  V30 309 C 30.809 -1.57168 -1.27689 0
M  V30 310 C 31.137 -0.249275 -1.92896 0
M  V30 311 O 30.392 0.761162 -1.80291 0
M  V30 312 C 30.691 -2.66497 -2.38148 0
M  V30 313 C 30.357 -4.08664 -1.90538 0
M  V30 314 C 29.019 -4.47357 -1.77271 0
M  V30 315 C 31.371 -4.97724 -1.54663 0
M  V30 316 C 28.699 -5.72905 -1.26478 0
M  V30 317 C 31.051 -6.2377 -1.05329 0
M  V30 318 C 29.715 -6.61311 -0.906861 0
M  V30 319 H 28.985 -0.575117 -0.467249 0
M  V30 320 H 31.632 -1.82472 -0.581051 0
M  V30 321 H 29.937 -2.35085 -3.13437 0
M  V30 322 H 31.634 -2.70246 -2.96257 0
M  V30 323 H 28.224 -3.78111 -2.01816 0
M  V30 324 H 32.408 -4.68501 -1.63768 0
M  V30 325 H 27.664 -6.00709 -1.13835 0
M  V30 326 H 31.838 -6.9217 -0.76644 0
M  V30 327 H 29.465 -7.5848 -0.511083 0
M  V30 328 N 31.0401 0.771051 -1.3745 0
M  V30 329 C 31.9721 1.89352 -1.29146 0
M  V30 330 C 32.9851 1.61477 -0.207124 0
M  V30 331 O 34.1741 1.72382 -0.463324 0
M  V30 332 C 31.2741 3.24596 -0.974195 0
M  V30 333 C 30.4471 3.80111 -2.16413 0
M  V30 334 C 29.5061 4.93832 -1.81703 0
M  V30 335 O 28.5321 5.09382 -2.54006 0
M  V30 336 N 29.7341 5.75483 -0.761573 0
M  V30 337 H 32.4991 1.96991 -2.25864 0
M  V30 338 H 30.0601 0.950191 -1.31084 0
M  V30 339 H 32.0521 3.98193 -0.722828 0
M  V30 340 H 30.6221 3.12454 -0.0955527 0
M  V30 341 H 29.8421 2.98284 -2.57721 0
M  V30 342 H 31.1301 4.13932 -2.95867 0
M  V30 343 H 30.5281 5.65469 -0.161609 0
M  V30 344 H 29.0851 6.49302 -0.570064 0
M  V30 345 N 32.5182 1.22032 0.997298 0
M  V30 346 C 33.4652 0.986467 2.08656 0
M  V30 347 C 34.4352 -0.0902671 1.65855 0
M  V30 348 O 35.6202 0.0584294 1.90711 0
M  V30 349 C 32.7602 0.565569 3.40434 0
M  V30 350 C 31.8732 1.71259 3.96604 0
M  V30 351 C 31.0082 1.24011 5.16522 0
M  V30 352 C 30.0472 2.35896 5.64818 0
M  V30 353 N 29.1842 1.89726 6.7598 0
M  V30 354 H 34.0242 1.91892 2.27994 0
M  V30 355 H 31.5612 0.956199 1.11782 0
M  V30 356 H 33.5192 0.302738 4.161 0
M  V30 357 H 32.1492 -0.329879 3.2111 0
M  V30 358 H 31.2012 2.08986 3.17851 0
M  V30 359 H 32.5132 2.55436 4.28432 0
M  V30 360 H 31.6672 0.934395 5.99461 0
M  V30 361 H 30.4062 0.368487 4.86306 0
M  V30 362 H 29.4112 2.67261 4.8047 0
M  V30 363 H 30.6362 3.23567 5.97061 0
M  V30 364 H 28.5822 1.0492 6.47555 0
M  V30 365 H 28.4992 2.67471 7.07103 0
M  V30 366 H 29.7672 1.62211 7.62435 0
M  V30 367 N 33.9963 -1.19345 1.0293 0
M  V30 368 C 35.2263 -1.92717 0.744563 0
M  V30 369 C 35.6343 -1.75751 -0.700579 0
M  V30 370 O 34.9773 -1.07703 -1.48815 0
M  V30 371 C 35.0393 -3.44828 1.01657 0
M  V30 372 C 34.7033 -3.85564 2.45335 0
M  V30 373 C 35.7003 -3.90286 3.43472 0
M  V30 374 C 33.3853 -4.1719 2.79746 0
M  V30 375 C 35.3793 -4.26065 4.74075 0
M  V30 376 C 33.0663 -4.52642 4.10559 0
M  V30 377 C 34.0643 -4.57054 5.07534 0
M  V30 378 O 33.7523 -4.91685 6.36004 0
M  V30 379 H 33.4843 -0.618977 0.271742 0
M  V30 380 H 36.0383 -1.52415 1.37691 0
M  V30 381 H 34.2683 -3.85314 0.327084 0
M  V30 382 H 35.9573 -3.99437 0.721427 0
M  V30 383 H 36.7233 -3.66002 3.18225 0
M  V30 384 H 32.6023 -4.1294 2.04943 0
M  V30 385 H 36.1463 -4.29423 5.49765 0
M  V30 386 H 32.0433 -4.76383 4.35579 0
M  V30 387 H 32.8113 -5.09631 6.40483 0
M  V30 388 N 35.4744 -0.807222 -1.35358 0
M  V30 389 C 36.4374 -0.223665 -2.28106 0
M  V30 390 C 37.4374 0.589354 -1.4961 0
M  V30 391 O 38.6274 0.407745 -1.69361 0
M  V30 392 C 35.7594 0.688149 -3.33882 0
M  V30 393 H 36.9524 -1.04169 -2.81227 0
M  V30 394 H 34.5054 -0.577921 -1.45223 0
M  V30 395 H 35.2404 1.52984 -2.85948 0
M  V30 396 H 35.0254 0.10687 -3.91954 0
M  V30 397 H 36.5154 1.09075 -4.03104 0
M  V30 398 N 36.9525 1.47285 -0.560781 0
M  V30 399 C 38.2005 2.02064 -0.0379868 0
M  V30 400 C 38.5215 1.43711 1.31803 0
M  V30 401 O 37.7915 0.61362 1.86042 0
M  V30 402 H 36.3715 0.746918 -0.0110531 0
M  V30 403 H 39.0335 1.80648 -0.731598 0
M  V30 404 H 38.1295 3.12064 0.0474463 0
M  V30 405 N 38.4306 0.297415 1.54768 0
M  V30 406 C 39.3776 -0.580276 2.23386 0
M  V30 407 C 40.3476 -1.13238 1.21517 0
M  V30 408 O 41.5326 -1.17757 1.50126 0
M  V30 409 C 38.6726 -1.74801 2.97555 0
M  V30 410 C 37.7856 -1.22764 4.1419 0
M  V30 411 C 36.9206 -2.35895 4.75949 0
M  V30 412 C 35.9596 -1.80974 5.84735 0
M  V30 413 N 35.0966 -2.87664 6.40464 0
M  V30 414 H 39.9366 0.0114833 2.97998 0
M  V30 415 H 37.4736 0.0174361 1.4709 0
M  V30 416 H 39.4316 -2.43475 3.38786 0
M  V30 417 H 38.0616 -2.31145 2.25326 0
M  V30 418 H 37.1136 -0.433271 3.77924 0
M  V30 419 H 38.4256 -0.785551 4.92575 0
M  V30 420 H 37.5796 -3.12523 5.20014 0
M  V30 421 H 36.3186 -2.83429 3.96887 0
M  V30 422 H 35.3236 -1.02834 5.40097 0
M  V30 423 H 36.5486 -1.34348 6.65678 0
M  V30 424 H 34.4946 -3.34538 5.64287 0
M  V30 425 H 34.4116 -2.4794 7.14186 0
M  V30 426 H 35.6796 -3.642 6.89187 0
M  V30 427 N 39.9087 -1.5758 0.0250728 0
M  V30 428 C 41.1857 -1.82917 -0.692873 0
M  V30 429 C 41.5657 -0.908137 -1.90568 0
M  V30 430 O 40.9137 0.0372298 -2.2847 0
M  V30 431 C 41.1237 -3.32034 -1.07492 0
M  V30 432 C 42.4717 -3.98406 -1.46826 0
M  V30 433 O 43.4957 -3.36505 -1.16801 0
M  V30 434 O 42.3547 -5.07497 -2.02754 0
M  V30 435 H 39.4487 -0.754079 -0.33955 0
M  V30 436 H 41.9947 -1.69619 0.0524456 0
M  V30 437 H 40.7667 -3.90728 -0.211552 0
M  V30 438 H 40.3897 -3.50424 -1.87854 0
M  V30 439 N 41.3868 0.248026 -1.55636 0
M  V30 440 C 42.6348 0.974295 -1.77065 0
M  V30 441 C 42.9558 1.85897 -0.588849 0
M  V30 442 O 42.2258 1.91868 0.395407 0
M  V30 443 H 40.8058 0.362733 -0.653019 0
M  V30 444 H 43.4678 0.266244 -1.93073 0
M  V30 445 H 42.5638 1.59667 -2.68166 0
M  V30 446 N 42.8649 1.48995 0.513639 0
M  V30 447 C 44.0949 1.61297 1.291 0
M  V30 448 C 44.5029 0.278656 1.87137 0
M  V30 449 O 43.8459 -0.744325 1.67945 0
M  V30 450 C 43.9079 2.61326 2.46879 0
M  V30 451 C 43.5719 4.05993 2.09807 0
M  V30 452 C 44.5689 4.93183 1.64519 0
M  V30 453 C 42.2539 4.51642 2.19829 0
M  V30 454 C 44.2479 6.24056 1.2974 0
M  V30 455 C 41.9349 5.82532 1.84662 0
M  V30 456 C 42.9329 6.68562 1.3969 0
M  V30 457 O 42.6209 7.97014 1.04992 0
M  V30 458 H 42.3529 0.546236 0.39825 0
M  V30 459 H 44.9069 1.95673 0.62459 0
M  V30 460 H 43.1369 2.22104 3.16554 0
M  V30 461 H 44.8259 2.6329 3.08923 0
M  V30 462 H 45.5919 4.59147 1.56233 0
M  V30 463 H 41.4709 3.84855 2.53786 0
M  V30 464 H 45.0149 6.91161 0.945659 0
M  V30 465 H 40.9119 6.16099 1.92594 0
M  V30 466 H 41.6799 8.09913 1.18249 0
M  V30 467 N 44.343 -0.763751 1.37857 0
M  V30 468 C 45.291 -1.89864 1.34367 0
M  V30 469 C 46.285 -1.67816 0.231143 0
M  V30 470 O 47.491 -1.75508 0.399617 0
M  V30 471 H 43.866 -0.624501 0.41893 0
M  V30 472 H 45.837 -1.89925 2.30155 0
M  V30 473 C 44.586 -3.27227 1.1755 0
M  V30 474 H 43.909 -3.44773 2.02414 0
M  V30 475 H 45.349 -4.06911 1.1916 0
M  V30 476 C 43.808 -3.36692 -0.118311 0
M  V30 477 O 44.338 -3.86374 -1.09902 0
M  V30 478 N 42.544 -2.90092 -0.171717 0
M  V30 479 H 42.091 -2.49853 0.627012 0
M  V30 480 H 42.049 -2.96806 -1.03699 0
M  V30 481 N 45.8211 -1.22559 -0.990812 0
M  V30 482 C 47.0511 -1.07623 -1.76355 0
M  V30 483 C 47.4591 0.37601 -1.85426 0
M  V30 484 O 46.8021 1.27228 -1.32509 0
M  V30 485 C 46.8641 -1.61507 -3.21179 0
M  V30 486 C 46.5281 -3.10146 -3.35646 0
M  V30 487 C 47.5251 -4.07553 -3.22796 0
M  V30 488 C 45.2101 -3.49644 -3.60631 0
M  V30 489 C 47.2041 -5.42442 -3.34716 0
M  V30 490 C 44.8911 -4.84682 -3.72192 0
M  V30 491 C 45.8891 -5.8089 -3.59243 0
M  V30 492 O 45.5771 -7.13476 -3.70415 0
M  V30 493 H 45.3091 -0.377745 -0.560611 0
M  V30 494 H 47.8631 -1.62658 -1.25425 0
M  V30 495 H 46.0931 -1.00881 -3.73309 0
M  V30 496 H 47.7821 -1.42202 -3.80175 0
M  V30 497 H 48.5481 -3.78381 -3.03403 0
M  V30 498 H 44.4271 -2.75282 -3.69785 0
M  V30 499 H 47.9711 -6.17518 -3.24526 0
M  V30 500 H 43.8681 -5.13534 -3.91092 0
M  V30 501 H 44.6361 -7.21083 -3.87275 0
M  V30 502 N 47.2992 1.18797 -1.03562 0
M  V30 503 C 48.5272 1.92599 -0.755869 0
M  V30 504 C 48.9422 1.75886 0.686271 0
M  V30 505 O 48.2992 1.08517 1.46732 0
M  V30 506 C 48.3502 3.44159 -1.10619 0
M  V30 507 O 48.0712 3.60341 -2.4917 0
M  V30 508 C 49.5722 4.3507 -0.850214 0
M  V30 509 H 46.7922 0.611587 -0.276048 0
M  V30 510 H 49.3362 1.50742 -1.38192 0
M  V30 511 H 47.4912 3.83823 -0.525194 0
M  V30 512 H 47.9052 4.54128 -2.62427 0
M  V30 513 H 49.3792 5.39989 -1.14523 0
M  V30 514 H 49.8562 4.38673 0.215176 0
M  V30 515 H 50.4622 4.01097 -1.41426 0
M  V30 516 N 48.7773 0.814389 1.34928 0
M  V30 517 C 49.7073 0.244827 2.32213 0
M  V30 518 C 50.6883 -0.634024 1.57842 0
M  V30 519 O 51.8733 -0.562676 1.8587 0
M  V30 520 C 49.0033 -0.601106 3.42058 0
M  V30 521 C 47.9573 0.179896 4.27622 0
M  V30 522 C 47.2833 -0.788237 5.28858 0
M  V30 523 C 48.5833 1.38329 5.03649 0
M  V30 524 H 50.2773 1.05763 2.80097 0
M  V30 525 H 47.8233 0.510029 1.34665 0
M  V30 526 H 49.7763 -1.00968 4.09125 0
M  V30 527 H 48.5003 -1.44688 2.92802 0
M  V30 528 H 47.1593 0.569739 3.62146 0
M  V30 529 H 46.8073 -1.62973 4.75866 0
M  V30 530 H 46.5073 -0.269942 5.8698 0
M  V30 531 H 48.0313 -1.19485 5.98795 0
M  V30 532 H 49.4453 1.04918 5.63618 0
M  V30 533 H 47.8423 1.83662 5.71304 0
M  V30 534 H 48.9123 2.16592 4.33839 0
M  V30 535 N 50.2554 -1.46986 0.568584 0
M  V30 536 C 51.4804 -2.07335 0.0520528 0
M  V30 537 C 51.9054 -1.41675 -1.23733 0
M  V30 538 O 51.2634 -0.495623 -1.74394 0
M  V30 539 C 51.3114 -3.60417 -0.11501 0
M  V30 540 O 50.4154 -3.95309 -1.17492 0
M  V30 541 H 49.7564 -0.661597 0.0564385 0
M  V30 542 H 52.2864 -1.88837 0.787507 0
M  V30 543 H 52.2964 -4.06698 -0.325644 0
M  V30 544 H 50.9714 -4.07601 0.826675 0
M  V30 545 H 49.5484 -3.60757 -0.943869 0
M  V30 546 N 51.7335 -0.305618 -1.54608 0
M  V30 547 C 52.6805 0.568421 -2.23691 0
M  V30 548 C 53.6505 1.12592 -1.22116 0
M  V30 549 O 54.8355 1.16959 -1.50749 0
M  V30 550 C 51.9755 1.7322 -2.98477 0
M  V30 551 C 51.0885 1.20566 -4.14835 0
M  V30 552 C 50.2235 2.33368 -4.77193 0
M  V30 553 C 49.2625 1.7787 -5.85686 0
M  V30 554 N 48.3995 2.84263 -6.4198 0
M  V30 555 H 53.2395 -0.0272867 -2.97988 0
M  V30 556 H 50.7765 -0.0252363 -1.47078 0
M  V30 557 H 52.7345 2.41675 -3.40072 0
M  V30 558 H 51.3645 2.29947 -2.26548 0
M  V30 559 H 50.4165 0.413223 -3.78149 0
M  V30 560 H 51.7285 0.759417 -4.92985 0
M  V30 561 H 50.8825 3.09761 -5.21664 0
M  V30 562 H 49.6215 2.8132 -3.98385 0
M  V30 563 H 48.6265 0.99968 -5.40635 0
M  V30 564 H 49.8515 1.30816 -6.66381 0
M  V30 565 H 47.7975 3.31541 -5.66053 0
M  V30 566 H 47.7145 2.44149 -7.15491 0
M  V30 567 H 48.9825 3.6054 -6.91109 0
M  V30 568 N 53.2116 1.57565 -0.0334293 0
M  V30 569 C 54.4396 1.9628 0.654347 0
M  V30 570 C 54.8546 0.910138 1.65414 0
M  V30 571 O 54.2116 -0.107595 1.82183 0
M  V30 572 C 54.2626 3.35067 1.35693 0
M  V30 573 O 53.9836 4.36296 0.397191 0
M  V30 574 C 55.4846 3.88439 2.13613 0
M  V30 575 H 52.7046 0.646369 0.180132 0
M  V30 576 H 55.2486 2.04282 -0.0944721 0
M  V30 577 H 53.4036 3.2827 2.05712 0
M  V30 578 H 53.8176 5.1678 0.896597 0
M  V30 579 H 55.2916 4.8788 2.58219 0
M  V30 580 H 55.7686 3.22914 2.97696 0
M  V30 581 H 56.3746 3.98516 1.48543 0
M  V30 582 N 54.6897 -0.239769 1.55765 0
M  V30 583 C 55.5997 -1.31831 1.94056 0
M  V30 584 C 56.6157 -1.52275 0.841925 0
M  V30 585 O 57.7917 -1.65759 1.14394 0
M  V30 586 C 54.8567 -2.65156 2.23368 0
M  V30 587 C 53.9177 -2.53173 3.46701 0
M  V30 588 C 53.1507 -3.8014 3.74606 0
M  V30 589 O 53.3737 -4.82343 3.04469 0
M  V30 590 O 52.3077 -3.78344 4.68123 0
M  V30 591 H 56.1337 -1.02347 2.85935 0
M  V30 592 H 53.7187 -0.441123 1.42739 0
M  V30 593 H 55.6007 -3.43929 2.43497 0
M  V30 594 H 54.2757 -2.94358 1.34666 0
M  V30 595 H 53.1827 -1.72662 3.31871 0
M  V30 596 H 54.5157 -2.28915 4.35728 0
M  V30 597 N 56.1678 -1.49265 -0.50573 0
M  V30 598 C 57.4148 -1.58513 -1.26015 0
M  V30 599 C 57.7428 -0.26972 -1.92621 0
M  V30 600 O 56.9978 0.741997 -1.81088 0
M  V30 601 C 57.2968 -2.69008 -2.35308 0
M  V30 602 C 56.9628 -4.10662 -1.86192 0
M  V30 603 C 55.6248 -4.49212 -1.72516 0
M  V30 604 C 57.9768 -4.99336 -1.49375 0
M  V30 605 C 55.3048 -5.74214 -1.20394 0
M  V30 606 C 57.6568 -6.24852 -0.987072 0
M  V30 607 C 56.3208 -6.62236 -0.836669 0
M  V30 608 H 55.5908 -0.580041 -0.461122 0
M  V30 609 H 58.2378 -1.83078 -0.561665 0
M  V30 610 H 56.5428 -2.38396 -3.10926 0
M  V30 611 H 58.2398 -2.73373 -2.93374 0
M  V30 612 H 54.8298 -3.8023 -1.97795 0
M  V30 613 H 59.0138 -4.70212 -1.5879 0
M  V30 614 H 54.2698 -6.01883 -1.07458 0
M  V30 615 H 58.4438 -6.92944 -0.692983 0
M  V30 616 H 56.0708 -7.58979 -0.430607 0
M  V30 617 N 57.6459 0.756429 -1.3826 0
M  V30 618 C 58.5759 1.88374 -1.37976 0
M  V30 619 C 59.5569 1.68311 -0.246082 0
M  V30 620 O 60.7419 1.88944 -0.44874 0
M  V30 621 C 57.8719 3.25864 -1.20125 0
M  V30 622 C 56.8259 3.60523 -2.30666 0
M  V30 623 C 56.1519 4.9672 -1.97923 0
M  V30 624 C 57.4519 3.65692 -3.72916 0
M  V30 625 H 59.1459 1.88869 -2.32312 0
M  V30 626 H 56.6919 0.907272 -1.11824 0
M  V30 627 H 58.6449 4.0438 -1.18552 0
M  V30 628 H 57.3689 3.25841 -0.222498 0
M  V30 629 H 56.0279 2.84324 -2.3142 0
M  V30 630 H 55.6759 4.93253 -0.985393 0
M  V30 631 H 55.3759 5.20878 -2.71955 0
M  V30 632 H 56.8999 5.77618 -1.97964 0
M  V30 633 H 58.3139 4.34328 -3.74208 0
M  V30 634 H 56.7109 4.01358 -4.4613 0
M  V30 635 H 57.7809 2.65987 -4.05436 0
M  V30 636 N 59.124 1.23083 0.984299 0
M  V30 637 C 60.349 1.088 1.76571 0
M  V30 638 C 60.774 -0.356657 1.84688 0
M  V30 639 O 60.132 -1.25788 1.30565 0
M  V30 640 C 60.18 1.71371 3.17277 0
M  V30 641 O 59.284 0.973213 4.00752 0
M  V30 642 H 58.625 0.381599 0.543395 0
M  V30 643 H 61.155 1.63057 1.23587 0
M  V30 644 H 61.165 1.76449 3.67872 0
M  V30 645 H 59.84 2.76493 3.10684 0
M  V30 646 H 58.417 0.999078 3.59267 0
M  V30 647 N 60.6021 -1.18246 1.0419 0
M  V30 648 C 61.8491 -1.88257 0.746017 0
M  V30 649 C 62.1771 -1.80429 -0.726331 0
M  V30 650 O 61.4321 -1.2 -1.54591 0
M  V30 651 C 61.7311 -3.38082 1.15911 0
M  V30 652 C 61.3971 -3.66114 2.63195 0
M  V30 653 C 60.0591 -3.73474 3.03432 0
M  V30 654 C 62.4111 -3.78398 3.5842 0
M  V30 655 C 59.7391 -3.90599 4.37778 0
M  V30 656 C 62.0911 -3.97039 4.92487 0
M  V30 657 C 60.7551 -4.02635 5.32392 0
M  V30 658 H 60.0251 -0.688883 0.272987 0
M  V30 659 H 62.6721 -1.3995 1.30715 0
M  V30 660 H 60.9771 -3.88377 0.516806 0
M  V30 661 H 62.6741 -3.90596 0.907516 0
M  V30 662 H 59.2641 -3.61003 2.3103 0
M  V30 663 H 63.4481 -3.72042 3.28479 0
M  V30 664 H 58.7041 -3.93175 4.68213 0
M  V30 665 H 62.8781 -4.05486 5.66175 0
M  V30 666 H 60.5051 -4.15657 6.36501 0
M  V30 667 N 62.0802 -0.821533 -1.34494 0
M  V30 668 C 63.0132 -0.187704 -2.27427 0
M  V30 669 C 63.9912 0.65507 -1.48821 0
M  V30 670 O 65.1752 0.619111 -1.78043 0
M  V30 671 C 62.3022 0.737996 -3.30562 0
M  V30 672 C 61.3482 -0.0270713 -4.26491 0
M  V30 673 S 62.1812 -1.37329 -5.17592 0
M  V30 674 C 63.3372 -0.452427 -6.24263 0
M  V30 675 H 63.5702 -0.975598 -2.80837 0
M  V30 676 H 61.1032 -0.61736 -1.4152 0
M  V30 677 H 63.0612 1.26654 -3.90473 0
M  V30 678 H 61.7222 1.4994 -2.76001 0
M  V30 679 H 60.9152 0.6766 -4.99438 0
M  V30 680 H 60.5172 -0.48612 -3.70827 0
M  V30 681 H 62.8092 0.356557 -6.76561 0
M  V30 682 H 63.7522 -1.15153 -6.98674 0
M  V30 683 H 64.1602 -0.0414755 -5.64485 0
M  V30 684 N 63.5583 1.46682 -0.576371 0
M  V30 685 C 64.5063 2.31953 0.17335 0
M  V30 686 C 65.5003 1.44098 0.89062 0
M  V30 687 O 66.7063 1.60759 0.809728 0
M  V30 688 H 63.0813 0.748273 0.0747727 0
M  V30 689 H 65.0523 2.93007 -0.564738 0
M  V30 690 C 63.8013 3.27142 1.17786 0
M  V30 691 H 63.1243 3.94719 0.635361 0
M  V30 692 H 64.5643 3.896 1.67296 0
M  V30 693 C 63.0233 2.52036 2.23561 0
M  V30 694 O 63.5533 2.27877 3.3081 0
M  V30 695 N 61.7593 2.12709 1.97998 0
M  V30 696 H 61.3063 2.32557 1.10792 0
M  V30 697 H 61.2643 1.62776 2.68982 0
M  V30 698 N 65.0364 0.313813 1.54444 0
M  V30 699 C 66.2644 -0.293918 2.04802 0
M  V30 700 C 66.6794 -1.46537 1.19047 0
M  V30 701 O 66.0364 -1.81182 0.218939 0
M  V30 702 C 66.0874 -0.737806 3.53891 0
M  V30 703 O 65.8084 0.387038 4.36387 0
M  V30 704 C 67.3094 -1.40936 4.203 0
M  V30 705 H 64.5294 -0.0620057 0.668129 0
M  V30 706 H 67.0734 0.457169 1.99324 0
M  V30 707 H 65.2284 -1.43889 3.59687 0
M  V30 708 H 65.6424 0.0391274 5.24485 0
M  V30 709 H 67.1164 -1.67099 5.26101 0
M  V30 710 H 67.5934 -2.35355 3.70816 0
M  V30 711 H 68.1994 -0.751117 4.18615 0
M  V30 712 N 66.5145 -1.57545 0.0417849 0
M  V30 713 C 67.4245 -2.14451 -0.951213 0
M  V30 714 C 68.4405 -1.09992 -1.34825 0
M  V30 715 O 69.6165 -1.42114 -1.42708 0
M  V30 716 C 66.6815 -2.67063 -2.21084 0
M  V30 717 C 65.7425 -3.86284 -1.87304 0
M  V30 718 C 64.9755 -4.36378 -3.07261 0
M  V30 719 O 65.1985 -3.85587 -4.20332 0
M  V30 720 O 64.1325 -5.28077 -2.88822 0
M  V30 721 H 67.9585 -2.99601 -0.497287 0
M  V30 722 H 65.5435 -1.48317 -0.179567 0
M  V30 723 H 67.4255 -3.00914 -2.95006 0
M  V30 724 H 66.1005 -1.84989 -2.65633 0
M  V30 725 H 65.0075 -3.57338 -1.10727 0
M  V30 726 H 66.3405 -4.6956 -1.47562 0
M  V30 727 N 67.9926 0.231505 -1.5589 0
M  V30 728 C 68.9226 1.29022 -1.94617 0
M  V30 729 C 69.9036 1.4941 -0.813067 0
M  V30 730 O 71.0886 1.6176 -1.07459 0
M  V30 731 C 68.2186 2.64199 -2.25424 0
M  V30 732 C 67.1726 2.58484 -3.41131 0
M  V30 733 C 66.4986 3.97599 -3.57518 0
M  V30 734 C 67.7986 2.1413 -4.76388 0
M  V30 735 H 69.4926 0.968563 -2.83301 0
M  V30 736 H 67.0386 0.464479 -1.36303 0
M  V30 737 H 68.9916 3.38413 -2.51107 0
M  V30 738 H 67.7156 2.98032 -1.33583 0
M  V30 739 H 66.3746 1.86727 -3.15481 0
M  V30 740 H 66.0226 4.28723 -2.6307 0
M  V30 741 H 65.7226 3.94659 -4.35337 0
M  V30 742 H 67.2466 4.7349 -3.85538 0
M  V30 743 H 68.6606 2.78083 -5.01341 0
M  V30 744 H 67.0576 2.2227 -5.57419 0
M  V30 745 H 68.1276 1.09331 -4.72414 0
M  V30 746 N 69.4707 1.49531 0.497807 0
M  V30 747 C 70.4337 1.65916 1.58128 0
M  V30 748 C 71.4337 0.530825 1.51786 0
M  V30 749 O 72.6237 0.797342 1.54881 0
M  V30 750 C 69.7557 1.65951 2.9778 0
M  V30 751 H 70.9487 2.62556 1.44929 0
M  V30 752 H 68.5017 1.38611 0.722275 0
M  V30 753 H 69.2367 0.709065 3.16453 0
M  V30 754 H 69.0217 2.47897 3.03792 0
M  V30 755 H 70.5117 1.80673 3.76493 0
M  V30 756 N 70.9488 -0.749086 1.3866 0
M  V30 757 C 71.9118 -1.84457 1.36045 0
M  V30 758 C 72.9118 -1.58682 0.260122 0
M  V30 759 O 74.1018 -1.66343 0.517261 0
M  V30 760 C 71.2338 -3.22008 1.11911 0
M  V30 761 H 72.4268 -1.88182 2.33512 0
M  V30 762 H 69.9798 -0.951266 1.24019 0
M  V30 763 H 70.7148 -3.2395 0.150686 0
M  V30 764 H 70.4998 -3.42111 1.91579 0
M  V30 765 H 71.9898 -4.0208 1.12788 0
M  V30 766 N 72.4269 -1.23603 -0.977757 0
M  V30 767 C 73.6739 -1.06971 -1.71941 0
M  V30 768 C 74.0019 0.393009 -1.90488 0
M  V30 769 O 73.2569 1.30719 -1.4564 0
M  V30 770 C 73.5559 -1.7433 -3.11999 0
M  V30 771 C 73.2219 -3.24252 -3.13323 0
M  V30 772 C 71.8839 -3.65156 -3.13392 0
M  V30 773 C 74.2359 -4.20141 -3.08433 0
M  V30 774 C 71.5639 -5.00403 -3.0629 0
M  V30 775 C 73.9159 -5.55384 -3.02873 0
M  V30 776 C 72.5799 -5.95647 -3.01265 0
M  V30 777 H 71.8499 -0.391433 -0.629175 0
M  V30 778 H 74.4969 -1.53572 -1.14403 0
M  V30 779 H 72.8019 -1.20096 -3.7294 0
M  V30 780 H 74.4989 -1.58936 -3.68158 0
M  V30 781 H 71.0889 -2.91692 -3.14029 0
M  V30 782 H 75.2729 -3.89547 -3.07517 0
M  V30 783 H 70.5289 -5.3081 -3.03399 0
M  V30 784 H 74.7029 -6.29398 -2.98046 0
M  V30 785 H 72.3299 -7.0041 -2.95516 0
M  V30 786 N 73.905 1.17692 -1.04816 0
M  V30 787 C 75.133 1.91786 -0.776254 0
M  V30 788 C 75.548 1.76604 0.667577 0
M  V30 789 O 74.905 1.10067 1.45573 0
M  V30 790 C 74.956 3.42967 -1.14263 0
M  V30 791 O 74.677 3.57678 -2.52978 0
M  V30 792 C 76.178 4.34144 -0.896311 0
M  V30 793 H 73.398 0.608624 -0.282519 0
M  V30 794 H 75.942 1.49268 -1.39783 0
M  V30 795 H 74.097 3.83245 -0.565874 0
M  V30 796 H 74.511 4.51319 -2.67229 0
M  V30 797 H 75.985 5.38744 -1.20244 0
M  V30 798 H 76.462 4.38876 0.168636 0
M  V30 799 H 77.068 3.99574 -1.45672 0
M  V30 800 N 75.3831 0.828654 1.34056 0
M  V30 801 C 76.3301 0.252567 2.29414 0
M  V30 802 C 77.3001 -0.62588 1.53857 0
M  V30 803 O 78.4851 -0.566312 1.82202 0
M  V30 804 C 75.6251 -0.574831 3.40279 0
M  V30 805 C 74.7381 0.326499 4.30764 0
M  V30 806 C 73.8731 -0.511016 5.28736 0
M  V30 807 C 72.9121 0.389342 6.1086 0
M  V30 808 N 72.0491 -0.409439 7.00905 0
M  V30 809 H 76.8891 1.07108 2.78086 0
M  V30 810 H 74.4261 0.539677 1.36843 0
M  V30 811 H 76.3841 -1.06992 4.03248 0
M  V30 812 H 75.0141 -1.35841 2.92826 0
M  V30 813 H 74.0661 0.939837 3.68607 0
M  V30 814 H 75.3781 1.01857 4.88289 0
M  V30 815 H 74.5321 -1.07035 5.97184 0
M  V30 816 H 73.2711 -1.23657 4.71763 0
M  V30 817 H 72.2761 0.960769 5.4134 0
M  V30 818 H 73.5011 1.1131 6.69916 0
M  V30 819 H 71.4471 -1.11856 6.46393 0
M  V30 820 H 71.3641 0.224126 7.55668 0
M  V30 821 H 72.6321 -0.951336 7.73673 0
M  V30 822 N 76.8612 -1.46375 0.584142 0
M  V30 823 C 77.8092 -2.32042 -0.161047 0
M  V30 824 C 78.8032 -1.44569 -0.882966 0
M  V30 825 O 80.0092 -1.61186 -0.801191 0
M  V30 826 H 76.3842 -0.748659 -0.0708033 0
M  V30 827 H 78.3552 -2.92704 0.580269 0
M  V30 828 C 77.1042 -3.27762 -1.1605 0
M  V30 829 H 76.4272 -3.95051 -0.614419 0
M  V30 830 H 77.8672 -3.90481 -1.65228 0
M  V30 831 C 76.3262 -2.53218 -2.22221 0
M  V30 832 O 76.8562 -2.29628 -3.29597 0
M  V30 833 N 75.0622 -2.13756 -1.96868 0
M  V30 834 H 74.6092 -2.33142 -1.09557 0
M  V30 835 H 74.5672 -1.642 -2.68115 0
M  V30 836 N 78.3393 -0.321999 -1.54275 0
M  V30 837 C 79.2713 0.578671 -2.21775 0
M  V30 838 C 80.2843 1.08109 -1.21722 0
M  V30 839 O 81.4733 0.994938 -1.482 0
M  V30 840 C 78.5733 1.80661 -2.86731 0
M  V30 841 C 77.7463 1.44314 -4.12907 0
M  V30 842 C 76.8053 2.52845 -4.61472 0
M  V30 843 O 75.8313 2.17054 -5.2619 0
M  V30 844 N 77.0333 3.83748 -4.35566 0
M  V30 845 H 79.7983 0.000709447 -2.997 0
M  V30 846 H 77.3593 -0.145132 -1.61248 0
M  V30 847 H 79.3513 2.52655 -3.16145 0
M  V30 848 H 77.9213 2.29245 -2.12521 0
M  V30 849 H 77.1413 0.554906 -3.90275 0
M  V30 850 H 78.4293 1.17598 -4.95023 0
M  V30 851 H 77.8273 4.15625 -3.83761 0
M  V30 852 H 76.3843 4.51977 -4.69638 0
M  V30 853 N 79.8174 1.5752 -0.0501392 0
M  V30 854 C 80.7644 2.1147 0.924603 0
M  V30 855 C 81.7344 1.02182 1.30951 0
M  V30 856 O 82.9194 1.29723 1.39916 0
M  V30 857 C 80.0594 2.66337 2.19451 0
M  V30 858 C 79.1724 3.89708 1.86418 0
M  V30 859 C 78.3074 4.32893 3.07859 0
M  V30 860 C 77.3464 5.48967 2.70742 0
M  V30 861 N 76.4834 5.87211 3.84874 0
M  V30 862 H 81.3234 2.94465 0.457639 0
M  V30 863 H 78.8604 1.45531 0.214266 0
M  V30 864 H 80.8184 2.96247 2.93758 0
M  V30 865 H 79.4484 1.86141 2.63726 0
M  V30 866 H 78.5004 3.66396 1.02264 0
M  V30 867 H 79.8124 4.74074 1.55096 0
M  V30 868 H 78.9664 4.6435 3.90466 0
M  V30 869 H 77.7054 3.47336 3.42358 0
M  V30 870 H 76.7104 5.17183 1.86551 0
M  V30 871 H 77.9354 6.3624 2.37436 0
M  V30 872 H 75.8814 5.04607 4.19175 0
M  V30 873 H 75.7984 6.66266 3.57247 0
M  V30 874 H 77.0664 6.23282 4.68123 0
M  V30 875 N 81.2955 -0.223234 1.56011 0
M  V30 876 C 82.5725 -0.972108 1.69733 0
M  V30 877 C 82.9525 -2.02485 0.59691 0
M  V30 878 O 82.3005 -2.25037 -0.396324 0
M  V30 879 C 82.5105 -1.58407 3.10979 0
M  V30 880 C 83.8585 -2.07696 3.70334 0
M  V30 881 O 84.8825 -1.68304 3.1393 0
M  V30 882 O 83.7415 -2.80096 4.69264 0
M  V30 883 H 80.8355 -0.453993 0.691245 0
M  V30 884 H 83.3815 -0.215149 1.68331 0
M  V30 885 H 82.1535 -0.823831 3.82529 0
M  V30 886 H 81.7765 -2.40661 3.16493 0
M  V30 887 N 82.7736 -1.49793 -0.48987 0
M  V30 888 C 84.1846 -1.52914 -1.07118 0
M  V30 889 C 84.5356 -0.321738 -1.93544 0
M  V30 890 O 83.6606 0.567338 -2.08831 0
M  V30 891 C 84.2556 -2.771 -1.94938 0
M  V30 892 C 82.8146 -2.82963 -2.48212 0
M  V30 893 C 81.9616 -2.46972 -1.26096 0
M  V30 894 H 84.9126 -1.56329 -0.273289 0
M  V30 895 H 84.9336 -2.57892 -2.79771 0
M  V30 896 H 84.4456 -3.64959 -1.32009 0
M  V30 897 H 82.5466 -1.99411 -3.14748 0
M  V30 898 H 82.6596 -3.85406 -2.84603 0
M  V30 899 H 81.0236 -1.98994 -1.58976 0
M  V30 900 H 81.8066 -3.37118 -0.648581 0
M  V30 901 N 84.2517 0.741722 -1.39055 0
M  V30 902 C 85.4997 1.49818 -1.35643 0
M  V30 903 C 85.8207 1.94938 0.0491642 0
M  V30 904 O 85.0907 1.68505 0.999141 0
M  V30 905 H 83.6707 0.555755 -0.499144 0
M  V30 906 H 86.3327 0.880957 -1.73854 0
M  V30 907 H 85.4287 2.38348 -2.01486 0
M  V30 908 N 85.7298 1.2412 0.971189 0
M  V30 909 C 86.9758 1.08041 1.71625 0
M  V30 910 C 87.3088 -0.380407 1.90438 0
M  V30 911 O 86.5838 -1.28127 1.46334 0
M  V30 912 C 86.8668 1.81682 3.10908 0
M  V30 913 C 86.7198 3.35493 2.99608 0
M  V30 914 C 88.0388 1.58671 4.10501 0
M  V30 915 H 85.1578 0.39388 0.622919 0
M  V30 916 H 87.7998 1.52743 1.13003 0
M  V30 917 H 85.9498 1.43684 3.60953 0
M  V30 918 H 87.6218 3.83068 2.57015 0
M  V30 919 H 85.8648 3.64052 2.35899 0
M  V30 920 H 86.5358 3.82217 3.98264 0
M  V30 921 H 89.0118 1.91719 3.69301 0
M  V30 922 H 87.8878 2.1266 5.06031 0
M  V30 923 H 88.1488 0.524161 4.38982 0
M  V30 924 N 87.2079 -1.17134 1.05439 0
M  V30 925 C 88.1379 -2.2342 0.678649 0
M  V30 926 C 89.1189 -1.66971 -0.32476 0
M  V30 927 O 90.3039 -1.93149 -0.201802 0
M  V30 928 C 87.4339 -3.47256 0.0552099 0
M  V30 929 C 86.3879 -4.16543 0.98365 0
M  V30 930 C 85.7139 -5.34231 0.223961 0
M  V30 931 C 87.0139 -4.68495 2.3089 0
M  V30 932 H 88.7079 -2.55105 1.56722 0
M  V30 933 H 86.2539 -1.2262 0.754998 0
M  V30 934 H 88.2069 -4.20828 -0.21946 0
M  V30 935 H 86.9309 -3.14846 -0.868319 0
M  V30 936 H 85.5899 -3.44887 1.24293 0
M  V30 937 H 85.2379 -4.98071 -0.702412 0
M  V30 938 H 84.9379 -5.81527 0.842627 0
M  V30 939 H 86.4619 -6.10585 -0.0433671 0
M  V30 940 H 87.8759 -5.33691 2.09396 0
M  V30 941 H 86.2729 -5.26379 2.88176 0
M  V30 942 H 87.3429 -3.85169 2.94572 0
M  V30 943 N 88.686 -0.835752 -1.33615 0
M  V30 944 C 89.963 -0.352017 -1.92406 0
M  V30 945 C 90.343 1.16225 -1.76224 0
M  V30 946 O 89.691 1.97526 -1.14873 0
M  V30 947 C 89.901 -0.795485 -3.39813 0
M  V30 948 C 91.249 -0.801703 -4.16963 0
M  V30 949 O 92.273 -0.738889 -3.48452 0
M  V30 950 O 91.132 -0.886607 -5.3926 0
M  V30 951 H 88.226 -0.0989641 -0.821057 0
M  V30 952 H 90.772 -0.921397 -1.42507 0
M  V30 953 H 89.544 -1.83795 -3.45449 0
M  V30 954 H 89.167 -0.202505 -3.97084 0
M  V30 955 N 90.1641 1.46063 -0.591896 0
M  V30 956 C 91.5801 1.57561 -0.254288 0
M  V30 957 C 91.7801 1.58565 1.24336 0
M  V30 958 O 90.8361 1.50753 2.02558 0
M  V30 959 C 92.1491 2.86549 -0.911611 0
M  V30 960 C 93.6971 3.00197 -0.886059 0
M  V30 961 C 94.1721 4.31933 -1.5231 0
M  V30 962 N 95.6631 4.38654 -1.48786 0
M  V30 963 C 96.3981 5.39222 -1.95006 0
M  V30 964 N 95.8941 6.46414 -2.49241 0
M  V30 965 N 97.6871 5.3048 -1.85868 0
M  V30 966 H 89.8381 1.43655 -1.56451 0
M  V30 967 H 92.1011 0.68583 -0.654478 0
M  V30 968 H 91.8071 2.91651 -1.96551 0
M  V30 969 H 91.6811 3.74794 -0.425368 0
M  V30 970 H 94.0681 2.9467 0.159246 0
M  V30 971 H 94.1491 2.13403 -1.41041 0
M  V30 972 H 93.7931 4.38217 -2.56765 0
M  V30 973 H 93.7231 5.17516 -0.973891 0
M  V30 974 H 96.2141 3.61793 -1.09151 0
M  V30 975 H 96.5271 7.19376 -2.82344 0
M  V30 976 H 94.8721 6.47208 -2.53272 0
M  V30 977 H 98.0631 4.45643 -1.43248 0
M  V30 978 H 98.2361 6.08711 -2.22204 0
M  V30 979 N 91.6422 0.330177 1.54103 0
M  V30 980 C 92.5752 -0.575477 2.20825 0
M  V30 981 C 93.5532 -1.11064 1.18758 0
M  V30 982 O 94.7372 -1.17341 1.47524 0
M  V30 983 C 91.8642 -1.79032 2.87516 0
M  V30 984 C 90.9102 -1.38581 4.03358 0
M  V30 985 S 91.7432 -0.416911 5.33875 0
M  V30 986 C 92.8992 -1.63889 6.04062 0
M  V30 987 H 93.1322 -0.00872114 2.97299 0
M  V30 988 H 90.6652 0.114254 1.53977 0
M  V30 989 H 92.6232 -2.48734 3.2656 0
M  V30 990 H 91.2842 -2.32827 2.10832 0
M  V30 991 H 90.4772 -2.29123 4.48908 0
M  V30 992 H 90.0792 -0.768419 3.66021 0
M  V30 993 H 92.3712 -2.57536 6.26643 0
M  V30 994 H 93.3142 -1.22542 6.97416 0
M  V30 995 H 93.7222 -1.82887 5.34053 0
M  V30 996 N 93.1203 -1.57491 0.0584922 0
M  V30 997 C 94.0533 -2.07533 -0.948969 0
M  V30 998 C 95.0313 -0.977444 -1.29942 0
M  V30 999 O 96.2153 -1.2499 -1.41102 0
M  V30 1000 C 93.3423 -2.52192 -2.2609 0
M  V30 1001 C 92.3883 -3.73287 -2.06298 0
M  V30 1002 S 93.2213 -5.18603 -1.33459 0
M  V30 1003 C 94.3773 -5.66583 -2.65959 0
M  V30 1004 H 94.6103 -2.92662 -0.523118 0
M  V30 1005 H 92.1433 -1.53631 -0.153954 0
M  V30 1006 H 94.1013 -2.78585 -3.01498 0
M  V30 1007 H 92.7623 -1.67356 -2.65802 0
M  V30 1008 H 91.9553 -4.0248 -3.03357 0
M  V30 1009 H 91.5573 -3.47199 -1.39029 0
M  V30 1010 H 93.8493 -5.72616 -3.62101 0
M  V30 1011 H 94.7923 -6.65684 -2.41393 0
M  V30 1012 H 95.2003 -4.94342 -2.72554 0
M  V30 1013 N 94.5984 0.214957 -1.56127 0
M  V30 1014 C 95.5454 1.26642 -1.92952 0
M  V30 1015 C 96.5154 1.46244 -0.78753 0
M  V30 1016 O 97.7004 1.59704 -1.04399 0
M  V30 1017 C 94.8404 2.6104 -2.25726 0
M  V30 1018 C 93.9534 2.49183 -3.52891 0
M  V30 1019 C 93.0884 3.76149 -3.7508 0
M  V30 1020 C 92.1274 3.59041 -4.95738 0
M  V30 1021 N 91.2644 4.77972 -5.14283 0
M  V30 1022 H 96.1044 0.945384 -2.82607 0
M  V30 1023 H 93.6414 0.455489 -1.3987 0
M  V30 1024 H 95.5994 3.39313 -2.42739 0
M  V30 1025 H 94.2294 2.91227 -1.39236 0
M  V30 1026 H 93.2814 1.6231 -3.44034 0
M  V30 1027 H 94.5934 2.32466 -4.41318 0
M  V30 1028 H 93.7474 4.62865 -3.92226 0
M  V30 1029 H 92.4864 3.95799 -2.84947 0
M  V30 1030 H 91.4914 2.7071 -4.78535 0
M  V30 1031 H 92.7164 3.40856 -5.87362 0
M  V30 1032 H 90.6624 4.97923 -4.27093 0
M  V30 1033 H 90.5794 4.64006 -5.96853 0
M  V30 1034 H 91.8474 5.66096 -5.35869 0
M  V30 1035 N 96.0765 1.50051 0.48192 0
M  V30 1036 C 97.0235 1.68122 1.58125 0
M  V30 1037 C 97.9935 0.522545 1.57666 0
M  V30 1038 O 99.1785 0.751844 1.75362 0
M  V30 1039 C 96.3185 1.77142 2.96167 0
M  V30 1040 C 95.4315 3.0444 3.06497 0
M  V30 1041 C 94.5665 3.04321 4.35387 0
M  V30 1042 C 93.6055 4.26118 4.3942 0
M  V30 1043 N 92.7425 4.238 5.59766 0
M  V30 1044 H 97.5825 2.6198 1.42022 0
M  V30 1045 H 95.1195 1.29877 0.690687 0
M  V30 1046 H 97.0775 1.80352 3.76203 0
M  V30 1047 H 95.7075 0.867329 3.1093 0
M  V30 1048 H 94.7595 3.10752 2.19402 0
M  V30 1049 H 96.0715 3.94426 3.05336 0
M  V30 1050 H 95.2255 3.062 5.23762 0
M  V30 1051 H 93.9645 2.12147 4.39141 0
M  V30 1052 H 92.9695 4.24463 3.49444 0
M  V30 1053 H 94.1945 5.19507 4.37366 0
M  V30 1054 H 92.1405 3.34474 5.64326 0
M  V30 1055 H 92.0575 5.07542 5.60301 0
M  V30 1056 H 93.3255 4.2981 6.50295 0
M  V30 1057 N 97.5546 -0.734337 1.39446 0
M  V30 1058 C 98.4846 -1.86155 1.40955 0
M  V30 1059 C 99.4656 -1.67898 0.272827 0
M  V30 1060 O 100.651 -1.88207 0.478743 0
M  V30 1061 C 97.7806 -3.23912 1.25294 0
M  V30 1062 C 96.7346 -3.56808 2.36373 0
M  V30 1063 C 96.0606 -4.93508 2.058 0
M  V30 1064 C 97.3606 -3.59713 3.78687 0
M  V30 1065 H 99.0546 -1.8515 2.35287 0
M  V30 1066 H 96.6006 -0.889367 1.13253 0
M  V30 1067 H 98.5536 -4.02443 1.2497 0
M  V30 1068 H 97.2776 -3.25446 0.274308 0
M  V30 1069 H 95.9366 -2.80606 2.35914 0
M  V30 1070 H 95.5846 -4.91623 1.06374 0
M  V30 1071 H 95.2846 -5.16486 2.80208 0
M  V30 1072 H 96.8086 -5.74396 2.07128 0
M  V30 1073 H 98.2226 -4.2832 3.81071 0
M  V30 1074 H 96.6196 -3.94209 4.52459 0
M  V30 1075 H 97.6896 -2.59504 4.09617 0
M  V30 1076 N 99.0327 -1.24633 -0.964593 0
M  V30 1077 C 100.31 -0.995809 -1.68354 0
M  V30 1078 C 100.69 0.480964 -2.05548 0
M  V30 1079 O 100.038 1.45599 -1.76105 0
M  V30 1080 C 100.248 -1.92177 -2.91323 0
M  V30 1081 C 101.596 -2.19446 -3.63495 0
M  V30 1082 O 102.62 -1.89855 -3.01386 0
M  V30 1083 O 101.479 -2.69714 -4.75307 0
M  V30 1084 H 98.5727 -0.376854 -0.736146 0
M  V30 1085 H 101.119 -1.35745 -1.0184 0
M  V30 1086 H 99.8907 -2.91938 -2.60553 0
M  V30 1087 H 99.5137 -1.56349 -3.65569 0
M  V30 1088 N 100.511 1.16574 -1.06058 0
M  V30 1089 C 101.739 1.90952 -0.796552 0
M  V30 1090 C 102.154 1.77302 0.648808 0
M  V30 1091 O 101.511 1.11605 1.44397 0
M  V30 1092 C 101.562 3.41736 -1.17894 0
M  V30 1093 O 101.283 3.54975 -2.56758 0
M  V30 1094 C 102.784 4.33169 -0.942308 0
M  V30 1095 H 100.004 0.605594 -0.288959 0
M  V30 1096 H 102.548 1.47777 -1.41358 0
M  V30 1097 H 100.703 3.82623 -0.606491 0
M  V30 1098 H 101.117 4.4846 -2.72 0
M  V30 1099 H 102.591 5.37439 -1.25952 0
M  V30 1100 H 103.068 4.3903 0.122078 0
M  V30 1101 H 103.674 3.98007 -1.49902 0
M  V30 1102 N 101.989 0.842826 1.3317 0
M  V30 1103 C 102.937 0.267495 2.31057 0
M  V30 1104 C 103.931 -0.602682 1.58316 0
M  V30 1105 O 105.137 -0.491803 1.73151 0
M  V30 1106 H 101.512 0.0677813 0.748939 0
M  V30 1107 H 103.483 1.10754 2.77085 0
M  V30 1108 C 102.232 -0.539331 3.43492 0
M  V30 1109 H 101.555 0.12095 3.99617 0
M  V30 1110 H 102.995 -0.90767 4.14171 0
M  V30 1111 C 101.454 -1.71981 2.89697 0
M  V30 1112 O 101.984 -2.81862 2.86211 0
M  V30 1113 N 100.19 -1.54299 2.46252 0
M  V30 1114 H 99.7369 -0.649143 2.49287 0
M  V30 1115 H 99.6949 -2.33431 2.10612 0
M  V30 1116 N 103.467 -1.45747 0.599634 0
M  V30 1117 C 104.692 -2.07178 0.0960198 0
M  V30 1118 C 105.117 -1.44268 -1.207 0
M  V30 1119 O 104.475 -0.532503 -1.73303 0
M  V30 1120 C 104.523 -3.60579 -0.0385348 0
M  V30 1121 O 103.627 -3.97713 -1.0908 0
M  V30 1122 H 102.968 -0.660251 0.0704593 0
M  V30 1123 H 105.498 -1.87124 0.827385 0
M  V30 1124 H 105.508 -4.07298 -0.239304 0
M  V30 1125 H 104.183 -4.05756 0.912947 0
M  V30 1126 H 102.76 -3.62678 -0.867135 0
M  V30 1127 N 104.945 -0.338344 -1.53925 0
M  V30 1128 C 106.222 0.314774 -1.93051 0
M  V30 1129 C 106.602 1.68669 -1.26941 0
M  V30 1130 O 105.95 2.24636 -0.418445 0
M  V30 1131 C 106.16 0.392249 -3.46789 0
M  V30 1132 C 107.508 0.645554 -4.19664 0
M  V30 1133 O 108.532 0.474575 -3.53024 0
M  V30 1134 O 107.391 0.976408 -5.37707 0
M  V30 1135 H 104.485 0.182598 -0.80659 0
M  V30 1136 H 107.031 -0.389141 -1.65178 0
M  V30 1137 H 105.803 -0.570702 -3.87116 0
M  V30 1138 H 105.426 1.14316 -3.80812 0
M  V30 1139 N 106.423 1.57458 -0.0668435 0
M  V30 1140 C 107.671 1.92919 0.602214 0
M  V30 1141 C 107.992 0.947215 1.70449 0
M  V30 1142 O 107.262 -0.00544117 1.95899 0
M  V30 1143 H 105.842 0.71217 0.22544 0
M  V30 1144 H 108.504 1.94508 -0.123535 0
M  V30 1145 H 107.6 2.94589 1.03073 0
M  V30 1146 N 107.901 -0.206675 1.56239 0
M  V30 1147 C 108.833 -1.27997 1.9013 0
M  V30 1148 C 109.846 -1.42299 0.790883 0
M  V30 1149 O 111.035 -1.42931 1.06925 0
M  V30 1150 C 108.135 -2.65368 2.10792 0
M  V30 1151 C 107.308 -2.72824 3.41886 0
M  V30 1152 C 106.367 -3.9131 3.51799 0
M  V30 1153 O 105.393 -3.78953 4.24716 0
M  V30 1154 N 106.595 -5.06265 2.84035 0
M  V30 1155 H 109.36 -0.992444 2.82791 0
M  V30 1156 H 106.921 -0.396652 1.56966 0
M  V30 1157 H 108.913 -3.43039 2.14724 0
M  V30 1158 H 107.483 -2.86657 1.24685 0
M  V30 1159 H 106.703 -1.81515 3.49923 0
M  V30 1160 H 107.991 -2.74786 4.28217 0
M  V30 1161 H 107.389 -5.19203 2.246 0
M  V30 1162 H 105.946 -5.81925 2.93609 0
M  V30 1163 N 109.379 -1.50304 -0.473955 0
M  V30 1164 C 110.309 -1.71886 -1.58042 0
M  V30 1165 C 111.29 -0.567799 -1.60344 0
M  V30 1166 O 112.475 -0.806623 -1.76656 0
M  V30 1167 C 109.605 -1.81036 -2.96384 0
M  V30 1168 C 108.559 -2.962 -3.08949 0
M  V30 1169 C 107.885 -2.9049 -4.48909 0
M  V30 1170 C 109.185 -4.36752 -2.86434 0
M  V30 1171 H 110.879 -2.64527 -1.40234 0
M  V30 1172 H 108.425 -1.27295 -0.673201 0
M  V30 1173 H 110.378 -1.94719 -3.73714 0
M  V30 1174 H 109.102 -0.850147 -3.15341 0
M  V30 1175 H 107.761 -2.82164 -2.3405 0
M  V30 1176 H 107.409 -1.92321 -4.64781 0
M  V30 1177 H 107.109 -3.67802 -4.58253 0
M  V30 1178 H 108.633 -3.06218 -5.28264 0
M  V30 1179 H 110.047 -4.5133 -3.53517 0
M  V30 1180 H 108.444 -5.15493 -3.07225 0
M  V30 1181 H 109.514 -4.49321 -1.82316 0
M  V30 1182 N 110.857 0.726932 -1.39834 0
M  V30 1183 C 112.134 1.47902 -1.28001 0
M  V30 1184 C 112.514 2.1083 0.106789 0
M  V30 1185 O 111.862 1.99242 1.11869 0
M  V30 1186 C 112.072 2.52392 -2.41038 0
M  V30 1187 C 113.42 3.18546 -2.80737 0
M  V30 1188 O 114.444 2.62708 -2.40547 0
M  V30 1189 O 113.303 4.19604 -3.50135 0
M  V30 1190 H 110.397 0.657163 -0.502062 0
M  V30 1191 H 112.943 0.760071 -1.51727 0
M  V30 1192 H 111.715 2.04329 -3.33715 0
M  V30 1193 H 111.338 3.31837 -2.19021 0
M  V30 1194 N 112.336 1.25143 0.95797 0
M  V30 1195 C 113.583 1.09692 1.70217 0
M  V30 1196 C 113.911 -0.362654 1.91089 0
M  V30 1197 O 113.166 -1.28386 1.47701 0
M  V30 1198 C 113.465 1.79272 3.09187 0
M  V30 1199 C 113.131 3.29196 3.08125 0
M  V30 1200 C 111.793 3.70096 3.07543 0
M  V30 1201 C 114.145 4.24995 3.0171 0
M  V30 1202 C 111.473 5.05213 2.9829 0
M  V30 1203 C 113.825 5.60132 2.93999 0
M  V30 1204 C 112.489 6.00365 2.9175 0
M  V30 1205 H 111.759 0.401393 0.622868 0
M  V30 1206 H 114.406 1.55372 1.11945 0
M  V30 1207 H 112.711 1.26014 3.70982 0
M  V30 1208 H 114.408 1.64773 3.65583 0
M  V30 1209 H 110.998 2.96651 3.09348 0
M  V30 1210 H 115.182 3.9439 3.01281 0
M  V30 1211 H 110.438 5.35569 2.94916 0
M  V30 1212 H 114.612 6.3406 2.87996 0
M  V30 1213 H 112.239 7.05023 2.84336 0
M  V30 1214 N 113.814 -1.1601 1.06675 0
M  V30 1215 C 115.039 -1.91068 0.806706 0
M  V30 1216 C 115.464 -1.77112 -0.633485 0
M  V30 1217 O 114.822 -1.09908 -1.44187 0
M  V30 1218 C 114.87 -3.39655 1.21106 0
M  V30 1219 O 113.974 -4.10893 0.352189 0
M  V30 1220 H 113.315 -0.595125 0.294486 0
M  V30 1221 H 115.845 -1.46955 1.42356 0
M  V30 1222 H 115.855 -3.90434 1.18428 0
M  V30 1223 H 114.53 -3.49132 2.26008 0
M  V30 1224 H 113.107 -3.70285 0.440868 0
M  V30 1225 N 115.292 -0.849877 -1.32721 0
M  V30 1226 C 116.202 -0.293791 -2.32753 0
M  V30 1227 C 117.218 0.585906 -1.63839 0
M  V30 1228 O 118.394 0.487413 -1.95413 0
M  V30 1229 C 115.459 0.512752 -3.42887 0
M  V30 1230 C 114.52 -0.39252 -4.27502 0
M  V30 1231 C 113.753 0.375625 -5.32377 0
M  V30 1232 O 113.976 1.60613 -5.4732 0
M  V30 1233 O 112.91 -0.256094 -6.01355 0
M  V30 1234 H 116.736 -1.12242 -2.82197 0
M  V30 1235 H 114.321 -0.612685 -1.36259 0
M  V30 1236 H 116.203 0.970704 -4.10067 0
M  V30 1237 H 114.878 1.31826 -2.95641 0
M  V30 1238 H 113.785 -0.898547 -3.63149 0
M  V30 1239 H 115.118 -1.16309 -4.7826 0
M  V30 1240 N 116.77 1.45427 -0.607355 0
M  V30 1241 C 118.017 2.02241 -0.102455 0
M  V30 1242 C 118.345 1.4758 1.26691 0
M  V30 1243 O 117.6 0.640468 1.84923 0
M  V30 1244 C 117.899 3.57398 -0.0129263 0
M  V30 1245 C 117.565 4.3121 -1.31792 0
M  V30 1246 C 116.227 4.51092 -1.67539 0
M  V30 1247 C 118.579 4.73401 -2.18039 0
M  V30 1248 C 115.907 5.10422 -2.89285 0
M  V30 1249 C 118.259 5.34078 -3.39034 0
M  V30 1250 C 116.923 5.52184 -3.75033 0
M  V30 1251 H 116.193 0.740051 -0.037491 0
M  V30 1252 H 118.84 1.74494 -0.788926 0
M  V30 1253 H 117.145 3.84421 0.756806 0
M  V30 1254 H 118.842 3.99061 0.393881 0
M  V30 1255 H 115.432 4.16047 -1.02968 0
M  V30 1256 H 119.616 4.57774 -1.91721 0
M  V30 1257 H 114.872 5.22629 -3.17283 0
M  V30 1258 H 119.046 5.65724 -4.06115 0
M  V30 1259 H 116.673 5.97925 -4.69457 0
M  V30 1260 N 118.248 0.346503 1.53744 0
M  V30 1261 C 119.178 -0.501193 2.28058 0
M  V30 1262 C 120.159 -1.10014 1.29734 0
M  V30 1263 O 121.344 -1.12097 1.58581 0
M  V30 1264 C 118.474 -1.65078 3.05559 0
M  V30 1265 C 117.428 -1.18003 4.11411 0
M  V30 1266 C 116.754 -2.41837 4.76884 0
M  V30 1267 C 118.054 -0.278394 5.21558 0
M  V30 1268 H 119.748 0.11875 2.99164 0
M  V30 1269 H 117.294 0.0585531 1.43881 0
M  V30 1270 H 119.247 -2.25028 3.56287 0
M  V30 1271 H 117.971 -2.29767 2.32109 0
M  V30 1272 H 116.63 -0.603331 3.61601 0
M  V30 1273 H 116.278 -3.0494 4.00026 0
M  V30 1274 H 115.978 -2.1102 5.48402 0
M  V30 1275 H 117.502 -3.02508 5.30397 0
M  V30 1276 H 118.916 -0.784823 5.67903 0
M  V30 1277 H 117.313 -0.0619707 6.00068 0
M  V30 1278 H 118.383 0.684677 4.80042 0
M  V30 1279 N 119.726 -1.57421 0.075193 0
M  V30 1280 C 120.674 -2.14124 -0.908508 0
M  V30 1281 C 121.668 -1.07898 -1.30592 0
M  V30 1282 O 122.874 -1.26273 -1.28277 0
M  V30 1283 H 119.249 -0.684707 -0.310935 0
M  V30 1284 H 121.22 -2.95634 -0.405374 0
M  V30 1285 C 119.969 -2.72044 -2.16535 0
M  V30 1286 H 119.292 -3.53456 -1.86839 0
M  V30 1287 H 120.732 -3.15311 -2.83469 0
M  V30 1288 C 119.191 -1.66968 -2.92615 0
M  V30 1289 O 119.721 -1.0967 -3.86439 0
M  V30 1290 N 117.927 -1.37923 -2.55784 0
M  V30 1291 H 117.474 -1.84706 -1.79559 0
M  V30 1292 H 117.432 -0.67852 -3.06991 0
M  V30 1293 N 121.204 0.198386 -1.56346 0
M  V30 1294 C 122.134 1.24865 -1.9731 0
M  V30 1295 C 123.115 1.47651 -0.844576 0
M  V30 1296 O 124.3 1.59444 -1.10866 0
M  V30 1297 C 121.43 2.59358 -2.30977 0
M  V30 1298 C 120.384 2.5119 -3.46537 0
M  V30 1299 C 119.71 3.89926 -3.65871 0
M  V30 1300 C 121.01 2.03977 -4.80823 0
M  V30 1301 H 122.704 0.908252 -2.85291 0
M  V30 1302 H 120.25 0.435462 -1.37258 0
M  V30 1303 H 122.203 3.33011 -2.58228 0
M  V30 1304 H 120.927 2.95132 -1.39874 0
M  V30 1305 H 119.586 1.79993 -3.19371 0
M  V30 1306 H 119.234 4.23046 -2.72105 0
M  V30 1307 H 118.934 3.85336 -4.4361 0
M  V30 1308 H 120.458 4.65205 -3.95495 0
M  V30 1309 H 121.872 2.67386 -5.07127 0
M  V30 1310 H 120.269 2.10397 -5.62008 0
M  V30 1311 H 121.339 0.992861 -4.74626 0
M  V30 1312 N 122.682 1.50554 0.465978 0
M  V30 1313 C 123.931 1.61038 1.21448 0
M  V30 1314 C 124.244 0.31865 1.92987 0
M  V30 1315 O 125.45 0.302469 2.6981 0
M  V30 1316 C 123.906 2.84283 2.20706 0
M  V30 1317 C 123.514 4.20352 1.54946 0
M  V30 1318 C 125.258 3.04115 2.96166 0
M  V30 1319 C 123.165 5.34778 2.5252 0
M  V30 1320 H 122.095 0.599718 0.457005 0
M  V30 1321 H 124.746 1.7699 0.484424 0
M  V30 1322 H 123.128 2.61901 2.97025 0
M  V30 1323 H 124.302 4.53008 0.843811 0
M  V30 1324 H 122.617 4.06167 0.917475 0
M  V30 1325 H 125.214 3.86774 3.69202 0
M  V30 1326 H 125.557 2.16045 3.55852 0
M  V30 1327 H 126.09 3.26702 2.26959 0
M  V30 1328 H 122.829 6.25018 1.97566 0
M  V30 1329 H 122.349 5.06534 3.21222 0
M  V30 1330 H 124.028 5.65561 3.14245 0
M  V30 1331 N 124.16 -0.719506 1.40217 0
M  V30 1332 C 125.408 -1.47641 1.3801 0
M  V30 1333 C 125.729 -1.94992 -0.018145 0
M  V30 1334 O 124.999 -1.70073 -0.972207 0
M  V30 1335 H 123.579 -0.547744 0.507923 0
M  V30 1336 H 126.241 -0.853187 1.75233 0
M  V30 1337 H 125.337 -2.35112 2.05253 0
M  V30 1338 N 125.638 -1.25649 -0.95132 0
M  V30 1339 C 126.886 -1.10375 -1.69298 0
M  V30 1340 C 127.207 0.355339 -1.91735 0
M  V30 1341 O 126.477 1.25188 -1.50681 0
M  V30 1342 H 125.057 -0.405461 -0.627384 0
M  V30 1343 H 127.719 -1.57823 -1.14358 0
M  V30 1344 H 126.815 -1.61465 -2.67087 0
M  V30 1345 N 127.117 1.15442 -1.07289 0
M  V30 1346 C 128.047 2.22312 -0.714107 0
M  V30 1347 C 129.028 1.67467 0.298155 0
M  V30 1348 O 130.213 1.93445 0.171048 0
M  V30 1349 C 127.343 3.47124 -0.110448 0
M  V30 1350 C 126.297 4.14926 -1.04979 0
M  V30 1351 C 125.623 5.33807 -0.308924 0
M  V30 1352 C 126.923 4.64762 -2.38314 0
M  V30 1353 H 128.617 2.5258 -1.6076 0
M  V30 1354 H 126.163 1.21404 -0.77441 0
M  V30 1355 H 128.116 4.21124 0.152482 0
M  V30 1356 H 126.84 3.16187 0.81812 0
M  V30 1357 H 125.499 3.42866 -1.29764 0
M  V30 1358 H 125.147 4.99126 0.623084 0
M  V30 1359 H 124.847 5.80113 -0.935036 0
M  V30 1360 H 126.371 6.10576 -0.0537771 0
M  V30 1361 H 127.785 5.30292 -2.1786 0
M  V30 1362 H 126.182 5.21728 -2.96514 0
M  V30 1363 H 127.252 3.80434 -3.00663 0
M  V30 1364 N 128.595 0.856903 1.32268 0
M  V30 1365 C 129.558 0.308171 2.27119 0
M  V30 1366 C 130.558 -0.533421 1.51695 0
M  V30 1367 O 131.748 -0.344607 1.70757 0
M  V30 1368 C 128.88 -0.563757 3.36206 0
M  V30 1369 H 130.073 1.14535 2.77167 0
M  V30 1370 H 127.626 0.631421 1.42978 0
M  V30 1371 H 128.361 -1.42266 2.91429 0
M  V30 1372 H 128.146 0.0386749 3.92081 0
M  V30 1373 H 129.636 -0.940386 4.06874 0
M  V30 1374 N 130.073 -1.45103 0.615059 0
M  V30 1375 C 131.006 -2.27717 -0.148408 0
M  V30 1376 C 131.984 -1.37584 -0.866572 0
M  V30 1377 O 133.168 -1.67017 -0.87393 0
M  V30 1378 C 130.295 -3.16136 -1.21557 0
M  V30 1379 C 129.341 -4.22263 -0.599712 0
M  V30 1380 S 130.174 -5.3215 0.598081 0
M  V30 1381 C 131.33 -6.24137 -0.469484 0
M  V30 1382 H 131.563 -2.92121 0.552483 0
M  V30 1383 H 129.096 -1.49054 0.402778 0
M  V30 1384 H 131.054 -3.67633 -1.82638 0
M  V30 1385 H 129.715 -2.50982 -1.88857 0
M  V30 1386 H 128.908 -4.84081 -1.4029 0
M  V30 1387 H 128.51 -3.73945 -0.063876 0
M  V30 1388 H 130.802 -6.63984 -1.34652 0
M  V30 1389 H 131.745 -7.0801 0.112725 0
M  V30 1390 H 132.153 -5.58971 -0.788168 0
M  V30 1391 N 131.551 -0.354651 -1.53558 0
M  V30 1392 C 132.514 0.484566 -2.24019 0
M  V30 1393 C 133.514 1.01861 -1.24422 0
M  V30 1394 O 134.704 0.906097 -1.4878 0
M  V30 1395 C 131.836 1.67615 -2.96847 0
M  V30 1396 H 133.029 -0.131843 -2.9961 0
M  V30 1397 H 130.582 -0.106165 -1.55939 0
M  V30 1398 H 131.317 2.33095 -2.25471 0
M  V30 1399 H 131.102 1.30029 -3.69912 0
M  V30 1400 H 132.592 2.27114 -3.50441 0
M  V30 1401 N 133.029 1.57378 -0.0835403 0
M  V30 1402 C 134.269 1.95808 0.586381 0
M  V30 1403 C 134.633 0.963706 1.66062 0
M  V30 1404 O 135.834 1.23608 2.38693 0
M  V30 1405 C 134.105 3.38808 1.13771 0
M  V30 1406 S 135.664 3.99225 1.82112 0
M  V30 1407 H 132.482 0.684675 0.191679 0
M  V30 1408 H 135.084 1.94843 -0.160194 0
M  V30 1409 H 133.788 4.08954 0.344197 0
M  V30 1410 H 133.319 3.43344 1.92038 0
M  V30 1411 H 135.334 3.87087 3.10449 0
M  V30 1412 N 134.507 -0.190092 1.56449 0
M  V30 1413 C 135.457 -1.23977 1.91347 0
M  V30 1414 C 136.441 -1.40747 0.779693 0
M  V30 1415 O 137.633 -1.43033 1.04262 0
M  V30 1416 C 134.762 -2.58347 2.26079 0
M  V30 1417 C 133.848 -2.4535 3.45925 0
M  V30 1418 N 134.239 -2.02039 4.63696 0
M  V30 1419 C 132.537 -2.76229 3.50162 0
M  V30 1420 C 133.238 -2.01053 5.4585 0
M  V30 1421 N 132.214 -2.42747 4.8639 0
M  V30 1422 H 136.016 -0.896318 2.79899 0
M  V30 1423 H 133.53 -0.398496 1.57435 0
M  V30 1424 H 135.527 -3.34173 2.49267 0
M  V30 1425 H 134.187 -2.93512 1.38856 0
M  V30 1426 H 135.198 -1.7267 4.88268 0
M  V30 1427 H 131.875 -3.15556 2.73369 0
M  V30 1428 H 133.265 -1.69426 6.50188 0
M  V30 1429 N 135.985 -1.50799 -0.457987 0
M  V30 1430 C 137.262 -1.52968 -1.21902 0
M  V30 1431 C 137.642 -0.281906 -2.09209 0
M  V30 1432 O 136.99 0.734076 -2.16388 0
M  V30 1433 C 137.2 -2.8326 -2.03875 0
M  V30 1434 C 138.548 -3.34425 -2.6162 0
M  V30 1435 O 139.572 -2.8467 -2.14106 0
M  V30 1436 O 138.431 -4.21188 -3.48228 0
M  V30 1437 H 135.525 -0.614129 -0.553873 0
M  V30 1438 H 138.071 -1.63098 -0.468739 0
M  V30 1439 H 136.843 -3.65543 -1.39621 0
M  V30 1440 H 136.466 -2.76195 -2.8601 0
M  V30 1441 N 137.463 0.71206 -1.40597 0
M  V30 1442 C 138.688 1.50617 -1.42581 0
M  V30 1443 C 139.113 1.88079 -0.0282102 0
M  V30 1444 O 138.471 1.53511 0.964579 0
M  V30 1445 C 138.519 2.7557 -2.3258 0
M  V30 1446 O 137.623 3.72414 -1.77148 0
M  V30 1447 H 136.964 0.453966 -0.484573 0
M  V30 1448 H 139.494 0.876649 -1.84868 0
M  V30 1449 H 139.504 3.2406 -2.47889 0
M  V30 1450 H 138.179 2.47639 -3.34138 0
M  V30 1451 H 136.756 3.31276 -1.71204 0
M  V30 1452 N 138.941 1.26152 0.944643 0
M  V30 1453 C 140.188 1.11492 1.69044 0
M  V30 1454 C 140.516 -0.342366 1.91463 0
M  V30 1455 O 139.771 -1.26812 1.49054 0
M  V30 1456 C 140.07 1.82541 3.07268 0
M  V30 1457 C 139.736 3.32445 3.04616 0
M  V30 1458 C 138.398 3.73337 3.036 0
M  V30 1459 C 140.75 4.28171 2.97185 0
M  V30 1460 C 138.078 5.08348 2.92915 0
M  V30 1461 C 140.43 5.63218 2.88041 0
M  V30 1462 C 139.094 6.03426 2.85366 0
M  V30 1463 H 138.364 0.407977 0.618576 0
M  V30 1464 H 141.011 1.56551 1.10291 0
M  V30 1465 H 139.316 1.29941 3.69625 0
M  V30 1466 H 141.013 1.68642 3.63815 0
M  V30 1467 H 137.603 2.99915 3.06185 0
M  V30 1468 H 141.787 3.97563 2.97081 0
M  V30 1469 H 137.043 5.38667 2.89219 0
M  V30 1470 H 141.217 6.37078 2.81254 0
M  V30 1471 H 138.844 7.07999 2.76842 0
M  V30 1472 N 140.419 -1.14872 1.07899 0
M  V30 1473 C 141.349 -2.2193 0.725887 0
M  V30 1474 C 142.33 -1.67622 -0.28927 0
M  V30 1475 O 143.515 -1.93533 -0.160787 0
M  V30 1476 C 140.645 -3.47061 0.128856 0
M  V30 1477 C 139.599 -4.14363 1.07178 0
M  V30 1478 C 138.925 -5.33636 0.337229 0
M  V30 1479 C 140.225 -4.63492 2.40775 0
M  V30 1480 H 141.919 -2.51724 1.62097 0
M  V30 1481 H 139.465 -1.20991 0.780838 0
M  V30 1482 H 141.418 -4.21199 -0.130147 0
M  V30 1483 H 140.142 -3.16617 -0.80134 0
M  V30 1484 H 138.801 -3.42173 1.3158 0
M  V30 1485 H 138.449 -4.99449 -0.596606 0
M  V30 1486 H 138.149 -5.79609 0.965788 0
M  V30 1487 H 139.673 -6.10539 0.0861567 0
M  V30 1488 H 141.087 -5.2913 2.20669 0
M  V30 1489 H 139.484 -5.20148 2.99276 0
M  V30 1490 H 140.554 -3.78834 3.02676 0
M  V30 1491 N 141.898 -0.863906 -1.31812 0
M  V30 1492 C 142.845 -0.313303 -2.28664 0
M  V30 1493 C 143.815 0.584868 -1.55462 0
M  V30 1494 O 145 0.517805 -1.83639 0
M  V30 1495 C 142.14 0.48441 -3.41683 0
M  V30 1496 C 141.253 -0.440594 -4.29747 0
M  V30 1497 C 140.388 0.370652 -5.29905 0
M  V30 1498 C 139.427 -0.551164 -6.09613 0
M  V30 1499 N 138.564 0.223462 -7.01744 0
M  V30 1500 H 143.404 -1.14444 -2.75148 0
M  V30 1501 H 140.941 -0.575769 -1.35364 0
M  V30 1502 H 142.899 0.962627 -4.05943 0
M  V30 1503 H 141.529 1.28029 -2.96325 0
M  V30 1504 H 140.581 -1.03724 -3.65986 0
M  V30 1505 H 141.893 -1.14767 -4.85417 0
M  V30 1506 H 141.047 0.911638 -5.99812 0
M  V30 1507 H 139.786 1.11105 -4.74876 0
M  V30 1508 H 138.791 -1.10396 -5.38603 0
M  V30 1509 H 140.016 -1.29032 -6.66729 0
M  V30 1510 H 137.962 0.946787 -6.49132 0
M  V30 1511 H 137.879 -0.424399 -7.54808 0
M  V30 1512 H 139.147 0.745876 -7.75923 0
M  V30 1513 N 143.376 1.44774 -0.622745 0
M  V30 1514 C 144.339 2.29069 0.0774015 0
M  V30 1515 C 145.339 1.4059 0.780461 0
M  V30 1516 O 146.529 1.62551 0.626322 0
M  V30 1517 C 143.661 3.21974 1.12006 0
M  V30 1518 H 144.854 2.92459 -0.663901 0
M  V30 1519 H 142.407 1.51548 -0.382486 0
M  V30 1520 H 143.142 2.63417 1.89162 0
M  V30 1521 H 142.927 3.87168 0.619951 0
M  V30 1522 H 144.417 3.85318 1.60995 0
M  V30 1523 N 144.854 0.36279 1.53368 0
M  V30 1524 C 146.1 -0.228113 2.01513 0
M  V30 1525 C 146.433 -1.48648 1.2497 0
M  V30 1526 O 145.708 -1.91459 0.342616 0
M  V30 1527 C 145.991 -0.522884 3.56284 0
M  V30 1528 C 145.844 0.74892 4.43521 0
M  V30 1529 C 147.163 -1.32461 4.19693 0
M  V30 1530 H 144.282 -0.0814343 0.732487 0
M  V30 1531 H 146.924 0.48713 1.83649 0
M  V30 1532 H 145.074 -1.1322 3.71636 0
M  V30 1533 H 146.746 1.38648 4.39971 0
M  V30 1534 H 144.989 1.36986 4.11603 0
M  V30 1535 H 145.66 0.497667 5.49752 0
M  V30 1536 H 148.136 -0.809203 4.08156 0
M  V30 1537 H 147.012 -1.49961 5.28018 0
M  V30 1538 H 147.273 -2.33232 3.75573 0
M  V30 1539 N 146.332 -1.57332 0.0918853 0
M  V30 1540 C 147.743 -1.81496 -0.437739 0
M  V30 1541 C 148.094 -1.00727 -1.6837 0
M  V30 1542 O 147.219 -0.235694 -2.15113 0
M  V30 1543 C 147.814 -3.29197 -0.800939 0
M  V30 1544 C 146.373 -3.54136 -1.27532 0
M  V30 1545 C 145.52 -2.75979 -0.270392 0
M  V30 1546 H 148.471 -1.55494 0.317366 0
M  V30 1547 H 148.492 -3.42344 -1.66074 0
M  V30 1548 H 148.004 -3.87955 0.106078 0
M  V30 1549 H 146.105 -3.00705 -2.20016 0
M  V30 1550 H 146.218 -4.62792 -1.23938 0
M  V30 1551 H 144.582 -2.43349 -0.751872 0
M  V30 1552 H 145.365 -3.37484 0.629248 0
M  V30 1553 N 147.81 0.181792 -1.56548 0
M  V30 1554 C 149.035 0.920019 -1.85877 0
M  V30 1555 C 149.46 1.75494 -0.677021 0
M  V30 1556 O 148.818 1.77399 0.374056 0
M  V30 1557 C 148.866 1.78112 -3.13542 0
M  V30 1558 O 147.97 2.88152 -2.95029 0
M  V30 1559 H 147.311 0.258334 -0.611686 0
M  V30 1560 H 149.841 0.183092 -2.03779 0
M  V30 1561 H 149.851 2.18314 -3.44678 0
M  V30 1562 H 148.526 1.16777 -3.99169 0
M  V30 1563 H 147.103 2.51609 -2.75222 0
M  V30 1564 N 149.288 1.51039 0.449983 0
M  V30 1565 C 150.22 1.67617 1.56324 0
M  V30 1566 C 151.233 0.557083 1.52972 0
M  V30 1567 O 152.422 0.830989 1.57977 0
M  V30 1568 C 149.522 1.66402 2.95235 0
M  V30 1569 C 148.695 2.9469 3.23229 0
M  V30 1570 C 147.754 2.85832 4.41799 0
M  V30 1571 O 146.78 3.59785 4.41071 0
M  V30 1572 N 147.982 2.00821 5.44657 0
M  V30 1573 H 150.747 2.63648 1.42512 0
M  V30 1574 H 148.308 1.48767 0.638737 0
M  V30 1575 H 150.3 1.58062 3.72557 0
M  V30 1576 H 148.87 0.780182 3.02708 0
M  V30 1577 H 148.09 3.16996 2.34323 0
M  V30 1578 H 149.378 3.79636 3.38754 0
M  V30 1579 H 148.776 1.40091 5.48079 0
M  V30 1580 H 147.333 1.98368 6.20881 0
M  V30 1581 N 150.766 -0.704594 1.40972 0
M  V30 1582 C 151.713 -1.81862 1.42109 0
M  V30 1583 C 152.683 -1.63781 0.276593 0
M  V30 1584 O 153.868 -1.84759 0.4763 0
M  V30 1585 C 151.008 -3.19669 1.30022 0
M  V30 1586 C 150.121 -3.49246 2.54267 0
M  V30 1587 C 149.256 -4.76618 2.3454 0
M  V30 1588 C 148.295 -4.99133 3.54306 0
M  V30 1589 N 147.432 -6.17726 3.33706 0
M  V30 1590 H 152.272 -1.80226 2.37324 0
M  V30 1591 H 149.809 -0.880238 1.17857 0
M  V30 1592 H 151.767 -3.99263 1.21018 0
M  V30 1593 H 150.397 -3.20506 0.384192 0
M  V30 1594 H 149.449 -2.64125 2.73756 0
M  V30 1595 H 150.761 -3.61788 3.43381 0
M  V30 1596 H 149.915 -5.64249 2.22952 0
M  V30 1597 H 148.654 -4.66305 1.42867 0
M  V30 1598 H 147.659 -4.09953 3.66359 0
M  V30 1599 H 148.884 -5.11311 4.4692 0
M  V30 1600 H 146.83 -6.08642 2.44725 0
M  V30 1601 H 146.747 -6.30995 4.16391 0
M  V30 1602 H 148.015 -7.08115 3.25873 0
M  V30 1603 N 152.244 -1.26651 -0.937939 0
M  V30 1604 C 153.66 -1.03834 -1.21205 0
M  V30 1605 C 153.86 0.234502 -2.00131 0
M  V30 1606 O 152.916 0.942767 -2.3424 0
M  V30 1607 C 154.229 -2.27167 -1.97017 0
M  V30 1608 C 155.777 -2.32101 -2.09996 0
M  V30 1609 C 156.252 -3.55136 -2.8921 0
M  V30 1610 N 157.743 -3.55632 -2.96783 0
M  V30 1611 C 158.478 -4.475 -3.58512 0
M  V30 1612 N 157.974 -5.4966 -4.21717 0
M  V30 1613 N 159.767 -4.35145 -3.55816 0
M  V30 1614 H 151.918 -2.08398 -0.410391 0
M  V30 1615 H 154.181 -0.916031 -0.244114 0
M  V30 1616 H 153.887 -3.19765 -1.46434 0
M  V30 1617 H 153.761 -2.31672 -2.97671 0
M  V30 1618 H 156.148 -1.40015 -2.59769 0
M  V30 1619 H 156.229 -2.31605 -1.08594 0
M  V30 1620 H 155.873 -4.47553 -2.40123 0
M  V30 1621 H 155.803 -3.5288 -3.90875 0
M  V30 1622 H 158.294 -2.81743 -2.51852 0
M  V30 1623 H 158.607 -6.15943 -4.66727 0
M  V30 1624 H 156.952 -5.53514 -4.20294 0
M  V30 1625 H 160.143 -3.5455 -3.05634 0
M  V30 1626 H 160.316 -5.06934 -4.03636 0
M  V30 1627 N 153.722 1.14298 -1.08507 0
M  V30 1628 C 154.95 1.89219 -0.836876 0
M  V30 1629 C 155.365 1.78638 0.611054 0
M  V30 1630 O 154.722 1.14643 1.41998 0
M  V30 1631 C 154.773 3.39158 -1.25116 0
M  V30 1632 O 154.494 3.49449 -2.64229 0
M  V30 1633 C 155.995 4.31073 -1.03398 0
M  V30 1634 H 153.215 0.599328 -0.301739 0
M  V30 1635 H 155.759 1.44746 -1.44461 0
M  V30 1636 H 153.914 3.81251 -0.687514 0
M  V30 1637 H 154.328 4.42589 -2.81452 0
M  V30 1638 H 155.802 5.34646 -1.37323 0
M  V30 1639 H 156.279 4.3919 0.0289259 0
M  V30 1640 H 156.885 3.94738 -1.58311 0
M  V30 1641 O 155.239 1.00442 1.26466 0
M  V30 1642 H 155.93 0.659114 1.82141 0
M  V30 END ATOM
M  V30 BEGIN BOND
M  V30 END BOND
M  V30 END CTAB
M  END
$$$$
