drugbank_target|P00439 Phenylalanine-4-hydroxylase (DB00120; DB00360; DB00368; DB02562; DB03673; DB04400; DB04419; DB06262)
 OpenBabel12092119393D

  0  0  0     0  0            999 V3000
M  V30 BEGIN CTAB
M  V30 COUNTS 7283 7373 0 0 0
M  V30 BEGIN ATOM
M  V30 1 H -0.908 1.98254 -0.117106 0
M  V30 2 N 0 1.576 0 0
M  V30 3 C 0.933 2.03868 1.02534 0
M  V30 4 C 1.911 0.928543 1.3348 0
M  V30 5 O 3.095 1.19667 1.45644 0
M  V30 6 C 0.222 2.43627 2.35294 0
M  V30 7 C -0.732 3.65373 2.2001 0
M  V30 8 S 0.101 5.13292 1.52614 0
M  V30 9 C 1.257 5.56322 2.86805 0
M  V30 10 H 1.49 2.90518 0.631377 0
M  V30 11 H -0.977 1.52953 0.210867 0
M  V30 12 H 0.981 2.67203 3.11629 0
M  V30 13 H -0.358 1.57376 2.7183 0
M  V30 14 H -1.165 3.90944 3.18086 0
M  V30 15 H -1.563 3.418 1.51819 0
M  V30 16 H 0.729 5.58782 3.83104 0
M  V30 17 H 1.672 6.56266 2.65933 0
M  V30 18 H 2.08 4.83886 2.90714 0
M  V30 19 N 1.4781 -0.272755 1.55222 0
M  V30 20 C 2.7031 -1.02683 1.80197 0
M  V30 21 C 3.1281 -1.79142 0.573551 0
M  V30 22 O 2.4861 -1.74917 -0.476849 0
M  V30 23 C 2.5341 -1.9609 3.02624 0
M  V30 24 O 1.6381 -3.04863 2.77727 0
M  V30 25 H 0.9791 -0.293557 0.595584 0
M  V30 26 H 3.5091 -0.30159 2.02365 0
M  V30 27 H 3.5191 -2.38039 3.31363 0
M  V30 28 H 2.1941 -1.39851 3.91682 0
M  V30 29 H 0.7711 -2.67228 2.60084 0
M  V30 30 N 2.9562 -1.48159 -0.537278 0
M  V30 31 C 4.1842 -1.59454 -1.31841 0
M  V30 32 C 4.5992 -0.252065 -1.8711 0
M  V30 33 O 3.9562 0.757621 -1.66031 0
M  V30 34 C 4.0072 -2.63546 -2.47439 0
M  V30 35 O 3.7282 -3.92583 -1.94449 0
M  V30 36 C 5.2292 -2.85212 -3.39366 0
M  V30 37 H 2.4492 -0.53785 -0.401196 0
M  V30 38 H 4.9932 -1.93932 -0.648891 0
M  V30 39 H 3.1482 -2.31946 -3.1029 0
M  V30 40 H 3.5622 -4.49629 -2.70063 0
M  V30 41 H 5.0362 -3.61863 -4.16844 0
M  V30 42 H 5.5132 -1.93765 -3.94147 0
M  V30 43 H 6.1192 -3.18086 -2.82314 0
M  V30 44 N 4.4343 0.785586 -1.36625 0
M  V30 45 C 5.3973 1.87999 -1.31107 0
M  V30 46 C 6.3973 1.59316 -0.217959 0
M  V30 47 O 7.5873 1.67656 -0.472977 0
M  V30 48 C 4.7193 3.24861 -1.03334 0
M  V30 49 H 5.9123 1.94307 -2.2844 0
M  V30 50 H 3.4653 0.983813 -1.21453 0
M  V30 51 H 4.2003 3.24235 -0.0647432 0
M  V30 52 H 3.9853 3.4707 -1.82441 0
M  V30 53 H 5.4753 4.04929 -1.02088 0
M  V30 54 N 5.9124 1.20967 1.01018 0
M  V30 55 C 7.1584 1.02526 1.74975 0
M  V30 56 C 7.4914 -0.4408 1.89131 0
M  V30 57 O 6.7664 -1.32718 1.42184 0
M  V30 58 C 7.0494 1.71699 3.1653 0
M  V30 59 C 6.9024 3.25791 3.10129 0
M  V30 60 C 8.2214 1.45531 4.15342 0
M  V30 61 H 5.3404 0.373863 0.635134 0
M  V30 62 H 7.9824 1.49071 1.17805 0
M  V30 63 H 6.1324 1.32128 3.65341 0
M  V30 64 H 7.8044 3.74697 2.69072 0
M  V30 65 H 6.0474 3.56363 2.47362 0
M  V30 66 H 6.7184 3.69353 4.10222 0
M  V30 67 H 9.1944 1.79872 3.75213 0
M  V30 68 H 8.0704 1.96453 5.1254 0
M  V30 69 H 8.3314 0.384237 4.40427 0
M  V30 70 N 7.3905 -1.2043 1.01659 0
M  V30 71 C 8.3205 -2.25466 0.607226 0
M  V30 72 C 9.3015 -1.65853 -0.377716 0
M  V30 73 O 10.4865 -1.92409 -0.263149 0
M  V30 74 C 7.6165 -3.47256 -0.0552949 0
M  V30 75 C 6.5705 -4.19462 0.850632 0
M  V30 76 C 5.8965 -5.34673 0.0538859 0
M  V30 77 C 7.1965 -4.75603 2.15868 0
M  V30 78 H 8.8905 -2.59962 1.48526 0
M  V30 79 H 6.4365 -1.2496 0.715605 0
M  V30 80 H 8.3895 -4.19917 -0.353233 0
M  V30 81 H 7.1135 -3.11924 -0.968045 0
M  V30 82 H 5.7725 -3.48667 1.13257 0
M  V30 83 H 5.4205 -4.95585 -0.860514 0
M  V30 84 H 5.1205 -5.83913 0.657192 0
M  V30 85 H 6.6445 -6.10138 -0.237598 0
M  V30 86 H 8.0585 -5.40083 1.92311 0
M  V30 87 H 6.4555 -5.3528 2.71284 0
M  V30 88 H 7.5255 -3.94346 2.82169 0
M  V30 89 N 8.8686 -0.792821 -1.36206 0
M  V30 90 C 9.7786 -0.194808 -2.3379 0
M  V30 91 C 10.7946 0.654869 -1.61206 0
M  V30 92 O 11.9706 0.569856 -1.9317 0
M  V30 93 C 9.0356 0.657721 -3.40404 0
M  V30 94 C 8.0966 -0.210849 -4.28782 0
M  V30 95 C 7.3296 0.601086 -5.30304 0
M  V30 96 O 7.5526 1.83682 -5.40016 0
M  V30 97 O 6.4866 -0.000808277 -6.019 0
M  V30 98 H 10.3126 -1.00172 -2.86704 0
M  V30 99 H 7.8976 -0.554341 -1.38735 0
M  V30 100 H 9.7796 1.14375 -4.05581 0
M  V30 101 H 8.4546 1.44247 -2.89784 0
M  V30 102 H 7.3616 -0.743714 -3.66633 0
M  V30 103 H 8.6946 -0.959195 -4.82763 0
M  V30 104 N 10.3467 1.47872 -0.545128 0
M  V30 105 C 11.2947 2.31533 0.222512 0
M  V30 106 C 12.2887 1.42177 0.920985 0
M  V30 107 O 13.4947 1.59005 0.843645 0
M  V30 108 H 9.8697 0.746519 0.0906278 0
M  V30 109 H 11.8407 2.94139 -0.50246 0
M  V30 110 C 10.5897 3.2457 1.24699 0
M  V30 111 H 9.9127 3.93283 0.718944 0
M  V30 112 H 11.3527 3.85963 1.75523 0
M  V30 113 C 9.8117 2.47237 2.28856 0
M  V30 114 O 10.3417 2.20808 3.35569 0
M  V30 115 N 8.5477 2.08461 2.02466 0
M  V30 116 H 8.0947 2.30155 1.157 0
M  V30 117 H 8.0527 1.57033 2.72375 0
M  V30 118 N 11.8248 0.280983 1.55075 0
M  V30 119 C 13.2358 -0.215629 1.85451 0
M  V30 120 C 13.5868 -1.54991 1.203 0
M  V30 121 O 12.7118 -2.10699 0.493435 0
M  V30 122 C 13.3068 -0.398026 3.36454 0
M  V30 123 C 11.8658 -0.838866 3.66933 0
M  V30 124 C 11.0128 0.064458 2.77225 0
M  V30 125 H 13.9638 0.502601 1.50531 0
M  V30 126 H 13.9848 -1.23569 3.59876 0
M  V30 127 H 13.4968 0.573241 3.83843 0
M  V30 128 H 11.5978 -1.8214 3.25048 0
M  V30 129 H 11.7108 -0.672123 4.74362 0
M  V30 130 H 10.0748 -0.452863 2.50642 0
M  V30 131 H 10.8578 1.03172 3.2743 0
M  V30 132 N 13.3029 -1.57598 0.00835791 0
M  V30 133 C 14.5509 -1.90551 -0.6734 0
M  V30 134 C 14.8719 -0.883301 -1.73847 0
M  V30 135 O 14.1419 0.0781442 -1.95744 0
M  V30 136 H 12.7219 -0.703312 -0.251717 0
M  V30 137 H 15.3839 -1.94833 0.0512592 0
M  V30 138 H 14.4799 -2.9056 -1.13935 0
M  V30 139 N 14.781 0.264519 -1.55364 0
M  V30 140 C 15.711 1.33121 -1.91836 0
M  V30 141 C 16.692 1.51101 -0.781192 0
M  V30 142 O 17.877 1.64003 -1.04003 0
M  V30 143 C 15.007 2.68921 -2.19769 0
M  V30 144 C 13.961 2.65661 -3.35571 0
M  V30 145 C 13.287 4.05093 -3.49004 0
M  V30 146 C 14.587 2.24187 -4.71739 0
M  V30 147 H 16.281 1.02844 -2.81182 0
M  V30 148 H 13.827 0.493286 -1.35287 0
M  V30 149 H 15.78 3.43663 -2.43872 0
M  V30 150 H 14.504 3.00799 -1.27231 0
M  V30 151 H 13.163 1.93377 -3.1145 0
M  V30 152 H 12.811 4.34206 -2.53917 0
M  V30 153 H 12.511 4.03804 -4.26868 0
M  V30 154 H 14.035 4.81561 -3.75408 0
M  V30 155 H 15.449 2.88654 -4.9533 0
M  V30 156 H 13.846 2.34044 -5.52579 0
M  V30 157 H 14.916 1.19327 -4.69988 0
M  V30 158 N 16.2591 1.48442 0.529413 0
M  V30 159 C 17.5071 1.56179 1.28267 0
M  V30 160 C 17.8281 0.237721 1.93546 0
M  V30 161 O 17.0981 -0.740779 1.81354 0
M  V30 162 H 15.6781 0.575367 0.476405 0
M  V30 163 H 18.3401 1.84909 0.61602 0
M  V30 164 H 17.4361 2.34312 2.06165 0
M  V30 165 N 17.7372 -0.778329 1.37039 0
M  V30 166 C 19.1532 -1.07796 1.17695 0
M  V30 167 C 19.3532 -2.01498 0.00860115 0
M  V30 168 O 18.4092 -2.43901 -0.653352 0
M  V30 169 C 19.7222 -1.68178 2.49272 0
M  V30 170 C 21.2702 -1.80467 2.55735 0
M  V30 171 C 21.7452 -2.44263 3.87427 0
M  V30 172 N 23.2362 -2.51721 3.88833 0
M  V30 173 C 23.9712 -3.01919 4.87476 0
M  V30 174 N 23.4672 -3.5234 5.96513 0
M  V30 175 N 25.2602 -3.00733 4.74885 0
M  V30 176 H 17.4112 -0.156032 2.11826 0
M  V30 177 H 19.6742 -0.131844 0.938787 0
M  V30 178 H 19.3802 -1.06796 3.35093 0
M  V30 179 H 19.2542 -2.67554 2.65885 0
M  V30 180 H 21.6412 -2.40984 1.70325 0
M  V30 181 H 21.7222 -0.798656 2.43013 0
M  V30 182 H 21.3662 -1.84388 4.73248 0
M  V30 183 H 21.2962 -3.45458 3.9745 0
M  V30 184 H 23.7872 -2.1603 3.10063 0
M  V30 185 H 24.1002 -3.89027 6.67741 0
M  V30 186 H 22.4452 -3.50462 6.00168 0
M  V30 187 H 25.6362 -2.60638 3.88826 0
M  V30 188 H 25.8092 -3.39545 5.51918 0
M  V30 189 N 19.2153 -1.21501 -1.00376 0
M  V30 190 C 20.1623 -0.975387 -2.09177 0
M  V30 191 C 21.1323 0.0990615 -1.65804 0
M  V30 192 O 22.3173 -0.0483147 -1.90739 0
M  V30 193 C 19.4573 -0.547507 -3.40729 0
M  V30 194 C 18.5703 -1.69153 -3.97506 0
M  V30 195 C 17.7053 -1.2127 -5.17172 0
M  V30 196 C 16.7443 -2.32897 -5.66061 0
M  V30 197 N 15.8813 -1.86138 -6.76976 0
M  V30 198 H 20.7213 -1.9068 -2.29009 0
M  V30 199 H 18.2583 -0.950257 -1.12288 0
M  V30 200 H 20.2163 -0.280667 -4.16255 0
M  V30 201 H 18.8463 0.346904 -3.20931 0
M  V30 202 H 17.8983 -2.07298 -3.18954 0
M  V30 203 H 19.2103 -2.5316 -4.29781 0
M  V30 204 H 18.3643 -0.902591 -5.99948 0
M  V30 205 H 17.1033 -0.342692 -4.86495 0
M  V30 206 H 16.1083 -2.64709 -4.81881 0
M  V30 207 H 17.3333 -3.20396 -5.98768 0
M  V30 208 H 15.2793 -1.01484 -6.48103 0
M  V30 209 H 15.1963 -2.63717 -7.08512 0
M  V30 210 H 16.4643 -1.58165 -7.63285 0
M  V30 211 N 20.6934 1.19889 -1.02296 0
M  V30 212 C 21.6234 2.25141 -0.619174 0
M  V30 213 C 22.6044 1.66051 0.368915 0
M  V30 214 O 23.7894 1.92546 0.252941 0
M  V30 215 C 20.9194 3.4728 0.0368783 0
M  V30 216 C 19.8734 4.19005 -0.872865 0
M  V30 217 C 19.1994 5.34637 -0.0822402 0
M  V30 218 C 20.4994 4.74452 -2.18387 0
M  V30 219 H 22.1934 2.59171 -1.49903 0
M  V30 220 H 19.7394 1.24579 -0.722222 0
M  V30 221 H 21.6924 4.20098 0.330958 0
M  V30 222 H 20.4164 3.12433 0.95149 0
M  V30 223 H 19.0754 3.48061 -1.15105 0
M  V30 224 H 18.7234 4.96034 0.83422 0
M  V30 225 H 18.4234 5.83557 -0.688149 0
M  V30 226 H 19.9474 6.10255 0.205238 0
M  V30 227 H 21.3614 5.39055 -1.95172 0
M  V30 228 H 19.7584 5.33834 -2.74119 0
M  V30 229 H 20.8284 3.92844 -2.84257 0
M  V30 230 N 22.1715 0.800033 1.35784 0
M  V30 231 C 23.3965 0.388511 2.03729 0
M  V30 232 C 23.8215 -0.990481 1.5991 0
M  V30 233 O 23.1795 -1.64013 0.772612 0
M  V30 234 C 23.2275 0.4726 3.5749 0
M  V30 235 O 22.3315 -0.51646 4.09153 0
M  V30 236 H 21.6725 0.163271 0.643614 0
M  V30 237 H 24.2025 1.0841 1.73518 0
M  V30 238 H 24.2125 0.34003 4.06581 0
M  V30 239 H 22.8875 1.47848 3.88734 0
M  V30 240 H 21.4645 -0.344673 3.71304 0
M  V30 241 N 23.6496 -1.47581 0.552962 0
M  V30 242 C 24.9266 -1.95563 -0.0381515 0
M  V30 243 C 25.3066 -1.49552 -1.48988 0
M  V30 244 O 24.6546 -0.732414 -2.16444 0
M  V30 245 C 24.8646 -3.48848 0.102919 0
M  V30 246 C 26.2126 -4.24577 -0.0446082 0
M  V30 247 O 27.2366 -3.56187 0.0302548 0
M  V30 248 O 26.0956 -5.46116 -0.204923 0
M  V30 249 H 23.1896 -0.824321 -0.0665067 0
M  V30 250 H 25.7356 -1.58001 0.619186 0
M  V30 251 H 24.5076 -3.75129 1.11328 0
M  V30 252 H 24.1306 -3.93165 -0.592224 0
M  V30 253 N 25.1277 -0.289203 -1.54924 0
M  V30 254 C 26.3747 0.323519 -1.99899 0
M  V30 255 C 26.7027 1.54797 -1.17762 0
M  V30 256 O 25.9577 1.94237 -0.238835 0
M  V30 257 C 26.2567 0.736119 -3.49737 0
M  V30 258 C 25.9227 -0.385276 -4.49251 0
M  V30 259 C 24.5847 -0.693156 -4.76181 0
M  V30 260 C 26.9367 -1.14021 -5.08575 0
M  V30 261 C 24.2647 -1.7593 -5.59701 0
M  V30 262 C 26.6167 -2.19619 -5.93254 0
M  V30 263 C 25.2807 -2.51026 -6.185 0
M  V30 264 H 24.5507 0.118384 -0.731482 0
M  V30 265 H 27.1977 -0.405847 -1.8715 0
M  V30 266 H 25.5027 1.54539 -3.60035 0
M  V30 267 H 27.1997 1.22118 -3.81953 0
M  V30 268 H 23.7897 -0.135202 -4.28387 0
M  V30 269 H 27.9737 -0.915611 -4.87781 0
M  V30 270 H 23.2297 -2.0075 -5.77503 0
M  V30 271 H 27.4037 -2.78581 -6.38252 0
M  V30 272 H 25.0307 -3.33772 -6.83008 0
M  V30 273 N 26.6058 1.57591 -0.0167156 0
M  V30 274 C 27.8538 1.90906 0.663285 0
M  V30 275 C 28.1748 0.892509 1.73376 0
M  V30 276 O 27.4448 -0.0677623 1.95783 0
M  V30 277 H 26.0248 0.704637 0.247983 0
M  V30 278 H 28.6868 1.94803 -0.0615909 0
M  V30 279 H 27.7828 2.9116 1.12393 0
M  V30 280 N 28.0839 -0.256276 1.55502 0
M  V30 281 C 29.0159 -1.33981 1.85962 0
M  V30 282 C 30.0289 -1.44743 0.745212 0
M  V30 283 O 31.2179 -1.4626 1.02324 0
M  V30 284 C 28.3179 -2.7194 2.02242 0
M  V30 285 C 27.4909 -2.83562 3.33033 0
M  V30 286 C 26.5499 -4.02304 3.39172 0
M  V30 287 O 25.5759 -3.92273 4.12444 0
M  V30 288 N 26.7779 -5.15045 2.67784 0
M  V30 289 H 29.5429 -1.08191 2.7949 0
M  V30 290 H 27.1039 -0.446388 1.55624 0
M  V30 291 H 29.0959 -3.49697 2.03701 0
M  V30 292 H 27.6659 -2.90479 1.15502 0
M  V30 293 H 26.8859 -1.92555 3.43971 0
M  V30 294 H 28.1739 -2.88271 4.19258 0
M  V30 295 H 27.5719 -5.26085 2.07968 0
M  V30 296 H 26.1289 -5.90972 2.74947 0
M  V30 297 N 29.562 -1.4872 -0.521534 0
M  V30 298 C 30.472 -1.66569 -1.65203 0
M  V30 299 C 31.488 -0.548197 -1.65139 0
M  V30 300 O 32.664 -0.820339 -1.83936 0
M  V30 301 C 29.729 -1.70917 -3.01642 0
M  V30 302 C 28.79 -2.94356 -3.12495 0
M  V30 303 C 28.023 -2.98487 -4.42426 0
M  V30 304 O 28.246 -2.10786 -5.30024 0
M  V30 305 O 27.18 -3.90746 -4.57822 0
M  V30 306 H 31.006 -2.62298 -1.5308 0
M  V30 307 H 28.591 -1.3222 -0.695565 0
M  V30 308 H 30.473 -1.7625 -3.82771 0
M  V30 309 H 29.148 -0.783633 -3.14071 0
M  V30 310 H 28.055 -2.94552 -2.3063 0
M  V30 311 H 29.388 -3.86322 -3.04986 0
M  V30 312 N 31.0401 0.771051 -1.3745 0
M  V30 313 C 32.2681 1.56015 -1.35893 0
M  V30 314 C 32.6831 1.88718 0.0555523 0
M  V30 315 O 32.0401 1.51502 1.01752 0
M  V30 316 C 32.0911 2.87001 -2.19801 0
M  V30 317 O 31.8121 2.557 -3.55738 0
M  V30 318 C 33.3131 3.81228 -2.26231 0
M  V30 319 H 30.5331 0.483317 -0.465453 0
M  V30 320 H 33.0771 0.955611 -1.80799 0
M  V30 321 H 31.2321 3.43877 -1.78402 0
M  V30 322 H 31.6461 3.39584 -3.99729 0
M  V30 323 H 33.1201 4.70139 -2.89263 0
M  V30 324 H 33.5971 4.20409 -1.27093 0
M  V30 325 H 34.2031 3.30281 -2.67945 0
M  V30 326 N 32.5182 1.22032 0.997298 0
M  V30 327 C 33.7432 1.06921 1.77715 0
M  V30 328 C 34.1682 -0.376226 1.84299 0
M  V30 329 O 33.5262 -1.27165 1.29223 0
M  V30 330 C 33.5742 1.67996 3.19076 0
M  V30 331 O 32.6782 0.930653 4.01762 0
M  V30 332 H 32.0192 0.375814 0.547412 0
M  V30 333 H 34.5492 1.61737 1.25309 0
M  V30 334 H 34.5592 1.72538 3.69723 0
M  V30 335 H 33.2342 2.73182 3.13599 0
M  V30 336 H 31.8112 0.960917 3.60307 0
M  V30 337 N 33.9963 -1.19345 1.0293 0
M  V30 338 C 35.2263 -1.92717 0.744563 0
M  V30 339 C 35.6343 -1.75751 -0.700579 0
M  V30 340 O 34.9773 -1.07703 -1.48815 0
M  V30 341 C 35.0393 -3.44828 1.01657 0
M  V30 342 C 34.7033 -3.85564 2.45335 0
M  V30 343 C 35.7003 -3.90286 3.43472 0
M  V30 344 C 33.3853 -4.1719 2.79746 0
M  V30 345 C 35.3793 -4.26065 4.74075 0
M  V30 346 C 33.0663 -4.52642 4.10559 0
M  V30 347 C 34.0643 -4.57054 5.07534 0
M  V30 348 O 33.7523 -4.91685 6.36004 0
M  V30 349 H 33.4843 -0.618977 0.271742 0
M  V30 350 H 36.0383 -1.52415 1.37691 0
M  V30 351 H 34.2683 -3.85314 0.327084 0
M  V30 352 H 35.9573 -3.99437 0.721427 0
M  V30 353 H 36.7233 -3.66002 3.18225 0
M  V30 354 H 32.6023 -4.1294 2.04943 0
M  V30 355 H 36.1463 -4.29423 5.49765 0
M  V30 356 H 32.0433 -4.76383 4.35579 0
M  V30 357 H 32.8113 -5.09631 6.40483 0
M  V30 358 N 35.4744 -0.807222 -1.35358 0
M  V30 359 C 36.7234 -0.384376 -1.98004 0
M  V30 360 C 37.0364 1.0543 -1.64754 0
M  V30 361 O 38.2424 1.58029 -2.20769 0
M  V30 362 C 36.6984 -0.636326 -3.5423 0
M  V30 363 C 36.3064 -2.08759 -3.96388 0
M  V30 364 C 38.0504 -0.278869 -4.23583 0
M  V30 365 C 35.9574 -2.28525 -5.45463 0
M  V30 366 H 34.8874 -0.139986 -0.740891 0
M  V30 367 H 37.5384 -0.991369 -1.54415 0
M  V30 368 H 35.9204 0.0406256 -3.95979 0
M  V30 369 H 37.0944 -2.8024 -3.6579 0
M  V30 370 H 35.4094 -2.40497 -3.39926 0
M  V30 371 H 38.0064 -0.404599 -5.33167 0
M  V30 372 H 38.3494 0.775012 -4.09022 0
M  V30 373 H 38.8824 -0.909764 -3.87257 0
M  V30 374 H 35.6214 -3.32361 -5.64992 0
M  V30 375 H 35.1414 -1.61569 -5.77629 0
M  V30 376 H 36.8204 -2.10109 -6.11934 0
M  V30 377 N 36.9525 1.47285 -0.560781 0
M  V30 378 C 37.8625 2.33846 0.187954 0
M  V30 379 C 38.8785 1.48412 0.908293 0
M  V30 380 O 40.0545 1.81332 0.876388 0
M  V30 381 C 37.1195 3.25178 1.2025 0
M  V30 382 C 36.1805 4.26504 0.489208 0
M  V30 383 C 35.4135 5.13472 1.45542 0
M  V30 384 O 35.6365 5.02959 2.6905 0
M  V30 385 O 34.5705 5.93902 0.977963 0
M  V30 386 H 38.3965 2.99177 -0.522177 0
M  V30 387 H 35.9815 1.45903 -0.321364 0
M  V30 388 H 37.8635 3.81584 1.78805 0
M  V30 389 H 36.5385 2.6247 1.89449 0
M  V30 390 H 35.4455 3.73847 -0.137627 0
M  V30 391 H 36.7785 4.91935 -0.161399 0
M  V30 392 N 38.4306 0.297415 1.54768 0
M  V30 393 C 39.7076 -0.365847 1.92148 0
M  V30 394 C 40.0876 -1.71975 1.22424 0
M  V30 395 O 39.4356 -2.25666 0.358739 0
M  V30 396 C 39.6456 -0.484056 3.45627 0
M  V30 397 C 40.9936 -0.756594 4.17805 0
M  V30 398 O 42.0176 -0.568007 3.51642 0
M  V30 399 O 40.8766 -1.11863 5.34929 0
M  V30 400 H 37.9706 -0.203919 0.801465 0
M  V30 401 H 40.5166 0.34521 1.66152 0
M  V30 402 H 39.2886 0.467865 3.88493 0
M  V30 403 H 38.9116 -1.24372 3.77647 0
M  V30 404 N 39.9087 -1.5758 0.0250728 0
M  V30 405 C 40.8567 -2.11125 -0.97617 0
M  V30 406 C 41.8507 -1.03689 -1.33959 0
M  V30 407 O 43.0567 -1.22128 -1.3223 0
M  V30 408 H 39.4317 -0.674468 -0.332561 0
M  V30 409 H 41.4027 -2.94194 -0.499223 0
M  V30 410 C 40.1517 -2.65017 -2.2508 0
M  V30 411 H 39.4747 -3.47333 -1.9799 0
M  V30 412 H 40.9147 -3.06133 -2.93357 0
M  V30 413 C 39.3737 -1.57574 -2.97779 0
M  V30 414 O 39.9037 -0.973203 -3.89733 0
M  V30 415 N 38.1097 -1.29716 -2.60043 0
M  V30 416 H 37.6567 -1.789 -1.85345 0
M  V30 417 H 37.6147 -0.58051 -3.08994 0
M  V30 418 N 41.3868 0.248026 -1.55636 0
M  V30 419 C 42.6268 0.983592 -1.79178 0
M  V30 420 C 42.9908 1.82567 -0.594414 0
M  V30 421 O 44.1918 2.59292 -0.708583 0
M  V30 422 C 42.4628 1.82228 -3.07454 0
M  V30 423 S 44.0218 2.61709 -3.52213 0
M  V30 424 H 40.8398 0.330866 -0.629324 0
M  V30 425 H 43.4418 0.251562 -1.93875 0
M  V30 426 H 42.1458 1.19333 -3.92668 0
M  V30 427 H 41.6768 2.59708 -2.95492 0
M  V30 428 H 43.6918 3.84655 -3.13457 0
M  V30 429 N 42.8649 1.48995 0.513639 0
M  V30 430 C 43.8129 1.65199 1.63744 0
M  V30 431 C 44.8069 0.51809 1.61283 0
M  V30 432 O 46.0129 0.697335 1.65943 0
M  V30 433 H 42.3879 0.52069 0.542574 0
M  V30 434 H 44.3589 2.59552 1.47226 0
M  V30 435 C 43.1079 1.72409 3.01945 0
M  V30 436 H 42.4309 2.59029 3.04539 0
M  V30 437 H 43.8709 1.87785 3.80148 0
M  V30 438 C 42.3299 0.46618 3.33659 0
M  V30 439 O 42.8599 -0.413744 3.99564 0
M  V30 440 N 41.0659 0.332931 2.88687 0
M  V30 441 H 40.6129 1.04996 2.35231 0
M  V30 442 H 40.5709 -0.507665 3.10274 0
M  V30 443 N 44.343 -0.763751 1.37857 0
M  V30 444 C 45.275 -1.88664 1.30148 0
M  V30 445 C 46.288 -1.61365 0.215685 0
M  V30 446 O 47.477 -1.72134 0.472459 0
M  V30 447 C 44.577 -3.24075 0.991396 0
M  V30 448 C 43.75 -3.78958 2.18426 0
M  V30 449 C 42.809 -4.92862 1.8432 0
M  V30 450 O 41.835 -5.08027 2.56704 0
M  V30 451 N 43.037 -5.75071 0.792081 0
M  V30 452 H 45.802 -1.95791 2.26905 0
M  V30 453 H 43.363 -0.943226 1.31586 0
M  V30 454 H 45.355 -3.97804 0.743935 0
M  V30 455 H 43.925 -3.12399 0.112122 0
M  V30 456 H 43.145 -2.96913 2.59299 0
M  V30 457 H 44.433 -4.12357 2.98058 0
M  V30 458 H 43.831 -5.65375 0.191595 0
M  V30 459 H 42.388 -6.48991 0.60449 0
M  V30 460 N 45.8211 -1.22559 -0.990812 0
M  V30 461 C 46.7691 -0.994798 -2.10253 0
M  V30 462 C 47.7631 0.0627798 -1.69284 0
M  V30 463 O 48.9691 -0.0898392 -1.79776 0
M  V30 464 H 45.3441 -0.304527 -0.687581 0
M  V30 465 H 47.3151 -1.93812 -2.26891 0
M  V30 466 C 46.0641 -0.591439 -3.42633 0
M  V30 467 H 45.3871 -1.3969 -3.74602 0
M  V30 468 H 46.8271 -0.469385 -4.21394 0
M  V30 469 C 45.2861 0.699232 -3.29564 0
M  V30 470 O 45.8161 1.75112 -3.61523 0
M  V30 471 N 44.0221 0.671182 -2.82743 0
M  V30 472 H 43.5691 -0.185136 -2.56934 0
M  V30 473 H 43.5271 1.53502 -2.7438 0
M  V30 474 N 47.2992 1.18797 -1.03562 0
M  V30 475 C 48.5472 1.88278 -0.734569 0
M  V30 476 C 48.8682 1.8043 0.739586 0
M  V30 477 O 48.1382 1.21925 1.53333 0
M  V30 478 H 46.7182 0.696991 -0.268725 0
M  V30 479 H 49.3802 1.44192 -1.31129 0
M  V30 480 H 48.4762 2.94443 -1.03489 0
M  V30 481 N 48.7773 0.814389 1.34928 0
M  V30 482 C 49.7403 0.235759 2.27984 0
M  V30 483 C 50.7403 -0.581412 1.49921 0
M  V30 484 O 51.9303 -0.398758 1.69575 0
M  V30 485 C 49.0623 -0.670433 3.34242 0
M  V30 486 H 50.2553 1.05659 2.80671 0
M  V30 487 H 47.8083 0.585614 1.44915 0
M  V30 488 H 48.5433 -1.51466 2.86755 0
M  V30 489 H 48.3283 -0.0860822 3.92005 0
M  V30 490 H 49.8183 -1.06935 4.03676 0
M  V30 491 N 50.2554 -1.46986 0.568584 0
M  V30 492 C 51.5044 -2.01646 0.0465894 0
M  V30 493 C 51.8174 -1.44721 -1.31587 0
M  V30 494 O 53.0234 -1.91113 -1.92842 0
M  V30 495 C 51.4794 -3.59885 0.032752 0
M  V30 496 C 51.0874 -4.25804 1.39266 0
M  V30 497 C 52.8314 -4.22255 -0.436038 0
M  V30 498 C 50.7384 -5.76081 1.33732 0
M  V30 499 H 49.6684 -0.753876 0.013647 0
M  V30 500 H 52.3194 -1.68864 0.718131 0
M  V30 501 H 50.7014 -3.8968 -0.704669 0
M  V30 502 H 51.8754 -4.07637 2.1487 0
M  V30 503 H 50.1904 -3.7547 1.80032 0
M  V30 504 H 52.7874 -5.32394 -0.49602 0
M  V30 505 H 53.1304 -3.90212 -1.45053 0
M  V30 506 H 53.6634 -3.97033 0.246877 0
M  V30 507 H 50.4024 -6.12761 2.32817 0
M  V30 508 H 49.9224 -5.96553 0.623267 0
M  V30 509 H 51.6014 -6.38518 1.0442 0
M  V30 510 N 51.7335 -0.305618 -1.54608 0
M  V30 511 C 52.9585 0.307562 -2.05107 0
M  V30 512 C 53.3835 1.46385 -1.18123 0
M  V30 513 O 52.7415 1.8034 -0.186324 0
M  V30 514 C 52.7895 0.73704 -3.52987 0
M  V30 515 O 51.8935 1.84134 -3.6901 0
M  V30 516 H 51.2345 0.0589143 -0.661381 0
M  V30 517 H 53.7645 -0.448807 -1.99617 0
M  V30 518 H 53.7745 1.02459 -3.94925 0
M  V30 519 H 52.4495 -0.108773 -4.15758 0
M  V30 520 H 51.0265 1.55398 -3.38978 0
M  V30 521 N 53.2116 1.57565 -0.0334293 0
M  V30 522 C 54.1416 2.13511 0.945265 0
M  V30 523 C 55.1226 1.05231 1.33643 0
M  V30 524 O 56.3076 1.33084 1.41429 0
M  V30 525 C 53.4376 2.6657 2.22616 0
M  V30 526 C 52.3916 3.79676 1.97561 0
M  V30 527 C 51.7176 4.1918 3.31952 0
M  V30 528 C 53.0176 5.0557 1.31135 0
M  V30 529 H 54.7116 2.95538 0.479325 0
M  V30 530 H 52.2576 1.42166 0.229115 0
M  V30 531 H 54.2106 3.04344 2.91466 0
M  V30 532 H 52.9346 1.8171 2.71384 0
M  V30 533 H 51.5936 3.42347 1.31127 0
M  V30 534 H 51.2416 3.31296 3.78487 0
M  V30 535 H 50.9416 4.95402 3.15992 0
M  V30 536 H 52.4656 4.59541 4.02063 0
M  V30 537 H 53.8796 5.40903 1.89992 0
M  V30 538 H 52.2766 5.86818 1.25559 0
M  V30 539 H 53.3466 4.84062 0.284894 0
M  V30 540 N 54.6897 -0.239769 1.55765 0
M  V30 541 C 55.9387 -0.964754 1.77131 0
M  V30 542 C 56.2517 -1.86213 0.59868 0
M  V30 543 O 57.4577 -2.6244 0.695522 0
M  V30 544 C 55.9137 -1.76552 3.1362 0
M  V30 545 C 55.5217 -0.915185 4.38553 0
M  V30 546 C 57.2657 -2.48281 3.44321 0
M  V30 547 C 55.1727 -1.71225 5.66071 0
M  V30 548 H 54.1027 -0.363953 0.660344 0
M  V30 549 H 56.7537 -0.219181 1.82186 0
M  V30 550 H 55.1357 -2.55331 3.02691 0
M  V30 551 H 56.3097 -0.169217 4.60489 0
M  V30 552 H 54.6247 -0.310889 4.15238 0
M  V30 553 H 57.2217 -3.08382 4.36812 0
M  V30 554 H 57.5647 -3.20256 2.65973 0
M  V30 555 H 58.0977 -1.76507 3.56497 0
M  V30 556 H 54.8367 -1.03612 6.4726 0
M  V30 557 H 54.3567 -2.43331 5.48224 0
M  V30 558 H 56.0357 -2.27758 6.05587 0
M  V30 559 N 56.1678 -1.49265 -0.50573 0
M  V30 560 C 57.4148 -1.58513 -1.26015 0
M  V30 561 C 57.7428 -0.26972 -1.92621 0
M  V30 562 O 56.9978 0.741997 -1.81088 0
M  V30 563 C 57.2968 -2.69008 -2.35308 0
M  V30 564 C 56.9628 -4.10662 -1.86192 0
M  V30 565 C 55.6248 -4.49212 -1.72516 0
M  V30 566 C 57.9768 -4.99336 -1.49375 0
M  V30 567 C 55.3048 -5.74214 -1.20394 0
M  V30 568 C 57.6568 -6.24852 -0.987072 0
M  V30 569 C 56.3208 -6.62236 -0.836669 0
M  V30 570 H 55.5908 -0.580041 -0.461122 0
M  V30 571 H 58.2378 -1.83078 -0.561665 0
M  V30 572 H 56.5428 -2.38396 -3.10926 0
M  V30 573 H 58.2398 -2.73373 -2.93374 0
M  V30 574 H 54.8298 -3.8023 -1.97795 0
M  V30 575 H 59.0138 -4.70212 -1.5879 0
M  V30 576 H 54.2698 -6.01883 -1.07458 0
M  V30 577 H 58.4438 -6.92944 -0.692983 0
M  V30 578 H 56.0708 -7.58979 -0.430607 0
M  V30 579 N 57.6459 0.756429 -1.3826 0
M  V30 580 C 58.8709 1.55077 -1.37717 0
M  V30 581 C 59.2959 1.88073 0.03164 0
M  V30 582 O 58.6539 1.50364 1.01293 0
M  V30 583 C 58.7019 2.8283 -2.23695 0
M  V30 584 O 57.8059 3.77862 -1.6521 0
M  V30 585 H 57.1469 0.469152 -0.469885 0
M  V30 586 H 59.6769 0.935019 -1.81985 0
M  V30 587 H 59.6869 3.31783 -2.37453 0
M  V30 588 H 58.3619 2.58144 -3.2609 0
M  V30 589 H 56.9389 3.36555 -1.60578 0
M  V30 590 N 59.124 1.23083 0.984299 0
M  V30 591 C 60.054 1.03292 2.09411 0
M  V30 592 C 61.035 -0.048923 1.7003 0
M  V30 593 O 62.22 0.114967 1.93859 0
M  V30 594 C 59.35 0.619155 3.41736 0
M  V30 595 C 58.304 1.64791 3.95004 0
M  V30 596 C 57.63 1.0897 5.23478 0
M  V30 597 C 58.93 3.03999 4.24714 0
M  V30 598 H 60.624 1.96119 2.26225 0
M  V30 599 H 58.17 0.944344 1.08711 0
M  V30 600 H 60.123 0.467777 4.18796 0
M  V30 601 H 58.847 -0.344786 3.24775 0
M  V30 602 H 57.506 1.78721 3.20085 0
M  V30 603 H 57.154 0.11686 5.02864 0
M  V30 604 H 56.854 1.77704 5.60085 0
M  V30 605 H 58.378 0.950093 6.03163 0
M  V30 606 H 59.792 2.93393 4.92538 0
M  V30 607 H 58.189 3.69936 4.72512 0
M  V30 608 H 59.259 3.53285 3.32142 0
M  V30 609 N 60.6021 -1.18246 1.0419 0
M  V30 610 C 61.5491 -2.2192 0.634037 0
M  V30 611 C 62.5191 -1.62179 -0.358765 0
M  V30 612 O 63.7041 -1.89122 -0.252466 0
M  V30 613 C 60.8441 -3.451 0.00445535 0
M  V30 614 C 59.9571 -4.19174 1.04487 0
M  V30 615 C 59.0921 -5.29813 0.383676 0
M  V30 616 C 58.1311 -5.9566 1.4091 0
M  V30 617 N 57.2681 -6.97834 0.772784 0
M  V30 618 H 62.1081 -2.56164 1.52263 0
M  V30 619 H 59.6451 -1.25843 0.761701 0
M  V30 620 H 61.6031 -4.15485 -0.377919 0
M  V30 621 H 60.2331 -3.11472 -0.847652 0
M  V30 622 H 59.2851 -3.47604 1.54518 0
M  V30 623 H 60.5971 -4.64267 1.82368 0
M  V30 624 H 59.7511 -6.06677 -0.0528366 0
M  V30 625 H 58.4901 -4.85825 -0.427208 0
M  V30 626 H 57.4951 -5.17535 1.85574 0
M  V30 627 H 58.7201 -6.4173 2.22171 0
M  V30 628 H 56.6661 -6.55998 -0.0177708 0
M  V30 629 H 56.5831 -7.41186 1.48928 0
M  V30 630 H 57.8511 -7.78665 0.36071 0
M  V30 631 N 62.0802 -0.821533 -1.34494 0
M  V30 632 C 62.9902 -0.244355 -2.33324 0
M  V30 633 C 64.0062 0.620527 -1.62559 0
M  V30 634 O 65.1822 0.528754 -1.94335 0
M  V30 635 C 62.2472 0.585368 -3.41723 0
M  V30 636 C 61.3082 -0.301752 -4.28238 0
M  V30 637 C 60.5412 0.488466 -5.3146 0
M  V30 638 O 60.7642 1.72186 -5.4379 0
M  V30 639 O 59.6982 -0.12848 -6.01763 0
M  V30 640 H 63.5242 -1.06231 -2.84515 0
M  V30 641 H 61.1092 -0.583645 -1.37528 0
M  V30 642 H 62.9912 1.05747 -4.07916 0
M  V30 643 H 61.6662 1.38068 -2.92778 0
M  V30 644 H 60.5732 -0.821315 -3.64973 0
M  V30 645 H 61.9062 -1.06138 -4.8062 0
M  V30 646 N 63.5583 1.46682 -0.576371 0
M  V30 647 C 64.4683 2.34032 0.163141 0
M  V30 648 C 65.4843 1.49367 0.892501 0
M  V30 649 O 66.6603 1.82252 0.857106 0
M  V30 650 C 63.7253 3.26435 1.16795 0
M  V30 651 C 62.7863 4.26998 0.443944 0
M  V30 652 C 62.0193 5.14986 1.40088 0
M  V30 653 O 62.2423 5.05785 2.637 0
M  V30 654 O 61.1763 5.94906 0.914917 0
M  V30 655 H 65.0023 2.98607 -0.55388 0
M  V30 656 H 62.5873 1.45554 -0.336821 0
M  V30 657 H 64.4693 3.83459 1.74748 0
M  V30 658 H 63.1443 2.64465 1.86655 0
M  V30 659 H 62.0513 3.7368 -0.177271 0
M  V30 660 H 63.3843 4.91736 -0.213566 0
M  V30 661 N 65.0364 0.313813 1.54444 0
M  V30 662 C 66.2824 -0.292108 2.00685 0
M  V30 663 C 66.6154 -1.52548 1.20177 0
M  V30 664 O 65.8904 -1.92452 0.281531 0
M  V30 665 C 66.1734 -0.635968 3.5444 0
M  V30 666 C 66.0264 0.607437 4.4568 0
M  V30 667 C 67.3454 -1.45747 4.15266 0
M  V30 668 H 64.4644 -0.104697 0.729526 0
M  V30 669 H 67.1064 0.428457 1.85106 0
M  V30 670 H 65.2564 -1.24986 3.67846 0
M  V30 671 H 66.9284 1.24581 4.44159 0
M  V30 672 H 65.1714 1.23822 4.15753 0
M  V30 673 H 65.8424 0.322515 5.51057 0
M  V30 674 H 68.3184 -0.938645 4.05375 0
M  V30 675 H 67.1944 -1.66683 5.2298 0
M  V30 676 H 67.4554 -2.45063 3.67963 0
M  V30 677 N 66.5145 -1.57545 0.0417849 0
M  V30 678 C 67.7625 -1.91937 -0.632829 0
M  V30 679 C 68.0835 -0.919978 -1.71934 0
M  V30 680 O 67.3535 0.0366064 -1.95866 0
M  V30 681 H 65.9335 -0.708493 -0.236742 0
M  V30 682 H 68.5955 -1.9468 0.0925745 0
M  V30 683 H 67.6915 -2.92912 -1.07746 0
M  V30 684 N 67.9926 0.231505 -1.5589 0
M  V30 685 C 68.9556 1.27028 -1.90779 0
M  V30 686 C 69.9556 1.40308 -0.785507 0
M  V30 687 O 71.1456 1.38744 -1.05336 0
M  V30 688 C 68.2776 2.64566 -2.14983 0
M  V30 689 H 69.4706 0.973017 -2.83677 0
M  V30 690 H 67.0236 0.471486 -1.49019 0
M  V30 691 H 67.7586 2.99406 -1.24604 0
M  V30 692 H 67.5436 2.56305 -2.96732 0
M  V30 693 H 69.0336 3.39543 -2.43105 0
M  V30 694 N 69.4707 1.49531 0.497807 0
M  V30 695 C 70.4007 1.6935 1.60757 0
M  V30 696 C 71.3817 0.542218 1.61227 0
M  V30 697 O 72.5667 0.778417 1.77917 0
M  V30 698 C 69.6967 1.76298 2.99226 0
M  V30 699 C 68.6507 2.91248 3.13622 0
M  V30 700 C 67.9767 2.83312 4.53474 0
M  V30 701 C 69.2767 4.3214 2.93346 0
M  V30 702 H 70.9707 2.62263 1.44425 0
M  V30 703 H 68.5167 1.26208 0.693367 0
M  V30 704 H 70.4697 1.88749 3.76765 0
M  V30 705 H 69.1937 0.799871 3.16654 0
M  V30 706 H 67.8527 2.78404 2.38509 0
M  V30 707 H 67.5007 1.84902 4.67782 0
M  V30 708 H 67.2007 3.60465 4.64046 0
M  V30 709 H 68.7247 2.97775 5.33069 0
M  V30 710 H 70.1387 4.45649 3.60652 0
M  V30 711 H 68.5357 5.1054 3.15387 0
M  V30 712 H 69.6057 4.46363 1.89441 0
M  V30 713 N 70.9488 -0.749086 1.3866 0
M  V30 714 C 71.9118 -1.84457 1.36045 0
M  V30 715 C 72.9118 -1.58682 0.260122 0
M  V30 716 O 74.1018 -1.66343 0.517261 0
M  V30 717 C 71.2338 -3.22008 1.11911 0
M  V30 718 H 72.4268 -1.88182 2.33512 0
M  V30 719 H 69.9798 -0.951266 1.24019 0
M  V30 720 H 70.7148 -3.2395 0.150686 0
M  V30 721 H 70.4998 -3.42111 1.91579 0
M  V30 722 H 71.9898 -4.0208 1.12788 0
M  V30 723 N 72.4269 -1.23603 -0.977757 0
M  V30 724 C 73.3739 -1.01954 -2.07061 0
M  V30 725 C 74.3439 0.0638697 -1.65977 0
M  V30 726 O 75.5289 -0.0887624 -1.90593 0
M  V30 727 C 72.6689 -0.619658 -3.39491 0
M  V30 728 C 71.7819 -1.77547 -3.93829 0
M  V30 729 C 70.9169 -1.32212 -5.14484 0
M  V30 730 C 69.9559 -2.44852 -5.60994 0
M  V30 731 N 69.0929 -2.00456 -6.72876 0
M  V30 732 H 73.9329 -1.95495 -2.24913 0
M  V30 733 H 71.4699 -0.973861 -1.10247 0
M  V30 734 H 73.4279 -0.368898 -4.15566 0
M  V30 735 H 72.0579 0.278752 -3.21594 0
M  V30 736 H 71.1099 -2.14016 -3.14486 0
M  V30 737 H 72.4219 -2.62219 -4.24314 0
M  V30 738 H 71.5759 -1.02965 -5.97899 0
M  V30 739 H 70.3149 -0.445808 -4.85658 0
M  V30 740 H 69.3199 -2.74871 -4.76157 0
M  V30 741 H 70.5449 -3.33024 -5.91837 0
M  V30 742 H 68.4909 -1.15208 -6.45804 0
M  V30 743 H 68.4079 -2.78687 -7.02759 0
M  V30 744 H 69.6759 -1.7432 -7.59758 0
M  V30 745 N 73.905 1.17692 -1.04816 0
M  V30 746 C 75.151 1.88137 -0.75711 0
M  V30 747 C 75.484 1.80604 0.713841 0
M  V30 748 O 74.759 1.21146 1.52164 0
M  V30 749 C 75.042 3.38318 -1.2334 0
M  V30 750 C 74.895 3.54622 -2.76701 0
M  V30 751 C 76.214 4.32214 -0.829415 0
M  V30 752 H 73.333 0.683163 -0.27651 0
M  V30 753 H 75.975 1.38424 -1.30149 0
M  V30 754 H 74.125 3.80787 -0.770286 0
M  V30 755 H 75.797 3.21194 -3.31107 0
M  V30 756 H 74.04 2.97026 -3.16161 0
M  V30 757 H 74.711 4.60028 -3.05088 0
M  V30 758 H 77.187 3.97565 -1.22805 0
M  V30 759 H 76.063 5.35838 -1.19033 0
M  V30 760 H 76.324 4.41294 0.266891 0
M  V30 761 N 75.3831 0.828654 1.34056 0
M  V30 762 C 76.3131 0.269443 2.3194 0
M  V30 763 C 77.2941 -0.617247 1.58506 0
M  V30 764 O 78.4791 -0.542931 1.86456 0
M  V30 765 C 75.6091 -0.564793 3.42677 0
M  V30 766 C 74.5631 0.225241 4.27407 0
M  V30 767 C 73.8891 -0.7321 5.29664 0
M  V30 768 C 75.1891 1.43663 5.02154 0
M  V30 769 H 76.8831 1.08728 2.7896 0
M  V30 770 H 74.4291 0.524283 1.34117 0
M  V30 771 H 76.3821 -0.966233 4.10173 0
M  V30 772 H 75.1061 -1.41574 2.9432 0
M  V30 773 H 73.7651 0.608117 3.61521 0
M  V30 774 H 73.4131 -1.57916 4.77568 0
M  V30 775 H 73.1131 -0.20767 5.87233 0
M  V30 776 H 74.6371 -1.13128 6.00029 0
M  V30 777 H 76.0511 1.1089 5.62473 0
M  V30 778 H 74.4481 1.89711 5.69324 0
M  V30 779 H 75.5181 2.21181 4.31517 0
M  V30 780 N 76.8612 -1.46375 0.584142 0
M  V30 781 C 78.2772 -1.57694 0.245929 0
M  V30 782 C 78.4772 -1.57903 -1.25175 0
M  V30 783 O 77.5332 -1.49676 -2.03355 0
M  V30 784 C 78.8462 -2.87028 0.896402 0
M  V30 785 C 80.3942 -3.00662 0.870127 0
M  V30 786 C 80.8692 -4.32734 1.50017 0
M  V30 787 N 82.3602 -4.39436 1.46458 0
M  V30 788 C 83.0952 -5.40248 1.92144 0
M  V30 789 N 82.5912 -6.47726 2.4581 0
M  V30 790 N 84.3842 -5.31459 1.83052 0
M  V30 791 H 76.5352 -1.44483 1.55687 0
M  V30 792 H 78.7982 -0.689291 0.650831 0
M  V30 793 H 78.5042 -2.9269 1.95002 0
M  V30 794 H 78.3782 -3.75014 0.405486 0
M  V30 795 H 80.7652 -2.94581 -0.174871 0
M  V30 796 H 80.8462 -2.14148 1.39908 0
M  V30 797 H 80.4902 -4.39573 2.54437 0
M  V30 798 H 80.4202 -5.18025 0.946432 0
M  V30 799 H 82.9112 -3.62367 1.07231 0
M  V30 800 H 83.2242 -7.20863 2.78525 0
M  V30 801 H 81.5692 -6.48542 2.49836 0
M  V30 802 H 84.7602 -4.46396 1.40883 0
M  V30 803 H 84.9332 -6.09881 2.18973 0
M  V30 804 N 78.3393 -0.321999 -1.54275 0
M  V30 805 C 79.2693 0.537411 -2.27231 0
M  V30 806 C 80.2503 1.12064 -1.27968 0
M  V30 807 O 81.4353 1.14606 -1.56777 0
M  V30 808 C 78.5653 1.69919 -3.02894 0
M  V30 809 C 77.5193 1.24534 -4.09482 0
M  V30 810 C 76.8453 2.49394 -4.72977 0
M  V30 811 C 78.1453 0.361335 -5.21049 0
M  V30 812 H 79.8393 -0.0711406 -2.99315 0
M  V30 813 H 77.3853 -0.0356555 -1.43956 0
M  V30 814 H 79.3383 2.30668 -3.52662 0
M  V30 815 H 78.0623 2.33431 -2.28424 0
M  V30 816 H 76.7213 0.660782 -3.60596 0
M  V30 817 H 76.3693 3.11265 -3.95124 0
M  V30 818 H 76.0693 2.19718 -5.44975 0
M  V30 819 H 77.5933 3.10908 -5.25517 0
M  V30 820 H 79.0073 0.875072 -5.66582 0
M  V30 821 H 77.4043 0.157428 -5.99893 0
M  V30 822 H 78.4743 -0.60822 -4.8107 0
M  V30 823 N 79.8174 1.5752 -0.0501392 0
M  V30 824 C 81.0644 1.9265 0.623874 0
M  V30 825 C 81.3924 0.928411 1.70912 0
M  V30 826 O 80.6474 -0.0594525 1.9561 0
M  V30 827 C 80.9464 3.34467 1.25963 0
M  V30 828 C 80.6124 4.49883 0.302689 0
M  V30 829 C 79.2744 4.81184 0.0393636 0
M  V30 830 C 81.6264 5.20002 -0.353205 0
M  V30 831 C 78.9544 5.79951 -0.887308 0
M  V30 832 C 81.3064 6.1976 -1.26806 0
M  V30 833 C 79.9704 6.49491 -1.54007 0
M  V30 834 H 79.2404 0.704957 0.228292 0
M  V30 835 H 81.8874 1.91146 -0.116398 0
M  V30 836 H 80.1924 3.32333 2.07514 0
M  V30 837 H 81.8894 3.58928 1.78806 0
M  V30 838 H 78.4794 4.25457 0.518109 0
M  V30 839 H 82.6634 4.96033 -0.162854 0
M  V30 840 H 77.9194 6.01322 -1.10553 0
M  V30 841 H 82.0934 6.73205 -1.78236 0
M  V30 842 H 79.7204 7.25837 -2.25976 0
M  V30 843 N 81.2955 -0.223234 1.56011 0
M  V30 844 C 82.2055 -1.29766 1.95443 0
M  V30 845 C 83.2215 -1.51373 0.858028 0
M  V30 846 O 84.3975 -1.64536 1.16146 0
M  V30 847 C 81.4625 -2.62772 2.26167 0
M  V30 848 C 80.5235 -2.49482 3.49367 0
M  V30 849 C 79.7565 -3.76145 3.78616 0
M  V30 850 O 79.9795 -4.79087 3.09568 0
M  V30 851 O 78.9135 -3.73358 4.72109 0
M  V30 852 H 82.7395 -0.99309 2.87004 0
M  V30 853 H 80.3245 -0.425958 1.43199 0
M  V30 854 H 82.2065 -3.41327 2.47131 0
M  V30 855 H 80.8815 -2.92913 1.37781 0
M  V30 856 H 79.7885 -1.69133 3.33684 0
M  V30 857 H 81.1215 -2.2428 4.38131 0
M  V30 858 N 82.7736 -1.49793 -0.48987 0
M  V30 859 C 83.6836 -1.70036 -1.61632 0
M  V30 860 C 84.6996 -0.583102 -1.63939 0
M  V30 861 O 85.8756 -0.859169 -1.82154 0
M  V30 862 C 82.9406 -1.77277 -2.97949 0
M  V30 863 C 82.0016 -3.00918 -3.06181 0
M  V30 864 C 81.2346 -3.07804 -4.35996 0
M  V30 865 O 81.4576 -2.21982 -5.25433 0
M  V30 866 O 80.3916 -4.00369 -4.49431 0
M  V30 867 H 84.2176 -2.65486 -1.47482 0
M  V30 868 H 81.8026 -1.33666 -0.667362 0
M  V30 869 H 83.6846 -1.84329 -3.78947 0
M  V30 870 H 82.3596 -0.850076 -3.12339 0
M  V30 871 H 81.2666 -2.99377 -2.2433 0
M  V30 872 H 82.5996 -3.92704 -2.96723 0
M  V30 873 N 84.2517 0.741722 -1.39055 0
M  V30 874 C 85.1997 1.87702 -1.3737 0
M  V30 875 C 86.1937 1.67427 -0.257812 0
M  V30 876 O 87.3997 1.7485 -0.427489 0
M  V30 877 H 83.7747 0.617757 -0.428812 0
M  V30 878 H 85.7457 1.86239 -2.33147 0
M  V30 879 C 84.4947 3.25315 -1.22741 0
M  V30 880 H 83.8177 3.41509 -2.07873 0
M  V30 881 H 85.2577 4.04964 -1.25618 0
M  V30 882 C 83.7167 3.36838 0.0647316 0
M  V30 883 O 84.2467 3.88073 1.03741 0
M  V30 884 N 82.4527 2.90329 0.125544 0
M  V30 885 H 81.9997 2.48823 -0.666682 0
M  V30 886 H 81.9577 2.98418 0.989639 0
M  V30 887 N 85.7298 1.2412 0.971189 0
M  V30 888 C 87.0068 0.986867 1.6888 0
M  V30 889 C 87.3868 -0.491857 2.0529 0
M  V30 890 O 86.7348 -1.46531 1.75331 0
M  V30 891 C 86.9448 1.9063 2.92338 0
M  V30 892 C 88.2928 2.17515 3.64654 0
M  V30 893 O 89.3168 1.88254 3.02388 0
M  V30 894 O 88.1758 2.6719 4.7673 0
M  V30 895 H 85.2698 0.372944 0.738134 0
M  V30 896 H 87.8158 1.35203 1.02559 0
M  V30 897 H 86.5878 2.90552 2.62097 0
M  V30 898 H 86.2108 1.54408 3.66393 0
M  V30 899 N 87.2079 -1.17134 1.05439 0
M  V30 900 C 88.4539 -1.87733 0.767077 0
M  V30 901 C 88.7869 -1.8098 -0.704253 0
M  V30 902 O 88.0619 -1.21951 -1.5152 0
M  V30 903 C 88.3449 -3.37659 1.25133 0
M  V30 904 C 88.1979 -3.53149 2.78578 0
M  V30 905 C 89.5169 -4.31768 0.852324 0
M  V30 906 H 86.6359 -0.681687 0.280129 0
M  V30 907 H 89.2779 -1.37732 1.30881 0
M  V30 908 H 87.4279 -3.80373 0.790469 0
M  V30 909 H 89.0999 -3.19434 3.32806 0
M  V30 910 H 87.3429 -2.95345 3.17732 0
M  V30 911 H 88.0139 -4.58403 3.07523 0
M  V30 912 H 90.4899 -3.96909 1.24911 0
M  V30 913 H 89.3659 -5.35199 1.21873 0
M  V30 914 H 89.6269 -4.41429 -0.243485 0
M  V30 915 N 88.686 -0.835752 -1.33615 0
M  V30 916 C 89.634 -0.255238 -2.31195 0
M  V30 917 C 90.628 0.61107 -1.57995 0
M  V30 918 O 91.834 0.500979 -1.72888 0
M  V30 919 H 88.209 -0.0638085 -0.749288 0
M  V30 920 H 90.18 -1.09283 -2.77669 0
M  V30 921 C 88.929 0.55754 -3.43201 0
M  V30 922 H 88.252 -0.0997553 -3.99676 0
M  V30 923 H 89.692 0.929622 -4.13683 0
M  V30 924 C 88.151 1.73515 -2.88781 0
M  V30 925 O 88.681 2.83376 -2.84712 0
M  V30 926 N 86.887 1.55603 -2.4543 0
M  V30 927 H 86.434 0.662354 -2.48939 0
M  V30 928 H 86.392 2.34545 -2.09371 0
M  V30 929 N 90.1641 1.46063 -0.591896 0
M  V30 930 C 91.0941 2.33172 0.123673 0
M  V30 931 C 92.0751 1.45897 0.87453 0
M  V30 932 O 93.2601 1.74698 0.848181 0
M  V30 933 C 90.3901 3.28336 1.13194 0
M  V30 934 C 89.3441 4.25124 0.495324 0
M  V30 935 C 88.6701 5.09863 1.61071 0
M  V30 936 C 89.9701 5.19143 -0.573425 0
M  V30 937 H 91.6641 2.93252 -0.603646 0
M  V30 938 H 89.2101 1.41014 -0.291741 0
M  V30 939 H 91.1631 3.88137 1.64097 0
M  V30 940 H 89.8871 2.66383 1.88965 0
M  V30 941 H 88.5461 3.66599 0.00729452 0
M  V30 942 H 88.1941 4.44288 2.35832 0
M  V30 943 H 87.8941 5.75417 1.19035 0
M  V30 944 H 89.4181 5.72529 2.12233 0
M  V30 945 H 90.8321 5.73106 -0.1491 0
M  V30 946 H 89.2291 5.93089 -0.914636 0
M  V30 947 H 90.2991 4.62519 -1.45617 0
M  V30 948 N 91.6422 0.330177 1.54103 0
M  V30 949 C 92.8702 -0.272179 2.05102 0
M  V30 950 C 93.2852 -1.45267 1.20595 0
M  V30 951 O 92.6422 -1.8094 0.238144 0
M  V30 952 C 92.6932 -0.70023 3.54653 0
M  V30 953 O 92.4142 0.433301 4.35952 0
M  V30 954 C 93.9152 -1.3647 4.21771 0
M  V30 955 H 91.1352 -0.0549159 0.668749 0
M  V30 956 H 93.6792 0.478285 1.98828 0
M  V30 957 H 91.8342 -1.40066 3.61193 0
M  V30 958 H 92.2482 0.0947539 5.24414 0
M  V30 959 H 93.7222 -1.61509 5.27843 0
M  V30 960 H 94.1992 -2.31409 3.73292 0
M  V30 961 H 94.8052 -0.706675 4.19388 0
M  V30 962 N 93.1203 -1.57491 0.0584922 0
M  V30 963 C 94.0703 -2.08474 -0.923188 0
M  V30 964 C 95.0543 -0.991479 -1.26722 0
M  V30 965 O 96.2463 -1.25473 -1.24842 0
M  V30 966 C 93.3753 -2.6392 -2.19548 0
M  V30 967 C 92.4613 -3.80227 -1.87852 0
M  V30 968 N 92.8523 -4.89714 -1.26546 0
M  V30 969 C 91.1503 -3.89271 -2.17679 0
M  V30 970 C 91.8513 -5.70689 -1.12644 0
M  V30 971 N 90.8273 -5.18531 -1.63176 0
M  V30 972 H 94.6293 -2.90517 -0.444653 0
M  V30 973 H 92.1433 -1.61745 -0.145764 0
M  V30 974 H 94.1403 -2.98752 -2.9078 0
M  V30 975 H 92.8003 -1.83318 -2.68001 0
M  V30 976 H 93.8113 -5.09358 -0.936757 0
M  V30 977 H 90.4883 -3.19623 -2.68602 0
M  V30 978 H 91.8783 -6.6875 -0.6499 0
M  V30 979 N 94.5984 0.214957 -1.56127 0
M  V30 980 C 95.8474 0.936451 -1.78643 0
M  V30 981 C 96.1604 1.85237 -0.628229 0
M  V30 982 O 97.3664 2.613 -0.737186 0
M  V30 983 C 95.8224 1.7154 -3.16389 0
M  V30 984 C 95.4304 0.845299 -4.39953 0
M  V30 985 C 97.1744 2.42772 -3.48227 0
M  V30 986 C 95.0814 1.62198 -5.68723 0
M  V30 987 H 94.0114 0.353401 -0.666051 0
M  V30 988 H 96.6624 0.190169 -1.82512 0
M  V30 989 H 95.0444 2.50484 -3.06715 0
M  V30 990 H 96.2184 0.0959353 -4.607 0
M  V30 991 H 94.5334 0.244789 -4.1568 0
M  V30 992 H 97.1304 3.01394 -4.41663 0
M  V30 993 H 97.4734 3.15984 -2.71035 0
M  V30 994 H 98.0064 1.70813 -3.5926 0
M  V30 995 H 94.7454 0.933011 -6.48826 0
M  V30 996 H 94.2654 2.34579 -5.52026 0
M  V30 997 H 95.9444 2.18095 -6.09133 0
M  V30 998 N 96.0765 1.50051 0.48192 0
M  V30 999 C 96.9865 1.7089 1.60728 0
M  V30 1000 C 98.0025 0.591788 1.63627 0
M  V30 1001 O 99.1785 0.868817 1.81696 0
M  V30 1002 C 96.2435 1.78855 2.97005 0
M  V30 1003 C 95.3045 3.02537 3.04581 0
M  V30 1004 C 94.5375 3.10112 4.34357 0
M  V30 1005 O 94.7605 2.24765 5.24249 0
M  V30 1006 O 93.6945 4.02747 4.47301 0
M  V30 1007 H 97.5205 2.66264 1.46072 0
M  V30 1008 H 95.1055 1.34018 0.660264 0
M  V30 1009 H 96.9875 1.86336 3.77964 0
M  V30 1010 H 95.6625 0.866628 3.11883 0
M  V30 1011 H 94.5695 3.00563 2.22739 0
M  V30 1012 H 95.9025 3.94272 2.94636 0
M  V30 1013 N 97.5546 -0.734337 1.39446 0
M  V30 1014 C 98.7796 -1.52866 1.40167 0
M  V30 1015 C 99.2046 -1.881 -0.00171513 0
M  V30 1016 O 98.5626 -1.51957 -0.988879 0
M  V30 1017 C 98.6106 -2.79235 2.28167 0
M  V30 1018 O 97.7146 -3.75185 1.71201 0
M  V30 1019 H 97.0556 -0.461618 0.477289 0
M  V30 1020 H 99.5856 -0.905949 1.8345 0
M  V30 1021 H 99.5956 -3.27963 2.42702 0
M  V30 1022 H 98.2706 -2.52923 3.30156 0
M  V30 1023 H 96.8476 -3.33958 1.65912 0
M  V30 1024 N 99.0327 -1.24633 -0.964593 0
M  V30 1025 C 100.449 -1.01239 -1.2338 0
M  V30 1026 C 100.649 0.2769 -1.99588 0
M  V30 1027 O 99.7047 0.992241 -2.32187 0
M  V30 1028 C 101.018 -2.22937 -2.01791 0
M  V30 1029 C 102.566 -2.27594 -2.14872 0
M  V30 1030 C 103.041 -3.48921 -2.96678 0
M  V30 1031 N 104.532 -3.49257 -3.04259 0
M  V30 1032 C 105.267 -4.39795 -3.67924 0
M  V30 1033 N 104.763 -5.40591 -4.33281 0
M  V30 1034 N 106.556 -4.275 -3.64966 0
M  V30 1035 H 98.7067 -2.0748 -0.454502 0
M  V30 1036 H 100.97 -0.910647 -0.26349 0
M  V30 1037 H 100.676 -3.16587 -1.53184 0
M  V30 1038 H 100.55 -2.25306 -3.02518 0
M  V30 1039 H 102.937 -1.34473 -2.6268 0
M  V30 1040 H 103.018 -2.2925 -1.13482 0
M  V30 1041 H 102.662 -4.42359 -2.49562 0
M  V30 1042 H 102.592 -3.4451 -3.98272 0
M  V30 1043 H 105.083 -2.76337 -2.57771 0
M  V30 1044 H 105.396 -6.05904 -4.79687 0
M  V30 1045 H 103.741 -5.44475 -4.3194 0
M  V30 1046 H 106.932 -3.47987 -3.13086 0
M  V30 1047 H 107.105 -4.98258 -4.14298 0
M  V30 1048 N 100.511 1.16574 -1.06058 0
M  V30 1049 C 101.922 1.68662 -0.800632 0
M  V30 1050 C 102.273 1.84184 0.67608 0
M  V30 1051 O 101.398 1.53568 1.52466 0
M  V30 1052 C 101.993 3.06356 -1.44676 0
M  V30 1053 C 100.552 3.55575 -1.23465 0
M  V30 1054 C 99.6988 2.31616 -1.52477 0
M  V30 1055 H 102.65 1.00969 -1.22438 0
M  V30 1056 H 102.671 3.70636 -0.860788 0
M  V30 1057 H 102.183 2.95027 -2.52152 0
M  V30 1058 H 100.284 3.72167 -0.179527 0
M  V30 1059 H 100.397 4.37812 -1.94571 0
M  V30 1060 H 98.7608 2.36512 -0.945209 0
M  V30 1061 H 99.5438 2.22887 -2.61106 0
M  V30 1062 N 101.989 0.842826 1.3317 0
M  V30 1063 C 103.214 0.453129 2.02389 0
M  V30 1064 C 103.639 -0.939105 1.6298 0
M  V30 1065 O 102.997 -1.61472 0.8244 0
M  V30 1066 C 103.045 0.586094 3.55805 0
M  V30 1067 O 102.149 -0.386029 4.10589 0
M  V30 1068 H 101.49 0.183664 0.638094 0
M  V30 1069 H 104.02 1.13875 1.69981 0
M  V30 1070 H 104.03 0.469209 4.05293 0
M  V30 1071 H 102.705 1.6014 3.83833 0
M  V30 1072 H 101.282 -0.226371 3.72212 0
M  V30 1073 N 103.467 -1.45747 0.599634 0
M  V30 1074 C 104.883 -1.57424 0.26264 0
M  V30 1075 C 105.083 -1.59222 -1.23493 0
M  V30 1076 O 104.139 -1.51825 -2.01756 0
M  V30 1077 C 105.452 -2.86061 0.926795 0
M  V30 1078 C 107 -2.99722 0.901967 0
M  V30 1079 C 107.475 -4.31119 1.54598 0
M  V30 1080 N 108.966 -4.37858 1.5111 0
M  V30 1081 C 109.701 -5.3818 1.97863 0
M  V30 1082 N 109.197 -6.45083 2.52666 0
M  V30 1083 N 110.99 -5.29487 1.88679 0
M  V30 1084 H 103.141 -1.42823 1.57211 0
M  V30 1085 H 105.404 -0.68235 0.658105 0
M  V30 1086 H 105.11 -2.90605 1.98095 0
M  V30 1087 H 104.984 -3.74563 0.445238 0
M  V30 1088 H 107.371 -2.9475 -0.143617 0
M  V30 1089 H 107.452 -2.12652 1.42171 0
M  V30 1090 H 107.096 -4.36849 2.59085 0
M  V30 1091 H 107.026 -5.16992 1.00132 0
M  V30 1092 H 109.517 -3.61209 1.11068 0
M  V30 1093 H 109.83 -7.17869 2.86155 0
M  V30 1094 H 108.175 -6.45856 2.56701 0
M  V30 1095 H 111.366 -4.44877 1.4561 0
M  V30 1096 H 111.539 -6.07524 2.25429 0
M  V30 1097 N 104.945 -0.338344 -1.53925 0
M  V30 1098 C 105.875 0.51328 -2.27789 0
M  V30 1099 C 106.856 1.107 -1.29149 0
M  V30 1100 O 108.041 1.12937 -1.57984 0
M  V30 1101 C 105.171 1.66697 -3.04679 0
M  V30 1102 C 104.125 1.20183 -4.1078 0
M  V30 1103 C 103.451 2.44363 -4.75595 0
M  V30 1104 C 104.751 0.30605 -5.21403 0
M  V30 1105 H 106.445 -0.102883 -2.99223 0
M  V30 1106 H 103.991 -0.0509219 -1.4391 0
M  V30 1107 H 105.944 2.26915 -3.55088 0
M  V30 1108 H 104.668 2.30995 -2.30887 0
M  V30 1109 H 103.327 0.622499 -3.61276 0
M  V30 1110 H 102.975 3.07057 -3.98403 0
M  V30 1111 H 102.675 2.13925 -5.47275 0
M  V30 1112 H 104.199 3.05317 -5.28786 0
M  V30 1113 H 105.613 0.814929 -5.67478 0
M  V30 1114 H 104.01 0.0937929 -6.00027 0
M  V30 1115 H 105.08 -0.65921 -4.80398 0
M  V30 1116 N 106.423 1.57458 -0.0668435 0
M  V30 1117 C 107.37 2.12439 0.902122 0
M  V30 1118 C 108.34 1.03565 1.2986 0
M  V30 1119 O 109.525 1.312 1.38532 0
M  V30 1120 C 106.665 2.6865 2.16614 0
M  V30 1121 C 105.778 3.91663 1.82274 0
M  V30 1122 C 104.913 4.36134 3.0325 0
M  V30 1123 C 103.952 5.51808 2.64904 0
M  V30 1124 N 103.089 5.9126 3.78624 0
M  V30 1125 H 107.929 2.94934 0.426382 0
M  V30 1126 H 105.466 1.4575 0.198819 0
M  V30 1127 H 107.424 2.99346 2.90599 0
M  V30 1128 H 106.054 1.88928 2.61737 0
M  V30 1129 H 105.106 3.6746 0.983719 0
M  V30 1130 H 106.418 4.75693 1.50059 0
M  V30 1131 H 105.572 4.68465 3.85519 0
M  V30 1132 H 104.311 3.50948 3.38655 0
M  V30 1133 H 103.316 5.19133 1.81055 0
M  V30 1134 H 104.541 6.38722 2.30675 0
M  V30 1135 H 102.487 5.09024 4.138 0
M  V30 1136 H 102.404 6.70018 3.5016 0
M  V30 1137 H 103.672 6.28212 4.61486 0
M  V30 1138 N 107.901 -0.206675 1.56239 0
M  V30 1139 C 108.848 -1.25617 1.93621 0
M  V30 1140 C 109.818 -1.45824 0.795274 0
M  V30 1141 O 111.003 -1.59148 1.05245 0
M  V30 1142 C 108.143 -2.59839 2.27107 0
M  V30 1143 C 107.256 -2.47308 3.54207 0
M  V30 1144 C 106.391 -3.74155 3.7707 0
M  V30 1145 C 105.43 -3.56407 4.97635 0
M  V30 1146 N 104.567 -4.75238 5.1681 0
M  V30 1147 H 109.407 -0.930383 2.83104 0
M  V30 1148 H 106.944 -0.448065 1.4011 0
M  V30 1149 H 108.902 -3.38021 2.44535 0
M  V30 1150 H 107.532 -2.90485 1.40778 0
M  V30 1151 H 106.584 -1.60483 3.4489 0
M  V30 1152 H 107.896 -2.30122 4.42544 0
M  V30 1153 H 107.05 -4.60778 3.94675 0
M  V30 1154 H 105.789 -3.94282 2.87042 0
M  V30 1155 H 104.794 -2.68168 4.79964 0
M  V30 1156 H 106.019 -3.37736 5.89161 0
M  V30 1157 H 103.965 -4.95651 4.29728 0
M  V30 1158 H 103.882 -4.60835 5.99306 0
M  V30 1159 H 105.15 -5.63246 5.38864 0
M  V30 1160 N 109.379 -1.50304 -0.473955 0
M  V30 1161 C 110.656 -1.51667 -1.23518 0
M  V30 1162 C 111.036 -0.259701 -2.09496 0
M  V30 1163 O 110.384 0.756986 -2.15597 0
M  V30 1164 C 110.594 -2.81082 -2.06868 0
M  V30 1165 C 111.942 -3.31631 -2.65153 0
M  V30 1166 O 112.966 -2.82384 -2.17113 0
M  V30 1167 O 111.825 -4.17471 -3.52675 0
M  V30 1168 H 108.919 -0.60822 -0.560355 0
M  V30 1169 H 111.465 -1.62592 -0.486011 0
M  V30 1170 H 110.237 -3.64041 -1.4349 0
M  V30 1171 H 109.86 -2.73146 -2.88924 0
M  V30 1172 N 110.857 0.726932 -1.39834 0
M  V30 1173 C 111.767 1.87131 -1.41489 0
M  V30 1174 C 112.783 1.71239 -0.308757 0
M  V30 1175 O 113.959 1.93701 -0.551529 0
M  V30 1176 C 111.024 3.22811 -1.26468 0
M  V30 1177 C 110.085 3.51039 -2.47124 0
M  V30 1178 C 109.318 4.80245 -2.3281 0
M  V30 1179 O 109.541 5.54537 -1.33585 0
M  V30 1180 O 108.475 5.08554 -3.21957 0
M  V30 1181 H 112.301 1.8869 -2.3797 0
M  V30 1182 H 109.886 0.875837 -1.21035 0
M  V30 1183 H 111.768 4.03877 -1.20255 0
M  V30 1184 H 110.443 3.22005 -0.330862 0
M  V30 1185 H 109.35 2.70027 -2.58914 0
M  V30 1186 H 110.683 3.56632 -3.39227 0
M  V30 1187 N 112.336 1.25143 0.95797 0
M  V30 1188 C 113.566 1.12261 1.73439 0
M  V30 1189 C 113.974 -0.326715 1.86358 0
M  V30 1190 O 113.317 -1.2367 1.35836 0
M  V30 1191 C 113.379 1.69966 3.16784 0
M  V30 1192 C 113.043 3.18936 3.27305 0
M  V30 1193 C 114.04 4.15968 3.11877 0
M  V30 1194 C 111.725 3.59083 3.51234 0
M  V30 1195 C 113.719 5.51126 3.20217 0
M  V30 1196 C 111.406 4.9438 3.5921 0
M  V30 1197 C 112.404 5.90211 3.43716 0
M  V30 1198 O 112.092 7.23046 3.51368 0
M  V30 1199 H 111.824 0.392476 0.550399 0
M  V30 1200 H 114.378 1.65927 1.21068 0
M  V30 1201 H 112.608 1.10744 3.70503 0
M  V30 1202 H 114.297 1.52232 3.76272 0
M  V30 1203 H 115.063 3.86292 2.93264 0
M  V30 1204 H 110.942 2.84989 3.62356 0
M  V30 1205 H 114.486 6.25905 3.0804 0
M  V30 1206 H 110.383 5.23723 3.77339 0
M  V30 1207 H 111.151 7.31097 3.6802 0
M  V30 1208 N 113.814 -1.1601 1.06675 0
M  V30 1209 C 114.724 -2.24156 0.692179 0
M  V30 1210 C 115.74 -1.71507 -0.293513 0
M  V30 1211 O 116.916 -2.009 -0.141861 0
M  V30 1212 C 113.981 -3.46587 0.0884131 0
M  V30 1213 C 113.042 -4.14257 1.12646 0
M  V30 1214 C 112.275 -5.30844 0.551416 0
M  V30 1215 O 112.498 -5.66858 -0.634656 0
M  V30 1216 O 111.432 -5.87848 1.29298 0
M  V30 1217 H 115.258 -2.58513 1.59388 0
M  V30 1218 H 112.843 -1.23599 0.83926 0
M  V30 1219 H 114.725 -4.20679 -0.246361 0
M  V30 1220 H 113.4 -3.13994 -0.786712 0
M  V30 1221 H 112.307 -3.42118 1.51348 0
M  V30 1222 H 113.64 -4.50914 1.97325 0
M  V30 1223 N 115.292 -0.849877 -1.32721 0
M  V30 1224 C 116.539 -0.450923 -1.97416 0
M  V30 1225 C 116.867 0.992376 -1.67279 0
M  V30 1226 O 116.122 1.71048 -0.950845 0
M  V30 1227 C 116.421 -0.631272 -3.51781 0
M  V30 1228 C 116.087 -2.04432 -4.01894 0
M  V30 1229 C 114.749 -2.4308 -4.1529 0
M  V30 1230 C 117.101 -2.96679 -4.28522 0
M  V30 1231 C 114.429 -3.73257 -4.52654 0
M  V30 1232 C 116.781 -4.26349 -4.67343 0
M  V30 1233 C 115.445 -4.64939 -4.78945 0
M  V30 1234 H 114.715 -0.165004 -0.722395 0
M  V30 1235 H 117.362 -1.07901 -1.58207 0
M  V30 1236 H 115.667 0.0800767 -3.91718 0
M  V30 1237 H 117.364 -0.302709 -3.99856 0
M  V30 1238 H 113.954 -1.73419 -3.91949 0
M  V30 1239 H 118.138 -2.68054 -4.17685 0
M  V30 1240 H 113.394 -4.02946 -4.59831 0
M  V30 1241 H 117.568 -4.97895 -4.86902 0
M  V30 1242 H 115.195 -5.65855 -5.07654 0
M  V30 1243 N 116.77 1.45427 -0.607355 0
M  V30 1244 C 118.017 2.02241 -0.102455 0
M  V30 1245 C 118.345 1.4758 1.26691 0
M  V30 1246 O 117.6 0.640468 1.84923 0
M  V30 1247 C 117.899 3.57398 -0.0129263 0
M  V30 1248 C 117.565 4.3121 -1.31792 0
M  V30 1249 C 116.227 4.51092 -1.67539 0
M  V30 1250 C 118.579 4.73401 -2.18039 0
M  V30 1251 C 115.907 5.10422 -2.89285 0
M  V30 1252 C 118.259 5.34078 -3.39034 0
M  V30 1253 C 116.923 5.52184 -3.75033 0
M  V30 1254 H 116.193 0.740051 -0.037491 0
M  V30 1255 H 118.84 1.74494 -0.788926 0
M  V30 1256 H 117.145 3.84421 0.756806 0
M  V30 1257 H 118.842 3.99061 0.393881 0
M  V30 1258 H 115.432 4.16047 -1.02968 0
M  V30 1259 H 119.616 4.57774 -1.91721 0
M  V30 1260 H 114.872 5.22629 -3.17283 0
M  V30 1261 H 119.046 5.65724 -4.06115 0
M  V30 1262 H 116.673 5.97925 -4.69457 0
M  V30 1263 N 118.248 0.346503 1.53744 0
M  V30 1264 C 119.476 -0.25041 2.05379 0
M  V30 1265 C 119.891 -1.43979 1.22129 0
M  V30 1266 O 119.248 -1.80677 0.257321 0
M  V30 1267 C 119.299 -0.662575 3.55376 0
M  V30 1268 O 119.02 0.479515 4.35468 0
M  V30 1269 C 120.521 -1.31989 4.23195 0
M  V30 1270 H 117.741 -0.0478198 0.669294 0
M  V30 1271 H 120.285 0.499346 1.9831 0
M  V30 1272 H 118.44 -1.36227 3.62658 0
M  V30 1273 H 118.854 0.15037 5.24284 0
M  V30 1274 H 120.328 -1.55902 5.29527 0
M  V30 1275 H 120.805 -2.27436 3.75725 0
M  V30 1276 H 121.411 -0.662154 4.20114 0
M  V30 1277 N 119.726 -1.57421 0.075193 0
M  V30 1278 C 120.676 -2.09441 -0.901025 0
M  V30 1279 C 121.66 -1.00486 -1.25663 0
M  V30 1280 O 122.852 -1.2679 -1.23504 0
M  V30 1281 C 119.981 -2.66233 -2.16737 0
M  V30 1282 C 119.067 -3.82198 -1.83808 0
M  V30 1283 N 119.458 -4.91028 -1.21345 0
M  V30 1284 C 117.756 -3.91558 -2.13538 0
M  V30 1285 C 118.457 -5.71852 -1.06585 0
M  V30 1286 N 117.433 -5.20233 -1.57667 0
M  V30 1287 H 121.235 -2.90972 -0.413815 0
M  V30 1288 H 118.749 -1.6189 -0.128601 0
M  V30 1289 H 120.746 -3.01819 -2.87595 0
M  V30 1290 H 119.406 -1.8615 -2.66042 0
M  V30 1291 H 120.417 -5.10323 -0.88268 0
M  V30 1292 H 117.094 -3.22454 -2.65197 0
M  V30 1293 H 118.484 -6.69401 -0.578933 0
M  V30 1294 N 121.204 0.198386 -1.56346 0
M  V30 1295 C 122.134 1.24865 -1.9731 0
M  V30 1296 C 123.115 1.47651 -0.844576 0
M  V30 1297 O 124.3 1.59444 -1.10866 0
M  V30 1298 C 121.43 2.59358 -2.30977 0
M  V30 1299 C 120.384 2.5119 -3.46537 0
M  V30 1300 C 119.71 3.89926 -3.65871 0
M  V30 1301 C 121.01 2.03977 -4.80823 0
M  V30 1302 H 122.704 0.908252 -2.85291 0
M  V30 1303 H 120.25 0.435462 -1.37258 0
M  V30 1304 H 122.203 3.33011 -2.58228 0
M  V30 1305 H 120.927 2.95132 -1.39874 0
M  V30 1306 H 119.586 1.79993 -3.19371 0
M  V30 1307 H 119.234 4.23046 -2.72105 0
M  V30 1308 H 118.934 3.85336 -4.4361 0
M  V30 1309 H 120.458 4.65205 -3.95495 0
M  V30 1310 H 121.872 2.67386 -5.07127 0
M  V30 1311 H 120.269 2.10397 -5.62008 0
M  V30 1312 H 121.339 0.992861 -4.74626 0
M  V30 1313 N 122.682 1.50554 0.465978 0
M  V30 1314 C 123.959 1.5232 1.22712 0
M  V30 1315 C 124.339 0.270807 2.09356 0
M  V30 1316 O 123.687 -0.745541 2.15995 0
M  V30 1317 C 123.897 2.82175 2.05374 0
M  V30 1318 C 125.245 3.33033 2.6339 0
M  V30 1319 O 126.269 2.83531 2.15612 0
M  V30 1320 O 125.128 4.19336 3.50456 0
M  V30 1321 H 122.222 0.611183 0.557122 0
M  V30 1322 H 124.768 1.62847 0.477381 0
M  V30 1323 H 123.54 3.64797 1.41558 0
M  V30 1324 H 123.163 2.74675 2.87471 0
M  V30 1325 N 124.16 -0.719506 1.40217 0
M  V30 1326 C 125.107 -1.83359 1.40172 0
M  V30 1327 C 126.077 -1.64065 0.259206 0
M  V30 1328 O 127.262 -1.85254 0.456677 0
M  V30 1329 C 124.402 -3.2103 1.26624 0
M  V30 1330 C 123.515 -3.51923 2.50548 0
M  V30 1331 C 122.65 -4.79079 2.29471 0
M  V30 1332 C 121.689 -5.02863 3.48992 0
M  V30 1333 N 120.826 -6.2123 3.27135 0
M  V30 1334 H 125.666 -1.82733 2.35399 0
M  V30 1335 H 123.203 -0.892688 1.16917 0
M  V30 1336 H 125.161 -4.00524 1.16776 0
M  V30 1337 H 123.791 -3.20895 0.350176 0
M  V30 1338 H 122.843 -2.67014 2.70939 0
M  V30 1339 H 124.155 -3.6541 3.39525 0
M  V30 1340 H 123.309 -5.66582 2.16955 0
M  V30 1341 H 122.048 -4.67794 1.37913 0
M  V30 1342 H 121.053 -4.13816 3.6199 0
M  V30 1343 H 122.278 -5.16023 4.41472 0
M  V30 1344 H 120.224 -6.11204 2.38256 0
M  V30 1345 H 120.141 -6.35375 4.09675 0
M  V30 1346 H 121.409 -7.11532 3.18344 0
M  V30 1347 N 125.638 -1.25649 -0.95132 0
M  V30 1348 C 127.054 -1.02542 -1.223 0
M  V30 1349 C 127.254 0.255715 -1.99871 0
M  V30 1350 O 126.31 0.967558 -2.33226 0
M  V30 1351 C 127.623 -2.25065 -1.99415 0
M  V30 1352 C 129.171 -2.29861 -2.12446 0
M  V30 1353 C 129.646 -3.52048 -2.92961 0
M  V30 1354 N 131.137 -3.52465 -3.00538 0
M  V30 1355 C 131.872 -4.43672 -3.63239 0
M  V30 1356 N 131.368 -5.45157 -4.27523 0
M  V30 1357 N 133.161 -4.31346 -3.60412 0
M  V30 1358 H 125.312 -2.07951 -0.432471 0
M  V30 1359 H 127.575 -0.91339 -0.253816 0
M  V30 1360 H 127.281 -3.18194 -1.49817 0
M  V30 1361 H 127.155 -2.28502 -3.00111 0
M  V30 1362 H 129.542 -1.37252 -2.61239 0
M  V30 1363 H 129.623 -2.3044 -1.11044 0
M  V30 1364 H 129.267 -4.44981 -2.44856 0
M  V30 1365 H 129.197 -3.48715 -3.94596 0
M  V30 1366 H 131.688 -2.79056 -2.54826 0
M  V30 1367 H 132.001 -6.10958 -4.73234 0
M  V30 1368 H 130.346 -5.49025 -4.26141 0
M  V30 1369 H 133.537 -3.51288 -3.09377 0
M  V30 1370 H 133.71 -5.02624 -4.0899 0
M  V30 1371 N 127.117 1.15442 -1.07289 0
M  V30 1372 C 128.342 1.90638 -0.816828 0
M  V30 1373 C 128.767 1.77445 0.624083 0
M  V30 1374 O 128.125 1.10671 1.43602 0
M  V30 1375 C 128.173 3.39008 -1.22906 0
M  V30 1376 O 127.277 4.10701 -0.373975 0
M  V30 1377 H 126.618 0.593555 -0.297638 0
M  V30 1378 H 129.148 1.46198 -1.43134 0
M  V30 1379 H 129.158 3.89801 -1.20497 0
M  V30 1380 H 127.833 3.47929 -2.27856 0
M  V30 1381 H 126.41 3.70046 -0.460499 0
M  V30 1382 N 128.595 0.856903 1.32268 0
M  V30 1383 C 129.525 0.31858 2.31316 0
M  V30 1384 C 130.506 -0.583487 1.59779 0
M  V30 1385 O 131.691 -0.503259 1.87566 0
M  V30 1386 C 128.821 -0.491979 3.43798 0
M  V30 1387 C 127.775 0.315849 4.26833 0
M  V30 1388 C 127.101 -0.619586 5.31098 0
M  V30 1389 C 128.401 1.54282 4.98993 0
M  V30 1390 H 130.095 1.14621 2.76591 0
M  V30 1391 H 127.641 0.552613 1.32974 0
M  V30 1392 H 129.594 -0.879012 4.1213 0
M  V30 1393 H 128.318 -1.35299 2.97257 0
M  V30 1394 H 126.977 0.684664 3.6015 0
M  V30 1395 H 126.625 -1.47751 4.8081 0
M  V30 1396 H 126.325 -0.0830621 5.87541 0
M  V30 1397 H 127.849 -1.00375 6.02293 0
M  V30 1398 H 129.263 1.22796 5.59995 0
M  V30 1399 H 127.66 2.01745 5.65172 0
M  V30 1400 H 128.73 2.30285 4.26728 0
M  V30 1401 N 130.073 -1.45103 0.615059 0
M  V30 1402 C 131.484 -1.85654 0.197383 0
M  V30 1403 C 131.835 -1.51433 -1.24749 0
M  V30 1404 O 130.96 -0.944608 -1.94695 0
M  V30 1405 C 131.555 -3.36972 0.351448 0
M  V30 1406 C 130.114 -3.76398 -0.011593 0
M  V30 1407 C 129.261 -2.69024 0.672394 0
M  V30 1408 H 132.212 -1.35797 0.821263 0
M  V30 1409 H 132.233 -3.78239 -0.414227 0
M  V30 1410 H 131.745 -3.61847 1.40314 0
M  V30 1411 H 129.846 -3.5714 -1.06217 0
M  V30 1412 H 129.959 -4.77532 0.387265 0
M  V30 1413 H 128.323 -2.54465 0.109284 0
M  V30 1414 H 129.106 -2.96735 1.72636 0
M  V30 1415 N 131.551 -0.354651 -1.53558 0
M  V30 1416 C 132.514 0.484566 -2.24019 0
M  V30 1417 C 133.514 1.01861 -1.24422 0
M  V30 1418 O 134.704 0.906097 -1.4878 0
M  V30 1419 C 131.836 1.67615 -2.96847 0
M  V30 1420 H 133.029 -0.131843 -2.9961 0
M  V30 1421 H 130.582 -0.106165 -1.55939 0
M  V30 1422 H 131.317 2.33095 -2.25471 0
M  V30 1423 H 131.102 1.30029 -3.69912 0
M  V30 1424 H 132.592 2.27114 -3.50441 0
M  V30 1425 N 133.029 1.57378 -0.0835403 0
M  V30 1426 C 133.959 2.1641 0.87686 0
M  V30 1427 C 134.94 1.09429 1.30228 0
M  V30 1428 O 136.125 1.37516 1.37124 0
M  V30 1429 C 133.255 2.73517 2.14022 0
M  V30 1430 C 132.209 3.85769 1.85381 0
M  V30 1431 C 131.535 4.29529 3.18448 0
M  V30 1432 C 132.835 5.09486 1.14984 0
M  V30 1433 H 134.529 2.96914 0.385059 0
M  V30 1434 H 132.075 1.42823 0.18377 0
M  V30 1435 H 134.028 3.13463 2.81636 0
M  V30 1436 H 132.752 1.90252 2.65465 0
M  V30 1437 H 131.411 3.46345 1.20169 0
M  V30 1438 H 131.059 3.43169 3.67755 0
M  V30 1439 H 130.759 5.05204 3.00071 0
M  V30 1440 H 132.283 4.72099 3.8724 0
M  V30 1441 H 133.697 5.46674 1.72687 0
M  V30 1442 H 132.094 5.90515 1.06826 0
M  V30 1443 H 133.164 4.84724 0.130749 0
M  V30 1444 N 134.507 -0.190092 1.56449 0
M  V30 1445 C 135.735 -0.925772 1.85033 0
M  V30 1446 C 136.15 -1.76638 0.666658 0
M  V30 1447 O 135.507 -1.78822 -0.364565 0
M  V30 1448 C 135.558 -1.81786 3.12468 0
M  V30 1449 O 135.279 -1.01118 4.26271 0
M  V30 1450 C 136.78 -2.6648 3.54265 0
M  V30 1451 H 134 -0.269872 0.614337 0
M  V30 1452 H 136.544 -0.195837 2.0356 0
M  V30 1453 H 134.699 -2.50136 2.95822 0
M  V30 1454 H 135.113 -1.61956 4.98869 0
M  V30 1455 H 136.587 -3.24722 4.46385 0
M  V30 1456 H 137.064 -3.40434 2.77491 0
M  V30 1457 H 137.67 -2.03493 3.73458 0
M  V30 1458 N 135.985 -1.50799 -0.457987 0
M  V30 1459 C 136.933 -1.71162 -1.575 0
M  V30 1460 C 137.927 -0.577592 -1.59249 0
M  V30 1461 O 139.133 -0.758443 -1.63241 0
M  V30 1462 H 135.508 -0.540468 -0.522875 0
M  V30 1463 H 137.479 -2.64837 -1.37492 0
M  V30 1464 C 136.228 -1.83496 -2.95338 0
M  V30 1465 H 135.551 -2.70153 -2.94716 0
M  V30 1466 H 136.991 -2.01765 -3.72917 0
M  V30 1467 C 135.45 -0.589694 -3.31699 0
M  V30 1468 O 135.98 0.265163 -4.00824 0
M  V30 1469 N 134.186 -0.439845 -2.87252 0
M  V30 1470 H 133.733 -1.13655 -2.31172 0
M  V30 1471 H 133.691 0.392159 -3.11945 0
M  V30 1472 N 137.463 0.71206 -1.40597 0
M  V30 1473 C 138.712 1.46754 -1.38369 0
M  V30 1474 C 139.025 1.95598 0.0097839 0
M  V30 1475 O 140.231 2.71059 0.154677 0
M  V30 1476 C 138.687 2.65289 -2.43207 0
M  V30 1477 C 138.295 2.23301 -3.88382 0
M  V30 1478 C 140.039 3.43008 -2.50091 0
M  V30 1479 C 137.946 3.38696 -4.84808 0
M  V30 1480 H 136.876 0.55118 -0.514506 0
M  V30 1481 H 139.527 0.774616 -1.66349 0
M  V30 1482 H 137.909 3.36769 -2.08332 0
M  V30 1483 H 139.083 1.59218 -4.32419 0
M  V30 1484 H 137.398 1.58618 -3.85006 0
M  V30 1485 H 139.995 4.28881 -3.1932 0
M  V30 1486 H 140.338 3.87065 -1.53253 0
M  V30 1487 H 140.871 2.78574 -2.83974 0
M  V30 1488 H 137.61 2.99668 -5.82992 0
M  V30 1489 H 137.13 4.01683 -4.45433 0
M  V30 1490 H 138.809 4.04712 -5.04794 0
M  V30 1491 N 138.941 1.26152 0.944643 0
M  V30 1492 C 140.19 1.10883 1.68487 0
M  V30 1493 C 140.503 -0.348153 1.92477 0
M  V30 1494 O 141.709 -0.621459 2.64292 0
M  V30 1495 C 140.165 1.93624 3.03377 0
M  V30 1496 C 139.773 3.43875 2.87148 0
M  V30 1497 C 141.517 1.86954 3.81115 0
M  V30 1498 C 139.424 4.18875 4.1749 0
M  V30 1499 H 138.354 0.41135 0.631907 0
M  V30 1500 H 141.005 1.50433 1.05082 0
M  V30 1501 H 139.387 1.46904 3.67743 0
M  V30 1502 H 140.561 3.98338 2.31653 0
M  V30 1503 H 138.876 3.51744 2.22856 0
M  V30 1504 H 141.473 2.40275 4.77673 0
M  V30 1505 H 141.816 0.839518 4.07747 0
M  V30 1506 H 142.349 2.31477 3.23517 0
M  V30 1507 H 139.088 5.22332 3.96043 0
M  V30 1508 H 138.608 3.69193 4.72712 0
M  V30 1509 H 140.287 4.27134 4.85968 0
M  V30 1510 N 140.419 -1.14872 1.07899 0
M  V30 1511 C 141.366 -2.19791 0.704319 0
M  V30 1512 C 142.336 -1.63238 -0.306987 0
M  V30 1513 O 143.521 -1.8983 -0.192171 0
M  V30 1514 C 140.661 -3.44911 0.114244 0
M  V30 1515 C 139.774 -4.15637 1.1777 0
M  V30 1516 C 138.909 -5.28324 0.552037 0
M  V30 1517 C 137.948 -5.90875 1.59789 0
M  V30 1518 N 137.085 -6.95022 0.994404 0
M  V30 1519 H 141.925 -2.5119 1.60336 0
M  V30 1520 H 139.462 -1.23356 0.801352 0
M  V30 1521 H 141.42 -4.16477 -0.245544 0
M  V30 1522 H 140.05 -3.14011 -0.74813 0
M  V30 1523 H 139.102 -3.42512 1.65499 0
M  V30 1524 H 140.414 -4.5823 1.97046 0
M  V30 1525 H 139.568 -6.06538 0.1402 0
M  V30 1526 H 138.307 -4.86939 -0.272431 0
M  V30 1527 H 137.312 -5.11369 2.01945 0
M  V30 1528 H 138.537 -6.34337 2.42474 0
M  V30 1529 H 136.483 -6.55722 0.190939 0
M  V30 1530 H 136.4 -7.36073 1.72432 0
M  V30 1531 H 137.668 -7.77123 0.608253 0
M  V30 1532 N 141.898 -0.863906 -1.31812 0
M  V30 1533 C 143.147 -0.46801 -1.96195 0
M  V30 1534 C 143.46 0.983474 -1.69077 0
M  V30 1535 O 144.666 1.48523 -2.27273 0
M  V30 1536 C 143.122 -0.785995 -3.51212 0
M  V30 1537 C 142.73 -2.25383 -3.87178 0
M  V30 1538 C 144.474 -0.458274 -4.22019 0
M  V30 1539 C 142.381 -2.51455 -5.3528 0
M  V30 1540 H 141.311 -0.171283 -0.734287 0
M  V30 1541 H 143.962 -1.05597 -1.50072 0
M  V30 1542 H 142.344 -0.127359 -3.95795 0
M  V30 1543 H 143.518 -2.95502 -3.53575 0
M  V30 1544 H 141.833 -2.54698 -3.2942 0
M  V30 1545 H 144.43 -0.630369 -5.30971 0
M  V30 1546 H 144.773 0.600834 -4.11941 0
M  V30 1547 H 145.306 -1.07319 -3.8305 0
M  V30 1548 H 142.045 -3.56025 -5.50387 0
M  V30 1549 H 141.565 -1.85923 -5.70257 0
M  V30 1550 H 143.244 -2.35874 -6.02472 0
M  V30 1551 N 143.376 1.44774 -0.622745 0
M  V30 1552 C 144.306 2.33382 0.0741861 0
M  V30 1553 C 145.287 1.47719 0.843387 0
M  V30 1554 O 146.472 1.76458 0.810934 0
M  V30 1555 C 143.602 3.30663 1.06204 0
M  V30 1556 C 142.556 4.26079 0.405037 0
M  V30 1557 C 141.882 5.13165 1.5022 0
M  V30 1558 C 143.182 5.1781 -0.683414 0
M  V30 1559 H 144.876 2.91905 -0.665713 0
M  V30 1560 H 142.422 1.40363 -0.321587 0
M  V30 1561 H 144.375 3.9153 1.55827 0
M  V30 1562 H 143.099 2.70331 1.83272 0
M  V30 1563 H 141.758 3.66532 -0.0704683 0
M  V30 1564 H 141.406 4.49191 2.26355 0
M  V30 1565 H 141.106 5.77812 1.06803 0
M  V30 1566 H 142.63 5.76902 2.00041 0
M  V30 1567 H 144.044 5.72661 -0.270631 0
M  V30 1568 H 142.441 5.91015 -1.04023 0
M  V30 1569 H 143.511 4.59326 -1.55395 0
M  V30 1570 N 144.854 0.36279 1.53368 0
M  V30 1571 C 146.27 0.0116182 1.59596 0
M  V30 1572 C 146.47 -1.47012 1.37803 0
M  V30 1573 O 145.526 -2.23136 1.18181 0
M  V30 1574 C 146.839 0.465052 2.97082 0
M  V30 1575 C 148.387 0.419033 3.10182 0
M  V30 1576 C 148.862 0.848235 4.50077 0
M  V30 1577 N 150.353 0.803183 4.56183 0
M  V30 1578 C 151.088 1.107 5.62613 0
M  V30 1579 N 150.584 1.47996 6.76808 0
M  V30 1580 N 152.377 1.02998 5.52583 0
M  V30 1581 H 144.528 1.32775 1.65785 0
M  V30 1582 H 146.791 0.542518 0.777417 0
M  V30 1583 H 146.497 1.49892 3.18159 0
M  V30 1584 H 146.371 -0.149786 3.76902 0
M  V30 1585 H 148.758 -0.605696 2.88817 0
M  V30 1586 H 148.839 1.06933 2.32377 0
M  V30 1587 H 148.483 1.87107 4.7218 0
M  V30 1588 H 148.413 0.175218 5.26308 0
M  V30 1589 H 150.904 0.52838 3.74188 0
M  V30 1590 H 151.217 1.69613 7.53957 0
M  V30 1591 H 149.562 1.51859 6.78206 0
M  V30 1592 H 152.753 0.737817 4.62249 0
M  V30 1593 H 152.926 1.2701 6.35431 0
M  V30 1594 N 146.332 -1.57332 0.0918853 0
M  V30 1595 C 147.282 -2.10385 -0.87876 0
M  V30 1596 C 148.266 -1.01814 -1.24591 0
M  V30 1597 O 149.458 -1.28093 -1.22152 0
M  V30 1598 C 146.587 -2.68517 -2.13901 0
M  V30 1599 C 145.673 -3.84126 -1.79744 0
M  V30 1600 N 146.064 -4.92288 -1.1613 0
M  V30 1601 C 144.362 -3.93801 -2.09373 0
M  V30 1602 C 145.063 -5.7295 -1.00513 0
M  V30 1603 N 144.039 -5.21876 -1.5214 0
M  V30 1604 H 147.841 -2.91395 -0.38293 0
M  V30 1605 H 145.355 -1.62017 -0.111423 0
M  V30 1606 H 147.352 -3.04852 -2.84378 0
M  V30 1607 H 146.012 -1.88961 -2.64053 0
M  V30 1608 H 147.023 -5.1123 -0.828504 0
M  V30 1609 H 143.7 -3.25249 -2.61762 0
M  V30 1610 H 145.09 -6.69978 -0.507902 0
M  V30 1611 N 147.81 0.181792 -1.56548 0
M  V30 1612 C 149.087 0.926765 -1.72251 0
M  V30 1613 C 149.467 2.00831 -0.650386 0
M  V30 1614 O 148.815 2.26008 0.336521 0
M  V30 1615 C 149.025 1.50106 -3.1507 0
M  V30 1616 C 150.373 1.97805 -3.75711 0
M  V30 1617 O 151.397 1.59922 -3.18282 0
M  V30 1618 O 150.256 2.67555 -4.76525 0
M  V30 1619 H 147.35 0.435506 -0.703039 0
M  V30 1620 H 149.896 0.170443 -1.68842 0
M  V30 1621 H 148.668 0.72212 -3.84579 0
M  V30 1622 H 148.291 2.32186 -3.22763 0
M  V30 1623 N 149.288 1.51039 0.449983 0
M  V30 1624 C 150.537 1.62317 1.19733 0
M  V30 1625 C 150.85 0.339101 1.92638 0
M  V30 1626 O 152.056 0.331069 2.69474 0
M  V30 1627 C 150.512 2.86608 2.17678 0
M  V30 1628 C 150.12 4.21972 1.50479 0
M  V30 1629 C 151.864 3.07239 2.92924 0
M  V30 1630 C 149.771 5.37426 2.46834 0
M  V30 1631 H 148.701 0.604532 0.450619 0
M  V30 1632 H 151.352 1.77494 0.465625 0
M  V30 1633 H 149.734 2.65037 2.94231 0
M  V30 1634 H 150.908 4.53878 0.795716 0
M  V30 1635 H 149.223 4.07117 0.874344 0
M  V30 1636 H 151.82 3.90668 3.65079 0
M  V30 1637 H 152.163 2.19807 3.5354 0
M  V30 1638 H 152.696 3.29091 2.23481 0
M  V30 1639 H 149.435 6.27079 1.90926 0
M  V30 1640 H 148.955 5.09912 3.15832 0
M  V30 1641 H 150.634 5.68862 3.08228 0
M  V30 1642 N 150.766 -0.704594 1.40972 0
M  V30 1643 C 152.014 -1.46169 1.39568 0
M  V30 1644 C 152.335 -1.95 0.00253745 0
M  V30 1645 O 151.605 -1.71095 -0.954114 0
M  V30 1646 H 150.185 -0.542326 0.513704 0
M  V30 1647 H 152.847 -0.834553 1.76128 0
M  V30 1648 H 151.943 -2.32922 2.07735 0
M  V30 1649 N 152.244 -1.26651 -0.937939 0
M  V30 1650 C 153.207 -1.08546 -2.01867 0
M  V30 1651 C 154.207 -0.0327327 -1.60767 0
M  V30 1652 O 155.397 -0.276427 -1.71993 0
M  V30 1653 C 152.529 -0.651711 -3.34613 0
M  V30 1654 H 153.722 -2.04502 -2.1936 0
M  V30 1655 H 151.275 -1.09294 -1.11734 0
M  V30 1656 H 152.01 0.309696 -3.22818 0
M  V30 1657 H 151.795 -1.41189 -3.65798 0
M  V30 1658 H 153.285 -0.546973 -4.14002 0
M  V30 1659 N 153.722 1.14298 -1.08507 0
M  V30 1660 C 154.95 1.89219 -0.836876 0
M  V30 1661 C 155.365 1.78638 0.611054 0
M  V30 1662 O 154.722 1.14643 1.41998 0
M  V30 1663 C 154.773 3.39158 -1.25116 0
M  V30 1664 O 154.494 3.49449 -2.64229 0
M  V30 1665 C 155.995 4.31073 -1.03398 0
M  V30 1666 H 153.215 0.599328 -0.301739 0
M  V30 1667 H 155.759 1.44746 -1.44461 0
M  V30 1668 H 153.914 3.81251 -0.687514 0
M  V30 1669 H 154.328 4.42589 -2.81452 0
M  V30 1670 H 155.802 5.34646 -1.37323 0
M  V30 1671 H 156.279 4.3919 0.0289259 0
M  V30 1672 H 156.885 3.94738 -1.58311 0
M  V30 1673 N 155.201 0.870884 1.31352 0
M  V30 1674 C 156.447 0.482987 1.96965 0
M  V30 1675 C 156.78 -0.962462 1.68672 0
M  V30 1676 O 156.055 -1.6779 0.98371 0
M  V30 1677 C 156.338 0.741752 3.52378 0
M  V30 1678 C 156.191 2.2368 3.9024 0
M  V30 1679 C 157.51 0.208838 4.39604 0
M  V30 1680 H 154.629 0.176955 0.715441 0
M  V30 1681 H 157.271 1.09229 1.55464 0
M  V30 1682 H 155.421 0.223149 3.87859 0
M  V30 1683 H 157.093 2.82273 3.64856 0
M  V30 1684 H 155.336 2.70901 3.38814 0
M  V30 1685 H 156.007 2.3685 4.98604 0
M  V30 1686 H 158.483 0.652529 4.10952 0
M  V30 1687 H 157.359 0.419336 5.47296 0
M  V30 1688 H 157.62 -0.889275 4.33064 0
M  V30 1689 N 156.679 -1.44442 0.630414 0
M  V30 1690 C 157.629 -2.27794 -0.0968103 0
M  V30 1691 C 158.613 -1.38624 -0.816834 0
M  V30 1692 O 159.805 -1.62438 -0.70306 0
M  V30 1693 C 156.934 -3.25929 -1.07819 0
M  V30 1694 C 156.02 -4.22588 -0.357826 0
M  V30 1695 N 156.411 -5.0207 0.613169 0
M  V30 1696 C 154.709 -4.41914 -0.602365 0
M  V30 1697 C 155.41 -5.72351 1.03871 0
M  V30 1698 N 154.386 -5.42287 0.377642 0
M  V30 1699 H 158.188 -2.86653 0.648621 0
M  V30 1700 H 155.702 -1.55871 0.455862 0
M  V30 1701 H 157.699 -3.84399 -1.61378 0
M  V30 1702 H 156.359 -2.68631 -1.82393 0
M  V30 1703 H 157.37 -5.08331 0.990947 0
M  V30 1704 H 154.047 -3.95714 -1.33103 0
M  V30 1705 H 155.437 -6.4619 1.84086 0
M  V30 1706 N 158.157 -0.370918 -1.53173 0
M  V30 1707 C 159.067 0.480823 -2.2962 0
M  V30 1708 C 160.083 1.08789 -1.35798 0
M  V30 1709 O 161.259 1.09768 -1.68858 0
M  V30 1710 C 158.324 1.60227 -3.07454 0
M  V30 1711 C 157.385 1.0222 -4.16953 0
M  V30 1712 C 156.618 2.0902 -4.91066 0
M  V30 1713 O 156.841 3.30222 -4.65091 0
M  V30 1714 O 155.775 1.71778 -5.76867 0
M  V30 1715 H 159.601 -0.141421 -3.03371 0
M  V30 1716 H 157.186 -0.135146 -1.48787 0
M  V30 1717 H 159.068 2.25417 -3.56041 0
M  V30 1718 H 157.743 2.20982 -2.36535 0
M  V30 1719 H 156.65 0.334064 -3.72605 0
M  V30 1720 H 157.983 0.459131 -4.90054 0
M  V30 1721 N 159.635 1.57281 -0.100228 0
M  V30 1722 C 160.565 2.17328 0.853857 0
M  V30 1723 C 161.546 1.10804 1.2906 0
M  V30 1724 O 162.731 1.38963 1.35657 0
M  V30 1725 C 159.861 2.75772 2.11109 0
M  V30 1726 C 158.815 3.87713 1.81279 0
M  V30 1727 C 158.141 4.32882 3.13874 0
M  V30 1728 C 159.441 5.10677 1.09574 0
M  V30 1729 H 161.135 2.97305 0.353545 0
M  V30 1730 H 158.681 1.43009 0.168612 0
M  V30 1731 H 160.634 3.16433 2.78296 0
M  V30 1732 H 159.358 1.93057 2.63432 0
M  V30 1733 H 158.017 3.476 1.16489 0
M  V30 1734 H 157.665 3.47051 3.64095 0
M  V30 1735 H 157.365 5.08358 2.94696 0
M  V30 1736 H 158.889 4.7618 3.82211 0
M  V30 1737 H 160.303 5.48474 1.66879 0
M  V30 1738 H 158.7 5.91615 1.00557 0
M  V30 1739 H 159.77 4.84835 0.0793299 0
M  V30 1740 N 161.113 -0.173488 1.56642 0
M  V30 1741 C 162.338 -0.910149 1.86363 0
M  V30 1742 C 162.763 -1.75132 0.686318 0
M  V30 1743 O 162.121 -1.77595 -0.364643 0
M  V30 1744 C 162.169 -1.76447 3.14482 0
M  V30 1745 O 161.273 -2.86584 2.96553 0
M  V30 1746 H 160.614 -0.255086 0.613047 0
M  V30 1747 H 163.144 -0.172283 2.03873 0
M  V30 1748 H 163.154 -2.16483 3.45831 0
M  V30 1749 H 161.829 -1.14658 3.99783 0
M  V30 1750 H 160.406 -2.50146 2.76553 0
M  V30 1751 N 162.591 -1.51276 -0.441967 0
M  V30 1752 C 164.007 -1.39349 -0.778083 0
M  V30 1753 C 164.207 -0.472212 -1.95889 0
M  V30 1754 O 163.263 0.0743551 -2.5239 0
M  V30 1755 C 164.576 -2.81292 -1.0628 0
M  V30 1756 C 166.124 -2.9041 -1.16751 0
M  V30 1757 C 166.599 -4.33251 -1.48519 0
M  V30 1758 N 168.09 -4.36336 -1.55453 0
M  V30 1759 C 168.825 -5.43885 -1.81596 0
M  V30 1760 N 168.321 -6.61601 -2.05562 0
M  V30 1761 N 170.114 -5.3136 -1.8334 0
M  V30 1762 H 162.265 -2.09729 0.335774 0
M  V30 1763 H 164.528 -0.943925 0.0878028 0
M  V30 1764 H 164.234 -3.50678 -0.267905 0
M  V30 1765 H 164.108 -3.20334 -1.99163 0
M  V30 1766 H 166.495 -2.21225 -1.95304 0
M  V30 1767 H 166.576 -2.54871 -0.217801 0
M  V30 1768 H 166.22 -5.02984 -0.704958 0
M  V30 1769 H 166.15 -4.66299 -2.44689 0
M  V30 1770 H 168.641 -3.51466 -1.38853 0
M  V30 1771 H 168.954 -7.39361 -2.24867 0
M  V30 1772 H 167.299 -6.64725 -2.02894 0
M  V30 1773 H 170.49 -4.38382 -1.64132 0
M  V30 1774 H 170.663 -6.15258 -2.03377 0
M  V30 1775 N 164.069 0.697108 -1.41344 0
M  V30 1776 C 165.346 1.45154 -1.31109 0
M  V30 1777 C 165.726 2.11009 0.0620449 0
M  V30 1778 O 165.074 2.01571 1.07618 0
M  V30 1779 C 165.284 2.47223 -2.46337 0
M  V30 1780 C 166.632 3.1252 -2.87431 0
M  V30 1781 O 167.656 2.57547 -2.46065 0
M  V30 1782 O 166.515 4.12083 -3.58957 0
M  V30 1783 H 163.609 0.646365 -0.515889 0
M  V30 1784 H 166.155 0.727716 -1.53305 0
M  V30 1785 H 164.927 1.97204 -3.37974 0
M  V30 1786 H 164.55 3.27116 -2.2601 0
M  V30 1787 N 165.547 1.27147 0.931209 0
M  V30 1788 C 166.494 1.09568 2.03134 0
M  V30 1789 C 167.464 -0.00222433 1.661 0
M  V30 1790 O 168.649 0.159439 1.90133 0
M  V30 1791 C 165.789 0.745231 3.36957 0
M  V30 1792 C 164.902 1.92041 3.86968 0
M  V30 1793 C 164.037 1.51216 5.09222 0
M  V30 1794 C 163.076 2.65504 5.5152 0
M  V30 1795 N 162.213 2.25291 6.64972 0
M  V30 1796 H 167.053 2.03708 2.17502 0
M  V30 1797 H 164.59 1.01411 1.06556 0
M  V30 1798 H 166.548 0.522878 4.1391 0
M  V30 1799 H 165.178 -0.159202 3.22407 0
M  V30 1800 H 164.23 2.25541 3.06326 0
M  V30 1801 H 165.542 2.77787 4.1429 0
M  V30 1802 H 164.696 1.25084 5.93666 0
M  V30 1803 H 163.435 0.625749 4.83669 0
M  V30 1804 H 162.44 2.92354 4.65628 0
M  V30 1805 H 163.665 3.54761 5.7907 0
M  V30 1806 H 161.611 1.39098 6.41083 0
M  V30 1807 H 161.528 3.04577 6.91931 0
M  V30 1808 H 162.796 2.02398 7.52765 0
M  V30 1809 N 167.025 -1.13721 1.09112 0
M  V30 1810 C 167.972 -2.19031 0.727591 0
M  V30 1811 C 168.942 -1.63555 -0.289656 0
M  V30 1812 O 170.127 -1.90023 -0.172026 0
M  V30 1813 C 167.267 -3.4477 0.15082 0
M  V30 1814 C 166.38 -4.14365 1.22172 0
M  V30 1815 C 165.515 -5.27709 0.608042 0
M  V30 1816 C 164.554 -5.89147 1.66047 0
M  V30 1817 N 163.691 -6.93929 1.06806 0
M  V30 1818 H 168.531 -2.49475 1.62991 0
M  V30 1819 H 166.068 -1.22499 0.81439 0
M  V30 1820 H 168.026 -4.16714 -0.201358 0
M  V30 1821 H 166.656 -3.14787 -0.714783 0
M  V30 1822 H 165.708 -3.40737 1.69122 0
M  V30 1823 H 167.02 -4.56114 2.01895 0
M  V30 1824 H 166.174 -6.06355 0.204523 0
M  V30 1825 H 164.913 -4.872 -0.220769 0
M  V30 1826 H 163.918 -5.09198 2.07357 0
M  V30 1827 H 165.143 -6.31729 2.49189 0
M  V30 1828 H 163.089 -6.55483 0.260476 0
M  V30 1829 H 163.006 -7.34202 1.8023 0
M  V30 1830 H 164.274 -7.76434 0.690644 0
M  V30 1831 N 168.503 -0.877838 -1.30888 0
M  V30 1832 C 169.45 -0.337538 -2.28318 0
M  V30 1833 C 170.42 0.568346 -1.56074 0
M  V30 1834 O 171.605 0.498298 -1.84178 0
M  V30 1835 C 168.745 0.448142 -3.42178 0
M  V30 1836 C 167.858 -0.48615 -4.29256 0
M  V30 1837 C 166.993 0.314427 -5.30269 0
M  V30 1838 C 166.032 -0.615791 -6.08995 0
M  V30 1839 N 165.169 0.14902 -7.01942 0
M  V30 1840 H 170.009 -1.17356 -2.73919 0
M  V30 1841 H 167.546 -0.590094 -1.34745 0
M  V30 1842 H 169.504 0.919517 -4.06941 0
M  V30 1843 H 168.134 1.24879 -2.97666 0
M  V30 1844 H 167.186 -1.076 -3.64865 0
M  V30 1845 H 168.498 -1.19909 -4.84173 0
M  V30 1846 H 167.652 0.847969 -6.00745 0
M  V30 1847 H 166.391 1.06062 -4.76027 0
M  V30 1848 H 165.396 -1.16102 -5.37401 0
M  V30 1849 H 166.621 -1.36097 -6.65323 0
M  V30 1850 H 164.567 0.877884 -6.50099 0
M  V30 1851 H 164.484 -0.504433 -7.54315 0
M  V30 1852 H 165.752 0.663537 -7.76671 0
M  V30 1853 N 169.982 1.44106 -0.638065 0
M  V30 1854 C 171.259 1.95453 -0.0759321 0
M  V30 1855 C 171.639 1.57984 1.40015 0
M  V30 1856 O 170.987 0.857361 2.11806 0
M  V30 1857 C 171.197 3.47655 -0.306132 0
M  V30 1858 C 172.545 4.24114 -0.203008 0
M  V30 1859 O 173.569 3.55405 -0.237871 0
M  V30 1860 O 172.428 5.46381 -0.113827 0
M  V30 1861 H 169.522 0.826797 0.0183332 0
M  V30 1862 H 172.068 1.54122 -0.710251 0
M  V30 1863 H 170.84 3.68 -1.3301 0
M  V30 1864 H 170.463 3.95949 0.361991 0
M  V30 1865 N 171.46 0.379036 1.52974 0
M  V30 1866 C 172.688 -0.20679 2.05864 0
M  V30 1867 C 173.103 -1.41356 1.25155 0
M  V30 1868 O 172.46 -1.8009 0.295588 0
M  V30 1869 C 172.511 -0.587045 3.56702 0
M  V30 1870 O 172.232 0.571776 4.34353 0
M  V30 1871 C 173.733 -1.22983 4.25899 0
M  V30 1872 H 170.953 -0.0336123 0.670158 0
M  V30 1873 H 173.497 0.541298 1.97206 0
M  V30 1874 H 171.652 -1.28504 3.65466 0
M  V30 1875 H 172.066 0.261544 5.23847 0
M  V30 1876 H 173.54 -1.44635 5.32715 0
M  V30 1877 H 174.017 -2.19416 3.80465 0
M  V30 1878 H 174.623 -0.572892 4.21424 0
M  V30 1879 N 172.938 -1.57226 0.108567 0
M  V30 1880 C 174.184 -1.95121 -0.552761 0
M  V30 1881 C 174.517 -0.991345 -1.66991 0
M  V30 1882 O 173.792 -0.0267211 -1.94482 0
M  V30 1883 C 174.075 -3.43039 -1.09528 0
M  V30 1884 C 173.928 -4.49797 0.0177332 0
M  V30 1885 C 175.247 -3.92567 -1.98945 0
M  V30 1886 H 172.366 -0.709496 -0.199461 0
M  V30 1887 H 175.008 -1.89126 0.182011 0
M  V30 1888 H 173.158 -3.48279 -1.72146 0
M  V30 1889 H 174.83 -4.56661 0.652584 0
M  V30 1890 H 173.073 -4.284 0.682309 0
M  V30 1891 H 173.744 -5.50528 -0.402919 0
M  V30 1892 H 176.22 -3.89565 -1.46214 0
M  V30 1893 H 175.096 -4.96605 -2.33827 0
M  V30 1894 H 175.357 -3.32648 -2.91201 0
M  V30 1895 N 174.416 0.165178 -1.56732 0
M  V30 1896 C 175.827 0.727046 -1.71962 0
M  V30 1897 C 176.178 1.82508 -0.720078 0
M  V30 1898 O 175.303 2.16082 0.117242 0
M  V30 1899 C 175.898 1.32559 -3.11791 0
M  V30 1900 C 174.457 1.83422 -3.28684 0
M  V30 1901 C 173.604 0.715567 -2.67908 0
M  V30 1902 H 176.555 -0.0602896 -1.58585 0
M  V30 1903 H 176.576 2.19533 -3.10782 0
M  V30 1904 H 176.088 0.526195 -3.84516 0
M  V30 1905 H 174.189 2.65986 -2.60926 0
M  V30 1906 H 174.302 1.97543 -4.36478 0
M  V30 1907 H 172.666 1.13758 -2.27884 0
M  V30 1908 H 173.449 -0.0720836 -3.43224 0
M  V30 1909 N 175.894 1.51508 0.433938 0
M  V30 1910 C 177.14 1.65549 1.18173 0
M  V30 1911 C 177.495 0.368751 1.88833 0
M  V30 1912 O 176.788 -0.635616 1.8075 0
M  V30 1913 C 176.982 2.79928 2.22205 0
M  V30 1914 C 176.811 4.19601 1.61756 0
M  V30 1915 C 175.581 4.85489 1.40101 0
M  V30 1916 C 177.779 5.02574 1.09194 0
M  V30 1917 N 175.761 6.09266 0.752859 0
M  V30 1918 C 177.132 6.17381 0.569255 0
M  V30 1919 C 179.187 4.88079 0.984025 0
M  V30 1920 C 177.89 7.19282 -0.0507472 0
M  V30 1921 C 179.916 5.90191 0.377912 0
M  V30 1922 C 179.278 7.04272 -0.134216 0
M  V30 1923 H 175.377 0.659653 0.419979 0
M  V30 1924 H 177.961 1.88746 0.477818 0
M  V30 1925 H 176.132 2.5839 2.89982 0
M  V30 1926 H 177.864 2.83132 2.89168 0
M  V30 1927 H 174.619 4.43417 1.66369 0
M  V30 1928 H 175.043 6.75528 0.446123 0
M  V30 1929 H 179.685 4.00131 1.36583 0
M  V30 1930 H 177.403 8.06876 -0.444676 0
M  V30 1931 H 180.989 5.81045 0.296269 0
M  V30 1932 H 179.869 7.81933 -0.59585 0
M  V30 1933 N 177.372 -0.689602 1.41712 0
M  V30 1934 C 178.619 -1.44966 1.4139 0
M  V30 1935 C 178.947 -1.94484 0.025105 0
M  V30 1936 O 178.202 -1.70307 -0.964048 0
M  V30 1937 C 178.501 -2.67298 2.37247 0
M  V30 1938 C 178.167 -2.36405 3.83958 0
M  V30 1939 C 176.829 -2.27691 4.23923 0
M  V30 1940 C 179.181 -2.11043 4.76561 0
M  V30 1941 C 176.509 -1.91719 5.54492 0
M  V30 1942 C 178.861 -1.76578 6.07456 0
M  V30 1943 C 177.525 -1.66363 6.46436 0
M  V30 1944 H 176.795 -0.53047 0.517381 0
M  V30 1945 H 179.442 -0.787655 1.74552 0
M  V30 1946 H 177.747 -3.38461 1.9736 0
M  V30 1947 H 179.444 -3.25452 2.34269 0
M  V30 1948 H 176.034 -2.44085 3.52308 0
M  V30 1949 H 180.218 -2.16717 4.46483 0
M  V30 1950 H 175.474 -1.82367 5.83568 0
M  V30 1951 H 179.648 -1.55974 6.78708 0
M  V30 1952 H 177.275 -1.38258 7.47522 0
M  V30 1953 N 178.85 -1.27639 -0.924453 0
M  V30 1954 C 180.261 -1.12834 -1.48746 0
M  V30 1955 C 180.612 0.285505 -1.94112 0
M  V30 1956 O 179.737 1.17874 -1.81479 0
M  V30 1957 C 180.332 -2.04217 -2.70334 0
M  V30 1958 C 178.891 -1.93509 -3.22848 0
M  V30 1959 C 178.038 -1.96583 -1.95577 0
M  V30 1960 H 180.989 -1.40484 -0.738233 0
M  V30 1961 H 181.01 -1.59989 -3.4523 0
M  V30 1962 H 180.522 -3.07111 -2.37285 0
M  V30 1963 H 178.623 -0.936131 -3.60649 0
M  V30 1964 H 178.736 -2.79917 -3.88823 0
M  V30 1965 H 177.1 -1.4085 -2.12211 0
M  V30 1966 H 177.883 -3.01137 -1.64837 0
M  V30 1967 N 180.328 1.1314 -1.09713 0
M  V30 1968 C 181.744 1.36477 -0.827423 0
M  V30 1969 C 181.944 1.93654 0.556817 0
M  V30 1970 O 181 2.15791 1.31112 0
M  V30 1971 C 182.313 2.31334 -1.92106 0
M  V30 1972 C 183.861 2.44943 -1.94864 0
M  V30 1973 C 184.336 3.4311 -3.0338 0
M  V30 1974 N 185.827 3.50662 -3.02639 0
M  V30 1975 C 186.562 4.2651 -3.83246 0
M  V30 1976 N 186.058 5.05485 -4.73768 0
M  V30 1977 N 187.851 4.2184 -3.71493 0
M  V30 1978 H 180.002 0.743807 -1.9895 0
M  V30 1979 H 182.265 0.389823 -0.864143 0
M  V30 1980 H 181.971 1.96483 -2.91698 0
M  V30 1981 H 181.845 3.31381 -1.80184 0
M  V30 1982 H 184.232 2.79079 -0.959099 0
M  V30 1983 H 184.313 1.4481 -2.10864 0
M  V30 1984 H 183.957 3.09704 -4.02549 0
M  V30 1985 H 183.887 4.43055 -2.84622 0
M  V30 1986 H 186.378 2.94315 -2.37039 0
M  V30 1987 H 186.691 5.60675 -5.3185 0
M  V30 1988 H 185.036 5.04708 -4.77802 0
M  V30 1989 H 188.227 3.5922 -3.00131 0
M  V30 1990 H 188.4 4.80697 -4.3455 0
M  V30 1991 N 181.806 0.884767 1.30421 0
M  V30 1992 C 183.034 0.518044 2.0031 0
M  V30 1993 C 183.449 -0.893408 1.66324 0
M  V30 1994 O 182.806 -1.5875 0.900262 0
M  V30 1995 C 182.857 0.682997 3.54989 0
M  V30 1996 O 182.578 2.03888 3.87764 0
M  V30 1997 C 184.079 0.31924 4.42149 0
M  V30 1998 H 181.299 0.200265 0.640418 0
M  V30 1999 H 183.843 1.19001 1.6631 0
M  V30 2000 H 181.998 0.0584052 3.87356 0
M  V30 2001 H 182.412 2.05735 4.82466 0
M  V30 2002 H 183.886 0.485555 5.4986 0
M  V30 2003 H 184.363 -0.742717 4.32875 0
M  V30 2004 H 184.969 0.920147 4.15227 0
M  V30 2005 N 183.284 -1.43765 0.645699 0
M  V30 2006 C 184.533 -2.01116 0.153412 0
M  V30 2007 C 184.846 -1.51493 -1.23731 0
M  V30 2008 O 186.052 -2.01067 -1.8244 0
M  V30 2009 C 184.508 -3.59206 0.223473 0
M  V30 2010 C 184.116 -4.17823 1.61642 0
M  V30 2011 C 185.86 -4.23972 -0.211597 0
M  V30 2012 C 183.767 -5.68183 1.64081 0
M  V30 2013 H 182.697 -0.752093 0.0535891 0
M  V30 2014 H 185.348 -1.6482 0.806633 0
M  V30 2015 H 183.73 -3.92867 -0.497118 0
M  V30 2016 H 184.904 -3.95674 2.36176 0
M  V30 2017 H 183.219 -3.65399 1.99681 0
M  V30 2018 H 185.816 -5.34275 -0.213112 0
M  V30 2019 H 186.159 -3.97352 -1.24165 0
M  V30 2020 H 186.692 -3.95166 0.456988 0
M  V30 2021 H 183.431 -5.99559 2.64971 0
M  V30 2022 H 182.951 -5.9241 0.938611 0
M  V30 2023 H 184.63 -6.32085 1.3812 0
M  V30 2024 N 184.763 -0.387143 -1.52771 0
M  V30 2025 C 185.695 0.484089 -2.2403 0
M  V30 2026 C 186.708 1.02849 -1.26198 0
M  V30 2027 O 187.897 0.931186 -1.52286 0
M  V30 2028 C 184.997 1.68337 -2.94136 0
M  V30 2029 C 184.17 1.26672 -4.18656 0
M  V30 2030 C 183.229 2.33045 -4.7178 0
M  V30 2031 O 182.255 1.94541 -5.34923 0
M  V30 2032 N 183.457 3.64929 -4.5145 0
M  V30 2033 H 186.222 -0.126404 -2.99433 0
M  V30 2034 H 183.783 -0.213392 -1.60488 0
M  V30 2035 H 185.775 2.39019 -3.26577 0
M  V30 2036 H 184.345 2.20025 -2.22053 0
M  V30 2037 H 183.565 0.388878 -3.92277 0
M  V30 2038 H 184.853 0.964964 -4.99566 0
M  V30 2039 H 184.251 3.98974 -4.01044 0
M  V30 2040 H 182.808 4.31651 -4.88386 0
M  V30 2041 N 186.241 1.57166 -0.116904 0
M  V30 2042 C 187.151 2.18745 0.847812 0
M  V30 2043 C 188.167 1.163 1.29423 0
M  V30 2044 O 189.343 1.48761 1.35765 0
M  V30 2045 C 186.408 2.77307 2.0809 0
M  V30 2046 C 185.469 3.94781 1.68661 0
M  V30 2047 C 184.702 4.50541 2.86091 0
M  V30 2048 O 184.925 4.05202 4.01456 0
M  V30 2049 O 183.859 5.41256 2.63298 0
M  V30 2050 H 187.685 3.01632 0.353778 0
M  V30 2051 H 185.27 1.49005 0.108599 0
M  V30 2052 H 187.152 3.14647 2.80313 0
M  V30 2053 H 185.827 1.97452 2.56504 0
M  V30 2054 H 184.734 3.62214 0.935518 0
M  V30 2055 H 186.067 4.76065 1.24991 0
M  V30 2056 N 187.719 -0.156864 1.56817 0
M  V30 2057 C 188.649 -1.19589 2.00551 0
M  V30 2058 C 189.63 -1.4536 0.883426 0
M  V30 2059 O 190.815 -1.56449 1.15054 0
M  V30 2060 C 187.945 -2.53143 2.37773 0
M  V30 2061 C 186.899 -2.41913 3.53075 0
M  V30 2062 C 186.225 -3.80088 3.76081 0
M  V30 2063 C 187.525 -1.91157 4.86062 0
M  V30 2064 H 189.219 -0.832293 2.87599 0
M  V30 2065 H 186.765 -0.398918 1.38364 0
M  V30 2066 H 188.718 -3.26047 2.66967 0
M  V30 2067 H 187.442 -2.91319 1.4765 0
M  V30 2068 H 186.101 -1.71462 3.24031 0
M  V30 2069 H 185.749 -4.15683 2.83225 0
M  V30 2070 H 185.449 -3.73439 4.53671 0
M  V30 2071 H 186.973 -4.54556 4.0769 0
M  V30 2072 H 188.387 -2.53846 5.14038 0
M  V30 2073 H 186.784 -1.95422 5.67389 0
M  V30 2074 H 187.854 -0.866673 4.77092 0
M  V30 2075 N 189.197 -1.51736 -0.425897 0
M  V30 2076 C 190.474 -1.55519 -1.1863 0
M  V30 2077 C 190.854 -0.326219 -2.08564 0
M  V30 2078 O 190.202 0.688012 -2.17896 0
M  V30 2079 C 190.412 -2.87521 -1.9782 0
M  V30 2080 C 191.76 -3.39899 -2.54468 0
M  V30 2081 O 192.784 -2.89148 -2.08019 0
M  V30 2082 O 191.643 -4.2848 -3.39215 0
M  V30 2083 H 188.737 -0.625739 -0.540721 0
M  V30 2084 H 191.283 -1.64055 -0.434038 0
M  V30 2085 H 190.055 -3.68422 -1.31836 0
M  V30 2086 H 189.678 -2.822 -2.80088 0
M  V30 2087 N 190.675 0.682077 -1.42076 0
M  V30 2088 C 192.091 0.994324 -1.24841 0
M  V30 2089 C 192.291 2.0096 -0.147389 0
M  V30 2090 O 191.347 2.47822 0.483782 0
M  V30 2091 C 192.66 1.50607 -2.60265 0
M  V30 2092 C 194.208 1.62421 -2.6756 0
M  V30 2093 C 194.683 2.16994 -4.03333 0
M  V30 2094 N 196.174 2.24337 -4.0525 0
M  V30 2095 C 196.909 2.67621 -5.07116 0
M  V30 2096 N 196.405 3.1041 -6.19368 0
M  V30 2097 N 198.198 2.67305 -4.94474 0
M  V30 2098 H 190.349 0.00973908 -2.12398 0
M  V30 2099 H 192.612 0.0668593 -0.945639 0
M  V30 2100 H 192.318 0.834583 -3.41654 0
M  V30 2101 H 192.192 2.48602 -2.83684 0
M  V30 2102 H 194.579 2.28678 -1.86521 0
M  V30 2103 H 194.66 0.629352 -2.47937 0
M  V30 2104 H 194.304 1.51349 -4.84826 0
M  V30 2105 H 194.234 3.17258 -4.20304 0
M  V30 2106 H 196.725 1.94158 -3.24209 0
M  V30 2107 H 197.038 3.42103 -6.92954 0
M  V30 2108 H 195.383 3.08286 -6.22884 0
M  V30 2109 H 198.574 2.33233 -4.05857 0
M  V30 2110 H 198.747 3.00718 -5.73997 0
M  V30 2111 N 192.153 1.28127 0.917671 0
M  V30 2112 C 193.4 1.15052 1.66641 0
M  V30 2113 C 193.728 -0.301677 1.92146 0
M  V30 2114 O 192.983 -1.23622 1.51711 0
M  V30 2115 C 193.282 1.89018 3.03327 0
M  V30 2116 C 192.948 3.38832 2.97496 0
M  V30 2117 C 191.61 3.79693 2.95613 0
M  V30 2118 C 193.962 4.34378 2.88036 0
M  V30 2119 C 191.29 5.14447 2.82066 0
M  V30 2120 C 193.642 5.69201 2.7603 0
M  V30 2121 C 192.306 6.09343 2.72502 0
M  V30 2122 H 191.576 0.421006 0.609783 0
M  V30 2123 H 194.223 1.58855 1.06945 0
M  V30 2124 H 192.528 1.37752 3.66785 0
M  V30 2125 H 194.225 1.76321 3.60156 0
M  V30 2126 H 190.815 3.06342 2.99754 0
M  V30 2127 H 194.999 4.03775 2.88581 0
M  V30 2128 H 190.255 5.44681 2.77728 0
M  V30 2129 H 194.429 6.42901 2.67678 0
M  V30 2130 H 192.056 7.13712 2.61762 0
M  V30 2131 N 193.631 -1.12557 1.10312 0
M  V30 2132 C 194.594 -2.16434 0.75424 0
M  V30 2133 C 195.594 -1.59278 -0.220685 0
M  V30 2134 O 196.784 -1.742 0.00230591 0
M  V30 2135 C 193.916 -3.40699 0.116987 0
M  V30 2136 H 195.109 -2.48811 1.67431 0
M  V30 2137 H 192.662 -1.27542 0.903475 0
M  V30 2138 H 193.397 -3.13921 -0.813877 0
M  V30 2139 H 193.182 -3.83459 0.818613 0
M  V30 2140 H 194.672 -4.17451 -0.111387 0
M  V30 2141 N 195.109 -0.891671 -1.2995 0
M  V30 2142 C 196.057 -0.353066 -2.29905 0
M  V30 2143 C 197.051 0.543509 -1.60444 0
M  V30 2144 O 198.257 0.4272 -1.74857 0
M  V30 2145 H 194.632 -0.095531 -0.745907 0
M  V30 2146 H 196.603 -1.20961 -2.72784 0
M  V30 2147 C 195.352 0.411475 -3.45257 0
M  V30 2148 H 194.675 -0.269182 -3.98893 0
M  V30 2149 H 196.115 0.753328 -4.17254 0
M  V30 2150 C 194.574 1.6111 -2.9588 0
M  V30 2151 O 195.104 2.71045 -2.96475 0
M  V30 2152 N 193.31 1.45054 -2.51809 0
M  V30 2153 H 192.857 0.556175 -2.51524 0
M  V30 2154 H 192.815 2.25453 -2.1913 0
M  V30 2155 N 196.587 1.43421 -0.653314 0
M  V30 2156 C 197.519 2.29071 0.0769134 0
M  V30 2157 C 198.532 1.42513 0.787017 0
M  V30 2158 O 199.721 1.66449 0.644757 0
M  V30 2159 C 196.821 3.19436 1.13199 0
M  V30 2160 C 195.994 4.34533 0.500006 0
M  V30 2161 C 195.053 5.05771 1.45198 0
M  V30 2162 O 194.079 5.61037 0.960538 0
M  V30 2163 N 195.281 5.0928 2.78594 0
M  V30 2164 H 198.046 2.92382 -0.658235 0
M  V30 2165 H 195.607 1.54112 -0.496104 0
M  V30 2166 H 197.599 3.63958 1.76964 0
M  V30 2167 H 196.169 2.57724 1.7691 0
M  V30 2168 H 195.389 3.92925 -0.316738 0
M  V30 2169 H 196.677 5.08766 0.0588345 0
M  V30 2170 H 196.075 4.65751 3.2108 0
M  V30 2171 H 194.632 5.57519 3.37662 0
M  V30 2172 N 198.065 0.39524 1.52563 0
M  V30 2173 C 199.314 -0.186321 2.00838 0
M  V30 2174 C 199.627 -1.47402 1.28577 0
M  V30 2175 O 200.833 -2.13599 1.67593 0
M  V30 2176 C 199.289 -0.382595 3.57861 0
M  V30 2177 C 198.897 0.892202 4.39026 0
M  V30 2178 C 200.641 -0.9202 4.14406 0
M  V30 2179 C 198.548 0.66388 5.87662 0
M  V30 2180 H 197.478 -0.0734041 0.750418 0
M  V30 2181 H 200.129 0.518552 1.76021 0
M  V30 2182 H 198.511 -1.14946 3.7895 0
M  V30 2183 H 199.685 1.66414 4.29701 0
M  V30 2184 H 198 1.35519 3.9373 0
M  V30 2185 H 200.597 -1.10683 5.23119 0
M  V30 2186 H 200.94 -1.89096 3.70875 0
M  V30 2187 H 201.473 -0.212751 3.97231 0
M  V30 2188 H 198.212 1.6058 6.35527 0
M  V30 2189 H 197.732 -0.0690193 5.9976 0
M  V30 2190 H 199.411 0.300699 6.46301 0
M  V30 2191 N 199.544 -1.57102 0.125237 0
M  V30 2192 C 200.474 -2.18659 -0.819174 0
M  V30 2193 C 201.455 -1.12843 -1.27281 0
M  V30 2194 O 202.64 -1.41104 -1.33429 0
M  V30 2195 C 199.77 -2.79096 -2.06695 0
M  V30 2196 C 198.724 -3.90548 -1.75088 0
M  V30 2197 C 198.05 -4.37821 -3.06948 0
M  V30 2198 C 199.35 -5.12356 -1.01435 0
M  V30 2199 H 201.044 -2.9783 -0.306202 0
M  V30 2200 H 198.59 -1.4326 -0.145839 0
M  V30 2201 H 200.543 -3.2082 -2.73226 0
M  V30 2202 H 199.267 -1.97223 -2.60328 0
M  V30 2203 H 197.926 -3.49409 -1.10944 0
M  V30 2204 H 197.574 -3.52799 -3.58527 0
M  V30 2205 H 197.274 -5.12982 -2.86571 0
M  V30 2206 H 198.798 -4.822 -3.74587 0
M  V30 2207 H 200.212 -5.5106 -1.58132 0
M  V30 2208 H 198.609 -5.9314 -0.911319 0
M  V30 2209 H 199.679 -4.849 -0.00218681 0
M  V30 2210 N 201.022 0.148545 -1.56898 0
M  V30 2211 C 202.247 0.880385 -1.87787 0
M  V30 2212 C 202.672 1.74018 -0.714093 0
M  V30 2213 O 202.03 1.78153 0.336343 0
M  V30 2214 C 202.078 1.71422 -3.17249 0
M  V30 2215 O 201.182 2.8183 -3.01074 0
M  V30 2216 H 200.523 0.245301 -0.617028 0
M  V30 2217 H 203.053 0.139826 -2.04122 0
M  V30 2218 H 203.063 2.10954 -3.49231 0
M  V30 2219 H 201.738 1.08284 -4.01556 0
M  V30 2220 H 200.315 2.45715 -2.80497 0
M  V30 2221 N 202.5 1.5196 0.417844 0
M  V30 2222 C 203.73 1.69181 1.18581 0
M  V30 2223 C 204.138 0.397104 1.84986 0
M  V30 2224 O 203.481 -0.636011 1.72339 0
M  V30 2225 C 203.543 2.76497 2.29759 0
M  V30 2226 C 203.207 4.18514 1.83563 0
M  V30 2227 C 204.204 5.02648 1.32821 0
M  V30 2228 C 201.889 4.64708 1.90661 0
M  V30 2229 C 203.883 6.31044 0.897894 0
M  V30 2230 C 201.57 5.93096 1.47241 0
M  V30 2231 C 202.568 6.76093 0.968891 0
M  V30 2232 O 202.256 8.02078 0.540924 0
M  V30 2233 H 201.988 0.570457 0.362705 0
M  V30 2234 H 204.542 1.99249 0.498885 0
M  V30 2235 H 202.772 2.41786 3.01789 0
M  V30 2236 H 204.461 2.82403 2.91553 0
M  V30 2237 H 205.227 4.68154 1.26716 0
M  V30 2238 H 201.106 4.00216 2.28797 0
M  V30 2239 H 204.65 6.95776 0.504192 0
M  V30 2240 H 200.547 6.271 1.53022 0
M  V30 2241 H 201.315 8.15794 0.66502 0
M  V30 2242 N 203.978 -0.674533 1.42435 0
M  V30 2243 C 205.226 -1.43175 1.42637 0
M  V30 2244 C 205.547 -1.94951 0.0438992 0
M  V30 2245 O 204.817 -1.7308 -0.917607 0
M  V30 2246 H 203.397 -0.531307 0.525092 0
M  V30 2247 H 206.059 -0.797006 1.77859 0
M  V30 2248 H 205.155 -2.28463 2.12629 0
M  V30 2249 N 205.456 -1.28612 -0.910864 0
M  V30 2250 C 206.419 -1.12803 -1.9952 0
M  V30 2251 C 207.419 -0.0668264 -1.60661 0
M  V30 2252 O 208.609 -0.312847 -1.71368 0
M  V30 2253 C 205.741 -0.72254 -3.33155 0
M  V30 2254 H 206.934 -2.09109 -2.14973 0
M  V30 2255 H 204.487 -1.11639 -1.09391 0
M  V30 2256 H 205.222 0.241152 -3.23402 0
M  V30 2257 H 205.007 -1.48916 -3.62721 0
M  V30 2258 H 206.497 -0.634666 -4.12749 0
M  V30 2259 N 206.934 1.1197 -1.10907 0
M  V30 2260 C 207.844 2.21433 -0.774896 0
M  V30 2261 C 208.86 1.72478 0.229657 0
M  V30 2262 O 210.036 2.01288 0.0672008 0
M  V30 2263 C 207.101 3.4602 -0.216986 0
M  V30 2264 C 206.162 4.09791 -1.27944 0
M  V30 2265 C 205.395 5.28431 -0.748055 0
M  V30 2266 O 205.618 5.68823 0.423833 0
M  V30 2267 O 204.552 5.82644 -1.51027 0
M  V30 2268 H 208.378 2.5242 -1.68873 0
M  V30 2269 H 205.963 1.20399 -0.884555 0
M  V30 2270 H 207.845 4.21304 0.090059 0
M  V30 2271 H 206.52 3.16698 0.669633 0
M  V30 2272 H 205.427 3.36265 -1.63941 0
M  V30 2273 H 206.76 4.4328 -2.13925 0
M  V30 2274 N 208.412 0.89855 1.29475 0
M  V30 2275 C 209.342 0.39201 2.30186 0
M  V30 2276 C 210.323 -0.532359 1.61555 0
M  V30 2277 O 211.508 -0.443331 1.89072 0
M  V30 2278 C 208.638 -0.382353 3.45189 0
M  V30 2279 C 207.592 0.451483 4.25612 0
M  V30 2280 C 206.918 -0.450307 5.328 0
M  V30 2281 C 208.218 1.70079 4.93832 0
M  V30 2282 H 209.912 1.23362 2.72804 0
M  V30 2283 H 207.458 0.594638 1.31149 0
M  V30 2284 H 209.411 -0.747451 4.14718 0
M  V30 2285 H 208.135 -1.25774 3.01411 0
M  V30 2286 H 206.794 0.798897 3.57789 0
M  V30 2287 H 206.442 -1.32379 4.85268 0
M  V30 2288 H 206.142 0.103902 5.87508 0
M  V30 2289 H 207.666 -0.811623 6.05182 0
M  V30 2290 H 209.08 1.40549 5.55805 0
M  V30 2291 H 207.477 2.19623 5.58467 0
M  V30 2292 H 208.547 2.43744 4.19186 0
M  V30 2293 N 209.89 -1.43072 0.660911 0
M  V30 2294 C 211.167 -1.95307 0.107017 0
M  V30 2295 C 211.547 -1.60192 -1.37484 0
M  V30 2296 O 210.895 -0.890949 -2.10415 0
M  V30 2297 C 211.105 -3.47124 0.361402 0
M  V30 2298 C 212.453 -4.23738 0.270455 0
M  V30 2299 O 213.477 -3.54981 0.294382 0
M  V30 2300 O 212.336 -5.46131 0.200737 0
M  V30 2301 H 209.43 -0.826984 -0.00517729 0
M  V30 2302 H 211.976 -1.52972 0.734681 0
M  V30 2303 H 210.748 -3.65837 1.38848 0
M  V30 2304 H 210.371 -3.96475 -0.298953 0
M  V30 2305 N 211.368 -0.403325 -1.52352 0
M  V30 2306 C 212.331 0.413051 -2.25447 0
M  V30 2307 C 213.331 0.978513 -1.276 0
M  V30 2308 O 214.521 0.858305 -1.51587 0
M  V30 2309 C 211.653 1.58087 -3.02029 0
M  V30 2310 H 212.846 -0.227094 -2.99039 0
M  V30 2311 H 210.399 -0.155722 -1.55522 0
M  V30 2312 H 211.134 2.25804 -2.32772 0
M  V30 2313 H 210.919 1.18195 -3.73861 0
M  V30 2314 H 212.409 2.1585 -3.57489 0
M  V30 2315 N 212.846 1.57033 -0.133567 0
M  V30 2316 C 214.123 1.87256 0.56522 0
M  V30 2317 C 214.503 1.03726 1.83859 0
M  V30 2318 O 213.851 0.120247 2.28183 0
M  V30 2319 C 214.061 3.3865 0.843636 0
M  V30 2320 C 215.409 4.07574 1.19032 0
M  V30 2321 O 216.433 3.43752 0.933429 0
M  V30 2322 O 215.292 5.20259 1.67312 0
M  V30 2323 H 212.386 0.775678 0.286796 0
M  V30 2324 H 214.932 1.68855 -0.169168 0
M  V30 2325 H 213.704 3.91257 -0.0581149 0
M  V30 2326 H 213.327 3.62532 1.63268 0
M  V30 2327 N 214.325 -0.140222 1.56975 0
M  V30 2328 C 215.275 -1.17827 1.95194 0
M  V30 2329 C 216.259 -1.38195 0.824075 0
M  V30 2330 O 217.451 -1.39643 1.0876 0
M  V30 2331 C 214.58 -2.51024 2.34184 0
M  V30 2332 C 213.666 -2.3422 3.53556 0
M  V30 2333 N 214.057 -1.87185 4.69889 0
M  V30 2334 C 212.355 -2.64949 3.58773 0
M  V30 2335 C 213.056 -1.83586 5.5197 0
M  V30 2336 N 212.032 -2.2715 4.93866 0
M  V30 2337 H 215.834 -0.806817 2.82609 0
M  V30 2338 H 213.348 -0.348208 1.58623 0
M  V30 2339 H 215.345 -3.26074 2.59772 0
M  V30 2340 H 214.005 -2.88945 1.48124 0
M  V30 2341 H 215.016 -1.57048 4.93514 0
M  V30 2342 H 211.693 -3.067 2.8327 0
M  V30 2343 H 213.083 -1.48655 6.55249 0
M  V30 2344 N 215.803 -1.52179 -0.40978 0
M  V30 2345 C 217.214 -1.58377 -0.988615 0
M  V30 2346 C 217.565 -0.423879 -1.91566 0
M  V30 2347 O 216.69 0.455844 -2.11544 0
M  V30 2348 C 217.285 -2.87044 -1.79976 0
M  V30 2349 C 215.844 -2.95722 -2.32863 0
M  V30 2350 C 214.991 -2.53309 -1.12828 0
M  V30 2351 H 217.942 -1.57558 -0.190039 0
M  V30 2352 H 217.963 -2.7236 -2.65707 0
M  V30 2353 H 217.475 -3.71444 -1.12478 0
M  V30 2354 H 215.576 -2.15814 -3.03735 0
M  V30 2355 H 215.689 -3.99951 -2.63773 0
M  V30 2356 H 214.053 -2.07142 -1.48204 0
M  V30 2357 H 214.836 -3.40082 -0.46897 0
M  V30 2358 N 217.281 0.66697 -1.42791 0
M  V30 2359 C 218.529 1.42417 -1.43394 0
M  V30 2360 C 218.85 1.94925 -0.0542373 0
M  V30 2361 O 218.12 1.73564 0.908415 0
M  V30 2362 H 216.7 0.528515 -0.527902 0
M  V30 2363 H 219.362 0.787562 -1.78279 0
M  V30 2364 H 218.458 2.27333 -2.13837 0
M  V30 2365 N 218.759 1.29093 0.90403 0
M  V30 2366 C 220.006 1.16813 1.65411 0
M  V30 2367 C 220.334 -0.28128 1.92455 0
M  V30 2368 O 219.589 -1.22006 1.53013 0
M  V30 2369 C 219.888 1.92224 3.01305 0
M  V30 2370 C 219.554 3.41968 2.93885 0
M  V30 2371 C 218.216 3.82807 2.91569 0
M  V30 2372 C 220.568 4.37409 2.83413 0
M  V30 2373 C 217.896 5.1741 2.76594 0
M  V30 2374 C 220.248 5.72097 2.69977 0
M  V30 2375 C 218.912 6.12199 2.66024 0
M  V30 2376 H 218.182 0.42745 0.605283 0
M  V30 2377 H 220.829 1.59981 1.05254 0
M  V30 2378 H 219.134 1.41635 3.65304 0
M  V30 2379 H 220.831 1.80131 3.58265 0
M  V30 2380 H 217.421 3.09504 2.96488 0
M  V30 2381 H 221.605 4.06813 2.84283 0
M  V30 2382 H 216.861 5.47596 2.71935 0
M  V30 2383 H 221.035 6.45704 2.60844 0
M  V30 2384 H 218.662 7.16448 2.54178 0
M  V30 2385 N 220.237 -1.11381 1.11499 0
M  V30 2386 C 221.184 -2.17439 0.773887 0
M  V30 2387 C 222.154 -1.64132 -0.254899 0
M  V30 2388 O 223.339 -1.90345 -0.13168 0
M  V30 2389 C 220.479 -3.44373 0.223917 0
M  V30 2390 C 219.592 -4.1168 1.30934 0
M  V30 2391 C 218.727 -5.263 0.71984 0
M  V30 2392 C 217.766 -5.85493 1.78507 0
M  V30 2393 N 216.903 -6.91507 1.21502 0
M  V30 2394 H 221.743 -2.45962 1.68246 0
M  V30 2395 H 219.28 -1.20744 0.840191 0
M  V30 2396 H 221.238 -4.17047 -0.112921 0
M  V30 2397 H 219.868 -3.16232 -0.647851 0
M  V30 2398 H 218.92 -3.37073 1.76312 0
M  V30 2399 H 220.232 -4.51729 2.11524 0
M  V30 2400 H 219.386 -6.05785 0.333094 0
M  V30 2401 H 218.125 -4.87559 -0.117377 0
M  V30 2402 H 217.13 -5.04686 2.18111 0
M  V30 2403 H 218.355 -6.26301 2.62533 0
M  V30 2404 H 216.301 -6.54783 0.399455 0
M  V30 2405 H 216.218 -7.30214 1.95763 0
M  V30 2406 H 217.486 -7.74795 0.855181 0
M  V30 2407 N 221.715 -0.905404 -1.28997 0
M  V30 2408 C 222.992 -0.453513 -1.9027 0
M  V30 2409 C 223.372 1.06721 -1.82137 0
M  V30 2410 O 222.72 1.91159 -1.25182 0
M  V30 2411 C 222.93 -0.974494 -3.35119 0
M  V30 2412 C 224.278 -1.0216 -4.12127 0
M  V30 2413 O 225.302 -0.922557 -3.44046 0
M  V30 2414 O 224.161 -1.17121 -5.33802 0
M  V30 2415 H 221.255 -0.142347 -0.814657 0
M  V30 2416 H 223.801 -0.995642 -1.37423 0
M  V30 2417 H 222.573 -2.01848 -3.35221 0
M  V30 2418 H 222.196 -0.412706 -3.95452 0
M  V30 2419 N 223.193 1.4272 -0.668489 0
M  V30 2420 C 224.604 1.84793 -0.266151 0
M  V30 2421 C 224.955 1.55959 1.19043 0
M  V30 2422 O 224.08 1.01622 1.91055 0
M  V30 2423 C 224.675 3.35436 -0.476271 0
M  V30 2424 C 223.234 3.76182 -0.128113 0
M  V30 2425 C 222.381 2.66344 -0.771777 0
M  V30 2426 H 225.332 1.32656 -0.871098 0
M  V30 2427 H 225.353 3.79515 0.273561 0
M  V30 2428 H 224.865 3.5639 -1.53647 0
M  V30 2429 H 222.966 3.60836 0.928891 0
M  V30 2430 H 223.079 4.75766 -0.564231 0
M  V30 2431 H 221.443 2.53885 -0.203652 0
M  V30 2432 H 222.226 2.90123 -1.83531 0
M  V30 2433 N 224.671 0.411399 1.52136 0
M  V30 2434 C 225.917 -0.163888 2.02137 0
M  V30 2435 C 226.25 -1.44597 1.29636 0
M  V30 2436 O 225.525 -1.90272 0.403353 0
M  V30 2437 C 225.808 -0.40927 3.57767 0
M  V30 2438 C 225.661 0.889643 4.40914 0
M  V30 2439 C 226.98 -1.19042 4.23694 0
M  V30 2440 H 224.099 -0.0580896 0.734707 0
M  V30 2441 H 226.741 0.54531 1.82007 0
M  V30 2442 H 224.891 -1.0134 3.7505 0
M  V30 2443 H 226.563 1.52575 4.35337 0
M  V30 2444 H 224.806 1.50011 4.07037 0
M  V30 2445 H 225.477 0.672314 5.4789 0
M  V30 2446 H 227.953 -0.678942 4.10524 0
M  V30 2447 H 226.829 -1.33086 5.32522 0
M  V30 2448 H 227.09 -2.21166 3.82803 0
M  V30 2449 N 226.149 -1.5696 0.141893 0
M  V30 2450 C 227.379 -2.00031 -0.516828 0
M  V30 2451 C 227.787 -1.02091 -1.59293 0
M  V30 2452 O 227.13 -0.00909657 -1.83698 0
M  V30 2453 C 227.192 -3.39534 -1.1814 0
M  V30 2454 C 226.856 -4.56313 -0.250513 0
M  V30 2455 C 227.853 -5.17295 0.519839 0
M  V30 2456 C 225.538 -5.02061 -0.154907 0
M  V30 2457 C 227.532 -6.2243 1.3733 0
M  V30 2458 C 225.219 -6.07053 0.702161 0
M  V30 2459 C 226.217 -6.67106 1.46487 0
M  V30 2460 O 225.905 -7.70066 2.30767 0
M  V30 2461 H 225.637 -0.661451 -0.139493 0
M  V30 2462 H 228.191 -2.04086 0.231926 0
M  V30 2463 H 226.421 -3.32302 -1.97769 0
M  V30 2464 H 228.11 -3.66745 -1.73933 0
M  V30 2465 H 228.876 -4.82852 0.45598 0
M  V30 2466 H 224.755 -4.5505 -0.7383 0
M  V30 2467 H 228.299 -6.69233 1.96909 0
M  V30 2468 H 224.196 -6.40923 0.76733 0
M  V30 2469 H 224.964 -7.87264 2.23959 0
M  V30 2470 N 227.627 0.131896 -1.57047 0
M  V30 2471 C 229.043 0.485031 -1.52051 0
M  V30 2472 C 229.243 1.82563 -0.85281 0
M  V30 2473 O 228.299 2.48817 -0.429694 0
M  V30 2474 C 229.612 0.481409 -2.96821 0
M  V30 2475 C 231.16 0.565868 -3.07842 0
M  V30 2476 C 231.635 0.592762 -4.54148 0
M  V30 2477 N 233.126 0.654564 -4.58552 0
M  V30 2478 C 233.861 0.696608 -5.69153 0
M  V30 2479 N 233.357 0.697078 -6.89284 0
M  V30 2480 N 235.15 0.738639 -5.57226 0
M  V30 2481 H 227.301 -0.746664 -1.98843 0
M  V30 2482 H 229.564 -0.273999 -0.90754 0
M  V30 2483 H 229.27 -0.435731 -3.4899 0
M  V30 2484 H 229.144 1.3139 -3.53577 0
M  V30 2485 H 231.531 1.47343 -2.55684 0
M  V30 2486 H 231.612 -0.29406 -2.54104 0
M  V30 2487 H 231.256 -0.310701 -5.06949 0
M  V30 2488 H 231.186 1.46939 -5.05684 0
M  V30 2489 H 233.677 0.660887 -3.72076 0
M  V30 2490 H 233.99 0.731426 -7.69331 0
M  V30 2491 H 232.335 0.66471 -6.91814 0
M  V30 2492 H 235.526 0.735545 -4.62285 0
M  V30 2493 H 235.699 0.767938 -6.43434 0
M  V30 2494 N 229.106 1.52395 0.401703 0
M  V30 2495 C 230.069 1.75636 1.47257 0
M  V30 2496 C 231.069 0.62628 1.48103 0
M  V30 2497 O 232.259 0.894227 1.49497 0
M  V30 2498 C 229.391 1.84553 2.86624 0
M  V30 2499 H 230.584 2.71241 1.27938 0
M  V30 2500 H 228.137 1.42923 0.632662 0
M  V30 2501 H 228.872 0.908882 3.11303 0
M  V30 2502 H 228.657 2.66715 2.87412 0
M  V30 2503 H 230.147 2.04251 3.64241 0
M  V30 2504 N 230.584 -0.659388 1.43143 0
M  V30 2505 C 232 -0.974337 1.26407 0
M  V30 2506 C 232.2 -2.007 0.179341 0
M  V30 2507 O 231.256 -2.4856 -0.444295 0
M  V30 2508 C 232.569 -1.46447 2.62628 0
M  V30 2509 C 234.117 -1.58144 2.7011 0
M  V30 2510 C 234.592 -2.1055 4.06734 0
M  V30 2511 N 236.083 -2.17861 4.08767 0
M  V30 2512 C 236.818 -2.59519 5.1131 0
M  V30 2513 N 236.314 -3.00518 6.24228 0
M  V30 2514 N 238.107 -2.59404 4.98664 0
M  V30 2515 H 230.258 0.0240528 2.12386 0
M  V30 2516 H 232.521 -0.0518065 0.946583 0
M  V30 2517 H 232.227 -0.780123 3.42939 0
M  V30 2518 H 232.101 -2.44058 2.87603 0
M  V30 2519 H 234.488 -2.25682 1.90136 0
M  V30 2520 H 234.569 -0.589828 2.48907 0
M  V30 2521 H 234.213 -1.43616 4.87172 0
M  V30 2522 H 234.143 -3.10531 4.25298 0
M  V30 2523 H 236.634 -1.88975 3.27257 0
M  V30 2524 H 236.947 -3.31036 6.98309 0
M  V30 2525 H 235.292 -2.98337 6.2771 0
M  V30 2526 H 238.483 -2.26747 4.09516 0
M  V30 2527 H 238.656 -2.91548 5.78709 0
M  V30 2528 N 232.062 -1.29571 -0.897171 0
M  V30 2529 C 233.478 -1.07637 -1.17841 0
M  V30 2530 C 233.678 0.170713 -2.00776 0
M  V30 2531 O 232.734 0.867768 -2.3712 0
M  V30 2532 C 234.047 -2.3332 -1.8969 0
M  V30 2533 C 235.595 -2.38664 -2.02505 0
M  V30 2534 C 236.07 -3.64157 -2.77765 0
M  V30 2535 N 237.561 -3.64894 -2.85318 0
M  V30 2536 C 238.296 -4.58679 -3.44094 0
M  V30 2537 N 237.792 -5.62799 -4.04017 0
M  V30 2538 N 239.585 -4.46245 -3.41793 0
M  V30 2539 H 231.736 -2.09598 -0.343883 0
M  V30 2540 H 233.999 -0.923333 -0.214848 0
M  V30 2541 H 233.705 -3.24262 -1.36187 0
M  V30 2542 H 233.579 -2.41025 -2.9015 0
M  V30 2543 H 235.966 -1.48208 -2.55183 0
M  V30 2544 H 236.047 -2.34943 -1.01171 0
M  V30 2545 H 235.691 -4.54965 -2.25763 0
M  V30 2546 H 235.621 -3.65137 -3.7945 0
M  V30 2547 H 238.112 -2.89613 -2.42761 0
M  V30 2548 H 238.425 -6.3048 -4.46895 0
M  V30 2549 H 236.77 -5.66605 -4.02472 0
M  V30 2550 H 239.961 -3.64094 -2.94199 0
M  V30 2551 H 240.134 -5.19518 -3.87304 0
M  V30 2552 N 233.54 1.10788 -1.12088 0
M  V30 2553 C 234.487 2.17025 -0.785407 0
M  V30 2554 C 235.457 1.64265 0.246191 0
M  V30 2555 O 236.642 1.90412 0.121584 0
M  V30 2556 C 233.782 3.44249 -0.242177 0
M  V30 2557 C 232.895 4.1098 -1.33115 0
M  V30 2558 C 232.03 5.25911 -0.747741 0
M  V30 2559 C 231.069 5.84538 -1.81609 0
M  V30 2560 N 230.206 6.90853 -1.25167 0
M  V30 2561 H 235.046 2.45066 -1.69548 0
M  V30 2562 H 232.583 1.20297 -0.846582 0
M  V30 2563 H 234.541 4.17101 0.0908026 0
M  V30 2564 H 233.171 3.16571 0.631072 0
M  V30 2565 H 232.223 3.36133 -1.78097 0
M  V30 2566 H 233.535 4.50601 -2.13917 0
M  V30 2567 H 232.689 6.056 -0.365216 0
M  V30 2568 H 231.428 4.87614 0.0915188 0
M  V30 2569 H 230.433 5.03522 -2.20785 0
M  V30 2570 H 231.658 6.249 -2.6585 0
M  V30 2571 H 229.604 6.54562 -0.434174 0
M  V30 2572 H 229.521 7.29166 -1.99633 0
M  V30 2573 H 230.789 7.7433 -0.896259 0
M  V30 2574 N 235.018 0.912232 1.28515 0
M  V30 2575 C 235.95 0.35676 2.26406 0
M  V30 2576 C 236.963 -0.503933 1.54804 0
M  V30 2577 O 238.152 -0.319059 1.75625 0
M  V30 2578 C 235.252 -0.508825 3.35058 0
M  V30 2579 C 234.425 0.329007 4.36161 0
M  V30 2580 C 233.484 -0.471422 5.24084 0
M  V30 2581 O 232.51 0.115482 5.69083 0
M  V30 2582 N 233.712 -1.77479 5.52704 0
M  V30 2583 H 236.477 1.19818 2.74707 0
M  V30 2584 H 234.038 0.778022 1.4198 0
M  V30 2585 H 236.03 -1.051 3.90815 0
M  V30 2586 H 234.6 -1.25095 2.86478 0
M  V30 2587 H 233.82 1.05256 3.79888 0
M  V30 2588 H 235.108 0.90234 5.00735 0
M  V30 2589 H 234.506 -2.27417 5.17975 0
M  V30 2590 H 233.063 -2.26382 6.11224 0
M  V30 2591 N 236.496 -1.42363 0.676048 0
M  V30 2592 C 237.743 -2.01522 0.19883 0
M  V30 2593 C 238.071 -1.53456 -1.19505 0
M  V30 2594 O 237.326 -0.727967 -1.81657 0
M  V30 2595 C 237.625 -3.56929 0.183431 0
M  V30 2596 C 237.291 -4.24431 1.52215 0
M  V30 2597 C 235.953 -4.42585 1.8887 0
M  V30 2598 C 238.305 -4.62459 2.40377 0
M  V30 2599 C 235.633 -4.96039 3.13309 0
M  V30 2600 C 237.985 -5.17294 3.64129 0
M  V30 2601 C 236.649 -5.33661 4.00951 0
M  V30 2602 H 235.919 -0.737419 0.0727571 0
M  V30 2603 H 238.566 -1.70531 0.871281 0
M  V30 2604 H 236.871 -3.87594 -0.572532 0
M  V30 2605 H 238.568 -4.00486 -0.203035 0
M  V30 2606 H 235.158 -4.10661 1.22701 0
M  V30 2607 H 239.342 -4.48105 2.13343 0
M  V30 2608 H 234.598 -5.06896 3.41857 0
M  V30 2609 H 238.772 -5.45704 4.32644 0
M  V30 2610 H 236.399 -5.74845 4.9745 0
M  V30 2611 N 237.974 -0.419461 -1.51915 0
M  V30 2612 C 238.937 0.389116 -2.25873 0
M  V30 2613 C 239.937 0.964924 -1.28631 0
M  V30 2614 O 241.127 0.842179 -1.52489 0
M  V30 2615 C 238.259 1.54874 -3.03689 0
M  V30 2616 H 239.452 -0.258799 -2.98781 0
M  V30 2617 H 237.005 -0.172209 -1.55348 0
M  V30 2618 H 237.74 2.23323 -2.35154 0
M  V30 2619 H 237.525 1.14223 -3.75094 0
M  V30 2620 H 239.015 2.12046 -3.59759 0
M  V30 2621 N 239.452 1.56882 -0.150215 0
M  V30 2622 C 240.729 1.87844 0.545327 0
M  V30 2623 C 241.109 1.0567 1.82749 0
M  V30 2624 O 240.457 0.144442 2.28043 0
M  V30 2625 C 240.667 3.39526 0.80767 0
M  V30 2626 C 242.015 4.08814 1.14703 0
M  V30 2627 O 243.039 3.44723 0.896917 0
M  V30 2628 O 241.898 5.22004 1.61784 0
M  V30 2629 H 238.992 0.778677 0.278553 0
M  V30 2630 H 241.538 1.68666 -0.187068 0
M  V30 2631 H 240.31 3.91173 -0.0996096 0
M  V30 2632 H 239.933 3.64243 1.59413 0
M  V30 2633 N 240.93 -0.123565 1.57115 0
M  V30 2634 C 242.179 -0.830704 1.83799 0
M  V30 2635 C 242.492 -1.81259 0.735158 0
M  V30 2636 O 243.698 -2.56558 0.888278 0
M  V30 2637 C 242.154 -1.52802 3.25852 0
M  V30 2638 C 241.762 -0.587356 4.44133 0
M  V30 2639 C 243.506 -2.22056 3.61789 0
M  V30 2640 C 241.413 -1.28764 5.77212 0
M  V30 2641 H 240.343 -0.313967 0.685522 0
M  V30 2642 H 242.994 -0.0834359 1.8331 0
M  V30 2643 H 241.376 -2.32175 3.20797 0
M  V30 2644 H 242.55 0.172829 4.60476 0
M  V30 2645 H 240.865 -0.00201892 4.164 0
M  V30 2646 H 243.462 -2.75131 4.58483 0
M  V30 2647 H 243.805 -2.99644 2.88997 0
M  V30 2648 H 244.338 -1.49576 3.68608 0
M  V30 2649 H 241.077 -0.55314 6.53162 0
M  V30 2650 H 240.597 -2.01995 5.64764 0
M  V30 2651 H 242.276 -1.8221 6.20813 0
M  V30 2652 N 242.408 -1.52605 -0.393616 0
M  V30 2653 C 243.371 -1.76415 -1.46323 0
M  V30 2654 C 244.371 -0.634126 -1.47768 0
M  V30 2655 O 245.561 -0.902142 -1.4902 0
M  V30 2656 C 242.693 -1.8607 -2.85641 0
M  V30 2657 H 243.886 -2.71916 -1.26498 0
M  V30 2658 H 241.439 -1.43257 -0.625073 0
M  V30 2659 H 242.174 -0.925378 -3.10817 0
M  V30 2660 H 241.959 -2.68235 -2.85993 0
M  V30 2661 H 243.449 -2.06179 -3.63153 0
M  V30 2662 N 243.887 0.651787 -1.4349 0
M  V30 2663 C 245.117 1.43728 -1.48411 0
M  V30 2664 C 245.525 1.8893 -0.10103 0
M  V30 2665 O 244.868 1.60182 0.899307 0
M  V30 2666 C 244.93 2.70411 -2.36893 0
M  V30 2667 C 244.594 2.4714 -3.8441 0
M  V30 2668 C 245.591 2.10271 -4.75481 0
M  V30 2669 C 243.276 2.6142 -4.28912 0
M  V30 2670 C 245.27 1.87982 -6.0905 0
M  V30 2671 C 242.957 2.38746 -5.62533 0
M  V30 2672 C 243.955 2.02083 -6.5242 0
M  V30 2673 O 243.643 1.79647 -7.8357 0
M  V30 2674 H 243.375 0.447962 -0.506267 0
M  V30 2675 H 245.929 0.80624 -1.88915 0
M  V30 2676 H 244.159 3.36079 -1.91278 0
M  V30 2677 H 245.848 3.32364 -2.33 0
M  V30 2678 H 246.614 1.98814 -4.42378 0
M  V30 2679 H 242.493 2.88931 -3.59222 0
M  V30 2680 H 246.037 1.5929 -6.7917 0
M  V30 2681 H 241.934 2.49806 -5.95203 0
M  V30 2682 H 242.702 1.9406 -7.95162 0
M  V30 2683 N 245.365 1.30045 0.890287 0
M  V30 2684 C 246.313 1.15873 2.01683 0
M  V30 2685 C 247.307 0.0719403 1.69247 0
M  V30 2686 O 248.513 0.232414 1.78493 0
M  V30 2687 H 244.888 0.358203 0.661207 0
M  V30 2688 H 246.859 2.11229 2.10772 0
M  V30 2689 C 245.608 0.861842 3.36849 0
M  V30 2690 H 244.931 1.69016 3.62317 0
M  V30 2691 H 246.371 0.802762 4.16331 0
M  V30 2692 C 244.83 -0.435132 3.34078 0
M  V30 2693 O 245.36 -1.4583 3.74295 0
M  V30 2694 N 243.566 -0.444377 2.87182 0
M  V30 2695 H 243.113 0.388723 2.5465 0
M  V30 2696 H 243.071 -1.31213 2.85711 0
M  V30 2697 N 246.843 -1.10192 1.12674 0
M  V30 2698 C 248.073 -1.85713 0.905213 0
M  V30 2699 C 248.481 -1.81056 -0.549108 0
M  V30 2700 O 247.824 -1.19927 -1.39151 0
M  V30 2701 C 247.886 -3.34972 1.30516 0
M  V30 2702 C 247.55 -3.63385 2.77129 0
M  V30 2703 C 248.547 -3.59772 3.75313 0
M  V30 2704 C 246.232 -3.91981 3.14096 0
M  V30 2705 C 248.226 -3.84354 5.08479 0
M  V30 2706 C 245.913 -4.16218 4.47443 0
M  V30 2707 C 246.911 -4.12395 5.44444 0
M  V30 2708 O 246.599 -4.36014 6.75387 0
M  V30 2709 H 246.331 -0.593719 0.323223 0
M  V30 2710 H 248.885 -1.40198 1.50112 0
M  V30 2711 H 247.115 -3.81156 0.652463 0
M  V30 2712 H 248.804 -3.91886 1.05736 0
M  V30 2713 H 249.57 -3.37716 3.48099 0
M  V30 2714 H 245.449 -3.94085 2.39202 0
M  V30 2715 H 248.993 -3.81285 5.84181 0
M  V30 2716 H 244.89 -4.37754 4.74386 0
M  V30 2717 H 245.658 -4.53516 6.8137 0
M  V30 2718 N 248.321 -0.919034 -1.28029 0
M  V30 2719 C 249.737 -0.617972 -1.4715 0
M  V30 2720 C 249.937 0.835242 -1.83374 0
M  V30 2721 O 248.993 1.61388 -1.94191 0
M  V30 2722 C 250.306 -1.56041 -2.57044 0
M  V30 2723 C 251.854 -1.56769 -2.7091 0
M  V30 2724 C 252.329 -2.49688 -3.83953 0
M  V30 2725 N 253.82 -2.47845 -3.91314 0
M  V30 2726 C 254.555 -3.16437 -4.78179 0
M  V30 2727 N 254.051 -3.94376 -5.69596 0
M  V30 2728 N 255.844 -3.05498 -4.71834 0
M  V30 2729 H 247.995 -1.85866 -1.02798 0
M  V30 2730 H 250.258 -0.797506 -0.512531 0
M  V30 2731 H 249.964 -2.59671 -2.372 0
M  V30 2732 H 249.838 -1.29551 -3.54255 0
M  V30 2733 H 252.225 -0.538745 -2.90141 0
M  V30 2734 H 252.306 -1.87305 -1.74214 0
M  V30 2735 H 251.95 -3.52688 -3.65477 0
M  V30 2736 H 251.88 -2.16453 -4.80058 0
M  V30 2737 H 254.371 -1.91234 -3.25941 0
M  V30 2738 H 254.684 -4.43721 -6.32718 0
M  V30 2739 H 253.029 -3.98481 -5.69419 0
M  V30 2740 H 256.22 -2.44108 -3.99411 0
M  V30 2741 H 256.393 -3.59225 -5.39316 0
M  V30 2742 N 249.799 1.42003 -0.683588 0
M  V30 2743 C 250.749 2.27997 0.0121992 0
M  V30 2744 C 251.733 1.4156 0.764822 0
M  V30 2745 O 252.925 1.64935 0.642287 0
M  V30 2746 C 250.054 3.29706 0.956482 0
M  V30 2747 C 249.14 4.23625 0.200739 0
M  V30 2748 N 249.531 4.99448 -0.799087 0
M  V30 2749 C 247.829 4.43845 0.437937 0
M  V30 2750 C 248.53 5.68102 -1.25041 0
M  V30 2751 N 247.506 5.40511 -0.578648 0
M  V30 2752 H 251.308 2.84048 -0.754564 0
M  V30 2753 H 248.822 1.54071 -0.513398 0
M  V30 2754 H 250.819 3.90124 1.47 0
M  V30 2755 H 249.479 2.75216 1.72297 0
M  V30 2756 H 250.49 5.04303 -1.17893 0
M  V30 2757 H 247.167 4.00382 1.18325 0
M  V30 2758 H 248.557 6.38913 -2.07942 0
M  V30 2759 N 251.277 0.427512 1.51691 0
M  V30 2760 C 252.525 -0.141948 2.01601 0
M  V30 2761 C 252.846 -1.44067 1.31414 0
M  V30 2762 O 252.116 -1.90763 0.445658 0
M  V30 2763 H 250.696 -0.0554468 0.744939 0
M  V30 2764 H 253.358 0.567968 1.86441 0
M  V30 2765 H 252.454 -0.324913 3.10404 0
M  V30 2766 N 252.755 -1.56801 0.158532 0
M  V30 2767 C 253.687 -2.14488 -0.807923 0
M  V30 2768 C 254.7 -1.09721 -1.20271 0
M  V30 2769 O 255.889 -1.36956 -1.14478 0
M  V30 2770 C 252.989 -2.66217 -2.09718 0
M  V30 2771 C 252.162 -3.95507 -1.86796 0
M  V30 2772 C 251.221 -4.3243 -2.99818 0
M  V30 2773 O 250.247 -5.00543 -2.71008 0
M  V30 2774 N 251.449 -3.92947 -4.27285 0
M  V30 2775 H 254.214 -2.98042 -0.314816 0
M  V30 2776 H 251.775 -1.61881 -0.0246692 0
M  V30 2777 H 253.767 -2.87924 -2.84398 0
M  V30 2778 H 252.337 -1.87324 -2.50257 0
M  V30 2779 H 251.557 -3.82309 -0.96089 0
M  V30 2780 H 252.845 -4.79972 -1.68833 0
M  V30 2781 H 252.243 -3.38087 -4.53557 0
M  V30 2782 H 250.8 -4.19681 -4.9871 0
M  V30 2783 N 254.233 0.115231 -1.57178 0
M  V30 2784 C 255.644 0.67197 -1.74188 0
M  V30 2785 C 255.995 1.80125 -0.777777 0
M  V30 2786 O 255.12 2.16346 0.0484376 0
M  V30 2787 C 255.715 1.22573 -3.1585 0
M  V30 2788 C 254.274 1.72872 -3.34353 0
M  V30 2789 C 253.421 0.629972 -2.70049 0
M  V30 2790 H 256.372 -0.110712 -1.58313 0
M  V30 2791 H 256.393 2.09535 -3.17609 0
M  V30 2792 H 255.905 0.403598 -3.85996 0
M  V30 2793 H 254.006 2.5755 -2.69256 0
M  V30 2794 H 254.119 1.83557 -4.42542 0
M  V30 2795 H 252.483 1.0645 -2.31388 0
M  V30 2796 H 253.266 -0.181241 -3.42821 0
M  V30 2797 N 255.711 1.52812 0.385517 0
M  V30 2798 C 256.96 1.67249 1.12741 0
M  V30 2799 C 257.273 0.4205 1.91027 0
M  V30 2800 O 258.479 0.445064 2.67827 0
M  V30 2801 C 256.935 2.95583 2.05326 0
M  V30 2802 C 256.543 4.27974 1.32447 0
M  V30 2803 C 258.287 3.19386 2.7963 0
M  V30 2804 C 256.194 5.47412 2.23818 0
M  V30 2805 H 255.124 0.6231 0.424573 0
M  V30 2806 H 257.775 1.79309 0.389924 0
M  V30 2807 H 256.157 2.77277 2.82725 0
M  V30 2808 H 257.331 4.56844 0.602495 0
M  V30 2809 H 255.646 4.10459 0.700885 0
M  V30 2810 H 258.243 4.05801 3.48181 0
M  V30 2811 H 258.586 2.34604 3.43899 0
M  V30 2812 H 259.119 3.38274 2.09322 0
M  V30 2813 H 255.858 6.34612 1.64157 0
M  V30 2814 H 255.378 5.22849 2.93921 0
M  V30 2815 H 257.057 5.81423 2.83824 0
M  V30 2816 N 257.189 -0.644168 1.43834 0
M  V30 2817 C 258.6 -1.22554 1.40845 0
M  V30 2818 C 258.951 -1.9585 0.117115 0
M  V30 2819 O 258.076 -2.01734 -0.783086 0
M  V30 2820 C 258.671 -2.22907 2.55143 0
M  V30 2821 C 257.23 -2.76501 2.5539 0
M  V30 2822 C 256.377 -1.51287 2.32396 0
M  V30 2823 H 259.328 -0.43563 1.52604 0
M  V30 2824 H 259.349 -3.05259 2.2715 0
M  V30 2825 H 258.861 -1.69533 3.49114 0
M  V30 2826 H 256.962 -3.33914 1.65324 0
M  V30 2827 H 257.075 -3.23429 3.53455 0
M  V30 2828 H 255.439 -1.78957 1.81236 0
M  V30 2829 H 256.222 -0.998336 3.28463 0
M  V30 2830 N 258.668 -1.30515 -0.883378 0
M  V30 2831 C 260.084 -1.08881 -1.16692 0
M  V30 2832 C 260.284 0.149409 -2.00945 0
M  V30 2833 O 259.34 0.84257 -2.38027 0
M  V30 2834 C 260.653 -2.35319 -1.87204 0
M  V30 2835 C 262.201 -2.40799 -1.99962 0
M  V30 2836 C 262.676 -3.67083 -2.73887 0
M  V30 2837 N 264.167 -3.679 -2.81432 0
M  V30 2838 C 264.902 -4.62303 -3.3921 0
M  V30 2839 N 264.398 -5.67052 -3.98025 0
M  V30 2840 N 266.191 -4.49845 -3.3704 0
M  V30 2841 H 258.342 -2.09951 -0.321633 0
M  V30 2842 H 260.605 -0.92556 -0.205043 0
M  V30 2843 H 260.311 -3.25689 -1.3274 0
M  V30 2844 H 260.185 -2.44089 -2.87577 0
M  V30 2845 H 262.572 -1.50907 -2.53597 0
M  V30 2846 H 262.653 -2.36003 -0.98673 0
M  V30 2847 H 262.297 -4.57334 -2.20925 0
M  V30 2848 H 262.227 -3.69141 -3.75556 0
M  V30 2849 H 264.718 -2.92171 -2.39676 0
M  V30 2850 H 265.031 -6.35184 -4.40183 0
M  V30 2851 H 263.376 -5.70842 -3.96439 0
M  V30 2852 H 266.567 -3.67194 -2.90321 0
M  V30 2853 H 266.74 -5.23597 -3.81772 0
M  V30 2854 N 260.146 1.09593 -1.13257 0
M  V30 2855 C 261.392 1.82003 -0.89458 0
M  V30 2856 C 261.725 1.85402 0.577906 0
M  V30 2857 O 261 1.32099 1.42759 0
M  V30 2858 C 261.283 3.28237 -1.48096 0
M  V30 2859 C 261.136 3.3312 -3.02244 0
M  V30 2860 C 262.455 4.24871 -1.14774 0
M  V30 2861 H 259.574 0.66077 -0.326424 0
M  V30 2862 H 262.216 1.28389 -1.40058 0
M  V30 2863 H 260.366 3.74024 -1.05062 0
M  V30 2864 H 262.038 2.95748 -3.54021 0
M  V30 2865 H 260.281 2.72756 -3.37323 0
M  V30 2866 H 260.952 4.3613 -3.38371 0
M  V30 2867 H 263.428 3.87361 -1.51957 0
M  V30 2868 H 262.304 5.25532 -1.58452 0
M  V30 2869 H 262.565 4.42058 -0.0611849 0
M  V30 2870 N 261.624 0.925811 1.2754 0
M  V30 2871 C 262.534 0.428993 2.30644 0
M  V30 2872 C 263.55 -0.489387 1.66976 0
M  V30 2873 O 264.726 -0.372653 1.97922 0
M  V30 2874 C 261.791 -0.311967 3.45294 0
M  V30 2875 C 260.852 0.641098 4.24486 0
M  V30 2876 C 260.085 -0.0645955 5.33661 0
M  V30 2877 O 260.308 -1.28429 5.55754 0
M  V30 2878 O 259.242 0.606265 5.98839 0
M  V30 2879 H 263.068 1.28504 2.75173 0
M  V30 2880 H 260.653 0.691086 1.32455 0
M  V30 2881 H 262.535 -0.729972 4.15029 0
M  V30 2882 H 261.21 -1.14365 3.02824 0
M  V30 2883 H 260.117 1.10874 3.57292 0
M  V30 2884 H 261.45 1.43995 4.70666 0
M  V30 2885 N 263.102 -1.41638 0.69111 0
M  V30 2886 C 264.332 -2.0533 0.228758 0
M  V30 2887 C 264.74 -1.52089 -1.12541 0
M  V30 2888 O 264.083 -0.662145 -1.71351 0
M  V30 2889 C 264.145 -3.59349 0.10407 0
M  V30 2890 C 263.809 -4.35362 1.38956 0
M  V30 2891 C 264.806 -4.64942 2.32648 0
M  V30 2892 C 262.491 -4.74714 1.64169 0
M  V30 2893 C 264.485 -5.32828 3.49818 0
M  V30 2894 C 262.172 -5.42338 2.81625 0
M  V30 2895 C 263.17 -5.71322 3.74273 0
M  V30 2896 O 262.858 -6.37554 4.89673 0
M  V30 2897 H 262.59 -0.667796 0.104997 0
M  V30 2898 H 265.144 -1.82477 0.942938 0
M  V30 2899 H 263.374 -3.80924 -0.665839 0
M  V30 2900 H 265.063 -4.04633 -0.320519 0
M  V30 2901 H 265.829 -4.35025 2.14425 0
M  V30 2902 H 261.708 -4.51538 0.929202 0
M  V30 2903 H 265.252 -5.55368 4.22152 0
M  V30 2904 H 261.149 -5.71673 2.99768 0
M  V30 2905 H 261.917 -6.56049 4.8943 0
M  V30 2906 N 264.58 -0.43555 -1.51462 0
M  V30 2907 C 265.513 0.421989 -2.24264 0
M  V30 2908 C 266.491 1.02619 -1.26127 0
M  V30 2909 O 267.675 1.069 -1.55257 0
M  V30 2910 C 264.802 1.588 -2.99166 0
M  V30 2911 C 263.848 1.10465 -4.11946 0
M  V30 2912 S 264.681 0.048146 -5.35478 0
M  V30 2913 C 265.837 1.21887 -6.13917 0
M  V30 2914 H 266.07 -0.196102 -2.96653 0
M  V30 2915 H 263.603 -0.220054 -1.52824 0
M  V30 2916 H 265.561 2.25647 -3.42919 0
M  V30 2917 H 264.222 2.1775 -2.26371 0
M  V30 2918 H 263.415 1.97654 -4.63626 0
M  V30 2919 H 263.017 0.51445 -3.70445 0
M  V30 2920 H 265.309 2.13756 -6.42895 0
M  V30 2921 H 266.252 0.742076 -7.04201 0
M  V30 2922 H 266.66 1.45663 -5.45383 0
M  V30 2923 N 266.058 1.56714 -0.166846 0
M  V30 2924 C 266.968 2.21331 0.777791 0
M  V30 2925 C 267.984 1.20358 1.25658 0
M  V30 2926 O 269.16 1.53005 1.30964 0
M  V30 2927 C 266.225 2.83787 1.99163 0
M  V30 2928 C 265.286 3.99947 1.56016 0
M  V30 2929 C 264.519 4.59415 2.71613 0
M  V30 2930 O 264.742 4.17769 3.88362 0
M  V30 2931 O 263.676 5.49359 2.45945 0
M  V30 2932 H 267.502 3.02605 0.257636 0
M  V30 2933 H 265.087 1.49275 0.0611393 0
M  V30 2934 H 266.969 3.23405 2.70161 0
M  V30 2935 H 265.644 2.05513 2.50092 0
M  V30 2936 H 264.551 3.65007 0.819809 0
M  V30 2937 H 265.884 4.79801 1.09782 0
M  V30 2938 N 267.536 -0.106894 1.57237 0
M  V30 2939 C 268.446 -1.14911 2.0453 0
M  V30 2940 C 269.462 -1.44592 0.96795 0
M  V30 2941 O 270.638 -1.55468 1.2803 0
M  V30 2942 C 267.703 -2.45272 2.45036 0
M  V30 2943 C 266.764 -2.22879 3.66911 0
M  V30 2944 C 265.997 -3.47024 4.05475 0
M  V30 2945 O 266.22 -4.54804 3.44252 0
M  V30 2946 O 265.154 -3.3731 4.98504 0
M  V30 2947 H 268.98 -0.777461 2.9358 0
M  V30 2948 H 266.565 -0.318563 1.45964 0
M  V30 2949 H 268.447 -3.22055 2.71769 0
M  V30 2950 H 267.122 -2.81886 1.59129 0
M  V30 2951 H 266.029 -1.43915 3.45311 0
M  V30 2952 H 267.362 -1.91163 4.53561 0
M  V30 2953 N 269.014 -1.53014 -0.377408 0
M  V30 2954 C 269.924 -1.81557 -1.48574 0
M  V30 2955 C 270.94 -0.703102 -1.59162 0
M  V30 2956 O 272.116 -0.99192 -1.75279 0
M  V30 2957 C 269.181 -1.9889 -2.83978 0
M  V30 2958 C 268.242 -3.22801 -2.83016 0
M  V30 2959 C 267.475 -3.39298 -4.11962 0
M  V30 2960 O 267.698 -2.60345 -5.0752 0
M  V30 2961 O 266.632 -4.32604 -4.18494 0
M  V30 2962 H 270.458 -2.75695 -1.27382 0
M  V30 2963 H 268.043 -1.38248 -0.566373 0
M  V30 2964 H 269.925 -2.11931 -3.6423 0
M  V30 2965 H 268.6 -1.07942 -3.05172 0
M  V30 2966 H 267.507 -3.15193 -2.01505 0
M  V30 2967 H 268.84 -4.13632 -2.66775 0
M  V30 2968 N 270.492 0.636531 -1.44174 0
M  V30 2969 C 271.439 1.74875 -1.50624 0
M  V30 2970 C 272.409 1.62275 -0.35442 0
M  V30 2971 O 273.594 1.82276 -0.563908 0
M  V30 2972 C 270.734 3.13102 -1.45125 0
M  V30 2973 C 269.847 3.36717 -2.7064 0
M  V30 2974 C 268.982 4.64885 -2.57013 0
M  V30 2975 C 268.021 4.8166 -3.77717 0
M  V30 2976 N 267.158 6.01101 -3.62798 0
M  V30 2977 H 271.998 1.68697 -2.45653 0
M  V30 2978 H 269.535 0.823004 -1.21922 0
M  V30 2979 H 271.493 3.93034 -1.39929 0
M  V30 2980 H 270.123 3.18308 -0.536671 0
M  V30 2981 H 269.175 2.50763 -2.86046 0
M  V30 2982 H 270.487 3.44993 -3.60252 0
M  V30 2983 H 269.641 5.52969 -2.49619 0
M  V30 2984 H 268.38 4.58957 -1.64953 0
M  V30 2985 H 267.385 3.92007 -3.85501 0
M  V30 2986 H 268.61 4.89406 -4.70807 0
M  V30 2987 H 266.556 5.96273 -2.73486 0
M  V30 2988 H 266.473 6.10409 -4.46023 0
M  V30 2989 H 267.741 6.91761 -3.59286 0
M  V30 2990 N 271.97 1.30982 0.876444 0
M  V30 2991 C 272.917 1.18085 1.98304 0
M  V30 2992 C 273.887 0.0682263 1.6596 0
M  V30 2993 O 275.072 0.239937 1.89285 0
M  V30 2994 C 272.212 0.887475 3.33493 0
M  V30 2995 C 271.325 2.08281 3.78475 0
M  V30 2996 C 270.46 1.72678 5.0235 0
M  V30 2997 C 269.499 2.88657 5.39762 0
M  V30 2998 N 268.636 2.53292 6.54819 0
M  V30 2999 H 273.476 2.1275 2.08666 0
M  V30 3000 H 271.013 1.05839 1.02159 0
M  V30 3001 H 272.971 0.697961 4.1132 0
M  V30 3002 H 271.601 -0.022315 3.22792 0
M  V30 3003 H 270.653 2.3833 2.96484 0
M  V30 3004 H 271.965 2.95108 4.02135 0
M  V30 3005 H 271.119 1.50151 5.87826 0
M  V30 3006 H 269.858 0.830327 4.8058 0
M  V30 3007 H 268.863 3.1184 4.52809 0
M  V30 3008 H 270.088 3.79002 5.63502 0
M  V30 3009 H 268.034 1.66163 6.34607 0
M  V30 3010 H 267.951 3.3365 6.7839 0
M  V30 3011 H 269.219 2.34143 7.43503 0
M  V30 3012 N 273.449 -1.08991 1.13837 0
M  V30 3013 C 274.677 -1.85011 0.926202 0
M  V30 3014 C 275.092 -1.8135 -0.525127 0
M  V30 3015 O 274.449 -1.21287 -1.36366 0
M  V30 3016 C 274.5 -3.32802 1.41155 0
M  V30 3017 O 274.221 -3.36444 2.80601 0
M  V30 3018 C 275.722 -4.25649 1.23847 0
M  V30 3019 H 272.942 -0.584249 0.32999 0
M  V30 3020 H 275.486 -1.37688 1.51202 0
M  V30 3021 H 273.641 -3.77536 0.868631 0
M  V30 3022 H 274.055 -4.28657 3.02248 0
M  V30 3023 H 275.529 -5.27485 1.62675 0
M  V30 3024 H 276.006 -4.38828 0.18065 0
M  V30 3025 H 276.612 -3.86735 1.76964 0
M  V30 3026 N 274.927 -0.932562 -1.27047 0
M  V30 3027 C 276.173 -0.585913 -1.94778 0
M  V30 3028 C 276.528 0.864142 -1.71902 0
M  V30 3029 O 275.821 1.60894 -1.04037 0
M  V30 3030 C 276.015 -0.853713 -3.47054 0
M  V30 3031 C 275.844 -2.32825 -3.84737 0
M  V30 3032 C 274.614 -2.98184 -4.07939 0
M  V30 3033 C 276.812 -3.30612 -3.93954 0
M  V30 3034 N 274.794 -4.3574 -4.3244 0
M  V30 3035 C 276.165 -4.53395 -4.22887 0
M  V30 3036 C 278.22 -3.25755 -3.76548 0
M  V30 3037 C 276.923 -5.71927 -4.36224 0
M  V30 3038 C 278.949 -4.43604 -3.91113 0
M  V30 3039 C 278.311 -5.65166 -4.20437 0
M  V30 3040 H 274.41 -0.264617 -0.735868 0
M  V30 3041 H 276.994 -1.20019 -1.53309 0
M  V30 3042 H 275.165 -0.268557 -3.8747 0
M  V30 3043 H 276.897 -0.469202 -4.01971 0
M  V30 3044 H 273.652 -2.48835 -4.02961 0
M  V30 3045 H 274.076 -5.06915 -4.48738 0
M  V30 3046 H 278.718 -2.32835 -3.52913 0
M  V30 3047 H 276.436 -6.65308 -4.58683 0
M  V30 3048 H 280.022 -4.41368 -3.79059 0
M  V30 3049 H 278.902 -6.54836 -4.31462 0
M  V30 3050 N 276.405 1.4127 -0.698611 0
M  V30 3051 C 277.653 2.00782 -0.230409 0
M  V30 3052 C 277.974 1.5562 1.17505 0
M  V30 3053 O 277.244 0.78815 1.79346 0
M  V30 3054 H 275.824 0.742464 -0.0821944 0
M  V30 3055 H 278.486 1.72852 -0.90045 0
M  V30 3056 H 277.582 3.11095 -0.25021 0
M  V30 3057 N 277.883 0.443576 1.51229 0
M  V30 3058 C 279.111 -0.11929 2.06556 0
M  V30 3059 C 279.526 -1.35921 1.31038 0
M  V30 3060 O 278.883 -1.78675 0.371704 0
M  V30 3061 C 278.934 -0.435228 3.5887 0
M  V30 3062 O 278.655 0.755486 4.31537 0
M  V30 3063 C 280.156 -1.04808 4.30732 0
M  V30 3064 H 277.376 -0.0051584 0.67098 0
M  V30 3065 H 279.92 0.624453 1.94733 0
M  V30 3066 H 278.075 -1.12887 3.70588 0
M  V30 3067 H 278.489 0.483491 5.22267 0
M  V30 3068 H 279.963 -1.2191 5.3837 0
M  V30 3069 H 280.44 -2.03081 3.89429 0
M  V30 3070 H 281.046 -0.393637 4.23474 0
M  V30 3071 N 279.361 -1.56624 0.175154 0
M  V30 3072 C 280.607 -1.9729 -0.469506 0
M  V30 3073 C 280.94 -1.06128 -1.62636 0
M  V30 3074 O 280.215 -0.109183 -1.94193 0
M  V30 3075 C 280.498 -3.47375 -0.948804 0
M  V30 3076 C 280.351 -4.49317 0.208491 0
M  V30 3077 C 281.67 -4.00652 -1.82116 0
M  V30 3078 H 278.789 -0.717317 -0.16919 0
M  V30 3079 H 281.431 -1.88184 0.262062 0
M  V30 3080 H 279.581 -3.55267 -1.57219 0
M  V30 3081 H 281.253 -4.53482 0.845682 0
M  V30 3082 H 279.496 -4.25121 0.863395 0
M  V30 3083 H 280.167 -5.51741 -0.169059 0
M  V30 3084 H 282.643 -3.95416 -1.2956 0
M  V30 3085 H 281.519 -5.06075 -2.12554 0
M  V30 3086 H 281.78 -3.44699 -2.7683 0
M  V30 3087 N 280.839 0.0985539 -1.57292 0
M  V30 3088 C 282.086 0.802678 -1.85912 0
M  V30 3089 C 282.414 1.78901 -0.763186 0
M  V30 3090 O 281.669 1.94178 0.243559 0
M  V30 3091 C 281.968 1.56927 -3.21105 0
M  V30 3092 C 281.634 0.725376 -4.45027 0
M  V30 3093 C 280.296 0.492726 -4.78671 0
M  V30 3094 C 282.648 0.138493 -5.21016 0
M  V30 3095 C 279.976 -0.336727 -5.85733 0
M  V30 3096 C 282.328 -0.678264 -6.28953 0
M  V30 3097 C 280.992 -0.921039 -6.61115 0
M  V30 3098 H 280.262 0.293721 -0.680301 0
M  V30 3099 H 282.909 0.0642841 -1.91392 0
M  V30 3100 H 281.214 2.37914 -3.11294 0
M  V30 3101 H 282.911 2.11841 -3.40477 0
M  V30 3102 H 279.501 0.916815 -4.18679 0
M  V30 3103 H 283.685 0.305404 -4.95359 0
M  V30 3104 H 278.941 -0.533836 -6.09065 0
M  V30 3105 H 283.115 -1.1399 -6.87007 0
M  V30 3106 H 280.742 -1.56556 -7.43905 0
M  V30 3107 N 282.317 1.53212 0.369288 0
M  V30 3108 C 283.264 1.79388 1.45219 0
M  V30 3109 C 284.234 0.638059 1.53356 0
M  V30 3110 O 285.419 0.879852 1.69302 0
M  V30 3111 C 282.559 1.98623 2.82211 0
M  V30 3112 C 281.672 3.26337 2.8307 0
M  V30 3113 C 280.807 3.35779 4.11614 0
M  V30 3114 C 279.846 4.5754 4.06601 0
M  V30 3115 N 278.983 4.64155 5.26787 0
M  V30 3116 H 283.823 2.71794 1.22198 0
M  V30 3117 H 281.36 1.34642 0.592444 0
M  V30 3118 H 283.318 2.07761 3.61789 0
M  V30 3119 H 281.948 1.09558 3.03639 0
M  V30 3120 H 281 3.26171 1.95747 0
M  V30 3121 H 282.312 4.15988 2.75237 0
M  V30 3122 H 281.466 3.44208 4.99606 0
M  V30 3123 H 280.205 2.44137 4.22195 0
M  V30 3124 H 279.21 4.49215 3.16996 0
M  V30 3125 H 280.435 5.50519 3.97625 0
M  V30 3126 H 278.381 3.75413 5.3796 0
M  V30 3127 H 278.298 5.47706 5.21109 0
M  V30 3128 H 279.566 4.76863 6.16621 0
M  V30 3129 N 283.795 -0.628877 1.44509 0
M  V30 3130 C 285.023 -1.41554 1.50897 0
M  V30 3131 C 285.438 -1.8832 0.134564 0
M  V30 3132 O 284.795 -1.60969 -0.859965 0
M  V30 3133 C 284.846 -2.63435 2.47556 0
M  V30 3134 O 284.567 -2.18619 3.79654 0
M  V30 3135 C 286.068 -3.56537 2.63431 0
M  V30 3136 H 283.288 -0.434044 0.511709 0
M  V30 3137 H 285.832 -0.768895 1.89495 0
M  V30 3138 H 283.987 -3.24187 2.12089 0
M  V30 3139 H 284.401 -2.97652 4.31861 0
M  V30 3140 H 285.875 -4.38657 3.35088 0
M  V30 3141 H 286.352 -4.05493 1.68738 0
M  V30 3142 H 286.958 -3.01653 2.9981 0
M  V30 3143 N 285.273 -1.31445 -0.869486 0
M  V30 3144 C 286.203 -1.21727 -1.99261 0
M  V30 3145 C 287.184 -0.104359 -1.6978 0
M  V30 3146 O 288.369 -0.289038 -1.92037 0
M  V30 3147 C 285.499 -0.924317 -3.34774 0
M  V30 3148 C 284.453 -1.99685 -3.78563 0
M  V30 3149 C 283.779 -1.55658 -5.11541 0
M  V30 3150 C 285.079 -3.41003 -3.95619 0
M  V30 3151 H 286.773 -2.1569 -2.07649 0
M  V30 3152 H 284.319 -1.03839 -0.997675 0
M  V30 3153 H 286.272 -0.842934 -4.12883 0
M  V30 3154 H 284.996 0.0509793 -3.2656 0
M  V30 3155 H 283.655 -2.06813 -3.02694 0
M  V30 3156 H 283.303 -0.569132 -4.9977 0
M  V30 3157 H 283.003 -2.27409 -5.41811 0
M  V30 3158 H 284.527 -1.48928 -5.92159 0
M  V30 3159 H 285.941 -3.36547 -4.64122 0
M  V30 3160 H 284.338 -4.10975 -4.37286 0
M  V30 3161 H 285.408 -3.81754 -2.98985 0
M  V30 3162 N 286.751 1.08385 -1.14413 0
M  V30 3163 C 287.698 2.15311 -0.831265 0
M  V30 3164 C 288.668 1.64751 0.211292 0
M  V30 3165 O 289.853 1.90627 0.0811674 0
M  V30 3166 C 286.993 3.43658 -0.315143 0
M  V30 3167 C 286.106 4.08064 -1.41802 0
M  V30 3168 C 285.241 5.24207 -0.859126 0
M  V30 3169 C 284.28 5.80554 -1.93967 0
M  V30 3170 N 283.417 6.88042 -1.39793 0
M  V30 3171 H 288.257 2.41415 -1.74708 0
M  V30 3172 H 285.794 1.18474 -0.871909 0
M  V30 3173 H 287.752 4.172 0.00230884 0
M  V30 3174 H 286.382 3.17839 0.56378 0
M  V30 3175 H 285.434 3.3228 -1.85187 0
M  V30 3176 H 286.746 4.45962 -2.23427 0
M  V30 3177 H 285.9 6.04689 -0.49359 0
M  V30 3178 H 284.639 4.87699 -0.011932 0
M  V30 3179 H 283.644 4.98725 -2.31415 0
M  V30 3180 H 284.869 6.19121 -2.79046 0
M  V30 3181 H 282.815 6.53493 -0.572919 0
M  V30 3182 H 282.732 7.24767 -2.15054 0
M  V30 3183 H 284 7.72255 -1.0603 0
M  V30 3184 N 288.23 0.939286 1.26551 0
M  V30 3185 C 289.455 0.602008 1.98471 0
M  V30 3186 C 289.88 -0.815624 1.69497 0
M  V30 3187 O 289.238 -1.54912 0.941905 0
M  V30 3188 C 289.286 0.848407 3.50477 0
M  V30 3189 O 288.39 -0.0804009 4.12322 0
M  V30 3190 H 287.731 0.23049 0.622712 0
M  V30 3191 H 290.261 1.2617 1.61066 0
M  V30 3192 H 290.271 0.768553 4.00696 0
M  V30 3193 H 288.946 1.88171 3.70897 0
M  V30 3194 H 287.523 0.0503508 3.72866 0
M  V30 3195 N 289.708 -1.40897 0.706093 0
M  V30 3196 C 290.638 -2.33418 0.0620085 0
M  V30 3197 C 291.619 -1.52385 -0.755827 0
M  V30 3198 O 292.804 -1.80886 -0.706674 0
M  V30 3199 C 289.934 -3.36293 -0.867445 0
M  V30 3200 C 288.888 -4.27716 -0.155932 0
M  V30 3201 C 288.214 -5.2105 -1.20046 0
M  V30 3202 C 289.514 -5.12944 0.984149 0
M  V30 3203 H 291.208 -2.87527 0.83477 0
M  V30 3204 H 288.754 -1.38249 0.402875 0
M  V30 3205 H 290.707 -3.99949 -1.32735 0
M  V30 3206 H 289.431 -2.80556 -1.67199 0
M  V30 3207 H 288.09 -3.65498 0.284047 0
M  V30 3208 H 287.738 -4.61624 -1.99781 0
M  V30 3209 H 287.438 -5.83056 -0.729328 0
M  V30 3210 H 288.962 -5.87584 -1.66066 0
M  V30 3211 H 290.376 -5.70109 0.604048 0
M  V30 3212 H 288.773 -5.83945 1.38304 0
M  V30 3213 H 289.843 -4.49485 1.81911 0
M  V30 3214 N 291.186 -0.45159 -1.50991 0
M  V30 3215 C 292.416 0.108177 -2.06317 0
M  V30 3216 C 292.824 1.35774 -1.31765 0
M  V30 3217 O 292.167 1.79838 -0.374694 0
M  V30 3218 C 292.229 0.481659 -3.56259 0
M  V30 3219 C 291.893 -0.663114 -4.52163 0
M  V30 3220 C 292.89 -1.53947 -4.96585 0
M  V30 3221 C 290.575 -0.8479 -4.95092 0
M  V30 3222 C 292.569 -2.58518 -5.82621 0
M  V30 3223 C 290.256 -1.89686 -5.80915 0
M  V30 3224 C 291.254 -2.76388 -6.24579 0
M  V30 3225 O 290.942 -3.79482 -7.08695 0
M  V30 3226 H 290.674 0.00499183 -0.675982 0
M  V30 3227 H 293.228 -0.633659 -1.95381 0
M  V30 3228 H 291.458 1.27641 -3.65027 0
M  V30 3229 H 293.147 0.974233 -3.94035 0
M  V30 3230 H 293.913 -1.4083 -4.64103 0
M  V30 3231 H 289.792 -0.18258 -4.60638 0
M  V30 3232 H 293.336 -3.26224 -6.16623 0
M  V30 3233 H 289.233 -2.02817 -6.12809 0
M  V30 3234 H 290.001 -3.76234 -7.26905 0
M  V30 3235 N 292.664 1.56529 -0.183458 0
M  V30 3236 C 293.611 2.18546 0.742055 0
M  V30 3237 C 294.581 1.12912 1.2182 0
M  V30 3238 O 295.766 1.41115 1.28418 0
M  V30 3239 C 292.906 2.83977 1.96089 0
M  V30 3240 C 292.019 4.04105 1.52719 0
M  V30 3241 C 291.154 4.57427 2.70063 0
M  V30 3242 C 290.193 5.69938 2.23243 0
M  V30 3243 N 289.33 6.17717 3.33722 0
M  V30 3244 H 294.17 2.97284 0.206432 0
M  V30 3245 H 291.707 1.46823 0.0901571 0
M  V30 3246 H 293.665 3.20077 2.67594 0
M  V30 3247 H 292.295 2.07822 2.47002 0
M  V30 3248 H 291.347 3.73745 0.708436 0
M  V30 3249 H 292.659 4.85513 1.1436 0
M  V30 3250 H 291.813 4.95772 3.49708 0
M  V30 3251 H 290.552 3.75101 3.11689 0
M  V30 3252 H 289.557 5.31133 1.42048 0
M  V30 3253 H 290.782 6.54073 1.82661 0
M  V30 3254 H 288.728 5.38317 3.74902 0
M  V30 3255 H 288.645 6.94146 2.99495 0
M  V30 3256 H 289.913 6.60713 4.13616 0
M  V30 3257 N 294.142 -0.090211 1.57342 0
M  V30 3258 C 295.37 -0.806224 1.90546 0
M  V30 3259 C 295.785 -1.72041 0.777644 0
M  V30 3260 O 295.142 -1.80778 -0.250103 0
M  V30 3261 C 295.193 -1.61546 3.23396 0
M  V30 3262 O 294.914 -0.738043 4.31839 0
M  V30 3263 C 296.415 -2.4341 3.70495 0
M  V30 3264 H 293.635 -0.230256 0.630257 0
M  V30 3265 H 296.179 -0.0659843 2.04394 0
M  V30 3266 H 294.334 -2.30816 3.11131 0
M  V30 3267 H 294.748 -1.29901 5.08159 0
M  V30 3268 H 296.222 -2.95676 4.66133 0
M  V30 3269 H 296.699 -3.22098 2.98579 0
M  V30 3270 H 297.305 -1.79331 3.85643 0
M  V30 3271 N 295.62 -1.53406 -0.361157 0
M  V30 3272 C 296.57 -1.76536 -1.44287 0
M  V30 3273 C 297.554 -0.620019 -1.48474 0
M  V30 3274 O 298.746 -0.878834 -1.53641 0
M  V30 3275 C 295.875 -1.96266 -2.81664 0
M  V30 3276 C 294.961 -3.16815 -2.81938 0
M  V30 3277 N 295.352 -4.38637 -2.51855 0
M  V30 3278 C 293.65 -3.17627 -3.13096 0
M  V30 3279 C 294.351 -5.20401 -2.59919 0
M  V30 3280 N 293.327 -4.56712 -2.94814 0
M  V30 3281 H 297.129 -2.68331 -1.19899 0
M  V30 3282 H 294.643 -1.52091 -0.56938 0
M  V30 3283 H 296.64 -2.10966 -3.59582 0
M  V30 3284 H 295.3 -1.05702 -3.07013 0
M  V30 3285 H 296.311 -4.66293 -2.25369 0
M  V30 3286 H 292.988 -2.36971 -3.43731 0
M  V30 3287 H 294.378 -6.27586 -2.39969 0
M  V30 3288 N 297.098 0.621204 -1.44841 0
M  V30 3289 C 298.061 1.71459 -1.521 0
M  V30 3290 C 299.061 1.55696 -0.401933 0
M  V30 3291 O 300.251 1.61011 -0.664925 0
M  V30 3292 C 297.383 3.10624 -1.40447 0
M  V30 3293 H 298.576 1.66394 -2.49506 0
M  V30 3294 H 296.129 0.835745 -1.3208 0
M  V30 3295 H 296.864 3.21277 -0.441737 0
M  V30 3296 H 296.649 3.23473 -2.21602 0
M  V30 3297 H 298.139 3.90293 -1.4853 0
M  V30 3298 N 298.576 1.31904 0.862503 0
M  V30 3299 C 299.816 1.23324 1.63004 0
M  V30 3300 C 300.18 -0.203724 1.90916 0
M  V30 3301 O 301.381 -0.413132 2.65606 0
M  V30 3302 C 299.652 2.06116 2.91978 0
M  V30 3303 S 301.211 2.14478 3.82812 0
M  V30 3304 H 298.029 0.439117 0.559193 0
M  V30 3305 H 300.631 1.66658 1.02202 0
M  V30 3306 H 299.335 3.09593 2.69407 0
M  V30 3307 H 298.866 1.6353 3.57801 0
M  V30 3308 H 300.881 1.28855 4.79177 0
M  V30 3309 N 300.054 -1.07777 1.14986 0
M  V30 3310 C 301.284 -1.83752 0.944402 0
M  V30 3311 C 301.692 -1.8218 -0.51058 0
M  V30 3312 O 301.035 -1.22852 -1.36576 0
M  V30 3313 C 301.097 -3.32128 1.37592 0
M  V30 3314 C 300.761 -3.57425 2.84775 0
M  V30 3315 C 301.758 -3.5173 3.8286 0
M  V30 3316 C 299.443 -3.8523 3.2234 0
M  V30 3317 C 301.437 -3.73482 5.16517 0
M  V30 3318 C 299.124 -4.06634 4.56171 0
M  V30 3319 C 300.122 -4.00754 5.53069 0
M  V30 3320 O 299.81 -4.2159 6.84483 0
M  V30 3321 H 299.542 -0.58673 0.335744 0
M  V30 3322 H 302.096 -1.36982 1.53052 0
M  V30 3323 H 300.326 -3.79686 0.733165 0
M  V30 3324 H 302.015 -3.89555 1.14024 0
M  V30 3325 H 302.781 -3.30256 3.55184 0
M  V30 3326 H 298.66 -3.88923 2.47508 0
M  V30 3327 H 302.204 -3.68808 5.92137 0
M  V30 3328 H 298.101 -4.27593 4.83564 0
M  V30 3329 H 298.869 -4.38961 6.90837 0
M  V30 3330 N 301.532 -0.945985 -1.26051 0
M  V30 3331 C 302.442 -0.465633 -2.29933 0
M  V30 3332 C 303.458 0.462761 -1.67733 0
M  V30 3333 O 304.634 0.341118 -1.9849 0
M  V30 3334 C 301.699 0.256994 -3.45746 0
M  V30 3335 C 300.76 -0.708549 -4.23412 0
M  V30 3336 C 299.993 -0.0203135 -5.33696 0
M  V30 3337 O 300.216 1.19571 -5.57726 0
M  V30 3338 O 299.15 -0.701459 -5.97799 0
M  V30 3339 H 302.976 -1.32866 -2.73094 0
M  V30 3340 H 300.561 -0.712071 -1.31339 0
M  V30 3341 H 302.443 0.663852 -4.16138 0
M  V30 3342 H 301.118 1.09533 -3.04605 0
M  V30 3343 H 300.025 -1.16545 -3.55483 0
M  V30 3344 H 301.358 -1.51465 -4.68315 0
M  V30 3345 N 303.011 1.40521 -0.713556 0
M  V30 3346 C 304.241 2.0494 -0.261395 0
M  V30 3347 C 304.649 1.53861 1.10107 0
M  V30 3348 O 303.992 0.689321 1.70276 0
M  V30 3349 C 304.054 3.59138 -0.161227 0
M  V30 3350 C 303.718 4.33096 -1.45865 0
M  V30 3351 C 304.715 4.61182 -2.40016 0
M  V30 3352 C 302.4 4.72043 -1.71701 0
M  V30 3353 C 304.394 5.27196 -3.58251 0
M  V30 3354 C 302.081 5.37789 -2.90218 0
M  V30 3355 C 303.079 5.65295 -3.83315 0
M  V30 3356 O 302.767 6.29683 -4.99754 0
M  V30 3357 H 302.499 0.666041 -0.115608 0
M  V30 3358 H 305.053 1.80954 -0.971849 0
M  V30 3359 H 303.283 3.81936 0.605153 0
M  V30 3360 H 304.972 4.05091 0.256105 0
M  V30 3361 H 305.738 4.31559 -2.21318 0
M  V30 3362 H 301.617 4.50003 -1.00092 0
M  V30 3363 H 305.161 5.48582 -4.30934 0
M  V30 3364 H 301.058 5.66831 -3.08825 0
M  V30 3365 H 301.826 6.4818 -4.99805 0
M  V30 3366 N 304.489 0.459591 1.5075 0
M  V30 3367 C 305.437 -0.354678 2.2988 0
M  V30 3368 C 306.431 -1.00086 1.36672 0
M  V30 3369 O 307.637 -0.933277 1.53915 0
M  V30 3370 H 304.012 -0.13321 0.740107 0
M  V30 3371 H 305.983 0.333269 2.96533 0
M  V30 3372 C 304.732 -1.43073 3.169 0
M  V30 3373 H 304.055 -0.942882 3.88523 0
M  V30 3374 H 305.495 -1.97328 3.75284 0
M  V30 3375 C 303.954 -2.42633 2.33732 0
M  V30 3376 O 304.484 -3.47658 2.01238 0
M  V30 3377 N 302.69 -2.14066 1.9653 0
M  V30 3378 H 302.237 -1.28685 2.23155 0
M  V30 3379 H 302.195 -2.80917 1.41185 0
M  V30 3380 N 305.967 -1.56429 0.191757 0
M  V30 3381 C 306.917 -2.15548 -0.743184 0
M  V30 3382 C 307.901 -1.09531 -1.17863 0
M  V30 3383 O 309.093 -1.35602 -1.13759 0
M  V30 3384 C 306.222 -2.81577 -1.96391 0
M  V30 3385 C 305.308 -3.9478 -1.54951 0
M  V30 3386 N 305.699 -4.98677 -0.845876 0
M  V30 3387 C 303.997 -4.06319 -1.83905 0
M  V30 3388 C 304.698 -5.78183 -0.638724 0
M  V30 3389 N 303.674 -5.30495 -1.18643 0
M  V30 3390 H 307.476 -2.9324 -0.196839 0
M  V30 3391 H 304.99 -1.62398 -0.0081603 0
M  V30 3392 H 306.987 -3.22321 -2.64415 0
M  V30 3393 H 305.647 -2.05371 -2.51501 0
M  V30 3394 H 306.658 -5.15464 -0.501704 0
M  V30 3395 H 303.335 -3.41238 -2.40548 0
M  V30 3396 H 304.725 -6.71851 -0.0807929 0
M  V30 3397 N 307.445 0.0818655 -1.57387 0
M  V30 3398 C 308.694 0.781681 -1.85937 0
M  V30 3399 C 309.007 1.79246 -0.782957 0
M  V30 3400 O 310.213 2.54112 -0.955987 0
M  V30 3401 C 308.669 1.44109 -3.29789 0
M  V30 3402 C 308.277 0.469396 -4.45534 0
M  V30 3403 C 310.021 2.12386 -3.67549 0
M  V30 3404 C 307.928 1.13415 -5.80423 0
M  V30 3405 H 306.858 0.295682 -0.693605 0
M  V30 3406 H 309.509 0.0348051 -1.83467 0
M  V30 3407 H 307.891 2.23588 -3.2684 0
M  V30 3408 H 309.065 -0.294856 -4.59856 0
M  V30 3409 H 307.38 -0.108383 -4.16259 0
M  V30 3410 H 309.977 2.62878 -4.65617 0
M  V30 3411 H 310.32 2.91877 -2.96839 0
M  V30 3412 H 310.853 1.39751 -3.72444 0
M  V30 3413 H 307.592 0.379771 -6.54399 0
M  V30 3414 H 307.112 1.8695 -5.69921 0
M  V30 3415 H 308.791 1.65686 -6.25426 0
M  V30 3416 N 308.923 1.53595 0.353017 0
M  V30 3417 C 310.17 1.70385 1.09431 0
M  V30 3418 C 310.498 0.462113 1.88931 0
M  V30 3419 O 309.753 -0.556074 1.87633 0
M  V30 3420 C 310.052 2.91313 2.07054 0
M  V30 3421 C 309.718 4.27308 1.43939 0
M  V30 3422 C 308.38 4.64287 1.26454 0
M  V30 3423 C 310.732 5.11829 0.983883 0
M  V30 3424 C 308.06 5.83412 0.620226 0
M  V30 3425 C 310.412 6.31611 0.353516 0
M  V30 3426 C 309.076 6.67293 0.166272 0
M  V30 3427 H 308.346 0.623484 0.400436 0
M  V30 3428 H 310.993 1.87799 0.374655 0
M  V30 3429 H 309.298 2.68463 2.85368 0
M  V30 3430 H 310.995 3.01497 2.64387 0
M  V30 3431 H 307.585 3.98198 1.58543 0
M  V30 3432 H 311.769 4.838 1.10685 0
M  V30 3433 H 307.025 6.09639 0.463681 0
M  V30 3434 H 311.199 6.964 -0.00757555 0
M  V30 3435 H 308.826 7.59461 -0.335047 0
M  V30 3436 N 310.401 -0.613514 1.45168 0
M  V30 3437 C 311.812 -1.19539 1.43413 0
M  V30 3438 C 312.163 -1.95558 0.158632 0
M  V30 3439 O 311.288 -2.0335 -0.740119 0
M  V30 3440 C 311.883 -2.17445 2.59813 0
M  V30 3441 C 310.442 -2.71022 2.61197 0
M  V30 3442 C 309.589 -1.46323 2.35552 0
M  V30 3443 H 312.54 -0.403163 1.53494 0
M  V30 3444 H 312.561 -3.00373 2.33574 0
M  V30 3445 H 312.073 -1.62089 3.52631 0
M  V30 3446 H 310.174 -3.30332 1.7237 0
M  V30 3447 H 310.287 -3.15859 3.60236 0
M  V30 3448 H 308.651 -1.75072 1.84992 0
M  V30 3449 H 309.434 -0.92844 3.30507 0
M  V30 3450 N 311.879 -1.3236 -0.855495 0
M  V30 3451 C 312.809 -1.23833 -1.97958 0
M  V30 3452 C 313.79 -0.122361 -1.69659 0
M  V30 3453 O 314.975 -0.30939 -1.9172 0
M  V30 3454 C 312.105 -0.959772 -3.33775 0
M  V30 3455 C 311.059 -2.03689 -3.76424 0
M  V30 3456 C 310.385 -1.61075 -5.09862 0
M  V30 3457 C 311.685 -3.4518 -3.9198 0
M  V30 3458 H 313.379 -2.1788 -2.0535 0
M  V30 3459 H 310.925 -1.04891 -0.986605 0
M  V30 3460 H 312.878 -0.886678 -4.11966 0
M  V30 3461 H 311.602 0.0163404 -3.26596 0
M  V30 3462 H 310.261 -2.10012 -3.00484 0
M  V30 3463 H 309.909 -0.622107 -4.99138 0
M  V30 3464 H 309.609 -2.33143 -5.39368 0
M  V30 3465 H 311.133 -1.55201 -5.90546 0
M  V30 3466 H 312.547 -3.4145 -4.60526 0
M  V30 3467 H 310.944 -4.1559 -4.32903 0
M  V30 3468 H 312.014 -3.84903 -2.94919 0
M  V30 3469 N 313.357 1.07166 -1.15556 0
M  V30 3470 C 314.287 2.16403 -0.877046 0
M  V30 3471 C 315.268 1.69217 0.173111 0
M  V30 3472 O 316.453 1.94181 0.027084 0
M  V30 3473 C 313.583 3.45349 -0.367632 0
M  V30 3474 C 312.537 4.05995 -1.35468 0
M  V30 3475 C 311.863 5.30045 -0.704038 0
M  V30 3476 C 313.163 4.45804 -2.72132 0
M  V30 3477 H 314.857 2.39959 -1.79053 0
M  V30 3478 H 312.403 1.15325 -0.862331 0
M  V30 3479 H 314.356 4.21095 -0.160317 0
M  V30 3480 H 313.08 3.21385 0.581326 0
M  V30 3481 H 311.739 3.32296 -1.54839 0
M  V30 3482 H 311.387 5.02373 0.251128 0
M  V30 3483 H 311.087 5.71579 -1.36277 0
M  V30 3484 H 312.611 6.08495 -0.50654 0
M  V30 3485 H 314.025 5.12671 -2.56595 0
M  V30 3486 H 312.422 4.98296 -3.34397 0
M  V30 3487 H 313.492 3.57083 -3.28054 0
M  V30 3488 N 314.835 0.952656 1.25548 0
M  V30 3489 C 315.745 0.47782 2.29682 0
M  V30 3490 C 316.761 -0.453859 1.67977 0
M  V30 3491 O 317.937 -0.330587 1.98668 0
M  V30 3492 C 315.002 -0.238655 3.45878 0
M  V30 3493 C 314.063 0.730994 4.23031 0
M  V30 3494 C 313.296 0.0486165 5.33678 0
M  V30 3495 O 313.519 -1.16612 5.58353 0
M  V30 3496 O 312.453 0.733152 5.97418 0
M  V30 3497 H 316.279 1.34312 2.72386 0
M  V30 3498 H 313.864 0.719026 1.30959 0
M  V30 3499 H 315.746 -0.641774 4.16484 0
M  V30 3500 H 314.421 -1.07916 3.05181 0
M  V30 3501 H 313.328 1.18428 3.5486 0
M  V30 3502 H 314.661 1.53946 4.67506 0
M  V30 3503 N 316.313 -1.40141 0.720998 0
M  V30 3504 C 317.26 -2.30688 0.071919 0
M  V30 3505 C 318.23 -1.48476 -0.744584 0
M  V30 3506 O 319.415 -1.77201 -0.707423 0
M  V30 3507 C 316.555 -3.34724 -0.839855 0
M  V30 3508 C 315.668 -4.31998 -0.0122438 0
M  V30 3509 C 314.803 -5.23102 -0.923995 0
M  V30 3510 C 313.842 -6.12033 -0.0907969 0
M  V30 3511 N 312.979 -6.95537 -0.957718 0
M  V30 3512 H 317.819 -2.85628 0.849755 0
M  V30 3513 H 315.356 -1.40653 0.430726 0
M  V30 3514 H 317.314 -3.93618 -1.38279 0
M  V30 3515 H 315.944 -2.81274 -1.58381 0
M  V30 3516 H 314.996 -3.74841 0.64794 0
M  V30 3517 H 316.308 -4.94772 0.632595 0
M  V30 3518 H 315.462 -5.86953 -1.53527 0
M  V30 3519 H 314.201 -4.60615 -1.60264 0
M  V30 3520 H 313.206 -5.47207 0.533377 0
M  V30 3521 H 314.431 -6.76581 0.584428 0
M  V30 3522 H 312.377 -6.35633 -1.62192 0
M  V30 3523 H 312.294 -7.55099 -0.36904 0
M  V30 3524 H 313.562 -7.63832 -1.555 0
M  V30 3525 N 317.792 -0.46758 -1.50504 0
M  V30 3526 C 319.022 0.086288 -2.0642 0
M  V30 3527 C 319.43 1.34369 -1.33197 0
M  V30 3528 O 318.773 1.79431 -0.393747 0
M  V30 3529 C 318.835 0.443846 -3.5675 0
M  V30 3530 C 318.499 -0.711035 -4.51435 0
M  V30 3531 C 319.496 -1.59205 -4.94924 0
M  V30 3532 C 317.181 -0.900363 -4.94165 0
M  V30 3533 C 319.175 -2.64683 -5.79846 0
M  V30 3534 C 316.862 -1.95837 -5.7887 0
M  V30 3535 C 317.86 -2.82997 -6.21612 0
M  V30 3536 O 317.548 -3.86977 -7.0463 0
M  V30 3537 H 317.28 -0.00217814 -0.675996 0
M  V30 3538 H 319.834 -0.654346 -1.94698 0
M  V30 3539 H 318.064 1.23762 -3.6636 0
M  V30 3540 H 319.753 0.932386 -3.95046 0
M  V30 3541 H 320.519 -1.45745 -4.62583 0
M  V30 3542 H 316.398 -0.231427 -4.60419 0
M  V30 3543 H 319.942 -3.32745 -6.13128 0
M  V30 3544 H 315.839 -2.09305 -6.10624 0
M  V30 3545 H 316.607 -3.83923 -7.22873 0
M  V30 3546 N 319.27 1.56325 -0.20005 0
M  V30 3547 C 320.51 1.99619 0.439519 0
M  V30 3548 C 320.874 1.08423 1.58456 0
M  V30 3549 O 322.075 1.40973 2.28867 0
M  V30 3550 C 320.346 3.46314 0.883258 0
M  V30 3551 S 321.905 4.11634 1.51997 0
M  V30 3552 H 318.723 0.697007 0.140363 0
M  V30 3553 H 321.325 1.93118 -0.304282 0
M  V30 3554 H 320.029 4.10381 0.0398967 0
M  V30 3555 H 319.56 3.56643 1.6604 0
M  V30 3556 H 321.575 4.09049 2.8088 0
M  V30 3557 N 320.748 -0.0735177 1.57428 0
M  V30 3558 C 321.996 -0.771472 1.86796 0
M  V30 3559 C 322.317 -1.78201 0.791804 0
M  V30 3560 O 321.587 -1.95074 -0.179718 0
M  V30 3561 H 320.167 -0.28791 0.689287 0
M  V30 3562 H 322.829 -0.0500161 1.94836 0
M  V30 3563 H 321.925 -1.28874 2.8425 0
M  V30 3564 N 322.226 -1.5378 -0.344866 0
M  V30 3565 C 323.473 -1.70963 -1.08526 0
M  V30 3566 C 323.801 -0.472126 -1.88683 0
M  V30 3567 O 323.056 0.546116 -1.87926 0
M  V30 3568 C 323.355 -2.92407 -2.05506 0
M  V30 3569 C 323.021 -4.28066 -1.41671 0
M  V30 3570 C 321.683 -4.64951 -1.2399 0
M  V30 3571 C 324.035 -5.12344 -0.956726 0
M  V30 3572 C 321.363 -5.83733 -0.589277 0
M  V30 3573 C 323.715 -6.3179 -0.320015 0
M  V30 3574 C 322.379 -6.67372 -0.130881 0
M  V30 3575 H 321.649 -0.625598 -0.397124 0
M  V30 3576 H 324.296 -1.87995 -0.36469 0
M  V30 3577 H 322.601 -2.69973 -2.8394 0
M  V30 3578 H 324.298 -3.02895 -2.62784 0
M  V30 3579 H 320.888 -3.99034 -1.56429 0
M  V30 3580 H 325.072 -4.8438 -1.08118 0
M  V30 3581 H 320.328 -6.09877 -0.431344 0
M  V30 3582 H 324.502 -6.96386 0.0445072 0
M  V30 3583 H 322.129 -7.59273 0.375318 0
M  V30 3584 N 323.704 0.605807 -1.45491 0
M  V30 3585 C 324.654 1.71074 -1.50724 0
M  V30 3586 C 325.638 1.5658 -0.37033 0
M  V30 3587 O 326.83 1.65887 -0.617299 0
M  V30 3588 C 323.959 3.0983 -1.47852 0
M  V30 3589 C 323.045 3.29704 -2.66751 0
M  V30 3590 N 323.436 3.19831 -3.91844 0
M  V30 3591 C 321.734 3.60579 -2.62486 0
M  V30 3592 C 322.435 3.41083 -4.71208 0
M  V30 3593 N 321.411 3.65157 -4.02693 0
M  V30 3594 H 325.213 1.61937 -2.45263 0
M  V30 3595 H 322.727 0.80912 -1.40808 0
M  V30 3596 H 324.724 3.89101 -1.49686 0
M  V30 3597 H 323.384 3.20115 -0.543714 0
M  V30 3598 H 324.395 2.98194 -4.23439 0
M  V30 3599 H 321.072 3.7769 -1.77922 0
M  V30 3600 H 322.462 3.38828 -5.80211 0
M  V30 3601 N 325.182 1.32811 0.848464 0
M  V30 3602 C 326.092 1.24278 1.98978 0
M  V30 3603 C 327.108 0.155176 1.73307 0
M  V30 3604 O 328.284 0.376999 1.9784 0
M  V30 3605 C 325.349 0.972444 3.32783 0
M  V30 3606 C 324.41 2.14911 3.71634 0
M  V30 3607 C 323.643 1.89157 4.99054 0
M  V30 3608 O 323.866 0.837165 5.64223 0
M  V30 3609 O 322.8 2.75433 5.35183 0
M  V30 3610 H 326.626 2.20238 2.09115 0
M  V30 3611 H 324.211 1.12762 0.980052 0
M  V30 3612 H 326.093 0.838432 4.12975 0
M  V30 3613 H 324.768 0.043051 3.23671 0
M  V30 3614 H 323.675 2.33862 2.91992 0
M  V30 3615 H 325.008 3.06151 3.85399 0
M  V30 3616 N 326.66 -1.06551 1.16123 0
M  V30 3617 C 327.937 -1.76097 0.85142 0
M  V30 3618 C 328.317 -2.00802 -0.6513 0
M  V30 3619 O 327.665 -1.63302 -1.59827 0
M  V30 3620 C 327.875 -3.06384 1.67122 0
M  V30 3621 C 329.223 -3.80585 1.88255 0
M  V30 3622 O 330.247 -3.16218 1.63966 0
M  V30 3623 O 329.106 -4.96212 2.2899 0
M  V30 3624 H 326.2 -0.765102 0.313923 0
M  V30 3625 H 328.746 -1.12844 1.26745 0
M  V30 3626 H 327.518 -2.84071 2.69108 0
M  V30 3627 H 327.141 -3.77371 1.25206 0
M  V30 3628 N 328.138 -0.959301 -1.25041 0
M  V30 3629 C 329.086 -0.474437 -2.2771 0
M  V30 3630 C 330.08 0.457697 -1.631 0
M  V30 3631 O 331.286 0.333912 -1.76876 0
M  V30 3632 H 327.661 -0.134936 -0.739795 0
M  V30 3633 H 329.632 -1.35251 -2.65988 0
M  V30 3634 C 328.381 0.227884 -3.46952 0
M  V30 3635 H 327.704 -0.480248 -3.96905 0
M  V30 3636 H 329.144 0.531091 -4.20661 0
M  V30 3637 C 327.603 1.452 -3.04004 0
M  V30 3638 O 328.133 2.54949 -3.10426 0
M  V30 3639 N 326.339 1.31502 -2.59144 0
M  V30 3640 H 325.886 0.422065 -2.54119 0
M  V30 3641 H 325.844 2.13521 -2.30773 0
M  V30 3642 N 329.616 1.39756 -0.72842 0
M  V30 3643 C 330.865 1.99879 -0.270407 0
M  V30 3644 C 331.178 1.58449 1.14688 0
M  V30 3645 O 332.384 2.11362 1.70407 0
M  V30 3646 C 330.84 3.57292 -0.43252 0
M  V30 3647 C 330.448 4.07688 -1.85727 0
M  V30 3648 C 332.192 4.24485 -0.0359507 0
M  V30 3649 C 330.099 5.5765 -1.96928 0
M  V30 3650 H 329.029 0.747689 -0.0973472 0
M  V30 3651 H 331.68 1.59837 -0.901355 0
M  V30 3652 H 330.062 3.95097 0.267219 0
M  V30 3653 H 331.236 3.81231 -2.58843 0
M  V30 3654 H 329.551 3.53135 -2.20646 0
M  V30 3655 H 332.148 5.34609 -0.0987484 0
M  V30 3656 H 332.491 4.03915 1.00787 0
M  V30 3657 H 333.024 3.9183 -0.686604 0
M  V30 3658 H 329.763 5.8309 -2.99476 0
M  V30 3659 H 329.283 5.8593 -1.28241 0
M  V30 3660 H 330.962 6.22957 -1.74737 0
M  V30 3661 N 331.094 0.475555 1.50254 0
M  V30 3662 C 332.505 0.0215174 1.86688 0
M  V30 3663 C 332.856 -1.38467 1.39001 0
M  V30 3664 O 331.981 -2.02732 0.756894 0
M  V30 3665 C 332.576 0.0322715 3.38785 0
M  V30 3666 C 331.135 -0.366314 3.74613 0
M  V30 3667 C 330.282 0.415832 2.74164 0
M  V30 3668 H 333.233 0.689612 1.42934 0
M  V30 3669 H 333.254 -0.76889 3.7265 0
M  V30 3670 H 332.766 1.05584 3.73462 0
M  V30 3671 H 330.867 -1.39406 3.45538 0
M  V30 3672 H 330.98 -0.064555 4.79057 0
M  V30 3673 H 329.344 -0.131048 2.54363 0
M  V30 3674 H 330.127 1.43899 3.11686 0
M  V30 3675 N 332.573 -1.56217 0.208337 0
M  V30 3676 C 333.505 -2.1695 -0.739276 0
M  V30 3677 C 334.518 -1.13492 -1.1672 0
M  V30 3678 O 335.707 -1.40529 -1.10063 0
M  V30 3679 C 332.807 -2.72755 -2.01142 0
M  V30 3680 C 331.98 -4.0125 -1.74118 0
M  V30 3681 C 331.039 -4.41749 -2.85909 0
M  V30 3682 O 330.065 -5.08912 -2.54946 0
M  V30 3683 N 331.267 -4.06342 -4.14568 0
M  V30 3684 H 334.032 -2.98893 -0.219837 0
M  V30 3685 H 331.593 -1.61878 0.0268445 0
M  V30 3686 H 333.585 -2.96826 -2.75094 0
M  V30 3687 H 332.155 -1.95191 -2.4417 0
M  V30 3688 H 331.375 -3.85173 -0.838775 0
M  V30 3689 H 332.663 -4.851 -1.53477 0
M  V30 3690 H 332.061 -3.52345 -4.42571 0
M  V30 3691 H 330.618 -4.35335 -4.85105 0
M  V30 3692 N 334.051 0.0651679 -1.57465 0
M  V30 3693 C 334.981 1.07693 -2.07182 0
M  V30 3694 C 335.962 1.39962 -0.966673 0
M  V30 3695 O 337.147 1.49475 -1.2398 0
M  V30 3696 C 334.277 2.3885 -2.52127 0
M  V30 3697 C 333.231 2.20917 -3.66579 0
M  V30 3698 C 332.557 3.57515 -3.97601 0
M  V30 3699 C 333.857 1.62493 -4.9638 0
M  V30 3700 H 335.551 0.663199 -2.91962 0
M  V30 3701 H 333.097 0.317569 -1.40455 0
M  V30 3702 H 335.05 3.09928 -2.85522 0
M  V30 3703 H 333.774 2.82215 -1.64384 0
M  V30 3704 H 332.433 1.52279 -3.33477 0
M  V30 3705 H 332.081 3.98463 -3.06979 0
M  V30 3706 H 331.781 3.46353 -4.74672 0
M  V30 3707 H 333.305 4.30013 -4.33499 0
M  V30 3708 H 334.719 2.23445 -5.27963 0
M  V30 3709 H 333.116 1.62009 -5.77818 0
M  V30 3710 H 334.186 0.587041 -4.81333 0
M  V30 3711 N 335.529 1.53961 0.336706 0
M  V30 3712 C 336.439 1.85432 1.43708 0
M  V30 3713 C 337.455 0.745053 1.57242 0
M  V30 3714 O 338.631 1.03804 1.72588 0
M  V30 3715 C 335.696 2.06349 2.78605 0
M  V30 3716 C 334.757 3.30191 2.74358 0
M  V30 3717 C 333.99 3.50101 4.02822 0
M  V30 3718 O 334.213 2.7371 5.00439 0
M  V30 3719 O 333.147 4.43547 4.06878 0
M  V30 3720 H 336.973 2.78975 1.20028 0
M  V30 3721 H 334.558 1.39701 0.52952 0
M  V30 3722 H 336.44 2.21513 3.58483 0
M  V30 3723 H 335.115 1.15995 3.02203 0
M  V30 3724 H 334.022 3.20425 1.93078 0
M  V30 3725 H 335.355 4.2056 2.55715 0
M  V30 3726 N 337.007 -0.598083 1.45811 0
M  V30 3727 C 338.284 -1.35777 1.40797 0
M  V30 3728 C 338.664 -2.10935 0.083462 0
M  V30 3729 O 338.012 -2.08505 -0.934763 0
M  V30 3730 C 338.222 -2.29666 2.62783 0
M  V30 3731 C 339.57 -2.91977 3.08277 0
M  V30 3732 O 340.594 -2.39984 2.63223 0
M  V30 3733 O 339.453 -3.86376 3.86491 0
M  V30 3734 H 336.547 -0.609291 0.55919 0
M  V30 3735 H 339.093 -0.620379 1.57954 0
M  V30 3736 H 337.865 -1.73454 3.50756 0
M  V30 3737 H 337.488 -3.1077 2.48008 0
M  V30 3738 N 338.485 -1.33259 -0.841409 0
M  V30 3739 C 339.731 -1.24757 -1.59886 0
M  V30 3740 C 340.064 0.186913 -1.93298 0
M  V30 3741 O 339.339 1.12757 -1.5848 0
M  V30 3742 C 339.622 -2.12036 -2.91055 0
M  V30 3743 C 339.475 -3.63929 -2.6434 0
M  V30 3744 C 340.794 -1.9916 -3.92458 0
M  V30 3745 H 337.913 -0.454542 -0.580138 0
M  V30 3746 H 340.555 -1.63335 -0.970647 0
M  V30 3747 H 338.705 -1.79265 -3.44669 0
M  V30 3748 H 340.377 -4.06978 -2.17178 0
M  V30 3749 H 338.62 -3.85935 -1.98082 0
M  V30 3750 H 339.291 -4.20341 -3.57796 0
M  V30 3751 H 341.767 -2.27895 -3.48143 0
M  V30 3752 H 340.643 -2.62484 -4.82072 0
M  V30 3753 H 340.904 -0.963082 -4.31482 0
M  V30 3754 N 339.963 1.05934 -1.16686 0
M  V30 3755 C 341.188 1.83029 -0.975455 0
M  V30 3756 C 341.613 1.82096 0.471452 0
M  V30 3757 O 340.971 1.22443 1.33706 0
M  V30 3758 C 341.019 3.27372 -1.51195 0
M  V30 3759 O 340.123 4.06054 -0.720701 0
M  V30 3760 H 339.464 0.566194 -0.346872 0
M  V30 3761 H 341.994 1.33541 -1.55009 0
M  V30 3762 H 342.004 3.78186 -1.53099 0
M  V30 3763 H 340.679 3.27366 -2.56523 0
M  V30 3764 H 339.256 3.64812 -0.772458 0
M  V30 3765 N 341.441 0.965919 1.2453 0
M  V30 3766 C 342.373 0.452465 2.2469 0
M  V30 3767 C 343.386 -0.437821 1.56802 0
M  V30 3768 O 344.575 -0.244283 1.76821 0
M  V30 3769 C 341.675 -0.366258 3.36915 0
M  V30 3770 C 340.848 0.513701 4.34373 0
M  V30 3771 C 339.907 -0.248716 5.25612 0
M  V30 3772 O 338.933 0.356745 5.68081 0
M  V30 3773 N 340.135 -1.53877 5.59734 0
M  V30 3774 H 342.9 1.31361 2.69378 0
M  V30 3775 H 340.461 0.837541 1.38553 0
M  V30 3776 H 342.453 -0.884297 3.94921 0
M  V30 3777 H 341.023 -1.12832 2.91526 0
M  V30 3778 H 340.243 1.21273 3.75082 0
M  V30 3779 H 341.531 1.11391 4.96457 0
M  V30 3780 H 340.929 -2.05243 5.27154 0
M  V30 3781 H 339.486 -2.00254 6.20275 0
M  V30 3782 N 342.919 -1.39368 0.735821 0
M  V30 3783 C 344.166 -2.00497 0.284123 0
M  V30 3784 C 344.494 -1.58387 -1.12889 0
M  V30 3785 O 343.749 -0.804359 -1.78406 0
M  V30 3786 C 344.048 -3.5583 0.334651 0
M  V30 3787 C 343.714 -4.17593 1.7008 0
M  V30 3788 C 342.376 -4.34176 2.07472 0
M  V30 3789 C 344.728 -4.51848 2.59775 0
M  V30 3790 C 342.056 -4.82304 3.34065 0
M  V30 3791 C 344.408 -5.01384 3.85741 0
M  V30 3792 C 343.072 -5.16175 4.23225 0
M  V30 3793 H 342.342 -0.73367 0.103968 0
M  V30 3794 H 344.989 -1.66683 0.942825 0
M  V30 3795 H 343.294 -3.89674 -0.407625 0
M  V30 3796 H 344.991 -4.00986 -0.0329927 0
M  V30 3797 H 341.581 -4.05087 1.40008 0
M  V30 3798 H 345.765 -4.38653 2.32157 0
M  V30 3799 H 341.021 -4.91941 3.63049 0
M  V30 3800 H 345.195 -5.26863 4.55399 0
M  V30 3801 H 342.822 -5.5323 5.21384 0
M  V30 3802 N 344.397 -0.483516 -1.5 0
M  V30 3803 C 345.327 0.293829 -2.31644 0
M  V30 3804 C 346.308 0.978864 -1.39112 0
M  V30 3805 O 347.493 0.973644 -1.68029 0
M  V30 3806 C 344.623 1.36897 -3.19181 0
M  V30 3807 C 343.577 0.804833 -4.20365 0
M  V30 3808 C 342.903 1.9792 -4.96721 0
M  V30 3809 C 344.203 -0.192313 -5.21946 0
M  V30 3810 H 345.897 -0.387616 -2.9688 0
M  V30 3811 H 343.443 -0.187856 -1.42769 0
M  V30 3812 H 345.396 1.92037 -3.751 0
M  V30 3813 H 344.12 2.07936 -2.51853 0
M  V30 3814 H 342.779 0.275319 -3.65565 0
M  V30 3815 H 342.427 2.67686 -4.25856 0
M  V30 3816 H 342.127 1.60789 -5.65173 0
M  V30 3817 H 343.651 2.53526 -5.55479 0
M  V30 3818 H 345.065 0.270333 -5.72662 0
M  V30 3819 H 343.462 -0.478543 -5.98189 0
M  V30 3820 H 344.532 -1.11409 -4.71928 0
M  V30 3821 N 345.875 1.56104 -0.216619 0
M  V30 3822 C 346.807 2.17339 0.72776 0
M  V30 3823 C 347.82 1.14109 1.16116 0
M  V30 3824 O 349.009 1.4111 1.09317 0
M  V30 3825 C 346.109 2.73818 1.99693 0
M  V30 3826 C 345.282 4.02168 1.71988 0
M  V30 3827 C 344.341 4.43259 2.83562 0
M  V30 3828 O 343.367 5.10257 2.52244 0
M  V30 3829 N 344.569 4.08535 4.12407 0
M  V30 3830 H 347.334 2.99005 0.203983 0
M  V30 3831 H 344.895 1.61861 -0.0354289 0
M  V30 3832 H 346.887 2.9828 2.73516 0
M  V30 3833 H 345.457 1.96483 2.43132 0
M  V30 3834 H 344.677 3.85612 0.818337 0
M  V30 3835 H 345.965 4.85907 1.50903 0
M  V30 3836 H 345.363 3.54687 4.40696 0
M  V30 3837 H 343.92 4.37901 4.8279 0
M  V30 3838 N 347.353 -0.0568162 1.57498 0
M  V30 3839 C 348.581 -0.765626 1.92213 0
M  V30 3840 C 348.996 -1.70353 0.813961 0
M  V30 3841 O 348.353 -1.81268 -0.211701 0
M  V30 3842 C 348.404 -1.5465 3.2675 0
M  V30 3843 O 348.125 -0.646278 4.33307 0
M  V30 3844 C 349.626 -2.35497 3.75574 0
M  V30 3845 H 346.846 -0.216835 0.634999 0
M  V30 3846 H 349.39 -0.0226146 2.04487 0
M  V30 3847 H 347.545 -2.24165 3.15957 0
M  V30 3848 H 347.959 -1.19093 5.108 0
M  V30 3849 H 349.433 -2.85722 4.72299 0
M  V30 3850 H 349.91 -3.15692 3.05344 0
M  V30 3851 H 350.516 -1.7111 3.8936 0
M  V30 3852 N 348.832 -1.54138 -0.328536 0
M  V30 3853 C 350.072 -1.73827 -1.07534 0
M  V30 3854 C 350.436 -0.498777 -1.85408 0
M  V30 3855 O 351.637 -0.572937 -2.62623 0
M  V30 3856 C 349.908 -2.97573 -1.97952 0
M  V30 3857 S 351.467 -3.38143 -2.79652 0
M  V30 3858 H 348.285 -0.611287 -0.36311 0
M  V30 3859 H 350.887 -1.92306 -0.351931 0
M  V30 3860 H 349.591 -3.85939 -1.39569 0
M  V30 3861 H 349.122 -2.81603 -2.74706 0
M  V30 3862 H 351.137 -2.93052 -4.00418 0
M  V30 3863 N 350.31 0.590341 -1.46126 0
M  V30 3864 C 351.538 1.37504 -1.54597 0
M  V30 3865 C 351.953 1.87897 -0.184447 0
M  V30 3866 O 351.31 1.63192 0.816984 0
M  V30 3867 C 351.361 2.56779 -2.54454 0
M  V30 3868 O 351.082 2.08476 -3.85317 0
M  V30 3869 C 352.583 3.49427 -2.72792 0
M  V30 3870 H 349.803 0.420325 -0.523037 0
M  V30 3871 H 352.347 0.718383 -1.91467 0
M  V30 3872 H 350.502 3.1845 -2.20609 0
M  V30 3873 H 350.916 2.86097 -4.396 0
M  V30 3874 H 352.39 4.29619 -3.466 0
M  V30 3875 H 352.867 4.00876 -1.79429 0
M  V30 3876 H 353.473 2.93598 -3.07702 0
M  V30 3877 N 351.788 1.33704 0.83433 0
M  V30 3878 C 353.036 1.25169 1.58673 0
M  V30 3879 C 353.357 -0.18127 1.94156 0
M  V30 3880 O 352.627 -1.11113 1.6134 0
M  V30 3881 H 351.207 0.4603 0.58833 0
M  V30 3882 H 353.869 1.67478 0.996847 0
M  V30 3883 H 352.965 1.84856 2.51465 0
M  V30 3884 N 353.266 -1.05314 1.17247 0
M  V30 3885 C 354.513 -1.78293 0.960091 0
M  V30 3886 C 354.841 -1.87658 -0.51136 0
M  V30 3887 O 354.096 -1.3718 -1.39571 0
M  V30 3888 C 354.395 -3.2229 1.54479 0
M  V30 3889 C 354.061 -3.32987 3.04024 0
M  V30 3890 C 352.723 -3.35613 3.44844 0
M  V30 3891 C 355.075 -3.34102 4.00031 0
M  V30 3892 C 352.403 -3.36982 4.8027 0
M  V30 3893 C 354.755 -3.3701 5.35357 0
M  V30 3894 C 353.419 -3.37923 5.75642 0
M  V30 3895 H 352.689 -0.652422 0.351322 0
M  V30 3896 H 355.336 -1.23782 1.46117 0
M  V30 3897 H 353.641 -3.7972 0.965391 0
M  V30 3898 H 355.338 -3.77376 1.35603 0
M  V30 3899 H 351.928 -3.31655 2.71483 0
M  V30 3900 H 356.112 -3.31276 3.69554 0
M  V30 3901 H 351.368 -3.35999 5.10798 0
M  V30 3902 H 355.542 -3.36822 6.09528 0
M  V30 3903 H 353.169 -3.38738 6.80559 0
M  V30 3904 N 354.744 -0.972509 -1.24016 0
M  V30 3905 C 356.16 -0.679827 -1.44397 0
M  V30 3906 C 356.36 0.756716 -1.86751 0
M  V30 3907 O 355.416 1.53007 -2.00861 0
M  V30 3908 C 356.729 -1.66803 -2.50195 0
M  V30 3909 C 358.277 -1.68119 -2.64017 0
M  V30 3910 C 358.752 -2.65748 -3.73017 0
M  V30 3911 N 360.243 -2.64219 -3.8045 0
M  V30 3912 C 360.978 -3.36433 -4.64328 0
M  V30 3913 N 360.474 -4.1818 -5.52356 0
M  V30 3914 N 362.267 -3.25235 -4.58453 0
M  V30 3915 H 354.418 -1.90059 -0.948228 0
M  V30 3916 H 356.681 -0.818527 -0.478245 0
M  V30 3917 H 356.387 -2.69498 -2.25973 0
M  V30 3918 H 356.261 -1.4446 -3.48441 0
M  V30 3919 H 358.648 -0.661319 -2.87594 0
M  V30 3920 H 358.729 -1.94525 -1.66113 0
M  V30 3921 H 358.373 -3.67872 -3.50189 0
M  V30 3922 H 358.303 -2.36619 -4.70446 0
M  V30 3923 H 360.794 -2.04887 -3.17537 0
M  V30 3924 H 361.107 -4.70157 -6.13329 0
M  V30 3925 H 359.452 -4.22273 -5.52006 0
M  V30 3926 H 362.643 -2.60829 -3.88698 0
M  V30 3927 H 362.816 -3.81776 -5.23594 0
M  V30 3928 N 356.222 1.38976 -0.743202 0
M  V30 3929 C 357.152 2.33171 -0.123873 0
M  V30 3930 C 358.133 1.54336 0.71516 0
M  V30 3931 O 359.318 1.82696 0.658467 0
M  V30 3932 C 356.448 3.38474 0.777978 0
M  V30 3933 C 355.402 4.27979 0.0424758 0
M  V30 3934 C 354.728 5.2405 1.06189 0
M  V30 3935 C 356.028 5.10155 -1.1198 0
M  V30 3936 H 357.722 2.85213 -0.910709 0
M  V30 3937 H 355.268 1.37133 -0.439388 0
M  V30 3938 H 357.221 4.03328 1.22084 0
M  V30 3939 H 355.945 2.84891 1.59702 0
M  V30 3940 H 354.604 3.64616 -0.380853 0
M  V30 3941 H 354.252 4.66758 1.87472 0
M  V30 3942 H 353.952 5.84785 0.574485 0
M  V30 3943 H 355.476 5.9178 1.50428 0
M  V30 3944 H 356.89 5.68307 -0.75499 0
M  V30 3945 H 355.287 5.80073 -1.53738 0
M  V30 3946 H 356.357 4.44504 -1.93764 0
M  V30 3947 N 357.7 0.491464 1.49741 0
M  V30 3948 C 359.116 0.146835 1.58923 0
M  V30 3949 C 359.316 -1.34804 1.49767 0
M  V30 3950 O 358.372 -2.12317 1.36667 0
M  V30 3951 C 359.685 0.715157 2.92072 0
M  V30 3952 C 361.233 0.680407 3.05515 0
M  V30 3953 C 361.708 1.22663 4.41269 0
M  V30 3954 N 363.199 1.18691 4.47735 0
M  V30 3955 C 363.934 1.57984 5.51207 0
M  V30 3956 N 363.43 2.04824 6.6183 0
M  V30 3957 N 365.223 1.49459 5.41866 0
M  V30 3958 H 357.374 1.46347 1.53936 0
M  V30 3959 H 359.637 0.606453 0.728642 0
M  V30 3960 H 359.343 1.76317 3.04311 0
M  V30 3961 H 359.217 0.17018 3.76816 0
M  V30 3962 H 361.604 -0.358743 2.92911 0
M  V30 3963 H 361.685 1.26242 2.22478 0
M  V30 3964 H 361.329 2.26451 4.54623 0
M  V30 3965 H 361.259 0.620637 5.2293 0
M  V30 3966 H 363.75 0.843605 3.68364 0
M  V30 3967 H 364.063 2.32901 7.3687 0
M  V30 3968 H 362.408 2.08791 6.62896 0
M  V30 3969 H 365.599 1.12692 4.54333 0
M  V30 3970 H 365.772 1.80406 6.22381 0
M  V30 3971 N 359.178 -1.55987 0.224894 0
M  V30 3972 C 360.589 -1.84553 -0.282345 0
M  V30 3973 C 360.94 -1.14634 -1.59227 0
M  V30 3974 O 360.065 -0.417155 -2.12341 0
M  V30 3975 C 360.66 -3.348 -0.519062 0
M  V30 3976 C 359.219 -3.63671 -0.970604 0
M  V30 3977 C 358.366 -2.77277 -0.0355261 0
M  V30 3978 H 361.317 -1.52245 0.448006 0
M  V30 3979 H 361.338 -3.55187 -1.36463 0
M  V30 3980 H 360.85 -3.8566 0.43449 0
M  V30 3981 H 358.951 -3.1827 -1.9374 0
M  V30 3982 H 359.064 -4.71631 -0.842698 0
M  V30 3983 H 357.428 -2.48846 -0.542927 0
M  V30 3984 H 358.211 -3.30937 0.913003 0
M  V30 3985 N 360.656 0.0484629 -1.57525 0
M  V30 3986 C 361.902 0.744226 -1.88651 0
M  V30 3987 C 362.235 1.76029 -0.820212 0
M  V30 3988 O 361.51 1.93782 0.166985 0
M  V30 3989 C 361.793 1.43128 -3.30434 0
M  V30 3990 C 361.646 0.43005 -4.47739 0
M  V30 3991 C 362.965 2.37031 -3.70816 0
M  V30 3992 H 360.084 0.269089 -0.68612 0
M  V30 3993 H 362.726 0.00713532 -1.89999 0
M  V30 3994 H 360.876 2.05956 -3.29415 0
M  V30 3995 H 362.548 -0.194816 -4.60888 0
M  V30 3996 H 360.791 -0.252522 -4.33064 0
M  V30 3997 H 361.462 0.948874 -5.43783 0
M  V30 3998 H 363.938 1.84263 -3.73077 0
M  V30 3999 H 362.814 2.82094 -4.70865 0
M  V30 4000 H 363.075 3.22864 -3.02012 0
M  V30 4001 N 362.134 1.5431 0.320358 0
M  V30 4002 C 363.097 1.83195 1.3774 0
M  V30 4003 C 364.097 0.703906 1.44575 0
M  V30 4004 O 365.287 0.972214 1.44546 0
M  V30 4005 C 362.419 1.99487 2.76438 0
M  V30 4006 H 363.612 2.77642 1.1338 0
M  V30 4007 H 361.165 1.46076 0.556012 0
M  V30 4008 H 361.9 1.07262 3.06048 0
M  V30 4009 H 361.685 2.81575 2.7287 0
M  V30 4010 H 363.175 2.23271 3.52902 0
M  V30 4011 N 363.613 -0.582584 1.46437 0
M  V30 4012 C 364.861 -1.33814 1.51453 0
M  V30 4013 C 365.182 -1.94277 0.167792 0
M  V30 4014 O 364.452 -1.78566 -0.805677 0
M  V30 4015 H 363.032 -0.496838 0.557818 0
M  V30 4016 H 365.694 -0.682281 1.82568 0
M  V30 4017 H 364.79 -2.14479 2.26728 0
M  V30 4018 N 365.091 -1.34144 -0.827227 0
M  V30 4019 C 366.021 -1.28005 -1.95287 0
M  V30 4020 C 367.002 -0.158321 -1.69362 0
M  V30 4021 O 368.187 -0.349987 -1.9102 0
M  V30 4022 C 365.317 -1.03036 -3.31664 0
M  V30 4023 C 364.271 -2.11628 -3.72019 0
M  V30 4024 C 363.597 -1.71854 -5.0633 0
M  V30 4025 C 364.897 -3.53417 -3.8457 0
M  V30 4026 H 366.591 -2.22187 -2.00682 0
M  V30 4027 H 364.137 -1.0696 -0.964135 0
M  V30 4028 H 366.09 -0.973863 -4.09993 0
M  V30 4029 H 364.814 -0.0529391 -3.26557 0
M  V30 4030 H 363.473 -2.16339 -2.95961 0
M  V30 4031 H 363.121 -0.727841 -4.97706 0
M  V30 4032 H 362.821 -2.44531 -5.34302 0
M  V30 4033 H 364.345 -1.67692 -5.87122 0
M  V30 4034 H 365.759 -3.51142 -4.5318 0
M  V30 4035 H 364.156 -4.24679 -4.2399 0
M  V30 4036 H 365.226 -3.91072 -2.86689 0
M  V30 4037 N 366.569 1.04691 -1.17803 0
M  V30 4038 C 367.499 2.14494 -0.92275 0
M  V30 4039 C 368.48 1.69546 0.137179 0
M  V30 4040 O 369.665 1.94195 -0.0141108 0
M  V30 4041 C 366.795 3.44491 -0.440803 0
M  V30 4042 C 365.749 4.03031 -1.4405 0
M  V30 4043 C 365.075 5.28432 -0.81631 0
M  V30 4044 C 366.375 4.39932 -2.81527 0
M  V30 4045 H 368.069 2.36107 -1.84103 0
M  V30 4046 H 365.615 1.1347 -0.886599 0
M  V30 4047 H 367.568 4.2066 -0.249602 0
M  V30 4048 H 366.292 3.22546 0.513025 0
M  V30 4049 H 364.951 3.28937 -1.61853 0
M  V30 4050 H 364.599 5.02792 0.144511 0
M  V30 4051 H 364.299 5.68559 -1.48371 0
M  V30 4052 H 365.823 6.07284 -0.635496 0
M  V30 4053 H 367.237 5.07113 -2.67412 0
M  V30 4054 H 365.634 4.9109 -3.44892 0
M  V30 4055 H 366.704 3.50045 -3.35554 0
M  V30 4056 N 368.047 0.979072 1.23499 0
M  V30 4057 C 369.272 0.664845 1.96455 0
M  V30 4058 C 369.697 -0.761287 1.72006 0
M  V30 4059 O 369.055 -1.51837 0.990713 0
M  V30 4060 C 369.103 0.959479 3.47601 0
M  V30 4061 O 368.207 0.0508168 4.12369 0
M  V30 4062 H 367.548 0.250185 0.615064 0
M  V30 4063 H 370.078 1.31231 1.5697 0
M  V30 4064 H 370.088 0.895642 3.98048 0
M  V30 4065 H 368.763 1.99876 3.64723 0
M  V30 4066 H 367.34 0.16895 3.72517 0
M  V30 4067 N 369.525 -1.3858 0.750561 0
M  V30 4068 C 370.75 -2.04997 0.314812 0
M  V30 4069 C 371.175 -1.56235 -1.04749 0
M  V30 4070 O 370.533 -0.712981 -1.66692 0
M  V30 4071 C 370.581 -3.58961 0.343415 0
M  V30 4072 O 369.685 -4.07025 -0.663628 0
M  V30 4073 H 369.026 -0.649081 0.139962 0
M  V30 4074 H 371.556 -1.77313 1.02084 0
M  V30 4075 H 371.566 -4.07542 0.193233 0
M  V30 4076 H 370.241 -3.93811 1.33738 0
M  V30 4077 H 368.818 -3.6982 -0.478307 0
M  V30 4078 N 371.003 -0.499398 -1.49478 0
M  V30 4079 C 372.419 -0.155261 -1.58843 0
M  V30 4080 C 372.619 1.34008 -1.50479 0
M  V30 4081 O 371.675 2.11589 -1.37791 0
M  V30 4082 C 372.988 -0.730636 -2.91689 0
M  V30 4083 C 374.536 -0.696599 -3.0515 0
M  V30 4084 C 375.011 -1.25001 -4.40612 0
M  V30 4085 N 376.502 -1.21064 -4.47099 0
M  V30 4086 C 377.237 -1.60905 -5.50361 0
M  V30 4087 N 376.733 -2.08331 -6.60735 0
M  V30 4088 N 378.526 -1.52331 -5.41065 0
M  V30 4089 H 370.677 -1.47162 -1.53158 0
M  V30 4090 H 372.94 -0.610309 -0.725415 0
M  V30 4091 H 372.646 -1.77928 -3.03372 0
M  V30 4092 H 372.52 -0.190161 -3.7672 0
M  V30 4093 H 374.907 0.343204 -2.93097 0
M  V30 4094 H 374.988 -1.2742 -2.21806 0
M  V30 4095 H 374.632 -2.28859 -4.53416 0
M  V30 4096 H 374.562 -0.64836 -5.22593 0
M  V30 4097 H 377.053 -0.863128 -3.67911 0
M  V30 4098 H 377.366 -2.36805 -7.35624 0
M  V30 4099 H 375.711 -2.12304 -6.6178 0
M  V30 4100 H 378.902 -1.151 -4.53729 0
M  V30 4101 H 379.075 -1.83704 -6.21415 0
M  V30 4102 N 372.481 1.55866 -0.233164 0
M  V30 4103 C 373.758 1.90471 0.444988 0
M  V30 4104 C 374.138 1.15209 1.7689 0
M  V30 4105 O 373.486 0.265119 2.26957 0
M  V30 4106 C 373.696 3.4333 0.626559 0
M  V30 4107 C 375.044 4.14319 0.92871 0
M  V30 4108 O 376.068 3.48993 0.712926 0
M  V30 4109 O 374.927 5.29846 1.33887 0
M  V30 4110 H 372.021 0.792347 0.236885 0
M  V30 4111 H 374.567 1.67437 -0.276211 0
M  V30 4112 H 373.339 3.90095 -0.306822 0
M  V30 4113 H 372.962 3.72181 1.39881 0
M  V30 4114 N 373.959 -0.0401083 1.57549 0
M  V30 4115 C 375.206 -0.733125 1.88763 0
M  V30 4116 C 375.534 -1.75946 0.829058 0
M  V30 4117 O 374.789 -1.94949 -0.171323 0
M  V30 4118 C 375.088 -1.44902 3.26708 0
M  V30 4119 C 374.754 -0.559707 4.47413 0
M  V30 4120 C 373.416 -0.314731 4.8017 0
M  V30 4121 C 375.768 0.0549743 5.21171 0
M  V30 4122 C 373.096 0.553886 5.8408 0
M  V30 4123 C 375.448 0.911229 6.26003 0
M  V30 4124 C 374.112 1.16577 6.57241 0
M  V30 4125 H 373.382 -0.268269 0.690733 0
M  V30 4126 H 376.029 0.00679408 1.91499 0
M  V30 4127 H 374.334 -2.26197 3.1991 0
M  V30 4128 H 376.031 -1.99058 3.48105 0
M  V30 4129 H 372.621 -0.760793 4.21794 0
M  V30 4130 H 376.805 -0.121344 4.96152 0
M  V30 4131 H 372.061 0.759518 6.06664 0
M  V30 4132 H 376.235 1.3941 6.82303 0
M  V30 4133 H 373.862 1.84058 7.37582 0
M  V30 4134 N 375.437 -1.54477 -0.31217 0
M  V30 4135 C 376.367 -1.87652 -1.38957 0
M  V30 4136 C 377.348 -0.734358 -1.53431 0
M  V30 4137 O 378.533 -0.98911 -1.67123 0
M  V30 4138 C 375.663 -2.11396 -2.75552 0
M  V30 4139 C 374.617 -3.27243 -2.75855 0
M  V30 4140 C 373.943 -3.36382 -4.15633 0
M  V30 4141 C 375.243 -4.64622 -2.38587 0
M  V30 4142 H 376.937 -2.77887 -1.11442 0
M  V30 4143 H 374.483 -1.33707 -0.534655 0
M  V30 4144 H 376.436 -2.33189 -3.51 0
M  V30 4145 H 375.16 -1.17921 -3.04569 0
M  V30 4146 H 373.819 -3.05356 -2.02863 0
M  V30 4147 H 373.467 -2.40445 -4.41809 0
M  V30 4148 H 373.167 -4.14249 -4.1674 0
M  V30 4149 H 374.691 -3.60422 -4.92877 0
M  V30 4150 H 376.105 -4.86219 -3.03749 0
M  V30 4151 H 374.502 -5.45121 -2.50925 0
M  V30 4152 H 375.572 -4.66097 -1.33723 0
M  V30 4153 N 376.915 0.57481 -1.46744 0
M  V30 4154 C 378.163 1.33009 -1.52161 0
M  V30 4155 C 378.484 1.94185 -0.178092 0
M  V30 4156 O 377.754 1.7899 0.796196 0
M  V30 4157 H 376.334 0.493873 -0.560445 0
M  V30 4158 H 378.996 0.672589 -1.82927 0
M  V30 4159 H 378.092 2.13273 -2.27862 0
M  V30 4160 N 378.394 1.34581 0.820102 0
M  V30 4161 C 379.642 1.26845 1.57336 0
M  V30 4162 C 379.963 -0.160667 1.94337 0
M  V30 4163 O 379.233 -1.09396 1.6251 0
M  V30 4164 H 377.813 0.466514 0.583415 0
M  V30 4165 H 380.475 1.68526 0.979027 0
M  V30 4166 H 379.571 1.87513 2.4949 0
M  V30 4167 N 379.872 -1.04064 1.18357 0
M  V30 4168 C 380.802 -2.14001 0.934113 0
M  V30 4169 C 381.783 -1.69616 -0.128186 0
M  V30 4170 O 382.968 -1.94185 0.0244093 0
M  V30 4171 C 380.098 -3.44253 0.459066 0
M  V30 4172 C 379.052 -4.02261 1.46185 0
M  V30 4173 C 378.378 -5.27992 0.844322 0
M  V30 4174 C 379.678 -4.38432 2.83856 0
M  V30 4175 H 381.372 -2.35127 1.85352 0
M  V30 4176 H 378.918 -1.12998 0.892604 0
M  V30 4177 H 380.871 -4.20522 0.271907 0
M  V30 4178 H 379.595 -3.22813 -0.495912 0
M  V30 4179 H 378.254 -3.28074 1.63595 0
M  V30 4180 H 377.902 -5.02862 -0.117845 0
M  V30 4181 H 377.602 -5.67765 1.51384 0
M  V30 4182 H 379.126 -6.06938 0.667693 0
M  V30 4183 H 380.54 -5.05688 2.70098 0
M  V30 4184 H 378.937 -4.89254 3.47491 0
M  V30 4185 H 380.007 -3.4826 3.37406 0
M  V30 4186 N 381.35 -0.985608 -1.22978 0
M  V30 4187 C 382.313 -0.535071 -2.22867 0
M  V30 4188 C 383.313 0.378123 -1.56291 0
M  V30 4189 O 384.503 0.171092 -1.73358 0
M  V30 4190 C 381.635 0.222702 -3.40172 0
M  V30 4191 H 382.828 -1.41835 -2.6424 0
M  V30 4192 H 380.381 -0.772042 -1.35901 0
M  V30 4193 H 381.116 1.12229 -3.04262 0
M  V30 4194 H 380.901 -0.43288 -3.89703 0
M  V30 4195 H 382.391 0.526335 -4.1427 0
M  V30 4196 N 382.828 1.3818 -0.7579 0
M  V30 4197 C 384.075 2.00019 -0.315985 0
M  V30 4198 C 384.403 1.60163 1.10355 0
M  V30 4199 O 383.658 0.83264 1.77103 0
M  V30 4200 C 383.957 3.55252 -0.391218 0
M  V30 4201 C 383.623 4.14834 -1.76702 0
M  V30 4202 C 382.285 4.30821 -2.14353 0
M  V30 4203 C 384.637 4.47658 -2.66931 0
M  V30 4204 C 381.965 4.76928 -3.41696 0
M  V30 4205 C 384.317 4.95184 -3.93669 0
M  V30 4206 C 382.981 5.09377 -4.31383 0
M  V30 4207 H 382.251 0.731923 -0.115627 0
M  V30 4208 H 384.898 1.65161 -0.969223 0
M  V30 4209 H 383.203 3.90273 0.34558 0
M  V30 4210 H 384.9 4.00988 -0.030805 0
M  V30 4211 H 381.49 4.02808 -1.46435 0
M  V30 4212 H 385.674 4.34904 -2.39106 0
M  V30 4213 H 380.93 4.86103 -3.70829 0
M  V30 4214 H 385.104 5.19551 -4.63724 0
M  V30 4215 H 382.731 5.44865 -5.30119 0
M  V30 4216 N 384.306 0.507319 1.49211 0
M  V30 4217 C 385.722 0.163682 1.58758 0
M  V30 4218 C 385.922 -1.33208 1.51188 0
M  V30 4219 O 384.978 -2.10855 1.38911 0
M  V30 4220 C 386.291 0.746095 2.91297 0
M  V30 4221 C 387.839 0.712773 3.04776 0
M  V30 4222 C 388.314 1.27336 4.39943 0
M  V30 4223 N 389.805 1.23433 4.46451 0
M  V30 4224 C 390.54 1.63821 5.495 0
M  V30 4225 N 390.036 2.11832 6.5962 0
M  V30 4226 N 391.829 1.55198 5.4025 0
M  V30 4227 H 383.98 1.47972 1.52375 0
M  V30 4228 H 386.243 0.614147 0.722168 0
M  V30 4229 H 385.949 1.79534 3.02424 0
M  V30 4230 H 385.823 0.210137 3.76614 0
M  V30 4231 H 388.21 -0.327656 2.93275 0
M  V30 4232 H 388.291 1.28595 2.21127 0
M  V30 4233 H 387.935 2.3126 4.52196 0
M  V30 4234 H 387.865 0.676066 5.22242 0
M  V30 4235 H 390.356 0.882627 3.67448 0
M  V30 4236 H 390.669 2.40703 7.34358 0
M  V30 4237 H 389.014 2.1581 6.60644 0
M  V30 4238 H 392.205 1.17505 4.53112 0
M  V30 4239 H 392.378 1.86997 6.20432 0
M  V30 4240 N 385.784 -1.5574 0.241426 0
M  V30 4241 C 387.03 -1.99104 -0.385406 0
M  V30 4242 C 387.363 -1.1293 -1.57988 0
M  V30 4243 O 386.638 -0.191449 -1.93555 0
M  V30 4244 C 386.921 -3.51087 -0.800616 0
M  V30 4245 C 386.774 -4.48028 0.398874 0
M  V30 4246 C 388.093 -4.08015 -1.64959 0
M  V30 4247 H 385.212 -0.723848 -0.138614 0
M  V30 4248 H 387.854 -1.86903 0.341642 0
M  V30 4249 H 386.004 -3.61615 -1.4201 0
M  V30 4250 H 387.676 -4.49487 1.03726 0
M  V30 4251 H 385.919 -4.21077 1.04293 0
M  V30 4252 H 386.59 -5.51962 0.0651056 0
M  V30 4253 H 389.066 -4.00555 -1.12672 0
M  V30 4254 H 387.942 -5.14635 -1.90898 0
M  V30 4255 H 388.203 -3.56131 -2.61961 0
M  V30 4256 N 387.262 0.0317525 -1.57568 0
M  V30 4257 C 388.509 0.723104 -1.89149 0
M  V30 4258 C 388.837 1.75504 -0.838377 0
M  V30 4259 O 388.092 1.95037 0.160982 0
M  V30 4260 C 388.391 1.43167 -3.27472 0
M  V30 4261 C 388.057 0.535972 -4.47703 0
M  V30 4262 C 386.719 0.289262 -4.8033 0
M  V30 4263 C 389.071 -0.0826125 -5.21135 0
M  V30 4264 C 386.399 -0.584853 -5.83778 0
M  V30 4265 C 388.751 -0.944414 -6.25511 0
M  V30 4266 C 387.415 -1.20061 -6.56614 0
M  V30 4267 H 386.685 0.264602 -0.692146 0
M  V30 4268 H 389.332 -0.0169496 -1.91492 0
M  V30 4269 H 387.637 2.24497 -3.21105 0
M  V30 4270 H 389.334 1.97209 -3.49155 0
M  V30 4271 H 385.924 0.738414 -4.22191 0
M  V30 4272 H 390.108 0.0950302 -4.96209 0
M  V30 4273 H 385.364 -0.79168 -6.06253 0
M  V30 4274 H 389.538 -1.43026 -6.81554 0
M  V30 4275 H 387.165 -1.87967 -7.36595 0
M  V30 4276 N 388.74 1.54641 0.303973 0
M  V30 4277 C 389.69 1.8177 1.37636 0
M  V30 4278 C 390.674 0.674697 1.46071 0
M  V30 4279 O 391.866 0.935251 1.50273 0
M  V30 4280 C 388.995 2.06584 2.74186 0
M  V30 4281 C 388.081 3.2706 2.69986 0
M  V30 4282 N 388.472 4.47682 2.35402 0
M  V30 4283 C 386.77 3.29028 3.01092 0
M  V30 4284 C 387.471 5.29689 2.40426 0
M  V30 4285 N 386.447 4.67339 2.7766 0
M  V30 4286 H 390.249 2.72596 1.09857 0
M  V30 4287 H 387.763 1.541 0.51254 0
M  V30 4288 H 389.76 2.24166 3.51504 0
M  V30 4289 H 388.42 1.17024 3.02879 0
M  V30 4290 H 389.431 4.74336 2.07908 0
M  V30 4291 H 386.108 2.49565 3.34699 0
M  V30 4292 H 387.498 6.3606 2.16512 0
M  V30 4293 N 390.218 -0.567019 1.47046 0
M  V30 4294 C 391.458 -1.3355 1.54738 0
M  V30 4295 C 391.822 -1.90947 0.200772 0
M  V30 4296 O 393.023 -2.68367 0.152489 0
M  V30 4297 C 391.294 -2.42317 2.62712 0
M  V30 4298 S 392.853 -3.29383 2.89918 0
M  V30 4299 H 389.671 -0.454788 0.546525 0
M  V30 4300 H 392.273 -0.650191 1.84371 0
M  V30 4301 H 390.977 -1.98568 3.59164 0
M  V30 4302 H 390.508 -3.15601 2.34861 0
M  V30 4303 H 392.523 -4.41548 2.26384 0
M  V30 4304 N 391.696 -1.35014 -0.812953 0
M  V30 4305 C 392.924 -1.31031 -1.6012 0
M  V30 4306 C 393.339 0.113558 -1.88458 0
M  V30 4307 O 392.696 1.06363 -1.48301 0
M  V30 4308 C 392.747 -2.10872 -2.93624 0
M  V30 4309 O 392.468 -3.47706 -2.66518 0
M  V30 4310 C 393.969 -2.14401 -3.88004 0
M  V30 4311 H 391.189 -0.45037 -0.497401 0
M  V30 4312 H 393.733 -1.77775 -1.01076 0
M  V30 4313 H 391.888 -1.67744 -3.492 0
M  V30 4314 H 392.302 -3.89097 -3.51715 0
M  V30 4315 H 393.776 -2.74669 -4.78812 0
M  V30 4316 H 394.253 -1.14105 -4.24119 0
M  V30 4317 H 394.859 -2.57662 -3.38364 0
M  V30 4318 N 393.175 1.03435 -1.18907 0
M  V30 4319 C 394.107 2.1165 -0.879595 0
M  V30 4320 C 395.12 1.62316 0.125439 0
M  V30 4321 O 396.309 1.78201 -0.103245 0
M  V30 4322 C 393.409 3.37622 -0.294042 0
M  V30 4323 C 392.582 4.16166 -1.34629 0
M  V30 4324 C 391.641 5.20457 -0.775274 0
M  V30 4325 O 390.667 5.50379 -1.4516 0
M  V30 4326 N 391.869 5.78949 0.424126 0
M  V30 4327 H 394.634 2.38791 -1.81105 0
M  V30 4328 H 392.195 1.19681 -1.09032 0
M  V30 4329 H 394.187 4.04572 0.101679 0
M  V30 4330 H 392.757 3.07873 0.541575 0
M  V30 4331 H 391.977 3.44444 -1.91707 0
M  V30 4332 H 393.265 4.65432 -2.05549 0
M  V30 4333 H 392.663 5.56948 0.991209 0
M  V30 4334 H 391.22 6.47334 0.761691 0
M  V30 4335 N 394.653 0.992116 1.22453 0
M  V30 4336 C 395.883 0.684949 1.94915 0
M  V30 4337 C 396.291 -0.754292 1.73514 0
M  V30 4338 O 395.634 -1.52056 1.03076 0
M  V30 4339 C 395.696 0.910054 3.47791 0
M  V30 4340 C 395.36 2.33363 3.92926 0
M  V30 4341 C 396.357 3.31308 4.00663 0
M  V30 4342 C 394.042 2.66785 4.25595 0
M  V30 4343 C 396.036 4.6075 4.40441 0
M  V30 4344 C 393.723 3.96446 4.65053 0
M  V30 4345 C 394.721 4.9324 4.72444 0
M  V30 4346 O 394.409 6.20584 5.1101 0
M  V30 4347 H 394.141 0.25258 0.62704 0
M  V30 4348 H 396.695 1.32939 1.56577 0
M  V30 4349 H 394.925 0.208443 3.86138 0
M  V30 4350 H 396.614 0.598257 4.01467 0
M  V30 4351 H 397.38 3.0682 3.75615 0
M  V30 4352 H 393.259 1.92148 4.19047 0
M  V30 4353 H 396.803 5.363 4.46126 0
M  V30 4354 H 392.7 4.20724 4.89552 0
M  V30 4355 H 393.468 6.24509 5.29085 0
M  V30 4356 N 396.131 -1.37776 0.765217 0
M  V30 4357 C 397.38 -1.99092 0.323307 0
M  V30 4358 C 397.693 -1.61434 -1.10446 0
M  V30 4359 O 398.899 -2.15805 -1.64743 0
M  V30 4360 C 397.355 -3.56019 0.527098 0
M  V30 4361 C 396.963 -4.0262 1.96471 0
M  V30 4362 C 398.707 -4.2424 0.148483 0
M  V30 4363 C 396.614 -5.52233 2.11644 0
M  V30 4364 H 395.544 -0.744846 0.117137 0
M  V30 4365 H 398.195 -1.57391 0.943417 0
M  V30 4366 H 396.577 -3.95667 -0.162372 0
M  V30 4367 H 397.751 -3.74234 2.68859 0
M  V30 4368 H 396.066 -3.47161 2.29931 0
M  V30 4369 H 398.663 -5.34159 0.240456 0
M  V30 4370 H 399.006 -4.06446 -0.900422 0
M  V30 4371 H 399.539 -3.89872 0.79025 0
M  V30 4372 H 396.278 -5.74945 3.1483 0
M  V30 4373 H 395.798 -5.82324 1.4373 0
M  V30 4374 H 397.477 -6.18106 1.91193 0
M  V30 4375 N 397.609 -0.515225 -1.4894 0
M  V30 4376 C 399.025 -0.172099 -1.58669 0
M  V30 4377 C 399.225 1.32405 -1.51892 0
M  V30 4378 O 398.281 2.10116 -1.40027 0
M  V30 4379 C 399.594 -0.761533 -2.90897 0
M  V30 4380 C 401.142 -0.728926 -3.04394 0
M  V30 4381 C 401.617 -1.29667 -4.39261 0
M  V30 4382 N 403.108 -1.25799 -4.4579 0
M  V30 4383 C 403.843 -1.66733 -5.48623 0
M  V30 4384 N 403.339 -2.15327 -6.58488 0
M  V30 4385 N 405.132 -1.58061 -5.39419 0
M  V30 4386 H 397.283 -1.48778 -1.51588 0
M  V30 4387 H 399.546 -0.617968 -0.718901 0
M  V30 4388 H 399.252 -1.81136 -3.01468 0
M  V30 4389 H 399.126 -0.230106 -3.76497 0
M  V30 4390 H 401.513 0.312098 -2.93445 0
M  V30 4391 H 401.594 -1.29766 -2.20442 0
M  V30 4392 H 401.238 -2.33655 -4.50963 0
M  V30 4393 H 401.168 -0.703752 -5.21876 0
M  V30 4394 H 403.659 -0.902102 -3.66975 0
M  V30 4395 H 403.972 -2.44594 -7.33071 0
M  V30 4396 H 402.317 -2.19311 -6.59491 0
M  V30 4397 H 405.508 -1.19906 -4.52482 0
M  V30 4398 H 405.681 -1.90284 -6.19432 0
M  V30 4399 N 399.087 1.5561 -0.249682 0
M  V30 4400 C 400.037 2.18157 0.662673 0
M  V30 4401 C 401.021 1.1383 1.13717 0
M  V30 4402 O 402.213 1.39731 1.08648 0
M  V30 4403 C 399.342 2.88672 1.85805 0
M  V30 4404 C 398.428 4.00258 1.40193 0
M  V30 4405 N 398.819 5.01473 0.660213 0
M  V30 4406 C 397.117 4.12864 1.68698 0
M  V30 4407 C 397.818 5.80155 0.423695 0
M  V30 4408 N 396.794 5.34533 0.988721 0
M  V30 4409 H 400.596 2.93769 0.0878688 0
M  V30 4410 H 398.11 1.62316 -0.0521183 0
M  V30 4411 H 400.107 3.31912 2.5227 0
M  V30 4412 H 398.767 2.14564 2.43705 0
M  V30 4413 H 399.778 5.16971 0.310047 0
M  V30 4414 H 396.455 3.4993 2.27717 0
M  V30 4415 H 397.845 6.71688 -0.168616 0
M  V30 4416 N 400.565 -0.0233959 1.57583 0
M  V30 4417 C 401.813 -0.711654 1.89156 0
M  V30 4418 C 402.134 -1.75591 0.848096 0
M  V30 4419 O 401.404 -1.95547 -0.117566 0
M  V30 4420 H 399.984 -0.265835 0.698098 0
M  V30 4421 H 402.646 0.0119948 1.94896 0
M  V30 4422 H 401.742 -1.19766 2.88206 0
M  V30 4423 N 402.043 -1.548 -0.295768 0
M  V30 4424 C 403.268 -1.78653 -1.05346 0
M  V30 4425 C 403.693 -0.546894 -1.79974 0
M  V30 4426 O 403.051 0.502763 -1.7419 0
M  V30 4427 C 403.099 -2.99679 -2.00561 0
M  V30 4428 O 402.203 -2.7317 -3.08953 0
M  V30 4429 H 401.544 -0.59116 -0.302367 0
M  V30 4430 H 404.074 -2.01895 -0.331598 0
M  V30 4431 H 404.084 -3.27793 -2.42932 0
M  V30 4432 H 402.759 -3.89562 -1.4565 0
M  V30 4433 H 401.336 -2.56089 -2.71059 0
M  V30 4434 N 403.521 0.559213 -1.47345 0
M  V30 4435 C 404.468 1.66645 -1.59682 0
M  V30 4436 C 405.438 1.60168 -0.43994 0
M  V30 4437 O 406.623 1.79031 -0.659736 0
M  V30 4438 C 403.763 3.04969 -1.61518 0
M  V30 4439 C 402.876 3.21897 -2.88108 0
M  V30 4440 C 402.011 4.50608 -2.81294 0
M  V30 4441 C 401.05 4.60961 -4.02717 0
M  V30 4442 N 400.187 5.81024 -3.94151 0
M  V30 4443 H 405.027 1.55439 -2.54249 0
M  V30 4444 H 402.564 0.757219 -1.26113 0
M  V30 4445 H 404.522 3.85064 -1.60566 0
M  V30 4446 H 403.152 3.15015 -0.704645 0
M  V30 4447 H 402.204 2.35248 -2.98936 0
M  V30 4448 H 403.516 3.25412 -3.78032 0
M  V30 4449 H 402.67 5.3896 -2.7858 0
M  V30 4450 H 401.409 4.49568 -1.89049 0
M  V30 4451 H 400.414 3.71021 -4.05738 0
M  V30 4452 H 401.639 4.63761 -4.96087 0
M  V30 4453 H 399.585 5.80938 -3.04708 0
M  V30 4454 H 399.502 5.85909 -4.77752 0
M  V30 4455 H 400.77 6.71744 -3.9545 0
M  V30 4456 N 404.999 1.35443 0.805782 0
M  V30 4457 C 406.41 1.25768 1.37983 0
M  V30 4458 C 406.761 -0.10958 1.95894 0
M  V30 4459 O 405.886 -1.01056 1.91355 0
M  V30 4460 C 406.481 2.27727 2.5085 0
M  V30 4461 C 405.04 2.2179 3.04115 0
M  V30 4462 C 404.187 2.13393 1.77084 0
M  V30 4463 H 407.138 1.4656 0.608752 0
M  V30 4464 H 407.159 1.90422 3.29424 0
M  V30 4465 H 406.671 3.27227 2.08671 0
M  V30 4466 H 404.772 1.25703 3.50756 0
M  V30 4467 H 404.885 3.13788 3.62042 0
M  V30 4468 H 403.249 1.59384 1.98668 0
M  V30 4469 H 404.032 3.14755 1.37056 0
M  V30 4470 N 406.477 -1.02803 1.19454 0
M  V30 4471 C 407.41 -2.107 0.876396 0
M  V30 4472 C 408.388 -1.61741 -0.166897 0
M  V30 4473 O 409.572 -1.88451 -0.0430195 0
M  V30 4474 C 406.699 -3.37262 0.311758 0
M  V30 4475 C 405.745 -4.05093 1.33424 0
M  V30 4476 S 406.578 -4.50498 2.89503 0
M  V30 4477 C 407.734 -5.80277 2.34584 0
M  V30 4478 H 407.967 -2.37362 1.79016 0
M  V30 4479 H 405.5 -1.15755 1.02177 0
M  V30 4480 H 407.458 -4.10499 -0.00748752 0
M  V30 4481 H 406.119 -3.08693 -0.58032 0
M  V30 4482 H 405.312 -4.9611 0.888302 0
M  V30 4483 H 404.914 -3.3803 1.60037 0
M  V30 4484 H 407.206 -6.54873 1.73633 0
M  V30 4485 H 408.149 -6.29651 3.23952 0
M  V30 4486 H 408.557 -5.3599 1.77131 0
M  V30 4487 N 407.956 -0.998596 -1.21925 0
M  V30 4488 C 409.186 -0.695276 -1.94549 0
M  V30 4489 C 409.594 0.745079 -1.73911 0
M  V30 4490 O 408.937 1.51507 -1.03881 0
M  V30 4491 C 408.999 -0.928485 -3.47303 0
M  V30 4492 C 408.663 -2.35443 -3.91683 0
M  V30 4493 C 409.66 -3.33428 -3.98901 0
M  V30 4494 C 407.345 -2.69038 -4.24174 0
M  V30 4495 C 409.339 -4.63079 -4.37992 0
M  V30 4496 C 407.026 -3.98906 -4.62944 0
M  V30 4497 C 408.024 -4.95738 -4.69822 0
M  V30 4498 O 407.712 -6.23285 -5.07711 0
M  V30 4499 H 407.444 -0.255902 -0.625692 0
M  V30 4500 H 409.998 -1.33767 -1.5587 0
M  V30 4501 H 408.228 -0.228917 -3.86022 0
M  V30 4502 H 409.917 -0.619539 -4.01144 0
M  V30 4503 H 410.683 -3.08807 -3.73983 0
M  V30 4504 H 406.562 -1.94367 -4.18022 0
M  V30 4505 H 410.106 -5.38658 -4.43275 0
M  V30 4506 H 406.003 -4.23314 -4.87314 0
M  V30 4507 H 406.771 -6.27306 -5.25766 0
M  V30 4508 N 409.434 1.37368 -0.772513 0
M  V30 4509 C 410.662 2.03942 -0.348588 0
M  V30 4510 C 411.077 1.58264 1.02947 0
M  V30 4511 O 410.434 0.764246 1.65727 0
M  V30 4512 C 410.485 3.5946 -0.38351 0
M  V30 4513 O 410.206 4.03468 -1.70721 0
M  V30 4514 C 411.707 4.4327 0.0519152 0
M  V30 4515 H 408.927 0.654931 -0.145966 0
M  V30 4516 H 411.471 1.75686 -1.04665 0
M  V30 4517 H 409.626 3.86486 0.265978 0
M  V30 4518 H 410.04 4.97991 -1.64636 0
M  V30 4519 H 411.514 5.51995 -0.0236733 0
M  V30 4520 H 411.991 4.2514 1.10238 0
M  V30 4521 H 412.597 4.21471 -0.569415 0
M  V30 4522 N 410.912 0.523116 1.48665 0
M  V30 4523 C 412.323 0.0808997 1.86525 0
M  V30 4524 C 412.674 -1.33975 1.43336 0
M  V30 4525 O 411.799 -2.00221 0.821009 0
M  V30 4526 C 412.394 0.140037 3.3851 0
M  V30 4527 C 410.953 -0.246948 3.75589 0
M  V30 4528 C 410.1 0.502845 2.72703 0
M  V30 4529 H 413.051 0.734736 1.40667 0
M  V30 4530 H 413.072 -0.649945 3.74908 0
M  V30 4531 H 412.584 1.17412 3.69914 0
M  V30 4532 H 410.685 -1.28343 3.49798 0
M  V30 4533 H 410.798 0.0878859 4.79019 0
M  V30 4534 H 409.162 -0.0500581 2.54651 0
M  V30 4535 H 409.945 1.53743 3.0695 0
M  V30 4536 N 412.39 -1.55475 0.257931 0
M  V30 4537 C 413.3 -2.2549 -0.647425 0
M  V30 4538 C 414.316 -1.2748 -1.18427 0
M  V30 4539 O 415.492 -1.6038 -1.2182 0
M  V30 4540 C 412.557 -2.94916 -1.82278 0
M  V30 4541 C 411.618 -4.08363 -1.32432 0
M  V30 4542 C 410.851 -4.74469 -2.44366 0
M  V30 4543 O 411.074 -4.39701 -3.63344 0
M  V30 4544 O 410.008 -5.62763 -2.13497 0
M  V30 4545 H 413.834 -3.03593 -0.0807707 0
M  V30 4546 H 411.419 -1.49377 0.0259962 0
M  V30 4547 H 413.301 -3.38606 -2.50846 0
M  V30 4548 H 411.976 -2.19744 -2.37685 0
M  V30 4549 H 410.883 -3.69166 -0.605605 0
M  V30 4550 H 412.216 -4.85385 -0.816211 0
M  V30 4551 N 413.868 0.0150385 -1.57593 0
M  V30 4552 C 415.279 0.559832 -1.78109 0
M  V30 4553 C 415.63 1.74814 -0.890756 0
M  V30 4554 O 414.755 2.16216 -0.0892482 0
M  V30 4555 C 415.35 1.02238 -3.23006 0
M  V30 4556 C 413.909 1.51258 -3.44671 0
M  V30 4557 C 413.056 0.456955 -2.73509 0
M  V30 4558 H 416.007 -0.211169 -1.57289 0
M  V30 4559 H 416.028 1.88912 -3.30292 0
M  V30 4560 H 415.54 0.157302 -3.87781 0
M  V30 4561 H 413.641 2.39905 -2.8509 0
M  V30 4562 H 413.754 1.55042 -4.5332 0
M  V30 4563 H 412.118 0.915196 -2.37689 0
M  V30 4564 H 412.901 -0.398896 -3.40975 0
M  V30 4565 N 415.346 1.54954 0.287554 0
M  V30 4566 C 416.623 1.65569 1.04146 0
M  V30 4567 C 417.003 0.512672 2.0478 0
M  V30 4568 O 416.351 -0.489038 2.23205 0
M  V30 4569 C 416.561 3.04163 1.71131 0
M  V30 4570 C 417.909 3.61429 2.22832 0
M  V30 4571 O 418.933 3.06702 1.81141 0
M  V30 4572 O 417.792 4.57281 2.9926 0
M  V30 4573 H 414.886 0.671881 0.482188 0
M  V30 4574 H 417.432 1.67297 0.28457 0
M  V30 4575 H 416.204 3.78796 0.981303 0
M  V30 4576 H 415.827 3.06271 2.53543 0
M  V30 4577 N 416.824 -0.551391 1.4764 0
M  V30 4578 C 418.073 -1.30467 1.53822 0
M  V30 4579 C 418.386 -1.94495 0.207661 0
M  V30 4580 O 419.592 -2.71099 0.147533 0
M  V30 4581 C 418.048 -2.36616 2.71184 0
M  V30 4582 C 417.656 -1.78754 4.10793 0
M  V30 4583 C 419.4 -3.13088 2.86663 0
M  V30 4584 C 417.307 -2.82717 5.19447 0
M  V30 4585 H 416.237 -0.490584 0.572576 0
M  V30 4586 H 418.888 -0.58494 1.73927 0
M  V30 4587 H 417.27 -3.11529 2.4447 0
M  V30 4588 H 418.444 -1.10173 4.47435 0
M  V30 4589 H 416.759 -1.14846 4.00249 0
M  V30 4590 H 419.356 -3.90736 3.65007 0
M  V30 4591 H 419.699 -3.67635 1.95321 0
M  V30 4592 H 420.232 -2.45288 3.13175 0
M  V30 4593 H 416.971 -2.33018 6.12685 0
M  V30 4594 H 416.491 -3.4969 4.87316 0
M  V30 4595 H 418.17 -3.46102 5.46646 0
M  V30 4596 N 418.302 -1.35869 -0.798587 0
M  V30 4597 C 419.542 -1.30961 -1.56935 0
M  V30 4598 C 419.906 0.112404 -1.91671 0
M  V30 4599 O 421.107 0.285937 -2.67275 0
M  V30 4600 C 419.378 -2.19811 -2.81811 0
M  V30 4601 S 420.937 -2.32498 -3.72143 0
M  V30 4602 H 417.755 -0.465297 -0.537606 0
M  V30 4603 H 420.357 -1.71344 -0.941346 0
M  V30 4604 H 419.061 -3.22095 -2.54329 0
M  V30 4605 H 418.592 -1.80415 -3.49591 0
M  V30 4606 H 420.607 -1.5157 -4.72484 0
M  V30 4607 N 419.78 1.02168 -1.19998 0
M  V30 4608 C 420.73 2.08969 -0.911921 0
M  V30 4609 C 421.714 1.60404 0.12621 0
M  V30 4610 O 422.906 1.76817 -0.0804706 0
M  V30 4611 C 420.035 3.402 -0.460277 0
M  V30 4612 C 419.121 3.9548 -1.53155 0
M  V30 4613 N 419.512 4.24332 -2.75275 0
M  V30 4614 C 417.81 4.23572 -1.39653 0
M  V30 4615 C 418.511 4.68834 -3.44339 0
M  V30 4616 N 417.487 4.70804 -2.71744 0
M  V30 4617 H 421.289 2.29178 -1.83997 0
M  V30 4618 H 418.803 1.20094 -1.09322 0
M  V30 4619 H 420.8 4.16235 -0.235337 0
M  V30 4620 H 419.46 3.21408 0.4612 0
M  V30 4621 H 420.471 4.13393 -3.11973 0
M  V30 4622 H 417.148 4.14005 -0.539067 0
M  V30 4623 H 418.538 5.00019 -4.4881 0
M  V30 4624 N 421.258 1.00505 1.21394 0
M  V30 4625 C 422.168 0.574806 2.27449 0
M  V30 4626 C 423.184 -0.382206 1.6975 0
M  V30 4627 O 424.36 -0.246027 1.99892 0
M  V30 4628 C 421.425 -0.0917414 3.46579 0
M  V30 4629 C 420.486 0.909758 4.1955 0
M  V30 4630 C 419.719 0.274924 5.32991 0
M  V30 4631 O 419.942 -0.928254 5.62796 0
M  V30 4632 O 418.876 0.985877 5.93771 0
M  V30 4633 H 422.702 1.45744 2.66444 0
M  V30 4634 H 420.287 0.773923 1.27792 0
M  V30 4635 H 422.169 -0.464551 4.18832 0
M  V30 4636 H 420.844 -0.948755 3.09484 0
M  V30 4637 H 419.751 1.33372 3.49518 0
M  V30 4638 H 421.084 1.73636 4.60555 0
M  V30 4639 N 422.737 -1.36956 0.779787 0
M  V30 4640 C 423.667 -2.32761 0.185651 0
M  V30 4641 C 424.648 -1.56177 -0.673989 0
M  V30 4642 O 425.833 -1.84378 -0.609797 0
M  V30 4643 C 422.963 -3.40418 -0.687964 0
M  V30 4644 C 421.917 -4.27941 0.0710102 0
M  V30 4645 C 421.243 -5.26681 -0.922573 0
M  V30 4646 C 422.543 -5.07006 1.25467 0
M  V30 4647 H 424.237 -2.82698 0.986008 0
M  V30 4648 H 421.783 -1.3592 0.475592 0
M  V30 4649 H 423.736 -4.06423 -1.11348 0
M  V30 4650 H 422.46 -2.89025 -1.52093 0
M  V30 4651 H 421.119 -3.63478 0.47739 0
M  V30 4652 H 420.767 -4.71565 -1.7503 0
M  V30 4653 H 420.467 -5.86103 -0.419237 0
M  V30 4654 H 421.991 -5.9556 -1.34686 0
M  V30 4655 H 423.405 -5.66105 0.905401 0
M  V30 4656 H 421.802 -5.75793 1.69063 0
M  V30 4657 H 422.872 -4.3921 2.05481 0
M  V30 4658 N 424.215 -0.530993 -1.48385 0
M  V30 4659 C 425.145 0.219985 -2.32461 0
M  V30 4660 C 426.126 0.934111 -1.42156 0
M  V30 4661 O 427.311 0.919694 -1.71042 0
M  V30 4662 C 424.441 1.26674 -3.23375 0
M  V30 4663 C 423.395 0.67069 -4.22712 0
M  V30 4664 C 422.721 1.82017 -5.02766 0
M  V30 4665 C 424.021 -0.358268 -5.2107 0
M  V30 4666 H 425.715 -0.48187 -2.95497 0
M  V30 4667 H 423.261 -0.233182 -1.42099 0
M  V30 4668 H 425.214 1.80006 -3.81019 0
M  V30 4669 H 423.938 1.99818 -2.58341 0
M  V30 4670 H 422.597 0.158878 -3.66256 0
M  V30 4671 H 422.245 2.54002 -4.34157 0
M  V30 4672 H 421.945 1.42727 -5.70003 0
M  V30 4673 H 423.469 2.35725 -5.63264 0
M  V30 4674 H 424.883 0.0880081 -5.73232 0
M  V30 4675 H 423.28 -0.66861 -5.96364 0
M  V30 4676 H 424.35 -1.26367 -4.68145 0
M  V30 4677 N 425.693 1.55336 -0.266172 0
M  V30 4678 C 426.941 1.99003 0.35246 0
M  V30 4679 C 427.262 1.15591 1.57047 0
M  V30 4680 O 426.532 0.243268 1.94384 0
M  V30 4681 H 425.112 0.735025 0.133217 0
M  V30 4682 H 427.774 1.91367 -0.369434 0
M  V30 4683 H 426.87 3.05289 0.648453 0
M  V30 4684 N 427.171 -0.0066808 1.57599 0
M  V30 4685 C 428.121 -1.0086 2.04478 0
M  V30 4686 C 429.105 -1.30714 0.938231 0
M  V30 4687 O 430.297 -1.29924 1.20203 0
M  V30 4688 C 427.426 -2.30273 2.54615 0
M  V30 4689 C 426.512 -2.03413 3.72134 0
M  V30 4690 N 426.903 -1.46688 4.84062 0
M  V30 4691 C 425.201 -2.33589 3.79937 0
M  V30 4692 C 425.902 -1.36146 5.65543 0
M  V30 4693 N 424.878 -1.84477 5.1134 0
M  V30 4694 H 428.68 -0.564402 2.8843 0
M  V30 4695 H 426.194 -0.212521 1.61003 0
M  V30 4696 H 428.191 -3.02885 2.86472 0
M  V30 4697 H 426.851 -2.75352 1.72079 0
M  V30 4698 H 427.862 -1.14658 5.05049 0
M  V30 4699 H 424.539 -2.81589 3.08243 0
M  V30 4700 H 425.929 -0.925873 6.6549 0
M  V30 4701 N 428.649 -1.55105 -0.279332 0
M  V30 4702 C 429.895 -1.75672 -1.01327 0
M  V30 4703 C 430.228 -0.552739 -1.86168 0
M  V30 4704 O 429.503 0.449827 -1.89227 0
M  V30 4705 C 429.786 -3.05825 -1.90114 0
M  V30 4706 C 429.639 -4.36565 -1.08309 0
M  V30 4707 C 430.958 -3.31975 -2.8893 0
M  V30 4708 H 428.077 -0.639149 -0.366957 0
M  V30 4709 H 430.719 -1.87833 -0.286154 0
M  V30 4710 H 428.869 -2.95588 -2.52111 0
M  V30 4711 H 430.541 -4.58751 -0.484314 0
M  V30 4712 H 428.784 -4.32076 -0.386362 0
M  V30 4713 H 429.455 -5.23946 -1.73737 0
M  V30 4714 H 431.931 -3.41963 -2.37067 0
M  V30 4715 H 430.807 -4.2432 -3.48201 0
M  V30 4716 H 431.068 -2.51309 -3.63725 0
M  V30 4717 N 430.127 0.543554 -1.4793 0
M  V30 4718 C 431.538 1.12561 -1.48953 0
M  V30 4719 C 431.889 1.94578 -0.251754 0
M  V30 4720 O 431.014 2.0665 0.642255 0
M  V30 4721 C 431.609 2.04801 -2.69892 0
M  V30 4722 C 430.168 2.58251 -2.73831 0
M  V30 4723 C 429.315 1.34918 -2.42265 0
M  V30 4724 H 432.266 0.32947 -1.55242 0
M  V30 4725 H 432.287 2.88886 -2.47639 0
M  V30 4726 H 431.799 1.4508 -3.59963 0
M  V30 4727 H 429.9 3.21732 -1.87934 0
M  V30 4728 H 430.013 2.98312 -3.74895 0
M  V30 4729 H 428.377 1.66046 -1.93134 0
M  V30 4730 H 429.16 0.769693 -3.3456 0
M  V30 4731 N 431.605 1.3629 0.791371 0
M  V30 4732 C 432.535 1.33137 1.91825 0
M  V30 4733 C 433.516 0.203168 1.68882 0
M  V30 4734 O 434.701 0.400509 1.90025 0
M  V30 4735 C 431.831 1.11793 3.28816 0
M  V30 4736 C 430.785 2.21417 3.66277 0
M  V30 4737 C 430.111 1.85218 5.01596 0
M  V30 4738 C 431.411 3.63489 3.75064 0
M  V30 4739 H 433.105 2.2743 1.9472 0
M  V30 4740 H 430.651 1.09479 0.935437 0
M  V30 4741 H 432.604 1.08222 4.07266 0
M  V30 4742 H 431.328 0.139501 3.26302 0
M  V30 4743 H 429.987 2.2411 2.90121 0
M  V30 4744 H 429.635 0.859544 4.95602 0
M  V30 4745 H 429.335 2.58611 5.27631 0
M  V30 4746 H 430.859 1.832 5.82469 0
M  V30 4747 H 432.273 3.63034 4.43711 0
M  V30 4748 H 430.67 4.35771 4.12582 0
M  V30 4749 H 431.74 3.98536 2.76219 0
M  V30 4750 N 433.083 -1.0153 1.20538 0
M  V30 4751 C 434.33 -1.75149 1.01633 0
M  V30 4752 C 434.658 -1.89189 -0.451399 0
M  V30 4753 O 433.913 -1.41551 -1.35136 0
M  V30 4754 C 434.212 -3.17213 1.64654 0
M  V30 4755 C 433.878 -3.23146 3.14464 0
M  V30 4756 C 432.54 -3.24472 3.55347 0
M  V30 4757 C 434.892 -3.21207 4.10458 0
M  V30 4758 C 432.22 -3.21532 4.90748 0
M  V30 4759 C 434.572 -3.19808 5.45807 0
M  V30 4760 C 433.236 -3.19439 5.86102 0
M  V30 4761 H 432.506 -0.640914 0.3719 0
M  V30 4762 H 435.153 -1.19071 1.49981 0
M  V30 4763 H 433.458 -3.76457 1.08571 0
M  V30 4764 H 435.155 -3.72871 1.4754 0
M  V30 4765 H 431.745 -3.2285 2.81897 0
M  V30 4766 H 435.929 -3.19351 3.79906 0
M  V30 4767 H 431.185 -3.19578 5.21229 0
M  V30 4768 H 435.359 -3.1726 6.19935 0
M  V30 4769 H 432.986 -3.16915 6.90991 0
M  V30 4770 N 434.561 -1.01147 -1.20859 0
M  V30 4771 C 435.786 -0.716698 -1.94623 0
M  V30 4772 C 436.211 0.715415 -1.73964 0
M  V30 4773 O 435.569 1.49157 -1.03062 0
M  V30 4774 C 435.617 -1.0513 -3.44935 0
M  V30 4775 O 434.721 -0.160131 -4.12089 0
M  V30 4776 H 434.062 -0.266404 -0.608214 0
M  V30 4777 H 436.592 -1.35346 -1.53436 0
M  V30 4778 H 436.602 -1.00086 -3.95533 0
M  V30 4779 H 435.277 -2.09475 -3.59295 0
M  V30 4780 H 433.854 -0.267657 -3.71938 0
M  V30 4781 N 436.039 1.36541 -0.78704 0
M  V30 4782 C 437.316 1.9355 -0.282424 0
M  V30 4783 C 437.696 1.71919 1.22503 0
M  V30 4784 O 437.044 1.07677 2.01539 0
M  V30 4785 C 437.254 3.4246 -0.672462 0
M  V30 4786 C 438.602 4.19582 -0.650863 0
M  V30 4787 O 439.626 3.50889 -0.612789 0
M  V30 4788 O 438.485 5.42106 -0.691623 0
M  V30 4789 H 435.579 0.824091 -0.0693 0
M  V30 4790 H 438.125 1.45736 -0.869423 0
M  V30 4791 H 436.897 3.51851 -1.71221 0
M  V30 4792 H 436.52 3.97556 -0.0592211 0
M  V30 4793 N 437.518 0.538854 1.48102 0
M  V30 4794 C 438.934 0.19732 1.58376 0
M  V30 4795 C 439.134 -1.29971 1.5398 0
M  V30 4796 O 438.19 -2.07861 1.43352 0
M  V30 4797 C 439.503 0.807716 2.89649 0
M  V30 4798 C 441.051 0.77726 3.03196 0
M  V30 4799 C 441.526 1.36639 4.37143 0
M  V30 4800 N 443.017 1.32875 4.43732 0
M  V30 4801 C 443.752 1.7544 5.45901 0
M  V30 4802 N 443.248 2.25776 6.54979 0
M  V30 4803 N 445.041 1.66623 5.36836 0
M  V30 4804 H 437.192 1.5117 1.49202 0
M  V30 4805 H 439.455 0.629327 0.708979 0
M  V30 4806 H 439.161 1.85909 2.98548 0
M  V30 4807 H 439.035 0.289975 3.76084 0
M  V30 4808 H 441.422 -0.265374 2.93904 0
M  V30 4809 H 441.503 1.33256 2.18349 0
M  V30 4810 H 441.147 2.408 4.47189 0
M  V30 4811 H 441.077 0.786689 5.20691 0
M  V30 4812 H 443.568 0.96037 3.65493 0
M  V30 4813 H 443.881 2.56226 7.29087 0
M  V30 4814 H 442.226 2.29775 6.55918 0
M  V30 4815 H 445.417 1.27089 4.50517 0
M  V30 4816 H 445.59 2.00115 6.16326 0
M  V30 4817 N 438.996 -1.55193 0.274407 0
M  V30 4818 C 440.221 -2.04446 -0.348824 0
M  V30 4819 C 440.646 -1.15149 -1.48735 0
M  V30 4820 O 440.004 -0.149952 -1.80679 0
M  V30 4821 C 440.052 -3.51431 -0.808009 0
M  V30 4822 O 439.156 -3.65225 -1.91531 0
M  V30 4823 H 438.497 -0.66006 -0.0722276 0
M  V30 4824 H 441.027 -2.00481 0.408498 0
M  V30 4825 H 441.037 -3.92781 -1.10395 0
M  V30 4826 H 439.712 -4.15892 0.0249865 0
M  V30 4827 H 438.289 -3.35778 -1.62196 0
M  V30 4828 N 440.474 -0.00167713 -1.576 0
M  V30 4829 C 441.721 0.68282 -1.90641 0
M  V30 4830 C 442.049 1.73686 -0.875415 0
M  V30 4831 O 441.304 1.95334 0.119575 0
M  V30 4832 C 441.603 1.36189 -3.30435 0
M  V30 4833 C 441.269 0.440887 -4.48739 0
M  V30 4834 C 439.931 0.187312 -4.80835 0
M  V30 4835 C 442.283 -0.193134 -5.20842 0
M  V30 4836 C 439.611 -0.70855 -5.82406 0
M  V30 4837 C 441.963 -1.07688 -6.23367 0
M  V30 4838 C 440.627 -1.33962 -6.53919 0
M  V30 4839 H 439.897 0.249862 -0.697603 0
M  V30 4840 H 442.544 -0.0575642 -1.91413 0
M  V30 4841 H 440.849 2.17636 -3.25794 0
M  V30 4842 H 442.546 1.89759 -3.5326 0
M  V30 4843 H 439.136 0.648694 -4.23663 0
M  V30 4844 H 443.32 -0.0102445 -4.96299 0
M  V30 4845 H 438.576 -0.920097 -6.04437 0
M  V30 4846 H 442.75 -1.57451 -6.78367 0
M  V30 4847 H 440.377 -2.03549 -7.32442 0
M  V30 4848 N 441.952 1.55251 0.271103 0
M  V30 4849 C 442.915 1.87484 1.31842 0
M  V30 4850 C 443.915 0.749545 1.42262 0
M  V30 4851 O 445.105 1.01771 1.4138 0
M  V30 4852 C 442.237 2.0818 2.69951 0
M  V30 4853 H 443.43 2.81108 1.0449 0
M  V30 4854 H 440.983 1.47771 0.509258 0
M  V30 4855 H 441.718 1.16944 3.02481 0
M  V30 4856 H 441.503 2.90114 2.63774 0
M  V30 4857 H 442.993 2.34385 3.4562 0
M  V30 4858 N 443.43 -0.535701 1.48216 0
M  V30 4859 C 444.362 -1.65662 1.58394 0
M  V30 4860 C 445.375 -1.5591 0.468607 0
M  V30 4861 O 446.564 -1.62475 0.7392 0
M  V30 4862 C 443.664 -3.04276 1.4923 0
M  V30 4863 C 442.837 -3.39567 2.75705 0
M  V30 4864 C 441.896 -4.57436 2.60075 0
M  V30 4865 O 440.922 -4.60942 3.33948 0
M  V30 4866 N 442.124 -5.55259 1.69315 0
M  V30 4867 H 444.889 -1.5737 2.55058 0
M  V30 4868 H 442.45 -0.722845 1.44867 0
M  V30 4869 H 444.442 -3.80994 1.36477 0
M  V30 4870 H 443.012 -3.06677 0.605632 0
M  V30 4871 H 442.232 -2.52083 3.03064 0
M  V30 4872 H 443.52 -3.59929 3.59623 0
M  V30 4873 H 442.918 -5.552 1.08489 0
M  V30 4874 H 441.475 -6.31218 1.62504 0
M  V30 4875 N 444.908 -1.36708 -0.784132 0
M  V30 4876 C 446.155 -1.31231 -1.54222 0
M  V30 4877 C 446.483 0.106864 -1.94206 0
M  V30 4878 O 445.738 1.07734 -1.63376 0
M  V30 4879 C 446.037 -2.18571 -2.82774 0
M  V30 4880 C 445.703 -3.67039 -2.61903 0
M  V30 4881 C 444.365 -4.07503 -2.55919 0
M  V30 4882 C 446.717 -4.61149 -2.4288 0
M  V30 4883 C 444.045 -5.40211 -2.28886 0
M  V30 4884 C 446.397 -5.94081 -2.17373 0
M  V30 4885 C 445.061 -6.33664 -2.09825 0
M  V30 4886 H 444.331 -0.48021 -0.56434 0
M  V30 4887 H 446.978 -1.68807 -0.904233 0
M  V30 4888 H 445.283 -1.73949 -3.51068 0
M  V30 4889 H 446.98 -2.11655 -3.40592 0
M  V30 4890 H 443.57 -3.34941 -2.67418 0
M  V30 4891 H 447.754 -4.30756 -2.46501 0
M  V30 4892 H 443.01 -5.69855 -2.21529 0
M  V30 4893 H 447.184 -6.66566 -2.01649 0
M  V30 4894 H 444.811 -7.36423 -1.88641 0
M  V30 4895 N 446.386 1.0089 -1.21074 0
M  V30 4896 C 447.611 1.78727 -1.05221 0
M  V30 4897 C 448.036 1.83932 0.393795 0
M  V30 4898 O 447.394 1.28004 1.28393 0
M  V30 4899 C 447.442 3.20665 -1.64944 0
M  V30 4900 O 446.546 4.02632 -0.892273 0
M  V30 4901 H 445.887 0.550973 -0.370574 0
M  V30 4902 H 448.417 1.26847 -1.60534 0
M  V30 4903 H 448.427 3.71352 -1.69002 0
M  V30 4904 H 447.102 3.16191 -2.70177 0
M  V30 4905 H 445.679 3.61207 -0.926492 0
M  V30 4906 N 447.864 1.01787 1.20321 0
M  V30 4907 C 448.796 0.547357 2.22568 0
M  V30 4908 C 449.809 -0.370922 1.58518 0
M  V30 4909 O 450.998 -0.169067 1.77698 0
M  V30 4910 C 448.098 -0.223031 3.38165 0
M  V30 4911 C 447.271 0.697472 4.31803 0
M  V30 4912 C 446.33 -0.025562 5.26194 0
M  V30 4913 O 445.356 0.597367 5.66057 0
M  V30 4914 N 446.558 -1.29999 5.65757 0
M  V30 4915 H 449.323 1.42668 2.63564 0
M  V30 4916 H 446.884 0.895552 1.34876 0
M  V30 4917 H 448.876 -0.716002 3.98316 0
M  V30 4918 H 447.446 -1.00366 2.9605 0
M  V30 4919 H 446.666 1.37073 3.69601 0
M  V30 4920 H 447.954 1.32347 4.91286 0
M  V30 4921 H 447.352 -1.827 5.35385 0
M  V30 4922 H 445.909 -1.73766 6.28211 0
M  V30 4923 N 449.342 -1.36122 0.79427 0
M  V30 4924 C 450.252 -2.33769 0.197296 0
M  V30 4925 C 451.268 -1.61276 -0.653153 0
M  V30 4926 O 452.444 -1.9323 -0.5678 0
M  V30 4927 C 449.509 -3.40474 -0.654098 0
M  V30 4928 C 448.57 -4.28759 0.215411 0
M  V30 4929 C 447.803 -5.30368 -0.595443 0
M  V30 4930 O 448.026 -5.40211 -1.83107 0
M  V30 4931 O 446.96 -6.019 0.00721351 0
M  V30 4932 H 450.786 -2.86597 1.00478 0
M  V30 4933 H 448.371 -1.38676 0.555818 0
M  V30 4934 H 450.253 -4.05703 -1.13944 0
M  V30 4935 H 448.928 -2.89937 -1.43938 0
M  V30 4936 H 447.835 -3.66554 0.747615 0
M  V30 4937 H 449.168 -4.82661 0.964332 0
M  V30 4938 N 450.82 -0.546701 -1.47814 0
M  V30 4939 C 452.069 -0.0166497 -2.01693 0
M  V30 4940 C 452.382 1.33721 -1.42752 0
M  V30 4941 O 453.588 1.95658 -1.8823 0
M  V30 4942 C 452.044 0.0206769 -3.59894 0
M  V30 4943 C 451.652 -1.3293 -4.27824 0
M  V30 4944 C 453.396 0.498674 -4.21561 0
M  V30 4945 C 451.303 -1.25165 -5.78003 0
M  V30 4946 H 450.233 -0.0024541 -0.753996 0
M  V30 4947 H 452.884 -0.692984 -1.69912 0
M  V30 4948 H 451.266 0.76244 -3.88591 0
M  V30 4949 H 452.44 -2.08795 -4.10781 0
M  V30 4950 H 450.755 -1.74438 -3.78101 0
M  V30 4951 H 453.352 0.575 -5.31599 0
M  V30 4952 H 453.695 1.5083 -3.88016 0
M  V30 4953 H 454.228 -0.18791 -3.97356 0
M  V30 4954 H 450.967 -2.23695 -6.1615 0
M  V30 4955 H 450.487 -0.53464 -5.97412 0
M  V30 4956 H 452.166 -0.949299 -6.39998 0
M  V30 4957 N 452.299 1.55045 -0.282633 0
M  V30 4958 C 453.547 1.99365 0.331334 0
M  V30 4959 C 453.868 1.1725 1.55812 0
M  V30 4960 O 453.138 0.263871 1.94115 0
M  V30 4961 H 451.718 0.736397 0.125414 0
M  V30 4962 H 454.38 1.90964 -0.389711 0
M  V30 4963 H 453.476 3.0596 0.616036 0
M  V30 4964 N 453.777 0.010035 1.57597 0
M  V30 4965 C 454.707 -0.976857 2.12084 0
M  V30 4966 C 455.688 -1.35191 1.03235 0
M  V30 4967 O 456.873 -1.43389 1.3097 0
M  V30 4968 C 454.003 -2.26548 2.63236 0
M  V30 4969 C 452.957 -2.03175 3.76701 0
M  V30 4970 C 452.283 -3.38138 4.14206 0
M  V30 4971 C 453.583 -1.38625 5.03568 0
M  V30 4972 H 455.277 -0.523145 2.94794 0
M  V30 4973 H 452.823 -0.250195 1.4181 0
M  V30 4974 H 454.776 -2.95952 2.99984 0
M  V30 4975 H 453.5 -2.74051 1.77661 0
M  V30 4976 H 452.159 -1.36195 3.40362 0
M  V30 4977 H 451.807 -3.83363 3.25641 0
M  V30 4978 H 451.507 -3.23312 4.90656 0
M  V30 4979 H 453.031 -4.08841 4.53521 0
M  V30 4980 H 454.445 -1.98 5.38023 0
M  V30 4981 H 452.842 -1.34256 5.84889 0
M  V30 4982 H 453.912 -0.356722 4.83586 0
M  V30 4983 N 455.255 -1.55392 -0.262866 0
M  V30 4984 C 456.218 -1.88181 -1.30846 0
M  V30 4985 C 457.218 -0.757079 -1.41862 0
M  V30 4986 O 458.408 -1.02519 -1.40838 0
M  V30 4987 C 455.54 -2.09609 -2.68844 0
M  V30 4988 H 456.733 -2.81659 -1.02997 0
M  V30 4989 H 454.286 -1.48039 -0.501414 0
M  V30 4990 H 455.021 -1.18547 -3.01856 0
M  V30 4991 H 454.806 -2.91508 -2.62231 0
M  V30 4992 H 456.296 -2.36215 -3.44372 0
M  V30 4993 N 456.733 0.527833 -1.48498 0
M  V30 4994 C 457.958 1.313 -1.60546 0
M  V30 4995 C 458.383 1.86199 -0.26672 0
M  V30 4996 O 457.741 1.64513 0.761918 0
M  V30 4997 C 457.789 2.43818 -2.65678 0
M  V30 4998 O 456.893 3.46916 -2.22987 0
M  V30 4999 H 456.234 0.388784 -0.538277 0
M  V30 5000 H 458.764 0.634896 -1.945 0
M  V30 5001 H 458.774 2.89973 -2.87018 0
M  V30 5002 H 457.449 2.03222 -3.62869 0
M  V30 5003 H 456.026 3.06864 -2.11869 0
M  V30 5004 N 458.211 1.37122 0.776871 0
M  V30 5005 C 459.141 1.35164 1.90402 0
M  V30 5006 C 460.122 0.221069 1.68657 0
M  V30 5007 O 461.307 0.420642 1.8959 0
M  V30 5008 C 458.437 1.15274 3.27611 0
M  V30 5009 C 457.391 2.25289 3.63908 0
M  V30 5010 C 456.717 1.90527 4.99603 0
M  V30 5011 C 458.017 3.67446 3.71188 0
M  V30 5012 H 459.711 2.29482 1.92297 0
M  V30 5013 H 457.257 1.10465 0.923773 0
M  V30 5014 H 459.21 1.12536 4.06096 0
M  V30 5015 H 457.934 0.174102 3.26136 0
M  V30 5016 H 456.593 2.27174 2.87728 0
M  V30 5017 H 456.241 0.91206 4.94662 0
M  V30 5018 H 455.941 2.64193 5.24858 0
M  V30 5019 H 457.465 1.89367 5.80493 0
M  V30 5020 H 458.879 3.67719 4.39836 0
M  V30 5021 H 457.276 4.40123 4.07936 0
M  V30 5022 H 458.346 4.01443 2.71977 0
M  V30 5023 N 459.689 -1.00246 1.21608 0
M  V30 5024 C 460.937 -1.73717 1.0328 0
M  V30 5025 C 461.258 -1.90102 -0.434318 0
M  V30 5026 O 460.528 -1.45376 -1.31311 0
M  V30 5027 H 459.108 -0.643613 0.379172 0
M  V30 5028 H 461.77 -1.20787 1.52959 0
M  V30 5029 H 460.866 -2.73535 1.50283 0
M  V30 5030 N 461.167 -1.02423 -1.1978 0
M  V30 5031 C 462.13 -0.605703 -2.21052 0
M  V30 5032 C 463.13 0.328209 -1.57415 0
M  V30 5033 O 464.32 0.115853 -1.73814 0
M  V30 5034 C 461.452 0.114366 -3.40708 0
M  V30 5035 H 462.645 -1.5017 -2.59594 0
M  V30 5036 H 460.198 -0.814888 -1.33376 0
M  V30 5037 H 460.933 1.02492 -3.07678 0
M  V30 5038 H 460.718 -0.556641 -3.88129 0
M  V30 5039 H 462.208 0.394272 -4.15735 0
M  V30 5040 N 462.645 1.35699 -0.801477 0
M  V30 5041 C 464.056 1.81415 -0.441073 0
M  V30 5042 C 464.407 1.66595 1.03636 0
M  V30 5043 O 463.532 1.19369 1.80499 0
M  V30 5044 C 464.127 3.29369 -0.793819 0
M  V30 5045 C 462.686 3.73248 -0.486083 0
M  V30 5046 C 461.833 2.57775 -1.02213 0
M  V30 5047 H 464.784 1.23749 -0.993572 0
M  V30 5048 H 464.805 3.80395 -0.0894158 0
M  V30 5049 H 464.317 3.40123 -1.86917 0
M  V30 5050 H 462.418 3.68046 0.580735 0
M  V30 5051 H 462.531 4.68222 -1.01513 0
M  V30 5052 H 460.895 2.50788 -0.444712 0
M  V30 5053 H 461.678 2.71309 -2.10348 0
M  V30 5054 N 464.123 0.554532 1.47522 0
M  V30 5055 C 465.4 -0.0360704 1.95567 0
M  V30 5056 C 465.78 -1.48828 1.49711 0
M  V30 5057 O 465.128 -2.16366 0.734717 0
M  V30 5058 C 465.338 0.106631 3.48837 0
M  V30 5059 C 466.686 -0.0400899 4.24581 0
M  V30 5060 O 467.71 0.0340453 3.56184 0
M  V30 5061 O 466.569 -0.199111 5.46137 0
M  V30 5062 H 463.663 -0.0656294 0.824392 0
M  V30 5063 H 466.209 0.620867 1.57935 0
M  V30 5064 H 464.981 1.11727 3.7501 0
M  V30 5065 H 464.604 -0.58804 3.93227 0
M  V30 5066 N 465.601 -1.54893 0.290851 0
M  V30 5067 C 466.511 -2.26812 -0.59945 0
M  V30 5068 C 467.527 -1.29963 -1.15696 0
M  V30 5069 O 468.703 -1.62928 -1.18391 0
M  V30 5070 C 465.768 -2.98716 -1.75982 0
M  V30 5071 C 464.829 -4.1108 -1.2374 0
M  V30 5072 C 464.062 -4.79546 -2.34246 0
M  V30 5073 O 464.285 -4.47309 -3.53936 0
M  V30 5074 O 463.219 -5.67165 -2.01512 0
M  V30 5075 H 467.045 -3.03696 -0.0163561 0
M  V30 5076 H 464.63 -1.49289 0.0576755 0
M  V30 5077 H 466.512 -3.43851 -2.43607 0
M  V30 5078 H 465.187 -2.24737 -2.3297 0
M  V30 5079 H 464.094 -3.70367 -0.527163 0
M  V30 5080 H 465.427 -4.87007 -0.71307 0
M  V30 5081 N 467.08 -0.0183926 -1.57589 0
M  V30 5082 C 468.31 0.67207 -1.95363 0
M  V30 5083 C 468.718 1.66807 -0.892872 0
M  V30 5084 O 468.061 1.83204 0.134958 0
M  V30 5085 C 468.123 1.44397 -3.29226 0
M  V30 5086 C 467.787 0.607511 -4.52944 0
M  V30 5087 C 468.784 -0.112657 -5.19778 0
M  V30 5088 C 466.469 0.548068 -4.99301 0
M  V30 5089 C 468.463 -0.881057 -6.31281 0
M  V30 5090 C 466.15 -0.224044 -6.10689 0
M  V30 5091 C 467.148 -0.937323 -6.76538 0
M  V30 5092 O 466.836 -1.6968 -7.85789 0
M  V30 5093 H 466.568 0.190925 -0.648478 0
M  V30 5094 H 469.122 -0.0711994 -2.05277 0
M  V30 5095 H 467.352 2.23214 -3.15773 0
M  V30 5096 H 469.041 2.02152 -3.51979 0
M  V30 5097 H 469.807 -0.0759998 -4.8494 0
M  V30 5098 H 465.686 1.09281 -4.4786 0
M  V30 5099 H 469.23 -1.43832 -6.82611 0
M  V30 5100 H 465.127 -0.262457 -6.44966 0
M  V30 5101 H 465.895 -1.61544 -8.024 0
M  V30 5102 N 468.558 1.5553 0.254621 0
M  V30 5103 C 469.807 1.76202 0.981612 0
M  V30 5104 C 470.12 0.580883 1.86776 0
M  V30 5105 O 471.326 0.670448 2.63092 0
M  V30 5106 C 469.782 3.11921 1.79537 0
M  V30 5107 C 469.39 4.37659 0.956991 0
M  V30 5108 C 471.134 3.41936 2.51555 0
M  V30 5109 C 469.041 5.64411 1.76619 0
M  V30 5110 H 467.971 0.656841 0.370237 0
M  V30 5111 H 470.622 1.81969 0.236556 0
M  V30 5112 H 469.004 3.00241 2.58208 0
M  V30 5113 H 470.178 4.60307 0.21315 0
M  V30 5114 H 468.493 4.14922 0.350497 0
M  V30 5115 H 471.09 4.33849 3.12536 0
M  V30 5116 H 471.433 2.62905 3.22779 0
M  V30 5117 H 471.966 3.54797 1.799 0
M  V30 5118 H 468.705 6.46241 1.09783 0
M  V30 5119 H 468.225 5.45877 2.48551 0
M  V30 5120 H 469.904 6.03386 2.33527 0
M  V30 5121 N 470.036 -0.519951 1.48776 0
M  V30 5122 C 470.946 -1.65025 1.66745 0
M  V30 5123 C 471.962 -1.6508 0.549954 0
M  V30 5124 O 473.138 -1.83848 0.822295 0
M  V30 5125 C 470.203 -3.0146 1.71238 0
M  V30 5126 C 469.264 -3.12182 2.94688 0
M  V30 5127 C 468.497 -4.42109 2.98958 0
M  V30 5128 O 468.72 -5.29799 2.1135 0
M  V30 5129 O 467.654 -4.57406 3.91233 0
M  V30 5130 H 471.48 -1.52801 2.62461 0
M  V30 5131 H 469.065 -0.694157 1.32294 0
M  V30 5132 H 470.947 -3.82584 1.76657 0
M  V30 5133 H 469.622 -3.13988 0.786975 0
M  V30 5134 H 468.529 -2.30316 2.94797 0
M  V30 5135 H 469.862 -3.04574 3.86646 0
M  V30 5136 N 471.514 -1.37532 -0.769588 0
M  V30 5137 C 472.461 -1.3347 -1.88293 0
M  V30 5138 C 473.431 -0.199891 -1.64893 0
M  V30 5139 O 474.616 -0.389594 -1.8678 0
M  V30 5140 C 471.756 -1.14968 -3.25387 0
M  V30 5141 C 470.869 -2.37698 -3.60727 0
M  V30 5142 C 470.004 -2.12051 -4.8704 0
M  V30 5143 C 469.043 -3.30636 -5.15117 0
M  V30 5144 N 468.18 -3.04527 -6.3262 0
M  V30 5145 H 473.02 -2.28658 -1.911 0
M  V30 5146 H 470.557 -1.13622 -0.934257 0
M  V30 5147 H 472.515 -1.02261 -4.04473 0
M  V30 5148 H 471.145 -0.234263 -3.21949 0
M  V30 5149 H 470.197 -2.61137 -2.76608 0
M  V30 5150 H 471.509 -3.26131 -3.77413 0
M  V30 5151 H 470.663 -1.96388 -5.74035 0
M  V30 5152 H 469.402 -1.20959 -4.72462 0
M  V30 5153 H 468.407 -3.46836 -4.26597 0
M  V30 5154 H 469.632 -4.22582 -5.31603 0
M  V30 5155 H 467.578 -2.16067 -6.19396 0
M  V30 5156 H 467.495 -3.86503 -6.49732 0
M  V30 5157 H 468.763 -2.92485 -7.22546 0
M  V30 5158 N 472.992 0.995999 -1.22138 0
M  V30 5159 C 473.922 2.10387 -1.01289 0
M  V30 5160 C 474.903 1.69975 0.0651454 0
M  V30 5161 O 476.088 1.9396 -0.0964628 0
M  V30 5162 C 473.218 3.42312 -0.586517 0
M  V30 5163 C 472.172 3.96558 -1.61014 0
M  V30 5164 C 471.498 5.24494 -1.0397 0
M  V30 5165 C 472.798 4.27595 -2.99933 0
M  V30 5166 H 474.492 2.28086 -1.93951 0
M  V30 5167 H 472.038 1.09607 -0.933928 0
M  V30 5168 H 473.991 4.19223 -0.427793 0
M  V30 5169 H 472.715 3.24431 0.375761 0
M  V30 5170 H 471.374 3.21776 -1.75658 0
M  V30 5171 H 471.022 5.02953 -0.0688703 0
M  V30 5172 H 470.722 5.61755 -1.72352 0
M  V30 5173 H 472.246 6.04042 -0.892494 0
M  V30 5174 H 473.66 4.95315 -2.8868 0
M  V30 5175 H 472.057 4.76021 -3.6541 0
M  V30 5176 H 473.127 3.35498 -3.50099 0
M  V30 5177 N 474.47 1.03057 1.19235 0
M  V30 5178 C 475.433 0.617418 2.20727 0
M  V30 5179 C 476.433 -0.319856 1.57587 0
M  V30 5180 O 477.623 -0.106633 1.73873 0
M  V30 5181 C 474.755 -0.096296 3.40764 0
M  V30 5182 H 475.948 1.51544 2.58794 0
M  V30 5183 H 473.501 0.821949 1.32942 0
M  V30 5184 H 474.236 -1.00859 3.08217 0
M  V30 5185 H 474.021 0.577217 3.87828 0
M  V30 5186 H 475.511 -0.372219 4.15938 0
M  V30 5187 N 475.948 -1.35272 0.808662 0
M  V30 5188 C 477.176 -2.02946 0.402537 0
M  V30 5189 C 477.591 -1.60937 -0.987147 0
M  V30 5190 O 476.948 -0.807917 -1.63643 0
M  V30 5191 C 476.999 -3.58317 0.47868 0
M  V30 5192 O 476.72 -3.98799 1.81358 0
M  V30 5193 C 478.221 -4.43251 0.0656281 0
M  V30 5194 H 475.441 -0.650831 0.163279 0
M  V30 5195 H 477.985 -1.72849 1.09286 0
M  V30 5196 H 476.14 -3.87055 -0.163415 0
M  V30 5197 H 476.554 -4.93451 1.77781 0
M  V30 5198 H 478.028 -5.51738 0.170017 0
M  V30 5199 H 478.505 -4.27913 -0.989278 0
M  V30 5200 H 479.111 -4.19813 0.68096 0
M  V30 5201 N 477.426 -0.562348 -1.47226 0
M  V30 5202 C 478.675 -0.038041 -2.01664 0
M  V30 5203 C 478.988 1.32199 -1.44162 0
M  V30 5204 O 480.194 1.9365 -1.90294 0
M  V30 5205 C 478.65 -0.0174958 -3.59896 0
M  V30 5206 C 478.258 -1.3746 -4.2639 0
M  V30 5207 C 480.002 0.453934 -4.22066 0
M  V30 5208 C 477.909 -1.31289 -5.76643 0
M  V30 5209 H 476.839 -0.0104511 -0.753928 0
M  V30 5210 H 479.49 -0.710966 -1.69167 0
M  V30 5211 H 477.872 0.721182 -3.89378 0
M  V30 5212 H 479.046 -2.1314 -4.08544 0
M  V30 5213 H 477.361 -1.78438 -3.7623 0
M  V30 5214 H 479.958 0.518584 -5.32179 0
M  V30 5215 H 480.301 1.46706 -3.89594 0
M  V30 5216 H 480.834 -0.230044 -3.97134 0
M  V30 5217 H 477.573 -2.30217 -6.13743 0
M  V30 5218 H 477.093 -0.597973 -5.96812 0
M  V30 5219 H 478.772 -1.01713 -6.38955 0
M  V30 5220 N 478.904 1.54736 -0.299062 0
M  V30 5221 C 480.134 2.04215 0.312992 0
M  V30 5222 C 480.542 1.17596 1.48215 0
M  V30 5223 O 479.885 0.193835 1.82674 0
M  V30 5224 C 479.947 3.49696 0.833862 0
M  V30 5225 C 479.611 4.56518 -0.20977 0
M  V30 5226 C 480.608 5.09442 -1.03756 0
M  V30 5227 C 478.293 5.01073 -0.35091 0
M  V30 5228 C 480.287 6.05459 -1.99244 0
M  V30 5229 C 477.974 5.9691 -1.30924 0
M  V30 5230 C 478.972 6.48987 -2.1285 0
M  V30 5231 O 478.66 7.42947 -3.07059 0
M  V30 5232 H 478.392 0.672128 0.0722494 0
M  V30 5233 H 480.946 2.00718 -0.436043 0
M  V30 5234 H 479.176 3.5051 1.63339 0
M  V30 5235 H 480.865 3.82381 1.36159 0
M  V30 5236 H 481.631 4.75816 -0.939376 0
M  V30 5237 H 477.51 4.60168 0.276813 0
M  V30 5238 H 481.054 6.46031 -2.63229 0
M  V30 5239 H 476.951 6.29953 -1.40815 0
M  V30 5240 H 477.719 7.60743 -3.02015 0
M  V30 5241 N 480.382 0.0267497 1.57577 0
M  V30 5242 C 481.628 -0.647596 1.92815 0
M  V30 5243 C 481.983 -1.69872 0.903396 0
M  V30 5244 O 481.276 -1.91429 -0.0808881 0
M  V30 5245 C 481.47 -1.30914 3.3256 0
M  V30 5246 C 481.299 -0.323621 4.48534 0
M  V30 5247 C 480.069 0.0756607 5.05243 0
M  V30 5248 C 482.267 0.42112 5.12573 0
M  V30 5249 N 480.249 1.0566 6.04739 0
M  V30 5250 C 481.62 1.25589 6.07147 0
M  V30 5251 C 483.675 0.482077 4.95561 0
M  V30 5252 C 482.378 2.1461 6.86538 0
M  V30 5253 C 484.404 1.35962 5.75559 0
M  V30 5254 C 483.766 2.18217 6.69747 0
M  V30 5255 H 479.865 -0.209357 0.753454 0
M  V30 5256 H 482.449 0.0933695 1.94476 0
M  V30 5257 H 480.62 -2.02026 3.31723 0
M  V30 5258 H 482.352 -1.94033 3.55153 0
M  V30 5259 H 479.107 -0.298294 4.7266 0
M  V30 5260 H 479.531 1.54324 6.59176 0
M  V30 5261 H 484.173 -0.139609 4.22569 0
M  V30 5262 H 481.891 2.77835 7.58837 0
M  V30 5263 H 485.477 1.41105 5.6443 0
M  V30 5264 H 484.357 2.85022 7.3057 0
M  V30 5265 N 481.861 -1.55662 -0.24637 0
M  V30 5266 C 483.108 -1.77519 -0.974335 0
M  V30 5267 C 483.436 -0.591165 -1.85298 0
M  V30 5268 O 482.691 0.425497 -1.91018 0
M  V30 5269 C 482.99 -3.04885 -1.86494 0
M  V30 5270 C 482.656 -4.36209 -1.14161 0
M  V30 5271 C 481.318 -4.71896 -0.941701 0
M  V30 5272 C 483.67 -5.17391 -0.628957 0
M  V30 5273 C 480.998 -5.86299 -0.216852 0
M  V30 5274 C 483.35 -6.32546 0.0824273 0
M  V30 5275 C 482.014 -6.66853 0.293807 0
M  V30 5276 H 481.284 -0.649588 -0.356535 0
M  V30 5277 H 483.931 -1.89934 -0.244394 0
M  V30 5278 H 482.236 -2.87484 -2.66196 0
M  V30 5279 H 483.933 -3.18994 -2.42989 0
M  V30 5280 H 480.523 -4.08174 -1.30736 0
M  V30 5281 H 484.707 -4.90276 -0.770943 0
M  V30 5282 H 479.963 -6.11385 -0.0426124 0
M  V30 5283 H 484.137 -6.94693 0.487292 0
M  V30 5284 H 481.764 -7.55349 0.857428 0
M  V30 5285 N 483.339 0.512053 -1.4905 0
M  V30 5286 C 484.567 1.29116 -1.61669 0
M  V30 5287 C 484.982 1.86655 -0.283787 0
M  V30 5288 O 484.339 1.67293 0.729331 0
M  V30 5289 C 484.39 2.4293 -2.67707 0
M  V30 5290 O 484.111 1.87758 -3.95826 0
M  V30 5291 C 485.612 3.34476 -2.90931 0
M  V30 5292 H 482.832 0.392009 -0.544583 0
M  V30 5293 H 485.376 0.615881 -1.95006 0
M  V30 5294 H 483.531 3.06308 -2.37179 0
M  V30 5295 H 483.945 2.62393 -4.54148 0
M  V30 5296 H 485.419 4.10642 -3.68886 0
M  V30 5297 H 485.896 3.90801 -2.00427 0
M  V30 5298 H 486.502 2.76874 -3.22832 0
M  V30 5299 N 484.817 1.37938 0.762283 0
M  V30 5300 C 486.063 1.33866 1.52341 0
M  V30 5301 C 486.396 -0.0738961 1.94059 0
M  V30 5302 O 485.671 -1.03326 1.64785 0
M  V30 5303 C 485.954 2.28644 2.78197 0
M  V30 5304 C 485.807 3.78722 2.42672 0
M  V30 5305 C 487.126 2.21702 3.80179 0
M  V30 5306 H 484.245 0.487593 0.55265 0
M  V30 5307 H 486.887 1.68717 0.873767 0
M  V30 5308 H 485.037 1.99055 3.33631 0
M  V30 5309 H 486.709 4.18948 1.93081 0
M  V30 5310 H 484.952 3.96827 1.75244 0
M  V30 5311 H 485.623 4.40486 3.3268 0
M  V30 5312 H 488.099 2.47805 3.34263 0
M  V30 5313 H 486.975 2.90143 4.65949 0
M  V30 5314 H 487.236 1.21301 4.25133 0
M  V30 5315 N 486.295 -0.989507 1.22664 0
M  V30 5316 C 487.205 -2.11449 1.01619 0
M  V30 5317 C 488.221 -1.73962 -0.036545 0
M  V30 5318 O 489.397 -2.00788 0.156924 0
M  V30 5319 C 486.462 -3.41465 0.600204 0
M  V30 5320 C 485.523 -3.93033 1.72695 0
M  V30 5321 C 484.756 -5.16844 1.33071 0
M  V30 5322 O 484.979 -5.7001 0.210975 0
M  V30 5323 O 483.913 -5.6225 2.14845 0
M  V30 5324 H 487.739 -2.32088 1.9588 0
M  V30 5325 H 485.324 -1.09823 1.01289 0
M  V30 5326 H 487.206 -4.19695 0.37873 0
M  V30 5327 H 485.881 -3.22178 -0.313511 0
M  V30 5328 H 484.788 -3.15961 2.00298 0
M  V30 5329 H 486.121 -4.16758 2.61865 0
M  V30 5330 N 487.773 -1.03688 -1.18687 0
M  V30 5331 C 489.02 -0.73803 -1.88572 0
M  V30 5332 C 489.348 0.733973 -1.8012 0
M  V30 5333 O 488.603 1.55098 -1.19344 0
M  V30 5334 C 488.902 -1.14477 -3.3857 0
M  V30 5335 C 488.568 -2.61641 -3.67226 0
M  V30 5336 C 487.23 -3.01846 -3.74757 0
M  V30 5337 C 489.582 -3.56812 -3.79914 0
M  V30 5338 C 486.91 -4.36118 -3.92451 0
M  V30 5339 C 489.262 -4.90799 -3.99123 0
M  V30 5340 C 487.926 -5.3068 -4.04888 0
M  V30 5341 H 487.196 -0.270064 -0.690034 0
M  V30 5342 H 489.843 -1.3012 -1.40503 0
M  V30 5343 H 488.148 -0.500337 -3.88592 0
M  V30 5344 H 489.845 -0.89095 -3.90977 0
M  V30 5345 H 486.435 -2.29498 -3.61979 0
M  V30 5346 H 490.619 -3.26899 -3.73431 0
M  V30 5347 H 485.875 -4.66542 -3.95157 0
M  V30 5348 H 490.049 -5.64451 -4.07882 0
M  V30 5349 H 487.676 -6.34733 -4.18351 0
M  V30 5350 N 489.251 1.34841 -0.815825 0
M  V30 5351 C 490.499 1.98107 -0.399744 0
M  V30 5352 C 490.82 1.65019 1.03894 0
M  V30 5353 O 490.09 0.937311 1.72021 0
M  V30 5354 H 488.67 0.732827 -0.144823 0
M  V30 5355 H 491.332 1.64599 -1.0437 0
M  V30 5356 H 490.428 3.07856 -0.512965 0
M  V30 5357 N 490.729 0.570148 1.46925 0
M  V30 5358 C 491.659 -0.158274 2.32963 0
M  V30 5359 C 492.64 -0.896093 1.44583 0
M  V30 5360 O 493.825 -0.874022 1.7342 0
M  V30 5361 C 490.955 -1.18055 3.26619 0
M  V30 5362 C 489.909 -0.558379 4.24342 0
M  V30 5363 C 489.235 -1.68623 5.07415 0
M  V30 5364 C 490.535 0.496295 5.19937 0
M  V30 5365 H 492.229 0.560046 2.94115 0
M  V30 5366 H 489.775 0.270775 1.41431 0
M  V30 5367 H 491.728 -1.69841 3.85658 0
M  V30 5368 H 490.452 -1.92899 2.63548 0
M  V30 5369 H 489.111 -0.0617157 3.66548 0
M  V30 5370 H 488.759 -2.42402 4.40738 0
M  V30 5371 H 488.459 -1.27564 5.73586 0
M  V30 5372 H 489.983 -2.20709 5.69315 0
M  V30 5373 H 491.397 0.0640052 5.73264 0
M  V30 5374 H 489.794 0.82649 5.94381 0
M  V30 5375 H 490.864 1.38735 4.6463 0
M  V30 5376 N 492.207 -1.54576 0.307264 0
M  V30 5377 C 493.447 -2.02172 -0.300962 0
M  V30 5378 C 493.811 -1.19081 -1.50611 0
M  V30 5379 O 495.012 -1.56405 -2.18612 0
M  V30 5380 C 493.283 -3.51576 -0.642591 0
M  V30 5381 S 494.842 -4.21127 -1.23279 0
M  V30 5382 H 491.66 -0.705021 -0.0920141 0
M  V30 5383 H 494.262 -1.90563 0.436594 0
M  V30 5384 H 492.966 -4.09681 0.242901 0
M  V30 5385 H 492.497 -3.67234 -1.41077 0
M  V30 5386 H 494.512 -4.27426 -2.52034 0
M  V30 5387 N 493.685 -0.035106 -1.57561 0
M  V30 5388 C 494.632 0.94474 -2.10578 0
M  V30 5389 C 495.602 1.3192 -1.00927 0
M  V30 5390 O 496.787 1.41147 -1.28382 0
M  V30 5391 C 493.927 2.21982 -2.64231 0
M  V30 5392 C 493.04 1.90128 -3.87911 0
M  V30 5393 C 492.175 3.11975 -4.29936 0
M  V30 5394 C 491.214 2.75968 -5.46359 0
M  V30 5395 N 490.351 3.90459 -5.83512 0
M  V30 5396 H 495.191 0.485717 -2.94015 0
M  V30 5397 H 492.728 0.228143 -1.4532 0
M  V30 5398 H 494.686 2.96572 -2.9343 0
M  V30 5399 H 493.316 2.6549 -1.83616 0
M  V30 5400 H 492.368 1.05755 -3.65404 0
M  V30 5401 H 493.68 1.59613 -4.72573 0
M  V30 5402 H 492.834 3.9488 -4.60603 0
M  V30 5403 H 491.573 3.45657 -3.44053 0
M  V30 5404 H 490.578 1.91478 -5.1538 0
M  V30 5405 H 491.803 2.43497 -6.33945 0
M  V30 5406 H 489.749 4.23971 -5.00584 0
M  V30 5407 H 489.666 3.63588 -6.62827 0
M  V30 5408 H 490.934 4.7405 -6.18787 0
M  V30 5409 N 495.163 1.55791 0.238111 0
M  V30 5410 C 496.095 1.87513 1.31802 0
M  V30 5411 C 497.108 0.762053 1.43863 0
M  V30 5412 O 498.297 1.04024 1.45056 0
M  V30 5413 C 495.397 2.05402 2.69561 0
M  V30 5414 C 494.57 3.3632 2.79656 0
M  V30 5415 C 493.629 3.43844 3.98319 0
M  V30 5416 O 492.655 4.16994 3.87433 0
M  V30 5417 N 493.857 2.73777 5.11885 0
M  V30 5418 H 496.622 2.80734 1.04922 0
M  V30 5419 H 494.183 1.56135 0.428196 0
M  V30 5420 H 496.175 2.07769 3.47296 0
M  V30 5421 H 494.745 1.18884 2.89111 0
M  V30 5422 H 493.965 3.46195 1.88528 0
M  V30 5423 H 495.253 4.22594 2.83358 0
M  V30 5424 H 494.651 2.14094 5.23622 0
M  V30 5425 H 493.208 2.81825 5.87723 0
M  V30 5426 N 496.642 -0.504142 1.49319 0
M  V30 5427 C 497.89 -1.25598 1.58334 0
M  V30 5428 C 498.211 -1.93114 0.270538 0
M  V30 5429 O 497.481 -1.82585 -0.709891 0
M  V30 5430 H 496.061 -0.466571 0.58337 0
M  V30 5431 H 498.723 -0.584547 1.85928 0
M  V30 5432 H 497.819 -2.02159 2.37778 0
M  V30 5433 N 498.12 -1.38341 -0.754957 0
M  V30 5434 C 499.397 -1.24995 -1.50451 0
M  V30 5435 C 499.777 0.149244 -2.10572 0
M  V30 5436 O 499.125 1.15861 -1.96948 0
M  V30 5437 C 499.335 -2.35904 -2.57197 0
M  V30 5438 C 500.683 -2.74262 -3.24138 0
M  V30 5439 O 501.707 -2.35205 -2.67501 0
M  V30 5440 O 500.566 -3.4161 -4.26574 0
M  V30 5441 H 497.66 -0.48872 -0.667144 0
M  V30 5442 H 500.206 -1.50165 -0.790486 0
M  V30 5443 H 498.978 -3.2953 -2.11011 0
M  V30 5444 H 498.601 -2.12291 -3.36182 0
M  V30 5445 N 499.598 0.982988 -1.23187 0
M  V30 5446 C 500.823 1.76455 -1.08988 0
M  V30 5447 C 501.248 1.84726 0.354691 0
M  V30 5448 O 500.606 1.30699 1.25649 0
M  V30 5449 C 500.654 3.17094 -1.71708 0
M  V30 5450 O 499.758 4.00648 -0.977477 0
M  V30 5451 H 499.099 0.542988 -0.382177 0
M  V30 5452 H 501.629 1.23413 -1.63188 0
M  V30 5453 H 501.639 3.67684 -1.76841 0
M  V30 5454 H 500.314 3.10389 -2.76823 0
M  V30 5455 H 498.891 3.59161 -1.0029 0
M  V30 5456 N 501.076 1.04316 1.18135 0
M  V30 5457 C 502.325 0.74319 1.87509 0
M  V30 5458 C 502.638 -0.732136 1.81381 0
M  V30 5459 O 503.844 -1.14572 2.46141 0
M  V30 5460 C 502.3 1.27913 3.36402 0
M  V30 5461 C 501.908 2.78326 3.51053 0
M  V30 5462 C 503.652 1.0558 4.11161 0
M  V30 5463 C 501.559 3.25266 4.93919 0
M  V30 5464 H 500.489 0.274313 0.702331 0
M  V30 5465 H 503.14 1.25931 1.33467 0
M  V30 5466 H 501.522 0.690853 3.89927 0
M  V30 5467 H 502.696 3.42933 3.07788 0
M  V30 5468 H 501.011 2.991 2.89704 0
M  V30 5469 H 503.608 1.38161 5.16542 0
M  V30 5470 H 503.951 -0.00684729 4.16299 0
M  V30 5471 H 504.484 1.60882 3.63816 0
M  V30 5472 H 501.223 4.30922 4.9395 0
M  V30 5473 H 500.743 2.65396 5.3789 0
M  V30 5474 H 502.422 3.19433 5.62647 0
M  V30 5475 N 502.554 -1.34406 0.822964 0
M  V30 5476 C 503.501 -2.29519 0.24284 0
M  V30 5477 C 504.471 -1.5359 -0.632397 0
M  V30 5478 O 505.656 -1.8196 -0.57403 0
M  V30 5479 C 502.796 -3.40032 -0.58925 0
M  V30 5480 C 501.909 -4.30899 0.308236 0
M  V30 5481 C 501.044 -5.28515 -0.533425 0
M  V30 5482 C 500.083 -6.1102 0.363444 0
M  V30 5483 N 499.22 -7.00725 -0.439147 0
M  V30 5484 H 504.06 -2.78537 1.05929 0
M  V30 5485 H 501.597 -1.3707 0.533872 0
M  V30 5486 H 503.555 -4.0279 -1.087 0
M  V30 5487 H 502.185 -2.92248 -1.37081 0
M  V30 5488 H 501.237 -3.69002 0.924203 0
M  V30 5489 H 502.549 -4.88717 0.997862 0
M  V30 5490 H 501.703 -5.96725 -1.09565 0
M  V30 5491 H 500.442 -4.71235 -1.25656 0
M  V30 5492 H 499.447 -5.41743 0.937812 0
M  V30 5493 H 500.672 -6.70381 1.08469 0
M  V30 5494 H 498.618 -6.45913 -1.14595 0
M  V30 5495 H 498.535 -7.55756 0.19209 0
M  V30 5496 H 499.803 -7.73263 -0.984124 0
M  V30 5497 N 504.032 -0.577932 -1.46621 0
M  V30 5498 C 504.995 0.147805 -2.28723 0
M  V30 5499 C 505.995 0.823325 -1.38123 0
M  V30 5500 O 507.185 0.676011 -1.60548 0
M  V30 5501 C 504.317 1.21853 -3.18378 0
M  V30 5502 H 505.51 -0.573654 -2.94362 0
M  V30 5503 H 503.063 -0.335703 -1.52652 0
M  V30 5504 H 503.798 1.97173 -2.57475 0
M  V30 5505 H 503.583 0.738714 -3.85078 0
M  V30 5506 H 505.073 1.72768 -3.80186 0
M  V30 5507 N 505.51 1.54411 -0.315457 0
M  V30 5508 C 506.74 2.04536 0.291315 0
M  V30 5509 C 507.148 1.19162 1.4696 0
M  V30 5510 O 506.491 0.213199 1.82459 0
M  V30 5511 C 506.553 3.5056 0.796725 0
M  V30 5512 C 506.217 4.5627 -0.258178 0
M  V30 5513 C 507.214 5.08312 -1.09153 0
M  V30 5514 C 504.899 5.00672 -0.404036 0
M  V30 5515 C 506.893 6.03312 -2.05655 0
M  V30 5516 C 504.58 5.95488 -1.37248 0
M  V30 5517 C 505.578 6.46693 -2.19721 0
M  V30 5518 O 505.266 7.39648 -3.14921 0
M  V30 5519 H 504.998 0.672856 0.0651165 0
M  V30 5520 H 507.552 2.00244 -0.457308 0
M  V30 5521 H 505.782 3.52223 1.59612 0
M  V30 5522 H 507.471 3.83804 1.32096 0
M  V30 5523 H 508.237 4.74793 -0.98979 0
M  V30 5524 H 504.116 4.60436 0.22799 0
M  V30 5525 H 507.66 6.43203 -2.70067 0
M  V30 5526 H 503.557 6.28424 -1.47489 0
M  V30 5527 H 504.325 7.57496 -3.10067 0
M  V30 5528 N 506.988 0.0434614 1.5754 0
M  V30 5529 C 508.236 -0.630786 1.92004 0
M  V30 5530 C 508.557 -1.71836 0.921807 0
M  V30 5531 O 507.827 -1.9587 -0.034522 0
M  V30 5532 H 506.407 -0.235988 0.708745 0
M  V30 5533 H 509.069 0.0946462 1.9467 0
M  V30 5534 H 508.165 -1.07434 2.93026 0
M  V30 5535 N 508.466 -1.55915 -0.229846 0
M  V30 5536 C 509.429 -1.90914 -1.26824 0
M  V30 5537 C 510.429 -0.786999 -1.40225 0
M  V30 5538 O 511.619 -1.05484 -1.38632 0
M  V30 5539 C 508.751 -2.15264 -2.64337 0
M  V30 5540 H 509.944 -2.8378 -0.969998 0
M  V30 5541 H 507.497 -1.49069 -0.4699 0
M  V30 5542 H 508.232 -1.24923 -2.99274 0
M  V30 5543 H 508.017 -2.97005 -2.55989 0
M  V30 5544 H 509.507 -2.43467 -3.39284 0
M  V30 5545 N 509.944 0.496216 -1.49584 0
M  V30 5546 C 511.192 1.24756 -1.58998 0
M  V30 5547 C 511.513 1.92968 -0.280775 0
M  V30 5548 O 510.783 1.82959 0.700198 0
M  V30 5549 H 509.363 0.463471 -0.585836 0
M  V30 5550 H 512.025 0.574678 -1.86235 0
M  V30 5551 H 511.121 2.00895 -2.38847 0
M  V30 5552 N 511.423 1.38739 0.74761 0
M  V30 5553 C 512.353 1.39173 1.87492 0
M  V30 5554 C 513.334 0.256794 1.6815 0
M  V30 5555 O 514.519 0.460762 1.88655 0
M  V30 5556 C 511.649 1.22197 3.25093 0
M  V30 5557 C 510.603 2.32957 3.59047 0
M  V30 5558 C 509.929 2.01082 4.95449 0
M  V30 5559 C 511.229 3.75237 3.6331 0
M  V30 5560 H 512.923 2.3351 1.87386 0
M  V30 5561 H 510.469 1.12399 0.900134 0
M  V30 5562 H 512.422 1.21124 4.03617 0
M  V30 5563 H 511.146 0.243241 3.25693 0
M  V30 5564 H 509.805 2.33226 2.82845 0
M  V30 5565 H 509.453 1.01678 4.92616 0
M  V30 5566 H 509.153 2.75267 5.19136 0
M  V30 5567 H 510.677 2.01638 5.76346 0
M  V30 5568 H 512.091 3.76966 4.31937 0
M  V30 5569 H 510.488 4.48677 3.98509 0
M  V30 5570 H 511.558 4.07122 2.634 0
M  V30 5571 N 512.901 -0.976442 1.23707 0
M  V30 5572 C 513.831 -2.08749 1.04624 0
M  V30 5573 C 514.812 -1.70057 -0.0380956 0
M  V30 5574 O 515.997 -1.93782 0.127308 0
M  V30 5575 C 513.127 -3.41335 0.640902 0
M  V30 5576 C 512.081 -3.93947 1.67302 0
M  V30 5577 C 511.407 -5.22774 1.12301 0
M  V30 5578 C 512.707 -4.22769 3.06697 0
M  V30 5579 H 514.401 -2.24972 1.97555 0
M  V30 5580 H 511.947 -1.08108 0.951247 0
M  V30 5581 H 513.9 -4.18489 0.494434 0
M  V30 5582 H 512.624 -3.24988 -0.324099 0
M  V30 5583 H 511.283 -3.18941 1.80755 0
M  V30 5584 H 510.931 -5.0278 0.148877 0
M  V30 5585 H 510.631 -5.58942 1.81267 0
M  V30 5586 H 512.155 -6.02546 0.988479 0
M  V30 5587 H 513.569 -4.90659 2.96524 0
M  V30 5588 H 511.966 -4.70147 3.72937 0
M  V30 5589 H 513.036 -3.29885 3.55392 0
M  V30 5590 N 514.379 -1.04941 -1.1758 0
M  V30 5591 C 515.604 -0.778253 -1.92245 0
M  V30 5592 C 516.029 0.659707 -1.76152 0
M  V30 5593 O 515.387 1.45803 -1.07755 0
M  V30 5594 C 515.435 -1.16051 -3.41416 0
M  V30 5595 O 514.539 -0.291153 -4.11371 0
M  V30 5596 H 513.88 -0.285619 -0.599431 0
M  V30 5597 H 516.41 -1.40159 -1.49052 0
M  V30 5598 H 516.42 -1.12619 -3.92149 0
M  V30 5599 H 515.095 -2.208 -3.52449 0
M  V30 5600 H 513.672 -0.385851 -3.70898 0
M  V30 5601 N 515.857 1.33968 -0.830081 0
M  V30 5602 C 517.082 2.02813 -0.433796 0
M  V30 5603 C 517.507 1.62076 0.954614 0
M  V30 5604 O 516.865 0.808955 1.62252 0
M  V30 5605 C 516.913 3.56348 -0.552115 0
M  V30 5606 O 516.017 4.10202 0.425191 0
M  V30 5607 H 515.358 0.639817 -0.177567 0
M  V30 5608 H 517.888 1.7106 -1.12248 0
M  V30 5609 H 517.898 4.05722 -0.430513 0
M  V30 5610 H 516.573 3.85344 -1.56471 0
M  V30 5611 H 515.15 3.71979 0.261878 0
M  V30 5612 N 517.335 0.585699 1.46312 0
M  V30 5613 C 518.582 0.0724211 2.0237 0
M  V30 5614 C 518.91 -1.28868 1.45683 0
M  V30 5615 O 518.165 -1.85853 0.612945 0
M  V30 5616 C 518.464 -0.0401312 3.57377 0
M  V30 5617 C 518.13 1.25376 4.33119 0
M  V30 5618 C 516.792 1.60824 4.5353 0
M  V30 5619 C 519.144 2.10987 4.76586 0
M  V30 5620 C 516.472 2.81676 5.14661 0
M  V30 5621 C 518.824 3.31068 5.39052 0
M  V30 5622 C 517.488 3.66794 5.5769 0
M  V30 5623 H 516.758 0.0265007 0.740526 0
M  V30 5624 H 519.405 0.762935 1.75646 0
M  V30 5625 H 517.71 -0.813791 3.83255 0
M  V30 5626 H 519.407 -0.453078 3.98432 0
M  V30 5627 H 515.997 0.967808 4.1753 0
M  V30 5628 H 520.181 1.84904 4.60569 0
M  V30 5629 H 515.437 3.0949 5.27282 0
M  V30 5630 H 519.611 3.97672 5.71691 0
M  V30 5631 H 517.238 4.60529 6.04828 0
M  V30 5632 N 518.813 -1.54241 0.323641 0
M  V30 5633 C 520.061 -2.00174 -0.278359 0
M  V30 5634 C 520.382 -1.2134 -1.52648 0
M  V30 5635 O 519.652 -0.315244 -1.93347 0
M  V30 5636 H 518.232 -0.739463 -0.105845 0
M  V30 5637 H 520.894 -1.89864 0.440204 0
M  V30 5638 H 519.99 -3.07486 -0.5347 0
M  V30 5639 N 520.291 -0.0518155 -1.57515 0
M  V30 5640 C 521.201 0.937539 -2.15052 0
M  V30 5641 C 522.217 1.34121 -1.10849 0
M  V30 5642 O 523.393 1.418 -1.4302 0
M  V30 5643 C 520.458 2.19379 -2.68466 0
M  V30 5644 C 519.519 1.84841 -3.87469 0
M  V30 5645 C 518.752 3.04477 -4.38326 0
M  V30 5646 O 518.975 4.17868 -3.88256 0
M  V30 5647 O 517.909 2.85453 -5.29906 0
M  V30 5648 H 521.735 0.478201 -2.99912 0
M  V30 5649 H 519.32 0.17012 -1.48428 0
M  V30 5650 H 521.202 2.93084 -3.02787 0
M  V30 5651 H 519.877 2.64449 -1.86677 0
M  V30 5652 H 518.784 1.08449 -3.58036 0
M  V30 5653 H 520.117 1.44569 -4.7049 0
M  V30 5654 N 521.769 1.56035 0.221574 0
M  V30 5655 C 522.699 1.95434 1.2778 0
M  V30 5656 C 523.68 0.822564 1.48889 0
M  V30 5657 O 524.865 1.08486 1.61072 0
M  V30 5658 C 521.995 2.27102 2.62759 0
M  V30 5659 C 520.949 3.4277 2.56306 0
M  V30 5660 C 520.275 3.60043 3.95314 0
M  V30 5661 C 521.575 4.77742 2.11093 0
M  V30 5662 H 523.269 2.83912 0.950504 0
M  V30 5663 H 520.815 1.36596 0.455791 0
M  V30 5664 H 522.768 2.53256 3.36807 0
M  V30 5665 H 521.492 1.35478 2.97176 0
M  V30 5666 H 520.151 3.16664 1.84715 0
M  V30 5667 H 519.799 2.65794 4.27039 0
M  V30 5668 H 519.499 4.37841 3.91879 0
M  V30 5669 H 521.023 3.88545 4.71025 0
M  V30 5670 H 522.437 5.03102 2.74885 0
M  V30 5671 H 520.834 5.58823 2.18716 0
M  V30 5672 H 521.904 4.731 1.06321 0
M  V30 5673 N 523.247 -0.488276 1.49845 0
M  V30 5674 C 524.179 -1.60539 1.63584 0
M  V30 5675 C 525.192 -1.5434 0.517972 0
M  V30 5676 O 526.381 -1.60041 0.790516 0
M  V30 5677 C 523.481 -2.99374 1.58835 0
M  V30 5678 C 522.654 -3.30624 2.86368 0
M  V30 5679 C 521.713 -4.4893 2.74496 0
M  V30 5680 O 520.739 -4.50085 3.48443 0
M  V30 5681 N 521.941 -5.49591 1.86894 0
M  V30 5682 H 524.706 -1.49176 2.59936 0
M  V30 5683 H 522.267 -0.67639 1.47094 0
M  V30 5684 H 524.259 -3.76459 1.48529 0
M  V30 5685 H 522.829 -3.04595 0.702892 0
M  V30 5686 H 522.049 -2.42314 3.1093 0
M  V30 5687 H 523.337 -3.48305 3.70892 0
M  V30 5688 H 522.735 -5.51467 1.26097 0
M  V30 5689 H 521.292 -6.25728 1.82503 0
M  V30 5690 N 524.725 -1.39134 -0.740242 0
M  V30 5691 C 525.955 -1.39132 -1.52728 0
M  V30 5692 C 526.363 0.0173133 -1.89192 0
M  V30 5693 O 525.706 0.997715 -1.54244 0
M  V30 5694 C 525.768 -2.1952 -2.84695 0
M  V30 5695 C 525.432 -3.68203 -2.70695 0
M  V30 5696 C 526.429 -4.61401 -2.39593 0
M  V30 5697 C 524.114 -4.11724 -2.8773 0
M  V30 5698 C 526.108 -5.96102 -2.25701 0
M  V30 5699 C 523.795 -5.46503 -2.73456 0
M  V30 5700 C 524.793 -6.38506 -2.42486 0
M  V30 5701 O 524.481 -7.70803 -2.28295 0
M  V30 5702 H 524.213 -0.477263 -0.478744 0
M  V30 5703 H 526.767 -1.83504 -0.922799 0
M  V30 5704 H 524.997 -1.69888 -3.47383 0
M  V30 5705 H 526.686 -2.1176 -3.46284 0
M  V30 5706 H 527.452 -4.29079 -2.26088 0
M  V30 5707 H 523.331 -3.4045 -3.10829 0
M  V30 5708 H 526.875 -6.6788 -2.0145 0
M  V30 5709 H 522.772 -5.78417 -2.86538 0
M  V30 5710 H 523.54 -7.8147 -2.43405 0
M  V30 5711 N 526.204 0.969867 -1.24223 0
M  V30 5712 C 527.444 1.72754 -1.0925 0
M  V30 5713 C 527.808 1.88541 0.362787 0
M  V30 5714 O 529.009 2.61217 0.633969 0
M  V30 5715 C 527.28 3.08204 -1.80957 0
M  V30 5716 S 528.839 3.99418 -1.81688 0
M  V30 5717 H 525.657 0.593981 -0.390778 0
M  V30 5718 H 528.259 1.15792 -1.5752 0
M  V30 5719 H 526.963 2.94372 -2.85961 0
M  V30 5720 H 526.494 3.70232 -1.33012 0
M  V30 5721 H 528.509 4.8828 -0.883001 0
M  V30 5722 N 527.682 1.05563 1.17022 0
M  V30 5723 C 528.612 0.681026 2.23348 0
M  V30 5724 C 529.593 -0.322983 1.67005 0
M  V30 5725 O 530.778 -0.199746 1.9317 0
M  V30 5726 C 527.908 0.0589053 3.4725 0
M  V30 5727 C 526.862 0.988082 4.16438 0
M  V30 5728 C 526.188 0.229646 5.34207 0
M  V30 5729 C 527.488 2.31388 4.68249 0
M  V30 5730 H 529.182 1.56993 2.54938 0
M  V30 5731 H 526.728 0.756302 1.2254 0
M  V30 5732 H 528.681 -0.214982 4.20851 0
M  V30 5733 H 527.405 -0.864968 3.14938 0
M  V30 5734 H 526.064 1.24659 3.44754 0
M  V30 5735 H 525.712 -0.697111 4.98146 0
M  V30 5736 H 525.412 0.848815 5.81437 0
M  V30 5737 H 526.936 -0.0368694 6.10589 0
M  V30 5738 H 528.35 2.09964 5.33468 0
M  V30 5739 H 526.747 2.88736 5.26072 0
M  V30 5740 H 527.817 2.94982 3.84855 0
M  V30 5741 N 529.16 -1.33526 0.837174 0
M  V30 5742 C 530.385 -2.0258 0.444545 0
M  V30 5743 C 530.81 -1.6258 -0.946006 0
M  V30 5744 O 530.168 -0.817548 -1.6182 0
M  V30 5745 C 530.216 -3.5605 0.571006 0
M  V30 5746 O 529.32 -4.10422 -0.403431 0
M  V30 5747 H 528.661 -0.638866 0.180958 0
M  V30 5748 H 531.191 -1.70462 1.13154 0
M  V30 5749 H 531.201 -4.05488 0.452024 0
M  V30 5750 H 529.876 -3.84509 1.58512 0
M  V30 5751 H 528.453 -3.72113 -0.242147 0
M  V30 5752 N 530.638 -0.59345 -1.46 0
M  V30 5753 C 531.548 0.135817 -2.34207 0
M  V30 5754 C 532.564 0.875008 -1.50398 0
M  V30 5755 O 533.74 0.835778 -1.83239 0
M  V30 5756 C 530.805 1.12977 -3.27776 0
M  V30 5757 C 529.866 0.394081 -4.27487 0
M  V30 5758 C 529.099 1.34068 -5.16586 0
M  V30 5759 O 529.322 2.5778 -5.08828 0
M  V30 5760 O 528.256 0.845426 -5.95933 0
M  V30 5761 H 532.082 -0.588691 -2.9794 0
M  V30 5762 H 529.667 -0.353784 -1.45151 0
M  V30 5763 H 531.549 1.70261 -3.85473 0
M  V30 5764 H 530.224 1.83556 -2.66625 0
M  V30 5765 H 529.131 -0.220869 -3.73447 0
M  V30 5766 H 530.464 -0.270939 -4.91454 0
M  V30 5767 N 532.116 1.54067 -0.331816 0
M  V30 5768 C 533.063 2.24623 0.530372 0
M  V30 5769 C 534.033 1.24009 1.10503 0
M  V30 5770 O 535.218 1.52712 1.14384 0
M  V30 5771 C 532.358 3.01374 1.68129 0
M  V30 5772 C 531.471 4.16821 1.13507 0
M  V30 5773 C 530.606 4.81085 2.25234 0
M  V30 5774 C 529.645 5.88621 1.67903 0
M  V30 5775 N 528.782 6.46713 2.73326 0
M  V30 5776 H 533.622 2.97898 -0.0778607 0
M  V30 5777 H 531.159 1.47014 -0.0501965 0
M  V30 5778 H 533.117 3.44125 2.35868 0
M  V30 5779 H 531.747 2.30419 2.26069 0
M  V30 5780 H 530.799 3.78796 0.348979 0
M  V30 5781 H 532.111 4.94203 0.675633 0
M  V30 5782 H 531.265 5.26846 3.00862 0
M  V30 5783 H 530.004 4.03102 2.74518 0
M  V30 5784 H 529.009 5.42254 0.907773 0
M  V30 5785 H 530.234 6.68506 1.19487 0
M  V30 5786 H 528.18 5.71599 3.21886 0
M  V30 5787 H 528.097 7.19532 2.3197 0
M  V30 5788 H 529.365 6.97129 3.48758 0
M  V30 5789 N 533.594 0.0601682 1.57485 0
M  V30 5790 C 535.005 -0.474217 1.80577 0
M  V30 5791 C 535.356 -1.70365 0.973147 0
M  V30 5792 O 534.481 -2.15544 0.192306 0
M  V30 5793 C 535.076 -0.867102 3.27516 0
M  V30 5794 C 533.635 -1.34642 3.51495 0
M  V30 5795 C 532.782 -0.32594 2.75378 0
M  V30 5796 H 535.733 0.285973 1.56102 0
M  V30 5797 H 535.754 -1.72938 3.38929 0
M  V30 5798 H 535.266 0.0278927 3.8809 0
M  V30 5799 H 533.367 -2.2603 2.96212 0
M  V30 5800 H 533.48 -1.33237 4.60201 0
M  V30 5801 H 531.844 -0.800749 2.41785 0
M  V30 5802 H 532.627 0.561125 3.38683 0
M  V30 5803 N 535.072 -1.5615 -0.213296 0
M  V30 5804 C 536.019 -1.93086 -1.26437 0
M  V30 5805 C 536.989 -0.789086 -1.4616 0
M  V30 5806 O 538.174 -1.04569 -1.59593 0
M  V30 5807 C 535.314 -2.26003 -2.608 0
M  V30 5808 C 534.427 -3.53156 -2.48807 0
M  V30 5809 C 533.562 -3.7548 -3.7575 0
M  V30 5810 C 532.601 -4.96119 -3.58514 0
M  V30 5811 N 531.738 -5.14791 -4.77425 0
M  V30 5812 H 536.578 -2.82707 -0.942376 0
M  V30 5813 H 534.115 -1.39919 -0.454001 0
M  V30 5814 H 536.073 -2.431 -3.39055 0
M  V30 5815 H 534.703 -1.39546 -2.91079 0
M  V30 5816 H 533.755 -3.44207 -1.61944 0
M  V30 5817 H 535.067 -4.41565 -2.31996 0
M  V30 5818 H 534.221 -3.92718 -4.62447 0
M  V30 5819 H 532.96 -2.85368 -3.95495 0
M  V30 5820 H 531.965 -4.78823 -2.70201 0
M  V30 5821 H 533.19 -5.87724 -3.40231 0
M  V30 5822 H 531.136 -4.27623 -4.97468 0
M  V30 5823 H 531.053 -5.97347 -4.63371 0
M  V30 5824 H 532.321 -5.36471 -5.65525 0
M  V30 5825 N 536.55 0.480323 -1.50102 0
M  V30 5826 C 537.48 1.58769 -1.71215 0
M  V30 5827 C 538.461 1.60583 -0.560997 0
M  V30 5828 O 539.646 1.76996 -0.799127 0
M  V30 5829 C 536.776 2.97148 -1.79778 0
M  V30 5830 C 535.73 3.10201 -2.94888 0
M  V30 5831 C 535.056 4.50137 -2.88584 0
M  V30 5832 C 536.356 2.88283 -4.35534 0
M  V30 5833 H 538.05 1.41354 -2.6393 0
M  V30 5834 H 535.596 0.678591 -1.27008 0
M  V30 5835 H 537.549 3.74536 -1.93133 0
M  V30 5836 H 536.273 3.15699 -0.836772 0
M  V30 5837 H 534.932 2.35244 -2.81169 0
M  V30 5838 H 534.58 4.65593 -1.90349 0
M  V30 5839 H 534.28 4.59808 -3.65856 0
M  V30 5840 H 535.804 5.29558 -3.03976 0
M  V30 5841 H 537.218 3.55427 -4.49827 0
M  V30 5842 H 535.615 3.09408 -5.14186 0
M  V30 5843 H 536.685 1.84219 -4.48544 0
M  V30 5844 N 538.028 1.39524 0.732853 0
M  V30 5845 C 538.958 1.41153 1.86005 0
M  V30 5846 C 539.939 0.274614 1.67869 0
M  V30 5847 O 541.124 0.480745 1.88155 0
M  V30 5848 C 538.254 1.25638 3.23778 0
M  V30 5849 C 537.208 2.36752 3.56556 0
M  V30 5850 C 536.534 2.06326 4.93289 0
M  V30 5851 C 537.834 3.79069 3.5931 0
M  V30 5852 H 539.528 2.35484 1.84899 0
M  V30 5853 H 537.074 1.13348 0.888162 0
M  V30 5854 H 539.027 1.25398 4.0231 0
M  V30 5855 H 537.751 0.277772 3.25417 0
M  V30 5856 H 536.41 2.36213 2.80355 0
M  V30 5857 H 536.058 1.06897 4.9151 0
M  V30 5858 H 535.758 2.80757 5.16187 0
M  V30 5859 H 537.282 2.07739 5.74175 0
M  V30 5860 H 538.696 3.81526 4.27914 0
M  V30 5861 H 537.093 4.52878 3.93728 0
M  V30 5862 H 538.163 4.09893 2.59068 0
M  V30 5863 N 539.506 -0.963266 1.24736 0
M  V30 5864 C 540.917 -1.52145 1.08207 0
M  V30 5865 C 541.268 -1.93142 -0.345061 0
M  V30 5866 O 540.393 -1.77769 -1.23399 0
M  V30 5867 C 540.988 -2.76486 1.95808 0
M  V30 5868 C 539.547 -3.28646 1.8349 0
M  V30 5869 C 538.694 -2.01529 1.90476 0
M  V30 5870 H 541.645 -0.781083 1.38148 0
M  V30 5871 H 541.666 -3.49986 1.49297 0
M  V30 5872 H 541.178 -2.46617 2.99669 0
M  V30 5873 H 539.279 -3.63357 0.824787 0
M  V30 5874 H 539.392 -3.97246 2.67829 0
M  V30 5875 H 537.756 -2.16442 1.34258 0
M  V30 5876 H 538.539 -1.7402 2.95926 0
M  V30 5877 N 540.985 -1.06182 -1.16461 0
M  V30 5878 C 541.915 -0.692861 -2.22984 0
M  V30 5879 C 542.896 0.314122 -1.67174 0
M  V30 5880 O 544.081 0.189499 -1.93273 0
M  V30 5881 C 541.211 -0.07732 -3.47214 0
M  V30 5882 C 540.165 -1.01015 -4.15909 0
M  V30 5883 C 539.491 -0.257973 -5.34077 0
M  V30 5884 C 540.791 -2.33868 -4.67015 0
M  V30 5885 H 542.485 -1.58343 -2.54102 0
M  V30 5886 H 540.031 -0.76279 -1.22137 0
M  V30 5887 H 541.984 0.19266 -4.20959 0
M  V30 5888 H 540.708 0.848254 -3.15392 0
M  V30 5889 H 539.367 -1.26486 -3.44088 0
M  V30 5890 H 539.015 0.670684 -4.98509 0
M  V30 5891 H 538.715 -0.879638 -5.80979 0
M  V30 5892 H 540.239 0.00448788 -6.106 0
M  V30 5893 H 541.653 -2.1279 -5.32347 0
M  V30 5894 H 540.05 -2.91522 -5.24533 0
M  V30 5895 H 541.12 -2.97019 -3.83286 0
M  V30 5896 N 542.463 1.3308 -0.844243 0
M  V30 5897 C 543.373 2.32876 -0.283922 0
M  V30 5898 C 544.389 1.63589 0.592846 0
M  V30 5899 O 545.565 1.95205 0.495693 0
M  V30 5900 C 542.63 3.42667 0.527283 0
M  V30 5901 C 541.691 4.27664 -0.374394 0
M  V30 5902 C 540.924 5.32212 0.39819 0
M  V30 5903 O 541.147 5.46635 1.62932 0
M  V30 5904 O 540.081 6.01458 -0.2306 0
M  V30 5905 H 543.907 2.82671 -1.11045 0
M  V30 5906 H 541.492 1.36518 -0.606903 0
M  V30 5907 H 543.374 4.09652 0.988078 0
M  V30 5908 H 542.049 2.95079 1.33078 0
M  V30 5909 H 540.956 3.63526 -0.883144 0
M  V30 5910 H 542.289 4.78749 -1.1428 0
M  V30 5911 N 543.941 0.601185 1.45683 0
M  V30 5912 C 544.871 -0.108824 2.33246 0
M  V30 5913 C 545.852 -0.865223 1.46451 0
M  V30 5914 O 547.037 -0.83704 1.75235 0
M  V30 5915 C 544.167 -1.11101 3.2905 0
M  V30 5916 C 543.121 -0.468244 4.25431 0
M  V30 5917 C 542.447 -1.57822 5.10878 0
M  V30 5918 C 543.747 0.606469 5.18767 0
M  V30 5919 H 545.441 0.622306 2.92861 0
M  V30 5920 H 542.987 0.300714 1.40825 0
M  V30 5921 H 544.94 -1.61622 3.89174 0
M  V30 5922 H 543.664 -1.87265 2.67581 0
M  V30 5923 H 542.323 0.0160484 3.66596 0
M  V30 5924 H 541.971 -2.32998 4.45781 0
M  V30 5925 H 541.671 -1.15369 5.76163 0
M  V30 5926 H 543.195 -2.08583 5.73869 0
M  V30 5927 H 544.609 0.185589 5.73 0
M  V30 5928 H 543.006 0.952381 5.92494 0
M  V30 5929 H 544.076 1.48559 4.61582 0
M  V30 5930 N 545.419 -1.53889 0.339982 0
M  V30 5931 C 546.329 -2.28604 -0.526988 0
M  V30 5932 C 547.345 -1.33578 -1.11503 0
M  V30 5933 O 548.521 -1.66612 -1.13148 0
M  V30 5934 C 545.586 -3.04164 -1.66389 0
M  V30 5935 C 544.647 -4.14809 -1.10599 0
M  V30 5936 C 543.88 -4.86756 -2.18871 0
M  V30 5937 O 544.103 -4.58343 -3.39526 0
M  V30 5938 O 543.037 -5.73289 -1.83366 0
M  V30 5939 H 546.863 -3.03594 0.0802707 0
M  V30 5940 H 544.448 -1.4903 0.105141 0
M  V30 5941 H 546.33 -3.51427 -2.32544 0
M  V30 5942 H 545.005 -2.32035 -2.25703 0
M  V30 5943 H 543.912 -3.71857 -0.409067 0
M  V30 5944 H 545.245 -4.89029 -0.557771 0
M  V30 5945 N 546.897 -0.0685191 -1.57451 0
M  V30 5946 C 547.844 0.899861 -2.12535 0
M  V30 5947 C 548.814 1.29749 -1.03703 0
M  V30 5948 O 549.999 1.38392 -1.31348 0
M  V30 5949 C 547.139 2.16328 -2.6888 0
M  V30 5950 C 546.252 1.81857 -3.91857 0
M  V30 5951 C 545.387 3.02786 -4.36457 0
M  V30 5952 C 544.426 2.64317 -5.5209 0
M  V30 5953 N 543.563 3.77994 -5.91663 0
M  V30 5954 H 548.403 0.423243 -2.94979 0
M  V30 5955 H 545.94 0.197268 -1.45771 0
M  V30 5956 H 547.898 2.90281 -2.99655 0
M  V30 5957 H 546.528 2.61536 -1.89206 0
M  V30 5958 H 545.58 0.979808 -3.67565 0
M  V30 5959 H 546.892 1.49553 -4.75852 0
M  V30 5960 H 546.046 3.85021 -4.68875 0
M  V30 5961 H 544.785 3.38281 -3.51308 0
M  V30 5962 H 543.79 1.80503 -5.19325 0
M  V30 5963 H 545.015 2.29995 -6.38967 0
M  V30 5964 H 542.961 4.13258 -5.09464 0
M  V30 5965 H 542.878 3.49447 -6.7039 0
M  V30 5966 H 544.146 4.60818 -6.28703 0
M  V30 5967 N 548.375 1.56261 0.205012 0
M  V30 5968 C 549.603 1.84141 0.943386 0
M  V30 5969 C 550.018 0.649772 1.77266 0
M  V30 5970 O 549.375 -0.381612 1.78466 0
M  V30 5971 C 549.426 3.10719 1.84759 0
M  V30 5972 O 549.147 4.25286 1.05181 0
M  V30 5973 C 550.648 3.51706 2.69848 0
M  V30 5974 H 547.868 0.611734 0.275721 0
M  V30 5975 H 550.412 2.03364 0.215253 0
M  V30 5976 H 548.567 2.93422 2.52947 0
M  V30 5977 H 548.981 4.97301 1.66709 0
M  V30 5978 H 550.455 4.43266 3.28967 0
M  V30 5979 H 550.932 2.7423 3.43067 0
M  V30 5980 H 551.538 3.71499 2.07047 0
M  V30 5981 N 549.853 -0.472356 1.50355 0
M  V30 5982 C 550.816 -1.5529 1.68576 0
M  V30 5983 C 551.816 -1.50863 0.556511 0
M  V30 5984 O 553.006 -1.53505 0.823516 0
M  V30 5985 C 550.138 -2.94921 1.70981 0
M  V30 5986 H 551.331 -1.40451 2.64978 0
M  V30 5987 H 548.884 -0.698645 1.39816 0
M  V30 5988 H 549.619 -3.15204 0.762675 0
M  V30 5989 H 549.404 -2.99541 2.53017 0
M  V30 5990 H 550.894 -3.73372 1.87037 0
M  V30 5991 N 551.331 -1.39911 -0.725443 0
M  V30 5992 C 552.58 -1.36963 -1.48068 0
M  V30 5993 C 552.893 0.0284478 -1.95579 0
M  V30 5994 O 554.099 0.180535 -2.70899 0
M  V30 5995 C 552.555 -2.40664 -2.67598 0
M  V30 5996 C 552.163 -3.86234 -2.26997 0
M  V30 5997 C 553.907 -2.46807 -3.45379 0
M  V30 5998 C 551.814 -4.81554 -3.43307 0
M  V30 5999 H 550.744 -0.509223 -0.556065 0
M  V30 6000 H 553.395 -1.65602 -0.790454 0
M  V30 6001 H 551.777 -2.05109 -3.38742 0
M  V30 6002 H 552.951 -4.3088 -1.63337 0
M  V30 6003 H 551.266 -3.83475 -1.62284 0
M  V30 6004 H 553.863 -3.15213 -4.31909 0
M  V30 6005 H 554.206 -1.49552 -3.8851 0
M  V30 6006 H 554.739 -2.81303 -2.81271 0
M  V30 6007 H 551.478 -5.80106 -3.05217 0
M  V30 6008 H 550.998 -4.4158 -4.05915 0
M  V30 6009 H 552.677 -5.0091 -4.0951 0
M  V30 6010 N 552.809 0.956637 -1.25245 0
M  V30 6011 C 553.741 2.05628 -1.01242 0
M  V30 6012 C 554.754 1.62785 0.0219579 0
M  V30 6013 O 555.943 1.77184 -0.216365 0
M  V30 6014 C 553.043 3.35069 -0.508161 0
M  V30 6015 C 552.216 4.06761 -1.60823 0
M  V30 6016 C 551.275 5.14473 -1.1047 0
M  V30 6017 O 550.301 5.40033 -1.79868 0
M  V30 6018 N 551.503 5.80474 0.0550773 0
M  V30 6019 H 554.268 2.2679 -1.95925 0
M  V30 6020 H 551.829 1.12505 -1.16423 0
M  V30 6021 H 553.821 4.044 -0.155819 0
M  V30 6022 H 552.391 3.10694 0.344683 0
M  V30 6023 H 551.611 3.31555 -2.13224 0
M  V30 6024 H 552.899 4.51418 -2.34733 0
M  V30 6025 H 552.297 5.62125 0.635004 0
M  V30 6026 H 550.854 6.50868 0.348469 0
M  V30 6027 N 554.287 1.06798 1.15896 0
M  V30 6028 C 555.235 0.677525 2.22514 0
M  V30 6029 C 556.229 -0.308994 1.66558 0
M  V30 6030 O 557.435 -0.173308 1.79164 0
M  V30 6031 H 553.81 0.200994 0.724642 0
M  V30 6032 H 555.781 1.5865 2.52731 0
M  V30 6033 C 554.53 0.0854153 3.47595 0
M  V30 6034 H 553.853 0.835645 3.90969 0
M  V30 6035 H 555.293 -0.150199 4.23734 0
M  V30 6036 C 553.752 -1.1724 3.15843 0
M  V30 6037 O 554.282 -2.25965 3.32119 0
M  V30 6038 N 552.488 -1.07636 2.69931 0
M  V30 6039 H 552.035 -0.191559 2.56887 0
M  V30 6040 H 551.993 -1.91876 2.4906 0
M  V30 6041 N 555.766 -1.3263 0.851289 0
M  V30 6042 C 556.996 -2.01271 0.466222 0
M  V30 6043 C 557.404 -1.64156 -0.940714 0
M  V30 6044 O 556.747 -0.857109 -1.62479 0
M  V30 6045 C 556.809 -3.55695 0.521672 0
M  V30 6046 C 556.473 -4.16227 1.88691 0
M  V30 6047 C 557.47 -4.34699 2.85189 0
M  V30 6048 C 555.155 -4.52377 2.18313 0
M  V30 6049 C 557.149 -4.88484 4.09465 0
M  V30 6050 C 554.836 -5.05868 3.42843 0
M  V30 6051 C 555.834 -5.23869 4.38235 0
M  V30 6052 O 555.522 -5.76218 5.6056 0
M  V30 6053 H 555.254 -0.651034 0.18202 0
M  V30 6054 H 557.808 -1.7026 1.14894 0
M  V30 6055 H 556.038 -3.86086 -0.217888 0
M  V30 6056 H 557.727 -4.05613 0.152682 0
M  V30 6057 H 558.493 -4.07107 2.63607 0
M  V30 6058 H 554.372 -4.37652 1.44851 0
M  V30 6059 H 557.916 -5.02451 4.83931 0
M  V30 6060 H 553.813 -5.32891 3.64277 0
M  V30 6061 H 554.581 -5.94616 5.62471 0
M  V30 6062 N 557.244 -0.608902 -1.45362 0
M  V30 6063 C 558.472 -0.111013 -2.06602 0
M  V30 6064 C 558.887 1.20516 -1.45332 0
M  V30 6065 O 558.244 1.73437 -0.567978 0
M  V30 6066 C 558.295 0.033688 -3.61484 0
M  V30 6067 O 558.016 -1.23041 -4.20467 0
M  V30 6068 C 559.517 0.562882 -4.39712 0
M  V30 6069 H 556.737 -0.0694453 -0.667397 0
M  V30 6070 H 559.281 -0.837008 -1.86586 0
M  V30 6071 H 557.436 0.710016 -3.80838 0
M  V30 6072 H 557.85 -1.06094 -5.13658 0
M  V30 6073 H 559.324 0.613213 -5.48583 0
M  V30 6074 H 559.801 1.58543 -4.09586 0
M  V30 6075 H 560.407 -0.0794454 -4.25226 0
M  V30 6076 N 558.722 1.53707 -0.348139 0
M  V30 6077 C 559.968 2.01286 0.247332 0
M  V30 6078 C 560.301 1.23546 1.49834 0
M  V30 6079 O 559.576 0.324331 1.91777 0
M  V30 6080 C 559.859 3.55768 0.556858 0
M  V30 6081 C 559.712 4.44216 -0.706564 0
M  V30 6082 C 561.031 4.1841 1.3646 0
M  V30 6083 H 558.15 0.731677 0.0884201 0
M  V30 6084 H 560.792 1.84106 -0.469584 0
M  V30 6085 H 558.942 3.70539 1.16761 0
M  V30 6086 H 560.614 4.41274 -1.34444 0
M  V30 6087 H 558.857 4.12892 -1.33052 0
M  V30 6088 H 559.528 5.50202 -0.445186 0
M  V30 6089 H 562.004 4.07365 0.848113 0
M  V30 6090 H 560.88 5.26563 1.54992 0
M  V30 6091 H 561.141 3.7333 2.36805 0
M  V30 6092 N 560.2 0.0768682 1.57412 0
M  V30 6093 C 561.428 -0.59997 1.9801 0
M  V30 6094 C 561.843 -1.62842 0.955408 0
M  V30 6095 O 561.2 -1.8241 -0.057314 0
M  V30 6096 C 561.251 -1.26401 3.38681 0
M  V30 6097 O 560.972 -0.276723 4.37225 0
M  V30 6098 C 562.473 -2.0282 3.94182 0
M  V30 6099 H 559.693 -0.162239 0.651091 0
M  V30 6100 H 562.237 0.150771 2.03943 0
M  V30 6101 H 560.392 -1.96581 3.33819 0
M  V30 6102 H 560.806 -0.753744 5.19056 0
M  V30 6103 H 562.28 -2.44667 4.94815 0
M  V30 6104 H 562.757 -2.88678 3.31001 0
M  V30 6105 H 563.363 -1.37496 4.02461 0
M  V30 6106 N 561.678 -1.56367 -0.196722 0
M  V30 6107 C 562.588 -1.97617 -1.2643 0
M  V30 6108 C 563.604 -0.883598 -1.49895 0
M  V30 6109 O 564.78 -1.18921 -1.62541 0
M  V30 6110 C 561.845 -2.30595 -2.58895 0
M  V30 6111 C 560.906 -3.53551 -2.43516 0
M  V30 6112 C 560.139 -3.84946 -3.69665 0
M  V30 6113 O 560.362 -3.17655 -4.73763 0
M  V30 6114 O 559.296 -4.78379 -3.65291 0
M  V30 6115 H 563.122 -2.88648 -0.944233 0
M  V30 6116 H 560.707 -1.43901 -0.401592 0
M  V30 6117 H 562.589 -2.52889 -3.37083 0
M  V30 6118 H 561.264 -1.42732 -2.90533 0
M  V30 6119 H 560.171 -3.36507 -1.63445 0
M  V30 6120 H 561.504 -4.41875 -2.16812 0
M  V30 6121 N 563.156 0.464375 -1.50603 0
M  V30 6122 C 564.403 1.21596 -1.61928 0
M  V30 6123 C 564.731 1.91804 -0.322737 0
M  V30 6124 O 563.986 1.83065 0.691776 0
M  V30 6125 C 564.285 2.278 -2.75394 0
M  V30 6126 C 563.951 1.74797 -4.1564 0
M  V30 6127 C 562.613 1.60063 -4.53799 0
M  V30 6128 C 564.965 1.35548 -5.03266 0
M  V30 6129 C 562.293 1.04514 -5.77316 0
M  V30 6130 C 564.645 0.814381 -6.27336 0
M  V30 6131 C 563.309 0.653726 -6.64291 0
M  V30 6132 H 562.579 0.444951 -0.592536 0
M  V30 6133 H 565.226 0.510964 -1.84557 0
M  V30 6134 H 563.531 3.04233 -2.46879 0
M  V30 6135 H 565.228 2.85723 -2.81359 0
M  V30 6136 H 561.818 1.87234 -3.8554 0
M  V30 6137 H 566.002 1.45763 -4.74412 0
M  V30 6138 H 561.258 0.908186 -6.04617 0
M  V30 6139 H 565.432 0.501626 -6.94591 0
M  V30 6140 H 563.059 0.22114 -7.59878 0
M  V30 6141 N 564.634 1.40294 0.718013 0
M  V30 6142 C 565.566 1.36281 1.84283 0
M  V30 6143 C 566.579 0.268621 1.60569 0
M  V30 6144 O 567.768 0.528798 1.70487 0
M  V30 6145 C 564.868 1.09741 3.2064 0
M  V30 6146 C 564.041 2.30767 3.71571 0
M  V30 6147 C 563.1 2.00424 4.86535 0
M  V30 6148 O 562.126 2.73268 4.99313 0
M  V30 6149 N 563.328 0.980724 5.72156 0
M  V30 6150 H 566.093 2.3322 1.88225 0
M  V30 6151 H 563.654 1.34616 0.899453 0
M  V30 6152 H 565.646 0.874322 3.95143 0
M  V30 6153 H 564.216 0.214771 3.11861 0
M  V30 6154 H 563.436 2.68921 2.88228 0
M  V30 6155 H 564.724 3.11455 4.02335 0
M  V30 6156 H 564.122 0.377375 5.6444 0
M  V30 6157 H 562.679 0.817538 6.46653 0
M  V30 6158 N 566.112 -0.949982 1.2575 0
M  V30 6159 C 567.523 -1.50989 1.09815 0
M  V30 6160 C 567.874 -1.93497 -0.324556 0
M  V30 6161 O 566.999 -1.79068 -1.21506 0
M  V30 6162 C 567.594 -2.74394 1.98729 0
M  V30 6163 C 566.153 -3.26682 1.86965 0
M  V30 6164 C 565.3 -1.99498 1.92603 0
M  V30 6165 H 568.251 -0.766387 1.38968 0
M  V30 6166 H 568.272 -3.48383 1.53001 0
M  V30 6167 H 567.784 -2.43425 3.02268 0
M  V30 6168 H 565.885 -3.62461 0.863279 0
M  V30 6169 H 565.998 -3.94383 2.72027 0
M  V30 6170 H 564.362 -2.15005 1.36546 0
M  V30 6171 H 565.145 -1.70871 2.97755 0
M  V30 6172 N 567.59 -1.07411 -1.15328 0
M  V30 6173 C 568.52 -0.716472 -2.22236 0
M  V30 6174 C 569.501 0.296373 -1.67498 0
M  V30 6175 O 570.686 0.168989 -1.93463 0
M  V30 6176 C 567.816 -0.114142 -3.47112 0
M  V30 6177 C 566.77 -1.05421 -4.14814 0
M  V30 6178 C 566.096 -0.314604 -5.33774 0
M  V30 6179 C 567.396 -2.38808 -4.64508 0
M  V30 6180 H 569.09 -1.61029 -2.52408 0
M  V30 6181 H 566.636 -0.775702 -1.21321 0
M  V30 6182 H 568.589 0.148001 -4.2114 0
M  V30 6183 H 567.313 0.814755 -3.16274 0
M  V30 6184 H 565.972 -1.30128 -3.42728 0
M  V30 6185 H 565.62 0.617772 -4.99192 0
M  V30 6186 H 565.32 -0.941209 -5.80013 0
M  V30 6187 H 566.844 -0.0602747 -6.1057 0
M  V30 6188 H 568.258 -2.18424 -5.3006 0
M  V30 6189 H 566.655 -2.97069 -5.21412 0
M  V30 6190 H 567.725 -3.01067 -3.80114 0
M  V30 6191 N 569.068 1.32177 -0.85831 0
M  V30 6192 C 570.298 2.01021 -0.476889 0
M  V30 6193 C 570.706 1.64653 0.931995 0
M  V30 6194 O 570.049 0.865713 1.62022 0
M  V30 6195 C 570.111 3.55413 -0.540528 0
M  V30 6196 C 569.775 4.1522 -1.90895 0
M  V30 6197 C 570.772 4.3318 -2.87491 0
M  V30 6198 C 568.457 4.51212 -2.20709 0
M  V30 6199 C 570.451 4.86306 -4.1205 0
M  V30 6200 C 568.138 5.04042 -3.45521 0
M  V30 6201 C 569.136 5.21538 -4.41007 0
M  V30 6202 O 568.824 5.73238 -5.63608 0
M  V30 6203 H 568.556 0.650059 -0.18547 0
M  V30 6204 H 571.11 1.69648 -1.15796 0
M  V30 6205 H 569.34 3.86196 0.19741 0
M  V30 6206 H 571.029 4.05526 -0.174191 0
M  V30 6207 H 571.795 4.05704 -2.65762 0
M  V30 6208 H 567.674 4.36878 -1.4717 0
M  V30 6209 H 571.218 4.99877 -4.86589 0
M  V30 6210 H 567.115 5.30952 -3.67098 0
M  V30 6211 H 567.883 5.91625 -5.65617 0
M  V30 6212 N 570.547 0.616602 1.45037 0
M  V30 6213 C 571.777 0.121791 2.06241 0
M  V30 6214 C 572.185 -1.20289 1.46038 0
M  V30 6215 O 571.528 -1.7456 0.572242 0
M  V30 6216 C 571.59 -0.0827345 3.59405 0
M  V30 6217 C 571.254 1.16153 4.41993 0
M  V30 6218 C 572.251 2.08183 4.76399 0
M  V30 6219 C 569.936 1.39288 4.82601 0
M  V30 6220 C 571.93 3.21668 5.5028 0
M  V30 6221 C 569.617 2.53073 5.56235 0
M  V30 6222 C 570.615 3.44091 5.89992 0
M  V30 6223 O 570.303 4.55894 6.6213 0
M  V30 6224 H 570.035 0.0701667 0.672349 0
M  V30 6225 H 572.589 0.846877 1.87129 0
M  V30 6226 H 570.819 -0.862812 3.76952 0
M  V30 6227 H 572.508 -0.530273 4.02421 0
M  V30 6228 H 573.274 1.91538 4.45576 0
M  V30 6229 H 569.153 0.693396 4.55755 0
M  V30 6230 H 572.697 3.92733 5.76547 0
M  V30 6231 H 568.594 2.69667 5.86472 0
M  V30 6232 H 569.362 4.5469 6.80587 0
M  V30 6233 N 572.025 -1.5352 0.356285 0
M  V30 6234 C 573.271 -2.01414 -0.236653 0
M  V30 6235 C 573.604 -1.24339 -1.49176 0
M  V30 6236 O 572.879 -0.334496 -1.91602 0
M  V30 6237 C 573.162 -3.56059 -0.537982 0
M  V30 6238 C 573.015 -4.43835 0.730112 0
M  V30 6239 C 574.334 -4.19127 -1.34239 0
M  V30 6240 H 571.453 -0.732135 -0.0845386 0
M  V30 6241 H 574.095 -1.83854 0.479341 0
M  V30 6242 H 572.245 -3.71153 -1.14795 0
M  V30 6243 H 573.917 -4.40555 1.36782 0
M  V30 6244 H 572.16 -4.1218 1.3524 0
M  V30 6245 H 572.831 -5.49958 0.474358 0
M  V30 6246 H 575.307 -4.07809 -0.826498 0
M  V30 6247 H 574.183 -5.27378 -1.52198 0
M  V30 6248 H 574.444 -3.74581 -2.34822 0
M  V30 6249 N 573.503 -0.0852151 -1.57369 0
M  V30 6250 C 574.466 0.8627 -2.12344 0
M  V30 6251 C 575.466 1.21746 -1.05046 0
M  V30 6252 O 576.656 1.14852 -1.30976 0
M  V30 6253 C 573.788 2.1618 -2.63589 0
M  V30 6254 H 574.981 0.385511 -2.97412 0
M  V30 6255 H 572.534 0.163663 -1.55441 0
M  V30 6256 H 573.269 2.68406 -1.82013 0
M  V30 6257 H 573.054 1.91723 -3.4203 0
M  V30 6258 H 574.544 2.84011 -3.06149 0
M  V30 6259 N 574.981 1.5647 0.188427 0
M  V30 6260 C 575.891 1.98285 1.2538 0
M  V30 6261 C 576.907 0.891535 1.49424 0
M  V30 6262 O 578.083 1.19782 1.61908 0
M  V30 6263 C 575.148 2.31965 2.57669 0
M  V30 6264 C 574.209 3.54838 2.41638 0
M  V30 6265 C 573.442 3.86901 3.67618 0
M  V30 6266 O 573.665 3.20163 4.72072 0
M  V30 6267 O 572.599 4.80309 3.62749 0
M  V30 6268 H 576.425 2.89145 0.928912 0
M  V30 6269 H 574.01 1.44112 0.393955 0
M  V30 6270 H 575.892 2.54673 3.35737 0
M  V30 6271 H 574.567 1.44271 2.89771 0
M  V30 6272 H 573.474 3.37369 1.61658 0
M  V30 6273 H 574.807 4.43019 2.14465 0
M  V30 6274 N 576.459 -0.456382 1.50847 0
M  V30 6275 C 577.684 -1.2349 1.66628 0
M  V30 6276 C 578.109 -1.84715 0.355254 0
M  V30 6277 O 577.467 -1.67961 -0.682559 0
M  V30 6278 C 577.515 -2.30865 2.77009 0
M  V30 6279 O 576.619 -3.35882 2.39285 0
M  V30 6280 H 575.96 -0.36266 0.556214 0
M  V30 6281 H 578.49 -0.541374 1.97308 0
M  V30 6282 H 578.5 -2.75949 3.00526 0
M  V30 6283 H 577.175 -1.85677 3.72152 0
M  V30 6284 H 575.752 -2.96406 2.26269 0
M  V30 6285 N 577.937 -1.40673 -0.710563 0
M  V30 6286 C 579.184 -1.39222 -1.47049 0
M  V30 6287 C 579.512 0.0037691 -1.945 0
M  V30 6288 O 578.767 0.989224 -1.68857 0
M  V30 6289 C 579.066 -2.33253 -2.70791 0
M  V30 6290 C 578.732 -3.80406 -2.42079 0
M  V30 6291 C 577.394 -4.20496 -2.33959 0
M  V30 6292 C 579.746 -4.73375 -2.18094 0
M  V30 6293 C 577.074 -5.51584 -1.99929 0
M  V30 6294 C 579.426 -6.04768 -1.85576 0
M  V30 6295 C 578.09 -6.43895 -1.75941 0
M  V30 6296 H 577.36 -0.509449 -0.538092 0
M  V30 6297 H 580.007 -1.73363 -0.81348 0
M  V30 6298 H 578.312 -1.92314 -3.41354 0
M  V30 6299 H 580.009 -2.29412 -3.28894 0
M  V30 6300 H 576.599 -3.48645 -2.49288 0
M  V30 6301 H 580.783 -4.43217 -2.23321 0
M  V30 6302 H 576.039 -5.80797 -1.91011 0
M  V30 6303 H 580.213 -6.76318 -1.66033 0
M  V30 6304 H 577.84 -7.45387 -1.4934 0
M  V30 6305 N 579.415 0.9433 -1.26252 0
M  V30 6306 C 580.363 2.06302 -1.07434 0
M  V30 6307 C 581.357 1.694 -0.00189471 0
M  V30 6308 O 582.563 1.79302 -0.158408 0
M  V30 6309 H 578.938 0.675453 -0.330556 0
M  V30 6310 H 580.909 2.19326 -2.02333 0
M  V30 6311 C 579.658 3.40125 -0.721817 0
M  V30 6312 H 578.981 3.68996 -1.5389 0
M  V30 6313 H 580.421 4.19295 -0.629922 0
M  V30 6314 C 578.88 3.31993 0.572902 0
M  V30 6315 O 579.41 3.67945 1.61182 0
M  V30 6316 N 577.616 2.85099 0.562748 0
M  V30 6317 H 577.163 2.5604 -0.283092 0
M  V30 6318 H 577.121 2.80041 1.42915 0
M  V30 6319 N 580.893 1.08022 1.14757 0
M  V30 6320 C 582.17 0.720386 1.81851 0
M  V30 6321 C 582.55 -0.796375 1.95502 0
M  V30 6322 O 581.898 -1.71339 1.51179 0
M  V30 6323 C 582.108 1.44273 3.17783 0
M  V30 6324 C 583.456 1.59925 3.93331 0
M  V30 6325 O 584.48 1.40407 3.2736 0
M  V30 6326 O 583.339 1.92096 5.11626 0
M  V30 6327 H 580.433 0.257142 0.786007 0
M  V30 6328 H 582.979 1.18155 1.21809 0
M  V30 6329 H 581.751 2.47618 3.02987 0
M  V30 6330 H 581.374 0.97279 3.85516 0
M  V30 6331 N 582.371 -1.3172 0.865308 0
M  V30 6332 C 583.334 -2.26918 0.322627 0
M  V30 6333 C 584.334 -1.52031 -0.523751 0
M  V30 6334 O 585.524 -1.70973 -0.333727 0
M  V30 6335 C 582.656 -3.36558 -0.542338 0
M  V30 6336 H 583.849 -2.76432 1.16298 0
M  V30 6337 H 581.402 -1.42573 0.640512 0
M  V30 6338 H 582.137 -2.92329 -1.40407 0
M  V30 6339 H 581.922 -3.92048 0.0636395 0
M  V30 6340 H 583.412 -4.07465 -0.91446 0
M  V30 6341 N 583.85 -0.624285 -1.44708 0
M  V30 6342 C 584.797 0.0847135 -2.30644 0
M  V30 6343 C 585.767 0.843575 -1.43084 0
M  V30 6344 O 586.952 0.825982 -1.71995 0
M  V30 6345 C 584.091 1.06495 -3.28257 0
M  V30 6346 C 583.205 0.305224 -4.3092 0
M  V30 6347 C 582.34 1.27667 -5.1563 0
M  V30 6348 C 581.379 0.505706 -6.10007 0
M  V30 6349 N 580.516 1.42727 -6.8744 0
M  V30 6350 H 585.356 -0.654068 -2.90733 0
M  V30 6351 H 582.893 -0.334334 -1.4325 0
M  V30 6352 H 584.851 1.64658 -3.83332 0
M  V30 6353 H 583.481 1.77094 -2.69884 0
M  V30 6354 H 582.533 -0.392207 -3.78373 0
M  V30 6355 H 583.845 -0.295553 -4.97924 0
M  V30 6356 H 582.999 1.92984 -5.75189 0
M  V30 6357 H 581.738 1.91137 -4.48685 0
M  V30 6358 H 580.743 -0.160999 -5.49564 0
M  V30 6359 H 581.968 -0.124183 -6.78986 0
M  V30 6360 H 579.913 2.04931 -6.23169 0
M  V30 6361 H 579.831 0.880345 -7.50857 0
M  V30 6362 H 581.099 2.0695 -7.51526 0
M  V30 6363 N 585.328 1.53329 -0.364422 0
M  V30 6364 C 586.238 2.29414 0.490552 0
M  V30 6365 C 587.254 1.35335 1.09363 0
M  V30 6366 O 588.43 1.68391 1.10483 0
M  V30 6367 C 585.495 3.06772 1.61529 0
M  V30 6368 C 584.556 4.16516 1.03986 0
M  V30 6369 C 583.789 4.90176 2.111 0
M  V30 6370 O 584.012 4.63687 3.32191 0
M  V30 6371 O 582.946 5.76134 1.74222 0
M  V30 6372 H 586.772 3.03428 -0.12856 0
M  V30 6373 H 584.357 1.48843 -0.128837 0
M  V30 6374 H 586.239 3.55082 2.26924 0
M  V30 6375 H 584.914 2.35596 2.21983 0
M  V30 6376 H 583.821 3.7246 0.349856 0
M  V30 6377 H 585.154 4.89855 0.4799 0
M  V30 6378 N 586.806 0.0935595 1.57322 0
M  V30 6379 C 587.753 -0.865935 2.1394 0
M  V30 6380 C 588.723 -1.28083 1.05754 0
M  V30 6381 O 589.908 -1.36285 1.33533 0
M  V30 6382 C 587.048 -2.12023 2.72287 0
M  V30 6383 C 586.161 -1.756 3.94701 0
M  V30 6384 C 585.296 -2.95804 4.41218 0
M  V30 6385 C 584.335 -2.555 5.56225 0
M  V30 6386 N 583.472 -3.68534 5.97601 0
M  V30 6387 H 588.312 -0.376261 2.95615 0
M  V30 6388 H 585.849 -0.174052 1.46067 0
M  V30 6389 H 587.807 -2.85477 3.04235 0
M  V30 6390 H 586.437 -2.58492 1.93343 0
M  V30 6391 H 585.489 -0.921208 3.69077 0
M  V30 6392 H 586.801 -1.41964 4.78171 0
M  V30 6393 H 585.955 -3.77513 4.74941 0
M  V30 6394 H 584.694 -3.32649 3.56645 0
M  V30 6395 H 583.699 -1.72218 5.22131 0
M  V30 6396 H 584.924 -2.19801 6.42545 0
M  V30 6397 H 582.87 -4.051 5.15974 0
M  V30 6398 H 582.787 -3.38737 6.75865 0
M  V30 6399 H 584.055 -4.50757 6.35955 0
M  V30 6400 N 588.284 -1.56567 -0.180126 0
M  V30 6401 C 589.53 -1.81761 -0.899497 0
M  V30 6402 C 589.863 -0.670015 -1.82276 0
M  V30 6403 O 589.138 0.328575 -1.91705 0
M  V30 6404 C 589.421 -3.17296 -1.7028 0
M  V30 6405 C 589.274 -4.4257 -0.803255 0
M  V30 6406 C 590.593 -3.49678 -2.67233 0
M  V30 6407 H 587.712 -0.661192 -0.325567 0
M  V30 6408 H 590.354 -1.89272 -0.16612 0
M  V30 6409 H 588.504 -3.11023 -2.32802 0
M  V30 6410 H 590.176 -4.60902 -0.191585 0
M  V30 6411 H 588.419 -4.33658 -0.110796 0
M  V30 6412 H 589.09 -5.33935 -1.40064 0
M  V30 6413 H 591.566 -3.56347 -2.14839 0
M  V30 6414 H 590.442 -4.45605 -3.20511 0
M  V30 6415 H 590.703 -2.73932 -3.47007 0
M  V30 6416 N 589.762 0.448376 -1.51087 0
M  V30 6417 C 591.178 0.783984 -1.39017 0
M  V30 6418 C 591.378 1.96087 -0.463904 0
M  V30 6419 O 590.434 2.52357 0.0850534 0
M  V30 6420 C 591.747 1.07471 -2.80839 0
M  V30 6421 C 593.295 1.17981 -2.89913 0
M  V30 6422 C 593.77 1.50354 -4.32617 0
M  V30 6423 N 595.261 1.57301 -4.35673 0
M  V30 6424 C 595.996 1.839 -5.4311 0
M  V30 6425 N 595.492 2.08365 -6.60724 0
M  V30 6426 N 597.285 1.8559 -5.30578 0
M  V30 6427 H 589.436 -0.326881 -2.0987 0
M  V30 6428 H 591.699 -0.0838006 -0.944289 0
M  V30 6429 H 591.405 0.282768 -3.50561 0
M  V30 6430 H 591.279 2.00519 -3.19487 0
M  V30 6431 H 593.666 1.9624 -2.20395 0
M  V30 6432 H 593.747 0.228603 -2.54776 0
M  V30 6433 H 593.391 0.726273 -5.0268 0
M  V30 6434 H 593.321 2.46663 -4.65258 0
M  V30 6435 H 595.812 1.40342 -3.50874 0
M  V30 6436 H 596.125 2.27999 -7.38401 0
M  V30 6437 H 594.47 2.0571 -6.63859 0
M  V30 6438 H 597.661 1.65989 -4.37682 0
M  V30 6439 H 597.834 2.05983 -6.1439 0
M  V30 6440 N 591.24 1.41047 0.703093 0
M  V30 6441 C 592.188 1.42494 1.83843 0
M  V30 6442 C 593.182 0.303885 1.66652 0
M  V30 6443 O 594.388 0.475544 1.73605 0
M  V30 6444 H 590.763 0.445685 0.605697 0
M  V30 6445 H 592.734 2.38194 1.79739 0
M  V30 6446 C 591.483 1.31666 3.21807 0
M  V30 6447 H 590.806 2.17212 3.35647 0
M  V30 6448 H 592.246 1.36738 4.01346 0
M  V30 6449 C 590.705 0.0281828 3.36888 0
M  V30 6450 O 591.235 -0.929995 3.90786 0
M  V30 6451 N 589.441 -0.0454322 2.90564 0
M  V30 6452 H 588.988 0.735046 2.4689 0
M  V30 6453 H 588.946 -0.906968 3.01034 0
M  V30 6454 N 592.718 -0.936591 1.26751 0
M  V30 6455 C 593.965 -1.68331 1.12566 0
M  V30 6456 C 594.293 -1.91677 -0.330168 0
M  V30 6457 O 593.548 -1.49859 -1.2586 0
M  V30 6458 C 593.847 -3.06099 1.84494 0
M  V30 6459 C 593.513 -3.02493 3.34378 0
M  V30 6460 C 592.175 -3.01217 3.75262 0
M  V30 6461 C 594.527 -2.94453 4.30055 0
M  V30 6462 C 591.855 -2.89672 5.10203 0
M  V30 6463 C 594.207 -2.84449 5.65041 0
M  V30 6464 C 592.871 -2.81518 6.0523 0
M  V30 6465 H 592.141 -0.615965 0.411907 0
M  V30 6466 H 594.788 -1.09292 1.5725 0
M  V30 6467 H 593.093 -3.6879 1.32292 0
M  V30 6468 H 594.79 -3.62733 1.70955 0
M  V30 6469 H 591.38 -3.04269 3.01858 0
M  V30 6470 H 595.564 -2.94544 3.99447 0
M  V30 6471 H 590.82 -2.85783 5.40498 0
M  V30 6472 H 594.994 -2.77192 6.38856 0
M  V30 6473 H 592.621 -2.72329 7.09747 0
M  V30 6474 N 594.196 -1.08629 -1.14182 0
M  V30 6475 C 595.159 -0.722027 -2.1753 0
M  V30 6476 C 596.159 0.244305 -1.58933 0
M  V30 6477 O 597.349 0.0235545 -1.74184 0
M  V30 6478 C 594.481 -0.0663966 -3.40835 0
M  V30 6479 H 595.674 -1.63719 -2.51269 0
M  V30 6480 H 593.227 -0.884442 -1.28869 0
M  V30 6481 H 593.962 0.860389 -3.12678 0
M  V30 6482 H 593.747 -0.761598 -3.84632 0
M  V30 6483 H 595.237 0.173346 -4.1724 0
M  V30 6484 N 595.674 1.31259 -0.872281 0
M  V30 6485 C 596.637 2.26744 -0.334656 0
M  V30 6486 C 597.637 1.52307 0.515681 0
M  V30 6487 O 598.827 1.71148 0.324656 0
M  V30 6488 C 595.959 3.36841 0.524482 0
M  V30 6489 H 597.152 2.75812 -1.17762 0
M  V30 6490 H 594.705 1.42232 -0.648064 0
M  V30 6491 H 595.44 2.93069 1.38855 0
M  V30 6492 H 595.225 3.92009 -0.0844299 0
M  V30 6493 H 596.715 4.07944 0.892838 0
M  V30 6494 N 597.152 0.631951 1.44375 0
M  V30 6495 C 598.38 0.143867 2.06399 0
M  V30 6496 C 598.795 -1.18188 1.47231 0
M  V30 6497 O 598.152 -1.72511 0.595498 0
M  V30 6498 C 598.203 0.0238253 3.61492 0
M  V30 6499 O 597.924 1.29715 4.18456 0
M  V30 6500 C 599.425 -0.492856 4.40552 0
M  V30 6501 H 596.645 0.0800542 0.666207 0
M  V30 6502 H 599.189 0.866586 1.85231 0
M  V30 6503 H 597.344 -0.649338 3.81919 0
M  V30 6504 H 597.758 1.14252 5.11905 0
M  V30 6505 H 599.232 -0.525861 5.49489 0
M  V30 6506 H 599.709 -1.52006 4.12057 0
M  V30 6507 H 600.315 0.147085 4.25046 0
M  V30 6508 N 598.631 -1.53133 0.372548 0
M  V30 6509 C 599.88 -2.00539 -0.216115 0
M  V30 6510 C 600.193 -1.26374 -1.49295 0
M  V30 6511 O 601.399 -1.64404 -2.16064 0
M  V30 6512 C 599.855 -3.57253 -0.435678 0
M  V30 6513 C 599.463 -4.40302 0.82693 0
M  V30 6514 C 601.207 -4.12995 -0.981618 0
M  V30 6515 C 599.114 -5.88583 0.576567 0
M  V30 6516 H 598.044 -0.749246 -0.084536 0
M  V30 6517 H 600.695 -1.76771 0.492364 0
M  V30 6518 H 599.077 -3.77202 -1.20559 0
M  V30 6519 H 600.251 -4.32124 1.60017 0
M  V30 6520 H 598.566 -3.95699 1.29659 0
M  V30 6521 H 601.163 -5.21418 -1.18436 0
M  V30 6522 H 601.506 -3.68027 -1.94581 0
M  V30 6523 H 602.039 -3.96871 -0.271696 0
M  V30 6524 H 598.778 -6.37841 1.51128 0
M  V30 6525 H 598.298 -5.99592 -0.158047 0
M  V30 6526 H 599.977 -6.46676 0.204722 0
M  V30 6527 N 600.109 -0.101901 -1.5727 0
M  V30 6528 C 601.52 0.426173 -1.81771 0
M  V30 6529 C 601.871 1.67725 -1.01797 0
M  V30 6530 O 600.996 2.14958 -0.249386 0
M  V30 6531 C 601.591 0.779962 -3.297 0
M  V30 6532 C 600.15 1.25275 -3.54941 0
M  V30 6533 C 599.297 0.252814 -2.76145 0
M  V30 6534 H 602.248 -0.32726 -1.55289 0
M  V30 6535 H 602.269 1.63891 -3.43395 0
M  V30 6536 H 601.781 -0.130778 -3.8788 0
M  V30 6537 H 599.882 2.18097 -3.021 0
M  V30 6538 H 599.995 1.20988 -4.63572 0
M  V30 6539 H 598.359 0.736362 -2.43823 0
M  V30 6540 H 599.142 -0.650724 -3.37076 0
M  V30 6541 N 601.587 1.56661 0.17182 0
M  V30 6542 C 603.003 1.50768 0.52357 0
M  V30 6543 C 603.203 0.806072 1.84675 0
M  V30 6544 O 602.259 0.366233 2.4983 0
M  V30 6545 C 603.572 2.955 0.556793 0
M  V30 6546 C 605.12 3.06303 0.644029 0
M  V30 6547 C 605.595 4.52492 0.708148 0
M  V30 6548 N 607.086 4.56737 0.771051 0
M  V30 6549 C 607.821 5.67196 0.841229 0
M  V30 6550 N 607.317 6.87287 0.872272 0
M  V30 6551 N 609.11 5.55165 0.88021 0
M  V30 6552 H 601.261 2.00679 -0.695817 0
M  V30 6553 H 603.524 0.914219 -0.250814 0
M  V30 6554 H 603.23 3.49986 -0.346774 0
M  V30 6555 H 603.104 3.50119 1.40346 0
M  V30 6556 H 605.491 2.51851 1.53802 0
M  V30 6557 H 605.572 2.5477 -0.229297 0
M  V30 6558 H 605.216 5.07575 -0.181585 0
M  V30 6559 H 605.146 5.01781 1.59761 0
M  V30 6560 H 607.637 3.70274 0.755364 0
M  V30 6561 H 607.95 7.6722 0.92698 0
M  V30 6562 H 606.295 6.89898 0.840557 0
M  V30 6563 H 609.486 4.60263 0.852956 0
M  V30 6564 H 609.659 6.41271 0.931439 0
M  V30 6565 N 603.065 -0.440357 1.51323 0
M  V30 6566 C 604.476 -1.02032 1.56353 0
M  V30 6567 C 604.827 -1.92382 0.385197 0
M  V30 6568 O 603.952 -2.10583 -0.498373 0
M  V30 6569 C 604.547 -1.85723 2.83359 0
M  V30 6570 C 603.106 -2.38774 2.90971 0
M  V30 6571 C 602.253 -1.17908 2.50984 0
M  V30 6572 H 605.204 -0.221744 1.57143 0
M  V30 6573 H 605.225 -2.71141 2.66951 0
M  V30 6574 H 604.737 -1.19939 3.69102 0
M  V30 6575 H 602.838 -3.08021 2.09651 0
M  V30 6576 H 602.951 -2.71778 3.94555 0
M  V30 6577 H 601.315 -1.52347 2.04114 0
M  V30 6578 H 602.098 -0.537393 3.39068 0
M  V30 6579 N 604.543 -1.41418 -0.695603 0
M  V30 6580 C 605.79 -1.40774 -1.45564 0
M  V30 6581 C 606.118 -0.0168604 -1.94493 0
M  V30 6582 O 605.373 0.971259 -1.69897 0
M  V30 6583 C 605.672 -2.36112 -2.68302 0
M  V30 6584 C 605.338 -3.82952 -2.38031 0
M  V30 6585 C 604 -4.22954 -2.29486 0
M  V30 6586 C 606.352 -4.75662 -2.13061 0
M  V30 6587 C 603.68 -5.53674 -1.94067 0
M  V30 6588 C 606.032 -6.06702 -1.79151 0
M  V30 6589 C 604.696 -6.45725 -1.69102 0
M  V30 6590 H 603.966 -0.515128 -0.532658 0
M  V30 6591 H 606.613 -1.74216 -0.795047 0
M  V30 6592 H 604.918 -1.95924 -3.39295 0
M  V30 6593 H 606.615 -2.32887 -3.26442 0
M  V30 6594 H 603.205 -3.5127 -2.45576 0
M  V30 6595 H 607.389 -4.45561 -2.18608 0
M  V30 6596 H 602.645 -5.8279 -1.8484 0
M  V30 6597 H 606.819 -6.78041 -1.5885 0
M  V30 6598 H 604.446 -7.46929 -1.41426 0
M  V30 6599 N 606.021 0.929856 -1.27246 0
M  V30 6600 C 607.246 1.71674 -1.16374 0
M  V30 6601 C 607.671 1.86064 0.276024 0
M  V30 6602 O 607.029 1.3591 1.19992 0
M  V30 6603 C 607.077 3.09526 -1.85003 0
M  V30 6604 O 606.181 3.96142 -1.14653 0
M  V30 6605 H 605.522 0.52629 -0.404863 0
M  V30 6606 H 608.052 1.16381 -1.68276 0
M  V30 6607 H 608.062 3.59852 -1.92276 0
M  V30 6608 H 606.737 2.98369 -2.89739 0
M  V30 6609 H 605.314 3.54584 -1.15433 0
M  V30 6610 N 607.499 1.09233 1.13605 0
M  V30 6611 C 608.745 0.828385 1.8511 0
M  V30 6612 C 609.078 -0.64437 1.83198 0
M  V30 6613 O 608.353 -1.47428 1.26867 0
M  V30 6614 C 608.636 1.36167 3.33363 0
M  V30 6615 C 608.489 2.90038 3.438 0
M  V30 6616 C 609.808 0.993819 4.28732 0
M  V30 6617 H 606.927 0.30239 0.672108 0
M  V30 6618 H 609.569 1.35339 1.33355 0
M  V30 6619 H 607.719 0.9151 3.77569 0
M  V30 6620 H 609.391 3.43128 3.08319 0
M  V30 6621 H 607.634 3.27271 2.84739 0
M  V30 6622 H 608.305 3.22428 4.48045 0
M  V30 6623 H 610.781 1.37893 3.92587 0
M  V30 6624 H 609.657 1.39403 5.30903 0
M  V30 6625 H 609.918 -0.0982206 4.41991 0
M  V30 6626 N 608.977 -1.30795 0.87923 0
M  V30 6627 C 610.393 -1.48981 0.57243 0
M  V30 6628 C 610.593 -1.80719 -0.891236 0
M  V30 6629 O 609.649 -1.89136 -1.67283 0
M  V30 6630 C 610.962 -2.61721 1.48063 0
M  V30 6631 C 612.51 -2.75603 1.48365 0
M  V30 6632 C 612.985 -3.91449 2.37763 0
M  V30 6633 N 614.476 -3.98751 2.35695 0
M  V30 6634 C 615.211 -4.87684 3.01583 0
M  V30 6635 N 614.707 -5.81454 3.76674 0
M  V30 6636 N 616.5 -4.81005 2.90844 0
M  V30 6637 H 608.651 -1.08465 1.82617 0
M  V30 6638 H 610.914 -0.536813 0.781368 0
M  V30 6639 H 610.62 -2.45073 2.52254 0
M  V30 6640 H 610.494 -3.58071 1.18596 0
M  V30 6641 H 612.881 -2.9166 0.44927 0
M  V30 6642 H 612.962 -1.79891 1.81859 0
M  V30 6643 H 612.606 -3.76149 3.41283 0
M  V30 6644 H 612.536 -4.86487 2.01589 0
M  V30 6645 H 615.027 -3.31668 1.81121 0
M  V30 6646 H 615.34 -6.46063 4.24054 0
M  V30 6647 H 613.685 -5.81403 3.80782 0
M  V30 6648 H 616.876 -4.06728 2.31711 0
M  V30 6649 H 617.049 -5.50107 3.42471 0
M  V30 6650 N 610.455 -0.639598 -1.44038 0
M  V30 6651 C 611.685 -0.154586 -2.06021 0
M  V30 6652 C 612.093 1.17951 -1.47933 0
M  V30 6653 O 611.436 1.73627 -0.59994 0
M  V30 6654 C 611.498 0.0255459 -3.59491 0
M  V30 6655 C 611.162 -1.2317 -4.40089 0
M  V30 6656 C 612.159 -2.15735 -4.73027 0
M  V30 6657 C 609.844 -1.46949 -4.80324 0
M  V30 6658 C 611.838 -3.30382 -5.45093 0
M  V30 6659 C 609.525 -2.61891 -5.52138 0
M  V30 6660 C 610.523 -3.53433 -5.84443 0
M  V30 6661 O 610.211 -4.6637 -6.54793 0
M  V30 6662 H 609.943 -0.0808543 -0.671147 0
M  V30 6663 H 612.497 -0.876541 -1.85758 0
M  V30 6664 H 610.727 0.802733 -3.78276 0
M  V30 6665 H 612.416 0.466184 -4.03214 0
M  V30 6666 H 613.182 -1.98602 -4.42473 0
M  V30 6667 H 609.061 -0.765815 -4.54595 0
M  V30 6668 H 612.605 -4.01856 -5.70226 0
M  V30 6669 H 608.502 -2.78964 -5.82108 0
M  V30 6670 H 609.27 -4.6546 -6.73267 0
M  V30 6671 N 611.933 1.52934 -0.380664 0
M  V30 6672 C 613.21 1.93845 0.261417 0
M  V30 6673 C 613.59 1.31544 1.65104 0
M  V30 6674 O 612.938 0.480234 2.23397 0
M  V30 6675 C 613.148 3.47739 0.296466 0
M  V30 6676 C 614.496 4.21284 0.529578 0
M  V30 6677 O 615.52 3.54199 0.377041 0
M  V30 6678 O 614.379 5.40195 0.827753 0
M  V30 6679 H 611.473 0.811318 0.160285 0
M  V30 6680 H 614.019 1.64042 -0.434544 0
M  V30 6681 H 612.791 3.85395 -0.67724 0
M  V30 6682 H 612.414 3.8382 1.0377 0
M  V30 6683 N 613.412 0.11024 1.57214 0
M  V30 6684 C 614.823 -0.416527 1.81994 0
M  V30 6685 C 615.174 -1.67183 1.02686 0
M  V30 6686 O 614.299 -2.14823 0.260782 0
M  V30 6687 C 614.894 -0.762466 3.30109 0
M  V30 6688 C 613.453 -1.23391 3.556 0
M  V30 6689 C 612.6 -0.238166 2.76275 0
M  V30 6690 H 615.551 0.335491 1.55113 0
M  V30 6691 H 615.572 -1.62068 3.44259 0
M  V30 6692 H 615.084 0.151346 3.87805 0
M  V30 6693 H 613.185 -2.16492 3.03253 0
M  V30 6694 H 613.298 -1.18528 4.64207 0
M  V30 6695 H 611.662 -0.723421 2.4421 0
M  V30 6696 H 612.445 0.668591 3.36727 0
M  V30 6697 N 614.89 -1.56749 -0.16351 0
M  V30 6698 C 616.12 -1.86307 -0.892936 0
M  V30 6699 C 616.528 -0.6945 -1.75992 0
M  V30 6700 O 615.871 0.345384 -1.80424 0
M  V30 6701 C 615.933 -3.10372 -1.81409 0
M  V30 6702 C 615.597 -4.42913 -1.12593 0
M  V30 6703 C 616.594 -5.17608 -0.487661 0
M  V30 6704 C 614.279 -4.89646 -1.12035 0
M  V30 6705 C 616.273 -6.3723 0.14699 0
M  V30 6706 C 613.96 -6.09197 -0.481883 0
M  V30 6707 C 614.958 -6.82834 0.150678 0
M  V30 6708 O 614.646 -8.00116 0.779065 0
M  V30 6709 H 614.378 -0.622126 -0.264452 0
M  V30 6710 H 616.932 -2.04728 -0.166063 0
M  V30 6711 H 615.162 -2.87917 -2.58148 0
M  V30 6712 H 616.851 -3.26312 -2.41403 0
M  V30 6713 H 617.617 -4.8258 -0.483888 0
M  V30 6714 H 613.496 -4.32265 -1.60212 0
M  V30 6715 H 617.04 -6.94646 0.641325 0
M  V30 6716 H 612.937 -6.43688 -0.483266 0
M  V30 6717 H 613.705 -8.15678 0.679089 0
M  V30 6718 N 616.368 0.432326 -1.51554 0
M  V30 6719 C 617.596 1.20364 -1.68286 0
M  V30 6720 C 618.011 1.84888 -0.38233 0
M  V30 6721 O 617.368 1.70924 0.639627 0
M  V30 6722 C 617.419 2.28398 -2.80208 0
M  V30 6723 O 617.14 1.66512 -4.05223 0
M  V30 6724 C 618.641 3.18584 -3.08251 0
M  V30 6725 H 615.861 0.36259 -0.564596 0
M  V30 6726 H 618.405 0.511647 -1.97996 0
M  V30 6727 H 616.56 2.93305 -2.53083 0
M  V30 6728 H 616.974 2.37951 -4.67418 0
M  V30 6729 H 618.448 3.90511 -3.90135 0
M  V30 6730 H 618.925 3.79628 -2.2086 0
M  V30 6731 H 619.531 2.59372 -3.37055 0
M  V30 6732 N 617.846 1.41785 0.688094 0
M  V30 6733 C 618.778 1.40159 1.81351 0
M  V30 6734 C 619.791 0.30262 1.59963 0
M  V30 6735 O 620.98 0.564841 1.69327 0
M  V30 6736 C 618.08 1.16517 3.1824 0
M  V30 6737 C 617.253 2.38597 3.66593 0
M  V30 6738 C 616.312 2.10699 4.82174 0
M  V30 6739 O 615.338 2.83798 4.93404 0
M  V30 6740 N 616.54 1.10187 5.69947 0
M  V30 6741 H 619.305 2.3716 1.83236 0
M  V30 6742 H 616.866 1.36494 0.870697 0
M  V30 6743 H 618.858 0.957941 3.93199 0
M  V30 6744 H 617.428 0.280873 3.11336 0
M  V30 6745 H 616.648 2.74974 2.82459 0
M  V30 6746 H 617.936 3.19919 3.95638 0
M  V30 6747 H 617.334 0.497016 5.63512 0
M  V30 6748 H 615.891 0.954518 6.44773 0
M  V30 6749 N 619.324 -0.923095 1.27737 0
M  V30 6750 C 620.74 -1.19985 1.05241 0
M  V30 6751 C 620.94 -2.00391 -0.21113 0
M  V30 6752 O 619.996 -2.35324 -0.915366 0
M  V30 6753 C 621.309 -1.94352 2.29451 0
M  V30 6754 C 622.857 -2.07273 2.34536 0
M  V30 6755 C 623.332 -2.85046 3.58487 0
M  V30 6756 N 624.823 -2.92612 3.59072 0
M  V30 6757 C 625.558 -3.53266 4.51654 0
M  V30 6758 N 625.054 -4.15274 5.54545 0
M  V30 6759 N 626.847 -3.50714 4.39268 0
M  V30 6760 H 618.998 -0.386042 2.08862 0
M  V30 6761 H 621.261 -0.233407 0.918817 0
M  V30 6762 H 620.967 -1.42692 3.21453 0
M  V30 6763 H 620.841 -2.94947 2.3513 0
M  V30 6764 H 623.228 -2.58117 1.43037 0
M  V30 6765 H 623.309 -1.05884 2.32857 0
M  V30 6766 H 622.953 -2.34884 4.50324 0
M  V30 6767 H 622.883 -3.8673 3.57418 0
M  V30 6768 H 625.374 -2.48547 2.84663 0
M  V30 6769 H 625.687 -4.59507 6.21348 0
M  V30 6770 H 624.032 -4.13806 5.58382 0
M  V30 6771 H 627.223 -3.01475 3.58093 0
M  V30 6772 H 627.396 -3.97693 5.1161 0
M  V30 6773 N 620.802 -1.09834 -1.13024 0
M  V30 6774 C 622.051 -0.831806 -1.83749 0
M  V30 6775 C 622.364 0.644763 -1.84668 0
M  V30 6776 O 623.57 1.02697 -2.51327 0
M  V30 6777 C 622.026 -1.43817 -3.29916 0
M  V30 6778 C 621.634 -2.94759 -3.37374 0
M  V30 6779 C 623.378 -1.25077 -4.05655 0
M  V30 6780 C 621.285 -3.48461 -4.77838 0
M  V30 6781 H 620.215 -0.30751 -0.688443 0
M  V30 6782 H 622.866 -1.32156 -1.27307 0
M  V30 6783 H 621.248 -0.876106 -3.86187 0
M  V30 6784 H 622.422 -3.57228 -2.91076 0
M  V30 6785 H 620.737 -3.12581 -2.75103 0
M  V30 6786 H 623.334 -1.62649 -5.09362 0
M  V30 6787 H 623.677 -0.191782 -4.15858 0
M  V30 6788 H 624.21 -1.78057 -3.55725 0
M  V30 6789 H 620.949 -4.53998 -4.72828 0
M  V30 6790 H 620.469 -2.90757 -5.24615 0
M  V30 6791 H 622.148 -3.45914 -5.46766 0
M  V30 6792 N 622.28 1.30327 -0.886154 0
M  V30 6793 C 623.19 2.31854 -0.357866 0
M  V30 6794 C 624.206 1.65392 0.540502 0
M  V30 6795 O 625.382 1.96683 0.433339 0
M  V30 6796 C 622.447 3.44171 0.417999 0
M  V30 6797 C 621.508 4.26257 -0.510263 0
M  V30 6798 C 620.741 5.3321 0.228669 0
M  V30 6799 O 620.964 5.51542 1.45458 0
M  V30 6800 O 619.898 6.0042 -0.421832 0
M  V30 6801 H 623.724 2.78995 -1.19982 0
M  V30 6802 H 621.309 1.34518 -0.650028 0
M  V30 6803 H 623.191 4.12588 0.857251 0
M  V30 6804 H 621.866 2.99164 1.23623 0
M  V30 6805 H 620.773 3.60533 -0.99835 0
M  V30 6806 H 622.106 4.74871 -1.29454 0
M  V30 6807 N 623.758 0.647228 1.43697 0
M  V30 6808 C 625.004 0.158422 2.0218 0
M  V30 6809 C 625.337 -1.22233 1.50907 0
M  V30 6810 O 624.612 -1.81478 0.699702 0
M  V30 6811 C 624.895 0.1627 3.59732 0
M  V30 6812 C 624.748 1.57694 4.21251 0
M  V30 6813 C 626.067 -0.504138 4.37203 0
M  V30 6814 H 623.186 0.059042 0.734631 0
M  V30 6815 H 625.828 0.826772 1.71069 0
M  V30 6816 H 623.978 -0.406414 3.86368 0
M  V30 6817 H 625.65 2.19618 4.05667 0
M  V30 6818 H 623.893 2.12603 3.7813 0
M  V30 6819 H 624.564 1.53183 5.3032 0
M  V30 6820 H 627.04 -0.0199841 4.16095 0
M  V30 6821 H 625.916 -0.470394 5.46881 0
M  V30 6822 H 626.177 -1.57726 4.13007 0
M  V30 6823 N 625.236 -1.5273 0.388769 0
M  V30 6824 C 626.166 -2.29353 -0.438111 0
M  V30 6825 C 627.147 -1.32719 -1.06394 0
M  V30 6826 O 628.332 -1.61612 -1.07681 0
M  V30 6827 C 625.462 -3.09995 -1.56589 0
M  V30 6828 C 624.416 -4.14509 -1.06613 0
M  V30 6829 C 623.742 -4.83372 -2.28594 0
M  V30 6830 C 625.042 -5.22127 -0.134459 0
M  V30 6831 H 626.736 -2.98723 0.201206 0
M  V30 6832 H 624.282 -1.43665 0.0982089 0
M  V30 6833 H 626.235 -3.62357 -2.15118 0
M  V30 6834 H 624.959 -2.38357 -2.23279 0
M  V30 6835 H 623.618 -3.63128 -0.503383 0
M  V30 6836 H 623.266 -4.08283 -2.93792 0
M  V30 6837 H 622.966 -5.54012 -1.95817 0
M  V30 6838 H 624.49 -5.38538 -2.87766 0
M  V30 6839 H 625.904 -5.69851 -0.627914 0
M  V30 6840 H 624.301 -6.00011 0.103534 0
M  V30 6841 H 625.371 -4.77971 0.816798 0
M  V30 6842 N 626.714 -0.118576 -1.57153 0
M  V30 6843 C 627.991 0.583062 -1.86708 0
M  V30 6844 C 628.371 1.84841 -1.01967 0
M  V30 6845 O 627.719 2.28288 -0.0984673 0
M  V30 6846 C 627.929 0.875912 -3.3783 0
M  V30 6847 C 629.277 1.22916 -4.0642 0
M  V30 6848 O 630.301 0.966188 -3.42846 0
M  V30 6849 O 629.16 1.72269 -5.18638 0
M  V30 6850 H 626.254 0.294185 -0.772906 0
M  V30 6851 H 628.8 -0.153048 -1.69008 0
M  V30 6852 H 627.572 -0.0207776 -3.91294 0
M  V30 6853 H 627.195 1.66719 -3.60958 0
M  V30 6854 N 628.193 1.56834 0.155195 0
M  V30 6855 C 629.141 1.98584 1.21107 0
M  V30 6856 C 630.135 0.876987 1.44932 0
M  V30 6857 O 631.341 1.06215 1.45322 0
M  V30 6858 H 627.716 0.632039 0.407469 0
M  V30 6859 H 629.687 2.86561 0.832195 0
M  V30 6860 C 628.436 2.37555 2.53895 0
M  V30 6861 H 627.759 3.22428 2.3639 0
M  V30 6862 H 629.199 2.70598 3.26424 0
M  V30 6863 C 627.658 1.22507 3.13837 0
M  V30 6864 O 628.188 0.521388 3.98302 0
M  V30 6865 N 626.394 0.991444 2.73164 0
M  V30 6866 H 625.941 1.56544 2.04577 0
M  V30 6867 H 625.899 0.223546 3.13604 0
M  V30 6868 N 629.671 -0.424282 1.51781 0
M  V30 6869 C 630.899 -1.1947 1.68921 0
M  V30 6870 C 631.314 -1.84683 0.39213 0
M  V30 6871 O 630.671 -1.71261 -0.630554 0
M  V30 6872 C 630.722 -2.26909 2.81416 0
M  V30 6873 O 630.443 -1.64361 4.061 0
M  V30 6874 C 631.944 -3.16945 3.09937 0
M  V30 6875 H 629.164 -0.359591 0.566511 0
M  V30 6876 H 631.708 -0.501139 1.98265 0
M  V30 6877 H 629.863 -2.91959 2.54635 0
M  V30 6878 H 630.277 -2.35468 4.68674 0
M  V30 6879 H 631.751 -3.88437 3.922 0
M  V30 6880 H 632.228 -3.78451 2.22871 0
M  V30 6881 H 632.834 -2.57581 3.38426 0
M  V30 6882 N 631.149 -1.42148 -0.680565 0
M  V30 6883 C 632.081 -1.41119 -1.80605 0
M  V30 6884 C 633.094 -0.311099 -1.598 0
M  V30 6885 O 634.283 -0.573813 -1.69026 0
M  V30 6886 C 631.383 -1.18204 -3.17618 0
M  V30 6887 C 630.556 -2.40537 -3.65322 0
M  V30 6888 C 629.615 -2.13254 -4.8105 0
M  V30 6889 O 628.641 -2.8641 -4.91892 0
M  V30 6890 N 629.843 -1.13208 -5.69354 0
M  V30 6891 H 632.608 -2.38128 -1.81975 0
M  V30 6892 H 630.169 -1.36953 -0.863446 0
M  V30 6893 H 632.161 -0.97878 -3.92686 0
M  V30 6894 H 630.731 -0.29738 -3.11182 0
M  V30 6895 H 629.951 -2.76468 -2.80996 0
M  V30 6896 H 631.239 -3.22012 -3.93936 0
M  V30 6897 H 630.637 -0.526893 -5.63241 0
M  V30 6898 H 629.194 -0.988699 -6.44258 0
M  V30 6899 N 632.627 0.916307 -1.28225 0
M  V30 6900 C 633.559 2.02303 -1.07732 0
M  V30 6901 C 634.572 1.62773 -0.0298421 0
M  V30 6902 O 635.761 1.76406 -0.272626 0
M  V30 6903 C 632.861 3.33282 -0.614504 0
M  V30 6904 C 632.034 4.01439 -1.73682 0
M  V30 6905 C 631.093 5.10698 -1.26781 0
M  V30 6906 O 630.119 5.34038 -1.96958 0
M  V30 6907 N 631.321 5.80355 -0.129624 0
M  V30 6908 H 634.086 2.20442 -2.03041 0
M  V30 6909 H 631.647 1.08744 -1.19943 0
M  V30 6910 H 633.639 4.03699 -0.284397 0
M  V30 6911 H 632.209 3.11633 0.245664 0
M  V30 6912 H 631.429 3.24604 -2.23665 0
M  V30 6913 H 632.717 4.43721 -2.48976 0
M  V30 6914 H 632.115 5.6386 0.455847 0
M  V30 6915 H 630.672 6.51647 0.141224 0
M  V30 6916 N 634.105 1.10431 1.1244 0
M  V30 6917 C 635.035 0.775143 2.20258 0
M  V30 6918 C 636.016 -0.25186 1.68225 0
M  V30 6919 O 637.201 -0.117637 1.93843 0
M  V30 6920 C 634.331 0.206133 3.46688 0
M  V30 6921 C 633.285 1.16382 4.11873 0
M  V30 6922 C 632.611 0.456014 5.32752 0
M  V30 6923 C 633.911 2.5104 4.58013 0
M  V30 6924 H 635.605 1.67665 2.4805 0
M  V30 6925 H 633.151 0.807595 1.19222 0
M  V30 6926 H 635.104 -0.036291 4.21384 0
M  V30 6927 H 633.828 -0.730614 3.18323 0
M  V30 6928 H 632.487 1.39169 3.39157 0
M  V30 6929 H 632.135 -0.485203 5.00654 0
M  V30 6930 H 631.835 1.09466 5.77314 0
M  V30 6931 H 633.359 0.222135 6.10196 0
M  V30 6932 H 634.773 2.32401 5.24083 0
M  V30 6933 H 633.17 3.10789 5.13352 0
M  V30 6934 H 634.24 3.11039 3.71998 0
M  V30 6935 N 635.583 -1.29855 0.893053 0
M  V30 6936 C 636.53 -2.27909 0.364161 0
M  V30 6937 C 637.5 -1.56726 -0.550093 0
M  V30 6938 O 638.685 -1.84747 -0.47677 0
M  V30 6939 C 635.825 -3.42678 -0.408178 0
M  V30 6940 C 634.938 -4.28659 0.536212 0
M  V30 6941 C 634.073 -5.30599 -0.252521 0
M  V30 6942 C 633.112 -6.08234 0.686822 0
M  V30 6943 N 632.249 -7.02068 -0.0670902 0
M  V30 6944 H 637.089 -2.72531 1.20544 0
M  V30 6945 H 634.626 -1.34047 0.605779 0
M  V30 6946 H 636.584 -4.07986 -0.871962 0
M  V30 6947 H 635.214 -2.99103 -1.21397 0
M  V30 6948 H 634.266 -3.63584 1.1185 0
M  V30 6949 H 635.578 -4.8274 1.25552 0
M  V30 6950 H 634.732 -6.01694 -0.777801 0
M  V30 6951 H 633.471 -4.77233 -1.005 0
M  V30 6952 H 632.476 -5.3601 1.22366 0
M  V30 6953 H 633.701 -6.63689 1.43852 0
M  V30 6954 H 631.647 -6.5108 -0.801955 0
M  V30 6955 H 631.564 -7.53675 0.59243 0
M  V30 6956 H 632.832 -7.77392 -0.572851 0
M  V30 6957 N 637.061 -0.65484 -1.43351 0
M  V30 6958 C 638.31 -0.166215 -2.01014 0
M  V30 6959 C 638.623 1.22764 -1.52278 0
M  V30 6960 O 639.829 1.81156 -2.02224 0
M  V30 6961 C 638.285 -0.246341 -3.59056 0
M  V30 6962 C 637.893 -1.64299 -4.16785 0
M  V30 6963 C 639.637 0.184597 -4.24098 0
M  V30 6964 C 637.544 -1.67695 -5.67126 0
M  V30 6965 H 636.474 -0.0583769 -0.751737 0
M  V30 6966 H 639.125 -0.817111 -1.64303 0
M  V30 6967 H 637.507 0.472092 -3.93176 0
M  V30 6968 H 638.681 -2.3869 -3.94162 0
M  V30 6969 H 636.996 -2.02004 -3.6412 0
M  V30 6970 H 639.593 0.179088 -5.344 0
M  V30 6971 H 639.936 1.21632 -3.98135 0
M  V30 6972 H 640.469 -0.482141 -3.94867 0
M  V30 6973 H 637.208 -2.68783 -5.9786 0
M  V30 6974 H 636.728 -0.976313 -5.91801 0
M  V30 6975 H 638.407 -1.42142 -6.31193 0
M  V30 6976 N 638.539 1.52521 -0.396863 0
M  V30 6977 C 639.469 2.29582 0.425941 0
M  V30 6978 C 640.45 1.33281 1.05689 0
M  V30 6979 O 641.635 1.62181 1.06823 0
M  V30 6980 C 638.765 3.10821 1.54943 0
M  V30 6981 C 637.719 4.15069 1.04413 0
M  V30 6982 C 637.045 4.84578 2.26028 0
M  V30 6983 C 638.345 5.22191 0.106767 0
M  V30 6984 H 640.039 2.98612 -0.217045 0
M  V30 6985 H 637.585 1.43611 -0.105826 0
M  V30 6986 H 639.538 3.63492 2.13193 0
M  V30 6987 H 638.262 2.39538 2.22011 0
M  V30 6988 H 636.921 3.63389 0.484118 0
M  V30 6989 H 636.569 4.09835 2.91623 0
M  V30 6990 H 636.269 5.55043 1.92876 0
M  V30 6991 H 637.793 5.40056 2.84906 0
M  V30 6992 H 639.207 5.70176 0.597685 0
M  V30 6993 H 637.604 5.99947 -0.135352 0
M  V30 6994 H 638.674 4.77531 -0.842134 0
M  V30 6995 N 640.017 0.126909 1.57088 0
M  V30 6996 C 640.98 -0.806097 2.14557 0
M  V30 6997 C 641.98 -1.18918 1.08236 0
M  V30 6998 O 643.17 -1.11339 1.33975 0
M  V30 6999 C 640.302 -2.09116 2.69227 0
M  V30 7000 H 641.495 -0.306522 2.98329 0
M  V30 7001 H 639.048 -0.122393 1.5582 0
M  V30 7002 H 639.783 -2.63486 1.89065 0
M  V30 7003 H 639.568 -1.82588 3.46993 0
M  V30 7004 H 641.058 -2.75794 3.13572 0
M  V30 7005 N 641.495 -1.56914 -0.146875 0
M  V30 7006 C 642.772 -1.74273 -0.888165 0
M  V30 7007 C 643.152 -0.69496 -1.99333 0
M  V30 7008 O 642.5 0.286093 -2.26702 0
M  V30 7009 C 642.71 -3.18336 -1.43051 0
M  V30 7010 C 644.058 -3.80024 -1.89387 0
M  V30 7011 O 645.082 -3.21765 -1.52792 0
M  V30 7012 O 643.941 -4.82367 -2.56874 0
M  V30 7013 H 641.035 -0.712565 -0.419738 0
M  V30 7014 H 643.581 -1.6918 -0.132791 0
M  V30 7015 H 642.353 -3.86092 -0.636274 0
M  V30 7016 H 641.976 -3.27854 -2.24938 0
M  V30 7017 N 642.974 0.416227 -1.52004 0
M  V30 7018 C 644.199 1.19029 -1.69843 0
M  V30 7019 C 644.624 1.83708 -0.404103 0
M  V30 7020 O 643.982 1.69711 0.637787 0
M  V30 7021 C 644.03 2.23439 -2.83032 0
M  V30 7022 O 643.134 3.29419 -2.48106 0
M  V30 7023 H 642.475 0.347785 -0.565634 0
M  V30 7024 H 645.005 0.488871 -1.98674 0
M  V30 7025 H 645.015 2.67884 -3.07737 0
M  V30 7026 H 643.69 1.75745 -3.76944 0
M  V30 7027 H 642.267 2.90303 -2.34048 0
M  V30 7028 N 644.452 1.42507 0.673017 0
M  V30 7029 C 645.701 1.42364 1.42883 0
M  V30 7030 C 646.014 0.0441598 1.9555 0
M  V30 7031 O 647.22 -0.0798679 2.71382 0
M  V30 7032 C 645.676 2.5043 2.58482 0
M  V30 7033 C 645.284 3.94392 2.12506 0
M  V30 7034 C 647.028 2.59455 3.35981 0
M  V30 7035 C 644.935 4.93964 3.25198 0
M  V30 7036 H 643.865 0.52951 0.536782 0
M  V30 7037 H 646.516 1.68422 0.728448 0
M  V30 7038 H 644.898 2.1754 3.30896 0
M  V30 7039 H 646.072 4.36645 1.47233 0
M  V30 7040 H 644.387 3.89233 1.4794 0
M  V30 7041 H 646.984 3.31025 4.19912 0
M  V30 7042 H 647.327 1.63869 3.82691 0
M  V30 7043 H 647.86 2.91549 2.70637 0
M  V30 7044 H 644.599 5.91034 2.83477 0
M  V30 7045 H 644.119 4.56341 3.89247 0
M  V30 7046 H 645.798 5.15763 3.90637 0
M  V30 7047 N 645.93 -0.909495 1.28709 0
M  V30 7048 C 646.878 -2.03381 1.12866 0
M  V30 7049 C 647.872 -1.69335 0.0468074 0
M  V30 7050 O 649.078 -1.78819 0.205891 0
M  V30 7051 H 645.453 -0.666452 0.348348 0
M  V30 7052 H 647.424 -2.13885 2.08077 0
M  V30 7053 C 646.173 -3.38092 0.811742 0
M  V30 7054 H 645.496 -3.64786 1.63619 0
M  V30 7055 H 646.936 -4.17477 0.740869 0
M  V30 7056 C 645.395 -3.33395 -0.484679 0
M  V30 7057 O 645.925 -3.72089 -1.5137 0
M  V30 7058 N 644.131 -2.86491 -0.486961 0
M  V30 7059 H 643.678 -2.55199 0.350877 0
M  V30 7060 H 643.636 -2.83731 -1.3544 0
M  V30 7061 N 647.408 -1.11026 -1.11852 0
M  V30 7062 C 648.633 -0.879064 -1.87849 0
M  V30 7063 C 649.058 0.565406 -1.79401 0
M  V30 7064 O 648.416 1.39886 -1.15333 0
M  V30 7065 C 648.464 -1.33985 -3.34784 0
M  V30 7066 O 647.568 -0.508803 -4.09249 0
M  V30 7067 H 646.909 -0.316992 -0.583448 0
M  V30 7068 H 649.439 -1.47863 -1.41413 0
M  V30 7069 H 649.449 -1.33248 -3.85628 0
M  V30 7070 H 648.124 -2.39172 -3.40249 0
M  V30 7071 H 646.701 -0.581913 -3.68332 0
M  V30 7072 N 648.886 1.2938 -0.899927 0
M  V30 7073 C 649.796 2.31462 -0.382437 0
M  V30 7074 C 650.812 1.65956 0.522929 0
M  V30 7075 O 651.988 1.97131 0.412454 0
M  V30 7076 C 649.053 3.44595 0.381472 0
M  V30 7077 C 648.114 4.25692 -0.555444 0
M  V30 7078 C 647.347 5.33422 0.172102 0
M  V30 7079 O 647.57 5.53053 1.396 0
M  V30 7080 O 646.504 5.99939 -0.485491 0
M  V30 7081 H 650.33 2.77706 -1.22934 0
M  V30 7082 H 647.915 1.33821 -0.664259 0
M  V30 7083 H 649.797 4.13474 0.813442 0
M  V30 7084 H 648.472 3.00458 1.20443 0
M  V30 7085 H 647.379 3.59453 -1.03653 0
M  V30 7086 H 648.712 4.73471 -1.34483 0
M  V30 7087 N 650.364 0.662433 1.43002 0
M  V30 7088 C 651.613 0.176873 2.00923 0
M  V30 7089 C 651.926 -1.21954 1.52927 0
M  V30 7090 O 653.132 -1.80081 2.03182 0
M  V30 7091 C 651.588 0.265379 3.5892 0
M  V30 7092 C 651.196 1.66507 4.15908 0
M  V30 7093 C 652.94 -0.162103 4.2419 0
M  V30 7094 C 650.847 1.707 5.66229 0
M  V30 7095 H 649.777 0.0623627 0.751417 0
M  V30 7096 H 652.428 0.825813 1.63868 0
M  V30 7097 H 650.81 -0.451235 3.93421 0
M  V30 7098 H 651.984 2.40777 3.92891 0
M  V30 7099 H 650.299 2.03932 3.63044 0
M  V30 7100 H 652.896 -0.150745 5.34487 0
M  V30 7101 H 653.239 -1.19519 3.98774 0
M  V30 7102 H 653.772 0.503075 3.94606 0
M  V30 7103 H 650.511 2.7195 5.96426 0
M  V30 7104 H 650.031 1.00768 5.91275 0
M  V30 7105 H 651.71 1.45487 6.3043 0
M  V30 7106 N 651.842 -1.52309 0.404946 0
M  V30 7107 C 653.09 -2.01368 -0.17186 0
M  V30 7108 C 653.411 -1.29261 -1.46002 0
M  V30 7109 O 652.681 -0.41729 -1.91404 0
M  V30 7110 H 651.261 -0.744034 -0.0664993 0
M  V30 7111 H 653.923 -1.87263 0.540228 0
M  V30 7112 H 653.019 -3.09888 -0.370957 0
M  V30 7113 N 653.32 -0.135238 -1.57019 0
M  V30 7114 C 654.569 0.518694 -1.94917 0
M  V30 7115 C 654.882 1.66783 -1.0219 0
M  V30 7116 O 656.088 2.38561 -1.29619 0
M  V30 7117 C 654.544 0.974123 -3.46466 0
M  V30 7118 C 654.152 -0.147439 -4.47757 0
M  V30 7119 C 655.896 1.59851 -3.93253 0
M  V30 7120 C 653.803 0.325599 -5.90503 0
M  V30 7121 H 652.733 0.19754 -0.727663 0
M  V30 7122 H 655.384 -0.217698 -1.82204 0
M  V30 7123 H 653.766 1.76542 -3.5447 0
M  V30 7124 H 654.94 -0.924122 -4.51438 0
M  V30 7125 H 653.255 -0.679496 -4.10818 0
M  V30 7126 H 655.852 1.96385 -4.9733 0
M  V30 7127 H 656.195 2.48306 -3.3414 0
M  V30 7128 H 656.728 0.872323 -3.88118 0
M  V30 7129 H 653.467 -0.523295 -6.53408 0
M  V30 7130 H 652.987 1.06841 -5.90208 0
M  V30 7131 H 654.666 0.781498 -6.42263 0
M  V30 7132 N 654.798 1.5699 0.138552 0
M  V30 7133 C 655.728 2.01933 1.17241 0
M  V30 7134 C 656.709 0.90033 1.44319 0
M  V30 7135 O 657.894 1.16872 1.55095 0
M  V30 7136 C 655.024 2.40711 2.50351 0
M  V30 7137 C 653.978 3.55874 2.37776 0
M  V30 7138 C 653.304 3.80491 3.75674 0
M  V30 7139 C 654.604 4.8826 1.85472 0
M  V30 7140 H 656.298 2.88551 0.798672 0
M  V30 7141 H 653.844 1.3882 0.382743 0
M  V30 7142 H 655.797 2.70754 3.22909 0
M  V30 7143 H 654.521 1.5104 2.89576 0
M  V30 7144 H 653.18 3.2601 1.67669 0
M  V30 7145 H 652.828 2.88057 4.12349 0
M  V30 7146 H 652.528 4.57998 3.68119 0
M  V30 7147 H 654.052 4.12967 4.49767 0
M  V30 7148 H 655.466 5.16965 2.4783 0
M  V30 7149 H 653.863 5.69631 1.88787 0
M  V30 7150 H 654.933 4.78071 0.810935 0
M  V30 7151 N 656.276 -0.40816 1.52223 0
M  V30 7152 C 657.516 -1.16418 1.68006 0
M  V30 7153 C 657.88 -1.87749 0.401793 0
M  V30 7154 O 659.081 -2.65245 0.435743 0
M  V30 7155 C 657.352 -2.13143 2.86889 0
M  V30 7156 S 658.911 -2.96839 3.2316 0
M  V30 7157 H 655.729 -0.394373 0.5916 0
M  V30 7158 H 658.331 -0.451349 1.90219 0
M  V30 7159 H 657.035 -1.59428 3.78168 0
M  V30 7160 H 656.566 -2.88963 2.66953 0
M  V30 7161 H 658.581 -4.151 2.71857 0
M  V30 7162 N 657.755 -1.42862 -0.66545 0
M  V30 7163 C 658.98 -1.47456 -1.45848 0
M  V30 7164 C 659.405 -0.0900312 -1.87884 0
M  V30 7165 O 658.763 0.913587 -1.56599 0
M  V30 7166 C 658.811 -2.41514 -2.67774 0
M  V30 7167 O 657.915 -1.89296 -3.66389 0
M  V30 7168 H 657.256 -0.499236 -0.437789 0
M  V30 7169 H 659.786 -1.8765 -0.815394 0
M  V30 7170 H 659.796 -2.58409 -3.15735 0
M  V30 7171 H 658.471 -3.42099 -2.36519 0
M  V30 7172 H 657.048 -1.82003 -3.25468 0
M  V30 7173 N 659.233 0.902656 -1.29189 0
M  V30 7174 C 660.196 1.98797 -1.14071 0
M  V30 7175 C 661.196 1.60615 -0.0770549 0
M  V30 7176 O 662.386 1.71165 -0.323753 0
M  V30 7177 C 659.518 3.32688 -0.743739 0
M  V30 7178 H 660.711 2.13637 -2.10473 0
M  V30 7179 H 658.264 1.08678 -1.12334 0
M  V30 7180 H 658.999 3.23549 0.220554 0
M  V30 7181 H 658.784 3.61765 -1.51223 0
M  V30 7182 H 660.274 4.12337 -0.660935 0
M  V30 7183 N 660.711 1.11618 1.11262 0
M  V30 7184 C 661.641 0.79846 2.19424 0
M  V30 7185 C 662.622 -0.234003 1.68483 0
M  V30 7186 O 663.807 -0.0970704 1.93957 0
M  V30 7187 C 660.937 0.242892 3.4645 0
M  V30 7188 C 659.891 1.20744 4.10615 0
M  V30 7189 C 659.217 0.512494 5.32238 0
M  V30 7190 C 660.517 2.55884 4.55325 0
M  V30 7191 H 662.211 1.70286 2.46258 0
M  V30 7192 H 659.757 0.820195 1.18359 0
M  V30 7193 H 661.71 0.00840447 4.21399 0
M  V30 7194 H 660.434 -0.696811 3.1908 0
M  V30 7195 H 659.093 1.42759 3.37662 0
M  V30 7196 H 658.741 -0.432075 5.01141 0
M  V30 7197 H 658.441 1.15583 5.7612 0
M  V30 7198 H 659.965 0.286842 6.09926 0
M  V30 7199 H 661.379 2.37946 5.21588 0
M  V30 7200 H 659.776 3.16216 5.10027 0
M  V30 7201 H 660.846 3.14968 3.68678 0
M  V30 7202 N 662.189 -1.289 0.906776 0
M  V30 7203 C 663.121 -2.26556 0.347159 0
M  V30 7204 C 664.134 -1.54589 -0.51049 0
M  V30 7205 O 665.323 -1.75489 -0.326501 0
M  V30 7206 C 662.423 -3.3484 -0.523024 0
M  V30 7207 C 661.596 -4.36296 0.310515 0
M  V30 7208 C 660.655 -5.23879 -0.493634 0
M  V30 7209 O 659.681 -5.69127 0.0913569 0
M  V30 7210 N 660.883 -5.51946 -1.7982 0
M  V30 7211 H 663.648 -2.75212 1.18652 0
M  V30 7212 H 661.209 -1.42309 0.771996 0
M  V30 7213 H 663.201 -3.90366 -1.06756 0
M  V30 7214 H 661.771 -2.85946 -1.26309 0
M  V30 7215 H 660.991 -3.80331 1.03644 0
M  V30 7216 H 662.279 -5.01113 0.881106 0
M  V30 7217 H 661.677 -5.17006 -2.2961 0
M  V30 7218 H 660.234 -6.10258 -2.28971 0
M  V30 7219 N 663.667 -0.670007 -1.42649 0
M  V30 7220 C 664.614 0.0112928 -2.30797 0
M  V30 7221 C 665.584 0.797627 -1.45695 0
M  V30 7222 O 666.769 0.770845 -1.74535 0
M  V30 7223 C 663.909 0.95998 -3.31479 0
M  V30 7224 C 663.022 0.167975 -4.31673 0
M  V30 7225 C 662.157 1.11198 -5.19431 0
M  V30 7226 C 661.196 0.311381 -6.11307 0
M  V30 7227 N 660.333 1.20784 -6.91633 0
M  V30 7228 H 665.173 -0.746231 -2.88505 0
M  V30 7229 H 662.71 -0.379739 -1.42114 0
M  V30 7230 H 664.668 1.52379 -3.88377 0
M  V30 7231 H 663.298 1.68419 -2.75382 0
M  V30 7232 H 662.35 -0.512385 -3.76933 0
M  V30 7233 H 663.662 -0.453814 -4.96731 0
M  V30 7234 H 662.816 1.74587 -5.81037 0
M  V30 7235 H 661.555 1.76766 -4.54538 0
M  V30 7236 H 660.56 -0.335758 -5.48774 0
M  V30 7237 H 661.785 -0.340135 -6.78248 0
M  V30 7238 H 659.731 1.85001 -6.29373 0
M  V30 7239 H 659.648 0.64102 -7.53277 0
M  V30 7240 H 660.916 1.82936 -7.5773 0
M  V30 7241 N 665.145 1.52092 -0.413018 0
M  V30 7242 C 666.394 2.01041 0.16287 0
M  V30 7243 C 666.707 1.30288 1.45892 0
M  V30 7244 O 667.913 1.70075 2.11629 0
M  V30 7245 C 666.369 3.58283 0.340806 0
M  V30 7246 C 665.977 4.37955 -0.943377 0
M  V30 7247 C 667.721 4.15452 0.871774 0
M  V30 7248 C 665.628 5.86847 -0.732417 0
M  V30 7249 H 664.558 0.751224 0.0646414 0
M  V30 7250 H 667.209 1.75404 -0.539059 0
M  V30 7251 H 665.591 3.80266 1.10516 0
M  V30 7252 H 666.765 4.2773 -1.71418 0
M  V30 7253 H 665.08 3.92122 -1.40105 0
M  V30 7254 H 667.677 5.24375 1.0457 0
M  V30 7255 H 668.02 3.73057 1.84755 0
M  V30 7256 H 668.553 3.97452 0.166377 0
M  V30 7257 H 665.292 6.33609 -1.67986 0
M  V30 7258 H 664.812 5.998 -0.000980058 0
M  V30 7259 H 666.491 6.45906 -0.376105 0
M  V30 7260 N 666.623 0.143563 1.56945 0
M  V30 7261 C 667.57 -0.797433 2.16586 0
M  V30 7262 C 668.54 -1.24654 1.09775 0
M  V30 7263 O 669.725 -1.31968 1.37801 0
M  V30 7264 C 666.865 -2.03253 2.78895 0
M  V30 7265 C 665.978 -1.62954 4.00087 0
M  V30 7266 C 665.113 -2.81617 4.50406 0
M  V30 7267 C 664.152 -2.37675 5.64072 0
M  V30 7268 N 663.289 -3.49335 6.09023 0
M  V30 7269 H 668.129 -0.282023 2.96662 0
M  V30 7270 H 665.666 -0.127494 1.46546 0
M  V30 7271 H 667.624 -2.75653 3.13163 0
M  V30 7272 H 666.254 -2.52211 2.01469 0
M  V30 7273 H 665.306 -0.803322 3.71821 0
M  V30 7274 H 666.618 -1.26679 4.82446 0
M  V30 7275 H 665.772 -3.62212 4.86711 0
M  V30 7276 H 664.511 -3.21134 3.67048 0
M  V30 7277 H 663.516 -1.55519 5.27346 0
M  V30 7278 H 664.741 -1.99247 6.49213 0
M  V30 7279 H 662.687 -3.8848 5.28601 0
M  V30 7280 H 662.604 -3.17064 6.86299 0
M  V30 7281 H 663.872 -4.30297 6.49973 0
M  V30 7282 O 668.14 -1.61499 0.00487092 0
M  V30 7283 H 668.831 -1.83807 -0.611124 0
M  V30 END ATOM
M  V30 BEGIN BOND
M  V30 END BOND
M  V30 END CTAB
M  END
$$$$
