drugbank_target|Q8TD43 Transient receptor potential cation channel subfamily M member 4 (DB01016)
 OpenBabel12092121203D

  0  0  0     0  0            999 V3000
M  V30 BEGIN CTAB
M  V30 COUNTS 18946 19177 0 0 0
M  V30 BEGIN ATOM
M  V30 1 H -0.908 1.98254 -0.117106 0
M  V30 2 N 0 1.576 0 0
M  V30 3 C 0.933 2.03868 1.02534 0
M  V30 4 C 1.911 0.928543 1.3348 0
M  V30 5 O 3.095 1.19667 1.45644 0
M  V30 6 C 0.222 2.43627 2.35294 0
M  V30 7 C -0.732 3.65373 2.2001 0
M  V30 8 S 0.101 5.13292 1.52614 0
M  V30 9 C 1.257 5.56322 2.86805 0
M  V30 10 H 1.49 2.90518 0.631377 0
M  V30 11 H -0.977 1.52953 0.210867 0
M  V30 12 H 0.981 2.67203 3.11629 0
M  V30 13 H -0.358 1.57376 2.7183 0
M  V30 14 H -1.165 3.90944 3.18086 0
M  V30 15 H -1.563 3.418 1.51819 0
M  V30 16 H 0.729 5.58782 3.83104 0
M  V30 17 H 1.672 6.56266 2.65933 0
M  V30 18 H 2.08 4.83886 2.90714 0
M  V30 19 N 1.4781 -0.272755 1.55222 0
M  V30 20 C 2.7241 -1.00581 1.761 0
M  V30 21 C 3.0571 -1.85932 0.560625 0
M  V30 22 O 2.3321 -1.89416 -0.441801 0
M  V30 23 C 2.6151 -1.88816 3.06628 0
M  V30 24 C 2.4681 -1.06457 4.37021 0
M  V30 25 C 3.7871 -2.8752 3.33197 0
M  V30 26 H 0.9061 -0.364244 0.640699 0
M  V30 27 H 3.5481 -0.278189 1.87952 0
M  V30 28 H 1.6981 -2.50856 2.96654 0
M  V30 29 H 3.3701 -0.464863 4.58952 0
M  V30 30 H 1.6131 -0.368043 4.32236 0
M  V30 31 H 2.2841 -1.71514 5.24678 0
M  V30 32 H 4.7601 -2.35615 3.42965 0
M  V30 33 H 3.6361 -3.46399 4.25792 0
M  V30 34 H 3.8971 -3.62657 2.52849 0
M  V30 35 N 2.9562 -1.48159 -0.537278 0
M  V30 36 C 4.2022 -1.56035 -1.29541 0
M  V30 37 C 4.5352 -0.230377 -1.92829 0
M  V30 38 O 3.8102 0.762952 -1.78911 0
M  V30 39 C 4.0932 -2.69323 -2.39034 0
M  V30 40 C 3.9462 -4.12002 -1.80485 0
M  V30 41 C 5.2652 -2.78408 -3.40847 0
M  V30 42 H 2.3842 -0.567992 -0.469632 0
M  V30 43 H 5.0262 -1.80302 -0.599277 0
M  V30 44 H 3.1762 -2.48763 -2.98412 0
M  V30 45 H 4.8482 -4.43981 -1.25215 0
M  V30 46 H 3.0912 -4.19344 -1.11055 0
M  V30 47 H 3.7622 -4.87077 -2.59731 0
M  V30 48 H 6.2382 -2.97012 -2.91416 0
M  V30 49 H 5.1142 -3.59416 -4.14863 0
M  V30 50 H 5.3752 -1.86269 -4.00944 0
M  V30 51 N 4.4343 0.785586 -1.36625 0
M  V30 52 C 5.8453 1.36101 -1.27803 0
M  V30 53 C 6.1963 1.96035 0.0804875 0
M  V30 54 O 5.3213 1.92834 0.982042 0
M  V30 55 C 5.9163 2.47442 -2.31426 0
M  V30 56 C 4.4753 3.00789 -2.26281 0
M  V30 57 C 3.6223 1.73896 -2.15999 0
M  V30 58 H 6.5733 0.586928 -1.47448 0
M  V30 59 H 6.5943 3.2656 -1.95291 0
M  V30 60 H 6.1063 2.03791 -3.30289 0
M  V30 61 H 4.2073 3.48851 -1.30896 0
M  V30 62 H 4.3203 3.57343 -3.19128 0
M  V30 63 H 2.6843 1.9628 -1.62316 0
M  V30 64 H 3.4673 1.32368 -3.16755 0
M  V30 65 N 5.9124 1.20967 1.01018 0
M  V30 66 C 6.8224 0.980157 2.13143 0
M  V30 67 C 7.8384 -0.0660665 1.73875 0
M  V30 68 O 9.0144 0.122821 2.01025 0
M  V30 69 C 6.0794 0.54216 3.42435 0
M  V30 70 C 5.1404 1.65999 3.95908 0
M  V30 71 C 4.3734 1.2428 5.19028 0
M  V30 72 O 4.5964 0.114196 5.70286 0
M  V30 73 O 3.5304 2.05271 5.65816 0
M  V30 74 H 7.3564 1.91913 2.35379 0
M  V30 75 H 4.9414 0.994099 1.11526 0
M  V30 76 H 6.8234 0.30744 4.20277 0
M  V30 77 H 5.4984 -0.36815 3.216 0
M  V30 78 H 4.4054 1.94906 3.19316 0
M  V30 79 H 5.7384 2.54753 4.21143 0
M  V30 80 N 7.3905 -1.2043 1.01659 0
M  V30 81 C 8.3375 -2.23215 0.586822 0
M  V30 82 C 9.3075 -1.61382 -0.393085 0
M  V30 83 O 10.4925 -1.88544 -0.292525 0
M  V30 84 C 7.6325 -3.45032 -0.0687464 0
M  V30 85 C 6.7455 -4.21296 0.955724 0
M  V30 86 C 5.8805 -5.30507 0.271208 0
M  V30 87 C 4.9195 -5.98515 1.28244 0
M  V30 88 N 4.0565 -6.99316 0.62459 0
M  V30 89 H 8.8965 -2.59336 1.46796 0
M  V30 90 H 6.4335 -1.27431 0.734836 0
M  V30 91 H 8.3915 -4.1459 -0.465965 0
M  V30 92 H 7.0215 -3.09604 -0.913529 0
M  V30 93 H 6.0735 -3.50803 1.4711 0
M  V30 94 H 7.3855 -4.6803 1.72479 0
M  V30 95 H 6.5395 -6.06428 -0.18151 0
M  V30 96 H 5.2785 -4.8481 -0.530163 0
M  V30 97 H 4.2835 -5.21355 1.74554 0
M  V30 98 H 5.5085 -6.46298 2.08509 0
M  V30 99 H 3.4545 -6.55812 -0.156914 0
M  V30 100 H 3.3715 -7.44178 1.33172 0
M  V30 101 H 4.6395 -7.79255 0.195462 0
M  V30 102 N 8.8686 -0.792821 -1.36206 0
M  V30 103 C 9.7786 -0.194808 -2.3379 0
M  V30 104 C 10.7946 0.654869 -1.61206 0
M  V30 105 O 11.9706 0.569856 -1.9317 0
M  V30 106 C 9.0356 0.657721 -3.40404 0
M  V30 107 C 8.0966 -0.210849 -4.28782 0
M  V30 108 C 7.3296 0.601086 -5.30304 0
M  V30 109 O 7.5526 1.83682 -5.40016 0
M  V30 110 O 6.4866 -0.000808277 -6.019 0
M  V30 111 H 10.3126 -1.00172 -2.86704 0
M  V30 112 H 7.8976 -0.554341 -1.38735 0
M  V30 113 H 9.7796 1.14375 -4.05581 0
M  V30 114 H 8.4546 1.44247 -2.89784 0
M  V30 115 H 7.3616 -0.743714 -3.66633 0
M  V30 116 H 8.6946 -0.959195 -4.82763 0
M  V30 117 N 10.3467 1.47872 -0.545128 0
M  V30 118 C 11.2787 2.27869 0.246621 0
M  V30 119 C 12.2917 1.36282 0.890561 0
M  V30 120 O 13.4807 1.61207 0.766449 0
M  V30 121 C 10.5807 3.10159 1.36582 0
M  V30 122 C 9.7537 4.29627 0.820954 0
M  V30 123 C 8.8127 4.93607 1.82314 0
M  V30 124 O 7.8387 5.52366 1.37406 0
M  V30 125 N 9.0407 4.87211 3.15603 0
M  V30 126 H 11.8057 2.96459 -0.439539 0
M  V30 127 H 9.3667 1.57367 -0.380421 0
M  V30 128 H 11.3587 3.49829 2.03474 0
M  V30 129 H 9.9287 2.43891 1.9554 0
M  V30 130 H 9.1487 3.94192 -0.0244032 0
M  V30 131 H 10.4367 5.06928 0.436063 0
M  V30 132 H 9.8347 4.40651 3.54744 0
M  V30 133 H 8.3917 5.30937 3.78087 0
M  V30 134 N 11.8248 0.280983 1.55075 0
M  V30 135 C 13.0498 -0.340154 2.04592 0
M  V30 136 C 13.4748 -1.48246 1.15779 0
M  V30 137 O 12.8328 -1.80614 0.15761 0
M  V30 138 C 12.8808 -0.793104 3.5177 0
M  V30 139 O 11.9848 -1.89981 3.66034 0
M  V30 140 H 11.3258 -0.0694289 0.66036 0
M  V30 141 H 13.8558 0.416993 2.00306 0
M  V30 142 H 13.8658 -1.08729 3.93245 0
M  V30 143 H 12.5408 0.0426163 4.15878 0
M  V30 144 H 11.1178 -1.60771 3.36463 0
M  V30 145 N 13.3029 -1.57598 0.00835791 0
M  V30 146 C 14.5489 -1.92046 -0.670055 0
M  V30 147 C 14.9039 -0.88351 -1.70915 0
M  V30 148 O 14.1969 0.103223 -1.91322 0
M  V30 149 C 14.3909 -3.3101 -1.34787 0
M  V30 150 C 14.2199 -4.48126 -0.375945 0
M  V30 151 C 12.9899 -5.05297 0.0166914 0
M  V30 152 C 15.1879 -5.1303 0.361272 0
M  V30 153 N 13.1699 -6.05931 0.985952 0
M  V30 154 C 14.5409 -6.08571 1.18495 0
M  V30 155 C 16.5959 -4.9609 0.42421 0
M  V30 156 C 15.2989 -6.88996 2.06584 0
M  V30 157 C 17.3249 -5.77107 1.29236 0
M  V30 158 C 16.6869 -6.72248 2.10386 0
M  V30 159 H 12.7859 -0.75096 -0.218136 0
M  V30 160 H 15.3699 -1.94572 0.0706669 0
M  V30 161 H 13.5409 -3.29342 -2.05884 0
M  V30 162 H 15.2729 -3.52864 -1.98164 0
M  V30 163 H 12.0279 -4.72279 -0.353435 0
M  V30 164 H 12.4519 -6.60932 1.4662 0
M  V30 165 H 17.0939 -4.22378 -0.188915 0
M  V30 166 H 14.8119 -7.62028 2.6896 0
M  V30 167 H 18.3979 -5.66038 1.34508 0
M  V30 168 H 17.2779 -7.33846 2.76476 0
M  V30 169 N 14.781 0.264519 -1.55364 0
M  V30 170 C 16.03 0.992812 -1.75574 0
M  V30 171 C 16.343 1.87142 -0.568979 0
M  V30 172 O 17.549 2.63513 -0.653682 0
M  V30 173 C 16.005 1.81519 -3.10771 0
M  V30 174 C 15.613 0.984839 -4.37041 0
M  V30 175 C 17.357 2.53727 -3.40327 0
M  V30 176 C 15.264 1.80209 -5.63275 0
M  V30 177 H 14.194 0.374412 -0.65447 0
M  V30 178 H 16.845 0.248138 -1.81815 0
M  V30 179 H 15.227 2.60115 -2.98591 0
M  V30 180 H 16.401 0.242455 -4.60162 0
M  V30 181 H 14.716 0.37691 -4.14691 0
M  V30 182 H 17.313 3.15292 -4.3185 0
M  V30 183 H 17.656 3.24447 -2.60845 0
M  V30 184 H 18.189 1.82156 -3.53644 0
M  V30 185 H 14.928 1.13896 -6.45529 0
M  V30 186 H 14.448 2.52022 -5.44284 0
M  V30 187 H 16.127 2.37364 -6.01887 0
M  V30 188 N 16.2591 1.48442 0.529413 0
M  V30 189 C 17.6701 1.5002 1.11134 0
M  V30 190 C 18.0211 0.27031 1.94329 0
M  V30 191 O 17.1461 -0.622507 2.07253 0
M  V30 192 C 17.7411 2.71834 2.02217 0
M  V30 193 C 16.3001 2.76283 2.55627 0
M  V30 194 C 15.4471 2.43542 1.326 0
M  V30 195 H 18.3981 1.5555 0.314641 0
M  V30 196 H 18.4191 2.50384 2.8651 0
M  V30 197 H 17.9311 3.61331 1.41639 0
M  V30 198 H 16.0321 1.90995 3.19924 0
M  V30 199 H 16.1451 3.77725 2.94721 0
M  V30 200 H 14.5091 1.94709 1.64196 0
M  V30 201 H 15.2921 3.3528 0.737734 0
M  V30 202 N 17.7372 -0.778329 1.37039 0
M  V30 203 C 18.6842 -1.89139 1.32269 0
M  V30 204 C 19.6542 -1.65017 0.189387 0
M  V30 205 O 20.8392 -1.87024 0.377693 0
M  V30 206 C 17.9792 -3.26112 1.12894 0
M  V30 207 C 17.0922 -3.62233 2.35396 0
M  V30 208 C 16.2272 -4.8838 2.08946 0
M  V30 209 C 15.2662 -5.17212 3.2735 0
M  V30 210 N 14.4032 -6.34546 3.00492 0
M  V30 211 H 19.2432 -1.92552 2.27437 0
M  V30 212 H 16.7802 -0.941473 1.13025 0
M  V30 213 H 18.7382 -4.05116 0.996835 0
M  V30 214 H 17.3682 -3.22091 0.213758 0
M  V30 215 H 16.4202 -2.78265 2.5937 0
M  V30 216 H 17.7322 -3.79481 3.23721 0
M  V30 217 H 16.8862 -5.75274 1.92729 0
M  V30 218 H 15.6252 -4.73222 1.17949 0
M  V30 219 H 14.6302 -4.28796 3.44113 0
M  V30 220 H 15.8552 -5.34283 4.19188 0
M  V30 221 H 13.8012 -6.20759 2.12118 0
M  V30 222 H 13.7182 -6.52179 3.82358 0
M  V30 223 H 14.9862 -7.24394 2.87879 0
M  V30 224 N 19.2153 -1.21501 -1.00376 0
M  V30 225 C 20.4643 -1.02718 -1.73586 0
M  V30 226 C 20.7773 0.439589 -1.90596 0
M  V30 227 O 21.9833 0.746848 -2.61026 0
M  V30 228 C 20.4393 -1.78929 -3.1227 0
M  V30 229 C 20.0473 -3.29783 -3.03228 0
M  V30 230 C 21.7913 -1.68557 -3.89601 0
M  V30 231 C 19.6983 -3.98479 -4.36999 0
M  V30 232 H 18.6283 -0.380733 -0.650814 0
M  V30 233 H 21.2793 -1.45248 -1.1214 0
M  V30 234 H 19.6613 -1.29192 -3.74333 0
M  V30 235 H 20.8353 -3.86832 -2.50395 0
M  V30 236 H 19.1503 -3.40711 -2.39385 0
M  V30 237 H 21.7473 -2.17211 -4.88593 0
M  V30 238 H 22.0903 -0.644021 -4.11288 0
M  V30 239 H 22.6233 -2.15778 -3.34193 0
M  V30 240 H 19.3623 -5.02841 -4.20513 0
M  V30 241 H 18.8823 -3.46219 -4.89788 0
M  V30 242 H 20.5613 -4.03462 -5.05794 0
M  V30 243 N 20.6934 1.19889 -1.02296 0
M  V30 244 C 21.9404 1.8942 -0.715972 0
M  V30 245 C 22.2684 1.79251 0.754944 0
M  V30 246 O 21.5234 1.17526 1.56481 0
M  V30 247 C 21.8224 3.39883 -1.10518 0
M  V30 248 C 21.4884 3.70254 -2.57337 0
M  V30 249 C 20.1504 3.78254 -2.97452 0
M  V30 250 C 22.5024 3.84052 -3.52354 0
M  V30 251 C 19.8304 3.97514 -4.31509 0
M  V30 252 C 22.1824 4.04824 -4.86108 0
M  V30 253 C 20.8464 4.11054 -5.25919 0
M  V30 254 H 20.1164 0.693138 -0.261993 0
M  V30 255 H 22.7634 1.42012 -1.28472 0
M  V30 256 H 21.0684 3.8915 -0.454953 0
M  V30 257 H 22.7654 3.9199 -0.845261 0
M  V30 258 H 19.3554 3.64632 -2.25258 0
M  V30 259 H 23.5394 3.77221 -3.22518 0
M  V30 260 H 18.7954 4.00574 -4.61898 0
M  V30 261 H 22.9694 4.14442 -5.59653 0
M  V30 262 H 20.5964 4.2573 -6.29808 0
M  V30 263 N 22.1715 0.800033 1.35784 0
M  V30 264 C 23.1185 0.203848 2.29898 0
M  V30 265 C 24.0885 -0.658375 1.52495 0
M  V30 266 O 25.2735 -0.604832 1.8096 0
M  V30 267 C 22.4135 -0.64688 3.38983 0
M  V30 268 C 21.5265 0.235054 4.3136 0
M  V30 269 C 20.6615 -0.623054 5.27533 0
M  V30 270 C 19.7005 0.259682 6.11549 0
M  V30 271 N 18.8375 -0.558019 6.99879 0
M  V30 272 H 23.6775 1.01186 2.80295 0
M  V30 273 H 21.2145 0.51053 1.37957 0
M  V30 274 H 23.1725 -1.15521 4.00887 0
M  V30 275 H 21.8025 -1.42021 2.89879 0
M  V30 276 H 20.8545 0.861438 3.70518 0
M  V30 277 H 22.1665 0.914768 4.9034 0
M  V30 278 H 21.3205 -1.19678 5.94779 0
M  V30 279 H 20.0595 -1.33636 4.69034 0
M  V30 280 H 19.0645 0.845726 5.43256 0
M  V30 281 H 20.2895 0.970748 6.72126 0
M  V30 282 H 18.2355 -1.25542 6.43875 0
M  V30 283 H 18.1525 0.0637872 7.55973 0
M  V30 284 H 19.4205 -1.11523 7.71481 0
M  V30 285 N 23.6496 -1.47581 0.552962 0
M  V30 286 C 24.5966 -2.29957 -0.197108 0
M  V30 287 C 25.5666 -1.38799 -0.912359 0
M  V30 288 O 26.7516 -1.67761 -0.908888 0
M  V30 289 C 23.8916 -3.22672 -1.22379 0
M  V30 290 C 23.0046 -4.28919 -0.515038 0
M  V30 291 C 22.1396 -5.0879 -1.52664 0
M  V30 292 C 21.1786 -6.06815 -0.802631 0
M  V30 293 N 20.3156 -6.7966 -1.76086 0
M  V30 294 H 25.1556 -2.93578 0.511486 0
M  V30 295 H 22.6926 -1.4471 0.264067 0
M  V30 296 H 24.6506 -3.74845 -1.83159 0
M  V30 297 H 23.2806 -2.60925 -1.90047 0
M  V30 298 H 22.3326 -3.79835 0.207192 0
M  V30 299 H 23.6446 -4.98773 0.0523425 0
M  V30 300 H 22.7986 -5.65091 -2.20809 0
M  V30 301 H 21.5376 -4.38828 -2.12794 0
M  V30 302 H 20.5426 -5.49695 -0.107238 0
M  V30 303 H 21.7676 -6.78784 -0.207135 0
M  V30 304 H 19.7136 -6.12432 -2.35081 0
M  V30 305 H 19.6306 -7.45669 -1.24552 0
M  V30 306 H 20.8986 -7.40538 -2.43359 0
M  V30 307 N 25.1277 -0.289203 -1.54924 0
M  V30 308 C 26.0747 0.592115 -2.23075 0
M  V30 309 C 27.0447 1.13881 -1.20915 0
M  V30 310 O 28.2297 1.18551 -1.495 0
M  V30 311 C 25.3697 1.76376 -2.96623 0
M  V30 312 C 24.4827 1.24959 -4.13533 0
M  V30 313 C 23.6177 2.38416 -4.74691 0
M  V30 314 C 22.6567 1.84072 -5.83767 0
M  V30 315 N 21.7937 2.91057 -6.38929 0
M  V30 316 H 26.6337 0.00432038 -2.98 0
M  V30 317 H 24.1707 -0.00963529 -1.47097 0
M  V30 318 H 26.1287 2.45268 -3.3749 0
M  V30 319 H 24.7587 2.32337 -2.24097 0
M  V30 320 H 23.8107 0.453307 -3.77689 0
M  V30 321 H 25.1227 0.811662 -4.92152 0
M  V30 322 H 24.2767 3.15276 -5.18349 0
M  V30 323 H 23.0157 2.8553 -3.95378 0
M  V30 324 H 22.0207 1.05697 -5.39545 0
M  V30 325 H 23.2457 1.37877 -6.64956 0
M  V30 326 H 21.1917 3.37526 -5.62505 0
M  V30 327 H 21.1087 2.51724 -7.12861 0
M  V30 328 H 22.3767 3.6785 -6.87246 0
M  V30 329 N 26.6058 1.57591 -0.0167156 0
M  V30 330 C 27.8338 1.95575 0.675128 0
M  V30 331 C 28.2488 0.892542 1.6637 0
M  V30 332 O 27.6058 -0.126912 1.82058 0
M  V30 333 C 27.6568 3.33608 1.39239 0
M  V30 334 O 27.3778 4.3585 0.443444 0
M  V30 335 C 28.8788 3.86151 2.17721 0
M  V30 336 H 26.0988 0.644423 0.186978 0
M  V30 337 H 28.6428 2.0437 -0.0728 0
M  V30 338 H 26.7978 3.2607 2.09182 0
M  V30 339 H 27.2118 5.158 0.951358 0
M  V30 340 H 28.6858 4.85114 2.63379 0
M  V30 341 H 29.1628 3.19738 3.01105 0
M  V30 342 H 29.7688 3.96918 1.52761 0
M  V30 343 N 28.0839 -0.256276 1.55502 0
M  V30 344 C 29.3239 -0.993081 1.78654 0
M  V30 345 C 29.6879 -1.8288 0.584724 0
M  V30 346 O 30.8889 -2.59665 0.694822 0
M  V30 347 C 29.1599 -1.83856 3.06483 0
M  V30 348 S 30.7189 -2.63573 3.5082 0
M  V30 349 H 27.5369 -0.334199 0.62756 0
M  V30 350 H 30.1389 -0.26184 1.93739 0
M  V30 351 H 28.8429 -1.21414 3.92029 0
M  V30 352 H 28.3739 -2.61271 2.94111 0
M  V30 353 H 30.3889 -3.86312 3.11412 0
M  V30 354 N 29.562 -1.4872 -0.521534 0
M  V30 355 C 30.79 -1.60843 -1.30142 0
M  V30 356 C 31.205 -0.271897 -1.86832 0
M  V30 357 O 30.562 0.739969 -1.66825 0
M  V30 358 C 30.613 -2.66155 -2.4463 0
M  V30 359 O 30.334 -3.94623 -1.90275 0
M  V30 360 C 31.835 -2.88795 -3.36322 0
M  V30 361 H 29.055 -0.542075 -0.395468 0
M  V30 362 H 31.599 -1.94609 -0.628285 0
M  V30 363 H 29.754 -2.35224 -3.07812 0
M  V30 364 H 30.168 -4.52468 -2.65279 0
M  V30 365 H 31.642 -3.66264 -4.12983 0
M  V30 366 H 32.119 -1.97934 -3.9207 0
M  V30 367 H 32.725 -3.21063 -2.78924 0
M  V30 368 N 31.0401 0.771051 -1.3745 0
M  V30 369 C 32.2681 1.56015 -1.35893 0
M  V30 370 C 32.6831 1.88718 0.0555523 0
M  V30 371 O 32.0401 1.51502 1.01752 0
M  V30 372 C 32.0911 2.87001 -2.19801 0
M  V30 373 O 31.8121 2.557 -3.55738 0
M  V30 374 C 33.3131 3.81228 -2.26231 0
M  V30 375 H 30.5331 0.483317 -0.465453 0
M  V30 376 H 33.0771 0.955611 -1.80799 0
M  V30 377 H 31.2321 3.43877 -1.78402 0
M  V30 378 H 31.6461 3.39584 -3.99729 0
M  V30 379 H 33.1201 4.70139 -2.89263 0
M  V30 380 H 33.5971 4.20409 -1.27093 0
M  V30 381 H 34.2031 3.30281 -2.67945 0
M  V30 382 N 32.5182 1.22032 0.997298 0
M  V30 383 C 33.7652 1.04222 1.73621 0
M  V30 384 C 34.0932 -0.423264 1.89839 0
M  V30 385 O 33.3482 -1.3302 1.43542 0
M  V30 386 C 33.6472 1.69345 3.14733 0
M  V30 387 C 33.3132 3.19226 3.18442 0
M  V30 388 C 31.9752 3.60124 3.19161 0
M  V30 389 C 34.3272 4.15181 3.15078 0
M  V30 390 C 31.6552 4.95467 3.14212 0
M  V30 391 C 34.0072 5.50495 3.1167 0
M  V30 392 C 32.6712 5.90779 3.10703 0
M  V30 393 H 31.9412 0.381374 0.635323 0
M  V30 394 H 34.5882 1.51732 1.16831 0
M  V30 395 H 32.8932 1.14147 3.74803 0
M  V30 396 H 34.5902 1.53059 3.7064 0
M  V30 397 H 31.1802 2.86659 3.18629 0
M  V30 398 H 35.3642 3.84605 3.13676 0
M  V30 399 H 30.6202 5.25916 3.11805 0
M  V30 400 H 34.7942 6.24576 3.08022 0
M  V30 401 H 32.4212 6.9562 3.06622 0
M  V30 402 N 33.9963 -1.19345 1.0293 0
M  V30 403 C 35.2453 -1.88363 0.721256 0
M  V30 404 C 35.5583 -1.80514 -0.753254 0
M  V30 405 O 36.7643 -2.44788 -1.17436 0
M  V30 406 C 35.2203 -3.37872 1.23978 0
M  V30 407 C 34.8283 -3.54278 2.74211 0
M  V30 408 C 36.5723 -4.12365 1.00775 0
M  V30 409 C 34.4793 -4.97682 3.19479 0
M  V30 410 H 33.4093 -0.705484 0.266098 0
M  V30 411 H 36.0603 -1.34928 1.24365 0
M  V30 412 H 34.4423 -3.90707 0.6453 0
M  V30 413 H 35.6163 -3.11769 3.39318 0
M  V30 414 H 33.9313 -2.93174 2.95699 0
M  V30 415 H 36.5283 -5.18119 1.32123 0
M  V30 416 H 36.8713 -4.16263 -0.0554308 0
M  V30 417 H 37.4043 -3.65668 1.56625 0
M  V30 418 H 34.1433 -4.98945 4.25128 0
M  V30 419 H 33.6633 -5.4095 2.591 0
M  V30 420 H 35.3423 -5.66337 3.12845 0
M  V30 421 N 35.4744 -0.807222 -1.35358 0
M  V30 422 C 36.7204 -0.388463 -1.99045 0
M  V30 423 C 37.0534 1.04184 -1.63888 0
M  V30 424 O 36.3284 1.72292 -0.902535 0
M  V30 425 C 36.6114 -0.572783 -3.55515 0
M  V30 426 C 36.4644 -2.04807 -4.00468 0
M  V30 427 C 37.7834 0.00114064 -4.401 0
M  V30 428 H 34.9024 -0.142619 -0.723069 0
M  V30 429 H 37.5444 -1.01687 -1.60498 0
M  V30 430 H 35.6944 -0.0378425 -3.88482 0
M  V30 431 H 37.3664 -2.64544 -3.77908 0
M  V30 432 H 35.6094 -2.54427 -3.51353 0
M  V30 433 H 36.2804 -2.12792 -5.09337 0
M  V30 434 H 38.7564 -0.455716 -4.13597 0
M  V30 435 H 37.6324 -0.157737 -5.48673 0
M  V30 436 H 37.8934 1.09488 -4.28328 0
M  V30 437 N 36.9525 1.47285 -0.560781 0
M  V30 438 C 38.2295 1.9558 0.0277798 0
M  V30 439 C 38.6095 1.5034 1.48192 0
M  V30 440 O 37.9575 0.743882 2.16052 0
M  V30 441 C 38.1675 3.48789 -0.121418 0
M  V30 442 C 39.5155 4.24594 0.0220912 0
M  V30 443 O 40.5395 3.56166 -0.0491439 0
M  V30 444 O 39.3985 5.46217 0.175958 0
M  V30 445 H 36.4925 0.824663 0.0621342 0
M  V30 446 H 39.0385 1.5767 -0.627556 0
M  V30 447 H 37.8105 3.74533 -1.13316 0
M  V30 448 H 37.4335 3.93473 0.571366 0
M  V30 449 N 38.4306 0.297415 1.54768 0
M  V30 450 C 39.6556 -0.318435 2.04941 0
M  V30 451 C 40.0806 -1.4701 1.17345 0
M  V30 452 O 39.4386 -1.80436 0.176758 0
M  V30 453 C 39.4866 -0.755749 3.52592 0
M  V30 454 O 38.5906 -1.86088 3.68028 0
M  V30 455 H 37.9316 -0.062421 0.661059 0
M  V30 456 H 40.4616 0.438215 1.99852 0
M  V30 457 H 40.4716 -1.04552 3.94376 0
M  V30 458 H 39.1466 0.0867233 4.1581 0
M  V30 459 H 37.7236 -1.57193 3.38149 0
M  V30 460 N 39.9087 -1.5758 0.0250728 0
M  V30 461 C 41.1367 -1.9593 -0.664747 0
M  V30 462 C 41.5517 -0.901352 -1.65895 0
M  V30 463 O 40.9087 0.117255 -1.82123 0
M  V30 464 C 40.9597 -3.34342 -1.37468 0
M  V30 465 O 40.6807 -4.36079 -0.420324 0
M  V30 466 C 42.1817 -3.873 -2.1567 0
M  V30 467 H 39.4017 -0.645405 -0.183557 0
M  V30 468 H 41.9457 -2.04329 0.0836372 0
M  V30 469 H 40.1007 -3.27175 -2.0745 0
M  V30 470 H 40.5147 -5.16297 -0.923991 0
M  V30 471 H 41.9887 -4.86504 -2.60803 0
M  V30 472 H 42.4657 -3.21331 -2.99405 0
M  V30 473 H 43.0717 -3.97723 -1.50654 0
M  V30 474 N 41.3868 0.248026 -1.55636 0
M  V30 475 C 42.6638 0.998988 -1.68165 0
M  V30 476 C 43.0438 2.03409 -0.564621 0
M  V30 477 O 42.3918 2.24378 0.432076 0
M  V30 478 C 42.6018 1.63334 -3.0842 0
M  V30 479 C 43.9498 2.13562 -3.66983 0
M  V30 480 O 44.9738 1.73277 -3.11213 0
M  V30 481 O 43.8328 2.87526 -4.64749 0
M  V30 482 H 40.9268 0.464933 -0.683935 0
M  V30 483 H 43.4728 0.241902 -1.67967 0
M  V30 484 H 42.2448 0.884583 -3.8117 0
M  V30 485 H 41.8678 2.45666 -3.12624 0
M  V30 486 N 42.8649 1.48995 0.513639 0
M  V30 487 C 44.2759 1.5119 1.09537 0
M  V30 488 C 44.6269 0.290906 1.94031 0
M  V30 489 O 43.7519 -0.60049 2.07902 0
M  V30 490 C 44.3469 2.73964 1.99322 0
M  V30 491 C 42.9059 2.78978 2.52682 0
M  V30 492 C 42.0529 2.44934 1.30009 0
M  V30 493 H 45.0039 1.55875 0.298125 0
M  V30 494 H 45.0249 2.53409 2.83838 0
M  V30 495 H 44.5369 3.62813 1.37799 0
M  V30 496 H 42.6379 1.94378 3.1788 0
M  V30 497 H 42.7509 3.8083 2.90698 0
M  V30 498 H 41.1149 1.9644 1.62122 0
M  V30 499 H 41.8979 3.36043 0.702131 0
M  V30 500 N 44.343 -0.763751 1.37857 0
M  V30 501 C 45.591 -1.51957 1.33243 0
M  V30 502 C 45.912 -1.94835 -0.0801709 0
M  V30 503 O 45.182 -1.66894 -1.02582 0
M  V30 504 H 43.762 -0.563626 0.49024 0
M  V30 505 H 46.424 -0.908504 1.7243 0
M  V30 506 H 45.52 -2.41523 1.97669 0
M  V30 507 N 45.8211 -1.22559 -0.990812 0
M  V30 508 C 47.0691 -1.04933 -1.72724 0
M  V30 509 C 47.3901 0.416158 -1.90508 0
M  V30 510 O 46.6601 1.29918 -1.46622 0
M  V30 511 H 45.2401 -0.385296 -0.639965 0
M  V30 512 H 47.9021 -1.54105 -1.19322 0
M  V30 513 H 46.9981 -1.52886 -2.72089 0
M  V30 514 N 47.2992 1.18797 -1.03562 0
M  V30 515 C 48.5272 1.92599 -0.755869 0
M  V30 516 C 48.9422 1.75886 0.686271 0
M  V30 517 O 48.2992 1.08517 1.46732 0
M  V30 518 C 48.3502 3.44159 -1.10619 0
M  V30 519 O 48.0712 3.60341 -2.4917 0
M  V30 520 C 49.5722 4.3507 -0.850214 0
M  V30 521 H 46.7922 0.611587 -0.276048 0
M  V30 522 H 49.3362 1.50742 -1.38192 0
M  V30 523 H 47.4912 3.83823 -0.525194 0
M  V30 524 H 47.9052 4.54128 -2.62427 0
M  V30 525 H 49.3792 5.39989 -1.14523 0
M  V30 526 H 49.8562 4.38673 0.215176 0
M  V30 527 H 50.4622 4.01097 -1.41426 0
M  V30 528 N 48.7773 0.814389 1.34928 0
M  V30 529 C 49.7073 0.244827 2.32213 0
M  V30 530 C 50.6883 -0.634024 1.57842 0
M  V30 531 O 51.8733 -0.562676 1.8587 0
M  V30 532 C 49.0033 -0.601106 3.42058 0
M  V30 533 C 47.9573 0.179896 4.27622 0
M  V30 534 C 47.2833 -0.788237 5.28858 0
M  V30 535 C 48.5833 1.38329 5.03649 0
M  V30 536 H 50.2773 1.05763 2.80097 0
M  V30 537 H 47.8233 0.510029 1.34665 0
M  V30 538 H 49.7763 -1.00968 4.09125 0
M  V30 539 H 48.5003 -1.44688 2.92802 0
M  V30 540 H 47.1593 0.569739 3.62146 0
M  V30 541 H 46.8073 -1.62973 4.75866 0
M  V30 542 H 46.5073 -0.269942 5.8698 0
M  V30 543 H 48.0313 -1.19485 5.98795 0
M  V30 544 H 49.4453 1.04918 5.63618 0
M  V30 545 H 47.8423 1.83662 5.71304 0
M  V30 546 H 48.9123 2.16592 4.33839 0
M  V30 547 N 50.2554 -1.46986 0.568584 0
M  V30 548 C 51.4954 -2.04336 0.0512999 0
M  V30 549 C 51.8594 -1.43214 -1.27881 0
M  V30 550 O 53.0604 -1.91679 -1.88448 0
M  V30 551 C 51.3314 -3.57389 -0.0282328 0
M  V30 552 S 52.8904 -4.36056 -0.489991 0
M  V30 553 H 49.7084 -0.71034 0.0306349 0
M  V30 554 H 52.3104 -1.80212 0.757891 0
M  V30 555 H 51.0144 -3.99395 0.944011 0
M  V30 556 H 50.5454 -3.86028 -0.75803 0
M  V30 557 H 52.5604 -4.6441 -1.74752 0
M  V30 558 N 51.7335 -0.305618 -1.54608 0
M  V30 559 C 52.6655 0.602161 -2.21149 0
M  V30 560 C 53.6785 1.09394 -1.20569 0
M  V30 561 O 54.8675 1.0106 -1.47136 0
M  V30 562 C 51.9675 1.83692 -2.84799 0
M  V30 563 C 51.1405 1.48686 -4.11353 0
M  V30 564 C 50.1995 2.57725 -4.58764 0
M  V30 565 O 49.2255 2.22623 -5.23858 0
M  V30 566 N 50.4275 3.88346 -4.31471 0
M  V30 567 H 53.1925 0.0324966 -2.99682 0
M  V30 568 H 50.7535 -0.128021 -1.61393 0
M  V30 569 H 52.7455 2.55994 -3.13448 0
M  V30 570 H 51.3155 2.31486 -2.10078 0
M  V30 571 H 50.5355 0.596269 -3.89664 0
M  V30 572 H 51.8235 1.22842 -4.93748 0
M  V30 573 H 51.2215 4.19671 -3.79331 0
M  V30 574 H 49.7785 4.56932 -4.64818 0
M  V30 575 N 53.2116 1.57565 -0.0334293 0
M  V30 576 C 54.4516 1.93844 0.648379 0
M  V30 577 C 54.8156 0.910387 1.69044 0
M  V30 578 O 56.0166 1.15952 2.42505 0
M  V30 579 C 54.2876 3.35017 1.24492 0
M  V30 580 S 55.8466 3.93229 1.94721 0
M  V30 581 H 52.6646 0.678231 0.213364 0
M  V30 582 H 55.2666 1.95254 -0.0981253 0
M  V30 583 H 53.9706 4.07652 0.474128 0
M  V30 584 H 53.5016 3.37061 2.02864 0
M  V30 585 H 55.5166 3.77014 3.22606 0
M  V30 586 N 54.6897 -0.239769 1.55765 0
M  V30 587 C 55.9377 -0.964892 1.77579 0
M  V30 588 C 56.2587 -1.85582 0.598699 0
M  V30 589 O 55.5287 -1.92075 -0.385226 0
M  V30 590 H 54.1087 -0.359265 0.654933 0
M  V30 591 H 56.7707 -0.256001 1.93211 0
M  V30 592 H 55.8667 -1.58243 2.69009 0
M  V30 593 N 56.1678 -1.49265 -0.50573 0
M  V30 594 C 57.5838 -1.35923 -0.836486 0
M  V30 595 C 57.7838 -0.388704 -1.97715 0
M  V30 596 O 56.8398 0.181336 -2.51848 0
M  V30 597 C 58.1528 -2.76531 -1.18115 0
M  V30 598 C 59.7008 -2.85197 -1.28964 0
M  V30 599 C 60.1758 -4.26561 -1.66761 0
M  V30 600 N 61.6668 -4.2935 -1.73819 0
M  V30 601 C 62.4018 -5.35693 -2.045 0
M  V30 602 N 61.8978 -6.52287 -2.33438 0
M  V30 603 N 63.6908 -5.23105 -2.05711 0
M  V30 604 H 55.8418 -2.10965 0.246519 0
M  V30 605 H 58.1048 -0.9468 0.0476887 0
M  V30 606 H 57.8108 -3.49226 -0.416398 0
M  V30 607 H 57.6848 -3.11599 -2.1257 0
M  V30 608 H 60.0718 -2.12742 -2.04511 0
M  V30 609 H 60.1528 -2.53718 -0.325704 0
M  V30 610 H 59.7968 -4.99541 -0.917656 0
M  V30 611 H 59.7268 -4.55502 -2.64246 0
M  V30 612 H 62.2178 -3.4526 -1.53635 0
M  V30 613 H 62.5308 -7.29158 -2.56024 0
M  V30 614 H 60.8758 -6.55521 -2.30905 0
M  V30 615 H 64.0668 -4.31026 -1.82577 0
M  V30 616 H 64.2398 -6.06078 -2.29289 0
M  V30 617 N 57.6459 0.756429 -1.3826 0
M  V30 618 C 59.0569 1.33359 -1.30661 0
M  V30 619 C 59.4079 1.96161 0.0388875 0
M  V30 620 O 58.5329 1.94874 0.940918 0
M  V30 621 C 59.1279 2.42477 -2.36622 0
M  V30 622 C 57.6869 2.95922 -2.3261 0
M  V30 623 C 56.8339 1.69275 -2.19639 0
M  V30 624 H 59.7849 0.55552 -1.4866 0
M  V30 625 H 59.8059 3.22345 -2.02174 0
M  V30 626 H 59.3179 1.96739 -3.34538 0
M  V30 627 H 57.4189 3.45996 -1.38267 0
M  V30 628 H 57.5319 3.50494 -3.26636 0
M  V30 629 H 55.8959 1.92793 -1.66442 0
M  V30 630 H 56.6789 1.25619 -3.19491 0
M  V30 631 N 59.124 1.23083 0.984299 0
M  V30 632 C 60.54 0.992637 1.24975 0
M  V30 633 C 60.74 -0.308618 1.99123 0
M  V30 634 O 59.796 -1.02905 2.30579 0
M  V30 635 C 61.109 2.19698 2.05312 0
M  V30 636 C 62.657 2.24147 2.18465 0
M  V30 637 C 63.132 3.44157 3.02192 0
M  V30 638 N 64.623 3.44372 3.09777 0
M  V30 639 C 65.358 4.33886 3.74874 0
M  V30 640 N 64.854 5.3363 4.41827 0
M  V30 641 N 66.647 4.21639 3.71721 0
M  V30 642 H 58.798 2.06731 0.487453 0
M  V30 643 H 61.061 0.906339 0.277944 0
M  V30 644 H 60.767 3.1411 1.58201 0
M  V30 645 H 60.641 2.20465 3.06064 0
M  V30 646 H 63.028 1.30277 2.64786 0
M  V30 647 H 63.109 2.27415 1.17115 0
M  V30 648 H 62.753 4.38332 2.56568 0
M  V30 649 H 62.683 3.3813 4.03702 0
M  V30 650 H 65.174 2.72201 2.62135 0
M  V30 651 H 65.487 5.98196 4.89266 0
M  V30 652 H 63.832 5.37534 4.40548 0
M  V30 653 H 67.023 3.42962 3.18582 0
M  V30 654 H 67.196 4.91604 4.22173 0
M  V30 655 N 60.6021 -1.18246 1.0419 0
M  V30 656 C 61.8301 -1.92195 0.766072 0
M  V30 657 C 62.2451 -1.76247 -0.676933 0
M  V30 658 O 61.6021 -1.09293 -1.46155 0
M  V30 659 C 61.6531 -3.43568 1.12442 0
M  V30 660 O 61.3741 -3.59015 2.51078 0
M  V30 661 C 62.8751 -4.34613 0.873275 0
M  V30 662 H 60.0951 -0.610114 0.279288 0
M  V30 663 H 62.6391 -1.50007 1.38989 0
M  V30 664 H 60.7941 -3.8354 0.545542 0
M  V30 665 H 61.2081 -4.5273 2.64831 0
M  V30 666 H 62.6821 -5.39374 1.17385 0
M  V30 667 H 63.1591 -4.38781 -0.191909 0
M  V30 668 H 63.7651 -4.00341 1.43551 0
M  V30 669 N 62.0802 -0.821533 -1.34494 0
M  V30 670 C 63.0432 -0.247847 -2.27856 0
M  V30 671 C 64.0432 0.573453 -1.50227 0
M  V30 672 O 65.2332 0.389759 -1.69784 0
M  V30 673 C 62.3652 0.652698 -3.34593 0
M  V30 674 H 63.5582 -1.07146 -2.80107 0
M  V30 675 H 61.1112 -0.593291 -1.44602 0
M  V30 676 H 61.8462 1.49943 -2.87555 0
M  V30 677 H 61.6312 0.065292 -3.92046 0
M  V30 678 H 63.1212 1.04793 -4.04238 0
M  V30 679 N 63.5583 1.46682 -0.576371 0
M  V30 680 C 64.5083 2.27278 0.181288 0
M  V30 681 C 65.4923 1.35497 0.867721 0
M  V30 682 O 66.6843 1.59717 0.762863 0
M  V30 683 C 63.8133 3.21703 1.19841 0
M  V30 684 C 62.8993 4.20969 0.51442 0
M  V30 685 N 63.2903 5.03999 -0.426407 0
M  V30 686 C 61.5883 4.39373 0.765963 0
M  V30 687 C 62.2893 5.75812 -0.825565 0
M  V30 688 N 61.2653 5.43315 -0.176116 0
M  V30 689 H 65.0673 2.88863 -0.541785 0
M  V30 690 H 62.5813 1.57455 -0.397697 0
M  V30 691 H 64.5783 3.78145 1.75533 0
M  V30 692 H 63.2383 2.61677 1.92238 0
M  V30 693 H 64.2493 5.11659 -0.8016 0
M  V30 694 H 60.9263 3.90502 1.47698 0
M  V30 695 H 62.3163 6.52577 -1.59976 0
M  V30 696 N 65.0364 0.313813 1.54444 0
M  V30 697 C 66.4474 -0.176243 1.85866 0
M  V30 698 C 66.7984 -1.52405 1.23561 0
M  V30 699 O 65.9234 -2.09605 0.538016 0
M  V30 700 C 66.5184 -0.32657 3.37222 0
M  V30 701 C 65.0774 -0.760846 3.6863 0
M  V30 702 C 64.2244 0.123247 2.77026 0
M  V30 703 H 67.1754 0.534418 1.49431 0
M  V30 704 H 67.1964 -1.15908 3.62416 0
M  V30 705 H 66.7084 0.654531 3.82541 0
M  V30 706 H 64.8094 -1.75204 3.28838 0
M  V30 707 H 64.9224 -0.571353 4.75681 0
M  V30 708 H 63.2864 -0.399597 2.51546 0
M  V30 709 H 64.0694 1.10094 3.25168 0
M  V30 710 N 66.5145 -1.57545 0.0417849 0
M  V30 711 C 67.4775 -2.09885 -0.92093 0
M  V30 712 C 68.4775 -1.01648 -1.24596 0
M  V30 713 O 69.6675 -1.27759 -1.1842 0
M  V30 714 C 66.7995 -2.57527 -2.23367 0
M  V30 715 H 67.9925 -2.96236 -0.467382 0
M  V30 716 H 65.5455 -1.5493 -0.206467 0
M  V30 717 H 66.2805 -1.74542 -2.73323 0
M  V30 718 H 66.0655 -3.36613 -2.01083 0
M  V30 719 H 67.5555 -2.98201 -2.92346 0
M  V30 720 N 67.9926 0.231505 -1.5589 0
M  V30 721 C 69.2386 0.95877 -1.78705 0
M  V30 722 C 69.5716 1.8438 -0.609725 0
M  V30 723 O 68.8466 1.90521 0.391426 0
M  V30 724 C 69.1296 1.8062 -3.11526 0
M  V30 725 C 68.9826 0.948328 -4.39689 0
M  V30 726 C 70.3016 2.78585 -3.40703 0
M  V30 727 H 67.4206 0.347129 -0.650131 0
M  V30 728 H 70.0626 0.228259 -1.88624 0
M  V30 729 H 68.2126 2.42902 -3.03201 0
M  V30 730 H 69.8846 0.343016 -4.60023 0
M  V30 731 H 68.1276 0.253314 -4.3306 0
M  V30 732 H 68.7986 1.57543 -5.29041 0
M  V30 733 H 71.2746 2.26439 -3.49091 0
M  V30 734 H 70.1506 3.34988 -4.34826 0
M  V30 735 H 70.4116 3.55825 -2.62375 0
M  V30 736 N 69.4707 1.49531 0.497807 0
M  V30 737 C 70.4337 1.65916 1.58128 0
M  V30 738 C 71.4337 0.530825 1.51786 0
M  V30 739 O 72.6237 0.797342 1.54881 0
M  V30 740 C 69.7557 1.65951 2.9778 0
M  V30 741 H 70.9487 2.62556 1.44929 0
M  V30 742 H 68.5017 1.38611 0.722275 0
M  V30 743 H 69.2367 0.709065 3.16453 0
M  V30 744 H 69.0217 2.47897 3.03792 0
M  V30 745 H 70.5117 1.80673 3.76493 0
M  V30 746 N 70.9488 -0.749086 1.3866 0
M  V30 747 C 71.8818 -1.87111 1.30631 0
M  V30 748 C 72.8598 -1.61572 0.18251 0
M  V30 749 O 74.0438 -1.85019 0.360592 0
M  V30 750 C 71.1708 -3.22815 1.02511 0
M  V30 751 C 70.2168 -3.67234 2.1689 0
M  V30 752 S 71.0498 -3.78245 3.79066 0
M  V30 753 C 72.2058 -5.16761 3.53142 0
M  V30 754 H 72.4388 -1.93636 2.25594 0
M  V30 755 H 69.9718 -0.912525 1.24549 0
M  V30 756 H 71.9298 -4.01181 0.869701 0
M  V30 757 H 70.5908 -3.13964 0.0925884 0
M  V30 758 H 69.7838 -4.65677 1.92771 0
M  V30 759 H 69.3858 -2.96034 2.28561 0
M  V30 760 H 71.6778 -6.02656 3.09534 0
M  V30 761 H 72.6208 -5.45902 4.50995 0
M  V30 762 H 73.0288 -4.85771 2.87554 0
M  V30 763 N 72.4269 -1.23603 -0.977757 0
M  V30 764 C 73.3369 -1.03632 -2.1047 0
M  V30 765 C 74.3529 0.0199435 -1.73989 0
M  V30 766 O 75.5289 -0.176076 -2.00629 0
M  V30 767 C 72.5939 -0.63276 -3.40877 0
M  V30 768 C 71.6549 -1.76437 -3.91367 0
M  V30 769 C 70.8879 -1.37997 -5.15551 0
M  V30 770 O 71.1109 -0.265357 -5.69782 0
M  V30 771 O 70.0449 -2.20201 -5.60174 0
M  V30 772 H 73.8709 -1.98086 -2.30208 0
M  V30 773 H 71.4559 -1.02332 -1.08851 0
M  V30 774 H 73.3379 -0.418761 -4.19314 0
M  V30 775 H 72.0129 0.282754 -3.22463 0
M  V30 776 H 70.9199 -2.03304 -3.14036 0
M  V30 777 H 72.2529 -2.6583 -4.14241 0
M  V30 778 N 73.905 1.17692 -1.04816 0
M  V30 779 C 75.182 1.83768 -0.669963 0
M  V30 780 C 75.562 1.93232 0.849986 0
M  V30 781 O 74.91 1.46397 1.75443 0
M  V30 782 C 75.12 3.21641 -1.35455 0
M  V30 783 C 76.468 3.97592 -1.49017 0
M  V30 784 O 77.492 3.31107 -1.31326 0
M  V30 785 O 76.351 5.16729 -1.77914 0
M  V30 786 H 73.445 0.792799 -0.235368 0
M  V30 787 H 75.991 1.25021 -1.14751 0
M  V30 788 H 74.763 3.097 -2.39168 0
M  V30 789 H 74.386 3.88052 -0.866107 0
M  V30 790 N 75.3831 0.828654 1.34056 0
M  V30 791 C 76.3461 0.259927 2.27721 0
M  V30 792 C 77.3461 -0.565478 1.50529 0
M  V30 793 O 78.5361 -0.38075 1.69988 0
M  V30 794 C 75.6681 -0.634944 3.34935 0
M  V30 795 H 76.8611 1.0863 2.79534 0
M  V30 796 H 74.4141 0.600951 1.44285 0
M  V30 797 H 75.1491 -1.48416 2.88346 0
M  V30 798 H 74.9341 -0.0444999 3.92075 0
M  V30 799 H 76.4241 -1.02648 4.04788 0
M  V30 800 N 76.8612 -1.46375 0.584142 0
M  V30 801 C 78.1082 -2.02378 0.0702675 0
M  V30 802 C 78.4362 -1.45545 -1.29023 0
M  V30 803 O 77.6912 -0.610967 -1.85918 0
M  V30 804 C 77.9902 -3.57373 -0.0439342 0
M  V30 805 C 77.6562 -4.33252 1.24915 0
M  V30 806 C 76.3182 -4.53701 1.60341 0
M  V30 807 C 78.6702 -4.7681 2.1048 0
M  V30 808 C 75.9982 -5.1496 2.81128 0
M  V30 809 C 78.3502 -5.39404 3.30494 0
M  V30 810 C 77.0142 -5.5808 3.66201 0
M  V30 811 H 76.2842 -0.740554 0.0257127 0
M  V30 812 H 78.9312 -1.75727 0.761065 0
M  V30 813 H 77.2362 -3.83169 -0.817869 0
M  V30 814 H 78.9332 -3.98384 -0.457318 0
M  V30 815 H 75.5232 -4.17633 0.963364 0
M  V30 816 H 79.7072 -4.60766 1.84414 0
M  V30 817 H 74.9632 -5.27611 3.08928 0
M  V30 818 H 79.1372 -5.72114 3.97063 0
M  V30 819 H 76.7642 -6.05318 4.59885 0
M  V30 820 N 78.3393 -0.321999 -1.54275 0
M  V30 821 C 79.5873 0.280489 -2.00144 0
M  V30 822 C 79.9083 1.52777 -1.21178 0
M  V30 823 O 79.1783 1.9338 -0.313187 0
M  V30 824 H 77.7583 0.106632 -0.73935 0
M  V30 825 H 80.4203 -0.438184 -1.8991 0
M  V30 826 H 79.5163 0.537972 -3.07428 0
M  V30 827 N 79.8174 1.5752 -0.0501392 0
M  V30 828 C 80.7804 2.1037 0.909786 0
M  V30 829 C 81.7804 1.02308 1.24056 0
M  V30 830 O 82.9704 1.28385 1.17741 0
M  V30 831 C 80.1024 2.58708 2.21998 0
M  V30 832 H 81.2954 2.96479 0.451665 0
M  V30 833 H 78.8484 1.55038 0.198248 0
M  V30 834 H 79.5834 1.75989 2.72394 0
M  V30 835 H 79.3684 3.37675 1.99295 0
M  V30 836 H 80.8584 2.99747 2.9076 0
M  V30 837 N 81.2955 -0.223234 1.56011 0
M  V30 838 C 82.2585 -1.26014 1.9145 0
M  V30 839 C 83.2585 -1.3989 0.792937 0
M  V30 840 O 84.4485 -1.38184 1.0607 0
M  V30 841 C 81.5805 -2.63422 2.16383 0
M  V30 842 H 82.7735 -0.95796 2.84189 0
M  V30 843 H 80.3265 -0.463576 1.49267 0
M  V30 844 H 81.0615 -2.98741 1.2619 0
M  V30 845 H 80.8465 -2.54728 2.98088 0
M  V30 846 H 82.3365 -3.38249 2.44903 0
M  V30 847 N 82.7736 -1.49793 -0.48987 0
M  V30 848 C 84.0196 -1.60078 -1.24511 0
M  V30 849 C 84.3526 -0.291608 -1.91998 0
M  V30 850 O 83.6276 0.705647 -1.81248 0
M  V30 851 C 83.9106 -2.76791 -2.30345 0
M  V30 852 C 83.7636 -4.17535 -1.67286 0
M  V30 853 C 85.0826 -2.89111 -3.31817 0
M  V30 854 H 82.2016 -0.582645 -0.451324 0
M  V30 855 H 84.8436 -1.82117 -0.541612 0
M  V30 856 H 82.9936 -2.5813 -2.90346 0
M  V30 857 H 84.6656 -4.4774 -1.11026 0
M  V30 858 H 82.9086 -4.22665 -0.976577 0
M  V30 859 H 83.5796 -4.95094 -2.44103 0
M  V30 860 H 86.0556 -3.06133 -2.81819 0
M  V30 861 H 84.9316 -3.72433 -4.03219 0
M  V30 862 H 85.1926 -1.9893 -3.94815 0
M  V30 863 N 84.2517 0.741722 -1.39055 0
M  V30 864 C 85.4977 1.50336 -1.36113 0
M  V30 865 C 85.8307 1.94148 0.0450796 0
M  V30 866 O 85.1057 1.66301 1.00868 0
M  V30 867 C 85.3887 2.74773 -2.32749 0
M  V30 868 C 85.2417 2.37023 -3.82283 0
M  V30 869 C 86.5607 3.76846 -2.27322 0
M  V30 870 H 83.6797 0.545351 -0.495743 0
M  V30 871 H 86.3217 0.848624 -1.69995 0
M  V30 872 H 84.4717 3.30639 -2.03986 0
M  V30 873 H 86.1437 1.8684 -4.21768 0
M  V30 874 H 84.3867 1.69334 -3.99385 0
M  V30 875 H 85.0577 3.26104 -4.45376 0
M  V30 876 H 87.5337 3.30548 -2.5274 0
M  V30 877 H 86.4097 4.6159 -2.97028 0
M  V30 878 H 86.6707 4.23286 -1.27599 0
M  V30 879 N 85.7298 1.2412 0.971189 0
M  V30 880 C 86.9578 1.10575 1.74874 0
M  V30 881 C 87.3728 -0.342017 1.85676 0
M  V30 882 O 86.7298 -1.23617 1.34258 0
M  V30 883 C 86.7808 1.73579 3.171 0
M  V30 884 O 86.5018 3.12695 3.06844 0
M  V30 885 C 88.0028 1.65598 4.11208 0
M  V30 886 H 85.2228 0.386504 0.548503 0
M  V30 887 H 87.7668 1.64156 1.21955 0
M  V30 888 H 85.9218 1.24009 3.67016 0
M  V30 889 H 86.3358 3.43412 3.96445 0
M  V30 890 H 87.8098 2.1437 5.08674 0
M  V30 891 H 88.2868 0.616532 4.34851 0
M  V30 892 H 88.8928 2.14578 3.67201 0
M  V30 893 N 87.2079 -1.17134 1.05439 0
M  V30 894 C 88.4539 -1.87733 0.767077 0
M  V30 895 C 88.7869 -1.8098 -0.704253 0
M  V30 896 O 88.0619 -1.21951 -1.5152 0
M  V30 897 C 88.3449 -3.37659 1.25133 0
M  V30 898 C 88.1979 -3.53149 2.78578 0
M  V30 899 C 89.5169 -4.31768 0.852324 0
M  V30 900 H 86.6359 -0.681687 0.280129 0
M  V30 901 H 89.2779 -1.37732 1.30881 0
M  V30 902 H 87.4279 -3.80373 0.790469 0
M  V30 903 H 89.0999 -3.19434 3.32806 0
M  V30 904 H 87.3429 -2.95345 3.17732 0
M  V30 905 H 88.0139 -4.58403 3.07523 0
M  V30 906 H 90.4899 -3.96909 1.24911 0
M  V30 907 H 89.3659 -5.35199 1.21873 0
M  V30 908 H 89.6269 -4.41429 -0.243485 0
M  V30 909 N 88.686 -0.835752 -1.33615 0
M  V30 910 C 89.932 -0.439817 -1.98588 0
M  V30 911 C 90.287 0.989274 -1.65019 0
M  V30 912 O 89.58 1.68168 -0.918159 0
M  V30 913 C 89.774 -0.593925 -3.52431 0
M  V30 914 C 89.603 -2.03644 -4.00948 0
M  V30 915 C 88.373 -2.67103 -4.28934 0
M  V30 916 C 90.571 -3.00479 -4.17393 0
M  V30 917 N 88.553 -4.02462 -4.6357 0
M  V30 918 C 89.924 -4.20777 -4.55353 0
M  V30 919 C 91.979 -2.96926 -3.99674 0
M  V30 920 C 90.682 -5.37994 -4.77447 0
M  V30 921 C 92.708 -4.1337 -4.22941 0
M  V30 922 C 92.07 -5.32422 -4.61201 0
M  V30 923 H 88.169 -0.209303 -0.75347 0
M  V30 924 H 90.753 -1.08316 -1.61789 0
M  V30 925 H 88.924 0.019599 -3.88395 0
M  V30 926 H 90.656 -0.169738 -4.04344 0
M  V30 927 H 87.411 -2.18259 -4.20309 0
M  V30 928 H 87.835 -4.72232 -4.85104 0
M  V30 929 H 92.477 -2.06015 -3.69212 0
M  V30 930 H 90.195 -6.29451 -5.06771 0
M  V30 931 H 93.781 -4.12034 -4.10754 0
M  V30 932 H 92.661 -6.21027 -4.78848 0
M  V30 933 N 90.1641 1.46063 -0.591896 0
M  V30 934 C 91.4411 1.95595 -0.0137119 0
M  V30 935 C 91.8211 1.5345 1.4497 0
M  V30 936 O 91.1691 0.789543 2.14426 0
M  V30 937 C 91.3791 3.48453 -0.195373 0
M  V30 938 C 92.7271 4.24546 -0.0679765 0
M  V30 939 O 93.7511 3.55982 -0.124681 0
M  V30 940 O 92.6101 5.46467 0.0600579 0
M  V30 941 H 89.7041 0.825795 0.0446279 0
M  V30 942 H 92.2501 1.56303 -0.660859 0
M  V30 943 H 91.0221 3.72045 -1.21235 0
M  V30 944 H 90.6451 3.94597 0.487775 0
M  V30 945 N 91.6422 0.330177 1.54103 0
M  V30 946 C 92.8672 -0.274893 2.0557 0
M  V30 947 C 93.2922 -1.44487 1.20437 0
M  V30 948 O 92.6502 -1.80021 0.214991 0
M  V30 949 C 92.6982 -0.68079 3.54115 0
M  V30 950 O 91.8022 -1.7824 3.71893 0
M  V30 951 H 91.1432 -0.0483849 0.662235 0
M  V30 952 H 93.6732 0.480508 1.98878 0
M  V30 953 H 93.6832 -0.961635 3.96505 0
M  V30 954 H 92.3582 0.174903 4.15532 0
M  V30 955 H 90.9352 -1.49985 3.41407 0
M  V30 956 N 93.1203 -1.57491 0.0584922 0
M  V30 957 C 94.3973 -1.84346 -0.653918 0
M  V30 958 C 94.7773 -0.948355 -1.88599 0
M  V30 959 O 94.1253 -0.0112403 -2.28497 0
M  V30 960 C 94.3353 -3.34239 -1.00425 0
M  V30 961 C 95.6833 -4.01431 -1.38342 0
M  V30 962 O 96.7073 -3.38907 -1.09637 0
M  V30 963 O 95.5663 -5.11683 -1.91943 0
M  V30 964 H 92.6603 -0.761112 -0.323478 0
M  V30 965 H 95.2063 -1.6947 0.0884125 0
M  V30 966 H 93.9783 -3.91089 -0.128625 0
M  V30 967 H 93.6013 -3.54329 -1.80378 0
M  V30 968 N 94.5984 0.214957 -1.56127 0
M  V30 969 C 95.5614 1.24997 -1.92116 0
M  V30 970 C 96.5614 1.39467 -0.800344 0
M  V30 971 O 97.7514 1.37619 -1.06802 0
M  V30 972 C 94.8834 2.62271 -2.17777 0
M  V30 973 H 96.0764 0.942875 -2.84693 0
M  V30 974 H 93.6294 0.455654 -1.49511 0
M  V30 975 H 94.3644 2.98068 -1.27773 0
M  V30 976 H 94.1494 2.53143 -2.99434 0
M  V30 977 H 95.6394 3.36946 -2.46693 0
M  V30 978 N 96.0765 1.50051 0.48192 0
M  V30 979 C 97.0265 1.64512 1.5786 0
M  V30 980 C 98.0105 0.500073 1.52932 0
M  V30 981 O 99.2025 0.753964 1.60139 0
M  V30 982 C 96.3315 1.73263 2.9637 0
M  V30 983 C 95.4175 2.93409 3.06222 0
M  V30 984 N 95.8085 4.17236 2.85915 0
M  V30 985 C 94.1065 2.91742 3.37346 0
M  V30 986 C 94.8075 4.981 3.00451 0
M  V30 987 N 93.7835 4.3184 3.30174 0
M  V30 988 H 97.5855 2.57955 1.40842 0
M  V30 989 H 95.0995 1.47086 0.688439 0
M  V30 990 H 97.0965 1.81724 3.75209 0
M  V30 991 H 95.7565 0.809711 3.14442 0
M  V30 992 H 96.7675 4.46909 2.6171 0
M  V30 993 H 93.4445 2.08907 3.61475 0
M  V30 994 H 94.8345 6.06532 2.89082 0
M  V30 995 N 97.5546 -0.734337 1.39446 0
M  V30 996 C 98.7826 -1.52358 1.39981 0
M  V30 997 C 99.1976 -1.88799 -0.0054975 0
M  V30 998 O 98.5546 -1.54146 -0.976998 0
M  V30 999 C 98.6056 -2.81072 2.27333 0
M  V30 1000 O 98.3266 -2.46178 3.62392 0
M  V30 1001 C 99.8276 -3.75096 2.36259 0
M  V30 1002 H 97.0476 -0.470806 0.478103 0
M  V30 1003 H 99.5916 -0.907339 1.83269 0
M  V30 1004 H 97.7466 -3.39026 1.87457 0
M  V30 1005 H 98.1606 -3.28866 4.08592 0
M  V30 1006 H 99.6346 -4.62305 3.01626 0
M  V30 1007 H 100.112 -4.16892 1.38194 0
M  V30 1008 H 100.718 -3.23061 2.76608 0
M  V30 1009 N 99.0327 -1.24633 -0.964593 0
M  V30 1010 C 100.261 -1.11501 -1.74285 0
M  V30 1011 C 100.676 0.332165 -1.85855 0
M  V30 1012 O 100.033 1.22903 -1.34911 0
M  V30 1013 C 100.084 -1.75258 -3.16175 0
M  V30 1014 O 99.8047 -3.14318 -3.05182 0
M  V30 1015 C 101.306 -1.67776 -4.10324 0
M  V30 1016 H 98.5257 -0.389407 -0.546446 0
M  V30 1017 H 101.07 -1.64801 -1.21083 0
M  V30 1018 H 99.2247 -1.25954 -3.66353 0
M  V30 1019 H 99.6387 -3.4551 -3.94618 0
M  V30 1020 H 101.113 -2.17064 -5.0753 0
M  V30 1021 H 101.59 -0.639584 -4.34518 0
M  V30 1022 H 102.196 -2.16522 -3.66058 0
M  V30 1023 N 100.511 1.16574 -1.06058 0
M  V30 1024 C 101.421 2.2452 -0.680282 0
M  V30 1025 C 102.437 1.71348 0.302604 0
M  V30 1026 O 103.613 2.00822 0.152513 0
M  V30 1027 C 100.678 3.46629 -0.0700315 0
M  V30 1028 C 99.7388 4.14849 -1.10448 0
M  V30 1029 C 98.9718 5.31129 -0.523256 0
M  V30 1030 O 99.1948 5.66514 0.664709 0
M  V30 1031 O 98.1288 5.88526 -1.26179 0
M  V30 1032 H 101.955 2.59355 -1.58015 0
M  V30 1033 H 99.5398 1.24043 -0.832694 0
M  V30 1034 H 101.422 4.20543 0.268667 0
M  V30 1035 H 100.097 3.13573 0.803353 0
M  V30 1036 H 99.0038 3.42916 -1.49532 0
M  V30 1037 H 100.337 4.51954 -1.94931 0
M  V30 1038 N 101.989 0.842826 1.3317 0
M  V30 1039 C 102.936 0.276885 2.29133 0
M  V30 1040 C 103.906 -0.609527 1.54512 0
M  V30 1041 O 105.091 -0.546955 1.82792 0
M  V30 1042 C 102.231 -0.538707 3.40869 0
M  V30 1043 C 101.344 0.372169 4.30394 0
M  V30 1044 C 100.479 -0.454908 5.29249 0
M  V30 1045 C 99.5179 0.45411 6.10413 0
M  V30 1046 N 98.6549 -0.335075 7.013 0
M  V30 1047 H 103.495 1.10052 2.76934 0
M  V30 1048 H 101.032 0.554161 1.36262 0
M  V30 1049 H 102.99 -1.02709 4.0436 0
M  V30 1050 H 101.62 -1.32727 2.9425 0
M  V30 1051 H 100.672 0.97888 3.6759 0
M  V30 1052 H 101.984 1.0703 4.87182 0
M  V30 1053 H 101.138 -1.00695 5.98285 0
M  V30 1054 H 99.8769 -1.18646 4.73048 0
M  V30 1055 H 98.8819 1.01813 5.40291 0
M  V30 1056 H 100.107 1.18409 6.68697 0
M  V30 1057 H 98.0529 -1.04994 6.47543 0
M  V30 1058 H 97.9699 0.304262 7.55387 0
M  V30 1059 H 99.2379 -0.869224 7.74638 0
M  V30 1060 N 103.467 -1.45747 0.599634 0
M  V30 1061 C 104.878 -1.85853 0.177681 0
M  V30 1062 C 105.229 -1.50102 -1.26348 0
M  V30 1063 O 104.354 -0.923905 -1.95686 0
M  V30 1064 C 104.949 -3.37326 0.315688 0
M  V30 1065 C 103.508 -3.76365 -0.0515144 0
M  V30 1066 C 102.655 -2.69722 0.643822 0
M  V30 1067 H 105.606 -1.36661 0.806814 0
M  V30 1068 H 105.627 -3.77778 -0.454321 0
M  V30 1069 H 105.139 -3.63315 1.36468 0
M  V30 1070 H 103.24 -3.55993 -1.09999 0
M  V30 1071 H 103.353 -4.77916 0.336594 0
M  V30 1072 H 101.717 -2.54567 0.0822881 0
M  V30 1073 H 102.5 -2.98549 1.6948 0
M  V30 1074 N 104.945 -0.338344 -1.53925 0
M  V30 1075 C 106.173 0.261298 -2.05243 0
M  V30 1076 C 106.588 1.44625 -1.21363 0
M  V30 1077 O 105.945 1.80811 -0.247736 0
M  V30 1078 C 105.996 0.681412 -3.5502 0
M  V30 1079 O 105.717 -0.456414 -4.35716 0
M  V30 1080 C 107.218 1.34232 -4.22489 0
M  V30 1081 H 104.438 0.0513685 -0.669031 0
M  V30 1082 H 106.982 -0.488822 -1.98572 0
M  V30 1083 H 105.137 1.38148 -3.61931 0
M  V30 1084 H 105.551 -0.122564 -5.24357 0
M  V30 1085 H 107.025 1.58708 -5.28693 0
M  V30 1086 H 107.502 2.29426 -3.74514 0
M  V30 1087 H 108.108 0.684424 -4.19757 0
M  V30 1088 N 106.423 1.57458 -0.0668435 0
M  V30 1089 C 107.7 1.8469 0.644132 0
M  V30 1090 C 108.08 0.958343 1.88093 0
M  V30 1091 O 107.428 0.0233579 2.28488 0
M  V30 1092 C 107.638 3.34767 0.986509 0
M  V30 1093 C 108.986 4.02159 1.36212 0
M  V30 1094 O 110.01 3.39484 1.07839 0
M  V30 1095 O 108.869 5.12694 1.89227 0
M  V30 1096 H 105.963 0.762816 0.319437 0
M  V30 1097 H 108.509 1.6942 -0.0973986 0
M  V30 1098 H 107.281 3.91151 0.107883 0
M  V30 1099 H 106.904 3.55281 1.78497 0
M  V30 1100 N 107.901 -0.206675 1.56239 0
M  V30 1101 C 108.864 -1.23976 1.92776 0
M  V30 1102 C 109.864 -1.39041 0.807729 0
M  V30 1103 O 111.054 -1.37051 1.0753 0
M  V30 1104 C 108.186 -2.61112 2.19165 0
M  V30 1105 H 109.379 -0.927764 2.85189 0
M  V30 1106 H 106.932 -0.447718 1.4975 0
M  V30 1107 H 107.667 -2.97386 1.29352 0
M  V30 1108 H 107.452 -2.51552 3.00772 0
M  V30 1109 H 108.942 -3.35633 2.48476 0
M  V30 1110 N 109.379 -1.50304 -0.473955 0
M  V30 1111 C 110.609 -1.64663 -1.24778 0
M  V30 1112 C 111.017 -0.328174 -1.86332 0
M  V30 1113 O 110.36 0.699536 -1.69859 0
M  V30 1114 C 110.422 -2.6778 -2.39863 0
M  V30 1115 C 110.086 -4.11413 -1.98969 0
M  V30 1116 C 111.083 -4.97372 -1.51385 0
M  V30 1117 C 108.768 -4.57312 -2.07777 0
M  V30 1118 C 110.762 -6.27277 -1.13148 0
M  V30 1119 C 108.449 -5.87223 -1.69152 0
M  V30 1120 C 109.447 -6.72031 -1.21915 0
M  V30 1121 O 109.135 -7.99518 -0.838237 0
M  V30 1122 H 108.867 -0.556602 -0.383627 0
M  V30 1123 H 111.421 -1.9726 -0.572491 0
M  V30 1124 H 109.651 -2.30419 -3.10554 0
M  V30 1125 H 111.34 -2.71388 -3.01833 0
M  V30 1126 H 112.106 -4.63128 -1.44004 0
M  V30 1127 H 107.985 -3.91449 -2.43493 0
M  V30 1128 H 111.529 -6.93425 -0.762077 0
M  V30 1129 H 107.426 -6.20989 -1.76191 0
M  V30 1130 H 108.194 -8.12764 -0.967339 0
M  V30 1131 N 110.857 0.726932 -1.39834 0
M  V30 1132 C 112.105 1.4837 -1.37225 0
M  V30 1133 C 112.426 1.94979 0.0284857 0
M  V30 1134 O 111.696 1.69555 0.981213 0
M  V30 1135 H 110.276 0.55043 -0.505011 0
M  V30 1136 H 112.938 0.862468 -1.74778 0
M  V30 1137 H 112.034 2.36198 -2.04003 0
M  V30 1138 N 112.336 1.25143 0.95797 0
M  V30 1139 C 113.246 1.06968 2.08794 0
M  V30 1140 C 114.262 0.00773911 1.73998 0
M  V30 1141 O 115.438 0.207972 2.00323 0
M  V30 1142 C 112.503 0.68691 3.39827 0
M  V30 1143 C 111.564 1.82641 3.88511 0
M  V30 1144 C 110.797 1.46181 5.1329 0
M  V30 1145 O 111.02 0.355971 5.69288 0
M  V30 1146 O 109.954 2.29085 5.566 0
M  V30 1147 H 113.78 2.01723 2.27027 0
M  V30 1148 H 111.365 1.04051 1.07209 0
M  V30 1149 H 113.247 0.485417 4.18595 0
M  V30 1150 H 111.922 -0.231417 3.22872 0
M  V30 1151 H 110.829 2.08274 3.10762 0
M  V30 1152 H 112.162 2.72386 4.09959 0
M  V30 1153 N 113.814 -1.1601 1.06675 0
M  V30 1154 C 114.744 -2.22688 0.702307 0
M  V30 1155 C 115.725 -1.67306 -0.307032 0
M  V30 1156 O 116.91 -1.93352 -0.181305 0
M  V30 1157 C 114.04 -3.47178 0.092038 0
M  V30 1158 C 112.994 -4.15477 1.02777 0
M  V30 1159 C 112.32 -5.33963 0.28061 0
M  V30 1160 C 113.62 -4.66019 2.35846 0
M  V30 1161 H 115.314 -2.53429 1.59419 0
M  V30 1162 H 112.86 -1.21813 0.767961 0
M  V30 1163 H 114.813 -4.21037 -0.174814 0
M  V30 1164 H 113.537 -3.15749 -0.834877 0
M  V30 1165 H 112.196 -3.43549 1.27944 0
M  V30 1166 H 111.844 -4.98788 -0.649545 0
M  V30 1167 H 111.544 -5.806 0.904258 0
M  V30 1168 H 113.068 -6.10596 0.021396 0
M  V30 1169 H 114.482 -5.3144 2.15045 0
M  V30 1170 H 112.879 -5.23293 2.93743 0
M  V30 1171 H 113.949 -3.82023 2.98641 0
M  V30 1172 N 115.292 -0.849877 -1.32721 0
M  V30 1173 C 116.569 -0.372405 -1.92022 0
M  V30 1174 C 116.949 1.1435 -1.77447 0
M  V30 1175 O 116.297 1.96296 -1.16962 0
M  V30 1176 C 116.507 -0.831482 -3.3895 0
M  V30 1177 C 117.855 -0.845882 -4.16089 0
M  V30 1178 O 118.879 -0.775806 -3.47649 0
M  V30 1179 O 117.738 -0.943753 -5.38289 0
M  V30 1180 H 114.832 -0.107667 -0.819961 0
M  V30 1181 H 117.378 -0.93646 -1.41522 0
M  V30 1182 H 116.15 -1.87448 -3.4348 0
M  V30 1183 H 115.773 -0.24461 -3.96847 0
M  V30 1184 N 116.77 1.45427 -0.607355 0
M  V30 1185 C 118.017 2.02241 -0.102455 0
M  V30 1186 C 118.345 1.4758 1.26691 0
M  V30 1187 O 117.6 0.640468 1.84923 0
M  V30 1188 C 117.899 3.57398 -0.0129263 0
M  V30 1189 C 117.565 4.3121 -1.31792 0
M  V30 1190 C 116.227 4.51092 -1.67539 0
M  V30 1191 C 118.579 4.73401 -2.18039 0
M  V30 1192 C 115.907 5.10422 -2.89285 0
M  V30 1193 C 118.259 5.34078 -3.39034 0
M  V30 1194 C 116.923 5.52184 -3.75033 0
M  V30 1195 H 116.193 0.740051 -0.037491 0
M  V30 1196 H 118.84 1.74494 -0.788926 0
M  V30 1197 H 117.145 3.84421 0.756806 0
M  V30 1198 H 118.842 3.99061 0.393881 0
M  V30 1199 H 115.432 4.16047 -1.02968 0
M  V30 1200 H 119.616 4.57774 -1.91721 0
M  V30 1201 H 114.872 5.22629 -3.17283 0
M  V30 1202 H 119.046 5.65724 -4.06115 0
M  V30 1203 H 116.673 5.97925 -4.69457 0
M  V30 1204 N 118.248 0.346503 1.53744 0
M  V30 1205 C 119.476 -0.25041 2.05379 0
M  V30 1206 C 119.891 -1.43979 1.22129 0
M  V30 1207 O 119.248 -1.80677 0.257321 0
M  V30 1208 C 119.299 -0.662575 3.55376 0
M  V30 1209 O 119.02 0.479515 4.35468 0
M  V30 1210 C 120.521 -1.31989 4.23195 0
M  V30 1211 H 117.741 -0.0478198 0.669294 0
M  V30 1212 H 120.285 0.499346 1.9831 0
M  V30 1213 H 118.44 -1.36227 3.62658 0
M  V30 1214 H 118.854 0.15037 5.24284 0
M  V30 1215 H 120.328 -1.55902 5.29527 0
M  V30 1216 H 120.805 -2.27436 3.75725 0
M  V30 1217 H 121.411 -0.662154 4.20114 0
M  V30 1218 N 119.726 -1.57421 0.075193 0
M  V30 1219 C 120.974 -1.93236 -0.591974 0
M  V30 1220 C 121.295 -0.956241 -1.69944 0
M  V30 1221 O 120.565 -0.00494792 -1.95899 0
M  V30 1222 H 119.145 -0.713355 -0.22166 0
M  V30 1223 H 121.807 -1.9444 0.133848 0
M  V30 1224 H 120.903 -2.95131 -1.01509 0
M  V30 1225 N 121.204 0.198386 -1.56346 0
M  V30 1226 C 122.167 1.22952 -1.93431 0
M  V30 1227 C 123.167 1.38611 -0.815092 0
M  V30 1228 O 124.357 1.36479 -1.08255 0
M  V30 1229 C 121.489 2.59946 -2.20546 0
M  V30 1230 H 122.682 0.912626 -2.85677 0
M  V30 1231 H 120.235 0.43977 -1.49986 0
M  V30 1232 H 120.97 2.96696 -1.30927 0
M  V30 1233 H 120.755 2.49953 -3.02102 0
M  V30 1234 H 122.245 3.3431 -2.50253 0
M  V30 1235 N 122.682 1.50554 0.465978 0
M  V30 1236 C 123.93 1.61479 1.21528 0
M  V30 1237 C 124.251 0.319596 1.92363 0
M  V30 1238 O 123.521 -0.663194 1.84333 0
M  V30 1239 H 122.101 0.595055 0.451573 0
M  V30 1240 H 124.763 1.87355 0.53704 0
M  V30 1241 H 123.859 2.42846 1.96042 0
M  V30 1242 N 124.16 -0.719506 1.40217 0
M  V30 1243 C 125.576 -1.02707 1.22161 0
M  V30 1244 C 125.776 -2.0128 0.0940557 0
M  V30 1245 O 124.832 -2.46452 -0.549318 0
M  V30 1246 C 126.145 -1.57454 2.56181 0
M  V30 1247 C 127.693 -1.69458 2.63159 0
M  V30 1248 C 128.168 -2.27611 3.97438 0
M  V30 1249 N 129.659 -2.35002 3.99159 0
M  V30 1250 C 130.394 -2.80972 4.99842 0
M  V30 1251 N 129.89 -3.26723 6.10921 0
M  V30 1252 N 131.683 -2.80321 4.87213 0
M  V30 1253 H 123.834 -0.0660492 2.12297 0
M  V30 1254 H 126.097 -0.0919077 0.943534 0
M  V30 1255 H 125.803 -0.924873 3.39321 0
M  V30 1256 H 125.677 -2.56036 2.76993 0
M  V30 1257 H 128.064 -2.33543 1.80393 0
M  V30 1258 H 128.145 -0.694867 2.46181 0
M  V30 1259 H 127.789 -1.6415 4.80643 0
M  V30 1260 H 127.719 -3.2829 4.11744 0
M  V30 1261 H 130.21 -2.02685 3.18947 0
M  V30 1262 H 130.523 -3.60355 6.8364 0
M  V30 1263 H 128.868 -3.24692 6.14492 0
M  V30 1264 H 132.059 -2.43912 3.9953 0
M  V30 1265 H 132.232 -3.15831 5.65822 0
M  V30 1266 N 125.638 -1.25649 -0.95132 0
M  V30 1267 C 126.585 -1.06323 -2.04851 0
M  V30 1268 C 127.555 0.0286491 -1.66075 0
M  V30 1269 O 128.74 -0.12917 -1.90362 0
M  V30 1270 C 125.88 -0.691529 -3.381 0
M  V30 1271 C 124.993 -1.85861 -3.89974 0
M  V30 1272 C 124.128 -1.43096 -5.11563 0
M  V30 1273 C 123.167 -2.56696 -5.55674 0
M  V30 1274 N 122.304 -2.14684 -6.68472 0
M  V30 1275 H 127.144 -2.00222 -2.20715 0
M  V30 1276 H 124.681 -0.997027 -1.08156 0
M  V30 1277 H 126.639 -0.456963 -4.1469 0
M  V30 1278 H 125.269 0.210474 -3.22113 0
M  V30 1279 H 124.321 -2.20639 -3.09875 0
M  V30 1280 H 125.633 -2.71161 -4.18657 0
M  V30 1281 H 124.787 -1.15624 -5.9558 0
M  V30 1282 H 123.526 -0.548722 -4.84603 0
M  V30 1283 H 122.531 -2.84909 -4.7022 0
M  V30 1284 H 123.756 -3.45503 -5.8464 0
M  V30 1285 H 121.702 -1.28881 -6.43215 0
M  V30 1286 H 121.619 -2.9353 -6.96689 0
M  V30 1287 H 122.887 -1.90397 -7.5589 0
M  V30 1288 N 127.117 1.15442 -1.07289 0
M  V30 1289 C 128.067 2.18164 -0.662467 0
M  V30 1290 C 129.051 1.57845 0.312074 0
M  V30 1291 O 130.243 1.76552 0.125905 0
M  V30 1292 C 127.372 3.43246 -0.0611295 0
M  V30 1293 C 126.458 4.1062 -1.06077 0
M  V30 1294 N 126.849 4.53491 -2.24008 0
M  V30 1295 C 125.147 4.36949 -0.893964 0
M  V30 1296 C 125.848 5.05731 -2.87422 0
M  V30 1297 N 124.824 4.99236 -2.15091 0
M  V30 1298 H 128.626 2.49038 -1.56068 0
M  V30 1299 H 126.14 1.32003 -0.945988 0
M  V30 1300 H 128.137 4.16145 0.250792 0
M  V30 1301 H 126.797 3.13854 0.832207 0
M  V30 1302 H 127.808 4.46898 -2.6173 0
M  V30 1303 H 124.485 4.17466 -0.0534693 0
M  V30 1304 H 125.875 5.48865 -3.87553 0
M  V30 1305 N 128.595 0.856903 1.32268 0
M  V30 1306 C 129.82 0.474569 2.01897 0
M  V30 1307 C 130.245 -0.921766 1.63967 0
M  V30 1308 O 129.603 -1.60589 0.84148 0
M  V30 1309 C 129.651 0.623799 3.55164 0
M  V30 1310 O 128.755 -0.342459 4.10976 0
M  V30 1311 H 128.096 0.190422 0.63611 0
M  V30 1312 H 130.626 1.15672 1.68764 0
M  V30 1313 H 130.636 0.512169 4.04773 0
M  V30 1314 H 129.311 1.64202 3.82113 0
M  V30 1315 H 127.888 -0.18688 3.72431 0
M  V30 1316 N 130.073 -1.45103 0.615059 0
M  V30 1317 C 131.021 -2.32331 -0.111791 0
M  V30 1318 C 132.015 -1.46409 -0.852102 0
M  V30 1319 O 133.221 -1.62849 -0.766821 0
M  V30 1320 H 129.596 -0.749993 -0.0549072 0
M  V30 1321 H 131.567 -2.91407 0.642225 0
M  V30 1322 C 130.316 -3.3015 -1.09071 0
M  V30 1323 H 129.639 -3.96265 -0.530485 0
M  V30 1324 H 131.079 -3.93898 -1.56908 0
M  V30 1325 C 129.538 -2.57875 -2.168 0
M  V30 1326 O 130.068 -2.36567 -3.24652 0
M  V30 1327 N 128.274 -2.17884 -1.92289 0
M  V30 1328 H 127.821 -2.35413 -1.04587 0
M  V30 1329 H 127.779 -1.6985 -2.64572 0
M  V30 1330 N 131.551 -0.354651 -1.53558 0
M  V30 1331 C 132.798 0.238443 -2.01091 0
M  V30 1332 C 133.126 1.49663 -1.24222 0
M  V30 1333 O 132.381 1.93049 -0.321003 0
M  V30 1334 C 132.68 0.587121 -3.52545 0
M  V30 1335 C 132.346 -0.575472 -4.47213 0
M  V30 1336 C 131.008 -0.894497 -4.72813 0
M  V30 1337 C 133.36 -1.35489 -5.03281 0
M  V30 1338 C 130.688 -1.99511 -5.51736 0
M  V30 1339 C 133.04 -2.44583 -5.83405 0
M  V30 1340 C 131.704 -2.77033 -6.07296 0
M  V30 1341 H 130.974 0.0872526 -0.735845 0
M  V30 1342 H 133.621 -0.484859 -1.8526 0
M  V30 1343 H 131.926 1.39129 -3.66265 0
M  V30 1344 H 133.623 1.05809 -3.86789 0
M  V30 1345 H 130.213 -0.316774 -4.27428 0
M  V30 1346 H 134.397 -1.12167 -4.83459 0
M  V30 1347 H 129.653 -2.25063 -5.68469 0
M  V30 1348 H 133.827 -3.05401 -6.25862 0
M  V30 1349 H 131.454 -3.6244 -6.68237 0
M  V30 1350 N 133.029 1.57378 -0.0835403 0
M  V30 1351 C 133.959 2.1641 0.87686 0
M  V30 1352 C 134.94 1.09429 1.30228 0
M  V30 1353 O 136.125 1.37516 1.37124 0
M  V30 1354 C 133.255 2.73517 2.14022 0
M  V30 1355 C 132.209 3.85769 1.85381 0
M  V30 1356 C 131.535 4.29529 3.18448 0
M  V30 1357 C 132.835 5.09486 1.14984 0
M  V30 1358 H 134.529 2.96914 0.385059 0
M  V30 1359 H 132.075 1.42823 0.18377 0
M  V30 1360 H 134.028 3.13463 2.81636 0
M  V30 1361 H 132.752 1.90252 2.65465 0
M  V30 1362 H 131.411 3.46345 1.20169 0
M  V30 1363 H 131.059 3.43169 3.67755 0
M  V30 1364 H 130.759 5.05204 3.00071 0
M  V30 1365 H 132.283 4.72099 3.8724 0
M  V30 1366 H 133.697 5.46674 1.72687 0
M  V30 1367 H 132.094 5.90515 1.06826 0
M  V30 1368 H 133.164 4.84724 0.130749 0
M  V30 1369 N 134.507 -0.190092 1.56449 0
M  V30 1370 C 135.923 -0.54113 1.50146 0
M  V30 1371 C 136.123 -1.85603 0.784465 0
M  V30 1372 O 135.179 -2.5024 0.337051 0
M  V30 1373 C 136.492 -0.591241 2.9483 0
M  V30 1374 C 138.04 -0.679732 3.0553 0
M  V30 1375 C 138.515 -0.760908 4.51635 0
M  V30 1376 N 140.006 -0.824302 4.55806 0
M  V30 1377 C 140.741 -0.907365 5.66175 0
M  V30 1378 N 140.237 -0.952422 6.86222 0
M  V30 1379 N 142.03 -0.94494 5.541 0
M  V30 1380 H 134.181 0.67235 2.01478 0
M  V30 1381 H 136.444 0.240127 0.917084 0
M  V30 1382 H 136.15 0.305905 3.50367 0
M  V30 1383 H 136.024 -1.44422 3.48457 0
M  V30 1384 H 138.411 -1.56731 2.50039 0
M  V30 1385 H 138.492 0.199549 2.5502 0
M  V30 1386 H 138.136 0.122336 5.07753 0
M  V30 1387 H 138.066 -1.65606 4.99882 0
M  V30 1388 H 140.557 -0.798526 3.69367 0
M  V30 1389 H 140.87 -1.01645 7.66086 0
M  V30 1390 H 139.215 -0.921014 6.8887 0
M  V30 1391 H 142.406 -0.906612 4.59236 0
M  V30 1392 H 142.579 -1.00622 6.4014 0
M  V30 1393 N 135.985 -1.50799 -0.457987 0
M  V30 1394 C 136.915 -1.73553 -1.5621 0
M  V30 1395 C 137.896 -0.584774 -1.59732 0
M  V30 1396 O 139.081 -0.825314 -1.7579 0
M  V30 1397 C 136.211 -1.84169 -2.94447 0
M  V30 1398 C 135.165 -2.99461 -3.0579 0
M  V30 1399 C 134.491 -2.95235 -4.45803 0
M  V30 1400 C 135.791 -4.39766 -2.81786 0
M  V30 1401 H 137.485 -2.66 -1.37421 0
M  V30 1402 H 135.031 -1.28002 -0.659662 0
M  V30 1403 H 136.984 -1.98672 -3.71628 0
M  V30 1404 H 135.708 -0.883545 -3.14422 0
M  V30 1405 H 134.367 -2.8463 -2.31044 0
M  V30 1406 H 134.015 -1.97239 -4.62715 0
M  V30 1407 H 133.715 -3.72642 -4.54326 0
M  V30 1408 H 135.239 -3.11803 -5.24987 0
M  V30 1409 H 136.653 -4.55054 -3.4871 0
M  V30 1410 H 135.05 -5.18722 -3.0174 0
M  V30 1411 H 136.12 -4.51229 -1.7754 0
M  V30 1412 N 137.463 0.71206 -1.40597 0
M  V30 1413 C 138.688 1.50617 -1.42581 0
M  V30 1414 C 139.113 1.88079 -0.0282102 0
M  V30 1415 O 138.471 1.53511 0.964579 0
M  V30 1416 C 138.519 2.7557 -2.3258 0
M  V30 1417 O 137.623 3.72414 -1.77148 0
M  V30 1418 H 136.964 0.453966 -0.484573 0
M  V30 1419 H 139.494 0.876649 -1.84868 0
M  V30 1420 H 139.504 3.2406 -2.47889 0
M  V30 1421 H 138.179 2.47639 -3.34138 0
M  V30 1422 H 136.756 3.31276 -1.71204 0
M  V30 1423 N 138.941 1.26152 0.944643 0
M  V30 1424 C 140.218 1.02247 1.66748 0
M  V30 1425 C 140.598 -0.448202 2.06287 0
M  V30 1426 O 139.946 -1.42779 1.78399 0
M  V30 1427 C 140.156 1.96788 2.88228 0
M  V30 1428 C 141.504 2.25201 3.59958 0
M  V30 1429 O 142.528 1.94626 2.98327 0
M  V30 1430 O 141.387 2.77242 4.70956 0
M  V30 1431 H 138.481 0.388517 0.730057 0
M  V30 1432 H 141.027 1.37348 0.99668 0
M  V30 1433 H 139.799 2.96047 2.55875 0
M  V30 1434 H 139.422 1.62145 3.63035 0
M  V30 1435 N 140.419 -1.14872 1.07899 0
M  V30 1436 C 141.835 -1.37776 0.805606 0
M  V30 1437 C 142.035 -1.92743 -0.587555 0
M  V30 1438 O 141.091 -2.13678 -1.34528 0
M  V30 1439 C 142.404 -2.34361 1.88402 0
M  V30 1440 C 143.952 -2.48012 1.90942 0
M  V30 1441 C 144.427 -3.47893 2.97883 0
M  V30 1442 N 145.918 -3.55433 2.97021 0
M  V30 1443 C 146.653 -4.32553 3.76412 0
M  V30 1444 N 146.149 -5.12959 4.65666 0
M  V30 1445 N 147.942 -4.27697 3.64735 0
M  V30 1446 H 140.093 -0.775365 1.97742 0
M  V30 1447 H 142.356 -0.403521 0.857831 0
M  V30 1448 H 142.062 -2.01098 2.88535 0
M  V30 1449 H 141.936 -3.34206 1.74889 0
M  V30 1450 H 144.323 -2.8057 0.914579 0
M  V30 1451 H 144.404 -1.48147 2.08534 0
M  V30 1452 H 144.048 -3.16069 3.97571 0
M  V30 1453 H 143.978 -4.47527 2.77538 0
M  V30 1454 H 146.469 -2.98048 2.32326 0
M  V30 1455 H 146.782 -5.69065 5.22862 0
M  V30 1456 H 145.127 -5.12245 4.69712 0
M  V30 1457 H 148.318 -3.63949 2.94378 0
M  V30 1458 H 148.491 -4.8755 4.26848 0
M  V30 1459 N 141.898 -0.863906 -1.31812 0
M  V30 1460 C 143.126 -0.486111 -2.01108 0
M  V30 1461 C 143.541 0.919755 -1.64882 0
M  V30 1462 O 142.898 1.60162 -0.874893 0
M  V30 1463 C 142.949 -0.626435 -3.56031 0
M  V30 1464 O 142.67 -1.97693 -3.90959 0
M  V30 1465 C 144.171 -0.248857 -4.42601 0
M  V30 1466 H 141.391 -0.190052 -0.643523 0
M  V30 1467 H 143.935 -1.1634 -1.68182 0
M  V30 1468 H 142.09 0.00322717 -3.874 0
M  V30 1469 H 142.504 -1.98034 -4.85678 0
M  V30 1470 H 143.978 -0.398016 -5.50563 0
M  V30 1471 H 144.455 0.811489 -4.31638 0
M  V30 1472 H 145.061 -0.853971 -4.16638 0
M  V30 1473 N 143.376 1.44774 -0.622745 0
M  V30 1474 C 144.653 1.95522 -0.0551974 0
M  V30 1475 C 145.033 1.5649 1.41683 0
M  V30 1476 O 144.381 0.834848 2.12703 0
M  V30 1477 C 144.591 3.4796 -0.269242 0
M  V30 1478 C 145.939 4.24306 -0.158014 0
M  V30 1479 O 146.963 3.55637 -0.200162 0
M  V30 1480 O 145.822 5.46471 -0.0558693 0
M  V30 1481 H 142.916 0.826556 0.0271015 0
M  V30 1482 H 145.462 1.54866 -0.693864 0
M  V30 1483 H 144.234 3.6939 -1.29099 0
M  V30 1484 H 143.857 3.95543 0.403966 0
M  V30 1485 N 144.854 0.36279 1.53368 0
M  V30 1486 C 146.265 -0.117022 1.86333 0
M  V30 1487 C 146.616 -1.48397 1.28347 0
M  V30 1488 O 145.741 -2.07787 0.604428 0
M  V30 1489 C 146.336 -0.21912 3.38091 0
M  V30 1490 C 144.895 -0.643184 3.70864 0
M  V30 1491 C 144.042 0.211318 2.76494 0
M  V30 1492 H 146.993 0.581687 1.47655 0
M  V30 1493 H 147.014 -1.04319 3.6592 0
M  V30 1494 H 146.526 0.775902 3.80265 0
M  V30 1495 H 144.627 -1.64654 3.34245 0
M  V30 1496 H 144.74 -0.41973 4.77258 0
M  V30 1497 H 143.104 -0.319367 2.5269 0
M  V30 1498 H 143.887 1.20383 3.21501 0
M  V30 1499 N 146.332 -1.57332 0.0918853 0
M  V30 1500 C 147.295 -2.12708 -0.85369 0
M  V30 1501 C 148.295 -1.05561 -1.213 0
M  V30 1502 O 149.485 -1.31461 -1.14296 0
M  V30 1503 C 146.617 -2.64503 -2.15061 0
M  V30 1504 H 147.81 -2.97573 -0.3729 0
M  V30 1505 H 145.363 -1.55509 -0.157072 0
M  V30 1506 H 146.098 -1.83149 -2.67632 0
M  V30 1507 H 145.883 -3.4284 -1.90272 0
M  V30 1508 H 147.373 -3.07351 -2.82711 0
M  V30 1509 N 147.81 0.181792 -1.56548 0
M  V30 1510 C 148.773 1.20894 -1.94724 0
M  V30 1511 C 149.773 1.37738 -0.829747 0
M  V30 1512 O 150.963 1.35323 -1.09697 0
M  V30 1513 C 148.095 2.57593 -2.23291 0
M  V30 1514 H 149.288 0.882275 -2.86629 0
M  V30 1515 H 146.841 0.423838 -1.50444 0
M  V30 1516 H 147.576 2.95291 -1.34067 0
M  V30 1517 H 147.361 2.46735 -3.04736 0
M  V30 1518 H 148.851 3.31637 -2.53785 0
M  V30 1519 N 149.288 1.51039 0.449983 0
M  V30 1520 C 150.534 1.63322 1.20223 0
M  V30 1521 C 150.867 0.34241 1.91158 0
M  V30 1522 O 150.142 -0.657344 1.83055 0
M  V30 1523 C 150.425 2.82801 2.22925 0
M  V30 1524 C 150.278 4.21823 1.56157 0
M  V30 1525 C 151.597 2.97807 3.24035 0
M  V30 1526 H 148.716 0.594407 0.435718 0
M  V30 1527 H 151.358 1.83489 0.493136 0
M  V30 1528 H 149.508 2.65738 2.834 0
M  V30 1529 H 151.18 4.50526 0.991162 0
M  V30 1530 H 149.423 4.25105 0.864172 0
M  V30 1531 H 150.094 5.01391 2.30891 0
M  V30 1532 H 152.57 3.13497 2.73603 0
M  V30 1533 H 151.446 3.82992 3.93202 0
M  V30 1534 H 151.707 2.09328 3.89402 0
M  V30 1535 N 150.766 -0.704594 1.40972 0
M  V30 1536 C 151.996 -1.49138 1.42974 0
M  V30 1537 C 152.404 -1.89175 0.0308406 0
M  V30 1538 O 151.747 -1.56734 -0.958138 0
M  V30 1539 C 151.809 -2.79016 2.26694 0
M  V30 1540 C 151.473 -2.61236 3.74973 0
M  V30 1541 C 152.47 -2.27773 4.67349 0
M  V30 1542 C 150.155 -2.77158 4.18914 0
M  V30 1543 C 152.149 -2.10457 6.01653 0
M  V30 1544 C 149.836 -2.59459 5.53285 0
M  V30 1545 C 150.834 -2.26158 6.4447 0
M  V30 1546 O 150.522 -2.08605 7.76363 0
M  V30 1547 H 150.254 -0.466443 0.489292 0
M  V30 1548 H 152.808 -0.8758 1.85793 0
M  V30 1549 H 151.038 -3.42947 1.78673 0
M  V30 1550 H 152.727 -3.40782 2.20504 0
M  V30 1551 H 153.493 -2.15095 4.34694 0
M  V30 1552 H 149.372 -3.02064 3.48251 0
M  V30 1553 H 152.916 -1.84387 6.72791 0
M  V30 1554 H 148.813 -2.71725 5.85522 0
M  V30 1555 H 149.581 -2.23439 7.87412 0
M  V30 1556 N 152.244 -1.26651 -0.937939 0
M  V30 1557 C 153.469 -1.15279 -1.72411 0
M  V30 1558 C 153.894 0.287866 -1.85884 0
M  V30 1559 O 153.252 1.20855 -1.35143 0
M  V30 1560 C 153.3 -1.83028 -3.10698 0
M  V30 1561 O 152.404 -1.12128 -3.96864 0
M  V30 1562 H 151.745 -0.401504 -0.528858 0
M  V30 1563 H 154.275 -1.67531 -1.1745 0
M  V30 1564 H 154.285 -1.89981 -3.6107 0
M  V30 1565 H 152.96 -2.87833 -3.00208 0
M  V30 1566 H 151.537 -1.13173 -3.55312 0
M  V30 1567 N 153.722 1.14298 -1.08507 0
M  V30 1568 C 154.652 2.21542 -0.737646 0
M  V30 1569 C 155.633 1.67773 0.280377 0
M  V30 1570 O 156.818 1.93616 0.150521 0
M  V30 1571 C 153.948 3.46988 -0.147259 0
M  V30 1572 C 152.902 4.13789 -1.09374 0
M  V30 1573 C 152.228 5.33449 -0.365524 0
M  V30 1574 C 153.528 4.62208 -2.4323 0
M  V30 1575 H 155.222 2.5086 -1.6343 0
M  V30 1576 H 152.768 1.20576 -0.787243 0
M  V30 1577 H 154.721 4.21262 0.107808 0
M  V30 1578 H 153.445 3.17037 0.784538 0
M  V30 1579 H 152.104 3.4147 -1.33393 0
M  V30 1580 H 151.752 4.99759 0.57011 0
M  V30 1581 H 151.452 5.79088 -0.996512 0
M  V30 1582 H 152.976 6.10485 -0.118534 0
M  V30 1583 H 154.39 5.27952 -2.23472 0
M  V30 1584 H 152.787 5.18553 -3.02031 0
M  V30 1585 H 153.857 3.77224 -3.04681 0
M  V30 1586 N 155.201 0.870884 1.31352 0
M  V30 1587 C 156.447 0.482987 1.96965 0
M  V30 1588 C 156.78 -0.962462 1.68672 0
M  V30 1589 O 156.055 -1.6779 0.98371 0
M  V30 1590 C 156.338 0.741752 3.52378 0
M  V30 1591 C 156.191 2.2368 3.9024 0
M  V30 1592 C 157.51 0.208838 4.39604 0
M  V30 1593 H 154.629 0.176955 0.715441 0
M  V30 1594 H 157.271 1.09229 1.55464 0
M  V30 1595 H 155.421 0.223149 3.87859 0
M  V30 1596 H 157.093 2.82273 3.64856 0
M  V30 1597 H 155.336 2.70901 3.38814 0
M  V30 1598 H 156.007 2.3685 4.98604 0
M  V30 1599 H 158.483 0.652529 4.10952 0
M  V30 1600 H 157.359 0.419336 5.47296 0
M  V30 1601 H 157.62 -0.889275 4.33064 0
M  V30 1602 N 156.679 -1.44442 0.630414 0
M  V30 1603 C 157.907 -2.06414 0.141671 0
M  V30 1604 C 158.322 -1.47105 -1.18345 0
M  V30 1605 O 157.679 -0.593662 -1.72574 0
M  V30 1606 C 157.73 -3.61494 0.0199784 0
M  V30 1607 O 157.451 -4.18594 1.29269 0
M  V30 1608 C 158.952 -4.40499 -0.497544 0
M  V30 1609 H 156.172 -0.666292 0.0793452 0
M  V30 1610 H 158.716 -1.85323 0.864614 0
M  V30 1611 H 156.871 -3.8185 -0.653402 0
M  V30 1612 H 157.285 -5.12026 1.13707 0
M  V30 1613 H 158.759 -5.49433 -0.531708 0
M  V30 1614 H 159.236 -4.11895 -1.52445 0
M  V30 1615 H 159.842 -4.25061 0.142562 0
M  V30 1616 N 158.157 -0.370918 -1.53173 0
M  V30 1617 C 159.573 -0.0200818 -1.59587 0
M  V30 1618 C 159.773 1.46279 -1.38581 0
M  V30 1619 O 158.829 2.22506 -1.19363 0
M  V30 1620 C 160.142 -0.4808 -2.96831 0
M  V30 1621 C 161.69 -0.435477 -3.09956 0
M  V30 1622 C 162.165 -0.872092 -4.4962 0
M  V30 1623 N 163.656 -0.827364 -4.55751 0
M  V30 1624 C 164.391 -1.13683 -5.62018 0
M  V30 1625 N 163.887 -1.51584 -6.76014 0
M  V30 1626 N 165.68 -1.05927 -5.52029 0
M  V30 1627 H 157.831 -1.33652 -1.65079 0
M  V30 1628 H 160.094 -0.546634 -0.774529 0
M  V30 1629 H 159.8 -1.51577 -3.1736 0
M  V30 1630 H 159.674 0.129796 -3.76977 0
M  V30 1631 H 162.061 0.590371 -2.89134 0
M  V30 1632 H 162.142 -1.08164 -2.31806 0
M  V30 1633 H 161.786 -1.89608 -4.71181 0
M  V30 1634 H 161.716 -0.203127 -5.26208 0
M  V30 1635 H 164.207 -0.548216 -3.73902 0
M  V30 1636 H 164.52 -1.73609 -7.53047 0
M  V30 1637 H 162.865 -1.55454 -6.77391 0
M  V30 1638 H 166.056 -0.762321 -4.61851 0
M  V30 1639 H 166.229 -1.30378 -6.34749 0
M  V30 1640 N 159.635 1.57281 -0.100228 0
M  V30 1641 C 160.863 1.98879 0.570509 0
M  V30 1642 C 161.278 0.979476 1.61405 0
M  V30 1643 O 160.635 -0.0302288 1.82475 0
M  V30 1644 C 160.686 3.4052 1.2136 0
M  V30 1645 O 160.407 4.37588 0.211786 0
M  V30 1646 C 161.908 3.97149 1.96945 0
M  V30 1647 H 159.128 0.653428 0.152555 0
M  V30 1648 H 161.672 2.03697 -0.18103 0
M  V30 1649 H 159.827 3.367 1.91603 0
M  V30 1650 H 160.241 5.20118 0.676607 0
M  V30 1651 H 161.715 4.98393 2.37294 0
M  V30 1652 H 162.192 3.3525 2.83733 0
M  V30 1653 H 162.798 4.04458 1.31506 0
M  V30 1654 N 161.113 -0.173488 1.56642 0
M  V30 1655 C 162.359 -0.887108 1.83035 0
M  V30 1656 C 162.714 -1.79965 0.680461 0
M  V30 1657 O 162.007 -1.88854 -0.323225 0
M  V30 1658 C 162.201 -1.72069 3.13252 0
M  V30 1659 C 162.03 -0.89035 4.40798 0
M  V30 1660 C 160.8 -0.566282 5.02117 0
M  V30 1661 C 162.998 -0.232921 5.13772 0
M  V30 1662 N 160.98 0.280427 6.13259 0
M  V30 1663 C 162.351 0.475046 6.18177 0
M  V30 1664 C 164.406 -0.150863 4.97671 0
M  V30 1665 C 163.109 1.25729 7.08227 0
M  V30 1666 C 165.135 0.618039 5.88162 0
M  V30 1667 C 164.497 1.31438 6.92029 0
M  V30 1668 H 160.596 -0.303303 0.720785 0
M  V30 1669 H 163.18 -0.154244 1.94088 0
M  V30 1670 H 161.351 -2.42499 3.03395 0
M  V30 1671 H 163.083 -2.37545 3.2765 0
M  V30 1672 H 159.838 -0.895852 4.6505 0
M  V30 1673 H 160.262 0.694027 6.73433 0
M  V30 1674 H 164.904 -0.674868 4.17379 0
M  V30 1675 H 162.622 1.79265 7.87966 0
M  V30 1676 H 166.208 0.683173 5.77775 0
M  V30 1677 H 165.088 1.89981 7.6084 0
M  V30 1678 N 162.591 -1.51276 -0.441967 0
M  V30 1679 C 163.839 -1.63392 -1.18943 0
M  V30 1680 C 164.16 -0.350159 -1.9183 0
M  V30 1681 O 163.43 0.633784 -1.85364 0
M  V30 1682 H 162.01 -0.602164 -0.442049 0
M  V30 1683 H 164.672 -1.88186 -0.507165 0
M  V30 1684 H 163.768 -2.45934 -1.92154 0
M  V30 1685 N 164.069 0.697108 -1.41344 0
M  V30 1686 C 165.316 1.45714 -1.40619 0
M  V30 1687 C 165.644 1.94494 -0.0147907 0
M  V30 1688 O 164.899 1.69794 0.973066 0
M  V30 1689 C 165.198 2.68553 -2.35826 0
M  V30 1690 C 164.864 2.38438 -3.82698 0
M  V30 1691 C 163.526 2.29936 -4.22709 0
M  V30 1692 C 165.878 2.13567 -4.75435 0
M  V30 1693 C 163.206 1.94656 -5.53467 0
M  V30 1694 C 165.558 1.79797 -6.06511 0
M  V30 1695 C 164.222 1.69789 -6.45545 0
M  V30 1696 H 163.492 0.533206 -0.51456 0
M  V30 1697 H 166.139 0.796901 -1.74131 0
M  V30 1698 H 164.444 3.39503 -1.95563 0
M  V30 1699 H 166.141 3.2669 -2.32539 0
M  V30 1700 H 162.731 2.4595 -3.51008 0
M  V30 1701 H 166.915 2.19082 -4.45328 0
M  V30 1702 H 162.171 1.8546 -5.82593 0
M  V30 1703 H 166.345 1.59572 -6.77872 0
M  V30 1704 H 163.972 1.4222 -7.46778 0
M  V30 1705 N 165.547 1.27147 0.931209 0
M  V30 1706 C 166.963 1.04475 1.20653 0
M  V30 1707 C 167.163 -0.223885 2.00252 0
M  V30 1708 O 166.219 -0.930332 2.34736 0
M  V30 1709 C 167.532 2.28209 1.95809 0
M  V30 1710 C 169.08 2.33211 2.08762 0
M  V30 1711 C 169.555 3.56665 2.87323 0
M  V30 1712 N 171.046 3.57201 2.94892 0
M  V30 1713 C 171.781 4.49395 3.56134 0
M  V30 1714 N 171.277 5.51889 4.18796 0
M  V30 1715 N 173.07 4.37026 3.53504 0
M  V30 1716 H 165.221 2.08612 0.399333 0
M  V30 1717 H 167.484 0.917312 0.239253 0
M  V30 1718 H 167.19 3.20538 1.44736 0
M  V30 1719 H 167.064 2.33247 2.96438 0
M  V30 1720 H 169.451 1.41391 2.59023 0
M  V30 1721 H 169.532 2.32178 1.07364 0
M  V30 1722 H 169.176 4.4882 2.37746 0
M  V30 1723 H 169.106 3.54948 3.88998 0
M  V30 1724 H 171.597 2.83074 2.50354 0
M  V30 1725 H 171.91 6.18409 4.63454 0
M  V30 1726 H 170.255 5.55735 4.17353 0
M  V30 1727 H 173.446 3.56166 3.03749 0
M  V30 1728 H 173.619 5.09067 4.00942 0
M  V30 1729 N 167.025 -1.13721 1.09112 0
M  V30 1730 C 167.988 -2.17222 0.731241 0
M  V30 1731 C 168.988 -1.59035 -0.237566 0
M  V30 1732 O 170.178 -1.74192 -0.0161704 0
M  V30 1733 C 167.31 -3.40804 0.0808443 0
M  V30 1734 H 168.503 -2.50573 1.64783 0
M  V30 1735 H 166.056 -1.28493 0.889897 0
M  V30 1736 H 166.791 -3.1304 -0.847127 0
M  V30 1737 H 166.576 -3.84306 0.777896 0
M  V30 1738 H 168.066 -4.1731 -0.155657 0
M  V30 1739 N 168.503 -0.877838 -1.30888 0
M  V30 1740 C 169.914 -0.544193 -1.78593 0
M  V30 1741 C 170.265 0.939301 -1.72254 0
M  V30 1742 O 169.39 1.7337 -1.29505 0
M  V30 1743 C 169.985 -0.98105 -3.24285 0
M  V30 1744 C 168.544 -0.698935 -3.69854 0
M  V30 1745 C 167.691 -1.168 -2.51502 0
M  V30 1746 H 170.642 -1.06278 -1.17859 0
M  V30 1747 H 170.663 -0.307009 -3.79259 0
M  V30 1748 H 170.175 -2.06079 -3.28866 0
M  V30 1749 H 168.276 0.369112 -3.70767 0
M  V30 1750 H 168.389 -1.28148 -4.61644 0
M  V30 1751 H 166.753 -0.587535 -2.47831 0
M  V30 1752 H 167.536 -2.25533 -2.58824 0
M  V30 1753 N 169.982 1.44106 -0.638065 0
M  V30 1754 C 170.93 2.3248 0.0748149 0
M  V30 1755 C 171.924 1.47746 0.828702 0
M  V30 1756 O 173.13 1.64049 0.740816 0
M  V30 1757 H 169.505 0.750771 0.0429686 0
M  V30 1758 H 171.476 2.90348 -0.688504 0
M  V30 1759 C 170.225 3.31843 1.03805 0
M  V30 1760 H 169.548 3.97059 0.467375 0
M  V30 1761 H 170.988 3.96345 1.50622 0
M  V30 1762 C 169.447 2.61291 2.1267 0
M  V30 1763 O 169.977 2.41702 3.20847 0
M  V30 1764 N 168.183 2.20915 1.88798 0
M  V30 1765 H 167.73 2.37047 1.00829 0
M  V30 1766 H 167.688 1.74038 2.61836 0
M  V30 1767 N 171.46 0.379036 1.52974 0
M  V30 1768 C 172.39 -0.452706 2.29069 0
M  V30 1769 C 173.371 -1.07237 1.32039 0
M  V30 1770 O 174.556 -1.08708 1.60923 0
M  V30 1771 C 171.686 -1.5856 3.08992 0
M  V30 1772 C 170.64 -1.0925 4.13822 0
M  V30 1773 C 169.966 -2.31668 4.81907 0
M  V30 1774 C 171.266 -0.167702 5.22031 0
M  V30 1775 H 172.96 0.182181 2.98845 0
M  V30 1776 H 170.506 0.0890592 1.43724 0
M  V30 1777 H 172.459 -2.1742 3.6098 0
M  V30 1778 H 171.183 -2.24792 2.36931 0
M  V30 1779 H 169.842 -0.526494 3.628 0
M  V30 1780 H 169.49 -2.96386 4.06404 0
M  V30 1781 H 169.19 -1.9934 5.52754 0
M  V30 1782 H 170.714 -2.91189 5.36695 0
M  V30 1783 H 172.128 -0.664186 5.6944 0
M  V30 1784 H 170.525 0.0653265 6.00064 0
M  V30 1785 H 171.595 0.786347 4.78482 0
M  V30 1786 N 172.938 -1.57226 0.108567 0
M  V30 1787 C 174.184 -1.95121 -0.552761 0
M  V30 1788 C 174.517 -0.991345 -1.66991 0
M  V30 1789 O 173.792 -0.0267211 -1.94482 0
M  V30 1790 C 174.075 -3.43039 -1.09528 0
M  V30 1791 C 173.928 -4.49797 0.0177332 0
M  V30 1792 C 175.247 -3.92567 -1.98945 0
M  V30 1793 H 172.366 -0.709496 -0.199461 0
M  V30 1794 H 175.008 -1.89126 0.182011 0
M  V30 1795 H 173.158 -3.48279 -1.72146 0
M  V30 1796 H 174.83 -4.56661 0.652584 0
M  V30 1797 H 173.073 -4.284 0.682309 0
M  V30 1798 H 173.744 -5.50528 -0.402919 0
M  V30 1799 H 176.22 -3.89565 -1.46214 0
M  V30 1800 H 175.096 -4.96605 -2.33827 0
M  V30 1801 H 175.357 -3.32648 -2.91201 0
M  V30 1802 N 174.416 0.165178 -1.56732 0
M  V30 1803 C 175.662 0.882112 -1.82611 0
M  V30 1804 C 175.995 1.81628 -0.687378 0
M  V30 1805 O 175.27 1.92009 0.310267 0
M  V30 1806 C 175.553 1.67245 -3.18906 0
M  V30 1807 C 175.406 0.760987 -4.43316 0
M  V30 1808 C 176.725 2.63884 -3.52212 0
M  V30 1809 H 173.844 0.319242 -0.664269 0
M  V30 1810 H 176.486 0.148052 -1.89422 0
M  V30 1811 H 174.636 2.29824 -3.1323 0
M  V30 1812 H 176.308 0.147596 -4.61064 0
M  V30 1813 H 174.551 0.0694102 -4.33744 0
M  V30 1814 H 175.222 1.34962 -5.35247 0
M  V30 1815 H 177.698 2.11429 -3.58381 0
M  V30 1816 H 176.574 3.16245 -4.48643 0
M  V30 1817 H 176.835 3.44377 -2.77231 0
M  V30 1818 N 175.894 1.51508 0.433938 0
M  V30 1819 C 177.119 1.68443 1.21003 0
M  V30 1820 C 177.544 0.382636 1.84167 0
M  V30 1821 O 176.902 -0.65755 1.68956 0
M  V30 1822 C 176.95 2.80405 2.26727 0
M  V30 1823 O 176.054 2.44245 3.32292 0
M  V30 1824 H 175.395 0.561536 0.354363 0
M  V30 1825 H 177.925 1.9809 0.512024 0
M  V30 1826 H 177.935 3.0459 2.71457 0
M  V30 1827 H 176.61 3.74867 1.80132 0
M  V30 1828 H 175.187 2.30644 2.93015 0
M  V30 1829 N 177.372 -0.689602 1.41712 0
M  V30 1830 C 178.618 -1.45181 1.41599 0
M  V30 1831 C 178.951 -1.94181 0.0270081 0
M  V30 1832 O 178.226 -1.6993 -0.946265 0
M  V30 1833 C 178.509 -2.65945 2.42787 0
M  V30 1834 C 178.362 -2.22672 3.90816 0
M  V30 1835 C 179.681 -3.68149 2.41151 0
M  V30 1836 H 176.8 -0.526576 0.515642 0
M  V30 1837 H 179.442 -0.784947 1.73028 0
M  V30 1838 H 177.592 -3.2284 2.16116 0
M  V30 1839 H 179.264 -1.71058 4.28412 0
M  V30 1840 H 177.507 -1.54394 4.05395 0
M  V30 1841 H 178.178 -3.0935 4.57172 0
M  V30 1842 H 180.654 -3.2094 2.64834 0
M  V30 1843 H 179.53 -4.50248 3.13955 0
M  V30 1844 H 179.791 -4.18259 1.43221 0
M  V30 1845 N 178.85 -1.27639 -0.924453 0
M  V30 1846 C 179.78 -1.13166 -2.04244 0
M  V30 1847 C 180.761 -0.032256 -1.70069 0
M  V30 1848 O 181.946 -0.207328 -1.9309 0
M  V30 1849 C 179.076 -0.781496 -3.38393 0
M  V30 1850 C 178.03 -1.83449 -3.86692 0
M  V30 1851 C 177.356 -1.33822 -5.17683 0
M  V30 1852 C 178.656 -3.23917 -4.09726 0
M  V30 1853 H 180.35 -2.06689 -2.1661 0
M  V30 1854 H 177.896 -0.995136 -1.04082 0
M  V30 1855 H 179.849 -0.667057 -4.16087 0
M  V30 1856 H 178.573 0.189439 -3.2605 0
M  V30 1857 H 177.232 -1.93789 -3.11193 0
M  V30 1858 H 176.88 -0.35665 -5.01734 0
M  V30 1859 H 176.58 -2.04224 -5.50968 0
M  V30 1860 H 178.104 -1.23679 -5.97943 0
M  V30 1861 H 179.518 -3.16559 -4.77978 0
M  V30 1862 H 177.915 -3.92059 -4.54324 0
M  V30 1863 H 178.985 -3.68729 -3.14908 0
M  V30 1864 N 180.328 1.1314 -1.09713 0
M  V30 1865 C 181.576 1.84119 -0.833338 0
M  V30 1866 C 181.897 1.84097 0.642904 0
M  V30 1867 O 181.167 1.29881 1.46655 0
M  V30 1868 H 179.747 0.681766 -0.305293 0
M  V30 1869 H 182.409 1.37038 -1.38588 0
M  V30 1870 H 181.505 2.88543 -1.18951 0
M  V30 1871 N 181.806 0.884767 1.30421 0
M  V30 1872 C 183.054 0.502112 1.95763 0
M  V30 1873 C 183.375 -0.951815 1.70192 0
M  V30 1874 O 182.645 -1.6692 1.0254 0
M  V30 1875 H 181.225 0.182694 0.724315 0
M  V30 1876 H 183.887 1.1278 1.58955 0
M  V30 1877 H 182.983 0.672188 3.04775 0
M  V30 1878 N 183.284 -1.43765 0.645699 0
M  V30 1879 C 184.509 -2.06767 0.161883 0
M  V30 1880 C 184.934 -1.48034 -1.16049 0
M  V30 1881 O 184.292 -0.587369 -1.71522 0
M  V30 1882 C 184.34 -3.60519 0.0762003 0
M  V30 1883 O 183.444 -4.00982 -0.963721 0
M  V30 1884 H 182.785 -0.657675 0.091429 0
M  V30 1885 H 185.315 -1.84397 0.886499 0
M  V30 1886 H 185.325 -4.07853 -0.109604 0
M  V30 1887 H 184 -4.02646 1.04157 0
M  V30 1888 H 182.577 -3.65253 -0.751312 0
M  V30 1889 N 184.763 -0.387143 -1.52771 0
M  V30 1890 C 186.011 0.195349 -2.01154 0
M  V30 1891 C 186.332 1.475 -1.27549 0
M  V30 1892 O 185.602 1.91878 -0.394924 0
M  V30 1893 H 184.182 0.075178 -0.743207 0
M  V30 1894 H 186.844 -0.518337 -1.87881 0
M  V30 1895 H 185.94 0.407096 -3.09434 0
M  V30 1896 N 186.241 1.57166 -0.116904 0
M  V30 1897 C 187.489 1.94737 0.540533 0
M  V30 1898 C 187.81 1.00096 1.67349 0
M  V30 1899 O 187.08 0.0568854 1.95817 0
M  V30 1900 H 185.66 0.718981 0.202669 0
M  V30 1901 H 188.322 1.94017 -0.185353 0
M  V30 1902 H 187.418 2.97719 0.936483 0
M  V30 1903 N 187.719 -0.156864 1.56817 0
M  V30 1904 C 189.13 -0.717916 1.72345 0
M  V30 1905 C 189.481 -1.82124 0.729747 0
M  V30 1906 O 188.606 -2.16141 -0.105781 0
M  V30 1907 C 189.201 -1.30904 3.12489 0
M  V30 1908 C 187.76 -1.81676 3.29653 0
M  V30 1909 C 186.907 -0.701349 2.68284 0
M  V30 1910 H 189.858 0.0686989 1.58551 0
M  V30 1911 H 189.879 -2.17882 3.11942 0
M  V30 1912 H 189.391 -0.505796 3.8479 0
M  V30 1913 H 187.492 -2.64598 2.62333 0
M  V30 1914 H 187.605 -1.95226 4.3752 0
M  V30 1915 H 185.969 -1.12548 2.28484 0
M  V30 1916 H 186.752 0.0902846 3.43181 0
M  V30 1917 N 189.197 -1.51736 -0.425897 0
M  V30 1918 C 190.443 -1.65214 -1.1761 0
M  V30 1919 C 190.776 -0.372778 -1.90589 0
M  V30 1920 O 190.051 0.628139 -1.84078 0
M  V30 1921 C 190.334 -2.86312 -2.18398 0
M  V30 1922 C 190.187 -4.24254 -1.49426 0
M  V30 1923 C 191.506 -3.02925 -3.19256 0
M  V30 1924 H 188.625 -0.601263 -0.426206 0
M  V30 1925 H 191.267 -1.8425 -0.463882 0
M  V30 1926 H 189.417 -2.70213 -2.79137 0
M  V30 1927 H 191.089 -4.52046 -0.919362 0
M  V30 1928 H 189.332 -4.26426 -0.796432 0
M  V30 1929 H 190.003 -5.05001 -2.22885 0
M  V30 1930 H 192.479 -3.1781 -2.68581 0
M  V30 1931 H 191.355 -3.89199 -3.8706 0
M  V30 1932 H 191.616 -2.15497 -3.86023 0
M  V30 1933 N 190.675 0.682077 -1.42076 0
M  V30 1934 C 191.605 1.80796 -1.47767 0
M  V30 1935 C 192.586 1.6677 -0.334954 0
M  V30 1936 O 193.771 1.863 -0.548264 0
M  V30 1937 C 190.901 3.19038 -1.37229 0
M  V30 1938 C 189.855 3.47789 -2.49453 0
M  V30 1939 C 189.181 4.8553 -2.23975 0
M  V30 1940 C 190.481 3.45411 -3.91776 0
M  V30 1941 H 192.175 1.7629 -2.41997 0
M  V30 1942 H 189.721 0.846721 -1.16476 0
M  V30 1943 H 191.674 3.97528 -1.39821 0
M  V30 1944 H 190.398 3.24204 -0.394907 0
M  V30 1945 H 189.057 2.71657 -2.46166 0
M  V30 1946 H 188.705 4.87337 -1.24547 0
M  V30 1947 H 188.405 5.0573 -2.99184 0
M  V30 1948 H 189.929 5.66312 -2.28304 0
M  V30 1949 H 191.343 4.13882 -3.96705 0
M  V30 1950 H 189.74 3.77145 -4.66778 0
M  V30 1951 H 190.81 2.44122 -4.18966 0
M  V30 1952 N 192.153 1.28127 0.917671 0
M  V30 1953 C 193.085 1.07517 2.02417 0
M  V30 1954 C 194.098 0.0281099 1.62776 0
M  V30 1955 O 195.287 0.270748 1.76435 0
M  V30 1956 C 192.387 0.610957 3.33347 0
M  V30 1957 C 191.56 1.73255 4.01624 0
M  V30 1958 C 190.619 1.26238 5.10833 0
M  V30 1959 O 189.645 1.96389 5.34247 0
M  V30 1960 N 190.847 0.123448 5.80369 0
M  V30 1961 H 193.612 2.02806 2.20658 0
M  V30 1962 H 191.173 1.19827 1.08871 0
M  V30 1963 H 193.165 0.280101 4.0373 0
M  V30 1964 H 191.735 -0.24898 3.11607 0
M  V30 1965 H 190.955 2.23319 3.24842 0
M  V30 1966 H 192.243 2.48503 4.43986 0
M  V30 1967 H 191.641 -0.461847 5.63812 0
M  V30 1968 H 190.198 -0.148158 6.51632 0
M  V30 1969 N 193.631 -1.12557 1.10312 0
M  V30 1970 C 194.859 -1.87864 0.866873 0
M  V30 1971 C 195.274 -1.79588 -0.582557 0
M  V30 1972 O 194.631 -1.16887 -1.40156 0
M  V30 1973 C 194.682 -3.37125 1.30496 0
M  V30 1974 O 194.403 -3.45201 2.69755 0
M  V30 1975 C 195.904 -4.29373 1.10243 0
M  V30 1976 H 193.124 -0.594452 0.311236 0
M  V30 1977 H 195.668 -1.42429 1.46745 0
M  V30 1978 H 193.823 -3.80109 0.748081 0
M  V30 1979 H 194.237 -4.38056 2.88457 0
M  V30 1980 H 195.711 -5.32394 1.45811 0
M  V30 1981 H 196.188 -4.39181 0.0409492 0
M  V30 1982 H 196.794 -3.92169 1.64571 0
M  V30 1983 N 195.109 -0.891671 -1.2995 0
M  V30 1984 C 196.355 -0.523649 -1.96544 0
M  V30 1985 C 196.71 0.918394 -1.69066 0
M  V30 1986 O 196.003 1.64122 -0.988659 0
M  V30 1987 C 196.197 -0.742868 -3.49594 0
M  V30 1988 C 196.026 -2.20467 -3.9195 0
M  V30 1989 C 194.796 -2.85055 -4.17219 0
M  V30 1990 C 196.994 -3.17912 -4.04273 0
M  V30 1991 N 194.976 -4.21762 -4.46083 0
M  V30 1992 C 196.347 -4.39712 -4.37097 0
M  V30 1993 C 198.402 -3.1361 -3.86721 0
M  V30 1994 C 197.105 -5.5776 -4.54199 0
M  V30 1995 C 199.131 -4.30936 -4.05028 0
M  V30 1996 C 198.493 -5.51504 -4.38204 0
M  V30 1997 H 194.592 -0.241072 -0.743914 0
M  V30 1998 H 197.176 -1.15081 -1.5705 0
M  V30 1999 H 195.347 -0.14515 -3.88129 0
M  V30 2000 H 197.079 -0.341081 -4.0326 0
M  V30 2001 H 193.834 -2.35889 -4.10674 0
M  V30 2002 H 194.258 -4.92382 -4.64638 0
M  V30 2003 H 198.9 -2.21489 -3.60142 0
M  V30 2004 H 196.618 -6.50379 -4.79618 0
M  V30 2005 H 200.204 -4.29085 -3.92909 0
M  V30 2006 H 199.084 -6.40778 -4.52077 0
M  V30 2007 N 196.587 1.43421 -0.653314 0
M  V30 2008 C 197.517 2.33487 0.0246656 0
M  V30 2009 C 198.498 1.49475 0.811863 0
M  V30 2010 O 199.683 1.78139 0.773322 0
M  V30 2011 C 196.813 3.32841 0.99166 0
M  V30 2012 C 195.767 4.26842 0.314568 0
M  V30 2013 C 195.093 5.16236 1.39302 0
M  V30 2014 C 196.393 5.16243 -0.793095 0
M  V30 2015 H 198.087 2.90427 -0.727481 0
M  V30 2016 H 195.633 1.39649 -0.351287 0
M  V30 2017 H 197.586 3.94747 1.47487 0
M  V30 2018 H 196.31 2.74158 1.77497 0
M  V30 2019 H 194.969 3.663 -0.148199 0
M  V30 2020 H 194.617 4.53891 2.16776 0
M  V30 2021 H 194.317 5.79948 0.945223 0
M  V30 2022 H 195.841 5.81015 1.87759 0
M  V30 2023 H 197.255 5.71958 -0.392039 0
M  V30 2024 H 195.652 5.88676 -1.16536 0
M  V30 2025 H 196.722 4.55927 -1.65103 0
M  V30 2026 N 198.065 0.39524 1.52563 0
M  V30 2027 C 198.997 -0.472201 2.24283 0
M  V30 2028 C 200.01 -1.02178 1.26742 0
M  V30 2029 O 201.199 -0.923097 1.52778 0
M  V30 2030 C 198.299 -1.66775 2.95024 0
M  V30 2031 C 197.472 -1.2445 4.19322 0
M  V30 2032 C 196.531 -2.30539 4.7301 0
M  V30 2033 O 195.557 -1.91702 5.35947 0
M  V30 2034 N 196.759 -3.6253 4.53379 0
M  V30 2035 H 199.524 0.142282 2.99362 0
M  V30 2036 H 197.085 0.2219 1.60372 0
M  V30 2037 H 199.077 -2.37283 3.27839 0
M  V30 2038 H 197.647 -2.18845 2.23217 0
M  V30 2039 H 196.867 -0.368069 3.92478 0
M  V30 2040 H 198.155 -0.938457 5.0007 0
M  V30 2041 H 197.553 -3.96841 4.03154 0
M  V30 2042 H 196.11 -4.29055 4.90668 0
M  V30 2043 N 199.544 -1.57102 0.125237 0
M  V30 2044 C 200.821 -1.86953 -0.575142 0
M  V30 2045 C 201.201 -1.02749 -1.84407 0
M  V30 2046 O 200.549 -0.108144 -2.28244 0
M  V30 2047 C 200.759 -3.38198 -0.861583 0
M  V30 2048 C 202.107 -4.06937 -1.21192 0
M  V30 2049 O 203.131 -3.43252 -0.951645 0
M  V30 2050 O 201.99 -5.19364 -1.70068 0
M  V30 2051 H 199.084 -0.774147 -0.290906 0
M  V30 2052 H 201.63 -1.68942 0.160211 0
M  V30 2053 H 200.402 -3.91282 0.0373647 0
M  V30 2054 H 200.025 -3.61661 -1.65188 0
M  V30 2055 N 201.022 0.148545 -1.56898 0
M  V30 2056 C 201.952 1.18524 -2.01182 0
M  V30 2057 C 202.933 1.4489 -0.891123 0
M  V30 2058 O 204.118 1.55836 -1.15882 0
M  V30 2059 C 201.248 2.51879 -2.39112 0
M  V30 2060 C 200.202 2.40038 -3.54353 0
M  V30 2061 C 199.528 3.78089 -3.78091 0
M  V30 2062 C 200.828 1.88577 -4.87069 0
M  V30 2063 H 202.522 0.817029 -2.88036 0
M  V30 2064 H 200.068 0.391575 -1.38574 0
M  V30 2065 H 202.021 3.24627 -2.68692 0
M  V30 2066 H 200.745 2.90532 -1.49193 0
M  V30 2067 H 199.404 1.69742 -3.24936 0
M  V30 2068 H 199.052 4.14175 -2.85426 0
M  V30 2069 H 198.752 3.71028 -4.55645 0
M  V30 2070 H 200.276 4.52387 -4.10095 0
M  V30 2071 H 201.69 2.51117 -5.15377 0
M  V30 2072 H 200.087 1.9241 -5.68417 0
M  V30 2073 H 201.157 0.84136 -4.77545 0
M  V30 2074 N 202.5 1.5196 0.417844 0
M  V30 2075 C 203.43 1.77634 1.51554 0
M  V30 2076 C 204.411 0.626918 1.58126 0
M  V30 2077 O 205.596 0.871632 1.7354 0
M  V30 2078 C 202.726 1.91911 2.8946 0
M  V30 2079 C 201.68 3.07463 2.97743 0
M  V30 2080 C 201.006 3.06951 4.37819 0
M  V30 2081 C 202.306 4.47082 2.70027 0
M  V30 2082 H 204 2.6955 1.3032 0
M  V30 2083 H 201.546 1.29706 0.625492 0
M  V30 2084 H 203.499 2.08455 3.6623 0
M  V30 2085 H 202.223 0.966598 3.11969 0
M  V30 2086 H 200.882 2.90656 2.23416 0
M  V30 2087 H 200.53 2.09438 4.57323 0
M  V30 2088 H 200.23 3.84556 4.44286 0
M  V30 2089 H 201.754 3.25613 5.16535 0
M  V30 2090 H 203.168 4.6414 3.36522 0
M  V30 2091 H 201.565 5.2654 2.87881 0
M  V30 2092 H 202.635 4.55777 1.65514 0
M  V30 2093 N 203.978 -0.674533 1.42435 0
M  V30 2094 C 205.394 -0.98769 1.25367 0
M  V30 2095 C 205.594 -2.00879 0.158044 0
M  V30 2096 O 204.65 -2.48075 -0.470633 0
M  V30 2097 C 205.963 -1.49224 2.6106 0
M  V30 2098 C 207.511 -1.61 2.68417 0
M  V30 2099 C 207.986 -2.14852 4.04478 0
M  V30 2100 N 209.477 -2.22185 4.06434 0
M  V30 2101 C 210.212 -2.64928 5.08528 0
M  V30 2102 N 209.708 -3.07121 6.21006 0
M  V30 2103 N 211.501 -2.64679 4.95885 0
M  V30 2104 H 203.652 0.00152503 2.124 0
M  V30 2105 H 205.915 -0.0618434 0.945981 0
M  V30 2106 H 205.621 -0.816453 3.42092 0
M  V30 2107 H 205.495 -2.47094 2.84999 0
M  V30 2108 H 207.882 -2.27686 1.87732 0
M  V30 2109 H 207.963 -0.616195 2.48267 0
M  V30 2110 H 207.607 -1.48775 4.85622 0
M  V30 2111 H 207.537 -3.15024 4.2198 0
M  V30 2112 H 210.028 -1.92435 3.25234 0
M  V30 2113 H 210.341 -3.38423 6.94759 0
M  V30 2114 H 208.686 -3.04978 6.24511 0
M  V30 2115 H 211.877 -2.31078 4.07088 0
M  V30 2116 H 212.05 -2.9767 5.75584 0
M  V30 2117 N 205.456 -1.28612 -0.910864 0
M  V30 2118 C 206.872 -1.06381 -1.18976 0
M  V30 2119 C 207.072 0.191998 -2.00583 0
M  V30 2120 O 206.128 0.892869 -2.36187 0
M  V30 2121 C 207.441 -2.31295 -1.92154 0
M  V30 2122 C 208.989 -2.36503 -2.05025 0
M  V30 2123 C 209.464 -3.61191 -2.81612 0
M  V30 2124 N 210.955 -3.61847 -2.89172 0
M  V30 2125 C 211.69 -4.55004 -3.4894 0
M  V30 2126 N 211.186 -5.58482 -4.09963 0
M  V30 2127 N 212.979 -4.42594 -3.46506 0
M  V30 2128 H 205.13 -2.09221 -0.366094 0
M  V30 2129 H 207.393 -0.921003 -0.224629 0
M  V30 2130 H 207.099 -3.228 -1.39618 0
M  V30 2131 H 206.973 -2.37934 -2.9269 0
M  V30 2132 H 209.36 -1.45494 -2.5674 0
M  V30 2133 H 209.441 -2.33857 -1.03657 0
M  V30 2134 H 209.085 -4.52545 -2.30576 0
M  V30 2135 H 209.015 -3.61092 -3.83302 0
M  V30 2136 H 211.506 -2.87022 -2.45819 0
M  V30 2137 H 211.819 -6.25704 -4.53557 0
M  V30 2138 H 210.164 -5.62305 -4.08459 0
M  V30 2139 H 213.355 -3.60953 -2.98045 0
M  V30 2140 H 213.528 -5.15381 -3.92793 0
M  V30 2141 N 206.934 1.1197 -1.10907 0
M  V30 2142 C 208.182 1.83225 -0.852819 0
M  V30 2143 C 208.503 1.84769 0.623341 0
M  V30 2144 O 207.773 1.3143 1.45269 0
M  V30 2145 H 206.353 0.67849 -0.312507 0
M  V30 2146 H 209.015 1.3556 -1.40033 0
M  V30 2147 H 208.111 2.87265 -1.22005 0
M  V30 2148 N 208.412 0.89855 1.29475 0
M  V30 2149 C 209.342 0.39201 2.30186 0
M  V30 2150 C 210.323 -0.532359 1.61555 0
M  V30 2151 O 211.508 -0.443331 1.89072 0
M  V30 2152 C 208.638 -0.382353 3.45189 0
M  V30 2153 C 207.592 0.451483 4.25612 0
M  V30 2154 C 206.918 -0.450307 5.328 0
M  V30 2155 C 208.218 1.70079 4.93832 0
M  V30 2156 H 209.912 1.23362 2.72804 0
M  V30 2157 H 207.458 0.594638 1.31149 0
M  V30 2158 H 209.411 -0.747451 4.14718 0
M  V30 2159 H 208.135 -1.25774 3.01411 0
M  V30 2160 H 206.794 0.798897 3.57789 0
M  V30 2161 H 206.442 -1.32379 4.85268 0
M  V30 2162 H 206.142 0.103902 5.87508 0
M  V30 2163 H 207.666 -0.811623 6.05182 0
M  V30 2164 H 209.08 1.40549 5.55805 0
M  V30 2165 H 207.477 2.19623 5.58467 0
M  V30 2166 H 208.547 2.43744 4.19186 0
M  V30 2167 N 209.89 -1.43072 0.660911 0
M  V30 2168 C 211.136 -2.0202 0.177708 0
M  V30 2169 C 211.469 -1.52066 -1.20787 0
M  V30 2170 O 210.744 -0.716987 -1.80802 0
M  V30 2171 C 211.027 -3.59561 0.197019 0
M  V30 2172 C 210.88 -4.19727 1.61706 0
M  V30 2173 C 212.199 -4.37664 -0.462396 0
M  V30 2174 H 209.318 -0.734034 0.0660494 0
M  V30 2175 H 211.96 -1.70272 0.843058 0
M  V30 2176 H 210.11 -3.86739 -0.369527 0
M  V30 2177 H 211.782 -4.03553 2.23479 0
M  V30 2178 H 210.025 -3.76084 2.16201 0
M  V30 2179 H 210.696 -5.28834 1.58237 0
M  V30 2180 H 213.172 -4.16095 0.0197215 0
M  V30 2181 H 212.048 -5.47305 -0.418188 0
M  V30 2182 H 212.309 -4.14493 -1.53778 0
M  V30 2183 N 211.368 -0.403325 -1.52352 0
M  V30 2184 C 212.784 -0.0539281 -1.59509 0
M  V30 2185 C 212.984 1.43307 -1.41652 0
M  V30 2186 O 212.04 2.19924 -1.24056 0
M  V30 2187 C 213.353 -0.543654 -2.95745 0
M  V30 2188 C 214.901 -0.501125 -3.08962 0
M  V30 2189 C 215.376 -0.967267 -4.47669 0
M  V30 2190 N 216.867 -0.923849 -4.53893 0
M  V30 2191 C 217.602 -1.25578 -5.5948 0
M  V30 2192 N 217.098 -1.65889 -6.72646 0
M  V30 2193 N 218.891 -1.17613 -5.49658 0
M  V30 2194 H 211.042 -1.37123 -1.62206 0
M  V30 2195 H 213.305 -0.56294 -0.76276 0
M  V30 2196 H 213.011 -1.58275 -3.14073 0
M  V30 2197 H 212.885 0.0498042 -3.77167 0
M  V30 2198 H 215.272 0.528909 -2.90321 0
M  V30 2199 H 215.353 -1.13056 -2.2946 0
M  V30 2200 H 214.997 -1.9956 -4.67053 0
M  V30 2201 H 214.927 -0.314698 -5.25659 0
M  V30 2202 H 217.418 -0.627403 -3.72655 0
M  V30 2203 H 217.731 -1.89543 -7.49195 0
M  V30 2204 H 216.076 -1.69787 -6.73942 0
M  V30 2205 H 219.267 -0.860115 -4.6013 0
M  V30 2206 H 219.44 -1.43812 -6.3184 0
M  V30 2207 N 212.846 1.57033 -0.133567 0
M  V30 2208 C 213.809 2.14897 0.796995 0
M  V30 2209 C 214.809 1.0874 1.18458 0
M  V30 2210 O 215.999 1.34446 1.1077 0
M  V30 2211 C 213.131 2.70112 2.07973 0
M  V30 2212 H 214.324 2.98457 0.293873 0
M  V30 2213 H 211.877 1.55871 0.115787 0
M  V30 2214 H 212.612 1.9018 2.62682 0
M  V30 2215 H 212.397 3.47764 1.81115 0
M  V30 2216 H 213.887 3.14738 2.74462 0
M  V30 2217 N 214.325 -0.140222 1.56975 0
M  V30 2218 C 215.288 -1.15689 1.97861 0
M  V30 2219 C 216.288 -1.3549 0.865974 0
M  V30 2220 O 217.478 -1.32367 1.13246 0
M  V30 2221 C 214.61 -2.51582 2.30042 0
M  V30 2222 H 215.803 -0.805971 2.88867 0
M  V30 2223 H 213.356 -0.383801 1.51515 0
M  V30 2224 H 214.091 -2.91632 1.41849 0
M  V30 2225 H 213.876 -2.38569 3.11171 0
M  V30 2226 H 215.366 -3.24792 2.62488 0
M  V30 2227 N 215.803 -1.52179 -0.40978 0
M  V30 2228 C 216.735 -1.71703 -1.51825 0
M  V30 2229 C 217.748 -0.597445 -1.51441 0
M  V30 2230 O 218.937 -0.872582 -1.55719 0
M  V30 2231 C 216.037 -1.74171 -2.90719 0
M  V30 2232 C 215.21 -3.03156 -3.15302 0
M  V30 2233 C 214.269 -2.97445 -4.34065 0
M  V30 2234 O 213.295 -3.71352 -4.31377 0
M  V30 2235 N 214.497 -2.15191 -5.39141 0
M  V30 2236 H 217.262 -2.67334 -1.35472 0
M  V30 2237 H 214.823 -1.50409 -0.599069 0
M  V30 2238 H 216.815 -1.67884 -3.68235 0
M  V30 2239 H 215.385 -0.860166 -3.00533 0
M  V30 2240 H 214.605 -3.23097 -2.25836 0
M  V30 2241 H 215.893 -3.88484 -3.28569 0
M  V30 2242 H 215.291 -1.54573 -5.44173 0
M  V30 2243 H 213.848 -2.1476 -6.15403 0
M  V30 2244 N 217.281 0.66697 -1.42791 0
M  V30 2245 C 218.506 1.46004 -1.47301 0
M  V30 2246 C 218.931 1.87894 -0.0880317 0
M  V30 2247 O 218.289 1.56502 0.915253 0
M  V30 2248 C 218.337 2.68031 -2.41229 0
M  V30 2249 O 217.441 3.6659 -1.88906 0
M  V30 2250 H 216.782 0.43832 -0.49877 0
M  V30 2251 H 219.312 0.817391 -1.87563 0
M  V30 2252 H 219.322 3.1601 -2.58073 0
M  V30 2253 H 217.997 2.36883 -3.41847 0
M  V30 2254 H 216.574 3.25661 -1.81656 0
M  V30 2255 N 218.759 1.29093 0.90403 0
M  V30 2256 C 219.987 1.19689 1.68766 0
M  V30 2257 C 220.402 -0.243113 1.87228 0
M  V30 2258 O 219.759 -1.16326 1.40621 0
M  V30 2259 C 219.81 1.90144 3.07453 0
M  V30 2260 O 219.531 3.2852 2.89838 0
M  V30 2261 C 221.032 1.87162 4.01852 0
M  V30 2262 H 218.252 0.415035 0.527244 0
M  V30 2263 H 220.796 1.7039 1.13082 0
M  V30 2264 H 218.951 1.43289 3.59926 0
M  V30 2265 H 219.365 3.63944 3.77684 0
M  V30 2266 H 220.839 2.41032 4.96596 0
M  V30 2267 H 221.316 0.84617 4.30972 0
M  V30 2268 H 221.922 2.33741 3.5531 0
M  V30 2269 N 220.237 -1.11381 1.11499 0
M  V30 2270 C 221.485 -1.8277 0.862524 0
M  V30 2271 C 221.806 -1.85097 -0.613534 0
M  V30 2272 O 221.076 -1.32198 -1.4457 0
M  V30 2273 H 219.656 -0.676823 0.316101 0
M  V30 2274 H 222.318 -1.34816 1.4075 0
M  V30 2275 H 221.414 -2.86614 1.23527 0
M  V30 2276 N 221.715 -0.905404 -1.28997 0
M  V30 2277 C 222.678 -0.392253 -2.25819 0
M  V30 2278 C 223.678 0.476753 -1.5357 0
M  V30 2279 O 224.868 0.280994 -1.71919 0
M  V30 2280 C 222 0.438588 -3.38067 0
M  V30 2281 H 223.193 -1.24743 -2.72725 0
M  V30 2282 H 220.746 -0.684051 -1.40536 0
M  V30 2283 H 221.481 1.31352 -2.96508 0
M  V30 2284 H 221.266 -0.184167 -3.91667 0
M  V30 2285 H 222.756 0.78873 -4.10084 0
M  V30 2286 N 223.193 1.4272 -0.668489 0
M  V30 2287 C 224.439 2.02443 -0.197076 0
M  V30 2288 C 224.794 1.51882 1.18109 0
M  V30 2289 O 224.087 0.708618 1.78015 0
M  V30 2290 C 224.281 3.57021 -0.164499 0
M  V30 2291 C 224.11 4.22583 -1.53797 0
M  V30 2292 C 222.88 4.58019 -2.13416 0
M  V30 2293 C 225.078 4.50588 -2.47941 0
M  V30 2294 N 223.06 5.08729 -3.4361 0
M  V30 2295 C 224.431 5.02782 -3.62782 0
M  V30 2296 C 226.486 4.32571 -2.46551 0
M  V30 2297 C 225.189 5.38852 -4.76478 0
M  V30 2298 C 227.215 4.69713 -3.59338 0
M  V30 2299 C 226.577 5.22053 -4.72906 0
M  V30 2300 H 222.676 0.773214 -0.116894 0
M  V30 2301 H 225.26 1.73673 -0.880108 0
M  V30 2302 H 223.431 3.85323 0.487925 0
M  V30 2303 H 225.163 4.03439 0.319207 0
M  V30 2304 H 221.918 4.43566 -1.65969 0
M  V30 2305 H 222.342 5.38521 -4.10273 0
M  V30 2306 H 226.984 3.91365 -1.59978 0
M  V30 2307 H 224.702 5.78993 -5.63731 0
M  V30 2308 H 228.288 4.57454 -3.59482 0
M  V30 2309 H 227.168 5.50258 -5.58736 0
M  V30 2310 N 224.671 0.411399 1.52136 0
M  V30 2311 C 225.92 -0.165009 2.01024 0
M  V30 2312 C 226.233 -1.4603 1.30133 0
M  V30 2313 O 227.439 -2.1181 1.69849 0
M  V30 2314 C 225.895 -0.344618 3.58246 0
M  V30 2315 C 225.503 0.938716 4.38055 0
M  V30 2316 C 227.247 -0.876195 4.15359 0
M  V30 2317 C 225.154 0.726172 5.86925 0
M  V30 2318 H 224.084 -0.0654407 0.751155 0
M  V30 2319 H 226.735 0.537192 1.75461 0
M  V30 2320 H 225.117 -1.10921 3.80148 0
M  V30 2321 H 226.291 1.70963 4.27912 0
M  V30 2322 H 224.606 1.39688 3.92271 0
M  V30 2323 H 227.203 -1.05128 5.24263 0
M  V30 2324 H 227.546 -1.85152 3.7286 0
M  V30 2325 H 228.079 -0.170607 3.97434 0
M  V30 2326 H 224.818 1.67312 6.33788 0
M  V30 2327 H 224.338 -0.00540283 5.998 0
M  V30 2328 H 226.017 0.369231 6.45946 0
M  V30 2329 N 226.149 -1.5696 0.141893 0
M  V30 2330 C 227.395 -1.9625 -0.511248 0
M  V30 2331 C 227.728 -1.02654 -1.64851 0
M  V30 2332 O 227.003 -0.0679676 -1.94381 0
M  V30 2333 C 227.286 -3.45285 -1.02227 0
M  V30 2334 C 227.139 -4.49658 0.113138 0
M  V30 2335 C 228.458 -3.96698 -1.90574 0
M  V30 2336 H 225.577 -0.713567 -0.184367 0
M  V30 2337 H 228.219 -1.88698 0.222087 0
M  V30 2338 H 226.369 -3.51852 -1.64719 0
M  V30 2339 H 228.041 -4.55174 0.749302 0
M  V30 2340 H 226.284 -4.26857 0.773026 0
M  V30 2341 H 226.955 -5.51258 -0.286053 0
M  V30 2342 H 229.431 -3.92578 -1.37918 0
M  V30 2343 H 228.307 -5.01453 -2.2324 0
M  V30 2344 H 228.568 -3.3875 -2.84079 0
M  V30 2345 N 227.627 0.131896 -1.57047 0
M  V30 2346 C 228.855 0.856461 -1.88341 0
M  V30 2347 C 229.27 1.74042 -0.731757 0
M  V30 2348 O 228.627 1.80051 0.297945 0
M  V30 2349 C 228.678 1.70064 -3.18999 0
M  V30 2350 O 228.399 0.852278 -4.2973 0
M  V30 2351 C 229.9 2.53148 -3.63911 0
M  V30 2352 H 227.12 0.246885 -0.62393 0
M  V30 2353 H 229.664 0.120152 -2.04147 0
M  V30 2354 H 227.819 2.38984 -3.04902 0
M  V30 2355 H 228.233 1.43329 -5.04537 0
M  V30 2356 H 229.707 3.07931 -4.58129 0
M  V30 2357 H 230.184 3.29901 -2.89935 0
M  V30 2358 H 230.79 1.89492 -3.80753 0
M  V30 2359 N 229.106 1.52395 0.401703 0
M  V30 2360 C 230.354 1.66488 1.14569 0
M  V30 2361 C 230.675 0.400897 1.90835 0
M  V30 2362 O 229.945 -0.584415 1.8698 0
M  V30 2363 H 228.525 0.613672 0.425929 0
M  V30 2364 H 231.187 1.89464 0.457093 0
M  V30 2365 H 230.283 2.50942 1.85566 0
M  V30 2366 N 230.584 -0.659388 1.43143 0
M  V30 2367 C 231.832 -1.41654 1.44147 0
M  V30 2368 C 232.153 -1.94893 0.0645739 0
M  V30 2369 O 231.423 -1.74044 -0.899198 0
M  V30 2370 H 230.003 -0.525708 0.530697 0
M  V30 2371 H 232.665 -0.778097 1.78694 0
M  V30 2372 H 231.761 -2.26195 2.1504 0
M  V30 2373 N 232.062 -1.29571 -0.897171 0
M  V30 2374 C 232.992 -1.17473 -2.01798 0
M  V30 2375 C 233.973 -0.068323 -1.69963 0
M  V30 2376 O 235.158 -0.248239 -1.92607 0
M  V30 2377 C 232.288 -0.853099 -3.36659 0
M  V30 2378 C 231.242 -1.9161 -3.82713 0
M  V30 2379 C 230.568 -1.44773 -5.14728 0
M  V30 2380 C 231.868 -3.32535 -4.02763 0
M  V30 2381 H 233.562 -2.11237 -2.12177 0
M  V30 2382 H 231.108 -1.01699 -1.01948 0
M  V30 2383 H 233.061 -0.755165 -4.14578 0
M  V30 2384 H 231.785 0.120236 -3.26379 0
M  V30 2385 H 230.444 -2.00346 -3.07013 0
M  V30 2386 H 230.092 -0.462995 -5.00865 0
M  V30 2387 H 229.792 -2.15865 -5.46513 0
M  V30 2388 H 231.316 -1.36334 -5.95185 0
M  V30 2389 H 232.73 -3.26626 -4.71156 0
M  V30 2390 H 231.127 -4.01607 -4.45905 0
M  V30 2391 H 232.197 -3.75326 -3.07016 0
M  V30 2392 N 233.54 1.10788 -1.12088 0
M  V30 2393 C 234.49 2.15158 -0.754401 0
M  V30 2394 C 235.474 1.59026 0.244846 0
M  V30 2395 O 236.666 1.76927 0.0509097 0
M  V30 2396 C 233.795 3.42677 -0.206657 0
M  V30 2397 C 232.881 4.05751 -1.23398 0
M  V30 2398 N 233.272 4.43582 -2.43041 0
M  V30 2399 C 231.57 4.32764 -1.07848 0
M  V30 2400 C 232.271 4.93085 -3.08613 0
M  V30 2401 N 231.247 4.89664 -2.36072 0
M  V30 2402 H 235.049 2.42195 -1.6649 0
M  V30 2403 H 232.563 1.27872 -1.00112 0
M  V30 2404 H 234.56 4.16834 0.0740646 0
M  V30 2405 H 233.22 3.17101 0.698342 0
M  V30 2406 H 234.231 4.35395 -2.80449 0
M  V30 2407 H 230.908 4.16863 -0.230483 0
M  V30 2408 H 232.298 5.31933 -4.10483 0
M  V30 2409 N 235.018 0.912232 1.28515 0
M  V30 2410 C 236.246 0.560416 1.99166 0
M  V30 2411 C 236.661 -0.857927 1.68182 0
M  V30 2412 O 236.018 -1.56805 0.933733 0
M  V30 2413 C 236.069 0.758142 3.53461 0
M  V30 2414 O 235.79 2.12067 3.83352 0
M  V30 2415 C 237.291 0.412954 4.41372 0
M  V30 2416 H 234.511 0.213805 0.636026 0
M  V30 2417 H 237.055 1.22502 1.63749 0
M  V30 2418 H 235.21 0.140556 3.87145 0
M  V30 2419 H 235.624 2.15923 4.77993 0
M  V30 2420 H 237.098 0.60208 5.48707 0
M  V30 2421 H 237.575 -0.65073 4.34353 0
M  V30 2422 H 238.181 1.00802 4.13182 0
M  V30 2423 N 236.496 -1.42363 0.676048 0
M  V30 2424 C 237.744 -2.01123 0.198437 0
M  V30 2425 C 238.065 -1.53731 -1.19966 0
M  V30 2426 O 237.335 -0.759518 -1.80577 0
M  V30 2427 H 235.915 -0.743678 0.0703721 0
M  V30 2428 H 238.577 -1.74263 0.872837 0
M  V30 2429 H 237.673 -3.11454 0.200686 0
M  V30 2430 N 237.974 -0.419461 -1.51915 0
M  V30 2431 C 239.223 0.154346 -2.01109 0
M  V30 2432 C 239.536 1.45338 -1.30905 0
M  V30 2433 O 240.742 2.10906 -1.7097 0
M  V30 2434 C 239.198 0.325615 -3.58424 0
M  V30 2435 C 238.806 -0.961934 -4.37551 0
M  V30 2436 C 240.55 0.854155 -4.15818 0
M  V30 2437 C 238.457 -0.757287 -5.86531 0
M  V30 2438 H 237.387 0.0614563 -0.751491 0
M  V30 2439 H 240.038 -0.54649 -1.75173 0
M  V30 2440 H 238.42 1.08903 -3.80731 0
M  V30 2441 H 239.594 -1.7323 -4.26999 0
M  V30 2442 H 237.909 -1.41766 -3.91524 0
M  V30 2443 H 240.506 1.02346 -5.24814 0
M  V30 2444 H 240.849 1.83172 -3.73837 0
M  V30 2445 H 241.382 0.149528 -3.97519 0
M  V30 2446 H 238.121 -1.70671 -6.32892 0
M  V30 2447 H 237.641 -0.0264061 -5.99794 0
M  V30 2448 H 239.32 -0.403482 -6.45741 0
M  V30 2449 N 239.452 1.56882 -0.150215 0
M  V30 2450 C 240.7 1.9584 0.499105 0
M  V30 2451 C 241.021 1.03623 1.65188 0
M  V30 2452 O 240.291 0.0984084 1.95653 0
M  V30 2453 H 238.871 0.723119 0.187373 0
M  V30 2454 H 241.533 1.9358 -0.226466 0
M  V30 2455 H 240.629 2.99638 0.873122 0
M  V30 2456 N 240.93 -0.123565 1.57115 0
M  V30 2457 C 242.346 -0.476961 1.52306 0
M  V30 2458 C 242.546 -1.82109 0.86248 0
M  V30 2459 O 241.602 -2.48586 0.442884 0
M  V30 2460 C 242.915 -0.465661 2.97073 0
M  V30 2461 C 244.463 -0.549534 3.08138 0
M  V30 2462 C 244.938 -0.568669 4.54456 0
M  V30 2463 N 246.429 -0.630237 4.58892 0
M  V30 2464 C 247.164 -0.666415 5.69514 0
M  V30 2465 N 246.66 -0.660514 6.89644 0
M  V30 2466 N 248.453 -0.709077 5.5761 0
M  V30 2467 H 240.604 0.757198 1.98445 0
M  V30 2468 H 242.867 0.278808 0.906074 0
M  V30 2469 H 242.573 0.454232 3.48754 0
M  V30 2470 H 242.447 -1.29513 3.54269 0
M  V30 2471 H 244.834 -1.45985 2.56461 0
M  V30 2472 H 244.915 0.307532 2.53945 0
M  V30 2473 H 244.559 0.337581 5.06777 0
M  V30 2474 H 244.489 -1.44256 5.06456 0
M  V30 2475 H 246.98 -0.641146 3.72421 0
M  V30 2476 H 247.293 -0.690616 7.69708 0
M  V30 2477 H 245.638 -0.628012 6.92157 0
M  V30 2478 H 248.829 -0.711019 4.62668 0
M  V30 2479 H 249.002 -0.733804 6.43832 0
M  V30 2480 N 242.408 -1.52605 -0.393616 0
M  V30 2481 C 243.358 -1.73436 -1.48 0
M  V30 2482 C 244.342 -0.588386 -1.49756 0
M  V30 2483 O 245.534 -0.846047 -1.5547 0
M  V30 2484 C 242.663 -1.90247 -2.85764 0
M  V30 2485 C 241.749 -3.10763 -2.88595 0
M  V30 2486 N 242.14 -4.33196 -2.61103 0
M  V30 2487 C 240.438 -3.10914 -3.19763 0
M  V30 2488 C 241.139 -5.1477 -2.70899 0
M  V30 2489 N 240.115 -4.50356 -3.04435 0
M  V30 2490 H 243.917 -2.65727 -1.25563 0
M  V30 2491 H 241.431 -1.5085 -0.601513 0
M  V30 2492 H 243.428 -2.03291 -3.63976 0
M  V30 2493 H 242.088 -0.991663 -3.09186 0
M  V30 2494 H 243.099 -4.61408 -2.35209 0
M  V30 2495 H 239.776 -2.29626 -3.4868 0
M  V30 2496 H 241.166 -6.22355 -2.53227 0
M  V30 2497 N 243.887 0.651787 -1.4349 0
M  V30 2498 C 245.133 1.41376 -1.45398 0
M  V30 2499 C 245.466 1.94041 -0.0784823 0
M  V30 2500 O 244.741 1.72379 0.900878 0
M  V30 2501 C 245.024 2.59414 -2.49752 0
M  V30 2502 C 244.877 2.12232 -3.96582 0
M  V30 2503 C 246.196 3.61626 -2.50827 0
M  V30 2504 H 243.315 0.512719 -0.529422 0
M  V30 2505 H 245.957 0.738796 -1.75048 0
M  V30 2506 H 244.107 3.16997 -2.246 0
M  V30 2507 H 245.779 1.59639 -4.32797 0
M  V30 2508 H 244.022 1.43592 -4.09346 0
M  V30 2509 H 244.693 2.9712 -4.65214 0
M  V30 2510 H 247.169 3.13805 -2.7325 0
M  V30 2511 H 246.045 4.41766 -3.25783 0
M  V30 2512 H 246.306 4.14314 -1.5426 0
M  V30 2513 N 245.365 1.30045 0.890287 0
M  V30 2514 C 246.613 1.18327 1.63839 0
M  V30 2515 C 246.934 -0.263455 1.93212 0
M  V30 2516 O 246.204 -1.17856 1.56482 0
M  V30 2517 H 244.784 0.434933 0.607324 0
M  V30 2518 H 247.446 1.631 1.06698 0
M  V30 2519 H 246.542 1.74024 2.59079 0
M  V30 2520 N 246.843 -1.10192 1.12674 0
M  V30 2521 C 248.089 -1.82475 0.884915 0
M  V30 2522 C 248.422 -1.85093 -0.58773 0
M  V30 2523 O 247.697 -1.3134 -1.43457 0
M  V30 2524 C 247.98 -3.29018 1.46353 0
M  V30 2525 C 247.833 -3.34718 3.00473 0
M  V30 2526 C 249.152 -4.25473 1.12519 0
M  V30 2527 H 246.271 -0.662492 0.322915 0
M  V30 2528 H 248.913 -1.2913 1.39375 0
M  V30 2529 H 247.063 -3.74576 1.03077 0
M  V30 2530 H 248.735 -2.97622 3.52447 0
M  V30 2531 H 246.978 -2.74541 3.35872 0
M  V30 2532 H 247.649 -4.37918 3.36053 0
M  V30 2533 H 250.125 -3.88161 1.499 0
M  V30 2534 H 249.001 -5.26365 1.55663 0
M  V30 2535 H 249.262 -4.42084 0.0377407 0
M  V30 2536 N 248.321 -0.919034 -1.28029 0
M  V30 2537 C 249.284 -0.416182 -2.2539 0
M  V30 2538 C 250.284 0.460438 -1.54067 0
M  V30 2539 O 251.474 0.262744 -1.72207 0
M  V30 2540 C 248.606 0.402707 -3.38513 0
M  V30 2541 H 249.799 -1.27629 -2.71387 0
M  V30 2542 H 247.352 -0.698919 -1.39803 0
M  V30 2543 H 248.087 1.282 -2.97885 0
M  V30 2544 H 247.872 -0.225698 -3.9145 0
M  V30 2545 H 249.362 0.745191 -4.10897 0
M  V30 2546 N 249.799 1.42003 -0.683588 0
M  V30 2547 C 251.045 2.01712 -0.209825 0
M  V30 2548 C 251.378 1.53968 1.18353 0
M  V30 2549 O 250.653 0.745661 1.79639 0
M  V30 2550 C 250.936 3.59202 -0.254197 0
M  V30 2551 C 250.789 4.17102 -1.68363 0
M  V30 2552 C 252.108 4.38344 0.392709 0
M  V30 2553 H 249.227 0.732891 -0.0777189 0
M  V30 2554 H 251.869 1.68909 -0.87004 0
M  V30 2555 H 250.019 3.87278 0.307954 0
M  V30 2556 H 251.691 3.99946 -2.29871 0
M  V30 2557 H 249.934 3.72597 -2.22157 0
M  V30 2558 H 250.605 5.26249 -1.6663 0
M  V30 2559 H 253.081 4.16011 -0.0859162 0
M  V30 2560 H 251.957 5.47901 0.331063 0
M  V30 2561 H 252.218 4.16887 1.47164 0
M  V30 2562 N 251.277 0.427512 1.51691 0
M  V30 2563 C 252.693 0.0792977 1.59403 0
M  V30 2564 C 252.893 -1.41035 1.43914 0
M  V30 2565 O 251.949 -2.17922 1.27539 0
M  V30 2566 C 253.262 0.590636 2.94842 0
M  V30 2567 C 254.81 0.550215 3.08126 0
M  V30 2568 C 255.285 1.03836 4.46074 0
M  V30 2569 N 256.776 0.995943 4.52366 0
M  V30 2570 C 257.511 1.34463 5.57411 0
M  V30 2571 N 257.007 1.76569 6.69922 0
M  V30 2572 N 258.8 1.26343 5.47717 0
M  V30 2573 H 250.951 1.39687 1.60004 0
M  V30 2574 H 253.214 0.575003 0.753708 0
M  V30 2575 H 252.92 1.63251 3.11516 0
M  V30 2576 H 252.794 0.0102061 3.77199 0
M  V30 2577 H 255.181 -0.482654 2.91126 0
M  V30 2578 H 255.262 1.16693 2.27632 0
M  V30 2579 H 254.906 2.06965 4.63819 0
M  V30 2580 H 254.836 0.398286 5.25092 0
M  V30 2581 H 257.327 0.68661 3.7161 0
M  V30 2582 H 257.64 2.01438 7.46085 0
M  V30 2583 H 255.985 1.80488 6.71155 0
M  V30 2584 H 259.176 0.933209 4.58703 0
M  V30 2585 H 259.349 1.53846 6.29472 0
M  V30 2586 N 252.755 -1.56801 0.158532 0
M  V30 2587 C 254.032 -1.88131 -0.535357 0
M  V30 2588 C 254.412 -1.06638 -1.82186 0
M  V30 2589 O 253.76 -0.156533 -2.27963 0
M  V30 2590 C 253.97 -3.39949 -0.789653 0
M  V30 2591 C 255.318 -4.09416 -1.12533 0
M  V30 2592 O 256.342 -3.45194 -0.878622 0
M  V30 2593 O 255.201 -5.22855 -1.59014 0
M  V30 2594 H 252.295 -0.780143 -0.27442 0
M  V30 2595 H 254.841 -1.68564 0.19601 0
M  V30 2596 H 253.613 -3.91115 0.120353 0
M  V30 2597 H 253.236 -3.65084 -1.57479 0
M  V30 2598 N 254.233 0.115231 -1.57178 0
M  V30 2599 C 255.183 1.14707 -1.97044 0
M  V30 2600 C 256.167 1.36866 -0.845957 0
M  V30 2601 O 257.359 1.37895 -1.10968 0
M  V30 2602 C 254.488 2.47266 -2.38148 0
M  V30 2603 C 253.574 2.28566 -3.57237 0
M  V30 2604 N 253.965 1.79685 -4.72807 0
M  V30 2605 C 252.263 2.59208 -3.62943 0
M  V30 2606 C 252.964 1.74781 -5.54821 0
M  V30 2607 N 251.94 2.19264 -4.97417 0
M  V30 2608 H 255.742 0.761754 -2.83857 0
M  V30 2609 H 253.256 0.322928 -1.59157 0
M  V30 2610 H 255.253 3.219 -2.64927 0
M  V30 2611 H 253.913 2.86552 -1.52702 0
M  V30 2612 H 254.924 1.49177 -4.9595 0
M  V30 2613 H 251.601 3.02154 -2.88113 0
M  V30 2614 H 252.991 1.38212 -6.57531 0
M  V30 2615 N 255.711 1.52812 0.385517 0
M  V30 2616 C 256.643 1.74096 1.49074 0
M  V30 2617 C 257.656 0.621462 1.50472 0
M  V30 2618 O 258.845 0.897245 1.54311 0
M  V30 2619 C 255.945 1.78774 2.87911 0
M  V30 2620 C 255.118 3.08134 3.10439 0
M  V30 2621 C 254.177 3.04313 4.29278 0
M  V30 2622 O 253.203 3.78168 4.25415 0
M  V30 2623 N 254.405 2.23741 5.35649 0
M  V30 2624 H 257.17 2.69455 1.31202 0
M  V30 2625 H 254.731 1.51343 0.575065 0
M  V30 2626 H 256.723 1.73721 3.65518 0
M  V30 2627 H 255.293 0.907869 2.99126 0
M  V30 2628 H 254.513 3.26649 2.20667 0
M  V30 2629 H 255.801 3.93662 3.22347 0
M  V30 2630 H 255.199 1.63211 5.41645 0
M  V30 2631 H 253.756 2.24524 6.11909 0
M  V30 2632 N 257.189 -0.644168 1.43834 0
M  V30 2633 C 258.122 -1.76906 1.44151 0
M  V30 2634 C 259.1 -1.59774 0.301857 0
M  V30 2635 O 260.284 -1.81834 0.496841 0
M  V30 2636 C 257.411 -3.14321 1.26174 0
M  V30 2637 C 256.457 -3.50134 2.43533 0
M  V30 2638 S 257.29 -3.49085 4.06079 0
M  V30 2639 C 258.446 -4.89142 3.90501 0
M  V30 2640 H 258.679 -1.76368 2.39336 0
M  V30 2641 H 256.212 -0.817624 1.30974 0
M  V30 2642 H 258.17 -3.93625 1.16489 0
M  V30 2643 H 256.831 -3.12412 0.325224 0
M  V30 2644 H 256.024 -4.50095 2.26783 0
M  V30 2645 H 255.626 -2.78264 2.4989 0
M  V30 2646 H 257.918 -5.78036 3.53385 0
M  V30 2647 H 258.861 -5.10945 4.90246 0
M  V30 2648 H 259.269 -4.63102 3.22795 0
M  V30 2649 N 258.668 -1.30515 -0.883378 0
M  V30 2650 C 259.631 -1.1701 -1.97082 0
M  V30 2651 C 260.631 -0.10089 -1.60483 0
M  V30 2652 O 261.821 -0.349127 -1.70666 0
M  V30 2653 C 258.953 -0.793045 -3.31547 0
M  V30 2654 H 260.146 -2.13622 -2.10489 0
M  V30 2655 H 257.699 -1.13935 -1.06998 0
M  V30 2656 H 258.434 0.172499 -3.23841 0
M  V30 2657 H 258.219 -1.56576 -3.5948 0
M  V30 2658 H 259.709 -0.722073 -4.1131 0
M  V30 2659 N 260.146 1.09593 -1.13257 0
M  V30 2660 C 261.371 1.8604 -0.916732 0
M  V30 2661 C 261.796 1.80504 0.529146 0
M  V30 2662 O 261.154 1.18127 1.37534 0
M  V30 2663 C 261.202 3.32017 -1.40703 0
M  V30 2664 O 260.306 4.08141 -0.591153 0
M  V30 2665 H 259.647 0.576943 -0.328683 0
M  V30 2666 H 262.177 1.38405 -1.50682 0
M  V30 2667 H 262.187 3.82865 -1.4099 0
M  V30 2668 H 260.862 3.35361 -2.45979 0
M  V30 2669 H 259.439 3.67084 -0.656005 0
M  V30 2670 N 261.624 0.925811 1.2754 0
M  V30 2671 C 262.852 0.581509 1.9856 0
M  V30 2672 C 263.267 -0.840041 1.69082 0
M  V30 2673 O 262.624 -1.55805 0.950312 0
M  V30 2674 C 262.675 0.795589 3.52637 0
M  V30 2675 O 262.396 2.16121 3.81082 0
M  V30 2676 C 263.897 0.459744 4.4091 0
M  V30 2677 H 261.117 0.220538 0.633722 0
M  V30 2678 H 263.661 1.24232 1.6244 0
M  V30 2679 H 261.816 0.18161 3.86974 0
M  V30 2680 H 262.23 2.2098 4.75676 0
M  V30 2681 H 263.704 0.660244 5.48037 0
M  V30 2682 H 264.181 -0.604625 4.35018 0
M  V30 2683 H 264.787 1.05178 4.12089 0
M  V30 2684 N 263.102 -1.41638 0.69111 0
M  V30 2685 C 264.35 -2.00902 0.219758 0
M  V30 2686 C 264.671 -1.54994 -1.18329 0
M  V30 2687 O 263.941 -0.778628 -1.79762 0
M  V30 2688 H 262.521 -0.74289 0.0782558 0
M  V30 2689 H 265.183 -1.73327 0.891271 0
M  V30 2690 H 264.279 -3.11224 0.233708 0
M  V30 2691 N 264.58 -0.43555 -1.51462 0
M  V30 2692 C 265.828 0.131254 -2.01673 0
M  V30 2693 C 266.149 1.43368 -1.32177 0
M  V30 2694 O 265.419 1.90524 -0.455769 0
M  V30 2695 H 263.999 0.0514954 -0.745223 0
M  V30 2696 H 266.661 -0.577847 -1.86137 0
M  V30 2697 H 265.757 0.308446 -3.10572 0
M  V30 2698 N 266.058 1.56714 -0.166846 0
M  V30 2699 C 267.286 2.0112 0.485644 0
M  V30 2700 C 267.701 1.04705 1.57106 0
M  V30 2701 O 267.058 0.0471923 1.82439 0
M  V30 2702 C 267.109 3.45361 1.06808 0
M  V30 2703 O 266.83 4.38092 0.0259995 0
M  V30 2704 C 268.331 4.05145 1.79924 0
M  V30 2705 H 265.551 0.65931 0.124704 0
M  V30 2706 H 268.095 2.02746 -0.267262 0
M  V30 2707 H 266.25 3.44524 1.7715 0
M  V30 2708 H 266.664 5.22519 0.455398 0
M  V30 2709 H 268.138 5.08009 2.15942 0
M  V30 2710 H 268.615 3.46982 2.69258 0
M  V30 2711 H 269.221 4.09672 1.14234 0
M  V30 2712 N 267.536 -0.106894 1.57237 0
M  V30 2713 C 268.483 -1.13049 2.01217 0
M  V30 2714 C 269.453 -1.40471 0.886403 0
M  V30 2715 O 270.638 -1.52133 1.15153 0
M  V30 2716 C 267.778 -2.4487 2.43172 0
M  V30 2717 C 266.891 -2.24281 3.69218 0
M  V30 2718 C 266.026 -3.49417 4.00101 0
M  V30 2719 C 265.065 -3.24038 5.19294 0
M  V30 2720 N 264.202 -4.41409 5.45988 0
M  V30 2721 H 269.042 -0.748456 2.88448 0
M  V30 2722 H 266.579 -0.358054 1.42676 0
M  V30 2723 H 268.537 -3.21786 2.65537 0
M  V30 2724 H 267.167 -2.80944 1.58967 0
M  V30 2725 H 266.219 -1.38224 3.54398 0
M  V30 2726 H 267.531 -2.01512 4.56283 0
M  V30 2727 H 266.685 -4.34746 4.2318 0
M  V30 2728 H 265.424 -3.75229 3.11535 0
M  V30 2729 H 264.429 -2.37102 4.96047 0
M  V30 2730 H 265.654 -2.99584 6.09447 0
M  V30 2731 H 263.6 -4.67319 4.60379 0
M  V30 2732 H 263.517 -4.21788 6.274 0
M  V30 2733 H 264.785 -5.27836 5.73593 0
M  V30 2734 N 269.014 -1.53014 -0.377408 0
M  V30 2735 C 270.26 -1.68872 -1.12294 0
M  V30 2736 C 270.593 -0.433224 -1.89306 0
M  V30 2737 O 269.868 0.569258 -1.85983 0
M  V30 2738 C 270.151 -2.93115 -2.09179 0
M  V30 2739 C 270.004 -4.28794 -1.35853 0
M  V30 2740 C 271.323 -3.12928 -3.09458 0
M  V30 2741 H 268.442 -0.614518 -0.406862 0
M  V30 2742 H 271.084 -1.85633 -0.40503 0
M  V30 2743 H 269.234 -2.78956 -2.70399 0
M  V30 2744 H 270.906 -4.54742 -0.775082 0
M  V30 2745 H 269.149 -4.28744 -0.660364 0
M  V30 2746 H 269.82 -5.11837 -2.06706 0
M  V30 2747 H 272.296 -3.26194 -2.58334 0
M  V30 2748 H 271.172 -4.01316 -3.74482 0
M  V30 2749 H 271.433 -2.27669 -3.78971 0
M  V30 2750 N 270.492 0.636531 -1.44174 0
M  V30 2751 C 271.738 1.39826 -1.4689 0
M  V30 2752 C 272.071 1.93947 -0.0990585 0
M  V30 2753 O 271.346 1.73325 0.882544 0
M  V30 2754 C 271.629 2.56751 -2.5249 0
M  V30 2755 C 271.482 2.08014 -3.98811 0
M  V30 2756 C 272.801 3.58946 -2.54649 0
M  V30 2757 H 269.92 0.507075 -0.53483 0
M  V30 2758 H 272.562 0.720188 -1.75822 0
M  V30 2759 H 270.712 3.14597 -2.2795 0
M  V30 2760 H 272.384 1.5504 -4.34466 0
M  V30 2761 H 270.627 1.39242 -4.10846 0
M  V30 2762 H 271.298 2.92169 -4.68339 0
M  V30 2763 H 273.774 3.1089 -2.76563 0
M  V30 2764 H 272.65 4.38286 -3.3045 0
M  V30 2765 H 272.911 4.12655 -1.58646 0
M  V30 2766 N 271.97 1.30982 0.876444 0
M  V30 2767 C 272.933 1.18054 1.96459 0
M  V30 2768 C 273.933 0.109399 1.60427 0
M  V30 2769 O 275.123 0.358173 1.70478 0
M  V30 2770 C 272.255 0.810616 3.31122 0
M  V30 2771 H 273.448 2.14735 2.09354 0
M  V30 2772 H 271.001 1.145 1.06392 0
M  V30 2773 H 271.736 -0.155322 3.23928 0
M  V30 2774 H 271.521 1.58481 3.58645 0
M  V30 2775 H 273.011 0.743876 4.10921 0
M  V30 2776 N 273.449 -1.08991 1.13837 0
M  V30 2777 C 274.382 -2.15049 0.763477 0
M  V30 2778 C 275.36 -1.60629 -0.252398 0
M  V30 2779 O 276.544 -1.87958 -0.142853 0
M  V30 2780 C 273.671 -3.38441 0.132545 0
M  V30 2781 C 272.717 -4.11596 1.11763 0
M  V30 2782 S 273.55 -4.6521 2.65216 0
M  V30 2783 C 274.706 -5.91896 2.03495 0
M  V30 2784 H 274.939 -2.46518 1.66182 0
M  V30 2785 H 272.472 -1.21008 0.958976 0
M  V30 2786 H 274.43 -4.09883 -0.225074 0
M  V30 2787 H 273.091 -3.05182 -0.743135 0
M  V30 2788 H 272.284 -5.00121 0.624076 0
M  V30 2789 H 271.886 -3.46038 1.41894 0
M  V30 2790 H 274.178 -6.63156 1.38675 0
M  V30 2791 H 275.121 -6.45938 2.9012 0
M  V30 2792 H 275.529 -5.44625 1.48471 0
M  V30 2793 N 274.927 -0.932562 -1.27047 0
M  V30 2794 C 276.175 -0.574422 -1.93765 0
M  V30 2795 C 276.496 0.887993 -1.73608 0
M  V30 2796 O 275.766 1.62999 -1.08665 0
M  V30 2797 H 274.346 -0.209451 -0.717035 0
M  V30 2798 H 277.008 -1.18601 -1.5466 0
M  V30 2799 H 276.104 -0.784841 -3.02071 0
M  V30 2800 N 276.405 1.4127 -0.698611 0
M  V30 2801 C 277.651 2.01478 -0.231207 0
M  V30 2802 C 277.984 1.55215 1.16713 0
M  V30 2803 O 277.259 0.764672 1.78838 0
M  V30 2804 C 277.542 3.58912 -0.292281 0
M  V30 2805 C 277.395 4.15293 -1.72778 0
M  V30 2806 C 278.714 4.38736 0.346194 0
M  V30 2807 H 275.833 0.732025 -0.0854878 0
M  V30 2808 H 278.475 1.67977 -0.887906 0
M  V30 2809 H 276.625 3.87582 0.26686 0
M  V30 2810 H 278.297 3.97486 -2.341 0
M  V30 2811 H 276.54 3.7022 -2.26096 0
M  V30 2812 H 277.211 5.24452 -1.72202 0
M  V30 2813 H 279.687 4.15897 -0.130035 0
M  V30 2814 H 278.563 5.48221 0.272932 0
M  V30 2815 H 278.824 4.18425 1.42734 0
M  V30 2816 N 277.883 0.443576 1.51229 0
M  V30 2817 C 278.846 -0.353132 2.26463 0
M  V30 2818 C 279.846 -0.944338 1.3015 0
M  V30 2819 O 281.036 -0.817813 1.5381 0
M  V30 2820 C 278.168 -1.50023 3.06114 0
M  V30 2821 H 279.361 0.3063 2.98332 0
M  V30 2822 H 276.914 0.196902 1.55055 0
M  V30 2823 H 277.649 -2.19553 2.38677 0
M  V30 2824 H 277.434 -1.08241 3.76864 0
M  V30 2825 H 278.924 -2.06296 3.63087 0
M  V30 2826 N 279.361 -1.56624 0.175154 0
M  V30 2827 C 280.772 -1.83561 -0.340916 0
M  V30 2828 C 281.123 -1.09511 -1.62794 0
M  V30 2829 O 280.248 -0.349389 -2.13561 0
M  V30 2830 C 280.843 -3.32979 -0.625313 0
M  V30 2831 C 279.402 -3.60399 -1.08581 0
M  V30 2832 C 278.549 -2.77024 -0.123722 0
M  V30 2833 H 281.5 -1.53593 0.399344 0
M  V30 2834 H 281.521 -3.50666 -1.47694 0
M  V30 2835 H 281.033 -3.86847 0.311575 0
M  V30 2836 H 279.134 -3.11945 -2.03767 0
M  V30 2837 H 279.247 -4.68711 -0.992317 0
M  V30 2838 H 277.611 -2.46993 -0.621821 0
M  V30 2839 H 278.394 -3.33674 0.807256 0
M  V30 2840 N 280.839 0.0985539 -1.57292 0
M  V30 2841 C 282.085 0.798769 -1.87059 0
M  V30 2842 C 282.44 1.76514 -0.76555 0
M  V30 2843 O 281.733 1.90181 0.232752 0
M  V30 2844 C 281.927 1.56927 -3.21105 0
M  V30 2845 C 281.756 0.679026 -4.44544 0
M  V30 2846 C 280.526 0.326071 -5.04247 0
M  V30 2847 C 282.724 -0.0124715 -5.14298 0
M  V30 2848 N 280.706 -0.572702 -6.11223 0
M  V30 2849 C 282.077 -0.769446 -6.15207 0
M  V30 2850 C 284.132 -0.0867545 -4.97824 0
M  V30 2851 C 282.835 -1.59376 -7.01421 0
M  V30 2852 C 284.861 -0.897955 -5.84543 0
M  V30 2853 C 284.223 -1.64306 -6.84969 0
M  V30 2854 H 280.322 0.268568 -0.734435 0
M  V30 2855 H 282.906 0.0614664 -1.94603 0
M  V30 2856 H 281.077 2.27748 -3.1462 0
M  V30 2857 H 282.809 2.21641 -3.38611 0
M  V30 2858 H 279.564 0.67295 -4.68795 0
M  V30 2859 H 279.988 -1.01454 -6.69355 0
M  V30 2860 H 284.63 0.474963 -4.20124 0
M  V30 2861 H 282.348 -2.16655 -7.78515 0
M  V30 2862 H 285.934 -0.958059 -5.73858 0
M  V30 2863 H 284.814 -2.26065 -7.50909 0
M  V30 2864 N 282.317 1.53212 0.369288 0
M  V30 2865 C 283.565 1.68881 1.11012 0
M  V30 2866 C 283.886 0.441285 1.89941 0
M  V30 2867 O 283.156 -0.544623 1.88177 0
M  V30 2868 H 281.736 0.622569 0.412816 0
M  V30 2869 H 284.398 1.90391 0.416802 0
M  V30 2870 H 283.494 2.54822 1.80201 0
M  V30 2871 N 283.795 -0.628877 1.44509 0
M  V30 2872 C 285.041 -1.39045 1.47629 0
M  V30 2873 C 285.374 -1.93892 0.109343 0
M  V30 2874 O 284.649 -1.7379 -0.87334 0
M  V30 2875 C 284.932 -2.55408 2.53848 0
M  V30 2876 C 284.785 -2.05896 3.99909 0
M  V30 2877 C 286.104 -3.5759 2.56549 0
M  V30 2878 H 283.223 -0.504232 0.537512 0
M  V30 2879 H 285.865 -0.710854 1.76201 0
M  V30 2880 H 284.015 -3.13384 2.29615 0
M  V30 2881 H 285.687 -1.52734 4.35282 0
M  V30 2882 H 283.93 -1.37061 4.11578 0
M  V30 2883 H 284.601 -2.89681 4.69882 0
M  V30 2884 H 287.077 -3.09419 2.78207 0
M  V30 2885 H 285.953 -4.36527 3.32769 0
M  V30 2886 H 286.214 -4.11808 1.60832 0
M  V30 2887 N 285.273 -1.31445 -0.869486 0
M  V30 2888 C 286.519 -1.21337 -1.62496 0
M  V30 2889 C 286.852 0.227872 -1.92858 0
M  V30 2890 O 286.127 1.16094 -1.56053 0
M  V30 2891 C 286.41 -2.05814 -2.95487 0
M  V30 2892 C 286.263 -3.5824 -2.72 0
M  V30 2893 C 287.582 -1.9079 -3.96594 0
M  V30 2894 H 284.701 -0.442135 -0.589649 0
M  V30 2895 H 287.343 -1.6124 -1.00507 0
M  V30 2896 H 285.493 -1.71913 -3.48394 0
M  V30 2897 H 287.165 -4.0228 -2.25762 0
M  V30 2898 H 285.408 -3.81647 -2.06224 0
M  V30 2899 H 286.079 -4.12657 -3.66631 0
M  V30 2900 H 288.555 -2.20459 -3.52898 0
M  V30 2901 H 287.431 -2.52199 -4.87531 0
M  V30 2902 H 287.692 -0.871341 -4.33428 0
M  V30 2903 N 286.751 1.08385 -1.14413 0
M  V30 2904 C 288.167 1.32844 -0.884563 0
M  V30 2905 C 288.367 1.95841 0.474181 0
M  V30 2906 O 287.423 2.21158 1.21842 0
M  V30 2907 C 288.736 2.22978 -2.01745 0
M  V30 2908 C 290.284 2.36458 -2.05077 0
M  V30 2909 C 290.759 3.29934 -3.1766 0
M  V30 2910 N 292.25 3.37511 -3.17239 0
M  V30 2911 C 292.985 4.09871 -4.0099 0
M  V30 2912 N 292.481 4.84936 -4.94781 0
M  V30 2913 N 294.274 4.05704 -3.89051 0
M  V30 2914 H 286.425 0.658756 -2.01926 0
M  V30 2915 H 288.688 0.352821 -0.879899 0
M  V30 2916 H 288.394 1.83934 -2.99769 0
M  V30 2917 H 288.268 3.23441 -1.94077 0
M  V30 2918 H 290.655 2.7476 -1.0766 0
M  V30 2919 H 290.736 1.35736 -2.16816 0
M  V30 2920 H 290.38 2.92352 -4.15322 0
M  V30 2921 H 290.31 4.30584 -3.03158 0
M  V30 2922 H 292.801 2.83996 -2.49308 0
M  V30 2923 H 293.114 5.37612 -5.55151 0
M  V30 2924 H 291.459 4.83988 -4.98779 0
M  V30 2925 H 294.65 3.46167 -3.15097 0
M  V30 2926 H 294.823 4.61834 -4.54547 0
M  V30 2927 N 288.23 0.939286 1.26551 0
M  V30 2928 C 289.178 0.43815 2.28436 0
M  V30 2929 C 290.172 -0.483587 1.62351 0
M  V30 2930 O 291.378 -0.362009 1.76322 0
M  V30 2931 H 287.753 0.123149 0.741848 0
M  V30 2932 H 289.724 1.31002 2.68106 0
M  V30 2933 C 288.473 -0.283052 3.46546 0
M  V30 2934 H 287.796 0.417043 3.97619 0
M  V30 2935 H 289.236 -0.597948 4.19763 0
M  V30 2936 C 287.695 -1.50018 3.01656 0
M  V30 2937 O 288.225 -2.59855 3.0633 0
M  V30 2938 N 286.431 -1.35608 2.57019 0
M  V30 2939 H 285.978 -0.46244 2.53415 0
M  V30 2940 H 285.936 -2.17165 2.27347 0
M  V30 2941 N 289.708 -1.40897 0.706093 0
M  V30 2942 C 291.124 -1.55042 0.37869 0
M  V30 2943 C 291.324 -1.67944 -1.11342 0
M  V30 2944 O 290.38 -1.66372 -1.89938 0
M  V30 2945 C 291.693 -2.78398 1.13643 0
M  V30 2946 C 293.241 -2.92206 1.12181 0
M  V30 2947 C 293.716 -4.18463 1.86152 0
M  V30 2948 N 295.207 -4.25443 1.83173 0
M  V30 2949 C 295.942 -5.2202 2.37239 0
M  V30 2950 N 295.438 -6.24563 2.99821 0
M  V30 2951 N 297.231 -5.14033 2.27435 0
M  V30 2952 H 289.382 -1.30769 1.67372 0
M  V30 2953 H 291.645 -0.631653 0.706907 0
M  V30 2954 H 291.351 -2.7511 2.19106 0
M  V30 2955 H 291.225 -3.70228 0.721853 0
M  V30 2956 H 293.612 -2.95004 0.0754171 0
M  V30 2957 H 293.693 -2.01521 1.57554 0
M  V30 2958 H 293.337 -4.16427 2.90776 0
M  V30 2959 H 293.267 -5.08141 1.38206 0
M  V30 2960 H 295.758 -3.51976 1.37556 0
M  V30 2961 H 296.071 -6.94665 3.38616 0
M  V30 2962 H 294.416 -6.25035 3.03902 0
M  V30 2963 H 297.607 -4.3285 1.78208 0
M  V30 2964 H 297.78 -5.89129 2.69873 0
M  V30 2965 N 291.186 -0.45159 -1.50991 0
M  V30 2966 C 292.463 0.170707 -1.94854 0
M  V30 2967 C 292.843 1.58788 -1.39103 0
M  V30 2968 O 292.191 2.20913 -0.583921 0
M  V30 2969 C 292.401 0.133929 -3.48743 0
M  V30 2970 C 293.749 0.33248 -4.23296 0
M  V30 2971 O 294.773 0.211403 -3.55572 0
M  V30 2972 O 293.632 0.57486 -5.43468 0
M  V30 2973 H 290.726 0.122264 -0.817912 0
M  V30 2974 H 293.272 -0.510594 -1.61836 0
M  V30 2975 H 292.044 -0.856283 -3.81816 0
M  V30 2976 H 291.667 0.857529 -3.88242 0
M  V30 2977 N 292.664 1.56529 -0.183458 0
M  V30 2978 C 293.892 2.01623 0.464285 0
M  V30 2979 C 294.307 1.06366 1.55986 0
M  V30 2980 O 293.664 0.0665398 1.82379 0
M  V30 2981 C 293.715 3.46475 1.03139 0
M  V30 2982 O 293.436 4.38095 -0.0204675 0
M  V30 2983 C 294.937 4.0703 1.75617 0
M  V30 2984 H 292.157 0.660596 0.117704 0
M  V30 2985 H 294.701 2.02451 -0.288751 0
M  V30 2986 H 292.856 3.46383 1.73486 0
M  V30 2987 H 293.27 5.22973 0.399952 0
M  V30 2988 H 294.744 5.10271 2.10542 0
M  V30 2989 H 295.221 3.49819 2.65563 0
M  V30 2990 H 295.827 4.1086 1.09882 0
M  V30 2991 N 294.142 -0.090211 1.57342 0
M  V30 2992 C 295.072 -1.10976 2.05443 0
M  V30 2993 C 296.053 -1.41482 0.944284 0
M  V30 2994 O 297.238 -1.51428 1.21586 0
M  V30 2995 C 294.368 -2.42831 2.48295 0
M  V30 2996 C 293.322 -2.26721 3.63018 0
M  V30 2997 C 292.648 -3.63796 3.91863 0
M  V30 2998 C 293.948 -1.7037 4.93732 0
M  V30 2999 H 295.642 -0.709564 2.9087 0
M  V30 3000 H 293.188 -0.339874 1.39932 0
M  V30 3001 H 295.141 -3.14431 2.80555 0
M  V30 3002 H 293.865 -2.84795 1.59873 0
M  V30 3003 H 292.524 -1.57565 3.31012 0
M  V30 3004 H 292.172 -4.03297 3.00601 0
M  V30 3005 H 291.872 -3.53861 4.69101 0
M  V30 3006 H 293.396 -4.36855 4.26603 0
M  V30 3007 H 294.81 -2.31816 5.24342 0
M  V30 3008 H 293.207 -1.71181 5.75167 0
M  V30 3009 H 294.277 -0.663542 4.80339 0
M  V30 3010 N 295.62 -1.53406 -0.361157 0
M  V30 3011 C 296.869 -1.69022 -1.10066 0
M  V30 3012 C 297.182 -0.450838 -1.90333 0
M  V30 3013 O 298.388 -0.487617 -2.67085 0
M  V30 3014 C 296.844 -2.98812 -2.00598 0
M  V30 3015 C 296.452 -4.30027 -1.25621 0
M  V30 3016 C 298.196 -3.23795 -2.74513 0
M  V30 3017 C 296.103 -5.50903 -2.1508 0
M  V30 3018 H 295.033 -0.629776 -0.414606 0
M  V30 3019 H 297.684 -1.79907 -0.361348 0
M  V30 3020 H 296.066 -2.8174 -2.78278 0
M  V30 3021 H 297.24 -4.57745 -0.529739 0
M  V30 3022 H 295.555 -4.11522 -0.635496 0
M  V30 3023 H 298.152 -4.11289 -3.41681 0
M  V30 3024 H 298.495 -2.40045 -3.40123 0
M  V30 3025 H 299.028 -3.41561 -2.03914 0
M  V30 3026 H 295.767 -6.37143 -1.54041 0
M  V30 3027 H 295.287 -5.27459 -2.85565 0
M  V30 3028 H 296.966 -5.85865 -2.74538 0
M  V30 3029 N 297.098 0.621204 -1.44841 0
M  V30 3030 C 298.046 1.75385 -1.52784 0
M  V30 3031 C 299.04 1.64639 -0.398779 0
M  V30 3032 O 300.246 1.70598 -0.574137 0
M  V30 3033 H 296.621 0.579193 -0.479625 0
M  V30 3034 H 298.592 1.6581 -2.48092 0
M  V30 3035 C 297.341 3.13742 -1.4987 0
M  V30 3036 H 296.664 3.22663 -2.36069 0
M  V30 3037 H 298.104 3.92861 -1.59487 0
M  V30 3038 C 296.563 3.36175 -0.220973 0
M  V30 3039 O 297.093 3.95469 0.704782 0
M  V30 3040 N 295.299 2.90348 -0.120963 0
M  V30 3041 H 294.846 2.42278 -0.875162 0
M  V30 3042 H 294.804 3.05732 0.733168 0
M  V30 3043 N 298.576 1.31904 0.862503 0
M  V30 3044 C 299.987 1.19803 1.43193 0
M  V30 3045 C 300.338 -0.192567 1.95253 0
M  V30 3046 O 299.463 -1.09081 1.86896 0
M  V30 3047 C 300.058 2.16883 2.60283 0
M  V30 3048 C 298.617 2.08692 3.13248 0
M  V30 3049 C 297.764 2.05691 1.85975 0
M  V30 3050 H 300.715 1.43846 0.670365 0
M  V30 3051 H 300.736 1.76278 3.37204 0
M  V30 3052 H 300.248 3.18083 2.22363 0
M  V30 3053 H 298.349 1.10713 3.55771 0
M  V30 3054 H 298.462 2.9815 3.75025 0
M  V30 3055 H 296.826 1.50814 2.05249 0
M  V30 3056 H 297.609 3.08659 1.50282 0
M  V30 3057 N 300.054 -1.07777 1.14986 0
M  V30 3058 C 301.001 -2.14867 0.842672 0
M  V30 3059 C 301.971 -1.6486 -0.202552 0
M  V30 3060 O 303.156 -1.90668 -0.0710568 0
M  V30 3061 C 300.296 -3.43486 0.333363 0
M  V30 3062 C 299.409 -4.07306 1.43965 0
M  V30 3063 C 298.544 -5.23744 0.886914 0
M  V30 3064 C 297.583 -5.79517 1.97043 0
M  V30 3065 N 296.72 -6.87291 1.4344 0
M  V30 3066 H 301.56 -2.40485 1.75986 0
M  V30 3067 H 299.097 -1.1801 0.878179 0
M  V30 3068 H 301.055 -4.17195 0.0198163 0
M  V30 3069 H 299.685 -3.18133 -0.546916 0
M  V30 3070 H 298.737 -3.31293 1.86946 0
M  V30 3071 H 300.049 -4.44771 2.25788 0
M  V30 3072 H 299.203 -6.04419 0.525651 0
M  V30 3073 H 297.942 -4.87685 0.0377957 0
M  V30 3074 H 296.947 -4.97491 2.34057 0
M  V30 3075 H 298.172 -6.17632 2.82325 0
M  V30 3076 H 296.118 -6.5318 0.607567 0
M  V30 3077 H 296.035 -7.23617 2.18895 0
M  V30 3078 H 297.303 -7.71682 1.10124 0
M  V30 3079 N 301.532 -0.945985 -1.26051 0
M  V30 3080 C 302.78 -0.594941 -1.93145 0
M  V30 3081 C 303.101 0.86953 -1.7454 0
M  V30 3082 O 302.371 1.61838 -1.10387 0
M  V30 3083 H 300.951 -0.217044 -0.714773 0
M  V30 3084 H 303.613 -1.20235 -1.53393 0
M  V30 3085 H 302.709 -0.816835 -3.01221 0
M  V30 3086 N 303.011 1.40521 -0.713556 0
M  V30 3087 C 304.236 2.05759 -0.26035 0
M  V30 3088 C 304.661 1.53403 1.08854 0
M  V30 3089 O 304.019 0.668535 1.68524 0
M  V30 3090 C 304.067 3.59745 -0.248122 0
M  V30 3091 O 303.171 4.05123 0.77131 0
M  V30 3092 H 302.512 0.652564 -0.122703 0
M  V30 3093 H 305.042 1.79958 -0.973467 0
M  V30 3094 H 305.052 4.07911 -0.0851129 0
M  V30 3095 H 303.727 3.97218 -1.2325 0
M  V30 3096 H 302.304 3.68422 0.57619 0
M  V30 3097 N 304.489 0.459591 1.5075 0
M  V30 3098 C 305.736 -0.0993495 2.02256 0
M  V30 3099 C 306.064 -1.40751 1.34237 0
M  V30 3100 O 305.319 -1.90379 0.453228 0
M  V30 3101 C 305.618 -0.342866 3.55752 0
M  V30 3102 C 305.284 0.88218 4.42186 0
M  V30 3103 C 303.946 1.21808 4.65528 0
M  V30 3104 C 306.298 1.69837 4.92752 0
M  V30 3105 C 303.626 2.37045 5.36681 0
M  V30 3106 C 305.978 2.84192 5.65171 0
M  V30 3107 C 304.642 3.1821 5.8677 0
M  V30 3108 H 303.912 -0.0363545 0.740108 0
M  V30 3109 H 306.559 0.611329 1.8148 0
M  V30 3110 H 304.864 -1.13567 3.7498 0
M  V30 3111 H 306.561 -0.789121 3.93159 0
M  V30 3112 H 303.151 0.610467 4.2423 0
M  V30 3113 H 307.335 1.45205 4.74583 0
M  V30 3114 H 302.591 2.63689 5.51614 0
M  V30 3115 H 306.765 3.4779 6.03337 0
M  V30 3116 H 304.392 4.07613 6.41682 0
M  V30 3117 N 305.967 -1.56429 0.191757 0
M  V30 3118 C 307.378 -1.83912 -0.321428 0
M  V30 3119 C 307.729 -1.11231 -1.61623 0
M  V30 3120 O 306.854 -0.37202 -2.13178 0
M  V30 3121 C 307.449 -3.33624 -0.589961 0
M  V30 3122 C 306.008 -3.6153 -1.04753 0
M  V30 3123 C 305.155 -2.7714 -0.0943327 0
M  V30 3124 H 308.106 -1.53161 0.415612 0
M  V30 3125 H 308.127 -3.52213 -1.43966 0
M  V30 3126 H 307.639 -3.86495 0.352588 0
M  V30 3127 H 305.74 -3.14089 -2.00447 0
M  V30 3128 H 305.853 -4.69737 -0.942549 0
M  V30 3129 H 304.217 -2.47638 -0.595589 0
M  V30 3130 H 305 -3.32799 0.842601 0
M  V30 3131 N 307.445 0.0818655 -1.57387 0
M  V30 3132 C 308.408 1.08265 -2.02018 0
M  V30 3133 C 309.408 1.32183 -0.915664 0
M  V30 3134 O 310.598 1.28073 -1.18081 0
M  V30 3135 C 307.73 2.42871 -2.39221 0
M  V30 3136 H 308.923 0.698204 -2.91659 0
M  V30 3137 H 306.476 0.327303 -1.52835 0
M  V30 3138 H 307.211 2.86167 -1.52575 0
M  V30 3139 H 306.996 2.26855 -3.19811 0
M  V30 3140 H 308.486 3.14826 -2.74362 0
M  V30 3141 N 308.923 1.53595 0.353017 0
M  V30 3142 C 310.339 1.43648 0.695516 0
M  V30 3143 C 310.539 0.585617 1.92802 0
M  V30 3144 O 309.595 0.0729223 2.52395 0
M  V30 3145 C 310.908 2.8701 0.896991 0
M  V30 3146 C 312.456 2.96723 0.996209 0
M  V30 3147 C 312.931 4.41173 1.23007 0
M  V30 3148 N 314.422 4.44657 1.29749 0
M  V30 3149 C 315.157 5.53547 1.49577 0
M  V30 3150 N 314.653 6.72461 1.66639 0
M  V30 3151 N 316.446 5.41145 1.52048 0
M  V30 3152 H 308.597 2.07415 -0.457481 0
M  V30 3153 H 310.86 0.9372 -0.142687 0
M  V30 3154 H 310.566 3.51644 0.0629938 0
M  V30 3155 H 310.44 3.31401 1.80148 0
M  V30 3156 H 312.827 2.32235 1.82074 0
M  V30 3157 H 312.908 2.55707 0.0688331 0
M  V30 3158 H 312.552 5.06238 0.410505 0
M  V30 3159 H 312.482 4.79772 2.17086 0
M  V30 3160 H 314.973 3.58963 1.18126 0
M  V30 3161 H 315.286 7.51214 1.81378 0
M  V30 3162 H 313.631 6.75423 1.63794 0
M  V30 3163 H 316.822 4.47205 1.38294 0
M  V30 3164 H 316.995 6.26068 1.67159 0
M  V30 3165 N 310.401 -0.613514 1.45168 0
M  V30 3166 C 311.631 -1.39743 1.52169 0
M  V30 3167 C 312.039 -1.88596 0.151086 0
M  V30 3168 O 311.382 -1.6251 -0.856521 0
M  V30 3169 C 311.444 -2.64035 2.43979 0
M  V30 3170 C 311.108 -2.36861 3.90827 0
M  V30 3171 C 312.105 -1.97591 4.80889 0
M  V30 3172 C 309.79 -2.49956 4.35692 0
M  V30 3173 C 311.784 -1.71768 6.1382 0
M  V30 3174 C 309.471 -2.23747 5.68665 0
M  V30 3175 C 310.469 -1.84714 6.57548 0
M  V30 3176 O 310.157 -1.58809 7.88058 0
M  V30 3177 H 309.889 -0.434382 0.517966 0
M  V30 3178 H 312.443 -0.75587 1.90986 0
M  V30 3179 H 310.673 -3.3089 2.00122 0
M  V30 3180 H 312.362 -3.26069 2.41731 0
M  V30 3181 H 313.128 -1.87015 4.47493 0
M  V30 3182 H 309.007 -2.79305 3.66756 0
M  V30 3183 H 312.551 -1.41227 6.83155 0
M  V30 3184 H 308.448 -2.33938 6.01617 0
M  V30 3185 H 309.216 -1.7291 8.00028 0
M  V30 3186 N 311.879 -1.3236 -0.855495 0
M  V30 3187 C 313.295 -1.11332 -1.14356 0
M  V30 3188 C 313.495 0.106751 -2.01217 0
M  V30 3189 O 312.551 0.791891 -2.39761 0
M  V30 3190 C 313.864 -2.39237 -1.82171 0
M  V30 3191 C 315.412 -2.44986 -1.9481 0
M  V30 3192 C 315.887 -3.7281 -2.66039 0
M  V30 3193 N 317.378 -3.73787 -2.73565 0
M  V30 3194 C 318.113 -4.69394 -3.29327 0
M  V30 3195 N 317.609 -5.75367 -3.85907 0
M  V30 3196 N 319.402 -4.56893 -3.27423 0
M  V30 3197 H 311.553 -2.10586 -0.277027 0
M  V30 3198 H 313.816 -0.929701 -0.185364 0
M  V30 3199 H 313.522 -3.28431 -1.25802 0
M  V30 3200 H 313.396 -2.50134 -2.82335 0
M  V30 3201 H 315.783 -1.56252 -2.50338 0
M  V30 3202 H 315.864 -2.38043 -0.936448 0
M  V30 3203 H 315.508 -4.61918 -2.11174 0
M  V30 3204 H 315.438 -3.77024 -3.67642 0
M  V30 3205 H 317.929 -2.97189 -2.33424 0
M  V30 3206 H 318.242 -6.44378 -4.26611 0
M  V30 3207 H 316.587 -5.79123 -3.84242 0
M  V30 3208 H 319.778 -3.73269 -2.82467 0
M  V30 3209 H 319.951 -5.31577 -3.7058 0
M  V30 3210 N 313.357 1.07166 -1.15556 0
M  V30 3211 C 314.603 1.80222 -0.942961 0
M  V30 3212 C 314.958 1.85121 0.524209 0
M  V30 3213 O 314.251 1.32531 1.38369 0
M  V30 3214 C 314.445 3.24707 -1.49332 0
M  V30 3215 C 314.274 3.33887 -3.01247 0
M  V30 3216 C 313.044 3.44337 -3.69811 0
M  V30 3217 C 315.242 3.24484 -3.99017 0
M  V30 3218 N 313.224 3.42439 -5.09518 0
M  V30 3219 C 314.595 3.29726 -5.25053 0
M  V30 3220 C 316.65 3.08307 -3.90962 0
M  V30 3221 C 315.353 3.20455 -6.43973 0
M  V30 3222 C 317.379 3.00371 -5.09442 0
M  V30 3223 C 316.741 3.06227 -6.34354 0
M  V30 3224 H 312.84 0.672709 -0.398731 0
M  V30 3225 H 315.424 1.27905 -1.46794 0
M  V30 3226 H 313.595 3.7544 -0.994946 0
M  V30 3227 H 315.327 3.85894 -1.21935 0
M  V30 3228 H 312.082 3.48762 -3.20409 0
M  V30 3229 H 312.506 3.45013 -5.8249 0
M  V30 3230 H 317.148 3.02633 -2.95251 0
M  V30 3231 H 314.866 3.24888 -7.39914 0
M  V30 3232 H 318.452 2.88955 -5.04971 0
M  V30 3233 H 317.332 3.00132 -7.24493 0
M  V30 3234 N 314.835 0.952656 1.25548 0
M  V30 3235 C 316.251 0.656769 1.4546 0
M  V30 3236 C 316.451 -0.78633 1.85524 0
M  V30 3237 O 315.507 -1.56183 1.98402 0
M  V30 3238 C 316.82 1.62801 2.52817 0
M  V30 3239 C 318.368 1.63897 2.66659 0
M  V30 3240 C 318.843 2.5978 3.77198 0
M  V30 3241 N 320.334 2.58133 3.84606 0
M  V30 3242 C 321.069 3.29003 4.69621 0
M  V30 3243 N 320.565 4.09339 5.58939 0
M  V30 3244 N 322.358 3.179 4.63569 0
M  V30 3245 H 314.509 1.88526 0.978344 0
M  V30 3246 H 316.772 0.810815 0.491206 0
M  V30 3247 H 316.478 2.65869 2.30232 0
M  V30 3248 H 316.352 1.38898 3.50695 0
M  V30 3249 H 318.739 0.615481 2.8861 0
M  V30 3250 H 318.82 1.91858 1.69187 0
M  V30 3251 H 318.464 3.62254 3.55997 0
M  V30 3252 H 318.394 2.29105 4.7415 0
M  V30 3253 H 320.885 1.99809 3.20757 0
M  V30 3254 H 321.198 4.6034 6.20731 0
M  V30 3255 H 319.543 4.13438 5.58654 0
M  V30 3256 H 322.734 2.54612 3.92798 0
M  V30 3257 H 322.907 3.73398 5.29602 0
M  V30 3258 N 316.313 -1.40141 0.720998 0
M  V30 3259 C 317.561 -2.0039 0.262323 0
M  V30 3260 C 317.882 -1.57469 -1.15015 0
M  V30 3261 O 317.152 -0.816582 -1.78069 0
M  V30 3262 H 315.732 -0.741063 0.093996 0
M  V30 3263 H 318.394 -1.71398 0.927835 0
M  V30 3264 H 317.49 -3.10658 0.299671 0
M  V30 3265 N 317.792 -0.46758 -1.50504 0
M  V30 3266 C 319.069 0.15003 -1.95024 0
M  V30 3267 C 319.449 1.57304 -1.40779 0
M  V30 3268 O 318.797 2.20281 -0.607319 0
M  V30 3269 C 319.007 0.0969324 -3.48865 0
M  V30 3270 C 320.355 0.287565 -4.23625 0
M  V30 3271 O 321.379 0.173678 -3.55776 0
M  V30 3272 O 320.238 0.517186 -5.44047 0
M  V30 3273 H 317.332 0.113582 -0.819163 0
M  V30 3274 H 319.878 -0.52773 -1.61286 0
M  V30 3275 H 318.65 -0.896732 -3.80886 0
M  V30 3276 H 318.273 0.816303 -3.8913 0
M  V30 3277 N 319.27 1.56325 -0.20005 0
M  V30 3278 C 320.681 1.8408 0.31167 0
M  V30 3279 C 321.032 1.12087 1.61031 0
M  V30 3280 O 320.157 0.38332 2.12978 0
M  V30 3281 C 320.752 3.33932 0.57226 0
M  V30 3282 C 319.311 3.6208 1.02834 0
M  V30 3283 C 318.458 2.77186 0.079634 0
M  V30 3284 H 321.409 1.52939 -0.423729 0
M  V30 3285 H 321.43 3.52971 1.42096 0
M  V30 3286 H 320.942 3.86303 -0.37308 0
M  V30 3287 H 319.043 3.15147 1.98778 0
M  V30 3288 H 319.156 4.7023 0.917624 0
M  V30 3289 H 317.52 2.47951 0.582448 0
M  V30 3290 H 318.303 3.32347 -0.860238 0
M  V30 3291 N 320.748 -0.0735177 1.57428 0
M  V30 3292 C 321.658 -1.10547 2.06922 0
M  V30 3293 C 322.674 -1.42506 0.998402 0
M  V30 3294 O 323.85 -1.52717 1.31299 0
M  V30 3295 C 320.915 -2.40019 2.50184 0
M  V30 3296 C 319.976 -2.15046 3.71556 0
M  V30 3297 C 319.209 -3.38345 4.12745 0
M  V30 3298 O 319.432 -4.47399 3.53822 0
M  V30 3299 O 318.366 -3.2666 5.05546 0
M  V30 3300 H 322.192 -0.715013 2.95163 0
M  V30 3301 H 319.777 -0.287531 1.46607 0
M  V30 3302 H 321.659 -3.16218 2.78539 0
M  V30 3303 H 320.334 -2.78447 1.65072 0
M  V30 3304 H 319.241 -1.36558 3.48285 0
M  V30 3305 H 320.574 -1.81499 4.57514 0
M  V30 3306 N 322.226 -1.5378 -0.344866 0
M  V30 3307 C 323.503 -1.61589 -1.10219 0
M  V30 3308 C 323.883 -0.436316 -2.06542 0
M  V30 3309 O 323.231 0.571543 -2.21237 0
M  V30 3310 C 323.441 -2.97602 -1.82301 0
M  V30 3311 C 324.789 -3.5291 -2.36093 0
M  V30 3312 O 325.813 -2.99768 -1.924 0
M  V30 3313 O 324.672 -4.45859 -3.16026 0
M  V30 3314 H 321.766 -0.653522 -0.506792 0
M  V30 3315 H 324.312 -1.66126 -0.346465 0
M  V30 3316 H 323.084 -3.74893 -1.12121 0
M  V30 3317 H 322.707 -2.9665 -2.64735 0
M  V30 3318 N 323.704 0.605807 -1.45491 0
M  V30 3319 C 324.952 1.36207 -1.49305 0
M  V30 3320 C 325.273 1.94519 -0.136863 0
M  V30 3321 O 324.543 1.77261 0.833983 0
M  V30 3322 H 323.123 0.50565 -0.549843 0
M  V30 3323 H 325.785 0.711239 -1.81459 0
M  V30 3324 H 324.881 2.18058 -2.23287 0
M  V30 3325 N 325.182 1.32811 0.848464 0
M  V30 3326 C 326.428 1.23907 1.60546 0
M  V30 3327 C 326.761 -0.197161 1.93197 0
M  V30 3328 O 326.036 -1.13596 1.5788 0
M  V30 3329 C 326.319 2.10489 2.92175 0
M  V30 3330 C 326.172 3.62522 2.66266 0
M  V30 3331 C 327.491 1.97075 3.93509 0
M  V30 3332 H 324.61 0.451459 0.58254 0
M  V30 3333 H 327.252 1.62818 0.979296 0
M  V30 3334 H 325.402 1.77434 3.45614 0
M  V30 3335 H 327.074 4.05821 2.19334 0
M  V30 3336 H 325.317 3.84879 2.00126 0
M  V30 3337 H 325.988 4.18437 3.6002 0
M  V30 3338 H 328.464 2.26045 3.49346 0
M  V30 3339 H 327.34 2.59923 4.83457 0
M  V30 3340 H 327.601 0.940186 4.31987 0
M  V30 3341 N 326.66 -1.06551 1.16123 0
M  V30 3342 C 327.592 -2.13908 0.823171 0
M  V30 3343 C 328.605 -1.61926 -0.16843 0
M  V30 3344 O 329.794 -1.78412 0.055962 0
M  V30 3345 C 326.894 -3.38283 0.204424 0
M  V30 3346 C 326.067 -4.19589 1.23548 0
M  V30 3347 C 325.126 -5.2233 0.637011 0
M  V30 3348 O 324.152 -5.54034 1.30516 0
M  V30 3349 N 325.354 -5.77621 -0.577474 0
M  V30 3350 H 328.119 -2.43508 1.74711 0
M  V30 3351 H 325.68 -1.2253 1.05821 0
M  V30 3352 H 327.672 -4.0416 -0.208909 0
M  V30 3353 H 326.242 -3.06329 -0.623012 0
M  V30 3354 H 325.462 -3.49406 1.82507 0
M  V30 3355 H 326.75 -4.70718 1.93137 0
M  V30 3356 H 326.148 -5.54125 -1.13853 0
M  V30 3357 H 324.705 -6.45087 -0.933053 0
M  V30 3358 N 328.138 -0.959301 -1.25041 0
M  V30 3359 C 329.385 -0.616611 -1.92884 0
M  V30 3360 C 329.713 0.847036 -1.75087 0
M  V30 3361 O 328.968 1.62374 -1.09239 0
M  V30 3362 C 329.267 -0.927136 -3.45165 0
M  V30 3363 C 328.933 -2.37757 -3.83122 0
M  V30 3364 C 327.595 -2.77402 -3.93194 0
M  V30 3365 C 329.947 -3.31929 -4.01836 0
M  V30 3366 C 327.275 -4.10277 -4.19392 0
M  V30 3367 C 329.627 -4.64423 -4.29528 0
M  V30 3368 C 328.291 -5.03857 -4.37818 0
M  V30 3369 H 327.561 -0.225634 -0.705812 0
M  V30 3370 H 330.208 -1.20921 -1.48493 0
M  V30 3371 H 328.513 -0.252195 -3.90987 0
M  V30 3372 H 330.21 -0.6405 -3.95852 0
M  V30 3373 H 326.8 -2.06013 -3.75841 0
M  V30 3374 H 330.984 -3.02488 -3.93465 0
M  V30 3375 H 326.24 -4.40467 -4.24027 0
M  V30 3376 H 330.414 -5.37369 -4.42953 0
M  V30 3377 H 328.041 -6.06843 -4.57871 0
M  V30 3378 N 329.616 1.39756 -0.72842 0
M  V30 3379 C 331.027 1.83498 -0.344289 0
M  V30 3380 C 331.378 1.60868 1.12321 0
M  V30 3381 O 330.503 1.09634 1.86573 0
M  V30 3382 C 331.098 3.33114 -0.618112 0
M  V30 3383 C 329.657 3.753 -0.287549 0
M  V30 3384 C 328.804 2.62831 -0.884048 0
M  V30 3385 H 331.755 1.28842 -0.926578 0
M  V30 3386 H 331.776 3.80334 0.112349 0
M  V30 3387 H 331.288 3.49553 -1.68625 0
M  V30 3388 H 329.389 3.64451 0.775012 0
M  V30 3389 H 329.502 4.72945 -0.765512 0
M  V30 3390 H 327.866 2.52792 -0.311149 0
M  V30 3391 H 328.649 2.82078 -1.95671 0
M  V30 3392 N 331.094 0.475555 1.50254 0
M  V30 3393 C 332.024 -0.30611 2.31485 0
M  V30 3394 C 333.005 -0.986228 1.38591 0
M  V30 3395 O 334.19 -0.982541 1.67511 0
M  V30 3396 C 331.32 -1.38588 3.1845 0
M  V30 3397 C 330.274 -0.827115 4.19932 0
M  V30 3398 C 329.6 -2.00551 4.95665 0
M  V30 3399 C 330.9 0.16463 5.2204 0
M  V30 3400 H 332.594 0.371866 2.97082 0
M  V30 3401 H 330.14 0.180282 1.42867 0
M  V30 3402 H 332.093 -1.94023 3.74076 0
M  V30 3403 H 330.817 -2.09269 2.50747 0
M  V30 3404 H 329.476 -0.294702 3.65414 0
M  V30 3405 H 329.124 -2.6994 4.2443 0
M  V30 3406 H 328.824 -1.63784 5.64313 0
M  V30 3407 H 330.348 -2.56468 5.54127 0
M  V30 3408 H 331.762 -0.300699 5.72511 0
M  V30 3409 H 330.159 0.446813 5.98434 0
M  V30 3410 H 331.229 1.08905 4.72512 0
M  V30 3411 N 332.573 -1.56217 0.208337 0
M  V30 3412 C 333.85 -1.89739 -0.475234 0
M  V30 3413 C 334.23 -1.1238 -1.78701 0
M  V30 3414 O 333.578 -0.228979 -2.2735 0
M  V30 3415 C 333.788 -3.42289 -0.681101 0
M  V30 3416 C 335.136 -4.12789 -0.994507 0
M  V30 3417 O 336.16 -3.47814 -0.768357 0
M  V30 3418 O 335.019 -5.27649 -1.42299 0
M  V30 3419 H 332.113 -0.788478 -0.249461 0
M  V30 3420 H 334.659 -1.67855 0.249538 0
M  V30 3421 H 333.431 -3.90534 0.244722 0
M  V30 3422 H 333.054 -3.69909 -1.45785 0
M  V30 3423 N 334.051 0.0651679 -1.57465 0
M  V30 3424 C 335.281 0.774683 -1.91526 0
M  V30 3425 C 335.689 1.71305 -0.803196 0
M  V30 3426 O 335.032 1.82231 0.231881 0
M  V30 3427 C 335.094 1.61645 -3.21109 0
M  V30 3428 C 334.758 0.846753 -4.49087 0
M  V30 3429 C 335.755 0.163024 -5.19644 0
M  V30 3430 C 333.44 0.811966 -4.95694 0
M  V30 3431 C 335.434 -0.54519 -6.35064 0
M  V30 3432 C 333.121 0.0999836 -6.11018 0
M  V30 3433 C 334.119 -0.577388 -6.80555 0
M  V30 3434 O 333.807 -1.27789 -7.93678 0
M  V30 3435 H 333.539 0.225031 -0.637446 0
M  V30 3436 H 336.093 0.0377134 -2.05365 0
M  V30 3437 H 334.323 2.39638 -3.03497 0
M  V30 3438 H 336.012 2.20525 -3.40769 0
M  V30 3439 H 336.778 0.181163 -4.84662 0
M  V30 3440 H 332.657 1.32867 -4.41438 0
M  V30 3441 H 336.201 -1.07446 -6.89276 0
M  V30 3442 H 332.098 0.0797945 -6.45451 0
M  V30 3443 H 332.866 -1.18784 -8.09835 0
M  V30 3444 N 335.529 1.53961 0.336706 0
M  V30 3445 C 336.477 1.83136 1.43401 0
M  V30 3446 C 337.471 0.702313 1.54156 0
M  V30 3447 O 338.677 0.885765 1.56698 0
M  V30 3448 H 335.052 0.580309 0.478273 0
M  V30 3449 H 337.023 2.74925 1.16012 0
M  V30 3450 C 335.772 2.06385 2.79822 0
M  V30 3451 H 335.095 2.92718 2.72316 0
M  V30 3452 H 336.535 2.30761 3.55704 0
M  V30 3453 C 334.994 0.851414 3.25964 0
M  V30 3454 O 335.524 0.0541904 4.01663 0
M  V30 3455 N 333.73 0.66672 2.82848 0
M  V30 3456 H 333.277 1.31665 2.21409 0
M  V30 3457 H 333.235 -0.143032 3.14074 0
M  V30 3458 N 337.007 -0.598083 1.45811 0
M  V30 3459 C 338.237 -1.38121 1.53643 0
M  V30 3460 C 338.645 -1.88425 0.171081 0
M  V30 3461 O 337.988 -1.63409 -0.839237 0
M  V30 3462 C 338.05 -2.61432 2.46766 0
M  V30 3463 C 337.714 -2.32702 3.93318 0
M  V30 3464 C 338.711 -1.92479 4.82957 0
M  V30 3465 C 336.396 -2.45321 4.38318 0
M  V30 3466 C 338.39 -1.65248 6.15607 0
M  V30 3467 C 336.077 -2.17703 5.71007 0
M  V30 3468 C 337.075 -1.7773 6.5947 0
M  V30 3469 O 336.763 -1.50441 7.89698 0
M  V30 3470 H 336.495 -0.428863 0.522544 0
M  V30 3471 H 339.049 -0.73557 1.91777 0
M  V30 3472 H 337.279 -3.28749 2.0362 0
M  V30 3473 H 338.968 -3.23487 2.45175 0
M  V30 3474 H 339.734 -1.82258 4.49452 0
M  V30 3475 H 335.613 -2.75399 3.69697 0
M  V30 3476 H 339.157 -1.33973 6.84614 0
M  V30 3477 H 335.054 -2.27544 6.04065 0
M  V30 3478 H 335.822 -1.64415 8.01817 0
M  V30 3479 N 338.485 -1.33259 -0.841409 0
M  V30 3480 C 339.71 -1.2775 -1.63385 0
M  V30 3481 C 340.135 0.149188 -1.87507 0
M  V30 3482 O 339.493 1.10498 -1.43736 0
M  V30 3483 C 339.541 -2.05571 -2.96265 0
M  V30 3484 O 338.645 -1.41257 -3.87453 0
M  V30 3485 H 337.986 -0.439627 -0.497618 0
M  V30 3486 H 340.516 -1.75782 -1.04699 0
M  V30 3487 H 340.526 -2.16241 -3.45982 0
M  V30 3488 H 339.201 -3.09309 -2.7803 0
M  V30 3489 H 337.778 -1.39217 -3.45938 0
M  V30 3490 N 339.963 1.05934 -1.16686 0
M  V30 3491 C 340.926 2.11669 -0.879144 0
M  V30 3492 C 341.926 1.60294 0.127445 0
M  V30 3493 O 343.116 1.7389 -0.103865 0
M  V30 3494 C 340.248 3.39438 -0.315425 0
M  V30 3495 H 341.441 2.38626 -1.81653 0
M  V30 3496 H 338.994 1.22058 -0.976299 0
M  V30 3497 H 339.729 3.18132 0.629468 0
M  V30 3498 H 339.514 3.78034 -1.04079 0
M  V30 3499 H 341.004 4.17391 -0.132189 0
M  V30 3500 N 341.441 0.965919 1.2453 0
M  V30 3501 C 342.688 0.626831 1.92554 0
M  V30 3502 C 343.016 -0.837739 1.75534 0
M  V30 3503 O 342.271 -1.61793 1.10098 0
M  V30 3504 C 342.57 0.945428 3.44669 0
M  V30 3505 C 342.236 2.39785 3.81856 0
M  V30 3506 C 340.898 2.79483 3.91718 0
M  V30 3507 C 343.25 3.34055 4.00071 0
M  V30 3508 C 340.578 4.12496 4.1721 0
M  V30 3509 C 342.93 4.66694 4.27059 0
M  V30 3510 C 341.594 5.06172 4.3514 0
M  V30 3511 H 340.864 0.229374 0.704605 0
M  V30 3512 H 343.511 1.21707 1.4785 0
M  V30 3513 H 341.816 0.272926 3.90848 0
M  V30 3514 H 343.513 0.661484 3.95507 0
M  V30 3515 H 340.103 2.08003 3.74743 0
M  V30 3516 H 344.287 3.04571 3.91855 0
M  V30 3517 H 339.543 4.42709 4.21685 0
M  V30 3518 H 343.717 5.3971 4.40097 0
M  V30 3519 H 341.344 6.09262 4.54646 0
M  V30 3520 N 342.919 -1.39368 0.735821 0
M  V30 3521 C 344.166 -2.00497 0.284123 0
M  V30 3522 C 344.494 -1.58387 -1.12889 0
M  V30 3523 O 343.749 -0.804359 -1.78406 0
M  V30 3524 C 344.048 -3.5583 0.334651 0
M  V30 3525 C 343.714 -4.17593 1.7008 0
M  V30 3526 C 342.376 -4.34176 2.07472 0
M  V30 3527 C 344.728 -4.51848 2.59775 0
M  V30 3528 C 342.056 -4.82304 3.34065 0
M  V30 3529 C 344.408 -5.01384 3.85741 0
M  V30 3530 C 343.072 -5.16175 4.23225 0
M  V30 3531 H 342.342 -0.73367 0.103968 0
M  V30 3532 H 344.989 -1.66683 0.942825 0
M  V30 3533 H 343.294 -3.89674 -0.407625 0
M  V30 3534 H 344.991 -4.00986 -0.0329927 0
M  V30 3535 H 341.581 -4.05087 1.40008 0
M  V30 3536 H 345.765 -4.38653 2.32157 0
M  V30 3537 H 341.021 -4.91941 3.63049 0
M  V30 3538 H 345.195 -5.26863 4.55399 0
M  V30 3539 H 342.822 -5.5323 5.21384 0
M  V30 3540 N 344.397 -0.483516 -1.5 0
M  V30 3541 C 345.327 0.293829 -2.31644 0
M  V30 3542 C 346.308 0.978864 -1.39112 0
M  V30 3543 O 347.493 0.973644 -1.68029 0
M  V30 3544 C 344.623 1.36897 -3.19181 0
M  V30 3545 C 343.577 0.804833 -4.20365 0
M  V30 3546 C 342.903 1.9792 -4.96721 0
M  V30 3547 C 344.203 -0.192313 -5.21946 0
M  V30 3548 H 345.897 -0.387616 -2.9688 0
M  V30 3549 H 343.443 -0.187856 -1.42769 0
M  V30 3550 H 345.396 1.92037 -3.751 0
M  V30 3551 H 344.12 2.07936 -2.51853 0
M  V30 3552 H 342.779 0.275319 -3.65565 0
M  V30 3553 H 342.427 2.67686 -4.25856 0
M  V30 3554 H 342.127 1.60789 -5.65173 0
M  V30 3555 H 343.651 2.53526 -5.55479 0
M  V30 3556 H 345.065 0.270333 -5.72662 0
M  V30 3557 H 343.462 -0.478543 -5.98189 0
M  V30 3558 H 344.532 -1.11409 -4.71928 0
M  V30 3559 N 345.875 1.56104 -0.216619 0
M  V30 3560 C 347.121 1.98466 0.417033 0
M  V30 3561 C 347.454 1.10403 1.59765 0
M  V30 3562 O 346.729 0.160632 1.93836 0
M  V30 3563 C 347.012 3.49769 0.85637 0
M  V30 3564 C 346.865 4.48606 -0.327546 0
M  V30 3565 C 348.184 4.05339 1.7143 0
M  V30 3566 H 345.303 0.721551 0.150112 0
M  V30 3567 H 347.945 1.87423 -0.311864 0
M  V30 3568 H 346.095 3.5931 1.47745 0
M  V30 3569 H 347.767 4.5108 -0.965618 0
M  V30 3570 H 346.01 4.22682 -0.975805 0
M  V30 3571 H 346.681 5.51995 0.0227149 0
M  V30 3572 H 349.157 3.98712 1.19031 0
M  V30 3573 H 348.033 5.11533 1.99061 0
M  V30 3574 H 348.294 3.51918 2.67593 0
M  V30 3575 N 347.353 -0.0568162 1.57498 0
M  V30 3576 C 348.63 -0.786954 1.79071 0
M  V30 3577 C 349.01 -1.95028 0.80792 0
M  V30 3578 O 348.358 -2.27968 -0.155858 0
M  V30 3579 C 348.568 -1.24594 3.26002 0
M  V30 3580 C 349.916 -1.67323 3.90241 0
M  V30 3581 O 350.94 -1.34124 3.29984 0
M  V30 3582 O 349.799 -2.28842 4.9628 0
M  V30 3583 H 346.893 -0.378262 0.735423 0
M  V30 3584 H 349.439 -0.035734 1.69662 0
M  V30 3585 H 348.211 -0.41423 3.89101 0
M  V30 3586 H 347.834 -2.05803 3.40192 0
M  V30 3587 N 348.832 -1.54138 -0.328536 0
M  V30 3588 C 350.109 -1.62749 -1.08499 0
M  V30 3589 C 350.489 -0.458198 -2.06067 0
M  V30 3590 O 349.837 0.548046 -2.2183 0
M  V30 3591 C 350.047 -2.99519 -1.79135 0
M  V30 3592 C 351.395 -3.55394 -2.32337 0
M  V30 3593 O 352.419 -3.01792 -1.89209 0
M  V30 3594 O 351.278 -4.49186 -3.11279 0
M  V30 3595 H 348.372 -0.65886 -0.499832 0
M  V30 3596 H 350.918 -1.66484 -0.328826 0
M  V30 3597 H 349.69 -3.76061 -1.08139 0
M  V30 3598 H 349.313 -2.99441 -2.61574 0
M  V30 3599 N 350.31 0.590341 -1.46126 0
M  V30 3600 C 351.558 1.34616 -1.50742 0
M  V30 3601 C 351.879 1.94363 -0.157486 0
M  V30 3602 O 351.149 1.78136 0.815136 0
M  V30 3603 H 349.729 0.499789 -0.555175 0
M  V30 3604 H 352.391 0.691953 -1.82203 0
M  V30 3605 H 351.487 2.15678 -2.25587 0
M  V30 3606 N 351.788 1.33704 0.83433 0
M  V30 3607 C 353.016 1.28467 1.62185 0
M  V30 3608 C 353.431 -0.143526 1.88254 0
M  V30 3609 O 352.788 -1.08709 1.4659 0
M  V30 3610 C 352.839 2.06174 2.96942 0
M  V30 3611 O 352.56 3.43422 2.72016 0
M  V30 3612 C 354.061 2.08201 3.91366 0
M  V30 3613 H 351.281 0.4424 0.504503 0
M  V30 3614 H 353.825 1.76145 1.03891 0
M  V30 3615 H 351.98 1.62167 3.51825 0
M  V30 3616 H 352.394 3.83453 3.57861 0
M  V30 3617 H 353.868 2.67017 4.83121 0
M  V30 3618 H 354.345 1.07343 4.2588 0
M  V30 3619 H 354.951 2.52246 3.42421 0
M  V30 3620 N 353.266 -1.05314 1.17247 0
M  V30 3621 C 354.216 -2.11313 0.856196 0
M  V30 3622 C 355.2 -1.60013 -0.168694 0
M  V30 3623 O 356.392 -1.76968 0.0335624 0
M  V30 3624 C 353.521 -3.41301 0.369917 0
M  V30 3625 C 352.607 -3.99401 1.42616 0
M  V30 3626 N 352.998 -4.31481 2.63928 0
M  V30 3627 C 351.296 -4.27126 1.28373 0
M  V30 3628 C 351.997 -4.77799 3.31787 0
M  V30 3629 N 350.973 -4.77843 2.59166 0
M  V30 3630 H 354.775 -2.33976 1.77856 0
M  V30 3631 H 352.289 -1.2295 1.06099 0
M  V30 3632 H 354.286 -4.16713 0.124897 0
M  V30 3633 H 352.946 -3.20072 -0.546253 0
M  V30 3634 H 353.957 -4.21519 3.00902 0
M  V30 3635 H 350.634 -4.15289 0.429111 0
M  V30 3636 H 352.024 -5.11743 4.35395 0
M  V30 3637 N 354.744 -0.972509 -1.24016 0
M  V30 3638 C 355.992 -0.635776 -1.91839 0
M  V30 3639 C 356.313 0.832312 -1.76345 0
M  V30 3640 O 355.583 1.5946 -1.13795 0
M  V30 3641 H 354.163 -0.232157 -0.710009 0
M  V30 3642 H 356.825 -1.23462 -1.50809 0
M  V30 3643 H 355.921 -0.880545 -2.99421 0
M  V30 3644 N 356.222 1.38976 -0.743202 0
M  V30 3645 C 357.462 2.02193 -0.29954 0
M  V30 3646 C 357.826 1.5771 1.09506 0
M  V30 3647 O 359.027 2.13184 1.63726 0
M  V30 3648 C 357.298 3.55077 -0.406822 0
M  V30 3649 S 358.857 4.38778 -0.0442109 0
M  V30 3650 H 355.675 0.701335 -0.116836 0
M  V30 3651 H 358.277 1.69651 -0.971529 0
M  V30 3652 H 356.981 3.84942 -1.42295 0
M  V30 3653 H 356.512 3.92383 0.282707 0
M  V30 3654 H 358.527 4.82222 1.16947 0
M  V30 3655 N 357.7 0.491464 1.49741 0
M  V30 3656 C 358.63 -0.28154 2.31796 0
M  V30 3657 C 359.611 -0.971473 1.3963 0
M  V30 3658 O 360.796 -0.964719 1.68543 0
M  V30 3659 C 357.926 -1.35203 3.19902 0
M  V30 3660 C 356.88 -0.782529 4.20786 0
M  V30 3661 C 356.206 -1.95283 4.97764 0
M  V30 3662 C 357.506 0.21999 5.21837 0
M  V30 3663 H 359.2 0.403355 2.96671 0
M  V30 3664 H 356.746 0.195425 1.42668 0
M  V30 3665 H 358.699 -1.90045 3.76113 0
M  V30 3666 H 357.423 -2.06598 2.52953 0
M  V30 3667 H 356.082 -0.255928 3.65706 0
M  V30 3668 H 355.73 -2.65423 4.2727 0
M  V30 3669 H 355.43 -1.57789 5.66018 0
M  V30 3670 H 356.954 -2.50577 5.56816 0
M  V30 3671 H 358.368 -0.23996 5.72798 0
M  V30 3672 H 356.765 0.51026 5.97927 0
M  V30 3673 H 357.835 1.13911 4.7133 0
M  V30 3674 N 359.178 -1.55987 0.224894 0
M  V30 3675 C 360.426 -1.97998 -0.405099 0
M  V30 3676 C 360.747 -1.11387 -1.60056 0
M  V30 3677 O 360.017 -0.191645 -1.9496 0
M  V30 3678 H 358.597 -0.731235 -0.152658 0
M  V30 3679 H 361.259 -1.92279 0.318567 0
M  V30 3680 H 360.355 -3.03463 -0.729167 0
M  V30 3681 N 360.656 0.0484629 -1.57525 0
M  V30 3682 C 361.904 0.741657 -1.88 0
M  V30 3683 C 362.225 1.76918 -0.820054 0
M  V30 3684 O 361.495 1.95335 0.148661 0
M  V30 3685 H 360.075 0.276908 -0.69378 0
M  V30 3686 H 362.737 0.019013 -1.94891 0
M  V30 3687 H 361.833 1.24336 -2.86264 0
M  V30 3688 N 362.134 1.5431 0.320358 0
M  V30 3689 C 363.044 1.86946 1.41734 0
M  V30 3690 C 364.06 0.761689 1.56443 0
M  V30 3691 O 365.236 1.05629 1.71477 0
M  V30 3692 C 362.301 2.09293 2.76401 0
M  V30 3693 C 361.362 3.33082 2.70841 0
M  V30 3694 C 360.595 3.54353 3.99086 0
M  V30 3695 O 360.818 2.79002 4.97508 0
M  V30 3696 O 359.752 4.47838 4.0215 0
M  V30 3697 H 363.578 2.80232 1.17062 0
M  V30 3698 H 361.163 1.40255 0.514673 0
M  V30 3699 H 363.045 2.25303 3.56113 0
M  V30 3700 H 361.72 1.19194 3.00956 0
M  V30 3701 H 360.627 3.22454 1.89668 0
M  V30 3702 H 361.96 4.23249 2.5124 0
M  V30 3703 N 363.613 -0.582584 1.46437 0
M  V30 3704 C 364.561 -1.71272 1.5738 0
M  V30 3705 C 365.555 -1.63524 0.44229 0
M  V30 3706 O 366.761 -1.69016 0.619166 0
M  V30 3707 H 363.136 -0.566273 0.494813 0
M  V30 3708 H 365.107 -1.59174 2.52401 0
M  V30 3709 C 363.856 -3.09658 1.58136 0
M  V30 3710 H 363.179 -3.16291 2.44541 0
M  V30 3711 H 364.619 -3.88494 1.69847 0
M  V30 3712 C 363.078 -3.3547 0.310026 0
M  V30 3713 O 363.608 -3.97199 -0.599683 0
M  V30 3714 N 361.814 -2.89925 0.197901 0
M  V30 3715 H 361.361 -2.39873 0.93909 0
M  V30 3716 H 361.319 -3.07568 -0.65185 0
M  V30 3717 N 365.091 -1.34144 -0.827227 0
M  V30 3718 C 366.507 -1.13732 -1.11969 0
M  V30 3719 C 366.707 0.0640463 -2.01398 0
M  V30 3720 O 365.763 0.740856 -2.41387 0
M  V30 3721 C 367.076 -2.43047 -1.77055 0
M  V30 3722 C 368.624 -2.49063 -1.89569 0
M  V30 3723 C 369.099 -3.78369 -2.58072 0
M  V30 3724 N 370.59 -3.79505 -2.65575 0
M  V30 3725 C 371.325 -4.76274 -3.19297 0
M  V30 3726 N 370.821 -5.83424 -3.73616 0
M  V30 3727 N 372.614 -4.63735 -3.17658 0
M  V30 3728 H 364.765 -2.11126 -0.232296 0
M  V30 3729 H 367.028 -0.933424 -0.165602 0
M  V30 3730 H 366.734 -3.31025 -1.18807 0
M  V30 3731 H 366.608 -2.56066 -2.76966 0
M  V30 3732 H 368.995 -1.61527 -2.46968 0
M  V30 3733 H 369.076 -2.39975 -0.885745 0
M  V30 3734 H 368.72 -4.66293 -2.01329 0
M  V30 3735 H 368.65 -3.84737 -3.59562 0
M  V30 3736 H 371.141 -3.02074 -2.27068 0
M  V30 3737 H 371.454 -6.53282 -4.12846 0
M  V30 3738 H 369.799 -5.87143 -3.71871 0
M  V30 3739 H 372.99 -3.79177 -2.74486 0
M  V30 3740 H 373.163 -5.39318 -3.59221 0
M  V30 3741 N 366.569 1.04691 -1.17803 0
M  V30 3742 C 367.816 1.77782 -0.969532 0
M  V30 3743 C 368.144 1.87926 0.501401 0
M  V30 3744 O 367.399 1.37918 1.38842 0
M  V30 3745 C 367.698 3.21467 -1.56186 0
M  V30 3746 C 367.364 3.3137 -3.05786 0
M  V30 3747 C 366.026 3.3378 -3.46619 0
M  V30 3748 C 368.378 3.31976 -4.01797 0
M  V30 3749 C 365.706 3.34431 -4.82051 0
M  V30 3750 C 368.058 3.34167 -5.37136 0
M  V30 3751 C 366.722 3.34866 -5.77426 0
M  V30 3752 H 365.992 0.650549 -0.354777 0
M  V30 3753 H 368.639 1.23006 -1.46772 0
M  V30 3754 H 366.944 3.79203 -0.985515 0
M  V30 3755 H 368.641 3.76652 -1.37602 0
M  V30 3756 H 365.231 3.3021 -2.73238 0
M  V30 3757 H 369.415 3.29311 -3.71306 0
M  V30 3758 H 364.671 3.33285 -5.12573 0
M  V30 3759 H 368.845 3.33585 -6.11305 0
M  V30 3760 H 366.472 3.35124 -6.82346 0
M  V30 3761 N 368.047 0.979072 1.23499 0
M  V30 3762 C 369.463 0.687475 1.44034 0
M  V30 3763 C 369.663 -0.746801 1.8715 0
M  V30 3764 O 368.719 -1.51939 2.0167 0
M  V30 3765 C 370.032 1.68127 2.49307 0
M  V30 3766 C 371.58 1.69516 2.63122 0
M  V30 3767 C 372.055 2.67723 3.71603 0
M  V30 3768 N 373.546 2.66233 3.79044 0
M  V30 3769 C 374.281 3.38891 4.62537 0
M  V30 3770 N 373.777 4.21103 5.50131 0
M  V30 3771 N 375.57 3.27661 4.56721 0
M  V30 3772 H 367.721 1.90559 0.938135 0
M  V30 3773 H 369.984 0.821051 0.473897 0
M  V30 3774 H 369.69 2.70693 2.2454 0
M  V30 3775 H 369.564 1.46306 3.4767 0
M  V30 3776 H 371.951 0.676561 2.8724 0
M  V30 3777 H 372.032 1.95404 1.65079 0
M  V30 3778 H 371.676 3.69724 3.48233 0
M  V30 3779 H 371.606 2.39111 4.69184 0
M  V30 3780 H 374.097 2.06568 3.16446 0
M  V30 3781 H 374.41 4.73403 6.10827 0
M  V30 3782 H 372.755 4.25195 5.49759 0
M  V30 3783 H 375.946 2.62887 3.87309 0
M  V30 3784 H 376.119 3.84547 5.21562 0
M  V30 3785 N 369.525 -1.3858 0.750561 0
M  V30 3786 C 370.455 -2.33102 0.136237 0
M  V30 3787 C 371.436 -1.54713 -0.706965 0
M  V30 3788 O 372.621 -1.83043 -0.648769 0
M  V30 3789 C 369.751 -3.38882 -0.760017 0
M  V30 3790 C 368.705 -4.27995 -0.0197785 0
M  V30 3791 C 368.031 -5.24605 -1.03408 0
M  V30 3792 C 369.331 -5.09554 1.14684 0
M  V30 3793 H 371.025 -2.84726 0.925822 0
M  V30 3794 H 368.571 -1.36898 0.446654 0
M  V30 3795 H 370.524 -4.0397 -1.19943 0
M  V30 3796 H 369.248 -2.85734 -1.58189 0
M  V30 3797 H 367.907 -3.64409 0.400184 0
M  V30 3798 H 367.555 -4.67746 -1.84994 0
M  V30 3799 H 367.255 -5.85081 -0.543464 0
M  V30 3800 H 368.779 -5.9257 -1.47288 0
M  V30 3801 H 370.193 -5.67899 0.785118 0
M  V30 3802 H 368.59 -5.7925 1.56812 0
M  V30 3803 H 369.66 -4.4347 1.96118 0
M  V30 3804 N 371.003 -0.499398 -1.49478 0
M  V30 3805 C 372.419 -0.155261 -1.58843 0
M  V30 3806 C 372.619 1.34008 -1.50479 0
M  V30 3807 O 371.675 2.11589 -1.37791 0
M  V30 3808 C 372.988 -0.730636 -2.91689 0
M  V30 3809 C 374.536 -0.696599 -3.0515 0
M  V30 3810 C 375.011 -1.25001 -4.40612 0
M  V30 3811 N 376.502 -1.21064 -4.47099 0
M  V30 3812 C 377.237 -1.60905 -5.50361 0
M  V30 3813 N 376.733 -2.08331 -6.60735 0
M  V30 3814 N 378.526 -1.52331 -5.41065 0
M  V30 3815 H 370.677 -1.47162 -1.53158 0
M  V30 3816 H 372.94 -0.610309 -0.725415 0
M  V30 3817 H 372.646 -1.77928 -3.03372 0
M  V30 3818 H 372.52 -0.190161 -3.7672 0
M  V30 3819 H 374.907 0.343204 -2.93097 0
M  V30 3820 H 374.988 -1.2742 -2.21806 0
M  V30 3821 H 374.632 -2.28859 -4.53416 0
M  V30 3822 H 374.562 -0.64836 -5.22593 0
M  V30 3823 H 377.053 -0.863128 -3.67911 0
M  V30 3824 H 377.366 -2.36805 -7.35624 0
M  V30 3825 H 375.711 -2.12304 -6.6178 0
M  V30 3826 H 378.902 -1.151 -4.53729 0
M  V30 3827 H 379.075 -1.83704 -6.21415 0
M  V30 3828 N 372.481 1.55866 -0.233164 0
M  V30 3829 C 373.411 2.23783 0.666599 0
M  V30 3830 C 374.392 1.21343 1.19205 0
M  V30 3831 O 375.577 1.4996 1.23392 0
M  V30 3832 C 372.707 2.92671 1.86978 0
M  V30 3833 C 371.661 4.01682 1.47768 0
M  V30 3834 C 370.987 4.57926 2.76058 0
M  V30 3835 C 372.287 5.18126 0.658993 0
M  V30 3836 H 373.981 2.99232 0.100306 0
M  V30 3837 H 371.527 1.43924 0.046804 0
M  V30 3838 H 373.48 3.3888 2.50476 0
M  V30 3839 H 372.204 2.14688 2.46123 0
M  V30 3840 H 370.863 3.56222 0.866106 0
M  V30 3841 H 370.511 3.76659 3.33372 0
M  V30 3842 H 370.211 5.31505 2.50552 0
M  V30 3843 H 371.735 5.06859 3.40479 0
M  V30 3844 H 373.149 5.60644 1.19795 0
M  V30 3845 H 371.546 5.98009 0.500552 0
M  V30 3846 H 372.616 4.83763 -0.331856 0
M  V30 3847 N 373.959 -0.0401083 1.57549 0
M  V30 3848 C 374.869 -1.06133 2.0922 0
M  V30 3849 C 375.885 -1.40356 1.0284 0
M  V30 3850 O 377.061 -1.49897 1.34509 0
M  V30 3851 C 374.126 -2.34658 2.55218 0
M  V30 3852 C 373.187 -2.07117 3.76033 0
M  V30 3853 C 372.42 -3.29514 4.19829 0
M  V30 3854 O 372.643 -4.39794 3.63232 0
M  V30 3855 O 371.577 -3.15863 5.12362 0
M  V30 3856 H 375.403 -0.652244 2.96613 0
M  V30 3857 H 372.988 -0.256368 1.47184 0
M  V30 3858 H 374.87 -3.10239 2.85184 0
M  V30 3859 H 373.545 -2.74883 1.70941 0
M  V30 3860 H 372.452 -1.29139 3.51104 0
M  V30 3861 H 373.785 -1.71754 4.61261 0
M  V30 3862 N 375.437 -1.54477 -0.31217 0
M  V30 3863 C 376.662 -1.77526 -1.07235 0
M  V30 3864 C 377.087 -0.527775 -1.80544 0
M  V30 3865 O 376.445 0.52121 -1.73646 0
M  V30 3866 C 376.493 -2.97535 -2.03728 0
M  V30 3867 O 375.597 -2.69878 -3.11833 0
M  V30 3868 H 374.938 -0.58792 -0.30862 0
M  V30 3869 H 377.468 -2.01532 -0.352993 0
M  V30 3870 H 377.478 -3.25198 -2.46395 0
M  V30 3871 H 376.153 -3.87996 -1.49774 0
M  V30 3872 H 374.73 -2.53199 -2.7376 0
M  V30 3873 N 376.915 0.57481 -1.46744 0
M  V30 3874 C 378.145 1.35659 -1.55821 0
M  V30 3875 C 378.553 1.88129 -0.201036 0
M  V30 3876 O 377.896 1.64723 0.813134 0
M  V30 3877 C 377.958 2.57473 -2.50894 0
M  V30 3878 C 377.622 2.26415 -3.9697 0
M  V30 3879 C 378.619 1.84771 -4.85958 0
M  V30 3880 C 376.304 2.38316 -4.42166 0
M  V30 3881 C 378.298 1.55434 -6.18158 0
M  V30 3882 C 375.985 2.08591 -5.74398 0
M  V30 3883 C 376.983 1.67216 -6.62214 0
M  V30 3884 O 376.671 1.37859 -7.91991 0
M  V30 3885 H 376.403 0.420496 -0.529301 0
M  V30 3886 H 378.957 0.704967 -1.92923 0
M  V30 3887 H 377.187 3.25468 -2.08824 0
M  V30 3888 H 378.876 3.19546 -2.50291 0
M  V30 3889 H 379.642 1.75085 -4.52295 0
M  V30 3890 H 375.521 2.69483 -3.74032 0
M  V30 3891 H 379.065 1.23065 -6.86659 0
M  V30 3892 H 374.962 2.17905 -6.07608 0
M  V30 3893 H 375.73 1.51638 -8.04331 0
M  V30 3894 N 378.394 1.34581 0.820102 0
M  V30 3895 C 379.643 1.26437 1.57151 0
M  V30 3896 C 379.956 -0.163111 1.94919 0
M  V30 3897 O 381.162 -0.366722 2.69012 0
M  V30 3898 C 379.618 2.21658 2.83541 0
M  V30 3899 C 379.226 3.69679 2.53065 0
M  V30 3900 C 380.97 2.22428 3.61561 0
M  V30 3901 C 378.877 4.56761 3.75664 0
M  V30 3902 H 377.807 0.469707 0.589823 0
M  V30 3903 H 380.458 1.59763 0.902656 0
M  V30 3904 H 378.84 1.81287 3.52067 0
M  V30 3905 H 380.014 4.18605 1.92631 0
M  V30 3906 H 378.329 3.71384 1.88316 0
M  V30 3907 H 380.926 2.8471 4.52597 0
M  V30 3908 H 381.269 1.22434 3.97889 0
M  V30 3909 H 381.802 2.61259 2.99981 0
M  V30 3910 H 378.541 5.57702 3.44454 0
M  V30 3911 H 378.061 4.12568 4.35371 0
M  V30 3912 H 379.74 4.71509 4.43044 0
M  V30 3913 N 379.872 -1.04064 1.18357 0
M  V30 3914 C 381.097 -1.81454 1.00445 0
M  V30 3915 C 381.522 -1.82823 -0.442423 0
M  V30 3916 O 380.88 -1.24555 -1.31741 0
M  V30 3917 C 380.928 -3.24925 1.56384 0
M  V30 3918 O 380.032 -4.04856 0.785209 0
M  V30 3919 H 379.373 -0.560604 0.355835 0
M  V30 3920 H 381.903 -1.31059 1.57114 0
M  V30 3921 H 381.913 -3.75702 1.59097 0
M  V30 3922 H 380.588 -3.23244 2.61699 0
M  V30 3923 H 379.165 -3.63537 0.830399 0
M  V30 3924 N 381.35 -0.985608 -1.22978 0
M  V30 3925 C 382.282 -0.488154 -2.23941 0
M  V30 3926 C 383.295 0.41282 -1.57479 0
M  V30 3927 O 384.484 0.216121 -1.77187 0
M  V30 3928 C 381.584 0.312611 -3.37455 0
M  V30 3929 C 380.757 -0.582741 -4.33501 0
M  V30 3930 C 379.816 0.165064 -5.25941 0
M  V30 3931 O 378.842 -0.447077 -5.67442 0
M  V30 3932 N 380.044 1.44953 -5.62111 0
M  V30 3933 H 382.809 -1.3563 -2.67254 0
M  V30 3934 H 380.37 -0.859477 -1.37203 0
M  V30 3935 H 382.362 0.821357 -3.96277 0
M  V30 3936 H 380.932 1.0818 -2.93285 0
M  V30 3937 H 380.152 -1.27225 -3.73105 0
M  V30 3938 H 381.44 -1.19275 -4.94622 0
M  V30 3939 H 380.838 1.9683 -5.30353 0
M  V30 3940 H 379.395 1.90361 -6.23383 0
M  V30 3941 N 382.828 1.3818 -0.7579 0
M  V30 3942 C 383.76 2.2901 -0.0932177 0
M  V30 3943 C 384.773 1.47958 0.679136 0
M  V30 3944 O 385.962 1.70773 0.519514 0
M  V30 3945 C 383.062 3.26953 0.89192 0
M  V30 3946 C 382.235 4.37045 0.176303 0
M  V30 3947 C 381.294 5.15148 1.07281 0
M  V30 3948 O 380.32 5.66616 0.541728 0
M  V30 3949 N 381.522 5.28542 2.40049 0
M  V30 3950 H 384.287 2.86694 -0.873303 0
M  V30 3951 H 381.848 1.50007 -0.609054 0
M  V30 3952 H 383.84 3.76083 1.49479 0
M  V30 3953 H 382.41 2.70136 1.57306 0
M  V30 3954 H 381.63 3.89493 -0.607328 0
M  V30 3955 H 382.918 5.07801 -0.318718 0
M  V30 3956 H 382.316 4.88285 2.85647 0
M  V30 3957 H 380.873 5.8103 2.95376 0
M  V30 3958 N 384.306 0.507319 1.49211 0
M  V30 3959 C 385.253 -0.267728 2.29242 0
M  V30 3960 C 386.223 -0.954609 1.35928 0
M  V30 3961 O 387.408 -0.960046 1.64887 0
M  V30 3962 C 384.548 -1.32243 3.18756 0
M  V30 3963 C 383.661 -0.64669 4.27132 0
M  V30 3964 C 382.796 -1.68238 5.03855 0
M  V30 3965 C 381.835 -0.98885 6.0406 0
M  V30 3966 N 380.972 -1.96903 6.73924 0
M  V30 3967 H 385.812 0.420968 2.95012 0
M  V30 3968 H 383.349 0.219443 1.45454 0
M  V30 3969 H 385.307 -1.94599 3.69036 0
M  V30 3970 H 383.937 -1.97981 2.54958 0
M  V30 3971 H 382.989 0.0902926 3.80293 0
M  V30 3972 H 384.301 -0.101058 4.98698 0
M  V30 3973 H 383.455 -2.38081 5.58034 0
M  V30 3974 H 382.194 -2.26187 4.32077 0
M  V30 3975 H 381.199 -0.276222 5.49106 0
M  V30 3976 H 382.424 -0.415767 6.77826 0
M  V30 3977 H 380.37 -2.53803 6.04913 0
M  V30 3978 H 380.287 -1.47423 7.41487 0
M  V30 3979 H 381.555 -2.66015 7.32705 0
M  V30 3980 N 385.784 -1.5574 0.241426 0
M  V30 3981 C 387.012 -2.03208 -0.389134 0
M  V30 3982 C 387.427 -1.12082 -1.51931 0
M  V30 3983 O 386.784 -0.134183 -1.82006 0
M  V30 3984 C 386.835 -3.50064 -0.902087 0
M  V30 3985 O 386.556 -4.37717 0.18305 0
M  V30 3986 C 388.057 -4.13268 -1.60389 0
M  V30 3987 H 385.277 -0.664509 -0.0931053 0
M  V30 3988 H 387.821 -2.0124 0.36369 0
M  V30 3989 H 385.976 -3.52583 -1.60511 0
M  V30 3990 H 386.39 -5.24097 -0.205579 0
M  V30 3991 H 387.864 -5.17733 -1.91458 0
M  V30 3992 H 388.341 -3.59434 -2.52397 0
M  V30 3993 H 388.947 -4.14655 -0.945576 0
M  V30 3994 N 387.262 0.0317525 -1.57568 0
M  V30 3995 C 388.51 0.721676 -1.88776 0
M  V30 3996 C 388.831 1.76039 -0.838772 0
M  V30 3997 O 388.101 1.95482 0.127935 0
M  V30 3998 H 386.681 0.269534 -0.696678 0
M  V30 3999 H 389.343 -0.00165879 -1.949 0
M  V30 4000 H 388.439 1.21293 -2.87566 0
M  V30 4001 N 388.74 1.54641 0.303973 0
M  V30 4002 C 389.986 1.74038 1.04109 0
M  V30 4003 C 390.319 0.523051 1.87024 0
M  V30 4004 O 389.594 -0.479874 1.88487 0
M  V30 4005 C 389.877 3.02761 1.94955 0
M  V30 4006 C 389.73 4.34787 1.1524 0
M  V30 4007 C 391.049 3.27336 2.94175 0
M  V30 4008 H 388.168 0.63323 0.377079 0
M  V30 4009 H 390.81 1.87354 0.316001 0
M  V30 4010 H 388.96 2.9154 2.56782 0
M  V30 4011 H 390.632 4.57922 0.557236 0
M  V30 4012 H 388.875 4.31407 0.455053 0
M  V30 4013 H 389.546 5.21116 1.8205 0
M  V30 4014 H 392.022 3.38148 2.42477 0
M  V30 4015 H 390.898 4.18726 3.54908 0
M  V30 4016 H 391.159 2.45491 3.67677 0
M  V30 4017 N 390.218 -0.567019 1.47046 0
M  V30 4018 C 391.466 -1.322 1.52864 0
M  V30 4019 C 391.787 -1.94088 0.188388 0
M  V30 4020 O 391.057 -1.7941 -0.786693 0
M  V30 4021 H 389.637 -0.490894 0.563056 0
M  V30 4022 H 392.299 -0.662879 1.83281 0
M  V30 4023 H 391.395 -2.12062 2.2899 0
M  V30 4024 N 391.696 -1.35014 -0.812953 0
M  V30 4025 C 392.944 -1.27678 -1.56661 0
M  V30 4026 C 393.265 0.150359 -1.94419 0
M  V30 4027 O 392.535 1.08532 -1.63088 0
M  V30 4028 H 391.115 -0.469602 -0.580933 0
M  V30 4029 H 393.777 -1.69043 -0.970076 0
M  V30 4030 H 392.873 -1.88833 -2.48492 0
M  V30 4031 N 393.175 1.03435 -1.18907 0
M  V30 4032 C 394.403 1.80381 -1.01342 0
M  V30 4033 C 394.818 1.83649 0.438005 0
M  V30 4034 O 394.175 1.27655 1.30424 0
M  V30 4035 C 394.226 3.25689 -1.56873 0
M  V30 4036 O 393.947 3.22673 -2.96334 0
M  V30 4037 C 395.448 4.19255 -1.44014 0
M  V30 4038 H 392.668 0.56784 -0.35749 0
M  V30 4039 H 395.212 1.30317 -1.576 0
M  V30 4040 H 393.367 3.72962 -1.04777 0
M  V30 4041 H 393.781 4.13748 -3.22355 0
M  V30 4042 H 395.255 5.19123 -1.87657 0
M  V30 4043 H 395.732 4.37467 -0.389815 0
M  V30 4044 H 396.338 3.77851 -1.95214 0
M  V30 4045 N 394.653 0.992116 1.22453 0
M  V30 4046 C 395.901 0.666215 1.90804 0
M  V30 4047 C 396.222 -0.804152 1.77647 0
M  V30 4048 O 395.492 -1.57629 1.16318 0
M  V30 4049 H 394.072 0.243423 0.706225 0
M  V30 4050 H 396.734 1.25845 1.48825 0
M  V30 4051 H 395.83 0.928069 2.97982 0
M  V30 4052 N 396.131 -1.37776 0.765217 0
M  V30 4053 C 397.38 -1.99092 0.323307 0
M  V30 4054 C 397.693 -1.61434 -1.10446 0
M  V30 4055 O 398.899 -2.15805 -1.64743 0
M  V30 4056 C 397.355 -3.56019 0.527098 0
M  V30 4057 C 396.963 -4.0262 1.96471 0
M  V30 4058 C 398.707 -4.2424 0.148483 0
M  V30 4059 C 396.614 -5.52233 2.11644 0
M  V30 4060 H 395.544 -0.744846 0.117137 0
M  V30 4061 H 398.195 -1.57391 0.943417 0
M  V30 4062 H 396.577 -3.95667 -0.162372 0
M  V30 4063 H 397.751 -3.74234 2.68859 0
M  V30 4064 H 396.066 -3.47161 2.29931 0
M  V30 4065 H 398.663 -5.34159 0.240456 0
M  V30 4066 H 399.006 -4.06446 -0.900422 0
M  V30 4067 H 399.539 -3.89872 0.79025 0
M  V30 4068 H 396.278 -5.74945 3.1483 0
M  V30 4069 H 395.798 -5.82324 1.4373 0
M  V30 4070 H 397.477 -6.18106 1.91193 0
M  V30 4071 N 397.609 -0.515225 -1.4894 0
M  V30 4072 C 398.886 0.0879088 -1.95402 0
M  V30 4073 C 399.266 1.52745 -1.45712 0
M  V30 4074 O 398.614 2.18238 -0.677093 0
M  V30 4075 C 398.824 -0.0141055 -3.48997 0
M  V30 4076 C 400.172 0.152646 -4.24326 0
M  V30 4077 O 401.196 0.0604025 -3.56149 0
M  V30 4078 O 400.055 0.34384 -5.45417 0
M  V30 4079 H 397.149 0.0874636 -0.822362 0
M  V30 4080 H 399.695 -0.578775 -1.59525 0
M  V30 4081 H 398.467 -1.01745 -3.77841 0
M  V30 4082 H 398.09 0.692091 -3.9153 0
M  V30 4083 N 399.087 1.5561 -0.249682 0
M  V30 4084 C 400.336 1.98187 0.37479 0
M  V30 4085 C 400.649 1.14111 1.58865 0
M  V30 4086 O 401.855 1.46714 2.28445 0
M  V30 4087 C 400.311 3.52661 0.718192 0
M  V30 4088 C 399.919 4.45481 -0.474428 0
M  V30 4089 C 401.663 4.03888 1.3067 0
M  V30 4090 C 399.57 5.91303 -0.107026 0
M  V30 4091 H 398.5 0.740159 0.143808 0
M  V30 4092 H 401.151 1.80125 -0.350336 0
M  V30 4093 H 399.533 3.66429 1.50152 0
M  V30 4094 H 400.707 4.43473 -1.25172 0
M  V30 4095 H 399.022 4.04751 -0.978052 0
M  V30 4096 H 401.619 5.10358 1.59496 0
M  V30 4097 H 401.962 3.51401 2.23211 0
M  V30 4098 H 402.495 3.93457 0.586211 0
M  V30 4099 H 399.234 6.47833 -0.999642 0
M  V30 4100 H 398.754 5.9644 0.634013 0
M  V30 4101 H 400.433 6.46258 0.309807 0
M  V30 4102 N 400.565 -0.0233959 1.57583 0
M  V30 4103 C 401.976 -0.56927 1.77809 0
M  V30 4104 C 402.327 -1.75284 0.881472 0
M  V30 4105 O 401.452 -2.1626 0.0777805 0
M  V30 4106 C 402.047 -1.03949 3.22459 0
M  V30 4107 C 400.606 -1.53084 3.43864 0
M  V30 4108 C 399.753 -0.471454 2.73263 0
M  V30 4109 H 402.704 0.202825 1.57399 0
M  V30 4110 H 402.725 -1.90661 3.29285 0
M  V30 4111 H 402.237 -0.177865 3.87692 0
M  V30 4112 H 400.338 -2.41414 2.83814 0
M  V30 4113 H 400.451 -1.57443 4.52491 0
M  V30 4114 H 398.815 -0.927788 2.37201 0
M  V30 4115 H 399.598 0.380808 3.41181 0
M  V30 4116 N 402.043 -1.548 -0.295768 0
M  V30 4117 C 403.289 -1.74588 -1.03184 0
M  V30 4118 C 403.622 -0.532962 -1.86744 0
M  V30 4119 O 402.897 0.469872 -1.88739 0
M  V30 4120 C 403.18 -3.03791 -1.93347 0
M  V30 4121 C 403.033 -4.35392 -1.12933 0
M  V30 4122 C 404.352 -3.28892 -2.92435 0
M  V30 4123 H 401.471 -0.635221 -0.373715 0
M  V30 4124 H 404.113 -1.87519 -0.30606 0
M  V30 4125 H 402.263 -2.92898 -2.55232 0
M  V30 4126 H 403.935 -4.58211 -0.532943 0
M  V30 4127 H 402.178 -4.31642 -0.432168 0
M  V30 4128 H 402.849 -5.22074 -1.79284 0
M  V30 4129 H 405.325 -3.39429 -2.4068 0
M  V30 4130 H 404.201 -4.20603 -3.52682 0
M  V30 4131 H 404.462 -2.47437 -3.6637 0
M  V30 4132 N 403.521 0.559213 -1.47345 0
M  V30 4133 C 404.451 1.67622 -1.62558 0
M  V30 4134 C 405.432 1.63331 -0.475087 0
M  V30 4135 O 406.617 1.80983 -0.704182 0
M  V30 4136 C 403.747 3.0626 -1.63774 0
M  V30 4137 C 402.701 3.25397 -2.7803 0
M  V30 4138 C 402.027 4.64801 -2.64318 0
M  V30 4139 C 403.327 3.10965 -4.19641 0
M  V30 4140 H 405.021 1.55146 -2.56067 0
M  V30 4141 H 402.567 0.744961 -1.23233 0
M  V30 4142 H 404.52 3.84247 -1.73008 0
M  V30 4143 H 403.244 3.1969 -0.66825 0
M  V30 4144 H 401.903 2.49817 -2.68304 0
M  V30 4145 H 401.551 4.75028 -1.65401 0
M  V30 4146 H 401.251 4.78555 -3.40968 0
M  V30 4147 H 402.775 5.44926 -2.75478 0
M  V30 4148 H 404.189 3.78772 -4.30354 0
M  V30 4149 H 402.586 3.36229 -4.97062 0
M  V30 4150 H 403.656 2.07736 -4.38148 0
M  V30 4151 N 404.999 1.35443 0.805782 0
M  V30 4152 C 405.929 1.31095 1.93226 0
M  V30 4153 C 406.91 0.185244 1.69088 0
M  V30 4154 O 408.095 0.380332 1.90439 0
M  V30 4155 C 405.225 1.08299 3.29983 0
M  V30 4156 C 404.179 2.17519 3.68605 0
M  V30 4157 C 403.505 1.79887 5.03532 0
M  V30 4158 C 404.805 3.5949 3.78898 0
M  V30 4159 H 406.499 2.25352 1.97122 0
M  V30 4160 H 404.045 1.0848 0.946996 0
M  V30 4161 H 405.998 1.03897 4.08391 0
M  V30 4162 H 404.722 0.104885 3.26432 0
M  V30 4163 H 403.381 2.2102 2.92482 0
M  V30 4164 H 403.029 0.80693 4.96485 0
M  V30 4165 H 402.729 2.53001 5.30344 0
M  V30 4166 H 404.253 1.77011 5.84379 0
M  V30 4167 H 405.667 3.58307 4.47536 0
M  V30 4168 H 404.064 4.31371 4.1718 0
M  V30 4169 H 405.134 3.95584 2.80431 0
M  V30 4170 N 406.477 -1.02803 1.19454 0
M  V30 4171 C 407.407 -2.12999 0.956758 0
M  V30 4172 C 408.388 -1.69743 -0.110188 0
M  V30 4173 O 409.573 -1.94148 0.0450038 0
M  V30 4174 C 406.703 -3.43746 0.495553 0
M  V30 4175 C 405.657 -4.00688 1.50443 0
M  V30 4176 C 404.983 -5.27067 0.900275 0
M  V30 4177 C 406.283 -4.35397 2.8849 0
M  V30 4178 H 407.977 -2.33148 1.87836 0
M  V30 4179 H 405.523 -1.12045 0.904539 0
M  V30 4180 H 407.476 -4.2021 0.316493 0
M  V30 4181 H 406.2 -3.23321 -0.461646 0
M  V30 4182 H 404.859 -3.2632 1.67065 0
M  V30 4183 H 404.507 -5.02959 -0.064503 0
M  V30 4184 H 404.207 -5.66127 1.57397 0
M  V30 4185 H 405.731 -6.06196 0.73203 0
M  V30 4186 H 407.145 -5.02795 2.75446 0
M  V30 4187 H 405.542 -4.85541 3.52661 0
M  V30 4188 H 406.612 -3.44662 3.41081 0
M  V30 4189 N 407.956 -0.998596 -1.21925 0
M  V30 4190 C 408.886 -0.573688 -2.26343 0
M  V30 4191 C 409.867 0.402296 -1.65274 0
M  V30 4192 O 411.052 0.291683 -1.91997 0
M  V30 4193 C 408.182 0.106839 -3.47136 0
M  V30 4194 C 407.136 -0.788269 -4.20678 0
M  V30 4195 C 406.462 0.0254927 -5.34694 0
M  V30 4196 C 407.762 -2.08784 -4.78755 0
M  V30 4197 H 409.456 -1.44651 -2.62138 0
M  V30 4198 H 407.002 -0.696975 -1.26009 0
M  V30 4199 H 408.955 0.415531 -4.19346 0
M  V30 4200 H 407.679 1.01424 -3.10452 0
M  V30 4201 H 406.338 -1.08069 -3.50309 0
M  V30 4202 H 405.986 0.933989 -4.94253 0
M  V30 4203 H 405.686 -0.570437 -5.84825 0
M  V30 4204 H 407.21 0.328147 -6.09718 0
M  V30 4205 H 408.624 -1.84272 -5.42878 0
M  V30 4206 H 407.021 -2.63307 -5.39249 0
M  V30 4207 H 408.091 -2.76284 -3.98491 0
M  V30 4208 N 409.434 1.37368 -0.772513 0
M  V30 4209 C 410.683 1.98918 -0.333861 0
M  V30 4210 C 410.996 1.62017 1.09589 0
M  V30 4211 O 412.202 2.16676 1.63596 0
M  V30 4212 C 410.658 3.55735 -0.545971 0
M  V30 4213 C 410.266 4.01573 -1.98603 0
M  V30 4214 C 412.01 4.24156 -0.170979 0
M  V30 4215 C 409.917 5.51102 -2.1457 0
M  V30 4216 H 408.847 0.744214 -0.121085 0
M  V30 4217 H 411.498 1.56888 -0.95175 0
M  V30 4218 H 409.88 3.95748 0.141387 0
M  V30 4219 H 411.054 3.72803 -2.7084 0
M  V30 4220 H 409.369 3.45937 -2.31769 0
M  V30 4221 H 411.966 5.34024 -0.26878 0
M  V30 4222 H 412.309 4.06917 0.878855 0
M  V30 4223 H 412.842 3.89447 -0.810914 0
M  V30 4224 H 409.581 5.73268 -3.17875 0
M  V30 4225 H 409.101 5.81554 -1.46817 0
M  V30 4226 H 410.78 6.17083 -1.94468 0
M  V30 4227 N 410.912 0.523116 1.48665 0
M  V30 4228 C 412.189 -0.0775449 1.95446 0
M  V30 4229 C 412.569 -1.5197 1.4652 0
M  V30 4230 O 411.917 -2.17876 0.688657 0
M  V30 4231 C 412.127 0.0326135 3.48985 0
M  V30 4232 C 413.475 -0.130141 4.24401 0
M  V30 4233 O 414.499 -0.0415142 3.56176 0
M  V30 4234 O 413.358 -0.31491 5.45592 0
M  V30 4235 H 410.452 -0.0831012 0.822814 0
M  V30 4236 H 412.998 0.587227 1.59216 0
M  V30 4237 H 411.77 1.03748 3.77296 0
M  V30 4238 H 411.393 -0.671317 3.91892 0
M  V30 4239 N 412.39 -1.55475 0.257931 0
M  V30 4240 C 413.638 -1.98813 -0.363009 0
M  V30 4241 C 413.959 -1.14757 -1.57657 0
M  V30 4242 O 413.229 -0.232956 -1.9451 0
M  V30 4243 H 411.809 -0.734308 -0.137113 0
M  V30 4244 H 414.471 -1.9156 0.359281 0
M  V30 4245 H 413.567 -3.04941 -0.664634 0
M  V30 4246 N 413.868 0.0150385 -1.57593 0
M  V30 4247 C 415.145 0.7392 -1.81094 0
M  V30 4248 C 415.525 1.92817 -0.859344 0
M  V30 4249 O 414.873 2.28301 0.095362 0
M  V30 4250 C 415.083 1.15907 -3.29191 0
M  V30 4251 C 416.431 1.56918 -3.9454 0
M  V30 4252 O 417.455 1.25328 -3.33424 0
M  V30 4253 O 416.314 2.15604 -5.02173 0
M  V30 4254 H 413.408 0.358631 -0.745193 0
M  V30 4255 H 415.954 -0.00926156 -1.69697 0
M  V30 4256 H 414.726 0.310921 -3.90063 0
M  V30 4257 H 414.349 1.96711 -3.45529 0
M  V30 4258 N 415.346 1.54954 0.287554 0
M  V30 4259 C 416.256 1.8991 1.37736 0
M  V30 4260 C 417.272 0.794701 1.54792 0
M  V30 4261 O 418.448 1.09243 1.69198 0
M  V30 4262 C 415.513 2.15108 2.71899 0
M  V30 4263 C 414.574 3.38752 2.63715 0
M  V30 4264 C 413.807 3.62739 3.91479 0
M  V30 4265 O 414.03 2.89492 4.91478 0
M  V30 4266 O 412.964 4.56267 3.92561 0
M  V30 4267 H 416.79 2.82652 1.11092 0
M  V30 4268 H 414.375 1.41315 0.484807 0
M  V30 4269 H 416.257 2.32806 3.51254 0
M  V30 4270 H 414.932 1.25551 2.9836 0
M  V30 4271 H 413.839 3.26405 1.82786 0
M  V30 4272 H 415.172 4.28483 2.42205 0
M  V30 4273 N 416.824 -0.551391 1.4764 0
M  V30 4274 C 417.771 -1.65796 1.60563 0
M  V30 4275 C 418.741 -1.59932 0.448428 0
M  V30 4276 O 419.926 -1.78679 0.669222 0
M  V30 4277 C 417.066 -3.04108 1.63133 0
M  V30 4278 C 416.179 -3.20365 2.89811 0
M  V30 4279 C 415.314 -4.49109 2.8368 0
M  V30 4280 C 414.353 -4.58819 4.05156 0
M  V30 4281 N 413.49 -5.78926 3.97227 0
M  V30 4282 H 418.33 -1.54088 2.5507 0
M  V30 4283 H 415.867 -0.75052 1.26513 0
M  V30 4284 H 417.825 -3.84207 1.62606 0
M  V30 4285 H 416.455 -3.14637 0.721341 0
M  V30 4286 H 415.507 -2.33659 3.00179 0
M  V30 4287 H 416.819 -3.23402 3.79753 0
M  V30 4288 H 415.973 -5.37475 2.81434 0
M  V30 4289 H 414.712 -4.4856 1.91431 0
M  V30 4290 H 413.717 -3.68864 4.077 0
M  V30 4291 H 414.942 -4.61124 4.98539 0
M  V30 4292 H 412.888 -5.79314 3.07785 0
M  V30 4293 H 412.805 -5.83367 4.80853 0
M  V30 4294 H 414.073 -6.69637 3.99007 0
M  V30 4295 N 418.302 -1.35869 -0.798587 0
M  V30 4296 C 419.235 -1.23801 -1.91699 0
M  V30 4297 C 420.213 -0.124143 -1.62125 0
M  V30 4298 O 421.397 -0.293656 -1.86199 0
M  V30 4299 C 418.524 -0.908063 -3.263 0
M  V30 4300 C 417.57 -2.0351 -3.74815 0
M  V30 4301 S 418.403 -3.65183 -3.91665 0
M  V30 4302 C 419.559 -3.34283 -5.29156 0
M  V30 4303 H 419.792 -2.18466 -2.01643 0
M  V30 4304 H 417.325 -1.21178 -0.956833 0
M  V30 4305 H 419.283 -0.724506 -4.04056 0
M  V30 4306 H 417.944 0.0206584 -3.14093 0
M  V30 4307 H 417.137 -1.75858 -4.72324 0
M  V30 4308 H 416.739 -2.1774 -3.04081 0
M  V30 4309 H 419.031 -2.87607 -6.13424 0
M  V30 4310 H 419.974 -4.31022 -5.61806 0
M  V30 4311 H 420.382 -2.69854 -4.95822 0
M  V30 4312 N 419.78 1.02168 -1.19998 0
M  V30 4313 C 420.71 2.12488 -0.96804 0
M  V30 4314 C 421.691 1.69799 0.101185 0
M  V30 4315 O 422.876 1.94121 -0.0552993 0
M  V30 4316 C 420.006 3.43479 -0.513776 0
M  V30 4317 C 418.96 3.99884 -1.52566 0
M  V30 4318 C 418.286 5.26582 -0.928214 0
M  V30 4319 C 419.586 4.33861 -2.90795 0
M  V30 4320 H 421.28 2.32149 -1.89069 0
M  V30 4321 H 418.826 1.11564 -0.910468 0
M  V30 4322 H 420.779 4.20036 -0.338774 0
M  V30 4323 H 419.503 3.23561 0.444493 0
M  V30 4324 H 418.162 3.25429 -1.68794 0
M  V30 4325 H 417.81 5.02986 0.0378289 0
M  V30 4326 H 417.51 5.65284 -1.60397 0
M  V30 4327 H 419.034 6.05799 -0.764167 0
M  V30 4328 H 420.448 5.01327 -2.78109 0
M  V30 4329 H 418.845 4.83664 -3.55231 0
M  V30 4330 H 419.915 3.42848 -3.42904 0
M  V30 4331 N 421.258 1.00505 1.21394 0
M  V30 4332 C 422.486 0.706609 1.9446 0
M  V30 4333 C 422.901 -0.73081 1.74082 0
M  V30 4334 O 422.258 -1.49446 1.04747 0
M  V30 4335 C 422.309 1.01824 3.46863 0
M  V30 4336 O 422.03 2.39919 3.66566 0
M  V30 4337 C 423.531 0.739216 4.37093 0
M  V30 4338 H 420.751 0.260394 0.618414 0
M  V30 4339 H 423.295 1.34311 1.54211 0
M  V30 4340 H 421.45 0.427343 3.85036 0
M  V30 4341 H 421.864 2.50784 4.6066 0
M  V30 4342 H 423.338 1.00744 5.42729 0
M  V30 4343 H 423.815 -0.326746 4.37983 0
M  V30 4344 H 424.421 1.31173 4.04566 0
M  V30 4345 N 422.737 -1.36956 0.779787 0
M  V30 4346 C 424.153 -1.52817 0.460342 0
M  V30 4347 C 424.353 -1.7361 -1.02283 0
M  V30 4348 O 423.409 -1.76207 -1.80852 0
M  V30 4349 C 424.722 -2.71983 1.28241 0
M  V30 4350 C 426.27 -2.85849 1.27512 0
M  V30 4351 C 426.745 -4.08008 2.08072 0
M  V30 4352 N 428.236 -4.15135 2.05467 0
M  V30 4353 C 428.971 -5.08711 2.64577 0
M  V30 4354 N 428.467 -6.07792 3.32506 0
M  V30 4355 N 430.26 -5.01254 2.54363 0
M  V30 4356 H 422.411 -1.21713 1.74068 0
M  V30 4357 H 424.674 -0.593294 0.739396 0
M  V30 4358 H 424.38 -2.63109 2.33381 0
M  V30 4359 H 424.254 -3.65882 0.917088 0
M  V30 4360 H 426.641 -2.94189 0.231686 0
M  V30 4361 H 426.722 -1.92886 1.68014 0
M  V30 4362 H 426.366 -4.00429 3.12441 0
M  V30 4363 H 426.296 -5.001 1.64947 0
M  V30 4364 H 428.787 -3.44189 1.5602 0
M  V30 4365 H 429.1 -6.75739 3.74963 0
M  V30 4366 H 427.445 -6.08047 3.36606 0
M  V30 4367 H 430.636 -4.22795 2.00902 0
M  V30 4368 H 430.809 -5.73995 3.00722 0
M  V30 4369 N 424.215 -0.530993 -1.48385 0
M  V30 4370 C 425.464 0.00474348 -2.01699 0
M  V30 4371 C 425.777 1.35227 -1.41325 0
M  V30 4372 O 426.983 1.97643 -1.86144 0
M  V30 4373 C 425.439 0.0588473 -3.59852 0
M  V30 4374 C 425.047 -1.28385 -4.2921 0
M  V30 4375 C 426.791 0.543358 -4.21008 0
M  V30 4376 C 424.698 -1.19028 -5.79298 0
M  V30 4377 H 423.628 0.00554317 -0.75398 0
M  V30 4378 H 426.279 -0.674924 -1.70637 0
M  V30 4379 H 424.661 0.803612 -3.8776 0
M  V30 4380 H 425.835 -2.04426 -4.12973 0
M  V30 4381 H 424.15 -1.70418 -3.7993 0
M  V30 4382 H 426.747 0.631351 -5.3096 0
M  V30 4383 H 427.09 1.54937 -3.86394 0
M  V30 4384 H 427.623 -0.145754 -3.97533 0
M  V30 4385 H 424.362 -2.17147 -6.18488 0
M  V30 4386 H 423.882 -0.471246 -5.97946 0
M  V30 4387 H 425.561 -0.881365 -6.40969 0
M  V30 4388 N 425.693 1.55336 -0.266172 0
M  V30 4389 C 426.603 2.2583 0.635458 0
M  V30 4390 C 427.619 1.28106 1.17749 0
M  V30 4391 O 428.795 1.61024 1.20968 0
M  V30 4392 C 425.86 2.95879 1.80712 0
M  V30 4393 C 424.921 4.09059 1.30265 0
M  V30 4394 C 424.154 4.75759 2.41846 0
M  V30 4395 O 424.377 4.41622 3.61007 0
M  V30 4396 O 423.311 5.63888 2.1051 0
M  V30 4397 H 427.137 3.03631 0.0646693 0
M  V30 4398 H 424.722 1.49361 -0.0339177 0
M  V30 4399 H 426.604 3.39932 2.49047 0
M  V30 4400 H 425.279 2.21002 2.36516 0
M  V30 4401 H 424.186 3.69482 0.586019 0
M  V30 4402 H 425.519 4.85811 0.790458 0
M  V30 4403 N 427.171 -0.0066808 1.57599 0
M  V30 4404 C 428.119 -1.01851 2.09115 0
M  V30 4405 C 429.113 -1.36021 1.00969 0
M  V30 4406 O 430.319 -1.34663 1.19439 0
M  V30 4407 H 426.694 -0.346083 0.667631 0
M  V30 4408 H 428.665 -0.558394 2.93129 0
M  V30 4409 C 427.414 -2.30374 2.60429 0
M  V30 4410 H 426.737 -2.04947 3.43273 0
M  V30 4411 H 428.177 -2.99466 3.00161 0
M  V30 4412 C 426.636 -3.00893 1.51542 0
M  V30 4413 O 427.166 -3.91614 0.894484 0
M  V30 4414 N 425.372 -2.62603 1.2445 0
M  V30 4415 H 424.919 -1.88911 1.75129 0
M  V30 4416 H 424.877 -3.10101 0.518137 0
M  V30 4417 N 428.649 -1.55105 -0.279332 0
M  V30 4418 C 429.612 -1.86783 -1.32834 0
M  V30 4419 C 430.612 -0.74199 -1.42657 0
M  V30 4420 O 431.802 -1.0102 -1.41918 0
M  V30 4421 C 428.934 -2.06746 -2.71052 0
M  V30 4422 H 430.127 -2.8055 -1.05979 0
M  V30 4423 H 427.68 -1.47499 -0.517087 0
M  V30 4424 H 428.415 -1.15339 -3.03097 0
M  V30 4425 H 428.2 -2.88711 -2.65309 0
M  V30 4426 H 429.69 -2.32549 -3.46858 0
M  V30 4427 N 430.127 0.543554 -1.4793 0
M  V30 4428 C 431.355 1.32516 -1.58894 0
M  V30 4429 C 431.77 1.87215 -0.244131 0
M  V30 4430 O 431.127 1.65709 0.764652 0
M  V30 4431 C 431.178 2.48554 -2.62494 0
M  V30 4432 O 430.899 1.96112 -3.91755 0
M  V30 4433 C 432.4 3.40572 -2.8377 0
M  V30 4434 H 429.62 0.403472 -0.536145 0
M  V30 4435 H 432.164 0.657106 -1.93655 0
M  V30 4436 H 430.319 3.1127 -2.30629 0
M  V30 4437 H 430.733 2.71967 -4.4848 0
M  V30 4438 H 432.207 4.18375 -3.60093 0
M  V30 4439 H 432.684 3.94965 -1.92092 0
M  V30 4440 H 433.29 2.8366 -3.16887 0
M  V30 4441 N 431.605 1.3629 0.791371 0
M  V30 4442 C 432.537 1.26321 1.91248 0
M  V30 4443 C 433.55 0.18313 1.61767 0
M  V30 4444 O 434.739 0.437682 1.73051 0
M  V30 4445 C 431.839 0.925901 3.26007 0
M  V30 4446 C 431.012 2.10746 3.83281 0
M  V30 4447 C 430.071 1.74352 4.96475 0
M  V30 4448 O 429.097 2.46416 5.13096 0
M  V30 4449 N 430.299 0.676058 5.7655 0
M  V30 4450 H 433.064 2.22915 2.00323 0
M  V30 4451 H 430.625 1.29659 0.969546 0
M  V30 4452 H 432.617 0.663636 3.99222 0
M  V30 4453 H 431.187 0.0491581 3.12561 0
M  V30 4454 H 430.407 2.53264 3.02077 0
M  V30 4455 H 431.695 2.8969 4.18279 0
M  V30 4456 H 431.093 0.0776467 5.65647 0
M  V30 4457 H 429.65 0.473612 6.50077 0
M  V30 4458 N 433.083 -1.0153 1.20538 0
M  V30 4459 C 434.046 -2.0826 0.957098 0
M  V30 4460 C 435.046 -1.60657 -0.0678655 0
M  V30 4461 O 436.236 -1.73385 0.168332 0
M  V30 4462 C 433.368 -3.38033 0.441188 0
M  V30 4463 H 434.561 -2.31719 1.90384 0
M  V30 4464 H 432.114 -1.1835 1.02093 0
M  V30 4465 H 432.849 -3.20249 -0.510961 0
M  V30 4466 H 432.634 -3.73911 1.18038 0
M  V30 4467 H 434.124 -4.16613 0.287009 0
M  V30 4468 N 434.561 -1.01147 -1.20859 0
M  V30 4469 C 435.493 -0.535546 -2.22855 0
M  V30 4470 C 436.506 0.379323 -1.58319 0
M  V30 4471 O 437.695 0.178489 -1.77605 0
M  V30 4472 C 434.795 0.240962 -3.38042 0
M  V30 4473 C 433.968 -0.674562 -4.32167 0
M  V30 4474 C 433.027 0.053467 -5.26173 0
M  V30 4475 O 432.053 -0.567339 -5.66366 0
M  V30 4476 N 433.255 1.32997 -5.65059 0
M  V30 4477 H 436.02 -1.41268 -2.64317 0
M  V30 4478 H 433.581 -0.888386 -1.35349 0
M  V30 4479 H 435.573 0.737115 -3.97931 0
M  V30 4480 H 434.143 1.01935 -2.95513 0
M  V30 4481 H 433.363 -1.35111 -3.70322 0
M  V30 4482 H 434.651 -1.2974 -4.91981 0
M  V30 4483 H 434.049 1.85536 -5.34409 0
M  V30 4484 H 432.606 1.77095 -6.2728 0
M  V30 4485 N 436.039 1.36541 -0.78704 0
M  V30 4486 C 436.969 2.32659 -0.197992 0
M  V30 4487 C 437.95 1.56533 0.665697 0
M  V30 4488 O 439.135 1.84698 0.60001 0
M  V30 4489 C 436.265 3.40778 0.669901 0
M  V30 4490 C 435.219 4.27897 -0.0937039 0
M  V30 4491 C 434.545 5.27163 0.894629 0
M  V30 4492 C 435.845 5.06334 -1.28154 0
M  V30 4493 H 437.539 2.82171 -1.00099 0
M  V30 4494 H 435.085 1.35665 -0.482793 0
M  V30 4495 H 437.038 4.07008 1.09191 0
M  V30 4496 H 435.762 2.89827 1.50558 0
M  V30 4497 H 434.421 3.6322 -0.49666 0
M  V30 4498 H 434.069 4.72486 1.72527 0
M  V30 4499 H 433.769 5.86317 0.388149 0
M  V30 4500 H 435.293 5.96266 1.31525 0
M  V30 4501 H 436.707 5.65617 -0.93541 0
M  V30 4502 H 435.104 5.74888 -1.72115 0
M  V30 4503 H 436.174 4.38114 -2.07807 0
M  V30 4504 N 437.518 0.538854 1.48102 0
M  V30 4505 C 438.929 0.100679 1.86428 0
M  V30 4506 C 439.28 -1.32447 1.44749 0
M  V30 4507 O 438.405 -1.99339 0.842199 0
M  V30 4508 C 439 0.175933 3.38343 0
M  V30 4509 C 437.559 -0.207098 3.7583 0
M  V30 4510 C 436.706 0.531741 2.72154 0
M  V30 4511 H 439.657 0.749614 1.3988 0
M  V30 4512 H 439.678 -0.610144 3.75576 0
M  V30 4513 H 439.19 1.21328 3.68648 0
M  V30 4514 H 437.291 -1.24626 3.5114 0
M  V30 4515 H 437.404 0.138687 4.78899 0
M  V30 4516 H 435.768 -0.0230462 2.5469 0
M  V30 4517 H 436.551 1.56989 3.05302 0
M  V30 4518 N 438.996 -1.55193 0.274407 0
M  V30 4519 C 440.236 -2.01488 -0.343778 0
M  V30 4520 C 440.6 -1.1586 -1.53103 0
M  V30 4521 O 441.801 -1.51732 -2.2188 0
M  V30 4522 C 440.072 -3.50134 -0.717021 0
M  V30 4523 S 441.631 -4.18417 -1.32184 0
M  V30 4524 H 438.449 -0.70291 -0.106948 0
M  V30 4525 H 441.051 -1.91446 0.396075 0
M  V30 4526 H 439.755 -4.10104 0.155947 0
M  V30 4527 H 439.286 -3.64159 -1.48835 0
M  V30 4528 H 441.301 -4.21984 -2.61044 0
M  V30 4529 N 440.474 -0.00167713 -1.576 0
M  V30 4530 C 441.404 0.988091 -2.11563 0
M  V30 4531 C 442.385 1.35736 -1.02517 0
M  V30 4532 O 443.57 1.44082 -1.30208 0
M  V30 4533 C 440.7 2.27941 -2.62031 0
M  V30 4534 C 439.654 2.0517 -3.75619 0
M  V30 4535 C 438.98 3.4033 -4.12407 0
M  V30 4536 C 440.28 1.41294 -5.02825 0
M  V30 4537 H 441.974 0.538771 -2.94513 0
M  V30 4538 H 439.52 0.257712 -1.41675 0
M  V30 4539 H 441.473 2.97539 -2.9841 0
M  V30 4540 H 440.197 2.74989 -1.76205 0
M  V30 4541 H 438.856 1.37998 -3.39635 0
M  V30 4542 H 438.504 3.85085 -3.23603 0
M  V30 4543 H 438.204 3.25909 -4.88935 0
M  V30 4544 H 439.728 4.1124 -4.51347 0
M  V30 4545 H 441.142 2.00851 -5.36965 0
M  V30 4546 H 439.539 1.37356 -5.84169 0
M  V30 4547 H 440.609 0.382362 -4.8339 0
M  V30 4548 N 441.952 1.55251 0.271103 0
M  V30 4549 C 442.882 1.9127 1.33933 0
M  V30 4550 C 443.863 0.77478 1.5143 0
M  V30 4551 O 445.048 1.03307 1.64442 0
M  V30 4552 C 442.178 2.18627 2.69851 0
M  V30 4553 C 441.132 3.34442 2.67081 0
M  V30 4554 C 440.458 3.47284 4.06569 0
M  V30 4555 C 441.758 4.70784 2.26185 0
M  V30 4556 H 443.452 2.80744 1.04035 0
M  V30 4557 H 440.998 1.35077 0.499017 0
M  V30 4558 H 442.951 2.42413 3.44694 0
M  V30 4559 H 441.675 1.25955 3.01335 0
M  V30 4560 H 440.334 3.10627 1.94695 0
M  V30 4561 H 439.982 2.52074 4.35279 0
M  V30 4562 H 439.682 4.25152 4.0561 0
M  V30 4563 H 441.206 3.73363 4.83148 0
M  V30 4564 H 442.62 4.94102 2.90751 0
M  V30 4565 H 441.017 5.51582 2.36384 0
M  V30 4566 H 442.087 4.69478 1.21319 0
M  V30 4567 N 443.43 -0.535701 1.48216 0
M  V30 4568 C 444.676 -1.29375 1.56173 0
M  V30 4569 C 445.009 -1.92804 0.232429 0
M  V30 4570 O 444.284 -1.78992 -0.761048 0
M  V30 4571 C 444.567 -2.38747 2.69577 0
M  V30 4572 C 444.42 -1.80046 4.12193 0
M  V30 4573 C 445.739 -3.40551 2.78771 0
M  V30 4574 H 442.858 -0.469027 0.568491 0
M  V30 4575 H 445.5 -0.597358 1.80365 0
M  V30 4576 H 443.65 -2.98147 2.4908 0
M  V30 4577 H 445.322 -1.24742 4.44114 0
M  V30 4578 H 443.565 -1.10609 4.19462 0
M  V30 4579 H 444.236 -2.59212 4.87353 0
M  V30 4580 H 446.712 -2.91099 2.97322 0
M  V30 4581 H 445.588 -4.1448 3.59857 0
M  V30 4582 H 445.849 -4.00746 1.86696 0
M  V30 4583 N 444.908 -1.36708 -0.784132 0
M  V30 4584 C 445.871 -1.31307 -1.87859 0
M  V30 4585 C 446.871 -0.219654 -1.59293 0
M  V30 4586 O 448.061 -0.47476 -1.67606 0
M  V30 4587 C 445.193 -1.03679 -3.24751 0
M  V30 4588 H 446.386 -2.28647 -1.94064 0
M  V30 4589 H 443.939 -1.21558 -0.98252 0
M  V30 4590 H 444.674 -0.0681936 -3.24228 0
M  V30 4591 H 444.459 -1.82811 -3.46876 0
M  V30 4592 H 445.949 -1.02518 -4.04821 0
M  V30 4593 N 446.386 1.0089 -1.21074 0
M  V30 4594 C 447.634 1.74262 -1.02358 0
M  V30 4595 C 447.955 1.89869 0.444393 0
M  V30 4596 O 447.225 1.44677 1.32081 0
M  V30 4597 H 445.805 0.645615 -0.375754 0
M  V30 4598 H 448.467 1.21596 -1.52317 0
M  V30 4599 H 447.563 2.74328 -1.4883 0
M  V30 4600 N 447.864 1.01787 1.20321 0
M  V30 4601 C 449.089 0.727009 1.9424 0
M  V30 4602 C 449.514 -0.706179 1.74341 0
M  V30 4603 O 448.872 -1.48609 1.03852 0
M  V30 4604 C 448.92 1.06958 3.44372 0
M  V30 4605 O 448.024 0.181983 4.11998 0
M  V30 4606 H 447.365 0.269626 0.606793 0
M  V30 4607 H 449.895 1.36158 1.52716 0
M  V30 4608 H 449.905 1.02182 3.94997 0
M  V30 4609 H 448.58 2.11378 3.58179 0
M  V30 4610 H 447.157 0.287378 3.71791 0
M  V30 4611 N 449.342 -1.36122 0.79427 0
M  V30 4612 C 450.59 -1.98718 0.368177 0
M  V30 4613 C 450.911 -1.63345 -1.06506 0
M  V30 4614 O 450.181 -0.909825 -1.73491 0
M  V30 4615 H 448.761 -0.735038 0.133146 0
M  V30 4616 H 451.423 -1.66239 1.01739 0
M  V30 4617 H 450.519 -3.08633 0.463923 0
M  V30 4618 N 450.82 -0.546701 -1.47814 0
M  V30 4619 C 452.068 -0.0187037 -2.02091 0
M  V30 4620 C 452.389 1.33168 -1.42447 0
M  V30 4621 O 451.659 1.86619 -0.595839 0
M  V30 4622 H 450.239 -0.00392531 -0.74699 0
M  V30 4623 H 452.901 -0.714327 -1.81338 0
M  V30 4624 H 451.997 0.0772219 -3.12004 0
M  V30 4625 N 452.299 1.55045 -0.282633 0
M  V30 4626 C 453.262 2.21515 0.588539 0
M  V30 4627 C 454.262 1.19535 1.07554 0
M  V30 4628 O 455.452 1.44391 0.974514 0
M  V30 4629 C 452.584 2.88704 1.8128 0
M  V30 4630 H 453.777 2.99899 0.00806397 0
M  V30 4631 H 451.33 1.56265 -0.0333067 0
M  V30 4632 H 452.065 2.14352 2.43359 0
M  V30 4633 H 451.85 3.63443 1.47144 0
M  V30 4634 H 453.34 3.39465 2.43214 0
M  V30 4635 N 453.777 0.010035 1.57597 0
M  V30 4636 C 454.74 -0.963029 2.07986 0
M  V30 4637 C 455.74 -1.26619 0.991173 0
M  V30 4638 O 456.93 -1.2097 1.25347 0
M  V30 4639 C 454.062 -2.2851 2.52974 0
M  V30 4640 H 455.255 -0.526971 2.95234 0
M  V30 4641 H 452.808 -0.237639 1.54483 0
M  V30 4642 H 453.543 -2.76784 1.69 0
M  V30 4643 H 453.328 -2.07824 3.32493 0
M  V30 4644 H 454.818 -2.98294 2.9225 0
M  V30 4645 N 455.255 -1.55392 -0.262866 0
M  V30 4646 C 456.532 -1.67204 -1.01499 0
M  V30 4647 C 456.912 -0.545186 -2.03939 0
M  V30 4648 O 456.26 0.453467 -2.23955 0
M  V30 4649 C 456.47 -3.06847 -1.6627 0
M  V30 4650 C 457.818 -3.64928 -2.17054 0
M  V30 4651 O 458.842 -3.09545 -1.76239 0
M  V30 4652 O 457.701 -4.61984 -2.91947 0
M  V30 4653 H 454.795 -0.679467 -0.471438 0
M  V30 4654 H 457.341 -1.67729 -0.257918 0
M  V30 4655 H 456.113 -3.80309 -0.920915 0
M  V30 4656 H 455.736 -3.10266 -2.48638 0
M  V30 4657 N 456.733 0.527833 -1.48498 0
M  V30 4658 C 457.973 1.29401 -1.58224 0
M  V30 4659 C 458.337 1.90348 -0.251327 0
M  V30 4660 O 459.538 2.67868 -0.223588 0
M  V30 4661 C 457.809 2.35266 -2.69044 0
M  V30 4662 S 459.368 3.2158 -2.98549 0
M  V30 4663 H 456.186 0.440138 -0.558391 0
M  V30 4664 H 458.788 0.601079 -1.8603 0
M  V30 4665 H 457.492 1.88975 -3.64303 0
M  V30 4666 H 457.023 3.09263 -2.43146 0
M  V30 4667 H 459.038 4.35391 -2.38011 0
M  V30 4668 N 458.211 1.37122 0.776871 0
M  V30 4669 C 459.141 1.35164 1.90402 0
M  V30 4670 C 460.122 0.221069 1.68657 0
M  V30 4671 O 461.307 0.420642 1.8959 0
M  V30 4672 C 458.437 1.15274 3.27611 0
M  V30 4673 C 457.391 2.25289 3.63908 0
M  V30 4674 C 456.717 1.90527 4.99603 0
M  V30 4675 C 458.017 3.67446 3.71188 0
M  V30 4676 H 459.711 2.29482 1.92297 0
M  V30 4677 H 457.257 1.10465 0.923773 0
M  V30 4678 H 459.21 1.12536 4.06096 0
M  V30 4679 H 457.934 0.174102 3.26136 0
M  V30 4680 H 456.593 2.27174 2.87728 0
M  V30 4681 H 456.241 0.91206 4.94662 0
M  V30 4682 H 455.941 2.64193 5.24858 0
M  V30 4683 H 457.465 1.89367 5.80493 0
M  V30 4684 H 458.879 3.67719 4.39836 0
M  V30 4685 H 457.276 4.40123 4.07936 0
M  V30 4686 H 458.346 4.01443 2.71977 0
M  V30 4687 N 459.689 -1.00246 1.21608 0
M  V30 4688 C 460.652 -2.07233 0.979133 0
M  V30 4689 C 461.652 -1.6072 -0.0508219 0
M  V30 4690 O 462.842 -1.73196 0.186712 0
M  V30 4691 C 459.974 -3.37546 0.477016 0
M  V30 4692 H 461.167 -2.29687 1.92831 0
M  V30 4693 H 458.72 -1.17261 1.03342 0
M  V30 4694 H 459.455 -3.20773 -0.476966 0
M  V30 4695 H 459.24 -3.72638 1.21997 0
M  V30 4696 H 460.73 -4.16285 0.331181 0
M  V30 4697 N 461.167 -1.02423 -1.1978 0
M  V30 4698 C 462.077 -0.610919 -2.26506 0
M  V30 4699 C 463.093 0.355152 -1.70337 0
M  V30 4700 O 464.269 0.214195 -2.00258 0
M  V30 4701 C 461.334 0.0365921 -3.46681 0
M  V30 4702 C 460.395 -0.976389 -4.18049 0
M  V30 4703 C 459.628 -0.359683 -5.32487 0
M  V30 4704 O 459.851 0.838601 -5.64202 0
M  V30 4705 O 458.785 -1.08022 -5.92127 0
M  V30 4706 H 462.611 -1.49965 -2.64091 0
M  V30 4707 H 460.196 -0.794156 -1.26545 0
M  V30 4708 H 462.078 0.39786 -4.19518 0
M  V30 4709 H 460.753 0.899398 -3.10954 0
M  V30 4710 H 459.66 -1.38916 -3.47352 0
M  V30 4711 H 460.993 -1.80941 -4.57735 0
M  V30 4712 N 462.645 1.35699 -0.801477 0
M  V30 4713 C 463.873 2.03157 -0.391768 0
M  V30 4714 C 464.288 1.60412 0.995668 0
M  V30 4715 O 463.645 0.799228 1.64069 0
M  V30 4716 C 463.696 3.58566 -0.459671 0
M  V30 4717 O 463.417 3.99756 -1.7924 0
M  V30 4718 C 464.918 4.4328 -0.0421205 0
M  V30 4719 H 462.138 0.651688 -0.159825 0
M  V30 4720 H 464.682 1.73426 -1.08368 0
M  V30 4721 H 462.837 3.86963 0.183939 0
M  V30 4722 H 463.251 4.94387 -1.75162 0
M  V30 4723 H 464.725 5.51821 -0.140754 0
M  V30 4724 H 465.202 4.27383 1.01196 0
M  V30 4725 H 465.808 4.20168 -0.658687 0
M  V30 4726 N 464.123 0.554532 1.47522 0
M  V30 4727 C 465.053 -0.182974 2.32782 0
M  V30 4728 C 466.034 -0.911377 1.43624 0
M  V30 4729 O 467.219 -0.892366 1.72483 0
M  V30 4730 C 464.349 -1.21513 3.25349 0
M  V30 4731 C 463.303 -0.603355 4.23726 0
M  V30 4732 C 462.629 -1.73995 5.05598 0
M  V30 4733 C 463.929 0.441121 5.20434 0
M  V30 4734 H 465.623 0.52882 2.94693 0
M  V30 4735 H 463.169 0.255759 1.41711 0
M  V30 4736 H 465.122 -1.73922 3.83835 0
M  V30 4737 H 463.846 -1.95683 2.61487 0
M  V30 4738 H 462.505 -0.10059 3.66462 0
M  V30 4739 H 462.153 -2.47063 4.38143 0
M  V30 4740 H 461.853 -1.3364 5.72201 0
M  V30 4741 H 463.377 -2.26735 5.66942 0
M  V30 4742 H 464.791 0.00319931 5.733 0
M  V30 4743 H 463.188 0.763402 5.95224 0
M  V30 4744 H 464.258 1.33799 4.66075 0
M  V30 4745 N 465.601 -1.54893 0.290851 0
M  V30 4746 C 466.511 -2.26812 -0.59945 0
M  V30 4747 C 467.527 -1.29963 -1.15696 0
M  V30 4748 O 468.703 -1.62928 -1.18391 0
M  V30 4749 C 465.768 -2.98716 -1.75982 0
M  V30 4750 C 464.829 -4.1108 -1.2374 0
M  V30 4751 C 464.062 -4.79546 -2.34246 0
M  V30 4752 O 464.285 -4.47309 -3.53936 0
M  V30 4753 O 463.219 -5.67165 -2.01512 0
M  V30 4754 H 467.045 -3.03696 -0.0163561 0
M  V30 4755 H 464.63 -1.49289 0.0576755 0
M  V30 4756 H 466.512 -3.43851 -2.43607 0
M  V30 4757 H 465.187 -2.24737 -2.3297 0
M  V30 4758 H 464.094 -3.70367 -0.527163 0
M  V30 4759 H 465.427 -4.87007 -0.71307 0
M  V30 4760 N 467.08 -0.0183926 -1.57589 0
M  V30 4761 C 468.357 0.700621 -1.82622 0
M  V30 4762 C 468.737 1.90951 -0.90005 0
M  V30 4763 O 468.085 2.28452 0.0469145 0
M  V30 4764 C 468.295 1.08899 -3.31575 0
M  V30 4765 C 469.643 1.48514 -3.9778 0
M  V30 4766 O 470.667 1.18227 -3.36007 0
M  V30 4767 O 469.526 2.04903 -5.06633 0
M  V30 4768 H 466.62 0.342743 -0.752633 0
M  V30 4769 H 469.166 -0.0452548 -1.6964 0
M  V30 4770 H 467.938 0.228113 -3.90635 0
M  V30 4771 H 467.561 1.89338 -3.49624 0
M  V30 4772 N 468.558 1.5553 0.254621 0
M  V30 4773 C 469.786 1.81046 1.00149 0
M  V30 4774 C 470.201 0.593047 1.79244 0
M  V30 4775 O 469.558 -0.438196 1.77161 0
M  V30 4776 C 469.609 3.04684 1.94551 0
M  V30 4777 O 469.33 4.21725 1.18658 0
M  V30 4778 C 470.831 3.42943 2.80901 0
M  V30 4779 H 468.051 0.602653 0.295044 0
M  V30 4780 H 470.595 2.02576 0.279842 0
M  V30 4781 H 468.75 2.85226 2.62154 0
M  V30 4782 H 469.164 4.91746 1.82445 0
M  V30 4783 H 470.638 4.32576 3.42902 0
M  V30 4784 H 471.115 2.63176 3.51617 0
M  V30 4785 H 471.721 3.64724 2.18762 0
M  V30 4786 N 470.036 -0.519951 1.48776 0
M  V30 4787 C 470.966 -1.63253 1.66945 0
M  V30 4788 C 471.947 -1.62014 0.518224 0
M  V30 4789 O 473.132 -1.79053 0.751919 0
M  V30 4790 C 470.262 -3.0181 1.71836 0
M  V30 4791 C 469.216 -3.17911 2.8656 0
M  V30 4792 C 468.542 -4.5763 2.76548 0
M  V30 4793 C 469.842 -2.99729 4.27738 0
M  V30 4794 H 471.536 -1.48302 2.6009 0
M  V30 4795 H 469.082 -0.712026 1.25165 0
M  V30 4796 H 471.035 -3.79525 1.83135 0
M  V30 4797 H 469.759 -3.17806 0.752775 0
M  V30 4798 H 468.418 -2.42616 2.74833 0
M  V30 4799 H 468.066 -4.70476 1.77937 0
M  V30 4800 H 467.766 -4.69346 3.53536 0
M  V30 4801 H 469.29 -5.37431 2.89828 0
M  V30 4802 H 470.704 -3.67228 4.40246 0
M  V30 4803 H 469.101 -3.22932 5.05801 0
M  V30 4804 H 470.171 -1.96047 4.43502 0
M  V30 4805 N 471.514 -1.37532 -0.769588 0
M  V30 4806 C 472.477 -1.33292 -1.86456 0
M  V30 4807 C 473.477 -0.236537 -1.59051 0
M  V30 4808 O 474.667 -0.492511 -1.67093 0
M  V30 4809 C 471.799 -1.07118 -3.23633 0
M  V30 4810 H 472.992 -2.30692 -1.91628 0
M  V30 4811 H 470.545 -1.22593 -0.969572 0
M  V30 4812 H 471.28 -0.102578 -3.24138 0
M  V30 4813 H 471.065 -1.86479 -3.44917 0
M  V30 4814 H 472.555 -1.06806 -4.03711 0
M  V30 4815 N 472.992 0.995999 -1.22138 0
M  V30 4816 C 474.403 1.54961 -1.04135 0
M  V30 4817 C 474.754 1.92159 0.396147 0
M  V30 4818 O 473.879 1.74435 1.28069 0
M  V30 4819 C 474.474 2.81581 -1.88408 0
M  V30 4820 C 473.033 3.33396 -1.74712 0
M  V30 4821 C 472.18 2.06509 -1.85066 0
M  V30 4822 H 475.131 0.817436 -1.36028 0
M  V30 4823 H 475.152 3.53822 -1.39966 0
M  V30 4824 H 474.664 2.54476 -2.93025 0
M  V30 4825 H 472.765 3.65416 -0.728159 0
M  V30 4826 H 472.878 4.04208 -2.57202 0
M  V30 4827 H 471.242 2.19925 -1.28472 0
M  V30 4828 H 472.025 1.81804 -2.91208 0
M  V30 4829 N 474.47 1.03057 1.19235 0
M  V30 4830 C 475.718 0.726581 1.88587 0
M  V30 4831 C 476.039 -0.747227 1.80115 0
M  V30 4832 O 475.309 -1.53849 1.21274 0
M  V30 4833 H 473.889 0.265768 0.698124 0
M  V30 4834 H 476.551 1.30516 1.44746 0
M  V30 4835 H 475.647 1.0224 2.94879 0
M  V30 4836 N 475.948 -1.35272 0.808662 0
M  V30 4837 C 477.173 -2.03477 0.401475 0
M  V30 4838 C 477.598 -1.60537 -0.980279 0
M  V30 4839 O 476.956 -0.78304 -1.63518 0
M  V30 4840 C 477.004 -3.57181 0.495354 0
M  V30 4841 O 476.108 -4.09474 -0.490397 0
M  V30 4842 H 475.449 -0.642561 0.167366 0
M  V30 4843 H 477.979 -1.72824 1.09512 0
M  V30 4844 H 477.989 -4.06356 0.365912 0
M  V30 4845 H 476.664 -3.87784 1.5032 0
M  V30 4846 H 475.241 -3.71516 -0.321023 0
M  V30 4847 N 477.426 -0.562348 -1.47226 0
M  V30 4848 C 478.674 -0.0401371 -2.0206 0
M  V30 4849 C 478.995 1.3165 -1.43852 0
M  V30 4850 O 478.265 1.85976 -0.615599 0
M  V30 4851 H 476.845 -0.0118479 -0.746906 0
M  V30 4852 H 479.507 -0.73352 -1.8057 0
M  V30 4853 H 478.603 0.0441254 -3.12069 0
M  V30 4854 N 478.904 1.54736 -0.299062 0
M  V30 4855 C 480.152 1.99706 0.31017 0
M  V30 4856 C 480.473 1.18896 1.54559 0
M  V30 4857 O 479.743 0.284445 1.93824 0
M  V30 4858 H 478.323 0.737686 0.117596 0
M  V30 4859 H 480.985 1.9054 -0.409943 0
M  V30 4860 H 480.081 3.06596 0.58355 0
M  V30 4861 N 480.382 0.0267497 1.57577 0
M  V30 4862 C 481.345 -0.940916 2.08996 0
M  V30 4863 C 482.345 -1.25561 1.00455 0
M  V30 4864 O 483.535 -1.19634 1.26623 0
M  V30 4865 C 480.667 -2.25814 2.55384 0
M  V30 4866 H 481.86 -0.495628 2.95776 0
M  V30 4867 H 479.413 -0.221241 1.54726 0
M  V30 4868 H 480.148 -2.74976 1.71926 0
M  V30 4869 H 479.933 -2.04285 3.34679 0
M  V30 4870 H 481.423 -2.95178 2.95398 0
M  V30 4871 N 481.861 -1.55662 -0.24637 0
M  V30 4872 C 483.277 -1.48098 -0.594907 0
M  V30 4873 C 483.477 -0.717044 -1.8831 0
M  V30 4874 O 482.533 -0.246618 -2.51293 0
M  V30 4875 C 483.846 -2.92507 -0.697146 0
M  V30 4876 C 485.394 -3.02881 -0.789436 0
M  V30 4877 C 485.869 -4.48598 -0.923232 0
M  V30 4878 N 487.36 -4.52538 -0.988088 0
M  V30 4879 C 488.095 -5.62536 -1.11089 0
M  V30 4880 N 487.591 -6.82342 -1.19919 0
M  V30 4881 N 489.384 -5.50334 -1.14408 0
M  V30 4882 H 481.535 -2.0377 0.599278 0
M  V30 4883 H 483.798 -0.925145 0.20691 0
M  V30 4884 H 483.504 -3.51242 0.179396 0
M  V30 4885 H 483.378 -3.43024 -1.5689 0
M  V30 4886 H 485.765 -2.44226 -1.65643 0
M  V30 4887 H 485.846 -2.55574 0.107482 0
M  V30 4888 H 485.49 -5.07864 -0.0607927 0
M  V30 4889 H 485.42 -4.93587 -1.8352 0
M  V30 4890 H 487.911 -3.66248 -0.931167 0
M  V30 4891 H 488.224 -7.61924 -1.29197 0
M  V30 4892 H 486.569 -6.85102 -1.16876 0
M  V30 4893 H 489.76 -4.5567 -1.07158 0
M  V30 4894 H 489.933 -6.36096 -1.23634 0
M  V30 4895 N 483.339 0.512053 -1.4905 0
M  V30 4896 C 484.271 1.63121 -1.6101 0
M  V30 4897 C 485.284 1.55145 -0.493352 0
M  V30 4898 O 486.473 1.61278 -0.764955 0
M  V30 4899 C 483.573 3.01863 -1.54052 0
M  V30 4900 C 482.746 3.35138 -2.81072 0
M  V30 4901 C 481.805 4.5324 -2.67319 0
M  V30 4902 O 480.831 4.55571 -3.41238 0
M  V30 4903 N 482.033 5.52495 -1.78127 0
M  V30 4904 H 484.798 1.53292 -2.5753 0
M  V30 4905 H 482.359 0.699706 -1.45999 0
M  V30 4906 H 484.351 3.78774 -1.42521 0
M  V30 4907 H 482.921 3.05675 -0.654345 0
M  V30 4908 H 482.141 2.4723 -3.07036 0
M  V30 4909 H 483.429 3.54162 -3.65304 0
M  V30 4910 H 482.827 5.53403 -1.17308 0
M  V30 4911 H 481.384 6.28553 -1.72525 0
M  V30 4912 N 484.817 1.37938 0.762283 0
M  V30 4913 C 486.065 1.33404 1.51815 0
M  V30 4914 C 486.386 -0.0780975 1.94844 0
M  V30 4915 O 485.656 -1.02405 1.67003 0
M  V30 4916 H 484.236 0.490839 0.563104 0
M  V30 4917 H 486.898 1.72527 0.906669 0
M  V30 4918 H 485.994 1.97926 2.41313 0
M  V30 4919 N 486.295 -0.989507 1.22664 0
M  V30 4920 C 487.205 -2.11449 1.01619 0
M  V30 4921 C 488.221 -1.73962 -0.036545 0
M  V30 4922 O 489.397 -2.00788 0.156924 0
M  V30 4923 C 486.462 -3.41465 0.600204 0
M  V30 4924 C 485.523 -3.93033 1.72695 0
M  V30 4925 C 484.756 -5.16844 1.33071 0
M  V30 4926 O 484.979 -5.7001 0.210975 0
M  V30 4927 O 483.913 -5.6225 2.14845 0
M  V30 4928 H 487.739 -2.32088 1.9588 0
M  V30 4929 H 485.324 -1.09823 1.01289 0
M  V30 4930 H 487.206 -4.19695 0.37873 0
M  V30 4931 H 485.881 -3.22178 -0.313511 0
M  V30 4932 H 484.788 -3.15961 2.00298 0
M  V30 4933 H 486.121 -4.16758 2.61865 0
M  V30 4934 N 487.773 -1.03688 -1.18687 0
M  V30 4935 C 488.736 -0.629115 -2.20397 0
M  V30 4936 C 489.736 0.311495 -1.57754 0
M  V30 4937 O 490.926 0.0974107 -1.73927 0
M  V30 4938 C 488.058 0.0782231 -3.4081 0
M  V30 4939 H 489.251 -1.52915 -2.57987 0
M  V30 4940 H 486.804 -0.828988 -1.32505 0
M  V30 4941 H 487.539 0.992233 -3.08748 0
M  V30 4942 H 487.324 -0.597776 -3.87517 0
M  V30 4943 H 488.814 0.350156 -4.16129 0
M  V30 4944 N 489.251 1.34841 -0.815825 0
M  V30 4945 C 490.667 1.51543 -0.500697 0
M  V30 4946 C 490.867 1.76261 0.976444 0
M  V30 4947 O 489.923 1.8094 1.76117 0
M  V30 4948 C 491.236 2.68487 -1.35407 0
M  V30 4949 C 492.784 2.82368 -1.35046 0
M  V30 4950 C 493.259 4.02347 -2.18816 0
M  V30 4951 N 494.75 4.09542 -2.16402 0
M  V30 4952 C 495.485 5.01517 -2.77971 0
M  V30 4953 N 494.981 5.98763 -3.48503 0
M  V30 4954 N 496.774 4.94334 -2.67563 0
M  V30 4955 H 488.925 1.17055 -1.77234 0
M  V30 4956 H 491.188 0.573481 -0.754866 0
M  V30 4957 H 490.894 2.56829 -2.40274 0
M  V30 4958 H 490.768 3.63321 -1.01377 0
M  V30 4959 H 493.155 2.93471 -0.309604 0
M  V30 4960 H 493.236 1.88363 -1.73069 0
M  V30 4961 H 492.88 3.92004 -3.22948 0
M  V30 4962 H 492.81 4.95551 -1.78148 0
M  V30 4963 H 495.301 3.39932 -1.65091 0
M  V30 4964 H 495.614 6.6556 -3.92747 0
M  V30 4965 H 493.959 5.98909 -3.52609 0
M  V30 4966 H 497.15 4.1732 -2.12041 0
M  V30 4967 H 497.323 5.6582 -3.15834 0
M  V30 4968 N 490.729 0.570148 1.46925 0
M  V30 4969 C 492.006 -0.0153259 1.95594 0
M  V30 4970 C 492.386 -1.47232 1.51281 0
M  V30 4971 O 491.734 -2.15574 0.757624 0
M  V30 4972 C 491.944 0.143624 3.48704 0
M  V30 4973 C 493.292 0.00494484 4.246 0
M  V30 4974 O 494.316 0.0718214 3.56128 0
M  V30 4975 O 493.175 -0.141175 5.46318 0
M  V30 4976 H 490.269 -0.0568819 0.825041 0
M  V30 4977 H 492.815 0.637583 1.57267 0
M  V30 4978 H 491.587 1.15699 3.73804 0
M  V30 4979 H 491.21 -0.5463 3.93829 0
M  V30 4980 N 492.207 -1.54576 0.307264 0
M  V30 4981 C 493.623 -1.59534 -0.0459251 0
M  V30 4982 C 493.823 -1.32414 -1.51884 0
M  V30 4983 O 492.879 -1.1006 -2.27251 0
M  V30 4984 C 494.192 -2.98566 0.357649 0
M  V30 4985 C 495.74 -3.11491 0.306937 0
M  V30 4986 C 496.215 -4.52842 0.685427 0
M  V30 4987 N 497.706 -4.58782 0.638203 0
M  V30 4988 C 498.441 -5.66238 0.903458 0
M  V30 4989 N 497.937 -6.81703 1.23501 0
M  V30 4990 N 499.73 -5.55937 0.830102 0
M  V30 4991 H 491.881 -1.70464 1.26712 0
M  V30 4992 H 494.144 -0.79647 0.514139 0
M  V30 4993 H 493.85 -3.23356 1.38325 0
M  V30 4994 H 493.724 -3.76117 -0.285565 0
M  V30 4995 H 496.111 -2.86446 -0.709424 0
M  V30 4996 H 496.192 -2.36081 0.984861 0
M  V30 4997 H 495.836 -4.78618 1.69963 0
M  V30 4998 H 495.766 -5.26598 -0.0146346 0
M  V30 4999 H 498.257 -3.75849 0.393138 0
M  V30 5000 H 498.57 -7.59582 1.42322 0
M  V30 5001 H 496.915 -6.8324 1.27311 0
M  V30 5002 H 500.106 -4.64608 0.570693 0
M  V30 5003 H 500.279 -6.39597 1.04019 0
M  V30 5004 N 493.685 -0.035106 -1.57561 0
M  V30 5005 C 494.934 0.641604 -1.91223 0
M  V30 5006 C 495.247 1.72944 -0.913761 0
M  V30 5007 O 496.453 2.46321 -1.14185 0
M  V30 5008 C 494.909 1.19249 -3.3957 0
M  V30 5009 C 494.517 0.137616 -4.47789 0
M  V30 5010 C 496.261 1.84537 -3.82291 0
M  V30 5011 C 494.168 0.700478 -5.87237 0
M  V30 5012 H 493.098 0.243417 -0.713627 0
M  V30 5013 H 495.749 -0.101382 -1.8322 0
M  V30 5014 H 494.131 1.98728 -3.42525 0
M  V30 5015 H 495.305 -0.635153 -4.56402 0
M  V30 5016 H 493.62 -0.416855 -4.14308 0
M  V30 5017 H 496.217 2.27616 -4.83834 0
M  V30 5018 H 496.56 2.69054 -3.17672 0
M  V30 5019 H 497.093 1.11739 -3.81784 0
M  V30 5020 H 493.832 -0.106693 -6.55413 0
M  V30 5021 H 493.352 1.4416 -5.82218 0
M  V30 5022 H 495.031 1.18837 -6.35993 0
M  V30 5023 N 495.163 1.55791 0.238111 0
M  V30 5024 C 496.579 1.48411 0.587045 0
M  V30 5025 C 496.779 0.72702 1.87927 0
M  V30 5026 O 495.835 0.259942 2.51158 0
M  V30 5027 C 497.148 2.92873 0.681623 0
M  V30 5028 C 498.696 3.03295 0.773363 0
M  V30 5029 C 499.171 4.49082 0.899428 0
M  V30 5030 N 500.662 4.53056 0.964075 0
M  V30 5031 C 501.397 5.63117 1.08104 0
M  V30 5032 N 500.893 6.82969 1.16299 0
M  V30 5033 N 502.686 5.50933 1.11488 0
M  V30 5034 H 494.837 2.0345 -0.610076 0
M  V30 5035 H 497.1 0.924034 -0.211813 0
M  V30 5036 H 496.806 3.51142 -0.19802 0
M  V30 5037 H 496.68 3.43851 1.55069 0
M  V30 5038 H 499.067 2.45101 1.64346 0
M  V30 5039 H 499.148 2.55513 -0.121034 0
M  V30 5040 H 498.792 5.07889 0.0338586 0
M  V30 5041 H 498.722 4.94553 1.809 0
M  V30 5042 H 501.213 3.66737 0.91173 0
M  V30 5043 H 501.526 7.62598 1.25155 0
M  V30 5044 H 499.871 6.85712 1.13241 0
M  V30 5045 H 503.062 4.56231 1.0474 0
M  V30 5046 H 503.235 6.36743 1.20259 0
M  V30 5047 N 496.642 -0.504142 1.49319 0
M  V30 5048 C 498.058 -0.835039 1.36012 0
M  V30 5049 C 498.258 -1.97674 0.390808 0
M  V30 5050 O 497.314 -2.51867 -0.178655 0
M  V30 5051 C 498.627 -1.17821 2.76656 0
M  V30 5052 C 500.175 -1.2866 2.85334 0
M  V30 5053 C 500.65 -1.66307 4.26739 0
M  V30 5054 N 502.141 -1.73362 4.29534 0
M  V30 5055 C 502.876 -2.0393 5.35911 0
M  V30 5056 N 502.372 -2.32744 6.52535 0
M  V30 5057 N 504.165 -2.05155 5.23324 0
M  V30 5058 H 496.316 0.248764 2.10938 0
M  V30 5059 H 498.579 0.0486962 0.946748 0
M  V30 5060 H 498.285 -0.412682 3.4927 0
M  V30 5061 H 498.159 -2.12239 3.11825 0
M  V30 5062 H 500.546 -2.04285 2.1296 0
M  V30 5063 H 500.627 -0.323004 2.53752 0
M  V30 5064 H 500.271 -0.91234 4.99639 0
M  V30 5065 H 500.201 -2.63761 4.55782 0
M  V30 5066 H 502.692 -1.53268 3.45424 0
M  V30 5067 H 503.005 -2.55248 7.2943 0
M  V30 5068 H 501.35 -2.30207 6.55767 0
M  V30 5069 H 504.541 -1.82119 4.3122 0
M  V30 5070 H 504.714 -2.28644 6.06322 0
M  V30 5071 N 498.12 -1.38341 -0.754957 0
M  V30 5072 C 499.367 -1.34473 -1.51404 0
M  V30 5073 C 499.695 0.0656458 -1.94389 0
M  V30 5074 O 498.95 1.04244 -1.65625 0
M  V30 5075 C 499.249 -2.2452 -2.78075 0
M  V30 5076 C 498.915 -3.72512 -2.54059 0
M  V30 5077 C 497.577 -4.1284 -2.47218 0
M  V30 5078 C 499.929 -4.66197 -2.33044 0
M  V30 5079 C 497.257 -5.44945 -2.17376 0
M  V30 5080 C 499.609 -5.98558 -2.04723 0
M  V30 5081 C 498.273 -6.37972 -1.96337 0
M  V30 5082 H 497.543 -0.492072 -0.554027 0
M  V30 5083 H 500.19 -1.70687 -0.868223 0
M  V30 5084 H 498.495 -1.81357 -3.473 0
M  V30 5085 H 500.192 -2.18832 -3.36026 0
M  V30 5086 H 496.782 -3.40538 -2.60253 0
M  V30 5087 H 500.966 -4.35888 -2.37309 0
M  V30 5088 H 496.222 -5.74426 -2.09391 0
M  V30 5089 H 500.396 -6.70693 -1.87465 0
M  V30 5090 H 498.023 -7.40258 -1.72978 0
M  V30 5091 N 499.598 0.982988 -1.23187 0
M  V30 5092 C 500.845 1.72392 -1.06241 0
M  V30 5093 C 501.173 1.9032 0.40108 0
M  V30 5094 O 500.428 1.45084 1.31336 0
M  V30 5095 C 500.727 3.12736 -1.73006 0
M  V30 5096 C 500.393 3.14695 -3.22921 0
M  V30 5097 C 499.055 3.14937 -3.63824 0
M  V30 5098 C 501.407 3.10211 -4.1883 0
M  V30 5099 C 498.735 3.08408 -4.99101 0
M  V30 5100 C 501.087 3.05224 -5.54095 0
M  V30 5101 C 499.751 3.03787 -5.94365 0
M  V30 5102 H 499.021 0.630829 -0.388762 0
M  V30 5103 H 501.668 1.15053 -1.53085 0
M  V30 5104 H 499.973 3.73446 -1.18514 0
M  V30 5105 H 501.67 3.68828 -1.57374 0
M  V30 5106 H 498.26 3.15262 -2.90358 0
M  V30 5107 H 502.444 3.09166 -3.8824 0
M  V30 5108 H 497.7 3.05646 -5.29519 0
M  V30 5109 H 501.874 3.00712 -6.28128 0
M  V30 5110 H 499.501 2.98483 -6.99151 0
M  V30 5111 N 501.076 1.04316 1.18135 0
M  V30 5112 C 502.487 0.775505 1.69832 0
M  V30 5113 C 502.838 -0.703348 1.8316 0
M  V30 5114 O 501.963 -1.54729 1.51287 0
M  V30 5115 C 502.558 1.40112 3.0847 0
M  V30 5116 C 501.117 1.18172 3.57368 0
M  V30 5117 C 500.264 1.49022 2.33854 0
M  V30 5118 H 503.215 1.20925 1.02775 0
M  V30 5119 H 503.236 0.805672 3.71873 0
M  V30 5120 H 502.748 2.47744 2.98738 0
M  V30 5121 H 500.849 0.124258 3.72393 0
M  V30 5122 H 500.962 1.8805 4.40652 0
M  V30 5123 H 499.326 0.909995 2.37889 0
M  V30 5124 H 500.109 2.57768 2.26738 0
M  V30 5125 N 502.554 -1.34406 0.822964 0
M  V30 5126 C 503.501 -2.29519 0.24284 0
M  V30 5127 C 504.471 -1.5359 -0.632397 0
M  V30 5128 O 505.656 -1.8196 -0.57403 0
M  V30 5129 C 502.796 -3.40032 -0.58925 0
M  V30 5130 C 501.909 -4.30899 0.308236 0
M  V30 5131 C 501.044 -5.28515 -0.533425 0
M  V30 5132 C 500.083 -6.1102 0.363444 0
M  V30 5133 N 499.22 -7.00725 -0.439147 0
M  V30 5134 H 504.06 -2.78537 1.05929 0
M  V30 5135 H 501.597 -1.3707 0.533872 0
M  V30 5136 H 503.555 -4.0279 -1.087 0
M  V30 5137 H 502.185 -2.92248 -1.37081 0
M  V30 5138 H 501.237 -3.69002 0.924203 0
M  V30 5139 H 502.549 -4.88717 0.997862 0
M  V30 5140 H 501.703 -5.96725 -1.09565 0
M  V30 5141 H 500.442 -4.71235 -1.25656 0
M  V30 5142 H 499.447 -5.41743 0.937812 0
M  V30 5143 H 500.672 -6.70381 1.08469 0
M  V30 5144 H 498.618 -6.45913 -1.14595 0
M  V30 5145 H 498.535 -7.55756 0.19209 0
M  V30 5146 H 499.803 -7.73263 -0.984124 0
M  V30 5147 N 504.032 -0.577932 -1.46621 0
M  V30 5148 C 505.28 -0.061566 -2.02006 0
M  V30 5149 C 505.601 1.30117 -1.4524 0
M  V30 5150 O 504.871 1.85313 -0.63529 0
M  V30 5151 H 503.451 -0.0197692 -0.746738 0
M  V30 5152 H 506.113 -0.752631 -1.79782 0
M  V30 5153 H 505.209 0.0110238 -3.12098 0
M  V30 5154 N 505.51 1.54411 -0.315457 0
M  V30 5155 C 506.787 1.92562 0.343398 0
M  V30 5156 C 507.167 1.24423 1.70535 0
M  V30 5157 O 506.515 0.385051 2.25232 0
M  V30 5158 C 506.725 3.46168 0.443687 0
M  V30 5159 C 508.073 4.18659 0.707783 0
M  V30 5160 O 509.097 3.52281 0.52693 0
M  V30 5161 O 507.956 5.36198 1.05612 0
M  V30 5162 H 505.05 0.80379 0.194552 0
M  V30 5163 H 507.596 1.65738 -0.364577 0
M  V30 5164 H 506.368 3.8792 -0.513172 0
M  V30 5165 H 505.991 3.79073 1.19956 0
M  V30 5166 N 506.988 0.0434614 1.5754 0
M  V30 5167 C 507.918 -0.931651 2.14109 0
M  V30 5168 C 508.899 -1.32971 1.06079 0
M  V30 5169 O 510.084 -1.40579 1.33982 0
M  V30 5170 C 507.214 -2.20914 2.67982 0
M  V30 5171 C 506.168 -1.95139 3.80926 0
M  V30 5172 C 505.494 -3.29276 4.21285 0
M  V30 5173 C 506.794 -1.27913 5.06395 0
M  V30 5174 H 508.488 -0.460497 2.95837 0
M  V30 5175 H 506.034 -0.220058 1.42309 0
M  V30 5176 H 507.987 -2.89522 3.06194 0
M  V30 5177 H 506.711 -2.70221 1.83434 0
M  V30 5178 H 505.37 -1.28945 3.43175 0
M  V30 5179 H 505.018 -3.76369 3.33699 0
M  V30 5180 H 504.718 -3.12831 4.97404 0
M  V30 5181 H 506.242 -3.99129 4.62091 0
M  V30 5182 H 507.656 -1.86544 5.42102 0
M  V30 5183 H 506.053 -1.2182 5.87605 0
M  V30 5184 H 507.123 -0.254066 4.84234 0
M  V30 5185 N 508.466 -1.55915 -0.229846 0
M  V30 5186 C 509.376 -1.94891 -1.30593 0
M  V30 5187 C 510.392 -0.851604 -1.51736 0
M  V30 5188 O 511.568 -1.15447 -1.65027 0
M  V30 5189 C 508.633 -2.25052 -2.63728 0
M  V30 5190 C 507.694 -3.48306 -2.5096 0
M  V30 5191 C 506.927 -3.77019 -3.77747 0
M  V30 5192 O 507.15 -3.07534 -4.80395 0
M  V30 5193 O 506.084 -4.70523 -3.75356 0
M  V30 5194 H 509.91 -2.86581 -1.00525 0
M  V30 5195 H 507.495 -1.43017 -0.432025 0
M  V30 5196 H 509.377 -2.45682 -3.42372 0
M  V30 5197 H 508.052 -1.36538 -2.93495 0
M  V30 5198 H 506.959 -3.32964 -1.70546 0
M  V30 5199 H 508.292 -4.37177 -2.26136 0
M  V30 5200 N 509.944 0.496216 -1.49584 0
M  V30 5201 C 511.19 1.25189 -1.59548 0
M  V30 5202 C 511.523 1.9212 -0.283466 0
M  V30 5203 O 510.798 1.80947 0.713324 0
M  V30 5204 C 511.081 2.31516 -2.75812 0
M  V30 5205 C 510.934 1.69054 -4.16822 0
M  V30 5206 C 512.253 3.3304 -2.87702 0
M  V30 5207 H 509.372 0.45379 -0.580727 0
M  V30 5208 H 512.014 0.549327 -1.81886 0
M  V30 5209 H 510.164 2.91438 -2.56897 0
M  V30 5210 H 511.836 1.12923 -4.47265 0
M  V30 5211 H 510.079 0.994485 -4.22247 0
M  V30 5212 H 510.75 2.462 -4.94054 0
M  V30 5213 H 513.226 2.83114 -3.04936 0
M  V30 5214 H 512.102 4.04794 -3.7072 0
M  V30 5215 H 512.363 3.95655 -1.97255 0
M  V30 5216 N 511.423 1.38739 0.74761 0
M  V30 5217 C 512.353 1.39173 1.87492 0
M  V30 5218 C 513.334 0.256794 1.6815 0
M  V30 5219 O 514.519 0.460762 1.88655 0
M  V30 5220 C 511.649 1.22197 3.25093 0
M  V30 5221 C 510.603 2.32957 3.59047 0
M  V30 5222 C 509.929 2.01082 4.95449 0
M  V30 5223 C 511.229 3.75237 3.6331 0
M  V30 5224 H 512.923 2.3351 1.87386 0
M  V30 5225 H 510.469 1.12399 0.900134 0
M  V30 5226 H 512.422 1.21124 4.03617 0
M  V30 5227 H 511.146 0.243241 3.25693 0
M  V30 5228 H 509.805 2.33226 2.82845 0
M  V30 5229 H 509.453 1.01678 4.92616 0
M  V30 5230 H 509.153 2.75267 5.19136 0
M  V30 5231 H 510.677 2.01638 5.76346 0
M  V30 5232 H 512.091 3.76966 4.31937 0
M  V30 5233 H 510.488 4.48677 3.98509 0
M  V30 5234 H 511.558 4.07122 2.634 0
M  V30 5235 N 512.901 -0.976442 1.23707 0
M  V30 5236 C 513.833 -2.07212 0.979574 0
M  V30 5237 C 514.846 -1.6273 -0.0478528 0
M  V30 5238 O 516.035 -1.77506 0.18815 0
M  V30 5239 C 513.135 -3.35835 0.45479 0
M  V30 5240 C 512.308 -4.09268 1.54331 0
M  V30 5241 C 511.367 -5.16166 1.02271 0
M  V30 5242 O 510.393 -5.42827 1.71254 0
M  V30 5243 N 511.595 -5.80313 -0.147419 0
M  V30 5244 H 514.36 -2.29878 1.92292 0
M  V30 5245 H 511.921 -1.14343 1.14618 0
M  V30 5246 H 513.913 -4.04597 0.0914631 0
M  V30 5247 H 512.483 -3.10106 -0.394068 0
M  V30 5248 H 511.703 -3.34906 2.07923 0
M  V30 5249 H 512.991 -4.55095 2.27522 0
M  V30 5250 H 512.389 -5.61043 -0.724353 0
M  V30 5251 H 510.946 -6.50231 -0.451972 0
M  V30 5252 N 514.379 -1.04941 -1.1758 0
M  V30 5253 C 515.342 -0.652456 -2.19717 0
M  V30 5254 C 516.342 0.294745 -1.58076 0
M  V30 5255 O 517.532 0.0789579 -1.74021 0
M  V30 5256 C 514.664 0.0420712 -3.40874 0
M  V30 5257 H 515.857 -1.55642 -2.5635 0
M  V30 5258 H 513.41 -0.842995 -1.31618 0
M  V30 5259 H 514.145 0.95943 -3.09783 0
M  V30 5260 H 513.93 -0.638844 -3.86861 0
M  V30 5261 H 515.42 0.306 -4.16477 0
M  V30 5262 N 515.857 1.33968 -0.830081 0
M  V30 5263 C 516.789 2.28194 -0.21448 0
M  V30 5264 C 517.802 1.5135 0.599752 0
M  V30 5265 O 518.991 1.73286 0.42826 0
M  V30 5266 C 516.091 3.31221 0.717356 0
M  V30 5267 C 515.264 4.37365 -0.055613 0
M  V30 5268 C 514.323 5.2011 0.798231 0
M  V30 5269 O 513.349 5.68691 0.240616 0
M  V30 5270 N 514.551 5.40523 2.11695 0
M  V30 5271 H 517.316 2.81662 -1.02405 0
M  V30 5272 H 514.877 1.46568 -0.687713 0
M  V30 5273 H 516.869 3.83477 1.29334 0
M  V30 5274 H 515.439 2.78095 1.42765 0
M  V30 5275 H 514.659 3.85727 -0.812936 0
M  V30 5276 H 515.947 5.05397 -0.587444 0
M  V30 5277 H 515.345 5.0274 2.59363 0
M  V30 5278 H 513.902 5.95871 2.64162 0
M  V30 5279 N 517.335 0.585699 1.46312 0
M  V30 5280 C 518.581 0.0725284 2.0267 0
M  V30 5281 C 518.914 -1.28523 1.45586 0
M  V30 5282 O 518.189 -1.84283 0.622101 0
M  V30 5283 C 518.472 0.0099788 3.60099 0
M  V30 5284 C 518.325 1.39685 4.27561 0
M  V30 5285 C 519.644 -0.689117 4.34671 0
M  V30 5286 H 516.763 0.0278307 0.736474 0
M  V30 5287 H 519.405 0.753472 1.74421 0
M  V30 5288 H 517.555 -0.56992 3.84297 0
M  V30 5289 H 519.227 2.02215 4.14617 0
M  V30 5290 H 517.47 1.96374 3.86807 0
M  V30 5291 H 518.141 1.30553 5.36339 0
M  V30 5292 H 520.617 -0.196446 4.15636 0
M  V30 5293 H 519.493 -0.701921 5.44393 0
M  V30 5294 H 519.754 -1.75101 4.05946 0
M  V30 5295 N 518.813 -1.54241 0.323641 0
M  V30 5296 C 519.723 -2.28033 -0.551205 0
M  V30 5297 C 520.739 -1.32388 -1.12913 0
M  V30 5298 O 521.915 -1.65403 -1.14908 0
M  V30 5299 C 518.98 -3.02382 -1.69606 0
M  V30 5300 C 518.041 -4.13612 -1.14993 0
M  V30 5301 C 517.274 -4.84407 -2.24022 0
M  V30 5302 O 517.497 -4.54716 -3.44368 0
M  V30 5303 O 516.431 -5.71312 -1.89436 0
M  V30 5304 H 520.257 -3.03662 0.048066 0
M  V30 5305 H 517.842 -1.49133 0.0893289 0
M  V30 5306 H 519.724 -3.48941 -2.36259 0
M  V30 5307 H 518.399 -2.29628 -2.28151 0
M  V30 5308 H 517.306 -3.71402 -0.448484 0
M  V30 5309 H 518.639 -4.8841 -0.609608 0
M  V30 5310 N 520.291 -0.0518155 -1.57515 0
M  V30 5311 C 521.707 0.304735 -1.56664 0
M  V30 5312 C 521.907 1.71395 -1.05953 0
M  V30 5313 O 520.963 2.42123 -0.716414 0
M  V30 5314 C 522.276 0.132614 -3.00407 0
M  V30 5315 C 523.824 0.20367 -3.12337 0
M  V30 5316 C 524.299 0.0600706 -4.57961 0
M  V30 5317 N 525.79 0.116326 -4.63054 0
M  V30 5318 C 526.525 0.0293363 -5.73392 0
M  V30 5319 N 526.021 -0.110038 -6.92713 0
M  V30 5320 N 527.814 0.0849651 -5.62036 0
M  V30 5321 H 519.965 -0.973056 -1.888 0
M  V30 5322 H 522.228 -0.377781 -0.869474 0
M  V30 5323 H 521.934 -0.839019 -3.41546 0
M  V30 5324 H 521.808 0.893376 -3.66468 0
M  V30 5325 H 524.195 1.16578 -2.71097 0
M  V30 5326 H 524.276 -0.587857 -2.48954 0
M  V30 5327 H 523.92 -0.898715 -4.99886 0
M  V30 5328 H 523.85 0.87075 -5.19351 0
M  V30 5329 H 526.341 0.22327 -3.7724 0
M  V30 5330 H 526.654 -0.169104 -7.72615 0
M  V30 5331 H 524.999 -0.145132 -6.94848 0
M  V30 5332 H 528.19 0.192411 -4.67704 0
M  V30 5333 H 528.363 0.0137131 -6.47999 0
M  V30 5334 N 521.769 1.56035 0.221574 0
M  V30 5335 C 523.018 1.78245 0.944016 0
M  V30 5336 C 523.331 0.620371 1.85501 0
M  V30 5337 O 524.537 0.726103 2.6161 0
M  V30 5338 C 522.993 3.15659 1.7288 0
M  V30 5339 C 522.601 4.39591 0.863942 0
M  V30 5340 C 524.345 3.47195 2.44246 0
M  V30 5341 C 522.252 5.6803 1.64607 0
M  V30 5342 H 521.182 0.664547 0.356222 0
M  V30 5343 H 523.833 1.8243 0.197904 0
M  V30 5344 H 522.215 3.0565 2.51781 0
M  V30 5345 H 523.389 4.60655 0.115464 0
M  V30 5346 H 521.704 4.15572 0.262407 0
M  V30 5347 H 524.301 4.40381 3.03263 0
M  V30 5348 H 524.644 2.69693 3.1713 0
M  V30 5349 H 525.177 3.58533 1.72334 0
M  V30 5350 H 521.916 6.48425 0.960507 0
M  V30 5351 H 521.436 5.51027 2.36917 0
M  V30 5352 H 523.115 6.08203 2.20675 0
M  V30 5353 N 523.247 -0.488276 1.49845 0
M  V30 5354 C 524.18 -1.60651 1.62069 0
M  V30 5355 C 525.158 -1.5568 0.469308 0
M  V30 5356 O 526.342 -1.75553 0.686551 0
M  V30 5357 C 523.469 -2.99197 1.58741 0
M  V30 5358 C 522.515 -3.22385 2.79232 0
M  V30 5359 S 523.348 -3.04133 4.40753 0
M  V30 5360 C 524.504 -4.45052 4.4009 0
M  V30 5361 H 524.737 -1.50039 2.56662 0
M  V30 5362 H 522.27 -0.674371 1.38894 0
M  V30 5363 H 524.228 -3.79081 1.57506 0
M  V30 5364 H 522.889 -3.07213 0.654136 0
M  V30 5365 H 522.082 -4.23557 2.73159 0
M  V30 5366 H 521.684 -2.50245 2.77945 0
M  V30 5367 H 523.976 -5.37375 4.12594 0
M  V30 5368 H 524.919 -4.56172 5.41583 0
M  V30 5369 H 525.327 -4.26327 3.70008 0
M  V30 5370 N 524.725 -1.39134 -0.740242 0
M  V30 5371 C 525.953 -1.39334 -1.5295 0
M  V30 5372 C 526.368 0.0135008 -1.88795 0
M  V30 5373 O 525.725 0.983524 -1.5373 0
M  V30 5374 C 525.776 -2.2614 -2.82034 0
M  V30 5375 O 525.497 -3.61345 -2.47712 0
M  V30 5376 C 526.998 -2.34666 -3.76094 0
M  V30 5377 H 524.218 -0.476103 -0.472828 0
M  V30 5378 H 526.762 -1.82883 -0.9151 0
M  V30 5379 H 524.917 -1.86018 -3.39818 0
M  V30 5380 H 525.331 -4.07194 -3.30595 0
M  V30 5381 H 526.805 -2.99663 -4.63579 0
M  V30 5382 H 527.282 -1.36426 -4.17474 0
M  V30 5383 H 527.888 -2.75236 -3.2423 0
M  V30 5384 N 526.204 0.969867 -1.24223 0
M  V30 5385 C 527.62 1.23809 -1.00716 0
M  V30 5386 C 527.82 1.99469 0.285358 0
M  V30 5387 O 526.876 2.31764 1.00207 0
M  V30 5388 C 528.189 2.02734 -2.2208 0
M  V30 5389 C 529.737 2.15834 -2.26681 0
M  V30 5390 C 530.212 2.98154 -3.47661 0
M  V30 5391 N 531.703 3.05737 -3.47964 0
M  V30 5392 C 532.438 3.69785 -4.38231 0
M  V30 5393 N 531.934 4.35569 -5.3875 0
M  V30 5394 N 533.727 3.66775 -4.25949 0
M  V30 5395 H 525.878 0.463294 -2.07286 0
M  V30 5396 H 528.141 0.267348 -0.909521 0
M  V30 5397 H 527.847 1.54524 -3.15935 0
M  V30 5398 H 527.721 3.0347 -2.24021 0
M  V30 5399 H 530.108 2.63248 -1.33359 0
M  V30 5400 H 530.189 1.14453 -2.28767 0
M  V30 5401 H 529.833 2.51435 -4.41297 0
M  V30 5402 H 529.763 3.99729 -3.42818 0
M  V30 5403 H 532.254 2.58941 -2.75242 0
M  V30 5404 H 532.567 4.82251 -6.03866 0
M  V30 5405 H 530.912 4.34244 -5.42639 0
M  V30 5406 H 534.103 3.14558 -3.46657 0
M  V30 5407 H 534.276 4.16407 -4.96497 0
M  V30 5408 N 527.682 1.05563 1.17022 0
M  V30 5409 C 528.629 0.659893 2.21165 0
M  V30 5410 C 529.599 -0.339813 1.62587 0
M  V30 5411 O 530.784 -0.230378 1.89404 0
M  V30 5412 C 527.924 0.0447297 3.45071 0
M  V30 5413 C 527.037 1.09372 4.17926 0
M  V30 5414 C 526.172 0.445481 5.29329 0
M  V30 5415 C 525.211 1.47852 5.93975 0
M  V30 5416 N 524.348 0.854172 6.96885 0
M  V30 5417 H 529.188 1.55243 2.54369 0
M  V30 5418 H 526.725 0.776336 1.24946 0
M  V30 5419 H 528.683 -0.329404 4.15898 0
M  V30 5420 H 527.313 -0.811244 3.1244 0
M  V30 5421 H 526.365 1.58564 3.45777 0
M  V30 5422 H 527.677 1.87773 4.62107 0
M  V30 5423 H 526.831 0.0179688 6.06697 0
M  V30 5424 H 525.57 -0.370481 4.86291 0
M  V30 5425 H 524.575 1.91601 5.15334 0
M  V30 5426 H 525.8 2.29645 6.39093 0
M  V30 5427 H 523.746 0.0587882 6.55974 0
M  V30 5428 H 523.663 1.57567 7.39397 0
M  V30 5429 H 524.931 0.451559 7.78191 0
M  V30 5430 N 529.16 -1.33526 0.837174 0
M  V30 5431 C 530.07 -2.33023 0.271568 0
M  V30 5432 C 531.086 -1.63272 -0.601514 0
M  V30 5433 O 532.262 -1.94939 -0.506038 0
M  V30 5434 C 529.327 -3.42382 -0.545448 0
M  V30 5435 C 528.388 -4.27857 0.351709 0
M  V30 5436 C 527.621 -5.31994 -0.426409 0
M  V30 5437 O 527.844 -5.45763 -1.65828 0
M  V30 5438 O 526.778 -6.01572 0.1987 0
M  V30 5439 H 530.604 -2.83256 1.09545 0
M  V30 5440 H 528.189 -1.36837 0.599655 0
M  V30 5441 H 530.071 -4.09122 -1.00979 0
M  V30 5442 H 528.746 -2.94369 -1.34641 0
M  V30 5443 H 527.653 -3.6399 0.863853 0
M  V30 5444 H 528.986 -4.79349 1.1174 0
M  V30 5445 N 530.638 -0.59345 -1.46 0
M  V30 5446 C 531.568 0.121192 -2.33185 0
M  V30 5447 C 532.549 0.872977 -1.4599 0
M  V30 5448 O 533.734 0.846321 -1.74789 0
M  V30 5449 C 530.864 1.12844 -3.28456 0
M  V30 5450 C 529.818 0.4908 -4.25177 0
M  V30 5451 C 529.144 1.60529 -5.10034 0
M  V30 5452 C 530.444 -0.578949 -5.19081 0
M  V30 5453 H 532.138 -0.606767 -2.93187 0
M  V30 5454 H 529.684 -0.293242 -1.40983 0
M  V30 5455 H 531.637 1.63684 -3.88311 0
M  V30 5456 H 530.361 1.88681 -2.66584 0
M  V30 5457 H 529.02 0.00339328 -3.666 0
M  V30 5458 H 528.668 2.35359 -4.44539 0
M  V30 5459 H 528.368 1.18422 -5.75543 0
M  V30 5460 H 529.892 2.11623 -5.72755 0
M  V30 5461 H 531.306 -0.155199 -5.7309 0
M  V30 5462 H 529.703 -0.920947 -5.92991 0
M  V30 5463 H 530.773 -1.46109 -4.62364 0
M  V30 5464 N 532.116 1.54067 -0.331816 0
M  V30 5465 C 533.046 2.27569 0.522932 0
M  V30 5466 C 534.027 1.28679 1.11247 0
M  V30 5467 O 535.212 1.57504 1.13605 0
M  V30 5468 C 532.342 3.0397 1.67987 0
M  V30 5469 C 531.296 4.10267 1.21924 0
M  V30 5470 C 530.622 4.74555 2.46377 0
M  V30 5471 C 531.922 5.21268 0.32815 0
M  V30 5472 H 533.616 2.99264 -0.0901977 0
M  V30 5473 H 531.162 1.4393 -0.044821 0
M  V30 5474 H 533.115 3.54123 2.28418 0
M  V30 5475 H 531.839 2.29906 2.31971 0
M  V30 5476 H 530.498 3.61009 0.637809 0
M  V30 5477 H 530.146 3.97098 3.08743 0
M  V30 5478 H 529.846 5.46363 2.16243 0
M  V30 5479 H 531.37 5.27487 3.07555 0
M  V30 5480 H 532.784 5.67128 0.838978 0
M  V30 5481 H 531.181 5.99982 0.119228 0
M  V30 5482 H 532.251 4.80673 -0.638839 0
M  V30 5483 N 533.594 0.0601682 1.57485 0
M  V30 5484 C 534.822 -0.620937 1.97363 0
M  V30 5485 C 535.237 -1.63846 0.938082 0
M  V30 5486 O 534.594 -1.82339 -0.0766578 0
M  V30 5487 C 534.645 -1.29987 3.37321 0
M  V30 5488 O 534.366 -0.323081 4.36907 0
M  V30 5489 C 535.867 -2.06989 3.92008 0
M  V30 5490 H 533.087 -0.169135 0.649334 0
M  V30 5491 H 535.631 0.129132 2.04092 0
M  V30 5492 H 533.786 -2.0011 3.31715 0
M  V30 5493 H 534.2 -0.808754 5.18227 0
M  V30 5494 H 535.674 -2.49901 4.92192 0
M  V30 5495 H 536.151 -2.92173 3.2792 0
M  V30 5496 H 536.757 -1.41757 4.0098 0
M  V30 5497 N 535.072 -1.5615 -0.213296 0
M  V30 5498 C 536.318 -1.79812 -0.937849 0
M  V30 5499 C 536.651 -0.631201 -1.83656 0
M  V30 5500 O 535.926 0.369165 -1.90964 0
M  V30 5501 C 536.209 -3.13613 -1.76972 0
M  V30 5502 C 536.062 -4.40766 -0.89695 0
M  V30 5503 C 537.381 -3.43931 -2.7459 0
M  V30 5504 H 534.5 -0.654138 -0.339518 0
M  V30 5505 H 537.142 -1.88877 -0.20623 0
M  V30 5506 H 535.292 -3.06015 -2.39347 0
M  V30 5507 H 536.964 -4.60392 -0.289306 0
M  V30 5508 H 535.207 -4.33326 -0.202756 0
M  V30 5509 H 535.878 -5.30843 -1.51358 0
M  V30 5510 H 538.354 -3.5171 -2.22349 0
M  V30 5511 H 537.23 -4.38706 -3.29891 0
M  V30 5512 H 537.491 -2.6651 -3.52739 0
M  V30 5513 N 536.55 0.480323 -1.50102 0
M  V30 5514 C 537.78 1.25475 -1.64133 0
M  V30 5515 C 538.188 1.8647 -0.320272 0
M  V30 5516 O 537.531 1.69561 0.70673 0
M  V30 5517 C 537.593 2.40996 -2.6676 0
M  V30 5518 C 537.257 2.00711 -4.10565 0
M  V30 5519 C 538.254 1.53492 -4.96725 0
M  V30 5520 C 535.939 2.09714 -4.56427 0
M  V30 5521 C 537.933 1.15806 -6.26792 0
M  V30 5522 C 535.62 1.7164 -5.86501 0
M  V30 5523 C 536.618 1.24763 -6.71508 0
M  V30 5524 O 536.306 0.872122 -7.99155 0
M  V30 5525 H 536.038 0.385983 -0.554971 0
M  V30 5526 H 538.592 0.580848 -1.97016 0
M  V30 5527 H 536.822 3.11528 -2.291 0
M  V30 5528 H 538.511 3.02981 -2.70106 0
M  V30 5529 H 539.277 1.45966 -4.62514 0
M  V30 5530 H 535.156 2.4515 -3.90413 0
M  V30 5531 H 538.7 0.791465 -6.93096 0
M  V30 5532 H 534.597 1.78822 -6.20236 0
M  V30 5533 H 535.365 1.00178 -8.12346 0
M  V30 5534 N 538.028 1.39524 0.732853 0
M  V30 5535 C 539.253 1.40329 1.52717 0
M  V30 5536 C 539.678 0.000286574 1.881 0
M  V30 5537 O 539.036 -0.987262 1.52062 0
M  V30 5538 C 539.084 2.28464 2.78992 0
M  V30 5539 O 538.188 1.716 3.75003 0
M  V30 5540 H 537.529 0.47778 0.461109 0
M  V30 5541 H 540.059 1.83546 0.903996 0
M  V30 5542 H 540.069 2.43051 3.27705 0
M  V30 5543 H 538.744 3.30425 2.52572 0
M  V30 5544 H 537.321 1.66267 3.33781 0
M  V30 5545 N 539.506 -0.963266 1.24736 0
M  V30 5546 C 540.731 -1.74699 1.11781 0
M  V30 5547 C 541.156 -1.85267 -0.325258 0
M  V30 5548 O 540.514 -1.32681 -1.23553 0
M  V30 5549 C 540.562 -3.14322 1.76731 0
M  V30 5550 O 539.666 -3.99043 1.04109 0
M  V30 5551 H 539.007 -0.53684 0.390767 0
M  V30 5552 H 541.537 -1.20801 1.65131 0
M  V30 5553 H 541.547 -3.64824 1.82668 0
M  V30 5554 H 540.222 -3.05946 2.81726 0
M  V30 5555 H 538.799 -3.5752 1.05991 0
M  V30 5556 N 540.985 -1.06182 -1.16461 0
M  V30 5557 C 541.895 -0.682671 -2.24448 0
M  V30 5558 C 542.911 0.30078 -1.71381 0
M  V30 5559 O 544.087 0.150376 -2.00838 0
M  V30 5560 C 541.152 -0.0737202 -3.46622 0
M  V30 5561 C 540.213 -1.10889 -4.14731 0
M  V30 5562 C 539.446 -0.528908 -5.31073 0
M  V30 5563 O 539.669 0.65868 -5.66584 0
M  V30 5564 O 538.603 -1.26805 -5.88391 0
M  V30 5565 H 542.429 -1.58291 -2.59187 0
M  V30 5566 H 540.014 -0.834013 -1.23954 0
M  V30 5567 H 541.896 0.264192 -4.20571 0
M  V30 5568 H 540.571 0.800015 -3.13658 0
M  V30 5569 H 539.478 -1.49896 -3.42756 0
M  V30 5570 H 540.811 -1.95412 -4.51747 0
M  V30 5571 N 542.463 1.3308 -0.844243 0
M  V30 5572 C 543.74 1.92178 -0.364261 0
M  V30 5573 C 544.12 1.76961 1.15101 0
M  V30 5574 O 543.468 1.16128 1.9679 0
M  V30 5575 C 543.678 3.393 -0.817106 0
M  V30 5576 C 545.026 4.16444 -0.828236 0
M  V30 5577 O 546.05 3.47975 -0.761062 0
M  V30 5578 O 544.909 5.38685 -0.920926 0
M  V30 5579 H 542.003 0.820411 -0.10419 0
M  V30 5580 H 544.549 1.41918 -0.930453 0
M  V30 5581 H 543.321 3.44272 -1.85991 0
M  V30 5582 H 542.944 3.96947 -0.227785 0
M  V30 5583 N 543.941 0.601185 1.45683 0
M  V30 5584 C 545.189 0.0936957 2.01883 0
M  V30 5585 C 545.51 -1.2779 1.47291 0
M  V30 5586 O 544.78 -1.84279 0.664691 0
M  V30 5587 H 543.36 0.0316466 0.746329 0
M  V30 5588 H 546.022 0.781137 1.78562 0
M  V30 5589 H 545.118 0.0386297 3.12076 0
M  V30 5590 N 545.419 -1.53889 0.339982 0
M  V30 5591 C 546.644 -2.05741 -0.261798 0
M  V30 5592 C 547.069 -1.21354 -1.43718 0
M  V30 5593 O 546.427 -0.22645 -1.7988 0
M  V30 5594 C 546.475 -3.54542 -0.658228 0
M  V30 5595 O 545.579 -3.7302 -1.75869 0
M  V30 5596 H 544.92 -0.662529 -0.0441672 0
M  V30 5597 H 547.45 -1.98568 0.493161 0
M  V30 5598 H 547.46 -3.9711 -0.936368 0
M  V30 5599 H 546.135 -4.15412 0.201358 0
M  V30 5600 H 544.712 -3.42355 -1.47809 0
M  V30 5601 N 546.897 -0.0685191 -1.57451 0
M  V30 5602 C 547.807 0.914677 -2.16034 0
M  V30 5603 C 548.823 1.32938 -1.12265 0
M  V30 5604 O 549.999 1.40275 -1.44516 0
M  V30 5605 C 547.064 2.16519 -2.70777 0
M  V30 5606 C 546.125 1.80721 -3.89408 0
M  V30 5607 C 545.358 2.9981 -4.41531 0
M  V30 5608 O 545.581 4.13727 -3.92666 0
M  V30 5609 O 544.515 2.79817 -5.32903 0
M  V30 5610 H 548.341 0.446364 -3.00402 0
M  V30 5611 H 545.926 0.154367 -1.486 0
M  V30 5612 H 547.808 2.89856 -3.05878 0
M  V30 5613 H 546.483 2.62454 -1.89471 0
M  V30 5614 H 545.39 1.04646 -3.59166 0
M  V30 5615 H 546.723 1.39571 -4.71997 0
M  V30 5616 N 548.375 1.56261 0.205012 0
M  V30 5617 C 549.285 1.96944 1.27476 0
M  V30 5618 C 550.301 0.875636 1.50362 0
M  V30 5619 O 551.477 1.18058 1.6317 0
M  V30 5620 C 548.542 2.29219 2.60115 0
M  V30 5621 C 547.603 3.52255 2.45387 0
M  V30 5622 C 546.836 3.8298 3.71701 0
M  V30 5623 O 547.059 3.15138 4.75441 0
M  V30 5624 O 545.993 4.76435 3.67823 0
M  V30 5625 H 549.819 2.88144 0.959527 0
M  V30 5626 H 547.404 1.43686 0.409217 0
M  V30 5627 H 549.286 2.51098 3.3842 0
M  V30 5628 H 547.961 1.4119 2.91285 0
M  V30 5629 H 546.868 3.35635 1.65227 0
M  V30 5630 H 548.201 4.40719 2.19152 0
M  V30 5631 N 549.853 -0.472356 1.50355 0
M  V30 5632 C 551.1 -1.22453 1.61281 0
M  V30 5633 C 551.428 -1.91972 0.31256 0
M  V30 5634 O 550.683 -1.82696 -0.701475 0
M  V30 5635 C 550.982 -2.29257 2.74182 0
M  V30 5636 C 550.648 -1.76999 4.14708 0
M  V30 5637 C 549.31 -1.62467 4.52944 0
M  V30 5638 C 551.662 -1.38215 5.0254 0
M  V30 5639 C 548.99 -1.07574 5.76754 0
M  V30 5640 C 551.342 -0.847638 6.26895 0
M  V30 5641 C 550.006 -0.688946 6.63935 0
M  V30 5642 H 549.276 -0.448087 0.590168 0
M  V30 5643 H 551.923 -0.520744 1.84284 0
M  V30 5644 H 550.228 -3.05538 2.45263 0
M  V30 5645 H 551.925 -2.87212 2.7984 0
M  V30 5646 H 548.515 -1.89276 3.84542 0
M  V30 5647 H 552.699 -1.48276 4.73633 0
M  V30 5648 H 547.955 -0.940237 6.04127 0
M  V30 5649 H 552.129 -0.538455 6.94315 0
M  V30 5650 H 549.756 -0.261435 7.5975 0
M  V30 5651 N 551.331 -1.39911 -0.725443 0
M  V30 5652 C 552.241 -1.41688 -1.8698 0
M  V30 5653 C 553.257 -0.310579 -1.71206 0
M  V30 5654 O 554.433 -0.55359 -1.93642 0
M  V30 5655 C 551.498 -1.26811 -3.22676 0
M  V30 5656 C 550.559 -2.47497 -3.50776 0
M  V30 5657 C 549.792 -2.3332 -4.79997 0
M  V30 5658 O 550.015 -1.34175 -5.54394 0
M  V30 5659 O 548.949 -3.22498 -5.08211 0
M  V30 5660 H 552.775 -2.38171 -1.88436 0
M  V30 5661 H 550.36 -1.21128 -0.874548 0
M  V30 5662 H 552.242 -1.20684 -4.03749 0
M  V30 5663 H 550.917 -0.334289 -3.21969 0
M  V30 5664 H 549.824 -2.59201 -2.69751 0
M  V30 5665 H 551.157 -3.39606 -3.5627 0
M  V30 5666 N 552.809 0.956637 -1.25245 0
M  V30 5667 C 554.037 1.73571 -1.12608 0
M  V30 5668 C 554.452 1.86063 0.320324 0
M  V30 5669 O 553.809 1.35691 1.22042 0
M  V30 5670 C 553.86 3.15053 -1.77268 0
M  V30 5671 O 553.581 3.03174 -3.16255 0
M  V30 5672 C 555.082 4.09248 -1.70386 0
M  V30 5673 H 552.302 0.543955 -0.392879 0
M  V30 5674 H 554.846 1.20031 -1.65568 0
M  V30 5675 H 553.001 3.65543 -1.28284 0
M  V30 5676 H 553.415 3.9241 -3.48015 0
M  V30 5677 H 554.889 5.06138 -2.20291 0
M  V30 5678 H 555.366 4.34102 -0.667239 0
M  V30 5679 H 555.972 3.64672 -2.18849 0
M  V30 5680 N 554.287 1.06798 1.15896 0
M  V30 5681 C 555.536 0.782796 1.8589 0
M  V30 5682 C 555.849 -0.693498 1.82893 0
M  V30 5683 O 557.055 -1.09325 2.48516 0
M  V30 5684 C 555.511 1.3502 3.33613 0
M  V30 5685 C 555.119 2.8571 3.45071 0
M  V30 5686 C 556.863 1.14278 4.08829 0
M  V30 5687 C 554.77 3.35669 4.86909 0
M  V30 5688 H 553.7 0.289149 0.696354 0
M  V30 5689 H 556.351 1.28734 1.30766 0
M  V30 5690 H 554.733 0.773407 3.88374 0
M  V30 5691 H 555.907 3.49385 3.00445 0
M  V30 5692 H 554.222 3.05178 2.83294 0
M  V30 5693 H 556.819 1.49087 5.13495 0
M  V30 5694 H 557.162 0.0814575 4.1622 0
M  V30 5695 H 557.695 1.68563 3.60321 0
M  V30 5696 H 554.434 4.41302 4.84698 0
M  V30 5697 H 553.954 2.76745 5.32139 0
M  V30 5698 H 555.633 3.31296 5.55745 0
M  V30 5699 N 555.766 -1.3263 0.851289 0
M  V30 5700 C 557.012 -1.9766 0.453694 0
M  V30 5701 C 557.345 -1.67225 -0.987396 0
M  V30 5702 O 556.62 -0.958693 -1.69232 0
M  V30 5703 C 556.903 -3.5344 0.68936 0
M  V30 5704 C 556.756 -3.93517 2.17862 0
M  V30 5705 C 558.075 -4.39866 0.143555 0
M  V30 5706 H 555.194 -0.717989 0.166314 0
M  V30 5707 H 557.836 -1.57068 1.06909 0
M  V30 5708 H 555.986 -3.88147 0.165546 0
M  V30 5709 H 557.658 -3.69006 2.76826 0
M  V30 5710 H 555.901 -3.42798 2.65841 0
M  V30 5711 H 556.572 -5.02065 2.29422 0
M  V30 5712 H 559.048 -4.11875 0.591451 0
M  V30 5713 H 557.924 -5.47858 0.338043 0
M  V30 5714 H 558.185 -4.31696 -0.953466 0
M  V30 5715 N 557.244 -0.608902 -1.45362 0
M  V30 5716 C 558.174 0.0964526 -2.33301 0
M  V30 5717 C 559.155 0.857444 -1.46908 0
M  V30 5718 O 560.34 0.827735 -1.75676 0
M  V30 5719 C 557.47 1.09354 -3.29635 0
M  V30 5720 C 556.424 0.445676 -4.25673 0
M  V30 5721 C 555.75 1.5511 -5.11708 0
M  V30 5722 C 557.05 -0.633972 -5.18438 0
M  V30 5723 H 558.744 -0.637829 -2.92527 0
M  V30 5724 H 556.29 -0.308178 -1.40664 0
M  V30 5725 H 558.243 1.59556 -3.90025 0
M  V30 5726 H 556.967 1.85843 -2.6857 0
M  V30 5727 H 555.626 -0.0354897 -3.66583 0
M  V30 5728 H 555.274 2.30631 -4.4701 0
M  V30 5729 H 554.974 1.12311 -5.76767 0
M  V30 5730 H 556.498 2.05537 -5.74967 0
M  V30 5731 H 557.912 -0.215974 -5.72893 0
M  V30 5732 H 556.309 -0.983789 -5.91981 0
M  V30 5733 H 557.379 -1.51005 -4.60788 0
M  V30 5734 N 558.722 1.53707 -0.348139 0
M  V30 5735 C 559.669 2.25173 0.506518 0
M  V30 5736 C 560.639 1.25174 1.09182 0
M  V30 5737 O 561.824 1.53917 1.12757 0
M  V30 5738 C 558.964 3.03141 1.64923 0
M  V30 5739 C 558.077 4.18002 1.0908 0
M  V30 5740 C 557.212 4.83447 2.20119 0
M  V30 5741 C 556.251 5.90369 1.61651 0
M  V30 5742 N 555.388 6.49575 2.66451 0
M  V30 5743 H 560.228 2.97799 -0.109452 0
M  V30 5744 H 557.765 1.46953 -0.0657866 0
M  V30 5745 H 559.723 3.46607 2.32205 0
M  V30 5746 H 558.353 2.32803 2.23612 0
M  V30 5747 H 557.405 3.79145 0.308783 0
M  V30 5748 H 558.717 4.94892 0.623178 0
M  V30 5749 H 557.871 5.30008 2.95257 0
M  V30 5750 H 556.61 4.05991 2.70227 0
M  V30 5751 H 555.615 5.43186 0.850209 0
M  V30 5752 H 556.84 6.69735 1.1239 0
M  V30 5753 H 554.786 5.74981 3.15805 0
M  V30 5754 H 554.703 7.21952 2.24325 0
M  V30 5755 H 555.971 7.00789 3.41344 0
M  V30 5756 N 560.2 0.0768682 1.57412 0
M  V30 5757 C 561.163 -0.873949 2.11884 0
M  V30 5758 C 562.163 -1.22301 1.04398 0
M  V30 5759 O 563.353 -1.15545 1.30365 0
M  V30 5760 C 560.485 -2.17575 2.62438 0
M  V30 5761 H 561.678 -0.401278 2.97203 0
M  V30 5762 H 559.231 -0.171904 1.55352 0
M  V30 5763 H 559.966 -2.69368 1.80587 0
M  V30 5764 H 559.751 -1.93534 3.41009 0
M  V30 5765 H 561.241 -2.85631 3.04639 0
M  V30 5766 N 561.678 -1.56367 -0.196722 0
M  V30 5767 C 562.608 -1.97442 -1.24655 0
M  V30 5768 C 563.589 -0.846147 -1.47561 0
M  V30 5769 O 564.774 -1.11035 -1.59326 0
M  V30 5770 C 561.904 -2.31253 -2.59112 0
M  V30 5771 C 560.858 -3.46804 -2.50821 0
M  V30 5772 C 560.184 -3.66286 -3.89536 0
M  V30 5773 C 561.484 -4.8104 -2.03465 0
M  V30 5774 H 563.178 -2.85388 -0.905216 0
M  V30 5775 H 560.724 -1.37304 -0.434002 0
M  V30 5776 H 562.677 -2.58583 -3.32736 0
M  V30 5777 H 561.401 -1.40188 -2.94983 0
M  V30 5778 H 560.06 -3.19563 -1.79653 0
M  V30 5779 H 559.708 -2.72555 -4.22756 0
M  V30 5780 H 559.408 -4.4402 -3.84864 0
M  V30 5781 H 560.932 -3.9599 -4.64784 0
M  V30 5782 H 562.346 -5.07411 -2.66846 0
M  V30 5783 H 560.743 -5.62232 -2.09798 0
M  V30 5784 H 561.813 -4.74732 -0.98781 0
M  V30 5785 N 563.156 0.464375 -1.50603 0
M  V30 5786 C 564.402 1.21776 -1.62168 0
M  V30 5787 C 564.735 1.91476 -0.324154 0
M  V30 5788 O 564.01 1.8242 0.674782 0
M  V30 5789 C 564.293 2.25614 -2.80661 0
M  V30 5790 C 564.146 1.60175 -4.20314 0
M  V30 5791 C 565.465 3.26862 -2.94702 0
M  V30 5792 H 562.584 0.44137 -0.590222 0
M  V30 5793 H 565.226 0.510623 -1.8301 0
M  V30 5794 H 563.376 2.85923 -2.63021 0
M  V30 5795 H 565.048 1.03411 -4.4956 0
M  V30 5796 H 563.291 0.904697 -4.24261 0
M  V30 5797 H 563.962 2.35665 -4.99165 0
M  V30 5798 H 566.438 2.76582 -3.10872 0
M  V30 5799 H 565.314 3.96839 -3.79223 0
M  V30 5800 H 565.575 3.91382 -2.05603 0
M  V30 5801 N 564.634 1.40294 0.718013 0
M  V30 5802 C 565.581 1.40367 1.8321 0
M  V30 5803 C 566.551 0.260952 1.64037 0
M  V30 5804 O 567.736 0.458648 1.85205 0
M  V30 5805 C 564.876 1.26965 3.20895 0
M  V30 5806 C 563.989 2.50922 3.51656 0
M  V30 5807 C 563.124 2.29981 4.78834 0
M  V30 5808 C 562.163 3.49527 5.02491 0
M  V30 5809 N 561.3 3.27796 6.20882 0
M  V30 5810 H 566.14 2.35593 1.82482 0
M  V30 5811 H 563.677 1.17012 0.891444 0
M  V30 5812 H 565.635 1.17202 4.00399 0
M  V30 5813 H 564.265 0.353591 3.20858 0
M  V30 5814 H 563.317 2.71223 2.66725 0
M  V30 5815 H 564.629 3.39913 3.65048 0
M  V30 5816 H 563.783 2.17558 5.66351 0
M  V30 5817 H 562.522 1.38411 4.67647 0
M  V30 5818 H 561.527 3.6243 4.1343 0
M  V30 5819 H 562.752 4.42021 5.15553 0
M  V30 5820 H 560.698 2.38906 6.1095 0
M  V30 5821 H 560.615 4.10351 6.34939 0
M  V30 5822 H 561.883 3.19101 7.11193 0
M  V30 5823 N 566.112 -0.949982 1.2575 0
M  V30 5824 C 567.075 -2.02894 1.06615 0
M  V30 5825 C 568.075 -1.60791 0.0173905 0
M  V30 5826 O 569.265 -1.72249 0.260003 0
M  V30 5827 C 566.397 -3.35219 0.619751 0
M  V30 5828 H 567.59 -2.21302 2.02399 0
M  V30 5829 H 565.143 -1.12772 1.08223 0
M  V30 5830 H 565.878 -3.22508 -0.340486 0
M  V30 5831 H 565.663 -3.67129 1.37692 0
M  V30 5832 H 567.153 -4.14505 0.507443 0
M  V30 5833 N 567.59 -1.07411 -1.15328 0
M  V30 5834 C 568.83 -0.807011 -1.87794 0
M  V30 5835 C 569.194 0.654987 -1.80482 0
M  V30 5836 O 570.395 1.03716 -2.47985 0
M  V30 5837 C 568.666 -1.30198 -3.32841 0
M  V30 5838 S 570.225 -1.16564 -4.23034 0
M  V30 5839 H 567.043 -0.292429 -0.648079 0
M  V30 5840 H 569.645 -1.37334 -1.39139 0
M  V30 5841 H 568.349 -2.3607 -3.35707 0
M  V30 5842 H 567.88 -0.730881 -3.86551 0
M  V30 5843 H 569.895 -0.103557 -4.96092 0
M  V30 5844 N 569.068 1.32177 -0.85831 0
M  V30 5845 C 570.316 1.96735 -0.462568 0
M  V30 5846 C 570.637 1.6824 0.985911 0
M  V30 5847 O 569.907 0.991564 1.68952 0
M  V30 5848 H 568.487 0.727849 -0.168064 0
M  V30 5849 H 571.149 1.61195 -1.09554 0
M  V30 5850 H 570.245 3.06068 -0.610647 0
M  V30 5851 N 570.547 0.616602 1.45037 0
M  V30 5852 C 571.772 0.120192 2.07051 0
M  V30 5853 C 572.197 -1.19008 1.45666 0
M  V30 5854 O 571.555 -1.7267 0.552692 0
M  V30 5855 C 571.603 0.00354901 3.606 0
M  V30 5856 O 570.707 -1.04431 3.98958 0
M  V30 5857 H 570.048 0.0781599 0.659384 0
M  V30 5858 H 572.578 0.849167 1.86146 0
M  V30 5859 H 572.588 -0.191754 4.07549 0
M  V30 5860 H 571.263 0.960239 4.04663 0
M  V30 5861 H 569.84 -0.824749 3.63665 0
M  V30 5862 N 572.025 -1.5352 0.356285 0
M  V30 5863 C 573.25 -2.06007 -0.239961 0
M  V30 5864 C 573.675 -1.22872 -1.42422 0
M  V30 5865 O 573.033 -0.245516 -1.7963 0
M  V30 5866 C 573.081 -3.5522 -0.620587 0
M  V30 5867 O 572.185 -3.74864 -1.71902 0
M  V30 5868 H 571.526 -0.662961 -0.0371377 0
M  V30 5869 H 574.056 -1.98033 0.514194 0
M  V30 5870 H 574.066 -3.98081 -0.894197 0
M  V30 5871 H 572.741 -4.15175 0.245407 0
M  V30 5872 H 571.318 -3.43904 -1.44169 0
M  V30 5873 N 573.503 -0.0852151 -1.57369 0
M  V30 5874 C 574.413 0.891712 -2.16992 0
M  V30 5875 C 575.429 1.3174 -1.13669 0
M  V30 5876 O 576.605 1.38735 -1.45995 0
M  V30 5877 C 573.67 2.13635 -2.73059 0
M  V30 5878 C 572.731 1.7658 -3.91303 0
M  V30 5879 C 571.964 2.95111 -4.44686 0
M  V30 5880 O 572.187 4.09539 -3.97032 0
M  V30 5881 O 571.121 2.74149 -5.35841 0
M  V30 5882 H 574.947 0.414477 -3.00858 0
M  V30 5883 H 572.532 0.138598 -1.48756 0
M  V30 5884 H 574.414 2.86595 -3.08935 0
M  V30 5885 H 573.089 2.6043 -1.92244 0
M  V30 5886 H 571.996 1.00831 -3.60255 0
M  V30 5887 H 573.329 1.34557 -4.7345 0
M  V30 5888 N 574.981 1.5647 0.188427 0
M  V30 5889 C 575.944 1.9421 1.21718 0
M  V30 5890 C 576.944 0.823901 1.38089 0
M  V30 5891 O 578.134 1.09122 1.35787 0
M  V30 5892 C 575.266 2.22197 2.58537 0
M  V30 5893 H 576.459 2.86252 0.894418 0
M  V30 5894 H 574.012 1.50263 0.430211 0
M  V30 5895 H 574.747 1.32814 2.95856 0
M  V30 5896 H 574.532 3.03688 2.48025 0
M  V30 5897 H 576.022 2.52376 3.3271 0
M  V30 5898 N 576.459 -0.456382 1.50847 0
M  V30 5899 C 577.684 -1.2349 1.66628 0
M  V30 5900 C 578.109 -1.84715 0.355254 0
M  V30 5901 O 577.467 -1.67961 -0.682559 0
M  V30 5902 C 577.515 -2.30865 2.77009 0
M  V30 5903 O 576.619 -3.35882 2.39285 0
M  V30 5904 H 575.96 -0.36266 0.556214 0
M  V30 5905 H 578.49 -0.541374 1.97308 0
M  V30 5906 H 578.5 -2.75949 3.00526 0
M  V30 5907 H 577.175 -1.85677 3.72152 0
M  V30 5908 H 575.752 -2.96406 2.26269 0
M  V30 5909 N 577.937 -1.40673 -0.710563 0
M  V30 5910 C 578.9 -1.4108 -1.80635 0
M  V30 5911 C 579.9 -0.303783 -1.57904 0
M  V30 5912 O 581.09 -0.562937 -1.64853 0
M  V30 5913 C 578.222 -1.20748 -3.18799 0
M  V30 5914 H 579.415 -2.38612 -1.81671 0
M  V30 5915 H 576.968 -1.26595 -0.916704 0
M  V30 5916 H 577.703 -0.239964 -3.23411 0
M  V30 5917 H 577.488 -2.00941 -3.36698 0
M  V30 5918 H 578.978 -1.23833 -3.98817 0
M  V30 5919 N 579.415 0.9433 -1.26252 0
M  V30 5920 C 580.645 1.72117 -1.14277 0
M  V30 5921 C 581.053 1.86726 0.304944 0
M  V30 5922 O 580.396 1.3727 1.22076 0
M  V30 5923 C 580.458 3.14778 -1.73651 0
M  V30 5924 C 580.122 3.23561 -3.22734 0
M  V30 5925 C 581.119 3.07001 -4.19579 0
M  V30 5926 C 578.804 3.47019 -3.63157 0
M  V30 5927 C 580.798 3.13763 -5.54826 0
M  V30 5928 C 578.485 3.53416 -4.98538 0
M  V30 5929 C 579.483 3.36804 -5.94182 0
M  V30 5930 O 579.171 3.42906 -7.27098 0
M  V30 5931 H 578.903 0.545781 -0.398873 0
M  V30 5932 H 581.457 1.19123 -1.67328 0
M  V30 5933 H 579.687 3.69186 -1.1506 0
M  V30 5934 H 581.376 3.74469 -1.56613 0
M  V30 5935 H 582.142 2.88736 -3.89688 0
M  V30 5936 H 578.021 3.59006 -2.89199 0
M  V30 5937 H 581.565 3.00714 -6.29458 0
M  V30 5938 H 577.462 3.71201 -5.28091 0
M  V30 5939 H 578.23 3.59463 -7.35342 0
M  V30 5940 N 580.893 1.08022 1.14757 0
M  V30 5941 C 581.823 0.728248 2.21853 0
M  V30 5942 C 582.804 -0.287486 1.67653 0
M  V30 5943 O 583.989 -0.158727 1.9355 0
M  V30 5944 C 581.119 0.132549 3.47047 0
M  V30 5945 C 580.073 1.07619 4.14249 0
M  V30 5946 C 579.399 0.342907 5.33599 0
M  V30 5947 C 580.699 2.41268 4.63235 0
M  V30 5948 H 582.393 1.62365 2.51551 0
M  V30 5949 H 579.939 0.782125 1.20908 0
M  V30 5950 H 581.892 -0.125665 4.21213 0
M  V30 5951 H 580.616 -0.797971 3.16702 0
M  V30 5952 H 579.275 1.31944 3.42033 0
M  V30 5953 H 578.923 -0.59129 4.99513 0
M  V30 5954 H 578.623 0.971955 5.79506 0
M  V30 5955 H 580.147 0.0926538 6.1053 0
M  V30 5956 H 581.561 2.21232 5.28894 0
M  V30 5957 H 579.958 2.9983 5.19829 0
M  V30 5958 H 581.028 3.03079 3.78512 0
M  V30 5959 N 582.371 -1.3172 0.865308 0
M  V30 5960 C 583.648 -1.91574 0.394789 0
M  V30 5961 C 584.028 -1.78769 -1.12271 0
M  V30 5962 O 583.376 -1.19245 -1.94918 0
M  V30 5963 C 583.586 -3.37957 0.870982 0
M  V30 5964 C 584.934 -4.15073 0.894384 0
M  V30 5965 O 585.958 -3.4672 0.816325 0
M  V30 5966 O 584.817 -5.37151 1.00651 0
M  V30 5967 H 581.911 -0.818649 0.117229 0
M  V30 5968 H 584.457 -1.4042 0.952913 0
M  V30 5969 H 583.229 -3.41269 1.91444 0
M  V30 5970 H 582.852 -3.96534 0.290907 0
M  V30 5971 N 583.85 -0.624285 -1.44708 0
M  V30 5972 C 584.76 0.0861083 -2.34442 0
M  V30 5973 C 585.776 0.84291 -1.5222 0
M  V30 5974 O 586.952 0.796723 -1.84971 0
M  V30 5975 C 584.017 1.05999 -3.30099 0
M  V30 5976 C 583.077 0.303316 -4.28227 0
M  V30 5977 C 582.311 1.23081 -5.19314 0
M  V30 5978 O 582.534 2.46929 -5.14181 0
M  V30 5979 O 581.468 0.71883 -5.97592 0
M  V30 5980 H 585.293 -0.651756 -2.96624 0
M  V30 5981 H 582.879 -0.384493 -1.44368 0
M  V30 5982 H 584.76 1.62046 -3.88997 0
M  V30 5983 H 583.436 1.77859 -2.70459 0
M  V30 5984 H 582.343 -0.300033 -3.72895 0
M  V30 5985 H 583.676 -0.375123 -4.90768 0
M  V30 5986 N 585.328 1.53329 -0.364422 0
M  V30 5987 C 586.258 2.28627 0.474543 0
M  V30 5988 C 587.239 1.31009 1.08492 0
M  V30 5989 O 588.424 1.59878 1.10239 0
M  V30 5990 C 585.554 3.07465 1.61501 0
M  V30 5991 C 584.508 4.1276 1.13194 0
M  V30 5992 C 583.834 4.79674 2.36255 0
M  V30 5993 C 585.134 5.21847 0.217507 0
M  V30 5994 H 586.828 2.99005 -0.153656 0
M  V30 5995 H 584.374 1.43803 -0.0753406 0
M  V30 5996 H 586.327 3.58889 2.20855 0
M  V30 5997 H 585.051 2.34775 2.27042 0
M  V30 5998 H 583.71 3.62281 0.56109 0
M  V30 5999 H 583.358 4.03557 3.00251 0
M  V30 6000 H 583.058 5.50827 2.04606 0
M  V30 6001 H 584.582 5.33892 2.96297 0
M  V30 6002 H 585.996 5.6878 0.718493 0
M  V30 6003 H 584.393 6.00099 -0.00806408 0
M  V30 6004 H 585.463 4.7921 -0.740653 0
M  V30 6005 N 586.806 0.0935595 1.57322 0
M  V30 6006 C 588.222 -0.263091 1.57417 0
M  V30 6007 C 588.422 -1.68526 1.1046 0
M  V30 6008 O 587.478 -2.40139 0.780357 0
M  V30 6009 C 588.791 -0.0529201 3.00653 0
M  V30 6010 C 590.339 -0.120788 3.12767 0
M  V30 6011 C 590.814 0.0613707 4.57959 0
M  V30 6012 N 592.305 0.00648534 4.632 0
M  V30 6013 C 593.04 0.122699 5.73269 0
M  V30 6014 N 592.536 0.29366 6.92177 0
M  V30 6015 N 594.329 0.0640787 5.62063 0
M  V30 6016 H 586.48 1.02277 1.86154 0
M  V30 6017 H 588.743 0.4007 0.859153 0
M  V30 6018 H 588.449 0.929279 3.39201 0
M  V30 6019 H 588.323 -0.795899 3.68708 0
M  V30 6020 H 590.71 -1.09349 2.74093 0
M  V30 6021 H 590.791 0.653656 2.47307 0
M  V30 6022 H 590.435 1.03093 4.97327 0
M  V30 6023 H 590.365 -0.732748 5.21477 0
M  V30 6024 H 592.856 -0.123173 3.77699 0
M  V30 6025 H 593.169 0.37389 7.71895 0
M  V30 6026 H 591.514 0.329307 6.94219 0
M  V30 6027 H 594.705 -0.0683396 4.6805 0
M  V30 6028 H 594.878 0.158097 6.47807 0
M  V30 6029 N 588.284 -1.56567 -0.180126 0
M  V30 6030 C 589.214 -1.98753 -1.22553 0
M  V30 6031 C 590.195 -0.86175 -1.46656 0
M  V30 6032 O 591.38 -1.12719 -1.58139 0
M  V30 6033 C 588.51 -2.33988 -2.56645 0
M  V30 6034 C 587.464 -3.49445 -2.47128 0
M  V30 6035 C 586.79 -3.70397 -3.8563 0
M  V30 6036 C 588.09 -4.83171 -1.98352 0
M  V30 6037 H 589.784 -2.86332 -0.874896 0
M  V30 6038 H 587.33 -1.37757 -0.419414 0
M  V30 6039 H 589.283 -2.62097 -3.29974 0
M  V30 6040 H 588.007 -1.43309 -2.93479 0
M  V30 6041 H 586.666 -3.2145 -1.76254 0
M  V30 6042 H 586.314 -2.77023 -4.19842 0
M  V30 6043 H 586.014 -4.48077 -3.80132 0
M  V30 6044 H 587.538 -4.00897 -4.60558 0
M  V30 6045 H 588.952 -5.10213 -2.61449 0
M  V30 6046 H 587.349 -5.64425 -2.03823 0
M  V30 6047 H 588.419 -4.75753 -0.937402 0
M  V30 6048 N 589.762 0.448376 -1.51087 0
M  V30 6049 C 590.725 1.52588 -1.71025 0
M  V30 6050 C 591.725 1.49958 -0.580442 0
M  V30 6051 O 592.915 1.52176 -0.847833 0
M  V30 6052 C 590.047 2.92163 -1.75652 0
M  V30 6053 H 591.24 1.36218 -2.67179 0
M  V30 6054 H 588.793 0.676313 -1.4091 0
M  V30 6055 H 589.528 3.13951 -0.812724 0
M  V30 6056 H 589.313 2.95478 -2.57751 0
M  V30 6057 H 590.803 3.70349 -1.92953 0
M  V30 6058 N 591.24 1.41047 0.703093 0
M  V30 6059 C 592.486 1.40207 1.46526 0
M  V30 6060 C 592.819 0.00847763 1.94198 0
M  V30 6061 O 592.094 -0.962437 1.69019 0
M  V30 6062 C 592.377 2.40238 2.6825 0
M  V30 6063 C 592.23 3.88674 2.26391 0
M  V30 6064 C 593.549 2.37627 3.70434 0
M  V30 6065 H 590.668 0.510594 0.531472 0
M  V30 6066 H 593.31 1.72271 0.801422 0
M  V30 6067 H 591.46 2.13026 3.24888 0
M  V30 6068 H 593.132 4.2676 1.75138 0
M  V30 6069 H 591.375 4.03903 1.58255 0
M  V30 6070 H 592.046 4.542 3.13698 0
M  V30 6071 H 594.522 2.61759 3.23452 0
M  V30 6072 H 593.398 3.09645 4.53223 0
M  V30 6073 H 593.659 1.39223 4.19606 0
M  V30 6074 N 592.718 -0.936591 1.26751 0
M  V30 6075 C 593.681 -2.01752 1.08761 0
M  V30 6076 C 594.681 -1.60763 0.0344435 0
M  V30 6077 O 595.871 -1.71963 0.278258 0
M  V30 6078 C 593.003 -3.34543 0.655271 0
M  V30 6079 H 594.196 -2.19143 2.04735 0
M  V30 6080 H 591.749 -1.11618 1.09413 0
M  V30 6081 H 592.484 -3.22851 -0.30626 0
M  V30 6082 H 592.269 -3.65647 1.41578 0
M  V30 6083 H 593.759 -4.13944 0.551378 0
M  V30 6084 N 594.196 -1.08629 -1.14182 0
M  V30 6085 C 595.442 -0.828415 -1.85766 0
M  V30 6086 C 595.797 0.638947 -1.81481 0
M  V30 6087 O 595.09 1.46386 -1.23619 0
M  V30 6088 C 595.284 -1.28734 -3.3341 0
M  V30 6089 C 595.113 -2.79778 -3.52071 0
M  V30 6090 C 593.883 -3.47554 -3.66789 0
M  V30 6091 C 596.081 -3.77945 -3.48801 0
M  V30 6092 N 594.063 -4.87107 -3.73631 0
M  V30 6093 C 595.434 -5.03406 -3.61914 0
M  V30 6094 C 597.489 -3.70917 -3.32152 0
M  V30 6095 C 596.192 -6.22673 -3.60098 0
M  V30 6096 C 598.218 -4.89662 -3.31641 0
M  V30 6097 C 597.58 -6.13962 -3.45296 0
M  V30 6098 H 593.679 -0.355884 -0.696327 0
M  V30 6099 H 596.263 -1.38508 -1.36834 0
M  V30 6100 H 594.434 -0.75822 -3.80927 0
M  V30 6101 H 596.166 -0.975649 -3.92764 0
M  V30 6102 H 592.921 -2.97972 -3.68116 0
M  V30 6103 H 593.345 -5.59775 -3.80763 0
M  V30 6104 H 597.987 -2.75749 -3.20504 0
M  V30 6105 H 595.705 -7.1815 -3.70522 0
M  V30 6106 H 599.291 -4.85914 -3.19968 0
M  V30 6107 H 598.171 -7.04307 -3.44851 0
M  V30 6108 N 595.674 1.31259 -0.872281 0
M  V30 6109 C 596.622 2.30404 -0.318897 0
M  V30 6110 C 597.616 1.5962 0.567267 0
M  V30 6111 O 598.822 1.74204 0.453111 0
M  V30 6112 H 595.197 0.747243 -0.0844474 0
M  V30 6113 H 597.168 2.74549 -1.16899 0
M  V30 6114 C 595.917 3.44608 0.462683 0
M  V30 6115 H 595.24 3.99248 -0.209936 0
M  V30 6116 H 596.68 4.1609 0.815187 0
M  V30 6117 C 595.139 2.93456 1.65485 0
M  V30 6118 O 595.669 2.92418 2.75417 0
M  V30 6119 N 593.875 2.49628 1.48776 0
M  V30 6120 H 593.422 2.50671 0.593452 0
M  V30 6121 H 593.38 2.15759 2.28682 0
M  V30 6122 N 597.152 0.631951 1.44375 0
M  V30 6123 C 598.568 0.297642 1.568 0
M  V30 6124 C 598.768 -1.19916 1.61934 0
M  V30 6125 O 597.824 -1.98324 1.56281 0
M  V30 6126 C 599.137 0.990286 2.83926 0
M  V30 6127 C 600.685 0.968507 2.97639 0
M  V30 6128 C 601.16 1.64163 4.27568 0
M  V30 6129 N 602.651 1.60826 4.34384 0
M  V30 6130 C 603.386 2.09802 5.33639 0
M  V30 6131 N 602.882 2.66973 6.39294 0
M  V30 6132 N 604.675 2.00426 5.25153 0
M  V30 6133 H 596.826 1.60353 1.39286 0
M  V30 6134 H 599.089 0.673142 0.667521 0
M  V30 6135 H 598.795 2.04519 2.8612 0
M  V30 6136 H 598.669 0.528563 3.73478 0
M  V30 6137 H 601.056 -0.0779247 2.94997 0
M  V30 6138 H 601.137 1.46873 2.09433 0
M  V30 6139 H 600.781 2.68752 4.3097 0
M  V30 6140 H 600.711 1.11624 5.14634 0
M  V30 6141 H 603.202 1.19087 3.58646 0
M  V30 6142 H 603.515 3.02074 7.11316 0
M  V30 6143 H 601.86 2.71024 6.39977 0
M  V30 6144 H 605.051 1.55483 4.41523 0
M  V30 6145 H 605.224 2.38906 6.02352 0
M  V30 6146 N 598.631 -1.53133 0.372548 0
M  V30 6147 C 599.877 -2.01654 -0.215277 0
M  V30 6148 C 600.21 -1.25914 -1.47849 0
M  V30 6149 O 599.485 -0.3548 -1.91237 0
M  V30 6150 C 599.768 -3.56609 -0.500187 0
M  V30 6151 C 599.621 -4.43036 0.777145 0
M  V30 6152 C 600.94 -4.20528 -1.29786 0
M  V30 6153 H 598.059 -0.732991 -0.0767686 0
M  V30 6154 H 600.701 -1.83335 0.498814 0
M  V30 6155 H 598.851 -3.7235 -1.10852 0
M  V30 6156 H 600.523 -4.39079 1.41447 0
M  V30 6157 H 598.766 -4.10723 1.39604 0
M  V30 6158 H 599.437 -5.49424 0.532662 0
M  V30 6159 H 601.913 -4.08663 -0.783198 0
M  V30 6160 H 600.789 -5.28962 -1.46596 0
M  V30 6161 H 601.05 -3.77051 -2.30836 0
M  V30 6162 N 600.109 -0.101901 -1.5727 0
M  V30 6163 C 601.386 0.602832 -1.86079 0
M  V30 6164 C 601.766 1.85912 -1 0
M  V30 6165 O 601.114 2.28379 -0.0742488 0
M  V30 6166 C 601.324 0.911694 -3.36881 0
M  V30 6167 C 602.672 1.2722 -4.05093 0
M  V30 6168 O 603.696 1.0025 -3.41802 0
M  V30 6169 O 602.555 1.7776 -5.16782 0
M  V30 6170 H 599.649 0.302366 -0.769743 0
M  V30 6171 H 602.195 -0.135113 -1.69161 0
M  V30 6172 H 600.967 0.0207256 -3.91295 0
M  V30 6173 H 600.59 1.70538 -3.59169 0
M  V30 6174 N 601.587 1.56661 0.17182 0
M  V30 6175 C 602.836 1.81158 0.886831 0
M  V30 6176 C 603.149 0.679072 1.83434 0
M  V30 6177 O 604.355 0.808964 2.59168 0
M  V30 6178 C 602.811 3.20999 1.6275 0
M  V30 6179 C 602.419 4.42117 0.723652 0
M  V30 6180 C 604.163 3.5479 2.33076 0
M  V30 6181 C 602.07 5.7298 1.46452 0
M  V30 6182 H 601 0.675543 0.334899 0
M  V30 6183 H 603.651 1.82967 0.139765 0
M  V30 6184 H 602.033 3.13506 2.4193 0
M  V30 6185 H 603.207 4.60789 -0.0311485 0
M  V30 6186 H 601.522 4.16197 0.130063 0
M  V30 6187 H 604.119 4.49806 2.89099 0
M  V30 6188 H 604.462 2.79646 3.08389 0
M  V30 6189 H 604.995 3.63834 1.6084 0
M  V30 6190 H 601.734 6.51152 0.753729 0
M  V30 6191 H 601.254 5.58285 2.19266 0
M  V30 6192 H 602.933 6.14916 2.01214 0
M  V30 6193 N 603.065 -0.440357 1.51323 0
M  V30 6194 C 604.028 -1.51679 1.71832 0
M  V30 6195 C 605.028 -1.49648 0.588386 0
M  V30 6196 O 606.218 -1.51724 0.855891 0
M  V30 6197 C 603.35 -2.91228 1.77199 0
M  V30 6198 H 604.543 -1.34799 2.67898 0
M  V30 6199 H 602.096 -0.66883 1.41267 0
M  V30 6200 H 602.831 -3.13516 0.829363 0
M  V30 6201 H 602.616 -2.94107 2.59314 0
M  V30 6202 H 604.106 -3.69321 1.94915 0
M  V30 6203 N 604.543 -1.41418 -0.695603 0
M  V30 6204 C 605.475 -1.39195 -1.82092 0
M  V30 6205 C 606.488 -0.294132 -1.60121 0
M  V30 6206 O 607.677 -0.555854 -1.69625 0
M  V30 6207 C 604.777 -1.14828 -3.18854 0
M  V30 6208 C 603.95 -2.36649 -3.67853 0
M  V30 6209 C 603.009 -2.08139 -4.83285 0
M  V30 6210 O 602.035 -2.81177 -4.94902 0
M  V30 6211 N 603.237 -1.07162 -5.70523 0
M  V30 6212 H 606.002 -2.36185 -1.84491 0
M  V30 6213 H 603.563 -1.3603 -0.877923 0
M  V30 6214 H 605.555 -0.937075 -3.93702 0
M  V30 6215 H 604.125 -0.264358 -3.1148 0
M  V30 6216 H 603.345 -2.73472 -2.83913 0
M  V30 6217 H 604.633 -3.17816 -3.97329 0
M  V30 6218 H 604.031 -0.467124 -5.63768 0
M  V30 6219 H 602.588 -0.920311 -6.4527 0
M  V30 6220 N 606.021 0.929856 -1.27246 0
M  V30 6221 C 607.246 1.71674 -1.16374 0
M  V30 6222 C 607.671 1.86064 0.276024 0
M  V30 6223 O 607.029 1.3591 1.19992 0
M  V30 6224 C 607.077 3.09526 -1.85003 0
M  V30 6225 O 606.181 3.96142 -1.14653 0
M  V30 6226 H 605.522 0.52629 -0.404863 0
M  V30 6227 H 608.052 1.16381 -1.68276 0
M  V30 6228 H 608.062 3.59852 -1.92276 0
M  V30 6229 H 606.737 2.98369 -2.89739 0
M  V30 6230 H 605.314 3.54584 -1.15433 0
M  V30 6231 N 607.499 1.09233 1.13605 0
M  V30 6232 C 608.409 0.741939 2.22559 0
M  V30 6233 C 609.425 -0.255236 1.72118 0
M  V30 6234 O 610.601 -0.0970747 2.01166 0
M  V30 6235 C 607.666 0.165595 3.46304 0
M  V30 6236 C 606.727 1.21846 4.11645 0
M  V30 6237 C 605.96 0.669526 5.29484 0
M  V30 6238 O 606.183 -0.508228 5.68131 0
M  V30 6239 O 605.117 1.42361 5.84822 0
M  V30 6240 H 608.943 1.65107 2.54899 0
M  V30 6241 H 606.528 0.866584 1.21699 0
M  V30 6242 H 608.41 -0.152592 4.21124 0
M  V30 6243 H 607.085 -0.716573 3.15669 0
M  V30 6244 H 605.992 1.58931 3.38662 0
M  V30 6245 H 607.325 2.07321 4.46407 0
M  V30 6246 N 608.977 -1.30795 0.87923 0
M  V30 6247 C 609.907 -2.30742 0.357796 0
M  V30 6248 C 610.888 -1.60747 -0.556283 0
M  V30 6249 O 612.073 -1.88393 -0.47135 0
M  V30 6250 C 609.203 -3.44583 -0.433555 0
M  V30 6251 C 608.157 -4.26235 0.388251 0
M  V30 6252 C 607.483 -5.32073 -0.529352 0
M  V30 6253 C 608.783 -4.96303 1.62729 0
M  V30 6254 H 610.477 -2.74605 1.19299 0
M  V30 6255 H 608.023 -1.32017 0.575104 0
M  V30 6256 H 609.976 -4.13563 -0.808934 0
M  V30 6257 H 608.7 -2.99511 -1.30234 0
M  V30 6258 H 607.359 -3.58936 0.745695 0
M  V30 6259 H 607.007 -4.83249 -1.39569 0
M  V30 6260 H 606.707 -5.87598 0.0166741 0
M  V30 6261 H 608.231 -6.0391 -0.901373 0
M  V30 6262 H 609.645 -5.5783 1.32283 0
M  V30 6263 H 608.042 -5.61666 2.11309 0
M  V30 6264 H 609.112 -4.22758 2.37494 0
M  V30 6265 N 610.455 -0.639598 -1.44038 0
M  V30 6266 C 611.702 -0.14748 -2.01962 0
M  V30 6267 C 612.03 1.23372 -1.50365 0
M  V30 6268 O 611.285 1.8345 -0.681501 0
M  V30 6269 C 611.584 -0.0925348 -3.5728 0
M  V30 6270 C 611.25 -1.41365 -4.28167 0
M  V30 6271 C 609.912 -1.77545 -4.47248 0
M  V30 6272 C 612.264 -2.2853 -4.68427 0
M  V30 6273 C 609.592 -3.00583 -5.03852 0
M  V30 6274 C 611.944 -3.50846 -5.26393 0
M  V30 6275 C 610.608 -3.8724 -5.43692 0
M  V30 6276 H 609.878 -0.0539666 -0.739032 0
M  V30 6277 H 612.525 -0.827599 -1.72694 0
M  V30 6278 H 610.83 0.670987 -3.86012 0
M  V30 6279 H 612.527 0.304891 -3.99839 0
M  V30 6280 H 609.117 -1.1221 -4.13651 0
M  V30 6281 H 613.301 -2.0187 -4.5339 0
M  V30 6282 H 608.557 -3.28846 -5.15432 0
M  V30 6283 H 612.731 -4.18616 -5.56537 0
M  V30 6284 H 610.358 -4.8266 -5.87319 0
M  V30 6285 N 611.933 1.52934 -0.380664 0
M  V30 6286 C 613.349 1.59571 -0.0302429 0
M  V30 6287 C 613.549 1.39509 1.45394 0
M  V30 6288 O 612.605 1.20777 2.21741 0
M  V30 6289 C 613.918 2.96519 -0.499691 0
M  V30 6290 C 615.466 3.09672 -0.455204 0
M  V30 6291 C 615.941 4.49056 -0.900703 0
M  V30 6292 N 617.432 4.55215 -0.856367 0
M  V30 6293 C 618.167 5.61282 -1.17259 0
M  V30 6294 N 617.663 6.75035 -1.55885 0
M  V30 6295 N 619.456 5.51343 -1.0944 0
M  V30 6296 H 611.607 1.64224 -1.347 0
M  V30 6297 H 613.87 0.771033 -0.551554 0
M  V30 6298 H 613.576 3.16388 -1.53595 0
M  V30 6299 H 613.45 3.77052 0.105789 0
M  V30 6300 H 615.837 2.89504 0.571949 0
M  V30 6301 H 615.918 2.31113 -1.09638 0
M  V30 6302 H 615.562 4.69964 -1.92604 0
M  V30 6303 H 615.492 5.26068 -0.236629 0
M  V30 6304 H 617.983 3.73546 -0.572013 0
M  V30 6305 H 618.296 7.51926 -1.784 0
M  V30 6306 H 616.641 6.76388 -1.59764 0
M  V30 6307 H 619.832 4.61356 -0.791713 0
M  V30 6308 H 620.005 6.33905 -1.34417 0
M  V30 6309 N 613.412 0.11024 1.57214 0
M  V30 6310 C 614.66 -0.548783 1.94506 0
M  V30 6311 C 614.981 -1.67772 0.99386 0
M  V30 6312 O 614.251 -1.9584 0.0485841 0
M  V30 6313 H 612.831 -0.205715 0.718116 0
M  V30 6314 H 615.493 0.177127 1.94093 0
M  V30 6315 H 614.589 -0.949096 2.97319 0
M  V30 6316 N 614.89 -1.56749 -0.16351 0
M  V30 6317 C 616.167 -1.73321 -0.906599 0
M  V30 6318 C 616.547 -0.673779 -2.00059 0
M  V30 6319 O 615.895 0.310121 -2.26386 0
M  V30 6320 C 616.105 -3.168 -1.46419 0
M  V30 6321 C 617.453 -3.77993 -1.93407 0
M  V30 6322 O 618.477 -3.20127 -1.56196 0
M  V30 6323 O 617.336 -4.79615 -2.61976 0
M  V30 6324 H 614.43 -0.708073 -0.427272 0
M  V30 6325 H 616.976 -1.69029 -0.150727 0
M  V30 6326 H 615.748 -3.85396 -0.677189 0
M  V30 6327 H 615.371 -3.2545 -2.28403 0
M  V30 6328 N 616.368 0.432326 -1.51554 0
M  V30 6329 C 617.617 1.17831 -1.63703 0
M  V30 6330 C 617.93 1.92229 -0.36156 0
M  V30 6331 O 619.136 2.69069 -0.362495 0
M  V30 6332 C 617.592 2.14318 -2.89129 0
M  V30 6333 C 617.2 1.45544 -4.23699 0
M  V30 6334 C 618.944 2.89319 -3.10636 0
M  V30 6335 C 616.851 2.40545 -5.4027 0
M  V30 6336 H 615.781 0.443533 -0.60975 0
M  V30 6337 H 618.432 0.444878 -1.78026 0
M  V30 6338 H 616.814 2.91117 -2.68452 0
M  V30 6339 H 617.988 0.742693 -4.54775 0
M  V30 6340 H 616.303 0.826772 -4.0811 0
M  V30 6341 H 618.9 3.60495 -3.94902 0
M  V30 6342 H 619.243 3.50951 -2.23918 0
M  V30 6343 H 619.776 2.19625 -3.31677 0
M  V30 6344 H 616.515 1.83594 -6.29264 0
M  V30 6345 H 616.035 3.09859 -5.13563 0
M  V30 6346 H 617.714 3.01569 -5.72421 0
M  V30 6347 N 617.846 1.41785 0.688094 0
M  V30 6348 C 618.778 1.40159 1.81351 0
M  V30 6349 C 619.791 0.30262 1.59963 0
M  V30 6350 O 620.98 0.564841 1.69327 0
M  V30 6351 C 618.08 1.16517 3.1824 0
M  V30 6352 C 617.253 2.38597 3.66593 0
M  V30 6353 C 616.312 2.10699 4.82174 0
M  V30 6354 O 615.338 2.83798 4.93404 0
M  V30 6355 N 616.54 1.10187 5.69947 0
M  V30 6356 H 619.305 2.3716 1.83236 0
M  V30 6357 H 616.866 1.36494 0.870697 0
M  V30 6358 H 618.858 0.957941 3.93199 0
M  V30 6359 H 617.428 0.280873 3.11336 0
M  V30 6360 H 616.648 2.74974 2.82459 0
M  V30 6361 H 617.936 3.19919 3.95638 0
M  V30 6362 H 617.334 0.497016 5.63512 0
M  V30 6363 H 615.891 0.954518 6.44773 0
M  V30 6364 N 619.324 -0.923095 1.27737 0
M  V30 6365 C 620.57 -1.67409 1.15524 0
M  V30 6366 C 620.925 -1.90124 -0.295072 0
M  V30 6367 O 620.218 -1.48382 -1.21216 0
M  V30 6368 C 620.412 -3.04125 1.8773 0
M  V30 6369 C 620.241 -2.94752 3.39634 0
M  V30 6370 C 619.011 -2.96783 4.0896 0
M  V30 6371 C 621.209 -2.73524 4.35533 0
M  V30 6372 N 619.191 -2.779 5.47398 0
M  V30 6373 C 620.562 -2.63391 5.61271 0
M  V30 6374 C 622.617 -2.58447 4.2557 0
M  V30 6375 C 621.32 -2.3972 6.78179 0
M  V30 6376 C 623.346 -2.36154 5.42204 0
M  V30 6377 C 622.708 -2.26768 6.669 0
M  V30 6378 H 618.807 -0.619196 0.477619 0
M  V30 6379 H 621.391 -1.09094 1.61266 0
M  V30 6380 H 619.562 -3.60545 1.44436 0
M  V30 6381 H 621.294 -3.6819 1.67982 0
M  V30 6382 H 618.049 -3.07186 3.60463 0
M  V30 6383 H 618.473 -2.71576 6.20141 0
M  V30 6384 H 623.115 -2.6446 3.2988 0
M  V30 6385 H 620.833 -2.32447 7.73947 0
M  V30 6386 H 624.419 -2.25367 5.36378 0
M  V30 6387 H 623.299 -2.09751 7.55628 0
M  V30 6388 N 620.802 -1.09834 -1.13024 0
M  V30 6389 C 622.218 -0.828875 -1.36388 0
M  V30 6390 C 622.418 0.554756 -1.93713 0
M  V30 6391 O 621.474 1.30882 -2.15931 0
M  V30 6392 C 622.787 -1.92352 -2.3113 0
M  V30 6393 C 624.335 -1.95124 -2.44735 0
M  V30 6394 C 624.81 -3.03745 -3.42787 0
M  V30 6395 N 626.301 -3.03012 -3.5034 0
M  V30 6396 C 627.036 -3.83699 -4.26101 0
M  V30 6397 N 626.532 -4.74306 -5.04981 0
M  V30 6398 N 628.325 -3.71942 -4.21445 0
M  V30 6399 H 620.476 -1.99029 -0.74169 0
M  V30 6400 H 622.739 -0.864557 -0.388903 0
M  V30 6401 H 622.445 -2.91906 -1.96172 0
M  V30 6402 H 622.319 -1.80536 -3.3119 0
M  V30 6403 H 624.706 -0.962069 -2.78977 0
M  V30 6404 H 624.787 -2.11018 -1.44586 0
M  V30 6405 H 624.431 -4.02878 -3.09276 0
M  V30 6406 H 624.361 -2.85094 -4.42752 0
M  V30 6407 H 626.852 -2.37352 -2.94062 0
M  V30 6408 H 627.165 -5.32446 -5.60108 0
M  V30 6409 H 625.51 -4.78339 -5.04199 0
M  V30 6410 H 628.701 -3.00513 -3.589 0
M  V30 6411 H 628.874 -4.35062 -4.80235 0
M  V30 6412 N 622.28 1.30327 -0.886154 0
M  V30 6413 C 623.505 2.0079 -0.519425 0
M  V30 6414 C 623.93 1.65979 0.885013 0
M  V30 6415 O 623.288 0.877043 1.58675 0
M  V30 6416 C 623.336 3.53686 -0.702758 0
M  V30 6417 O 622.44 4.11637 0.250828 0
M  V30 6418 H 621.781 0.63171 -0.204544 0
M  V30 6419 H 624.311 1.66145 -1.19402 0
M  V30 6420 H 624.321 4.03531 -0.602207 0
M  V30 6421 H 622.996 3.78361 -1.72673 0
M  V30 6422 H 621.573 3.72755 0.103873 0
M  V30 6423 N 623.758 0.647228 1.43697 0
M  V30 6424 C 625.005 0.158188 2.01881 0
M  V30 6425 C 625.333 -1.22573 1.51017 0
M  V30 6426 O 624.588 -1.83086 0.69122 0
M  V30 6427 C 624.887 0.111481 3.57226 0
M  V30 6428 C 624.553 1.43633 4.27411 0
M  V30 6429 C 623.215 1.79915 4.463 0
M  V30 6430 C 625.567 2.31011 4.67208 0
M  V30 6431 C 622.895 3.03251 5.02251 0
M  V30 6432 C 625.247 3.53633 5.24525 0
M  V30 6433 C 623.911 3.90118 5.41631 0
M  V30 6434 H 623.181 0.0578851 0.738736 0
M  V30 6435 H 625.828 0.836746 1.72252 0
M  V30 6436 H 624.133 -0.650507 3.86362 0
M  V30 6437 H 625.83 -0.283682 3.99995 0
M  V30 6438 H 622.42 1.14403 4.1305 0
M  V30 6439 H 626.604 2.04272 4.52313 0
M  V30 6440 H 621.86 3.31575 5.13681 0
M  V30 6441 H 626.034 4.21561 5.5431 0
M  V30 6442 H 623.661 4.85768 5.84751 0
M  V30 6443 N 625.236 -1.5273 0.388769 0
M  V30 6444 C 626.186 -2.23238 -0.463567 0
M  V30 6445 C 627.17 -1.23606 -1.03007 0
M  V30 6446 O 628.362 -1.48945 -0.956261 0
M  V30 6447 C 625.491 -3.04228 -1.5906 0
M  V30 6448 C 624.577 -4.11255 -1.03587 0
M  V30 6449 N 624.968 -5.0538 -0.206038 0
M  V30 6450 C 623.266 -4.26376 -1.30841 0
M  V30 6451 C 623.967 -5.81613 0.100359 0
M  V30 6452 N 622.943 -5.41264 -0.503447 0
M  V30 6453 H 626.745 -2.93367 0.176978 0
M  V30 6454 H 624.259 -1.61188 0.198046 0
M  V30 6455 H 626.256 -3.53277 -2.21362 0
M  V30 6456 H 624.916 -2.35634 -2.23398 0
M  V30 6457 H 625.927 -5.17663 0.156659 0
M  V30 6458 H 622.604 -3.69011 -1.95287 0
M  V30 6459 H 623.994 -6.67442 0.772676 0
M  V30 6460 N 626.714 -0.118576 -1.57153 0
M  V30 6461 C 627.644 0.828436 -2.1831 0
M  V30 6462 C 628.625 1.27758 -1.12303 0
M  V30 6463 O 629.81 1.34026 -1.40537 0
M  V30 6464 C 626.94 2.07876 -2.78217 0
M  V30 6465 C 625.894 1.76742 -3.89803 0
M  V30 6466 C 625.22 3.08801 -4.36516 0
M  V30 6467 C 626.52 1.03606 -5.11921 0
M  V30 6468 H 628.214 0.318824 -2.97698 0
M  V30 6469 H 625.76 0.151911 -1.43196 0
M  V30 6470 H 627.713 2.74584 -3.19659 0
M  V30 6471 H 626.437 2.61161 -1.96118 0
M  V30 6472 H 625.096 1.12424 -3.48936 0
M  V30 6473 H 624.744 3.6002 -3.51276 0
M  V30 6474 H 624.444 2.88743 -5.11763 0
M  V30 6475 H 625.968 3.76627 -4.80608 0
M  V30 6476 H 627.382 1.60467 -5.50385 0
M  V30 6477 H 625.779 0.936454 -5.92748 0
M  V30 6478 H 626.849 0.0227421 -4.84895 0
M  V30 6479 N 628.193 1.56834 0.155195 0
M  V30 6480 C 629.103 2.009 1.21146 0
M  V30 6481 C 630.119 0.923029 1.475 0
M  V30 6482 O 631.295 1.23189 1.59331 0
M  V30 6483 C 628.36 2.37378 2.52691 0
M  V30 6484 C 627.421 3.59883 2.34057 0
M  V30 6485 C 626.654 3.94612 3.59329 0
M  V30 6486 O 626.877 3.30104 4.65175 0
M  V30 6487 O 625.811 4.87895 3.52479 0
M  V30 6488 H 629.637 2.9105 0.867371 0
M  V30 6489 H 627.222 1.44916 0.363298 0
M  V30 6490 H 629.104 2.61737 3.3026 0
M  V30 6491 H 627.779 1.50385 2.86646 0
M  V30 6492 H 626.686 3.40722 1.54465 0
M  V30 6493 H 628.019 4.47468 2.0502 0
M  V30 6494 N 629.671 -0.424282 1.51781 0
M  V30 6495 C 630.634 -1.49848 1.73431 0
M  V30 6496 C 631.634 -1.49016 0.604225 0
M  V30 6497 O 632.824 -1.50808 0.871935 0
M  V30 6498 C 629.956 -2.89332 1.80277 0
M  V30 6499 H 631.149 -1.3195 2.69312 0
M  V30 6500 H 628.702 -0.653809 1.41968 0
M  V30 6501 H 629.437 -3.12618 0.862568 0
M  V30 6502 H 629.222 -2.9134 2.62419 0
M  V30 6503 H 630.712 -3.67233 1.98821 0
M  V30 6504 N 631.149 -1.42148 -0.680565 0
M  V30 6505 C 632.374 -1.45901 -1.47403 0
M  V30 6506 C 632.799 -0.0700985 -1.87969 0
M  V30 6507 O 632.157 0.930145 -1.55621 0
M  V30 6508 C 632.205 -2.38661 -2.70321 0
M  V30 6509 O 631.309 -1.85399 -3.68376 0
M  V30 6510 H 630.65 -0.494565 -0.443059 0
M  V30 6511 H 633.18 -1.86774 -0.835251 0
M  V30 6512 H 633.19 -2.55046 -3.18458 0
M  V30 6513 H 631.865 -3.39571 -2.40134 0
M  V30 6514 H 630.442 -1.78541 -3.2738 0
M  V30 6515 N 632.627 0.916307 -1.28225 0
M  V30 6516 C 633.557 2.0352 -1.14464 0
M  V30 6517 C 634.538 1.70045 -0.0430844 0
M  V30 6518 O 635.723 1.92954 -0.219619 0
M  V30 6519 C 632.853 3.37889 -0.803027 0
M  V30 6520 C 631.807 3.85516 -1.85908 0
M  V30 6521 C 631.133 5.1682 -1.37116 0
M  V30 6522 C 632.433 4.07655 -3.26519 0
M  V30 6523 H 634.127 2.1529 -2.08064 0
M  V30 6524 H 631.673 1.03446 -1.00174 0
M  V30 6525 H 633.626 4.15654 -0.693537 0
M  V30 6526 H 632.35 3.26164 0.168674 0
M  V30 6527 H 631.009 3.09953 -1.95767 0
M  V30 6528 H 630.657 5.01497 -0.38859 0
M  V30 6529 H 630.357 5.49657 -2.07728 0
M  V30 6530 H 631.881 5.97143 -1.27484 0
M  V30 6531 H 633.295 4.75953 -3.19596 0
M  V30 6532 H 631.692 4.51818 -3.94943 0
M  V30 6533 H 632.762 3.12553 -3.70727 0
M  V30 6534 N 634.105 1.10431 1.1244 0
M  V30 6535 C 635.038 0.696987 2.17296 0
M  V30 6536 C 636.016 -0.301673 1.59777 0
M  V30 6537 O 637.2 -0.200583 1.8743 0
M  V30 6538 C 634.327 0.0284094 3.38688 0
M  V30 6539 C 633.373 0.990536 4.14838 0
M  V30 6540 S 634.206 2.50785 4.73146 0
M  V30 6541 C 635.362 1.85198 5.97873 0
M  V30 6542 H 635.595 1.58523 2.51511 0
M  V30 6543 H 633.128 0.921312 1.239 0
M  V30 6544 H 635.086 -0.351009 4.08997 0
M  V30 6545 H 633.747 -0.836629 3.02753 0
M  V30 6546 H 632.94 0.469991 5.01804 0
M  V30 6547 H 632.542 1.31186 3.50237 0
M  V30 6548 H 634.834 1.18217 6.67106 0
M  V30 6549 H 635.777 2.7012 6.54554 0
M  V30 6550 H 636.185 1.31653 5.48933 0
M  V30 6551 N 635.583 -1.29855 0.893053 0
M  V30 6552 C 636.86 -1.90694 0.435336 0
M  V30 6553 C 637.24 -1.8111 -1.08454 0
M  V30 6554 O 636.588 -1.23352 -1.92345 0
M  V30 6555 C 636.798 -3.36033 0.942472 0
M  V30 6556 C 638.146 -4.13083 0.982226 0
M  V30 6557 O 639.17 -3.4491 0.889686 0
M  V30 6558 O 638.029 -5.34896 1.12022 0
M  V30 6559 H 635.123 -0.815978 0.134567 0
M  V30 6560 H 637.669 -1.38367 0.982484 0
M  V30 6561 H 636.441 -3.37132 1.9864 0
M  V30 6562 H 636.064 -3.95828 0.374952 0
M  V30 6563 N 637.061 -0.65484 -1.43351 0
M  V30 6564 C 638.024 0.0263562 -2.29185 0
M  V30 6565 C 639.024 0.748951 -1.42293 0
M  V30 6566 O 640.214 0.589957 -1.63906 0
M  V30 6567 C 637.346 1.04806 -3.2439 0
M  V30 6568 H 638.539 -0.728883 -2.90908 0
M  V30 6569 H 636.092 -0.416149 -1.50658 0
M  V30 6570 H 636.827 1.83247 -2.67565 0
M  V30 6571 H 636.612 0.533554 -3.88453 0
M  V30 6572 H 638.102 1.52372 -3.88809 0
M  V30 6573 N 638.539 1.52521 -0.396863 0
M  V30 6574 C 639.469 2.29582 0.425941 0
M  V30 6575 C 640.45 1.33281 1.05689 0
M  V30 6576 O 641.635 1.62181 1.06823 0
M  V30 6577 C 638.765 3.10821 1.54943 0
M  V30 6578 C 637.719 4.15069 1.04413 0
M  V30 6579 C 637.045 4.84578 2.26028 0
M  V30 6580 C 638.345 5.22191 0.106767 0
M  V30 6581 H 640.039 2.98612 -0.217045 0
M  V30 6582 H 637.585 1.43611 -0.105826 0
M  V30 6583 H 639.538 3.63492 2.13193 0
M  V30 6584 H 638.262 2.39538 2.22011 0
M  V30 6585 H 636.921 3.63389 0.484118 0
M  V30 6586 H 636.569 4.09835 2.91623 0
M  V30 6587 H 636.269 5.55043 1.92876 0
M  V30 6588 H 637.793 5.40056 2.84906 0
M  V30 6589 H 639.207 5.70176 0.597685 0
M  V30 6590 H 637.604 5.99947 -0.135352 0
M  V30 6591 H 638.674 4.77531 -0.842134 0
M  V30 6592 N 640.017 0.126909 1.57088 0
M  V30 6593 C 640.947 -0.816847 2.18746 0
M  V30 6594 C 641.928 -1.27161 1.12979 0
M  V30 6595 O 643.113 -1.33279 1.41246 0
M  V30 6596 C 640.243 -2.06398 2.79315 0
M  V30 6597 C 639.197 -1.74673 3.90735 0
M  V30 6598 C 638.523 -3.06482 4.38147 0
M  V30 6599 C 639.823 -1.0089 5.12463 0
M  V30 6600 H 641.517 -0.303032 2.97863 0
M  V30 6601 H 639.063 -0.144314 1.43275 0
M  V30 6602 H 641.016 -2.72885 3.2111 0
M  V30 6603 H 639.74 -2.60118 1.975 0
M  V30 6604 H 638.399 -1.10572 3.49527 0
M  V30 6605 H 638.047 -3.58152 3.5318 0
M  V30 6606 H 637.747 -2.86025 5.13287 0
M  V30 6607 H 639.271 -3.74073 4.82599 0
M  V30 6608 H 640.685 -1.57546 5.51228 0
M  V30 6609 H 639.082 -0.905006 5.93237 0
M  V30 6610 H 640.152 0.00297335 4.849 0
M  V30 6611 N 641.495 -1.56914 -0.146875 0
M  V30 6612 C 642.443 -1.99224 -1.20053 0
M  V30 6613 C 643.437 -0.884661 -1.44465 0
M  V30 6614 O 644.643 -1.06984 -1.44756 0
M  V30 6615 H 641.018 -0.634191 -0.404112 0
M  V30 6616 H 642.989 -2.86998 -0.816987 0
M  V30 6617 C 641.738 -2.38899 -2.52632 0
M  V30 6618 H 641.061 -3.23677 -2.34677 0
M  V30 6619 H 642.501 -2.72326 -3.24984 0
M  V30 6620 C 640.96 -1.2417 -3.13183 0
M  V30 6621 O 641.49 -0.542503 -3.9802 0
M  V30 6622 N 639.696 -1.00592 -2.72635 0
M  V30 6623 H 639.243 -1.57627 -2.03744 0
M  V30 6624 H 639.201 -0.240174 -3.13481 0
M  V30 6625 N 642.974 0.416227 -1.52004 0
M  V30 6626 C 644.251 1.17637 -1.56272 0
M  V30 6627 C 644.631 2.08352 -0.339493 0
M  V30 6628 O 643.979 2.1833 0.674124 0
M  V30 6629 C 644.189 1.95986 -2.88774 0
M  V30 6630 C 645.537 2.52299 -3.41512 0
M  V30 6631 O 646.561 2.06174 -2.90467 0
M  V30 6632 O 645.42 3.3648 -4.30631 0
M  V30 6633 H 642.514 0.536726 -0.629169 0
M  V30 6634 H 645.06 0.423583 -1.64329 0
M  V30 6635 H 643.832 1.29487 -3.69254 0
M  V30 6636 H 643.455 2.78285 -2.83978 0
M  V30 6637 N 644.452 1.42507 0.673017 0
M  V30 6638 C 645.868 1.25472 0.986355 0
M  V30 6639 C 646.068 0.160181 2.00862 0
M  V30 6640 O 645.124 -0.467993 2.48125 0
M  V30 6641 C 646.437 2.61219 1.48947 0
M  V30 6642 C 647.985 2.68589 1.60715 0
M  V30 6643 C 648.46 4.04707 2.14422 0
M  V30 6644 N 649.951 4.0667 2.21752 0
M  V30 6645 C 650.686 5.0881 2.64386 0
M  V30 6646 N 650.182 6.21332 3.0646 0
M  V30 6647 N 651.975 4.96166 2.64151 0
M  V30 6648 H 644.126 2.124 -0.00378532 0
M  V30 6649 H 646.389 0.946046 0.0608367 0
M  V30 6650 H 646.095 3.42179 0.812812 0
M  V30 6651 H 645.969 2.85261 2.46791 0
M  V30 6652 H 648.356 1.87974 2.27486 0
M  V30 6653 H 648.437 2.48333 0.613552 0
M  V30 6654 H 648.081 4.8578 1.48258 0
M  V30 6655 H 648.011 4.22315 3.14575 0
M  V30 6656 H 650.502 3.25438 1.92089 0
M  V30 6657 H 650.815 6.95118 3.37684 0
M  V30 6658 H 649.16 6.24835 3.04313 0
M  V30 6659 H 652.351 4.07334 2.30644 0
M  V30 6660 H 652.524 5.759 2.97057 0
M  V30 6661 N 645.93 -0.909495 1.28709 0
M  V30 6662 C 647.341 -1.47419 1.14563 0
M  V30 6663 C 647.692 -1.94432 -0.262832 0
M  V30 6664 O 646.817 -1.82842 -1.15748 0
M  V30 6665 C 647.412 -2.67933 2.07358 0
M  V30 6666 C 645.971 -3.20568 1.97264 0
M  V30 6667 C 645.118 -1.93269 1.98852 0
M  V30 6668 H 648.069 -0.721787 1.41336 0
M  V30 6669 H 648.09 -3.43339 1.64007 0
M  V30 6670 H 647.602 -2.33685 3.09859 0
M  V30 6671 H 645.703 -3.59531 0.978157 0
M  V30 6672 H 645.816 -3.85529 2.84436 0
M  V30 6673 H 644.18 -2.10553 1.43317 0
M  V30 6674 H 644.963 -1.61312 3.0304 0
M  V30 6675 N 647.408 -1.11026 -1.11852 0
M  V30 6676 C 648.318 -0.777252 -2.2135 0
M  V30 6677 C 649.334 0.227821 -1.72502 0
M  V30 6678 O 650.51 0.0650587 -2.01295 0
M  V30 6679 C 647.575 -0.220668 -3.45997 0
M  V30 6680 C 646.636 -1.2838 -4.09655 0
M  V30 6681 C 645.869 -0.753678 -5.28352 0
M  V30 6682 O 646.092 0.417779 -5.68868 0
M  V30 6683 O 645.026 -1.51647 -5.82483 0
M  V30 6684 H 648.852 -1.69141 -2.5224 0
M  V30 6685 H 646.437 -0.885836 -1.20305 0
M  V30 6686 H 648.319 0.0855756 -4.21313 0
M  V30 6687 H 646.994 0.666262 -3.16769 0
M  V30 6688 H 645.901 -1.64299 -3.3609 0
M  V30 6689 H 647.234 -2.14396 -4.43052 0
M  V30 6690 N 648.886 1.2938 -0.899927 0
M  V30 6691 C 650.133 1.9555 -0.525963 0
M  V30 6692 C 650.461 1.70945 0.927789 0
M  V30 6693 O 649.716 1.01545 1.67293 0
M  V30 6694 C 650.015 3.49114 -0.765113 0
M  V30 6695 C 649.681 3.93796 -2.19626 0
M  V30 6696 C 648.343 4.05707 -2.58758 0
M  V30 6697 C 650.695 4.16883 -3.12823 0
M  V30 6698 C 648.023 4.38074 -3.90267 0
M  V30 6699 C 650.375 4.50725 -4.4388 0
M  V30 6700 C 649.039 4.60845 -4.82885 0
M  V30 6701 H 648.309 0.715569 -0.192463 0
M  V30 6702 H 650.956 1.53972 -1.13863 0
M  V30 6703 H 649.261 3.91738 -0.069531 0
M  V30 6704 H 650.958 3.98409 -0.455144 0
M  V30 6705 H 647.548 3.85042 -1.88256 0
M  V30 6706 H 651.732 4.07147 -2.83804 0
M  V30 6707 H 646.988 4.44112 -4.20207 0
M  V30 6708 H 651.162 4.67538 -5.16121 0
M  V30 6709 H 648.789 4.85681 -5.84823 0
M  V30 6710 N 650.364 0.662433 1.43002 0
M  V30 6711 C 651.61 0.179857 2.02001 0
M  V30 6712 C 651.943 -1.20625 1.52195 0
M  V30 6713 O 651.218 -1.80726 0.718911 0
M  V30 6714 C 651.501 0.200845 3.59539 0
M  V30 6715 C 651.354 1.62153 4.19555 0
M  V30 6716 C 652.673 -0.457738 4.37713 0
M  V30 6717 H 649.792 0.0668305 0.733964 0
M  V30 6718 H 652.434 0.84487 1.70182 0
M  V30 6719 H 650.584 -0.365411 3.86778 0
M  V30 6720 H 652.256 2.23908 4.03315 0
M  V30 6721 H 650.499 2.16601 3.75854 0
M  V30 6722 H 651.17 1.58799 5.28665 0
M  V30 6723 H 653.646 0.0241495 4.16093 0
M  V30 6724 H 652.522 -0.412363 5.47349 0
M  V30 6725 H 652.783 -1.53336 4.14657 0
M  V30 6726 N 651.842 -1.52309 0.404946 0
M  V30 6727 C 653.258 -1.59503 0.0556255 0
M  V30 6728 C 653.458 -1.41805 -1.43156 0
M  V30 6729 O 652.514 -1.2429 -2.19792 0
M  V30 6730 C 653.827 -2.95687 0.546801 0
M  V30 6731 C 655.375 -3.08909 0.504413 0
M  V30 6732 C 655.85 -4.47566 0.97203 0
M  V30 6733 N 657.341 -4.53795 0.928679 0
M  V30 6734 C 658.076 -5.59346 1.26174 0
M  V30 6735 N 657.572 -6.72469 1.66604 0
M  V30 6736 N 659.365 -5.49532 1.18198 0
M  V30 6737 H 651.516 -1.6206 1.37296 0
M  V30 6738 H 653.779 -0.762161 0.563751 0
M  V30 6739 H 653.485 -3.13905 1.58609 0
M  V30 6740 H 653.359 -3.77172 -0.0457905 0
M  V30 6741 H 655.746 -2.90378 -0.525819 0
M  V30 6742 H 655.827 -2.2934 1.13301 0
M  V30 6743 H 655.471 -4.6684 2.00057 0
M  V30 6744 H 655.401 -5.25625 0.320292 0
M  V30 6745 H 657.892 -3.72588 0.631369 0
M  V30 6746 H 658.205 -7.48993 1.9034 0
M  V30 6747 H 656.55 -6.73761 1.70504 0
M  V30 6748 H 659.741 -4.60038 0.865011 0
M  V30 6749 H 659.914 -6.31687 1.44485 0
M  V30 6750 N 653.32 -0.135238 -1.57019 0
M  V30 6751 C 654.25 0.805235 -2.19176 0
M  V30 6752 C 655.231 1.2656 -1.13651 0
M  V30 6753 O 656.416 1.32528 -1.4195 0
M  V30 6754 C 653.546 2.04914 -2.80406 0
M  V30 6755 C 652.5 1.72598 -3.91655 0
M  V30 6756 C 651.826 3.04154 -4.39766 0
M  V30 6757 C 653.126 0.981709 -5.12991 0
M  V30 6758 H 654.82 0.287232 -2.98019 0
M  V30 6759 H 652.366 0.136714 -1.4335 0
M  V30 6760 H 654.319 2.71178 -3.22553 0
M  V30 6761 H 653.043 2.59067 -1.98877 0
M  V30 6762 H 651.702 1.08717 -3.50109 0
M  V30 6763 H 651.35 3.56274 -3.55075 0
M  V30 6764 H 651.05 2.83299 -5.14796 0
M  V30 6765 H 652.574 3.71509 -4.84576 0
M  V30 6766 H 653.988 1.5462 -5.52056 0
M  V30 6767 H 652.385 0.873533 -5.93708 0
M  V30 6768 H 653.455 -0.0286887 -4.84892 0
M  V30 6769 N 654.798 1.5699 0.138552 0
M  V30 6770 C 655.728 2.01933 1.17241 0
M  V30 6771 C 656.709 0.90033 1.44319 0
M  V30 6772 O 657.894 1.16872 1.55095 0
M  V30 6773 C 655.024 2.40711 2.50351 0
M  V30 6774 C 653.978 3.55874 2.37776 0
M  V30 6775 C 653.304 3.80491 3.75674 0
M  V30 6776 C 654.604 4.8826 1.85472 0
M  V30 6777 H 656.298 2.88551 0.798672 0
M  V30 6778 H 653.844 1.3882 0.382743 0
M  V30 6779 H 655.797 2.70754 3.22909 0
M  V30 6780 H 654.521 1.5104 2.89576 0
M  V30 6781 H 653.18 3.2601 1.67669 0
M  V30 6782 H 652.828 2.88057 4.12349 0
M  V30 6783 H 652.528 4.57998 3.68119 0
M  V30 6784 H 654.052 4.12967 4.49767 0
M  V30 6785 H 655.466 5.16965 2.4783 0
M  V30 6786 H 653.863 5.69631 1.88787 0
M  V30 6787 H 654.933 4.78071 0.810935 0
M  V30 6788 N 656.276 -0.40816 1.52223 0
M  V30 6789 C 657.525 -1.15212 1.65557 0
M  V30 6790 C 657.838 -1.9163 0.392096 0
M  V30 6791 O 659.044 -2.68458 0.405256 0
M  V30 6792 C 657.5 -2.09691 2.92502 0
M  V30 6793 C 657.108 -1.38785 4.25961 0
M  V30 6794 C 658.852 -2.8434 3.152 0
M  V30 6795 C 656.759 -2.31919 5.44029 0
M  V30 6796 H 655.689 -0.433776 0.616729 0
M  V30 6797 H 658.34 -0.4165 1.78711 0
M  V30 6798 H 656.722 -2.8681 2.7305 0
M  V30 6799 H 657.896 -0.670248 4.55899 0
M  V30 6800 H 656.211 -0.761741 4.09373 0
M  V30 6801 H 658.808 -3.54166 4.00587 0
M  V30 6802 H 659.151 -3.47344 2.29473 0
M  V30 6803 H 659.684 -2.14321 3.35129 0
M  V30 6804 H 656.423 -1.7356 6.32105 0
M  V30 6805 H 655.943 -3.0165 5.18428 0
M  V30 6806 H 657.622 -2.92424 5.77146 0
M  V30 6807 N 657.755 -1.42862 -0.66545 0
M  V30 6808 C 658.98 -1.47456 -1.45848 0
M  V30 6809 C 659.405 -0.0900312 -1.87884 0
M  V30 6810 O 658.763 0.913587 -1.56599 0
M  V30 6811 C 658.811 -2.41514 -2.67774 0
M  V30 6812 O 657.915 -1.89296 -3.66389 0
M  V30 6813 H 657.256 -0.499236 -0.437789 0
M  V30 6814 H 659.786 -1.8765 -0.815394 0
M  V30 6815 H 659.796 -2.58409 -3.15735 0
M  V30 6816 H 658.471 -3.42099 -2.36519 0
M  V30 6817 H 657.048 -1.82003 -3.25468 0
M  V30 6818 N 659.233 0.902656 -1.29189 0
M  V30 6819 C 660.183 1.99326 -1.10695 0
M  V30 6820 C 661.167 1.60877 -0.0272521 0
M  V30 6821 O 662.359 1.75245 -0.248635 0
M  V30 6822 C 659.488 3.34265 -0.78244 0
M  V30 6823 C 658.574 3.79081 -1.90153 0
M  V30 6824 N 658.965 3.96162 -3.14466 0
M  V30 6825 C 657.263 4.08333 -1.79389 0
M  V30 6826 C 657.964 4.3388 -3.87458 0
M  V30 6827 N 656.94 4.42759 -3.15381 0
M  V30 6828 H 660.742 2.10597 -2.05003 0
M  V30 6829 H 658.256 1.09127 -1.20271 0
M  V30 6830 H 660.253 4.12097 -0.630996 0
M  V30 6831 H 658.913 3.2434 0.152754 0
M  V30 6832 H 659.924 3.81775 -3.49954 0
M  V30 6833 H 656.601 4.06982 -0.931217 0
M  V30 6834 H 657.991 4.54965 -4.94425 0
M  V30 6835 N 660.711 1.11618 1.11262 0
M  V30 6836 C 661.959 0.864469 1.82678 0
M  V30 6837 C 662.28 -0.611564 1.85162 0
M  V30 6838 O 661.55 -1.44429 1.32352 0
M  V30 6839 H 660.13 0.316821 0.676486 0
M  V30 6840 H 662.792 1.40894 1.34666 0
M  V30 6841 H 661.888 1.23832 2.86482 0
M  V30 6842 N 662.189 -1.289 0.906776 0
M  V30 6843 C 663.119 -2.29932 0.406659 0
M  V30 6844 C 664.1 -1.6189 -0.522061 0
M  V30 6845 O 665.285 -1.8935 -0.431283 0
M  V30 6846 C 662.415 -3.45425 -0.360366 0
M  V30 6847 C 661.369 -4.25316 0.478574 0
M  V30 6848 C 660.695 -5.33076 -0.416373 0
M  V30 6849 C 661.995 -4.92739 1.7322 0
M  V30 6850 H 663.689 -2.72013 1.25097 0
M  V30 6851 H 661.235 -1.30768 0.602977 0
M  V30 6852 H 663.188 -4.15186 -0.721029 0
M  V30 6853 H 661.912 -3.02206 -1.23852 0
M  V30 6854 H 660.571 -3.57273 0.821662 0
M  V30 6855 H 660.219 -4.86101 -1.29287 0
M  V30 6856 H 659.919 -5.8743 0.141309 0
M  V30 6857 H 661.443 -6.05686 -0.773072 0
M  V30 6858 H 662.857 -5.54898 1.44086 0
M  V30 6859 H 661.254 -5.57057 2.23175 0
M  V30 6860 H 662.324 -4.17625 2.46408 0
M  V30 6861 N 663.667 -0.670007 -1.42649 0
M  V30 6862 C 664.892 -0.196955 -2.06463 0
M  V30 6863 C 665.317 1.1352 -1.49983 0
M  V30 6864 O 664.675 1.705 -0.616397 0
M  V30 6865 C 664.723 -0.137381 -3.60338 0
M  V30 6866 O 663.827 0.895523 -4.02559 0
M  V30 6867 H 663.168 -0.102579 -0.656029 0
M  V30 6868 H 665.698 -0.917669 -1.82866 0
M  V30 6869 H 665.708 0.0403625 -4.0798 0
M  V30 6870 H 664.383 -1.10977 -4.0082 0
M  V30 6871 H 662.96 0.689209 -3.66476 0
M  V30 6872 N 665.145 1.52092 -0.413018 0
M  V30 6873 C 666.075 2.30021 0.401567 0
M  V30 6874 C 667.056 1.34395 1.04269 0
M  V30 6875 O 668.241 1.63304 1.05097 0
M  V30 6876 C 665.371 3.12447 1.51638 0
M  V30 6877 C 664.325 4.16153 1.00005 0
M  V30 6878 C 663.651 4.86948 2.20875 0
M  V30 6879 C 664.951 5.22275 0.0513757 0
M  V30 6880 H 666.645 2.98365 -0.248704 0
M  V30 6881 H 664.191 1.4349 -0.121052 0
M  V30 6882 H 666.144 3.65733 2.09326 0
M  V30 6883 H 664.868 2.41879 2.19458 0
M  V30 6884 H 663.527 3.63882 0.445549 0
M  V30 6885 H 663.175 4.12905 2.8726 0
M  V30 6886 H 662.875 5.57057 1.86978 0
M  V30 6887 H 664.399 5.43048 2.79162 0
M  V30 6888 H 665.813 5.70778 0.537176 0
M  V30 6889 H 664.21 5.9977 -0.198977 0
M  V30 6890 H 665.28 4.76611 -0.892736 0
M  V30 6891 N 666.623 0.143563 1.56945 0
M  V30 6892 C 667.871 -0.507402 1.95627 0
M  V30 6893 C 668.192 -1.65626 1.02922 0
M  V30 6894 O 667.462 -1.95693 0.0901136 0
M  V30 6895 H 666.042 -0.190436 0.722318 0
M  V30 6896 H 668.704 0.218257 1.93674 0
M  V30 6897 H 667.8 -0.885816 2.99265 0
M  V30 6898 N 668.101 -1.57061 -0.130224 0
M  V30 6899 C 669.051 -1.95941 -1.16582 0
M  V30 6900 C 670.035 -0.832858 -1.37667 0
M  V30 6901 O 671.227 -1.09647 -1.38948 0
M  V30 6902 C 668.356 -2.35777 -2.49528 0
M  V30 6903 C 667.442 -3.5504 -2.31964 0
M  V30 6904 N 667.833 -4.71071 -1.84189 0
M  V30 6905 C 666.131 -3.60453 -2.62659 0
M  V30 6906 C 666.832 -5.53128 -1.80068 0
M  V30 6907 N 665.808 -4.95303 -2.24001 0
M  V30 6908 H 669.61 -2.83117 -0.788806 0
M  V30 6909 H 667.124 -1.58842 -0.3381 0
M  V30 6910 H 669.121 -2.61843 -3.24413 0
M  V30 6911 H 667.781 -1.49961 -2.87996 0
M  V30 6912 H 668.792 -4.94504 -1.53903 0
M  V30 6913 H 665.469 -2.85217 -3.0489 0
M  V30 6914 H 666.859 -6.56182 -1.4448 0
M  V30 6915 N 669.579 0.400081 -1.52437 0
M  V30 6916 C 670.826 1.14619 -1.6694 0
M  V30 6917 C 671.154 1.90262 -0.403797 0
M  V30 6918 O 670.409 1.85835 0.61351 0
M  V30 6919 C 670.708 2.15914 -2.84808 0
M  V30 6920 C 670.374 1.57011 -4.2268 0
M  V30 6921 C 669.036 1.40672 -4.60179 0
M  V30 6922 C 671.388 1.14081 -5.08562 0
M  V30 6923 C 668.716 0.799335 -5.81229 0
M  V30 6924 C 671.068 0.547573 -6.30226 0
M  V30 6925 C 669.732 0.371389 -6.66466 0
M  V30 6926 H 669.002 0.419419 -0.610875 0
M  V30 6927 H 671.649 0.432227 -1.86558 0
M  V30 6928 H 669.954 2.93488 -2.59561 0
M  V30 6929 H 671.651 2.73533 -2.93225 0
M  V30 6930 H 668.241 1.70713 -3.93135 0
M  V30 6931 H 672.425 1.2551 -4.80168 0
M  V30 6932 H 667.681 0.65093 -6.07925 0
M  V30 6933 H 671.855 0.206575 -6.96094 0
M  V30 6934 H 669.482 -0.10135 -7.60132 0
M  V30 6935 N 671.057 1.43213 0.657864 0
M  V30 6936 C 671.987 1.50815 1.78262 0
M  V30 6937 C 672.968 0.363211 1.66177 0
M  V30 6938 O 674.153 0.579806 1.85343 0
M  V30 6939 C 671.283 1.42625 3.16663 0
M  V30 6940 C 670.237 2.5532 3.43505 0
M  V30 6941 C 669.563 2.32184 4.81658 0
M  V30 6942 C 670.863 3.97583 3.38711 0
M  V30 6943 H 672.557 2.44954 1.72157 0
M  V30 6944 H 670.103 1.17896 0.82683 0
M  V30 6945 H 672.056 1.46548 3.95097 0
M  V30 6946 H 670.78 0.449877 3.23487 0
M  V30 6947 H 669.439 2.50742 2.6744 0
M  V30 6948 H 669.087 1.32801 4.85153 0
M  V30 6949 H 668.787 3.07724 5.00579 0
M  V30 6950 H 670.311 2.37883 5.62356 0
M  V30 6951 H 671.725 4.03673 4.07089 0
M  V30 6952 H 670.122 4.73112 3.69168 0
M  V30 6953 H 671.192 4.23049 2.36976 0
M  V30 6954 N 672.536 -0.895792 1.29666 0
M  V30 6955 C 673.764 -1.68001 1.20761 0
M  V30 6956 C 674.179 -1.87379 -0.231187 0
M  V30 6957 O 673.536 -1.41359 -1.15429 0
M  V30 6958 C 673.587 -3.06236 1.92098 0
M  V30 6959 O 673.308 -2.8774 3.30359 0
M  V30 6960 C 674.809 -4.00652 1.89717 0
M  V30 6961 H 672.029 -0.524591 0.418384 0
M  V30 6962 H 674.573 -1.11995 1.71106 0
M  V30 6963 H 672.728 -3.59007 1.45578 0
M  V30 6964 H 673.142 -3.75359 3.66342 0
M  V30 6965 H 674.616 -4.95051 2.44189 0
M  V30 6966 H 675.093 -4.30424 0.873595 0
M  V30 6967 H 675.699 -3.53815 2.35998 0
M  V30 6968 N 674.014 -1.12206 -1.10668 0
M  V30 6969 C 675.425 -0.890657 -1.64086 0
M  V30 6970 C 675.776 0.575502 -1.8757 0
M  V30 6971 O 674.901 1.4394 -1.61587 0
M  V30 6972 C 675.496 -1.61029 -2.98085 0
M  V30 6973 C 674.055 -1.4251 -3.48379 0
M  V30 6974 C 673.202 -1.64778 -2.23033 0
M  V30 6975 H 676.153 -1.27718 -0.94201 0
M  V30 6976 H 676.174 -1.05993 -3.65439 0
M  V30 6977 H 675.686 -2.67735 -2.80962 0
M  V30 6978 H 673.787 -0.380497 -3.70652 0
M  V30 6979 H 673.9 -2.17959 -4.26651 0
M  V30 6980 H 672.264 -1.07171 -2.31055 0
M  V30 6981 H 673.047 -2.72776 -2.08443 0
M  V30 6982 N 675.492 1.28418 -0.913599 0
M  V30 6983 C 676.425 2.25557 -0.346328 0
M  V30 6984 C 677.403 1.53038 0.549366 0
M  V30 6985 O 678.587 1.81937 0.493055 0
M  V30 6986 C 675.714 3.34915 0.504961 0
M  V30 6987 C 674.76 4.25257 -0.325334 0
M  V30 6988 S 675.593 5.06718 -1.73198 0
M  V30 6989 C 676.749 6.19569 -0.887988 0
M  V30 6990 H 676.982 2.73325 -1.16965 0
M  V30 6991 H 674.515 1.36855 -0.714841 0
M  V30 6992 H 676.473 3.98376 0.990301 0
M  V30 6993 H 675.134 2.85814 1.30267 0
M  V30 6994 H 674.327 5.02947 0.325589 0
M  V30 6995 H 673.929 3.66519 -0.744321 0
M  V30 6996 H 676.221 6.77398 -0.117568 0
M  V30 6997 H 677.164 6.88908 -1.63742 0
M  V30 6998 H 677.572 5.62812 -0.436228 0
M  V30 6999 N 676.97 0.677563 1.42291 0
M  V30 7000 C 678.386 0.347376 1.55774 0
M  V30 7001 C 678.586 -1.14703 1.65667 0
M  V30 7002 O 677.642 -1.93252 1.62512 0
M  V30 7003 C 678.955 1.08011 2.80631 0
M  V30 7004 C 680.503 1.06271 2.94407 0
M  V30 7005 C 680.978 1.77683 4.22129 0
M  V30 7006 N 682.469 1.74564 4.29047 0
M  V30 7007 C 683.204 2.26673 5.26694 0
M  V30 7008 N 682.7 2.87176 6.30477 0
M  V30 7009 N 684.493 2.17032 5.18511 0
M  V30 7010 H 676.644 1.64703 1.34114 0
M  V30 7011 H 678.907 0.694038 0.645768 0
M  V30 7012 H 678.613 2.13518 2.79469 0
M  V30 7013 H 678.487 0.647115 3.71608 0
M  V30 7014 H 680.874 0.0159658 2.95096 0
M  V30 7015 H 680.955 1.53461 2.04654 0
M  V30 7016 H 680.599 2.82327 4.22201 0
M  V30 7017 H 680.529 1.2794 5.10822 0
M  V30 7018 H 683.02 1.30436 3.54676 0
M  V30 7019 H 683.333 3.24551 7.01346 0
M  V30 7020 H 681.678 2.91247 6.31031 0
M  V30 7021 H 684.869 1.69451 4.36353 0
M  V30 7022 H 685.042 2.57948 5.94446 0
M  V30 7023 N 678.448 -1.51871 0.421078 0
M  V30 7024 C 679.378 -2.30231 -0.389363 0
M  V30 7025 C 680.359 -1.34946 -1.03555 0
M  V30 7026 O 681.544 -1.63859 -1.04229 0
M  V30 7027 C 678.674 -3.13247 -1.49979 0
M  V30 7028 C 677.628 -4.16677 -0.977966 0
M  V30 7029 C 676.954 -4.88112 -2.1829 0
M  V30 7030 C 678.254 -5.22295 -0.0236775 0
M  V30 7031 H 679.948 -2.98229 0.264524 0
M  V30 7032 H 677.494 -1.43424 0.12866 0
M  V30 7033 H 679.447 -3.66838 -2.07383 0
M  V30 7034 H 678.171 -2.4304 -2.18173 0
M  V30 7035 H 676.83 -3.64114 -0.426245 0
M  V30 7036 H 676.478 -4.14423 -2.85066 0
M  V30 7037 H 676.178 -5.58041 -1.84021 0
M  V30 7038 H 677.702 -5.44521 -2.76278 0
M  V30 7039 H 679.116 -5.71055 -0.506899 0
M  V30 7040 H 677.513 -5.99656 0.230782 0
M  V30 7041 H 678.583 -4.76131 0.917999 0
M  V30 7042 N 679.926 -0.151884 -1.56866 0
M  V30 7043 C 680.889 0.771861 -2.15812 0
M  V30 7044 C 681.889 1.17181 -1.10115 0
M  V30 7045 O 683.079 1.09194 -1.35729 0
M  V30 7046 C 680.211 2.04806 -2.7252 0
M  V30 7047 H 681.404 0.259021 -2.98779 0
M  V30 7048 H 678.957 0.097588 -1.55995 0
M  V30 7049 H 679.692 2.60445 -1.93233 0
M  V30 7050 H 679.477 1.77044 -3.49854 0
M  V30 7051 H 680.967 2.70771 -3.1792 0
M  V30 7052 N 681.404 1.57128 0.121893 0
M  V30 7053 C 682.336 1.96773 1.17529 0
M  V30 7054 C 683.349 0.866668 1.37814 0
M  V30 7055 O 684.538 1.14497 1.3694 0
M  V30 7056 C 681.638 2.24832 2.53582 0
M  V30 7057 C 680.811 3.56138 2.53939 0
M  V30 7058 C 679.87 3.72443 3.71716 0
M  V30 7059 O 678.896 4.44584 3.55434 0
M  V30 7060 N 680.098 3.10993 4.90167 0
M  V30 7061 H 682.863 2.87743 0.838086 0
M  V30 7062 H 680.424 1.58881 0.311199 0
M  V30 7063 H 682.416 2.32958 3.30927 0
M  V30 7064 H 680.986 1.40002 2.79496 0
M  V30 7065 H 680.206 3.59226 1.62329 0
M  V30 7066 H 681.494 4.42448 2.51231 0
M  V30 7067 H 680.892 2.52345 5.06299 0
M  V30 7068 H 679.449 3.24644 5.65198 0
M  V30 7069 N 682.882 -0.391992 1.52647 0
M  V30 7070 C 683.812 -1.48517 1.8018 0
M  V30 7071 C 684.793 -1.57039 0.653667 0
M  V30 7072 O 685.978 -1.72036 0.900962 0
M  V30 7073 C 683.108 -2.86161 1.96797 0
M  V30 7074 C 682.062 -2.92481 3.12472 0
M  V30 7075 C 681.388 -4.32546 3.14338 0
M  V30 7076 C 682.688 -2.624 4.51601 0
M  V30 7077 H 684.382 -1.25726 2.71723 0
M  V30 7078 H 681.928 -0.603387 1.30749 0
M  V30 7079 H 683.881 -3.62639 2.14641 0
M  V30 7080 H 682.605 -3.10283 1.01941 0
M  V30 7081 H 681.264 -2.18451 2.94406 0
M  V30 7082 H 680.912 -4.53703 2.1717 0
M  V30 7083 H 680.612 -4.37695 3.92042 0
M  V30 7084 H 682.136 -5.10934 3.34333 0
M  V30 7085 H 683.55 -3.28596 4.69785 0
M  V30 7086 H 681.947 -2.78903 5.3135 0
M  V30 7087 H 683.017 -1.57754 4.58521 0
M  V30 7088 N 684.36 -1.4356 -0.65026 0
M  V30 7089 C 685.59 -1.48563 -1.4357 0
M  V30 7090 C 685.998 -0.103041 -1.88919 0
M  V30 7091 O 685.341 0.897602 -1.60277 0
M  V30 7092 C 685.403 -2.37181 -2.70158 0
M  V30 7093 C 685.067 -3.84673 -2.4673 0
M  V30 7094 C 686.064 -4.75704 -2.09765 0
M  V30 7095 C 683.749 -4.29189 -2.60963 0
M  V30 7096 C 685.743 -6.09249 -1.87334 0
M  V30 7097 C 683.43 -5.62787 -2.38147 0
M  V30 7098 C 684.428 -6.52634 -2.01389 0
M  V30 7099 O 684.116 -7.83761 -1.78813 0
M  V30 7100 H 683.848 -0.506743 -0.447423 0
M  V30 7101 H 686.402 -1.89001 -0.80423 0
M  V30 7102 H 684.632 -1.91636 -3.35876 0
M  V30 7103 H 686.321 -2.33354 -3.32116 0
M  V30 7104 H 687.087 -4.42589 -1.98343 0
M  V30 7105 H 682.966 -3.59529 -2.88548 0
M  V30 7106 H 686.51 -6.7934 -1.58567 0
M  V30 7107 H 682.407 -5.95469 -2.49173 0
M  V30 7108 H 683.175 -7.95368 -1.93214 0
M  V30 7109 N 685.838 0.888903 -1.30139 0
M  V30 7110 C 687.063 1.67884 -1.21777 0
M  V30 7111 C 687.488 1.86848 0.216689 0
M  V30 7112 O 686.846 1.39659 1.15608 0
M  V30 7113 C 686.894 3.03483 -1.94757 0
M  V30 7114 O 685.998 3.92294 -1.27198 0
M  V30 7115 H 685.339 0.513144 -0.421402 0
M  V30 7116 H 687.869 1.10968 -1.71893 0
M  V30 7117 H 687.879 3.53553 -2.03627 0
M  V30 7118 H 686.554 2.89 -2.99085 0
M  V30 7119 H 685.131 3.50732 -1.26655 0
M  V30 7120 N 687.317 1.12792 1.10072 0
M  V30 7121 C 688.28 0.802264 2.14701 0
M  V30 7122 C 689.28 -0.18515 1.59731 0
M  V30 7123 O 690.47 0.041109 1.74151 0
M  V30 7124 C 687.602 0.19285 3.40354 0
M  V30 7125 H 688.795 1.72932 2.45019 0
M  V30 7126 H 686.348 0.931662 1.25498 0
M  V30 7127 H 687.083 -0.743748 3.15656 0
M  V30 7128 H 686.868 0.903827 3.81541 0
M  V30 7129 H 688.358 -0.0183704 4.17596 0
M  V30 7130 N 688.795 -1.27931 0.920396 0
M  V30 7131 C 689.758 -2.25345 0.41858 0
M  V30 7132 C 690.758 -1.54116 -0.458798 0
M  V30 7133 O 691.948 -1.72235 -0.260912 0
M  V30 7134 C 689.08 -3.38556 -0.399104 0
M  V30 7135 H 690.273 -2.71251 1.27918 0
M  V30 7136 H 687.826 -1.39728 0.700406 0
M  V30 7137 H 688.561 -2.98021 -1.27882 0
M  V30 7138 H 688.346 -3.91426 0.229863 0
M  V30 7139 H 689.836 -4.10976 -0.740817 0
M  V30 7140 N 690.273 -0.685099 -1.4193 0
M  V30 7141 C 691.684 -0.287699 -1.8447 0
M  V30 7142 C 692.035 1.17215 -1.57338 0
M  V30 7143 O 691.16 1.89856 -1.03845 0
M  V30 7144 C 691.755 -0.515385 -3.34857 0
M  V30 7145 C 690.314 -0.172006 -3.76007 0
M  V30 7146 C 689.461 -0.802808 -2.65425 0
M  V30 7147 H 692.412 -0.88652 -1.3163 0
M  V30 7148 H 692.433 0.229251 -3.79809 0
M  V30 7149 H 691.945 -1.57796 -3.54573 0
M  V30 7150 H 690.046 0.886716 -3.61895 0
M  V30 7151 H 690.159 -0.619717 -4.75075 0
M  V30 7152 H 688.523 -0.233267 -2.5363 0
M  V30 7153 H 689.306 -1.86904 -2.87961 0
M  V30 7154 N 691.751 1.51645 -0.429126 0
M  V30 7155 C 692.976 2.06917 0.141399 0
M  V30 7156 C 693.401 1.29527 1.36398 0
M  V30 7157 O 692.759 0.33094 1.78254 0
M  V30 7158 C 692.807 3.57776 0.4504 0
M  V30 7159 O 691.911 3.82639 1.53821 0
M  V30 7160 H 691.252 0.663978 0.0054647 0
M  V30 7161 H 693.782 1.95355 -0.608093 0
M  V30 7162 H 693.792 4.01894 0.703249 0
M  V30 7163 H 692.467 4.13532 -0.443213 0
M  V30 7164 H 691.044 3.5039 1.27597 0
M  V30 7165 N 693.229 0.160201 1.56784 0
M  V30 7166 C 694.177 -0.791402 2.18723 0
M  V30 7167 C 695.171 -1.24567 1.14801 0
M  V30 7168 O 696.377 -1.21262 1.33025 0
M  V30 7169 H 692.752 -0.273458 0.700517 0
M  V30 7170 H 694.723 -0.244931 2.97393 0
M  V30 7171 C 693.472 -2.01509 2.83354 0
M  V30 7172 H 692.795 -1.67454 3.63041 0
M  V30 7173 H 694.235 -2.66006 3.30177 0
M  V30 7174 C 692.694 -2.83159 1.82545 0
M  V30 7175 O 693.224 -3.79944 1.30405 0
M  V30 7176 N 691.43 -2.47953 1.51552 0
M  V30 7177 H 690.977 -1.69309 1.94144 0
M  V30 7178 H 690.935 -3.02873 0.843519 0
M  V30 7179 N 694.707 -1.5719 -0.113559 0
M  V30 7180 C 695.932 -1.89702 -0.838336 0
M  V30 7181 C 696.357 -0.752679 -1.72384 0
M  V30 7182 O 695.715 0.296575 -1.78858 0
M  V30 7183 C 695.763 -3.20989 -1.64312 0
M  V30 7184 O 694.867 -3.07278 -2.75053 0
M  V30 7185 H 694.208 -0.622339 -0.231496 0
M  V30 7186 H 696.738 -2.04382 -0.0943228 0
M  V30 7187 H 696.748 -3.53843 -2.03123 0
M  V30 7188 H 695.423 -4.03869 -0.993119 0
M  V30 7189 H 694 -2.85901 -2.39406 0
M  V30 7190 N 696.185 0.383891 -1.52853 0
M  V30 7191 C 697.115 1.47559 -1.80965 0
M  V30 7192 C 698.096 1.5669 -0.661986 0
M  V30 7193 O 699.281 1.71556 -0.910072 0
M  V30 7194 C 696.411 2.85114 -1.98312 0
M  V30 7195 C 695.365 2.9082 -3.14019 0
M  V30 7196 C 694.691 4.30873 -3.16627 0
M  V30 7197 C 695.991 2.60001 -4.52986 0
M  V30 7198 H 697.685 1.24283 -2.72386 0
M  V30 7199 H 695.231 0.596445 -1.31067 0
M  V30 7200 H 697.184 3.61496 -2.16561 0
M  V30 7201 H 695.908 3.09738 -1.03585 0
M  V30 7202 H 694.567 2.16886 -2.9556 0
M  V30 7203 H 694.215 4.52545 -2.19573 0
M  V30 7204 H 693.915 4.3561 -3.94357 0
M  V30 7205 H 695.439 5.09154 -3.37038 0
M  V30 7206 H 696.853 3.261 -4.71521 0
M  V30 7207 H 695.25 2.76081 -5.32822 0
M  V30 7208 H 696.32 1.5532 -4.59351 0
M  V30 7209 N 697.663 1.43903 0.642637 0
M  V30 7210 C 698.912 1.45362 1.39831 0
M  V30 7211 C 699.225 0.0856289 1.95412 0
M  V30 7212 O 700.431 -0.0222856 2.71491 0
M  V30 7213 C 698.887 2.55857 2.53111 0
M  V30 7214 C 698.495 3.98811 2.04092 0
M  V30 7215 C 700.239 2.66524 3.30402 0
M  V30 7216 C 698.146 5.00751 3.14647 0
M  V30 7217 H 697.076 0.540777 0.52543 0
M  V30 7218 H 699.727 1.69929 0.692559 0
M  V30 7219 H 698.109 2.2451 3.26207 0
M  V30 7220 H 699.283 4.3967 1.37938 0
M  V30 7221 H 697.598 3.92284 1.39651 0
M  V30 7222 H 700.195 3.39858 4.12796 0
M  V30 7223 H 700.538 1.71949 3.79129 0
M  V30 7224 H 701.071 2.97224 2.64392 0
M  V30 7225 H 697.81 5.96914 2.70876 0
M  V30 7226 H 697.33 4.64495 3.79479 0
M  V30 7227 H 699.009 5.23933 3.79609 0
M  V30 7228 N 699.141 -0.881989 1.30609 0
M  V30 7229 C 700.557 -1.16576 1.09005 0
M  V30 7230 C 700.757 -2.00961 -0.14727 0
M  V30 7231 O 699.813 -2.38117 -0.840036 0
M  V30 7232 C 701.126 -1.86954 2.35518 0
M  V30 7233 C 702.674 -1.99706 2.41011 0
M  V30 7234 C 703.149 -2.73497 3.67374 0
M  V30 7235 N 704.64 -2.8104 3.68199 0
M  V30 7236 C 705.375 -3.38718 4.62664 0
M  V30 7237 N 704.871 -3.97421 5.67475 0
M  V30 7238 N 706.664 -3.36561 4.50203 0
M  V30 7239 H 698.815 -0.319398 2.09985 0
M  V30 7240 H 701.078 -0.204058 0.925778 0
M  V30 7241 H 700.784 -1.32393 3.2583 0
M  V30 7242 H 700.658 -2.87317 2.44395 0
M  V30 7243 H 703.045 -2.53436 1.51176 0
M  V30 7244 H 703.126 -0.984218 2.36108 0
M  V30 7245 H 702.77 -2.20438 4.57569 0
M  V30 7246 H 702.7 -3.75163 3.6954 0
M  V30 7247 H 705.191 -2.39365 2.92426 0
M  V30 7248 H 705.504 -4.39507 6.35652 0
M  V30 7249 H 703.849 -3.95832 5.71264 0
M  V30 7250 H 707.04 -2.8993 3.67503 0
M  V30 7251 H 707.213 -3.81215 5.24003 0
M  V30 7252 N 700.619 -1.13374 -1.09472 0
M  V30 7253 C 701.567 -0.806105 -2.18185 0
M  V30 7254 C 702.561 0.21136 -1.68076 0
M  V30 7255 O 703.767 0.0685558 -1.79869 0
M  V30 7256 H 700.142 -0.242901 -0.71169 0
M  V30 7257 H 702.113 -1.73115 -2.43051 0
M  V30 7258 C 700.862 -0.287928 -3.46506 0
M  V30 7259 H 700.185 -1.06217 -3.85432 0
M  V30 7260 H 701.625 -0.0971054 -4.23889 0
M  V30 7261 C 700.084 0.986256 -3.22141 0
M  V30 7262 O 700.614 2.06217 -3.44728 0
M  V30 7263 N 698.82 0.917153 -2.75747 0
M  V30 7264 H 698.367 0.0414609 -2.57567 0
M  V30 7265 H 698.325 1.77029 -2.59823 0
M  V30 7266 N 702.098 1.27442 -0.927168 0
M  V30 7267 C 703.028 2.29256 -0.443188 0
M  V30 7268 C 704.009 1.62701 0.49624 0
M  V30 7269 O 705.194 1.90013 0.401105 0
M  V30 7270 C 702.324 3.45955 0.305366 0
M  V30 7271 C 701.278 4.24501 -0.546178 0
M  V30 7272 C 700.604 5.33671 0.331512 0
M  V30 7273 C 701.904 4.89921 -1.81037 0
M  V30 7274 H 703.598 2.69988 -1.29409 0
M  V30 7275 H 701.144 1.29792 -0.623705 0
M  V30 7276 H 703.097 4.1628 0.654885 0
M  V30 7277 H 701.821 3.04138 1.19029 0
M  V30 7278 H 700.48 3.55921 -0.878398 0
M  V30 7279 H 700.128 4.88096 1.21537 0
M  V30 7280 H 699.828 5.87131 -0.234746 0
M  V30 7281 H 701.352 6.0684 0.676614 0
M  V30 7282 H 702.766 5.52536 -1.52895 0
M  V30 7283 H 701.163 5.53436 -2.32009 0
M  V30 7284 H 702.233 4.13652 -2.53021 0
M  V30 7285 N 703.576 0.692616 1.41565 0
M  V30 7286 C 704.506 0.0397325 2.33466 0
M  V30 7287 C 705.487 -0.770334 1.51657 0
M  V30 7288 O 706.672 -0.723903 1.80203 0
M  V30 7289 C 703.802 -0.899495 3.3545 0
M  V30 7290 C 702.756 -0.196738 4.27548 0
M  V30 7291 C 702.082 -1.25012 5.19881 0
M  V30 7292 C 703.382 0.935158 5.1386 0
M  V30 7293 H 705.076 0.807296 2.88311 0
M  V30 7294 H 702.622 0.389665 1.38628 0
M  V30 7295 H 704.575 -1.36545 3.98665 0
M  V30 7296 H 703.299 -1.69869 2.78948 0
M  V30 7297 H 701.958 0.249158 3.65752 0
M  V30 7298 H 701.606 -2.04177 4.59696 0
M  V30 7299 H 701.306 -0.784931 5.82334 0
M  V30 7300 H 702.83 -1.71665 5.85972 0
M  V30 7301 H 704.244 0.549619 5.70659 0
M  V30 7302 H 702.641 1.32726 5.85238 0
M  V30 7303 H 703.711 1.77613 4.512 0
M  V30 7304 N 705.054 -1.51416 0.437162 0
M  V30 7305 C 706.331 -1.94682 -0.189292 0
M  V30 7306 C 706.711 -1.37581 -1.60108 0
M  V30 7307 O 706.059 -0.562815 -2.2146 0
M  V30 7308 C 706.269 -3.48599 -0.167201 0
M  V30 7309 C 707.617 -4.2296 -0.372856 0
M  V30 7310 O 708.641 -3.55354 -0.245323 0
M  V30 7311 O 707.5 -5.42895 -0.626693 0
M  V30 7312 H 704.594 -0.816708 -0.130063 0
M  V30 7313 H 707.14 -1.62316 0.495128 0
M  V30 7314 H 705.912 -3.82616 0.81981 0
M  V30 7315 H 705.535 -3.87406 -0.894537 0
M  V30 7316 N 706.532 -0.168513 -1.56696 0
M  V30 7317 C 707.464 0.794249 -2.14998 0
M  V30 7318 C 708.477 1.1957 -1.10485 0
M  V30 7319 O 709.666 1.13604 -1.37682 0
M  V30 7320 C 706.766 2.08018 -2.67547 0
M  V30 7321 C 705.939 1.84274 -3.96689 0
M  V30 7322 C 704.998 2.97059 -4.3433 0
M  V30 7323 O 704.024 2.67815 -5.02259 0
M  V30 7324 N 705.226 4.24775 -3.9566 0
M  V30 7325 H 707.991 0.295832 -2.98236 0
M  V30 7326 H 705.552 0.0143611 -1.61894 0
M  V30 7327 H 707.544 2.82559 -2.89729 0
M  V30 7328 H 706.114 2.49059 -1.88914 0
M  V30 7329 H 705.334 0.936528 -3.82914 0
M  V30 7330 H 706.622 1.65773 -4.81037 0
M  V30 7331 H 706.02 4.51395 -3.40968 0
M  V30 7332 H 704.577 4.96027 -4.22848 0
M  V30 7333 N 708.01 1.57248 0.105221 0
M  V30 7334 C 708.973 2.00388 1.11252 0
M  V30 7335 C 709.973 0.89594 1.33527 0
M  V30 7336 O 711.163 1.16166 1.29811 0
M  V30 7337 C 708.295 2.35589 2.46395 0
M  V30 7338 H 709.488 2.90591 0.741424 0
M  V30 7339 H 707.041 1.52332 0.349956 0
M  V30 7340 H 707.776 1.4831 2.884 0
M  V30 7341 H 707.561 3.16408 2.31578 0
M  V30 7342 H 709.051 2.69658 3.18864 0
M  V30 7343 N 709.488 -0.375779 1.53054 0
M  V30 7344 C 710.713 -1.14484 1.7294 0
M  V30 7345 C 711.138 -1.82572 0.452668 0
M  V30 7346 O 710.496 -1.71343 -0.592567 0
M  V30 7347 C 710.544 -2.15857 2.88857 0
M  V30 7348 O 709.648 -3.22725 2.56753 0
M  V30 7349 H 708.989 -0.332666 0.574656 0
M  V30 7350 H 711.519 -0.436025 1.999 0
M  V30 7351 H 711.529 -2.59631 3.14731 0
M  V30 7352 H 710.204 -1.65689 3.81471 0
M  V30 7353 H 708.781 -2.83996 2.41663 0
M  V30 7354 N 710.966 -1.44241 -0.634997 0
M  V30 7355 C 711.916 -1.47247 -1.74076 0
M  V30 7356 C 712.9 -0.338708 -1.57295 0
M  V30 7357 O 714.092 -0.583751 -1.67097 0
M  V30 7358 C 711.221 -1.41579 -3.12746 0
M  V30 7359 C 710.307 -2.60055 -3.35011 0
M  V30 7360 N 710.698 -3.85321 -3.27661 0
M  V30 7361 C 708.996 -2.55168 -3.65794 0
M  V30 7362 C 709.697 -4.64241 -3.50508 0
M  V30 7363 N 708.673 -3.95254 -3.73196 0
M  V30 7364 H 712.475 -2.4195 -1.66845 0
M  V30 7365 H 709.989 -1.3915 -0.837326 0
M  V30 7366 H 711.986 -1.41816 -3.92038 0
M  V30 7367 H 710.646 -0.479108 -3.21146 0
M  V30 7368 H 711.657 -4.17345 -3.06665 0
M  V30 7369 H 708.334 -1.70276 -3.81198 0
M  V30 7370 H 709.724 -5.73267 -3.50449 0
M  V30 7371 N 712.444 0.87505 -1.31075 0
M  V30 7372 C 713.669 1.66583 -1.23551 0
M  V30 7373 C 714.094 1.87067 0.19686 0
M  V30 7374 O 713.452 1.40877 1.1412 0
M  V30 7375 C 713.5 3.01401 -1.97965 0
M  V30 7376 O 712.604 3.90923 -1.31351 0
M  V30 7377 H 711.945 0.508645 -0.426821 0
M  V30 7378 H 714.475 1.09139 -1.7306 0
M  V30 7379 H 714.485 3.51374 -2.07366 0
M  V30 7380 H 713.16 2.85812 -3.02133 0
M  V30 7381 H 711.737 3.49369 -1.30368 0
M  V30 7382 N 713.922 1.13953 1.08869 0
M  V30 7383 C 714.885 0.824991 2.13838 0
M  V30 7384 C 715.885 -0.168198 1.59918 0
M  V30 7385 O 717.075 0.0595778 1.74098 0
M  V30 7386 C 714.207 0.228938 3.4013 0
M  V30 7387 H 715.4 1.75521 2.43171 0
M  V30 7388 H 712.953 0.94492 1.24503 0
M  V30 7389 H 713.688 -0.710227 3.16427 0
M  V30 7390 H 713.473 0.944243 3.80561 0
M  V30 7391 H 714.963 0.0259223 4.17592 0
M  V30 7392 N 715.4 -1.26948 0.933913 0
M  V30 7393 C 716.648 -1.93704 0.576484 0
M  V30 7394 C 716.969 -1.73702 -0.886145 0
M  V30 7395 O 716.239 -1.08838 -1.62884 0
M  V30 7396 H 714.819 -0.716812 0.210214 0
M  V30 7397 H 717.481 -1.54534 1.18766 0
M  V30 7398 H 716.577 -3.01987 0.788055 0
M  V30 7399 N 716.879 -0.700114 -1.41195 0
M  V30 7400 C 718.107 -0.242179 -2.05478 0
M  V30 7401 C 718.522 1.11029 -1.52702 0
M  V30 7402 O 717.879 1.69473 -0.677127 0
M  V30 7403 C 717.93 -0.196271 -3.60967 0
M  V30 7404 O 717.651 -1.49532 -4.11791 0
M  V30 7405 C 719.152 0.282102 -4.42401 0
M  V30 7406 H 716.372 -0.111749 -0.661629 0
M  V30 7407 H 718.916 -0.953975 -1.80885 0
M  V30 7408 H 717.071 0.46638 -3.84582 0
M  V30 7409 H 717.485 -1.38545 -5.05871 0
M  V30 7410 H 718.959 0.263093 -5.51373 0
M  V30 7411 H 719.436 1.32174 -4.1884 0
M  V30 7412 H 720.042 -0.349712 -4.2386 0
M  V30 7413 N 718.357 1.51182 -0.445186 0
M  V30 7414 C 719.304 2.27939 0.362291 0
M  V30 7415 C 720.274 1.31864 1.01 0
M  V30 7416 O 721.459 1.60776 1.02741 0
M  V30 7417 C 718.599 3.13016 1.45311 0
M  V30 7418 C 717.712 4.24093 0.822757 0
M  V30 7419 C 716.847 4.96467 1.88928 0
M  V30 7420 C 715.886 5.99454 1.23778 0
M  V30 7421 N 715.023 6.65206 2.24602 0
M  V30 7422 H 719.863 2.965 -0.29862 0
M  V30 7423 H 717.4 1.46237 -0.15911 0
M  V30 7424 H 719.358 3.60673 2.09692 0
M  V30 7425 H 717.988 2.46553 2.08354 0
M  V30 7426 H 717.04 3.80341 0.0670364 0
M  V30 7427 H 718.352 4.97853 0.307184 0
M  V30 7428 H 717.506 5.47712 2.60953 0
M  V30 7429 H 716.245 4.22355 2.4386 0
M  V30 7430 H 715.25 5.47494 0.503042 0
M  V30 7431 H 716.475 6.75527 0.695694 0
M  V30 7432 H 714.421 5.93901 2.78599 0
M  V30 7433 H 714.338 7.34756 1.77958 0
M  V30 7434 H 715.606 7.21078 2.96085 0
M  V30 7435 N 719.835 0.176821 1.56605 0
M  V30 7436 C 720.798 -0.737429 2.17013 0
M  V30 7437 C 721.798 -1.15414 1.11965 0
M  V30 7438 O 722.988 -1.0702 1.37449 0
M  V30 7439 C 720.12 -2.00445 2.75744 0
M  V30 7440 H 721.313 -0.211455 2.99154 0
M  V30 7441 H 718.866 -0.0727582 1.56131 0
M  V30 7442 H 719.601 -2.57338 1.97352 0
M  V30 7443 H 719.386 -1.71456 3.52626 0
M  V30 7444 H 720.876 -2.65679 3.22187 0
M  V30 7445 N 721.313 -1.57302 -0.09688 0
M  V30 7446 C 722.724 -1.7496 -0.651595 0
M  V30 7447 C 723.075 -0.798746 -1.79205 0
M  V30 7448 O 722.2 0.0231858 -2.16388 0
M  V30 7449 C 722.795 -3.17259 -1.18878 0
M  V30 7450 C 721.354 -3.36348 -1.68958 0
M  V30 7451 C 720.501 -2.70766 -0.598413 0
M  V30 7452 H 723.452 -1.58173 0.12918 0
M  V30 7453 H 723.473 -3.20033 -2.05814 0
M  V30 7454 H 722.985 -3.8644 -0.358523 0
M  V30 7455 H 721.086 -2.72243 -2.5439 0
M  V30 7456 H 721.199 -4.44654 -1.7838 0
M  V30 7457 H 719.563 -2.32615 -1.03743 0
M  V30 7458 H 720.346 -3.42586 0.221238 0
M  V30 7459 N 722.791 0.367657 -1.53252 0
M  V30 7460 C 723.754 1.43308 -1.78873 0
M  V30 7461 C 724.754 1.46671 -0.659115 0
M  V30 7462 O 725.944 1.47468 -0.927306 0
M  V30 7463 C 723.076 2.82442 -1.90892 0
M  V30 7464 H 724.269 1.21864 -2.74024 0
M  V30 7465 H 721.822 0.600668 -1.44297 0
M  V30 7466 H 722.557 3.09202 -0.978 0
M  V30 7467 H 722.342 2.81399 -2.73051 0
M  V30 7468 H 723.832 3.59601 -2.12314 0
M  V30 7469 N 724.269 1.44576 0.627338 0
M  V30 7470 C 725.199 1.54562 1.75022 0
M  V30 7471 C 726.18 0.398378 1.65369 0
M  V30 7472 O 727.365 0.61899 1.84071 0
M  V30 7473 C 724.495 1.49309 3.13567 0
M  V30 7474 C 723.449 2.62549 3.38012 0
M  V30 7475 C 722.775 2.42348 4.76625 0
M  V30 7476 C 724.075 4.04678 3.30202 0
M  V30 7477 H 725.769 2.4855 1.66922 0
M  V30 7478 H 723.315 1.19624 0.801636 0
M  V30 7479 H 725.268 1.54895 3.919 0
M  V30 7480 H 723.992 0.518392 3.2246 0
M  V30 7481 H 722.651 2.56358 2.62061 0
M  V30 7482 H 722.299 1.43062 4.82226 0
M  V30 7483 H 721.999 3.18273 4.93939 0
M  V30 7484 H 723.523 2.49758 5.57183 0
M  V30 7485 H 724.937 4.12217 3.98435 0
M  V30 7486 H 723.334 4.80836 3.5905 0
M  V30 7487 H 724.404 4.2798 2.27949 0
M  V30 7488 N 725.747 -0.868086 1.31537 0
M  V30 7489 C 726.694 -1.97548 1.19346 0
M  V30 7490 C 727.664 -1.65913 0.0787922 0
M  V30 7491 O 728.849 -1.89129 0.251985 0
M  V30 7492 C 725.989 -3.32922 0.908692 0
M  V30 7493 C 725.102 -3.77141 2.10687 0
M  V30 7494 C 724.237 -5.01241 1.75873 0
M  V30 7495 C 723.276 -5.37914 2.92088 0
M  V30 7496 N 722.413 -6.53192 2.57457 0
M  V30 7497 H 727.253 -2.07307 2.14074 0
M  V30 7498 H 724.79 -1.01483 1.06487 0
M  V30 7499 H 726.748 -4.10867 0.724138 0
M  V30 7500 H 725.378 -3.228 -0.0017611 0
M  V30 7501 H 724.43 -2.94961 2.40213 0
M  V30 7502 H 725.742 -4.00248 2.97663 0
M  V30 7503 H 724.896 -5.86858 1.53891 0
M  V30 7504 H 723.635 -4.80041 0.86091 0
M  V30 7505 H 722.64 -4.50814 3.14717 0
M  V30 7506 H 723.865 -5.61077 3.82582 0
M  V30 7507 H 721.811 -6.33536 1.702 0
M  V30 7508 H 721.728 -6.76252 3.37963 0
M  V30 7509 H 722.996 -7.41997 2.38873 0
M  V30 7510 N 727.225 -1.14528 -1.08264 0
M  V30 7511 C 728.473 -0.912599 -1.80322 0
M  V30 7512 C 728.794 0.562256 -1.86718 0
M  V30 7513 O 728.064 1.40869 -1.36135 0
M  V30 7514 H 726.644 -0.334645 -0.667849 0
M  V30 7515 H 729.306 -1.44415 -1.30883 0
M  V30 7516 H 728.402 -1.31384 -2.83098 0
M  V30 7517 N 728.703 1.26451 -0.940633 0
M  V30 7518 C 729.951 1.93395 -0.586748 0
M  V30 7519 C 730.272 1.7417 0.876921 0
M  V30 7520 O 729.542 1.097 1.62304 0
M  V30 7521 H 728.122 0.715687 -0.214012 0
M  V30 7522 H 730.784 1.53902 -1.19584 0
M  V30 7523 H 729.88 3.01565 -0.804059 0
M  V30 7524 N 730.181 0.707592 1.40822 0
M  V30 7525 C 731.144 0.0587224 2.29125 0
M  V30 7526 C 732.144 -0.695624 1.44975 0
M  V30 7527 O 733.334 -0.528718 1.65983 0
M  V30 7528 C 730.466 -0.926939 3.28056 0
M  V30 7529 H 731.659 0.836349 2.88002 0
M  V30 7530 H 729.212 0.471778 1.4901 0
M  V30 7531 H 729.947 -1.7319 2.74182 0
M  V30 7532 H 729.732 -0.389015 3.90165 0
M  V30 7533 H 731.222 -1.37837 3.94196 0
M  V30 7534 N 731.66 -1.50943 0.453197 0
M  V30 7535 C 732.623 -2.26684 -0.338705 0
M  V30 7536 C 733.623 -1.30748 -0.936032 0
M  V30 7537 O 734.813 -1.54327 -0.808002 0
M  V30 7538 C 731.945 -3.07063 -1.48071 0
M  V30 7539 H 733.138 -2.98131 0.325289 0
M  V30 7540 H 730.691 -1.54926 0.206771 0
M  V30 7541 H 731.426 -2.4007 -2.18029 0
M  V30 7542 H 731.211 -3.77545 -1.0584 0
M  V30 7543 H 732.701 -3.64393 -2.0398 0
M  V30 7544 N 733.138 -0.185124 -1.56509 0
M  V30 7545 C 734.048 0.751908 -2.22224 0
M  V30 7546 C 735.064 1.24244 -1.21817 0
M  V30 7547 O 736.24 1.29169 -1.54523 0
M  V30 7548 C 733.305 1.95837 -2.86092 0
M  V30 7549 C 732.366 1.51337 -4.01741 0
M  V30 7550 C 731.599 2.66233 -4.62554 0
M  V30 7551 O 731.822 3.8346 -4.22273 0
M  V30 7552 O 730.756 2.39517 -5.52191 0
M  V30 7553 H 734.582 0.222304 -3.02885 0
M  V30 7554 H 732.167 0.0437141 -1.49336 0
M  V30 7555 H 734.049 2.66368 -3.26536 0
M  V30 7556 H 732.724 2.47677 -2.08417 0
M  V30 7557 H 731.631 0.777155 -3.65939 0
M  V30 7558 H 732.964 1.04175 -4.81049 0
M  V30 7559 N 734.616 1.57351 0.0885366 0
M  V30 7560 C 735.546 2.05561 1.10757 0
M  V30 7561 C 736.527 0.945789 1.41382 0
M  V30 7562 O 737.712 1.21747 1.51299 0
M  V30 7563 C 734.842 2.48554 2.42566 0
M  V30 7564 C 733.796 3.63259 2.26334 0
M  V30 7565 C 733.122 3.9225 3.63378 0
M  V30 7566 C 734.422 4.93913 1.69844 0
M  V30 7567 H 736.116 2.90946 0.706468 0
M  V30 7568 H 733.662 1.39968 0.338385 0
M  V30 7569 H 735.615 2.8089 3.14132 0
M  V30 7570 H 734.339 1.60176 2.84625 0
M  V30 7571 H 732.998 3.31179 1.57213 0
M  V30 7572 H 732.646 3.0103 4.02976 0
M  V30 7573 H 732.346 4.69478 3.53362 0
M  V30 7574 H 733.87 4.27067 4.36401 0
M  V30 7575 H 735.284 5.24588 2.31258 0
M  V30 7576 H 733.681 5.75349 1.70569 0
M  V30 7577 H 734.751 4.80409 0.65843 0
M  V30 7578 N 736.094 -0.359525 1.53444 0
M  V30 7579 C 737.51 -0.701599 1.43352 0
M  V30 7580 C 737.71 -1.93049 0.577439 0
M  V30 7581 O 736.766 -2.52423 0.0622224 0
M  V30 7582 C 738.079 -0.90915 2.86627 0
M  V30 7583 C 739.627 -1.00878 2.96298 0
M  V30 7584 C 740.102 -1.24876 4.40647 0
M  V30 7585 N 741.593 -1.31632 4.44103 0
M  V30 7586 C 742.328 -1.51922 5.52908 0
M  V30 7587 N 741.824 -1.69489 6.71748 0
M  V30 7588 N 743.617 -1.54341 5.40496 0
M  V30 7589 H 735.768 0.448685 2.07607 0
M  V30 7590 H 738.031 0.138713 0.937797 0
M  V30 7591 H 737.737 -0.0778997 3.51614 0
M  V30 7592 H 737.611 -1.81551 3.30634 0
M  V30 7593 H 739.998 -1.83057 2.31461 0
M  V30 7594 H 740.079 -0.0796721 2.55676 0
M  V30 7595 H 739.723 -0.431961 5.0606 0
M  V30 7596 H 739.653 -2.19118 4.78848 0
M  V30 7597 H 742.144 -1.19646 3.5846 0
M  V30 7598 H 742.457 -1.84561 7.50438 0
M  V30 7599 H 740.802 -1.66655 6.74723 0
M  V30 7600 H 743.993 -1.40188 4.46615 0
M  V30 7601 H 744.166 -1.69812 6.25354 0
M  V30 7602 N 737.572 -1.44907 -0.619662 0
M  V30 7603 C 738.983 -1.42905 -1.20146 0
M  V30 7604 C 739.334 -0.150341 -1.95623 0
M  V30 7605 O 738.459 0.748732 -2.03034 0
M  V30 7606 C 739.054 -2.58889 -2.18545 0
M  V30 7607 C 737.613 -2.60046 -2.72127 0
M  V30 7608 C 736.76 -2.3493 -1.4732 0
M  V30 7609 H 739.711 -1.53321 -0.409666 0
M  V30 7610 H 739.732 -2.32298 -3.0136 0
M  V30 7611 H 739.244 -3.51941 -1.63583 0
M  V30 7612 H 737.345 -1.70968 -3.3106 0
M  V30 7613 H 737.458 -3.58893 -3.17384 0
M  V30 7614 H 735.822 -1.84248 -1.75855 0
M  V30 7615 H 736.605 -3.3011 -0.942442 0
M  V30 7616 N 739.05 0.861098 -1.31996 0
M  V30 7617 C 740.461 1.43065 -1.19955 0
M  V30 7618 C 740.812 1.95273 0.190489 0
M  V30 7619 O 739.937 1.87012 1.08882 0
M  V30 7620 C 740.532 2.60052 -2.1716 0
M  V30 7621 C 739.091 3.13026 -2.09026 0
M  V30 7622 C 738.238 1.85756 -2.05888 0
M  V30 7623 H 741.189 0.668834 -1.43918 0
M  V30 7624 H 741.21 3.37016 -1.76637 0
M  V30 7625 H 740.722 2.22024 -3.18319 0
M  V30 7626 H 738.823 3.55653 -1.11092 0
M  V30 7627 H 738.936 3.74707 -2.98549 0
M  V30 7628 H 737.3 2.05088 -1.51033 0
M  V30 7629 H 738.083 1.49954 -3.08818 0
M  V30 7630 N 740.528 1.15101 1.07655 0
M  V30 7631 C 741.805 0.834578 1.76902 0
M  V30 7632 C 742.185 -0.670431 2.00171 0
M  V30 7633 O 741.533 -1.61378 1.6177 0
M  V30 7634 C 741.743 1.64191 3.07965 0
M  V30 7635 C 743.091 1.84615 3.82364 0
M  V30 7636 O 744.115 1.60941 3.17768 0
M  V30 7637 O 742.974 2.24244 4.98374 0
M  V30 7638 H 740.068 0.306608 0.768063 0
M  V30 7639 H 742.614 1.25663 1.14048 0
M  V30 7640 H 741.386 2.66386 2.86626 0
M  V30 7641 H 741.009 1.216 3.78549 0
M  V30 7642 N 742.006 -1.2595 0.947325 0
M  V30 7643 C 743.252 -1.9375 0.599064 0
M  V30 7644 C 743.585 -1.74088 -0.860632 0
M  V30 7645 O 742.86 -1.08158 -1.61654 0
M  V30 7646 C 743.143 -3.47353 0.949634 0
M  V30 7647 C 742.996 -3.76273 2.46452 0
M  V30 7648 C 744.315 -4.37589 0.469442 0
M  V30 7649 H 741.434 -0.703674 0.219115 0
M  V30 7650 H 744.076 -1.48705 1.18266 0
M  V30 7651 H 742.226 -3.8585 0.453008 0
M  V30 7652 H 743.898 -3.47455 3.03435 0
M  V30 7653 H 742.141 -3.22135 2.90537 0
M  V30 7654 H 742.812 -4.83664 2.66032 0
M  V30 7655 H 745.288 -4.06353 0.89534 0
M  V30 7656 H 744.164 -5.43841 0.7435 0
M  V30 7657 H 744.425 -4.37579 -0.630618 0
M  V30 7658 N 743.484 -0.715051 -1.40445 0
M  V30 7659 C 744.732 -0.253826 -2.005 0
M  V30 7660 C 745.053 1.15681 -1.5698 0
M  V30 7661 O 744.323 1.78414 -0.809027 0
M  V30 7662 H 742.903 -0.0908537 -0.741454 0
M  V30 7663 H 745.565 -0.920561 -1.7179 0
M  V30 7664 H 744.661 -0.286499 -3.10782 0
M  V30 7665 N 744.962 1.50701 -0.461195 0
M  V30 7666 C 745.912 2.25195 0.35653 0
M  V30 7667 C 746.896 1.2838 0.96992 0
M  V30 7668 O 748.088 1.53338 0.884108 0
M  V30 7669 C 745.217 3.11471 1.44364 0
M  V30 7670 C 744.303 4.15729 0.83847 0
M  V30 7671 N 744.694 5.05788 -0.0353198 0
M  V30 7672 C 742.992 4.32133 1.1035 0
M  V30 7673 C 743.693 5.80472 -0.37774 0
M  V30 7674 N 742.669 5.43049 0.24463 0
M  V30 7675 H 746.471 2.92188 -0.316746 0
M  V30 7676 H 743.985 1.60059 -0.274725 0
M  V30 7677 H 745.982 3.63436 2.04255 0
M  V30 7678 H 744.642 2.46025 2.11901 0
M  V30 7679 H 745.653 5.16326 -0.403465 0
M  V30 7680 H 742.33 3.77908 1.77458 0
M  V30 7681 H 743.72 6.62996 -1.09024 0
M  V30 7682 N 746.441 0.193421 1.56409 0
M  V30 7683 C 747.687 -0.446449 1.97825 0
M  V30 7684 C 748.02 -1.61386 1.08019 0
M  V30 7685 O 747.295 -1.94053 0.131839 0
M  V30 7686 C 747.578 -0.908199 3.48459 0
M  V30 7687 C 747.431 0.260914 4.49043 0
M  V30 7688 C 748.75 -1.77428 4.0275 0
M  V30 7689 H 745.869 -0.160807 0.719243 0
M  V30 7690 H 748.511 0.284006 1.87865 0
M  V30 7691 H 746.661 -1.53062 3.57077 0
M  V30 7692 H 748.333 0.898548 4.52464 0
M  V30 7693 H 746.576 0.912949 4.24085 0
M  V30 7694 H 747.247 -0.104657 5.51901 0
M  V30 7695 H 749.723 -1.24936 3.96901 0
M  V30 7696 H 748.599 -2.06633 5.08521 0
M  V30 7697 H 748.86 -2.72788 3.47907 0
M  V30 7698 N 747.919 -1.57396 -0.0801906 0
M  V30 7699 C 748.849 -2.06145 -1.09665 0
M  V30 7700 C 749.83 -0.953273 -1.40878 0
M  V30 7701 O 751.015 -1.22548 -1.50651 0
M  V30 7702 C 748.145 -2.49836 -2.41245 0
M  V30 7703 C 747.099 -3.64454 -2.24405 0
M  V30 7704 C 746.425 -3.94172 -3.61293 0
M  V30 7705 C 747.725 -4.94807 -1.67223 0
M  V30 7706 H 749.419 -2.91316 -0.691028 0
M  V30 7707 H 746.965 -1.40145 -0.330957 0
M  V30 7708 H 748.918 -2.82552 -3.12638 0
M  V30 7709 H 747.642 -1.61683 -2.83771 0
M  V30 7710 H 746.301 -3.32008 -1.55454 0
M  V30 7711 H 745.949 -3.03163 -4.01374 0
M  V30 7712 H 745.649 -4.71345 -3.50867 0
M  V30 7713 H 747.173 -4.29376 -4.3413 0
M  V30 7714 H 748.587 -5.25807 -2.28472 0
M  V30 7715 H 746.984 -5.76245 -1.67515 0
M  V30 7716 H 748.054 -4.80751 -0.632944 0
M  V30 7717 N 749.397 0.351382 -1.53633 0
M  V30 7718 C 750.813 0.693987 -1.43722 0
M  V30 7719 C 751.013 1.9274 -0.587669 0
M  V30 7720 O 750.069 2.52387 -0.0756082 0
M  V30 7721 C 751.382 0.893937 -2.87105 0
M  V30 7722 C 752.93 0.993051 -2.96829 0
M  V30 7723 C 753.405 1.22537 -4.41303 0
M  V30 7724 N 754.896 1.29275 -4.44795 0
M  V30 7725 C 755.631 1.48988 -5.53706 0
M  V30 7726 N 755.127 1.65924 -6.72637 0
M  V30 7727 N 756.92 1.51472 -5.41306 0
M  V30 7728 H 749.071 -0.459688 -2.07366 0
M  V30 7729 H 751.334 -0.143684 -0.937048 0
M  V30 7730 H 751.04 0.0592517 -3.5165 0
M  V30 7731 H 750.914 1.79795 -3.31592 0
M  V30 7732 H 753.301 1.81827 -2.32429 0
M  V30 7733 H 753.382 0.0661119 -2.55715 0
M  V30 7734 H 753.026 0.405117 -5.06282 0
M  V30 7735 H 752.956 2.16575 -4.80003 0
M  V30 7736 H 755.447 1.17743 -3.59089 0
M  V30 7737 H 755.76 1.80578 -7.51406 0
M  V30 7738 H 754.105 1.63075 -6.75597 0
M  V30 7739 H 757.296 1.37818 -4.47352 0
M  V30 7740 H 757.469 1.66493 -6.26246 0
M  V30 7741 N 750.875 1.45233 0.611969 0
M  V30 7742 C 751.808 1.48056 1.73651 0
M  V30 7743 C 752.786 0.337373 1.59061 0
M  V30 7744 O 753.97 0.537222 1.80683 0
M  V30 7745 C 751.097 1.33144 3.11433 0
M  V30 7746 C 750.143 2.51272 3.44623 0
M  V30 7747 S 750.976 4.13754 3.39953 0
M  V30 7748 C 752.132 4.013 4.80322 0
M  V30 7749 H 752.365 2.43205 1.70993 0
M  V30 7750 H 749.898 1.32763 0.788246 0
M  V30 7751 H 751.856 1.25228 3.90932 0
M  V30 7752 H 750.517 0.394734 3.1161 0
M  V30 7753 H 749.71 2.36753 4.44932 0
M  V30 7754 H 749.312 2.56027 2.72629 0
M  V30 7755 H 751.604 3.66174 5.7002 0
M  V30 7756 H 752.547 5.01506 4.99897 0
M  V30 7757 H 752.955 3.3303 4.55797 0
M  V30 7758 N 752.353 -0.854086 1.3245 0
M  V30 7759 C 753.283 -1.97827 1.24044 0
M  V30 7760 C 754.264 -1.69646 0.124166 0
M  V30 7761 O 755.449 -1.91687 0.31143 0
M  V30 7762 C 752.579 -3.33673 0.963324 0
M  V30 7763 C 751.533 -3.76207 2.04089 0
M  V30 7764 C 750.859 -5.0969 1.61618 0
M  V30 7765 C 752.159 -3.91612 3.45597 0
M  V30 7766 H 753.853 -2.05118 2.18099 0
M  V30 7767 H 751.399 -0.985489 1.04996 0
M  V30 7768 H 753.352 -4.11871 0.891061 0
M  V30 7769 H 752.076 -3.26597 -0.0128649 0
M  V30 7770 H 750.735 -3.0026 2.10332 0
M  V30 7771 H 750.383 -4.99072 0.627418 0
M  V30 7772 H 750.083 -5.3912 2.33717 0
M  V30 7773 H 751.607 -5.90381 1.55829 0
M  V30 7774 H 753.021 -4.60163 3.4194 0
M  V30 7775 H 751.418 -4.3246 4.16051 0
M  V30 7776 H 752.488 -2.9451 3.85217 0
M  V30 7777 N 753.831 -1.1567 -1.07043 0
M  V30 7778 C 754.761 -0.879348 -2.16309 0
M  V30 7779 C 755.742 0.171311 -1.69235 0
M  V30 7780 O 756.927 0.0250175 -1.94184 0
M  V30 7781 C 754.057 -0.371307 -3.45309 0
M  V30 7782 C 753.011 -1.359 -4.05851 0
M  V30 7783 C 752.337 -0.709678 -5.29969 0
M  V30 7784 C 753.637 -2.72606 -4.45514 0
M  V30 7785 H 755.331 -1.79308 -2.39768 0
M  V30 7786 H 752.877 -0.863558 -1.15233 0
M  V30 7787 H 754.83 -0.164798 -4.21078 0
M  V30 7788 H 753.554 0.577906 -3.21446 0
M  V30 7789 H 752.213 -1.55193 -3.32131 0
M  V30 7790 H 751.861 0.245782 -5.02399 0
M  V30 7791 H 751.561 -1.36886 -5.71433 0
M  V30 7792 H 753.085 -0.513015 -6.08441 0
M  V30 7793 H 754.499 -2.57141 -5.12398 0
M  V30 7794 H 752.896 -3.34927 -4.97939 0
M  V30 7795 H 753.966 -3.28434 -3.56734 0
M  V30 7796 N 755.309 1.25446 -0.953992 0
M  V30 7797 C 756.557 1.92762 -0.607227 0
M  V30 7798 C 756.878 1.7509 0.858399 0
M  V30 7799 O 756.148 1.11416 1.61132 0
M  V30 7800 H 754.728 0.713377 -0.221591 0
M  V30 7801 H 757.39 1.52625 -1.21209 0
M  V30 7802 H 756.486 3.00695 -0.835998 0
M  V30 7803 N 756.787 0.722489 1.40064 0
M  V30 7804 C 757.734 0.0743738 2.3068 0
M  V30 7805 C 758.704 -0.743004 1.48555 0
M  V30 7806 O 759.889 -0.705536 1.77276 0
M  V30 7807 C 757.029 -0.836292 3.34814 0
M  V30 7808 C 756.142 -0.00764663 4.31999 0
M  V30 7809 C 755.277 -0.918428 5.232 0
M  V30 7810 C 754.316 -0.0842838 6.12042 0
M  V30 7811 N 753.453 -0.950316 6.95639 0
M  V30 7812 H 758.293 0.852794 2.85537 0
M  V30 7813 H 755.83 0.432222 1.40607 0
M  V30 7814 H 757.788 -1.3786 3.93765 0
M  V30 7815 H 756.418 -1.58082 2.81443 0
M  V30 7816 H 755.47 0.651928 3.74772 0
M  V30 7817 H 756.782 0.63786 4.94705 0
M  V30 7818 H 755.936 -1.52902 5.87116 0
M  V30 7819 H 754.675 -1.59774 4.60786 0
M  V30 7820 H 753.68 0.5392 5.4715 0
M  V30 7821 H 754.905 0.591628 6.76518 0
M  V30 7822 H 752.851 -1.61515 6.35806 0
M  V30 7823 H 752.768 -0.361004 7.55138 0
M  V30 7824 H 754.036 -1.54687 7.63997 0
M  V30 7825 N 758.265 -1.50454 0.469181 0
M  V30 7826 C 759.198 -2.25149 -0.371928 0
M  V30 7827 C 760.176 -1.28382 -0.997845 0
M  V30 7828 O 761.36 -1.57599 -1.03415 0
M  V30 7829 C 758.487 -3.02629 -1.52097 0
M  V30 7830 C 757.533 -4.14305 -1.01262 0
M  V30 7831 S 758.366 -5.35453 0.0711459 0
M  V30 7832 C 759.522 -6.1648 -1.08181 0
M  V30 7833 H 759.755 -2.96142 0.262134 0
M  V30 7834 H 757.288 -1.52296 0.254042 0
M  V30 7835 H 759.246 -3.47861 -2.17952 0
M  V30 7836 H 757.907 -2.31165 -2.12654 0
M  V30 7837 H 757.1 -4.67913 -1.87278 0
M  V30 7838 H 756.702 -3.71499 -0.431804 0
M  V30 7839 H 758.994 -6.47497 -1.99382 0
M  V30 7840 H 759.937 -7.05679 -0.585028 0
M  V30 7841 H 760.345 -5.48492 -1.33478 0
M  V30 7842 N 759.743 -0.201713 -1.56304 0
M  V30 7843 C 760.983 0.437395 -1.99665 0
M  V30 7844 C 761.347 1.58341 -1.08592 0
M  V30 7845 O 762.548 2.28716 -1.41217 0
M  V30 7846 C 760.819 0.879572 -3.46408 0
M  V30 7847 S 762.378 1.51558 -4.11795 0
M  V30 7848 H 759.196 0.139621 -0.697156 0
M  V30 7849 H 761.798 -0.306337 -1.93085 0
M  V30 7850 H 760.502 0.0355295 -4.10385 0
M  V30 7851 H 760.033 1.65661 -3.56819 0
M  V30 7852 H 762.048 2.80445 -4.09347 0
M  V30 7853 N 761.222 1.57436 0.0718424 0
M  V30 7854 C 762.185 2.02703 1.06977 0
M  V30 7855 C 763.185 0.924062 1.31597 0
M  V30 7856 O 764.375 1.18894 1.27318 0
M  V30 7857 C 761.507 2.40763 2.41342 0
M  V30 7858 H 762.7 2.92098 0.679619 0
M  V30 7859 H 760.253 1.5304 0.317565 0
M  V30 7860 H 760.988 1.54394 2.8519 0
M  V30 7861 H 760.773 3.21249 2.24814 0
M  V30 7862 H 762.263 2.76361 3.13073 0
M  V30 7863 N 762.7 -0.34323 1.53817 0
M  V30 7864 C 764.111 -0.918823 1.62525 0
M  V30 7865 C 764.462 -1.89542 0.506765 0
M  V30 7866 O 763.587 -2.13326 -0.363441 0
M  V30 7867 C 764.182 -1.67326 2.94597 0
M  V30 7868 C 762.741 -2.19786 3.05567 0
M  V30 7869 C 761.888 -1.01708 2.57974 0
M  V30 7870 H 764.839 -0.121358 1.58235 0
M  V30 7871 H 764.86 -2.53615 2.83654 0
M  V30 7872 H 764.372 -0.962223 3.75983 0
M  V30 7873 H 762.473 -2.94065 2.28816 0
M  V30 7874 H 762.586 -2.46135 4.1104 0
M  V30 7875 H 760.95 -1.39058 2.13389 0
M  V30 7876 H 761.733 -0.320671 3.41799 0
M  V30 7877 N 764.178 -1.45556 -0.604258 0
M  V30 7878 C 765.594 -1.30035 -0.925368 0
M  V30 7879 C 765.794 -0.255833 -1.99869 0
M  V30 7880 O 764.85 0.349076 -2.50075 0
M  V30 7881 C 766.163 -2.68028 -1.36314 0
M  V30 7882 C 767.711 -2.75951 -1.47717 0
M  V30 7883 C 768.186 -4.14476 -1.94868 0
M  V30 7884 N 769.677 -4.16787 -2.02097 0
M  V30 7885 C 770.412 -5.20845 -2.39809 0
M  V30 7886 N 769.908 -6.35246 -2.76467 0
M  V30 7887 N 771.701 -5.08204 -2.40177 0
M  V30 7888 H 763.852 -2.1214 0.10512 0
M  V30 7889 H 766.115 -0.947871 -0.0156303 0
M  V30 7890 H 765.821 -3.45667 -0.648628 0
M  V30 7891 H 765.695 -2.96711 -2.329 0
M  V30 7892 H 768.082 -1.98613 -2.18258 0
M  V30 7893 H 768.163 -2.50977 -0.494371 0
M  V30 7894 H 767.807 -4.923 -1.24912 0
M  V30 7895 H 767.737 -4.36843 -2.94068 0
M  V30 7896 H 770.228 -3.34233 -1.76343 0
M  V30 7897 H 770.541 -7.10438 -3.04134 0
M  V30 7898 H 768.886 -6.38642 -2.74155 0
M  V30 7899 H 772.077 -4.17874 -2.10947 0
M  V30 7900 H 772.25 -5.89417 -2.69242 0
M  V30 7901 N 765.656 0.84705 -1.32902 0
M  V30 7902 C 766.886 1.63166 -1.26729 0
M  V30 7903 C 767.294 1.88474 0.165595 0
M  V30 7904 O 766.637 1.45947 1.11558 0
M  V30 7905 C 766.699 3.0103 -1.96522 0
M  V30 7906 C 766.363 2.9873 -3.45846 0
M  V30 7907 C 767.36 2.75032 -4.41196 0
M  V30 7908 C 765.045 3.19125 -3.87898 0
M  V30 7909 C 767.039 2.71743 -5.76571 0
M  V30 7910 C 764.726 3.15462 -5.2338 0
M  V30 7911 C 765.724 2.91801 -6.17528 0
M  V30 7912 O 765.412 2.88027 -7.5053 0
M  V30 7913 H 765.144 0.51469 -0.438258 0
M  V30 7914 H 767.698 1.06383 -1.75704 0
M  V30 7915 H 765.928 3.59634 -1.42128 0
M  V30 7916 H 767.617 3.61821 -1.83958 0
M  V30 7917 H 768.383 2.59034 -4.10032 0
M  V30 7918 H 764.262 3.36565 -3.15032 0
M  V30 7919 H 767.806 2.53194 -6.5003 0
M  V30 7920 H 763.703 3.31006 -5.54171 0
M  V30 7921 H 764.471 3.03927 -7.59981 0
M  V30 7922 N 767.134 1.16236 1.06428 0
M  V30 7923 C 768.545 0.950942 1.60667 0
M  V30 7924 C 768.896 -0.505491 1.89576 0
M  V30 7925 O 768.021 -1.37843 1.66818 0
M  V30 7926 C 768.616 1.71982 2.91904 0
M  V30 7927 C 767.175 1.55342 3.4285 0
M  V30 7928 C 766.322 1.72942 2.16763 0
M  V30 7929 H 769.273 1.31126 0.893959 0
M  V30 7930 H 769.294 1.19483 3.61253 0
M  V30 7931 H 768.806 2.77978 2.70831 0
M  V30 7932 H 766.907 0.5178 3.68985 0
M  V30 7933 H 767.02 2.33643 4.18267 0
M  V30 7934 H 765.384 1.15673 2.26918 0
M  V30 7935 H 766.167 2.80324 1.98175 0
M  V30 7936 N 768.612 -1.24939 0.960631 0
M  V30 7937 C 769.837 -1.9742 0.635608 0
M  V30 7938 C 770.262 -1.70857 -0.786737 0
M  V30 7939 O 769.62 -0.968063 -1.53291 0
M  V30 7940 C 769.668 -3.48987 0.907771 0
M  V30 7941 O 768.772 -4.12399 -0.0104053 0
M  V30 7942 H 768.113 -0.61871 0.241027 0
M  V30 7943 H 770.643 -1.58901 1.28886 0
M  V30 7944 H 770.653 -3.99334 0.836453 0
M  V30 7945 H 769.328 -3.6765 1.94439 0
M  V30 7946 H 767.905 -3.72727 0.113631 0
M  V30 7947 N 770.09 -0.729906 -1.39679 0
M  V30 7948 C 771.338 -0.275077 -2.00219 0
M  V30 7949 C 771.659 1.1401 -1.58199 0
M  V30 7950 O 770.929 1.77546 -0.827904 0
M  V30 7951 H 769.509 -0.0987127 -0.740449 0
M  V30 7952 H 772.171 -0.93873 -1.70804 0
M  V30 7953 H 771.267 -0.319446 -3.10461 0
M  V30 7954 N 771.568 1.50203 -0.477153 0
M  V30 7955 C 772.816 2.01959 0.0755889 0
M  V30 7956 C 773.137 1.3608 1.39668 0
M  V30 7957 O 772.407 0.508136 1.89195 0
M  V30 7958 H 770.987 0.74636 0.0309248 0
M  V30 7959 H 773.649 1.84473 -0.628959 0
M  V30 7960 H 772.745 3.11305 0.222683 0
M  V30 7961 N 773.046 0.209999 1.56195 0
M  V30 7962 C 774.009 -0.691232 2.18528 0
M  V30 7963 C 775.009 -1.13013 1.14388 0
M  V30 7964 O 776.199 -1.04081 1.39688 0
M  V30 7965 C 773.331 -1.94551 2.79934 0
M  V30 7966 H 774.524 -0.147953 2.99535 0
M  V30 7967 H 772.077 -0.0396243 1.5625 0
M  V30 7968 H 772.812 -2.53094 2.02766 0
M  V30 7969 H 772.597 -1.63938 3.56184 0
M  V30 7970 H 774.087 -2.58785 3.2775 0
M  V30 7971 N 774.524 -1.57472 -0.0634922 0
M  V30 7972 C 775.77 -1.88792 -0.756903 0
M  V30 7973 C 776.125 -0.804679 -1.74765 0
M  V30 7974 O 775.418 0.19033 -1.90652 0
M  V30 7975 C 775.612 -3.24521 -1.49736 0
M  V30 7976 C 775.441 -4.45946 -0.579833 0
M  V30 7977 C 774.211 -5.04848 -0.213667 0
M  V30 7978 C 776.409 -5.14143 0.12703 0
M  V30 7979 N 774.391 -6.09795 0.708712 0
M  V30 7980 C 775.762 -6.1334 0.906295 0
M  V30 7981 C 777.817 -4.97508 0.197625 0
M  V30 7982 C 776.52 -6.97697 1.74961 0
M  V30 7983 C 778.546 -5.82398 1.02794 0
M  V30 7984 C 777.908 -6.81139 1.79523 0
M  V30 7985 H 774.007 -0.740235 -0.252142 0
M  V30 7986 H 776.591 -1.94692 -0.0181026 0
M  V30 7987 H 774.762 -3.19615 -2.20683 0
M  V30 7988 H 776.494 -3.43464 -2.14044 0
M  V30 7989 H 773.249 -4.70177 -0.568357 0
M  V30 7990 H 773.673 -6.66929 1.16339 0
M  V30 7991 H 778.315 -4.21077 -0.381261 0
M  V30 7992 H 776.033 -7.73496 2.33943 0
M  V30 7993 H 779.619 -5.71581 1.08565 0
M  V30 7994 H 778.499 -7.45687 2.42736 0
M  V30 7995 N 776.003 0.335068 -1.53997 0
M  V30 7996 C 777.28 1.09188 -1.62288 0
M  V30 7997 C 777.66 2.0626 -0.449458 0
M  V30 7998 O 777.008 2.21596 0.557444 0
M  V30 7999 C 777.218 1.80403 -2.98757 0
M  V30 8000 C 778.566 2.33841 -3.54406 0
M  V30 8001 O 779.59 1.90487 -3.00987 0
M  V30 8002 O 778.449 3.1318 -4.47862 0
M  V30 8003 H 775.543 0.502621 -0.656736 0
M  V30 8004 H 778.089 0.33588 -1.66343 0
M  V30 8005 H 776.861 1.09732 -3.75599 0
M  V30 8006 H 776.484 2.62841 -2.9833 0
M  V30 8007 N 777.481 1.45874 0.596531 0
M  V30 8008 C 778.892 1.44798 1.17857 0
M  V30 8009 C 779.243 0.181443 1.95359 0
M  V30 8010 O 778.368 -0.716336 2.042 0
M  V30 8011 C 778.963 2.62333 2.14398 0
M  V30 8012 C 777.522 2.64342 2.67955 0
M  V30 8013 C 776.669 2.37244 1.43564 0
M  V30 8014 H 779.62 1.53954 0.385222 0
M  V30 8015 H 779.641 2.37063 2.97626 0
M  V30 8016 H 779.153 3.54499 1.57963 0
M  V30 8017 H 777.254 1.76213 3.28298 0
M  V30 8018 H 777.367 3.63897 3.11634 0
M  V30 8019 H 775.731 1.87022 1.72901 0
M  V30 8020 H 776.514 3.31568 0.889805 0
M  V30 8021 N 778.959 -0.83999 1.33349 0
M  V30 8022 C 779.909 -1.93817 1.20079 0
M  V30 8023 C 780.893 -1.60564 0.103978 0
M  V30 8024 O 782.085 -1.73859 0.331964 0
M  V30 8025 C 779.214 -3.30151 0.941031 0
M  V30 8026 C 778.3 -3.69577 2.08023 0
M  V30 8027 N 778.691 -3.80707 3.3301 0
M  V30 8028 C 776.989 -3.99309 1.98667 0
M  V30 8029 C 777.69 -4.14899 4.07717 0
M  V30 8030 N 776.666 -4.27208 3.36146 0
M  V30 8031 H 780.468 -2.00576 2.14817 0
M  V30 8032 H 777.982 -1.03264 1.2534 0
M  V30 8033 H 779.979 -4.08617 0.826894 0
M  V30 8034 H 778.639 -3.247 0.00216738 0
M  V30 8035 H 779.65 -3.64644 3.67771 0
M  V30 8036 H 776.327 -4.02076 1.12433 0
M  V30 8037 H 777.717 -4.30857 5.15569 0
M  V30 8038 N 780.437 -1.16799 -1.0581 0
M  V30 8039 C 781.848 -0.95945 -1.60161 0
M  V30 8040 C 782.199 0.49543 -1.89842 0
M  V30 8041 O 781.324 1.36957 -1.67546 0
M  V30 8042 C 781.919 -1.73527 -2.90987 0
M  V30 8043 C 780.478 -1.57158 -3.42021 0
M  V30 8044 C 779.625 -1.74089 -2.15843 0
M  V30 8045 H 782.576 -1.31598 -0.886992 0
M  V30 8046 H 782.597 -1.21397 -3.60615 0
M  V30 8047 H 782.109 -2.79411 -2.69353 0
M  V30 8048 H 780.21 -0.537361 -3.68705 0
M  V30 8049 H 780.323 -2.35858 -4.17022 0
M  V30 8050 H 778.687 -1.16874 -2.26302 0
M  V30 8051 H 779.47 -2.81371 -1.96686 0
M  V30 8052 N 781.915 1.24427 -0.967243 0
M  V30 8053 C 783.163 1.92107 -0.627638 0
M  V30 8054 C 783.484 1.75991 0.83978 0
M  V30 8055 O 782.754 1.13118 1.59941 0
M  V30 8056 H 781.334 0.710986 -0.229145 0
M  V30 8057 H 783.996 1.51331 -1.22821 0
M  V30 8058 H 783.092 2.99791 -0.867844 0
M  V30 8059 N 783.393 0.737304 1.3929 0
M  V30 8060 C 784.325 0.0592106 2.29124 0
M  V30 8061 C 785.338 -0.701026 1.46934 0
M  V30 8062 O 786.527 -0.544808 1.69983 0
M  V30 8063 C 783.627 -0.940358 3.25592 0
M  V30 8064 C 782.8 -0.241163 4.36735 0
M  V30 8065 C 781.859 -1.14916 5.13498 0
M  V30 8066 O 780.885 -0.625783 5.6575 0
M  V30 8067 N 782.087 -2.47869 5.2492 0
M  V30 8068 H 784.852 0.830647 2.87959 0
M  V30 8069 H 782.413 0.586718 1.50895 0
M  V30 8070 H 784.405 -1.55046 3.73822 0
M  V30 8071 H 782.975 -1.61299 2.67771 0
M  V30 8072 H 782.195 0.549441 3.90352 0
M  V30 8073 H 783.483 0.243299 5.08218 0
M  V30 8074 H 782.881 -2.92864 4.83991 0
M  V30 8075 H 781.438 -3.03969 5.76581 0
M  V30 8076 N 784.871 -1.49948 0.485112 0
M  V30 8077 C 786.119 -2.01996 -0.0648775 0
M  V30 8078 C 786.44 -1.36819 -1.38945 0
M  V30 8079 O 785.71 -0.518163 -1.88923 0
M  V30 8080 H 784.29 -0.746513 -0.0269662 0
M  V30 8081 H 786.952 -1.84136 0.638733 0
M  V30 8082 H 786.048 -3.11418 -0.20617 0
M  V30 8083 N 786.349 -0.21828 -1.56081 0
M  V30 8084 C 787.596 0.414307 -1.98216 0
M  V30 8085 C 787.924 1.60005 -1.10584 0
M  V30 8086 O 787.179 1.95124 -0.150043 0
M  V30 8087 C 787.478 0.894782 -3.46018 0
M  V30 8088 C 787.144 -0.180083 -4.5054 0
M  V30 8089 C 785.806 -0.475367 -4.78846 0
M  V30 8090 C 788.158 -0.907191 -5.13244 0
M  V30 8091 C 785.486 -1.50233 -5.67139 0
M  V30 8092 C 787.838 -1.92347 -6.02649 0
M  V30 8093 C 786.502 -2.22571 -6.293 0
M  V30 8094 H 785.772 0.151606 -0.725325 0
M  V30 8095 H 788.419 -0.320113 -1.88806 0
M  V30 8096 H 786.724 1.7079 -3.52616 0
M  V30 8097 H 788.421 1.39403 -3.75989 0
M  V30 8098 H 785.011 0.06022 -4.28558 0
M  V30 8099 H 789.195 -0.692303 -4.91448 0
M  V30 8100 H 784.451 -1.74215 -5.86054 0
M  V30 8101 H 788.625 -2.49197 -6.50288 0
M  V30 8102 H 786.252 -3.0229 -6.97513 0
M  V30 8103 N 787.827 1.57504 0.0551401 0
M  V30 8104 C 789.075 1.87684 0.74962 0
M  V30 8105 C 789.396 0.812547 1.77264 0
M  V30 8106 O 788.666 -0.15694 1.9527 0
M  V30 8107 H 787.246 0.6926 0.279846 0
M  V30 8108 H 789.908 1.94881 0.0272745 0
M  V30 8109 H 789.004 2.85734 1.25548 0
M  V30 8110 N 789.305 -0.326896 1.54172 0
M  V30 8111 C 790.215 -1.42525 1.86343 0
M  V30 8112 C 791.231 -1.56764 0.75505 0
M  V30 8113 O 792.407 -1.71924 1.04901 0
M  V30 8114 C 789.472 -2.77286 2.08119 0
M  V30 8115 C 788.533 -2.7225 3.31931 0
M  V30 8116 C 787.766 -4.00584 3.52659 0
M  V30 8117 O 787.989 -4.98686 2.76891 0
M  V30 8118 O 786.923 -4.04045 4.46129 0
M  V30 8119 H 790.749 -1.18249 2.79734 0
M  V30 8120 H 788.334 -0.520614 1.40036 0
M  V30 8121 H 790.216 -3.57065 2.23791 0
M  V30 8122 H 788.891 -3.01459 1.17917 0
M  V30 8123 H 787.798 -1.91033 3.21647 0
M  V30 8124 H 789.131 -2.53032 4.2218 0
M  V30 8125 N 790.784 -1.46188 -0.588786 0
M  V30 8126 C 792.009 -1.5498 -1.37826 0
M  V30 8127 C 792.434 -0.189498 -1.87143 0
M  V30 8128 O 791.792 0.829293 -1.61222 0
M  V30 8129 C 791.84 -2.55369 -2.54596 0
M  V30 8130 O 790.944 -2.08452 -3.55839 0
M  V30 8131 H 790.285 -0.521741 -0.41071 0
M  V30 8132 H 792.815 -1.91708 -0.714779 0
M  V30 8133 H 792.825 -2.74782 -3.01594 0
M  V30 8134 H 791.5 -3.54155 -2.18052 0
M  V30 8135 H 790.077 -1.98999 -3.15363 0
M  V30 8136 N 792.262 0.832906 -1.33792 0
M  V30 8137 C 793.195 1.94788 -1.18882 0
M  V30 8138 C 794.173 1.62389 -0.0828426 0
M  V30 8139 O 795.357 1.86886 -0.246175 0
M  V30 8140 C 792.484 3.28506 -0.824728 0
M  V30 8141 C 791.53 3.79872 -1.93905 0
M  V30 8142 S 792.363 4.00832 -3.55097 0
M  V30 8143 C 793.519 5.37492 -3.20708 0
M  V30 8144 H 793.752 2.07137 -2.13264 0
M  V30 8145 H 791.285 0.987362 -1.18704 0
M  V30 8146 H 793.243 4.05769 -0.621442 0
M  V30 8147 H 791.904 3.13939 0.100587 0
M  V30 8148 H 791.097 4.76647 -1.6378 0
M  V30 8149 H 790.699 3.09524 -2.09931 0
M  V30 8150 H 792.991 6.20544 -2.71903 0
M  V30 8151 H 793.934 5.72593 -4.16584 0
M  V30 8152 H 794.342 5.02529 -2.57148 0
M  V30 8153 N 793.74 1.17359 1.05189 0
M  V30 8154 C 794.97 0.985099 1.81602 0
M  V30 8155 C 795.378 -0.469872 1.83273 0
M  V30 8156 O 794.721 -1.33806 1.25864 0
M  V30 8157 C 794.783 1.44956 3.2898 0
M  V30 8158 C 794.447 2.92666 3.50993 0
M  V30 8159 C 795.444 3.906 3.43115 0
M  V30 8160 C 793.129 3.30841 3.77954 0
M  V30 8161 C 795.123 5.24709 3.61883 0
M  V30 8162 C 792.81 4.65116 3.96371 0
M  V30 8163 C 793.808 5.61859 3.88335 0
M  V30 8164 O 793.496 6.93704 4.06238 0
M  V30 8165 H 793.228 0.348731 0.579105 0
M  V30 8166 H 795.782 1.56066 1.33539 0
M  V30 8167 H 794.012 0.817559 3.77959 0
M  V30 8168 H 795.701 1.22674 3.86919 0
M  V30 8169 H 796.467 3.62453 3.22262 0
M  V30 8170 H 792.346 2.5611 3.83313 0
M  V30 8171 H 795.89 6.00205 3.55527 0
M  V30 8172 H 791.787 4.92969 4.16715 0
M  V30 8173 H 792.555 7.00443 4.23463 0
M  V30 8174 N 795.218 -1.23913 0.973828 0
M  V30 8175 C 796.148 -2.27453 0.527969 0
M  V30 8176 C 797.129 -1.6443 -0.435513 0
M  V30 8177 O 798.314 -1.9137 -0.330306 0
M  V30 8178 C 795.444 -3.4685 -0.176757 0
M  V30 8179 C 794.398 -4.22181 0.703352 0
M  V30 8180 C 793.724 -5.34534 -0.133215 0
M  V30 8181 C 795.024 -4.82865 1.99096 0
M  V30 8182 H 796.718 -2.65 1.3934 0
M  V30 8183 H 794.264 -1.27388 0.671446 0
M  V30 8184 H 796.217 -4.18424 -0.499934 0
M  V30 8185 H 794.941 -3.08346 -1.07659 0
M  V30 8186 H 793.6 -3.52416 1.00989 0
M  V30 8187 H 793.248 -4.92271 -1.03338 0
M  V30 8188 H 792.948 -5.85855 0.452494 0
M  V30 8189 H 794.472 -6.08933 -0.450924 0
M  V30 8190 H 795.886 -5.46481 1.73297 0
M  V30 8191 H 794.283 -5.44444 2.52389 0
M  V30 8192 H 795.353 -4.03977 2.68199 0
M  V30 8193 N 796.696 -0.74468 -1.38897 0
M  V30 8194 C 797.626 -0.126355 -2.33158 0
M  V30 8195 C 798.607 0.713517 -1.54412 0
M  V30 8196 O 799.792 0.656523 -1.82766 0
M  V30 8197 C 796.922 0.774375 -3.38557 0
M  V30 8198 C 795.876 0.0379214 -4.27983 0
M  V30 8199 C 795.202 1.05631 -5.24162 0
M  V30 8200 C 796.502 -1.12523 -5.10035 0
M  V30 8201 H 798.196 -0.913744 -2.85116 0
M  V30 8202 H 795.742 -0.440847 -1.37086 0
M  V30 8203 H 797.695 1.21655 -4.03458 0
M  V30 8204 H 796.419 1.59399 -2.85061 0
M  V30 8205 H 795.078 -0.384733 -3.64576 0
M  V30 8206 H 794.726 1.86975 -4.66958 0
M  V30 8207 H 794.426 0.568261 -5.84846 0
M  V30 8208 H 795.95 1.49799 -5.9194 0
M  V30 8209 H 797.364 -0.761037 -5.68226 0
M  V30 8210 H 795.761 -1.54355 -5.79909 0
M  V30 8211 H 796.831 -1.94237 -4.44297 0
M  V30 8212 N 798.174 1.49689 -0.493057 0
M  V30 8213 C 799.399 2.07331 0.0535114 0
M  V30 8214 C 799.824 1.35196 1.30781 0
M  V30 8215 O 799.182 0.406246 1.7669 0
M  V30 8216 C 799.23 3.59364 0.29825 0
M  V30 8217 O 798.334 3.88819 1.37454 0
M  V30 8218 H 797.675 0.663612 -0.0227018 0
M  V30 8219 H 800.205 1.926 -0.690402 0
M  V30 8220 H 800.215 4.04515 0.532159 0
M  V30 8221 H 798.89 4.1128 -0.618207 0
M  V30 8222 H 797.467 3.55487 1.12621 0
M  V30 8223 N 799.652 0.226554 1.55963 0
M  V30 8224 C 800.929 -0.453058 1.90281 0
M  V30 8225 C 801.309 -1.77377 1.14458 0
M  V30 8226 O 800.657 -2.27067 0.255496 0
M  V30 8227 C 800.867 -0.641108 3.43061 0
M  V30 8228 C 802.215 -0.946265 4.13921 0
M  V30 8229 O 803.239 -0.727713 3.48687 0
M  V30 8230 O 802.098 -1.36131 5.29274 0
M  V30 8231 H 799.192 -0.240242 0.791336 0
M  V30 8232 H 801.738 0.26911 1.67553 0
M  V30 8233 H 800.51 0.290283 3.90222 0
M  V30 8234 H 800.133 -1.41458 3.71585 0
M  V30 8235 N 801.13 -1.57531 -0.0467866 0
M  V30 8236 C 802.077 -2.05387 -1.05285 0
M  V30 8237 C 803.047 -0.939385 -1.36985 0
M  V30 8238 O 804.232 -1.20877 -1.47626 0
M  V30 8239 C 801.372 -2.52343 -2.35408 0
M  V30 8240 C 800.485 -3.77512 -2.10022 0
M  V30 8241 C 799.62 -4.1315 -3.33887 0
M  V30 8242 C 798.659 -5.31286 -3.03976 0
M  V30 8243 N 797.796 -5.62441 -4.20243 0
M  V30 8244 H 802.636 -2.91095 -0.637788 0
M  V30 8245 H 800.173 -1.43939 -0.303322 0
M  V30 8246 H 802.131 -2.77628 -3.11413 0
M  V30 8247 H 800.761 -1.69577 -2.7467 0
M  V30 8248 H 799.813 -3.59417 -1.24594 0
M  V30 8249 H 801.125 -4.63644 -1.83945 0
M  V30 8250 H 800.279 -4.39469 -4.18273 0
M  V30 8251 H 799.018 -3.25634 -3.63062 0
M  V30 8252 H 798.023 -5.04738 -2.17991 0
M  V30 8253 H 799.248 -6.20441 -2.76098 0
M  V30 8254 H 797.194 -4.77885 -4.49402 0
M  V30 8255 H 797.111 -6.43046 -3.97528 0
M  V30 8256 H 798.379 -5.93327 -5.05553 0
M  V30 8257 N 802.608 0.318715 -1.54344 0
M  V30 8258 C 803.571 1.37545 -1.83342 0
M  V30 8259 C 804.571 1.445 -0.705444 0
M  V30 8260 O 805.761 1.44443 -0.973752 0
M  V30 8261 C 802.893 2.76225 -1.99781 0
M  V30 8262 H 804.086 1.13084 -2.77762 0
M  V30 8263 H 801.639 0.554457 -1.46135 0
M  V30 8264 H 802.374 3.05934 -1.07588 0
M  V30 8265 H 802.159 2.7257 -2.81865 0
M  V30 8266 H 803.649 3.52664 -2.23647 0
M  V30 8267 N 804.086 1.46499 0.581025 0
M  V30 8268 C 805.314 1.5547 1.36517 0
M  V30 8269 C 805.729 0.196407 1.87776 0
M  V30 8270 O 805.086 -0.806577 1.63709 0
M  V30 8271 C 805.137 2.56084 2.55154 0
M  V30 8272 O 804.858 3.86637 2.06018 0
M  V30 8273 C 806.359 2.75011 3.47683 0
M  V30 8274 H 803.579 0.525703 0.416986 0
M  V30 8275 H 806.123 1.9192 0.706177 0
M  V30 8276 H 804.278 2.22633 3.17039 0
M  V30 8277 H 804.692 4.41413 2.83292 0
M  V30 8278 H 806.166 3.49329 4.27403 0
M  V30 8279 H 806.643 1.81978 3.99726 0
M  V30 8280 H 807.249 3.09565 2.91632 0
M  V30 8281 N 805.565 -0.825799 1.34232 0
M  V30 8282 C 806.79 -1.61883 1.29648 0
M  V30 8283 C 807.215 -1.87669 -0.127295 0
M  V30 8284 O 806.573 -1.45016 -1.08813 0
M  V30 8285 C 806.621 -2.93846 2.09014 0
M  V30 8286 O 805.725 -3.85778 1.4577 0
M  V30 8287 H 805.066 -0.492454 0.445405 0
M  V30 8288 H 807.596 -1.02641 1.76992 0
M  V30 8289 H 807.606 -3.43435 2.20264 0
M  V30 8290 H 806.281 -2.74401 3.12533 0
M  V30 8291 H 804.858 -3.4429 1.43245 0
M  V30 8292 N 807.043 -1.17915 -1.04565 0
M  V30 8293 C 808.454 -0.976383 -1.59134 0
M  V30 8294 C 808.805 0.475267 -1.90357 0
M  V30 8295 O 807.93 1.35172 -1.6899 0
M  V30 8296 C 808.525 -1.76604 -2.89131 0
M  V30 8297 C 807.084 -1.60777 -3.40335 0
M  V30 8298 C 806.231 -1.76369 -2.13985 0
M  V30 8299 H 809.182 -1.32532 -0.872985 0
M  V30 8300 H 809.203 -1.25215 -3.59307 0
M  V30 8301 H 808.715 -2.82252 -2.66375 0
M  V30 8302 H 806.816 -0.576436 -3.68114 0
M  V30 8303 H 806.929 -2.40268 -4.14497 0
M  V30 8304 H 805.293 -1.19268 -2.25049 0
M  V30 8305 H 806.076 -2.83441 -1.9369 0
M  V30 8306 N 808.521 1.23394 -0.980386 0
M  V30 8307 C 809.451 2.2717 -0.540024 0
M  V30 8308 C 810.432 1.64659 0.426787 0
M  V30 8309 O 811.617 1.91543 0.320153 0
M  V30 8310 C 808.747 3.46939 0.15836 0
M  V30 8311 C 807.701 4.21802 -0.725732 0
M  V30 8312 C 807.027 5.34597 0.104866 0
M  V30 8313 C 808.327 4.81802 -2.01654 0
M  V30 8314 H 810.021 2.64257 -1.40743 0
M  V30 8315 H 807.567 1.2703 -0.678193 0
M  V30 8316 H 809.52 4.18683 0.477737 0
M  V30 8317 H 808.244 3.08912 1.06022 0
M  V30 8318 H 806.903 3.51875 -1.02857 0
M  V30 8319 H 806.551 4.92812 1.00726 0
M  V30 8320 H 806.251 5.85607 -0.483557 0
M  V30 8321 H 807.775 6.09163 0.418624 0
M  V30 8322 H 809.189 5.45554 -1.76193 0
M  V30 8323 H 807.586 5.43098 -2.55273 0
M  V30 8324 H 808.656 4.02549 -2.70338 0
M  V30 8325 N 809.999 0.752036 1.385 0
M  V30 8326 C 811.224 0.316993 2.04963 0
M  V30 8327 C 811.649 -1.04582 1.56346 0
M  V30 8328 O 811.007 -1.66616 0.714755 0
M  V30 8329 C 811.055 0.347235 3.58924 0
M  V30 8330 O 810.159 -0.659296 4.07096 0
M  V30 8331 H 809.5 0.140652 0.648932 0
M  V30 8332 H 812.03 1.02272 1.77205 0
M  V30 8333 H 812.04 0.19757 4.07521 0
M  V30 8334 H 810.715 1.34157 3.93668 0
M  V30 8335 H 809.292 -0.474371 3.6987 0
M  V30 8336 N 811.477 -1.49425 0.500989 0
M  V30 8337 C 812.407 -2.31971 -0.266775 0
M  V30 8338 C 813.388 -1.40245 -0.962563 0
M  V30 8339 O 814.573 -1.69154 -0.953968 0
M  V30 8340 C 811.703 -3.20757 -1.33163 0
M  V30 8341 C 810.657 -4.21275 -0.75572 0
M  V30 8342 C 809.983 -4.98997 -1.92109 0
M  V30 8343 C 811.283 -5.21686 0.253213 0
M  V30 8344 H 812.977 -2.96408 0.422237 0
M  V30 8345 H 810.523 -1.4254 0.204505 0
M  V30 8346 H 812.476 -3.77315 -1.87646 0
M  V30 8347 H 811.2 -2.54263 -2.04983 0
M  V30 8348 H 809.859 -3.65861 -0.232637 0
M  V30 8349 H 809.507 -4.28951 -2.62698 0
M  V30 8350 H 809.207 -5.67011 -1.54182 0
M  V30 8351 H 810.731 -5.584 -2.47026 0
M  V30 8352 H 812.145 -5.72939 -0.203483 0
M  V30 8353 H 810.542 -5.9759 0.548322 0
M  V30 8354 H 811.612 -4.70596 1.16909 0
M  V30 8355 N 812.955 -0.234822 -1.55841 0
M  V30 8356 C 814.232 0.442961 -1.90518 0
M  V30 8357 C 814.612 1.76768 -1.15397 0
M  V30 8358 O 813.96 2.26928 -0.267534 0
M  V30 8359 C 814.17 0.622905 -3.43396 0
M  V30 8360 C 815.518 0.9243 -4.14417 0
M  V30 8361 O 816.542 0.709211 -3.49068 0
M  V30 8362 O 815.401 1.33323 -5.29988 0
M  V30 8363 H 812.495 0.236042 -0.792599 0
M  V30 8364 H 815.041 -0.277992 -1.67408 0
M  V30 8365 H 813.813 -0.310973 -3.90062 0
M  V30 8366 H 813.436 1.39485 -3.7233 0
M  V30 8367 N 814.433 1.57553 0.0384317 0
M  V30 8368 C 815.396 2.04927 1.02653 0
M  V30 8369 C 816.396 0.951768 1.29607 0
M  V30 8370 O 817.586 1.21568 1.24768 0
M  V30 8371 C 814.718 2.45828 2.36181 0
M  V30 8372 H 815.911 2.93474 0.617508 0
M  V30 8373 H 813.464 1.53679 0.285031 0
M  V30 8374 H 814.199 1.60408 2.8185 0
M  V30 8375 H 813.984 3.25945 2.1795 0
M  V30 8376 H 815.474 2.82939 3.0714 0
M  V30 8377 N 815.911 -0.310526 1.54511 0
M  V30 8378 C 817.159 -1.04484 1.72996 0
M  V30 8379 C 817.48 -1.88118 0.513479 0
M  V30 8380 O 816.75 -1.90119 -0.472384 0
M  V30 8381 H 815.33 -0.388747 0.637875 0
M  V30 8382 H 817.992 -0.343811 1.91844 0
M  V30 8383 H 817.088 -1.70341 2.61515 0
M  V30 8384 N 817.389 -1.46805 -0.573248 0
M  V30 8385 C 818.319 -1.60951 -1.69165 0
M  V30 8386 C 819.3 -0.45948 -1.63777 0
M  V30 8387 O 820.485 -0.68688 -1.81647 0
M  V30 8388 C 817.615 -1.60844 -3.07809 0
M  V30 8389 C 816.569 -2.74913 -3.28035 0
M  V30 8390 C 815.895 -2.59871 -4.67302 0
M  V30 8391 C 817.195 -4.16654 -3.14955 0
M  V30 8392 H 818.889 -2.54574 -1.57582 0
M  V30 8393 H 816.435 -1.22516 -0.756686 0
M  V30 8394 H 818.388 -1.69334 -3.85881 0
M  V30 8395 H 817.112 -0.637714 -3.20314 0
M  V30 8396 H 815.771 -2.65908 -2.52366 0
M  V30 8397 H 815.419 -1.60861 -4.76585 0
M  V30 8398 H 815.119 -3.36386 -4.81786 0
M  V30 8399 H 816.643 -2.70265 -5.4753 0
M  V30 8400 H 818.057 -4.26721 -3.82861 0
M  V30 8401 H 816.454 -4.93831 -3.40956 0
M  V30 8402 H 817.524 -4.36146 -2.11908 0
M  V30 8403 N 818.867 0.818669 -1.34668 0
M  V30 8404 C 820.115 1.57201 -1.27013 0
M  V30 8405 C 820.436 1.94354 0.158599 0
M  V30 8406 O 819.706 1.62626 1.09223 0
M  V30 8407 H 818.286 0.582919 -0.467135 0
M  V30 8408 H 820.948 0.977234 -1.6863 0
M  V30 8409 H 820.044 2.49291 -1.87778 0
M  V30 8410 N 820.346 1.18468 1.03938 0
M  V30 8411 C 821.278 0.870615 2.12021 0
M  V30 8412 C 822.291 -0.132318 1.62261 0
M  V30 8413 O 823.48 0.0956901 1.78243 0
M  V30 8414 C 820.58 0.279727 3.37744 0
M  V30 8415 C 819.753 1.32863 4.16733 0
M  V30 8416 C 818.812 0.753204 5.20781 0
M  V30 8417 O 817.838 1.42825 5.5099 0
M  V30 8418 N 819.04 -0.448664 5.78764 0
M  V30 8419 H 821.805 1.80091 2.39556 0
M  V30 8420 H 819.366 1.08524 1.20142 0
M  V30 8421 H 821.358 -0.118829 4.04526 0
M  V30 8422 H 819.928 -0.554621 3.07641 0
M  V30 8423 H 819.148 1.90245 3.45254 0
M  V30 8424 H 820.436 2.03574 4.66299 0
M  V30 8425 H 819.834 -1.01481 5.56523 0
M  V30 8426 H 818.391 -0.789125 6.47005 0
M  V30 8427 N 821.824 -1.22873 0.986916 0
M  V30 8428 C 822.787 -2.2281 0.537442 0
M  V30 8429 C 823.787 -1.56331 -0.37646 0
M  V30 8430 O 824.977 -1.73376 -0.169247 0
M  V30 8431 C 822.109 -3.40195 -0.219082 0
M  V30 8432 H 823.302 -2.64089 1.42116 0
M  V30 8433 H 820.855 -1.35819 0.773488 0
M  V30 8434 H 821.59 -3.04381 -1.11905 0
M  V30 8435 H 821.375 -3.89657 0.437026 0
M  V30 8436 H 822.865 -4.14326 -0.521926 0
M  V30 8437 N 823.302 -0.75937 -1.38099 0
M  V30 8438 C 824.713 -0.385078 -1.82686 0
M  V30 8439 C 825.064 1.0871 -1.6333 0
M  V30 8440 O 824.189 1.84084 -1.13762 0
M  V30 8441 C 824.784 -0.692161 -3.31654 0
M  V30 8442 C 823.343 -0.371077 -3.74566 0
M  V30 8443 C 822.49 -0.942375 -2.60796 0
M  V30 8444 H 825.441 -0.955048 -1.26746 0
M  V30 8445 H 825.462 0.0276001 -3.8049 0
M  V30 8446 H 824.974 -1.76369 -3.4571 0
M  V30 8447 H 823.075 0.693637 -3.66087 0
M  V30 8448 H 823.188 -0.870672 -4.71122 0
M  V30 8449 H 821.552 -0.367383 -2.52036 0
M  V30 8450 H 822.335 -2.01905 -2.77649 0
M  V30 8451 N 824.78 1.49157 -0.508906 0
M  V30 8452 C 826.026 2.03385 0.0248089 0
M  V30 8453 C 826.381 1.381 1.33964 0
M  V30 8454 O 825.674 0.510317 1.84679 0
M  V30 8455 C 825.868 3.56687 0.225717 0
M  V30 8456 C 825.697 4.36832 -1.06809 0
M  V30 8457 C 824.467 4.78556 -1.6221 0
M  V30 8458 C 826.665 4.74934 -1.97338 0
M  V30 8459 N 824.647 5.43158 -2.86098 0
M  V30 8460 C 826.018 5.39336 -3.05805 0
M  V30 8461 C 828.073 4.56872 -1.97921 0
M  V30 8462 C 826.776 5.87587 -4.1489 0
M  V30 8463 C 828.802 5.06089 -3.05987 0
M  V30 8464 C 828.164 5.70499 -4.13172 0
M  V30 8465 H 824.263 0.781349 -0.0318988 0
M  V30 8466 H 826.847 1.82233 -0.685518 0
M  V30 8467 H 825.018 3.77707 0.905108 0
M  V30 8468 H 826.75 3.97554 0.757147 0
M  V30 8469 H 823.505 4.59017 -1.16621 0
M  V30 8470 H 823.929 5.8004 -3.49116 0
M  V30 8471 H 828.571 4.06474 -1.16357 0
M  V30 8472 H 826.289 6.37002 -4.97247 0
M  V30 8473 H 829.875 4.93919 -3.07466 0
M  V30 8474 H 828.755 6.07893 -4.95415 0
M  V30 8475 N 826.258 0.243083 1.55714 0
M  V30 8476 C 827.483 -0.389944 2.03701 0
M  V30 8477 C 827.908 -1.51025 1.12129 0
M  V30 8478 O 827.266 -1.80944 0.11352 0
M  V30 8479 C 827.314 -0.878649 3.49731 0
M  V30 8480 O 826.418 -1.98851 3.61292 0
M  V30 8481 H 825.759 -0.0855115 0.658471 0
M  V30 8482 H 828.289 0.368023 2.01263 0
M  V30 8483 H 828.299 -1.18287 3.90477 0
M  V30 8484 H 826.974 -0.0588107 4.15858 0
M  V30 8485 H 825.551 -1.68928 3.32442 0
M  V30 8486 N 827.736 -1.57571 -0.0300757 0
M  V30 8487 C 829.013 -1.80381 -0.756447 0
M  V30 8488 C 829.393 -0.840906 -1.93628 0
M  V30 8489 O 828.741 0.117143 -2.282 0
M  V30 8490 C 828.951 -3.2807 -1.19043 0
M  V30 8491 C 830.299 -3.93025 -1.60676 0
M  V30 8492 O 831.323 -3.32213 -1.28503 0
M  V30 8493 O 830.182 -5.00092 -2.20386 0
M  V30 8494 H 827.276 -0.741737 -0.365725 0
M  V30 8495 H 829.822 -1.69699 -0.00693177 0
M  V30 8496 H 828.594 -3.89748 -0.348128 0
M  V30 8497 H 828.217 -3.43637 -1.99999 0
M  V30 8498 N 829.214 0.302327 -1.54673 0
M  V30 8499 C 830.144 1.37759 -1.88533 0
M  V30 8500 C 831.125 1.52961 -0.744113 0
M  V30 8501 O 832.31 1.6649 -0.999731 0
M  V30 8502 C 829.44 2.74201 -2.13146 0
M  V30 8503 C 828.394 2.73765 -3.28993 0
M  V30 8504 C 827.72 4.13483 -3.39022 0
M  V30 8505 C 829.02 2.35624 -4.66132 0
M  V30 8506 H 830.714 1.0967 -2.78591 0
M  V30 8507 H 828.26 0.52613 -1.34044 0
M  V30 8508 H 830.213 3.49508 -2.35419 0
M  V30 8509 H 828.937 3.03812 -1.19858 0
M  V30 8510 H 827.596 2.00914 -3.06642 0
M  V30 8511 H 827.244 4.40269 -2.43253 0
M  V30 8512 H 826.944 4.14093 -4.16894 0
M  V30 8513 H 828.468 4.90572 -3.63553 0
M  V30 8514 H 829.882 3.00647 -4.88143 0
M  V30 8515 H 828.279 2.47449 -5.46707 0
M  V30 8516 H 829.349 1.30753 -4.66939 0
M  V30 8517 N 830.692 1.47107 0.565454 0
M  V30 8518 C 831.622 1.61846 1.68309 0
M  V30 8519 C 832.603 0.468159 1.63531 0
M  V30 8520 O 833.788 0.696504 1.8128 0
M  V30 8521 C 830.918 1.62474 3.06952 0
M  V30 8522 C 829.872 2.76649 3.26572 0
M  V30 8523 C 829.198 2.62345 4.65917 0
M  V30 8524 C 830.498 4.18319 3.12741 0
M  V30 8525 H 832.192 2.55407 1.5623 0
M  V30 8526 H 829.738 1.22916 0.750179 0
M  V30 8527 H 831.691 1.71378 3.84977 0
M  V30 8528 H 830.415 0.654692 3.19971 0
M  V30 8529 H 829.074 2.67242 2.50952 0
M  V30 8530 H 828.722 1.63386 4.75725 0
M  V30 8531 H 828.422 3.38936 4.79996 0
M  V30 8532 H 829.946 2.73165 5.46089 0
M  V30 8533 H 831.36 4.28745 3.80593 0
M  V30 8534 H 829.757 4.95632 3.38333 0
M  V30 8535 H 830.827 4.37263 2.09592 0
M  V30 8536 N 832.17 -0.811516 1.35101 0
M  V30 8537 C 833.1 -1.9378 1.30275 0
M  V30 8538 C 834.081 -1.69165 0.178075 0
M  V30 8539 O 835.266 -1.90599 0.372256 0
M  V30 8540 C 832.396 -3.30439 1.06899 0
M  V30 8541 C 831.35 -3.69523 2.15955 0
M  V30 8542 C 830.676 -5.0429 1.77751 0
M  V30 8543 C 831.976 -3.80419 3.57881 0
M  V30 8544 H 833.67 -1.98075 2.24514 0
M  V30 8545 H 831.216 -0.951586 1.08078 0
M  V30 8546 H 833.169 -4.08828 1.02164 0
M  V30 8547 H 831.893 -3.26473 0.0910462 0
M  V30 8548 H 830.552 -2.93416 2.19778 0
M  V30 8549 H 830.2 -4.96823 0.785876 0
M  V30 8550 H 829.9 -5.31411 2.5075 0
M  V30 8551 H 831.424 -5.85125 1.74533 0
M  V30 8552 H 832.838 -4.49051 3.56407 0
M  V30 8553 H 831.235 -4.19005 4.29598 0
M  V30 8554 H 832.305 -2.82105 3.94391 0
M  V30 8555 N 833.648 -1.19017 -1.03309 0
M  V30 8556 C 834.894 -1.0017 -1.77024 0
M  V30 8557 C 835.249 0.463062 -1.86744 0
M  V30 8558 O 834.542 1.33937 -1.37009 0
M  V30 8559 C 834.736 -1.59927 -3.19622 0
M  V30 8560 C 834.565 -3.12062 -3.23802 0
M  V30 8561 C 833.335 -3.80932 -3.31992 0
M  V30 8562 C 835.533 -4.0947 -3.1119 0
M  V30 8563 N 833.515 -5.20502 -3.25502 0
M  V30 8564 C 834.886 -5.3561 -3.12285 0
M  V30 8565 C 836.941 -4.00887 -2.95287 0
M  V30 8566 C 835.644 -6.54161 -2.99109 0
M  V30 8567 C 837.67 -5.19042 -2.83459 0
M  V30 8568 C 837.032 -6.44079 -2.85205 0
M  V30 8569 H 833.131 -0.420633 -0.659236 0
M  V30 8570 H 835.715 -1.5092 -1.23009 0
M  V30 8571 H 833.886 -1.11785 -3.71966 0
M  V30 8572 H 835.618 -1.34557 -3.81676 0
M  V30 8573 H 832.373 -3.31702 -3.38039 0
M  V30 8574 H 832.797 -5.93519 -3.25675 0
M  V30 8575 H 837.439 -3.05042 -2.92762 0
M  V30 8576 H 835.157 -7.50196 -3.00386 0
M  V30 8577 H 838.743 -5.14199 -2.72197 0
M  V30 8578 H 837.623 -7.33969 -2.7615 0
M  V30 8579 N 835.127 1.22348 -0.993418 0
M  V30 8580 C 836.09 2.22522 -0.549251 0
M  V30 8581 C 837.09 1.56529 0.368164 0
M  V30 8582 O 838.28 1.73463 0.16005 0
M  V30 8583 C 835.412 3.40307 0.201037 0
M  V30 8584 H 836.605 2.63332 -1.43515 0
M  V30 8585 H 834.158 1.35407 -0.78068 0
M  V30 8586 H 834.893 3.0497 1.10289 0
M  V30 8587 H 834.678 3.8942 -0.457685 0
M  V30 8588 H 836.168 4.14597 0.499946 0
M  V30 8589 N 836.605 0.766683 1.37694 0
M  V30 8590 C 837.535 0.163432 2.32927 0
M  V30 8591 C 838.516 -0.688861 1.55527 0
M  V30 8592 O 839.701 -0.627363 1.83787 0
M  V30 8593 C 836.831 -0.720416 3.39746 0
M  V30 8594 C 835.785 0.0301718 4.27989 0
M  V30 8595 C 835.111 -0.972788 5.25776 0
M  V30 8596 C 836.411 1.20623 5.0818 0
M  V30 8597 H 838.105 0.958988 2.83626 0
M  V30 8598 H 835.651 0.462601 1.36367 0
M  V30 8599 H 837.604 -1.15221 4.05342 0
M  V30 8600 H 836.328 -1.54844 2.8756 0
M  V30 8601 H 834.987 0.442685 3.63917 0
M  V30 8602 H 834.635 -1.79522 4.69873 0
M  V30 8603 H 834.335 -0.475145 5.85676 0
M  V30 8604 H 835.859 -1.40362 5.94248 0
M  V30 8605 H 837.273 0.851341 5.66944 0
M  V30 8606 H 835.67 1.63561 5.7738 0
M  V30 8607 H 836.74 2.01281 4.41151 0
M  V30 8608 N 838.083 -1.48885 0.516809 0
M  V30 8609 C 839.013 -2.32241 -0.242157 0
M  V30 8610 C 839.994 -1.41258 -0.947633 0
M  V30 8611 O 841.179 -1.70156 -0.935973 0
M  V30 8612 C 838.309 -3.22151 -1.29754 0
M  V30 8613 C 837.263 -4.22053 -0.710995 0
M  V30 8614 C 836.589 -5.01007 -1.86806 0
M  V30 8615 C 837.889 -5.21388 0.30853 0
M  V30 8616 H 839.583 -2.95943 0.453651 0
M  V30 8617 H 837.129 -1.42316 0.219612 0
M  V30 8618 H 839.082 -3.79284 -1.83634 0
M  V30 8619 H 837.806 -2.56423 -2.02274 0
M  V30 8620 H 836.465 -3.66087 -0.193819 0
M  V30 8621 H 836.113 -4.31713 -2.58133 0
M  V30 8622 H 835.813 -5.68615 -1.48159 0
M  V30 8623 H 837.337 -5.60989 -2.4109 0
M  V30 8624 H 838.751 -5.73122 -0.142703 0
M  V30 8625 H 837.148 -5.96975 0.611673 0
M  V30 8626 H 838.218 -4.69329 1.21894 0
M  V30 8627 N 839.561 -0.251338 -1.55583 0
M  V30 8628 C 840.491 0.640437 -2.24545 0
M  V30 8629 C 841.472 1.17781 -1.22726 0
M  V30 8630 O 842.657 1.21633 -1.5139 0
M  V30 8631 C 839.787 1.8355 -2.94834 0
M  V30 8632 C 838.741 1.4307 -4.03379 0
M  V30 8633 C 838.067 2.70695 -4.61116 0
M  V30 8634 C 839.367 0.59848 -5.1886 0
M  V30 8635 H 841.061 0.0653772 -2.99329 0
M  V30 8636 H 838.607 0.0300042 -1.43969 0
M  V30 8637 H 840.56 2.46505 -3.4178 0
M  V30 8638 H 839.284 2.43601 -2.17546 0
M  V30 8639 H 837.943 0.824474 -3.57209 0
M  V30 8640 H 837.591 3.28954 -3.80524 0
M  V30 8641 H 837.291 2.44332 -5.34393 0
M  V30 8642 H 838.815 3.34541 -5.10798 0
M  V30 8643 H 840.229 1.13244 -5.62004 0
M  V30 8644 H 838.626 0.430728 -5.98552 0
M  V30 8645 H 839.696 -0.38829 -4.83343 0
M  V30 8646 N 841.039 1.57585 0.0217189 0
M  V30 8647 C 841.987 2.08134 1.03842 0
M  V30 8648 C 842.981 0.996662 1.36978 0
M  V30 8649 O 844.187 1.18149 1.35797 0
M  V30 8650 H 840.562 0.664298 0.352438 0
M  V30 8651 H 842.533 2.92583 0.58634 0
M  V30 8652 C 841.282 2.58218 2.32849 0
M  V30 8653 H 840.605 3.41302 2.08214 0
M  V30 8654 H 842.045 2.97289 3.02316 0
M  V30 8655 C 840.504 1.48664 3.02325 0
M  V30 8656 O 841.034 0.857075 3.9245 0
M  V30 8657 N 839.24 1.21938 2.63779 0
M  V30 8658 H 838.787 1.73319 1.90574 0
M  V30 8659 H 838.745 0.488523 3.10581 0
M  V30 8660 N 842.517 -0.29412 1.54831 0
M  V30 8661 C 843.933 -0.640167 1.46199 0
M  V30 8662 C 844.133 -1.90426 0.658798 0
M  V30 8663 O 843.189 -2.51932 0.169228 0
M  V30 8664 C 844.502 -0.786763 2.90225 0
M  V30 8665 C 846.05 -0.882201 3.0031 0
M  V30 8666 C 846.525 -1.06074 4.45547 0
M  V30 8667 N 848.016 -1.12678 4.49286 0
M  V30 8668 C 848.751 -1.28334 5.58854 0
M  V30 8669 N 848.247 -1.40845 6.78332 0
M  V30 8670 N 850.04 -1.31277 5.46555 0
M  V30 8671 H 842.191 0.536334 2.05517 0
M  V30 8672 H 844.454 0.178363 0.93107 0
M  V30 8673 H 844.16 0.0713018 3.51628 0
M  V30 8674 H 844.034 -1.67364 3.38037 0
M  V30 8675 H 846.421 -1.73075 2.39017 0
M  V30 8676 H 846.502 0.0288405 2.55784 0
M  V30 8677 H 846.146 -0.216935 5.07437 0
M  V30 8678 H 846.076 -1.98611 4.8771 0
M  V30 8679 H 848.567 -1.04335 3.63212 0
M  V30 8680 H 848.88 -1.52566 7.57591 0
M  V30 8681 H 847.225 -1.37888 6.81184 0
M  V30 8682 H 850.416 -1.2112 4.52159 0
M  V30 8683 H 850.589 -1.43136 6.31994 0
M  V30 8684 N 843.995 -1.47404 -0.557645 0
M  V30 8685 C 844.958 -1.59411 -1.64684 0
M  V30 8686 C 845.958 -0.469244 -1.53801 0
M  V30 8687 O 847.148 -0.734298 -1.57967 0
M  V30 8688 C 844.28 -1.5382 -3.04224 0
M  V30 8689 H 845.473 -2.56504 -1.55389 0
M  V30 8690 H 843.026 -1.35588 -0.777531 0
M  V30 8691 H 843.761 -0.581 -3.19053 0
M  V30 8692 H 843.546 -2.35456 -3.13533 0
M  V30 8693 H 845.036 -1.65358 -3.83466 0
M  V30 8694 N 845.473 0.80434 -1.35529 0
M  V30 8695 C 846.405 1.92445 -1.2449 0
M  V30 8696 C 847.418 1.61934 -0.167685 0
M  V30 8697 O 848.607 1.73461 -0.42115 0
M  V30 8698 C 845.707 3.26875 -0.894751 0
M  V30 8699 C 844.88 3.85275 -2.07079 0
M  V30 8700 C 843.939 4.98116 -1.69607 0
M  V30 8701 O 842.965 5.15424 -2.41509 0
M  V30 8702 N 844.167 5.77169 -0.621012 0
M  V30 8703 H 846.932 2.02441 -2.20993 0
M  V30 8704 H 844.493 0.981874 -1.28728 0
M  V30 8705 H 846.485 3.99837 -0.625511 0
M  V30 8706 H 845.055 3.12594 -0.0193306 0
M  V30 8707 H 844.275 3.0448 -2.5037 0
M  V30 8708 H 845.563 4.21024 -2.85685 0
M  V30 8709 H 844.961 5.65695 -0.0236679 0
M  V30 8710 H 843.518 6.50499 -0.411558 0
M  V30 8711 N 846.951 1.19563 1.02676 0
M  V30 8712 C 847.884 0.878638 2.10607 0
M  V30 8713 C 848.862 -0.165176 1.61759 0
M  V30 8714 O 850.046 -0.041014 1.88455 0
M  V30 8715 C 847.173 0.315347 3.37229 0
M  V30 8716 C 846.219 1.33855 4.04951 0
M  V30 8717 S 847.052 2.89982 4.50189 0
M  V30 8718 C 848.208 2.35202 5.80027 0
M  V30 8719 H 848.441 1.79268 2.37171 0
M  V30 8720 H 845.974 1.023 1.15646 0
M  V30 8721 H 847.932 -0.00311911 4.105 0
M  V30 8722 H 846.593 -0.577035 3.08754 0
M  V30 8723 H 845.786 0.893581 4.96015 0
M  V30 8724 H 845.388 1.60397 3.37859 0
M  V30 8725 H 847.68 1.74329 6.54687 0
M  V30 8726 H 848.623 3.24622 6.29306 0
M  V30 8727 H 849.031 1.77702 5.35801 0
M  V30 8728 N 848.429 -1.21819 0.999893 0
M  V30 8729 C 849.392 -2.22227 0.561044 0
M  V30 8730 C 850.392 -1.56722 -0.359858 0
M  V30 8731 O 851.582 -1.73546 -0.150848 0
M  V30 8732 C 848.714 -3.40409 -0.182987 0
M  V30 8733 H 849.907 -2.62567 1.44909 0
M  V30 8734 H 847.46 -1.34991 0.78785 0
M  V30 8735 H 848.195 -3.05551 -1.08671 0
M  V30 8736 H 847.98 -3.89171 0.47833 0
M  V30 8737 H 849.47 -4.14856 -0.477952 0
M  V30 8738 N 849.908 -0.773975 -1.37286 0
M  V30 8739 C 850.841 -0.108019 -2.27944 0
M  V30 8740 C 851.819 0.706737 -1.46438 0
M  V30 8741 O 853.003 0.681025 -1.75768 0
M  V30 8742 C 850.13 0.853199 -3.27778 0
M  V30 8743 C 849.176 0.122164 -4.26325 0
M  V30 8744 S 850.009 -1.19136 -5.22079 0
M  V30 8745 C 851.165 -0.233737 -6.25463 0
M  V30 8746 H 851.398 -0.876743 -2.84078 0
M  V30 8747 H 848.931 -0.567468 -1.43594 0
M  V30 8748 H 850.889 1.40238 -3.85803 0
M  V30 8749 H 849.55 1.59505 -2.70586 0
M  V30 8750 H 848.743 0.850926 -4.96765 0
M  V30 8751 H 848.345 -0.356079 -3.72301 0
M  V30 8752 H 850.637 0.59305 -6.74899 0
M  V30 8753 H 851.58 -0.906373 -7.02275 0
M  V30 8754 H 851.988 0.156048 -5.64284 0
M  V30 8755 N 851.386 1.48609 -0.524698 0
M  V30 8756 C 852.616 2.06599 0.00741868 0
M  V30 8757 C 853.024 1.3823 1.29186 0
M  V30 8758 O 852.367 0.461962 1.77797 0
M  V30 8759 C 852.429 3.58184 0.307324 0
M  V30 8760 C 852.093 4.48391 -0.882864 0
M  V30 8761 C 853.09 4.88485 -1.77984 0
M  V30 8762 C 850.775 4.90367 -1.08837 0
M  V30 8763 C 852.769 5.69319 -2.86627 0
M  V30 8764 C 850.456 5.70972 -2.17794 0
M  V30 8765 C 851.454 6.10355 -3.06523 0
M  V30 8766 O 851.142 6.89343 -4.13596 0
M  V30 8767 H 850.874 0.675421 -0.0279846 0
M  V30 8768 H 853.428 1.92058 -0.7282 0
M  V30 8769 H 851.658 3.70818 1.09685 0
M  V30 8770 H 853.347 3.98318 0.780886 0
M  V30 8771 H 854.113 4.56682 -1.63299 0
M  V30 8772 H 849.992 4.592 -0.407035 0
M  V30 8773 H 853.536 5.99978 -3.55911 0
M  V30 8774 H 849.433 6.02188 -2.32465 0
M  V30 8775 H 850.201 7.07689 -4.1124 0
M  V30 8776 N 852.864 0.259585 1.55447 0
M  V30 8777 C 854.111 -0.361607 1.99245 0
M  V30 8778 C 854.439 -1.57017 1.14787 0
M  V30 8779 O 853.694 -1.94658 0.201724 0
M  V30 8780 C 853.993 -0.802727 3.48269 0
M  V30 8781 C 853.659 0.299472 4.49904 0
M  V30 8782 C 852.321 0.602157 4.77418 0
M  V30 8783 C 854.673 1.04295 5.10658 0
M  V30 8784 C 852.001 1.65217 5.62957 0
M  V30 8785 C 854.353 2.08257 5.97337 0
M  V30 8786 C 853.017 2.39177 6.23178 0
M  V30 8787 H 852.287 -0.132322 0.72909 0
M  V30 8788 H 854.934 0.370059 1.8789 0
M  V30 8789 H 853.239 -1.61381 3.5702 0
M  V30 8790 H 854.936 -1.29385 3.79553 0
M  V30 8791 H 851.526 0.0534256 4.28567 0
M  V30 8792 H 855.71 0.822358 4.89439 0
M  V30 8793 H 850.966 1.89692 5.81229 0
M  V30 8794 H 855.14 2.6635 6.43452 0
M  V30 8795 H 852.767 3.20677 6.89253 0
M  V30 8796 N 854.342 -1.57594 -0.0133615 0
M  V30 8797 C 855.588 -1.91105 -0.696457 0
M  V30 8798 C 855.943 -0.859872 -1.72116 0
M  V30 8799 O 855.236 0.129579 -1.91161 0
M  V30 8800 C 855.43 -3.29121 -1.39336 0
M  V30 8801 C 855.259 -4.47565 -0.437666 0
M  V30 8802 C 854.029 -5.05272 -0.0529454 0
M  V30 8803 C 856.227 -5.13479 0.290537 0
M  V30 8804 N 854.209 -6.07232 0.902355 0
M  V30 8805 C 855.58 -6.10147 1.10097 0
M  V30 8806 C 857.635 -4.96627 0.355804 0
M  V30 8807 C 856.338 -6.91778 1.97069 0
M  V30 8808 C 858.364 -5.78833 1.21271 0
M  V30 8809 C 857.726 -6.75083 2.01102 0
M  V30 8810 H 853.825 -0.747882 -0.228464 0
M  V30 8811 H 856.409 -1.94651 0.0438462 0
M  V30 8812 H 854.58 -3.26474 -2.10403 0
M  V30 8813 H 856.312 -3.501 -2.03008 0
M  V30 8814 H 853.067 -4.71747 -0.418486 0
M  V30 8815 H 853.491 -6.6289 1.37498 0
M  V30 8816 H 858.133 -4.22077 -0.247105 0
M  V30 8817 H 855.851 -7.65662 2.58433 0
M  V30 8818 H 859.437 -5.67838 1.26694 0
M  V30 8819 H 858.317 -7.37587 2.66337 0
M  V30 8820 N 855.82 0.285905 -1.54985 0
M  V30 8821 C 856.73 1.37534 -1.90057 0
M  V30 8822 C 857.746 1.54707 -0.796348 0
M  V30 8823 O 858.922 1.69082 -1.09423 0
M  V30 8824 C 855.987 2.7167 -2.15398 0
M  V30 8825 C 855.048 2.63354 -3.39033 0
M  V30 8826 C 854.281 3.91093 -3.63155 0
M  V30 8827 O 854.504 4.91169 -2.90015 0
M  V30 8828 O 853.438 3.92075 -4.56685 0
M  V30 8829 H 857.264 1.10791 -2.8277 0
M  V30 8830 H 854.849 0.483303 -1.41367 0
M  V30 8831 H 856.731 3.51006 -2.33179 0
M  V30 8832 H 855.406 2.98226 -1.25868 0
M  V30 8833 H 854.313 1.82438 -3.26599 0
M  V30 8834 H 855.646 2.41749 -4.2874 0
M  V30 8835 N 857.298 1.47698 0.54982 0
M  V30 8836 C 858.231 1.55288 1.67215 0
M  V30 8837 C 859.209 0.404533 1.57487 0
M  V30 8838 O 860.393 0.613372 1.78241 0
M  V30 8839 C 857.52 1.46233 3.05505 0
M  V30 8840 C 856.566 2.65662 3.33655 0
M  V30 8841 S 857.399 4.278 3.22098 0
M  V30 8842 C 858.555 4.21311 4.62869 0
M  V30 8843 H 858.788 2.50238 1.60524 0
M  V30 8844 H 856.321 1.35987 0.731227 0
M  V30 8845 H 858.279 1.41696 3.85269 0
M  V30 8846 H 856.94 0.526543 3.09655 0
M  V30 8847 H 856.133 2.55411 4.3449 0
M  V30 8848 H 855.735 2.67359 2.61524 0
M  V30 8849 H 858.027 3.90021 5.53977 0
M  V30 8850 H 858.97 5.22257 4.78177 0
M  V30 8851 H 859.378 3.52063 4.41262 0
M  V30 8852 N 858.776 -0.797141 1.35954 0
M  V30 8853 C 860.024 -1.55161 1.29497 0
M  V30 8854 C 860.345 -1.94582 -0.127659 0
M  V30 8855 O 859.615 -1.64343 -1.06622 0
M  V30 8856 H 858.195 -0.575413 0.47635 0
M  V30 8857 H 860.857 -0.950282 1.70164 0
M  V30 8858 H 859.953 -2.46272 1.9172 0
M  V30 8859 N 860.254 -1.20106 -1.0204 0
M  V30 8860 C 861.479 -1.0351 -1.79723 0
M  V30 8861 C 861.904 0.411328 -1.83548 0
M  V30 8862 O 861.262 1.29608 -1.26773 0
M  V30 8863 C 861.31 -1.61876 -3.22224 0
M  V30 8864 O 860.414 -0.853813 -4.03465 0
M  V30 8865 H 859.755 -0.365299 -0.554484 0
M  V30 8866 H 862.285 -1.59316 -1.28373 0
M  V30 8867 H 862.295 -1.65451 -3.72948 0
M  V30 8868 H 860.97 -2.67148 -3.18755 0
M  V30 8869 H 859.547 -0.891983 -3.62075 0
M  V30 8870 N 861.732 1.21287 -1.00634 0
M  V30 8871 C 862.68 2.25733 -0.561026 0
M  V30 8872 C 863.674 1.64728 0.395095 0
M  V30 8873 O 864.88 1.78022 0.266141 0
M  V30 8874 H 861.255 0.734104 -0.163081 0
M  V30 8875 H 863.226 2.60631 -1.45307 0
M  V30 8876 C 861.975 3.47569 0.0952587 0
M  V30 8877 H 861.298 3.94782 -0.631427 0
M  V30 8878 H 862.738 4.22382 0.370105 0
M  V30 8879 C 861.197 3.09326 1.33488 0
M  V30 8880 O 861.727 3.19933 2.42912 0
M  V30 8881 N 859.933 2.63976 1.21512 0
M  V30 8882 H 859.48 2.55545 0.324741 0
M  V30 8883 H 859.438 2.38757 2.04555 0
M  V30 8884 N 863.21 0.781244 1.36873 0
M  V30 8885 C 864.173 0.180094 2.28491 0
M  V30 8886 C 865.173 -0.617798 1.48458 0
M  V30 8887 O 866.363 -0.439991 1.68552 0
M  V30 8888 C 863.495 -0.751741 3.32508 0
M  V30 8889 H 864.688 0.987837 2.83164 0
M  V30 8890 H 862.241 0.550102 1.463 0
M  V30 8891 H 862.976 -1.58413 2.82977 0
M  V30 8892 H 862.761 -0.181649 3.91679 0
M  V30 8893 H 864.251 -1.16748 4.00949 0
M  V30 8894 N 864.689 -1.48329 0.532571 0
M  V30 8895 C 865.935 -2.028 -0.000583219 0
M  V30 8896 C 866.268 -1.40858 -1.33688 0
M  V30 8897 O 865.543 -0.555261 -1.86406 0
M  V30 8898 C 865.826 -3.59901 -0.119846 0
M  V30 8899 C 865.679 -4.32318 1.2418 0
M  V30 8900 C 866.998 -4.31904 -0.845372 0
M  V30 8901 H 864.117 -0.736999 0.00126205 0
M  V30 8902 H 866.759 -1.77024 0.690102 0
M  V30 8903 H 864.909 -3.81993 -0.708092 0
M  V30 8904 H 866.581 -4.21637 1.87136 0
M  V30 8905 H 864.824 -3.93635 1.82301 0
M  V30 8906 H 865.495 -5.40697 1.11132 0
M  V30 8907 H 867.971 -4.14658 -0.346159 0
M  V30 8908 H 866.847 -5.41509 -0.897723 0
M  V30 8909 H 867.108 -3.99369 -1.89622 0
M  V30 8910 N 866.167 -0.267825 -1.55308 0
M  V30 8911 C 867.392 0.357487 -2.04296 0
M  V30 8912 C 867.817 1.49222 -1.14518 0
M  V30 8913 O 867.175 1.80741 -0.142292 0
M  V30 8914 C 867.223 0.822899 -3.51085 0
M  V30 8915 O 866.327 1.93078 -3.6441 0
M  V30 8916 H 865.668 0.075025 -0.659748 0
M  V30 8917 H 868.198 -0.399996 -2.00652 0
M  V30 8918 H 868.208 1.12059 -3.92309 0
M  V30 8919 H 866.883 -0.0073562 -4.15899 0
M  V30 8920 H 865.46 1.63618 -3.35087 0
M  V30 8921 N 867.645 1.57599 0.00500368 0
M  V30 8922 C 868.87 1.95026 0.705663 0
M  V30 8923 C 869.295 0.869643 1.6679 0
M  V30 8924 O 868.653 -0.172659 1.80476 0
M  V30 8925 C 868.701 3.31545 1.4181 0
M  V30 8926 O 867.805 3.25495 2.53232 0
M  V30 8927 H 867.146 0.636808 0.188074 0
M  V30 8928 H 869.676 2.04547 -0.046696 0
M  V30 8929 H 869.686 3.66996 1.78265 0
M  V30 8930 H 868.361 4.09751 0.712543 0
M  V30 8931 H 866.938 3.01714 2.19142 0
M  V30 8932 N 869.123 -0.277682 1.55134 0
M  V30 8933 C 870.086 -1.32635 1.86924 0
M  V30 8934 C 871.086 -1.42578 0.743507 0
M  V30 8935 O 872.276 -1.4181 1.01171 0
M  V30 8936 C 869.408 -2.70832 2.07034 0
M  V30 8937 H 870.601 -1.0568 2.80663 0
M  V30 8938 H 868.154 -0.515517 1.47554 0
M  V30 8939 H 868.889 -3.02974 1.15661 0
M  V30 8940 H 868.674 -2.65001 2.88993 0
M  V30 8941 H 870.164 -3.46611 2.32918 0
M  V30 8942 N 870.601 -1.47988 -0.541979 0
M  V30 8943 C 871.531 -1.64503 -1.65713 0
M  V30 8944 C 872.512 -0.494116 -1.62765 0
M  V30 8945 O 873.697 -0.725256 -1.80149 0
M  V30 8946 C 870.827 -1.67337 -3.04328 0
M  V30 8947 C 869.781 -2.81809 -3.2213 0
M  V30 8948 C 869.107 -2.69724 -4.61685 0
M  V30 8949 C 870.407 -4.23241 -3.06046 0
M  V30 8950 H 872.101 -2.5786 -1.52147 0
M  V30 8951 H 869.647 -1.24094 -0.730529 0
M  V30 8952 H 871.6 -1.77481 -3.82202 0
M  V30 8953 H 870.324 -0.705514 -3.18889 0
M  V30 8954 H 868.983 -2.71201 -2.46669 0
M  V30 8955 H 868.631 -1.70934 -4.73065 0
M  V30 8956 H 868.331 -3.4653 -4.74543 0
M  V30 8957 H 869.855 -2.81818 -5.41674 0
M  V30 8958 H 871.269 -4.34746 -3.73723 0
M  V30 8959 H 869.666 -5.00952 -3.30405 0
M  V30 8960 H 870.736 -4.40543 -2.02609 0
M  V30 8961 N 872.079 0.78992 -1.36375 0
M  V30 8962 C 873.327 1.54472 -1.30319 0
M  V30 8963 C 873.648 1.94647 0.117338 0
M  V30 8964 O 872.918 1.64906 1.05748 0
M  V30 8965 H 871.498 0.572879 -0.479394 0
M  V30 8966 H 874.16 0.941245 -1.70665 0
M  V30 8967 H 873.256 2.45252 -1.93024 0
M  V30 8968 N 873.557 1.20646 1.01402 0
M  V30 8969 C 874.52 0.959314 2.08158 0
M  V30 8970 C 875.52 -0.0661558 1.60664 0
M  V30 8971 O 876.71 0.170177 1.73367 0
M  V30 8972 C 873.842 0.444785 3.37986 0
M  V30 8973 H 875.035 1.90631 2.31517 0
M  V30 8974 H 872.588 1.02219 1.18241 0
M  V30 8975 H 873.323 -0.507553 3.20304 0
M  V30 8976 H 873.108 1.18435 3.73785 0
M  V30 8977 H 874.598 0.291443 4.16582 0
M  V30 8978 N 875.035 -1.20752 1.01276 0
M  V30 8979 C 876.275 -1.91733 0.708372 0
M  V30 8980 C 876.639 -1.76836 -0.747855 0
M  V30 8981 O 877.84 -2.42262 -1.16458 0
M  V30 8982 C 876.111 -3.39155 1.12732 0
M  V30 8983 S 877.67 -4.28518 0.944325 0
M  V30 8984 H 874.488 -0.662394 0.25837 0
M  V30 8985 H 877.09 -1.46085 1.29921 0
M  V30 8986 H 875.794 -3.47516 2.18313 0
M  V30 8987 H 875.325 -3.89826 0.5291 0
M  V30 8988 H 877.34 -4.9596 -0.154278 0
M  V30 8989 N 876.513 -0.788492 -1.36457 0
M  V30 8990 C 877.443 -0.200468 -2.32638 0
M  V30 8991 C 878.424 0.664031 -1.56603 0
M  V30 8992 O 879.609 0.598045 -1.84762 0
M  V30 8993 C 876.739 0.666274 -3.40849 0
M  V30 8994 C 875.693 -0.0982574 -4.27887 0
M  V30 8995 C 875.019 0.889018 -5.27258 0
M  V30 8996 C 876.319 -1.28692 -5.06197 0
M  V30 8997 H 878.013 -1.00399 -2.82065 0
M  V30 8998 H 875.559 -0.484237 -1.35614 0
M  V30 8999 H 877.512 1.08757 -4.07124 0
M  V30 9000 H 876.236 1.50249 -2.89987 0
M  V30 9001 H 874.895 -0.500525 -3.63167 0
M  V30 9002 H 874.543 1.72024 -4.7267 0
M  V30 9003 H 874.243 0.381909 -5.86358 0
M  V30 9004 H 875.767 1.30891 -5.96406 0
M  V30 9005 H 877.181 -0.941429 -5.65517 0
M  V30 9006 H 875.578 -1.72726 -5.74705 0
M  V30 9007 H 876.648 -2.08273 -4.37893 0
M  V30 9008 N 877.991 1.48044 -0.54043 0
M  V30 9009 C 878.921 2.32597 0.205178 0
M  V30 9010 C 879.902 1.42748 0.925041 0
M  V30 9011 O 881.087 1.71624 0.908784 0
M  V30 9012 C 878.217 3.24175 1.24612 0
M  V30 9013 C 877.171 4.23131 0.64376 0
M  V30 9014 C 876.497 5.03915 1.78812 0
M  V30 9015 C 877.797 5.20831 -0.39144 0
M  V30 9016 H 879.491 2.95184 -0.500676 0
M  V30 9017 H 877.037 1.41948 -0.242225 0
M  V30 9018 H 878.99 3.82158 1.77576 0
M  V30 9019 H 877.714 2.59608 1.98169 0
M  V30 9020 H 876.373 3.66349 0.135554 0
M  V30 9021 H 876.021 4.35765 2.51232 0
M  V30 9022 H 875.721 5.709 1.39094 0
M  V30 9023 H 877.245 5.64753 2.32134 0
M  V30 9024 H 878.659 5.73277 0.0515064 0
M  V30 9025 H 877.056 5.95926 -0.706569 0
M  V30 9026 H 878.126 4.6733 -1.29345 0
M  V30 9027 N 879.47 0.276058 1.55163 0
M  V30 9028 C 880.4 -0.604633 2.25536 0
M  V30 9029 C 881.381 -1.15813 1.24585 0
M  V30 9030 O 882.566 -1.1921 1.53306 0
M  V30 9031 C 879.696 -1.78836 2.97716 0
M  V30 9032 C 878.65 -1.36635 4.05604 0
M  V30 9033 C 877.976 -2.63325 4.65364 0
M  V30 9034 C 879.276 -0.515858 5.19746 0
M  V30 9035 H 880.97 -0.0177483 2.99395 0
M  V30 9036 H 878.516 -0.00709627 1.43998 0
M  V30 9037 H 880.469 -2.41036 3.45658 0
M  V30 9038 H 879.193 -2.40109 2.21394 0
M  V30 9039 H 877.852 -0.767541 3.58475 0
M  V30 9040 H 877.5 -3.22858 3.85709 0
M  V30 9041 H 877.2 -2.358 5.38212 0
M  V30 9042 H 878.724 -3.26372 5.16056 0
M  V30 9043 H 880.138 -1.04289 5.63735 0
M  V30 9044 H 878.535 -0.335449 5.99162 0
M  V30 9045 H 879.605 0.465137 4.82664 0
M  V30 9046 N 880.948 -1.576 0.00335426 0
M  V30 9047 C 882.364 -1.55653 -0.352766 0
M  V30 9048 C 882.564 -1.00632 -1.74572 0
M  V30 9049 O 881.62 -0.641621 -2.44212 0
M  V30 9050 C 882.933 -2.99858 -0.224929 0
M  V30 9051 C 884.481 -3.11563 -0.299619 0
M  V30 9052 C 884.956 -4.57559 -0.200868 0
M  V30 9053 N 886.447 -4.62477 -0.258663 0
M  V30 9054 C 887.182 -5.73031 -0.205644 0
M  V30 9055 N 886.678 -6.92723 -0.103027 0
M  V30 9056 N 888.471 -5.61509 -0.257754 0
M  V30 9057 H 880.622 -1.91703 0.914539 0
M  V30 9058 H 882.885 -0.88068 0.350865 0
M  V30 9059 H 882.591 -3.43964 0.733595 0
M  V30 9060 H 882.465 -3.63547 -1.00564 0
M  V30 9061 H 884.852 -2.67384 -1.24859 0
M  V30 9062 H 884.933 -2.50644 0.511025 0
M  V30 9063 H 884.577 -5.02413 0.744572 0
M  V30 9064 H 884.507 -5.16428 -1.03004 0
M  V30 9065 H 886.998 -3.76375 -0.339168 0
M  V30 9066 H 887.311 -7.7277 -0.0685593 0
M  V30 9067 H 885.656 -6.94966 -0.0686069 0
M  V30 9068 H 888.847 -4.66892 -0.336142 0
M  V30 9069 H 889.02 -6.4765 -0.21297 0
M  V30 9070 N 882.426 0.269451 -1.5528 0
M  V30 9071 C 883.672 1.00206 -1.76314 0
M  V30 9072 C 884.005 1.85812 -0.564581 0
M  V30 9073 O 883.28 1.89509 0.437769 0
M  V30 9074 C 883.563 1.88163 -3.07029 0
M  V30 9075 C 883.416 1.05527 -4.37246 0
M  V30 9076 C 884.735 2.8681 -3.33808 0
M  V30 9077 H 881.854 0.36288 -0.641473 0
M  V30 9078 H 884.496 0.274188 -1.88011 0
M  V30 9079 H 882.646 2.50224 -2.97187 0
M  V30 9080 H 884.318 0.455094 -4.5905 0
M  V30 9081 H 882.561 0.358842 -4.32313 0
M  V30 9082 H 883.232 1.70397 -5.25042 0
M  V30 9083 H 885.708 2.34884 -3.43466 0
M  V30 9084 H 884.584 3.45492 -4.26528 0
M  V30 9085 H 884.845 3.62118 -2.5362 0
M  V30 9086 N 883.904 1.48273 0.534124 0
M  V30 9087 C 884.837 1.57053 1.65559 0
M  V30 9088 C 885.815 0.421213 1.5705 0
M  V30 9089 O 886.999 0.632242 1.77581 0
M  V30 9090 C 884.126 1.49465 3.03937 0
M  V30 9091 C 883.172 2.69186 3.30819 0
M  V30 9092 S 884.005 4.31192 3.17543 0
M  V30 9093 C 885.161 4.26197 4.58375 0
M  V30 9094 H 885.394 2.51927 1.57861 0
M  V30 9095 H 882.927 1.36755 0.716763 0
M  V30 9096 H 884.885 1.45775 3.83745 0
M  V30 9097 H 883.546 0.559357 3.09079 0
M  V30 9098 H 882.739 2.60005 4.31756 0
M  V30 9099 H 882.341 2.70118 2.58674 0
M  V30 9100 H 884.633 3.95874 5.49809 0
M  V30 9101 H 885.576 5.27299 4.72611 0
M  V30 9102 H 885.984 3.56723 4.37503 0
M  V30 9103 N 885.382 -0.782676 1.36792 0
M  V30 9104 C 886.345 -1.8772 1.31507 0
M  V30 9105 C 887.345 -1.59269 0.221349 0
M  V30 9106 O 888.535 -1.67555 0.476544 0
M  V30 9107 C 885.667 -3.24641 1.04025 0
M  V30 9108 H 886.86 -1.9382 2.28853 0
M  V30 9109 H 884.413 -0.981226 1.21662 0
M  V30 9110 H 885.148 -3.24221 0.0716439 0
M  V30 9111 H 884.933 -3.46681 1.8318 0
M  V30 9112 H 886.423 -4.04711 1.02949 0
M  V30 9113 N 886.86 -1.21182 -1.00761 0
M  V30 9114 C 888.276 -0.968607 -1.26847 0
M  V30 9115 C 888.476 0.346561 -1.98497 0
M  V30 9116 O 887.532 1.07287 -2.28573 0
M  V30 9117 C 888.845 -2.1574 -2.09467 0
M  V30 9118 C 890.393 -2.19937 -2.22703 0
M  V30 9119 C 890.868 -3.38328 -3.08704 0
M  V30 9120 N 892.359 -3.38398 -3.16293 0
M  V30 9121 C 893.094 -4.26653 -3.83086 0
M  V30 9122 N 892.59 -5.25101 -4.5193 0
M  V30 9123 N 894.383 -4.14469 -3.797 0
M  V30 9124 H 886.534 -2.05763 -0.526816 0
M  V30 9125 H 888.797 -0.90087 -0.29519 0
M  V30 9126 H 888.503 -3.11034 -1.64167 0
M  V30 9127 H 888.377 -2.14584 -3.10216 0
M  V30 9128 H 890.764 -1.25201 -2.67224 0
M  V30 9129 H 890.845 -2.25139 -1.21433 0
M  V30 9130 H 890.489 -4.33356 -2.64886 0
M  V30 9131 H 890.419 -3.30364 -4.10082 0
M  V30 9132 H 892.91 -2.67149 -2.67282 0
M  V30 9133 H 893.223 -5.8875 -5.00592 0
M  V30 9134 H 891.568 -5.29029 -4.50726 0
M  V30 9135 H 894.759 -3.3682 -3.25069 0
M  V30 9136 H 894.932 -4.83458 -4.31477 0
M  V30 9137 N 888.338 1.20213 -1.01915 0
M  V30 9138 C 889.268 2.25336 -0.612023 0
M  V30 9139 C 890.249 1.65933 0.374186 0
M  V30 9140 O 891.434 1.92464 0.259053 0
M  V30 9141 C 888.564 3.47267 0.047904 0
M  V30 9142 C 887.518 4.1928 -0.859557 0
M  V30 9143 C 886.844 5.3466 -0.0652655 0
M  V30 9144 C 888.144 4.75143 -2.1688 0
M  V30 9145 H 889.838 2.59645 -1.49079 0
M  V30 9146 H 887.384 1.24808 -0.718263 0
M  V30 9147 H 889.337 4.19991 0.344294 0
M  V30 9148 H 888.061 3.12129 0.961404 0
M  V30 9149 H 886.72 3.48425 -1.13999 0
M  V30 9150 H 886.368 4.95767 0.849964 0
M  V30 9151 H 886.068 5.83772 -0.669618 0
M  V30 9152 H 887.592 6.10187 0.224612 0
M  V30 9153 H 889.006 5.39672 -1.9346 0
M  V30 9154 H 887.403 5.34702 -2.72422 0
M  V30 9155 H 888.473 3.93744 -2.83008 0
M  V30 9156 N 889.816 0.795718 1.36037 0
M  V30 9157 C 890.726 0.199784 2.33748 0
M  V30 9158 C 891.742 -0.651436 1.61345 0
M  V30 9159 O 892.918 -0.565743 1.93291 0
M  V30 9160 C 889.983 -0.650475 3.40543 0
M  V30 9161 C 889.044 0.219974 4.28736 0
M  V30 9162 C 888.277 -0.589798 5.30431 0
M  V30 9163 O 888.5 -1.82532 5.40406 0
M  V30 9164 O 887.434 0.0136187 6.01898 0
M  V30 9165 H 891.26 1.00782 2.8649 0
M  V30 9166 H 888.845 0.557293 1.38617 0
M  V30 9167 H 890.727 -1.13512 4.05824 0
M  V30 9168 H 889.402 -1.4363 2.9009 0
M  V30 9169 H 888.309 0.751516 3.66474 0
M  V30 9170 H 889.642 0.969468 4.82558 0
M  V30 9171 N 891.294 -1.47756 0.548274 0
M  V30 9172 C 892.705 -1.8636 0.112547 0
M  V30 9173 C 893.056 -1.45589 -1.31523 0
M  V30 9174 O 892.181 -0.854874 -1.98799 0
M  V30 9175 C 892.776 -3.38224 0.197473 0
M  V30 9176 C 891.335 -3.75954 -0.183163 0
M  V30 9177 C 890.482 -2.7181 0.549059 0
M  V30 9178 H 893.433 -1.394 0.758506 0
M  V30 9179 H 893.454 -3.75957 -0.586217 0
M  V30 9180 H 892.966 -3.67868 1.23673 0
M  V30 9181 H 891.067 -3.51926 -1.22387 0
M  V30 9182 H 891.18 -4.78801 0.169178 0
M  V30 9183 H 889.544 -2.54699 -0.00682862 0
M  V30 9184 H 890.327 -3.04296 1.5893 0
M  V30 9185 N 892.772 -0.284283 -1.55015 0
M  V30 9186 C 894.049 0.382125 -1.91831 0
M  V30 9187 C 894.429 1.73007 -1.20962 0
M  V30 9188 O 893.777 2.25962 -0.339594 0
M  V30 9189 C 893.987 0.513341 -3.45204 0
M  V30 9190 C 895.335 0.791989 -4.17148 0
M  V30 9191 O 896.359 0.597799 -3.51148 0
M  V30 9192 O 895.218 1.16394 -5.33961 0
M  V30 9193 H 892.312 0.210707 -0.799707 0
M  V30 9194 H 894.858 -0.331111 -1.66438 0
M  V30 9195 H 893.63 -0.434911 -3.88876 0
M  V30 9196 H 893.253 1.27569 -3.76579 0
M  V30 9197 N 894.251 1.57596 -0.0117121 0
M  V30 9198 C 895.214 2.08089 0.960816 0
M  V30 9199 C 896.214 0.992519 1.26514 0
M  V30 9200 O 897.404 1.25475 1.20837 0
M  V30 9201 C 894.536 2.53217 2.28241 0
M  V30 9202 H 895.729 2.9529 0.523829 0
M  V30 9203 H 893.282 1.54508 0.235995 0
M  V30 9204 H 894.017 1.69294 2.76604 0
M  V30 9205 H 893.802 3.32714 2.0747 0
M  V30 9206 H 895.292 2.92568 2.97983 0
M  V30 9207 N 895.729 -0.261212 1.5542 0
M  V30 9208 C 896.639 -1.34493 1.92221 0
M  V30 9209 C 897.655 -1.53421 0.82086 0
M  V30 9210 O 898.831 -1.6732 1.12099 0
M  V30 9211 C 895.896 -2.68209 2.19692 0
M  V30 9212 C 894.957 -2.57927 3.43179 0
M  V30 9213 C 894.19 -3.85266 3.69331 0
M  V30 9214 O 894.413 -4.86493 2.97793 0
M  V30 9215 O 893.347 -3.8476 4.62865 0
M  V30 9216 H 897.173 -1.06278 2.84497 0
M  V30 9217 H 894.758 -0.460752 1.42118 0
M  V30 9218 H 896.64 -3.47252 2.38734 0
M  V30 9219 H 895.315 -2.96186 1.30597 0
M  V30 9220 H 894.222 -1.77219 3.2946 0
M  V30 9221 H 895.555 -2.34898 4.32532 0
M  V30 9222 N 897.207 -1.48554 -0.526253 0
M  V30 9223 C 898.117 -1.66044 -1.65731 0
M  V30 9224 C 899.133 -0.542951 -1.65312 0
M  V30 9225 O 900.309 -0.814495 -1.84195 0
M  V30 9226 C 897.374 -1.69959 -3.02184 0
M  V30 9227 C 896.435 -2.93362 -3.13428 0
M  V30 9228 C 895.668 -2.97081 -4.43372 0
M  V30 9229 O 895.891 -2.09103 -5.3069 0
M  V30 9230 O 894.825 -3.8929 -4.59061 0
M  V30 9231 H 898.651 -2.61811 -1.53912 0
M  V30 9232 H 896.236 -1.31999 -0.699759 0
M  V30 9233 H 898.118 -1.75033 -3.83329 0
M  V30 9234 H 896.793 -0.773658 -3.14319 0
M  V30 9235 H 895.7 -2.93818 -2.31564 0
M  V30 9236 H 897.033 -3.85352 -3.06211 0
M  V30 9237 N 898.685 0.775411 -1.37205 0
M  V30 9238 C 899.648 1.8702 -1.325 0
M  V30 9239 C 900.648 1.5915 -0.229793 0
M  V30 9240 O 901.838 1.673 -0.485423 0
M  V30 9241 C 898.97 3.24085 -1.05745 0
M  V30 9242 H 900.163 1.92604 -2.29878 0
M  V30 9243 H 897.716 0.97476 -1.22181 0
M  V30 9244 H 898.451 3.24178 -0.0888371 0
M  V30 9245 H 898.236 3.45705 -1.85016 0
M  V30 9246 H 899.726 4.0416 -1.05094 0
M  V30 9247 N 900.163 1.21714 1.00117 0
M  V30 9248 C 901.126 0.981338 2.07129 0
M  V30 9249 C 902.126 -0.0491116 1.60725 0
M  V30 9250 O 903.316 0.188555 1.73177 0
M  V30 9251 C 900.448 0.480608 3.37495 0
M  V30 9252 H 901.641 1.93075 2.29482 0
M  V30 9253 H 899.194 1.03467 1.17151 0
M  V30 9254 H 899.929 -0.473552 3.20824 0
M  V30 9255 H 899.714 1.22393 3.72508 0
M  V30 9256 H 901.204 0.33561 4.16249 0
M  V30 9257 N 901.641 -1.19671 1.02551 0
M  V30 9258 C 903.057 -1.41305 0.741963 0
M  V30 9259 C 903.257 -1.89865 -0.674807 0
M  V30 9260 O 902.313 -2.07323 -1.44129 0
M  V30 9261 C 903.626 -2.42706 1.77522 0
M  V30 9262 C 905.174 -2.56458 1.79438 0
M  V30 9263 C 905.649 -3.61111 2.81715 0
M  V30 9264 N 907.14 -3.68603 2.8051 0
M  V30 9265 C 907.875 -4.49262 3.56302 0
M  V30 9266 N 907.371 -5.33653 4.41799 0
M  V30 9267 N 909.164 -4.43879 3.44859 0
M  V30 9268 H 901.315 -0.8647 1.94002 0
M  V30 9269 H 903.578 -0.442206 0.838545 0
M  V30 9270 H 903.284 -2.14042 2.79068 0
M  V30 9271 H 903.158 -3.41831 1.59472 0
M  V30 9272 H 905.545 -2.84447 0.78573 0
M  V30 9273 H 905.626 -1.57499 2.01563 0
M  V30 9274 H 905.27 -3.33864 3.82749 0
M  V30 9275 H 905.2 -4.59713 2.56849 0
M  V30 9276 H 907.691 -3.08329 2.18498 0
M  V30 9277 H 908.004 -5.92308 4.96378 0
M  V30 9278 H 906.349 -5.33125 4.45873 0
M  V30 9279 H 909.54 -3.7699 2.77482 0
M  V30 9280 H 909.713 -5.06501 4.04179 0
M  V30 9281 N 903.119 -0.802921 -1.35613 0
M  V30 9282 C 904.535 -0.486214 -1.52014 0
M  V30 9283 C 904.735 0.993219 -1.75321 0
M  V30 9284 O 903.791 1.77835 -1.79251 0
M  V30 9285 C 905.104 -1.32839 -2.69767 0
M  V30 9286 C 906.652 -1.32346 -2.83643 0
M  V30 9287 C 907.127 -2.14967 -4.04417 0
M  V30 9288 N 908.618 -2.12484 -4.11588 0
M  V30 9289 C 909.353 -2.73173 -5.04147 0
M  V30 9290 N 908.849 -3.42774 -6.02061 0
M  V30 9291 N 910.642 -2.62834 -4.96865 0
M  V30 9292 H 902.793 -1.76109 -1.18741 0
M  V30 9293 H 905.056 -0.74936 -0.580658 0
M  V30 9294 H 904.762 -2.37813 -2.5911 0
M  V30 9295 H 904.636 -0.979058 -3.64272 0
M  V30 9296 H 907.023 -0.281586 -2.93753 0
M  V30 9297 H 907.104 -1.71264 -1.90006 0
M  V30 9298 H 906.748 -3.19193 -3.95068 0
M  V30 9299 H 906.678 -1.73411 -4.97228 0
M  V30 9300 H 909.169 -1.61839 -3.41492 0
M  V30 9301 H 909.482 -3.86378 -6.69277 0
M  V30 9302 H 907.827 -3.46878 -6.02246 0
M  V30 9303 H 911.018 -2.08049 -4.19325 0
M  V30 9304 H 911.191 -3.10421 -5.68808 0
M  V30 9305 N 904.597 1.47463 -0.556102 0
M  V30 9306 C 905.544 2.29998 0.192213 0
M  V30 9307 C 906.514 1.38993 0.909403 0
M  V30 9308 O 907.699 1.67954 0.905316 0
M  V30 9309 C 904.839 3.22932 1.21692 0
M  V30 9310 C 903.952 4.29027 0.505908 0
M  V30 9311 C 903.087 5.09114 1.51581 0
M  V30 9312 C 902.126 6.06984 0.789714 0
M  V30 9313 N 901.263 6.80033 1.74639 0
M  V30 9314 H 906.103 2.93468 -0.517734 0
M  V30 9315 H 903.64 1.44654 -0.267147 0
M  V30 9316 H 905.598 3.75234 1.8236 0
M  V30 9317 H 904.228 2.61329 1.89491 0
M  V30 9318 H 903.28 3.7979 -0.215276 0
M  V30 9319 H 904.592 4.9876 -0.062958 0
M  V30 9320 H 903.746 5.6556 2.19606 0
M  V30 9321 H 902.485 4.3928 2.11859 0
M  V30 9322 H 901.49 5.49717 0.0955382 0
M  V30 9323 H 902.715 6.78827 0.192688 0
M  V30 9324 H 900.661 6.12931 2.33777 0
M  V30 9325 H 900.578 7.45933 1.22965 0
M  V30 9326 H 901.846 7.41054 2.41782 0
M  V30 9327 N 906.075 0.2925 1.54862 0
M  V30 9328 C 907.352 -0.371946 1.92031 0
M  V30 9329 C 907.732 -1.72363 1.21878 0
M  V30 9330 O 907.08 -2.25779 0.351573 0
M  V30 9331 C 907.29 -0.495027 3.45471 0
M  V30 9332 C 908.638 -0.769855 4.17562 0
M  V30 9333 O 909.662 -0.579168 3.5146 0
M  V30 9334 O 908.521 -1.13561 5.34571 0
M  V30 9335 H 905.615 -0.206463 0.800813 0
M  V30 9336 H 908.161 0.339933 1.6626 0
M  V30 9337 H 906.933 0.455528 3.88639 0
M  V30 9338 H 906.556 -1.2557 3.7725 0
M  V30 9339 N 907.553 -1.57587 0.0200696 0
M  V30 9340 C 908.483 -2.12702 -0.963333 0
M  V30 9341 C 909.464 -1.04094 -1.34531 0
M  V30 9342 O 910.649 -1.31881 -1.42552 0
M  V30 9343 C 907.779 -2.64673 -2.24868 0
M  V30 9344 C 906.733 -3.77987 -2.00772 0
M  V30 9345 C 906.059 -4.16351 -3.35494 0
M  V30 9346 C 907.359 -5.0444 -1.35416 0
M  V30 9347 H 909.053 -2.95121 -0.504363 0
M  V30 9348 H 906.599 -1.41966 -0.24116 0
M  V30 9349 H 908.552 -3.01862 -2.94036 0
M  V30 9350 H 907.276 -1.79403 -2.72914 0
M  V30 9351 H 905.935 -3.41223 -1.34025 0
M  V30 9352 H 905.583 -3.28075 -3.81282 0
M  V30 9353 H 905.283 -4.92705 -3.20181 0
M  V30 9354 H 906.807 -4.56115 -4.05945 0
M  V30 9355 H 908.221 -5.39273 -1.94571 0
M  V30 9356 H 906.618 -5.85732 -1.30529 0
M  V30 9357 H 907.688 -4.83803 -0.325923 0
M  V30 9358 N 909.032 0.252966 -1.55557 0
M  V30 9359 C 909.995 1.29645 -1.8901 0
M  V30 9360 C 910.995 1.41378 -0.766096 0
M  V30 9361 O 912.185 1.40183 -1.03414 0
M  V30 9362 C 909.317 2.67504 -2.11316 0
M  V30 9363 H 910.51 1.01202 -2.82309 0
M  V30 9364 H 908.063 0.491977 -1.48355 0
M  V30 9365 H 908.798 3.01095 -1.20466 0
M  V30 9366 H 908.583 2.6037 -2.93172 0
M  V30 9367 H 910.073 3.42861 -2.38403 0
M  V30 9368 N 910.51 1.48831 0.518367 0
M  V30 9369 C 911.757 1.57439 1.27355 0
M  V30 9370 C 912.085 0.25338 1.92843 0
M  V30 9371 O 911.34 -0.757323 1.80452 0
M  V30 9372 C 911.639 2.67003 2.3758 0
M  V30 9373 C 911.305 4.09069 1.89667 0
M  V30 9374 C 909.967 4.47733 1.76319 0
M  V30 9375 C 912.319 4.98052 1.53603 0
M  V30 9376 C 909.647 5.73173 1.25258 0
M  V30 9377 C 911.999 6.23992 1.04001 0
M  V30 9378 C 910.663 6.61503 0.892784 0
M  V30 9379 H 909.933 0.57611 0.466023 0
M  V30 9380 H 912.58 1.82595 0.577166 0
M  V30 9381 H 910.885 2.35751 3.12936 0
M  V30 9382 H 912.582 2.70876 2.95681 0
M  V30 9383 H 909.172 3.7854 2.01011 0
M  V30 9384 H 913.356 4.68849 1.62771 0
M  V30 9385 H 908.612 6.0095 1.12557 0
M  V30 9386 H 912.786 6.92331 0.751706 0
M  V30 9387 H 910.413 7.58587 0.494939 0
M  V30 9388 N 911.988 -0.768124 1.37614 0
M  V30 9389 C 912.935 -1.88151 1.33671 0
M  V30 9390 C 913.905 -1.64871 0.201645 0
M  V30 9391 O 915.09 -1.86739 0.391582 0
M  V30 9392 C 912.23 -3.25264 1.15314 0
M  V30 9393 C 911.343 -3.60473 2.38082 0
M  V30 9394 C 910.478 -4.86814 2.12569 0
M  V30 9395 C 909.517 -5.14765 3.31184 0
M  V30 9396 N 908.654 -6.32295 3.052 0
M  V30 9397 H 913.494 -1.90857 2.28862 0
M  V30 9398 H 911.031 -0.933048 1.13722 0
M  V30 9399 H 912.989 -4.04364 1.02691 0
M  V30 9400 H 911.619 -3.21924 0.237689 0
M  V30 9401 H 910.671 -2.7633 2.61431 0
M  V30 9402 H 911.983 -3.77065 3.26532 0
M  V30 9403 H 911.137 -5.73826 1.96999 0
M  V30 9404 H 909.876 -4.72333 1.21462 0
M  V30 9405 H 908.881 -4.26227 3.4729 0
M  V30 9406 H 910.106 -5.31153 4.23147 0
M  V30 9407 H 908.052 -6.19166 2.16726 0
M  V30 9408 H 907.969 -6.4932 3.87195 0
M  V30 9409 H 909.237 -7.22234 2.93254 0
M  V30 9410 N 913.466 -1.22244 -0.994698 0
M  V30 9411 C 914.713 -1.04591 -1.73398 0
M  V30 9412 C 915.041 0.419223 -1.89928 0
M  V30 9413 O 914.296 1.32714 -1.43824 0
M  V30 9414 C 914.595 -1.70014 -3.14372 0
M  V30 9415 C 914.261 -3.19903 -3.17762 0
M  V30 9416 C 912.923 -3.60803 -3.18394 0
M  V30 9417 C 915.275 -4.15851 -3.14194 0
M  V30 9418 C 912.603 -4.96135 -3.13157 0
M  V30 9419 C 914.955 -5.51157 -3.10498 0
M  V30 9420 C 913.619 -5.91439 -3.09445 0
M  V30 9421 H 912.889 -0.382725 -0.63451 0
M  V30 9422 H 915.536 -1.51981 -1.16508 0
M  V30 9423 H 913.841 -1.14945 -3.7456 0
M  V30 9424 H 915.538 -1.53848 -3.70313 0
M  V30 9425 H 912.128 -2.87336 -3.18019 0
M  V30 9426 H 916.312 -3.85272 -3.12857 0
M  V30 9427 H 911.568 -5.26578 -3.10685 0
M  V30 9428 H 915.742 -6.2523 -3.06692 0
M  V30 9429 H 913.369 -6.96271 -3.05141 0
M  V30 9430 N 914.944 1.19125 -1.03184 0
M  V30 9431 C 915.854 2.26112 -0.625329 0
M  V30 9432 C 916.87 1.7056 0.344298 0
M  V30 9433 O 918.046 2.0039 0.20144 0
M  V30 9434 C 915.111 3.46697 0.0145169 0
M  V30 9435 C 914.172 4.17419 -1.00299 0
M  V30 9436 C 913.405 5.32247 -0.393581 0
M  V30 9437 O 913.628 5.64724 0.802659 0
M  V30 9438 O 912.562 5.91428 -1.1179 0
M  V30 9439 H 916.388 2.63131 -1.51643 0
M  V30 9440 H 913.973 1.26036 -0.802197 0
M  V30 9441 H 915.855 4.19762 0.371139 0
M  V30 9442 H 914.53 3.11521 0.879581 0
M  V30 9443 H 913.437 3.4646 -1.41125 0
M  V30 9444 H 914.77 4.56573 -1.83852 0
M  V30 9445 N 916.422 0.810101 1.35185 0
M  V30 9446 C 917.67 0.391343 1.98275 0
M  V30 9447 C 917.991 -1.04592 1.64577 0
M  V30 9448 O 917.261 -1.72417 0.93001 0
M  V30 9449 H 915.841 0.141715 0.733434 0
M  V30 9450 H 918.503 1.03672 1.6504 0
M  V30 9451 H 917.599 0.49991 3.0807 0
M  V30 9452 N 917.9 -1.47166 0.563914 0
M  V30 9453 C 918.833 -2.27058 -0.227989 0
M  V30 9454 C 919.811 -1.34468 -0.914179 0
M  V30 9455 O 920.995 -1.63857 -0.931829 0
M  V30 9456 C 918.122 -3.11689 -1.32543 0
M  V30 9457 C 917.168 -4.19906 -0.747084 0
M  V30 9458 S 918.001 -5.33916 0.41153 0
M  V30 9459 C 919.157 -6.22112 -0.687566 0
M  V30 9460 H 919.39 -2.93876 0.449939 0
M  V30 9461 H 916.923 -1.50372 0.350382 0
M  V30 9462 H 918.881 -3.61017 -1.95389 0
M  V30 9463 H 917.542 -2.44221 -1.97522 0
M  V30 9464 H 916.735 -4.78876 -1.57141 0
M  V30 9465 H 916.337 -3.73493 -0.194671 0
M  V30 9466 H 918.629 -6.58867 -1.578 0
M  V30 9467 H 919.572 -7.07971 -0.135058 0
M  V30 9468 H 919.98 -5.55871 -0.983255 0
M  V30 9469 N 919.378 -0.300708 -1.54705 0
M  V30 9470 C 920.626 0.308044 -1.99739 0
M  V30 9471 C 920.947 1.54433 -1.19061 0
M  V30 9472 O 920.217 1.93794 -0.286507 0
M  V30 9473 H 918.797 0.116811 -0.73781 0
M  V30 9474 H 921.459 -0.41197 -1.90496 0
M  V30 9475 H 920.555 0.580287 -3.06658 0
M  V30 9476 N 920.856 1.57574 -0.0284266 0
M  V30 9477 C 922.102 1.92056 0.651327 0
M  V30 9478 C 922.435 0.905092 1.71819 0
M  V30 9479 O 921.71 -0.0722703 1.94366 0
M  V30 9480 C 921.993 3.37021 1.26841 0
M  V30 9481 C 921.846 4.49304 0.211157 0
M  V30 9482 C 923.165 3.81936 2.18662 0
M  V30 9483 H 920.284 0.698428 0.235304 0
M  V30 9484 H 922.926 1.89807 -0.0855435 0
M  V30 9485 H 921.076 3.39068 1.89644 0
M  V30 9486 H 922.748 4.5939 -0.419379 0
M  V30 9487 H 920.991 4.31317 -0.463445 0
M  V30 9488 H 921.662 5.47764 0.682518 0
M  V30 9489 H 924.138 3.8162 1.65847 0
M  V30 9490 H 923.014 4.84064 2.58792 0
M  V30 9491 H 923.275 3.174 3.07749 0
M  V30 9492 N 922.334 -0.244713 1.55689 0
M  V30 9493 C 923.611 -0.995407 1.68378 0
M  V30 9494 C 923.991 -2.03288 0.568949 0
M  V30 9495 O 923.339 -2.24469 -0.427299 0
M  V30 9496 C 923.549 -1.62678 3.08767 0
M  V30 9497 C 924.897 -2.1278 3.67437 0
M  V30 9498 O 925.921 -1.72614 3.11581 0
M  V30 9499 O 924.78 -2.86536 4.65359 0
M  V30 9500 H 921.874 -0.463476 0.684923 0
M  V30 9501 H 924.42 -0.238326 1.68018 0
M  V30 9502 H 923.192 -0.876469 3.81358 0
M  V30 9503 H 922.815 -2.45 3.13146 0
M  V30 9504 N 923.813 -1.49104 -0.510467 0
M  V30 9505 C 924.743 -1.67981 -1.62187 0
M  V30 9506 C 925.724 -0.528529 -1.6168 0
M  V30 9507 O 926.909 -0.763305 -1.7857 0
M  V30 9508 C 924.039 -1.73755 -3.0071 0
M  V30 9509 C 922.993 -2.88579 -3.1608 0
M  V30 9510 C 922.319 -2.79457 -4.5586 0
M  V30 9511 C 923.619 -4.29638 -2.97 0
M  V30 9512 H 925.313 -2.61029 -1.46643 0
M  V30 9513 H 922.859 -1.25615 -0.704042 0
M  V30 9514 H 924.812 -1.85548 -3.78352 0
M  V30 9515 H 923.536 -0.772996 -3.17321 0
M  V30 9516 H 922.195 -2.76372 -2.40861 0
M  V30 9517 H 921.843 -1.80929 -4.69333 0
M  V30 9518 H 921.543 -3.56518 -4.67086 0
M  V30 9519 H 923.067 -2.93245 -5.35574 0
M  V30 9520 H 924.481 -4.42575 -3.64418 0
M  V30 9521 H 922.878 -5.07847 -3.19704 0
M  V30 9522 H 923.948 -4.44741 -1.93219 0
M  V30 9523 N 925.291 0.760815 -1.38019 0
M  V30 9524 C 926.538 1.51973 -1.3383 0
M  V30 9525 C 926.866 1.9436 0.0738855 0
M  V30 9526 O 926.121 1.65181 1.04946 0
M  V30 9527 C 926.42 2.79024 -2.23339 0
M  V30 9528 C 926.086 2.55636 -3.71431 0
M  V30 9529 C 924.748 2.48966 -4.11788 0
M  V30 9530 C 927.1 2.35018 -4.65205 0
M  V30 9531 C 924.428 2.19684 -5.44018 0
M  V30 9532 C 926.78 2.07258 -5.97685 0
M  V30 9533 C 925.444 1.9904 -6.37134 0
M  V30 9534 H 924.714 0.556108 -0.489719 0
M  V30 9535 H 927.361 0.87545 -1.70318 0
M  V30 9536 H 925.666 3.48065 -1.79883 0
M  V30 9537 H 927.363 3.36951 -2.17405 0
M  V30 9538 H 923.953 2.61695 -3.39432 0
M  V30 9539 H 928.137 2.39154 -4.34878 0
M  V30 9540 H 923.393 2.11825 -5.73533 0
M  V30 9541 H 927.567 1.90307 -6.69893 0
M  V30 9542 H 925.194 1.76115 -7.39519 0
M  V30 9543 N 926.769 1.22769 0.988202 0
M  V30 9544 C 928.017 1.05301 1.725 0
M  V30 9545 C 928.338 -0.412103 1.90596 0
M  V30 9546 O 927.608 -1.29606 1.46898 0
M  V30 9547 H 926.188 0.386658 0.639144 0
M  V30 9548 H 928.85 1.54359 1.18993 0
M  V30 9549 H 927.946 1.53465 2.71763 0
M  V30 9550 N 928.247 -1.18576 1.03814 0
M  V30 9551 C 929.157 -2.25778 0.637311 0
M  V30 9552 C 930.173 -1.7074 -0.335248 0
M  V30 9553 O 931.349 -2.00494 -0.19081 0
M  V30 9554 C 928.414 -3.467 0.00386953 0
M  V30 9555 C 927.475 -4.16881 1.02511 0
M  V30 9556 C 926.708 -5.32031 0.421802 0
M  V30 9557 O 926.931 -5.65142 -0.772699 0
M  V30 9558 O 925.865 -5.90826 1.14925 0
M  V30 9559 H 929.691 -2.62323 1.53037 0
M  V30 9560 H 927.276 -1.25609 0.80887 0
M  V30 9561 H 929.158 -4.19953 -0.348873 0
M  V30 9562 H 927.833 -3.11983 -0.863047 0
M  V30 9563 H 926.74 -3.45707 1.4296 0
M  V30 9564 H 928.073 -4.55592 1.86271 0
M  V30 9565 N 929.725 -0.817259 -1.34754 0
M  V30 9566 C 930.965 -0.408429 -2.00278 0
M  V30 9567 C 931.329 1.00818 -1.634 0
M  V30 9568 O 932.53 1.51959 -2.21725 0
M  V30 9569 C 930.801 -0.598219 -3.52358 0
M  V30 9570 S 932.36 -0.281395 -4.37897 0
M  V30 9571 H 929.178 -0.154587 -0.693991 0
M  V30 9572 H 931.78 -1.06184 -1.6415 0
M  V30 9573 H 930.484 -1.62901 -3.76685 0
M  V30 9574 H 930.015 0.0701299 -3.93337 0
M  V30 9575 H 932.03 0.907024 -4.8784 0
M  V30 9576 N 931.203 1.46865 -0.571711 0
M  V30 9577 C 932.433 2.06518 -0.0583129 0
M  V30 9578 C 932.841 1.4227 1.24723 0
M  V30 9579 O 932.184 0.518293 1.76237 0
M  V30 9580 C 932.246 3.5898 0.193214 0
M  V30 9581 C 931.91 4.45355 -1.02507 0
M  V30 9582 C 932.907 4.82575 -1.93435 0
M  V30 9583 C 930.592 4.86656 -1.24382 0
M  V30 9584 C 932.586 5.59912 -3.04595 0
M  V30 9585 C 930.273 5.63754 -2.35849 0
M  V30 9586 C 931.271 6.00294 -3.25785 0
M  V30 9587 O 930.959 6.75836 -4.35318 0
M  V30 9588 H 930.691 0.674188 -0.0494584 0
M  V30 9589 H 933.245 1.89644 -0.788934 0
M  V30 9590 H 931.475 3.7412 0.978319 0
M  V30 9591 H 933.164 4.006 0.653769 0
M  V30 9592 H 933.93 4.51256 -1.77745 0
M  V30 9593 H 929.809 4.57672 -0.55292 0
M  V30 9594 H 933.353 5.88351 -3.74818 0
M  V30 9595 H 929.25 5.94487 -2.51506 0
M  V30 9596 H 930.018 6.94247 -4.33547 0
M  V30 9597 N 932.681 0.308908 1.54543 0
M  V30 9598 C 934.097 -0.0442273 1.59539 0
M  V30 9599 C 934.297 -1.51743 1.32575 0
M  V30 9600 O 933.353 -2.27134 1.10302 0
M  V30 9601 C 934.666 0.360826 2.98527 0
M  V30 9602 C 936.214 0.310252 3.11459 0
M  V30 9603 C 936.689 0.690246 4.52769 0
M  V30 9604 N 938.18 0.643084 4.58714 0
M  V30 9605 C 938.915 0.909483 5.66141 0
M  V30 9606 N 938.411 1.24226 6.81572 0
M  V30 9607 N 940.204 0.836018 5.55848 0
M  V30 9608 H 932.355 1.26893 1.70329 0
M  V30 9609 H 934.618 0.514986 0.795923 0
M  V30 9610 H 934.324 1.38669 3.23209 0
M  V30 9611 H 934.198 -0.281563 3.76148 0
M  V30 9612 H 936.585 -0.706375 2.86521 0
M  V30 9613 H 936.666 0.987373 2.35976 0
M  V30 9614 H 936.31 1.70472 4.78437 0
M  V30 9615 H 936.24 -0.00903075 5.26599 0
M  V30 9616 H 938.731 0.397138 3.75807 0
M  V30 9617 H 939.044 1.4313 7.5943 0
M  V30 9618 H 937.389 1.28038 6.83104 0
M  V30 9619 H 940.58 0.575637 4.64547 0
M  V30 9620 H 940.753 1.047 6.39486 0
M  V30 9621 N 934.159 -1.57557 0.0367827 0
M  V30 9622 C 935.384 -1.96828 -0.653707 0
M  V30 9623 C 935.809 -0.913559 -1.64425 0
M  V30 9624 O 935.167 0.124749 -1.8087 0
M  V30 9625 C 935.215 -3.35189 -1.32969 0
M  V30 9626 O 934.319 -3.32095 -2.44513 0
M  V30 9627 H 933.66 -0.64157 -0.171124 0
M  V30 9628 H 936.19 -2.04351 0.100912 0
M  V30 9629 H 936.2 -3.71593 -1.68472 0
M  V30 9630 H 934.875 -4.11496 -0.603654 0
M  V30 9631 H 933.452 -3.07418 -2.11065 0
M  V30 9632 N 935.637 0.236453 -1.55816 0
M  V30 9633 C 936.862 0.98449 -1.82545 0
M  V30 9634 C 937.287 1.77755 -0.615206 0
M  V30 9635 O 936.645 1.75982 0.435895 0
M  V30 9636 C 936.693 1.88973 -3.07118 0
M  V30 9637 O 935.797 2.98298 -2.84766 0
M  V30 9638 H 935.138 0.279577 -0.602273 0
M  V30 9639 H 937.668 0.254277 -2.03014 0
M  V30 9640 H 937.678 2.3024 -3.36829 0
M  V30 9641 H 936.353 1.30671 -3.94839 0
M  V30 9642 H 934.93 2.61085 -2.6625 0
M  V30 9643 N 937.115 1.49373 0.502552 0
M  V30 9644 C 938.025 1.68659 1.63068 0
M  V30 9645 C 939.041 0.569182 1.64427 0
M  V30 9646 O 940.217 0.843695 1.82876 0
M  V30 9647 C 937.282 1.74745 2.99441 0
M  V30 9648 C 936.343 2.98311 3.08721 0
M  V30 9649 C 935.576 3.04097 4.38589 0
M  V30 9650 O 935.799 2.17519 5.27297 0
M  V30 9651 O 934.733 3.96544 4.52809 0
M  V30 9652 H 938.559 2.64226 1.49727 0
M  V30 9653 H 936.144 1.33096 0.67867 0
M  V30 9654 H 938.026 1.8111 3.80496 0
M  V30 9655 H 936.701 0.823565 3.13048 0
M  V30 9656 H 935.608 2.97465 2.2686 0
M  V30 9657 H 936.941 3.90174 3.00041 0
M  V30 9658 N 938.594 -0.753485 1.38421 0
M  V30 9659 C 939.84 -1.51485 1.34834 0
M  V30 9660 C 940.173 -1.94102 -0.0615381 0
M  V30 9661 O 939.448 -1.65439 -1.02274 0
M  V30 9662 C 939.731 -2.76736 2.30411 0
M  V30 9663 C 939.584 -2.40256 3.80259 0
M  V30 9664 C 940.903 -3.7876 2.24119 0
M  V30 9665 H 938.022 -0.549534 0.491102 0
M  V30 9666 H 940.664 -0.863006 1.6927 0
M  V30 9667 H 938.814 -3.32357 2.01175 0
M  V30 9668 H 940.486 -1.90409 4.20169 0
M  V30 9669 H 938.729 -1.72714 3.97935 0
M  V30 9670 H 939.4 -3.29869 4.42595 0
M  V30 9671 H 941.876 -3.32679 2.49928 0
M  V30 9672 H 940.752 -4.64092 2.93104 0
M  V30 9673 H 941.013 -4.24352 1.24006 0
M  V30 9674 N 940.072 -1.23292 -0.981677 0
M  V30 9675 C 941.488 -0.995295 -1.24764 0
M  V30 9676 C 941.688 0.304379 -1.99188 0
M  V30 9677 O 940.744 1.02414 -2.30798 0
M  V30 9678 C 942.057 -2.20135 -2.04844 0
M  V30 9679 C 943.605 -2.24612 -2.17988 0
M  V30 9680 C 944.08 -3.448 -3.01458 0
M  V30 9681 N 945.571 -3.45031 -3.09044 0
M  V30 9682 C 946.306 -4.34683 -3.7395 0
M  V30 9683 N 945.802 -5.34569 -4.4069 0
M  V30 9684 N 947.595 -4.22429 -3.70823 0
M  V30 9685 H 939.746 -2.06834 -0.483052 0
M  V30 9686 H 942.009 -0.906929 -0.276014 0
M  V30 9687 H 941.715 -3.14446 -1.57532 0
M  V30 9688 H 941.589 -2.21115 -3.05594 0
M  V30 9689 H 943.976 -1.30841 -2.64508 0
M  V30 9690 H 944.057 -2.27664 -1.16631 0
M  V30 9691 H 943.701 -4.38877 -2.55635 0
M  V30 9692 H 943.631 -3.38988 -4.02982 0
M  V30 9693 H 946.122 -2.72759 -2.61555 0
M  V30 9694 H 946.435 -5.99236 -4.87991 0
M  V30 9695 H 944.78 -5.3847 -4.39403 0
M  V30 9696 H 947.971 -3.43639 -3.17851 0
M  V30 9697 H 948.144 -4.92501 -4.21126 0
M  V30 9698 N 941.55 1.18024 -1.04442 0
M  V30 9699 C 942.513 2.19992 -0.643136 0
M  V30 9700 C 943.513 1.57949 0.301444 0
M  V30 9701 O 944.703 1.73986 0.0863341 0
M  V30 9702 C 941.835 3.40853 0.0565208 0
M  V30 9703 H 943.028 2.57008 -1.54554 0
M  V30 9704 H 940.581 1.31974 -0.837408 0
M  V30 9705 H 941.316 3.09373 0.972553 0
M  V30 9706 H 941.101 3.87128 -0.622439 0
M  V30 9707 H 942.591 4.16344 0.323652 0
M  V30 9708 N 943.028 0.824394 1.34319 0
M  V30 9709 C 943.991 0.252696 2.27803 0
M  V30 9710 C 944.991 -0.570254 1.50349 0
M  V30 9711 O 946.181 -0.386145 1.69866 0
M  V30 9712 C 943.313 -0.645575 3.34731 0
M  V30 9713 H 944.506 1.07742 2.79878 0
M  V30 9714 H 942.059 0.596367 1.44475 0
M  V30 9715 H 942.794 -1.4933 2.87873 0
M  V30 9716 H 942.579 -0.0569478 3.92059 0
M  V30 9717 H 944.069 -1.03933 4.0446 0
M  V30 9718 N 944.506 -1.46559 0.579492 0
M  V30 9719 C 945.922 -1.57771 0.240921 0
M  V30 9720 C 946.122 -1.57505 -1.25676 0
M  V30 9721 O 945.178 -1.4903 -2.03829 0
M  V30 9722 C 946.491 -2.87311 0.887285 0
M  V30 9723 C 948.039 -3.00937 0.860576 0
M  V30 9724 C 948.514 -4.33208 1.48642 0
M  V30 9725 N 950.005 -4.39899 1.45062 0
M  V30 9726 C 950.74 -5.40856 1.90428 0
M  V30 9727 N 950.236 -6.48503 2.43752 0
M  V30 9728 N 952.029 -5.32037 1.81364 0
M  V30 9729 H 944.18 -1.44976 1.55228 0
M  V30 9730 H 946.443 -0.691354 0.648639 0
M  V30 9731 H 946.149 -2.93307 1.94071 0
M  V30 9732 H 946.023 -3.75141 0.393577 0
M  V30 9733 H 948.41 -2.94524 -0.184223 0
M  V30 9734 H 948.491 -2.14591 1.39227 0
M  V30 9735 H 948.135 -4.40378 2.5304 0
M  V30 9736 H 948.065 -5.18323 0.92998 0
M  V30 9737 H 950.556 -3.62706 1.0608 0
M  V30 9738 H 950.869 -7.21744 2.76234 0
M  V30 9739 H 949.214 -6.49332 2.47776 0
M  V30 9740 H 952.405 -4.46841 1.39465 0
M  V30 9741 H 952.578 -6.10573 2.17035 0
M  V30 9742 N 945.984 -0.3171 -1.54377 0
M  V30 9743 C 946.914 0.544623 -2.2706 0
M  V30 9744 C 947.895 1.12469 -1.27611 0
M  V30 9745 O 949.08 1.15103 -1.56413 0
M  V30 9746 C 946.21 1.70879 -3.02353 0
M  V30 9747 C 945.164 1.25833 -4.09084 0
M  V30 9748 C 944.49 2.50894 -4.72182 0
M  V30 9749 C 945.79 0.377876 -5.20931 0
M  V30 9750 H 947.484 -0.0616372 -2.99337 0
M  V30 9751 H 945.03 -0.0310848 -1.43966 0
M  V30 9752 H 946.983 2.31787 -3.51927 0
M  V30 9753 H 945.707 2.34155 -2.27682 0
M  V30 9754 H 944.366 0.672228 -3.60384 0
M  V30 9755 H 944.014 3.12518 -3.94134 0
M  V30 9756 H 943.714 2.21447 -5.44275 0
M  V30 9757 H 945.238 3.12575 -5.24528 0
M  V30 9758 H 946.652 0.893056 -5.66302 0
M  V30 9759 H 945.049 0.176474 -5.9984 0
M  V30 9760 H 946.119 -0.592943 -4.81261 0
M  V30 9761 N 947.462 1.57535 -0.0451378 0
M  V30 9762 C 948.392 2.14208 0.929372 0
M  V30 9763 C 949.373 1.06221 1.32858 0
M  V30 9764 O 950.558 1.34132 1.40436 0
M  V30 9765 C 947.688 2.68217 2.20629 0
M  V30 9766 C 946.642 3.81134 1.94734 0
M  V30 9767 C 945.968 4.21636 3.28828 0
M  V30 9768 C 947.268 5.06531 1.27374 0
M  V30 9769 H 948.962 2.95886 0.457348 0
M  V30 9770 H 946.508 1.42332 0.218544 0
M  V30 9771 H 948.461 3.06502 2.89196 0
M  V30 9772 H 947.185 1.83722 2.70026 0
M  V30 9773 H 945.844 3.43312 1.28579 0
M  V30 9774 H 945.492 3.34099 3.76014 0
M  V30 9775 H 945.192 4.97736 3.12302 0
M  V30 9776 H 946.716 4.62516 3.98637 0
M  V30 9777 H 948.13 5.423 1.85967 0
M  V30 9778 H 946.527 5.87735 1.21194 0
M  V30 9779 H 947.597 4.84261 0.248913 0
M  V30 9780 N 948.94 -0.228186 1.55939 0
M  V30 9781 C 949.87 -1.28607 1.94891 0
M  V30 9782 C 950.851 -1.49236 0.816245 0
M  V30 9783 O 952.036 -1.61531 1.07803 0
M  V30 9784 C 949.166 -2.63719 2.25986 0
M  V30 9785 C 948.12 -2.57757 3.4168 0
M  V30 9786 C 947.446 -3.96837 3.58364 0
M  V30 9787 C 948.746 -2.13116 4.76843 0
M  V30 9788 H 950.44 -0.962531 2.83506 0
M  V30 9789 H 947.986 -0.461577 1.36402 0
M  V30 9790 H 949.939 -3.37878 2.51826 0
M  V30 9791 H 948.663 -2.97747 1.34217 0
M  V30 9792 H 947.322 -1.86055 3.15878 0
M  V30 9793 H 946.97 -4.28162 2.63982 0
M  V30 9794 H 946.67 -3.93731 4.36176 0
M  V30 9795 H 948.194 -4.72668 3.86545 0
M  V30 9796 H 949.608 -2.77015 5.01932 0
M  V30 9797 H 948.005 -2.21083 5.57891 0
M  V30 9798 H 949.075 -1.08326 4.72645 0
M  V30 9799 N 950.418 -1.49637 -0.494624 0
M  V30 9800 C 951.834 -1.36541 -0.826361 0
M  V30 9801 C 952.034 -0.403386 -1.97421 0
M  V30 9802 O 951.09 0.162614 -2.51976 0
M  V30 9803 C 952.403 -2.77401 -1.16057 0
M  V30 9804 C 953.951 -2.86148 -1.26841 0
M  V30 9805 C 954.426 -4.27789 -1.63587 0
M  V30 9806 N 955.917 -4.3063 -1.70624 0
M  V30 9807 C 956.652 -5.37198 -2.00514 0
M  V30 9808 N 956.148 -6.54004 -2.28584 0
M  V30 9809 N 957.941 -5.2462 -2.01818 0
M  V30 9810 H 950.092 -2.10776 0.26219 0
M  V30 9811 H 952.355 -0.946419 0.0547235 0
M  V30 9812 H 952.061 -3.49526 -0.390434 0
M  V30 9813 H 951.935 -3.1317 -2.10249 0
M  V30 9814 H 954.322 -2.14256 -2.02925 0
M  V30 9815 H 954.403 -2.53953 -0.30684 0
M  V30 9816 H 954.047 -5.00209 -0.880507 0
M  V30 9817 H 953.977 -4.57453 -2.60854 0
M  V30 9818 H 956.468 -3.46393 -1.51065 0
M  V30 9819 H 956.781 -7.31041 -2.50598 0
M  V30 9820 H 955.126 -6.57219 -2.26027 0
M  V30 9821 H 958.317 -4.32371 -1.79369 0
M  V30 9822 H 958.49 -6.07765 -2.24778 0
M  V30 9823 N 951.896 0.746133 -1.38819 0
M  V30 9824 C 953.312 1.0502 -1.20179 0
M  V30 9825 C 953.512 2.01423 -0.0556271 0
M  V30 9826 O 952.568 2.45359 0.59625 0
M  V30 9827 C 953.881 1.62315 -2.53129 0
M  V30 9828 C 955.429 1.74449 -2.59878 0
M  V30 9829 C 955.904 2.35155 -3.93022 0
M  V30 9830 N 957.395 2.42577 -3.94602 0
M  V30 9831 C 958.13 2.9046 -4.94389 0
M  V30 9832 N 957.626 3.38322 -6.04574 0
M  V30 9833 N 959.419 2.89568 -4.81775 0
M  V30 9834 H 951.57 0.106551 -2.12133 0
M  V30 9835 H 953.833 0.109897 -0.941609 0
M  V30 9836 H 953.539 0.98946 -3.37495 0
M  V30 9837 H 953.413 2.61276 -2.72057 0
M  V30 9838 H 955.8 2.36943 -1.75903 0
M  V30 9839 H 955.881 0.741721 -2.4481 0
M  V30 9840 H 955.525 1.73292 -4.77422 0
M  V30 9841 H 955.455 3.36088 -4.05404 0
M  V30 9842 H 957.946 2.08735 -3.15021 0
M  V30 9843 H 958.259 3.73336 -6.76639 0
M  V30 9844 H 956.604 3.3636 -6.08184 0
M  V30 9845 H 959.795 2.51492 -3.94803 0
M  V30 9846 H 959.968 3.26571 -5.59692 0
M  V30 9847 N 953.375 1.23811 0.975125 0
M  V30 9848 C 954.615 1.08517 1.73215 0
M  V30 9849 C 954.979 -0.370777 1.88386 0
M  V30 9850 O 956.18 -0.645036 2.60946 0
M  V30 9851 C 954.451 1.79649 3.08968 0
M  V30 9852 S 956.01 1.79993 4.00185 0
M  V30 9853 H 952.828 0.388256 0.595633 0
M  V30 9854 H 955.43 1.57028 1.16458 0
M  V30 9855 H 954.134 2.8471 2.95581 0
M  V30 9856 H 953.665 1.31441 3.70792 0
M  V30 9857 H 955.68 0.862294 4.8865 0
M  V30 9858 N 954.853 -1.17469 1.05066 0
M  V30 9859 C 956.264 -1.69334 0.786304 0
M  V30 9860 C 956.615 -1.83604 -0.691671 0
M  V30 9861 O 955.74 -1.52269 -1.53763 0
M  V30 9862 C 956.335 -3.07572 1.42074 0
M  V30 9863 C 954.894 -3.56609 1.20446 0
M  V30 9864 C 954.041 -2.329 1.50508 0
M  V30 9865 H 956.992 -1.02003 1.21577 0
M  V30 9866 H 957.013 -3.71352 0.829334 0
M  V30 9867 H 956.525 -2.97154 2.49642 0
M  V30 9868 H 954.626 -3.72306 0.147968 0
M  V30 9869 H 954.739 -4.39446 1.90852 0
M  V30 9870 H 953.103 -2.37305 0.925124 0
M  V30 9871 H 953.886 -2.25093 2.59207 0
M  V30 9872 N 956.331 -0.831506 -1.3388 0
M  V30 9873 C 957.261 -0.274378 -2.31882 0
M  V30 9874 C 958.242 0.613872 -1.58637 0
M  V30 9875 O 959.427 0.538961 -1.86571 0
M  V30 9876 C 956.557 0.557498 -3.42796 0
M  V30 9877 C 955.511 -0.234337 -4.27358 0
M  V30 9878 C 954.837 0.720825 -5.29819 0
M  V30 9879 C 956.137 -1.44732 -5.01847 0
M  V30 9880 H 957.831 -1.09322 -2.78728 0
M  V30 9881 H 955.377 -0.527136 -1.34005 0
M  V30 9882 H 957.33 0.957501 -4.10378 0
M  V30 9883 H 956.054 1.40947 -2.94621 0
M  V30 9884 H 954.713 -0.61581 -3.61391 0
M  V30 9885 H 954.361 1.569 -4.77903 0
M  V30 9886 H 954.061 0.195171 -5.87276 0
M  V30 9887 H 955.585 1.1185 -6.00268 0
M  V30 9888 H 956.999 -1.12087 -5.62236 0
M  V30 9889 H 955.396 -1.90923 -5.68919 0
M  V30 9890 H 956.466 -2.22099 -4.31045 0
M  V30 9891 N 957.809 1.4625 -0.587256 0
M  V30 9892 C 959.055 2.0323 -0.0830359 0
M  V30 9893 C 959.41 1.45007 1.26455 0
M  V30 9894 O 958.703 0.607494 1.81714 0
M  V30 9895 C 958.897 3.57382 0.036328 0
M  V30 9896 C 958.726 4.30556 -1.29814 0
M  V30 9897 C 957.496 4.69285 -1.87349 0
M  V30 9898 C 959.694 4.63806 -2.22236 0
M  V30 9899 N 957.676 5.27229 -3.14488 0
M  V30 9900 C 959.047 5.22368 -3.33964 0
M  V30 9901 C 961.102 4.45738 -2.2186 0
M  V30 9902 C 959.805 5.64769 -4.45454 0
M  V30 9903 C 961.831 4.89158 -3.32383 0
M  V30 9904 C 961.193 5.47795 -4.42832 0
M  V30 9905 H 957.292 0.77856 -0.0732716 0
M  V30 9906 H 959.876 1.78343 -0.781152 0
M  V30 9907 H 958.047 3.81973 0.703621 0
M  V30 9908 H 959.779 4.01009 0.545347 0
M  V30 9909 H 956.534 4.5219 -1.40789 0
M  V30 9910 H 956.958 5.60719 -3.79372 0
M  V30 9911 H 961.6 3.99735 -1.37739 0
M  V30 9912 H 959.318 6.09748 -5.30314 0
M  V30 9913 H 962.904 4.76926 -3.33216 0
M  V30 9914 H 961.784 5.80778 -5.26941 0
M  V30 9915 N 959.287 0.325282 1.54207 0
M  V30 9916 C 960.535 -0.276229 2.00203 0
M  V30 9917 C 960.856 -1.52519 1.21503 0
M  V30 9918 O 960.126 -1.93313 0.317302 0
M  V30 9919 H 958.706 -0.105059 0.739575 0
M  V30 9920 H 961.368 0.442225 1.89817 0
M  V30 9921 H 960.464 -0.531427 3.07542 0
M  V30 9922 N 960.765 -1.57509 0.0534917 0
M  V30 9923 C 962.042 -1.84137 -0.659767 0
M  V30 9924 C 962.422 -0.942362 -1.88899 0
M  V30 9925 O 961.77 -0.00398566 -2.285 0
M  V30 9926 C 961.98 -3.33919 -1.01486 0
M  V30 9927 C 963.328 -4.00989 -1.39616 0
M  V30 9928 O 964.352 -3.38557 -1.10713 0
M  V30 9929 O 963.211 -5.11071 -1.93567 0
M  V30 9930 H 960.305 -0.760081 -0.325893 0
M  V30 9931 H 962.851 -1.69497 0.0830315 0
M  V30 9932 H 961.623 -3.91046 -0.141041 0
M  V30 9933 H 961.246 -3.53755 -1.81503 0
M  V30 9934 N 962.243 0.219913 -1.56058 0
M  V30 9935 C 963.206 1.25606 -1.91718 0
M  V30 9936 C 964.206 1.39721 -0.795912 0
M  V30 9937 O 965.396 1.37958 -1.06364 0
M  V30 9938 C 962.528 2.62961 -2.16943 0
M  V30 9939 H 963.721 0.951909 -2.84392 0
M  V30 9940 H 961.274 0.460398 -1.49365 0
M  V30 9941 H 962.009 2.98472 -1.26826 0
M  V30 9942 H 961.794 2.54093 -2.98629 0
M  V30 9943 H 963.284 3.37727 -2.45622 0
M  V30 9944 N 963.721 1.49897 0.486681 0
M  V30 9945 C 964.949 1.63837 1.26353 0
M  V30 9946 C 965.364 0.315428 1.86146 0
M  V30 9947 O 964.721 -0.700831 1.68507 0
M  V30 9948 C 964.772 2.71792 2.38351 0
M  V30 9949 O 964.493 3.98956 1.81013 0
M  V30 9950 C 965.994 2.96566 3.2949 0
M  V30 9951 H 963.214 0.551158 0.382709 0
M  V30 9952 H 965.758 1.96023 0.582694 0
M  V30 9953 H 963.913 2.42344 3.02238 0
M  V30 9954 H 964.327 4.58536 2.54647 0
M  V30 9955 H 965.801 3.75803 4.04322 0
M  V30 9956 H 966.278 2.07031 3.87343 0
M  V30 9957 H 966.884 3.27485 2.71355 0
M  V30 9958 N 965.199 -0.738761 1.39212 0
M  V30 9959 C 966.439 -1.51093 1.3766 0
M  V30 9960 C 966.803 -1.91978 -0.0289655 0
M  V30 9961 O 968.004 -2.68265 -0.169465 0
M  V30 9962 C 966.275 -2.71988 2.31856 0
M  V30 9963 S 967.834 -3.61683 2.48458 0
M  V30 9964 H 964.652 -0.516868 0.48823 0
M  V30 9965 H 967.254 -0.865961 1.75275 0
M  V30 9966 H 965.958 -2.40085 3.32847 0
M  V30 9967 H 965.489 -3.41417 1.95443 0
M  V30 9968 H 967.504 -4.65447 1.71969 0
M  V30 9969 N 966.677 -1.24326 -0.968545 0
M  V30 9970 C 967.607 -1.05951 -2.08079 0
M  V30 9971 C 968.588 0.0272666 -1.70078 0
M  V30 9972 O 969.773 -0.139644 -1.93697 0
M  V30 9973 C 966.903 -0.662623 -3.4092 0
M  V30 9974 C 965.857 -1.69807 -3.92873 0
M  V30 9975 C 965.183 -1.15628 -5.22048 0
M  V30 9976 C 966.483 -3.09383 -4.20808 0
M  V30 9977 H 968.177 -1.98984 -2.23709 0
M  V30 9978 H 965.723 -0.958112 -1.075 0
M  V30 9979 H 967.676 -0.521071 -4.18166 0
M  V30 9980 H 966.4 0.303399 -3.25188 0
M  V30 9981 H 965.059 -1.82783 -3.17783 0
M  V30 9982 H 964.707 -0.180888 -5.02675 0
M  V30 9983 H 964.407 -1.84822 -5.57776 0
M  V30 9984 H 965.931 -1.02683 -6.01904 0
M  V30 9985 H 967.345 -2.99642 -4.88761 0
M  V30 9986 H 965.742 -3.75923 -4.67763 0
M  V30 9987 H 966.812 -3.57486 -3.27616 0
M  V30 9988 N 968.156 1.1691 -1.05688 0
M  V30 9989 C 969.088 2.20648 -0.620237 0
M  V30 9990 C 970.101 1.59652 0.318604 0
M  V30 9991 O 971.29 1.78157 0.110553 0
M  V30 9992 C 968.39 3.38716 0.111729 0
M  V30 9993 C 967.563 4.29277 -0.839062 0
M  V30 9994 C 966.622 5.25993 -0.147453 0
M  V30 9995 O 965.648 5.63787 -0.783151 0
M  V30 9996 N 966.85 5.69725 1.11327 0
M  V30 9997 H 969.615 2.58731 -1.51256 0
M  V30 9998 H 967.176 1.31858 -0.939412 0
M  V30 9999 H 969.168 4.00455 0.584657 0
M  V30 10000 H 967.738 2.99189 0.905784 0
M  V30 10001 H 966.958 3.64894 -1.4915 0
M  V30 10002 H 968.246 4.86669 -1.48428 0
M  V30 10003 H 967.644 5.41103 1.64999 0
M  V30 10004 H 966.201 6.33584 1.53018 0
M  V30 10005 N 969.634 0.838594 1.33437 0
M  V30 10006 C 970.564 0.286672 2.31734 0
M  V30 10007 C 971.545 -0.605451 1.5896 0
M  V30 10008 O 972.73 -0.529059 1.86854 0
M  V30 10009 C 969.86 -0.539311 3.43087 0
M  V30 10010 C 968.814 0.256997 4.27228 0
M  V30 10011 C 968.14 -0.692718 5.30194 0
M  V30 10012 C 969.44 1.47391 5.01072 0
M  V30 10013 H 971.134 1.10798 2.78144 0
M  V30 10014 H 968.68 0.534235 1.33723 0
M  V30 10015 H 970.633 -0.935724 4.1088 0
M  V30 10016 H 969.357 -1.39383 2.95364 0
M  V30 10017 H 968.016 0.634967 3.61059 0
M  V30 10018 H 967.664 -1.54363 4.78729 0
M  V30 10019 H 967.364 -0.164023 5.87371 0
M  V30 10020 H 968.888 -1.08665 6.00853 0
M  V30 10021 H 970.302 1.15067 5.61634 0
M  V30 10022 H 968.699 1.93937 5.67898 0
M  V30 10023 H 969.769 2.24382 4.29861 0
M  V30 10024 N 971.112 -1.45937 0.595003 0
M  V30 10025 C 972.075 -2.2888 -0.121102 0
M  V30 10026 C 973.075 -1.39075 -0.807149 0
M  V30 10027 O 974.265 -1.61326 -0.657228 0
M  V30 10028 C 971.397 -3.19778 -1.1813 0
M  V30 10029 H 972.59 -2.93673 0.607968 0
M  V30 10030 H 970.143 -1.5225 0.353495 0
M  V30 10031 H 970.878 -2.59759 -1.94154 0
M  V30 10032 H 970.663 -3.85914 -0.693724 0
M  V30 10033 H 972.153 -3.82176 -1.68319 0
M  V30 10034 N 972.59 -0.333456 -1.54032 0
M  V30 10035 C 973.523 0.570776 -2.20947 0
M  V30 10036 C 974.501 1.10811 -1.18994 0
M  V30 10037 O 975.685 1.17027 -1.47773 0
M  V30 10038 C 972.812 1.7842 -2.87896 0
M  V30 10039 C 971.858 1.37722 -4.03652 0
M  V30 10040 S 972.691 0.405548 -5.33962 0
M  V30 10041 C 973.847 1.62603 -6.0441 0
M  V30 10042 H 974.08 0.0023936 -2.973 0
M  V30 10043 H 971.613 -0.117531 -1.53952 0
M  V30 10044 H 973.571 2.48038 -3.27089 0
M  V30 10045 H 972.232 2.32378 -2.11327 0
M  V30 10046 H 971.425 2.28167 -4.49395 0
M  V30 10047 H 971.027 0.760628 -3.66184 0
M  V30 10048 H 973.319 2.56202 -6.2719 0
M  V30 10049 H 974.262 1.21058 -6.97675 0
M  V30 10050 H 974.67 1.8175 -5.34441 0
M  V30 10051 N 974.068 1.57479 -0.061844 0
M  V30 10052 C 975 2.09116 0.938245 0
M  V30 10053 C 976.013 1.0212 1.26788 0
M  V30 10054 O 977.202 1.2966 1.22681 0
M  V30 10055 C 974.302 2.52822 2.25686 0
M  V30 10056 C 973.475 3.83277 2.10755 0
M  V30 10057 C 972.534 4.13182 3.25833 0
M  V30 10058 O 971.56 4.82937 3.01265 0
M  V30 10059 N 972.762 3.65938 4.50633 0
M  V30 10060 H 975.527 2.95543 0.497433 0
M  V30 10061 H 973.088 1.61423 0.124134 0
M  V30 10062 H 975.08 2.69896 3.01559 0
M  V30 10063 H 973.65 1.71586 2.61299 0
M  V30 10064 H 972.87 3.7568 1.19409 0
M  V30 10065 H 974.158 4.68686 1.98018 0
M  V30 10066 H 973.556 3.09566 4.73482 0
M  V30 10067 H 972.113 3.8823 5.23565 0
M  V30 10068 N 975.546 -0.211634 1.56173 0
M  V30 10069 C 976.509 -1.24588 1.92381 0
M  V30 10070 C 977.509 -1.39297 0.803311 0
M  V30 10071 O 978.699 -1.37392 1.07094 0
M  V30 10072 C 975.831 -2.61807 2.18335 0
M  V30 10073 H 977.024 -0.936814 2.84893 0
M  V30 10074 H 974.577 -0.452471 1.49607 0
M  V30 10075 H 975.312 -2.97795 1.28407 0
M  V30 10076 H 975.097 -2.52506 2.99972 0
M  V30 10077 H 976.587 -3.3642 2.4741 0
M  V30 10078 N 977.024 -1.50153 -0.478725 0
M  V30 10079 C 978.301 -1.51274 -1.23999 0
M  V30 10080 C 978.681 -0.253048 -2.09578 0
M  V30 10081 O 978.029 0.763827 -2.15355 0
M  V30 10082 C 978.239 -2.80423 -2.07759 0
M  V30 10083 C 979.587 -3.30788 -2.66204 0
M  V30 10084 O 980.611 -2.81693 -2.18008 0
M  V30 10085 O 979.47 -4.1635 -3.53999 0
M  V30 10086 H 976.564 -0.606438 -0.562283 0
M  V30 10087 H 979.11 -1.62436 -0.491171 0
M  V30 10088 H 977.882 -3.63584 -1.44645 0
M  V30 10089 H 977.505 -2.72228 -2.89789 0
M  V30 10090 N 978.502 0.731368 -1.39602 0
M  V30 10091 C 979.465 1.8271 -1.38383 0
M  V30 10092 C 980.465 1.58338 -0.280309 0
M  V30 10093 O 981.655 1.65671 -0.538402 0
M  V30 10094 C 978.787 3.20556 -1.16002 0
M  V30 10095 H 979.98 1.85193 -2.35889 0
M  V30 10096 H 977.533 0.935396 -1.2522 0
M  V30 10097 H 978.268 3.23732 -0.191927 0
M  V30 10098 H 978.053 3.39643 -1.9592 0
M  V30 10099 H 979.543 4.00612 -1.17899 0
M  V30 10100 N 979.98 1.24838 0.961938 0
M  V30 10101 C 981.396 1.01502 1.23165 0
M  V30 10102 C 981.596 -0.272651 1.99647 0
M  V30 10103 O 980.652 -0.987297 2.32398 0
M  V30 10104 C 981.965 2.23366 2.01316 0
M  V30 10105 C 983.513 2.28051 2.14387 0
M  V30 10106 C 983.988 3.49552 2.95935 0
M  V30 10107 N 985.479 3.49904 3.03515 0
M  V30 10108 C 986.214 4.40577 3.66987 0
M  V30 10109 N 985.71 5.41512 4.3213 0
M  V30 10110 N 987.503 4.28275 3.64056 0
M  V30 10111 H 979.654 2.07576 0.450086 0
M  V30 10112 H 981.917 0.911205 0.261551 0
M  V30 10113 H 981.623 3.16913 1.5251 0
M  V30 10114 H 981.497 2.25949 3.02038 0
M  V30 10115 H 983.884 1.35032 2.62393 0
M  V30 10116 H 983.965 2.29491 1.12994 0
M  V30 10117 H 983.609 4.42889 2.4862 0
M  V30 10118 H 983.539 3.45357 3.97538 0
M  V30 10119 H 986.03 2.76885 2.57183 0
M  V30 10120 H 986.343 6.06924 4.78396 0
M  V30 10121 H 984.688 5.45393 4.3078 0
M  V30 10122 H 987.879 3.48653 3.12344 0
M  V30 10123 H 988.052 4.99138 4.13237 0
M  V30 10124 N 981.458 -1.16348 1.06306 0
M  V30 10125 C 982.421 -2.18941 0.678053 0
M  V30 10126 C 983.421 -1.58409 -0.276277 0
M  V30 10127 O 984.611 -1.74101 -0.0586435 0
M  V30 10128 C 981.743 -3.409 -0.00228684 0
M  V30 10129 H 982.936 -2.54516 1.58624 0
M  V30 10130 H 980.489 -1.30625 0.858298 0
M  V30 10131 H 981.224 -3.10881 -0.923212 0
M  V30 10132 H 981.009 -3.86089 0.683949 0
M  V30 10133 H 982.499 -4.16806 -0.257374 0
M  V30 10134 N 982.937 -0.845659 -1.3299 0
M  V30 10135 C 984.184 -0.444653 -1.97558 0
M  V30 10136 C 984.512 0.997682 -1.66963 0
M  V30 10137 O 983.767 1.71349 -0.94541 0
M  V30 10138 C 984.066 -0.6201 -3.51979 0
M  V30 10139 C 983.732 -2.03155 -4.02541 0
M  V30 10140 C 982.394 -2.4176 -4.16059 0
M  V30 10141 C 984.746 -2.95317 -4.29462 0
M  V30 10142 C 982.074 -3.71818 -4.53837 0
M  V30 10143 C 984.426 -4.24863 -4.68694 0
M  V30 10144 C 983.09 -4.63416 -4.80419 0
M  V30 10145 H 982.36 -0.16271 -0.722915 0
M  V30 10146 H 985.007 -1.07399 -1.58549 0
M  V30 10147 H 983.312 0.092513 -3.91691 0
M  V30 10148 H 985.009 -0.290012 -3.9995 0
M  V30 10149 H 981.599 -1.72174 -3.92497 0
M  V30 10150 H 985.783 -2.66726 -4.18534 0
M  V30 10151 H 981.039 -4.01484 -4.61108 0
M  V30 10152 H 985.213 -4.96347 -4.8848 0
M  V30 10153 H 982.84 -5.6424 -5.09448 0
M  V30 10154 N 984.415 1.45619 -0.602734 0
M  V30 10155 C 985.662 2.02272 -0.0960337 0
M  V30 10156 C 985.99 1.47177 1.27159 0
M  V30 10157 O 985.245 0.634593 1.85125 0
M  V30 10158 C 985.544 3.574 -0.00157909 0
M  V30 10159 C 985.21 4.31626 -1.30422 0
M  V30 10160 C 983.872 4.51622 -1.66106 0
M  V30 10161 C 986.224 4.74091 -2.16535 0
M  V30 10162 C 983.552 5.11338 -2.87663 0
M  V30 10163 C 985.904 5.35151 -3.37336 0
M  V30 10164 C 984.568 5.53371 -3.73278 0
M  V30 10165 H 983.838 0.740166 -0.0351412 0
M  V30 10166 H 986.485 1.74744 -0.783382 0
M  V30 10167 H 984.79 3.84179 0.769008 0
M  V30 10168 H 986.487 3.98934 0.406549 0
M  V30 10169 H 983.077 4.16372 -1.01647 0
M  V30 10170 H 987.261 4.5838 -1.90266 0
M  V30 10171 H 982.517 5.23634 -3.15622 0
M  V30 10172 H 986.691 5.67011 -4.04316 0
M  V30 10173 H 984.318 5.99412 -4.67556 0
M  V30 10174 N 985.893 0.34162 1.53853 0
M  V30 10175 C 986.856 -0.503541 2.236 0
M  V30 10176 C 987.856 -1.02912 1.23554 0
M  V30 10177 O 989.046 -0.918678 1.48007 0
M  V30 10178 C 986.178 -1.70126 2.95415 0
M  V30 10179 H 987.371 0.106437 2.99711 0
M  V30 10180 H 984.924 0.0929408 1.56023 0
M  V30 10181 H 985.659 -2.34999 2.23486 0
M  V30 10182 H 985.444 -1.33161 3.68796 0
M  V30 10183 H 986.934 -2.30077 3.48503 0
M  V30 10184 N 987.371 -1.57444 0.0701946 0
M  V30 10185 C 988.303 -2.09611 -0.927142 0
M  V30 10186 C 989.316 -1.02791 -1.26245 0
M  V30 10187 O 990.505 -1.30309 -1.21992 0
M  V30 10188 C 987.605 -2.54015 -2.24342 0
M  V30 10189 C 986.778 -3.84389 -2.08719 0
M  V30 10190 C 985.837 -4.14904 -3.23638 0
M  V30 10191 O 984.863 -4.84528 -2.98699 0
M  V30 10192 N 986.065 -3.68322 -4.48686 0
M  V30 10193 H 988.83 -2.95803 -0.481753 0
M  V30 10194 H 986.391 -1.61487 -0.115572 0
M  V30 10195 H 988.383 -2.71492 -3.00124 0
M  V30 10196 H 986.953 -1.72969 -2.60385 0
M  V30 10197 H 986.173 -3.76308 -1.17415 0
M  V30 10198 H 987.461 -4.69729 -1.9553 0
M  V30 10199 H 986.859 -3.12073 -4.71834 0
M  V30 10200 H 985.416 -3.91002 -5.21499 0
M  V30 10201 N 988.849 0.203349 -1.56283 0
M  V30 10202 C 990.126 0.950415 -1.70958 0
M  V30 10203 C 990.506 2.01708 -0.622647 0
M  V30 10204 O 989.854 2.25523 0.367635 0
M  V30 10205 C 990.064 1.54434 -3.12971 0
M  V30 10206 C 991.412 2.02964 -3.72949 0
M  V30 10207 O 992.436 1.64293 -3.16048 0
M  V30 10208 O 991.295 2.74097 -4.72793 0
M  V30 10209 H 988.389 0.445154 -0.69697 0
M  V30 10210 H 990.935 0.193695 -1.68591 0
M  V30 10211 H 989.707 0.77505 -3.83547 0
M  V30 10212 H 989.33 2.36611 -3.19532 0
M  V30 10213 N 990.327 1.50405 0.470755 0
M  V30 10214 C 991.575 1.61092 1.2204 0
M  V30 10215 C 991.896 0.313487 1.92464 0
M  V30 10216 O 991.166 -0.669043 1.84121 0
M  V30 10217 H 989.746 0.593618 0.45346 0
M  V30 10218 H 992.408 1.87184 0.542985 0
M  V30 10219 H 991.504 2.42222 1.96812 0
M  V30 10220 N 991.805 -0.723954 1.39988 0
M  V30 10221 C 993.051 -1.48591 1.38017 0
M  V30 10222 C 993.384 -1.94189 -0.0203522 0
M  V30 10223 O 992.659 -1.67572 -0.987422 0
M  V30 10224 C 992.942 -2.71786 2.36229 0
M  V30 10225 C 992.795 -2.32136 3.8527 0
M  V30 10226 C 994.114 -3.73921 2.32102 0
M  V30 10227 H 991.233 -0.538993 0.502648 0
M  V30 10228 H 993.875 -0.826908 1.71062 0
M  V30 10229 H 992.025 -3.28015 2.0818 0
M  V30 10230 H 993.697 -1.81454 4.24113 0
M  V30 10231 H 991.94 -1.64234 4.01509 0
M  V30 10232 H 992.611 -3.20406 4.49493 0
M  V30 10233 H 995.087 -3.27303 2.56928 0
M  V30 10234 H 993.963 -4.5777 3.02882 0
M  V30 10235 H 994.224 -4.21627 1.32979 0
M  V30 10236 N 993.283 -1.25346 -0.955304 0
M  V30 10237 C 994.215 -1.0146 -2.0552 0
M  V30 10238 C 995.228 0.0202256 -1.62787 0
M  V30 10239 O 996.417 -0.218251 -1.77161 0
M  V30 10240 C 993.517 -0.511727 -3.35014 0
M  V30 10241 C 992.69 -1.61256 -4.0659 0
M  V30 10242 C 991.749 -1.11017 -5.14356 0
M  V30 10243 O 990.775 -1.80443 -5.39842 0
M  V30 10244 N 991.977 0.0489001 -5.80479 0
M  V30 10245 H 994.742 -1.96166 -2.26581 0
M  V30 10246 H 992.303 -1.16543 -1.12381 0
M  V30 10247 H 994.295 -0.160123 -4.04383 0
M  V30 10248 H 992.865 0.341377 -3.1073 0
M  V30 10249 H 992.085 -2.13577 -3.31328 0
M  V30 10250 H 993.373 -2.35213 -4.51168 0
M  V30 10251 H 992.771 0.629021 -5.62192 0
M  V30 10252 H 991.328 0.341542 -6.50905 0
M  V30 10253 N 994.761 1.15782 -1.06922 0
M  V30 10254 C 995.986 1.90896 -0.810771 0
M  V30 10255 C 996.411 1.77246 0.629714 0
M  V30 10256 O 995.769 1.10215 1.43953 0
M  V30 10257 C 995.817 3.39397 -1.21829 0
M  V30 10258 O 994.921 4.10818 -0.360934 0
M  V30 10259 H 994.262 0.594497 -0.295752 0
M  V30 10260 H 996.792 1.46652 -1.42669 0
M  V30 10261 H 996.802 3.90181 -1.19259 0
M  V30 10262 H 995.477 3.4865 -2.2675 0
M  V30 10263 H 994.054 3.7019 -0.448748 0
M  V30 10264 N 996.239 0.8527 1.3254 0
M  V30 10265 C 997.169 0.311234 2.31416 0
M  V30 10266 C 998.15 -0.588557 1.59593 0
M  V30 10267 O 999.335 -0.509211 1.87405 0
M  V30 10268 C 996.465 -0.502892 3.4364 0
M  V30 10269 C 995.419 0.302296 4.26931 0
M  V30 10270 C 994.745 -0.636445 5.30899 0
M  V30 10271 C 996.045 1.52697 4.99481 0
M  V30 10272 H 997.739 1.13742 2.76953 0
M  V30 10273 H 995.285 0.548389 1.33149 0
M  V30 10274 H 997.238 -0.892092 4.11849 0
M  V30 10275 H 995.962 -1.36242 2.96826 0
M  V30 10276 H 994.621 0.673226 3.60365 0
M  V30 10277 H 994.269 -1.49277 4.80339 0
M  V30 10278 H 993.969 -0.101716 5.87512 0
M  V30 10279 H 995.493 -1.02286 6.01972 0
M  V30 10280 H 996.907 1.21017 5.60382 0
M  V30 10281 H 995.304 1.9995 5.65809 0
M  V30 10282 H 996.374 2.28929 4.27457 0
M  V30 10283 N 997.718 -1.45297 0.610449 0
M  V30 10284 C 998.648 -2.33311 -0.0939698 0
M  V30 10285 C 999.629 -1.46999 -0.85588 0
M  V30 10286 O 1000.81 -1.75764 -0.825865 0
M  V30 10287 C 997.944 -3.29751 -1.09003 0
M  V30 10288 C 996.898 -4.2572 -0.441146 0
M  V30 10289 C 996.224 -5.11873 -1.54566 0
M  V30 10290 C 997.524 -5.1837 0.639489 0
M  V30 10291 H 999.218 -2.92459 0.640941 0
M  V30 10292 H 996.764 -1.40631 0.309675 0
M  V30 10293 H 998.717 -3.90195 -1.59141 0
M  V30 10294 H 997.441 -2.68768 -1.85557 0
M  V30 10295 H 996.1 -3.66579 0.0393908 0
M  V30 10296 H 995.748 -4.47256 -2.30155 0
M  V30 10297 H 995.448 -5.76886 -1.11698 0
M  V30 10298 H 996.972 -5.75185 -2.04925 0
M  V30 10299 H 998.386 -5.7287 0.22207 0
M  V30 10300 H 996.783 -5.91876 0.990089 0
M  V30 10301 H 997.853 -4.60627 1.51495 0
M  V30 10302 N 999.196 -0.349774 -1.5367 0
M  V30 10303 C 1000.42 0.246038 -2.05432 0
M  V30 10304 C 1000.84 1.43719 -1.22435 0
M  V30 10305 O 1000.2 1.80622 -0.261166 0
M  V30 10306 C 1000.25 0.65501 -3.55516 0
M  V30 10307 O 999.968 -0.488782 -4.35365 0
M  V30 10308 C 1001.47 1.31088 -4.23475 0
M  V30 10309 H 998.689 0.0463952 -0.669394 0
M  V30 10310 H 1001.23 -0.503566 -1.98203 0
M  V30 10311 H 999.388 1.35455 -3.62947 0
M  V30 10312 H 999.802 -0.161528 -5.24251 0
M  V30 10313 H 1001.28 1.54774 -5.29857 0
M  V30 10314 H 1001.75 2.26636 -3.76208 0
M  V30 10315 H 1002.36 0.653211 -4.20254 0
M  V30 10316 N 1000.67 1.57404 -0.0785433 0
M  V30 10317 C 1001.61 2.101 0.916013 0
M  V30 10318 C 1002.62 1.03459 1.25698 0
M  V30 10319 O 1003.81 1.30954 1.21299 0
M  V30 10320 C 1000.91 2.55202 2.22992 0
M  V30 10321 C 1000.08 3.85491 2.06678 0
M  V30 10322 C 999.14 4.16614 3.21433 0
M  V30 10323 O 998.166 4.86105 2.96126 0
M  V30 10324 N 999.368 3.70697 4.46726 0
M  V30 10325 H 1002.13 2.96054 0.466059 0
M  V30 10326 H 999.694 1.61546 0.107006 0
M  V30 10327 H 1001.69 2.7308 2.9868 0
M  V30 10328 H 1000.26 1.74348 2.59464 0
M  V30 10329 H 999.476 3.76925 1.15417 0
M  V30 10330 H 1000.76 4.70759 1.93036 0
M  V30 10331 H 1000.16 3.14571 4.70172 0
M  V30 10332 H 998.719 3.93762 5.19418 0
M  V30 10333 N 1002.15 -0.195058 1.56388 0
M  V30 10334 C 1003.1 -1.24175 1.94549 0
M  V30 10335 C 1004.07 -1.45229 0.806089 0
M  V30 10336 O 1005.25 -1.58362 1.06425 0
M  V30 10337 C 1002.39 -2.58145 2.29031 0
M  V30 10338 C 1001.51 -2.44669 3.56035 0
M  V30 10339 C 1000.64 -3.71342 3.7984 0
M  V30 10340 C 999.681 -3.52699 5.0027 0
M  V30 10341 N 998.818 -4.71385 5.20328 0
M  V30 10342 H 1003.66 -0.909319 2.83788 0
M  V30 10343 H 1001.19 -0.437641 1.40439 0
M  V30 10344 H 1003.15 -3.36195 2.4704 0
M  V30 10345 H 1001.78 -2.8943 1.42933 0
M  V30 10346 H 1000.83 -1.57916 3.46073 0
M  V30 10347 H 1002.15 -2.26827 4.44242 0
M  V30 10348 H 1001.3 -4.57832 3.98088 0
M  V30 10349 H 1000.04 -3.92138 2.89964 0
M  V30 10350 H 999.045 -2.64594 4.81944 0
M  V30 10351 H 1000.27 -3.33349 5.91655 0
M  V30 10352 H 998.216 -4.92444 4.33399 0
M  V30 10353 H 998.133 -4.56368 6.02714 0
M  V30 10354 H 999.401 -5.59226 5.43035 0
M  V30 10355 N 1003.63 -1.50653 -0.462772 0
M  V30 10356 C 1004.88 -1.63264 -1.21311 0
M  V30 10357 C 1005.23 -0.332647 -1.89503 0
M  V30 10358 O 1004.52 0.669994 -1.79504 0
M  V30 10359 C 1004.72 -2.75637 -2.27507 0
M  V30 10360 C 1004.55 -4.16438 -1.69734 0
M  V30 10361 C 1003.32 -4.82727 -1.49341 0
M  V30 10362 C 1005.51 -5.00399 -1.18765 0
M  V30 10363 N 1003.5 -6.07718 -0.868991 0
M  V30 10364 C 1004.87 -6.16182 -0.68697 0
M  V30 10365 C 1006.92 -4.86112 -1.07699 0
M  V30 10366 C 1005.63 -7.19248 -0.0865268 0
M  V30 10367 C 1007.65 -5.89363 -0.490473 0
M  V30 10368 C 1007.01 -7.044 -0.000208479 0
M  V30 10369 H 1003.11 -0.651518 -0.432491 0
M  V30 10370 H 1005.7 -1.878 -0.51375 0
M  V30 10371 H 1003.87 -2.52809 -2.9486 0
M  V30 10372 H 1005.6 -2.77562 -2.94519 0
M  V30 10373 H 1002.35 -4.40161 -1.74801 0
M  V30 10374 H 1002.78 -6.74554 -0.574957 0
M  V30 10375 H 1007.42 -3.97452 -1.44194 0
M  V30 10376 H 1005.14 -8.07577 0.290614 0
M  V30 10377 H 1008.72 -5.80374 -0.407099 0
M  V30 10378 H 1007.6 -7.82928 0.44652 0
M  V30 10379 N 1005.11 0.71652 -1.4037 0
M  V30 10380 C 1006.35 1.47736 -1.39805 0
M  V30 10381 C 1006.71 1.924 0.000340438 0
M  V30 10382 O 1006 1.652 0.970547 0
M  V30 10383 C 1006.2 2.71777 -2.32103 0
M  V30 10384 C 1006.03 2.39245 -3.80778 0
M  V30 10385 C 1004.8 2.30632 -4.49597 0
M  V30 10386 C 1006.99 2.03576 -4.72294 0
M  V30 10387 N 1004.98 1.90764 -5.83509 0
M  V30 10388 C 1006.35 1.74302 -5.94995 0
M  V30 10389 C 1008.4 1.90204 -4.60138 0
M  V30 10390 C 1007.1 1.33001 -7.06897 0
M  V30 10391 C 1009.13 1.50307 -5.71981 0
M  V30 10392 C 1008.49 1.2193 -6.93767 0
M  V30 10393 H 1004.59 0.538721 -0.566836 0
M  V30 10394 H 1007.18 0.831018 -1.76074 0
M  V30 10395 H 1005.35 3.34163 -1.97963 0
M  V30 10396 H 1007.08 3.38112 -2.22402 0
M  V30 10397 H 1003.83 2.48341 -4.03266 0
M  V30 10398 H 1004.26 1.73372 -6.54424 0
M  V30 10399 H 1008.9 2.10805 -3.66499 0
M  V30 10400 H 1006.62 1.11143 -8.0042 0
M  V30 10401 H 1010.2 1.4054 -5.6457 0
M  V30 10402 H 1009.08 0.915214 -7.78841 0
M  V30 10403 N 1006.59 1.25851 0.948643 0
M  V30 10404 C 1007.83 1.10735 1.69062 0
M  V30 10405 C 1008.16 -0.351257 1.9181 0
M  V30 10406 O 1007.43 -1.24867 1.50947 0
M  V30 10407 H 1006.01 0.406796 0.626519 0
M  V30 10408 H 1008.67 1.58066 1.14022 0
M  V30 10409 H 1007.76 1.62033 2.66743 0
M  V30 10410 N 1008.06 -1.15214 1.07534 0
M  V30 10411 C 1009.34 -1.82155 0.71267 0
M  V30 10412 C 1009.72 -1.95163 -0.804655 0
M  V30 10413 O 1009.07 -1.50451 -1.71979 0
M  V30 10414 C 1009.28 -3.18392 1.42925 0
M  V30 10415 C 1010.63 -3.94005 1.58256 0
M  V30 10416 O 1011.65 -3.27952 1.39018 0
M  V30 10417 O 1010.51 -5.12436 1.89925 0
M  V30 10418 H 1007.6 -0.78709 0.253808 0
M  V30 10419 H 1010.15 -1.22309 1.17638 0
M  V30 10420 H 1008.92 -3.04034 2.46331 0
M  V30 10421 H 1008.55 -3.85925 0.956439 0
M  V30 10422 N 1009.54 -0.859717 -1.32086 0
M  V30 10423 C 1010.48 -0.252764 -2.26796 0
M  V30 10424 C 1011.45 0.612178 -1.50636 0
M  V30 10425 O 1012.64 0.567865 -1.79743 0
M  V30 10426 C 1009.76 0.643017 -3.3254 0
M  V30 10427 C 1008.81 -0.149211 -4.26239 0
M  V30 10428 S 1009.64 -1.52097 -5.13446 0
M  V30 10429 C 1010.8 -0.631035 -6.22711 0
M  V30 10430 H 1011.03 -1.05563 -2.77928 0
M  V30 10431 H 1008.57 -0.657639 -1.39694 0
M  V30 10432 H 1010.52 1.15418 -3.9394 0
M  V30 10433 H 1009.18 1.41974 -2.80183 0
M  V30 10434 H 1008.38 0.53328 -5.01171 0
M  V30 10435 H 1007.98 -0.592128 -3.69283 0
M  V30 10436 H 1010.27 0.162638 -6.77305 0
M  V30 10437 H 1011.21 -1.35116 -6.95089 0
M  V30 10438 H 1011.62 -0.203131 -5.64134 0
M  V30 10439 N 1011.02 1.44971 -0.618145 0
M  V30 10440 C 1011.98 2.29044 0.0846739 0
M  V30 10441 C 1012.98 1.40341 0.784921 0
M  V30 10442 O 1014.17 1.62351 0.631479 0
M  V30 10443 C 1011.31 3.21617 1.13027 0
M  V30 10444 H 1012.5 2.92668 -0.654612 0
M  V30 10445 H 1010.05 1.51668 -0.377672 0
M  V30 10446 H 1010.79 2.62815 1.89997 0
M  V30 10447 H 1010.57 3.86969 0.63224 0
M  V30 10448 H 1012.06 3.84805 1.62218 0
M  V30 10449 N 1012.5 0.357919 1.53482 0
M  V30 10450 C 1013.72 -0.237769 2.06033 0
M  V30 10451 C 1014.15 -1.42292 1.23023 0
M  V30 10452 O 1013.51 -1.79604 0.247427 0
M  V30 10453 C 1013.55 -0.616806 3.55286 0
M  V30 10454 O 1012.66 -1.71503 3.75047 0
M  V30 10455 H 1012 -0.0364322 0.663 0
M  V30 10456 H 1014.53 0.516301 1.97979 0
M  V30 10457 H 1014.54 -0.88996 3.98175 0
M  V30 10458 H 1013.21 0.249825 4.15149 0
M  V30 10459 H 1011.79 -1.43803 3.44057 0
M  V30 10460 N 1013.98 -1.5736 0.0868897 0
M  V30 10461 C 1015.2 -1.98388 -0.587349 0
M  V30 10462 C 1015.62 -0.965757 -1.6223 0
M  V30 10463 O 1014.98 0.0456981 -1.82443 0
M  V30 10464 C 1015.03 -3.39479 -1.24242 0
M  V30 10465 O 1014.75 -4.37393 -0.248878 0
M  V30 10466 C 1016.25 -3.95465 -2.00305 0
M  V30 10467 H 1013.47 -0.652111 -0.15809 0
M  V30 10468 H 1016.01 -2.03843 0.163754 0
M  V30 10469 H 1014.17 -3.35063 -1.94451 0
M  V30 10470 H 1014.58 -5.19525 -0.720678 0
M  V30 10471 H 1016.06 -4.96363 -2.41511 0
M  V30 10472 H 1016.53 -3.32832 -2.86565 0
M  V30 10473 H 1017.14 -4.03328 -1.34931 0
M  V30 10474 N 1015.45 0.186762 -1.56489 0
M  V30 10475 C 1016.68 0.921832 -1.85229 0
M  V30 10476 C 1017.1 1.76496 -0.670416 0
M  V30 10477 O 1016.45 1.78899 0.360758 0
M  V30 10478 C 1016.51 1.81121 -3.12854 0
M  V30 10479 O 1016.23 1.00211 -4.26485 0
M  V30 10480 C 1017.73 2.65725 -3.54831 0
M  V30 10481 H 1014.95 0.268563 -0.61491 0
M  V30 10482 H 1017.49 0.191505 -2.03601 0
M  V30 10483 H 1015.65 2.49506 -2.96354 0
M  V30 10484 H 1016.06 1.60893 -4.99213 0
M  V30 10485 H 1017.53 3.23771 -4.47075 0
M  V30 10486 H 1018.01 3.39843 -2.78215 0
M  V30 10487 H 1018.62 2.02698 -3.7389 0
M  V30 10488 N 1016.93 1.50896 0.454776 0
M  V30 10489 C 1018.34 1.55372 1.0352 0
M  V30 10490 C 1018.69 0.366822 1.9274 0
M  V30 10491 O 1017.82 -0.518444 2.10098 0
M  V30 10492 C 1018.41 2.81574 1.88418 0
M  V30 10493 C 1016.97 2.88679 2.4154 0
M  V30 10494 C 1016.12 2.49847 1.20298 0
M  V30 10495 H 1019.07 1.56924 0.236729 0
M  V30 10496 H 1019.09 2.64352 2.73676 0
M  V30 10497 H 1018.6 3.67941 1.23455 0
M  V30 10498 H 1016.71 2.06702 3.10008 0
M  V30 10499 H 1016.82 3.91944 2.7553 0
M  V30 10500 H 1015.18 2.02651 1.54288 0
M  V30 10501 H 1015.97 3.3854 0.569723 0
M  V30 10502 N 1018.41 -0.709066 1.40748 0
M  V30 10503 C 1019.66 -1.4646 1.38681 0
M  V30 10504 C 1019.97 -1.95599 -0.0056209 0
M  V30 10505 O 1021.18 -2.71091 -0.148907 0
M  V30 10506 C 1019.63 -2.64771 2.43771 0
M  V30 10507 C 1019.24 -2.22474 3.88856 0
M  V30 10508 C 1020.99 -3.42475 2.50821 0
M  V30 10509 C 1018.89 -3.37663 4.85528 0
M  V30 10510 H 1017.82 -0.550084 0.515678 0
M  V30 10511 H 1020.47 -0.771074 1.66513 0
M  V30 10512 H 1018.86 -3.36325 2.09048 0
M  V30 10513 H 1020.03 -1.58297 4.32757 0
M  V30 10514 H 1018.35 -1.57798 3.85342 0
M  V30 10515 H 1020.94 -4.28201 3.20232 0
M  V30 10516 H 1021.29 -3.86738 1.54076 0
M  V30 10517 H 1021.82 -2.77969 2.84567 0
M  V30 10518 H 1018.56 -2.98426 5.83628 0
M  V30 10519 H 1018.08 -4.00734 4.46287 0
M  V30 10520 H 1019.76 -4.03636 5.05655 0
M  V30 10521 N 1019.89 -1.26353 -0.941956 0
M  V30 10522 C 1021.14 -1.13026 -1.69106 0
M  V30 10523 C 1021.49 0.323264 -1.89665 0
M  V30 10524 O 1020.78 1.23405 -1.46566 0
M  V30 10525 C 1020.98 -1.83195 -3.06879 0
M  V30 10526 C 1020.81 -3.35221 -2.99762 0
M  V30 10527 C 1019.58 -4.04509 -3.02821 0
M  V30 10528 C 1021.77 -4.31425 -2.79959 0
M  V30 10529 N 1019.76 -5.43212 -2.85995 0
M  V30 10530 C 1021.13 -5.57299 -2.71694 0
M  V30 10531 C 1023.18 -4.21686 -2.64736 0
M  V30 10532 C 1021.89 -6.74546 -2.49761 0
M  V30 10533 C 1023.91 -5.38639 -2.44177 0
M  V30 10534 C 1023.27 -6.6346 -2.36643 0
M  V30 10535 H 1019.37 -0.468375 -0.626218 0
M  V30 10536 H 1021.96 -1.59629 -1.11476 0
M  V30 10537 H 1020.13 -1.39068 -3.62649 0
M  V30 10538 H 1021.86 -1.62498 -3.70644 0
M  V30 10539 H 1018.61 -3.55863 -3.12503 0
M  V30 10540 H 1019.04 -6.16042 -2.80752 0
M  V30 10541 H 1023.68 -3.25918 -2.69328 0
M  V30 10542 H 1021.4 -7.70411 -2.4391 0
M  V30 10543 H 1024.98 -5.32973 -2.33305 0
M  V30 10544 H 1023.86 -7.52431 -2.20945 0
M  V30 10545 N 1021.37 1.14642 -1.08144 0
M  V30 10546 C 1022.33 2.17834 -0.712799 0
M  V30 10547 C 1023.33 1.58828 0.251041 0
M  V30 10548 O 1024.52 1.74173 0.0309381 0
M  V30 10549 C 1021.65 3.4086 -0.0519477 0
M  V30 10550 H 1022.85 2.51961 -1.62653 0
M  V30 10551 H 1020.4 1.29243 -0.878971 0
M  V30 10552 H 1021.13 3.12311 0.873636 0
M  V30 10553 H 1020.92 3.84952 -0.745286 0
M  V30 10554 H 1022.41 4.17163 0.191031 0
M  V30 10555 N 1022.85 0.866709 1.31628 0
M  V30 10556 C 1023.78 0.335762 2.31073 0
M  V30 10557 C 1024.76 -0.571597 1.60209 0
M  V30 10558 O 1025.94 -0.489306 1.87935 0
M  V30 10559 C 1023.07 -0.466416 3.44154 0
M  V30 10560 C 1022.03 0.347561 4.26586 0
M  V30 10561 C 1021.35 -0.5801 5.31544 0
M  V30 10562 C 1022.65 1.57986 4.97833 0
M  V30 10563 H 1024.35 1.16673 2.75731 0
M  V30 10564 H 1021.89 0.56248 1.3256 0
M  V30 10565 H 1023.84 -0.84836 4.12772 0
M  V30 10566 H 1022.57 -1.33086 2.98254 0
M  V30 10567 H 1021.23 0.71141 3.59631 0
M  V30 10568 H 1020.88 -1.44174 4.81895 0
M  V30 10569 H 1020.58 -0.0393965 5.87587 0
M  V30 10570 H 1022.1 -0.958958 6.03023 0
M  V30 10571 H 1023.51 1.26954 5.59067 0
M  V30 10572 H 1021.91 2.05939 5.63657 0
M  V30 10573 H 1022.98 2.3345 4.25005 0
M  V30 10574 N 1024.32 -1.44642 0.625825 0
M  V30 10575 C 1025.57 -2.02393 0.128391 0
M  V30 10576 C 1025.9 -1.49075 -1.2446 0
M  V30 10577 O 1025.18 -0.672684 -1.82497 0
M  V30 10578 C 1025.46 -3.59934 0.109279 0
M  V30 10579 C 1025.31 -4.23546 1.51423 0
M  V30 10580 C 1026.63 -4.36406 -0.568985 0
M  V30 10581 H 1023.75 -0.735427 0.0481299 0
M  V30 10582 H 1026.39 -1.72277 0.801286 0
M  V30 10583 H 1024.54 -3.85722 -0.463726 0
M  V30 10584 H 1026.22 -4.08882 2.13572 0
M  V30 10585 H 1024.46 -3.81245 2.06966 0
M  V30 10586 H 1025.13 -5.32535 1.45294 0
M  V30 10587 H 1027.61 -4.1602 -0.0817516 0
M  V30 10588 H 1026.48 -5.46122 -0.551527 0
M  V30 10589 H 1026.74 -4.1062 -1.6384 0
M  V30 10590 N 1025.8 -0.366053 -1.5329 0
M  V30 10591 C 1026.73 0.47211 -2.28677 0
M  V30 10592 C 1027.71 1.08353 -1.31125 0
M  V30 10593 O 1028.9 1.10069 -1.59995 0
M  V30 10594 C 1026.03 1.61174 -3.07637 0
M  V30 10595 C 1024.98 1.12755 -4.12881 0
M  V30 10596 C 1024.31 2.35745 -4.79925 0
M  V30 10597 C 1025.61 0.211954 -5.2187 0
M  V30 10598 H 1027.3 -0.156838 -2.98989 0
M  V30 10599 H 1024.85 -0.0768709 -1.43795 0
M  V30 10600 H 1026.8 2.20473 -3.59123 0
M  V30 10601 H 1025.52 2.26793 -2.35016 0
M  V30 10602 H 1024.18 0.557234 -3.6234 0
M  V30 10603 H 1023.83 2.99821 -4.03877 0
M  V30 10604 H 1023.53 2.04019 -5.51044 0
M  V30 10605 H 1025.06 2.95729 -5.34207 0
M  V30 10606 H 1026.47 0.71244 -5.68856 0
M  V30 10607 H 1024.87 -0.0144501 -6.00098 0
M  V30 10608 H 1025.94 -0.745753 -4.79131 0
M  V30 10609 N 1027.28 1.57312 -0.0952337 0
M  V30 10610 C 1028.24 2.12889 0.849161 0
M  V30 10611 C 1029.24 1.05819 1.21075 0
M  V30 10612 O 1030.43 1.31704 1.14016 0
M  V30 10613 C 1027.56 2.6496 2.14498 0
M  V30 10614 H 1028.76 2.97651 0.366566 0
M  V30 10615 H 1026.31 1.55542 0.153762 0
M  V30 10616 H 1027.05 1.83718 2.67242 0
M  V30 10617 H 1026.83 3.43244 1.89542 0
M  V30 10618 H 1028.32 3.07952 2.82056 0
M  V30 10619 N 1028.76 -0.17846 1.56586 0
M  V30 10620 C 1030 -0.896235 1.81587 0
M  V30 10621 C 1030.33 -1.82553 0.671168 0
M  V30 10622 O 1029.59 -1.92688 -0.342046 0
M  V30 10623 C 1029.89 -1.73063 3.12704 0
M  V30 10624 C 1029.55 -0.950877 4.4076 0
M  V30 10625 C 1028.21 -0.735647 4.75544 0
M  V30 10626 C 1030.57 -0.403419 5.19636 0
M  V30 10627 C 1027.89 0.0382562 5.86688 0
M  V30 10628 C 1030.25 0.357359 6.3159 0
M  V30 10629 C 1028.91 0.583455 6.64945 0
M  V30 10630 H 1028.18 -0.327956 0.664474 0
M  V30 10631 H 1030.83 -0.161586 1.90817 0
M  V30 10632 H 1029.13 -2.53446 2.98785 0
M  V30 10633 H 1030.83 -2.28891 3.29257 0
M  V30 10634 H 1027.42 -1.12866 4.13472 0
M  V30 10635 H 1031.6 -0.557059 4.93164 0
M  V30 10636 H 1026.86 0.223237 6.10992 0
M  V30 10637 H 1031.03 0.788861 6.91918 0
M  V30 10638 H 1028.66 1.18502 7.50907 0
M  V30 10639 N 1030.24 -1.51135 -0.446768 0
M  V30 10640 C 1031.48 -1.63336 -1.19698 0
M  V30 10641 C 1031.81 -0.345099 -1.91414 0
M  V30 10642 O 1031.07 0.670365 -1.8386 0
M  V30 10643 C 1031.36 -2.78034 -2.2457 0
M  V30 10644 C 1031.03 -4.17652 -1.69934 0
M  V30 10645 C 1029.69 -4.55636 -1.54756 0
M  V30 10646 C 1032.04 -5.04813 -1.29665 0
M  V30 10647 C 1029.37 -5.78496 -0.977689 0
M  V30 10648 C 1031.72 -6.28244 -0.741112 0
M  V30 10649 C 1030.39 -6.65009 -0.576156 0
M  V30 10650 H 1029.66 -0.597689 -0.438006 0
M  V30 10651 H 1032.31 -1.85141 -0.48939 0
M  V30 10652 H 1030.61 -2.50413 -3.01331 0
M  V30 10653 H 1032.31 -2.84675 -2.8242 0
M  V30 10654 H 1028.9 -3.87699 -1.82722 0
M  V30 10655 H 1033.08 -4.76081 -1.40216 0
M  V30 10656 H 1028.34 -6.05636 -0.837563 0
M  V30 10657 H 1032.51 -6.95129 -0.42053 0
M  V30 10658 H 1030.14 -7.60085 -0.132443 0
M  V30 10659 N 1031.71 0.701592 -1.41122 0
M  V30 10660 C 1032.95 1.4739 -1.41618 0
M  V30 10661 C 1033.32 1.91987 -0.0219443 0
M  V30 10662 O 1034.52 2.6862 0.0982793 0
M  V30 10663 C 1032.79 2.65745 -2.38986 0
M  V30 10664 S 1034.35 3.54968 -2.5796 0
M  V30 10665 H 1031.17 0.503742 -0.501762 0
M  V30 10666 H 1033.77 0.819186 -1.77509 0
M  V30 10667 H 1032.47 2.31176 -3.39096 0
M  V30 10668 H 1032 3.36115 -2.04426 0
M  V30 10669 H 1034.02 4.60724 -1.84249 0
M  V30 10670 N 1033.19 1.2685 0.935242 0
M  V30 10671 C 1034.6 1.11569 1.49697 0
M  V30 10672 C 1034.95 -0.301952 1.93863 0
M  V30 10673 O 1034.08 -1.19408 1.80473 0
M  V30 10674 C 1034.67 2.01918 2.72056 0
M  V30 10675 C 1033.23 1.90765 3.24477 0
M  V30 10676 C 1032.38 1.94918 1.97237 0
M  V30 10677 H 1035.33 1.39853 0.750116 0
M  V30 10678 H 1035.35 1.57056 3.46574 0
M  V30 10679 H 1034.86 3.05088 2.39881 0
M  V30 10680 H 1032.96 0.905521 3.61429 0
M  V30 10681 H 1033.08 2.76611 3.91182 0
M  V30 10682 H 1031.44 1.39046 2.13397 0
M  V30 10683 H 1032.22 2.99729 1.67385 0
M  V30 10684 N 1034.67 -1.14067 1.0875 0
M  V30 10685 C 1036.08 -1.66747 0.839778 0
M  V30 10686 C 1036.43 -1.85711 -0.632909 0
M  V30 10687 O 1035.56 -1.57084 -1.48841 0
M  V30 10688 C 1036.15 -3.02896 1.51787 0
M  V30 10689 C 1034.71 -3.52596 1.3173 0
M  V30 10690 C 1033.86 -2.27994 1.57841 0
M  V30 10691 H 1036.81 -0.980838 1.24761 0
M  V30 10692 H 1036.83 -3.68526 0.947057 0
M  V30 10693 H 1036.34 -2.89062 2.58969 0
M  V30 10694 H 1034.44 -3.71647 0.266339 0
M  V30 10695 H 1034.56 -4.33151 2.04736 0
M  V30 10696 H 1032.92 -2.34241 1.00015 0
M  V30 10697 H 1033.7 -2.16732 2.66237 0
M  V30 10698 N 1036.15 -0.873678 -1.31166 0
M  V30 10699 C 1037.08 -0.348011 -2.30892 0
M  V30 10700 C 1038.06 0.563092 -1.60509 0
M  V30 10701 O 1039.24 0.479332 -1.88192 0
M  V30 10702 C 1036.37 0.448158 -3.44396 0
M  V30 10703 C 1035.33 -0.370179 -4.26396 0
M  V30 10704 C 1034.65 0.551903 -5.31844 0
M  V30 10705 C 1035.95 -1.60624 -4.96988 0
M  V30 10706 H 1037.65 -1.18134 -2.75109 0
M  V30 10707 H 1035.19 -0.569502 -1.3226 0
M  V30 10708 H 1037.15 0.826458 -4.13216 0
M  V30 10709 H 1035.87 1.31503 -2.98956 0
M  V30 10710 H 1034.53 -0.730472 -3.59249 0
M  V30 10711 H 1034.18 1.41616 -4.82653 0
M  V30 10712 H 1033.88 0.00823478 -5.87599 0
M  V30 10713 H 1035.4 0.926965 -6.03523 0
M  V30 10714 H 1036.82 -1.29917 -5.58386 0
M  V30 10715 H 1035.21 -2.08926 -5.62557 0
M  V30 10716 H 1036.28 -2.357 -4.23761 0
M  V30 10717 N 1037.63 1.44308 -0.633487 0
M  V30 10718 C 1038.88 2.01239 -0.136356 0
M  V30 10719 C 1039.19 1.50438 1.25011 0
M  V30 10720 O 1040.39 1.99513 1.84138 0
M  V30 10721 C 1038.85 3.59382 -0.193011 0
M  V30 10722 C 1038.46 4.19178 -1.58093 0
M  V30 10723 C 1040.2 4.23778 0.247534 0
M  V30 10724 C 1038.11 5.69553 -1.59258 0
M  V30 10725 H 1037.04 0.752521 -0.0472109 0
M  V30 10726 H 1039.69 1.65498 -0.79263 0
M  V30 10727 H 1038.07 3.92432 0.530408 0
M  V30 10728 H 1039.25 3.97662 -2.32813 0
M  V30 10729 H 1037.56 3.67079 -1.96576 0
M  V30 10730 H 1040.16 5.34075 0.258401 0
M  V30 10731 H 1040.5 3.96285 1.27529 0
M  V30 10732 H 1041.03 3.9554 -0.423469 0
M  V30 10733 H 1037.77 6.01784 -2.59878 0
M  V30 10734 H 1037.29 5.93185 -0.888352 0
M  V30 10735 H 1038.97 6.33234 -1.32756 0
M  V30 10736 N 1039.1 0.374177 1.53094 0
M  V30 10737 C 1040.33 -0.213015 2.05499 0
M  V30 10738 C 1040.74 -1.42303 1.24686 0
M  V30 10739 O 1040.09 -1.81512 0.282702 0
M  V30 10740 C 1040.15 -0.662308 3.53346 0
M  V30 10741 C 1039.81 0.432183 4.54952 0
M  V30 10742 C 1040.81 1.2848 5.03775 0
M  V30 10743 C 1038.49 0.594887 4.98765 0
M  V30 10744 C 1040.49 2.28538 5.9502 0
M  V30 10745 C 1038.17 1.59882 5.89814 0
M  V30 10746 C 1039.17 2.4425 6.37833 0
M  V30 10747 O 1038.86 3.4293 7.27086 0
M  V30 10748 H 1038.59 -0.0393809 0.674852 0
M  V30 10749 H 1041.15 0.533423 1.98353 0
M  V30 10750 H 1039.38 -1.46049 3.5806 0
M  V30 10751 H 1041.07 -1.17347 3.88567 0
M  V30 10752 H 1041.83 1.17033 4.70668 0
M  V30 10753 H 1037.71 -0.0520401 4.60971 0
M  V30 10754 H 1041.25 2.94426 6.32423 0
M  V30 10755 H 1037.15 1.71373 6.22335 0
M  V30 10756 H 1037.92 3.3876 7.45107 0
M  V30 10757 N 1040.58 -1.57259 0.103575 0
M  V30 10758 C 1041.81 -1.99 -0.566275 0
M  V30 10759 C 1042.23 -0.982909 -1.61197 0
M  V30 10760 O 1041.58 0.026345 -1.82481 0
M  V30 10761 C 1041.63 -3.40778 -1.20635 0
M  V30 10762 O 1041.35 -4.37632 -0.202472 0
M  V30 10763 C 1042.86 -3.97567 -1.961 0
M  V30 10764 H 1040.08 -0.653751 -0.151164 0
M  V30 10765 H 1042.62 -2.03658 0.185365 0
M  V30 10766 H 1040.77 -3.37107 -1.90886 0
M  V30 10767 H 1041.19 -5.2026 -0.665535 0
M  V30 10768 H 1042.66 -4.98897 -2.36233 0
M  V30 10769 H 1043.14 -3.35853 -2.83018 0
M  V30 10770 H 1043.75 -4.04737 -1.30645 0
M  V30 10771 N 1042.06 0.170153 -1.56679 0
M  V30 10772 C 1043.48 0.521966 -1.50823 0
M  V30 10773 C 1043.68 1.84589 -0.808037 0
M  V30 10774 O 1042.73 2.49791 -0.368891 0
M  V30 10775 C 1044.05 0.553648 -2.95559 0
M  V30 10776 C 1045.59 0.640769 -3.06371 0
M  V30 10777 C 1046.07 0.703332 -4.52567 0
M  V30 10778 N 1047.56 0.76619 -4.56819 0
M  V30 10779 C 1048.29 0.835192 -5.67285 0
M  V30 10780 N 1047.79 0.864957 -6.87379 0
M  V30 10781 N 1049.58 0.874302 -5.55259 0
M  V30 10782 H 1041.73 -0.697952 -2.00605 0
M  V30 10783 H 1044 -0.251787 -0.913952 0
M  V30 10784 H 1043.7 -0.350498 -3.49949 0
M  V30 10785 H 1043.58 1.39973 -3.50268 0
M  V30 10786 H 1045.96 1.53534 -2.52015 0
M  V30 10787 H 1046.05 -0.232008 -2.54746 0
M  V30 10788 H 1045.69 -0.186986 -5.07556 0
M  V30 10789 H 1045.62 1.59227 -5.0195 0
M  V30 10790 H 1048.11 0.751424 -3.70354 0
M  V30 10791 H 1048.42 0.918814 -7.67318 0
M  V30 10792 H 1046.77 0.833215 -6.89987 0
M  V30 10793 H 1049.96 0.848057 -4.60354 0
M  V30 10794 H 1050.13 0.924615 -6.4137 0
M  V30 10795 N 1043.54 1.5137 0.438746 0
M  V30 10796 C 1044.47 1.75528 1.53987 0
M  V30 10797 C 1045.45 0.605067 1.58975 0
M  V30 10798 O 1046.63 0.847634 1.74725 0
M  V30 10799 C 1043.76 1.87904 2.92078 0
M  V30 10800 C 1042.72 3.0333 3.01951 0
M  V30 10801 C 1042.04 3.00888 4.42007 0
M  V30 10802 C 1043.34 4.43319 2.76163 0
M  V30 10803 H 1045.04 2.67728 1.34022 0
M  V30 10804 H 1042.58 1.28831 0.643308 0
M  V30 10805 H 1044.54 2.03388 3.69068 0
M  V30 10806 H 1043.26 0.923514 3.13271 0
M  V30 10807 H 1041.92 2.87549 2.274 0
M  V30 10808 H 1041.57 2.03116 4.60166 0
M  V30 10809 H 1041.27 3.78397 4.49544 0
M  V30 10810 H 1042.79 3.18464 5.20973 0
M  V30 10811 H 1044.21 4.59458 3.42887 0
M  V30 10812 H 1042.6 5.22523 2.9511 0
M  V30 10813 H 1043.67 4.53453 1.71779 0
M  V30 10814 N 1045.02 -0.694098 1.41492 0
M  V30 10815 C 1046.27 -1.4498 1.40227 0
M  V30 10816 C 1046.58 -1.95594 0.0151253 0
M  V30 10817 O 1047.78 -2.71234 -0.120146 0
M  V30 10818 C 1046.24 -2.62171 2.46565 0
M  V30 10819 C 1045.85 -2.18337 3.91194 0
M  V30 10820 C 1047.59 -3.39796 2.54439 0
M  V30 10821 C 1045.5 -3.32495 4.89082 0
M  V30 10822 H 1044.43 -0.544584 0.521483 0
M  V30 10823 H 1047.08 -0.75337 1.67322 0
M  V30 10824 H 1045.46 -3.34089 2.12604 0
M  V30 10825 H 1046.64 -1.53698 4.34412 0
M  V30 10826 H 1044.95 -1.53702 3.86994 0
M  V30 10827 H 1047.55 -4.2478 3.24755 0
M  V30 10828 H 1047.89 -3.85082 1.5817 0
M  V30 10829 H 1048.42 -2.74935 2.87499 0
M  V30 10830 H 1045.16 -2.92219 5.86761 0
M  V30 10831 H 1044.68 -3.95978 4.50512 0
M  V30 10832 H 1046.36 -3.98251 5.09907 0
M  V30 10833 N 1046.49 -1.27344 -0.928501 0
M  V30 10834 C 1047.72 -1.16447 -1.7102 0
M  V30 10835 C 1048.14 0.278799 -1.8673 0
M  V30 10836 O 1047.49 1.18989 -1.38376 0
M  V30 10837 C 1047.55 -1.84242 -3.11026 0
M  V30 10838 O 1047.27 -3.2293 -2.96054 0
M  V30 10839 C 1048.77 -1.7946 -4.05351 0
M  V30 10840 H 1045.99 -0.404898 -0.535069 0
M  V30 10841 H 1048.53 -1.68201 -1.16313 0
M  V30 10842 H 1046.69 -1.36395 -3.62595 0
M  V30 10843 H 1047.1 -3.5667 -3.8456 0
M  V30 10844 H 1048.57 -2.31511 -5.01105 0
M  V30 10845 H 1049.05 -0.763771 -4.32508 0
M  V30 10846 H 1049.66 -2.26918 -3.59706 0
M  V30 10847 N 1047.97 1.13488 -1.09353 0
M  V30 10848 C 1049.22 1.84748 -0.829126 0
M  V30 10849 C 1049.55 1.83485 0.645247 0
M  V30 10850 O 1048.8 1.26767 1.49093 0
M  V30 10851 C 1049.1 3.32584 -1.30854 0
M  V30 10852 C 1048.77 3.54028 -2.7924 0
M  V30 10853 C 1047.43 3.59588 -3.19765 0
M  V30 10854 C 1049.78 3.62058 -3.74918 0
M  V30 10855 C 1047.11 3.70712 -4.54741 0
M  V30 10856 C 1049.46 3.7471 -5.09682 0
M  V30 10857 C 1048.13 3.78523 -5.49797 0
M  V30 10858 H 1047.4 0.67604 -0.303399 0
M  V30 10859 H 1050.04 1.33989 -1.36818 0
M  V30 10860 H 1048.35 3.85689 -0.689275 0
M  V30 10861 H 1050.04 3.86166 -1.08059 0
M  V30 10862 H 1046.63 3.50354 -2.4688 0
M  V30 10863 H 1050.82 3.57043 -3.44723 0
M  V30 10864 H 1046.07 3.71931 -4.8526 0
M  V30 10865 H 1050.25 3.79866 -5.83674 0
M  V30 10866 H 1047.88 3.86895 -6.54382 0
M  V30 10867 N 1049.45 0.880621 1.30701 0
M  V30 10868 C 1050.87 0.574015 1.4892 0
M  V30 10869 C 1051.07 -0.889312 1.80813 0
M  V30 10870 O 1050.12 -1.67082 1.89314 0
M  V30 10871 C 1051.44 1.48341 2.61563 0
M  V30 10872 C 1052.98 1.48658 2.75445 0
M  V30 10873 C 1053.46 2.3818 3.91196 0
M  V30 10874 N 1054.95 2.36119 3.985 0
M  V30 10875 C 1055.69 3.02101 4.87363 0
M  V30 10876 N 1055.18 3.77293 5.81052 0
M  V30 10877 N 1056.97 2.91356 4.80696 0
M  V30 10878 H 1049.13 1.82732 1.08271 0
M  V30 10879 H 1051.39 0.781939 0.535981 0
M  V30 10880 H 1051.09 2.52515 2.44804 0
M  V30 10881 H 1050.97 1.18977 3.57944 0
M  V30 10882 H 1053.36 0.452374 2.91612 0
M  V30 10883 H 1053.44 1.8205 1.79698 0
M  V30 10884 H 1053.08 3.41683 3.75786 0
M  V30 10885 H 1053.01 2.02106 4.86272 0
M  V30 10886 H 1055.5 1.81474 3.31475 0
M  V30 10887 H 1055.81 4.24742 6.45612 0
M  V30 10888 H 1054.16 3.81401 5.80998 0
M  V30 10889 H 1057.35 2.32143 4.06481 0
M  V30 10890 H 1057.52 3.43056 5.49742 0
M  V30 10891 N 1050.93 -1.4397 0.641131 0
M  V30 10892 C 1051.88 -2.30728 -0.0577905 0
M  V30 10893 C 1052.85 -1.44059 -0.826819 0
M  V30 10894 O 1054.03 -1.72947 -0.805853 0
M  V30 10895 C 1051.17 -3.29478 -1.02657 0
M  V30 10896 C 1050.28 -4.31247 -0.254913 0
M  V30 10897 C 1049.42 -5.17085 -1.2164 0
M  V30 10898 C 1048.46 -6.10556 -0.434481 0
M  V30 10899 N 1047.6 -6.89059 -1.34694 0
M  V30 10900 H 1052.44 -2.8995 0.687953 0
M  V30 10901 H 1049.97 -1.4285 0.351029 0
M  V30 10902 H 1051.93 -3.85228 -1.60173 0
M  V30 10903 H 1050.56 -2.71932 -1.73933 0
M  V30 10904 H 1049.61 -3.77889 0.436338 0
M  V30 10905 H 1050.92 -4.97545 0.353642 0
M  V30 10906 H 1050.08 -5.77402 -1.86258 0
M  V30 10907 H 1048.82 -4.50885 -1.85888 0
M  V30 10908 H 1047.82 -5.49339 0.225125 0
M  V30 10909 H 1049.05 -6.78795 0.203415 0
M  V30 10910 H 1046.99 -6.25518 -1.97644 0
M  V30 10911 H 1046.91 -7.51833 -0.792657 0
M  V30 10912 H 1048.18 -7.5389 -1.98165 0
M  V30 10913 N 1052.41 -0.382291 -1.52893 0
M  V30 10914 C 1053.63 0.204961 -2.06385 0
M  V30 10915 C 1054.06 1.40316 -1.25271 0
M  V30 10916 O 1053.42 1.79187 -0.275969 0
M  V30 10917 C 1053.46 0.560205 -3.56222 0
M  V30 10918 O 1052.57 1.65515 -3.77728 0
M  V30 10919 H 1051.91 0.0258798 -0.663495 0
M  V30 10920 H 1054.44 -0.547733 -1.97132 0
M  V30 10921 H 1054.45 0.826501 -3.99541 0
M  V30 10922 H 1053.12 -0.31584 -4.14699 0
M  V30 10923 H 1051.7 1.38311 -3.46301 0
M  V30 10924 N 1053.89 1.57202 -0.111913 0
M  V30 10925 C 1054.8 2.18475 0.854753 0
M  V30 10926 C 1055.81 1.15888 1.29792 0
M  V30 10927 O 1056.99 1.48329 1.36237 0
M  V30 10928 C 1054.05 2.76645 2.0897 0
M  V30 10929 C 1053.11 3.94244 1.69913 0
M  V30 10930 C 1052.35 4.49631 2.8752 0
M  V30 10931 O 1052.57 4.03926 4.02741 0
M  V30 10932 O 1051.5 5.40417 2.65015 0
M  V30 10933 H 1055.33 3.01519 0.363352 0
M  V30 10934 H 1052.91 1.4897 0.113329 0
M  V30 10935 H 1054.8 3.13755 2.81311 0
M  V30 10936 H 1053.47 1.96637 2.5713 0
M  V30 10937 H 1052.38 3.61915 0.947013 0
M  V30 10938 H 1053.71 4.75666 1.26501 0
M  V30 10939 N 1055.36 -0.161842 1.56767 0
M  V30 10940 C 1056.27 -1.21996 2.00385 0
M  V30 10941 C 1057.29 -1.4789 0.916768 0
M  V30 10942 O 1058.47 -1.59852 1.22513 0
M  V30 10943 C 1055.53 -2.53695 2.36305 0
M  V30 10944 C 1054.59 -2.3558 3.58888 0
M  V30 10945 C 1053.82 -3.60998 3.93085 0
M  V30 10946 O 1054.05 -4.6657 3.28129 0
M  V30 10947 O 1052.98 -3.54544 4.86397 0
M  V30 10948 H 1056.81 -0.879701 2.9068 0
M  V30 10949 H 1054.39 -0.369437 1.4476 0
M  V30 10950 H 1056.27 -3.31366 2.60335 0
M  V30 10951 H 1054.95 -2.87281 1.49169 0
M  V30 10952 H 1053.86 -1.55908 3.40064 0
M  V30 10953 H 1055.19 -2.06915 4.46595 0
M  V30 10954 N 1056.84 -1.516 -0.430713 0
M  V30 10955 C 1057.75 -1.76247 -1.54836 0
M  V30 10956 C 1058.77 -0.646985 -1.61524 0
M  V30 10957 O 1059.94 -0.929987 -1.78643 0
M  V30 10958 C 1057.01 -1.88833 -2.90763 0
M  V30 10959 C 1056.07 -3.12701 -2.94137 0
M  V30 10960 C 1055.3 -3.24676 -4.23581 0
M  V30 10961 O 1055.53 -2.42429 -5.16318 0
M  V30 10962 O 1054.46 -4.17697 -4.33374 0
M  V30 10963 H 1058.29 -2.71069 -1.3695 0
M  V30 10964 H 1055.87 -1.36182 -0.614396 0
M  V30 10965 H 1057.75 -1.99057 -3.71422 0
M  V30 10966 H 1056.43 -0.971987 -3.08762 0
M  V30 10967 H 1055.33 -3.0795 -2.1241 0
M  V30 10968 H 1056.67 -4.04045 -2.81084 0
M  V30 10969 N 1058.32 0.686584 -1.41858 0
M  V30 10970 C 1059.73 1.26682 -1.37145 0
M  V30 10971 C 1060.08 1.96112 -0.058922 0
M  V30 10972 O 1059.21 1.99321 0.842629 0
M  V30 10973 C 1059.8 2.30383 -2.48413 0
M  V30 10974 C 1058.36 2.83961 -2.47069 0
M  V30 10975 C 1057.51 1.58119 -2.27802 0
M  V30 10976 H 1060.46 0.480742 -1.51243 0
M  V30 10977 H 1060.48 3.11868 -2.17987 0
M  V30 10978 H 1059.99 1.79822 -3.43927 0
M  V30 10979 H 1058.09 3.38675 -1.55338 0
M  V30 10980 H 1058.21 3.3378 -3.43697 0
M  V30 10981 H 1056.57 1.84258 -1.75844 0
M  V30 10982 H 1057.35 1.09541 -3.25355 0
M  V30 10983 N 1059.8 1.27835 0.921735 0
M  V30 10984 C 1061.03 1.17352 1.704 0
M  V30 10985 C 1061.44 -0.268892 1.86875 0
M  V30 10986 O 1060.8 -1.18253 1.39005 0
M  V30 10987 C 1060.85 1.85889 3.10045 0
M  V30 10988 O 1060.57 3.24495 2.94338 0
M  V30 10989 C 1062.07 1.81607 4.04393 0
M  V30 10990 H 1059.29 0.40773 0.532914 0
M  V30 10991 H 1061.83 1.68815 1.15419 0
M  V30 10992 H 1059.99 1.38316 3.61867 0
M  V30 10993 H 1060.4 3.58705 3.82663 0
M  V30 10994 H 1061.88 2.34165 4.99871 0
M  V30 10995 H 1062.35 0.786697 4.32097 0
M  V30 10996 H 1062.96 2.28822 3.58498 0
M  V30 10997 N 1061.28 -1.12907 1.09954 0
M  V30 10998 C 1062.69 -1.363 0.830326 0
M  V30 10999 C 1062.89 -1.93772 -0.552694 0
M  V30 11000 O 1061.95 -2.1607 -1.30652 0
M  V30 11001 C 1063.26 -2.30925 1.92598 0
M  V30 11002 C 1064.81 -2.44528 1.95385 0
M  V30 11003 C 1065.28 -3.42464 3.0411 0
M  V30 11004 N 1066.77 -3.50018 3.03384 0
M  V30 11005 C 1067.51 -4.25693 3.84152 0
M  V30 11006 N 1067.01 -5.04476 4.74843 0
M  V30 11007 N 1068.8 -4.21049 3.7239 0
M  V30 11008 H 1060.95 -0.739571 1.99108 0
M  V30 11009 H 1063.21 -0.387983 0.86497 0
M  V30 11010 H 1062.92 -1.95861 2.92115 0
M  V30 11011 H 1062.79 -3.30997 1.80889 0
M  V30 11012 H 1065.18 -2.78875 0.965037 0
M  V30 11013 H 1065.26 -1.44361 2.11172 0
M  V30 11014 H 1064.9 -3.08847 4.03207 0
M  V30 11015 H 1064.83 -4.42448 2.85565 0
M  V30 11016 H 1067.33 -2.93809 2.37665 0
M  V30 11017 H 1067.64 -5.59541 5.33042 0
M  V30 11018 H 1065.98 -5.0369 4.78875 0
M  V30 11019 H 1069.17 -3.5858 3.00895 0
M  V30 11020 H 1069.35 -4.79771 4.35572 0
M  V30 11021 N 1062.75 -0.88754 -1.30232 0
M  V30 11022 C 1063.66 -0.360333 -2.31816 0
M  V30 11023 C 1064.68 0.538741 -1.6545 0
M  V30 11024 O 1065.86 0.431246 -1.96729 0
M  V30 11025 C 1062.92 0.414336 -3.44215 0
M  V30 11026 C 1061.98 -0.514799 -4.26202 0
M  V30 11027 C 1061.21 0.222994 -5.33234 0
M  V30 11028 O 1061.44 1.44871 -5.51696 0
M  V30 11029 O 1060.37 -0.428221 -6.00375 0
M  V30 11030 H 1064.2 -1.20279 -2.78867 0
M  V30 11031 H 1061.78 -0.651459 -1.34448 0
M  V30 11032 H 1063.66 0.852859 -4.12679 0
M  V30 11033 H 1062.34 1.23305 -2.99295 0
M  V30 11034 H 1061.25 -1.00219 -3.60426 0
M  V30 11035 H 1062.58 -1.29959 -4.74733 0
M  V30 11036 N 1064.23 1.43628 -0.648757 0
M  V30 11037 C 1065.14 2.34554 0.0463037 0
M  V30 11038 C 1066.16 1.53629 0.816952 0
M  V30 11039 O 1067.33 1.86297 0.765212 0
M  V30 11040 C 1064.4 3.3185 1.00381 0
M  V30 11041 C 1063.46 4.2868 0.230589 0
M  V30 11042 C 1062.69 5.21328 1.14249 0
M  V30 11043 O 1062.92 5.18298 2.38166 0
M  V30 11044 O 1061.85 5.98726 0.617296 0
M  V30 11045 H 1065.68 2.95475 -0.702008 0
M  V30 11046 H 1063.26 1.43694 -0.408942 0
M  V30 11047 H 1065.14 3.91692 1.5542 0
M  V30 11048 H 1063.82 2.73439 1.73243 0
M  V30 11049 H 1062.73 3.72332 -0.363282 0
M  V30 11050 H 1064.06 4.90061 -0.458368 0
M  V30 11051 N 1065.71 0.390394 1.52688 0
M  V30 11052 C 1066.64 -0.43567 2.294 0
M  V30 11053 C 1067.62 -1.06253 1.32832 0
M  V30 11054 O 1068.81 -1.07509 1.61726 0
M  V30 11055 C 1065.94 -1.56259 3.10162 0
M  V30 11056 C 1064.89 -1.06172 4.14622 0
M  V30 11057 C 1064.22 -2.2808 4.83615 0
M  V30 11058 C 1065.52 -0.128902 5.22141 0
M  V30 11059 H 1067.21 0.204384 2.98702 0
M  V30 11060 H 1064.76 0.0997377 1.43654 0
M  V30 11061 H 1066.71 -2.14732 3.62585 0
M  V30 11062 H 1065.43 -2.23025 2.38595 0
M  V30 11063 H 1064.09 -0.499518 3.63181 0
M  V30 11064 H 1063.74 -2.93358 4.08595 0
M  V30 11065 H 1063.44 -1.95227 5.5422 0
M  V30 11066 H 1064.96 -2.87193 5.38844 0
M  V30 11067 H 1066.38 -0.621849 5.69917 0
M  V30 11068 H 1064.78 0.109919 5.99999 0
M  V30 11069 H 1065.85 0.821884 4.77884 0
M  V30 11070 N 1067.19 -1.57141 0.120249 0
M  V30 11071 C 1068.1 -2.18925 -0.843155 0
M  V30 11072 C 1069.11 -1.16575 -1.29175 0
M  V30 11073 O 1070.29 -1.4905 -1.35448 0
M  V30 11074 C 1067.36 -2.7775 -2.075 0
M  V30 11075 C 1066.42 -3.95139 -1.6782 0
M  V30 11076 C 1065.65 -4.51149 -2.85132 0
M  V30 11077 O 1065.87 -4.06056 -4.00593 0
M  V30 11078 O 1064.81 -5.41815 -2.62145 0
M  V30 11079 H 1068.63 -3.01707 -0.347357 0
M  V30 11080 H 1066.22 -1.49028 -0.105427 0
M  V30 11081 H 1068.1 -3.15243 -2.79643 0
M  V30 11082 H 1066.77 -1.97998 -2.56083 0
M  V30 11083 H 1065.68 -3.62412 -0.927807 0
M  V30 11084 H 1067.01 -4.7633 -1.23977 0
M  V30 11085 N 1068.67 0.153526 -1.5685 0
M  V30 11086 C 1069.91 0.867232 -1.8299 0
M  V30 11087 C 1070.24 1.81462 -0.700125 0
M  V30 11088 O 1069.5 1.93207 0.311348 0
M  V30 11089 C 1069.8 1.68066 -3.15418 0
M  V30 11090 C 1069.46 0.880635 -4.42217 0
M  V30 11091 C 1068.12 0.659899 -4.76654 0
M  V30 11092 C 1070.48 0.320698 -5.20212 0
M  V30 11093 C 1067.8 -0.131588 -5.86552 0
M  V30 11094 C 1070.16 -0.457794 -6.30941 0
M  V30 11095 C 1068.82 -0.689168 -6.63933 0
M  V30 11096 H 1068.09 0.317343 -0.669608 0
M  V30 11097 H 1070.74 0.131208 -1.9105 0
M  V30 11098 H 1069.04 2.4866 -3.02779 0
M  V30 11099 H 1070.74 2.23623 -3.32857 0
M  V30 11100 H 1067.33 1.06274 -4.15215 0
M  V30 11101 H 1071.51 0.47853 -4.93988 0
M  V30 11102 H 1066.77 -0.320413 -6.1056 0
M  V30 11103 H 1070.94 -0.898839 -6.90575 0
M  V30 11104 H 1068.57 -1.30433 -7.48927 0
M  V30 11105 N 1070.14 1.51827 0.422667 0
M  V30 11106 C 1071.42 1.55772 1.18299 0
M  V30 11107 C 1071.8 0.330657 2.08494 0
M  V30 11108 O 1071.15 -0.683373 2.18042 0
M  V30 11109 C 1071.36 2.87941 1.97208 0
M  V30 11110 C 1072.71 3.4044 2.53744 0
M  V30 11111 O 1073.73 2.8959 2.07403 0
M  V30 11112 O 1072.59 4.29201 3.38303 0
M  V30 11113 H 1069.68 0.626889 0.539388 0
M  V30 11114 H 1072.23 1.64147 0.430545 0
M  V30 11115 H 1071 3.68702 1.31052 0
M  V30 11116 H 1070.63 2.82795 2.79486 0
M  V30 11117 N 1071.62 -0.679052 1.4222 0
M  V30 11118 C 1072.56 -1.80369 1.39794 0
M  V30 11119 C 1073.53 -1.60462 0.262806 0
M  V30 11120 O 1074.72 -1.82992 0.452352 0
M  V30 11121 C 1071.84 -3.17305 1.18471 0
M  V30 11122 C 1070.89 -3.55969 2.34922 0
M  V30 11123 S 1071.72 -3.58884 3.97445 0
M  V30 11124 C 1072.88 -4.98519 3.78457 0
M  V30 11125 H 1073.11 -1.82152 2.34964 0
M  V30 11126 H 1070.65 -0.84932 1.28942 0
M  V30 11127 H 1072.6 -3.96348 1.06856 0
M  V30 11128 H 1071.26 -3.13112 0.248944 0
M  V30 11129 H 1070.46 -4.55491 2.1574 0
M  V30 11130 H 1070.06 -2.84275 2.4303 0
M  V30 11131 H 1072.35 -5.86481 3.39184 0
M  V30 11132 H 1073.29 -5.22748 4.77641 0
M  V30 11133 H 1073.7 -4.70836 3.11406 0
M  V30 11134 N 1073.1 -1.28322 -0.914942 0
M  V30 11135 C 1074.38 -1.06111 -1.64316 0
M  V30 11136 C 1074.76 0.399934 -2.07277 0
M  V30 11137 O 1074.11 1.38577 -1.81683 0
M  V30 11138 C 1074.32 -2.03461 -2.83557 0
M  V30 11139 C 1075.66 -2.33541 -3.54604 0
M  V30 11140 O 1076.69 -2.01536 -2.93704 0
M  V30 11141 O 1075.55 -2.88158 -4.64357 0
M  V30 11142 H 1072.64 -0.405451 -0.72079 0
M  V30 11143 H 1075.19 -1.39636 -0.964352 0
M  V30 11144 H 1073.96 -3.01938 -2.48896 0
M  V30 11145 H 1073.58 -1.70574 -3.59152 0
M  V30 11146 N 1074.58 1.12322 -1.10551 0
M  V30 11147 C 1075.8 1.8822 -0.871093 0
M  V30 11148 C 1076.23 1.7916 0.573005 0
M  V30 11149 O 1075.59 1.14738 1.40374 0
M  V30 11150 C 1075.63 3.35349 -1.32565 0
M  V30 11151 O 1074.74 4.09461 -0.49145 0
M  V30 11152 H 1074.08 0.584787 -0.314516 0
M  V30 11153 H 1076.61 1.42039 -1.47262 0
M  V30 11154 H 1076.62 3.86189 -1.31612 0
M  V30 11155 H 1075.29 3.4126 -2.37728 0
M  V30 11156 H 1073.87 3.68575 -0.566294 0
M  V30 11157 N 1076.06 0.894434 1.2976 0
M  V30 11158 C 1077.3 0.518435 1.96061 0
M  V30 11159 C 1077.64 -0.931882 1.70381 0
M  V30 11160 O 1076.91 -1.65988 1.01381 0
M  V30 11161 C 1077.19 0.80519 3.50982 0
M  V30 11162 C 1077.05 2.30683 3.86142 0
M  V30 11163 C 1078.37 0.288096 4.39156 0
M  V30 11164 H 1075.48 0.18983 0.712133 0
M  V30 11165 H 1078.13 1.12016 1.53468 0
M  V30 11166 H 1076.28 0.293071 3.87393 0
M  V30 11167 H 1077.95 2.88808 3.59705 0
M  V30 11168 H 1076.19 2.76968 3.33873 0
M  V30 11169 H 1076.86 2.45805 4.94251 0
M  V30 11170 H 1079.34 0.726547 4.09708 0
M  V30 11171 H 1078.21 0.517985 5.4645 0
M  V30 11172 H 1078.48 -0.811018 4.34597 0
M  V30 11173 N 1077.53 -1.43282 0.656365 0
M  V30 11174 C 1078.78 -2.00996 0.168354 0
M  V30 11175 C 1079.1 -1.52408 -1.22601 0
M  V30 11176 O 1080.3 -2.02417 -1.80941 0
M  V30 11177 C 1078.76 -3.5903 0.250161 0
M  V30 11178 C 1078.37 -4.1661 1.64742 0
M  V30 11179 C 1080.11 -4.24118 -0.180084 0
M  V30 11180 C 1078.02 -5.66948 1.68299 0
M  V30 11181 H 1076.95 -0.751674 0.0591769 0
M  V30 11182 H 1079.6 -1.64216 0.818859 0
M  V30 11183 H 1077.98 -3.93226 -0.467908 0
M  V30 11184 H 1079.15 -3.93908 2.3911 0
M  V30 11185 H 1077.47 -3.63905 2.02391 0
M  V30 11186 H 1080.07 -5.34419 -0.173401 0
M  V30 11187 H 1080.41 -3.98264 -1.21208 0
M  V30 11188 H 1080.94 -3.94816 0.486343 0
M  V30 11189 H 1077.68 -5.97573 2.69419 0
M  V30 11190 H 1077.2 -5.91697 0.98261 0
M  V30 11191 H 1078.88 -6.31041 1.42813 0
M  V30 11192 N 1079.01 -0.398486 -1.52479 0
M  V30 11193 C 1079.96 0.447001 -2.28264 0
M  V30 11194 C 1080.96 1.05511 -1.32529 0
M  V30 11195 O 1082.16 0.994528 -1.5003 0
M  V30 11196 H 1078.54 0.162919 -0.73414 0
M  V30 11197 H 1080.51 -0.213534 -2.97635 0
M  V30 11198 C 1079.26 1.55724 -3.10879 0
M  V30 11199 H 1078.58 1.09864 -3.84409 0
M  V30 11200 H 1080.02 2.12286 -3.67029 0
M  V30 11201 C 1078.48 2.51853 -2.23768 0
M  V30 11202 O 1079.01 3.55483 -1.87069 0
M  V30 11203 N 1077.21 2.2181 -1.87746 0
M  V30 11204 H 1076.76 1.3757 -2.17789 0
M  V30 11205 H 1076.72 2.86376 -1.29753 0
M  V30 11206 N 1080.49 1.57075 -0.12858 0
M  V30 11207 C 1081.74 1.95134 0.526046 0
M  V30 11208 C 1082.06 1.01337 1.66601 0
M  V30 11209 O 1081.33 0.0714361 1.9577 0
M  V30 11210 H 1079.91 0.720468 0.19732 0
M  V30 11211 H 1082.57 1.93874 -0.199767 0
M  V30 11212 H 1081.67 2.98406 0.914332 0
M  V30 11213 N 1081.97 -0.145205 1.5693 0
M  V30 11214 C 1082.88 -1.19864 2.01667 0
M  V30 11215 C 1083.9 -1.46909 0.932402 0
M  V30 11216 O 1085.07 -1.58543 1.24201 0
M  V30 11217 C 1082.14 -2.51174 2.38982 0
M  V30 11218 C 1081.2 -2.3176 3.61366 0
M  V30 11219 C 1080.43 -3.56809 3.96892 0
M  V30 11220 O 1080.65 -4.63063 3.33059 0
M  V30 11221 O 1079.59 -3.49366 4.9013 0
M  V30 11222 H 1083.41 -0.848821 2.91597 0
M  V30 11223 H 1081 -0.354063 1.45144 0
M  V30 11224 H 1082.88 -3.28587 2.63835 0
M  V30 11225 H 1081.56 -2.85683 1.52207 0
M  V30 11226 H 1080.46 -1.52293 3.41698 0
M  V30 11227 H 1081.8 -2.02167 4.48764 0
M  V30 11228 N 1083.45 -1.52049 -0.414609 0
M  V30 11229 C 1084.7 -1.65511 -1.15977 0
M  V30 11230 C 1085.02 -0.384703 -1.91168 0
M  V30 11231 O 1084.29 0.600247 -1.86477 0
M  V30 11232 H 1082.87 -0.610039 -0.431116 0
M  V30 11233 H 1085.53 -1.8907 -0.473139 0
M  V30 11234 H 1084.62 -2.4936 -1.87686 0
M  V30 11235 N 1084.93 0.6715 -1.42579 0
M  V30 11236 C 1086.34 1.2522 -1.38481 0
M  V30 11237 C 1086.69 1.96038 -0.079719 0
M  V30 11238 O 1085.81 2.00203 0.821441 0
M  V30 11239 C 1086.41 2.27736 -2.50842 0
M  V30 11240 C 1084.97 2.81325 -2.50067 0
M  V30 11241 C 1084.11 1.55694 -2.29466 0
M  V30 11242 H 1087.06 0.464673 -1.51745 0
M  V30 11243 H 1087.09 3.09539 -2.21283 0
M  V30 11244 H 1086.6 1.76164 -3.45815 0
M  V30 11245 H 1084.7 3.37008 -1.58922 0
M  V30 11246 H 1084.81 3.30116 -3.47218 0
M  V30 11247 H 1083.18 1.82383 -1.77788 0
M  V30 11248 H 1083.96 1.06084 -3.26498 0
M  V30 11249 N 1086.4 1.28806 0.908124 0
M  V30 11250 C 1087.65 1.1646 1.66027 0
M  V30 11251 C 1087.98 -0.285025 1.92097 0
M  V30 11252 O 1087.26 -1.20675 1.52538 0
M  V30 11253 C 1087.54 1.96951 3.01467 0
M  V30 11254 C 1087.39 3.50007 2.82515 0
M  V30 11255 C 1088.71 1.78932 4.02084 0
M  V30 11256 H 1085.83 0.424435 0.602515 0
M  V30 11257 H 1088.47 1.58185 1.0525 0
M  V30 11258 H 1086.62 1.61495 3.53344 0
M  V30 11259 H 1088.3 3.95401 2.37605 0
M  V30 11260 H 1086.54 3.75356 2.17463 0
M  V30 11261 H 1087.21 4.01591 3.7872 0
M  V30 11262 H 1089.69 2.09885 3.59287 0
M  V30 11263 H 1088.56 2.37615 4.94803 0
M  V30 11264 H 1088.82 0.742286 4.35824 0
M  V30 11265 N 1087.88 -1.11734 1.11145 0
M  V30 11266 C 1089.13 -1.83043 0.856717 0
M  V30 11267 C 1089.45 -1.84901 -0.619407 0
M  V30 11268 O 1088.72 -1.31738 -1.44989 0
M  V30 11269 H 1087.3 -0.677823 0.31395 0
M  V30 11270 H 1089.96 -1.35262 1.40322 0
M  V30 11271 H 1089.06 -2.87005 1.22616 0
M  V30 11272 N 1089.36 -0.901303 -1.29284 0
M  V30 11273 C 1090.59 -0.543511 -1.99634 0
M  V30 11274 C 1091 0.872154 -1.67448 0
M  V30 11275 O 1090.36 1.57591 -0.920406 0
M  V30 11276 C 1090.41 -0.728148 -3.54091 0
M  V30 11277 O 1090.13 -2.08809 -3.85137 0
M  V30 11278 C 1091.63 -0.375519 -4.41707 0
M  V30 11279 H 1088.85 -0.208405 -0.637815 0
M  V30 11280 H 1091.4 -1.21109 -1.64781 0
M  V30 11281 H 1089.55 -0.107728 -3.8725 0
M  V30 11282 H 1089.97 -2.11863 -4.79807 0
M  V30 11283 H 1091.44 -0.555538 -5.49197 0
M  V30 11284 H 1091.92 0.687532 -4.33785 0
M  V30 11285 H 1092.52 -0.972949 -4.14021 0
M  V30 11286 N 1090.84 1.42931 -0.663954 0
M  V30 11287 C 1091.8 2.29197 0.0117626 0
M  V30 11288 C 1092.8 1.42767 0.739875 0
M  V30 11289 O 1093.99 1.64278 0.579509 0
M  V30 11290 C 1091.12 3.2505 1.02738 0
M  V30 11291 H 1092.32 2.90438 -0.747391 0
M  V30 11292 H 1089.87 1.5039 -0.425733 0
M  V30 11293 H 1090.6 2.68726 1.8154 0
M  V30 11294 H 1090.39 3.88785 0.508809 0
M  V30 11295 H 1091.88 3.89771 1.49893 0
M  V30 11296 N 1092.32 0.406567 1.52266 0
M  V30 11297 C 1093.59 -0.228477 1.94261 0
M  V30 11298 C 1093.97 -1.62848 1.34328 0
M  V30 11299 O 1093.32 -2.22549 0.518082 0
M  V30 11300 C 1093.53 -0.237401 3.48192 0
M  V30 11301 C 1094.88 -0.457997 4.22123 0
M  V30 11302 O 1095.9 -0.316868 3.54788 0
M  V30 11303 O 1094.76 -0.735946 5.41522 0
M  V30 11304 H 1091.86 -0.146492 0.813922 0
M  V30 11305 H 1094.4 0.462325 1.63281 0
M  V30 11306 H 1093.17 0.742556 3.8419 0
M  V30 11307 H 1092.8 -0.972408 3.85526 0
M  V30 11308 N 1093.79 -1.57004 0.136909 0
M  V30 11309 C 1095.21 -1.82675 -0.385577 0
M  V30 11310 C 1095.56 -1.05508 -1.65416 0
M  V30 11311 O 1094.68 -0.297207 -2.14349 0
M  V30 11312 C 1095.28 -3.31356 -0.706326 0
M  V30 11313 C 1093.84 -3.57644 -1.17337 0
M  V30 11314 C 1092.98 -2.7664 -0.191239 0
M  V30 11315 H 1095.93 -1.54522 0.36177 0
M  V30 11316 H 1095.95 -3.4696 -1.56201 0
M  V30 11317 H 1095.47 -3.87492 0.217147 0
M  V30 11318 H 1093.57 -3.06883 -2.11313 0
M  V30 11319 H 1093.68 -4.66152 -1.10632 0
M  V30 11320 H 1092.04 -2.45403 -0.681867 0
M  V30 11321 H 1092.83 -3.35543 0.725647 0
M  V30 11322 N 1095.27 0.136881 -1.57004 0
M  V30 11323 C 1096.24 1.15267 -1.98106 0
M  V30 11324 C 1097.24 1.35305 -0.868856 0
M  V30 11325 O 1098.43 1.32126 -1.13527 0
M  V30 11326 C 1095.56 2.51092 -2.30577 0
M  V30 11327 H 1096.75 0.799821 -2.89038 0
M  V30 11328 H 1094.3 0.380576 -1.51596 0
M  V30 11329 H 1095.04 2.9133 -1.42469 0
M  V30 11330 H 1094.82 2.37906 -3.11678 0
M  V30 11331 H 1096.31 3.24232 -2.63179 0
M  V30 11332 N 1096.75 1.52266 0.40654 0
M  V30 11333 C 1097.66 1.78688 1.52012 0
M  V30 11334 C 1098.68 0.6726 1.60475 0
M  V30 11335 O 1099.85 0.95829 1.77141 0
M  V30 11336 C 1096.92 1.93434 2.87722 0
M  V30 11337 C 1095.98 3.17341 2.89125 0
M  V30 11338 C 1095.21 3.31374 4.18362 0
M  V30 11339 O 1095.43 2.50613 5.12396 0
M  V30 11340 O 1094.37 4.24539 4.26674 0
M  V30 11341 H 1098.19 2.73213 1.3262 0
M  V30 11342 H 1095.78 1.37142 0.592653 0
M  V30 11343 H 1097.66 2.04941 3.68208 0
M  V30 11344 H 1096.34 1.02099 3.07177 0
M  V30 11345 H 1095.24 3.1129 2.07483 0
M  V30 11346 H 1096.58 4.08466 2.7462 0
M  V30 11347 N 1098.23 -0.663929 1.42933 0
M  V30 11348 C 1099.18 -1.77717 1.47259 0
M  V30 11349 C 1100.15 -1.62922 0.323387 0
M  V30 11350 O 1101.33 -1.83319 0.529021 0
M  V30 11351 C 1098.47 -3.15814 1.39124 0
M  V30 11352 C 1097.58 -3.4182 2.64165 0
M  V30 11353 C 1096.72 -4.69705 2.48094 0
M  V30 11354 C 1095.76 -4.88781 3.68456 0
M  V30 11355 N 1094.89 -6.07915 3.51261 0
M  V30 11356 H 1099.73 -1.73355 2.42388 0
M  V30 11357 H 1097.27 -0.846121 1.2033 0
M  V30 11358 H 1099.23 -3.95633 1.32403 0
M  V30 11359 H 1097.86 -3.19274 0.475829 0
M  V30 11360 H 1096.91 -2.56176 2.81208 0
M  V30 11361 H 1098.22 -3.51805 3.53602 0
M  V30 11362 H 1097.38 -5.57632 2.39021 0
M  V30 11363 H 1096.12 -4.62022 1.56164 0
M  V30 11364 H 1095.12 -3.99292 3.7795 0
M  V30 11365 H 1096.35 -4.98301 4.61381 0
M  V30 11366 H 1094.29 -6.01384 2.62057 0
M  V30 11367 H 1094.21 -6.1881 4.34293 0
M  V30 11368 H 1095.48 -6.98492 3.4602 0
M  V30 11369 N 1099.71 -1.29285 -0.901281 0
M  V30 11370 C 1100.93 -1.20048 -1.68511 0
M  V30 11371 C 1101.35 0.239128 -1.8728 0
M  V30 11372 O 1100.71 1.16027 -1.40869 0
M  V30 11373 C 1100.76 -1.90798 -3.07048 0
M  V30 11374 O 1100.48 -3.29137 -2.89138 0
M  V30 11375 C 1101.98 -1.88017 -4.01453 0
M  V30 11376 H 1099.2 -0.416157 -0.52636 0
M  V30 11377 H 1101.74 -1.7063 -1.12719 0
M  V30 11378 H 1099.9 -1.44055 -3.5962 0
M  V30 11379 H 1100.31 -3.64747 -3.76908 0
M  V30 11380 H 1101.79 -2.42088 -4.96082 0
M  V30 11381 H 1102.26 -0.855341 -4.30791 0
M  V30 11382 H 1102.87 -2.34497 -3.54812 0
M  V30 11383 N 1101.18 1.11143 -1.11736 0
M  V30 11384 C 1102.6 1.64462 -0.883693 0
M  V30 11385 C 1102.95 1.87324 0.583448 0
M  V30 11386 O 1102.07 1.60975 1.44623 0
M  V30 11387 C 1102.67 2.98765 -1.59764 0
M  V30 11388 C 1101.23 3.4898 -1.41032 0
M  V30 11389 C 1100.37 2.23729 -1.63831 0
M  V30 11390 H 1103.32 0.947415 -1.27317 0
M  V30 11391 H 1103.34 3.65885 -1.04443 0
M  V30 11392 H 1102.86 2.82094 -2.66542 0
M  V30 11393 H 1100.96 3.7081 -0.364781 0
M  V30 11394 H 1101.07 4.27571 -2.16148 0
M  V30 11395 H 1099.43 2.31507 -1.06191 0
M  V30 11396 H 1100.22 2.09597 -2.7189 0
M  V30 11397 N 1102.66 0.908147 1.28804 0
M  V30 11398 C 1103.59 0.409106 2.29888 0
M  V30 11399 C 1104.57 -0.520338 1.61946 0
M  V30 11400 O 1105.76 -0.429268 1.89396 0
M  V30 11401 C 1102.89 -0.35669 3.45463 0
M  V30 11402 C 1101.84 0.4831 4.25265 0
M  V30 11403 C 1101.17 -0.4107 5.3312 0
M  V30 11404 C 1102.47 1.73744 4.92555 0
M  V30 11405 H 1104.16 1.25386 2.7188 0
M  V30 11406 H 1101.71 0.604368 1.30703 0
M  V30 11407 H 1103.66 -0.71661 4.15262 0
M  V30 11408 H 1102.39 -1.2353 3.02337 0
M  V30 11409 H 1101.04 0.825464 3.57186 0
M  V30 11410 H 1100.69 -1.28769 4.86238 0
M  V30 11411 H 1100.39 0.14756 5.87415 0
M  V30 11412 H 1101.92 -0.766626 6.05768 0
M  V30 11413 H 1103.33 1.44676 5.54745 0
M  V30 11414 H 1101.73 2.23767 5.5682 0
M  V30 11415 H 1102.8 2.46853 4.17363 0
M  V30 11416 N 1104.14 -1.42577 0.671525 0
M  V30 11417 C 1105.39 -2.01185 0.192051 0
M  V30 11418 C 1105.71 -1.53349 -1.20454 0
M  V30 11419 O 1104.98 -0.753781 -1.80817 0
M  V30 11420 H 1103.56 -0.743898 0.0680106 0
M  V30 11421 H 1106.22 -1.74539 0.8673 0
M  V30 11422 H 1105.32 -3.11516 0.190796 0
M  V30 11423 N 1105.62 -0.414636 -1.52048 0
M  V30 11424 C 1106.86 0.159585 -2.02171 0
M  V30 11425 C 1107.2 1.44321 -1.29943 0
M  V30 11426 O 1106.47 1.90185 -0.407402 0
M  V30 11427 C 1106.76 0.401655 -3.57853 0
M  V30 11428 C 1106.61 -0.899026 -4.40724 0
M  V30 11429 C 1107.93 1.1814 -4.23947 0
M  V30 11430 H 1105.05 0.0565257 -0.734829 0
M  V30 11431 H 1107.69 -0.549183 -1.8189 0
M  V30 11432 H 1105.84 1.00541 -3.75265 0
M  V30 11433 H 1107.51 -1.53502 -4.35011 0
M  V30 11434 H 1105.75 -1.50877 -4.06717 0
M  V30 11435 H 1106.42 -0.683974 -5.47746 0
M  V30 11436 H 1108.9 0.670203 -4.10667 0
M  V30 11437 H 1107.78 1.31953 -5.32804 0
M  V30 11438 H 1108.04 2.2035 -3.83273 0
M  V30 11439 N 1107.1 1.56929 -0.145233 0
M  V30 11440 C 1108.51 1.82877 0.375884 0
M  V30 11441 C 1108.86 1.06384 1.64854 0
M  V30 11442 O 1107.98 0.30857 2.14189 0
M  V30 11443 C 1108.58 3.31725 0.688744 0
M  V30 11444 C 1107.14 3.58261 1.15439 0
M  V30 11445 C 1106.28 2.76737 0.176565 0
M  V30 11446 H 1109.24 1.54328 -0.36996 0
M  V30 11447 H 1109.26 3.47784 1.54359 0
M  V30 11448 H 1108.77 3.87371 -0.237694 0
M  V30 11449 H 1106.87 3.08 2.09683 0
M  V30 11450 H 1106.98 4.66732 1.08158 0
M  V30 11451 H 1105.35 2.45761 0.668843 0
M  V30 11452 H 1106.13 3.35154 -0.743432 0
M  V30 11453 N 1108.58 -0.128553 1.57075 0
M  V30 11454 C 1109.99 -0.481794 1.52154 0
M  V30 11455 C 1110.19 -1.82381 0.856694 0
M  V30 11456 O 1109.25 -2.48725 0.434989 0
M  V30 11457 C 1110.56 -0.475091 2.96923 0
M  V30 11458 C 1112.11 -0.559315 3.07962 0
M  V30 11459 C 1112.58 -0.583095 4.54273 0
M  V30 11460 N 1114.07 -0.644803 4.5869 0
M  V30 11461 C 1114.81 -0.684493 5.693 0
M  V30 11462 N 1114.31 -0.682407 6.89431 0
M  V30 11463 N 1116.1 -0.726777 5.57382 0
M  V30 11464 H 1108.25 0.750894 1.98684 0
M  V30 11465 H 1110.51 0.27593 0.906955 0
M  V30 11466 H 1110.22 0.443157 3.48897 0
M  V30 11467 H 1110.09 -1.30637 3.53856 0
M  V30 11468 H 1112.48 -1.46798 2.55997 0
M  V30 11469 H 1112.56 0.299468 2.54041 0
M  V30 11470 H 1112.2 0.32149 5.06881 0
M  V30 11471 H 1112.13 -1.45863 5.05996 0
M  V30 11472 H 1114.63 -0.652967 3.72216 0
M  V30 11473 H 1114.94 -0.715051 7.69485 0
M  V30 11474 H 1113.28 -0.649984 6.91954 0
M  V30 11475 H 1116.47 -0.725704 4.6244 0
M  V30 11476 H 1116.65 -0.754242 6.43596 0
M  V30 11477 N 1110.05 -1.5248 -0.398459 0
M  V30 11478 C 1110.99 -1.72826 -1.50545 0
M  V30 11479 C 1112 -0.608683 -1.50993 0
M  V30 11480 O 1113.19 -0.88413 -1.55066 0
M  V30 11481 C 1110.29 -1.76327 -2.89417 0
M  V30 11482 C 1109.46 -3.05491 -3.1304 0
M  V30 11483 C 1108.52 -3.00663 -4.31843 0
M  V30 11484 O 1107.55 -3.74548 -4.28605 0
M  V30 11485 N 1108.75 -2.19191 -5.37527 0
M  V30 11486 H 1111.51 -2.68333 -1.33482 0
M  V30 11487 H 1109.07 -1.5085 -0.587875 0
M  V30 11488 H 1111.07 -1.70616 -3.66977 0
M  V30 11489 H 1109.64 -0.882476 -2.99885 0
M  V30 11490 H 1108.86 -3.24767 -2.23428 0
M  V30 11491 H 1110.14 -3.90915 -3.25673 0
M  V30 11492 H 1109.54 -1.58613 -5.43009 0
M  V30 11493 H 1108.1 -2.19328 -6.1379 0
M  V30 11494 N 1111.53 0.65634 -1.43283 0
M  V30 11495 C 1112.76 1.44906 -1.48382 0
M  V30 11496 C 1113.18 1.87823 -0.101993 0
M  V30 11497 O 1112.54 1.57178 0.903597 0
M  V30 11498 C 1112.59 2.66231 -2.43215 0
M  V30 11499 O 1111.69 3.65176 -1.91625 0
M  V30 11500 H 1111.03 0.434601 -0.502014 0
M  V30 11501 H 1113.56 0.803429 -1.88165 0
M  V30 11502 H 1113.57 3.14083 -2.60414 0
M  V30 11503 H 1112.25 2.34336 -3.43598 0
M  V30 11504 H 1110.82 3.24302 -1.84072 0
M  V30 11505 N 1113.01 1.29761 0.894412 0
M  V30 11506 C 1114.26 1.17806 1.64214 0
M  V30 11507 C 1114.58 -0.269588 1.93127 0
M  V30 11508 O 1113.85 -1.18352 1.56107 0
M  V30 11509 H 1112.43 0.433002 0.608702 0
M  V30 11510 H 1115.09 1.6276 1.07216 0
M  V30 11511 H 1114.19 1.73201 2.5963 0
M  V30 11512 N 1114.49 -1.10549 1.12324 0
M  V30 11513 C 1115.9 -1.34508 0.85905 0
M  V30 11514 C 1116.1 -1.94901 -0.511468 0
M  V30 11515 O 1115.16 -2.18793 -1.2604 0
M  V30 11516 C 1116.47 -2.26788 1.97453 0
M  V30 11517 C 1118.02 -2.40328 2.00528 0
M  V30 11518 C 1118.5 -3.35936 3.11305 0
M  V30 11519 N 1119.99 -3.43504 3.1074 0
M  V30 11520 C 1120.72 -4.17449 3.93096 0
M  V30 11521 N 1120.22 -4.9429 4.85437 0
M  V30 11522 N 1122.01 -4.13055 3.81237 0
M  V30 11523 H 1114.16 -0.697171 2.00632 0
M  V30 11524 H 1116.42 -0.369548 0.873005 0
M  V30 11525 H 1116.13 -1.89621 2.96204 0
M  V30 11526 H 1116 -3.27086 1.87869 0
M  V30 11527 H 1118.39 -2.76765 1.02397 0
M  V30 11528 H 1118.47 -1.39849 2.14186 0
M  V30 11529 H 1118.12 -3.00225 4.09667 0
M  V30 11530 H 1118.05 -4.36291 2.94886 0
M  V30 11531 H 1120.54 -2.88702 2.43843 0
M  V30 11532 H 1120.85 -5.48109 5.4479 0
M  V30 11533 H 1119.2 -4.93419 4.89452 0
M  V30 11534 H 1122.39 -3.52117 3.08433 0
M  V30 11535 H 1122.56 -4.70424 4.45651 0
M  V30 11536 N 1115.97 -0.914965 -1.28321 0
M  V30 11537 C 1117.38 -0.59512 -1.76961 0
M  V30 11538 C 1117.73 0.88958 -1.74874 0
M  V30 11539 O 1116.85 1.6959 -1.34418 0
M  V30 11540 C 1117.45 -1.07353 -3.21342 0
M  V30 11541 C 1116.01 -0.804577 -3.677 0
M  V30 11542 C 1115.15 -1.23955 -2.48053 0
M  V30 11543 H 1118.1 -1.0961 -1.14767 0
M  V30 11544 H 1118.13 -0.415506 -3.78225 0
M  V30 11545 H 1117.64 -2.15413 -3.22829 0
M  V30 11546 H 1115.74 0.26277 -3.71672 0
M  V30 11547 H 1115.85 -1.41317 -4.57784 0
M  V30 11548 H 1114.22 -0.658274 -2.46046 0
M  V30 11549 H 1115 -2.32853 -2.52258 0
M  V30 11550 N 1117.44 1.42219 -0.679077 0
M  V30 11551 C 1118.69 2.01081 -0.202718 0
M  V30 11552 C 1119.01 1.53986 1.19639 0
M  V30 11553 O 1118.28 0.763359 1.80415 0
M  V30 11554 H 1116.86 0.743526 -0.0719547 0
M  V30 11555 H 1119.52 1.74077 -0.876544 0
M  V30 11556 H 1118.62 3.11411 -0.207314 0
M  V30 11557 N 1118.92 0.422693 1.51826 0
M  V30 11558 C 1120.16 -0.147997 2.03864 0
M  V30 11559 C 1120.53 -1.41224 1.30076 0
M  V30 11560 O 1121.73 -2.06224 1.72409 0
M  V30 11561 C 1120 -0.376248 3.55414 0
M  V30 11562 S 1121.56 -0.912444 4.29208 0
M  V30 11563 H 1118.37 -0.0387084 0.709946 0
M  V30 11564 H 1120.98 0.578733 1.86738 0
M  V30 11565 H 1119.68 0.550451 4.06692 0
M  V30 11566 H 1119.21 -1.13047 3.76807 0
M  V30 11567 H 1121.23 -2.19161 4.45177 0
M  V30 11568 N 1120.4 -1.5685 0.153553 0
M  V30 11569 C 1121.64 -1.98226 -0.498586 0
M  V30 11570 C 1122 -1.03671 -1.61605 0
M  V30 11571 O 1123.2 -1.34117 -2.32951 0
M  V30 11572 C 1121.48 -3.43539 -0.985678 0
M  V30 11573 S 1123.03 -4.0694 -1.6415 0
M  V30 11574 H 1119.85 -0.692533 -0.160993 0
M  V30 11575 H 1122.45 -1.93936 0.246817 0
M  V30 11576 H 1121.16 -4.10081 -0.161708 0
M  V30 11577 H 1120.69 -3.51557 -1.76555 0
M  V30 11578 H 1122.7 -4.0053 -2.929 0
M  V30 11579 N 1121.88 0.120221 -1.57141 0
M  V30 11580 C 1123.13 0.826586 -1.84423 0
M  V30 11581 C 1123.45 1.80473 -0.738553 0
M  V30 11582 O 1122.72 1.94454 0.23755 0
M  V30 11583 H 1121.3 0.308246 -0.680436 0
M  V30 11584 H 1123.96 0.107835 -1.94601 0
M  V30 11585 H 1123.05 1.37256 -2.80298 0
M  V30 11586 N 1123.36 1.52689 0.390367 0
M  V30 11587 C 1124.6 1.67335 1.13329 0
M  V30 11588 C 1124.93 0.415068 1.90531 0
M  V30 11589 O 1124.2 -0.570504 1.87409 0
M  V30 11590 H 1122.78 0.616821 0.421356 0
M  V30 11591 H 1125.44 1.89799 0.443 0
M  V30 11592 H 1124.53 2.52314 1.83696 0
M  V30 11593 N 1124.83 -0.648732 1.43629 0
M  V30 11594 C 1126.25 -0.964917 1.27128 0
M  V30 11595 C 1126.45 -2.00561 0.194251 0
M  V30 11596 O 1125.51 -2.48884 -0.42581 0
M  V30 11597 C 1126.82 -1.44491 2.6371 0
M  V30 11598 C 1128.37 -1.56133 2.71278 0
M  V30 11599 C 1128.84 -2.07521 4.08288 0
M  V30 11600 N 1130.33 -2.14817 4.10375 0
M  V30 11601 C 1131.07 -2.55712 5.13224 0
M  V30 11602 N 1130.56 -2.9587 6.26444 0
M  V30 11603 N 1132.36 -2.55691 5.00578 0
M  V30 11604 H 1124.51 0.0398357 2.12363 0
M  V30 11605 H 1126.77 -0.0447705 0.946942 0
M  V30 11606 H 1126.48 -0.754616 3.43509 0
M  V30 11607 H 1126.35 -2.41914 2.89409 0
M  V30 11608 H 1128.74 -2.24263 1.91808 0
M  V30 11609 H 1128.82 -0.571314 2.49338 0
M  V30 11610 H 1128.46 -1.39992 4.88226 0
M  V30 11611 H 1128.39 -3.07362 4.27594 0
M  V30 11612 H 1130.88 -1.86538 3.28652 0
M  V30 11613 H 1131.2 -3.25837 7.0075 0
M  V30 11614 H 1129.54 -2.93664 6.2991 0
M  V30 11615 H 1132.73 -2.23697 4.1119 0
M  V30 11616 H 1132.91 -2.87239 5.80859 0
M  V30 11617 N 1126.31 -1.30234 -0.887518 0
M  V30 11618 C 1127.55 -1.20191 -1.65328 0
M  V30 11619 C 1127.92 0.240121 -1.90493 0
M  V30 11620 O 1129.12 0.463744 -2.64769 0
M  V30 11621 C 1127.39 -2.00506 -2.95858 0
M  V30 11622 S 1128.95 -2.07133 -3.86835 0
M  V30 11623 H 1125.77 -0.428366 -0.567472 0
M  V30 11624 H 1128.37 -1.64677 -1.05364 0
M  V30 11625 H 1127.07 -3.04396 -2.75266 0
M  V30 11626 H 1126.6 -1.56672 -3.60857 0
M  V30 11627 H 1128.62 -1.19687 -4.81549 0
M  V30 11628 N 1127.79 1.09952 -1.12909 0
M  V30 11629 C 1129.04 1.81657 -0.885729 0
M  V30 11630 C 1129.36 1.85863 0.589913 0
M  V30 11631 O 1128.63 1.34028 1.42875 0
M  V30 11632 H 1127.21 0.672743 -0.324694 0
M  V30 11633 H 1129.87 1.33013 -1.42456 0
M  V30 11634 H 1128.97 2.85018 -1.27167 0
M  V30 11635 N 1129.27 0.921757 1.27833 0
M  V30 11636 C 1130.52 0.557974 1.94245 0
M  V30 11637 C 1130.84 -0.90268 1.72849 0
M  V30 11638 O 1130.11 -1.63915 1.07279 0
M  V30 11639 H 1128.69 0.203364 0.718785 0
M  V30 11640 H 1131.35 1.17286 1.5566 0
M  V30 11641 H 1130.45 0.759202 3.02725 0
M  V30 11642 N 1130.75 -1.41857 0.686609 0
M  V30 11643 C 1132.16 -1.55549 0.357288 0
M  V30 11644 C 1132.36 -1.66394 -1.13646 0
M  V30 11645 O 1131.42 -1.63739 -1.92213 0
M  V30 11646 C 1132.73 -2.79938 1.09796 0
M  V30 11647 C 1134.28 -2.93724 1.08143 0
M  V30 11648 C 1134.75 -4.20989 1.80367 0
M  V30 11649 N 1136.25 -4.27927 1.77293 0
M  V30 11650 C 1136.98 -5.2524 2.30022 0
M  V30 11651 N 1136.48 -6.28636 2.91185 0
M  V30 11652 N 1138.27 -5.17118 2.20329 0
M  V30 11653 H 1130.42 -1.33063 1.65554 0
M  V30 11654 H 1132.68 -0.641335 0.698135 0
M  V30 11655 H 1132.39 -2.78104 2.15293 0
M  V30 11656 H 1132.26 -3.71188 0.670763 0
M  V30 11657 H 1134.65 -2.9508 0.0347554 0
M  V30 11658 H 1134.73 -2.03673 1.54761 0
M  V30 11659 H 1134.38 -4.20395 2.85009 0
M  V30 11660 H 1134.31 -5.09997 1.3119 0
M  V30 11661 H 1136.8 -3.53838 1.32692 0
M  V30 11662 H 1137.11 -6.99265 3.29011 0
M  V30 11663 H 1135.45 -6.29164 2.95259 0
M  V30 11664 H 1138.65 -4.35265 1.72226 0
M  V30 11665 H 1138.82 -5.92792 2.61728 0
M  V30 11666 N 1132.22 -0.430739 -1.51599 0
M  V30 11667 C 1133.64 -0.0826902 -1.59386 0
M  V30 11668 C 1133.84 1.40729 -1.44214 0
M  V30 11669 O 1132.9 2.1765 -1.28002 0
M  V30 11670 C 1134.21 -0.59691 -2.94716 0
M  V30 11671 C 1135.76 -0.556772 -3.08008 0
M  V30 11672 C 1136.23 -1.04786 -4.45852 0
M  V30 11673 N 1137.72 -1.00557 -4.52153 0
M  V30 11674 C 1138.46 -1.35649 -5.57124 0
M  V30 11675 N 1137.95 -1.77994 -6.69545 0
M  V30 11676 N 1139.75 -1.27508 -5.47447 0
M  V30 11677 H 1131.9 -1.40027 -1.59707 0
M  V30 11678 H 1134.16 -0.576606 -0.752482 0
M  V30 11679 H 1133.87 -1.63914 -3.11167 0
M  V30 11680 H 1133.74 -0.0182342 -3.77196 0
M  V30 11681 H 1136.13 0.476457 -2.91228 0
M  V30 11682 H 1136.21 -1.17177 -2.27383 0
M  V30 11683 H 1135.85 -2.07952 -4.63377 0
M  V30 11684 H 1135.78 -0.409461 -5.25006 0
M  V30 11685 H 1138.27 -0.694518 -3.71463 0
M  V30 11686 H 1138.59 -2.03026 -7.45654 0
M  V30 11687 H 1136.93 -1.81916 -6.70769 0
M  V30 11688 H 1140.12 -0.942969 -4.58504 0
M  V30 11689 H 1140.3 -1.55185 -6.29143 0
M  V30 11690 N 1133.7 1.56767 -0.161869 0
M  V30 11691 C 1134.94 1.98487 0.488067 0
M  V30 11692 C 1135.31 1.04527 1.61053 0
M  V30 11693 O 1136.51 1.35351 2.32236 0
M  V30 11694 C 1134.78 3.44057 0.967446 0
M  V30 11695 S 1136.34 4.07805 1.61989 0
M  V30 11696 H 1133.16 0.693377 0.157318 0
M  V30 11697 H 1135.76 1.93802 -0.257099 0
M  V30 11698 H 1134.46 4.10161 0.139959 0
M  V30 11699 H 1133.99 3.52488 1.74688 0
M  V30 11700 H 1136.01 4.02078 2.90772 0
M  V30 11701 N 1135.18 -0.111886 1.57202 0
M  V30 11702 C 1136.11 -1.13796 2.03894 0
M  V30 11703 C 1137.09 -1.4277 0.924696 0
M  V30 11704 O 1138.28 -1.53089 1.19488 0
M  V30 11705 C 1135.41 -2.46229 2.44925 0
M  V30 11706 C 1134.36 -2.31702 3.59859 0
M  V30 11707 C 1133.69 -3.69161 3.86813 0
M  V30 11708 C 1134.99 -1.77158 4.91337 0
M  V30 11709 H 1136.68 -0.749581 2.89865 0
M  V30 11710 H 1134.23 -0.359126 1.3945 0
M  V30 11711 H 1136.18 -3.18267 2.76195 0
M  V30 11712 H 1134.9 -2.86971 1.55933 0
M  V30 11713 H 1133.56 -1.62112 3.28809 0
M  V30 11714 H 1133.21 -4.07401 2.95015 0
M  V30 11715 H 1132.91 -3.60292 4.6418 0
M  V30 11716 H 1134.43 -4.42693 4.20542 0
M  V30 11717 H 1135.85 -2.3902 5.21097 0
M  V30 11718 H 1134.25 -1.79091 5.72753 0
M  V30 11719 H 1135.32 -0.729675 4.79379 0
M  V30 11720 N 1136.66 -1.52894 -0.382264 0
M  V30 11721 C 1138.07 -1.42295 -0.722802 0
M  V30 11722 C 1138.27 -0.548717 -1.93885 0
M  V30 11723 O 1137.33 -0.0247431 -2.52488 0
M  V30 11724 C 1138.64 -2.85246 -0.9516 0
M  V30 11725 C 1140.19 -2.94768 -1.05265 0
M  V30 11726 C 1140.67 -4.38745 -1.31404 0
M  V30 11727 N 1142.16 -4.421 -1.38211 0
M  V30 11728 C 1142.89 -5.50592 -1.60113 0
M  V30 11729 N 1142.39 -6.69158 -1.79442 0
M  V30 11730 N 1144.18 -5.38145 -1.62347 0
M  V30 11731 H 1136.33 -2.0825 0.417816 0
M  V30 11732 H 1138.6 -0.939753 0.124776 0
M  V30 11733 H 1138.3 -3.51459 -0.130088 0
M  V30 11734 H 1138.18 -3.27903 -1.86439 0
M  V30 11735 H 1140.56 -2.28718 -1.86472 0
M  V30 11736 H 1140.64 -2.55529 -0.117619 0
M  V30 11737 H 1140.29 -5.05363 -0.507038 0
M  V30 11738 H 1140.22 -4.75542 -2.26202 0
M  V30 11739 H 1142.71 -3.56644 -1.24954 0
M  V30 11740 H 1143.02 -7.47615 -1.95681 0
M  V30 11741 H 1141.37 -6.72175 -1.76653 0
M  V30 11742 H 1144.56 -4.44485 -1.46803 0
M  V30 11743 H 1144.73 -6.22764 -1.79077 0
M  V30 11744 N 1138.14 0.641106 -1.43971 0
M  V30 11745 C 1139.55 0.958161 -1.27638 0
M  V30 11746 C 1139.75 2.00456 -0.204885 0
M  V30 11747 O 1138.81 2.49106 0.412606 0
M  V30 11748 C 1140.12 1.43091 -2.64472 0
M  V30 11749 C 1141.67 1.54692 -2.72102 0
M  V30 11750 C 1142.15 2.05353 -4.09382 0
M  V30 11751 N 1143.64 2.12638 -4.11509 0
M  V30 11752 C 1144.37 2.52987 -5.14573 0
M  V30 11753 N 1143.87 2.92544 -6.28005 0
M  V30 11754 N 1145.66 2.53033 -5.01927 0
M  V30 11755 H 1137.81 -0.0510973 -2.12339 0
M  V30 11756 H 1140.07 0.039748 -0.947166 0
M  V30 11757 H 1139.78 0.736389 -3.43904 0
M  V30 11758 H 1139.65 2.40375 -2.90688 0
M  V30 11759 H 1142.04 2.23242 -1.92994 0
M  V30 11760 H 1142.12 0.558083 -2.49638 0
M  V30 11761 H 1141.77 1.37401 -4.88962 0
M  V30 11762 H 1141.7 3.0509 -4.29218 0
M  V30 11763 H 1144.19 1.84792 -3.29636 0
M  V30 11764 H 1144.5 3.22116 -7.02468 0
M  V30 11765 H 1142.85 2.90319 -6.31458 0
M  V30 11766 H 1146.04 2.21514 -4.1237 0
M  V30 11767 H 1146.21 2.84155 -5.82375 0
M  V30 11768 N 1139.62 1.30703 0.880598 0
M  V30 11769 C 1140.86 1.20965 1.63521 0
M  V30 11770 C 1141.22 -0.232404 1.90991 0
M  V30 11771 O 1140.51 -1.16272 1.52287 0
M  V30 11772 C 1140.7 1.97628 2.97789 0
M  V30 11773 C 1140.53 3.49141 2.83427 0
M  V30 11774 C 1139.3 4.18496 2.83177 0
M  V30 11775 C 1141.5 4.44291 2.59056 0
M  V30 11776 N 1139.48 5.56239 2.59752 0
M  V30 11777 C 1140.85 5.69627 2.44795 0
M  V30 11778 C 1142.91 4.33837 2.44316 0
M  V30 11779 C 1141.61 6.85694 2.17293 0
M  V30 11780 C 1143.64 5.49675 2.182 0
M  V30 11781 C 1143 6.73995 2.04719 0
M  V30 11782 H 1139.1 0.497719 0.603158 0
M  V30 11783 H 1141.68 1.64765 1.03733 0
M  V30 11784 H 1139.85 1.56212 3.55601 0
M  V30 11785 H 1141.59 1.79996 3.62468 0
M  V30 11786 H 1138.34 3.70368 2.95168 0
M  V30 11787 H 1138.76 6.28735 2.5104 0
M  V30 11788 H 1143.41 3.38396 2.53471 0
M  V30 11789 H 1141.12 7.81171 2.06875 0
M  V30 11790 H 1144.71 5.43497 2.0761 0
M  V30 11791 H 1143.59 7.62116 1.84794 0
M  V30 11792 N 1141.09 -1.09351 1.1349 0
M  V30 11793 C 1142.34 -1.81543 0.897123 0
M  V30 11794 C 1142.67 -1.85754 -0.576703 0
M  V30 11795 O 1141.92 -1.32213 -1.44285 0
M  V30 11796 C 1142.22 -3.27498 1.43108 0
M  V30 11797 C 1141.89 -3.4342 2.92188 0
M  V30 11798 C 1140.55 -3.47473 3.32891 0
M  V30 11799 C 1142.9 -3.47894 3.88097 0
M  V30 11800 C 1140.23 -3.5358 4.68186 0
M  V30 11801 C 1142.58 -3.55535 5.23238 0
M  V30 11802 C 1141.25 -3.57857 5.63467 0
M  V30 11803 H 1140.52 -0.664314 0.32828 0
M  V30 11804 H 1143.16 -1.28819 1.41697 0
M  V30 11805 H 1141.47 -3.82865 0.831946 0
M  V30 11806 H 1143.17 -3.8189 1.22316 0
M  V30 11807 H 1139.76 -3.4095 2.59713 0
M  V30 11808 H 1143.94 -3.44002 3.57737 0
M  V30 11809 H 1139.2 -3.53665 4.9873 0
M  V30 11810 H 1143.37 -3.57942 5.9737 0
M  V30 11811 H 1141 -3.62341 6.68291 0
M  V30 11812 N 1142.57 -0.928524 -1.27343 0
M  V30 11813 C 1143.52 -0.399267 -2.24477 0
M  V30 11814 C 1144.51 0.496927 -1.53034 0
M  V30 11815 O 1145.7 0.334237 -1.73816 0
M  V30 11816 C 1142.83 0.346059 -3.41551 0
M  V30 11817 C 1141.91 -0.566699 -4.20297 0
M  V30 11818 N 1142.3 -1.6869 -4.76841 0
M  V30 11819 C 1140.6 -0.369865 -4.44464 0
M  V30 11820 C 1141.3 -2.25466 -5.36228 0
M  V30 11821 N 1140.28 -1.54414 -5.21207 0
M  V30 11822 H 1144.08 -1.25456 -2.65778 0
M  V30 11823 H 1141.59 -0.782894 -1.42283 0
M  V30 11824 H 1143.59 0.742171 -4.10241 0
M  V30 11825 H 1142.25 1.19827 -3.01781 0
M  V30 11826 H 1143.26 -2.06926 -4.74765 0
M  V30 11827 H 1139.94 0.441619 -4.15158 0
M  V30 11828 H 1141.33 -3.19779 -5.90924 0
M  V30 11829 N 1144.05 1.41491 -0.694123 0
M  V30 11830 C 1145.3 2.01252 -0.224477 0
M  V30 11831 C 1145.62 1.54965 1.17541 0
M  V30 11832 O 1144.88 0.751041 1.80715 0
M  V30 11833 C 1145.18 3.56666 -0.228869 0
M  V30 11834 C 1144.84 4.22458 -1.57608 0
M  V30 11835 C 1143.51 4.40144 -1.94491 0
M  V30 11836 C 1145.86 4.5936 -2.46247 0
M  V30 11837 C 1143.19 4.92009 -3.196 0
M  V30 11838 C 1145.54 5.12615 -3.70687 0
M  V30 11839 C 1144.2 5.28512 -4.07715 0
M  V30 11840 H 1143.47 0.736433 -0.0821419 0
M  V30 11841 H 1146.12 1.69408 -0.892926 0
M  V30 11842 H 1144.42 3.88292 0.523128 0
M  V30 11843 H 1146.12 4.00712 0.152019 0
M  V30 11844 H 1142.71 4.09065 -1.27921 0
M  V30 11845 H 1146.9 4.45352 -2.19032 0
M  V30 11846 H 1142.15 5.02502 -3.48285 0
M  V30 11847 H 1146.33 5.4015 -4.39558 0
M  V30 11848 H 1143.95 5.68464 -5.0473 0
M  V30 11849 N 1145.53 0.438773 1.51369 0
M  V30 11850 C 1146.77 -0.119657 2.03048 0
M  V30 11851 C 1147.13 -1.4026 1.317 0
M  V30 11852 O 1146.42 -1.86858 0.423612 0
M  V30 11853 C 1146.62 -0.39186 3.55245 0
M  V30 11854 C 1146.44 0.863149 4.41339 0
M  V30 11855 C 1145.21 1.39709 4.85602 0
M  V30 11856 C 1147.41 1.74969 4.83622 0
M  V30 11857 N 1145.39 2.60449 5.55913 0
M  V30 11858 C 1146.77 2.80313 5.53014 0
M  V30 11859 C 1148.82 1.76393 4.65607 0
M  V30 11860 C 1147.52 3.87029 6.06301 0
M  V30 11861 C 1149.55 2.82045 5.19812 0
M  V30 11862 C 1148.91 3.86109 5.89151 0
M  V30 11863 H 1145.01 -0.00458455 0.781987 0
M  V30 11864 H 1147.59 0.599764 1.85232 0
M  V30 11865 H 1145.77 -1.08032 3.73073 0
M  V30 11866 H 1147.5 -0.941775 3.93589 0
M  V30 11867 H 1144.25 0.950817 4.63957 0
M  V30 11868 H 1144.68 3.21678 5.95695 0
M  V30 11869 H 1149.32 0.972686 4.11459 0
M  V30 11870 H 1147.04 4.66991 6.59504 0
M  V30 11871 H 1150.62 2.84091 5.07724 0
M  V30 11872 H 1149.5 4.66518 6.30342 0
M  V30 11873 N 1147.01 -1.56678 0.170181 0
M  V30 11874 C 1148.25 -1.9646 -0.474125 0
M  V30 11875 C 1148.57 -1.05719 -1.63855 0
M  V30 11876 O 1147.84 -0.123316 -1.95511 0
M  V30 11877 H 1146.42 -0.725446 -0.178149 0
M  V30 11878 H 1149.09 -1.93276 0.251099 0
M  V30 11879 H 1148.18 -3.00726 -0.834894 0
M  V30 11880 N 1148.48 0.103547 -1.57259 0
M  V30 11881 C 1149.45 1.11039 -2.00507 0
M  V30 11882 C 1150.45 1.33432 -0.897361 0
M  V30 11883 O 1151.64 1.29688 -1.16304 0
M  V30 11884 C 1148.77 2.46144 -2.35851 0
M  V30 11885 H 1149.96 0.738332 -2.90669 0
M  V30 11886 H 1147.51 0.348334 -1.52369 0
M  V30 11887 H 1148.25 2.88242 -1.48617 0
M  V30 11888 H 1148.03 2.31241 -3.16654 0
M  V30 11889 H 1149.52 3.18577 -2.69997 0
M  V30 11890 N 1149.96 1.53094 0.37415 0
M  V30 11891 C 1151.37 1.60641 0.951381 0
M  V30 11892 C 1151.72 0.468474 1.90525 0
M  V30 11893 O 1150.85 -0.406347 2.12551 0
M  V30 11894 C 1151.44 2.91166 1.73228 0
M  V30 11895 C 1150 3.01077 2.25898 0
M  V30 11896 C 1149.15 2.55873 1.06885 0
M  V30 11897 H 1152.1 1.57959 0.153214 0
M  V30 11898 H 1152.12 2.78487 2.59278 0
M  V30 11899 H 1151.63 3.73968 1.03778 0
M  V30 11900 H 1149.73 2.22844 2.98615 0
M  V30 11901 H 1149.85 4.05998 2.54367 0
M  V30 11902 H 1148.21 2.10544 1.43329 0
M  V30 11903 H 1148.99 3.41084 0.38947 0
M  V30 11904 N 1151.44 -0.633461 1.44309 0
M  V30 11905 C 1152.69 -1.39513 1.47187 0
M  V30 11906 C 1153.02 -1.93926 0.103186 0
M  V30 11907 O 1152.29 -1.73512 -0.878853 0
M  V30 11908 C 1152.58 -2.56213 2.53036 0
M  V30 11909 C 1152.43 -2.07164 3.99253 0
M  V30 11910 C 1153.75 -3.58403 2.55412 0
M  V30 11911 H 1150.87 -0.505936 0.535908 0
M  V30 11912 H 1153.51 -0.716445 1.75975 0
M  V30 11913 H 1151.66 -3.14111 2.28619 0
M  V30 11914 H 1153.33 -1.54115 4.34795 0
M  V30 11915 H 1151.57 -1.38367 4.11141 0
M  V30 11916 H 1152.25 -2.91172 4.6896 0
M  V30 11917 H 1154.72 -3.103 2.77224 0
M  V30 11918 H 1153.6 -4.37581 3.31382 0
M  V30 11919 H 1153.86 -4.12316 1.59523 0
M  V30 11920 N 1152.92 -1.31168 -0.873655 0
M  V30 11921 C 1154.15 -1.23595 -1.65927 0
M  V30 11922 C 1154.56 0.199349 -1.87745 0
M  V30 11923 O 1153.92 1.13013 -1.43298 0
M  V30 11924 C 1153.97 -1.97268 -3.02932 0
M  V30 11925 O 1153.69 -3.35196 -2.82091 0
M  V30 11926 C 1155.19 -1.9649 -3.97374 0
M  V30 11927 H 1152.41 -0.427228 -0.517414 0
M  V30 11928 H 1154.96 -1.72983 -1.09074 0
M  V30 11929 H 1153.11 -1.51651 -3.56484 0
M  V30 11930 H 1153.52 -3.7266 -3.69087 0
M  V30 11931 H 1155 -2.52557 -4.90835 0
M  V30 11932 H 1155.48 -0.946525 -4.28879 0
M  V30 11933 H 1156.08 -2.4197 -3.49758 0
M  V30 11934 N 1154.4 1.08748 -1.14068 0
M  V30 11935 C 1155.65 1.8044 -0.901352 0
M  V30 11936 C 1155.96 1.86995 0.573791 0
M  V30 11937 O 1157.16 2.55065 0.930275 0
M  V30 11938 C 1155.62 3.24185 -1.56308 0
M  V30 11939 C 1155.23 3.25875 -3.07424 0
M  V30 11940 C 1156.97 4.00584 -1.40473 0
M  V30 11941 C 1154.88 4.64186 -3.66449 0
M  V30 11942 H 1153.81 0.676201 -0.333569 0
M  V30 11943 H 1156.46 1.22169 -1.3692 0
M  V30 11944 H 1154.84 3.82561 -1.0229 0
M  V30 11945 H 1156.02 2.77225 -3.6808 0
M  V30 11946 H 1154.33 2.62969 -3.22856 0
M  V30 11947 H 1156.93 5.02781 -1.81976 0
M  V30 11948 H 1157.27 4.14823 -0.350408 0
M  V30 11949 H 1157.8 3.48668 -1.91508 0
M  V30 11950 H 1154.54 4.5515 -4.71719 0
M  V30 11951 H 1154.06 5.13132 -3.10574 0
M  V30 11952 H 1155.74 5.33161 -3.66536 0
M  V30 11953 N 1155.87 0.935264 1.26849 0
M  V30 11954 C 1157.12 0.57969 1.94025 0
M  V30 11955 C 1157.45 -0.880295 1.73439 0
M  V30 11956 O 1156.7 -1.64429 1.0612 0
M  V30 11957 C 1157 0.861098 3.46872 0
M  V30 11958 C 1156.67 2.30402 3.87589 0
M  V30 11959 C 1155.33 2.69848 3.98417 0
M  V30 11960 C 1157.68 3.242 4.08098 0
M  V30 11961 C 1155.01 4.02199 4.27145 0
M  V30 11962 C 1157.36 4.56141 4.38313 0
M  V30 11963 C 1156.03 4.9541 4.47354 0
M  V30 11964 H 1155.3 0.212123 0.709989 0
M  V30 11965 H 1157.94 1.18066 1.50774 0
M  V30 11966 H 1156.25 0.177534 3.91398 0
M  V30 11967 H 1157.95 0.564841 3.97002 0
M  V30 11968 H 1154.54 1.98803 3.79704 0
M  V30 11969 H 1158.72 2.94924 3.99166 0
M  V30 11970 H 1153.98 4.32295 4.32355 0
M  V30 11971 H 1158.15 5.28818 4.53128 0
M  V30 11972 H 1155.78 5.97994 4.69368 0
M  V30 11973 N 1157.35 -1.41121 0.701616 0
M  V30 11974 C 1158.29 -2.28198 -0.010533 0
M  V30 11975 C 1159.26 -1.42569 -0.78185 0
M  V30 11976 O 1160.45 -1.71993 -0.771408 0
M  V30 11977 C 1157.57 -3.22903 -1.02231 0
M  V30 11978 C 1156.62 -4.25115 -0.343454 0
M  V30 11979 S 1157.45 -5.27563 0.918553 0
M  V30 11980 C 1158.61 -6.25833 -0.0914763 0
M  V30 11981 H 1158.84 -2.88249 0.727995 0
M  V30 11982 H 1156.38 -1.46348 0.492112 0
M  V30 11983 H 1158.33 -3.77997 -1.60089 0
M  V30 11984 H 1156.99 -2.61936 -1.73345 0
M  V30 11985 H 1156.19 -4.91674 -1.10782 0
M  V30 11986 H 1155.79 -3.73648 0.162206 0
M  V30 11987 H 1158.08 -6.70908 -0.942826 0
M  V30 11988 H 1159.02 -7.06035 0.540351 0
M  V30 11989 H 1159.43 -5.62712 -0.448956 0
M  V30 11990 N 1158.83 -0.446794 -1.51134 0
M  V30 11991 C 1160.08 0.116263 -2.01765 0
M  V30 11992 C 1160.4 1.42382 -1.33238 0
M  V30 11993 O 1159.67 1.9018 -0.469915 0
M  V30 11994 H 1158.25 0.0459558 -0.745585 0
M  V30 11995 H 1160.91 -0.591664 -1.85702 0
M  V30 11996 H 1160.01 0.285358 -3.10793 0
M  V30 11997 N 1160.31 1.56586 -0.178487 0
M  V30 11998 C 1161.26 2.19631 0.765822 0
M  V30 11999 C 1162.25 1.16247 1.23219 0
M  V30 12000 O 1163.46 1.34431 1.19701 0
M  V30 12001 H 1159.83 0.703661 0.265264 0
M  V30 12002 H 1161.8 2.97659 0.210207 0
M  V30 12003 C 1160.55 2.85686 1.98188 0
M  V30 12004 H 1159.87 3.64971 1.63206 0
M  V30 12005 H 1161.31 3.33259 2.62134 0
M  V30 12006 C 1159.77 1.85837 2.81009 0
M  V30 12007 O 1160.3 1.3483 3.78396 0
M  V30 12008 N 1158.51 1.54435 2.46167 0
M  V30 12009 H 1158.06 1.96107 1.67032 0
M  V30 12010 H 1158.01 0.878808 3.01868 0
M  V30 12011 N 1161.79 -0.095206 1.57312 0
M  V30 12012 C 1163.03 -0.799903 1.86358 0
M  V30 12013 C 1163.37 -1.78386 0.767593 0
M  V30 12014 O 1162.64 -1.93201 -0.224439 0
M  V30 12015 C 1162.92 -1.52875 3.26039 0
M  V30 12016 C 1162.78 -0.562781 4.46265 0
M  V30 12017 C 1164.1 -2.47935 3.63616 0
M  V30 12018 H 1161.21 -0.289339 0.677829 0
M  V30 12019 H 1163.86 -0.0635369 1.89894 0
M  V30 12020 H 1162.01 -2.15645 3.23156 0
M  V30 12021 H 1163.68 0.0579068 4.61264 0
M  V30 12022 H 1161.92 0.123847 4.33623 0
M  V30 12023 H 1162.59 -1.10989 5.40727 0
M  V30 12024 H 1165.07 -1.95257 3.67442 0
M  V30 12025 H 1163.94 -2.95948 4.62283 0
M  V30 12026 H 1164.21 -3.31687 2.92294 0
M  V30 12027 N 1163.26 -1.53291 -0.366026 0
M  V30 12028 C 1164.51 -1.69702 -1.11036 0
M  V30 12029 C 1164.84 -0.44728 -1.88979 0
M  V30 12030 O 1164.12 0.55542 -1.86401 0
M  V30 12031 C 1164.4 -2.94661 -2.06995 0
M  V30 12032 C 1164.25 -4.29791 -1.32663 0
M  V30 12033 C 1165.57 -3.15219 -3.07123 0
M  V30 12034 H 1162.69 -0.617525 -0.402284 0
M  V30 12035 H 1165.33 -1.85929 -0.391223 0
M  V30 12036 H 1163.48 -2.80958 -2.68318 0
M  V30 12037 H 1165.16 -4.55305 -0.741266 0
M  V30 12038 H 1163.4 -4.29223 -0.628484 0
M  V30 12039 H 1164.07 -5.13359 -2.02896 0
M  V30 12040 H 1166.55 -3.28105 -2.55903 0
M  V30 12041 H 1165.42 -4.04088 -3.71489 0
M  V30 12042 H 1165.68 -2.30479 -3.77269 0
M  V30 12043 N 1164.74 0.6258 -1.44643 0
M  V30 12044 C 1165.97 1.41726 -1.51422 0
M  V30 12045 C 1166.39 1.87565 -0.14181 0
M  V30 12046 O 1165.75 1.59059 0.870054 0
M  V30 12047 C 1165.8 2.61012 -2.48807 0
M  V30 12048 O 1164.9 3.61029 -1.99328 0
M  V30 12049 H 1164.24 0.423855 -0.511119 0
M  V30 12050 H 1166.77 0.763336 -1.89827 0
M  V30 12051 H 1166.78 3.08489 -2.67018 0
M  V30 12052 H 1165.46 2.26995 -3.48491 0
M  V30 12053 H 1164.04 3.20325 -1.90909 0
M  V30 12054 N 1166.22 1.31629 0.866686 0
M  V30 12055 C 1167.45 1.24293 1.6503 0
M  V30 12056 C 1167.86 -0.193556 1.88207 0
M  V30 12057 O 1167.2 -1.13712 1.44275 0
M  V30 12058 C 1167.26 1.92032 3.03914 0
M  V30 12059 C 1166.93 3.41373 3.03831 0
M  V30 12060 C 1167.92 4.37064 2.81551 0
M  V30 12061 C 1165.61 3.83118 3.24848 0
M  V30 12062 C 1167.6 5.72474 2.80272 0
M  V30 12063 C 1165.29 5.18639 3.23197 0
M  V30 12064 C 1166.29 6.13128 3.00936 0
M  V30 12065 O 1165.98 7.46172 2.99137 0
M  V30 12066 H 1165.71 0.430569 0.521139 0
M  V30 12067 H 1168.26 1.74105 1.0898 0
M  V30 12068 H 1166.49 1.36774 3.61704 0
M  V30 12069 H 1168.18 1.78567 3.64512 0
M  V30 12070 H 1168.95 4.06142 2.65093 0
M  V30 12071 H 1164.83 3.10001 3.41204 0
M  V30 12072 H 1168.37 6.46199 2.62816 0
M  V30 12073 H 1164.27 5.49196 3.39197 0
M  V30 12074 H 1165.04 7.55385 3.15175 0
M  V30 12075 N 1167.7 -1.08142 1.14644 0
M  V30 12076 C 1168.63 -2.17139 0.858667 0
M  V30 12077 C 1169.61 -1.69064 -0.187452 0
M  V30 12078 O 1170.8 -1.94151 -0.0435458 0
M  V30 12079 C 1167.93 -3.45648 0.33834 0
M  V30 12080 C 1166.88 -4.07129 1.32021 0
M  V30 12081 C 1166.21 -5.30623 0.659075 0
M  V30 12082 C 1167.51 -4.48095 2.68343 0
M  V30 12083 H 1169.2 -2.41468 1.77012 0
M  V30 12084 H 1166.75 -1.16052 0.852523 0
M  V30 12085 H 1168.7 -4.21216 0.124611 0
M  V30 12086 H 1167.42 -3.2088 -0.608553 0
M  V30 12087 H 1166.08 -3.33596 1.52016 0
M  V30 12088 H 1165.73 -5.02142 -0.293711 0
M  V30 12089 H 1165.43 -5.72714 1.31427 0
M  V30 12090 H 1166.95 -6.08903 0.454933 0
M  V30 12091 H 1168.37 -5.14828 2.5224 0
M  V30 12092 H 1166.76 -5.01113 3.30161 0
M  V30 12093 H 1167.83 -3.59852 3.25015 0
M  V30 12094 N 1169.18 -0.941978 -1.26351 0
M  V30 12095 C 1170.11 -0.469913 -2.28723 0
M  V30 12096 C 1171.09 0.477218 -1.63269 0
M  V30 12097 O 1172.27 0.378902 -1.90468 0
M  V30 12098 C 1169.4 0.264971 -3.46288 0
M  V30 12099 C 1168.36 -0.595682 -4.23834 0
M  V30 12100 C 1167.68 0.269208 -5.34022 0
M  V30 12101 C 1168.98 -1.86743 -4.87775 0
M  V30 12102 H 1170.68 -1.32551 -2.6846 0
M  V30 12103 H 1168.22 -0.638809 -1.29055 0
M  V30 12104 H 1170.18 0.606259 -4.17016 0
M  V30 12105 H 1168.9 1.15471 -3.05506 0
M  V30 12106 H 1167.56 -0.919875 -3.54872 0
M  V30 12107 H 1167.21 1.15832 -4.89481 0
M  V30 12108 H 1166.91 -0.30325 -5.86817 0
M  V30 12109 H 1168.43 0.605748 -6.07588 0
M  V30 12110 H 1169.85 -1.59333 -5.50714 0
M  V30 12111 H 1168.24 -2.38452 -5.50691 0
M  V30 12112 H 1169.31 -2.57831 -4.10671 0
M  V30 12113 N 1170.66 1.40747 -0.709091 0
M  V30 12114 C 1171.9 2.01003 -0.24581 0
M  V30 12115 C 1172.23 1.56203 1.15891 0
M  V30 12116 O 1171.49 0.770166 1.79908 0
M  V30 12117 C 1171.78 3.56404 -0.266685 0
M  V30 12118 C 1171.45 4.20762 -1.6208 0
M  V30 12119 C 1170.11 4.38056 -1.99148 0
M  V30 12120 C 1172.46 4.56723 -2.51105 0
M  V30 12121 C 1169.79 4.88591 -3.248 0
M  V30 12122 C 1172.14 5.08654 -3.76103 0
M  V30 12123 C 1170.81 5.24158 -4.13297 0
M  V30 12124 H 1170.08 0.73552 -0.0899481 0
M  V30 12125 H 1172.73 1.68451 -0.910844 0
M  V30 12126 H 1171.03 3.88825 0.481915 0
M  V30 12127 H 1172.73 4.0085 0.109509 0
M  V30 12128 H 1169.32 4.07685 -1.32252 0
M  V30 12129 H 1173.5 4.43004 -2.23744 0
M  V30 12130 H 1168.76 4.98779 -3.53595 0
M  V30 12131 H 1172.93 5.35457 -4.45262 0
M  V30 12132 H 1170.56 5.63079 -5.10731 0
M  V30 12133 N 1172.13 0.454803 1.50895 0
M  V30 12134 C 1173.06 -0.337982 2.31041 0
M  V30 12135 C 1174.04 -1.00523 1.37219 0
M  V30 12136 O 1175.23 -1.00553 1.66141 0
M  V30 12137 C 1172.36 -1.42964 3.1651 0
M  V30 12138 C 1171.31 -0.884907 4.18752 0
M  V30 12139 C 1170.64 -2.07363 4.92854 0
M  V30 12140 C 1171.94 0.0926716 5.22218 0
M  V30 12141 H 1173.63 0.33089 2.97566 0
M  V30 12142 H 1171.18 0.160577 1.43102 0
M  V30 12143 H 1173.13 -1.9916 3.71367 0
M  V30 12144 H 1171.86 -2.12705 2.47839 0
M  V30 12145 H 1170.52 -0.345031 3.64973 0
M  V30 12146 H 1170.16 -2.75764 4.2067 0
M  V30 12147 H 1169.86 -1.71545 5.62002 0
M  V30 12148 H 1171.39 -2.6408 5.5054 0
M  V30 12149 H 1172.8 -0.379568 5.72042 0
M  V30 12150 H 1171.2 0.3643 5.98993 0
M  V30 12151 H 1172.27 1.02383 4.73968 0
M  V30 12152 N 1173.61 -1.56489 0.186789 0
M  V30 12153 C 1174.54 -2.21705 -0.732739 0
M  V30 12154 C 1175.52 -1.17751 -1.22755 0
M  V30 12155 O 1176.71 -1.46231 -1.27789 0
M  V30 12156 C 1173.84 -2.86992 -1.95584 0
M  V30 12157 C 1172.79 -3.97118 -1.59628 0
M  V30 12158 C 1172.12 -4.49529 -2.89531 0
M  V30 12159 C 1173.42 -5.15941 -0.812518 0
M  V30 12160 H 1175.11 -2.98802 -0.189094 0
M  V30 12161 H 1172.66 -1.43722 -0.0895099 0
M  V30 12162 H 1174.61 -3.31295 -2.60426 0
M  V30 12163 H 1173.33 -2.07287 -2.52388 0
M  V30 12164 H 1171.99 -3.53494 -0.971475 0
M  V30 12165 H 1171.64 -3.66596 -3.44407 0
M  V30 12166 H 1171.34 -5.23832 -2.66221 0
M  V30 12167 H 1172.87 -4.96528 -3.55376 0
M  V30 12168 H 1174.28 -5.56841 -1.36386 0
M  V30 12169 H 1172.68 -5.96259 -0.677862 0
M  V30 12170 H 1173.75 -4.84535 0.188095 0
M  V30 12171 N 1175.09 0.086862 -1.5736 0
M  V30 12172 C 1176.02 1.10538 -2.05678 0
M  V30 12173 C 1177 1.41281 -0.947293 0
M  V30 12174 O 1178.19 1.51169 -1.21908 0
M  V30 12175 C 1175.32 2.42302 -2.48812 0
M  V30 12176 C 1174.27 2.25948 -3.63499 0
M  V30 12177 C 1173.6 3.62961 -3.92637 0
M  V30 12178 C 1174.9 1.69319 -4.94094 0
M  V30 12179 H 1176.59 0.703371 -2.91021 0
M  V30 12180 H 1174.14 0.336895 -1.40004 0
M  V30 12181 H 1176.09 3.13833 -2.81224 0
M  V30 12182 H 1174.81 2.84454 -1.60479 0
M  V30 12183 H 1173.47 1.5686 -3.31347 0
M  V30 12184 H 1173.12 4.02656 -3.01459 0
M  V30 12185 H 1172.82 3.52862 -4.69853 0
M  V30 12186 H 1174.34 4.35946 -4.27531 0
M  V30 12187 H 1175.76 2.30699 -5.24834 0
M  V30 12188 H 1174.15 1.69957 -5.7553 0
M  V30 12189 H 1175.22 0.653318 -4.80479 0
M  V30 12190 N 1176.57 1.53483 0.357892 0
M  V30 12191 C 1177.81 1.70037 1.09971 0
M  V30 12192 C 1178.14 0.456112 1.89076 0
M  V30 12193 O 1177.4 -0.562029 1.87456 0
M  V30 12194 C 1177.7 2.90654 2.07978 0
M  V30 12195 C 1177.36 4.26849 1.45295 0
M  V30 12196 C 1176.02 4.63884 1.27928 0
M  V30 12197 C 1178.38 5.11514 1.00013 0
M  V30 12198 C 1175.7 5.83213 0.638745 0
M  V30 12199 C 1178.06 6.31496 0.373568 0
M  V30 12200 C 1176.72 6.67237 0.187457 0
M  V30 12201 H 1175.99 0.622209 0.402414 0
M  V30 12202 H 1178.64 1.87679 0.380615 0
M  V30 12203 H 1176.94 2.67556 2.86219 0
M  V30 12204 H 1178.64 3.00656 2.65343 0
M  V30 12205 H 1175.23 3.97693 1.59807 0
M  V30 12206 H 1179.41 4.83446 1.12221 0
M  V30 12207 H 1174.67 6.09489 0.483035 0
M  V30 12208 H 1178.84 6.96398 0.0145346 0
M  V30 12209 H 1176.47 7.59564 -0.310933 0
M  V30 12210 N 1178.05 -0.61812 1.44973 0
M  V30 12211 C 1179.27 -1.40921 1.52171 0
M  V30 12212 C 1179.7 -1.87487 0.151755 0
M  V30 12213 O 1179.05 -1.59518 -0.861606 0
M  V30 12214 C 1179.1 -2.59689 2.50188 0
M  V30 12215 O 1178.21 -3.59967 2.0124 0
M  V30 12216 H 1177.55 -0.421138 0.51336 0
M  V30 12217 H 1180.08 -0.753258 1.90229 0
M  V30 12218 H 1180.09 -3.07069 2.6865 0
M  V30 12219 H 1178.76 -2.25144 3.4969 0
M  V30 12220 H 1177.34 -3.19308 1.92605 0
M  V30 12221 N 1179.52 -1.32087 -0.859693 0
M  V30 12222 C 1180.94 -1.10968 -1.14709 0
M  V30 12223 C 1181.14 0.113139 -2.01182 0
M  V30 12224 O 1180.2 0.799499 -2.39508 0
M  V30 12225 C 1181.51 -2.38657 -1.8293 0
M  V30 12226 C 1183.06 -2.44366 -1.95587 0
M  V30 12227 C 1183.53 -3.71963 -2.67222 0
M  V30 12228 N 1185.02 -3.72916 -2.7475 0
M  V30 12229 C 1185.76 -4.68346 -3.30816 0
M  V30 12230 N 1185.25 -5.74139 -3.87732 0
M  V30 12231 N 1187.05 -4.55851 -3.28872 0
M  V30 12232 H 1179.2 -2.10497 -0.283711 0
M  V30 12233 H 1181.46 -0.929108 -0.188315 0
M  V30 12234 H 1181.17 -3.2803 -1.26844 0
M  V30 12235 H 1181.04 -2.49236 -2.83128 0
M  V30 12236 H 1183.43 -1.55456 -2.50833 0
M  V30 12237 H 1183.51 -2.37744 -0.944001 0
M  V30 12238 H 1183.15 -4.61245 -2.1264 0
M  V30 12239 H 1183.08 -3.75855 -3.68837 0
M  V30 12240 H 1185.57 -2.96447 -2.34367 0
M  V30 12241 H 1185.89 -6.43021 -4.28654 0
M  V30 12242 H 1184.23 -5.779 -3.86078 0
M  V30 12243 H 1187.42 -3.72371 -2.83651 0
M  V30 12244 H 1187.6 -5.30398 -3.72266 0
M  V30 12245 N 1181 1.07532 -1.15215 0
M  V30 12246 C 1182.25 1.8036 -0.927263 0
M  V30 12247 C 1182.58 1.86414 0.544371 0
M  V30 12248 O 1181.86 1.34653 1.40353 0
M  V30 12249 C 1182.14 3.25512 -1.53992 0
M  V30 12250 C 1181.99 3.27614 -3.08203 0
M  V30 12251 C 1183.31 4.22731 -1.22418 0
M  V30 12252 H 1180.43 0.654775 -0.338289 0
M  V30 12253 H 1183.07 1.25842 -1.42351 0
M  V30 12254 H 1181.22 3.72068 -1.11791 0
M  V30 12255 H 1182.89 2.89315 -3.59297 0
M  V30 12256 H 1181.14 2.66627 -3.42188 0
M  V30 12257 H 1181.81 4.29956 -3.46182 0
M  V30 12258 H 1184.28 3.84557 -1.58919 0
M  V30 12259 H 1183.16 5.22589 -1.67906 0
M  V30 12260 H 1183.42 4.41875 -0.14091 0
M  V30 12261 N 1182.48 0.948665 1.2585 0
M  V30 12262 C 1183.41 0.482036 2.2847 0
M  V30 12263 C 1184.39 -0.468553 1.63519 0
M  V30 12264 O 1185.58 -0.368796 1.90666 0
M  V30 12265 C 1182.71 -0.246603 3.46423 0
M  V30 12266 C 1181.66 0.61815 4.23513 0
M  V30 12267 C 1180.99 -0.240884 5.34157 0
M  V30 12268 C 1182.29 1.89327 4.86778 0
M  V30 12269 H 1183.98 1.33973 2.67753 0
M  V30 12270 H 1181.53 0.645645 1.28715 0
M  V30 12271 H 1183.48 -0.584135 4.17332 0
M  V30 12272 H 1182.2 -1.13849 3.06114 0
M  V30 12273 H 1180.86 0.938682 3.54379 0
M  V30 12274 H 1180.51 -1.13235 4.90089 0
M  V30 12275 H 1180.21 0.334367 5.86648 0
M  V30 12276 H 1181.73 -0.573517 6.07901 0
M  V30 12277 H 1183.15 1.62252 5.49861 0
M  V30 12278 H 1181.55 2.41369 5.49419 0
M  V30 12279 H 1182.62 2.60006 4.09298 0
M  V30 12280 N 1183.96 -1.40369 0.716545 0
M  V30 12281 C 1184.89 -2.33365 0.0793533 0
M  V30 12282 C 1185.87 -1.52943 -0.744482 0
M  V30 12283 O 1187.05 -1.81406 -0.693212 0
M  V30 12284 C 1184.18 -3.36928 -0.842429 0
M  V30 12285 C 1183.14 -4.2782 -0.124142 0
M  V30 12286 C 1182.46 -5.21928 -1.1617 0
M  V30 12287 C 1183.76 -5.12199 1.02224 0
M  V30 12288 H 1185.46 -2.86899 0.856115 0
M  V30 12289 H 1183 -1.37946 0.413138 0
M  V30 12290 H 1184.96 -4.00925 -1.29759 0
M  V30 12291 H 1183.68 -2.81791 -1.6511 0
M  V30 12292 H 1182.34 -3.65277 0.311201 0
M  V30 12293 H 1181.99 -4.63096 -1.96345 0
M  V30 12294 H 1181.69 -5.83582 -0.685978 0
M  V30 12295 H 1183.21 -5.88802 -1.61694 0
M  V30 12296 H 1184.63 -5.69644 0.646399 0
M  V30 12297 H 1183.02 -5.82901 1.4264 0
M  V30 12298 H 1184.09 -4.4812 1.85246 0
M  V30 12299 N 1185.44 -0.462799 -1.50652 0
M  V30 12300 C 1186.68 0.0951853 -2.02576 0
M  V30 12301 C 1187.02 1.40113 -1.34469 0
M  V30 12302 O 1186.29 1.88793 -0.467702 0
M  V30 12303 C 1186.57 0.287603 -3.5895 0
M  V30 12304 C 1186.43 -1.03878 -4.37641 0
M  V30 12305 C 1187.75 1.04593 -4.27491 0
M  V30 12306 H 1184.86 0.0331191 -0.736255 0
M  V30 12307 H 1187.51 -0.606772 -1.80051 0
M  V30 12308 H 1185.66 0.885514 -3.78274 0
M  V30 12309 H 1187.33 -1.67263 -4.29908 0
M  V30 12310 H 1185.57 -1.6374 -4.01711 0
M  V30 12311 H 1186.24 -0.857889 -5.45293 0
M  V30 12312 H 1188.72 0.539213 -4.12591 0
M  V30 12313 H 1187.59 1.14935 -5.36732 0
M  V30 12314 H 1187.86 2.08045 -3.90089 0
M  V30 12315 N 1186.91 1.56388 -0.195085 0
M  V30 12316 C 1188.19 1.89329 0.491303 0
M  V30 12317 C 1188.57 1.10861 1.79647 0
M  V30 12318 O 1187.92 0.209696 2.27536 0
M  V30 12319 C 1188.13 3.417 0.710096 0
M  V30 12320 C 1189.48 4.11931 1.02947 0
M  V30 12321 O 1190.5 3.4715 0.797817 0
M  V30 12322 O 1189.36 5.26423 1.46767 0
M  V30 12323 H 1186.45 0.786335 0.256137 0
M  V30 12324 H 1189 1.68061 -0.235298 0
M  V30 12325 H 1187.77 3.90727 -0.211604 0
M  V30 12326 H 1187.4 3.6866 1.48916 0
M  V30 12327 N 1188.39 -0.0785156 1.57404 0
M  V30 12328 C 1189.64 -0.778938 1.86919 0
M  V30 12329 C 1189.97 -1.77915 0.785906 0
M  V30 12330 O 1189.22 -1.94473 -0.218811 0
M  V30 12331 C 1189.52 -1.52826 3.23078 0
M  V30 12332 C 1189.19 -0.668645 4.45915 0
M  V30 12333 C 1187.85 -0.43173 4.79259 0
M  V30 12334 C 1190.2 -0.0721327 5.2115 0
M  V30 12335 C 1187.53 0.41129 5.85257 0
M  V30 12336 C 1189.88 0.758303 6.28039 0
M  V30 12337 C 1188.55 1.00515 6.59889 0
M  V30 12338 H 1187.82 -0.285034 0.683986 0
M  V30 12339 H 1190.46 -0.039906 1.91458 0
M  V30 12340 H 1188.77 -2.33931 3.14299 0
M  V30 12341 H 1190.46 -2.07488 3.43147 0
M  V30 12342 H 1187.05 -0.863424 4.19813 0
M  V30 12343 H 1191.24 -0.242297 4.95708 0
M  V30 12344 H 1186.49 0.611354 6.08336 0
M  V30 12345 H 1190.67 1.2273 6.855 0
M  V30 12346 H 1188.3 1.66017 7.41851 0
M  V30 12347 N 1189.87 -1.5367 -0.349747 0
M  V30 12348 C 1190.8 -1.77528 -1.4497 0
M  V30 12349 C 1191.82 -0.656412 -1.4898 0
M  V30 12350 O 1193 -0.933016 -1.52174 0
M  V30 12351 C 1190.1 -1.85445 -2.8366 0
M  V30 12352 C 1189.28 -3.15295 -3.03163 0
M  V30 12353 C 1188.34 -3.1425 -4.22059 0
M  V30 12354 O 1187.36 -3.87994 -4.16472 0
M  V30 12355 N 1188.56 -2.36181 -5.30282 0
M  V30 12356 H 1191.33 -2.72444 -1.24877 0
M  V30 12357 H 1188.89 -1.52644 -0.539586 0
M  V30 12358 H 1190.88 -1.82204 -3.61364 0
M  V30 12359 H 1189.45 -0.977436 -2.96926 0
M  V30 12360 H 1188.67 -3.31711 -2.12983 0
M  V30 12361 H 1189.96 -4.01078 -3.13072 0
M  V30 12362 H 1189.36 -1.75808 -5.37688 0
M  V30 12363 H 1187.92 -2.38744 -6.06502 0
M  V30 12364 N 1191.35 0.610423 -1.45298 0
M  V30 12365 C 1192.76 1.19234 -1.43667 0
M  V30 12366 C 1193.11 1.95523 -0.162794 0
M  V30 12367 O 1192.24 2.03507 0.735789 0
M  V30 12368 C 1192.83 2.16892 -2.60276 0
M  V30 12369 C 1191.39 2.70465 -2.61774 0
M  V30 12370 C 1190.54 1.45821 -2.35863 0
M  V30 12371 H 1193.49 0.399895 -1.53579 0
M  V30 12372 H 1193.51 2.99875 -2.34212 0
M  V30 12373 H 1193.02 1.61339 -3.52975 0
M  V30 12374 H 1191.12 3.29965 -1.73072 0
M  V30 12375 H 1191.23 3.15092 -3.60907 0
M  V30 12376 H 1189.6 1.74678 -1.85364 0
M  V30 12377 H 1190.38 0.921403 -3.30704 0
M  V30 12378 N 1192.83 1.32541 0.852676 0
M  V30 12379 C 1193.79 1.21578 1.94297 0
M  V30 12380 C 1194.79 0.138318 1.60204 0
M  V30 12381 O 1195.98 0.388864 1.69804 0
M  V30 12382 C 1193.11 0.870209 3.29606 0
M  V30 12383 H 1194.3 2.18476 2.05446 0
M  V30 12384 H 1191.86 1.16401 1.0431 0
M  V30 12385 H 1192.59 -0.0968698 3.24155 0
M  V30 12386 H 1192.38 1.64924 3.55728 0
M  V30 12387 H 1193.87 0.817874 4.09513 0
M  V30 12388 N 1194.3 -1.0692 1.15784 0
M  V30 12389 C 1195.72 -1.61069 0.944123 0
M  V30 12390 C 1196.07 -1.8936 -0.513522 0
M  V30 12391 O 1195.19 -1.66232 -1.38549 0
M  V30 12392 C 1195.79 -2.9263 1.70743 0
M  V30 12393 C 1194.35 -3.43505 1.53887 0
M  V30 12394 C 1193.49 -2.17495 1.72021 0
M  V30 12395 H 1196.44 -0.89951 1.30746 0
M  V30 12396 H 1196.46 -3.61757 1.17951 0
M  V30 12397 H 1195.98 -2.72007 2.76828 0
M  V30 12398 H 1194.08 -3.69201 0.502153 0
M  V30 12399 H 1194.19 -4.19254 2.31868 0
M  V30 12400 H 1192.55 -2.27407 1.1471 0
M  V30 12401 H 1193.34 -1.99362 2.79481 0
M  V30 12402 N 1195.78 -0.955326 -1.25345 0
M  V30 12403 C 1197.19 -0.651118 -1.74978 0
M  V30 12404 C 1197.54 0.833495 -1.77616 0
M  V30 12405 O 1196.67 1.65228 -1.39745 0
M  V30 12406 C 1197.26 -1.17521 -3.17764 0
M  V30 12407 C 1195.82 -0.921151 -3.64954 0
M  V30 12408 C 1194.97 -1.31784 -2.43984 0
M  V30 12409 H 1197.92 -1.13205 -1.11222 0
M  V30 12410 H 1197.94 -0.535625 -3.76711 0
M  V30 12411 H 1197.45 -2.25575 -3.15813 0
M  V30 12412 H 1195.56 0.144392 -3.7232 0
M  V30 12413 H 1195.67 -1.5581 -4.53056 0
M  V30 12414 H 1194.03 -0.736219 -2.43828 0
M  V30 12415 H 1194.82 -2.40761 -2.44723 0
M  V30 12416 N 1197.26 1.39987 -0.723979 0
M  V30 12417 C 1198.51 2.00334 -0.266587 0
M  V30 12418 C 1198.83 1.57714 1.14679 0
M  V30 12419 O 1198.1 0.82037 1.77895 0
M  V30 12420 H 1196.68 0.740861 -0.095573 0
M  V30 12421 H 1199.34 1.712 -0.931481 0
M  V30 12422 H 1198.44 3.10594 -0.306282 0
M  V30 12423 N 1198.74 0.470782 1.50404 0
M  V30 12424 C 1199.96 -0.084284 2.07229 0
M  V30 12425 C 1200.39 -1.32774 1.33239 0
M  V30 12426 O 1199.75 -1.77274 0.379971 0
M  V30 12427 C 1199.8 -0.351565 3.58882 0
M  V30 12428 O 1198.9 -1.43211 3.86736 0
M  V30 12429 H 1198.24 0.0128479 0.663876 0
M  V30 12430 H 1200.77 0.661735 1.93603 0
M  V30 12431 H 1200.78 -0.592151 4.0368 0
M  V30 12432 H 1199.46 0.557084 4.12152 0
M  V30 12433 H 1198.03 -1.17886 3.53776 0
M  V30 12434 N 1200.22 -1.56282 0.203376 0
M  V30 12435 C 1201.15 -2.2247 -0.709183 0
M  V30 12436 C 1202.13 -1.19046 -1.21499 0
M  V30 12437 O 1203.31 -1.47578 -1.26231 0
M  V30 12438 C 1200.44 -2.8905 -1.92529 0
M  V30 12439 C 1199.4 -3.98789 -1.55407 0
M  V30 12440 C 1198.72 -4.52574 -2.84747 0
M  V30 12441 C 1200.02 -5.16774 -0.75775 0
M  V30 12442 H 1201.72 -2.98986 -0.157392 0
M  V30 12443 H 1199.26 -1.43808 -0.0742613 0
M  V30 12444 H 1201.22 -3.34038 -2.56898 0
M  V30 12445 H 1199.94 -2.09952 -2.50175 0
M  V30 12446 H 1198.6 -3.54504 -0.933928 0
M  V30 12447 H 1198.25 -3.70229 -3.40499 0
M  V30 12448 H 1197.95 -5.26627 -2.6065 0
M  V30 12449 H 1199.47 -5.00269 -3.5009 0
M  V30 12450 H 1200.89 -5.58256 -1.30472 0
M  V30 12451 H 1199.28 -5.96945 -0.614583 0
M  V30 12452 H 1200.35 -4.84308 0.239476 0
M  V30 12453 N 1201.7 0.070167 -1.57444 0
M  V30 12454 C 1202.61 1.10106 -2.07157 0
M  V30 12455 C 1203.62 1.42293 -1.00143 0
M  V30 12456 O 1204.8 1.52437 -1.31624 0
M  V30 12457 C 1201.86 2.39486 -2.50694 0
M  V30 12458 C 1200.92 2.14255 -3.72012 0
M  V30 12459 C 1200.16 3.37466 -4.13464 0
M  V30 12460 O 1200.38 4.46645 -3.54773 0
M  V30 12461 O 1199.31 3.25583 -5.0624 0
M  V30 12462 H 1203.14 0.70873 -2.95315 0
M  V30 12463 H 1200.72 0.28441 -1.46668 0
M  V30 12464 H 1202.61 3.15625 -2.79212 0
M  V30 12465 H 1201.28 2.78095 -1.65664 0
M  V30 12466 H 1200.19 1.35816 -3.48575 0
M  V30 12467 H 1201.52 1.80525 -4.57899 0
M  V30 12468 N 1203.17 1.53854 0.341593 0
M  V30 12469 C 1204.1 1.84966 1.42513 0
M  V30 12470 C 1205.08 0.704944 1.54805 0
M  V30 12471 O 1206.27 0.957036 1.68981 0
M  V30 12472 C 1203.4 2.06099 2.79536 0
M  V30 12473 C 1202.35 3.21919 2.82049 0
M  V30 12474 C 1201.68 3.28389 4.21977 0
M  V30 12475 C 1202.98 4.59984 2.4741 0
M  V30 12476 H 1204.67 2.7571 1.16724 0
M  V30 12477 H 1202.22 1.32662 0.560073 0
M  V30 12478 H 1204.17 2.26448 3.55386 0
M  V30 12479 H 1202.9 1.12087 3.06764 0
M  V30 12480 H 1201.56 3.01429 2.08653 0
M  V30 12481 H 1201.2 2.3197 4.46317 0
M  V30 12482 H 1200.9 4.0622 4.24569 0
M  V30 12483 H 1202.43 3.50951 4.99666 0
M  V30 12484 H 1203.84 4.80334 3.12973 0
M  V30 12485 H 1202.24 5.40233 2.61282 0
M  V30 12486 H 1203.31 4.6346 1.42594 0
M  V30 12487 N 1204.65 -0.602709 1.4562 0
M  V30 12488 C 1205.58 -1.72374 1.5751 0
M  V30 12489 C 1206.56 -1.64669 0.426389 0
M  V30 12490 O 1207.75 -1.82994 0.650143 0
M  V30 12491 C 1204.88 -3.10987 1.5461 0
M  V30 12492 C 1203.83 -3.33507 2.68248 0
M  V30 12493 C 1203.16 -4.72443 2.50403 0
M  V30 12494 C 1204.46 -3.23285 4.10224 0
M  V30 12495 H 1206.15 -1.62679 2.51348 0
M  V30 12496 H 1203.7 -0.781217 1.20967 0
M  V30 12497 H 1205.65 -3.89214 1.61525 0
M  V30 12498 H 1204.37 -3.21533 0.573049 0
M  V30 12499 H 1203.03 -2.57672 2.60769 0
M  V30 12500 H 1202.68 -4.79729 1.51226 0
M  V30 12501 H 1202.38 -4.88466 3.26611 0
M  V30 12502 H 1203.91 -5.52864 2.59179 0
M  V30 12503 H 1205.32 -3.91381 4.1892 0
M  V30 12504 H 1203.72 -3.50837 4.86861 0
M  V30 12505 H 1204.79 -2.20652 4.31788 0
M  V30 12506 N 1206.13 -1.32992 -0.845635 0
M  V30 12507 C 1207.06 -1.25301 -1.97033 0
M  V30 12508 C 1208.04 -0.134966 -1.69564 0
M  V30 12509 O 1209.23 -0.323629 -1.91484 0
M  V30 12510 C 1206.36 -0.984551 -3.33052 0
M  V30 12511 C 1205.31 -2.06481 -3.749 0
M  V30 12512 C 1204.64 -1.6486 -5.08651 0
M  V30 12513 C 1205.94 -3.48083 -3.89404 0
M  V30 12514 H 1207.63 -2.194 -2.03725 0
M  V30 12515 H 1205.18 -1.05621 -0.978783 0
M  V30 12516 H 1207.13 -0.917269 -4.11296 0
M  V30 12517 H 1205.85 -0.00793116 -3.26599 0
M  V30 12518 H 1204.51 -2.1224 -2.98915 0
M  V30 12519 H 1204.16 -0.659183 -4.98662 0
M  V30 12520 H 1203.86 -2.37145 -5.37621 0
M  V30 12521 H 1205.38 -1.59585 -5.89377 0
M  V30 12522 H 1206.8 -3.44863 -4.57976 0
M  V30 12523 H 1205.19 -4.18796 -4.29802 0
M  V30 12524 H 1206.26 -3.87084 -2.92051 0
M  V30 12525 N 1207.61 1.06304 -1.1635 0
M  V30 12526 C 1208.84 1.82534 -0.967725 0
M  V30 12527 C 1209.25 1.82816 0.487338 0
M  V30 12528 O 1208.59 1.24581 1.35001 0
M  V30 12529 C 1208.65 3.30349 -1.4181 0
M  V30 12530 C 1208.31 3.53769 -2.89303 0
M  V30 12531 C 1209.31 3.46826 -3.87308 0
M  V30 12532 C 1207 3.81094 -3.2722 0
M  V30 12533 C 1208.99 3.66874 -5.21232 0
M  V30 12534 C 1206.68 4.00792 -4.61313 0
M  V30 12535 C 1207.68 3.93679 -5.58127 0
M  V30 12536 O 1207.36 4.12839 -6.89796 0
M  V30 12537 H 1207.1 0.582407 -0.343189 0
M  V30 12538 H 1209.65 1.35022 -1.54784 0
M  V30 12539 H 1207.88 3.78722 -0.781456 0
M  V30 12540 H 1209.57 3.88072 -1.18976 0
M  V30 12541 H 1210.33 3.25706 -3.59361 0
M  V30 12542 H 1206.21 3.85739 -2.5244 0
M  V30 12543 H 1209.76 3.61238 -5.96786 0
M  V30 12544 H 1205.65 4.214 -4.8897 0
M  V30 12545 H 1206.42 4.30128 -6.96371 0
M  V30 12546 N 1209.09 0.96196 1.24836 0
M  V30 12547 C 1210.33 0.620715 1.92752 0
M  V30 12548 C 1210.66 -0.843308 1.75267 0
M  V30 12549 O 1209.92 -1.62141 1.09584 0
M  V30 12550 C 1210.21 0.934481 3.44967 0
M  V30 12551 C 1209.88 2.38572 3.82615 0
M  V30 12552 C 1208.54 2.78238 3.92603 0
M  V30 12553 C 1210.89 3.32784 4.01129 0
M  V30 12554 C 1208.22 4.11169 4.18518 0
M  V30 12555 C 1210.57 4.65336 4.28539 0
M  V30 12556 C 1209.24 5.04788 4.36745 0
M  V30 12557 H 1208.51 0.227136 0.70533 0
M  V30 12558 H 1211.16 1.21237 1.48236 0
M  V30 12559 H 1209.46 0.260516 3.90933 0
M  V30 12560 H 1211.16 0.648923 3.95715 0
M  V30 12561 H 1207.75 2.06812 3.75402 0
M  V30 12562 H 1211.93 3.03325 3.9282 0
M  V30 12563 H 1207.19 4.41368 4.23089 0
M  V30 12564 H 1211.36 5.3831 4.41809 0
M  V30 12565 H 1208.99 6.07816 4.56579 0
M  V30 12566 N 1210.56 -1.39601 0.731392 0
M  V30 12567 C 1211.81 -2.01364 0.287048 0
M  V30 12568 C 1212.16 -1.56991 -1.11227 0
M  V30 12569 O 1211.46 -0.787202 -1.74682 0
M  V30 12570 C 1211.65 -3.55934 0.323352 0
M  V30 12571 C 1211.48 -4.15314 1.72466 0
M  V30 12572 C 1210.25 -4.48059 2.33605 0
M  V30 12573 C 1212.45 -4.39098 2.67764 0
M  V30 12574 N 1210.43 -4.9292 3.65927 0
M  V30 12575 C 1211.8 -4.86124 3.84816 0
M  V30 12576 C 1213.86 -4.2116 2.65572 0
M  V30 12577 C 1212.56 -5.17095 5.00005 0
M  V30 12578 C 1214.59 -4.53242 3.79902 0
M  V30 12579 C 1213.95 -5.00471 4.95689 0
M  V30 12580 H 1210.05 -0.76724 0.151217 0
M  V30 12581 H 1212.63 -1.6958 0.956588 0
M  V30 12582 H 1210.8 -3.87114 -0.315819 0
M  V30 12583 H 1212.53 -4.04461 -0.1392 0
M  V30 12584 H 1209.29 -4.35734 1.85561 0
M  V30 12585 H 1209.71 -5.19713 4.33851 0
M  V30 12586 H 1214.35 -3.83852 1.77251 0
M  V30 12587 H 1212.07 -5.5331 5.8896 0
M  V30 12588 H 1215.66 -4.40988 3.795 0
M  V30 12589 H 1214.54 -5.24826 5.8269 0
M  V30 12590 N 1212.04 -0.478751 -1.50152 0
M  V30 12591 C 1213.01 0.300181 -2.27226 0
M  V30 12592 C 1214.01 0.913705 -1.32318 0
M  V30 12593 O 1215.2 0.781692 -1.55677 0
M  V30 12594 C 1212.33 1.42838 -3.09532 0
M  V30 12595 H 1213.52 -0.375845 -2.97536 0
M  V30 12596 H 1211.07 -0.233037 -1.54553 0
M  V30 12597 H 1211.81 2.13923 -2.43737 0
M  V30 12598 H 1211.59 0.994161 -3.79287 0
M  V30 12599 H 1213.08 1.97765 -3.67802 0
M  V30 12600 N 1213.52 1.56172 -0.211661 0
M  V30 12601 C 1214.77 1.98039 0.422706 0
M  V30 12602 C 1215.1 1.09904 1.60472 0
M  V30 12603 O 1214.35 0.141771 1.95186 0
M  V30 12604 C 1214.65 3.45636 0.909442 0
M  V30 12605 C 1214.32 4.50613 -0.160982 0
M  V30 12606 C 1212.98 4.79043 -0.455064 0
M  V30 12607 C 1215.33 5.13624 -0.885426 0
M  V30 12608 C 1212.66 5.67771 -1.47828 0
M  V30 12609 C 1215.01 6.03459 -1.8979 0
M  V30 12610 C 1213.67 6.30238 -2.19901 0
M  V30 12611 H 1212.94 0.724676 0.154679 0
M  V30 12612 H 1215.59 1.8894 -0.312106 0
M  V30 12613 H 1213.9 3.51889 1.72283 0
M  V30 12614 H 1215.59 3.75395 1.40995 0
M  V30 12615 H 1212.18 4.28528 0.0783864 0
M  V30 12616 H 1216.37 4.91737 -0.671463 0
M  V30 12617 H 1211.62 5.86787 -1.7173 0
M  V30 12618 H 1215.8 6.51338 -2.46438 0
M  V30 12619 H 1213.42 6.98788 -2.9933 0
M  V30 12620 N 1215 -0.0618163 1.57479 0
M  V30 12621 C 1216.23 -0.771724 1.91969 0
M  V30 12622 C 1216.64 -1.7061 0.808549 0
M  V30 12623 O 1216 -1.812 -0.217455 0
M  V30 12624 C 1216.05 -1.55687 3.26257 0
M  V30 12625 O 1215.77 -0.660032 4.331 0
M  V30 12626 C 1217.27 -2.36688 3.74825 0
M  V30 12627 H 1214.49 -0.21885 0.634307 0
M  V30 12628 H 1217.04 -0.0291068 2.04479 0
M  V30 12629 H 1215.19 -2.25167 3.15244 0
M  V30 12630 H 1215.6 -1.20715 5.1042 0
M  V30 12631 H 1217.08 -2.8722 4.7139 0
M  V30 12632 H 1217.56 -3.1666 3.0434 0
M  V30 12633 H 1218.16 -1.72346 3.88815 0
M  V30 12634 N 1216.48 -1.54033 -0.333429 0
M  V30 12635 C 1217.41 -1.85719 -1.4153 0
M  V30 12636 C 1218.39 -0.713144 -1.54429 0
M  V30 12637 O 1219.57 -0.965984 -1.68471 0
M  V30 12638 C 1216.7 -2.07578 -2.78439 0
M  V30 12639 C 1215.66 -3.23411 -2.80338 0
M  V30 12640 C 1214.98 -3.30622 -4.2023 0
M  V30 12641 C 1216.28 -4.6129 -2.44968 0
M  V30 12642 H 1217.98 -2.76325 -1.15261 0
M  V30 12643 H 1215.52 -1.32957 -0.55303 0
M  V30 12644 H 1217.48 -2.28329 -3.5418 0
M  V30 12645 H 1216.2 -1.13713 -3.06165 0
M  V30 12646 H 1214.86 -3.02531 -2.07052 0
M  V30 12647 H 1214.51 -2.34333 -4.45081 0
M  V30 12648 H 1214.21 -4.08466 -4.22409 0
M  V30 12649 H 1215.73 -3.53596 -4.97798 0
M  V30 12650 H 1217.14 -4.81987 -3.10421 0
M  V30 12651 H 1215.54 -5.41611 -2.58414 0
M  V30 12652 H 1216.61 -4.6421 -1.40134 0
M  V30 12653 N 1217.95 0.594978 -1.45938 0
M  V30 12654 C 1218.88 1.71536 -1.58422 0
M  V30 12655 C 1219.87 1.64441 -0.435116 0
M  V30 12656 O 1221.05 1.82647 -0.659839 0
M  V30 12657 C 1218.18 3.10163 -1.56257 0
M  V30 12658 C 1217.13 3.3208 -2.70013 0
M  V30 12659 C 1216.46 4.71108 -2.52905 0
M  V30 12660 C 1217.76 3.21105 -4.11933 0
M  V30 12661 H 1219.45 1.61344 -2.52207 0
M  V30 12662 H 1217 0.774791 -1.2138 0
M  V30 12663 H 1218.95 3.88352 -1.63587 0
M  V30 12664 H 1217.68 3.21225 -0.590093 0
M  V30 12665 H 1216.34 2.56286 -2.62132 0
M  V30 12666 H 1215.98 4.7892 -1.53768 0
M  V30 12667 H 1215.68 4.86727 -3.29197 0
M  V30 12668 H 1217.21 5.51482 -2.62107 0
M  V30 12669 H 1218.62 3.89153 -4.2099 0
M  V30 12670 H 1217.02 3.4825 -4.88715 0
M  V30 12671 H 1218.09 2.18359 -4.32952 0
M  V30 12672 N 1219.43 1.33438 0.838571 0
M  V30 12673 C 1220.67 1.26245 1.60753 0
M  V30 12674 C 1221.04 -0.169255 1.91253 0
M  V30 12675 O 1222.24 -0.365157 2.66308 0
M  V30 12676 C 1220.51 2.11348 2.88213 0
M  V30 12677 S 1222.07 2.21348 3.78881 0
M  V30 12678 H 1218.89 0.449132 0.551182 0
M  V30 12679 H 1221.49 1.68474 0.991798 0
M  V30 12680 H 1220.19 3.14402 2.63779 0
M  V30 12681 H 1219.72 1.69957 3.54793 0
M  V30 12682 H 1221.74 1.37477 4.76775 0
M  V30 12683 N 1220.91 -1.05686 1.16912 0
M  V30 12684 C 1221.82 -2.16824 0.8958 0
M  V30 12685 C 1222.84 -1.73482 -0.134215 0
M  V30 12686 O 1224.01 -2.01352 0.0438776 0
M  V30 12687 C 1221.08 -3.44298 0.407427 0
M  V30 12688 C 1220.14 -4.02114 1.50342 0
M  V30 12689 C 1219.37 -5.23503 1.03826 0
M  V30 12690 O 1219.59 -5.70295 -0.109579 0
M  V30 12691 O 1218.53 -5.73432 1.8292 0
M  V30 12692 H 1222.35 -2.42725 1.82533 0
M  V30 12693 H 1219.94 -1.15339 0.949589 0
M  V30 12694 H 1221.82 -4.21159 0.142356 0
M  V30 12695 H 1220.5 -3.19908 -0.494009 0
M  V30 12696 H 1219.4 -3.26715 1.82231 0
M  V30 12697 H 1220.74 -4.30811 2.38039 0
M  V30 12698 N 1222.39 -0.968567 -1.24324 0
M  V30 12699 C 1223.3 -0.50703 -2.29055 0
M  V30 12700 C 1224.31 0.432431 -1.68541 0
M  V30 12701 O 1225.49 0.30526 -1.99073 0
M  V30 12702 C 1222.56 0.194589 -3.46153 0
M  V30 12703 C 1221.62 -0.784805 -4.22066 0
M  V30 12704 C 1220.85 -0.116574 -5.33573 0
M  V30 12705 O 1221.07 1.09492 -5.59792 0
M  V30 12706 O 1220.01 -0.809171 -5.96436 0
M  V30 12707 H 1223.83 -1.3777 -2.70653 0
M  V30 12708 H 1221.42 -0.735645 -1.30033 0
M  V30 12709 H 1223.3 0.588684 -4.17268 0
M  V30 12710 H 1221.97 1.04021 -3.06531 0
M  V30 12711 H 1220.88 -1.22938 -3.53323 0
M  V30 12712 H 1222.21 -1.59887 -4.65507 0
M  V30 12713 N 1223.87 1.39211 -0.738786 0
M  V30 12714 C 1224.8 2.33209 -0.11647 0
M  V30 12715 C 1225.78 1.54108 0.720056 0
M  V30 12716 O 1226.96 1.82486 0.664264 0
M  V30 12717 C 1224.09 3.38226 0.78872 0
M  V30 12718 C 1223.05 4.27963 0.0560636 0
M  V30 12719 C 1222.37 5.2371 1.07852 0
M  V30 12720 C 1223.67 5.10508 -1.1036 0
M  V30 12721 H 1225.37 2.85501 -0.901649 0
M  V30 12722 H 1222.91 1.37272 -0.435032 0
M  V30 12723 H 1224.87 4.02938 1.23364 0
M  V30 12724 H 1223.59 2.84382 1.60606 0
M  V30 12725 H 1222.25 3.64735 -0.369274 0
M  V30 12726 H 1221.9 4.66161 1.88953 0
M  V30 12727 H 1221.6 5.846 0.593048 0
M  V30 12728 H 1223.12 5.91299 1.52307 0
M  V30 12729 H 1224.53 5.68544 -0.736943 0
M  V30 12730 H 1222.93 5.80558 -1.51895 0
M  V30 12731 H 1224 4.45117 -1.92352 0
M  V30 12732 N 1225.34 0.486708 1.49896 0
M  V30 12733 C 1226.76 0.141788 1.58969 0
M  V30 12734 C 1226.96 -1.35279 1.49338 0
M  V30 12735 O 1226.02 -2.1275 1.35992 0
M  V30 12736 C 1227.33 0.70588 2.92297 0
M  V30 12737 C 1228.88 0.670704 3.0573 0
M  V30 12738 C 1229.35 1.21261 4.41656 0
M  V30 12739 N 1230.84 1.17269 4.4811 0
M  V30 12740 C 1231.58 1.56233 5.51705 0
M  V30 12741 N 1231.07 2.02721 6.62477 0
M  V30 12742 N 1232.87 1.47738 5.42337 0
M  V30 12743 H 1225.02 1.45858 1.544 0
M  V30 12744 H 1227.28 0.604137 0.730563 0
M  V30 12745 H 1226.99 1.7535 3.04869 0
M  V30 12746 H 1226.86 0.158215 3.76868 0
M  V30 12747 H 1229.25 -0.368041 2.92796 0
M  V30 12748 H 1229.33 1.25535 2.22878 0
M  V30 12749 H 1228.97 2.25006 4.5534 0
M  V30 12750 H 1228.9 0.604031 5.23124 0
M  V30 12751 H 1231.39 0.831905 3.6863 0
M  V30 12752 H 1231.71 2.3056 7.37606 0
M  V30 12753 H 1230.05 2.06686 6.63556 0
M  V30 12754 H 1233.24 1.11249 4.54688 0
M  V30 12755 H 1233.42 1.78429 6.2295 0
M  V30 12756 N 1226.82 -1.56058 0.219941 0
M  V30 12757 C 1227.76 -2.17494 -0.723133 0
M  V30 12758 C 1228.77 -1.14356 -1.15873 0
M  V30 12759 O 1229.96 -1.41343 -1.09016 0
M  V30 12760 C 1227.06 -2.74242 -1.99109 0
M  V30 12761 C 1226.23 -4.02533 -1.71132 0
M  V30 12762 C 1225.29 -4.43862 -2.82618 0
M  V30 12763 O 1224.32 -5.10792 -2.51157 0
M  V30 12764 N 1225.52 -4.09412 -4.11537 0
M  V30 12765 H 1228.28 -2.99048 -0.197619 0
M  V30 12766 H 1225.84 -1.61853 0.0388738 0
M  V30 12767 H 1227.84 -2.98862 -2.7288 0
M  V30 12768 H 1226.41 -1.97 -2.42713 0
M  V30 12769 H 1225.63 -3.85786 -0.810128 0
M  V30 12770 H 1226.91 -4.86227 -1.49868 0
M  V30 12771 H 1226.31 -3.55624 -4.39941 0
M  V30 12772 H 1224.87 -4.38928 -4.81857 0
M  V30 12773 N 1228.3 0.053464 -1.57509 0
M  V30 12774 C 1229.55 0.747622 -1.87763 0
M  V30 12775 C 1229.87 1.77178 -0.814433 0
M  V30 12776 O 1229.14 1.95287 0.154862 0
M  V30 12777 H 1227.72 0.279109 -0.692898 0
M  V30 12778 H 1230.38 0.0252006 -1.94884 0
M  V30 12779 H 1229.48 1.25244 -2.85868 0
M  V30 12780 N 1229.78 1.54207 0.325255 0
M  V30 12781 C 1230.71 1.86467 1.40543 0
M  V30 12782 C 1231.69 0.721324 1.54048 0
M  V30 12783 O 1232.88 0.974905 1.67956 0
M  V30 12784 C 1230.01 2.09052 2.77335 0
M  V30 12785 C 1228.96 3.24893 2.78619 0
M  V30 12786 C 1228.29 3.32846 4.1847 0
M  V30 12787 C 1229.59 4.62582 2.42518 0
M  V30 12788 H 1231.28 2.76932 1.13794 0
M  V30 12789 H 1228.83 1.33248 0.545971 0
M  V30 12790 H 1230.78 2.30204 3.52964 0
M  V30 12791 H 1229.5 1.15335 3.05558 0
M  V30 12792 H 1228.16 3.03625 2.05444 0
M  V30 12793 H 1227.81 2.3669 4.43832 0
M  V30 12794 H 1227.51 4.10701 4.20237 0
M  V30 12795 H 1229.03 3.56231 4.95915 0
M  V30 12796 H 1230.45 4.83627 3.07861 0
M  V30 12797 H 1228.84 5.42974 2.55538 0
M  V30 12798 H 1229.91 4.64946 1.3767 0
M  V30 12799 N 1231.26 -0.58723 1.46251 0
M  V30 12800 C 1232.48 -1.37661 1.55126 0
M  V30 12801 C 1232.91 -1.87123 0.191489 0
M  V30 12802 O 1232.27 -1.6131 -0.827576 0
M  V30 12803 C 1232.31 -2.54324 2.5564 0
M  V30 12804 O 1231.42 -3.55617 2.0883 0
M  V30 12805 H 1230.76 -0.410154 0.522178 0
M  V30 12806 H 1233.29 -0.712738 1.91784 0
M  V30 12807 H 1233.3 -3.01301 2.75103 0
M  V30 12808 H 1231.97 -2.17675 3.54387 0
M  V30 12809 H 1230.55 -3.15151 1.99335 0
M  V30 12810 N 1232.74 -1.33881 -0.831482 0
M  V30 12811 C 1233.98 -1.25507 -1.58406 0
M  V30 12812 C 1234.3 0.177137 -1.94194 0
M  V30 12813 O 1233.57 1.10769 -1.61576 0
M  V30 12814 H 1232.15 -0.461551 -0.587349 0
M  V30 12815 H 1234.82 -1.6769 -0.99328 0
M  V30 12816 H 1233.91 -1.85391 -2.51071 0
M  V30 12817 N 1234.21 1.05064 -1.1747 0
M  V30 12818 C 1235.46 1.77737 -0.961979 0
M  V30 12819 C 1235.78 1.88198 0.510551 0
M  V30 12820 O 1235.05 1.39968 1.37062 0
M  V30 12821 H 1233.63 0.658366 -0.352935 0
M  V30 12822 H 1236.29 1.26851 -1.47969 0
M  V30 12823 H 1235.39 2.79368 -1.39141 0
M  V30 12824 N 1235.69 0.975146 1.23809 0
M  V30 12825 C 1236.94 0.639858 1.91704 0
M  V30 12826 C 1237.26 -0.828557 1.76522 0
M  V30 12827 O 1236.53 -1.59217 1.14135 0
M  V30 12828 H 1235.11 0.233667 0.709513 0
M  V30 12829 H 1237.77 1.23782 1.50545 0
M  V30 12830 H 1236.87 0.886915 2.99233 0
M  V30 12831 N 1237.17 -1.38817 0.746158 0
M  V30 12832 C 1238.42 -1.99885 0.298425 0
M  V30 12833 C 1238.74 -1.59518 -1.12156 0
M  V30 12834 O 1238.01 -0.848568 -1.76568 0
M  V30 12835 H 1236.59 -0.739247 0.107347 0
M  V30 12836 H 1239.25 -1.69696 0.9586 0
M  V30 12837 H 1238.35 -3.10067 0.355656 0
M  V30 12838 N 1238.65 -0.49465 -1.49636 0
M  V30 12839 C 1239.87 0.051305 -2.07337 0
M  V30 12840 C 1240.3 1.30637 -1.35335 0
M  V30 12841 O 1239.66 1.76647 -0.408126 0
M  V30 12842 C 1239.7 0.294425 -3.59396 0
M  V30 12843 O 1238.81 1.3704 -3.88965 0
M  V30 12844 H 1238.15 -0.023408 -0.663587 0
M  V30 12845 H 1240.68 -0.692451 -1.92526 0
M  V30 12846 H 1240.69 0.527854 -4.04571 0
M  V30 12847 H 1239.36 -0.622583 -4.11214 0
M  V30 12848 H 1237.94 1.12242 -3.55607 0
M  V30 12849 N 1240.13 1.55939 -0.228214 0
M  V30 12850 C 1241.06 2.2357 0.6737 0
M  V30 12851 C 1242.04 1.20964 1.1959 0
M  V30 12852 O 1243.22 1.49568 1.23867 0
M  V30 12853 C 1240.35 2.92076 1.87906 0
M  V30 12854 C 1239.31 4.01211 1.49043 0
M  V30 12855 C 1238.63 4.57047 2.77511 0
M  V30 12856 C 1239.93 5.17914 0.67544 0
M  V30 12857 H 1241.63 2.99199 0.109806 0
M  V30 12858 H 1239.17 1.43908 0.0513732 0
M  V30 12859 H 1241.12 3.38083 2.51551 0
M  V30 12860 H 1239.85 2.13906 2.46803 0
M  V30 12861 H 1238.51 3.55945 0.877411 0
M  V30 12862 H 1238.16 3.75599 3.34566 0
M  V30 12863 H 1237.86 5.30707 2.52239 0
M  V30 12864 H 1239.38 5.05776 3.42087 0
M  V30 12865 H 1240.79 5.60261 1.21575 0
M  V30 12866 H 1239.19 5.97847 0.519536 0
M  V30 12867 H 1240.26 4.83866 -0.316495 0
M  V30 12868 N 1241.6 -0.0451101 1.57535 0
M  V30 12869 C 1242.57 -1.03521 2.0449 0
M  V30 12870 C 1243.57 -1.30009 0.946265 0
M  V30 12871 O 1244.76 -1.25282 1.21038 0
M  V30 12872 C 1241.89 -2.37221 2.44824 0
M  V30 12873 H 1243.08 -0.629943 2.93209 0
M  V30 12874 H 1240.64 -0.291544 1.53557 0
M  V30 12875 H 1241.37 -2.82528 1.59212 0
M  V30 12876 H 1241.16 -2.19329 3.25018 0
M  V30 12877 H 1242.65 -3.08337 2.81635 0
M  V30 12878 N 1243.08 -1.54377 -0.317073 0
M  V30 12879 C 1244.31 -1.77184 -1.07798 0
M  V30 12880 C 1244.73 -0.52204 -1.80711 0
M  V30 12881 O 1244.09 0.52672 -1.7348 0
M  V30 12882 C 1244.14 -2.96887 -2.04671 0
M  V30 12883 O 1243.24 -2.68887 -3.12688 0
M  V30 12884 H 1242.58 -0.586937 -0.310485 0
M  V30 12885 H 1245.11 -2.01419 -0.35939 0
M  V30 12886 H 1245.12 -3.24414 -2.47426 0
M  V30 12887 H 1243.8 -3.87518 -1.51005 0
M  V30 12888 H 1242.38 -2.52329 -2.74562 0
M  V30 12889 N 1244.56 0.579466 -1.4656 0
M  V30 12890 C 1245.81 1.33492 -1.51738 0
M  V30 12891 C 1246.13 1.94241 -0.171926 0
M  V30 12892 O 1245.4 1.78737 0.801875 0
M  V30 12893 H 1243.98 0.49565 -0.558874 0
M  V30 12894 H 1246.64 0.678394 -1.82712 0
M  V30 12895 H 1245.74 2.13995 -2.27183 0
M  V30 12896 N 1246.04 1.3432 0.824371 0
M  V30 12897 C 1247.29 1.26345 1.57738 0
M  V30 12898 C 1247.61 -0.166836 1.94285 0
M  V30 12899 O 1246.88 -1.09911 1.62162 0
M  V30 12900 H 1245.46 0.46466 0.584893 0
M  V30 12901 H 1248.12 1.68214 0.984373 0
M  V30 12902 H 1247.22 1.8672 2.50084 0
M  V30 12903 N 1247.52 -1.0444 1.18026 0
M  V30 12904 C 1248.93 -1.5903 0.978076 0
M  V30 12905 C 1249.28 -1.90407 -0.473241 0
M  V30 12906 O 1248.4 -1.69133 -1.34992 0
M  V30 12907 C 1249 -2.88942 1.76912 0
M  V30 12908 C 1247.56 -3.40164 1.61139 0
M  V30 12909 C 1246.7 -2.13797 1.76596 0
M  V30 12910 H 1249.66 -0.871574 1.32625 0
M  V30 12911 H 1249.68 -3.59173 1.25598 0
M  V30 12912 H 1249.19 -2.66074 2.82535 0
M  V30 12913 H 1247.29 -3.68053 0.580353 0
M  V30 12914 H 1247.4 -4.14241 2.40709 0
M  V30 12915 H 1245.77 -2.24922 1.19507 0
M  V30 12916 H 1246.55 -1.93389 2.83647 0
M  V30 12917 N 1248.99 -0.981699 -1.2329 0
M  V30 12918 C 1250.24 -0.650015 -1.91361 0
M  V30 12919 C 1250.56 0.819184 -1.76959 0
M  V30 12920 O 1249.83 1.5861 -1.14977 0
M  V30 12921 H 1248.41 -0.237427 -0.708264 0
M  V30 12922 H 1251.08 -1.24579 -1.49887 0
M  V30 12923 H 1250.17 -0.902772 -2.98758 0
M  V30 12924 N 1250.47 1.3842 -0.753509 0
M  V30 12925 C 1251.88 1.82847 -0.377331 0
M  V30 12926 C 1252.23 1.62867 1.09401 0
M  V30 12927 O 1251.36 1.12981 1.84565 0
M  V30 12928 C 1251.95 3.31945 -0.678095 0
M  V30 12929 C 1250.51 3.7472 -0.355196 0
M  V30 12930 C 1249.66 2.61193 -0.931311 0
M  V30 12931 H 1252.61 1.2715 -0.949667 0
M  V30 12932 H 1252.63 3.80475 0.0437292 0
M  V30 12933 H 1252.14 3.46455 -1.74902 0
M  V30 12934 H 1250.25 3.65789 0.70915 0
M  V30 12935 H 1250.36 4.71487 -0.850693 0
M  V30 12936 H 1248.72 2.5219 -0.356695 0
M  V30 12937 H 1249.51 2.78503 -2.00727 0
M  V30 12938 N 1251.95 0.502579 1.49372 0
M  V30 12939 C 1253.2 -0.0412993 2.02058 0
M  V30 12940 C 1253.52 -1.37338 1.38431 0
M  V30 12941 O 1252.79 -1.88305 0.540175 0
M  V30 12942 H 1251.37 -0.0182522 0.746777 0
M  V30 12943 H 1254.03 0.660179 1.83378 0
M  V30 12944 H 1253.13 -0.169812 3.11638 0
M  V30 12945 N 1253.43 -1.55816 0.23648 0
M  V30 12946 C 1254.38 -2.17588 -0.681145 0
M  V30 12947 C 1255.36 -1.12862 -1.14678 0
M  V30 12948 O 1256.55 -1.38805 -1.09829 0
M  V30 12949 C 1253.68 -2.87086 -1.88246 0
M  V30 12950 C 1252.77 -3.99056 -1.43581 0
M  V30 12951 N 1253.16 -5.00895 -0.702704 0
M  V30 12952 C 1251.46 -4.11419 -1.72192 0
M  V30 12953 C 1252.16 -5.79775 -0.472866 0
M  V30 12954 N 1251.14 -5.33675 -1.034 0
M  V30 12955 H 1254.94 -2.93684 -0.112772 0
M  V30 12956 H 1252.45 -1.62355 0.0383551 0
M  V30 12957 H 1254.45 -3.29761 -2.55075 0
M  V30 12958 H 1253.11 -2.1249 -2.45516 0
M  V30 12959 H 1254.12 -5.1669 -0.353865 0
M  V30 12960 H 1250.8 -3.47987 -2.30676 0
M  V30 12961 H 1252.19 -6.71807 0.111664 0
M  V30 12962 N 1254.91 0.036755 -1.57557 0
M  V30 12963 C 1255.87 1.02435 -2.05036 0
M  V30 12964 C 1256.87 1.29506 -0.953146 0
M  V30 12965 O 1258.06 1.24638 -1.217 0
M  V30 12966 C 1255.19 2.3592 -2.46079 0
M  V30 12967 H 1256.38 0.614384 -2.93539 0
M  V30 12968 H 1253.94 0.283396 -1.53709 0
M  V30 12969 H 1254.67 2.8168 -1.60708 0
M  V30 12970 H 1254.46 2.17603 -3.26177 0
M  V30 12971 H 1255.95 3.06839 -2.83266 0
M  V30 12972 N 1256.39 1.54543 0.308881 0
M  V30 12973 C 1257.61 1.77753 1.06857 0
M  V30 12974 C 1258.04 0.531616 1.80431 0
M  V30 12975 O 1257.39 -0.517513 1.73757 0
M  V30 12976 C 1257.44 2.97968 2.03094 0
M  V30 12977 O 1256.55 2.70541 3.11257 0
M  V30 12978 H 1255.89 0.588576 0.307368 0
M  V30 12979 H 1258.42 2.01607 0.348703 0
M  V30 12980 H 1258.43 3.25722 2.45702 0
M  V30 12981 H 1257.1 3.88314 1.48948 0
M  V30 12982 H 1255.68 2.53781 2.7322 0
M  V30 12983 N 1257.86 -0.571685 1.46866 0
M  V30 12984 C 1258.79 -1.68994 1.61131 0
M  V30 12985 C 1259.77 -1.63728 0.461222 0
M  V30 12986 O 1260.96 -1.81574 0.688813 0
M  V30 12987 C 1258.09 -3.07638 1.61172 0
M  V30 12988 C 1257.04 -3.27742 2.75262 0
M  V30 12989 C 1256.37 -4.67025 2.60368 0
M  V30 12990 C 1257.67 -3.14511 4.16989 0
M  V30 12991 H 1259.36 -1.57311 2.54742 0
M  V30 12992 H 1256.91 -0.755382 1.22597 0
M  V30 12993 H 1258.86 -3.857 1.69744 0
M  V30 12994 H 1257.59 -3.20245 0.641122 0
M  V30 12995 H 1256.25 -2.52083 2.66176 0
M  V30 12996 H 1255.89 -4.76413 1.61368 0
M  V30 12997 H 1255.59 -4.81428 3.36899 0
M  V30 12998 H 1257.12 -5.47242 2.70848 0
M  V30 12999 H 1258.53 -3.82407 4.27128 0
M  V30 13000 H 1256.93 -3.40431 4.94193 0
M  V30 13001 H 1258 -2.11443 4.36371 0
M  V30 13002 N 1259.34 -1.34755 -0.817236 0
M  V30 13003 C 1260.57 -1.30676 -1.61054 0
M  V30 13004 C 1260.99 0.115343 -1.87746 0
M  V30 13005 O 1260.35 1.07887 -1.45705 0
M  V30 13006 C 1260.4 -2.10881 -2.92509 0
M  V30 13007 O 1259.5 -1.48223 -3.84842 0
M  V30 13008 H 1258.84 -0.448531 -0.489608 0
M  V30 13009 H 1261.37 -1.77642 -1.01512 0
M  V30 13010 H 1261.38 -2.22446 -3.42026 0
M  V30 13011 H 1260.06 -3.14274 -2.72406 0
M  V30 13012 H 1258.63 -1.45434 -3.4337 0
M  V30 13013 N 1260.82 1.03812 -1.18578 0
M  V30 13014 C 1261.75 2.11928 -0.872871 0
M  V30 13015 C 1262.76 1.62275 0.130592 0
M  V30 13016 O 1263.95 1.78233 -0.0975869 0
M  V30 13017 C 1261.05 3.37714 -0.283321 0
M  V30 13018 C 1260.23 4.16591 -1.33307 0
M  V30 13019 C 1259.29 5.20701 -0.758746 0
M  V30 13020 O 1258.31 5.50837 -1.43412 0
M  V30 13021 N 1259.51 5.78811 0.442505 0
M  V30 13022 H 1262.28 2.39364 -1.80346 0
M  V30 13023 H 1259.84 1.20027 -1.08652 0
M  V30 13024 H 1261.83 4.04538 0.114524 0
M  V30 13025 H 1260.4 3.07699 0.551347 0
M  V30 13026 H 1259.62 3.45051 -1.90613 0
M  V30 13027 H 1260.91 4.66082 -2.04071 0
M  V30 13028 H 1260.31 5.56631 1.00889 0
M  V30 13029 H 1258.86 6.47089 0.78224 0
M  V30 13030 N 1262.3 0.988223 1.22768 0
M  V30 13031 C 1263.71 0.69816 1.4352 0
M  V30 13032 C 1263.91 -0.732872 1.877 0
M  V30 13033 O 1262.97 -1.50436 2.02793 0
M  V30 13034 C 1264.28 1.69975 2.4805 0
M  V30 13035 C 1265.83 1.71467 2.61855 0
M  V30 13036 C 1266.31 2.70477 3.69603 0
M  V30 13037 N 1267.8 2.69043 3.77055 0
M  V30 13038 C 1268.53 3.42319 4.60006 0
M  V30 13039 N 1268.03 4.2518 5.46986 0
M  V30 13040 N 1269.82 3.31047 4.54274 0
M  V30 13041 H 1261.97 1.91251 0.923948 0
M  V30 13042 H 1264.23 0.82455 0.467783 0
M  V30 13043 H 1263.94 2.72354 2.22523 0
M  V30 13044 H 1263.81 1.48885 3.46573 0
M  V30 13045 H 1266.2 0.697889 2.86729 0
M  V30 13046 H 1266.28 1.96625 1.63622 0
M  V30 13047 H 1265.93 3.72302 3.45476 0
M  V30 13048 H 1265.86 2.42591 4.67394 0
M  V30 13049 H 1268.35 2.08914 3.14902 0
M  V30 13050 H 1268.66 4.77929 6.07292 0
M  V30 13051 H 1267.01 4.29268 5.46584 0
M  V30 13052 H 1270.2 2.65758 3.85345 0
M  V30 13053 H 1270.37 3.88413 5.1869 0
M  V30 13054 N 1263.78 -1.38018 0.760839 0
M  V30 13055 C 1264.71 -2.32995 0.153557 0
M  V30 13056 C 1265.69 -1.55234 -0.695448 0
M  V30 13057 O 1266.87 -1.8352 -0.635148 0
M  V30 13058 C 1264 -3.39437 -0.734811 0
M  V30 13059 C 1262.96 -4.27998 0.0120287 0
M  V30 13060 C 1262.28 -5.25359 -0.995067 0
M  V30 13061 C 1263.58 -5.08687 1.18468 0
M  V30 13062 H 1265.28 -2.8403 0.946956 0
M  V30 13063 H 1262.82 -1.36562 0.456816 0
M  V30 13064 H 1264.77 -4.0485 -1.16938 0
M  V30 13065 H 1263.5 -2.86901 -1.56061 0
M  V30 13066 H 1262.16 -3.64102 0.427254 0
M  V30 13067 H 1261.81 -4.69108 -1.81512 0
M  V30 13068 H 1261.51 -5.85469 -0.499969 0
M  V30 13069 H 1263.03 -5.93648 -1.4288 0
M  V30 13070 H 1264.44 -5.67299 0.8273 0
M  V30 13071 H 1262.84 -5.78068 1.61112 0
M  V30 13072 H 1263.91 -4.42 1.99409 0
M  V30 13073 N 1265.25 -0.510493 -1.49103 0
M  V30 13074 C 1266.67 -0.167061 -1.58723 0
M  V30 13075 C 1266.87 1.32886 -1.51471 0
M  V30 13076 O 1265.93 2.10559 -1.39359 0
M  V30 13077 C 1267.24 -0.752293 -2.91137 0
M  V30 13078 C 1268.79 -0.719258 -3.04624 0
M  V30 13079 C 1269.26 -1.28272 -4.39671 0
M  V30 13080 N 1270.75 -1.24383 -4.46187 0
M  V30 13081 C 1271.49 -1.6499 -5.4915 0
M  V30 13082 N 1270.98 -2.13235 -6.59168 0
M  V30 13083 N 1272.78 -1.56348 -5.39918 0
M  V30 13084 H 1264.93 -1.48296 -1.5206 0
M  V30 13085 H 1267.19 -0.615683 -0.72086 0
M  V30 13086 H 1266.9 -1.80178 -3.02041 0
M  V30 13087 H 1266.77 -0.218152 -3.76569 0
M  V30 13088 H 1269.16 0.321413 -2.93344 0
M  V30 13089 H 1269.24 -1.29065 -2.20852 0
M  V30 13090 H 1268.88 -2.32222 -4.51703 0
M  V30 13091 H 1268.81 -0.687179 -5.22097 0
M  V30 13092 H 1271.3 -0.890446 -3.67259 0
M  V30 13093 H 1271.62 -2.42266 -7.33844 0
M  V30 13094 H 1269.96 -2.17216 -6.60183 0
M  V30 13095 H 1273.15 -1.18469 -4.52861 0
M  V30 13096 H 1273.33 -1.88317 -6.20033 0
M  V30 13097 N 1266.73 1.55688 -0.24474 0
M  V30 13098 C 1267.66 2.24272 0.64995 0
M  V30 13099 C 1268.64 1.22226 1.183 0
M  V30 13100 O 1269.83 1.50873 1.22274 0
M  V30 13101 C 1266.96 2.94053 1.84798 0
M  V30 13102 C 1265.91 4.02769 1.44779 0
M  V30 13103 C 1265.24 4.59965 2.72647 0
M  V30 13104 C 1266.54 5.18601 0.62047 0
M  V30 13105 H 1268.23 2.99298 0.0780654 0
M  V30 13106 H 1265.78 1.43955 0.0361069 0
M  V30 13107 H 1267.73 3.40732 2.47951 0
M  V30 13108 H 1266.45 2.16511 2.44521 0
M  V30 13109 H 1265.11 3.56856 0.839609 0
M  V30 13110 H 1264.76 3.79126 3.30564 0
M  V30 13111 H 1264.46 5.33352 2.46596 0
M  V30 13112 H 1265.99 5.09376 3.36703 0
M  V30 13113 H 1267.4 5.61519 1.15625 0
M  V30 13114 H 1265.8 5.98364 0.456097 0
M  V30 13115 H 1266.87 4.83503 -0.367798 0
M  V30 13116 N 1268.21 -0.0283989 1.57574 0
M  V30 13117 C 1269.44 -0.729772 1.93282 0
M  V30 13118 C 1269.85 -1.69384 0.842959 0
M  V30 13119 O 1269.19 -1.82722 -0.189286 0
M  V30 13120 C 1269.25 -1.54107 3.24794 0
M  V30 13121 C 1268.92 -0.741709 4.50941 0
M  V30 13122 C 1269.91 -0.0416985 5.19883 0
M  V30 13123 C 1267.6 -0.696053 4.97454 0
M  V30 13124 C 1269.59 0.693261 6.33619 0
M  V30 13125 C 1267.28 0.042651 6.11085 0
M  V30 13126 C 1268.28 0.736067 6.79022 0
M  V30 13127 O 1267.97 1.46278 7.9048 0
M  V30 13128 H 1267.7 -0.210092 0.642524 0
M  V30 13129 H 1270.25 0.0102277 2.05397 0
M  V30 13130 H 1268.48 -2.3249 3.09007 0
M  V30 13131 H 1270.17 -2.12512 3.45823 0
M  V30 13132 H 1270.94 -0.0679975 4.84952 0
M  V30 13133 H 1266.82 -1.22528 4.44419 0
M  V30 13134 H 1270.36 1.23504 6.8658 0
M  V30 13135 H 1266.26 0.0708708 6.45461 0
M  V30 13136 H 1267.02 1.37652 8.06842 0
M  V30 13137 N 1269.69 -1.54705 -0.300681 0
M  V30 13138 C 1270.62 -1.88679 -1.37559 0
M  V30 13139 C 1271.6 -0.74574 -1.52881 0
M  V30 13140 O 1272.78 -1.0015 -1.66384 0
M  V30 13141 C 1269.91 -2.13438 -2.73974 0
M  V30 13142 C 1268.87 -3.29284 -2.73415 0
M  V30 13143 C 1268.19 -3.39462 -4.13122 0
M  V30 13144 C 1269.49 -4.66382 -2.35128 0
M  V30 13145 H 1271.19 -2.78707 -1.09373 0
M  V30 13146 H 1268.73 -1.341 -0.524704 0
M  V30 13147 H 1270.69 -2.35791 -3.49257 0
M  V30 13148 H 1269.41 -1.20181 -3.03684 0
M  V30 13149 H 1268.07 -3.06855 -2.00588 0
M  V30 13150 H 1267.72 -2.43721 -4.4001 0
M  V30 13151 H 1267.42 -4.17334 -4.1365 0
M  V30 13152 H 1268.94 -3.64075 -4.90185 0
M  V30 13153 H 1270.36 -4.88463 -3.00128 0
M  V30 13154 H 1268.75 -5.4697 -2.46867 0
M  V30 13155 H 1269.82 -4.67078 -1.30256 0
M  V30 13156 N 1271.17 0.563888 -1.47167 0
M  V30 13157 C 1272.13 1.65359 -1.58711 0
M  V30 13158 C 1273.13 1.53999 -0.46272 0
M  V30 13159 O 1274.32 1.58277 -0.727595 0
M  V30 13160 C 1271.45 3.04874 -1.52529 0
M  V30 13161 H 1272.64 1.56475 -2.55843 0
M  V30 13162 H 1270.2 0.783271 -1.35257 0
M  V30 13163 H 1270.93 3.19297 -0.56747 0
M  V30 13164 H 1270.72 3.14528 -2.34125 0
M  V30 13165 H 1272.21 3.84164 -1.63731 0
M  V30 13166 N 1272.64 1.35187 0.810078 0
M  V30 13167 C 1273.92 1.18832 1.55365 0
M  V30 13168 C 1274.3 -0.233956 2.098 0
M  V30 13169 O 1273.65 -1.23701 1.92121 0
M  V30 13170 C 1273.86 2.25351 2.66492 0
M  V30 13171 C 1275.21 2.60981 3.34924 0
M  V30 13172 O 1276.23 2.24238 2.7676 0
M  V30 13173 O 1275.09 3.24147 4.3999 0
M  V30 13174 H 1272.18 0.461446 0.686292 0
M  V30 13175 H 1274.73 1.46858 0.850341 0
M  V30 13176 H 1273.5 3.20762 2.24115 0
M  V30 13177 H 1273.13 1.98575 3.44462 0
M  V30 13178 N 1274.12 -1.03182 1.19127 0
M  V30 13179 C 1275.35 -1.80703 1.01791 0
M  V30 13180 C 1275.77 -1.83147 -0.428824 0
M  V30 13181 O 1275.13 -1.2553 -1.30812 0
M  V30 13182 C 1275.18 -3.23754 1.58794 0
M  V30 13183 O 1274.28 -4.04261 0.815274 0
M  V30 13184 H 1273.62 -0.557944 0.359992 0
M  V30 13185 H 1276.15 -1.29887 1.58084 0
M  V30 13186 H 1276.16 -3.7451 1.61884 0
M  V30 13187 H 1274.84 -3.2129 2.64094 0
M  V30 13188 H 1273.42 -3.62909 0.857392 0
M  V30 13189 N 1275.6 -0.99472 -1.22242 0
M  V30 13190 C 1276.85 -0.682256 -1.91616 0
M  V30 13191 C 1277.2 0.777397 -1.75995 0
M  V30 13192 O 1276.49 1.55509 -1.11926 0
M  V30 13193 C 1276.69 -1.02561 -3.42368 0
M  V30 13194 C 1276.52 -2.5171 -3.72656 0
M  V30 13195 C 1275.29 -3.18144 -3.92571 0
M  V30 13196 C 1277.49 -3.49835 -3.76988 0
M  V30 13197 N 1275.47 -4.5675 -4.10186 0
M  V30 13198 C 1276.84 -4.73907 -3.99765 0
M  V30 13199 C 1278.89 -3.44116 -3.59845 0
M  V30 13200 C 1277.6 -5.92957 -4.07179 0
M  V30 13201 C 1279.62 -4.62545 -3.68519 0
M  V30 13202 C 1278.98 -5.85417 -3.91748 0
M  V30 13203 H 1275.08 -0.300961 -0.721766 0
M  V30 13204 H 1277.67 -1.2751 -1.47137 0
M  V30 13205 H 1275.84 -0.461327 -3.85651 0
M  V30 13206 H 1277.57 -0.66895 -3.99133 0
M  V30 13207 H 1274.33 -2.68608 -3.9006 0
M  V30 13208 H 1274.75 -5.28649 -4.22917 0
M  V30 13209 H 1279.39 -2.50134 -3.40871 0
M  V30 13210 H 1277.11 -6.87341 -4.24956 0
M  V30 13211 H 1280.7 -4.59711 -3.56591 0
M  V30 13212 H 1279.58 -6.75525 -3.98291 0
M  V30 13213 N 1277.08 1.37613 -0.768148 0
M  V30 13214 C 1278.03 2.3218 -0.13974 0
M  V30 13215 C 1279.02 1.54754 0.689023 0
M  V30 13216 O 1280.23 1.70177 0.586489 0
M  V30 13217 H 1276.6 0.751536 -0.0264001 0
M  V30 13218 H 1278.57 2.82768 -0.953139 0
M  V30 13219 C 1277.32 3.39997 0.727829 0
M  V30 13220 H 1276.64 3.99676 0.0994851 0
M  V30 13221 H 1278.08 4.08538 1.13456 0
M  V30 13222 C 1276.54 2.79778 1.87686 0
M  V30 13223 O 1277.07 2.70241 2.97208 0
M  V30 13224 N 1275.28 2.37373 1.67637 0
M  V30 13225 H 1274.83 2.4533 0.785552 0
M  V30 13226 H 1274.78 1.97426 2.44684 0
M  V30 13227 N 1278.56 0.518393 1.4883 0
M  V30 13228 C 1279.49 -0.287642 2.27388 0
M  V30 13229 C 1280.5 -0.914974 1.34655 0
M  V30 13230 O 1281.69 -0.795373 1.598 0
M  V30 13231 C 1278.79 -1.42149 3.07647 0
M  V30 13232 C 1277.96 -0.898238 4.28078 0
M  V30 13233 C 1277.02 -1.91179 4.90242 0
M  V30 13234 O 1276.05 -1.47337 5.498 0
M  V30 13235 N 1277.25 -3.24331 4.81445 0
M  V30 13236 H 1280.02 0.386047 2.97203 0
M  V30 13237 H 1277.58 0.352002 1.58027 0
M  V30 13238 H 1279.57 -2.09745 3.46106 0
M  V30 13239 H 1278.14 -1.99903 2.40328 0
M  V30 13240 H 1277.36 -0.0466326 3.94172 0
M  V30 13241 H 1278.65 -0.527338 5.0606 0
M  V30 13242 H 1278.04 -3.62627 4.34187 0
M  V30 13243 H 1276.6 -3.87593 5.24037 0
M  V30 13244 N 1280.03 -1.55556 0.252993 0
M  V30 13245 C 1281.27 -2.00995 -0.371513 0
M  V30 13246 C 1281.64 -1.13739 -1.54685 0
M  V30 13247 O 1282.84 -1.4866 -2.2395 0
M  V30 13248 C 1281.11 -3.49112 -0.765205 0
M  V30 13249 S 1282.67 -4.16556 -1.37938 0
M  V30 13250 H 1279.49 -0.70137 -0.116625 0
M  V30 13251 H 1282.09 -1.91973 0.369654 0
M  V30 13252 H 1280.79 -4.1028 0.0994153 0
M  V30 13253 H 1280.32 -3.62073 -1.5384 0
M  V30 13254 H 1282.34 -4.18346 -2.66835 0
M  V30 13255 N 1281.51 0.0200419 -1.57587 0
M  V30 13256 C 1282.79 0.744946 -1.80859 0
M  V30 13257 C 1283.17 1.93089 -0.853218 0
M  V30 13258 O 1282.52 2.28269 0.10261 0
M  V30 13259 C 1282.73 1.16952 -3.28821 0
M  V30 13260 C 1284.08 1.5817 -3.9404 0
M  V30 13261 O 1285.1 1.26385 -3.33024 0
M  V30 13262 O 1283.96 2.17197 -5.01486 0
M  V30 13263 H 1281.05 0.360995 -0.744051 0
M  V30 13264 H 1283.6 -0.00387374 -1.697 0
M  V30 13265 H 1282.37 0.323304 -3.89962 0
M  V30 13266 H 1281.99 1.97807 -3.44903 0
M  V30 13267 N 1282.99 1.54862 0.292472 0
M  V30 13268 C 1283.92 1.89406 1.36556 0
M  V30 13269 C 1284.9 0.753838 1.52484 0
M  V30 13270 O 1286.09 1.01031 1.6585 0
M  V30 13271 C 1283.22 2.14888 2.72838 0
M  V30 13272 C 1282.17 3.3073 2.71665 0
M  V30 13273 C 1281.5 3.41648 4.11316 0
M  V30 13274 C 1282.8 4.67622 2.32651 0
M  V30 13275 H 1284.49 2.79284 1.07894 0
M  V30 13276 H 1282.04 1.34377 0.517585 0
M  V30 13277 H 1283.99 2.3764 3.48002 0
M  V30 13278 H 1282.71 1.2179 3.03042 0
M  V30 13279 H 1281.37 3.07915 1.98958 0
M  V30 13280 H 1281.02 2.46051 4.38711 0
M  V30 13281 H 1280.72 4.19522 4.11431 0
M  V30 13282 H 1282.24 3.6667 4.88248 0
M  V30 13283 H 1283.66 4.90048 2.97533 0
M  V30 13284 H 1282.06 5.48272 2.43963 0
M  V30 13285 H 1283.13 4.67762 1.27777 0
M  V30 13286 N 1284.47 -0.556076 1.47464 0
M  V30 13287 C 1285.71 -1.31515 1.54375 0
M  V30 13288 C 1286.05 -1.93106 0.205837 0
M  V30 13289 O 1285.32 -1.77927 -0.785643 0
M  V30 13290 C 1285.61 -2.4244 2.66261 0
M  V30 13291 C 1285.46 -1.8571 4.09673 0
M  V30 13292 C 1286.78 -3.4436 2.74051 0
M  V30 13293 H 1283.9 -0.476817 0.561974 0
M  V30 13294 H 1286.54 -0.622157 1.79525 0
M  V30 13295 H 1284.69 -3.01551 2.44948 0
M  V30 13296 H 1286.36 -1.30851 4.42353 0
M  V30 13297 H 1284.6 -1.16379 4.17898 0
M  V30 13298 H 1285.27 -2.65904 4.83735 0
M  V30 13299 H 1287.75 -2.95169 2.93282 0
M  V30 13300 H 1286.63 -4.194 3.54111 0
M  V30 13301 H 1286.89 -4.03281 1.81155 0
M  V30 13302 N 1285.95 -1.35615 -0.802897 0
M  V30 13303 C 1286.91 -1.28705 -1.89651 0
M  V30 13304 C 1287.91 -0.197681 -1.5958 0
M  V30 13305 O 1289.1 -0.451618 -1.68244 0
M  V30 13306 C 1286.23 -0.991941 -3.26149 0
M  V30 13307 H 1287.43 -2.25951 -1.97196 0
M  V30 13308 H 1284.98 -1.20192 -0.999179 0
M  V30 13309 H 1285.71 -0.0235051 -3.24291 0
M  V30 13310 H 1285.5 -1.78013 -3.49362 0
M  V30 13311 H 1286.99 -0.969298 -4.06195 0
M  V30 13312 N 1287.43 1.02549 -1.19673 0
M  V30 13313 C 1288.36 2.12794 -0.961289 0
M  V30 13314 C 1289.34 1.69766 0.106575 0
M  V30 13315 O 1290.52 1.94138 -0.0491358 0
M  V30 13316 C 1287.65 3.4364 -0.502868 0
M  V30 13317 C 1286.61 4.00367 -1.51296 0
M  V30 13318 C 1285.93 5.26874 -0.911491 0
M  V30 13319 C 1287.23 4.34782 -2.89416 0
M  V30 13320 H 1288.93 2.32748 -1.88331 0
M  V30 13321 H 1286.47 1.11852 -0.906922 0
M  V30 13322 H 1288.42 4.20141 -0.325436 0
M  V30 13323 H 1287.15 3.23418 0.454764 0
M  V30 13324 H 1285.81 3.25964 -1.67759 0
M  V30 13325 H 1285.46 5.02971 0.0537982 0
M  V30 13326 H 1285.16 5.65791 -1.58602 0
M  V30 13327 H 1286.68 6.06039 -0.74493 0
M  V30 13328 H 1288.09 5.02207 -2.76516 0
M  V30 13329 H 1286.49 4.8479 -3.53693 0
M  V30 13330 H 1287.56 3.43935 -3.41814 0
M  V30 13331 N 1288.9 1.00119 1.21713 0
M  V30 13332 C 1290.13 0.700431 1.94683 0
M  V30 13333 C 1290.55 -0.736333 1.73849 0
M  V30 13334 O 1289.9 -1.49778 1.04272 0
M  V30 13335 C 1289.95 1.00722 3.47185 0
M  V30 13336 O 1289.68 2.38754 3.67326 0
M  V30 13337 C 1291.18 0.725335 4.37326 0
M  V30 13338 H 1288.4 0.25843 0.619238 0
M  V30 13339 H 1290.94 1.3382 1.54636 0
M  V30 13340 H 1289.1 0.415117 3.85169 0
M  V30 13341 H 1289.51 2.49321 4.61454 0
M  V30 13342 H 1290.98 0.990202 5.43046 0
M  V30 13343 H 1291.46 -0.340649 4.37877 0
M  V30 13344 H 1292.07 1.29888 4.04981 0
M  V30 13345 N 1290.38 -1.37203 0.775435 0
M  V30 13346 C 1291.62 -2.01439 0.346649 0
M  V30 13347 C 1291.99 -1.60223 -1.05795 0
M  V30 13348 O 1293.19 -2.16947 -1.58706 0
M  V30 13349 C 1291.46 -3.54031 0.489584 0
M  V30 13350 S 1293.02 -4.38555 0.146606 0
M  V30 13351 H 1289.83 -0.698417 0.133173 0
M  V30 13352 H 1292.44 -1.67338 1.01086 0
M  V30 13353 H 1291.14 -3.81516 1.51241 0
M  V30 13354 H 1290.67 -3.92936 -0.19105 0
M  V30 13355 H 1292.69 -4.8482 -1.05661 0
M  V30 13356 N 1291.86 -0.526279 -1.48553 0
M  V30 13357 C 1293.11 0.0091665 -2.02498 0
M  V30 13358 C 1293.43 1.34632 -1.40373 0
M  V30 13359 O 1292.69 1.88172 -0.537573 0
M  V30 13360 C 1292.99 0.184075 -3.56926 0
M  V30 13361 C 1292.65 -1.07825 -4.37818 0
M  V30 13362 C 1291.32 -1.42422 -4.59641 0
M  V30 13363 C 1293.67 -1.91616 -4.84699 0
M  V30 13364 C 1291 -2.60713 -5.25591 0
M  V30 13365 C 1293.35 -3.09082 -5.51952 0
M  V30 13366 C 1292.01 -3.44029 -5.72014 0
M  V30 13367 H 1291.28 0.00335426 -0.740992 0
M  V30 13368 H 1293.93 -0.691553 -1.78577 0
M  V30 13369 H 1292.23 0.967532 -3.79666 0
M  V30 13370 H 1293.93 0.613226 -3.96283 0
M  V30 13371 H 1290.52 -0.798812 -4.2109 0
M  V30 13372 H 1294.71 -1.66199 -4.67645 0
M  V30 13373 H 1289.96 -2.87996 -5.39322 0
M  V30 13374 H 1294.14 -3.74317 -5.87247 0
M  V30 13375 H 1291.76 -4.35789 -6.2289 0
M  V30 13376 N 1293.34 1.5542 -0.261239 0
M  V30 13377 C 1294.27 2.24949 0.626126 0
M  V30 13378 C 1295.25 1.23474 1.16997 0
M  V30 13379 O 1296.43 1.52161 1.20667 0
M  V30 13380 C 1293.56 2.95996 1.81669 0
M  V30 13381 C 1292.52 4.04282 1.40499 0
M  V30 13382 C 1291.84 4.62831 2.67753 0
M  V30 13383 C 1293.14 5.1923 0.56543 0
M  V30 13384 H 1294.84 2.99364 0.0463164 0
M  V30 13385 H 1292.38 1.43985 0.0208366 0
M  V30 13386 H 1294.34 3.43343 2.44323 0
M  V30 13387 H 1293.06 2.19093 2.42211 0
M  V30 13388 H 1291.72 3.57726 0.801712 0
M  V30 13389 H 1291.37 3.82611 3.26524 0
M  V30 13390 H 1291.07 5.35938 2.40925 0
M  V30 13391 H 1292.59 5.12918 3.31281 0
M  V30 13392 H 1294.01 5.62714 1.09663 0
M  V30 13393 H 1292.4 5.98814 0.392607 0
M  V30 13394 H 1293.47 4.83086 -0.419059 0
M  V30 13395 N 1294.82 -0.0116844 1.57596 0
M  V30 13396 C 1295.75 -1.00599 2.10718 0
M  V30 13397 C 1296.73 -1.36601 1.01362 0
M  V30 13398 O 1297.91 -1.4518 1.28982 0
M  V30 13399 C 1295.04 -2.30155 2.60089 0
M  V30 13400 C 1294 -2.08347 3.73866 0
M  V30 13401 C 1293.32 -3.43814 4.09507 0
M  V30 13402 C 1294.62 -1.45552 5.01609 0
M  V30 13403 H 1296.32 -0.563721 2.94045 0
M  V30 13404 H 1293.86 -0.269714 1.41452 0
M  V30 13405 H 1295.81 -3.00058 2.95877 0
M  V30 13406 H 1294.54 -2.76473 1.73868 0
M  V30 13407 H 1293.2 -1.40872 3.38453 0
M  V30 13408 H 1292.85 -3.87814 3.20326 0
M  V30 13409 H 1292.55 -3.30043 4.86154 0
M  V30 13410 H 1294.07 -4.15052 4.47844 0
M  V30 13411 H 1295.48 -2.05396 5.35243 0
M  V30 13412 H 1293.88 -1.42304 5.82983 0
M  V30 13413 H 1294.95 -0.423331 4.83049 0
M  V30 13414 N 1296.29 -1.55015 -0.284256 0
M  V30 13415 C 1297.54 -1.74744 -1.01532 0
M  V30 13416 C 1297.86 -0.545334 -1.87219 0
M  V30 13417 O 1297.13 0.440046 -1.90894 0
M  V30 13418 H 1295.71 -0.644382 -0.377864 0
M  V30 13419 H 1298.37 -1.92399 -0.311199 0
M  V30 13420 H 1297.47 -2.64369 -1.65878 0
M  V30 13421 N 1297.77 0.548248 -1.47757 0
M  V30 13422 C 1299.02 1.30694 -1.55071 0
M  V30 13423 C 1299.35 1.92994 -0.216075 0
M  V30 13424 O 1298.63 1.78341 0.776196 0
M  V30 13425 C 1298.91 2.41024 -2.67543 0
M  V30 13426 C 1298.76 1.83534 -4.10652 0
M  V30 13427 C 1300.08 3.42902 -2.75874 0
M  V30 13428 H 1297.2 0.47383 -0.564494 0
M  V30 13429 H 1299.84 0.612628 -1.79852 0
M  V30 13430 H 1297.99 3.00248 -2.46543 0
M  V30 13431 H 1299.66 1.28503 -4.4304 0
M  V30 13432 H 1297.91 1.14161 -4.18509 0
M  V30 13433 H 1298.58 2.63335 -4.85138 0
M  V30 13434 H 1301.05 2.9361 -2.94843 0
M  V30 13435 H 1299.93 4.17516 -3.5633 0
M  V30 13436 H 1300.19 4.02314 -1.83291 0
M  V30 13437 N 1299.25 1.36039 0.795694 0
M  V30 13438 C 1300.5 1.29663 1.55023 0
M  V30 13439 C 1300.82 -0.125588 1.94595 0
M  V30 13440 O 1300.09 -1.06447 1.64456 0
M  V30 13441 H 1298.67 0.476962 0.574906 0
M  V30 13442 H 1301.33 1.70265 0.948471 0
M  V30 13443 H 1300.43 1.91982 2.46068 0
M  V30 13444 N 1300.73 -1.01913 1.20215 0
M  V30 13445 C 1301.97 -1.77015 1.02202 0
M  V30 13446 C 1302.33 -1.86927 -0.43845 0
M  V30 13447 O 1303.53 -2.58451 -0.73869 0
M  V30 13448 C 1301.8 -3.15244 1.68393 0
M  V30 13449 S 1303.36 -4.06414 1.65449 0
M  V30 13450 H 1300.18 -0.609242 0.366531 0
M  V30 13451 H 1302.78 -1.22044 1.52727 0
M  V30 13452 H 1301.49 -3.05653 2.73869 0
M  V30 13453 H 1301.02 -3.7529 1.17988 0
M  V30 13454 H 1303.03 -4.91441 0.685571 0
M  V30 13455 N 1302.21 -1.00763 -1.2118 0
M  V30 13456 C 1303.62 -0.720905 -1.42391 0
M  V30 13457 C 1303.82 0.702918 -1.88842 0
M  V30 13458 O 1302.88 1.47191 -2.05161 0
M  V30 13459 C 1304.19 -1.739 -2.45315 0
M  V30 13460 C 1305.74 -1.75611 -2.59094 0
M  V30 13461 C 1306.21 -2.76323 -3.65253 0
M  V30 13462 N 1307.71 -2.75007 -3.72727 0
M  V30 13463 C 1308.44 -3.49594 -4.54502 0
M  V30 13464 N 1307.94 -4.33828 -5.40153 0
M  V30 13465 N 1309.73 -3.38232 -4.4895 0
M  V30 13466 H 1301.88 -1.92697 -0.893404 0
M  V30 13467 H 1304.14 -0.831888 -0.454606 0
M  V30 13468 H 1303.85 -2.75859 -2.18162 0
M  V30 13469 H 1303.72 -1.5438 -3.44161 0
M  V30 13470 H 1306.11 -0.743416 -2.85582 0
M  V30 13471 H 1306.19 -1.99203 -1.60474 0
M  V30 13472 H 1305.84 -3.77751 -3.39509 0
M  V30 13473 H 1305.77 -2.49996 -4.63476 0
M  V30 13474 H 1308.26 -2.13897 -3.11539 0
M  V30 13475 H 1308.57 -4.8753 -5.99612 0
M  V30 13476 H 1306.91 -4.3791 -5.39685 0
M  V30 13477 H 1310.11 -2.71855 -3.81068 0
M  V30 13478 H 1310.28 -3.96615 -5.12445 0
M  V30 13479 N 1303.68 1.3679 -0.7827 0
M  V30 13480 C 1304.61 2.32721 -0.190604 0
M  V30 13481 C 1305.6 1.56321 0.670663 0
M  V30 13482 O 1306.78 1.84507 0.605871 0
M  V30 13483 C 1303.91 3.40564 0.680717 0
M  V30 13484 C 1302.86 4.27925 -0.080118 0
M  V30 13485 C 1302.19 5.26876 0.911361 0
M  V30 13486 C 1303.49 5.06738 -1.26545 0
M  V30 13487 H 1305.18 2.82488 -0.992023 0
M  V30 13488 H 1302.73 1.35818 -0.478484 0
M  V30 13489 H 1304.68 4.06659 1.10482 0
M  V30 13490 H 1303.41 2.89348 1.51477 0
M  V30 13491 H 1302.07 3.63376 -0.485125 0
M  V30 13492 H 1301.71 4.71936 1.74026 0
M  V30 13493 H 1301.41 5.8619 0.406762 0
M  V30 13494 H 1302.94 5.95846 1.33418 0
M  V30 13495 H 1304.35 5.65911 -0.917448 0
M  V30 13496 H 1302.75 5.75432 -1.70289 0
M  V30 13497 H 1303.82 4.38772 -2.06415 0
M  V30 13498 N 1305.16 0.53415 1.48272 0
M  V30 13499 C 1306.39 0.00574475 2.06899 0
M  V30 13500 C 1306.81 -1.27754 1.39012 0
M  V30 13501 O 1306.16 -1.76102 0.478993 0
M  V30 13502 C 1306.21 -0.217576 3.60845 0
M  V30 13503 O 1305.93 1.01487 4.26183 0
M  V30 13504 C 1307.44 -0.785888 4.36278 0
M  V30 13505 H 1304.66 0.0353967 0.670066 0
M  V30 13506 H 1307.2 0.740984 1.90603 0
M  V30 13507 H 1305.35 -0.902875 3.76732 0
M  V30 13508 H 1305.77 0.7982 5.18391 0
M  V30 13509 H 1307.24 -0.891551 5.44753 0
M  V30 13510 H 1307.72 -1.79178 4.00989 0
M  V30 13511 H 1308.33 -0.137022 4.25079 0
M  V30 13512 N 1306.64 -1.55279 0.269478 0
M  V30 13513 C 1308.05 -1.85286 -0.229372 0
M  V30 13514 C 1308.4 -1.19148 -1.55879 0
M  V30 13515 O 1307.53 -0.4778 -2.11059 0
M  V30 13516 C 1308.12 -3.3615 -0.42296 0
M  V30 13517 C 1306.68 -3.66301 -0.866047 0
M  V30 13518 C 1305.83 -2.77265 0.0439028 0
M  V30 13519 H 1308.78 -1.509 0.491427 0
M  V30 13520 H 1308.8 -3.5895 -1.26234 0
M  V30 13521 H 1308.31 -3.84258 0.544768 0
M  V30 13522 H 1306.41 -3.23688 -1.84545 0
M  V30 13523 H 1306.53 -4.73851 -0.707274 0
M  V30 13524 H 1304.89 -2.50299 -0.471433 0
M  V30 13525 H 1305.67 -3.28186 1.00741 0
M  V30 13526 N 1308.12 0.00332656 -1.576 0
M  V30 13527 C 1309.37 0.687508 -1.90047 0
M  V30 13528 C 1309.69 1.74497 -0.870388 0
M  V30 13529 O 1308.96 1.95681 0.0926544 0
M  V30 13530 H 1307.54 0.256924 -0.701426 0
M  V30 13531 H 1310.2 -0.0368129 -1.94865 0
M  V30 13532 H 1309.3 1.16086 -2.89707 0
M  V30 13533 N 1309.6 1.55164 0.276031 0
M  V30 13534 C 1310.53 1.90844 1.34539 0
M  V30 13535 C 1311.51 0.769968 1.51676 0
M  V30 13536 O 1312.69 1.02785 1.64769 0
M  V30 13537 C 1309.82 2.17769 2.70543 0
M  V30 13538 C 1308.78 3.33592 2.68142 0
M  V30 13539 C 1308.1 3.45991 4.07669 0
M  V30 13540 C 1309.4 4.70064 2.27678 0
M  V30 13541 H 1311.1 2.80412 1.04926 0
M  V30 13542 H 1308.64 1.34918 0.503303 0
M  V30 13543 H 1310.6 2.41317 3.45462 0
M  V30 13544 H 1309.32 1.24997 3.01734 0
M  V30 13545 H 1307.98 3.10007 1.95681 0
M  V30 13546 H 1307.63 2.50691 4.36077 0
M  V30 13547 H 1307.33 4.23862 4.06958 0
M  V30 13548 H 1308.85 3.71828 4.84331 0
M  V30 13549 H 1310.26 4.93176 2.92319 0
M  V30 13550 H 1308.66 5.50829 2.38134 0
M  V30 13551 H 1309.73 4.69091 1.22808 0
M  V30 13552 N 1311.07 -0.540404 1.48045 0
M  V30 13553 C 1312.3 -1.31986 1.58944 0
M  V30 13554 C 1312.71 -1.87608 0.244889 0
M  V30 13555 O 1312.06 -1.66576 -0.774467 0
M  V30 13556 C 1312.12 -2.51547 2.56835 0
M  V30 13557 C 1311.78 -2.17089 4.02146 0
M  V30 13558 C 1312.78 -1.73379 4.90138 0
M  V30 13559 C 1310.46 -2.27932 4.47607 0
M  V30 13560 C 1312.46 -1.40964 6.21617 0
M  V30 13561 C 1310.14 -1.95129 5.7911 0
M  V30 13562 C 1311.14 -1.51715 6.65937 0
M  V30 13563 O 1310.83 -1.19337 7.94993 0
M  V30 13564 H 1310.56 -0.408028 0.538971 0
M  V30 13565 H 1313.12 -0.659748 1.94516 0
M  V30 13566 H 1311.35 -3.20505 2.16364 0
M  V30 13567 H 1313.04 -3.13617 2.57681 0
M  V30 13568 H 1313.8 -1.64481 4.56258 0
M  V30 13569 H 1309.68 -2.6068 3.8022 0
M  V30 13570 H 1313.22 -1.07005 6.89344 0
M  V30 13571 H 1309.12 -2.03664 6.12528 0
M  V30 13572 H 1309.89 -1.32824 8.07651 0
M  V30 13573 N 1312.55 -1.36459 -0.788468 0
M  V30 13574 C 1313.5 -1.27391 -1.89092 0
M  V30 13575 C 1314.49 -0.165201 -1.6005 0
M  V30 13576 O 1315.68 -0.398097 -1.72465 0
M  V30 13577 C 1312.81 -1.06639 -3.26317 0
M  V30 13578 C 1311.89 -2.21981 -3.61366 0
M  V30 13579 N 1312.28 -3.47302 -3.67716 0
M  V30 13580 C 1310.58 -2.13767 -3.91433 0
M  V30 13581 C 1311.28 -4.2326 -3.99031 0
M  V30 13582 N 1310.26 -3.52211 -4.14063 0
M  V30 13583 H 1314.06 -2.22318 -1.92229 0
M  V30 13584 H 1311.58 -1.29191 -0.98404 0
M  V30 13585 H 1313.57 -0.982292 -4.05162 0
M  V30 13586 H 1312.23 -0.126129 -3.24455 0
M  V30 13587 H 1313.24 -3.81424 -3.50337 0
M  V30 13588 H 1309.92 -1.27702 -3.9749 0
M  V30 13589 H 1311.31 -5.31643 -4.1086 0
M  V30 13590 N 1314.03 1.01274 -1.20754 0
M  V30 13591 C 1314.96 2.11763 -0.983805 0
M  V30 13592 C 1315.94 1.69869 0.0885635 0
M  V30 13593 O 1317.13 1.94075 -0.0697239 0
M  V30 13594 C 1314.26 3.43087 -0.539287 0
M  V30 13595 C 1313.21 3.9874 -1.55534 0
M  V30 13596 C 1312.54 5.25877 -0.967322 0
M  V30 13597 C 1313.84 4.31688 -2.94012 0
M  V30 13598 H 1315.53 2.30737 -1.90789 0
M  V30 13599 H 1313.08 1.10884 -0.918734 0
M  V30 13600 H 1315.03 4.19773 -0.369979 0
M  V30 13601 H 1313.75 3.23883 0.420435 0
M  V30 13602 H 1312.41 3.24166 -1.71207 0
M  V30 13603 H 1312.06 5.03 0.000448307 0
M  V30 13604 H 1311.76 5.64077 -1.64594 0
M  V30 13605 H 1313.28 6.05215 -0.809167 0
M  V30 13606 H 1314.7 4.99246 -2.81827 0
M  V30 13607 H 1313.1 4.81011 -3.58815 0
M  V30 13608 H 1314.17 3.4029 -3.45442 0
M  V30 13609 N 1315.51 1.01404 1.20644 0
M  V30 13610 C 1316.76 0.700523 1.89571 0
M  V30 13611 C 1317.08 -0.771978 1.79068 0
M  V30 13612 O 1316.35 -1.55506 1.19142 0
M  V30 13613 H 1314.93 0.256122 0.70172 0
M  V30 13614 H 1317.59 1.28509 1.46531 0
M  V30 13615 H 1316.69 0.981665 2.9626 0
M  V30 13616 N 1316.99 -1.36373 0.789944 0
M  V30 13617 C 1318.4 -1.52471 0.471686 0
M  V30 13618 C 1318.6 -1.74365 -1.0099 0
M  V30 13619 O 1317.66 -1.77546 -1.79538 0
M  V30 13620 C 1318.97 -2.71022 1.30259 0
M  V30 13621 C 1320.52 -2.84893 1.29633 0
M  V30 13622 C 1321 -4.0645 2.11098 0
M  V30 13623 N 1322.49 -4.13597 2.08547 0
M  V30 13624 C 1323.22 -5.06731 2.6835 0
M  V30 13625 N 1322.72 -6.05305 3.37013 0
M  V30 13626 N 1324.51 -4.9935 2.58081 0
M  V30 13627 H 1316.66 -1.20416 1.74968 0
M  V30 13628 H 1318.92 -0.587782 0.743785 0
M  V30 13629 H 1318.63 -2.61368 2.35329 0
M  V30 13630 H 1318.5 -3.6519 0.944254 0
M  V30 13631 H 1320.89 -2.94009 0.253542 0
M  V30 13632 H 1320.97 -1.91632 1.69443 0
M  V30 13633 H 1320.62 -3.98096 3.15408 0
M  V30 13634 H 1320.55 -4.98861 1.68659 0
M  V30 13635 H 1323.04 -3.4302 1.58573 0
M  V30 13636 H 1323.35 -6.72934 3.79974 0
M  V30 13637 H 1321.7 -6.05529 3.41116 0
M  V30 13638 H 1324.89 -4.21291 2.04039 0
M  V30 13639 H 1325.06 -5.71745 3.04979 0
M  V30 13640 N 1318.47 -0.542005 -1.47987 0
M  V30 13641 C 1319.69 -0.016717 -2.06893 0
M  V30 13642 C 1320.11 1.27015 -1.39687 0
M  V30 13643 O 1319.47 1.75845 -0.488326 0
M  V30 13644 C 1319.52 0.198437 -3.60955 0
M  V30 13645 O 1319.24 -1.03746 -4.25639 0
M  V30 13646 C 1320.74 0.762741 -4.36689 0
M  V30 13647 H 1317.96 -0.0389497 -0.669869 0
M  V30 13648 H 1320.5 -0.751082 -1.90208 0
M  V30 13649 H 1318.66 0.882884 -3.77205 0
M  V30 13650 H 1319.07 -0.82568 -5.1796 0
M  V30 13651 H 1320.55 0.862649 -5.45218 0
M  V30 13652 H 1321.02 1.77049 -4.01933 0
M  V30 13653 H 1321.63 0.114478 -4.25146 0
M  V30 13654 N 1319.94 1.55134 -0.277709 0
M  V30 13655 C 1321.19 1.99949 0.338831 0
M  V30 13656 C 1321.52 1.16587 1.5531 0
M  V30 13657 O 1320.8 0.236572 1.93056 0
M  V30 13658 C 1321.08 3.5286 0.718457 0
M  V30 13659 C 1320.93 4.46975 -0.503332 0
M  V30 13660 C 1322.25 4.11754 1.55392 0
M  V30 13661 H 1319.37 0.726885 0.121682 0
M  V30 13662 H 1322.01 1.86055 -0.385171 0
M  V30 13663 H 1320.16 3.64831 1.33531 0
M  V30 13664 H 1321.84 4.46944 -1.14188 0
M  V30 13665 H 1320.08 4.18528 -1.14092 0
M  V30 13666 H 1320.75 5.51659 -0.193912 0
M  V30 13667 H 1323.23 4.03075 1.03293 0
M  V30 13668 H 1322.1 5.1895 1.78835 0
M  V30 13669 H 1322.36 3.62147 2.53578 0
M  V30 13670 N 1321.42 0.00503138 1.57599 0
M  V30 13671 C 1322.35 -0.983586 2.11773 0
M  V30 13672 C 1323.33 -1.35518 1.02805 0
M  V30 13673 O 1324.52 -1.43804 1.30514 0
M  V30 13674 C 1321.65 -2.27383 2.62515 0
M  V30 13675 C 1320.6 -2.0437 3.76054 0
M  V30 13676 C 1319.93 -3.39451 4.1313 0
M  V30 13677 C 1321.23 -1.40223 5.03125 0
M  V30 13678 H 1322.92 -0.532501 2.94627 0
M  V30 13679 H 1320.47 -0.254696 1.4173 0
M  V30 13680 H 1322.42 -2.96903 2.99043 0
M  V30 13681 H 1321.14 -2.74614 1.7679 0
M  V30 13682 H 1319.8 -1.37275 3.39928 0
M  V30 13683 H 1319.45 -3.84395 3.24422 0
M  V30 13684 H 1319.15 -3.24868 4.89627 0
M  V30 13685 H 1320.68 -4.10279 4.52221 0
M  V30 13686 H 1322.09 -1.99708 5.37392 0
M  V30 13687 H 1320.49 -1.36112 5.8446 0
M  V30 13688 H 1321.56 -0.372073 4.8347 0
M  V30 13689 N 1322.9 -1.55308 -0.267798 0
M  V30 13690 C 1324.14 -1.77913 -1.0063 0
M  V30 13691 C 1324.5 -0.571149 -1.83308 0
M  V30 13692 O 1325.7 -0.675552 -2.60173 0
M  V30 13693 C 1323.98 -3.05112 -1.86123 0
M  V30 13694 S 1325.53 -3.48856 -2.66167 0
M  V30 13695 H 1322.35 -0.625065 -0.338843 0
M  V30 13696 H 1324.95 -1.93539 -0.276196 0
M  V30 13697 H 1323.66 -3.91118 -1.24317 0
M  V30 13698 H 1323.19 -2.92165 -2.63444 0
M  V30 13699 H 1325.2 -3.0854 -3.8861 0
M  V30 13700 N 1324.38 0.532545 -1.4833 0
M  V30 13701 C 1325.63 1.28498 -1.55471 0
M  V30 13702 C 1325.94 1.94214 -0.232412 0
M  V30 13703 O 1327.15 2.70889 -0.182044 0
M  V30 13704 C 1325.6 2.33144 -2.74175 0
M  V30 13705 C 1325.21 1.73508 -4.13036 0
M  V30 13706 C 1326.95 3.09413 -2.90627 0
M  V30 13707 C 1324.86 2.76079 -5.23005 0
M  V30 13708 H 1323.79 0.483253 -0.578777 0
M  V30 13709 H 1326.44 0.562744 -1.74658 0
M  V30 13710 H 1324.82 3.08391 -2.48417 0
M  V30 13711 H 1326 1.04466 -4.48802 0
M  V30 13712 H 1324.31 1.0974 -4.01679 0
M  V30 13713 H 1326.91 3.86056 -3.69953 0
M  V30 13714 H 1327.25 3.65118 -1.99987 0
M  V30 13715 H 1327.79 2.4128 -3.16274 0
M  V30 13716 H 1324.52 2.25197 -6.15602 0
M  V30 13717 H 1324.04 3.43456 -4.9173 0
M  V30 13718 H 1325.72 3.39113 -5.51009 0
M  V30 13719 N 1325.86 1.36875 0.78122 0
M  V30 13720 C 1327.13 1.22101 1.52809 0
M  V30 13721 C 1327.51 -0.189402 2.10249 0
M  V30 13722 O 1326.86 -1.19598 1.94701 0
M  V30 13723 C 1327.07 2.30953 2.61652 0
M  V30 13724 C 1328.42 2.68027 3.29313 0
M  V30 13725 O 1329.44 2.30058 2.71941 0
M  V30 13726 O 1328.3 3.33407 4.33015 0
M  V30 13727 H 1325.4 0.4759 0.676349 0
M  V30 13728 H 1327.94 1.48629 0.818998 0
M  V30 13729 H 1326.71 3.25443 2.17261 0
M  V30 13730 H 1326.34 2.05837 3.40172 0
M  V30 13731 N 1327.33 -1.00632 1.21289 0
M  V30 13732 C 1328.58 -1.74388 1.02932 0
M  V30 13733 C 1328.91 -1.8952 -0.437327 0
M  V30 13734 O 1328.16 -1.42551 -1.3408 0
M  V30 13735 C 1328.46 -3.1598 1.67007 0
M  V30 13736 C 1328.13 -3.208 3.16857 0
M  V30 13737 C 1326.79 -3.21823 3.57748 0
M  V30 13738 C 1329.14 -3.18147 4.12834 0
M  V30 13739 C 1326.47 -3.17877 4.93124 0
M  V30 13740 C 1328.82 -3.15743 5.48169 0
M  V30 13741 C 1327.49 -3.15074 5.88459 0
M  V30 13742 H 1326.76 -0.638133 0.376653 0
M  V30 13743 H 1329.4 -1.17953 1.50862 0
M  V30 13744 H 1327.71 -3.75639 1.11365 0
M  V30 13745 H 1329.41 -3.71764 1.50307 0
M  V30 13746 H 1326 -3.20746 2.84289 0
M  V30 13747 H 1330.18 -3.16519 3.82269 0
M  V30 13748 H 1325.44 -3.15696 5.2359 0
M  V30 13749 H 1329.61 -3.12644 6.22275 0
M  V30 13750 H 1327.24 -3.11771 6.93327 0
M  V30 13751 N 1328.81 -1.02043 -1.20104 0
M  V30 13752 C 1329.74 -0.538603 -2.21753 0
M  V30 13753 C 1330.72 0.416016 -1.57188 0
M  V30 13754 O 1331.91 0.335114 -1.85497 0
M  V30 13755 C 1329.03 0.215706 -3.38012 0
M  V30 13756 C 1328.08 -0.68905 -4.20897 0
M  V30 13757 S 1328.91 -2.16041 -4.89986 0
M  V30 13758 C 1330.07 -1.41637 -6.09664 0
M  V30 13759 H 1330.3 -1.39988 -2.6228 0
M  V30 13760 H 1327.83 -0.829641 -1.30216 0
M  V30 13761 H 1329.79 0.644798 -4.05404 0
M  V30 13762 H 1328.45 1.0526 -2.95938 0
M  V30 13763 H 1327.65 -0.107195 -5.03886 0
M  V30 13764 H 1327.25 -1.05609 -3.5878 0
M  V30 13765 H 1329.54 -0.698414 -6.73891 0
M  V30 13766 H 1330.48 -2.22254 -6.72316 0
M  V30 13767 H 1330.89 -0.917572 -5.56993 0
M  V30 13768 N 1330.29 1.35952 -0.797165 0
M  V30 13769 C 1331.54 1.99327 -0.373695 0
M  V30 13770 C 1331.87 1.63111 1.05396 0
M  V30 13771 O 1331.14 0.889736 1.72956 0
M  V30 13772 C 1331.43 3.5593 -0.54641 0
M  V30 13773 C 1331.28 4.01975 -2.01832 0
M  V30 13774 C 1332.6 4.40087 0.0337694 0
M  V30 13775 H 1329.72 0.724107 -0.137254 0
M  V30 13776 H 1332.36 1.61248 -1.00495 0
M  V30 13777 H 1330.51 3.88499 -0.00903959 0
M  V30 13778 H 1332.18 3.79859 -2.61735 0
M  V30 13779 H 1330.43 3.5323 -2.51815 0
M  V30 13780 H 1331.1 5.109 -2.09009 0
M  V30 13781 H 1333.57 4.13923 -0.425039 0
M  V30 13782 H 1332.45 5.48775 -0.117054 0
M  V30 13783 H 1332.71 4.27504 1.12661 0
M  V30 13784 N 1331.77 0.549846 1.47697 0
M  V30 13785 C 1333.02 0.0230503 2.02487 0
M  V30 13786 C 1333.34 -1.32382 1.42497 0
M  V30 13787 O 1332.6 -1.87293 0.567441 0
M  V30 13788 C 1332.9 -0.127268 3.57173 0
M  V30 13789 C 1332.56 1.14777 4.36047 0
M  V30 13790 C 1331.23 1.49716 4.57317 0
M  V30 13791 C 1333.58 1.99302 4.81589 0
M  V30 13792 C 1330.91 2.69042 5.21376 0
M  V30 13793 C 1333.26 3.17824 5.46965 0
M  V30 13794 C 1331.92 3.53086 5.66469 0
M  V30 13795 H 1331.19 0.00843471 0.740952 0
M  V30 13796 H 1333.84 0.719876 1.77454 0
M  V30 13797 H 1332.14 -0.907008 3.81157 0
M  V30 13798 H 1333.84 -0.550103 3.97209 0
M  V30 13799 H 1330.43 0.865703 4.19766 0
M  V30 13800 H 1334.61 1.73618 4.64942 0
M  V30 13801 H 1329.87 2.9654 5.34672 0
M  V30 13802 H 1334.04 3.83612 5.81218 0
M  V30 13803 H 1331.67 4.45643 6.15878 0
M  V30 13804 N 1333.25 -1.54984 0.285932 0
M  V30 13805 C 1334.47 -2.04239 -0.330774 0
M  V30 13806 C 1334.89 -1.16387 -1.48659 0
M  V30 13807 O 1334.25 -0.186255 -1.81547 0
M  V30 13808 C 1334.3 -3.52504 -0.801456 0
M  V30 13809 O 1334.02 -4.37014 0.30834 0
M  V30 13810 C 1335.52 -4.17692 -1.48487 0
M  V30 13811 H 1332.74 -0.666903 -0.0740351 0
M  V30 13812 H 1335.28 -2.00116 0.421178 0
M  V30 13813 H 1333.44 -3.57036 -1.50347 0
M  V30 13814 H 1333.85 -5.24471 -0.0553891 0
M  V30 13815 H 1335.33 -5.23004 -1.76552 0
M  V30 13816 H 1335.8 -3.66515 -2.41999 0
M  V30 13817 H 1336.41 -4.17193 -0.826428 0
M  V30 13818 N 1334.72 -0.0133892 -1.57594 0
M  V30 13819 C 1335.97 0.669624 -1.91426 0
M  V30 13820 C 1336.3 1.72675 -0.888656 0
M  V30 13821 O 1335.58 1.94288 0.0908138 0
M  V30 13822 C 1335.86 1.30051 -3.35796 0
M  V30 13823 C 1335.71 0.254021 -4.49082 0
M  V30 13824 C 1337.03 2.22297 -3.79832 0
M  V30 13825 H 1334.15 0.241958 -0.69615 0
M  V30 13826 H 1336.79 -0.0674278 -1.8988 0
M  V30 13827 H 1334.94 1.92871 -3.37243 0
M  V30 13828 H 1336.62 -0.375524 -4.59769 0
M  V30 13829 H 1334.86 -0.422267 -4.3174 0
M  V30 13830 H 1335.53 0.734756 -5.47088 0
M  V30 13831 H 1338.01 1.69481 -3.8002 0
M  V30 13832 H 1336.88 2.634 -4.81572 0
M  V30 13833 H 1337.14 3.10764 -3.14449 0
M  V30 13834 N 1336.2 1.55448 0.259558 0
M  V30 13835 C 1337.62 1.47588 0.607442 0
M  V30 13836 C 1337.82 0.701053 1.88911 0
M  V30 13837 O 1336.87 0.225305 2.51493 0
M  V30 13838 C 1338.19 2.91905 0.72192 0
M  V30 13839 C 1339.74 3.02201 0.815087 0
M  V30 13840 C 1340.21 4.47799 0.961231 0
M  V30 13841 N 1341.7 4.51684 1.02642 0
M  V30 13842 C 1342.44 5.61574 1.15854 0
M  V30 13843 N 1341.93 6.81301 1.257 0
M  V30 13844 N 1343.73 5.49344 1.1907 0
M  V30 13845 H 1335.88 2.04271 -0.581981 0
M  V30 13846 H 1338.14 0.926865 -0.199059 0
M  V30 13847 H 1337.85 3.51382 -0.149611 0
M  V30 13848 H 1337.72 3.41681 1.59793 0
M  V30 13849 H 1340.11 2.42813 1.67708 0
M  V30 13850 H 1340.19 2.55656 -0.0858102 0
M  V30 13851 H 1339.83 5.07794 0.103848 0
M  V30 13852 H 1339.76 4.92013 1.87698 0
M  V30 13853 H 1342.25 3.65446 0.962184 0
M  V30 13854 H 1342.57 7.60801 1.35652 0
M  V30 13855 H 1340.91 6.84087 1.2268 0
M  V30 13856 H 1344.1 4.54745 1.11018 0
M  V30 13857 H 1344.27 6.35025 1.29022 0
M  V30 13858 N 1337.68 -0.524672 1.4861 0
M  V30 13859 C 1338.61 -1.63782 1.66426 0
M  V30 13860 C 1339.59 -1.62177 0.513077 0
M  V30 13861 O 1340.78 -1.7929 0.74623 0
M  V30 13862 C 1337.91 -3.02354 1.70877 0
M  V30 13863 C 1336.86 -3.18819 2.85549 0
M  V30 13864 C 1336.19 -4.58506 2.75094 0
M  V30 13865 C 1337.49 -3.01086 4.26784 0
M  V30 13866 H 1339.18 -1.49127 2.59618 0
M  V30 13867 H 1336.73 -0.715997 1.24938 0
M  V30 13868 H 1338.68 -3.80105 1.81929 0
M  V30 13869 H 1337.4 -3.18044 0.742682 0
M  V30 13870 H 1336.06 -2.43487 2.74061 0
M  V30 13871 H 1335.71 -4.71038 1.76443 0
M  V30 13872 H 1335.41 -4.70466 3.52044 0
M  V30 13873 H 1336.93 -5.38348 2.88121 0
M  V30 13874 H 1338.35 -3.68624 4.39077 0
M  V30 13875 H 1336.75 -3.24536 5.04774 0
M  V30 13876 H 1337.82 -1.97454 4.42877 0
M  V30 13877 N 1339.16 -1.37287 -0.77395 0
M  V30 13878 C 1340.09 -1.35569 -1.90114 0
M  V30 13879 C 1341.07 -0.224658 -1.6861 0
M  V30 13880 O 1342.25 -0.424676 -1.895 0
M  V30 13881 C 1339.38 -1.15971 -3.27365 0
M  V30 13882 C 1338.34 -2.26063 -3.63427 0
M  V30 13883 C 1337.66 -1.9159 -4.99197 0
M  V30 13884 C 1338.96 -3.68236 -3.70405 0
M  V30 13885 H 1340.66 -2.29891 -1.91808 0
M  V30 13886 H 1338.2 -1.10661 -0.92142 0
M  V30 13887 H 1340.16 -1.134 -4.05855 0
M  V30 13888 H 1338.88 -0.181043 -3.26098 0
M  V30 13889 H 1337.54 -2.27786 -2.87244 0
M  V30 13890 H 1337.19 -0.922586 -4.94467 0
M  V30 13891 H 1336.89 -2.65309 -5.24294 0
M  V30 13892 H 1338.41 -1.90602 -5.80089 0
M  V30 13893 H 1339.83 -3.68655 -4.39052 0
M  V30 13894 H 1338.22 -4.4099 -4.06999 0
M  V30 13895 H 1339.29 -4.02021 -2.71122 0
M  V30 13896 N 1340.64 0.999871 -1.21821 0
M  V30 13897 C 1341.59 2.0729 -0.949465 0
M  V30 13898 C 1342.57 1.60606 0.0972572 0
M  V30 13899 O 1343.76 1.76643 -0.11235 0
M  V30 13900 C 1340.89 3.39315 -0.521565 0
M  V30 13901 C 1339.98 3.92653 -1.60264 0
M  V30 13902 N 1340.37 4.19297 -2.82884 0
M  V30 13903 C 1338.67 4.20984 -1.4727 0
M  V30 13904 C 1339.37 4.62547 -3.52739 0
M  V30 13905 N 1338.34 4.65826 -2.80191 0
M  V30 13906 H 1342.15 2.25822 -1.881 0
M  V30 13907 H 1339.66 1.18102 -1.1147 0
M  V30 13908 H 1341.66 4.15743 -0.310376 0
M  V30 13909 H 1340.32 3.22187 0.403152 0
M  V30 13910 H 1341.33 4.07698 -3.19378 0
M  V30 13911 H 1338 4.12966 -0.613654 0
M  V30 13912 H 1339.39 4.91843 -4.57756 0
M  V30 13913 N 1342.11 1.02678 1.19562 0
M  V30 13914 C 1343.36 0.717279 1.88515 0
M  V30 13915 C 1343.68 -0.757063 1.80355 0
M  V30 13916 O 1344.88 -1.17953 2.44539 0
M  V30 13917 C 1343.34 1.23265 3.38133 0
M  V30 13918 C 1342.95 2.73462 3.54856 0
M  V30 13919 C 1344.69 0.99904 4.12577 0
M  V30 13920 C 1342.6 3.18428 4.98355 0
M  V30 13921 H 1341.53 0.264608 0.706044 0
M  V30 13922 H 1344.18 1.2408 1.3519 0
M  V30 13923 H 1342.56 0.637052 3.90842 0
M  V30 13924 H 1343.73 3.38659 3.12485 0
M  V30 13925 H 1342.05 2.95079 2.93798 0
M  V30 13926 H 1344.65 1.3103 5.18397 0
M  V30 13927 H 1344.99 -0.064217 4.1625 0
M  V30 13928 H 1345.52 1.55853 3.65998 0
M  V30 13929 H 1342.26 4.24074 4.99842 0
M  V30 13930 H 1341.78 2.57958 5.41496 0
M  V30 13931 H 1343.46 3.11649 5.66996 0
M  V30 13932 N 1343.59 -1.35528 0.804364 0
M  V30 13933 C 1344.84 -1.98832 0.383692 0
M  V30 13934 C 1345.17 -1.63816 -1.04855 0
M  V30 13935 O 1344.42 -0.892272 -1.74175 0
M  V30 13936 C 1344.72 -3.5372 0.511571 0
M  V30 13937 C 1344.39 -4.08597 1.9068 0
M  V30 13938 C 1343.05 -4.23297 2.28852 0
M  V30 13939 C 1345.4 -4.3834 2.81971 0
M  V30 13940 C 1342.73 -4.65056 3.57687 0
M  V30 13941 C 1345.08 -4.81537 4.1025 0
M  V30 13942 C 1343.75 -4.94442 4.48423 0
M  V30 13943 H 1343.02 -0.727577 0.140403 0
M  V30 13944 H 1345.66 -1.61777 1.02472 0
M  V30 13945 H 1343.97 -3.91221 -0.212916 0
M  V30 13946 H 1345.66 -4.00653 0.166888 0
M  V30 13947 H 1342.25 -3.97606 1.60023 0
M  V30 13948 H 1346.44 -4.26538 2.5373 0
M  V30 13949 H 1341.69 -4.73236 3.87115 0
M  V30 13950 H 1345.87 -5.03512 4.81091 0
M  V30 13951 H 1343.5 -5.26558 5.48307 0
M  V30 13952 N 1345.07 -0.557671 -1.47404 0
M  V30 13953 C 1346.3 -0.0386599 -2.06864 0
M  V30 13954 C 1346.71 1.25527 -1.41027 0
M  V30 13955 O 1346.07 1.75318 -0.506949 0
M  V30 13956 C 1346.12 0.160141 -3.61145 0
M  V30 13957 O 1345.84 -1.08255 -4.24515 0
M  V30 13958 C 1347.34 0.716381 -4.37473 0
M  V30 13959 H 1344.56 -0.0460523 -0.669418 0
M  V30 13960 H 1347.11 -0.771214 -1.894 0
M  V30 13961 H 1345.26 0.842826 -3.78121 0
M  V30 13962 H 1345.68 -0.88057 -5.17055 0
M  V30 13963 H 1347.15 0.804773 -5.46102 0
M  V30 13964 H 1347.63 1.72776 -4.03788 0
M  V30 13965 H 1348.23 0.0693787 -4.25243 0
M  V30 13966 N 1346.55 1.54831 -0.294147 0
M  V30 13967 C 1347.8 2.00298 0.317605 0
M  V30 13968 C 1348.13 1.18228 1.54064 0
M  V30 13969 O 1347.4 0.257034 1.92794 0
M  V30 13970 C 1347.69 3.53602 0.680991 0
M  V30 13971 C 1347.54 4.46416 -0.550711 0
M  V30 13972 C 1348.86 4.13379 1.51016 0
M  V30 13973 H 1345.98 0.728135 0.113965 0
M  V30 13974 H 1348.62 1.85636 -0.404883 0
M  V30 13975 H 1346.77 3.66227 1.29654 0
M  V30 13976 H 1348.44 4.45707 -1.18922 0
M  V30 13977 H 1346.68 4.17294 -1.18524 0
M  V30 13978 H 1347.36 5.51423 -0.252412 0
M  V30 13979 H 1349.83 4.04148 0.99012 0
M  V30 13980 H 1348.71 5.20818 1.73321 0
M  V30 13981 H 1348.97 3.64817 2.49722 0
M  V30 13982 N 1348.03 0.0217466 1.57585 0
M  V30 13983 C 1348.98 -0.980624 2.10918 0
M  V30 13984 C 1349.97 -1.34178 1.03406 0
M  V30 13985 O 1351.18 -1.32487 1.21849 0
M  V30 13986 H 1347.55 -0.333984 0.673764 0
M  V30 13987 H 1349.52 -0.505431 2.94088 0
M  V30 13988 C 1348.27 -2.25639 2.64542 0
M  V30 13989 H 1347.59 -1.98722 3.46914 0
M  V30 13990 H 1349.03 -2.94003 3.05513 0
M  V30 13991 C 1347.49 -2.98111 1.56945 0
M  V30 13992 O 1348.02 -3.89937 0.964975 0
M  V30 13993 N 1346.23 -2.60316 1.29166 0
M  V30 13994 H 1345.78 -1.85722 1.78508 0
M  V30 13995 H 1345.73 -3.09116 0.573987 0
M  V30 13996 N 1349.51 -1.55583 -0.251311 0
M  V30 13997 C 1350.45 -1.89946 -1.31108 0
M  V30 13998 C 1351.42 -0.753209 -1.4804 0
M  V30 13999 O 1352.61 -1.00646 -1.62095 0
M  V30 14000 C 1349.75 -2.19576 -2.66233 0
M  V30 14001 C 1348.86 -3.46983 -2.57345 0
M  V30 14002 C 1348 -3.66206 -3.84794 0
M  V30 14003 C 1347.03 -4.87229 -3.70505 0
M  V30 14004 N 1346.17 -5.02996 -4.89836 0
M  V30 14005 H 1351.01 -2.80325 -1.01104 0
M  V30 14006 H 1348.55 -1.3877 -0.487986 0
M  V30 14007 H 1350.51 -2.3476 -3.44882 0
M  V30 14008 H 1349.14 -1.32406 -2.94395 0
M  V30 14009 H 1348.19 -3.40156 -1.70289 0
M  V30 14010 H 1349.5 -4.35776 -2.42695 0
M  V30 14011 H 1348.65 -3.81324 -4.71886 0
M  V30 14012 H 1347.39 -2.75638 -4.02337 0
M  V30 14013 H 1346.4 -4.72092 -2.81797 0
M  V30 14014 H 1347.62 -5.79253 -3.54462 0
M  V30 14015 H 1345.57 -4.15364 -5.07748 0
M  V30 14016 H 1345.49 -5.8587 -4.778 0
M  V30 14017 H 1346.75 -5.22521 -5.78439 0
M  V30 14018 N 1350.98 0.516783 -1.48886 0
M  V30 14019 C 1351.92 1.63632 -1.60491 0
M  V30 14020 C 1352.93 1.55301 -0.488424 0
M  V30 14021 O 1354.12 1.6152 -0.75983 0
M  V30 14022 C 1351.22 3.02351 -1.53093 0
M  V30 14023 C 1350.39 3.36028 -2.80006 0
M  V30 14024 C 1349.45 4.54087 -2.65879 0
M  V30 14025 O 1348.48 4.56652 -3.3979 0
M  V30 14026 N 1349.68 5.53058 -1.76372 0
M  V30 14027 H 1352.44 1.54109 -2.57042 0
M  V30 14028 H 1350 0.704338 -1.45776 0
M  V30 14029 H 1352 3.79225 -1.41318 0
M  V30 14030 H 1350.57 3.05881 -0.644637 0
M  V30 14031 H 1349.79 2.48204 -3.06249 0
M  V30 14032 H 1351.07 3.5532 -3.64177 0
M  V30 14033 H 1350.47 5.53773 -1.1555 0
M  V30 14034 H 1349.03 6.29097 -1.70529 0
M  V30 14035 N 1352.46 1.37696 0.766659 0
M  V30 14036 C 1353.39 1.36576 1.89392 0
M  V30 14037 C 1354.37 0.233597 1.68488 0
M  V30 14038 O 1355.56 0.434719 1.89272 0
M  V30 14039 C 1352.69 1.17705 3.26746 0
M  V30 14040 C 1351.64 2.27987 3.62224 0
M  V30 14041 C 1350.97 1.94235 4.98174 0
M  V30 14042 C 1352.27 3.70195 3.68447 0
M  V30 14043 H 1353.96 2.30905 1.90587 0
M  V30 14044 H 1351.51 1.11148 0.915538 0
M  V30 14045 H 1353.46 1.15551 4.05248 0
M  V30 14046 H 1352.18 0.198334 3.25997 0
M  V30 14047 H 1350.84 2.29306 2.86032 0
M  V30 14048 H 1350.49 0.948796 4.93971 0
M  V30 14049 H 1350.19 2.68086 5.2288 0
M  V30 14050 H 1351.72 1.93676 5.7907 0
M  V30 14051 H 1353.13 3.70978 4.37091 0
M  V30 14052 H 1351.53 4.43142 4.04654 0
M  V30 14053 H 1352.6 4.03453 2.68986 0
M  V30 14054 N 1353.94 -0.993397 1.22349 0
M  V30 14055 C 1355.19 -1.72945 1.04568 0
M  V30 14056 C 1355.51 -1.90419 -0.420178 0
M  V30 14057 O 1354.78 -1.46348 -1.30227 0
M  V30 14058 H 1353.36 -0.640777 0.383945 0
M  V30 14059 H 1356.02 -1.19647 1.53853 0
M  V30 14060 H 1355.12 -2.72411 1.52311 0
M  V30 14061 N 1355.42 -1.03311 -1.19015 0
M  V30 14062 C 1356.83 -0.761079 -1.70483 0
M  V30 14063 C 1357.18 0.718851 -1.82557 0
M  V30 14064 O 1356.3 1.56006 -1.4997 0
M  V30 14065 C 1356.9 -1.37492 -3.09647 0
M  V30 14066 C 1355.46 -1.15138 -3.58358 0
M  V30 14067 C 1354.61 -1.47034 -2.35109 0
M  V30 14068 H 1357.56 -1.2005 -1.03797 0
M  V30 14069 H 1357.58 -0.774115 -3.72542 0
M  V30 14070 H 1357.09 -2.45203 -3.00828 0
M  V30 14071 H 1355.19 -0.0926822 -3.72485 0
M  V30 14072 H 1355.3 -1.84307 -4.4223 0
M  V30 14073 H 1353.67 -0.889794 -2.38652 0
M  V30 14074 H 1354.45 -2.55837 -2.28916 0
M  V30 14075 N 1356.9 1.35099 -0.81154 0
M  V30 14076 C 1357.84 2.29717 -0.223372 0
M  V30 14077 C 1358.81 1.53049 0.645396 0
M  V30 14078 O 1360 1.81467 0.589436 0
M  V30 14079 C 1357.14 3.3952 0.618057 0
M  V30 14080 C 1356.25 4.31145 -0.271693 0
M  V30 14081 C 1355.39 5.28044 0.578214 0
M  V30 14082 C 1354.42 6.11306 -0.311628 0
M  V30 14083 N 1353.56 7.00328 0.498539 0
M  V30 14084 H 1358.4 2.79426 -1.03563 0
M  V30 14085 H 1355.94 1.37518 -0.522231 0
M  V30 14086 H 1357.9 4.01854 1.12111 0
M  V30 14087 H 1356.53 2.91075 1.39554 0
M  V30 14088 H 1355.58 3.69773 -0.892885 0
M  V30 14089 H 1356.89 4.89545 -0.956392 0
M  V30 14090 H 1356.04 5.95774 1.1462 0
M  V30 14091 H 1354.78 4.70152 1.29646 0
M  V30 14092 H 1353.79 5.42518 -0.891849 0
M  V30 14093 H 1355.01 6.71277 -1.02781 0
M  V30 14094 H 1352.96 6.44919 1.20067 0
M  V30 14095 H 1352.88 7.55892 -0.12801 0
M  V30 14096 H 1354.14 7.72401 1.04965 0
M  V30 14097 N 1358.37 0.56548 1.47106 0
M  V30 14098 C 1359.62 0.042333 2.01656 0
M  V30 14099 C 1359.94 -1.31892 1.44443 0
M  V30 14100 O 1361.14 -1.93245 1.90706 0
M  V30 14101 C 1359.6 0.0251556 3.59891 0
M  V30 14102 C 1359.21 1.38367 4.26097 0
M  V30 14103 C 1360.95 -0.44495 4.22162 0
M  V30 14104 C 1358.86 1.32516 5.76362 0
M  V30 14105 H 1357.79 0.0120557 0.753904 0
M  V30 14106 H 1360.44 0.714565 1.69015 0
M  V30 14107 H 1358.82 -0.712893 3.8953 0
M  V30 14108 H 1359.99 2.14009 4.08089 0
M  V30 14109 H 1358.31 1.79239 3.75849 0
M  V30 14110 H 1360.91 -0.507256 5.32288 0
M  V30 14111 H 1361.25 -1.45876 3.89905 0
M  V30 14112 H 1361.78 0.238496 3.97084 0
M  V30 14113 H 1358.52 2.31523 6.13252 0
M  V30 14114 H 1358.04 0.610674 5.96683 0
M  V30 14115 H 1359.72 1.03072 6.38737 0
M  V30 14116 N 1359.85 -1.54672 0.302354 0
M  V30 14117 C 1361.1 -2.00463 -0.306978 0
M  V30 14118 C 1361.43 -1.19043 -1.53435 0
M  V30 14119 O 1360.71 -0.267255 -1.92655 0
M  V30 14120 C 1360.99 -3.53958 -0.662229 0
M  V30 14121 C 1360.84 -4.46118 0.574378 0
M  V30 14122 C 1362.16 -4.14174 -1.48821 0
M  V30 14123 H 1359.28 -0.728729 -0.110102 0
M  V30 14124 H 1361.92 -1.85419 0.414722 0
M  V30 14125 H 1360.07 -3.66909 -1.2771 0
M  V30 14126 H 1361.74 -4.45071 1.21284 0
M  V30 14127 H 1359.99 -4.1666 1.20736 0
M  V30 14128 H 1360.66 -5.51281 0.281651 0
M  V30 14129 H 1363.13 -4.04668 -0.968674 0
M  V30 14130 H 1362.01 -5.2173 -1.70556 0
M  V30 14131 H 1362.27 -3.66136 -2.47784 0
M  V30 14132 N 1361.33 -0.0301034 -1.57571 0
M  V30 14133 C 1362.58 0.647672 -1.91019 0
M  V30 14134 C 1362.89 1.73234 -0.908265 0
M  V30 14135 O 1364.1 2.46682 -1.13402 0
M  V30 14136 C 1362.55 1.20327 -3.3919 0
M  V30 14137 C 1362.16 0.151833 -4.47743 0
M  V30 14138 C 1363.91 1.8575 -3.81703 0
M  V30 14139 C 1361.81 0.719119 -5.87012 0
M  V30 14140 H 1360.74 0.245682 -0.712851 0
M  V30 14141 H 1363.39 -0.0955645 -1.83251 0
M  V30 14142 H 1361.78 1.99814 -3.41892 0
M  V30 14143 H 1362.95 -0.620659 -4.56601 0
M  V30 14144 H 1361.27 -0.403699 -4.14438 0
M  V30 14145 H 1363.86 2.29151 -4.83109 0
M  V30 14146 H 1364.21 2.70061 -3.16817 0
M  V30 14147 H 1364.74 1.1295 -3.81428 0
M  V30 14148 H 1361.48 -0.0858832 -6.55444 0
M  V30 14149 H 1361 1.46008 -5.81758 0
M  V30 14150 H 1362.68 1.20856 -6.35612 0
M  V30 14151 N 1362.81 1.55714 0.243056 0
M  V30 14152 C 1364.05 1.77989 0.971993 0
M  V30 14153 C 1364.39 0.596038 1.84827 0
M  V30 14154 O 1363.66 -0.40554 1.90225 0
M  V30 14155 C 1363.95 3.10178 1.82925 0
M  V30 14156 C 1363.8 4.38974 0.9809 0
M  V30 14157 C 1365.12 3.38628 2.81103 0
M  V30 14158 H 1362.24 0.64754 0.35194 0
M  V30 14159 H 1364.88 1.88449 0.242237 0
M  V30 14160 H 1363.03 3.01392 2.45143 0
M  V30 14161 H 1364.7 4.59756 0.377113 0
M  V30 14162 H 1362.94 4.3286 0.285414 0
M  V30 14163 H 1363.61 5.27858 1.61461 0
M  V30 14164 H 1366.09 3.47403 2.29021 0
M  V30 14165 H 1364.97 4.32331 3.38203 0
M  V30 14166 H 1365.23 2.5973 3.57761 0
M  V30 14167 N 1364.29 -0.50888 1.49158 0
M  V30 14168 C 1365.51 -1.29245 1.62205 0
M  V30 14169 C 1365.94 -1.85845 0.29041 0
M  V30 14170 O 1365.29 -1.6547 -0.740906 0
M  V30 14171 C 1365.34 -2.40415 2.68762 0
M  V30 14172 O 1364.45 -3.44048 2.27387 0
M  V30 14173 H 1363.79 -0.381898 0.543185 0
M  V30 14174 H 1366.32 -0.610076 1.95293 0
M  V30 14175 H 1366.33 -2.86295 2.90688 0
M  V30 14176 H 1365 -1.98584 3.65427 0
M  V30 14177 H 1363.58 -3.04141 2.1576 0
M  V30 14178 N 1365.76 -1.381 -0.759346 0
M  V30 14179 C 1366.71 -1.34866 -1.87296 0
M  V30 14180 C 1367.68 -0.212139 -1.6474 0
M  V30 14181 O 1368.87 -0.403464 -1.86485 0
M  V30 14182 C 1366.01 -1.17383 -3.24523 0
M  V30 14183 C 1365.12 -2.40372 -3.5895 0
M  V30 14184 C 1364.25 -2.15665 -4.8545 0
M  V30 14185 C 1363.29 -3.34455 -5.12646 0
M  V30 14186 N 1362.43 -3.0922 -6.30339 0
M  V30 14187 H 1367.27 -2.30072 -1.89396 0
M  V30 14188 H 1364.81 -1.14314 -0.925788 0
M  V30 14189 H 1366.77 -1.05264 -4.03702 0
M  V30 14190 H 1365.4 -0.258182 -3.21766 0
M  V30 14191 H 1364.45 -2.63185 -2.74659 0
M  V30 14192 H 1365.76 -3.28926 -3.74978 0
M  V30 14193 H 1364.91 -2.00649 -5.7256 0
M  V30 14194 H 1363.65 -1.24467 -4.7155 0
M  V30 14195 H 1362.66 -3.49997 -4.24007 0
M  V30 14196 H 1363.88 -4.26521 -5.28448 0
M  V30 14197 H 1361.83 -2.20664 -6.17773 0
M  V30 14198 H 1361.75 -3.91321 -6.46841 0
M  V30 14199 H 1363.01 -2.97847 -7.20352 0
M  V30 14200 N 1367.24 0.986894 -1.22875 0
M  V30 14201 C 1368.18 2.07604 -0.947406 0
M  V30 14202 C 1369.15 1.62214 0.111904 0
M  V30 14203 O 1370.34 1.88488 -0.0209682 0
M  V30 14204 C 1367.46 3.3601 -0.42605 0
M  V30 14205 C 1366.51 4.00331 -1.47097 0
M  V30 14206 S 1367.34 4.40412 -3.04627 0
M  V30 14207 C 1368.5 5.7198 -2.54145 0
M  V30 14208 H 1368.73 2.31149 -1.86969 0
M  V30 14209 H 1366.27 1.1222 -1.06047 0
M  V30 14210 H 1368.22 4.10288 -0.131846 0
M  V30 14211 H 1366.88 3.10484 0.475211 0
M  V30 14212 H 1366.08 4.92809 -1.05618 0
M  V30 14213 H 1365.68 3.32403 -1.71418 0
M  V30 14214 H 1367.97 6.48602 -1.9576 0
M  V30 14215 H 1368.91 6.18293 -3.45137 0
M  V30 14216 H 1369.32 5.29669 -1.95221 0
M  V30 14217 N 1368.72 1.0394 1.18466 0
M  V30 14218 C 1369.65 0.573814 2.20868 0
M  V30 14219 C 1370.63 -0.390956 1.5783 0
M  V30 14220 O 1371.82 -0.305561 1.86007 0
M  V30 14221 C 1368.94 -0.161904 3.38313 0
M  V30 14222 C 1367.99 0.755924 4.19748 0
M  V30 14223 S 1368.82 2.23809 4.86487 0
M  V30 14224 C 1369.98 1.51318 6.07333 0
M  V30 14225 H 1370.21 1.44143 2.60019 0
M  V30 14226 H 1367.74 0.850252 1.2888 0
M  V30 14227 H 1369.7 -0.58022 4.06379 0
M  V30 14228 H 1368.36 -1.00539 2.97575 0
M  V30 14229 H 1367.56 0.187345 5.03652 0
M  V30 14230 H 1367.16 1.11303 3.57054 0
M  V30 14231 H 1369.45 0.805536 6.72694 0
M  V30 14232 H 1370.39 2.32922 6.68695 0
M  V30 14233 H 1370.8 1.00607 5.55462 0
M  V30 14234 N 1370.2 -1.34667 0.818693 0
M  V30 14235 C 1371.15 -2.29595 0.235551 0
M  V30 14236 C 1372.12 -1.53389 -0.63727 0
M  V30 14237 O 1373.3 -1.81777 -0.579804 0
M  V30 14238 C 1370.44 -3.39843 -0.600043 0
M  V30 14239 C 1369.55 -4.30995 0.294553 0
M  V30 14240 C 1368.69 -5.28343 -0.550203 0
M  V30 14241 C 1367.73 -6.11132 0.344043 0
M  V30 14242 N 1366.86 -7.00582 -0.461392 0
M  V30 14243 H 1371.7 -2.78872 1.05044 0
M  V30 14244 H 1369.24 -1.37239 0.529517 0
M  V30 14245 H 1371.2 -4.02443 -1.09978 0
M  V30 14246 H 1369.83 -2.91811 -1.38008 0
M  V30 14247 H 1368.88 -3.69294 0.912483 0
M  V30 14248 H 1370.19 -4.89031 0.982341 0
M  V30 14249 H 1369.35 -5.96374 -1.11459 0
M  V30 14250 H 1368.09 -4.70833 -1.27151 0
M  V30 14251 H 1367.09 -5.42038 0.920608 0
M  V30 14252 H 1368.32 -6.70722 1.0634 0
M  V30 14253 H 1366.26 -6.45546 -1.16645 0
M  V30 14254 H 1366.18 -7.55813 0.168095 0
M  V30 14255 H 1367.45 -7.72946 -1.00867 0
M  V30 14256 N 1371.68 -0.573274 -1.46804 0
M  V30 14257 C 1372.95 0.011163 -1.95597 0
M  V30 14258 C 1373.33 1.4691 -1.51594 0
M  V30 14259 O 1372.68 2.15413 -0.76221 0
M  V30 14260 C 1372.89 -0.151045 -3.48673 0
M  V30 14261 C 1374.24 -0.0139817 -4.24598 0
M  V30 14262 O 1375.26 -0.0794008 -3.56111 0
M  V30 14263 O 1374.12 0.129547 -5.46346 0
M  V30 14264 H 1371.22 0.0551258 -0.825161 0
M  V30 14265 H 1373.76 -0.640928 -1.57131 0
M  V30 14266 H 1372.53 -1.16494 -3.73557 0
M  V30 14267 H 1372.16 0.537917 -3.93944 0
M  V30 14268 N 1373.15 1.5451 -0.310553 0
M  V30 14269 C 1374.4 2.00623 0.296343 0
M  V30 14270 C 1374.73 1.19855 1.52802 0
M  V30 14271 O 1374.01 0.277468 1.92511 0
M  V30 14272 C 1374.29 3.54305 0.643448 0
M  V30 14273 C 1374.14 4.45807 -0.598029 0
M  V30 14274 C 1375.46 4.14958 1.46623 0
M  V30 14275 H 1372.58 0.729303 0.106236 0
M  V30 14276 H 1375.22 1.85196 -0.424549 0
M  V30 14277 H 1373.37 3.67581 1.25762 0
M  V30 14278 H 1375.05 4.44421 -1.23643 0
M  V30 14279 H 1373.29 4.16014 -1.22944 0
M  V30 14280 H 1373.96 5.51124 -0.310883 0
M  V30 14281 H 1376.44 4.05176 0.947199 0
M  V30 14282 H 1375.31 5.22627 1.67787 0
M  V30 14283 H 1375.57 3.67445 2.45839 0
M  V30 14284 N 1374.63 0.0384594 1.57553 0
M  V30 14285 C 1375.88 -0.63814 1.92182 0
M  V30 14286 C 1376.21 -1.71595 0.915714 0
M  V30 14287 O 1375.46 -1.9556 -0.0739533 0
M  V30 14288 C 1375.76 -1.28439 3.33524 0
M  V30 14289 C 1375.43 -0.336034 4.49646 0
M  V30 14290 C 1374.09 -0.0750373 4.81141 0
M  V30 14291 C 1376.44 0.314642 5.20249 0
M  V30 14292 C 1373.77 0.844286 5.80593 0
M  V30 14293 C 1376.12 1.22208 6.20684 0
M  V30 14294 C 1374.79 1.49187 6.50615 0
M  V30 14295 H 1374.06 -0.233512 0.703245 0
M  V30 14296 H 1376.7 0.102223 1.91227 0
M  V30 14297 H 1375.01 -2.09973 3.30785 0
M  V30 14298 H 1376.71 -1.81462 3.57593 0
M  V30 14299 H 1373.3 -0.549638 4.25061 0
M  V30 14300 H 1377.48 0.126074 4.9614 0
M  V30 14301 H 1372.74 1.06092 6.02125 0
M  V30 14302 H 1376.91 1.7324 6.74508 0
M  V30 14303 H 1374.54 2.20588 7.27492 0
M  V30 14304 N 1376.11 -1.55841 -0.234795 0
M  V30 14305 C 1377.36 -1.78238 -0.961116 0
M  V30 14306 C 1377.69 -0.604919 -1.84854 0
M  V30 14307 O 1376.94 0.411289 -1.91329 0
M  V30 14308 C 1377.24 -3.06262 -1.84223 0
M  V30 14309 C 1376.91 -4.37045 -1.10916 0
M  V30 14310 C 1375.57 -4.72582 -0.906606 0
M  V30 14311 C 1377.92 -5.17844 -0.59049 0
M  V30 14312 C 1375.25 -5.86444 -0.173275 0
M  V30 14313 C 1377.6 -6.32468 0.129433 0
M  V30 14314 C 1376.26 -6.66616 0.343357 0
M  V30 14315 H 1375.53 -0.652219 -0.351697 0
M  V30 14316 H 1378.18 -1.9011 -0.230272 0
M  V30 14317 H 1376.49 -2.89454 -2.64052 0
M  V30 14318 H 1378.18 -3.20791 -2.40612 0
M  V30 14319 H 1374.77 -4.09134 -1.27699 0
M  V30 14320 H 1378.96 -4.90835 -0.734487 0
M  V30 14321 H 1374.21 -6.114 0.00282409 0
M  V30 14322 H 1378.39 -6.94312 0.538905 0
M  V30 14323 H 1376.01 -7.54691 0.913538 0
M  V30 14324 N 1377.59 0.500963 -1.49426 0
M  V30 14325 C 1378.84 1.25509 -1.58915 0
M  V30 14326 C 1379.16 1.92534 -0.275868 0
M  V30 14327 O 1378.42 1.81324 0.736212 0
M  V30 14328 C 1378.72 2.34448 -2.69757 0
M  V30 14329 C 1378.38 1.8488 -4.11254 0
M  V30 14330 C 1377.05 1.71081 -4.49761 0
M  V30 14331 C 1379.4 1.4778 -4.9981 0
M  V30 14332 C 1376.73 1.18561 -5.74596 0
M  V30 14333 C 1379.08 0.967118 -6.25164 0
M  V30 14334 C 1377.74 0.815523 -6.62499 0
M  V30 14335 H 1377.01 0.459268 -0.58151 0
M  V30 14336 H 1379.66 0.555817 -1.83256 0
M  V30 14337 H 1377.96 3.10163 -2.39387 0
M  V30 14338 H 1379.66 2.925 -2.74308 0
M  V30 14339 H 1376.25 1.9658 -3.8086 0
M  V30 14340 H 1380.44 1.57288 -4.70717 0
M  V30 14341 H 1375.69 1.05536 -6.02223 0
M  V30 14342 H 1379.87 0.670857 -6.93161 0
M  V30 14343 H 1377.49 0.406375 -7.59113 0
M  V30 14344 N 1379.07 1.38501 0.752011 0
M  V30 14345 C 1380 1.38577 1.87933 0
M  V30 14346 C 1380.98 0.251454 1.68231 0
M  V30 14347 O 1382.16 0.45477 1.888 0
M  V30 14348 C 1379.29 1.21164 3.25479 0
M  V30 14349 C 1378.25 2.31816 3.59785 0
M  V30 14350 C 1377.57 1.99508 4.96085 0
M  V30 14351 C 1378.87 3.74082 3.645 0
M  V30 14352 H 1380.57 2.32913 1.88127 0
M  V30 14353 H 1378.11 1.12113 0.903698 0
M  V30 14354 H 1380.07 1.19842 4.04 0
M  V30 14355 H 1378.79 0.232899 3.25769 0
M  V30 14356 H 1377.45 2.32327 2.83584 0
M  V30 14357 H 1377.1 1.00114 4.92936 0
M  V30 14358 H 1376.8 2.73617 5.20007 0
M  V30 14359 H 1378.32 1.99807 5.76983 0
M  V30 14360 H 1379.74 3.75593 4.33131 0
M  V30 14361 H 1378.13 4.47409 3.99931 0
M  V30 14362 H 1379.2 4.06284 2.64692 0
M  V30 14363 N 1380.55 -0.980364 1.23396 0
M  V30 14364 C 1381.79 -1.72166 1.06607 0
M  V30 14365 C 1382.12 -1.90405 -0.397029 0
M  V30 14366 O 1381.38 -1.45363 -1.31027 0
M  V30 14367 C 1381.67 -3.12367 1.73671 0
M  V30 14368 C 1381.34 -3.14007 3.2359 0
M  V30 14369 C 1380 -3.14162 3.64494 0
M  V30 14370 C 1382.35 -3.09319 4.19489 0
M  V30 14371 C 1379.68 -3.07345 4.99756 0
M  V30 14372 C 1382.03 -3.04044 5.54743 0
M  V30 14373 C 1380.7 -3.02521 5.9501 0
M  V30 14374 H 1379.97 -0.63 0.390104 0
M  V30 14375 H 1382.62 -1.14727 1.5333 0
M  V30 14376 H 1380.92 -3.73193 1.19308 0
M  V30 14377 H 1382.62 -3.68493 1.58159 0
M  V30 14378 H 1379.21 -3.14644 2.91028 0
M  V30 14379 H 1383.39 -3.08339 3.88897 0
M  V30 14380 H 1378.65 -3.04519 5.30168 0
M  V30 14381 H 1382.82 -2.99374 6.28767 0
M  V30 14382 H 1380.45 -2.96994 6.99785 0
M  V30 14383 N 1382.02 -1.04567 -1.17913 0
M  V30 14384 C 1383.27 -0.752023 -1.88018 0
M  V30 14385 C 1383.6 0.720567 -1.8066 0
M  V30 14386 O 1382.85 1.54207 -1.20493 0
M  V30 14387 C 1383.15 -1.1699 -3.3771 0
M  V30 14388 C 1382.82 -2.64363 -3.65271 0
M  V30 14389 C 1381.48 -3.04622 -3.72503 0
M  V30 14390 C 1383.83 -3.59626 -3.77251 0
M  V30 14391 C 1381.16 -4.39023 -3.89199 0
M  V30 14392 C 1383.51 -4.93752 -3.95465 0
M  V30 14393 C 1382.18 -5.33675 -4.00933 0
M  V30 14394 H 1381.45 -0.275185 -0.688008 0
M  V30 14395 H 1384.09 -1.31161 -1.39532 0
M  V30 14396 H 1382.4 -0.529202 -3.8821 0
M  V30 14397 H 1384.1 -0.919981 -3.90304 0
M  V30 14398 H 1380.69 -2.32182 -3.60263 0
M  V30 14399 H 1384.87 -3.29665 -3.70992 0
M  V30 14400 H 1380.13 -4.69466 -3.91679 0
M  V30 14401 H 1384.3 -5.67467 -4.03676 0
M  V30 14402 H 1381.93 -6.37825 -4.13623 0
M  V30 14403 N 1383.5 1.34231 -0.825823 0
M  V30 14404 C 1384.43 2.31997 -0.264546 0
M  V30 14405 C 1385.41 1.58375 0.620592 0
M  V30 14406 O 1386.6 1.86341 0.546865 0
M  V30 14407 C 1383.73 3.42557 0.572025 0
M  V30 14408 C 1382.68 4.27454 -0.216219 0
M  V30 14409 C 1382.01 5.29509 0.743279 0
M  V30 14410 C 1383.31 5.02456 -1.42603 0
M  V30 14411 H 1385 2.79189 -1.08139 0
M  V30 14412 H 1382.55 1.34227 -0.521451 0
M  V30 14413 H 1384.5 4.09968 0.974889 0
M  V30 14414 H 1383.22 2.94021 1.42195 0
M  V30 14415 H 1381.88 3.61649 -0.600485 0
M  V30 14416 H 1381.53 4.77234 1.58924 0
M  V30 14417 H 1381.23 5.87188 0.220064 0
M  V30 14418 H 1382.76 5.99789 1.14394 0
M  V30 14419 H 1384.17 5.62706 -1.09702 0
M  V30 14420 H 1382.57 5.69723 -1.88509 0
M  V30 14421 H 1383.64 4.31983 -2.2027 0
M  V30 14422 N 1384.98 0.581051 1.46498 0
M  V30 14423 C 1386.23 0.0658652 2.01993 0
M  V30 14424 C 1386.55 -1.29807 1.45516 0
M  V30 14425 O 1385.82 -1.85177 0.639233 0
M  V30 14426 H 1384.4 0.0213584 0.746695 0
M  V30 14427 H 1387.06 0.756456 1.79621 0
M  V30 14428 H 1386.16 -0.00438128 3.121 0
M  V30 14429 N 1386.46 -1.54343 0.318742 0
M  V30 14430 C 1387.7 -2.00777 -0.285699 0
M  V30 14431 C 1388.04 -1.20664 -1.52164 0
M  V30 14432 O 1387.31 -0.287674 -1.92361 0
M  V30 14433 C 1387.59 -3.54641 -0.624649 0
M  V30 14434 C 1387.45 -4.45483 0.621663 0
M  V30 14435 C 1388.77 -4.15729 -1.4442 0
M  V30 14436 H 1385.89 -0.729856 -0.102367 0
M  V30 14437 H 1388.53 -1.84968 0.434364 0
M  V30 14438 H 1386.68 -3.68243 -1.23811 0
M  V30 14439 H 1388.35 -4.43759 1.25998 0
M  V30 14440 H 1386.59 -4.15356 1.25148 0
M  V30 14441 H 1387.26 -5.50951 0.340106 0
M  V30 14442 H 1389.74 -4.05672 -0.925699 0
M  V30 14443 H 1388.62 -5.23509 -1.65013 0
M  V30 14444 H 1388.88 -3.68743 -2.43887 0
M  V30 14445 N 1387.94 -0.0468143 -1.5753 0
M  V30 14446 C 1389.18 0.62299 -1.93624 0
M  V30 14447 C 1389.54 1.68708 -0.924955 0
M  V30 14448 O 1388.83 1.91517 0.0565039 0
M  V30 14449 C 1389.02 1.26669 -3.342 0
M  V30 14450 C 1388.85 0.266476 -4.4891 0
M  V30 14451 C 1387.62 -0.139995 -5.05106 0
M  V30 14452 C 1389.82 -0.48636 -5.11995 0
M  V30 14453 N 1387.8 -1.13352 -6.03344 0
M  V30 14454 C 1389.17 -1.3331 -6.05498 0
M  V30 14455 C 1391.23 -0.545145 -4.94907 0
M  V30 14456 C 1389.93 -2.23336 -6.8375 0
M  V30 14457 C 1391.96 -1.43281 -5.73781 0
M  V30 14458 C 1391.32 -2.26729 -6.66913 0
M  V30 14459 H 1387.42 0.199745 -0.756059 0
M  V30 14460 H 1390 -0.118128 -1.94341 0
M  V30 14461 H 1388.17 1.97785 -3.34269 0
M  V30 14462 H 1389.91 1.89494 -3.57595 0
M  V30 14463 H 1386.66 0.238079 -4.73001 0
M  V30 14464 H 1387.08 -1.62705 -6.57157 0
M  V30 14465 H 1391.73 0.0857851 -4.22713 0
M  V30 14466 H 1389.44 -2.87476 -7.55237 0
M  V30 14467 H 1393.03 -1.48281 -5.62587 0
M  V30 14468 H 1391.91 -2.94302 -7.26881 0
M  V30 14469 N 1389.41 1.55964 0.226527 0
M  V30 14470 C 1390.34 1.95028 1.284 0
M  V30 14471 C 1391.33 0.817833 1.49149 0
M  V30 14472 O 1392.51 1.07975 1.61416 0
M  V30 14473 C 1389.64 2.26266 2.63478 0
M  V30 14474 C 1388.59 3.41954 2.57393 0
M  V30 14475 C 1387.92 3.58786 3.96456 0
M  V30 14476 C 1389.22 4.77069 2.12608 0
M  V30 14477 H 1390.91 2.83608 0.959513 0
M  V30 14478 H 1388.46 1.36451 0.460125 0
M  V30 14479 H 1390.41 2.52186 3.3761 0
M  V30 14480 H 1389.14 1.34533 2.97604 0
M  V30 14481 H 1387.8 3.16076 1.85719 0
M  V30 14482 H 1387.44 2.64437 4.27881 0
M  V30 14483 H 1387.14 4.36595 3.93267 0
M  V30 14484 H 1388.67 3.87048 4.72256 0
M  V30 14485 H 1390.08 5.02226 2.76481 0
M  V30 14486 H 1388.48 5.58126 2.2049 0
M  V30 14487 H 1389.55 4.7276 1.07823 0
M  V30 14488 N 1390.89 -0.493031 1.4969 0
M  V30 14489 C 1392.14 -1.24849 1.59814 0
M  V30 14490 C 1392.47 -1.92059 0.287555 0
M  V30 14491 O 1391.75 -1.81099 -0.709471 0
M  V30 14492 C 1392.03 -2.30929 2.76304 0
M  V30 14493 C 1391.88 -1.68167 4.17181 0
M  V30 14494 C 1393.2 -3.32427 2.8841 0
M  V30 14495 H 1390.32 -0.452553 0.581691 0
M  V30 14496 H 1392.96 -0.545455 1.82002 0
M  V30 14497 H 1391.11 -2.9089 2.57517 0
M  V30 14498 H 1392.78 -1.11971 4.47504 0
M  V30 14499 H 1391.03 -0.985496 4.22458 0
M  V30 14500 H 1391.7 -2.45148 4.94577 0
M  V30 14501 H 1394.17 -2.82464 3.05537 0
M  V30 14502 H 1393.05 -4.04004 3.71581 0
M  V30 14503 H 1393.31 -3.95234 1.98097 0
M  V30 14504 N 1392.37 -1.38898 -0.744656 0
M  V30 14505 C 1393.33 -1.36633 -1.84022 0
M  V30 14506 C 1394.33 -0.265187 -1.58598 0
M  V30 14507 O 1395.52 -0.522569 -1.66177 0
M  V30 14508 C 1392.66 -1.12938 -3.21649 0
M  V30 14509 H 1393.85 -2.34111 -1.87435 0
M  V30 14510 H 1391.4 -1.24322 -0.947302 0
M  V30 14511 H 1392.14 -0.161027 -3.239 0
M  V30 14512 H 1391.92 -1.9267 -3.41498 0
M  V30 14513 H 1393.41 -1.14071 -4.01718 0
M  V30 14514 N 1393.85 0.973806 -1.23914 0
M  V30 14515 C 1395.08 1.74853 -1.10046 0
M  V30 14516 C 1395.49 1.85927 0.350388 0
M  V30 14517 O 1394.83 1.34252 1.25388 0
M  V30 14518 C 1394.89 3.18919 -1.65924 0
M  V30 14519 C 1394.56 3.31335 -3.14748 0
M  V30 14520 C 1395.55 3.17141 -4.11968 0
M  V30 14521 C 1393.24 3.55772 -3.54587 0
M  V30 14522 C 1395.23 3.27199 -5.47009 0
M  V30 14523 C 1392.92 3.65468 -4.89771 0
M  V30 14524 C 1393.92 3.51193 -5.85792 0
M  V30 14525 O 1393.6 3.60534 -7.18519 0
M  V30 14526 H 1393.34 0.555345 -0.385445 0
M  V30 14527 H 1395.89 1.23168 -1.64374 0
M  V30 14528 H 1394.12 3.71882 -1.06023 0
M  V30 14529 H 1395.81 3.78177 -1.47434 0
M  V30 14530 H 1396.58 2.98153 -3.82531 0
M  V30 14531 H 1392.45 3.65951 -2.80358 0
M  V30 14532 H 1396 3.15974 -6.21937 0
M  V30 14533 H 1391.9 3.83969 -5.18882 0
M  V30 14534 H 1392.66 3.77288 -7.26358 0
M  V30 14535 N 1395.33 1.05191 1.17357 0
M  V30 14536 C 1396.57 0.760479 1.87246 0
M  V30 14537 C 1396.9 -0.714618 1.81434 0
M  V30 14538 O 1396.17 -1.51636 1.24029 0
M  V30 14539 H 1394.75 0.278317 0.693216 0
M  V30 14540 H 1397.41 1.33106 1.42369 0
M  V30 14541 H 1396.5 1.07542 2.92987 0
M  V30 14542 N 1396.8 -1.33791 0.83293 0
M  V30 14543 C 1398.05 -1.98266 0.426412 0
M  V30 14544 C 1398.38 -1.65848 -1.01035 0
M  V30 14545 O 1397.66 -0.93528 -1.70537 0
M  V30 14546 C 1397.94 -3.54356 0.640586 0
M  V30 14547 C 1397.79 -3.96482 2.12419 0
M  V30 14548 C 1399.11 -4.40022 0.0829237 0
M  V30 14549 H 1396.23 -0.720213 0.156404 0
M  V30 14550 H 1398.87 -1.58527 1.04735 0
M  V30 14551 H 1397.02 -3.88338 0.11204 0
M  V30 14552 H 1398.7 -3.72786 2.71714 0
M  V30 14553 H 1396.94 -3.46429 2.61092 0
M  V30 14554 H 1397.61 -5.05179 2.22482 0
M  V30 14555 H 1400.09 -4.12651 0.534634 0
M  V30 14556 H 1398.96 -5.48272 0.262511 0
M  V30 14557 H 1399.22 -4.30341 -1.01287 0
M  V30 14558 N 1398.28 -0.588812 -1.46187 0
M  V30 14559 C 1399.25 0.130803 -2.28826 0
M  V30 14560 C 1400.25 0.813037 -1.38731 0
M  V30 14561 O 1401.44 0.664061 -1.61046 0
M  V30 14562 C 1398.57 1.19484 -3.19275 0
M  V30 14563 H 1399.76 -0.595514 -2.93928 0
M  V30 14564 H 1397.31 -0.347038 -1.52399 0
M  V30 14565 H 1398.05 1.95254 -2.58933 0
M  V30 14566 H 1397.83 0.710077 -3.85617 0
M  V30 14567 H 1399.32 1.69938 -3.81459 0
M  V30 14568 N 1399.76 1.54172 -0.326923 0
M  V30 14569 C 1400.99 2.05044 0.276508 0
M  V30 14570 C 1401.4 1.20288 1.45521 0
M  V30 14571 O 1400.76 0.234324 1.80989 0
M  V30 14572 C 1400.81 3.54505 0.707714 0
M  V30 14573 O 1400.53 4.36042 -0.424098 0
M  V30 14574 C 1402.03 4.21482 1.3736 0
M  V30 14575 H 1399.25 0.668632 0.0563273 0
M  V30 14576 H 1401.8 1.98929 -0.474087 0
M  V30 14577 H 1399.95 3.60896 1.40828 0
M  V30 14578 H 1400.37 5.24433 -0.0836846 0
M  V30 14579 H 1401.84 5.27501 1.62623 0
M  V30 14580 H 1402.32 3.72802 2.32196 0
M  V30 14581 H 1402.92 4.19238 0.715526 0
M  V30 14582 N 1401.24 0.0551678 1.57503 0
M  V30 14583 C 1402.15 -0.932959 2.15251 0
M  V30 14584 C 1403.16 -1.33885 1.11134 0
M  V30 14585 O 1404.34 -1.41495 1.43321 0
M  V30 14586 C 1401.41 -2.18807 2.68932 0
M  V30 14587 C 1400.47 -1.84016 3.87862 0
M  V30 14588 C 1399.7 -3.03543 4.38973 0
M  V30 14589 O 1399.92 -4.17041 3.89144 0
M  V30 14590 O 1398.86 -2.84325 5.30512 0
M  V30 14591 H 1402.68 -0.471816 3.00013 0
M  V30 14592 H 1400.27 -0.16696 1.48464 0
M  V30 14593 H 1402.15 -2.92439 3.0341 0
M  V30 14594 H 1400.82 -2.64051 1.87239 0
M  V30 14595 H 1399.73 -1.07687 3.58266 0
M  V30 14596 H 1401.06 -1.43567 4.70796 0
M  V30 14597 N 1402.72 -1.56081 -0.218252 0
M  V30 14598 C 1403.96 -1.78893 -0.940296 0
M  V30 14599 C 1404.29 -0.62425 -1.84738 0
M  V30 14600 O 1403.56 0.358686 -1.92588 0
M  V30 14601 H 1402.14 -0.659828 -0.350193 0
M  V30 14602 H 1404.8 -1.93546 -0.229316 0
M  V30 14603 H 1403.89 -2.71167 -1.54516 0
M  V30 14604 N 1404.2 0.485086 -1.49949 0
M  V30 14605 C 1405.13 1.59312 -1.7071 0
M  V30 14606 C 1406.11 1.6076 -0.555896 0
M  V30 14607 O 1407.29 1.77249 -0.793504 0
M  V30 14608 C 1404.42 2.97718 -1.78834 0
M  V30 14609 C 1403.38 3.11136 -2.93902 0
M  V30 14610 C 1402.7 4.51051 -2.87154 0
M  V30 14611 C 1404 2.89665 -4.34617 0
M  V30 14612 H 1405.7 1.42192 -2.6348 0
M  V30 14613 H 1403.24 0.68262 -1.26792 0
M  V30 14614 H 1405.19 3.75148 -1.91943 0
M  V30 14615 H 1403.92 3.15963 -0.826744 0
M  V30 14616 H 1402.58 2.36135 -2.80421 0
M  V30 14617 H 1402.23 4.66195 -1.88869 0
M  V30 14618 H 1401.93 4.60967 -3.64394 0
M  V30 14619 H 1403.45 5.3052 -3.02293 0
M  V30 14620 H 1404.86 3.56853 -4.48697 0
M  V30 14621 H 1403.26 3.11039 -5.13201 0
M  V30 14622 H 1404.33 1.85642 -4.47956 0
M  V30 14623 N 1405.67 1.39291 0.737279 0
M  V30 14624 C 1406.6 1.40562 1.86452 0
M  V30 14625 C 1407.58 0.269283 1.67955 0
M  V30 14626 O 1408.77 0.474769 1.88307 0
M  V30 14627 C 1405.9 1.2461 3.24175 0
M  V30 14628 C 1404.85 2.35619 3.57306 0
M  V30 14629 C 1404.18 2.04758 4.93941 0
M  V30 14630 C 1405.48 3.77927 3.60512 0
M  V30 14631 H 1407.17 2.34896 1.85646 0
M  V30 14632 H 1404.72 1.13065 0.891756 0
M  V30 14633 H 1406.67 1.2412 4.02706 0
M  V30 14634 H 1405.4 0.267438 3.25503 0
M  V30 14635 H 1404.06 2.35322 2.81104 0
M  V30 14636 H 1403.7 1.05336 4.91847 0
M  V30 14637 H 1403.4 2.79117 5.17076 0
M  V30 14638 H 1404.93 2.05915 5.74832 0
M  V30 14639 H 1406.34 3.80166 4.29123 0
M  V30 14640 H 1404.74 4.51626 3.95164 0
M  V30 14641 H 1405.81 4.09068 2.60368 0
M  V30 14642 N 1407.15 -0.967221 1.24429 0
M  V30 14643 C 1408.57 -1.23594 1.00979 0
M  V30 14644 C 1408.77 -1.99529 -0.281112 0
M  V30 14645 O 1407.82 -2.31977 -0.997139 0
M  V30 14646 C 1409.14 -2.02261 2.22511 0
M  V30 14647 C 1410.68 -2.15352 2.2714 0
M  V30 14648 C 1411.16 -2.97414 3.48294 0
M  V30 14649 N 1412.65 -3.04996 3.48614 0
M  V30 14650 C 1413.39 -3.68851 4.39017 0
M  V30 14651 N 1412.88 -4.34421 5.39676 0
M  V30 14652 N 1414.67 -3.65868 4.26728 0
M  V30 14653 H 1406.83 -0.458881 2.07384 0
M  V30 14654 H 1409.09 -0.265411 0.910088 0
M  V30 14655 H 1408.79 -1.53852 3.16263 0
M  V30 14656 H 1408.67 -3.02993 2.24667 0
M  V30 14657 H 1411.06 -2.62964 1.33919 0
M  V30 14658 H 1411.14 -1.13966 2.2901 0
M  V30 14659 H 1410.78 -2.50495 4.41831 0
M  V30 14660 H 1410.71 -3.98998 3.43668 0
M  V30 14661 H 1413.2 -2.58354 2.75793 0
M  V30 14662 H 1413.51 -4.80965 6.04891 0
M  V30 14663 H 1411.86 -4.33089 5.43562 0
M  V30 14664 H 1415.05 -3.13819 3.47325 0
M  V30 14665 H 1415.22 -4.15349 4.97382 0
M  V30 14666 N 1408.63 -1.05812 -1.16797 0
M  V30 14667 C 1410.04 -0.79707 -1.6883 0
M  V30 14668 C 1410.39 0.679967 -1.8404 0
M  V30 14669 O 1409.52 1.5279 -1.53245 0
M  V30 14670 C 1410.11 -1.44029 -3.06661 0
M  V30 14671 C 1408.67 -1.22714 -3.55835 0
M  V30 14672 C 1407.82 -1.51988 -2.31937 0
M  V30 14673 H 1410.77 -1.22224 -1.01227 0
M  V30 14674 H 1410.79 -0.852962 -3.70816 0
M  V30 14675 H 1410.3 -2.51529 -2.95559 0
M  V30 14676 H 1408.4 -0.171671 -3.72204 0
M  V30 14677 H 1408.52 -1.93646 -4.38221 0
M  V30 14678 H 1406.88 -0.940215 -2.36711 0
M  V30 14679 H 1407.66 -2.60635 -2.23438 0
M  V30 14680 N 1410.11 1.33347 -0.840014 0
M  V30 14681 C 1411.52 1.50615 -0.52795 0
M  V30 14682 C 1411.72 1.77993 0.944493 0
M  V30 14683 O 1410.78 1.84087 1.72824 0
M  V30 14684 C 1412.09 2.66001 -1.40228 0
M  V30 14685 C 1413.64 2.79886 -1.40117 0
M  V30 14686 C 1414.12 3.98335 -2.26038 0
M  V30 14687 N 1415.61 4.05572 -2.23753 0
M  V30 14688 C 1416.34 4.96422 -2.86972 0
M  V30 14689 N 1415.84 5.9238 -3.59247 0
M  V30 14690 N 1417.63 4.89428 -2.76436 0
M  V30 14691 H 1409.78 1.13839 -1.79317 0
M  V30 14692 H 1412.04 0.559772 -0.765088 0
M  V30 14693 H 1411.75 2.52453 -2.44868 0
M  V30 14694 H 1411.62 3.61434 -1.07914 0
M  V30 14695 H 1414.01 2.92865 -0.362487 0
M  V30 14696 H 1414.09 1.85211 -1.76439 0
M  V30 14697 H 1413.74 3.86115 -3.29966 0
M  V30 14698 H 1413.67 4.92257 -1.87057 0
M  V30 14699 H 1416.16 3.36899 -1.71195 0
M  V30 14700 H 1416.47 6.58367 -4.04688 0
M  V30 14701 H 1414.82 5.92451 -3.63354 0
M  V30 14702 H 1418.01 4.13428 -2.19534 0
M  V30 14703 H 1418.18 5.60032 -3.25989 0
M  V30 14704 N 1411.59 0.596556 1.45873 0
M  V30 14705 C 1412.86 0.0199562 1.9559 0
M  V30 14706 C 1413.24 -1.44479 1.53912 0
M  V30 14707 O 1412.59 -2.14173 0.796384 0
M  V30 14708 C 1412.8 0.206497 3.48389 0
M  V30 14709 C 1414.15 0.0815298 4.24522 0
M  V30 14710 O 1415.17 0.136045 3.5594 0
M  V30 14711 O 1414.03 -0.0426117 5.46483 0
M  V30 14712 H 1411.13 -0.0419913 0.825933 0
M  V30 14713 H 1413.67 0.665846 1.56092 0
M  V30 14714 H 1412.44 1.22422 3.71656 0
M  V30 14715 H 1412.07 -0.475175 3.9475 0
M  V30 14716 N 1413.06 -1.53996 0.335095 0
M  V30 14717 C 1414.29 -2.05657 -0.268328 0
M  V30 14718 C 1414.71 -1.20897 -1.44102 0
M  V30 14719 O 1414.07 -0.220737 -1.79951 0
M  V30 14720 C 1414.12 -3.54331 -0.669481 0
M  V30 14721 O 1413.22 -3.7246 -1.77052 0
M  V30 14722 H 1412.56 -0.662386 -0.0462705 0
M  V30 14723 H 1415.09 -1.98723 0.486854 0
M  V30 14724 H 1415.1 -3.9681 -0.948971 0
M  V30 14725 H 1413.78 -4.15474 0.188168 0
M  V30 14726 H 1412.36 -3.41884 -1.48895 0
M  V30 14727 N 1414.54 -0.0635198 -1.57472 0
M  V30 14728 C 1415.82 0.648029 -1.84553 0
M  V30 14729 C 1416.2 1.88295 -0.954371 0
M  V30 14730 O 1415.55 2.28492 -0.0185351 0
M  V30 14731 C 1415.76 0.993573 -3.34558 0
M  V30 14732 C 1417.1 1.3706 -4.0187 0
M  V30 14733 O 1418.13 1.08555 -3.39255 0
M  V30 14734 O 1416.99 1.90309 -5.12294 0
M  V30 14735 H 1414.08 0.321047 -0.76214 0
M  V30 14736 H 1416.63 -0.0938223 -1.6944 0
M  V30 14737 H 1415.4 0.116139 -3.91128 0
M  V30 14738 H 1415.02 1.79246 -3.54904 0
M  V30 14739 N 1416.02 1.56195 0.209972 0
M  V30 14740 C 1417.27 1.79745 0.932638 0
M  V30 14741 C 1417.59 0.634252 1.83868 0
M  V30 14742 O 1416.85 -0.380798 1.91959 0
M  V30 14743 C 1417.15 3.09154 1.79328 0
M  V30 14744 C 1416.81 4.38754 1.03949 0
M  V30 14745 C 1415.48 4.73965 0.831308 0
M  V30 14746 C 1417.83 5.18718 0.508031 0
M  V30 14747 C 1415.16 5.86646 0.0799547 0
M  V30 14748 C 1417.51 6.32182 -0.230037 0
M  V30 14749 C 1416.17 6.65986 -0.449366 0
M  V30 14750 H 1415.44 0.657732 0.341276 0
M  V30 14751 H 1418.09 1.90453 0.199998 0
M  V30 14752 H 1416.39 2.93618 2.59414 0
M  V30 14753 H 1418.09 3.24578 2.35478 0
M  V30 14754 H 1414.68 4.11114 1.21174 0
M  V30 14755 H 1418.87 4.91941 0.656306 0
M  V30 14756 H 1414.12 6.11318 -0.100092 0
M  V30 14757 H 1418.3 6.93367 -0.649296 0
M  V30 14758 H 1415.92 7.53142 -1.03349 0
M  V30 14759 N 1417.5 -0.477127 1.50204 0
M  V30 14760 C 1418.91 -1.05815 1.53819 0
M  V30 14761 C 1419.26 -1.93264 0.338169 0
M  V30 14762 O 1418.38 -2.09305 -0.549576 0
M  V30 14763 C 1418.98 -1.92577 2.78746 0
M  V30 14764 C 1417.54 -2.45799 2.85061 0
M  V30 14765 C 1416.69 -1.23994 2.48034 0
M  V30 14766 H 1419.64 -0.259998 1.56556 0
M  V30 14767 H 1419.66 -2.7757 2.6026 0
M  V30 14768 H 1419.17 -1.28904 3.66068 0
M  V30 14769 H 1417.27 -3.13042 2.02077 0
M  V30 14770 H 1417.38 -2.81318 3.8781 0
M  V30 14771 H 1415.75 -1.5728 2.00338 0
M  V30 14772 H 1416.53 -0.619917 3.37657 0
M  V30 14773 N 1418.98 -1.3968 -0.729882 0
M  V30 14774 C 1420.2 -1.40654 -1.52418 0
M  V30 14775 C 1420.63 -0.00428997 -1.881 0
M  V30 14776 O 1419.98 0.984023 -1.52272 0
M  V30 14777 C 1420.03 -2.29057 -2.78506 0
M  V30 14778 O 1419.14 -1.72397 -3.74637 0
M  V30 14779 H 1418.48 -0.478761 -0.460091 0
M  V30 14780 H 1421.01 -1.83738 -0.900087 0
M  V30 14781 H 1421.02 -2.43748 -3.27187 0
M  V30 14782 H 1419.69 -3.30961 -2.51868 0
M  V30 14783 H 1418.27 -1.66977 -3.33426 0
M  V30 14784 N 1420.45 0.960609 -1.2494 0
M  V30 14785 C 1421.7 1.69884 -1.08731 0
M  V30 14786 C 1422.02 1.92018 0.372602 0
M  V30 14787 O 1423.22 2.6348 0.655018 0
M  V30 14788 C 1421.68 3.05815 -1.8975 0
M  V30 14789 C 1421.29 2.91498 -3.40196 0
M  V30 14790 C 1423.03 3.83462 -1.82092 0
M  V30 14791 C 1420.94 4.22783 -4.13532 0
M  V30 14792 H 1419.87 0.637087 -0.403281 0
M  V30 14793 H 1422.52 1.06987 -1.49084 0
M  V30 14794 H 1420.9 3.69582 -1.42216 0
M  V30 14795 H 1422.07 2.367 -3.9536 0
M  V30 14796 H 1420.39 2.27312 -3.48882 0
M  V30 14797 H 1422.99 4.8069 -2.34181 0
M  V30 14798 H 1423.33 4.08782 -0.787597 0
M  V30 14799 H 1423.86 3.26435 -2.27344 0
M  V30 14800 H 1420.6 4.02653 -5.17253 0
M  V30 14801 H 1420.12 4.77369 -3.63152 0
M  V30 14802 H 1421.8 4.91361 -4.2092 0
M  V30 14803 N 1421.93 1.0643 1.16234 0
M  V30 14804 C 1422.86 0.697605 2.22836 0
M  V30 14805 C 1423.84 -0.310563 1.67241 0
M  V30 14806 O 1425.03 -0.185385 1.93313 0
M  V30 14807 C 1422.16 0.0847097 3.47197 0
M  V30 14808 C 1421.11 1.019 4.15693 0
M  V30 14809 C 1420.44 0.269339 5.34021 0
M  V30 14810 C 1421.74 2.34861 4.66516 0
M  V30 14811 H 1423.43 1.58883 2.53765 0
M  V30 14812 H 1420.98 0.765388 1.21975 0
M  V30 14813 H 1422.93 -0.1837 4.20999 0
M  V30 14814 H 1421.66 -0.84154 3.15572 0
M  V30 14815 H 1420.31 1.27218 3.43818 0
M  V30 14816 H 1419.96 -0.660072 4.9865 0
M  V30 14817 H 1419.66 0.892001 5.8079 0
M  V30 14818 H 1421.19 0.00850775 6.10599 0
M  V30 14819 H 1422.6 2.13922 5.31893 0
M  V30 14820 H 1421 2.92637 5.23912 0
M  V30 14821 H 1422.07 2.97834 3.82653 0
M  V30 14822 N 1423.41 -1.329 0.847073 0
M  V30 14823 C 1424.83 -1.50333 0.53593 0
M  V30 14824 C 1425.03 -1.78492 -0.93504 0
M  V30 14825 O 1424.08 -1.85001 -1.71846 0
M  V30 14826 C 1425.4 -2.65254 1.41636 0
M  V30 14827 C 1426.94 -2.79139 1.416 0
M  V30 14828 C 1427.42 -3.97131 2.28147 0
M  V30 14829 N 1428.91 -4.0438 2.25901 0
M  V30 14830 C 1429.64 -4.94893 2.89601 0
M  V30 14831 N 1429.14 -5.90466 3.62383 0
M  V30 14832 N 1430.93 -4.87955 2.79028 0
M  V30 14833 H 1423.08 -1.12886 1.79918 0
M  V30 14834 H 1425.35 -0.555707 0.768045 0
M  V30 14835 H 1425.05 -2.51151 2.46203 0
M  V30 14836 H 1424.93 -3.60856 1.09829 0
M  V30 14837 H 1427.31 -2.92669 0.378013 0
M  V30 14838 H 1427.4 -1.84273 1.77418 0
M  V30 14839 H 1427.04 -3.8436 3.32009 0
M  V30 14840 H 1426.97 -4.91258 1.89665 0
M  V30 14841 H 1429.46 -3.35986 1.72979 0
M  V30 14842 H 1429.77 -6.56212 4.08174 0
M  V30 14843 H 1428.12 -5.90516 3.66491 0
M  V30 14844 H 1431.31 -4.12258 2.21723 0
M  V30 14845 H 1431.48 -5.58295 3.28954 0
M  V30 14846 N 1424.89 -0.604284 -1.45555 0
M  V30 14847 C 1426.3 -0.267665 -1.57339 0
M  V30 14848 C 1426.5 1.22984 -1.59616 0
M  V30 14849 O 1425.56 2.0127 -1.52468 0
M  V30 14850 C 1426.87 -0.935923 -2.85764 0
M  V30 14851 C 1428.42 -0.911531 -2.99433 0
M  V30 14852 C 1428.9 -1.55974 -4.30623 0
M  V30 14853 N 1430.39 -1.52507 -4.37374 0
M  V30 14854 C 1431.12 -1.9958 -5.37546 0
M  V30 14855 N 1430.62 -2.54724 -6.44273 0
M  V30 14856 N 1432.41 -1.90368 -5.28882 0
M  V30 14857 H 1424.56 -1.57666 -1.42321 0
M  V30 14858 H 1426.83 -0.66028 -0.680245 0
M  V30 14859 H 1426.53 -1.99022 -2.89971 0
M  V30 14860 H 1426.41 -0.457194 -3.74419 0
M  V30 14861 H 1428.79 0.134206 -2.94795 0
M  V30 14862 H 1428.87 -1.42849 -2.12197 0
M  V30 14863 H 1428.52 -2.60479 -4.3602 0
M  V30 14864 H 1428.45 -1.01782 -5.1667 0
M  V30 14865 H 1430.94 -1.12221 -3.60853 0
M  V30 14866 H 1431.25 -2.88445 -7.16951 0
M  V30 14867 H 1429.6 -2.58761 -6.45033 0
M  V30 14868 H 1432.79 -1.47029 -4.4441 0
M  V30 14869 H 1432.96 -2.27367 -6.06802 0
M  V30 14870 N 1426.37 1.53816 -0.343257 0
M  V30 14871 C 1427.61 2.01207 0.253721 0
M  V30 14872 C 1427.95 1.23069 1.50225 0
M  V30 14873 O 1427.22 0.31824 1.91879 0
M  V30 14874 C 1427.5 3.5559 0.56815 0
M  V30 14875 C 1427.36 4.44438 -0.692457 0
M  V30 14876 C 1428.68 4.17974 1.37788 0
M  V30 14877 H 1425.79 0.731392 0.0907427 0
M  V30 14878 H 1428.44 1.84254 -0.463736 0
M  V30 14879 H 1426.59 3.70166 1.17937 0
M  V30 14880 H 1428.26 4.41698 -1.33042 0
M  V30 14881 H 1426.5 4.13312 -1.3174 0
M  V30 14882 H 1427.17 5.5034 -0.427715 0
M  V30 14883 H 1429.65 4.07094 0.861043 0
M  V30 14884 H 1428.52 5.26068 1.56663 0
M  V30 14885 H 1428.79 3.72577 2.3799 0
M  V30 14886 N 1427.84 0.0718701 1.57436 0
M  V30 14887 C 1429.09 -0.597231 1.93493 0
M  V30 14888 C 1429.42 -1.69614 0.951906 0
M  V30 14889 O 1428.67 -1.95673 -0.0324554 0
M  V30 14890 C 1428.97 -1.21336 3.36173 0
M  V30 14891 C 1428.64 -0.240582 4.50258 0
M  V30 14892 C 1427.3 0.0270368 4.81192 0
M  V30 14893 C 1429.65 0.424924 5.19465 0
M  V30 14894 C 1426.98 0.967249 5.78672 0
M  V30 14895 C 1429.33 1.35346 6.17952 0
M  V30 14896 C 1428 1.62954 6.47304 0
M  V30 14897 H 1427.27 -0.218542 0.70804 0
M  V30 14898 H 1429.91 0.142762 1.90967 0
M  V30 14899 H 1428.22 -2.02909 3.35164 0
M  V30 14900 H 1429.92 -1.73836 3.61361 0
M  V30 14901 H 1426.51 -0.459352 4.26131 0
M  V30 14902 H 1430.69 0.231285 4.95761 0
M  V30 14903 H 1425.95 1.1884 5.99739 0
M  V30 14904 H 1430.12 1.87509 6.70681 0
M  V30 14905 H 1427.75 2.3597 7.2265 0
M  V30 14906 N 1429.32 -1.56304 -0.201686 0
M  V30 14907 C 1430.55 -1.84074 -0.938103 0
M  V30 14908 C 1430.96 -0.651377 -1.77634 0
M  V30 14909 O 1430.3 0.389278 -1.79528 0
M  V30 14910 C 1430.37 -3.05856 -1.88924 0
M  V30 14911 C 1430.03 -4.40036 -1.2336 0
M  V30 14912 C 1431.03 -5.16265 -0.613737 0
M  V30 14913 C 1428.71 -4.86768 -1.23942 0
M  V30 14914 C 1430.71 -6.37399 -0.00844569 0
M  V30 14915 C 1428.39 -6.07841 -0.630296 0
M  V30 14916 C 1429.39 -6.82998 -0.0158799 0
M  V30 14917 O 1429.08 -8.01778 0.58372 0
M  V30 14918 H 1428.81 -0.615492 -0.279545 0
M  V30 14919 H 1431.36 -2.04262 -0.215938 0
M  V30 14920 H 1429.59 -2.81536 -2.65093 0
M  V30 14921 H 1431.28 -3.20328 -2.49289 0
M  V30 14922 H 1432.05 -4.81257 -0.601424 0
M  V30 14923 H 1427.93 -4.2823 -1.70705 0
M  V30 14924 H 1431.47 -6.96003 0.47174 0
M  V30 14925 H 1427.37 -6.42319 -0.640089 0
M  V30 14926 H 1428.14 -8.17091 0.479979 0
M  V30 14927 N 1430.8 0.469154 -1.50455 0
M  V30 14928 C 1432.22 0.803067 -1.37924 0
M  V30 14929 C 1432.42 1.96708 -0.436837 0
M  V30 14930 O 1431.47 2.52216 0.119823 0
M  V30 14931 C 1432.79 1.11332 -2.79331 0
M  V30 14932 C 1434.33 1.21965 -2.88259 0
M  V30 14933 C 1434.81 1.56302 -4.30504 0
M  V30 14934 N 1436.3 1.6329 -4.33464 0
M  V30 14935 C 1437.03 1.91367 -5.40524 0
M  V30 14936 N 1436.53 2.17451 -6.57789 0
M  V30 14937 N 1438.32 1.92885 -5.2797 0
M  V30 14938 H 1430.47 -0.297928 -2.103 0
M  V30 14939 H 1432.74 -0.0707794 -0.945354 0
M  V30 14940 H 1432.44 0.331052 -3.50138 0
M  V30 14941 H 1432.32 2.04903 -3.16693 0
M  V30 14942 H 1434.7 1.99259 -2.17669 0
M  V30 14943 H 1434.79 0.263692 -2.54437 0
M  V30 14944 H 1434.43 0.795479 -5.01632 0
M  V30 14945 H 1434.36 2.53052 -4.61814 0
M  V30 14946 H 1436.85 1.45164 -3.48907 0
M  V30 14947 H 1437.16 2.38154 -7.35189 0
M  V30 14948 H 1435.51 2.14839 -6.60961 0
M  V30 14949 H 1438.7 1.72005 -4.35353 0
M  V30 14950 H 1438.87 2.1443 -6.11493 0
M  V30 14951 N 1432.28 1.40065 0.722464 0
M  V30 14952 C 1433.69 1.33876 1.30131 0
M  V30 14953 C 1434.04 0.00899369 1.96198 0
M  V30 14954 O 1433.17 -0.893082 1.97112 0
M  V30 14955 C 1433.76 2.42469 2.36631 0
M  V30 14956 C 1432.32 2.39762 2.90157 0
M  V30 14957 C 1431.47 2.23704 1.63865 0
M  V30 14958 H 1434.42 1.49971 0.519077 0
M  V30 14959 H 1434.44 2.0998 3.17315 0
M  V30 14960 H 1433.95 3.39239 1.88517 0
M  V30 14961 H 1432.05 1.46669 3.42519 0
M  V30 14962 H 1432.16 3.35092 3.42419 0
M  V30 14963 H 1430.53 1.71098 1.88674 0
M  V30 14964 H 1431.31 3.22462 1.17785 0
M  V30 14965 N 1433.76 -0.95397 1.25448 0
M  V30 14966 C 1434.99 -1.7308 1.12814 0
M  V30 14967 C 1435.4 -1.86461 -0.320764 0
M  V30 14968 O 1434.74 -1.3623 -1.23236 0
M  V30 14969 C 1434.8 -3.16239 1.70976 0
M  V30 14970 C 1434.46 -3.26286 3.19979 0
M  V30 14971 C 1435.46 -3.10547 4.16961 0
M  V30 14972 C 1433.15 -3.50085 3.60202 0
M  V30 14973 C 1435.14 -3.18456 5.52146 0
M  V30 14974 C 1432.83 -3.5763 4.95524 0
M  V30 14975 C 1433.83 -3.4183 5.91305 0
M  V30 14976 O 1433.51 -3.49058 7.24164 0
M  V30 14977 H 1433.25 -0.549143 0.394231 0
M  V30 14978 H 1435.8 -1.20538 1.66312 0
M  V30 14979 H 1434.03 -3.70148 1.11926 0
M  V30 14980 H 1435.72 -3.75784 1.53432 0
M  V30 14981 H 1436.48 -2.92029 3.87226 0
M  V30 14982 H 1432.36 -3.61445 2.86145 0
M  V30 14983 H 1435.91 -3.0604 6.26885 0
M  V30 14984 H 1431.8 -3.75665 5.24925 0
M  V30 14985 H 1432.57 -3.65684 7.32269 0
M  V30 14986 N 1435.24 -1.07045 -1.15668 0
M  V30 14987 C 1436.17 -0.709413 -2.22463 0
M  V30 14988 C 1437.15 0.30169 -1.67403 0
M  V30 14989 O 1438.33 0.175131 -1.93409 0
M  V30 14990 C 1435.46 -0.103121 -3.47147 0
M  V30 14991 C 1434.42 -1.04103 -4.15146 0
M  V30 14992 C 1433.74 -0.297656 -5.33871 0
M  V30 14993 C 1435.04 -2.37332 -4.65264 0
M  V30 14994 H 1436.74 -1.60227 -2.52918 0
M  V30 14995 H 1434.28 -0.771846 -1.21567 0
M  V30 14996 H 1436.23 0.161371 -4.21091 0
M  V30 14997 H 1434.96 0.824792 -3.16014 0
M  V30 14998 H 1433.62 -1.2904 -3.43139 0
M  V30 14999 H 1433.27 0.633618 -4.98993 0
M  V30 15000 H 1432.97 -0.922789 -5.80309 0
M  V30 15001 H 1434.49 -0.0408892 -6.10586 0
M  V30 15002 H 1435.9 -2.1674 -5.30751 0
M  V30 15003 H 1434.3 -2.95412 -5.22352 0
M  V30 15004 H 1435.37 -2.99859 -3.81068 0
M  V30 15005 N 1436.71 1.32449 -0.85411 0
M  V30 15006 C 1437.65 2.2777 -0.255605 0
M  V30 15007 C 1438.66 1.52407 0.572355 0
M  V30 15008 O 1439.85 1.74031 0.396935 0
M  V30 15009 C 1436.95 3.32461 0.657496 0
M  V30 15010 C 1436.12 4.37193 -0.134492 0
M  V30 15011 C 1435.18 5.21465 0.704288 0
M  V30 15012 O 1434.21 5.69033 0.138001 0
M  V30 15013 N 1435.41 5.44254 2.01911 0
M  V30 15014 H 1438.17 2.79769 -1.07468 0
M  V30 15015 H 1435.73 1.45304 -0.714038 0
M  V30 15016 H 1437.73 3.85748 1.22396 0
M  V30 15017 H 1436.3 2.80625 1.37726 0
M  V30 15018 H 1435.52 3.84198 -0.882378 0
M  V30 15019 H 1436.8 5.04256 -0.678508 0
M  V30 15020 H 1436.2 5.07336 2.50252 0
M  V30 15021 H 1434.76 6.00538 2.53371 0
M  V30 15022 N 1438.19 0.611994 1.45232 0
M  V30 15023 C 1439.44 0.106467 2.01419 0
M  V30 15024 C 1439.75 -1.2723 1.48566 0
M  V30 15025 O 1440.96 -1.8708 1.96757 0
M  V30 15026 C 1439.42 0.139639 3.59629 0
M  V30 15027 C 1439.02 1.51853 4.21479 0
M  V30 15028 C 1440.77 -0.310417 4.23364 0
M  V30 15029 C 1438.67 1.50785 5.71855 0
M  V30 15030 H 1437.6 0.0360345 0.753138 0
M  V30 15031 H 1440.26 0.767974 1.66657 0
M  V30 15032 H 1438.64 -0.588606 3.91601 0
M  V30 15033 H 1439.81 2.26884 4.01074 0
M  V30 15034 H 1438.13 1.91105 3.69956 0
M  V30 15035 H 1440.72 -0.337656 5.33633 0
M  V30 15036 H 1441.07 -1.33398 3.94348 0
M  V30 15037 H 1441.6 0.364704 3.96125 0
M  V30 15038 H 1438.34 2.50916 6.05575 0
M  V30 15039 H 1437.86 0.800195 5.94438 0
M  V30 15040 H 1439.54 1.23341 6.35135 0
M  V30 15041 N 1439.67 -1.53632 0.351409 0
M  V30 15042 C 1440.92 -2.0104 -0.242687 0
M  V30 15043 C 1441.24 -1.23906 -1.49925 0
M  V30 15044 O 1440.5 -0.316927 -1.93117 0
M  V30 15045 C 1440.8 -3.5242 -0.594561 0
M  V30 15046 C 1440.46 -4.47333 0.566031 0
M  V30 15047 C 1439.13 -4.73001 0.884515 0
M  V30 15048 C 1441.48 -5.03566 1.34426 0
M  V30 15049 C 1438.81 -5.52156 1.98346 0
M  V30 15050 C 1441.16 -5.8392 2.43351 0
M  V30 15051 C 1439.82 -6.0788 2.7575 0
M  V30 15052 H 1439.09 -0.735659 -0.0888056 0
M  V30 15053 H 1441.74 -1.85362 0.480948 0
M  V30 15054 H 1440.04 -3.65971 -1.39902 0
M  V30 15055 H 1441.74 -3.86565 -1.06625 0
M  V30 15056 H 1438.33 -4.27494 0.307751 0
M  V30 15057 H 1442.52 -4.83694 1.11146 0
M  V30 15058 H 1437.77 -5.68942 2.23863 0
M  V30 15059 H 1441.95 -6.26505 3.04079 0
M  V30 15060 H 1439.57 -6.69001 3.61029 0
M  V30 15061 N 1441.15 -0.0802183 -1.57396 0
M  V30 15062 C 1442.4 0.585802 -1.93424 0
M  V30 15063 C 1442.72 1.69638 -0.961662 0
M  V30 15064 O 1441.99 1.95897 -0.011202 0
M  V30 15065 H 1440.57 0.219382 -0.714059 0
M  V30 15066 H 1443.23 -0.140055 -1.94396 0
M  V30 15067 H 1442.32 1.00566 -2.95454 0
M  V30 15068 N 1442.63 1.56409 0.193394 0
M  V30 15069 C 1443.56 1.91211 1.26377 0
M  V30 15070 C 1444.57 0.802944 1.41622 0
M  V30 15071 O 1445.76 1.08136 1.42017 0
M  V30 15072 C 1442.86 2.13039 2.63567 0
M  V30 15073 C 1442.03 3.44192 2.69909 0
M  V30 15074 C 1441.09 3.55111 3.88307 0
M  V30 15075 O 1440.12 4.2792 3.75331 0
M  V30 15076 N 1441.32 2.88325 5.03834 0
M  V30 15077 H 1444.08 2.83624 0.968383 0
M  V30 15078 H 1441.65 1.57297 0.383302 0
M  V30 15079 H 1443.64 2.1763 3.41202 0
M  V30 15080 H 1442.21 1.27116 2.85588 0
M  V30 15081 H 1441.43 3.51452 1.78535 0
M  V30 15082 H 1442.72 4.30536 2.71139 0
M  V30 15083 H 1442.11 2.29003 5.17276 0
M  V30 15084 H 1440.67 2.98542 5.7941 0
M  V30 15085 N 1444.1 -0.461169 1.50702 0
M  V30 15086 C 1445.35 -1.20934 1.61425 0
M  V30 15087 C 1445.67 -1.92884 0.32481 0
M  V30 15088 O 1446.87 -2.69712 0.311081 0
M  V30 15089 C 1445.33 -2.19797 2.84987 0
M  V30 15090 C 1444.94 -1.53604 4.20844 0
M  V30 15091 C 1446.68 -2.95194 3.05059 0
M  V30 15092 C 1444.59 -2.50811 5.35582 0
M  V30 15093 H 1443.52 -0.455088 0.601174 0
M  V30 15094 H 1446.17 -0.478771 1.77144 0
M  V30 15095 H 1444.55 -2.96187 2.62848 0
M  V30 15096 H 1445.72 -0.829345 4.53275 0
M  V30 15097 H 1444.04 -0.904504 4.06457 0
M  V30 15098 H 1446.64 -3.67965 3.87951 0
M  V30 15099 H 1446.98 -3.5516 2.1718 0
M  V30 15100 H 1447.51 -2.25915 3.27425 0
M  V30 15101 H 1444.25 -1.9557 6.25646 0
M  V30 15102 H 1443.77 -3.19604 5.07556 0
M  V30 15103 H 1445.45 -3.12437 5.66561 0
M  V30 15104 N 1445.58 -1.40446 -0.715026 0
M  V30 15105 C 1446.99 -1.34564 -1.29419 0
M  V30 15106 C 1447.34 -0.0193984 -1.9619 0
M  V30 15107 O 1446.47 0.882616 -1.97582 0
M  V30 15108 C 1447.06 -2.43721 -2.35342 0
M  V30 15109 C 1445.62 -2.41297 -2.88881 0
M  V30 15110 C 1444.77 -2.2457 -1.62676 0
M  V30 15111 H 1447.72 -1.50244 -0.511116 0
M  V30 15112 H 1447.74 -2.1166 -3.16197 0
M  V30 15113 H 1447.25 -3.40234 -1.86715 0
M  V30 15114 H 1445.35 -1.48483 -3.41736 0
M  V30 15115 H 1445.47 -3.36903 -3.40637 0
M  V30 15116 H 1443.83 -1.72096 -1.87763 0
M  V30 15117 H 1444.61 -3.23082 -1.16074 0
M  V30 15118 N 1447.06 0.947303 -1.25952 0
M  V30 15119 C 1447.99 2.0487 -1.02767 0
M  V30 15120 C 1449 1.62797 0.00985984 0
M  V30 15121 O 1450.19 1.77018 -0.229527 0
M  V30 15122 C 1447.29 3.34682 -0.533048 0
M  V30 15123 C 1446.47 4.05555 -1.63841 0
M  V30 15124 C 1445.53 5.13638 -1.1429 0
M  V30 15125 O 1444.55 5.38682 -1.83876 0
M  V30 15126 N 1445.75 5.80499 0.0119377 0
M  V30 15127 H 1448.52 2.25327 -1.97605 0
M  V30 15128 H 1446.08 1.11636 -1.17256 0
M  V30 15129 H 1448.07 4.04273 -0.185868 0
M  V30 15130 H 1446.64 3.10941 0.321585 0
M  V30 15131 H 1445.86 3.29962 -2.15683 0
M  V30 15132 H 1447.15 4.49661 -2.38081 0
M  V30 15133 H 1446.55 5.62581 0.593212 0
M  V30 15134 H 1445.1 6.51109 0.30009 0
M  V30 15135 N 1448.54 1.07657 1.15099 0
M  V30 15136 C 1449.45 0.711198 2.2356 0
M  V30 15137 C 1450.46 -0.278932 1.7175 0
M  V30 15138 O 1451.64 -0.124788 2.01013 0
M  V30 15139 C 1448.71 0.117855 3.465 0
M  V30 15140 C 1447.77 1.16162 4.13286 0
M  V30 15141 C 1447 0.596494 5.30356 0
M  V30 15142 O 1447.22 -0.586474 5.67377 0
M  V30 15143 O 1446.16 1.34288 5.86729 0
M  V30 15144 H 1449.98 1.61578 2.5715 0
M  V30 15145 H 1447.57 0.84973 1.22882 0
M  V30 15146 H 1449.45 -0.210613 4.20873 0
M  V30 15147 H 1448.12 -0.760008 3.14652 0
M  V30 15148 H 1447.03 1.54249 3.4082 0
M  V30 15149 H 1448.36 2.01149 4.49221 0
M  V30 15150 N 1450.02 -1.31994 0.861122 0
M  V30 15151 C 1451.29 -1.91699 0.388705 0
M  V30 15152 C 1451.67 -1.78412 -1.12838 0
M  V30 15153 O 1451.02 -1.18625 -1.95296 0
M  V30 15154 C 1451.23 -3.38232 0.860248 0
M  V30 15155 C 1452.58 -4.15355 0.881201 0
M  V30 15156 O 1453.6 -3.46977 0.805313 0
M  V30 15157 O 1452.46 -5.37468 0.98945 0
M  V30 15158 H 1449.56 -0.819017 0.114629 0
M  V30 15159 H 1452.1 -1.40721 0.94845 0
M  V30 15160 H 1450.87 -3.41876 1.9036 0
M  V30 15161 H 1450.5 -3.96625 0.278316 0
M  V30 15162 N 1451.49 -0.619688 -1.44906 0
M  V30 15163 C 1452.43 0.141137 -2.27763 0
M  V30 15164 C 1453.41 0.862176 -1.3786 0
M  V30 15165 O 1454.59 0.868593 -1.67295 0
M  V30 15166 C 1451.72 1.20547 -3.16522 0
M  V30 15167 C 1450.76 0.586228 -4.22452 0
M  V30 15168 S 1451.6 -0.615067 -5.31956 0
M  V30 15169 C 1452.75 0.449556 -6.24283 0
M  V30 15170 H 1452.98 -0.561806 -2.91944 0
M  V30 15171 H 1450.52 -0.407535 -1.48925 0
M  V30 15172 H 1452.48 1.81463 -3.68214 0
M  V30 15173 H 1451.14 1.88054 -2.51584 0
M  V30 15174 H 1450.33 1.38744 -4.84527 0
M  V30 15175 H 1449.93 0.0519375 -3.73964 0
M  V30 15176 H 1452.22 1.32531 -6.64411 0
M  V30 15177 H 1453.17 -0.135328 -7.07971 0
M  V30 15178 H 1453.57 0.770319 -5.59219 0
M  V30 15179 N 1452.97 1.53444 -0.359552 0
M  V30 15180 C 1454.25 1.93467 0.288106 0
M  V30 15181 C 1454.63 1.29256 1.66901 0
M  V30 15182 O 1453.98 0.449402 2.24037 0
M  V30 15183 C 1454.19 3.47297 0.344359 0
M  V30 15184 C 1455.54 4.20515 0.587585 0
M  V30 15185 O 1456.56 3.53646 0.425818 0
M  V30 15186 O 1455.42 5.39003 0.902119 0
M  V30 15187 H 1452.51 0.809033 0.171451 0
M  V30 15188 H 1455.06 1.64625 -0.411896 0
M  V30 15189 H 1453.83 3.86292 -0.624064 0
M  V30 15190 H 1453.45 3.82353 1.0905 0
M  V30 15191 N 1454.45 0.0885642 1.57351 0
M  V30 15192 C 1455.7 -0.57753 1.94403 0
M  V30 15193 C 1456.03 -1.68238 0.970029 0
M  V30 15194 O 1455.3 -1.945 0.00198684 0
M  V30 15195 C 1455.59 -1.13882 3.41618 0
M  V30 15196 C 1455.44 -0.0394686 4.49783 0
M  V30 15197 C 1456.76 -2.03922 3.90005 0
M  V30 15198 H 1453.88 -0.208468 0.706902 0
M  V30 15199 H 1456.52 0.157945 1.89342 0
M  V30 15200 H 1454.67 -1.76561 3.46061 0
M  V30 15201 H 1456.34 0.594458 4.57454 0
M  V30 15202 H 1454.59 0.627775 4.29234 0
M  V30 15203 H 1455.26 -0.472897 5.49971 0
M  V30 15204 H 1457.73 -1.51156 3.87674 0
M  V30 15205 H 1456.61 -2.40123 4.93591 0
M  V30 15206 H 1456.87 -2.95407 3.28918 0
M  V30 15207 N 1455.93 -1.56509 -0.185096 0
M  V30 15208 C 1456.89 -1.94468 -1.21305 0
M  V30 15209 C 1457.89 -0.826838 -1.37913 0
M  V30 15210 O 1459.08 -1.09411 -1.35554 0
M  V30 15211 C 1456.21 -2.22747 -2.58063 0
M  V30 15212 H 1457.41 -2.86442 -0.888323 0
M  V30 15213 H 1454.96 -1.50354 -0.427012 0
M  V30 15214 H 1455.69 -1.33443 -2.95573 0
M  V30 15215 H 1455.48 -3.04215 -2.47378 0
M  V30 15216 H 1456.97 -2.53084 -3.32172 0
M  V30 15217 N 1457.41 0.45317 -1.50944 0
M  V30 15218 C 1458.34 1.55655 -1.74051 0
M  V30 15219 C 1459.32 1.59545 -0.58987 0
M  V30 15220 O 1460.5 1.75526 -0.830922 0
M  V30 15221 C 1457.63 2.93857 -1.85109 0
M  V30 15222 C 1456.59 3.04832 -3.00435 0
M  V30 15223 C 1455.91 4.44858 -2.96657 0
M  V30 15224 C 1457.21 2.80381 -4.40663 0
M  V30 15225 H 1458.91 1.36571 -2.66437 0
M  V30 15226 H 1456.45 0.655572 -1.28212 0
M  V30 15227 H 1458.41 3.70992 -1.99857 0
M  V30 15228 H 1457.13 3.14138 -0.893579 0
M  V30 15229 H 1455.79 2.30134 -2.85366 0
M  V30 15230 H 1455.44 4.62083 -1.98716 0
M  V30 15231 H 1455.14 4.53134 -3.7409 0
M  V30 15232 H 1456.66 5.23989 -3.13478 0
M  V30 15233 H 1458.07 3.47255 -4.56165 0
M  V30 15234 H 1456.47 3.00083 -5.19683 0
M  V30 15235 H 1457.54 1.76099 -4.51793 0
M  V30 15236 N 1458.88 1.40823 0.707568 0
M  V30 15237 C 1459.82 1.36132 1.83149 0
M  V30 15238 C 1460.8 0.230423 1.60959 0
M  V30 15239 O 1461.98 0.415391 1.83866 0
M  V30 15240 C 1459.11 1.12055 3.19627 0
M  V30 15241 C 1458.15 2.27703 3.6063 0
M  V30 15242 S 1458.99 3.90134 3.66818 0
M  V30 15243 C 1460.14 3.68336 5.06043 0
M  V30 15244 H 1460.37 2.31246 1.86849 0
M  V30 15245 H 1457.91 1.27204 0.875126 0
M  V30 15246 H 1459.87 0.988486 3.98421 0
M  V30 15247 H 1458.53 0.185809 3.1355 0
M  V30 15248 H 1457.72 2.06519 4.59746 0
M  V30 15249 H 1457.32 2.37254 2.89114 0
M  V30 15250 H 1459.61 3.27299 5.93196 0
M  V30 15251 H 1460.56 4.67012 5.32265 0
M  V30 15252 H 1460.96 3.01856 4.77015 0
M  V30 15253 N 1460.36 -0.94061 1.26453 0
M  V30 15254 C 1461.27 -2.07298 1.09839 0
M  V30 15255 C 1462.29 -1.73971 0.0317477 0
M  V30 15256 O 1463.46 -2.00017 0.235594 0
M  V30 15257 C 1460.53 -3.38847 0.733736 0
M  V30 15258 C 1459.59 -3.85954 1.87985 0
M  V30 15259 C 1458.82 -5.11224 1.5325 0
M  V30 15260 O 1459.05 -5.68743 0.434491 0
M  V30 15261 O 1457.98 -5.53386 2.36743 0
M  V30 15262 H 1461.81 -2.24222 2.04837 0
M  V30 15263 H 1459.39 -1.05763 1.0552 0
M  V30 15264 H 1461.27 -4.17885 0.543131 0
M  V30 15265 H 1459.95 -3.2316 -0.186843 0
M  V30 15266 H 1458.86 -3.07858 2.12542 0
M  V30 15267 H 1460.19 -4.06162 2.78017 0
M  V30 15268 N 1461.84 -1.08266 -1.14527 0
M  V30 15269 C 1462.79 -0.680977 -2.17593 0
M  V30 15270 C 1463.77 0.298653 -1.58104 0
M  V30 15271 O 1464.97 0.110901 -1.76652 0
M  V30 15272 C 1462.1 -0.0902883 -3.43181 0
M  V30 15273 C 1461.18 -1.09562 -4.09704 0
M  V30 15274 N 1461.57 -2.27853 -4.51571 0
M  V30 15275 C 1459.87 -0.931053 -4.36174 0
M  V30 15276 C 1460.57 -2.91708 -5.03271 0
M  V30 15277 N 1459.55 -2.19325 -4.97391 0
M  V30 15278 H 1463.35 -1.58178 -2.47703 0
M  V30 15279 H 1460.86 -0.957169 -1.31195 0
M  V30 15280 H 1462.86 0.215428 -4.16343 0
M  V30 15281 H 1461.52 0.805513 -3.1455 0
M  V30 15282 H 1462.53 -2.65517 -4.44659 0
M  V30 15283 H 1459.21 -0.0889339 -4.17405 0
M  V30 15284 H 1460.6 -3.92202 -5.45552 0
M  V30 15285 N 1463.32 1.31536 -0.86811 0
M  V30 15286 C 1464.54 2.01487 -0.491705 0
M  V30 15287 C 1464.97 1.64744 0.907803 0
M  V30 15288 O 1464.33 0.855093 1.59868 0
M  V30 15289 C 1464.38 3.54621 -0.65395 0
M  V30 15290 O 1463.48 4.11252 0.307532 0
M  V30 15291 H 1462.82 0.634469 -0.195819 0
M  V30 15292 H 1465.35 1.67775 -1.17101 0
M  V30 15293 H 1465.36 4.04323 -0.546539 0
M  V30 15294 H 1464.04 3.80704 -1.67443 0
M  V30 15295 H 1462.61 3.72577 0.155233 0
M  V30 15296 N 1464.8 0.627364 1.44575 0
M  V30 15297 C 1465.75 -0.0920488 2.32418 0
M  V30 15298 C 1466.74 -0.839633 1.47128 0
M  V30 15299 O 1467.95 -0.752958 1.63495 0
M  V30 15300 H 1464.32 -0.0485336 0.750432 0
M  V30 15301 H 1466.29 0.666959 2.90851 0
M  V30 15302 C 1465.04 -1.06262 3.31064 0
M  V30 15303 H 1464.36 -0.4968 3.96701 0
M  V30 15304 H 1465.8 -1.53556 3.95217 0
M  V30 15305 C 1464.26 -2.14601 2.59707 0
M  V30 15306 O 1464.79 -3.2263 2.39317 0
M  V30 15307 N 1463 -1.90431 2.19509 0
M  V30 15308 H 1462.55 -1.02584 2.36293 0
M  V30 15309 H 1462.5 -2.6312 1.72091 0
M  V30 15310 N 1466.28 -1.53251 0.367684 0
M  V30 15311 C 1467.52 -2.03197 -0.221396 0
M  V30 15312 C 1467.88 -1.249 -1.45822 0
M  V30 15313 O 1469.08 -1.64863 -2.12306 0
M  V30 15314 C 1467.35 -3.53827 -0.504134 0
M  V30 15315 S 1468.91 -4.2564 -1.06658 0
M  V30 15316 H 1465.73 -0.708089 -0.0642774 0
M  V30 15317 H 1468.33 -1.88703 0.511037 0
M  V30 15318 H 1467.03 -4.08412 0.403477 0
M  V30 15319 H 1466.57 -3.72487 -1.26558 0
M  V30 15320 H 1468.58 -4.36987 -2.35068 0
M  V30 15321 N 1467.75 -0.0969077 -1.57302 0
M  V30 15322 C 1468.98 0.578086 -1.99181 0
M  V30 15323 C 1469.4 1.60818 -0.975667 0
M  V30 15324 O 1468.76 1.81215 0.0556054 0
M  V30 15325 C 1468.81 1.20076 -3.40021 0
M  V30 15326 O 1467.91 2.31656 -3.41188 0
M  V30 15327 H 1467.25 0.146506 -0.647636 0
M  V30 15328 H 1469.78 -0.178855 -2.03817 0
M  V30 15329 H 1469.79 1.54162 -3.77754 0
M  V30 15330 H 1468.47 0.446114 -4.135 0
M  V30 15331 H 1467.05 1.99175 -3.15252 0
M  V30 15332 N 1469.23 1.56605 0.176793 0
M  V30 15333 C 1470.46 1.8617 0.91408 0
M  V30 15334 C 1470.88 0.68262 1.75277 0
M  V30 15335 O 1470.24 -0.368391 1.77518 0
M  V30 15336 C 1470.29 3.14109 1.7711 0
M  V30 15337 O 1469.39 2.95947 2.87209 0
M  V30 15338 H 1468.73 0.612507 0.25638 0
M  V30 15339 H 1471.26 2.03837 0.176586 0
M  V30 15340 H 1471.27 3.45373 2.17213 0
M  V30 15341 H 1469.95 3.9954 1.15502 0
M  V30 15342 H 1468.52 2.76024 2.50729 0
M  V30 15343 N 1470.71 -0.445159 1.51182 0
M  V30 15344 C 1471.62 -1.5651 1.74762 0
M  V30 15345 C 1472.64 -1.62134 0.631542 0
M  V30 15346 O 1473.81 -1.79522 0.912898 0
M  V30 15347 C 1470.88 -2.92552 1.86049 0
M  V30 15348 C 1469.94 -2.97108 3.0988 0
M  V30 15349 C 1469.17 -4.2666 3.2062 0
M  V30 15350 O 1469.39 -5.18608 2.37491 0
M  V30 15351 O 1468.33 -4.3734 4.13542 0
M  V30 15352 H 1472.15 -1.3953 2.6975 0
M  V30 15353 H 1469.74 -0.627363 1.3559 0
M  V30 15354 H 1471.62 -3.73304 1.95504 0
M  V30 15355 H 1470.3 -3.09676 0.94248 0
M  V30 15356 H 1469.2 -2.15338 3.05909 0
M  V30 15357 H 1470.54 -2.84927 4.01345 0
M  V30 15358 N 1472.19 -1.41197 -0.700089 0
M  V30 15359 C 1473.6 -1.3593 -1.27985 0
M  V30 15360 C 1473.95 -0.0402059 -1.96159 0
M  V30 15361 O 1473.07 0.861611 -1.98508 0
M  V30 15362 C 1473.67 -2.46203 -2.32743 0
M  V30 15363 C 1472.23 -2.44348 -2.86306 0
M  V30 15364 C 1471.38 -2.26283 -1.60285 0
M  V30 15365 H 1474.33 -1.50778 -0.495152 0
M  V30 15366 H 1474.35 -2.15001 -3.13934 0
M  V30 15367 H 1473.86 -3.42195 -1.83096 0
M  V30 15368 H 1471.96 -1.521 -3.40142 0
M  V30 15369 H 1472.07 -3.40497 -3.37044 0
M  V30 15370 H 1470.44 -1.74078 -1.85928 0
M  V30 15371 H 1471.22 -3.24295 -1.1264 0
M  V30 15372 N 1473.67 0.933891 -1.2695 0
M  V30 15373 C 1474.91 1.67759 -1.12701 0
M  V30 15374 C 1475.23 1.92207 0.328848 0
M  V30 15375 O 1474.5 1.52394 1.23097 0
M  V30 15376 H 1473.08 0.621729 -0.41408 0
M  V30 15377 H 1475.75 1.1217 -1.59386 0
M  V30 15378 H 1474.84 2.64834 -1.65135 0
M  V30 15379 N 1475.14 1.08871 1.13951 0
M  V30 15380 C 1476.39 0.821287 1.85098 0
M  V30 15381 C 1476.72 -0.65302 1.8321 0
M  V30 15382 O 1475.97 -1.49629 1.26134 0
M  V30 15383 C 1476.27 1.29443 3.33135 0
M  V30 15384 C 1475.94 2.77737 3.55208 0
M  V30 15385 C 1474.6 3.18238 3.60941 0
M  V30 15386 C 1476.95 3.7338 3.63644 0
M  V30 15387 C 1474.28 4.53165 3.72637 0
M  V30 15388 C 1476.63 5.08089 3.76867 0
M  V30 15389 C 1475.3 5.48187 3.8085 0
M  V30 15390 H 1474.57 0.30053 0.67732 0
M  V30 15391 H 1477.21 1.36249 1.34568 0
M  V30 15392 H 1475.52 0.672919 3.85978 0
M  V30 15393 H 1477.22 1.06421 3.86621 0
M  V30 15394 H 1473.81 2.45393 3.51398 0
M  V30 15395 H 1477.99 3.43207 3.58501 0
M  V30 15396 H 1473.25 4.83679 3.73985 0
M  V30 15397 H 1477.42 5.82058 3.82337 0
M  V30 15398 H 1475.05 6.52737 3.89665 0
M  V30 15399 N 1476.62 -1.31073 0.875073 0
M  V30 15400 C 1477.87 -1.97194 0.498612 0
M  V30 15401 C 1478.22 -1.67884 -0.939819 0
M  V30 15402 O 1477.52 -0.967708 -1.65366 0
M  V30 15403 C 1477.71 -3.50511 0.698351 0
M  V30 15404 C 1477.54 -3.94722 2.15465 0
M  V30 15405 C 1476.31 -4.2081 2.79726 0
M  V30 15406 C 1478.51 -4.08283 3.12745 0
M  V30 15407 N 1476.49 -4.51411 4.16055 0
M  V30 15408 C 1477.86 -4.42653 4.34117 0
M  V30 15409 C 1479.91 -3.90678 3.08667 0
M  V30 15410 C 1478.62 -4.61255 5.51939 0
M  V30 15411 C 1480.64 -4.10476 4.25751 0
M  V30 15412 C 1480.01 -4.45182 5.45887 0
M  V30 15413 H 1476.1 -0.74692 0.231592 0
M  V30 15414 H 1478.69 -1.585 1.13074 0
M  V30 15415 H 1476.86 -3.88282 0.0957804 0
M  V30 15416 H 1478.59 -4.03661 0.289771 0
M  V30 15417 H 1475.35 -4.13641 2.30648 0
M  V30 15418 H 1475.77 -4.70862 4.86434 0
M  V30 15419 H 1480.41 -3.6293 2.16892 0
M  V30 15420 H 1478.13 -4.8785 6.44227 0
M  V30 15421 H 1481.72 -3.98334 4.24054 0
M  V30 15422 H 1480.6 -4.60189 6.34977 0
M  V30 15423 N 1478.1 -0.635022 -1.4424 0
M  V30 15424 C 1479.06 0.0579377 -2.29127 0
M  V30 15425 C 1480.06 0.768489 -1.41248 0
M  V30 15426 O 1481.25 0.612489 -1.63077 0
M  V30 15427 C 1478.39 1.09266 -3.22914 0
M  V30 15428 H 1479.58 -0.688723 -2.91885 0
M  V30 15429 H 1477.13 -0.395347 -1.51217 0
M  V30 15430 H 1477.87 1.86917 -2.65014 0
M  V30 15431 H 1477.65 0.587036 -3.87681 0
M  V30 15432 H 1479.14 1.57716 -3.86672 0
M  V30 15433 N 1479.58 1.53054 -0.375806 0
M  V30 15434 C 1480.53 2.22837 0.482477 0
M  V30 15435 C 1481.51 1.22728 1.04051 0
M  V30 15436 O 1482.7 1.48129 0.968854 0
M  V30 15437 C 1479.83 3.02869 1.61634 0
M  V30 15438 C 1478.92 4.10362 1.07069 0
M  V30 15439 N 1479.31 5.05187 0.248878 0
M  V30 15440 C 1477.61 4.25251 1.34452 0
M  V30 15441 C 1478.31 5.81678 -0.0510458 0
M  V30 15442 N 1477.29 5.40817 0.549318 0
M  V30 15443 H 1481.09 2.93506 -0.1521 0
M  V30 15444 H 1478.6 1.6135 -0.184373 0
M  V30 15445 H 1480.6 3.51387 2.24349 0
M  V30 15446 H 1479.26 2.33732 2.25387 0
M  V30 15447 H 1480.27 5.17777 -0.112766 0
M  V30 15448 H 1476.95 3.67342 1.98408 0
M  V30 15449 H 1478.34 6.68073 -0.716061 0
M  V30 15450 N 1481.06 0.105248 1.57248 0
M  V30 15451 C 1482.47 -0.422304 1.81861 0
M  V30 15452 C 1482.82 -1.67508 1.02154 0
M  V30 15453 O 1481.94 -2.14905 0.253961 0
M  V30 15454 C 1482.54 -0.772943 3.29865 0
M  V30 15455 C 1481.1 -1.24519 3.55207 0
M  V30 15456 C 1480.24 -0.246936 2.76198 0
M  V30 15457 H 1483.2 0.330565 1.55219 0
M  V30 15458 H 1483.22 -1.6316 3.43743 0
M  V30 15459 H 1482.73 0.139033 3.87851 0
M  V30 15460 H 1480.83 -2.17453 3.02564 0
M  V30 15461 H 1480.94 -1.20001 4.63828 0
M  V30 15462 H 1479.31 -0.731171 2.43979 0
M  V30 15463 H 1480.09 0.657896 3.36937 0
M  V30 15464 N 1482.53 -1.56697 -0.168486 0
M  V30 15465 C 1483.95 -1.71808 -0.730674 0
M  V30 15466 C 1484.3 -0.716224 -1.8266 0
M  V30 15467 O 1483.42 0.121803 -2.16057 0
M  V30 15468 C 1484.02 -3.1151 -1.33217 0
M  V30 15469 C 1482.58 -3.28297 -1.84115 0
M  V30 15470 C 1481.72 -2.67757 -0.72122 0
M  V30 15471 H 1484.67 -1.58598 0.0569421 0
M  V30 15472 H 1484.69 -3.10318 -2.20189 0
M  V30 15473 H 1484.21 -3.84404 -0.53431 0
M  V30 15474 H 1482.31 -2.60364 -2.66536 0
M  V30 15475 H 1482.42 -4.3606 -1.98464 0
M  V30 15476 H 1480.78 -2.27644 -1.14239 0
M  V30 15477 H 1481.57 -3.43239 0.0648388 0
M  V30 15478 N 1484.01 0.437135 -1.51416 0
M  V30 15479 C 1485.26 1.18421 -1.63771 0
M  V30 15480 C 1485.58 1.91718 -0.356282 0
M  V30 15481 O 1484.85 1.85566 0.627863 0
M  V30 15482 H 1483.43 0.440125 -0.603572 0
M  V30 15483 H 1486.09 0.501155 -1.88347 0
M  V30 15484 H 1485.19 1.91367 -2.46546 0
M  V30 15485 N 1485.49 1.41566 0.692592 0
M  V30 15486 C 1486.45 1.43369 1.78824 0
M  V30 15487 C 1487.45 0.323867 1.57505 0
M  V30 15488 O 1488.64 0.583885 1.64123 0
M  V30 15489 C 1485.78 1.24798 3.17235 0
M  V30 15490 H 1486.97 2.40906 1.78617 0
M  V30 15491 H 1484.52 1.27752 0.900508 0
M  V30 15492 H 1485.26 0.281129 3.23079 0
M  V30 15493 H 1485.04 2.05212 3.34111 0
M  V30 15494 H 1486.53 1.28902 3.97208 0
M  V30 15495 N 1486.97 -0.927146 1.27443 0
M  V30 15496 C 1487.9 -2.03209 1.06013 0
M  V30 15497 C 1488.91 -1.62792 0.016041 0
M  V30 15498 O 1490.1 -1.76631 0.25766 0
M  V30 15499 C 1487.2 -3.33791 0.586225 0
M  V30 15500 C 1486.38 -4.02897 1.70273 0
M  V30 15501 C 1485.43 -5.11755 1.22447 0
M  V30 15502 O 1484.46 -5.35688 1.92423 0
M  V30 15503 N 1485.66 -5.80444 0.0804162 0
M  V30 15504 H 1488.43 -2.22155 2.01165 0
M  V30 15505 H 1485.99 -1.09757 1.19017 0
M  V30 15506 H 1487.98 -4.03926 0.250161 0
M  V30 15507 H 1486.55 -3.11414 -0.272076 0
M  V30 15508 H 1485.77 -3.26489 2.20905 0
M  V30 15509 H 1487.06 -4.45816 2.45205 0
M  V30 15510 H 1486.46 -5.63454 -0.503635 0
M  V30 15511 H 1485.01 -6.51504 -0.196466 0
M  V30 15512 N 1488.45 -1.09474 -1.13372 0
M  V30 15513 C 1489.41 -0.738173 -2.16988 0
M  V30 15514 C 1490.41 0.232488 -1.5911 0
M  V30 15515 O 1491.6 0.0106093 -1.74197 0
M  V30 15516 C 1488.73 -0.091724 -3.40777 0
M  V30 15517 H 1489.92 -1.65582 -2.50045 0
M  V30 15518 H 1487.48 -0.893994 -1.28209 0
M  V30 15519 H 1488.21 0.837129 -3.13309 0
M  V30 15520 H 1488 -0.790161 -3.84056 0
M  V30 15521 H 1489.49 0.142334 -4.17357 0
M  V30 15522 N 1489.92 1.30607 -0.882012 0
M  V30 15523 C 1491.17 1.95869 -0.497978 0
M  V30 15524 C 1491.49 1.69991 0.955405 0
M  V30 15525 O 1490.76 1.02188 1.67136 0
M  V30 15526 H 1489.34 0.724699 -0.181165 0
M  V30 15527 H 1492.01 1.59193 -1.12444 0
M  V30 15528 H 1491.1 3.04917 -0.665754 0
M  V30 15529 N 1491.4 0.642663 1.43901 0
M  V30 15530 C 1492.63 0.159202 2.06287 0
M  V30 15531 C 1493.05 -1.17091 1.48105 0
M  V30 15532 O 1492.4 -1.72064 0.608302 0
M  V30 15533 C 1492.45 0.0506891 3.61464 0
M  V30 15534 O 1492.17 1.32821 4.17481 0
M  V30 15535 C 1493.68 -0.460103 4.40906 0
M  V30 15536 H 1490.9 0.085003 0.665594 0
M  V30 15537 H 1493.44 0.880328 1.84582 0
M  V30 15538 H 1491.59 -0.620938 3.82391 0
M  V30 15539 H 1492.01 1.18053 5.11042 0
M  V30 15540 H 1493.48 -0.48501 5.49865 0
M  V30 15541 H 1493.96 -1.4894 4.13175 0
M  V30 15542 H 1494.57 0.178668 4.24925 0
M  V30 15543 N 1492.88 -1.52852 0.383918 0
M  V30 15544 C 1494.12 -2.03421 -0.199832 0
M  V30 15545 C 1494.49 -1.26439 -1.44489 0
M  V30 15546 O 1495.69 -1.67105 -2.10545 0
M  V30 15547 C 1493.96 -3.54341 -0.466577 0
M  V30 15548 S 1495.52 -4.26747 -1.02138 0
M  V30 15549 H 1492.33 -0.70873 -0.0567636 0
M  V30 15550 H 1494.94 -1.8815 0.531022 0
M  V30 15551 H 1493.64 -4.07961 0.446772 0
M  V30 15552 H 1493.17 -3.73808 -1.226 0
M  V30 15553 H 1495.19 -4.39456 -2.3042 0
M  V30 15554 N 1494.36 -0.113586 -1.5719 0
M  V30 15555 C 1495.61 0.546529 -1.95297 0
M  V30 15556 C 1495.94 1.66674 -0.996671 0
M  V30 15557 O 1495.21 1.94472 -0.0329298 0
M  V30 15558 C 1495.5 1.08433 -3.43387 0
M  V30 15559 C 1495.35 -0.0320929 -4.49789 0
M  V30 15560 C 1496.67 1.97691 -3.932 0
M  V30 15561 H 1493.79 0.197195 -0.710129 0
M  V30 15562 H 1496.43 -0.188048 -1.89067 0
M  V30 15563 H 1494.58 1.71033 -3.48827 0
M  V30 15564 H 1496.25 -0.66716 -4.5645 0
M  V30 15565 H 1494.49 -0.695983 -4.2818 0
M  V30 15566 H 1495.17 0.385341 -5.50653 0
M  V30 15567 H 1497.64 1.4497 -3.90029 0
M  V30 15568 H 1496.52 2.3224 -4.97349 0
M  V30 15569 H 1496.78 2.90137 -3.33576 0
M  V30 15570 N 1495.84 1.56784 0.160173 0
M  V30 15571 C 1497.06 1.87129 0.894283 0
M  V30 15572 C 1497.49 0.701172 1.74543 0
M  V30 15573 O 1496.85 -0.349542 1.77899 0
M  V30 15574 C 1496.89 3.15969 1.73769 0
M  V30 15575 O 1496 2.98977 2.84054 0
M  V30 15576 H 1495.34 0.615192 0.249869 0
M  V30 15577 H 1497.87 2.04012 0.154956 0
M  V30 15578 H 1497.88 3.47657 2.13538 0
M  V30 15579 H 1496.55 4.00742 1.11258 0
M  V30 15580 H 1495.13 2.78668 2.47788 0
M  V30 15581 N 1497.32 -0.429099 1.51646 0
M  V30 15582 C 1498.25 -1.53996 1.69758 0
M  V30 15583 C 1499.26 -1.52189 0.578138 0
M  V30 15584 O 1500.45 -1.56816 0.852709 0
M  V30 15585 C 1497.55 -2.9291 1.7046 0
M  V30 15586 C 1496.72 -3.19132 2.99122 0
M  V30 15587 C 1495.78 -4.37813 2.91901 0
M  V30 15588 O 1494.81 -4.36065 3.65836 0
M  V30 15589 N 1496.01 -5.41834 2.08317 0
M  V30 15590 H 1498.77 -1.38861 2.65589 0
M  V30 15591 H 1496.34 -0.618148 1.49635 0
M  V30 15592 H 1498.33 -3.7034 1.63187 0
M  V30 15593 H 1496.9 -3.01602 0.821877 0
M  V30 15594 H 1496.12 -2.29926 3.20199 0
M  V30 15595 H 1497.41 -3.33483 3.84274 0
M  V30 15596 H 1496.8 -5.46094 1.4764 0
M  V30 15597 H 1495.36 -6.18085 2.06917 0
M  V30 15598 N 1498.79 -1.41931 -0.685074 0
M  V30 15599 C 1500.02 -1.45018 -1.4715 0
M  V30 15600 C 1500.43 -0.0569412 -1.89114 0
M  V30 15601 O 1499.77 0.936419 -1.58041 0
M  V30 15602 C 1499.84 -2.30522 -2.75862 0
M  V30 15603 C 1499.5 -3.78542 -2.56037 0
M  V30 15604 C 1500.5 -4.70448 -2.21303 0
M  V30 15605 C 1498.18 -4.22698 -2.71351 0
M  V30 15606 C 1500.18 -6.045 -2.02135 0
M  V30 15607 C 1497.86 -5.56812 -2.518 0
M  V30 15608 C 1498.86 -6.47529 -2.17244 0
M  V30 15609 O 1498.55 -7.79167 -1.97872 0
M  V30 15610 H 1498.28 -0.495682 -0.459647 0
M  V30 15611 H 1500.84 -1.86983 -0.850079 0
M  V30 15612 H 1499.07 -1.83389 -3.40449 0
M  V30 15613 H 1500.75 -2.25186 -3.37707 0
M  V30 15614 H 1501.52 -4.37621 -2.09077 0
M  V30 15615 H 1497.4 -3.52385 -2.9723 0
M  V30 15616 H 1500.94 -6.75271 -1.75086 0
M  V30 15617 H 1496.84 -5.89216 -2.6362 0
M  V30 15618 H 1497.61 -7.9042 -2.12552 0
M  V30 15619 N 1500.27 0.920374 -1.27933 0
M  V30 15620 C 1501.23 2.0035 -1.11321 0
M  V30 15621 C 1502.23 1.60706 -0.0549132 0
M  V30 15622 O 1503.42 1.71595 -0.300134 0
M  V30 15623 C 1500.56 3.33681 -0.69782 0
M  V30 15624 H 1501.75 2.16518 -2.07509 0
M  V30 15625 H 1499.3 1.10216 -1.10825 0
M  V30 15626 H 1500.04 3.23214 0.265122 0
M  V30 15627 H 1499.82 3.63815 -1.46223 0
M  V30 15628 H 1501.31 4.13208 -0.604048 0
M  V30 15629 N 1501.75 1.10074 1.1279 0
M  V30 15630 C 1502.7 0.740977 2.20482 0
M  V30 15631 C 1503.69 -0.261163 1.67375 0
M  V30 15632 O 1504.9 -0.121923 1.79587 0
M  V30 15633 H 1501.27 0.221666 0.718588 0
M  V30 15634 H 1503.24 1.65823 2.48083 0
M  V30 15635 C 1501.99 0.184934 3.47208 0
M  V30 15636 H 1501.32 0.947278 3.88416 0
M  V30 15637 H 1502.76 -0.0287769 4.2399 0
M  V30 15638 C 1501.21 -1.08145 3.19071 0
M  V30 15639 O 1501.74 -2.1636 3.38454 0
M  V30 15640 N 1499.95 -0.998609 2.72903 0
M  V30 15641 H 1499.5 -0.117906 2.5733 0
M  V30 15642 H 1499.46 -1.84664 2.54453 0
M  V30 15643 N 1503.23 -1.30138 0.888926 0
M  V30 15644 C 1504.47 -1.96654 0.519499 0
M  V30 15645 C 1504.83 -1.68872 -0.92196 0
M  V30 15646 O 1504.12 -0.985192 -1.64331 0
M  V30 15647 C 1504.32 -3.4975 0.735488 0
M  V30 15648 C 1504.14 -3.92414 2.19639 0
M  V30 15649 C 1502.91 -4.1782 2.84174 0
M  V30 15650 C 1505.11 -4.04943 3.17058 0
M  V30 15651 N 1503.09 -4.46973 4.20819 0
M  V30 15652 C 1504.47 -4.38024 4.38788 0
M  V30 15653 C 1506.52 -3.87382 3.12793 0
M  V30 15654 C 1505.22 -4.55375 5.568 0
M  V30 15655 C 1507.25 -4.05937 4.3008 0
M  V30 15656 C 1506.61 -4.39367 5.50578 0
M  V30 15657 H 1502.71 -0.744421 0.239501 0
M  V30 15658 H 1505.29 -1.57292 1.14749 0
M  V30 15659 H 1503.47 -3.88158 0.136957 0
M  V30 15660 H 1505.2 -4.03331 0.332568 0
M  V30 15661 H 1501.95 -4.11171 2.35022 0
M  V30 15662 H 1502.38 -4.65677 4.914 0
M  V30 15663 H 1507.02 -3.60609 2.20729 0
M  V30 15664 H 1504.74 -4.80989 6.49365 0
M  V30 15665 H 1508.32 -3.93814 4.28255 0
M  V30 15666 H 1507.2 -4.53428 6.39822 0
M  V30 15667 N 1504.71 -0.650285 -1.43559 0
M  V30 15668 C 1505.64 0.0295939 -2.33481 0
M  V30 15669 C 1506.62 0.815017 -1.49303 0
M  V30 15670 O 1507.8 0.77708 -1.77975 0
M  V30 15671 C 1504.93 0.998683 -3.32631 0
M  V30 15672 C 1503.89 0.323577 -4.26775 0
M  V30 15673 C 1503.21 1.40391 -5.1594 0
M  V30 15674 C 1504.51 -0.782197 -5.1641 0
M  V30 15675 H 1506.21 -0.721349 -2.9058 0
M  V30 15676 H 1503.75 -0.348339 -1.39723 0
M  V30 15677 H 1505.7 1.4832 -3.94435 0
M  V30 15678 H 1504.43 1.78075 -2.73782 0
M  V30 15679 H 1503.09 -0.140467 -3.66331 0
M  V30 15680 H 1502.74 2.17734 -4.53432 0
M  V30 15681 H 1502.44 0.957462 -5.79747 0
M  V30 15682 H 1503.96 1.88985 -5.80618 0
M  V30 15683 H 1505.37 -0.379966 -5.72039 0
M  V30 15684 H 1503.77 -1.15293 -5.88921 0
M  V30 15685 H 1504.84 -1.6414 -4.56274 0
M  V30 15686 N 1506.18 1.52647 -0.392018 0
M  V30 15687 C 1507.43 2.01912 0.18958 0
M  V30 15688 C 1507.76 1.27786 1.46234 0
M  V30 15689 O 1507.04 0.379124 1.90769 0
M  V30 15690 C 1507.32 3.57217 0.454734 0
M  V30 15691 C 1507.17 4.4201 -0.833501 0
M  V30 15692 C 1508.49 4.22146 1.24421 0
M  V30 15693 H 1505.61 0.733909 0.0674281 0
M  V30 15694 H 1508.25 1.82685 -0.52212 0
M  V30 15695 H 1506.4 3.73731 1.06101 0
M  V30 15696 H 1508.08 4.37242 -1.47027 0
M  V30 15697 H 1506.32 4.08912 -1.44823 0
M  V30 15698 H 1506.99 5.48701 -0.602585 0
M  V30 15699 H 1509.47 4.09627 0.731093 0
M  V30 15700 H 1508.34 5.30786 1.39848 0
M  V30 15701 H 1508.6 3.7996 2.26016 0
M  V30 15702 N 1507.66 0.121921 1.57128 0
M  V30 15703 C 1508.91 -0.536164 1.95584 0
M  V30 15704 C 1509.24 -1.66143 1.0055 0
M  V30 15705 O 1508.52 -1.94452 0.0432427 0
M  V30 15706 C 1508.8 -1.0661 3.43957 0
M  V30 15707 C 1508.65 0.0559458 4.49765 0
M  V30 15708 C 1509.97 -1.95603 3.94243 0
M  V30 15709 H 1507.09 -0.193427 0.711165 0
M  V30 15710 H 1509.73 0.198072 1.88965 0
M  V30 15711 H 1507.88 -1.69181 3.49729 0
M  V30 15712 H 1509.55 0.691357 4.5609 0
M  V30 15713 H 1507.8 0.71868 4.27805 0
M  V30 15714 H 1508.47 -0.356133 5.5085 0
M  V30 15715 H 1510.94 -1.42899 3.90793 0
M  V30 15716 H 1509.82 -2.29599 4.98573 0
M  V30 15717 H 1510.08 -2.88364 3.3511 0
M  V30 15718 N 1509.14 -1.56867 -0.151857 0
M  V30 15719 C 1510.07 -2.00932 -1.18949 0
M  V30 15720 C 1511.05 -0.888062 -1.45077 0
M  V30 15721 O 1512.24 -1.15553 -1.56081 0
M  V30 15722 C 1509.37 -2.3858 -2.52383 0
M  V30 15723 C 1508.32 -3.53845 -2.40785 0
M  V30 15724 C 1507.65 -3.77292 -3.78886 0
M  V30 15725 C 1508.95 -4.8667 -1.89605 0
M  V30 15726 H 1510.64 -2.87863 -0.823107 0
M  V30 15727 H 1508.19 -1.38491 -0.394499 0
M  V30 15728 H 1510.14 -2.68006 -3.25193 0
M  V30 15729 H 1508.86 -1.48579 -2.90847 0
M  V30 15730 H 1507.52 -3.24577 -1.70427 0
M  V30 15731 H 1507.17 -2.84551 -4.14777 0
M  V30 15732 H 1506.87 -4.54861 -3.71989 0
M  V30 15733 H 1508.39 -4.09139 -4.53252 0
M  V30 15734 H 1509.81 -5.14846 -2.52204 0
M  V30 15735 H 1508.21 -5.6801 -1.93609 0
M  V30 15736 H 1509.28 -4.77366 -0.851438 0
M  V30 15737 N 1510.62 0.421051 -1.51871 0
M  V30 15738 C 1511.55 1.51928 -1.77313 0
M  V30 15739 C 1512.53 1.58258 -0.623579 0
M  V30 15740 O 1513.71 1.73724 -0.867967 0
M  V30 15741 C 1510.84 2.89865 -1.913 0
M  V30 15742 C 1509.8 2.98391 -3.06834 0
M  V30 15743 C 1509.12 4.38466 -3.06026 0
M  V30 15744 C 1510.42 2.7097 -4.46511 0
M  V30 15745 H 1512.12 1.30889 -2.69274 0
M  V30 15746 H 1509.66 0.628229 -1.29573 0
M  V30 15747 H 1511.62 3.66669 -2.07682 0
M  V30 15748 H 1510.34 3.12172 -0.960011 0
M  V30 15749 H 1509 2.24029 -2.90184 0
M  V30 15750 H 1508.65 4.57764 -2.08472 0
M  V30 15751 H 1508.35 4.45097 -3.83618 0
M  V30 15752 H 1509.87 5.17221 -3.24522 0
M  V30 15753 H 1511.29 3.37501 -4.63428 0
M  V30 15754 H 1509.68 2.88992 -5.25931 0
M  V30 15755 H 1510.75 1.66476 -4.55427 0
M  V30 15756 N 1512.1 1.42293 0.677538 0
M  V30 15757 C 1513.03 1.48344 1.80323 0
M  V30 15758 C 1514.01 0.340276 1.66662 0
M  V30 15759 O 1515.19 0.554209 1.86124 0
M  V30 15760 C 1512.32 1.38247 3.18599 0
M  V30 15761 C 1511.28 2.50562 3.46991 0
M  V30 15762 C 1510.6 2.25524 4.84812 0
M  V30 15763 C 1511.9 3.92877 3.44158 0
M  V30 15764 H 1513.6 2.42558 1.75516 0
M  V30 15765 H 1511.14 1.16746 0.842999 0
M  V30 15766 H 1513.1 1.41089 3.97079 0
M  V30 15767 H 1511.82 0.405255 3.24076 0
M  V30 15768 H 1510.48 2.47032 2.7087 0
M  V30 15769 H 1510.13 1.26102 4.86937 0
M  V30 15770 H 1509.83 3.00797 5.04772 0
M  V30 15771 H 1511.35 2.3011 5.65581 0
M  V30 15772 H 1512.76 3.98024 4.12613 0
M  V30 15773 H 1511.16 4.6798 3.75653 0
M  V30 15774 H 1512.23 4.19743 2.42783 0
M  V30 15775 N 1513.57 -0.913576 1.28419 0
M  V30 15776 C 1514.82 -1.66519 1.15755 0
M  V30 15777 C 1515.15 -1.91974 -0.293166 0
M  V30 15778 O 1514.43 -1.52025 -1.21321 0
M  V30 15779 C 1514.71 -3.02299 1.95672 0
M  V30 15780 C 1514.56 -2.83996 3.48807 0
M  V30 15781 C 1515.88 -4.02838 1.77226 0
M  V30 15782 H 1513 -0.604309 0.421877 0
M  V30 15783 H 1515.64 -1.05919 1.57737 0
M  V30 15784 H 1513.79 -3.54025 1.59995 0
M  V30 15785 H 1515.47 -2.39279 3.9439 0
M  V30 15786 H 1513.71 -2.19052 3.74431 0
M  V30 15787 H 1514.38 -3.80419 3.99982 0
M  V30 15788 H 1516.86 -3.60174 2.0836 0
M  V30 15789 H 1515.73 -4.95806 2.35515 0
M  V30 15790 H 1515.99 -4.36135 0.723804 0
M  V30 15791 N 1515.05 -1.1067 -1.12204 0
M  V30 15792 C 1516.3 -0.845439 -1.83126 0
M  V30 15793 C 1516.61 0.631022 -1.85142 0
M  V30 15794 O 1517.82 1.00827 -2.52084 0
M  V30 15795 C 1516.28 -1.46265 -3.28838 0
M  V30 15796 C 1515.88 -2.97258 -3.35174 0
M  V30 15797 C 1517.63 -1.28088 -4.04714 0
M  V30 15798 C 1515.54 -3.52002 -4.75235 0
M  V30 15799 H 1514.47 -0.312617 -0.686139 0
M  V30 15800 H 1517.12 -1.33098 -1.26321 0
M  V30 15801 H 1515.5 -0.904781 -3.85525 0
M  V30 15802 H 1516.67 -3.59381 -2.88413 0
M  V30 15803 H 1514.99 -3.14617 -2.72773 0
M  V30 15804 H 1517.58 -1.6643 -5.08139 0
M  V30 15805 H 1517.93 -0.222682 -4.15704 0
M  V30 15806 H 1518.46 -1.80696 -3.54392 0
M  V30 15807 H 1515.2 -4.57499 -4.69441 0
M  V30 15808 H 1514.72 -2.94648 -5.22439 0
M  V30 15809 H 1516.4 -3.49967 -5.4418 0
M  V30 15810 N 1516.53 1.29665 -0.895815 0
M  V30 15811 C 1517.78 1.95716 -0.519752 0
M  V30 15812 C 1518.11 1.7065 0.933212 0
M  V30 15813 O 1517.36 1.01014 1.67615 0
M  V30 15814 C 1517.66 3.49355 -0.754025 0
M  V30 15815 C 1517.33 3.94491 -2.18375 0
M  V30 15816 C 1515.99 4.06526 -2.57468 0
M  V30 15817 C 1518.34 4.17874 -3.11498 0
M  V30 15818 C 1515.67 4.39311 -3.88874 0
M  V30 15819 C 1518.02 4.52132 -4.42447 0
M  V30 15820 C 1516.68 4.62376 -4.81419 0
M  V30 15821 H 1515.95 0.716176 -0.190191 0
M  V30 15822 H 1518.6 1.54333 -1.13373 0
M  V30 15823 H 1516.91 3.91758 -0.0570932 0
M  V30 15824 H 1518.6 3.98551 -0.442493 0
M  V30 15825 H 1515.19 3.85638 -1.87033 0
M  V30 15826 H 1519.38 4.08046 -2.8251 0
M  V30 15827 H 1514.63 4.45444 -4.18795 0
M  V30 15828 H 1518.81 4.69175 -5.14634 0
M  V30 15829 H 1516.43 4.87535 -5.83278 0
M  V30 15830 N 1518.01 0.657889 1.43212 0
M  V30 15831 C 1518.94 -0.0172114 2.33494 0
M  V30 15832 C 1519.92 -0.807087 1.49733 0
M  V30 15833 O 1521.1 -0.767631 1.78385 0
M  V30 15834 C 1518.23 -0.981029 3.33156 0
M  V30 15835 C 1517.19 -0.30094 4.26941 0
M  V30 15836 C 1516.51 -1.37653 5.16678 0
M  V30 15837 C 1517.81 0.809572 5.15988 0
M  V30 15838 H 1519.51 0.736749 2.90194 0
M  V30 15839 H 1517.05 0.355744 1.39537 0
M  V30 15840 H 1519.01 -1.46226 3.95216 0
M  V30 15841 H 1517.73 -1.76621 2.74723 0
M  V30 15842 H 1516.39 0.159893 3.66251 0
M  V30 15843 H 1516.04 -2.15326 4.54581 0
M  V30 15844 H 1515.74 -0.926704 5.80246 0
M  V30 15845 H 1517.26 -1.85903 5.81612 0
M  V30 15846 H 1518.68 0.410297 5.7183 0
M  V30 15847 H 1517.07 1.18415 5.88301 0
M  V30 15848 H 1518.14 1.66558 4.55397 0
M  V30 15849 N 1519.49 -1.52437 0.400108 0
M  V30 15850 C 1520.42 -2.29672 -0.421054 0
M  V30 15851 C 1521.4 -1.33506 -1.05405 0
M  V30 15852 O 1522.58 -1.62408 -1.06477 0
M  V30 15853 C 1519.71 -3.1115 -1.54281 0
M  V30 15854 C 1518.67 -4.1529 -1.0353 0
M  V30 15855 C 1517.99 -4.85058 -2.24996 0
M  V30 15856 C 1519.29 -5.22212 -0.0956529 0
M  V30 15857 H 1520.99 -2.98565 0.2234 0
M  V30 15858 H 1518.53 -1.43588 0.108883 0
M  V30 15859 H 1520.49 -3.63945 -2.12419 0
M  V30 15860 H 1519.21 -2.4001 -2.21501 0
M  V30 15861 H 1517.87 -3.63492 -0.476383 0
M  V30 15862 H 1517.52 -4.10455 -2.9075 0
M  V30 15863 H 1517.22 -5.55452 -1.91694 0
M  V30 15864 H 1518.74 -5.40661 -2.83756 0
M  V30 15865 H 1520.15 -5.70302 -0.585548 0
M  V30 15866 H 1518.55 -5.99917 0.148121 0
M  V30 15867 H 1519.62 -4.77351 0.852296 0
M  V30 15868 N 1520.96 -0.130252 -1.57061 0
M  V30 15869 C 1522.21 0.525784 -1.95866 0
M  V30 15870 C 1522.54 1.65607 -1.01429 0
M  V30 15871 O 1521.82 1.94426 -0.0535544 0
M  V30 15872 C 1522.1 1.04784 -3.44517 0
M  V30 15873 C 1521.95 -0.0797972 -4.49729 0
M  V30 15874 C 1523.27 1.9351 -3.95275 0
M  V30 15875 H 1520.39 0.189652 -0.71218 0
M  V30 15876 H 1523.03 -0.208091 -1.88857 0
M  V30 15877 H 1521.18 1.67324 -3.50621 0
M  V30 15878 H 1522.86 -0.715535 -4.55717 0
M  V30 15879 H 1521.1 -0.741358 -4.27418 0
M  V30 15880 H 1521.77 0.326915 -5.51031 0
M  V30 15881 H 1524.25 1.40825 -3.91545 0
M  V30 15882 H 1523.12 2.26952 -4.99784 0
M  V30 15883 H 1523.38 2.86583 -3.36634 0
M  V30 15884 N 1522.44 1.56945 0.143535 0
M  V30 15885 C 1523.41 1.97616 1.16106 0
M  V30 15886 C 1524.41 0.863113 1.35672 0
M  V30 15887 O 1525.6 1.12966 1.32606 0
M  V30 15888 C 1522.73 2.29511 2.52067 0
M  V30 15889 H 1523.92 2.88696 0.812066 0
M  V30 15890 H 1521.47 1.51433 0.386999 0
M  V30 15891 H 1522.21 1.41233 2.91931 0
M  V30 15892 H 1521.99 3.10667 2.39225 0
M  V30 15893 H 1523.48 2.61802 3.25345 0
M  V30 15894 N 1523.92 -0.412991 1.52093 0
M  V30 15895 C 1524.87 -1.52347 1.75765 0
M  V30 15896 C 1525.86 -1.57463 0.624641 0
M  V30 15897 O 1527.07 -1.60916 0.806599 0
M  V30 15898 H 1523.44 -0.50659 0.555761 0
M  V30 15899 H 1525.42 -1.29564 2.68804 0
M  V30 15900 C 1524.16 -2.89757 1.92188 0
M  V30 15901 H 1523.49 -2.86561 2.78788 0
M  V30 15902 H 1524.93 -3.66759 2.12753 0
M  V30 15903 C 1523.39 -3.29801 0.687963 0
M  V30 15904 O 1523.92 -4.01435 -0.145984 0
M  V30 15905 N 1522.12 -2.85819 0.524978 0
M  V30 15906 H 1521.67 -2.27694 1.20471 0
M  V30 15907 H 1521.63 -3.12972 -0.299325 0
M  V30 15908 N 1525.4 -1.4265 -0.669982 0
M  V30 15909 C 1526.65 -1.42667 -1.42579 0
M  V30 15910 C 1526.96 -0.0483217 -1.9554 0
M  V30 15911 O 1528.17 0.0740917 -2.71399 0
M  V30 15912 C 1526.62 -2.5098 -2.57948 0
M  V30 15913 C 1526.23 -3.94844 -2.11666 0
M  V30 15914 C 1527.98 -2.6017 -3.35428 0
M  V30 15915 C 1525.88 -4.94655 -3.24146 0
M  V30 15916 H 1524.81 -0.530651 -0.535654 0
M  V30 15917 H 1527.46 -1.68576 -0.724861 0
M  V30 15918 H 1525.85 -2.18244 -3.30432 0
M  V30 15919 H 1527.02 -4.36958 -1.46303 0
M  V30 15920 H 1525.33 -3.89547 -1.47111 0
M  V30 15921 H 1527.93 -3.31918 -4.19207 0
M  V30 15922 H 1528.27 -1.64683 -3.82342 0
M  V30 15923 H 1528.81 -2.92124 -2.70016 0
M  V30 15924 H 1525.55 -5.91636 -2.82218 0
M  V30 15925 H 1525.07 -4.57168 -3.88275 0
M  V30 15926 H 1526.75 -5.16593 -3.89538 0
M  V30 15927 N 1526.88 0.906753 -1.28902 0
M  V30 15928 C 1527.81 2.02663 -1.15974 0
M  V30 15929 C 1528.79 1.70009 -0.0557202 0
M  V30 15930 O 1529.97 1.92786 -0.233952 0
M  V30 15931 C 1527.1 3.37283 -0.828115 0
M  V30 15932 C 1526.06 3.84123 -1.88767 0
M  V30 15933 C 1525.38 5.15787 -1.40953 0
M  V30 15934 C 1526.68 4.05217 -3.2954 0
M  V30 15935 H 1528.38 2.13738 -2.09658 0
M  V30 15936 H 1525.92 1.02699 -1.0094 0
M  V30 15937 H 1527.88 4.15127 -0.724408 0
M  V30 15938 H 1526.6 3.2628 0.14443 0
M  V30 15939 H 1525.26 3.0849 -1.98065 0
M  V30 15940 H 1524.91 5.01194 -0.425848 0
M  V30 15941 H 1524.61 5.48098 -2.11807 0
M  V30 15942 H 1526.13 5.9618 -1.31918 0
M  V30 15943 H 1527.55 4.73565 -3.23124 0
M  V30 15944 H 1525.94 4.48871 -3.9829 0
M  V30 15945 H 1527.01 3.0979 -3.73039 0
M  V30 15946 N 1528.36 1.11264 1.11616 0
M  V30 15947 C 1529.29 0.79149 2.19676 0
M  V30 15948 C 1530.27 -0.239351 1.68408 0
M  V30 15949 O 1531.45 -0.103228 1.93925 0
M  V30 15950 C 1528.58 0.231891 3.46525 0
M  V30 15951 C 1527.54 1.19439 4.10997 0
M  V30 15952 C 1526.86 0.495593 5.32398 0
M  V30 15953 C 1528.16 2.54437 4.56135 0
M  V30 15954 H 1529.86 1.69503 2.46797 0
M  V30 15955 H 1527.4 0.816433 1.18619 0
M  V30 15956 H 1529.35 -0.00497468 4.214 0
M  V30 15957 H 1528.08 -0.706938 3.18857 0
M  V30 15958 H 1526.74 1.41686 3.38113 0
M  V30 15959 H 1526.39 -0.447984 5.01001 0
M  V30 15960 H 1526.09 1.13753 5.76484 0
M  V30 15961 H 1527.61 0.267476 6.10014 0
M  V30 15962 H 1529.02 2.36289 5.22341 0
M  V30 15963 H 1527.42 3.14595 5.11028 0
M  V30 15964 H 1528.49 3.13795 3.69676 0
M  V30 15965 N 1529.83 -1.29188 0.902679 0
M  V30 15966 C 1531.08 -1.95727 0.530909 0
M  V30 15967 C 1531.41 -1.70971 -0.921014 0
M  V30 15968 O 1530.69 -1.02436 -1.65339 0
M  V30 15969 C 1530.97 -3.50463 0.827523 0
M  V30 15970 C 1530.82 -3.84665 2.33137 0
M  V30 15971 C 1532.14 -4.38964 0.316053 0
M  V30 15972 H 1529.26 -0.71091 0.194361 0
M  V30 15973 H 1531.9 -1.52752 1.1299 0
M  V30 15974 H 1530.05 -3.87199 0.317732 0
M  V30 15975 H 1531.73 -3.57859 2.91093 0
M  V30 15976 H 1529.97 -3.32102 2.79088 0
M  V30 15977 H 1530.64 -4.92676 2.48947 0
M  V30 15978 H 1533.12 -4.09237 0.75262 0
M  V30 15979 H 1531.99 -5.4611 0.552769 0
M  V30 15980 H 1532.25 -4.35105 -0.783329 0
M  V30 15981 N 1531.31 -0.665475 -1.42861 0
M  V30 15982 C 1532.26 0.030395 -2.3258 0
M  V30 15983 C 1533.25 0.800329 -1.49302 0
M  V30 15984 O 1534.46 0.709346 -1.65434 0
M  V30 15985 H 1530.83 0.0286201 -0.751455 0
M  V30 15986 H 1532.81 -0.743838 -2.8898 0
M  V30 15987 C 1531.55 0.974474 -3.33765 0
M  V30 15988 H 1530.88 0.391447 -3.97879 0
M  V30 15989 H 1532.32 1.43023 -3.99149 0
M  V30 15990 C 1530.78 2.0764 -2.65306 0
M  V30 15991 O 1531.31 3.16172 -2.47787 0
M  V30 15992 N 1529.51 1.84544 -2.24481 0
M  V30 15993 H 1529.06 0.962826 -2.3893 0
M  V30 15994 H 1529.02 2.58464 -1.79007 0
M  V30 15995 N 1532.79 1.52222 -0.408187 0
M  V30 15996 C 1533.72 2.29892 0.408868 0
M  V30 15997 C 1534.7 1.34063 1.04695 0
M  V30 15998 O 1535.89 1.6297 1.05615 0
M  V30 15999 C 1533.02 3.11964 1.52629 0
M  V30 16000 C 1531.97 4.15833 1.01326 0
M  V30 16001 C 1531.3 4.86244 2.2242 0
M  V30 16002 C 1532.6 5.22256 0.0679573 0
M  V30 16003 H 1534.29 2.98443 -0.23923 0
M  V30 16004 H 1531.84 1.43528 -0.116496 0
M  V30 16005 H 1533.79 3.65067 2.10486 0
M  V30 16006 H 1532.51 2.41181 2.20225 0
M  V30 16007 H 1531.17 3.63739 0.4571 0
M  V30 16008 H 1530.82 4.11991 2.88569 0
M  V30 16009 H 1530.52 5.56461 1.88746 0
M  V30 16010 H 1532.04 5.42159 2.80885 0
M  V30 16011 H 1533.46 5.70604 0.555295 0
M  V30 16012 H 1531.85 5.9983 -0.179934 0
M  V30 16013 H 1532.92 4.76892 -0.877599 0
M  V30 16014 N 1534.27 0.138579 1.5699 0
M  V30 16015 C 1535.2 -0.800568 2.19347 0
M  V30 16016 C 1536.18 -1.26318 1.13921 0
M  V30 16017 O 1537.36 -1.32226 1.42232 0
M  V30 16018 C 1534.49 -2.04317 2.80842 0
M  V30 16019 C 1533.45 -1.71764 3.92022 0
M  V30 16020 C 1532.77 -3.03217 4.40413 0
M  V30 16021 C 1534.07 -0.970789 5.13199 0
M  V30 16022 H 1535.77 -0.280888 2.98079 0
M  V30 16023 H 1533.31 -0.133663 1.43378 0
M  V30 16024 H 1535.27 -2.70491 3.2313 0
M  V30 16025 H 1533.99 -2.58643 1.99428 0
M  V30 16026 H 1532.65 -1.07972 3.50339 0
M  V30 16027 H 1532.3 -3.55517 3.55832 0
M  V30 16028 H 1532 -2.82203 5.15398 0
M  V30 16029 H 1533.52 -3.70477 4.85365 0
M  V30 16030 H 1534.94 -1.53445 5.52384 0
M  V30 16031 H 1533.33 -0.860895 5.93893 0
M  V30 16032 H 1534.4 0.0390088 4.84884 0
M  V30 16033 N 1535.75 -1.57019 -0.13521 0
M  V30 16034 C 1536.99 -1.83178 -0.844308 0
M  V30 16035 C 1537.31 -0.7217 -1.81799 0
M  V30 16036 O 1538.51 -0.869232 -2.57209 0
M  V30 16037 C 1536.97 -3.2471 -1.55214 0
M  V30 16038 C 1536.58 -4.43685 -0.620268 0
M  V30 16039 C 1538.32 -3.60133 -2.24732 0
M  V30 16040 C 1536.23 -5.76242 -1.3304 0
M  V30 16041 H 1535.16 -0.683175 -0.319041 0
M  V30 16042 H 1537.81 -1.83243 -0.0970242 0
M  V30 16043 H 1536.19 -3.19067 -2.34547 0
M  V30 16044 H 1537.37 -4.60591 0.138685 0
M  V30 16045 H 1535.68 -4.16387 -0.0328906 0
M  V30 16046 H 1538.28 -4.56431 -2.78522 0
M  V30 16047 H 1538.62 -2.86767 -3.01779 0
M  V30 16048 H 1539.15 -3.67489 -1.52305 0
M  V30 16049 H 1535.89 -6.52734 -0.60155 0
M  V30 16050 H 1535.41 -5.63251 -2.06176 0
M  V30 16051 H 1537.09 -6.19445 -1.86808 0
M  V30 16052 N 1537.22 0.404919 -1.52309 0
M  V30 16053 C 1538.19 1.47627 -1.75325 0
M  V30 16054 C 1539.19 1.48234 -0.623153 0
M  V30 16055 O 1540.38 1.49685 -0.891069 0
M  V30 16056 C 1537.51 2.87013 -1.83947 0
M  V30 16057 H 1538.7 1.2851 -2.70971 0
M  V30 16058 H 1536.26 0.635677 -1.42789 0
M  V30 16059 H 1536.99 3.11495 -0.902309 0
M  V30 16060 H 1536.78 2.87974 -2.66108 0
M  V30 16061 H 1538.27 3.64671 -2.03481 0
M  V30 16062 N 1538.7 1.43003 0.662408 0
M  V30 16063 C 1539.64 1.4189 1.78725 0
M  V30 16064 C 1540.61 0.281515 1.60144 0
M  V30 16065 O 1541.8 0.473677 1.82452 0
M  V30 16066 C 1538.92 1.22166 3.159 0
M  V30 16067 C 1537.97 2.39061 3.53203 0
M  V30 16068 S 1538.8 4.01607 3.54221 0
M  V30 16069 C 1539.96 3.84249 4.94068 0
M  V30 16070 H 1540.19 2.37073 1.79398 0
M  V30 16071 H 1537.73 1.29924 0.834214 0
M  V30 16072 H 1539.68 1.11474 3.95074 0
M  V30 16073 H 1538.34 0.285468 3.128 0
M  V30 16074 H 1537.54 2.21041 4.52943 0
M  V30 16075 H 1537.14 2.46331 2.81419 0
M  V30 16076 H 1539.43 3.46006 5.82483 0
M  V30 16077 H 1540.37 4.83709 5.17138 0
M  V30 16078 H 1540.78 3.16879 4.6717 0
M  V30 16079 N 1540.18 -0.899904 1.29381 0
M  V30 16080 C 1541.43 -1.65038 1.17341 0
M  V30 16081 C 1541.76 -1.92544 -0.275135 0
M  V30 16082 O 1541.01 -1.53402 -1.21517 0
M  V30 16083 C 1541.31 -3.0069 1.93185 0
M  V30 16084 C 1540.98 -2.92792 3.42905 0
M  V30 16085 C 1539.64 -2.90345 3.83736 0
M  V30 16086 C 1541.99 -2.82015 4.38312 0
M  V30 16087 C 1539.32 -2.7494 5.1829 0
M  V30 16088 C 1541.67 -2.68149 5.72956 0
M  V30 16089 C 1540.33 -2.64068 6.13045 0
M  V30 16090 H 1539.6 -0.603915 0.42938 0
M  V30 16091 H 1542.25 -1.04743 1.60316 0
M  V30 16092 H 1540.56 -3.6485 1.428 0
M  V30 16093 H 1542.25 -3.57688 1.81274 0
M  V30 16094 H 1538.84 -2.95498 3.10449 0
M  V30 16095 H 1543.03 -2.82982 4.07719 0
M  V30 16096 H 1538.28 -2.70186 5.48461 0
M  V30 16097 H 1542.46 -2.58781 6.46533 0
M  V30 16098 H 1540.08 -2.51889 7.17256 0
M  V30 16099 N 1541.66 -1.11854 -1.11024 0
M  V30 16100 C 1542.88 -0.892999 -1.8719 0
M  V30 16101 C 1543.31 0.552058 -1.79816 0
M  V30 16102 O 1542.67 1.39025 -1.16369 0
M  V30 16103 C 1542.71 -1.3647 -3.33779 0
M  V30 16104 O 1541.82 -0.539202 -4.0886 0
M  V30 16105 H 1541.16 -0.321319 -0.581076 0
M  V30 16106 H 1543.69 -1.4891 -1.4031 0
M  V30 16107 H 1543.7 -1.3611 -3.84627 0
M  V30 16108 H 1542.37 -2.41694 -3.38462 0
M  V30 16109 H 1540.95 -0.60927 -3.67889 0
M  V30 16110 N 1543.14 1.28707 -0.909517 0
M  V30 16111 C 1544.37 1.98995 -0.555405 0
M  V30 16112 C 1544.77 1.68183 0.866665 0
M  V30 16113 O 1544.12 0.928626 1.585 0
M  V30 16114 C 1544.18 3.53018 -0.67958 0
M  V30 16115 C 1543.84 4.0741 -2.07042 0
M  V30 16116 C 1544.84 4.21565 -3.04268 0
M  V30 16117 C 1542.53 4.42204 -2.38245 0
M  V30 16118 C 1544.52 4.69762 -4.30816 0
M  V30 16119 C 1542.21 4.90095 -3.65034 0
M  V30 16120 C 1543.2 5.03831 -4.61133 0
M  V30 16121 O 1542.89 5.50679 -5.85668 0
M  V30 16122 H 1542.62 0.64228 -0.210836 0
M  V30 16123 H 1545.18 1.64974 -1.22364 0
M  V30 16124 H 1543.41 3.86673 0.0457104 0
M  V30 16125 H 1545.1 4.0453 -0.33319 0
M  V30 16126 H 1545.86 3.94962 -2.81478 0
M  V30 16127 H 1541.74 4.30766 -1.642 0
M  V30 16128 H 1545.29 4.80398 -5.0583 0
M  V30 16129 H 1541.18 5.16137 -3.8765 0
M  V30 16130 H 1541.95 5.68974 -5.88397 0
M  V30 16131 N 1544.61 0.673042 1.42506 0
M  V30 16132 C 1545.84 0.202922 2.05902 0
M  V30 16133 C 1546.26 -1.13923 1.50556 0
M  V30 16134 O 1545.61 -1.70735 0.644662 0
M  V30 16135 C 1545.67 0.12735 3.61276 0
M  V30 16136 O 1545.39 1.41646 4.1457 0
M  V30 16137 C 1546.89 -0.366477 4.41783 0
M  V30 16138 H 1544.11 0.0991021 0.663641 0
M  V30 16139 H 1546.65 0.919282 1.82673 0
M  V30 16140 H 1544.81 -0.539687 3.83622 0
M  V30 16141 H 1545.22 1.28866 5.08423 0
M  V30 16142 H 1546.69 -0.368267 5.5077 0
M  V30 16143 H 1547.17 -1.40142 4.16241 0
M  V30 16144 H 1547.78 0.268761 4.2445 0
M  V30 16145 N 1546.09 -1.52004 0.416254 0
M  V30 16146 C 1547.34 -2.01889 -0.157201 0
M  V30 16147 C 1547.67 -1.30153 -1.44535 0
M  V30 16148 O 1546.92 -0.39855 -1.91599 0
M  V30 16149 C 1547.22 -3.54624 -0.444553 0
M  V30 16150 C 1546.89 -4.4453 0.755251 0
M  V30 16151 C 1545.55 -4.68824 1.08433 0
M  V30 16152 C 1547.9 -4.97412 1.55663 0
M  V30 16153 C 1545.23 -5.43246 2.21586 0
M  V30 16154 C 1547.58 -5.73074 2.67898 0
M  V30 16155 C 1546.25 -5.95637 3.01285 0
M  V30 16156 H 1545.52 -0.738764 -0.0575239 0
M  V30 16157 H 1548.16 -1.83156 0.559133 0
M  V30 16158 H 1546.47 -3.71575 -1.24254 0
M  V30 16159 H 1548.16 -3.90739 -0.901333 0
M  V30 16160 H 1544.75 -4.25804 0.488789 0
M  V30 16161 H 1548.94 -4.78545 1.31562 0
M  V30 16162 H 1544.19 -5.58936 2.47792 0
M  V30 16163 H 1548.37 -6.13044 3.30378 0
M  V30 16164 H 1546 -6.53086 3.89079 0
M  V30 16165 N 1547.57 -0.146903 -1.56914 0
M  V30 16166 C 1548.82 0.503237 -1.95734 0
M  V30 16167 C 1549.14 1.65407 -1.03275 0
M  V30 16168 O 1548.41 1.95673 -0.0942784 0
M  V30 16169 H 1546.99 0.188899 -0.722721 0
M  V30 16170 H 1549.65 -0.222379 -1.93627 0
M  V30 16171 H 1548.75 0.879445 -2.99453 0
M  V30 16172 N 1549.05 1.57088 0.126881 0
M  V30 16173 C 1550 1.99764 1.15599 0
M  V30 16174 C 1550.97 0.868468 1.41587 0
M  V30 16175 O 1552.15 1.13209 1.53585 0
M  V30 16176 C 1549.29 2.40038 2.47943 0
M  V30 16177 C 1548.4 3.66336 2.28958 0
M  V30 16178 C 1547.54 3.95626 3.54477 0
M  V30 16179 C 1546.58 5.15131 3.30616 0
M  V30 16180 N 1545.71 5.4033 4.48317 0
M  V30 16181 H 1550.55 2.87473 0.785078 0
M  V30 16182 H 1548.09 1.42209 0.376169 0
M  V30 16183 H 1550.05 2.61423 3.25136 0
M  V30 16184 H 1548.68 1.55382 2.82942 0
M  V30 16185 H 1547.73 3.52612 1.4272 0
M  V30 16186 H 1549.04 4.53684 2.07298 0
M  V30 16187 H 1548.2 4.17617 4.40092 0
M  V30 16188 H 1546.94 3.06738 3.79161 0
M  V30 16189 H 1545.94 4.92992 2.43391 0
M  V30 16190 H 1547.17 6.05588 3.0731 0
M  V30 16191 H 1545.11 4.54399 4.73136 0
M  V30 16192 H 1545.03 6.21985 4.29733 0
M  V30 16193 H 1546.3 5.66835 5.35088 0
M  V30 16194 N 1550.53 -0.396836 1.52522 0
M  V30 16195 C 1551.77 -1.14432 1.67431 0
M  V30 16196 C 1552.11 -1.89842 0.409115 0
M  V30 16197 O 1551.38 -1.85244 -0.592863 0
M  V30 16198 C 1551.66 -2.12889 2.90431 0
M  V30 16199 C 1551.52 -1.41295 4.27031 0
M  V30 16200 C 1552.84 -3.13412 3.08967 0
M  V30 16201 H 1549.95 -0.414643 0.609295 0
M  V30 16202 H 1552.6 -0.428604 1.85103 0
M  V30 16203 H 1550.75 -2.73924 2.75495 0
M  V30 16204 H 1552.42 -0.832848 4.53719 0
M  V30 16205 H 1550.66 -0.714834 4.2787 0
M  V30 16206 H 1551.33 -2.13198 5.09167 0
M  V30 16207 H 1553.81 -2.62462 3.22883 0
M  V30 16208 H 1552.68 -3.79555 3.96522 0
M  V30 16209 H 1552.95 -3.81836 2.22831 0
M  V30 16210 N 1552.01 -1.43353 -0.654814 0
M  V30 16211 C 1552.94 -1.44353 -1.7803 0
M  V30 16212 C 1553.95 -0.339872 -1.59213 0
M  V30 16213 O 1555.14 -0.604207 -1.67963 0
M  V30 16214 C 1552.24 -1.23913 -3.15434 0
M  V30 16215 C 1551.41 -2.47088 -3.60924 0
M  V30 16216 C 1550.47 -2.21896 -4.77126 0
M  V30 16217 O 1549.5 -2.95236 -4.86646 0
M  V30 16218 N 1550.7 -1.23459 -5.6722 0
M  V30 16219 H 1553.46 -2.41372 -1.77651 0
M  V30 16220 H 1551.03 -1.38488 -0.838603 0
M  V30 16221 H 1553.02 -1.04945 -3.90856 0
M  V30 16222 H 1551.59 -0.35346 -3.10595 0
M  V30 16223 H 1550.81 -2.81492 -2.75964 0
M  V30 16224 H 1552.1 -3.29066 -3.88064 0
M  V30 16225 H 1551.49 -0.6284 -5.62199 0
M  V30 16226 H 1550.05 -1.10474 -6.4237 0
M  V30 16227 N 1553.48 0.89303 -1.29857 0
M  V30 16228 C 1554.73 1.64088 -1.17981 0
M  V30 16229 C 1555.05 1.93156 0.267533 0
M  V30 16230 O 1554.32 1.56233 1.18186 0
M  V30 16231 H 1552.9 0.608241 -0.43365 0
M  V30 16232 H 1555.56 1.07042 -1.62874 0
M  V30 16233 H 1554.66 2.59446 -1.73477 0
M  V30 16234 N 1554.96 1.12442 1.10429 0
M  V30 16235 C 1555.91 0.787578 2.18861 0
M  V30 16236 C 1556.9 -0.225602 1.67891 0
M  V30 16237 O 1558.11 -0.0838029 1.79805 0
M  V30 16238 H 1554.48 0.236858 0.713724 0
M  V30 16239 H 1556.46 1.71048 2.4451 0
M  V30 16240 C 1555.2 0.25854 3.46737 0
M  V30 16241 H 1554.53 1.02945 3.86319 0
M  V30 16242 H 1555.97 0.0611642 4.23956 0
M  V30 16243 C 1554.43 -1.01353 3.21293 0
M  V30 16244 O 1554.96 -2.09132 3.42967 0
M  V30 16245 N 1553.16 -0.940498 2.7496 0
M  V30 16246 H 1552.71 -0.0632962 2.57522 0
M  V30 16247 H 1552.67 -1.79226 2.58313 0
M  V30 16248 N 1556.44 -1.28223 0.91633 0
M  V30 16249 C 1557.66 -1.99523 0.566147 0
M  V30 16250 C 1558.09 -1.68 -0.846034 0
M  V30 16251 O 1557.45 -0.913838 -1.56584 0
M  V30 16252 C 1557.5 -3.51949 0.785114 0
M  V30 16253 O 1556.6 -4.1211 -0.154686 0
M  V30 16254 H 1555.94 -0.626764 0.219232 0
M  V30 16255 H 1558.47 -1.63313 1.23247 0
M  V30 16256 H 1558.48 -4.02016 0.696224 0
M  V30 16257 H 1557.16 -3.74227 1.81457 0
M  V30 16258 H 1555.73 -3.72896 -0.0168463 0
M  V30 16259 N 1557.92 -0.68059 -1.42147 0
M  V30 16260 C 1559.19 -0.133957 -1.95141 0
M  V30 16261 C 1559.57 1.3526 -1.62074 0
M  V30 16262 O 1558.92 2.09165 -0.919898 0
M  V30 16263 C 1559.13 -0.409266 -3.46592 0
M  V30 16264 C 1560.48 -0.328899 -4.23324 0
M  V30 16265 O 1561.5 -0.343337 -3.54541 0
M  V30 16266 O 1560.36 -0.276076 -5.45802 0
M  V30 16267 H 1557.46 -0.00623443 -0.826977 0
M  V30 16268 H 1560 -0.755719 -1.51944 0
M  V30 16269 H 1558.78 -1.43883 -3.63887 0
M  V30 16270 H 1558.4 0.244216 -3.96849 0
M  V30 16271 N 1559.4 1.51781 -0.424309 0
M  V30 16272 C 1560.33 2.30313 0.384462 0
M  V30 16273 C 1561.31 1.35166 1.03268 0
M  V30 16274 O 1562.49 1.64081 1.0388 0
M  V30 16275 C 1559.62 3.13566 1.49311 0
M  V30 16276 C 1558.58 4.16884 0.969096 0
M  V30 16277 C 1557.9 4.88576 2.17251 0
M  V30 16278 C 1559.2 5.22298 0.0125613 0
M  V30 16279 H 1560.9 2.98172 -0.270871 0
M  V30 16280 H 1558.44 1.43396 -0.131712 0
M  V30 16281 H 1560.39 3.67279 2.06602 0
M  V30 16282 H 1559.12 2.43504 2.17655 0
M  V30 16283 H 1557.78 3.64203 0.418494 0
M  V30 16284 H 1557.43 4.15029 2.84183 0
M  V30 16285 H 1557.13 5.58432 1.82833 0
M  V30 16286 H 1558.65 5.45107 2.75119 0
M  V30 16287 H 1560.06 5.71161 0.494744 0
M  V30 16288 H 1558.46 5.99606 -0.243544 0
M  V30 16289 H 1559.53 4.75935 -0.92813 0
M  V30 16290 N 1560.87 0.155222 1.56834 0
M  V30 16291 C 1562.1 -0.499816 2.00463 0
M  V30 16292 C 1562.51 -1.58419 1.0344 0
M  V30 16293 O 1561.85 -1.83683 0.0247026 0
M  V30 16294 C 1561.92 -1.15251 3.40525 0
M  V30 16295 C 1561.58 -0.211738 4.56509 0
M  V30 16296 C 1562.58 0.563768 5.16834 0
M  V30 16297 C 1560.26 -0.112248 5.02175 0
M  V30 16298 C 1562.26 1.42613 6.21241 0
M  V30 16299 C 1559.94 0.753709 6.06434 0
M  V30 16300 C 1560.94 1.52149 6.65837 0
M  V30 16301 O 1560.63 2.37301 7.68078 0
M  V30 16302 H 1560.36 -0.133869 0.662612 0
M  V30 16303 H 1562.92 0.249256 2.03882 0
M  V30 16304 H 1561.15 -1.94939 3.3397 0
M  V30 16305 H 1562.83 -1.70811 3.6821 0
M  V30 16306 H 1563.6 0.496985 4.82447 0
M  V30 16307 H 1559.48 -0.699614 4.5566 0
M  V30 16308 H 1563.02 2.02587 6.67536 0
M  V30 16309 H 1558.92 0.821753 6.40248 0
M  V30 16310 H 1559.69 2.30639 7.85333 0
M  V30 16311 N 1562.35 -1.57153 -0.118549 0
M  V30 16312 C 1563.6 -1.86029 -0.822493 0
M  V30 16313 C 1563.95 -0.743041 -1.77473 0
M  V30 16314 O 1563.25 0.256918 -1.8987 0
M  V30 16315 C 1563.44 -3.19084 -1.60998 0
M  V30 16316 C 1563.27 -4.43644 -0.735503 0
M  V30 16317 C 1562.04 -5.03791 -0.390169 0
M  V30 16318 C 1564.24 -5.14273 -0.0529326 0
M  V30 16319 N 1562.22 -6.11902 0.494927 0
M  V30 16320 C 1563.59 -6.16136 0.691148 0
M  V30 16321 C 1565.64 -4.97894 0.0234393 0
M  V30 16322 C 1564.35 -7.03391 1.50443 0
M  V30 16323 C 1566.37 -5.85638 0.823546 0
M  V30 16324 C 1565.74 -6.87003 1.55582 0
M  V30 16325 H 1561.83 -0.73096 -0.277887 0
M  V30 16326 H 1564.42 -1.94509 -0.086209 0
M  V30 16327 H 1562.59 -3.11698 -2.3173 0
M  V30 16328 H 1564.32 -3.35765 -2.2593 0
M  V30 16329 H 1561.08 -4.67901 -0.732512 0
M  V30 16330 H 1561.5 -6.70591 0.929337 0
M  V30 16331 H 1566.14 -4.19486 -0.528351 0
M  V30 16332 H 1563.86 -7.81208 2.06737 0
M  V30 16333 H 1567.45 -5.75029 0.885004 0
M  V30 16334 H 1566.33 -7.53723 2.16498 0
M  V30 16335 N 1563.83 0.388742 -1.5273 0
M  V30 16336 C 1564.78 1.47488 -1.77527 0
M  V30 16337 C 1565.75 1.54155 -0.618505 0
M  V30 16338 O 1566.93 1.70407 -0.858251 0
M  V30 16339 C 1564.07 2.84714 -1.95018 0
M  V30 16340 C 1563.18 2.87197 -3.2271 0
M  V30 16341 C 1562.32 4.15851 -3.30517 0
M  V30 16342 C 1561.36 4.12386 -4.52332 0
M  V30 16343 N 1560.5 5.32647 -4.57418 0
M  V30 16344 H 1565.34 1.25644 -2.70218 0
M  V30 16345 H 1562.87 0.609519 -1.33878 0
M  V30 16346 H 1564.83 3.64402 -2.03143 0
M  V30 16347 H 1563.46 3.05008 -1.05688 0
M  V30 16348 H 1562.51 1.99879 -3.23655 0
M  V30 16349 H 1563.82 2.80505 -4.12454 0
M  V30 16350 H 1562.98 5.03943 -3.37827 0
M  V30 16351 H 1561.72 4.25265 -2.38748 0
M  V30 16352 H 1560.72 3.22683 -4.45147 0
M  V30 16353 H 1561.95 4.04594 -5.45418 0
M  V30 16354 H 1559.89 5.42691 -3.68541 0
M  V30 16355 H 1559.81 5.28032 -5.41035 0
M  V30 16356 H 1561.08 6.22636 -4.68983 0
M  V30 16357 N 1565.31 1.43698 0.647203 0
M  V30 16358 C 1566.27 1.48986 1.74172 0
M  V30 16359 C 1567.27 0.373812 1.56395 0
M  V30 16360 O 1568.46 0.635804 1.62183 0
M  V30 16361 C 1565.59 1.34827 3.13104 0
M  V30 16362 H 1566.79 2.46467 1.70863 0
M  V30 16363 H 1564.34 1.30552 0.859409 0
M  V30 16364 H 1565.07 0.383772 3.22021 0
M  V30 16365 H 1564.86 2.15738 3.27414 0
M  V30 16366 H 1566.35 1.41473 3.92906 0
M  V30 16367 N 1566.79 -0.886131 1.30328 0
M  V30 16368 C 1567.72 -1.99733 1.12425 0
M  V30 16369 C 1568.73 -1.62659 0.067824 0
M  V30 16370 O 1569.92 -1.75721 0.313723 0
M  V30 16371 C 1567.02 -3.31757 0.692122 0
M  V30 16372 C 1566.19 -3.97276 1.83004 0
M  V30 16373 C 1565.25 -5.076 1.38666 0
M  V30 16374 O 1564.28 -5.29295 2.09368 0
M  V30 16375 N 1565.48 -5.79895 0.265039 0
M  V30 16376 H 1568.25 -2.15643 2.0813 0
M  V30 16377 H 1565.81 -1.05915 1.22449 0
M  V30 16378 H 1567.8 -4.02926 0.37854 0
M  V30 16379 H 1566.37 -3.12122 -0.172864 0
M  V30 16380 H 1565.59 -3.19295 2.3118 0
M  V30 16381 H 1566.88 -4.37789 2.59264 0
M  V30 16382 H 1566.27 -5.64771 -0.324121 0
M  V30 16383 H 1564.83 -6.51799 0.0109044 0
M  V30 16384 N 1568.26 -1.13026 -1.09832 0
M  V30 16385 C 1569.68 -0.867598 -1.33959 0
M  V30 16386 C 1569.88 0.499047 -1.95222 0
M  V30 16387 O 1568.94 1.24644 -2.19591 0
M  V30 16388 C 1570.25 -1.98893 -2.25526 0
M  V30 16389 C 1571.8 -2.02054 -2.39047 0
M  V30 16390 C 1572.27 -3.13438 -3.33947 0
M  V30 16391 N 1573.76 -3.12921 -3.41518 0
M  V30 16392 C 1574.5 -3.95746 -4.14937 0
M  V30 16393 N 1573.99 -4.88574 -4.91189 0
M  V30 16394 N 1575.79 -3.8386 -4.10619 0
M  V30 16395 H 1567.94 -2.01072 -0.684382 0
M  V30 16396 H 1570.2 -0.875341 -0.363982 0
M  V30 16397 H 1569.91 -2.97405 -1.87731 0
M  V30 16398 H 1569.78 -1.89948 -3.25883 0
M  V30 16399 H 1572.17 -1.04158 -2.76107 0
M  V30 16400 H 1572.25 -2.15072 -1.38483 0
M  V30 16401 H 1571.89 -4.11571 -2.9761 0
M  V30 16402 H 1571.82 -2.97658 -4.34405 0
M  V30 16403 H 1574.31 -2.45677 -2.87144 0
M  V30 16404 H 1574.63 -5.48269 -5.44629 0
M  V30 16405 H 1572.97 -4.92583 -4.90292 0
M  V30 16406 H 1576.16 -3.10669 -3.50146 0
M  V30 16407 H 1576.34 -4.48637 -4.67577 0
M  V30 16408 N 1569.74 1.27735 -0.923117 0
M  V30 16409 C 1570.97 1.98394 -0.57648 0
M  V30 16410 C 1571.38 1.69093 0.848778 0
M  V30 16411 O 1570.72 0.945385 1.57506 0
M  V30 16412 C 1570.79 3.52278 -0.716984 0
M  V30 16413 C 1570.45 4.05191 -2.11351 0
M  V30 16414 C 1571.45 4.18314 -3.08722 0
M  V30 16415 C 1569.13 4.39652 -2.42922 0
M  V30 16416 C 1571.13 4.65166 -4.35774 0
M  V30 16417 C 1568.81 4.86196 -3.70211 0
M  V30 16418 C 1569.81 4.98911 -4.66451 0
M  V30 16419 O 1569.5 5.44437 -5.91476 0
M  V30 16420 H 1569.23 0.640008 -0.217636 0
M  V30 16421 H 1571.78 1.63666 -1.24107 0
M  V30 16422 H 1570.01 3.867 0.00469601 0
M  V30 16423 H 1571.7 4.04154 -0.376077 0
M  V30 16424 H 1572.47 3.91955 -2.85651 0
M  V30 16425 H 1568.35 4.29 -1.6876 0
M  V30 16426 H 1571.89 4.75006 -5.10896 0
M  V30 16427 H 1567.79 5.11997 -3.93103 0
M  V30 16428 H 1568.56 5.62701 -5.94399 0
M  V30 16429 N 1571.22 0.688118 1.41784 0
M  V30 16430 C 1572.64 0.358943 1.55511 0
M  V30 16431 C 1572.84 -1.13469 1.66514 0
M  V30 16432 O 1571.89 -1.92039 1.63943 0
M  V30 16433 C 1573.21 1.10094 2.79821 0
M  V30 16434 C 1574.75 1.08456 2.93609 0
M  V30 16435 C 1575.23 1.80815 4.20797 0
M  V30 16436 N 1576.72 1.77748 4.27738 0
M  V30 16437 C 1577.45 2.30581 5.24995 0
M  V30 16438 N 1576.95 2.91854 6.28326 0
M  V30 16439 N 1578.74 2.2088 5.16884 0
M  V30 16440 H 1570.89 1.65695 1.32886 0
M  V30 16441 H 1573.16 0.698818 0.640592 0
M  V30 16442 H 1572.86 2.15589 2.77874 0
M  V30 16443 H 1572.74 0.674713 3.71117 0
M  V30 16444 H 1575.12 0.0378955 2.95076 0
M  V30 16445 H 1575.21 1.54978 2.03508 0
M  V30 16446 H 1574.85 2.85457 4.20092 0
M  V30 16447 H 1574.78 1.31732 5.09857 0
M  V30 16448 H 1577.27 1.33069 3.53696 0
M  V30 16449 H 1577.58 3.29755 6.98915 0
M  V30 16450 H 1575.93 2.95929 6.28849 0
M  V30 16451 H 1579.12 1.72689 4.35082 0
M  V30 16452 H 1579.29 2.62359 5.92513 0
M  V30 16453 N 1572.7 -1.51554 0.432352 0
M  V30 16454 C 1573.63 -2.30514 -0.372243 0
M  V30 16455 C 1574.61 -1.35712 -1.02549 0
M  V30 16456 O 1575.79 -1.6463 -1.03009 0
M  V30 16457 C 1572.92 -3.14353 -1.47646 0
M  V30 16458 C 1571.88 -4.17392 -0.946974 0
M  V30 16459 C 1571.2 -4.89721 -2.14656 0
M  V30 16460 C 1572.5 -5.22298 0.0151377 0
M  V30 16461 H 1574.2 -2.98024 0.28668 0
M  V30 16462 H 1571.74 -1.43325 0.139315 0
M  V30 16463 H 1573.7 -3.68369 -2.04651 0
M  V30 16464 H 1572.42 -2.44654 -2.1636 0
M  V30 16465 H 1571.08 -3.6442 -0.399174 0
M  V30 16466 H 1570.73 -4.1653 -2.81978 0
M  V30 16467 H 1570.43 -5.59393 -1.79869 0
M  V30 16468 H 1571.95 -5.46559 -2.72224 0
M  V30 16469 H 1573.37 -5.71416 -0.464447 0
M  V30 16470 H 1571.76 -5.99468 0.275339 0
M  V30 16471 H 1572.83 -4.75436 0.953357 0
M  V30 16472 N 1574.18 -0.163538 -1.56749 0
M  V30 16473 C 1575.43 0.483453 -1.9582 0
M  V30 16474 C 1575.74 1.64913 -1.05181 0
M  V30 16475 O 1576.94 2.36184 -1.33901 0
M  V30 16476 C 1575.4 0.911471 -3.48167 0
M  V30 16477 C 1575.01 -0.228178 -4.47419 0
M  V30 16478 C 1576.75 1.52732 -3.96072 0
M  V30 16479 C 1574.66 0.219036 -5.90994 0
M  V30 16480 H 1573.59 0.184383 -0.731108 0
M  V30 16481 H 1576.24 -0.250527 -1.81782 0
M  V30 16482 H 1574.62 1.7012 -3.57596 0
M  V30 16483 H 1575.8 -1.0054 -4.49698 0
M  V30 16484 H 1574.11 -0.753485 -4.09526 0
M  V30 16485 H 1576.71 1.87383 -5.00791 0
M  V30 16486 H 1577.05 2.42239 -3.38565 0
M  V30 16487 H 1577.58 0.802176 -3.89628 0
M  V30 16488 H 1574.32 -0.641066 -6.52358 0
M  V30 16489 H 1573.84 0.96178 -5.92039 0
M  V30 16490 H 1575.52 0.665524 -6.43568 0
M  V30 16491 N 1575.65 1.57214 0.110213 0
M  V30 16492 C 1577.07 1.52706 0.464004 0
M  V30 16493 C 1577.27 0.87792 1.81369 0
M  V30 16494 O 1576.33 0.463987 2.482 0
M  V30 16495 C 1577.64 2.97457 0.440406 0
M  V30 16496 C 1579.19 3.08594 0.523336 0
M  V30 16497 C 1579.66 4.54923 0.53004 0
M  V30 16498 N 1581.15 4.59411 0.591228 0
M  V30 16499 C 1581.89 5.7006 0.618007 0
M  V30 16500 N 1581.38 6.9018 0.601901 0
M  V30 16501 N 1583.18 5.58192 0.661679 0
M  V30 16502 H 1575.33 1.97794 -0.77403 0
M  V30 16503 H 1577.59 0.903673 -0.286496 0
M  V30 16504 H 1577.3 3.48356 -0.483845 0
M  V30 16505 H 1577.17 3.55356 1.26498 0
M  V30 16506 H 1579.56 2.57692 1.43801 0
M  V30 16507 H 1579.64 2.53674 -0.329095 0
M  V30 16508 H 1579.28 5.06472 -0.380623 0
M  V30 16509 H 1579.21 5.07663 1.39948 0
M  V30 16510 H 1581.7 3.72953 0.609483 0
M  V30 16511 H 1582.02 7.70267 0.6252 0
M  V30 16512 H 1580.36 6.92665 0.569186 0
M  V30 16513 H 1583.55 4.63256 0.671686 0
M  V30 16514 H 1583.73 6.44432 0.67908 0
M  V30 16515 N 1577.13 -0.380637 1.52934 0
M  V30 16516 C 1578.04 -1.48957 1.81243 0
M  V30 16517 C 1579.06 -1.5931 0.69974 0
M  V30 16518 O 1580.23 -1.75488 0.988218 0
M  V30 16519 C 1577.3 -2.84397 1.9829 0
M  V30 16520 C 1576.36 -2.83697 3.22202 0
M  V30 16521 C 1575.59 -4.12677 3.38427 0
M  V30 16522 O 1575.82 -5.08068 2.59274 0
M  V30 16523 O 1574.75 -4.19407 4.31719 0
M  V30 16524 H 1578.58 -1.27964 2.75425 0
M  V30 16525 H 1576.16 -0.56929 1.38128 0
M  V30 16526 H 1578.04 -3.64676 2.11161 0
M  V30 16527 H 1576.72 -3.054 1.07298 0
M  V30 16528 H 1575.63 -2.0217 3.14767 0
M  V30 16529 H 1576.96 -2.67648 4.13068 0
M  V30 16530 N 1578.61 -1.44039 -0.639573 0
M  V30 16531 C 1579.86 -1.46377 -1.39928 0
M  V30 16532 C 1580.19 -0.0931685 -1.94277 0
M  V30 16533 O 1579.44 0.903841 -1.73578 0
M  V30 16534 C 1579.74 -2.46459 -2.5883 0
M  V30 16535 C 1579.41 -3.91998 -2.2282 0
M  V30 16536 C 1578.07 -4.31633 -2.12712 0
M  V30 16537 C 1580.42 -4.83656 -1.94232 0
M  V30 16538 C 1577.75 -5.60863 -1.72191 0
M  V30 16539 C 1580.1 -6.13265 -1.55206 0
M  V30 16540 C 1578.76 -6.51863 -1.43633 0
M  V30 16541 H 1578.03 -0.535633 -0.512034 0
M  V30 16542 H 1580.68 -1.77202 -0.72607 0
M  V30 16543 H 1578.99 -2.09087 -3.31345 0
M  V30 16544 H 1580.68 -2.45518 -3.17052 0
M  V30 16545 H 1577.27 -3.60636 -2.31602 0
M  V30 16546 H 1581.46 -4.53796 -2.00955 0
M  V30 16547 H 1576.71 -5.89595 -1.61828 0
M  V30 16548 H 1580.89 -6.83752 -1.32121 0
M  V30 16549 H 1578.51 -7.51903 -1.12006 0
M  V30 16550 N 1580.09 0.879207 -1.30796 0
M  V30 16551 C 1581.04 1.97297 -1.14272 0
M  V30 16552 C 1582.02 1.60802 -0.0562653 0
M  V30 16553 O 1583.21 1.74768 -0.280204 0
M  V30 16554 C 1580.34 3.32799 -0.842604 0
M  V30 16555 C 1579.43 3.7559 -1.96959 0
M  V30 16556 N 1579.82 3.90426 -3.21561 0
M  V30 16557 C 1578.12 4.05031 -1.86725 0
M  V30 16558 C 1578.82 4.2682 -3.9522 0
M  V30 16559 N 1577.8 4.36999 -3.23316 0
M  V30 16560 H 1581.6 2.06865 -2.08768 0
M  V30 16561 H 1579.11 1.0694 -1.2222 0
M  V30 16562 H 1581.11 4.10892 -0.705224 0
M  V30 16563 H 1579.77 3.24563 0.0942269 0
M  V30 16564 H 1580.78 3.75401 -3.56783 0
M  V30 16565 H 1577.46 4.05236 -1.00447 0
M  V30 16566 H 1578.85 4.45973 -5.02551 0
M  V30 16567 N 1581.57 1.13606 1.09231 0
M  V30 16568 C 1582.79 0.922667 1.85746 0
M  V30 16569 C 1583.22 -0.523381 1.80672 0
M  V30 16570 O 1582.58 -1.37156 1.18566 0
M  V30 16571 C 1582.62 1.41762 3.31566 0
M  V30 16572 O 1581.73 0.60418 4.0795 0
M  V30 16573 H 1581.07 0.330523 0.575891 0
M  V30 16574 H 1583.6 1.51123 1.37924 0
M  V30 16575 H 1583.61 1.42212 3.82413 0
M  V30 16576 H 1582.28 2.47048 3.34574 0
M  V30 16577 H 1580.86 0.667721 3.66873 0
M  V30 16578 N 1583.05 -1.27244 0.929878 0
M  V30 16579 C 1584.46 -1.4662 0.630451 0
M  V30 16580 C 1584.66 -1.84077 -0.819633 0
M  V30 16581 O 1583.72 -1.95555 -1.59733 0
M  V30 16582 C 1585.03 -2.55709 1.58219 0
M  V30 16583 C 1586.58 -2.69569 1.59065 0
M  V30 16584 C 1587.05 -3.81818 2.52941 0
M  V30 16585 N 1588.54 -3.89195 2.51161 0
M  V30 16586 C 1589.28 -4.75474 3.20488 0
M  V30 16587 N 1588.78 -5.66225 3.99201 0
M  V30 16588 N 1590.57 -4.69222 3.09495 0
M  V30 16589 H 1582.72 -1.01216 1.86733 0
M  V30 16590 H 1584.98 -0.505737 0.801832 0
M  V30 16591 H 1584.69 -2.34985 2.61677 0
M  V30 16592 H 1584.56 -3.53141 1.32556 0
M  V30 16593 H 1586.95 -2.89672 0.563375 0
M  V30 16594 H 1587.03 -1.72616 1.88778 0
M  V30 16595 H 1586.67 -3.62467 3.55781 0
M  V30 16596 H 1586.6 -4.78202 2.20524 0
M  V30 16597 H 1589.1 -3.24305 1.93997 0
M  V30 16598 H 1589.41 -6.28925 4.4908 0
M  V30 16599 H 1587.75 -5.66013 4.03304 0
M  V30 16600 H 1590.94 -3.97322 2.47493 0
M  V30 16601 H 1591.12 -5.36244 3.63794 0
M  V30 16602 N 1584.52 -0.695628 -1.41417 0
M  V30 16603 C 1585.93 -0.3014 -1.84251 0
M  V30 16604 C 1586.29 1.16042 -1.58204 0
M  V30 16605 O 1585.41 1.89079 -1.05253 0
M  V30 16606 C 1586.01 -0.540256 -3.34465 0
M  V30 16607 C 1584.56 -0.199944 -3.75869 0
M  V30 16608 C 1583.71 -0.822511 -2.64821 0
M  V30 16609 H 1586.66 -0.896278 -1.30968 0
M  V30 16610 H 1586.68 0.201019 -3.79969 0
M  V30 16611 H 1586.2 -1.60427 -3.53391 0
M  V30 16612 H 1584.3 0.859798 -3.62544 0
M  V30 16613 H 1584.41 -0.655005 -4.74601 0
M  V30 16614 H 1582.77 -0.252109 -2.53449 0
M  V30 16615 H 1583.56 -1.89039 -2.86564 0
M  V30 16616 N 1586 1.51322 -0.440383 0
M  V30 16617 C 1586.96 2.26388 0.357911 0
M  V30 16618 C 1587.96 1.2995 0.947083 0
M  V30 16619 O 1589.15 1.53637 0.821057 0
M  V30 16620 C 1586.29 3.05797 1.50669 0
M  V30 16621 H 1587.48 2.98396 -0.300002 0
M  V30 16622 H 1585.03 1.55096 -0.193628 0
M  V30 16623 H 1585.77 2.38213 2.20057 0
M  V30 16624 H 1585.55 3.76634 1.09037 0
M  V30 16625 H 1587.04 3.6265 2.07062 0
M  V30 16626 N 1587.48 0.171848 1.5666 0
M  V30 16627 C 1588.41 -0.753861 2.20996 0
M  V30 16628 C 1589.39 -1.23873 1.16574 0
M  V30 16629 O 1590.58 -1.29179 1.45005 0
M  V30 16630 C 1587.71 -1.98314 2.85112 0
M  V30 16631 C 1586.66 -1.6341 3.95577 0
M  V30 16632 C 1585.99 -2.93807 4.46745 0
M  V30 16633 C 1587.29 -0.861713 5.15142 0
M  V30 16634 H 1588.98 -0.217598 2.98608 0
M  V30 16635 H 1586.53 -0.10322 1.4363 0
M  V30 16636 H 1588.48 -2.63576 3.28794 0
M  V30 16637 H 1587.2 -2.54354 2.04869 0
M  V30 16638 H 1585.86 -1.00516 3.52551 0
M  V30 16639 H 1585.51 -3.47889 3.63293 0
M  V30 16640 H 1585.21 -2.71207 5.21268 0
M  V30 16641 H 1586.73 -3.60098 4.93114 0
M  V30 16642 H 1588.15 -1.41693 5.55514 0
M  V30 16643 H 1586.54 -0.734727 5.95585 0
M  V30 16644 H 1587.61 0.141851 4.84692 0
M  V30 16645 N 1588.96 -1.5727 -0.101874 0
M  V30 16646 C 1589.92 -2.00625 -1.10826 0
M  V30 16647 C 1590.92 -0.89878 -1.33336 0
M  V30 16648 O 1592.11 -1.16442 -1.29564 0
M  V30 16649 C 1589.24 -2.36113 -2.45893 0
M  V30 16650 H 1590.44 -2.90748 -0.735238 0
M  V30 16651 H 1587.99 -1.52406 -0.346713 0
M  V30 16652 H 1588.72 -1.48923 -2.88084 0
M  V30 16653 H 1588.51 -3.169 -2.30904 0
M  V30 16654 H 1590 -2.70336 -3.1829 0
M  V30 16655 N 1590.44 0.372521 -1.53134 0
M  V30 16656 C 1591.85 0.949671 -1.60742 0
M  V30 16657 C 1592.2 1.90475 -0.470501 0
M  V30 16658 O 1591.32 2.12594 0.404085 0
M  V30 16659 C 1591.92 1.72918 -2.9135 0
M  V30 16660 C 1590.48 2.25577 -3.01317 0
M  V30 16661 C 1589.62 1.06612 -2.55986 0
M  V30 16662 H 1592.57 0.151533 -1.57975 0
M  V30 16663 H 1592.6 2.58982 -2.78763 0
M  V30 16664 H 1592.11 1.0338 -3.74078 0
M  V30 16665 H 1590.21 2.98378 -2.23162 0
M  V30 16666 H 1590.32 2.53935 -4.06268 0
M  V30 16667 H 1588.69 1.43105 -2.10697 0
M  V30 16668 H 1589.47 0.38584 -3.41125 0
M  V30 16669 N 1591.91 1.44376 0.631925 0
M  V30 16670 C 1593.32 1.41881 1.21353 0
M  V30 16671 C 1593.68 0.13375 1.95744 0
M  V30 16672 O 1592.8 -0.765919 2.02392 0
M  V30 16673 C 1593.4 2.57027 2.20732 0
M  V30 16674 C 1591.95 2.5773 2.74322 0
M  V30 16675 C 1591.1 2.33672 1.49307 0
M  V30 16676 H 1594.05 1.52968 0.42265 0
M  V30 16677 H 1594.07 2.29735 3.03319 0
M  V30 16678 H 1593.59 3.50541 1.66561 0
M  V30 16679 H 1591.69 1.68155 3.32498 0
M  V30 16680 H 1591.8 3.5619 3.20415 0
M  V30 16681 H 1590.16 1.8275 1.7741 0
M  V30 16682 H 1590.95 3.293 0.970395 0
M  V30 16683 N 1593.39 -0.872258 1.31261 0
M  V30 16684 C 1594.64 -1.62511 1.20815 0
M  V30 16685 C 1594.97 -1.93084 -0.234231 0
M  V30 16686 O 1594.22 -1.55945 -1.18236 0
M  V30 16687 C 1594.52 -2.96524 1.9952 0
M  V30 16688 C 1594.19 -2.85453 3.49038 0
M  V30 16689 C 1592.85 -2.8214 3.89808 0
M  V30 16690 C 1595.2 -2.72654 4.44195 0
M  V30 16691 C 1592.53 -2.63885 5.24005 0
M  V30 16692 C 1594.88 -2.55936 5.78515 0
M  V30 16693 C 1593.54 -2.51005 6.18508 0
M  V30 16694 H 1592.81 -0.594672 0.442093 0
M  V30 16695 H 1595.46 -1.01319 1.62501 0
M  V30 16696 H 1593.77 -3.61739 1.50507 0
M  V30 16697 H 1595.46 -3.53763 1.8882 0
M  V30 16698 H 1592.05 -2.88847 3.16647 0
M  V30 16699 H 1596.24 -2.7427 4.1363 0
M  V30 16700 H 1591.49 -2.58491 5.54069 0
M  V30 16701 H 1595.67 -2.45009 6.51877 0
M  V30 16702 H 1593.29 -2.36619 7.22437 0
M  V30 16703 N 1594.87 -1.14184 -1.08627 0
M  V30 16704 C 1596.12 -0.903271 -1.80344 0
M  V30 16705 C 1596.43 0.571801 -1.87056 0
M  V30 16706 O 1597.64 0.92756 -2.55164 0
M  V30 16707 C 1596.09 -1.56653 -3.24018 0
M  V30 16708 C 1595.7 -3.07771 -3.25548 0
M  V30 16709 C 1597.45 -1.40899 -4.00434 0
M  V30 16710 C 1595.35 -3.66943 -4.63796 0
M  V30 16711 H 1594.28 -0.334288 -0.675846 0
M  V30 16712 H 1596.93 -1.3705 -1.22023 0
M  V30 16713 H 1595.32 -1.02698 -3.82452 0
M  V30 16714 H 1596.49 -3.68375 -2.76834 0
M  V30 16715 H 1594.8 -3.23136 -2.62625 0
M  V30 16716 H 1597.4 -1.82511 -5.02587 0
M  V30 16717 H 1597.74 -0.354822 -4.14785 0
M  V30 16718 H 1598.28 -1.91879 -3.48464 0
M  V30 16719 H 1595.02 -4.72203 -4.54648 0
M  V30 16720 H 1594.54 -3.11119 -5.12801 0
M  V30 16721 H 1596.22 -3.67103 -5.32771 0
M  V30 16722 N 1596.35 1.26749 -0.936613 0
M  V30 16723 C 1597.59 1.94251 -0.582616 0
M  V30 16724 C 1597.93 1.73352 0.875361 0
M  V30 16725 O 1597.2 1.06784 1.62565 0
M  V30 16726 C 1597.49 3.48145 -0.920151 0
M  V30 16727 C 1597.34 3.78349 -2.43253 0
M  V30 16728 C 1598.66 4.37971 -0.432326 0
M  V30 16729 H 1595.78 0.705507 -0.213141 0
M  V30 16730 H 1598.42 1.49703 -1.17001 0
M  V30 16731 H 1596.57 3.8622 -0.420279 0
M  V30 16732 H 1598.24 3.50015 -3.00478 0
M  V30 16733 H 1596.48 3.24586 -2.87795 0
M  V30 16734 H 1597.15 4.85902 -2.61922 0
M  V30 16735 H 1599.63 4.07098 -0.860857 0
M  V30 16736 H 1598.51 5.44452 -0.697366 0
M  V30 16737 H 1598.77 4.37029 0.667694 0
M  V30 16738 N 1597.83 0.703118 1.41046 0
M  V30 16739 C 1599.08 0.234346 2.00334 0
M  V30 16740 C 1599.39 -1.17524 1.56357 0
M  V30 16741 O 1600.59 -1.74188 2.08257 0
M  V30 16742 C 1599.05 0.368067 3.58013 0
M  V30 16743 C 1598.66 1.7835 4.10969 0
M  V30 16744 C 1600.4 -0.0405456 4.24481 0
M  V30 16745 C 1598.31 1.86848 5.61108 0
M  V30 16746 H 1597.24 0.0838583 0.749322 0
M  V30 16747 H 1599.89 0.872407 1.61435 0
M  V30 16748 H 1598.27 -0.338371 3.94552 0
M  V30 16749 H 1599.45 2.51931 3.85833 0
M  V30 16750 H 1597.76 2.14246 3.57054 0
M  V30 16751 H 1600.36 0.00239803 5.347 0
M  V30 16752 H 1600.7 -1.08049 4.02034 0
M  V30 16753 H 1601.23 0.615887 3.93003 0
M  V30 16754 H 1597.97 2.8892 5.88392 0
M  V30 16755 H 1597.49 1.17662 5.88146 0
M  V30 16756 H 1599.17 1.63484 6.26005 0
M  V30 16757 N 1599.3 -1.51086 0.448402 0
M  V30 16758 C 1600.53 -2.07081 -0.115038 0
M  V30 16759 C 1600.95 -1.31253 -1.34737 0
M  V30 16760 O 1600.31 -0.353613 -1.77818 0
M  V30 16761 C 1600.36 -3.58321 -0.404803 0
M  V30 16762 O 1599.46 -3.84567 -1.48936 0
M  V30 16763 H 1598.81 -0.663993 0.00299118 0
M  V30 16764 H 1601.34 -1.94564 0.632921 0
M  V30 16765 H 1601.35 -4.02756 -0.652013 0
M  V30 16766 H 1600.02 -4.12934 0.495838 0
M  V30 16767 H 1598.6 -3.51987 -1.23124 0
M  V30 16768 N 1600.78 -0.180154 -1.56567 0
M  V30 16769 C 1601.73 0.759144 -2.14991 0
M  V30 16770 C 1602.72 1.18672 -1.08654 0
M  V30 16771 O 1603.91 1.14761 -1.34755 0
M  V30 16772 C 1601.04 1.98473 -2.80113 0
M  V30 16773 C 1600.12 1.57874 -3.9362 0
M  V30 16774 N 1600.51 0.882825 -4.98036 0
M  V30 16775 C 1598.81 1.86913 -4.04944 0
M  V30 16776 C 1599.51 0.681573 -5.77693 0
M  V30 16777 N 1598.49 1.22573 -5.29601 0
M  V30 16778 H 1602.29 0.218574 -2.93086 0
M  V30 16779 H 1599.81 0.0202002 -1.62387 0
M  V30 16780 H 1601.8 2.66797 -3.20351 0
M  V30 16781 H 1600.46 2.53017 -2.03501 0
M  V30 16782 H 1601.47 0.539906 -5.15078 0
M  V30 16783 H 1598.15 2.43071 -3.39445 0
M  V30 16784 H 1599.54 0.130602 -6.71773 0
M  V30 16785 N 1602.26 1.57322 0.0935319 0
M  V30 16786 C 1603.19 2.05208 1.11409 0
M  V30 16787 C 1604.17 0.941295 1.41681 0
M  V30 16788 O 1605.36 1.21266 1.51684 0
M  V30 16789 C 1602.49 2.47782 2.43354 0
M  V30 16790 C 1601.44 3.62538 2.27486 0
M  V30 16791 C 1600.77 3.91095 3.64622 0
M  V30 16792 C 1602.07 4.93371 1.71412 0
M  V30 16793 H 1603.76 2.9072 0.715702 0
M  V30 16794 H 1601.31 1.3986 0.342827 0
M  V30 16795 H 1603.26 2.79891 3.15022 0
M  V30 16796 H 1601.98 1.59272 2.85132 0
M  V30 16797 H 1600.64 3.30679 1.58263 0
M  V30 16798 H 1600.29 2.99749 4.0393 0
M  V30 16799 H 1599.99 4.68353 3.5485 0
M  V30 16800 H 1601.51 4.25679 4.37755 0
M  V30 16801 H 1602.93 5.23851 2.32922 0
M  V30 16802 H 1601.33 5.74804 1.72395 0
M  V30 16803 H 1602.4 4.80197 0.67368 0
M  V30 16804 N 1603.74 -0.364395 1.53329 0
M  V30 16805 C 1605.15 -0.706147 1.43128 0
M  V30 16806 C 1605.35 -1.93231 0.571307 0
M  V30 16807 O 1604.41 -2.52442 0.0542079 0
M  V30 16808 C 1605.72 -0.918245 2.86337 0
M  V30 16809 C 1607.27 -1.01818 2.95976 0
M  V30 16810 C 1607.75 -1.26274 4.40249 0
M  V30 16811 N 1609.24 -1.33042 4.43683 0
M  V30 16812 C 1609.97 -1.53677 5.52423 0
M  V30 16813 N 1609.47 -1.7162 6.71207 0
M  V30 16814 N 1611.26 -1.56056 5.40003 0
M  V30 16815 H 1603.41 0.442091 2.07748 0
M  V30 16816 H 1605.68 0.135735 0.938232 0
M  V30 16817 H 1605.38 -0.0890628 3.51587 0
M  V30 16818 H 1605.26 -1.826 3.30056 0
M  V30 16819 H 1607.64 -1.83791 2.30879 0
M  V30 16820 H 1607.72 -0.0877892 2.55649 0
M  V30 16821 H 1607.37 -0.448026 5.0592 0
M  V30 16822 H 1607.3 -2.20637 4.78149 0
M  V30 16823 H 1609.79 -1.20784 3.58078 0
M  V30 16824 H 1610.1 -1.86942 7.49848 0
M  V30 16825 H 1608.45 -1.68797 6.7419 0
M  V30 16826 H 1611.64 -1.41605 4.46168 0
M  V30 16827 H 1611.81 -1.71796 6.24812 0
M  V30 16828 N 1605.22 -1.44709 -0.62426 0
M  V30 16829 C 1606.15 -1.54934 -1.74693 0
M  V30 16830 C 1607.13 -0.401897 -1.65284 0
M  V30 16831 O 1608.31 -0.622906 -1.83939 0
M  V30 16832 C 1605.44 -1.49976 -3.13248 0
M  V30 16833 C 1604.4 -2.63267 -3.37453 0
M  V30 16834 C 1603.72 -2.43362 -4.76108 0
M  V30 16835 C 1605.02 -4.0538 -3.2934 0
M  V30 16836 H 1606.72 -2.48905 -1.66393 0
M  V30 16837 H 1604.26 -1.19794 -0.799088 0
M  V30 16838 H 1606.22 -1.55729 -3.91569 0
M  V30 16839 H 1604.94 -0.525254 -3.22349 0
M  V30 16840 H 1603.6 -2.56915 -2.61515 0
M  V30 16841 H 1603.25 -1.44088 -4.81921 0
M  V30 16842 H 1602.95 -3.19324 -4.93261 0
M  V30 16843 H 1604.47 -2.50943 -5.56651 0
M  V30 16844 H 1605.88 -4.13064 -3.97556 0
M  V30 16845 H 1604.28 -4.81599 -3.58025 0
M  V30 16846 H 1605.35 -4.28465 -2.27038 0
M  V30 16847 N 1606.69 0.865285 -1.31722 0
M  V30 16848 C 1607.62 1.98871 -1.22362 0
M  V30 16849 C 1608.61 1.69745 -0.109779 0
M  V30 16850 O 1609.79 1.91944 -0.295167 0
M  V30 16851 C 1606.92 3.34477 -0.935 0
M  V30 16852 C 1605.87 3.77924 -2.00892 0
M  V30 16853 C 1605.2 5.11042 -1.57291 0
M  V30 16854 C 1606.5 3.94528 -3.42264 0
M  V30 16855 H 1608.19 2.06959 -2.16352 0
M  V30 16856 H 1605.74 0.994355 -1.04157 0
M  V30 16857 H 1607.69 4.12612 -0.856111 0
M  V30 16858 H 1606.42 3.26575 0.0405536 0
M  V30 16859 H 1605.08 3.02032 -2.07779 0
M  V30 16860 H 1604.72 4.99586 -0.585084 0
M  V30 16861 H 1604.42 5.41082 -2.29138 0
M  V30 16862 H 1605.95 5.91681 -1.50818 0
M  V30 16863 H 1607.36 4.63045 -3.38027 0
M  V30 16864 H 1605.76 4.35972 -4.12369 0
M  V30 16865 H 1606.83 2.97765 -3.82706 0
M  V30 16866 N 1608.17 1.14759 1.0802 0
M  V30 16867 C 1609.1 0.860977 2.17047 0
M  V30 16868 C 1610.08 -0.185652 1.69084 0
M  V30 16869 O 1611.27 -0.0414797 1.94156 0
M  V30 16870 C 1608.4 0.342018 3.45612 0
M  V30 16871 C 1607.35 1.32455 4.06989 0
M  V30 16872 C 1606.68 0.664721 5.30552 0
M  V30 16873 C 1607.98 2.68819 4.4781 0
M  V30 16874 H 1609.67 1.77269 2.4128 0
M  V30 16875 H 1607.22 0.853757 1.15961 0
M  V30 16876 H 1609.17 0.129093 4.21202 0
M  V30 16877 H 1607.9 -0.605138 3.20945 0
M  V30 16878 H 1606.55 1.52371 3.33435 0
M  V30 16879 H 1606.2 -0.288367 5.02173 0
M  V30 16880 H 1605.9 1.32036 5.72573 0
M  V30 16881 H 1607.43 0.461412 6.08854 0
M  V30 16882 H 1608.84 2.52787 5.14559 0
M  V30 16883 H 1607.24 3.30694 5.00761 0
M  V30 16884 H 1608.31 3.25398 3.59506 0
M  V30 16885 N 1609.65 -1.26251 0.943322 0
M  V30 16886 C 1611.07 -1.45943 0.645966 0
M  V30 16887 C 1611.27 -1.84936 -0.800064 0
M  V30 16888 O 1610.32 -1.97238 -1.57649 0
M  V30 16889 C 1611.64 -2.54017 1.60922 0
M  V30 16890 C 1613.18 -2.67866 1.61916 0
M  V30 16891 C 1613.66 -3.79113 2.56977 0
M  V30 16892 N 1615.15 -3.86509 2.55275 0
M  V30 16893 C 1615.88 -4.72048 3.25513 0
M  V30 16894 N 1615.38 -5.61959 4.05184 0
M  V30 16895 N 1617.17 -4.65913 3.14454 0
M  V30 16896 H 1609.32 -0.992295 1.87796 0
M  V30 16897 H 1611.59 -0.497204 0.80715 0
M  V30 16898 H 1611.29 -2.32197 2.64155 0
M  V30 16899 H 1611.17 -3.51715 1.36294 0
M  V30 16900 H 1613.55 -2.89059 0.594067 0
M  V30 16901 H 1613.64 -1.70604 1.90598 0
M  V30 16902 H 1613.28 -3.58673 3.59605 0
M  V30 16903 H 1613.21 -4.75836 2.25583 0
M  V30 16904 H 1615.7 -3.22229 1.97425 0
M  V30 16905 H 1616.01 -6.24127 4.55725 0
M  V30 16906 H 1614.36 -5.61704 4.09285 0
M  V30 16907 H 1617.55 -3.94675 2.51693 0
M  V30 16908 H 1617.72 -5.32356 3.69461 0
M  V30 16909 N 1611.13 -0.710588 -1.40671 0
M  V30 16910 C 1612.06 -0.0154749 -2.29195 0
M  V30 16911 C 1613.07 0.728938 -1.45569 0
M  V30 16912 O 1614.26 0.577147 -1.68912 0
M  V30 16913 C 1611.36 1.00232 -3.23739 0
M  V30 16914 C 1610.54 0.324464 -4.36195 0
M  V30 16915 C 1609.6 1.24695 -5.11212 0
M  V30 16916 O 1608.62 0.733634 -5.64452 0
M  V30 16917 N 1609.82 2.57841 -5.20094 0
M  V30 16918 H 1612.59 -0.775543 -2.89492 0
M  V30 16919 H 1610.15 -0.557815 -1.51987 0
M  V30 16920 H 1612.14 1.62151 -3.70795 0
M  V30 16921 H 1610.71 1.66379 -2.64644 0
M  V30 16922 H 1609.93 -0.474847 -3.9133 0
M  V30 16923 H 1611.22 -0.146269 -5.0859 0
M  V30 16924 H 1610.62 3.02047 -4.78314 0
M  V30 16925 H 1609.17 3.14917 -5.70676 0
M  V30 16926 N 1612.61 1.50847 -0.456408 0
M  V30 16927 C 1613.54 2.31077 0.335523 0
M  V30 16928 C 1614.52 1.37326 1.00377 0
M  V30 16929 O 1615.7 1.66247 1.00376 0
M  V30 16930 C 1612.83 3.16662 1.42627 0
M  V30 16931 C 1611.79 4.18846 0.88045 0
M  V30 16932 C 1611.11 4.93074 2.06838 0
M  V30 16933 C 1612.41 5.22208 -0.0982288 0
M  V30 16934 H 1614.11 2.97531 -0.334056 0
M  V30 16935 H 1611.65 1.43085 -0.162099 0
M  V30 16936 H 1613.61 3.71578 1.98765 0
M  V30 16937 H 1612.33 2.48066 2.12441 0
M  V30 16938 H 1610.99 3.65009 0.341147 0
M  V30 16939 H 1610.64 4.20963 2.75316 0
M  V30 16940 H 1610.34 5.62184 1.70947 0
M  V30 16941 H 1611.86 5.5082 2.63494 0
M  V30 16942 H 1613.28 5.72082 0.373481 0
M  V30 16943 H 1611.67 5.98954 -0.370674 0
M  V30 16944 H 1612.74 4.73859 -1.02887 0
M  V30 16945 N 1614.09 0.188454 1.56469 0
M  V30 16946 C 1615.33 -0.454307 1.99287 0
M  V30 16947 C 1615.69 -1.59256 1.07245 0
M  V30 16948 O 1616.89 -2.29905 1.39273 0
M  V30 16949 C 1615.16 -0.908909 3.4565 0
M  V30 16950 S 1616.72 -1.55044 4.10496 0
M  V30 16951 H 1613.54 -0.145527 0.695948 0
M  V30 16952 H 1616.14 0.289956 1.93338 0
M  V30 16953 H 1614.84 -0.0703211 4.1034 0
M  V30 16954 H 1614.38 -1.6868 3.55402 0
M  V30 16955 H 1616.39 -2.83905 4.06955 0
M  V30 16956 N 1615.56 -1.5737 -0.0851874 0
M  V30 16957 C 1616.98 -1.53425 -0.439651 0
M  V30 16958 C 1617.18 -0.906663 -1.7995 0
M  V30 16959 O 1616.24 -0.503414 -2.47431 0
M  V30 16960 C 1617.55 -2.9812 -0.393028 0
M  V30 16961 C 1619.1 -3.09387 -0.474175 0
M  V30 16962 C 1619.57 -4.55708 -0.457598 0
M  V30 16963 N 1621.06 -4.60294 -0.518065 0
M  V30 16964 C 1621.8 -5.70971 -0.527237 0
M  V30 16965 N 1621.29 -6.91051 -0.492023 0
M  V30 16966 N 1623.09 -5.59174 -0.572792 0
M  V30 16967 H 1615.24 -1.96538 0.805399 0
M  V30 16968 H 1617.5 -0.899 0.300836 0
M  V30 16969 H 1617.21 -3.47542 0.539204 0
M  V30 16970 H 1617.08 -3.57324 -1.20829 0
M  V30 16971 H 1619.47 -2.59948 -1.39683 0
M  V30 16972 H 1619.55 -2.53119 0.369411 0
M  V30 16973 H 1619.19 -5.05802 0.46115 0
M  V30 16974 H 1619.12 -5.09826 -1.31853 0
M  V30 16975 H 1621.61 -3.73875 -0.550072 0
M  V30 16976 H 1621.93 -7.71164 -0.502578 0
M  V30 16977 H 1620.27 -6.93483 -0.458917 0
M  V30 16978 H 1623.46 -4.64266 -0.597901 0
M  V30 16979 H 1623.64 -6.45431 -0.576471 0
M  V30 16980 N 1617.04 0.356258 -1.53521 0
M  V30 16981 C 1618.46 0.698546 -1.43501 0
M  V30 16982 C 1618.66 1.92926 -0.581547 0
M  V30 16983 O 1617.71 2.5241 -0.0675947 0
M  V30 16984 C 1619.03 0.903047 -2.8682 0
M  V30 16985 C 1620.57 1.00247 -2.96512 0
M  V30 16986 C 1621.05 1.23938 -4.40912 0
M  V30 16987 N 1622.54 1.30687 -4.44382 0
M  V30 16988 C 1623.28 1.50745 -5.5323 0
M  V30 16989 N 1622.77 1.68058 -6.72107 0
M  V30 16990 N 1624.56 1.5319 -5.40823 0
M  V30 16991 H 1616.72 -0.453102 -2.07511 0
M  V30 16992 H 1618.98 -0.140708 -0.937499 0
M  V30 16993 H 1618.68 0.070416 -3.5163 0
M  V30 16994 H 1618.56 1.80847 -3.3102 0
M  V30 16995 H 1620.95 1.82564 -2.3185 0
M  V30 16996 H 1621.03 0.0742303 -2.55692 0
M  V30 16997 H 1620.67 0.421189 -5.06151 0
M  V30 16998 H 1620.6 2.18098 -4.79313 0
M  V30 16999 H 1623.09 1.18883 -3.58713 0
M  V30 17000 H 1623.4 1.82963 -7.50829 0
M  V30 17001 H 1621.75 1.65219 -6.75076 0
M  V30 17002 H 1624.94 1.39237 -4.46912 0
M  V30 17003 H 1625.11 1.6848 -6.25714 0
M  V30 17004 N 1618.52 1.45038 0.616577 0
M  V30 17005 C 1619.93 1.4316 1.19842 0
M  V30 17006 C 1620.28 0.154504 1.95591 0
M  V30 17007 O 1619.41 -0.744409 2.03193 0
M  V30 17008 C 1620 2.59354 2.17993 0
M  V30 17009 C 1618.56 2.60625 2.71573 0
M  V30 17010 C 1617.71 2.35243 1.4682 0
M  V30 17011 H 1620.66 1.53408 0.406402 0
M  V30 17012 H 1620.68 2.32939 3.00865 0
M  V30 17013 H 1620.19 3.52288 1.62833 0
M  V30 17014 H 1618.29 1.71672 3.30695 0
M  V30 17015 H 1618.41 3.59568 3.16619 0
M  V30 17016 H 1616.77 1.84622 1.75462 0
M  V30 17017 H 1617.55 3.3031 0.935414 0
M  V30 17018 N 1620 -0.858287 1.32179 0
M  V30 17019 C 1621.41 -1.14591 1.1109 0
M  V30 17020 C 1621.61 -2.01194 -0.110998 0
M  V30 17021 O 1620.67 -2.39593 -0.79695 0
M  V30 17022 C 1621.98 -1.82675 2.38852 0
M  V30 17023 C 1623.53 -1.95326 2.44574 0
M  V30 17024 C 1624.01 -2.66826 3.72247 0
M  V30 17025 N 1625.5 -2.74353 3.73208 0
M  V30 17026 C 1626.23 -3.30317 4.68698 0
M  V30 17027 N 1625.73 -3.87121 5.74552 0
M  V30 17028 N 1627.52 -3.28386 4.562 0
M  V30 17029 H 1619.67 -0.281471 2.10527 0
M  V30 17030 H 1621.93 -0.187326 0.929308 0
M  V30 17031 H 1621.64 -1.26495 3.28165 0
M  V30 17032 H 1621.51 -2.82862 2.49537 0
M  V30 17033 H 1623.9 -2.50668 1.55723 0
M  V30 17034 H 1623.98 -0.94147 2.37844 0
M  V30 17035 H 1623.63 -2.12149 4.61471 0
M  V30 17036 H 1623.56 -3.68437 3.76247 0
M  V30 17037 H 1626.05 -2.34051 2.96696 0
M  V30 17038 H 1626.36 -4.2797 6.43476 0
M  V30 17039 H 1624.71 -3.85463 5.78311 0
M  V30 17040 H 1627.9 -2.83254 3.72672 0
M  V30 17041 H 1628.07 -3.71701 5.30794 0
M  V30 17042 N 1621.48 -1.1533 -1.07409 0
M  V30 17043 C 1622.7 -0.952101 -1.84255 0
M  V30 17044 C 1623.13 0.494571 -1.81482 0
M  V30 17045 O 1622.48 1.35253 -1.20733 0
M  V30 17046 C 1622.53 -1.47019 -3.29268 0
M  V30 17047 O 1621.64 -0.669005 -4.06937 0
M  V30 17048 H 1620.98 -0.339643 -0.57056 0
M  V30 17049 H 1623.51 -1.53298 -1.35502 0
M  V30 17050 H 1623.52 -1.48278 -3.80102 0
M  V30 17051 H 1622.19 -2.5234 -3.30602 0
M  V30 17052 H 1620.77 -0.726003 -3.65764 0
M  V30 17053 N 1622.95 1.25748 -0.950004 0
M  V30 17054 C 1624.36 1.75253 -0.643694 0
M  V30 17055 C 1624.72 1.77261 0.841017 0
M  V30 17056 O 1623.84 1.39043 1.65819 0
M  V30 17057 C 1624.44 3.1826 -1.16173 0
M  V30 17058 C 1622.99 3.65342 -0.905672 0
M  V30 17059 C 1622.14 2.4454 -1.30749 0
M  V30 17060 H 1625.09 1.117 -1.12733 0
M  V30 17061 H 1625.11 3.76935 -0.519651 0
M  V30 17062 H 1624.63 3.16766 -2.24234 0
M  V30 17063 H 1622.73 3.72256 0.160174 0
M  V30 17064 H 1622.84 4.53713 -1.53888 0
M  V30 17065 H 1621.2 2.44138 -0.725876 0
M  V30 17066 H 1621.99 2.45741 -2.39721 0
M  V30 17067 N 1624.43 0.718038 1.40292 0
M  V30 17068 C 1625.36 0.0276294 2.29183 0
M  V30 17069 C 1626.38 -0.721208 1.45954 0
M  V30 17070 O 1627.57 -0.568181 1.69216 0
M  V30 17071 C 1624.67 -0.985139 3.24266 0
M  V30 17072 C 1623.84 -0.301327 4.36361 0
M  V30 17073 C 1622.9 -1.21982 5.11866 0
M  V30 17074 O 1621.92 -0.70369 5.64833 0
M  V30 17075 N 1623.13 -2.55079 5.21455 0
M  V30 17076 H 1625.89 0.790884 2.89076 0
M  V30 17077 H 1623.45 0.565867 1.51689 0
M  V30 17078 H 1625.44 -1.60183 3.7165 0
M  V30 17079 H 1624.01 -1.64973 2.65523 0
M  V30 17080 H 1623.23 0.495594 3.91072 0
M  V30 17081 H 1624.52 0.173238 5.08505 0
M  V30 17082 H 1623.92 -2.99506 4.79909 0
M  V30 17083 H 1622.48 -3.11886 5.72338 0
M  V30 17084 N 1625.91 -1.50602 0.464402 0
M  V30 17085 C 1627.32 -1.86698 0.00767586 0
M  V30 17086 C 1627.67 -1.37971 -1.39494 0
M  V30 17087 O 1626.8 -0.741843 -2.03287 0
M  V30 17088 C 1627.39 -3.38799 0.00715323 0
M  V30 17089 C 1625.95 -3.74331 -0.394077 0
M  V30 17090 C 1625.1 -2.74465 0.395495 0
M  V30 17091 H 1628.05 -1.43441 0.678996 0
M  V30 17092 H 1628.07 -3.7207 -0.796497 0
M  V30 17093 H 1627.58 -3.74234 1.02812 0
M  V30 17094 H 1625.68 -3.44495 -1.41964 0
M  V30 17095 H 1625.8 -4.78995 -0.10007 0
M  V30 17096 H 1624.16 -2.54258 -0.149903 0
M  V30 17097 H 1624.94 -3.12744 1.41585 0
M  V30 17098 N 1627.39 -0.19675 -1.56367 0
M  V30 17099 C 1628.61 0.450245 -2.02454 0
M  V30 17100 C 1629.04 1.54287 -1.07597 0
M  V30 17101 O 1628.4 1.81202 -0.0597529 0
M  V30 17102 C 1628.44 0.982087 -3.46969 0
M  V30 17103 O 1627.55 2.09489 -3.5523 0
M  V30 17104 H 1626.89 0.105022 -0.655642 0
M  V30 17105 H 1629.42 -0.308112 -2.02267 0
M  V30 17106 H 1629.43 1.29826 -3.86793 0
M  V30 17107 H 1628.1 0.18224 -4.15501 0
M  V30 17108 H 1626.68 1.78723 -3.27281 0
M  V30 17109 N 1628.87 1.57413 0.0768405 0
M  V30 17110 C 1630.09 1.91607 0.793833 0
M  V30 17111 C 1630.52 0.792708 1.70581 0
M  V30 17112 O 1629.87 -0.25475 1.79501 0
M  V30 17113 C 1629.92 3.24736 1.56776 0
M  V30 17114 O 1629.03 3.13613 2.67807 0
M  V30 17115 H 1628.37 0.627572 0.216908 0
M  V30 17116 H 1630.9 2.04547 0.0465957 0
M  V30 17117 H 1630.91 3.58488 1.94809 0
M  V30 17118 H 1629.58 4.06077 0.898588 0
M  V30 17119 H 1628.16 2.91411 2.32668 0
M  V30 17120 N 1630.34 -0.348112 1.53707 0
M  V30 17121 C 1631.76 -0.923978 1.62233 0
M  V30 17122 C 1632.11 -1.89702 0.500744 0
M  V30 17123 O 1631.23 -2.1321 -0.370212 0
M  V30 17124 C 1631.83 -1.68261 2.94064 0
M  V30 17125 C 1630.39 -2.20755 3.04867 0
M  V30 17126 C 1629.53 -1.02526 2.5765 0
M  V30 17127 H 1632.48 -0.126381 1.58196 0
M  V30 17128 H 1632.5 -2.54514 2.82848 0
M  V30 17129 H 1632.02 -0.974155 3.75675 0
M  V30 17130 H 1630.12 -2.9479 2.27881 0
M  V30 17131 H 1630.23 -2.47439 4.10257 0
M  V30 17132 H 1628.59 -1.39735 2.12947 0
M  V30 17133 H 1629.38 -0.331521 3.41696 0
M  V30 17134 N 1631.82 -1.45363 -0.608876 0
M  V30 17135 C 1632.79 -1.53551 -1.70161 0
M  V30 17136 C 1633.79 -0.415146 -1.55349 0
M  V30 17137 O 1634.98 -0.67858 -1.6044 0
M  V30 17138 C 1632.11 -1.43081 -3.0942 0
M  V30 17139 H 1633.3 -2.5091 -1.64268 0
M  V30 17140 H 1630.85 -1.32785 -0.824493 0
M  V30 17141 H 1631.59 -0.469016 -3.20891 0
M  V30 17142 H 1631.37 -2.24343 -3.21579 0
M  V30 17143 H 1632.86 -1.51841 -3.89017 0
M  V30 17144 N 1633.3 0.851265 -1.32632 0
M  V30 17145 C 1634.23 1.97562 -1.24465 0
M  V30 17146 C 1635.21 1.69619 -0.127777 0
M  V30 17147 O 1636.4 1.9162 -0.315509 0
M  V30 17148 C 1633.53 3.33467 -0.970423 0
M  V30 17149 C 1632.48 3.75772 -2.0489 0
M  V30 17150 C 1631.81 5.09345 -1.62702 0
M  V30 17151 C 1633.11 3.90876 -3.4643 0
M  V30 17152 H 1634.8 2.04653 -2.18535 0
M  V30 17153 H 1632.35 0.983252 -1.05205 0
M  V30 17154 H 1634.3 4.11681 -0.899825 0
M  V30 17155 H 1633.02 3.26599 0.00591373 0
M  V30 17156 H 1631.68 2.99812 -2.1097 0
M  V30 17157 H 1631.33 4.98937 -0.638039 0
M  V30 17158 H 1631.03 5.38621 -2.34864 0
M  V30 17159 H 1632.55 5.90048 -1.57085 0
M  V30 17160 H 1633.97 4.59434 -3.42919 0
M  V30 17161 H 1632.37 4.31574 -4.1697 0
M  V30 17162 H 1633.44 2.93689 -3.85843 0
M  V30 17163 N 1634.78 1.15898 1.06796 0
M  V30 17164 C 1635.69 0.87507 2.17669 0
M  V30 17165 C 1636.7 -0.150763 1.73346 0
M  V30 17166 O 1637.88 0.0246621 2.01385 0
M  V30 17167 C 1634.95 0.374555 3.44671 0
M  V30 17168 C 1634.01 1.46498 4.0353 0
M  V30 17169 C 1633.24 0.988256 5.2447 0
M  V30 17170 O 1633.46 -0.163992 5.70164 0
M  V30 17171 O 1632.4 1.7744 5.75151 0
M  V30 17172 H 1636.22 1.80208 2.44456 0
M  V30 17173 H 1633.81 0.93854 1.1624 0
M  V30 17174 H 1635.69 0.102161 4.21276 0
M  V30 17175 H 1634.36 -0.524513 3.19422 0
M  V30 17176 H 1633.27 1.79105 3.28439 0
M  V30 17177 H 1634.6 2.33917 4.33063 0
M  V30 17178 N 1636.26 -1.25243 0.956659 0
M  V30 17179 C 1637.21 -2.23532 0.449171 0
M  V30 17180 C 1638.19 -1.54103 -0.462715 0
M  V30 17181 O 1639.38 -1.74517 -0.295436 0
M  V30 17182 C 1636.51 -3.42237 -0.269892 0
M  V30 17183 C 1635.6 -4.1893 0.660181 0
M  V30 17184 N 1635.99 -4.72965 1.7927 0
M  V30 17185 C 1634.29 -4.4353 0.468779 0
M  V30 17186 C 1634.99 -5.31072 2.37355 0
M  V30 17187 N 1633.96 -5.17638 1.65986 0
M  V30 17188 H 1637.77 -2.62918 1.31345 0
M  V30 17189 H 1635.28 -1.40504 0.814394 0
M  V30 17190 H 1637.28 -4.11792 -0.650604 0
M  V30 17191 H 1635.94 -3.04375 -1.13075 0
M  V30 17192 H 1636.95 -4.70038 2.17451 0
M  V30 17193 H 1633.62 -4.16038 -0.349031 0
M  V30 17194 H 1635.01 -5.83654 3.32863 0
M  V30 17195 N 1637.73 -0.725468 -1.3991 0
M  V30 17196 C 1638.98 -0.269251 -2.00702 0
M  V30 17197 C 1639.31 1.1406 -1.57545 0
M  V30 17198 O 1638.56 1.78997 -0.79111 0
M  V30 17199 C 1638.86 -0.308261 -3.56068 0
M  V30 17200 C 1638.53 -1.66979 -4.18842 0
M  V30 17201 C 1637.19 -2.04247 -4.35702 0
M  V30 17202 C 1639.54 -2.56418 -4.53761 0
M  V30 17203 C 1636.87 -3.3048 -4.84768 0
M  V30 17204 C 1639.22 -3.82014 -5.0423 0
M  V30 17205 C 1637.89 -4.19386 -5.19299 0
M  V30 17206 H 1637.16 -0.0985258 -0.734421 0
M  V30 17207 H 1639.8 -0.930441 -1.67377 0
M  V30 17208 H 1638.11 0.436504 -3.89361 0
M  V30 17209 H 1639.81 0.0627207 -4.00951 0
M  V30 17210 H 1636.4 -1.37001 -4.06114 0
M  V30 17211 H 1640.58 -2.28898 -4.40363 0
M  V30 17212 H 1635.84 -3.59392 -4.94619 0
M  V30 17213 H 1640.01 -4.51481 -5.30225 0
M  V30 17214 H 1637.64 -5.17268 -5.5708 0
M  V30 17215 N 1639.21 1.50354 -0.472382 0
M  V30 17216 C 1640.63 1.59097 -0.126613 0
M  V30 17217 C 1640.83 1.4804 1.36698 0
M  V30 17218 O 1639.88 1.33956 2.14038 0
M  V30 17219 C 1641.2 2.92958 -0.677957 0
M  V30 17220 C 1642.75 3.06356 -0.6415 0
M  V30 17221 C 1643.22 4.42793 -1.17041 0
M  V30 17222 N 1644.71 4.49208 -1.12988 0
M  V30 17223 C 1645.45 5.53171 -1.50961 0
M  V30 17224 N 1644.94 6.64381 -1.96391 0
M  V30 17225 N 1646.74 5.43722 -1.42556 0
M  V30 17226 H 1638.89 1.55785 -1.44378 0
M  V30 17227 H 1641.15 0.736295 -0.597138 0
M  V30 17228 H 1640.86 3.06529 -1.72433 0
M  V30 17229 H 1640.73 3.77002 -0.122247 0
M  V30 17230 H 1643.12 2.92431 0.395964 0
M  V30 17231 H 1643.2 2.24066 -1.23403 0
M  V30 17232 H 1642.84 4.57466 -2.20651 0
M  V30 17233 H 1642.77 5.23677 -0.554086 0
M  V30 17234 H 1645.26 3.69407 -0.796692 0
M  V30 17235 H 1645.58 7.39772 -2.23511 0
M  V30 17236 H 1643.92 6.65498 -2.00344 0
M  V30 17237 H 1647.11 4.55729 -1.06905 0
M  V30 17238 H 1647.28 6.24625 -1.72476 0
M  V30 17239 N 1640.69 0.205039 1.56261 0
M  V30 17240 C 1641.94 -0.431735 1.98151 0
M  V30 17241 C 1642.27 -1.60579 1.09215 0
M  V30 17242 O 1641.55 -1.93949 0.146257 0
M  V30 17243 C 1641.83 -0.882278 3.49124 0
M  V30 17244 C 1641.68 0.294278 4.48836 0
M  V30 17245 C 1643 -1.7443 4.04057 0
M  V30 17246 H 1640.12 -0.155457 0.720418 0
M  V30 17247 H 1642.76 0.29796 1.87649 0
M  V30 17248 H 1640.91 -1.50404 3.58205 0
M  V30 17249 H 1642.58 0.932148 4.51784 0
M  V30 17250 H 1640.83 0.94444 4.23394 0
M  V30 17251 H 1641.5 -0.063639 5.51963 0
M  V30 17252 H 1643.97 -1.21983 3.97818 0
M  V30 17253 H 1642.85 -2.02848 5.10043 0
M  V30 17254 H 1643.11 -2.70195 3.49924 0
M  V30 17255 N 1642.17 -1.57451 -0.0684915 0
M  V30 17256 C 1643.4 -1.91362 -0.778724 0
M  V30 17257 C 1643.81 -0.799579 -1.71474 0
M  V30 17258 O 1643.15 0.235727 -1.82181 0
M  V30 17259 C 1643.21 -3.20767 -1.62323 0
M  V30 17260 C 1642.88 -4.48907 -0.85623 0
M  V30 17261 C 1643.87 -5.19609 -0.173992 0
M  V30 17262 C 1641.56 -4.95521 -0.822427 0
M  V30 17263 C 1643.55 -6.35178 0.531784 0
M  V30 17264 C 1641.24 -6.10996 -0.11288 0
M  V30 17265 C 1642.24 -6.80675 0.563022 0
M  V30 17266 O 1641.93 -7.93946 1.26113 0
M  V30 17267 H 1641.66 -0.636969 -0.226376 0
M  V30 17268 H 1644.21 -2.05357 -0.0420481 0
M  V30 17269 H 1642.44 -3.0299 -2.40279 0
M  V30 17270 H 1644.13 -3.40303 -2.21244 0
M  V30 17271 H 1644.9 -4.84622 -0.191393 0
M  V30 17272 H 1640.78 -4.41156 -1.33798 0
M  V30 17273 H 1644.32 -6.89501 1.05991 0
M  V30 17274 H 1640.22 -6.45432 -0.0934182 0
M  V30 17275 H 1640.98 -8.10084 1.17074 0
M  V30 17276 N 1643.65 0.339955 -1.5389 0
M  V30 17277 C 1644.58 1.42316 -1.85117 0
M  V30 17278 C 1645.56 1.5473 -0.706591 0
M  V30 17279 O 1646.74 1.68879 -0.958834 0
M  V30 17280 C 1643.87 2.79317 -2.06396 0
M  V30 17281 C 1642.83 2.81707 -3.22219 0
M  V30 17282 C 1642.15 4.21627 -3.28838 0
M  V30 17283 C 1643.45 2.46921 -4.60247 0
M  V30 17284 H 1645.15 1.16431 -2.75834 0
M  V30 17285 H 1642.69 0.558661 -1.32721 0
M  V30 17286 H 1644.65 3.55145 -2.26826 0
M  V30 17287 H 1643.37 3.06644 -1.12414 0
M  V30 17288 H 1642.03 2.08332 -3.01651 0
M  V30 17289 H 1641.68 4.4607 -2.32444 0
M  V30 17290 H 1641.38 4.24137 -4.06672 0
M  V30 17291 H 1642.9 4.99292 -3.51482 0
M  V30 17292 H 1644.32 3.12462 -4.80667 0
M  V30 17293 H 1642.71 2.60707 -5.40511 0
M  V30 17294 H 1643.78 1.421 -4.63611 0
M  V30 17295 N 1645.13 1.45684 0.601159 0
M  V30 17296 C 1646.35 1.53806 1.39135 0
M  V30 17297 C 1646.78 0.173625 1.87297 0
M  V30 17298 O 1646.13 -0.842931 1.60513 0
M  V30 17299 C 1646.18 2.53201 2.56752 0
M  V30 17300 O 1645.29 2.05427 3.57594 0
M  V30 17301 H 1644.63 0.51824 0.415118 0
M  V30 17302 H 1647.16 1.91095 0.731006 0
M  V30 17303 H 1647.17 2.72215 3.03912 0
M  V30 17304 H 1645.84 3.52294 2.21047 0
M  V30 17305 H 1644.42 1.96318 3.17039 0
M  V30 17306 N 1646.6 -0.84422 1.33082 0
M  V30 17307 C 1647.55 -1.95363 1.2289 0
M  V30 17308 C 1648.52 -1.65744 0.108705 0
M  V30 17309 O 1649.71 -1.88643 0.286057 0
M  V30 17310 C 1646.85 -3.31228 0.968594 0
M  V30 17311 C 1645.96 -3.73279 2.17455 0
M  V30 17312 C 1645.09 -4.97987 1.84885 0
M  V30 17313 C 1644.13 -5.32558 3.01743 0
M  V30 17314 N 1643.27 -6.48442 2.69197 0
M  V30 17315 H 1648.11 -2.03412 2.17778 0
M  V30 17316 H 1645.65 -0.995461 1.083 0
M  V30 17317 H 1647.6 -4.09494 0.798129 0
M  V30 17318 H 1646.23 -3.22751 0.0564631 0
M  V30 17319 H 1645.29 -2.9058 2.45494 0
M  V30 17320 H 1646.6 -3.94814 3.04834 0
M  V30 17321 H 1645.75 -5.83987 1.64451 0
M  V30 17322 H 1644.49 -4.7841 0.947356 0
M  V30 17323 H 1643.5 -4.45064 3.22797 0
M  V30 17324 H 1644.72 -5.54085 3.9264 0
M  V30 17325 H 1642.67 -6.30363 1.816 0
M  V30 17326 H 1642.58 -6.70046 3.50106 0
M  V30 17327 H 1643.85 -7.37568 2.52217 0
M  V30 17328 N 1648.08 -1.16463 -1.0618 0
M  V30 17329 C 1648.99 -0.886601 -2.17202 0
M  V30 17330 C 1650.01 0.141568 -1.73423 0
M  V30 17331 O 1651.18 -0.0353417 -2.01369 0
M  V30 17332 C 1648.25 -0.392829 -3.44467 0
M  V30 17333 C 1647.31 -1.48636 -4.02748 0
M  V30 17334 C 1646.54 -1.01606 -5.23939 0
M  V30 17335 O 1646.77 0.133753 -5.70243 0
M  V30 17336 O 1645.7 -1.80487 -5.74202 0
M  V30 17337 H 1649.53 -1.81502 -2.43497 0
M  V30 17338 H 1647.11 -0.944691 -1.15741 0
M  V30 17339 H 1648.99 -0.124501 -4.21216 0
M  V30 17340 H 1647.67 0.507566 -3.19696 0
M  V30 17341 H 1646.57 -1.80845 -3.27484 0
M  V30 17342 H 1647.91 -2.3621 -4.31817 0
M  V30 17343 N 1649.56 1.24734 -0.963288 0
M  V30 17344 C 1650.52 2.23795 -0.494824 0
M  V30 17345 C 1651.52 1.55584 0.406225 0
M  V30 17346 O 1652.71 1.73021 0.202302 0
M  V30 17347 C 1649.84 3.39715 0.283963 0
M  V30 17348 H 1651.04 2.66753 -1.37051 0
M  V30 17349 H 1648.59 1.37271 -0.747428 0
M  V30 17350 H 1649.33 3.0219 1.17693 0
M  V30 17351 H 1649.11 3.9042 -0.362586 0
M  V30 17352 H 1650.6 4.13254 0.600899 0
M  V30 17353 N 1651.04 0.732878 1.39523 0
M  V30 17354 C 1651.95 0.0930216 2.34416 0
M  V30 17355 C 1652.96 -0.724309 1.58208 0
M  V30 17356 O 1654.14 -0.653267 1.90511 0
M  V30 17357 C 1651.2 -0.805036 3.37224 0
M  V30 17358 C 1650.27 0.0243049 4.29293 0
M  V30 17359 C 1649.5 -0.830984 5.27191 0
M  V30 17360 O 1649.72 -2.06977 5.31523 0
M  V30 17361 O 1648.66 -0.260772 6.01335 0
M  V30 17362 H 1652.48 0.876179 2.90786 0
M  V30 17363 H 1650.07 0.493525 1.41013 0
M  V30 17364 H 1651.95 -1.31894 4.00228 0
M  V30 17365 H 1650.62 -1.56704 2.83241 0
M  V30 17366 H 1649.53 0.583677 3.69519 0
M  V30 17367 H 1650.86 0.748485 4.86476 0
M  V30 17368 N 1652.52 -1.50101 0.480349 0
M  V30 17369 C 1653.93 -1.59028 0.135048 0
M  V30 17370 C 1654.13 -1.48763 -1.35911 0
M  V30 17371 O 1653.19 -1.35089 -2.13324 0
M  V30 17372 C 1654.5 -2.92594 0.693483 0
M  V30 17373 C 1656.05 -3.06011 0.657737 0
M  V30 17374 C 1656.52 -4.42166 1.19388 0
M  V30 17375 N 1658.01 -4.48603 1.15368 0
M  V30 17376 C 1658.75 -5.52363 1.53893 0
M  V30 17377 N 1658.25 -6.6333 1.99911 0
M  V30 17378 N 1660.04 -5.42959 1.45438 0
M  V30 17379 H 1652.19 -1.55017 1.45202 0
M  V30 17380 H 1654.45 -0.733118 0.601034 0
M  V30 17381 H 1654.16 -3.0561 1.74056 0
M  V30 17382 H 1654.03 -3.76932 0.142238 0
M  V30 17383 H 1656.42 -2.92637 -0.38045 0
M  V30 17384 H 1656.5 -2.23408 1.24589 0
M  V30 17385 H 1656.14 -4.5629 2.23074 0
M  V30 17386 H 1656.07 -5.23376 0.58185 0
M  V30 17387 H 1658.57 -3.68979 0.816271 0
M  V30 17388 H 1658.88 -7.38576 2.27431 0
M  V30 17389 H 1657.22 -6.64426 2.03871 0
M  V30 17390 H 1660.41 -4.55156 1.09321 0
M  V30 17391 H 1660.59 -6.23701 1.75786 0
M  V30 17392 N 1653.99 -0.213323 -1.5615 0
M  V30 17393 C 1654.94 0.700175 -2.19923 0
M  V30 17394 C 1655.91 1.19641 -1.15218 0
M  V30 17395 O 1657.1 1.257 -1.43542 0
M  V30 17396 C 1654.24 1.90629 -2.87671 0
M  V30 17397 C 1653.35 1.44973 -4.06948 0
M  V30 17398 C 1652.48 2.61277 -4.62502 0
M  V30 17399 C 1651.52 2.12316 -5.74098 0
M  V30 17400 N 1650.66 3.21862 -6.23978 0
M  V30 17401 H 1655.5 0.14961 -2.97624 0
M  V30 17402 H 1653.04 0.0620957 -1.46969 0
M  V30 17403 H 1654.99 2.61431 -3.2513 0
M  V30 17404 H 1653.62 2.42987 -2.12502 0
M  V30 17405 H 1652.68 0.636917 -3.7503 0
M  V30 17406 H 1653.99 1.05065 -4.87609 0
M  V30 17407 H 1653.14 3.40174 -5.02361 0
M  V30 17408 H 1651.88 3.04468 -3.80987 0
M  V30 17409 H 1650.89 1.31877 -5.33749 0
M  V30 17410 H 1652.11 1.70134 -6.57443 0
M  V30 17411 H 1650.06 3.64551 -5.45379 0
M  V30 17412 H 1649.97 2.86181 -6.9974 0
M  V30 17413 H 1651.24 4.0092 -6.68493 0
M  V30 17414 N 1655.47 1.57485 0.0601405 0
M  V30 17415 C 1656.4 2.07525 1.07031 0
M  V30 17416 C 1657.38 0.971136 1.39653 0
M  V30 17417 O 1658.57 1.24456 1.49078 0
M  V30 17418 C 1655.7 2.52888 2.38044 0
M  V30 17419 C 1654.65 3.67282 2.19745 0
M  V30 17420 C 1653.98 3.98741 3.56244 0
M  V30 17421 C 1655.28 4.96896 1.60908 0
M  V30 17422 H 1656.97 2.92173 0.653875 0
M  V30 17423 H 1654.52 1.40555 0.313083 0
M  V30 17424 H 1656.47 2.8651 3.09014 0
M  V30 17425 H 1655.2 1.65284 2.81689 0
M  V30 17426 H 1653.85 3.33961 1.51213 0
M  V30 17427 H 1653.5 3.08249 3.97481 0
M  V30 17428 H 1653.2 4.75775 3.44836 0
M  V30 17429 H 1654.73 4.34869 4.28627 0
M  V30 17430 H 1656.14 5.28674 2.21758 0
M  V30 17431 H 1654.54 5.78332 1.60164 0
M  V30 17432 H 1655.61 4.81518 0.571671 0
M  V30 17433 N 1656.95 -0.331789 1.54068 0
M  V30 17434 C 1657.88 -1.41332 1.8587 0
M  V30 17435 C 1658.86 -1.54353 0.714787 0
M  V30 17436 O 1660.05 -1.68368 0.967777 0
M  V30 17437 C 1657.18 -2.78218 2.07875 0
M  V30 17438 C 1656.13 -2.79994 3.23709 0
M  V30 17439 C 1655.46 -4.19878 3.31069 0
M  V30 17440 C 1656.76 -2.44476 4.6155 0
M  V30 17441 H 1658.45 -1.14966 2.76447 0
M  V30 17442 H 1656 -0.551615 1.33016 0
M  V30 17443 H 1657.95 -3.53937 2.28706 0
M  V30 17444 H 1656.67 -3.06044 1.14038 0
M  V30 17445 H 1655.33 -2.0673 3.02751 0
M  V30 17446 H 1654.98 -4.44831 2.34807 0
M  V30 17447 H 1654.68 -4.21974 4.08915 0
M  V30 17448 H 1656.2 -4.97421 3.54125 0
M  V30 17449 H 1657.62 -3.09908 4.82317 0
M  V30 17450 H 1656.02 -2.57837 5.41886 0
M  V30 17451 H 1657.09 -1.3964 4.64358 0
M  V30 17452 N 1658.43 -1.46001 -0.593424 0
M  V30 17453 C 1659.66 -1.54307 -1.3783 0
M  V30 17454 C 1660.07 -0.18048 -1.87935 0
M  V30 17455 O 1659.43 0.820427 -1.63019 0
M  V30 17456 C 1659.48 -2.53911 -2.57316 0
M  V30 17457 O 1659.2 -3.84876 -2.09289 0
M  V30 17458 C 1660.7 -2.72054 -3.50002 0
M  V30 17459 H 1657.92 -0.522149 -0.421428 0
M  V30 17460 H 1660.47 -1.91315 -0.722423 0
M  V30 17461 H 1658.62 -2.19937 -3.18915 0
M  V30 17462 H 1659.03 -4.38996 -2.87025 0
M  V30 17463 H 1660.51 -3.45692 -4.3035 0
M  V30 17464 H 1660.99 -1.78583 -4.01254 0
M  V30 17465 H 1661.59 -3.07082 -2.94246 0
M  V30 17466 N 1659.91 0.83715 -1.33527 0
M  V30 17467 C 1661.15 1.59455 -1.26276 0
M  V30 17468 C 1661.51 1.91652 0.169485 0
M  V30 17469 O 1660.8 1.56028 1.11202 0
M  V30 17470 C 1660.99 2.9113 -2.07312 0
M  V30 17471 C 1660.82 2.71794 -3.58271 0
M  V30 17472 C 1659.59 2.69264 -4.2758 0
M  V30 17473 C 1661.79 2.44309 -4.52568 0
M  V30 17474 N 1659.77 2.41324 -5.64478 0
M  V30 17475 C 1661.14 2.25935 -5.77368 0
M  V30 17476 C 1663.2 2.2992 -4.41635 0
M  V30 17477 C 1661.9 1.94632 -6.92467 0
M  V30 17478 C 1663.93 2.0001 -5.56552 0
M  V30 17479 C 1663.29 1.82449 -6.80361 0
M  V30 17480 H 1659.39 0.586468 -0.517281 0
M  V30 17481 H 1661.97 0.982594 -1.68087 0
M  V30 17482 H 1660.14 3.50273 -1.67819 0
M  V30 17483 H 1661.88 3.56355 -1.91816 0
M  V30 17484 H 1658.63 2.82832 -3.79872 0
M  V30 17485 H 1659.06 2.30233 -6.36649 0
M  V30 17486 H 1663.7 2.42209 -3.46547 0
M  V30 17487 H 1661.42 1.8108 -7.8755 0
M  V30 17488 H 1665 1.89629 -5.50029 0
M  V30 17489 H 1663.88 1.59638 -7.6778 0
M  V30 17490 N 1661.38 1.17024 1.05561 0
M  V30 17491 C 1662.29 0.898107 2.16728 0
M  V30 17492 C 1663.31 -0.132369 1.73496 0
M  V30 17493 O 1664.49 0.0460203 2.01347 0
M  V30 17494 C 1661.55 0.411091 3.44254 0
M  V30 17495 C 1660.61 1.5077 4.01954 0
M  V30 17496 C 1659.85 1.04383 5.23393 0
M  V30 17497 O 1660.07 -0.10351 5.70306 0
M  V30 17498 O 1659 1.8353 5.73237 0
M  V30 17499 H 1662.83 1.82791 2.42531 0
M  V30 17500 H 1660.41 0.950816 1.15238 0
M  V30 17501 H 1662.3 0.146837 4.21144 0
M  V30 17502 H 1660.97 -0.490605 3.19961 0
M  V30 17503 H 1659.88 1.82579 3.26521 0
M  V30 17504 H 1661.21 2.38497 4.30558 0
M  V30 17505 N 1662.86 -1.24221 0.969889 0
M  V30 17506 C 1664.09 -1.96943 0.650262 0
M  V30 17507 C 1664.51 -1.71437 -0.774018 0
M  V30 17508 O 1663.87 -0.979428 -1.52568 0
M  V30 17509 C 1663.92 -3.48303 0.933682 0
M  V30 17510 O 1663.02 -4.12395 0.0202425 0
M  V30 17511 H 1662.36 -0.616902 0.245618 0
M  V30 17512 H 1664.89 -1.57939 1.30063 0
M  V30 17513 H 1664.9 -3.98701 0.866106 0
M  V30 17514 H 1663.58 -3.66194 1.97166 0
M  V30 17515 H 1662.16 -3.72632 0.141327 0
M  V30 17516 N 1664.34 -0.740267 -1.39132 0
M  V30 17517 C 1665.59 -0.290953 -2.00702 0
M  V30 17518 C 1665.92 1.12051 -1.58613 0
M  V30 17519 O 1665.19 1.76488 -0.817457 0
M  V30 17520 C 1665.48 -0.398765 -3.57885 0
M  V30 17521 C 1665.33 -1.85038 -4.09977 0
M  V30 17522 C 1666.65 0.215717 -4.39571 0
M  V30 17523 H 1663.77 -0.107194 -0.729163 0
M  V30 17524 H 1666.41 -0.937411 -1.65265 0
M  V30 17525 H 1664.56 0.151613 -3.88204 0
M  V30 17526 H 1666.23 -2.45804 -3.90357 0
M  V30 17527 H 1664.48 -2.36994 -3.63341 0
M  V30 17528 H 1665.15 -1.87705 -5.19106 0
M  V30 17529 H 1667.62 -0.253518 -4.15327 0
M  V30 17530 H 1666.5 0.109966 -5.4879 0
M  V30 17531 H 1666.76 1.30242 -4.2248 0
M  V30 17532 N 1665.82 1.49844 -0.488302 0
M  V30 17533 C 1666.77 2.25802 0.315853 0
M  V30 17534 C 1667.75 1.30108 0.946606 0
M  V30 17535 O 1668.94 1.54908 0.856306 0
M  V30 17536 C 1666.07 3.14024 1.38723 0
M  V30 17537 C 1665.16 4.17174 0.763348 0
M  V30 17538 N 1665.55 5.05642 -0.126544 0
M  V30 17539 C 1663.85 4.34053 1.02537 0
M  V30 17540 C 1664.55 5.79696 -0.482379 0
M  V30 17541 N 1663.53 5.43402 0.146639 0
M  V30 17542 H 1667.33 2.91569 -0.369397 0
M  V30 17543 H 1664.84 1.59538 -0.30355 0
M  V30 17544 H 1666.84 3.67061 1.97666 0
M  V30 17545 H 1665.5 2.49807 2.07429 0
M  V30 17546 H 1666.51 5.15514 -0.49653 0
M  V30 17547 H 1663.19 3.81048 1.70613 0
M  V30 17548 H 1664.58 6.60921 -1.20965 0
M  V30 17549 N 1667.3 0.221601 1.56034 0
M  V30 17550 C 1668.24 -0.688502 2.20291 0
M  V30 17551 C 1669.21 -1.19028 1.15851 0
M  V30 17552 O 1670.4 -1.24936 1.44206 0
M  V30 17553 C 1667.54 -1.89101 2.88678 0
M  V30 17554 C 1666.65 -1.42812 4.07711 0
M  V30 17555 C 1665.79 -2.5882 4.63881 0
M  V30 17556 C 1664.83 -2.09268 5.75216 0
M  V30 17557 N 1663.96 -3.18549 6.25676 0
M  V30 17558 H 1668.8 -0.133824 2.97699 0
M  V30 17559 H 1666.34 -0.0543007 1.47 0
M  V30 17560 H 1668.3 -2.59704 3.26512 0
M  V30 17561 H 1666.93 -2.41857 2.13788 0
M  V30 17562 H 1665.98 -0.617019 3.75363 0
M  V30 17563 H 1667.29 -1.02478 4.8816 0
M  V30 17564 H 1666.45 -3.37505 5.04158 0
M  V30 17565 H 1665.18 -3.02443 3.82596 0
M  V30 17566 H 1664.19 -1.29045 5.34441 0
M  V30 17567 H 1665.41 -1.66645 6.58336 0
M  V30 17568 H 1663.36 -3.61653 5.47305 0
M  V30 17569 H 1663.28 -2.82466 7.01248 0
M  V30 17570 H 1664.55 -3.97369 6.7061 0
M  V30 17571 N 1668.77 -1.57515 -0.0517878 0
M  V30 17572 C 1669.68 -2.08427 -1.07681 0
M  V30 17573 C 1670.7 -1.01797 -1.41115 0
M  V30 17574 O 1671.88 -1.33394 -1.50891 0
M  V30 17575 C 1668.94 -2.53472 -2.36544 0
M  V30 17576 C 1668 -3.74488 -2.09899 0
M  V30 17577 C 1667.24 -4.17374 -3.32618 0
M  V30 17578 O 1667.46 -3.59962 -4.42475 0
M  V30 17579 O 1666.39 -5.10006 -3.19653 0
M  V30 17580 H 1670.22 -2.96122 -0.674217 0
M  V30 17581 H 1667.8 -1.4699 -0.267274 0
M  V30 17582 H 1669.69 -2.82876 -3.12345 0
M  V30 17583 H 1668.36 -1.68899 -2.76143 0
M  V30 17584 H 1667.27 -3.50137 -1.31739 0
M  V30 17585 H 1668.6 -4.59975 -1.75169 0
M  V30 17586 N 1670.25 0.323614 -1.54242 0
M  V30 17587 C 1671.2 1.4184 -1.84348 0
M  V30 17588 C 1672.2 1.53553 -0.715384 0
M  V30 17589 O 1673.4 1.5594 -0.899045 0
M  V30 17590 H 1669.78 0.473326 -0.584352 0
M  V30 17591 H 1671.75 1.13672 -2.75901 0
M  V30 17592 C 1670.5 2.78059 -2.08755 0
M  V30 17593 H 1669.82 2.69819 -2.95021 0
M  V30 17594 H 1671.26 3.53731 -2.33774 0
M  V30 17595 C 1669.72 3.25229 -0.879076 0
M  V30 17596 O 1670.25 4.01603 -0.0883125 0
M  V30 17597 N 1668.45 2.82272 -0.690726 0
M  V30 17598 H 1668 2.20283 -1.33542 0
M  V30 17599 H 1667.96 3.14185 0.116344 0
M  V30 17600 N 1671.73 1.46313 0.585673 0
M  V30 17601 C 1672.98 1.5147 1.34399 0
M  V30 17602 C 1673.31 0.165209 1.93797 0
M  V30 17603 O 1672.56 -0.838796 1.76813 0
M  V30 17604 C 1672.86 2.55895 2.49504 0
M  V30 17605 C 1672.53 3.99997 2.08118 0
M  V30 17606 C 1671.19 4.3923 1.96545 0
M  V30 17607 C 1673.54 4.90532 1.76147 0
M  V30 17608 C 1670.87 5.66867 1.51256 0
M  V30 17609 C 1673.22 6.18603 1.32338 0
M  V30 17610 C 1671.88 6.56745 1.1934 0
M  V30 17611 H 1671.15 0.554268 0.491801 0
M  V30 17612 H 1673.8 1.79774 0.659803 0
M  V30 17613 H 1672.11 2.21241 3.23357 0
M  V30 17614 H 1673.8 2.57116 3.07722 0
M  V30 17615 H 1670.39 3.68983 2.18058 0
M  V30 17616 H 1674.58 4.60942 1.83974 0
M  V30 17617 H 1669.83 5.95194 1.39834 0
M  V30 17618 H 1674.01 6.88185 1.06653 0
M  V30 17619 H 1671.63 7.55542 0.840228 0
M  V30 17620 N 1673.21 -0.830057 1.33969 0
M  V30 17621 C 1674.14 -1.95557 1.27592 0
M  V30 17622 C 1675.12 -1.69395 0.154745 0
M  V30 17623 O 1676.31 -1.91094 0.345954 0
M  V30 17624 C 1673.44 -3.31881 1.02335 0
M  V30 17625 C 1672.39 -3.72464 2.10842 0
M  V30 17626 C 1671.72 -5.06692 1.70785 0
M  V30 17627 C 1673.02 -3.85315 3.52604 0
M  V30 17628 H 1674.71 -2.0115 2.21763 0
M  V30 17629 H 1672.26 -0.96639 1.06756 0
M  V30 17630 H 1674.21 -4.10197 0.965206 0
M  V30 17631 H 1672.93 -3.26568 0.0460462 0
M  V30 17632 H 1671.59 -2.96417 2.15714 0
M  V30 17633 H 1671.24 -4.97859 0.717334 0
M  V30 17634 H 1670.94 -5.34817 2.43403 0
M  V30 17635 H 1672.46 -5.87474 1.66452 0
M  V30 17636 H 1673.88 -4.5392 3.50185 0
M  V30 17637 H 1672.27 -4.24886 4.23783 0
M  V30 17638 H 1673.34 -2.87514 3.90466 0
M  V30 17639 N 1674.69 -1.17582 -1.04939 0
M  V30 17640 C 1675.62 -0.918221 -2.14688 0
M  V30 17641 C 1676.6 0.140757 -1.69517 0
M  V30 17642 O 1677.78 -0.0100118 -1.94197 0
M  V30 17643 C 1674.91 -0.433531 -3.44584 0
M  V30 17644 C 1673.87 -1.43199 -4.03334 0
M  V30 17645 C 1673.19 -0.805154 -5.28603 0
M  V30 17646 C 1674.49 -2.80598 -4.40525 0
M  V30 17647 H 1676.19 -1.83604 -2.36495 0
M  V30 17648 H 1673.73 -0.884202 -1.13657 0
M  V30 17649 H 1675.69 -0.240722 -4.20712 0
M  V30 17650 H 1674.41 0.519832 -3.22437 0
M  V30 17651 H 1673.07 -1.61158 -3.29277 0
M  V30 17652 H 1672.72 0.155124 -5.02761 0
M  V30 17653 H 1672.42 -1.4717 -5.68871 0
M  V30 17654 H 1673.94 -0.622677 -6.07417 0
M  V30 17655 H 1675.36 -2.66341 -5.07676 0
M  V30 17656 H 1673.75 -3.43854 -4.91817 0
M  V30 17657 H 1674.82 -3.34815 -3.50752 0
M  V30 17658 N 1676.17 1.23705 -0.976463 0
M  V30 17659 C 1677.13 2.23257 -0.518533 0
M  V30 17660 C 1678.13 1.56006 0.3897 0
M  V30 17661 O 1679.32 1.73226 0.18394 0
M  V30 17662 C 1676.45 3.39997 0.247916 0
M  V30 17663 H 1677.64 2.65284 -1.39872 0
M  V30 17664 H 1675.2 1.3647 -0.761946 0
M  V30 17665 H 1675.93 3.03421 1.14482 0
M  V30 17666 H 1675.72 3.90013 -0.403975 0
M  V30 17667 H 1677.21 4.13868 0.557034 0
M  V30 17668 N 1677.64 0.747635 1.38738 0
M  V30 17669 C 1679.06 0.424577 1.53849 0
M  V30 17670 C 1679.26 -1.06304 1.71177 0
M  V30 17671 O 1678.32 -1.84912 1.71941 0
M  V30 17672 C 1679.63 1.21863 2.749 0
M  V30 17673 C 1681.18 1.20811 2.88745 0
M  V30 17674 C 1681.65 1.985 4.12749 0
M  V30 17675 N 1683.14 1.9573 4.19814 0
M  V30 17676 C 1683.88 2.52641 5.14743 0
M  V30 17677 N 1683.37 3.18241 6.15382 0
M  V30 17678 N 1685.17 2.42604 5.0705 0
M  V30 17679 H 1677.32 1.71182 1.25739 0
M  V30 17680 H 1679.58 0.725358 0.610376 0
M  V30 17681 H 1679.29 2.27181 2.6848 0
M  V30 17682 H 1679.16 0.831509 3.67921 0
M  V30 17683 H 1681.55 0.163013 2.94649 0
M  V30 17684 H 1681.63 1.6347 1.96752 0
M  V30 17685 H 1681.27 3.03017 4.07606 0
M  V30 17686 H 1681.2 1.53239 5.03811 0
M  V30 17687 H 1683.69 1.4795 3.47734 0
M  V30 17688 H 1684.01 3.59101 6.843 0
M  V30 17689 H 1682.35 3.22334 6.15732 0
M  V30 17690 H 1685.54 1.90987 4.27366 0
M  V30 17691 H 1685.72 2.87253 5.80852 0
M  V30 17692 N 1679.12 -1.49583 0.496242 0
M  V30 17693 C 1680.08 -2.27561 -0.273642 0
M  V30 17694 C 1681.08 -1.33375 -0.8982 0
M  V30 17695 O 1682.27 -1.56578 -0.76347 0
M  V30 17696 C 1679.41 -3.11178 -1.39216 0
M  V30 17697 H 1680.6 -2.97077 0.410543 0
M  V30 17698 H 1678.15 -1.54271 0.251058 0
M  V30 17699 H 1678.89 -2.46217 -2.11064 0
M  V30 17700 H 1678.67 -3.80422 -0.949829 0
M  V30 17701 H 1680.16 -3.70085 -1.93459 0
M  V30 17702 N 1680.6 -0.229873 -1.55915 0
M  V30 17703 C 1682.02 0.125347 -1.59107 0
M  V30 17704 C 1682.22 1.58293 -1.24682 0
M  V30 17705 O 1681.27 2.32452 -0.986018 0
M  V30 17706 C 1682.58 -0.208461 -2.99977 0
M  V30 17707 C 1684.13 -0.151373 -3.12634 0
M  V30 17708 C 1684.61 -0.458972 -4.55694 0
M  V30 17709 N 1686.1 -0.408847 -4.61392 0
M  V30 17710 C 1686.83 -0.620239 -5.70036 0
M  V30 17711 N 1686.33 -0.893851 -6.8701 0
M  V30 17712 N 1688.12 -0.552107 -5.59382 0
M  V30 17713 H 1680.27 -1.18062 -1.76565 0
M  V30 17714 H 1682.54 -0.473821 -0.821095 0
M  V30 17715 H 1682.24 -1.22043 -3.29846 0
M  V30 17716 H 1682.12 0.472591 -3.74228 0
M  V30 17717 H 1684.5 0.851249 -2.82556 0
M  V30 17718 H 1684.58 -0.866024 -2.40694 0
M  V30 17719 H 1684.23 -1.45907 -4.86491 0
M  V30 17720 H 1684.16 0.276965 -5.25871 0
M  V30 17721 H 1686.65 -0.205404 -3.77341 0
M  V30 17722 H 1686.96 -1.04303 -7.65729 0
M  V30 17723 H 1685.31 -0.931138 -6.88734 0
M  V30 17724 H 1688.5 -0.338518 -4.66874 0
M  V30 17725 H 1688.67 -0.720256 -6.43985 0
M  V30 17726 N 1682.08 1.5754 0.0434337 0
M  V30 17727 C 1683.35 1.79733 0.771713 0
M  V30 17728 C 1683.73 0.82446 1.94334 0
M  V30 17729 O 1683.08 -0.136485 2.28092 0
M  V30 17730 C 1683.29 3.27049 1.2182 0
M  V30 17731 C 1684.64 3.91648 1.64002 0
M  V30 17732 O 1685.66 3.31111 1.31315 0
M  V30 17733 O 1684.52 4.98206 2.24618 0
M  V30 17734 H 1681.62 0.73861 0.372001 0
M  V30 17735 H 1684.16 1.69687 0.0213187 0
M  V30 17736 H 1682.94 3.89439 0.381158 0
M  V30 17737 H 1682.56 3.41929 2.02905 0
M  V30 17738 N 1683.56 -0.31543 1.54411 0
M  V30 17739 C 1684.5 -1.3885 1.84362 0
M  V30 17740 C 1685.47 -1.51028 0.69135 0
M  V30 17741 O 1686.66 -1.66119 0.938577 0
M  V30 17742 C 1683.8 -2.75085 2.0838 0
M  V30 17743 C 1682.91 -2.71473 3.36045 0
M  V30 17744 C 1682.05 -3.99608 3.49981 0
M  V30 17745 C 1681.08 -3.90335 4.71492 0
M  V30 17746 N 1680.22 -5.10216 4.82311 0
M  V30 17747 H 1685.06 -1.12609 2.75905 0
M  V30 17748 H 1682.6 -0.54495 1.36633 0
M  V30 17749 H 1684.56 -3.54295 2.20298 0
M  V30 17750 H 1683.19 -2.99618 1.2012 0
M  V30 17751 H 1682.24 -1.84209 3.32823 0
M  V30 17752 H 1683.55 -2.60507 4.25368 0
M  V30 17753 H 1682.7 -4.8725 3.61486 0
M  V30 17754 H 1681.44 -4.1339 2.58766 0
M  V30 17755 H 1680.45 -3.01077 4.60036 0
M  V30 17756 H 1681.67 -3.78111 5.641 0
M  V30 17757 H 1679.62 -5.24489 3.94014 0
M  V30 17758 H 1679.54 -5.01617 5.65612 0
M  V30 17759 H 1680.8 -5.99551 4.98156 0
M  V30 17760 N 1685.03 -1.46622 -0.577906 0
M  V30 17761 C 1686.45 -1.31683 -0.901762 0
M  V30 17762 C 1686.65 -0.291842 -1.99375 0
M  V30 17763 O 1685.71 0.303913 -2.50664 0
M  V30 17764 C 1687.02 -2.70443 -1.31457 0
M  V30 17765 C 1688.57 -2.7857 -1.42715 0
M  V30 17766 C 1689.04 -4.17923 -1.87361 0
M  V30 17767 N 1690.53 -4.20364 -1.94546 0
M  V30 17768 C 1691.27 -5.25085 -2.30376 0
M  V30 17769 N 1690.76 -6.4013 -2.64964 0
M  V30 17770 N 1692.56 -5.12453 -2.30972 0
M  V30 17771 H 1684.71 -2.11916 0.143367 0
M  V30 17772 H 1686.97 -0.947999 0.00146914 0
M  V30 17773 H 1686.68 -3.46781 -0.586174 0
M  V30 17774 H 1686.55 -3.00864 -2.2751 0
M  V30 17775 H 1688.94 -2.02518 -2.14641 0
M  V30 17776 H 1689.02 -2.51828 -0.449021 0
M  V30 17777 H 1688.66 -4.94473 -1.16012 0
M  V30 17778 H 1688.59 -4.42076 -2.8614 0
M  V30 17779 H 1691.08 -3.37359 -1.70286 0
M  V30 17780 H 1691.4 -7.15808 -2.91271 0
M  V30 17781 H 1689.74 -6.43483 -2.62591 0
M  V30 17782 H 1692.93 -4.21611 -2.03376 0
M  V30 17783 H 1693.11 -5.94178 -2.58566 0
M  V30 17784 N 1686.51 0.822941 -1.34408 0
M  V30 17785 C 1687.42 1.96567 -1.28056 0
M  V30 17786 C 1688.44 1.72979 -0.188251 0
M  V30 17787 O 1689.61 1.97084 -0.41472 0
M  V30 17788 C 1686.68 3.30865 -1.03583 0
M  V30 17789 C 1685.74 3.67461 -2.2197 0
M  V30 17790 C 1684.97 4.9535 -1.98655 0
M  V30 17791 O 1685.2 5.62521 -0.944785 0
M  V30 17792 O 1684.13 5.29824 -2.85605 0
M  V30 17793 H 1687.96 2.0487 -2.24192 0
M  V30 17794 H 1685.54 0.958334 -1.14614 0
M  V30 17795 H 1687.42 4.11298 -0.917162 0
M  V30 17796 H 1686.1 3.2353 -0.104868 0
M  V30 17797 H 1685.01 2.87472 -2.39396 0
M  V30 17798 H 1686.34 3.79481 -3.13456 0
M  V30 17799 N 1687.99 1.18137 1.04314 0
M  V30 17800 C 1689.22 1.00062 1.81666 0
M  V30 17801 C 1689.64 -0.446281 1.82729 0
M  V30 17802 O 1689 -1.32004 1.24277 0
M  V30 17803 C 1689.05 1.55698 3.25255 0
M  V30 17804 O 1688.15 0.776662 4.05021 0
M  V30 17805 H 1687.49 0.354651 0.561354 0
M  V30 17806 H 1690.02 1.56837 1.3139 0
M  V30 17807 H 1690.03 1.58303 3.76037 0
M  V30 17808 H 1688.71 2.61016 3.23795 0
M  V30 17809 H 1687.28 0.822723 3.63711 0
M  V30 17810 N 1689.47 -1.23186 0.98301 0
M  V30 17811 C 1690.75 -1.87121 0.569651 0
M  V30 17812 C 1691.13 -1.88355 -0.95319 0
M  V30 17813 O 1690.47 -1.36699 -1.831 0
M  V30 17814 C 1690.68 -3.28493 1.17871 0
M  V30 17815 C 1692.03 -4.05065 1.27308 0
M  V30 17816 O 1693.06 -3.37722 1.13236 0
M  V30 17817 O 1691.91 -5.2559 1.49723 0
M  V30 17818 H 1689.01 -0.804363 0.192171 0
M  V30 17819 H 1691.55 -1.31041 1.07826 0
M  V30 17820 H 1690.33 -3.22175 2.22078 0
M  V30 17821 H 1689.95 -3.92166 0.655087 0
M  V30 17822 N 1690.95 -0.754982 -1.38339 0
M  V30 17823 C 1692.17 -0.321355 -2.04895 0
M  V30 17824 C 1692.6 1.04249 -1.56569 0
M  V30 17825 O 1691.95 1.66464 -0.718299 0
M  V30 17826 C 1692 -0.354873 -3.5885 0
M  V30 17827 O 1691.11 0.65063 -4.07235 0
M  V30 17828 H 1690.45 -0.142033 -0.648631 0
M  V30 17829 H 1692.98 -1.02649 -1.76987 0
M  V30 17830 H 1692.99 -0.206243 -4.07478 0
M  V30 17831 H 1691.66 -1.34994 -3.93382 0
M  V30 17832 H 1690.24 0.466498 -3.69971 0
M  V30 17833 N 1692.42 1.49318 -0.504168 0
M  V30 17834 C 1693.33 2.32958 0.277053 0
M  V30 17835 C 1694.35 1.44838 0.964266 0
M  V30 17836 O 1695.53 1.77856 0.944947 0
M  V30 17837 C 1692.59 3.20352 1.32572 0
M  V30 17838 C 1691.65 4.24326 0.651606 0
M  V30 17839 C 1690.89 5.07544 1.65031 0
M  V30 17840 O 1691.11 4.92326 2.88047 0
M  V30 17841 O 1690.04 5.89737 1.20388 0
M  V30 17842 H 1693.87 3.00952 -0.40763 0
M  V30 17843 H 1691.45 1.47023 -0.265453 0
M  V30 17844 H 1693.34 3.74483 1.93237 0
M  V30 17845 H 1692.01 2.5505 1.99327 0
M  V30 17846 H 1690.92 3.741 0.00513384 0
M  V30 17847 H 1692.25 4.92193 0.0264424 0
M  V30 17848 N 1693.9 0.238138 1.5579 0
M  V30 17849 C 1695.32 -0.116908 1.59171 0
M  V30 17850 C 1695.52 -1.57629 1.2552 0
M  V30 17851 O 1694.57 -2.31926 0.998332 0
M  V30 17852 C 1695.89 0.224366 2.99862 0
M  V30 17853 C 1697.44 0.16795 3.12549 0
M  V30 17854 C 1697.91 0.483132 4.55445 0
M  V30 17855 N 1699.4 0.43331 4.61169 0
M  V30 17856 C 1700.14 0.650461 5.69699 0
M  V30 17857 N 1699.63 0.930272 6.86526 0
M  V30 17858 N 1701.43 0.581764 5.59081 0
M  V30 17859 H 1693.58 1.18996 1.75936 0
M  V30 17860 H 1695.84 0.478169 0.818571 0
M  V30 17861 H 1695.55 1.23791 3.29194 0
M  V30 17862 H 1695.42 -0.452738 3.74473 0
M  V30 17863 H 1697.81 -0.836252 2.83003 0
M  V30 17864 H 1697.89 0.878776 2.40231 0
M  V30 17865 H 1697.53 1.48485 4.8571 0
M  V30 17866 H 1697.46 -0.249073 5.26011 0
M  V30 17867 H 1699.95 0.225412 3.77227 0
M  V30 17868 H 1700.27 1.08362 7.65165 0
M  V30 17869 H 1698.61 0.96765 6.88231 0
M  V30 17870 H 1701.8 0.363273 4.66688 0
M  V30 17871 H 1701.97 0.754398 6.43594 0
M  V30 17872 N 1695.38 -1.57561 -0.0350783 0
M  V30 17873 C 1696.31 -2.09201 -1.03716 0
M  V30 17874 C 1697.29 -0.993231 -1.3809 0
M  V30 17875 O 1698.48 -1.26812 -1.47079 0
M  V30 17876 C 1695.61 -2.56643 -2.3399 0
M  V30 17877 C 1694.56 -3.70731 -2.13874 0
M  V30 17878 C 1693.89 -4.04358 -3.49855 0
M  V30 17879 C 1695.19 -4.99393 -1.52982 0
M  V30 17880 H 1696.88 -2.93176 -0.60731 0
M  V30 17881 H 1694.43 -1.41036 -0.290683 0
M  V30 17882 H 1696.38 -2.9139 -3.04417 0
M  V30 17883 H 1695.1 -1.69744 -2.79024 0
M  V30 17884 H 1693.76 -3.36325 -1.45881 0
M  V30 17885 H 1693.41 -3.14534 -3.92527 0
M  V30 17886 H 1693.11 -4.81201 -3.37223 0
M  V30 17887 H 1694.63 -4.41633 -4.21654 0
M  V30 17888 H 1696.05 -5.32135 -2.13319 0
M  V30 17889 H 1694.45 -5.80807 -1.50943 0
M  V30 17890 H 1695.52 -4.82367 -0.494993 0
M  V30 17891 N 1696.86 0.307236 -1.54576 0
M  V30 17892 C 1697.81 1.3787 -1.85096 0
M  V30 17893 C 1698.78 1.5066 -0.69935 0
M  V30 17894 O 1699.96 1.65618 -0.947373 0
M  V30 17895 C 1697.1 2.73976 -2.09836 0
M  V30 17896 C 1696.21 2.69687 -3.3748 0
M  V30 17897 C 1695.35 3.97746 -3.52096 0
M  V30 17898 C 1694.39 3.87829 -4.73556 0
M  V30 17899 N 1693.52 5.07651 -4.8501 0
M  V30 17900 H 1698.36 1.11144 -2.76498 0
M  V30 17901 H 1695.9 0.537696 -1.36921 0
M  V30 17902 H 1697.86 3.53121 -2.22174 0
M  V30 17903 H 1696.49 2.98977 -1.21707 0
M  V30 17904 H 1695.54 1.82441 -3.33795 0
M  V30 17905 H 1696.85 2.58247 -4.26743 0
M  V30 17906 H 1696.01 4.85327 -3.64065 0
M  V30 17907 H 1694.75 4.12012 -2.60955 0
M  V30 17908 H 1693.75 2.98633 -4.61626 0
M  V30 17909 H 1694.98 3.75114 -5.66098 0
M  V30 17910 H 1692.92 5.22393 -3.9679 0
M  V30 17911 H 1692.84 4.9861 -5.68264 0
M  V30 17912 H 1694.11 5.969 -5.01328 0
M  V30 17913 N 1698.34 1.46926 0.570122 0
M  V30 17914 C 1699.75 1.32159 0.894766 0
M  V30 17915 C 1699.95 0.302411 1.99218 0
M  V30 17916 O 1699.01 -0.290615 2.50822 0
M  V30 17917 C 1700.32 2.71136 1.30021 0
M  V30 17918 C 1701.87 2.79323 1.41236 0
M  V30 17919 C 1702.34 4.18911 1.85142 0
M  V30 17920 N 1703.84 4.2139 1.92314 0
M  V30 17921 C 1704.57 5.263 2.27588 0
M  V30 17922 N 1704.07 6.41526 2.61565 0
M  V30 17923 N 1705.86 5.13671 2.28251 0
M  V30 17924 H 1698.01 2.11837 -0.154603 0
M  V30 17925 H 1700.27 0.947978 -0.00649658 0
M  V30 17926 H 1699.98 3.47087 0.567775 0
M  V30 17927 H 1699.85 3.02066 2.25911 0
M  V30 17928 H 1702.24 2.03653 2.13564 0
M  V30 17929 H 1702.32 2.52063 0.43566 0
M  V30 17930 H 1701.97 4.95081 1.13389 0
M  V30 17931 H 1701.9 4.43587 2.83792 0
M  V30 17932 H 1704.39 3.38257 1.68495 0
M  V30 17933 H 1704.7 7.17343 2.8747 0
M  V30 17934 H 1703.04 6.44867 2.59175 0
M  V30 17935 H 1706.24 4.22684 2.01137 0
M  V30 17936 H 1706.41 5.95541 2.55412 0
M  V30 17937 N 1699.82 -0.815801 1.34842 0
M  V30 17938 C 1701.04 -1.60397 1.30693 0
M  V30 17939 C 1701.46 -1.88434 -0.117536 0
M  V30 17940 O 1700.82 -1.48076 -1.06676 0
M  V30 17941 C 1700.87 -2.94069 2.10252 0
M  V30 17942 O 1700.59 -2.67251 3.47143 0
M  V30 17943 C 1702.09 -3.88456 2.13581 0
M  V30 17944 H 1699.31 -0.49835 0.449319 0
M  V30 17945 H 1701.85 -1.01451 1.77561 0
M  V30 17946 H 1700.01 -3.49554 1.67006 0
M  V30 17947 H 1700.42 -3.52536 3.88354 0
M  V30 17948 H 1701.9 -4.79391 2.73658 0
M  V30 17949 H 1702.37 -4.24359 1.13209 0
M  V30 17950 H 1702.98 -3.38907 2.56947 0
M  V30 17951 N 1701.29 -1.18689 -1.03686 0
M  V30 17952 C 1702.52 -1.01024 -1.81132 0
M  V30 17953 C 1702.94 0.436584 -1.82963 0
M  V30 17954 O 1702.3 1.31343 -1.24975 0
M  V30 17955 C 1702.35 -1.5742 -3.24424 0
M  V30 17956 O 1701.45 -0.79813 -4.04603 0
M  V30 17957 H 1700.79 -0.357623 -0.559465 0
M  V30 17958 H 1703.32 -1.57532 -1.30556 0
M  V30 17959 H 1703.33 -1.60295 -3.75193 0
M  V30 17960 H 1702.01 -2.6273 -3.22406 0
M  V30 17961 H 1700.59 -0.842 -3.6327 0
M  V30 17962 N 1702.77 1.22662 -0.989529 0
M  V30 17963 C 1703.7 2.23784 -0.495301 0
M  V30 17964 C 1704.72 1.5761 0.40779 0
M  V30 17965 O 1705.91 1.77255 0.210464 0
M  V30 17966 C 1703.01 3.37553 0.301836 0
M  V30 17967 C 1702.18 4.33312 -0.596578 0
M  V30 17968 C 1701.24 5.25991 0.148272 0
M  V30 17969 O 1700.26 5.67296 -0.46519 0
M  V30 17970 N 1701.47 5.62571 1.43158 0
M  V30 17971 H 1704.23 2.66819 -1.36483 0
M  V30 17972 H 1701.79 1.36928 -0.863853 0
M  V30 17973 H 1703.78 3.96538 0.808701 0
M  V30 17974 H 1702.35 2.93628 1.07243 0
M  V30 17975 H 1701.57 3.72697 -1.28416 0
M  V30 17976 H 1702.86 4.94239 -1.20853 0
M  V30 17977 H 1702.26 5.30979 1.95136 0
M  V30 17978 H 1700.82 6.23987 1.8837 0
M  V30 17979 N 1704.25 0.762308 1.37937 0
M  V30 17980 C 1705.2 0.140412 2.30372 0
M  V30 17981 C 1706.17 -0.700152 1.50622 0
M  V30 17982 O 1707.35 -0.654474 1.79224 0
M  V30 17983 C 1704.49 -0.740056 3.37071 0
M  V30 17984 C 1703.6 0.116084 4.31844 0
M  V30 17985 C 1702.74 -0.768203 5.25616 0
M  V30 17986 C 1701.78 0.0910442 6.12032 0
M  V30 17987 N 1700.92 -0.75069 6.98075 0
M  V30 17988 H 1705.76 0.934224 2.82977 0
M  V30 17989 H 1703.29 0.472316 1.39311 0
M  V30 17990 H 1705.25 -1.26525 3.97551 0
M  V30 17991 H 1703.88 -1.49956 2.85855 0
M  V30 17992 H 1702.93 0.758999 3.72751 0
M  V30 17993 H 1704.24 0.779285 4.92675 0
M  V30 17994 H 1703.4 -1.36024 5.91255 0
M  V30 17995 H 1702.14 -1.46511 4.65173 0
M  V30 17996 H 1701.14 0.695687 5.45381 0
M  V30 17997 H 1702.37 0.785145 6.74546 0
M  V30 17998 H 1700.31 -1.43239 6.40171 0
M  V30 17999 H 1700.23 -0.144579 7.55862 0
M  V30 18000 H 1701.5 -1.32742 7.68114 0
M  V30 18001 N 1705.73 -1.49049 0.51208 0
M  V30 18002 C 1706.97 -2.0278 -0.0285311 0
M  V30 18003 C 1707.31 -1.39003 -1.35617 0
M  V30 18004 O 1706.58 -0.52952 -1.87153 0
M  V30 18005 C 1706.86 -3.59701 -0.169433 0
M  V30 18006 C 1706.72 -4.33989 1.18211 0
M  V30 18007 C 1708.04 -4.30698 -0.904812 0
M  V30 18008 H 1705.16 -0.736946 -0.00889467 0
M  V30 18009 H 1707.8 -1.77959 0.66564 0
M  V30 18010 H 1705.95 -3.8098 -0.760667 0
M  V30 18011 H 1707.62 -4.24176 1.81307 0
M  V30 18012 H 1705.86 -3.9611 1.76859 0
M  V30 18013 H 1706.53 -5.42177 1.03671 0
M  V30 18014 H 1709.01 -4.14141 -0.40327 0
M  V30 18015 H 1707.89 -5.40221 -0.972264 0
M  V30 18016 H 1708.15 -3.96718 -1.95108 0
M  V30 18017 N 1707.21 -0.246397 -1.55662 0
M  V30 18018 C 1708.48 0.42879 -1.90842 0
M  V30 18019 C 1708.86 1.75905 -1.16707 0
M  V30 18020 O 1708.21 2.26723 -0.284391 0
M  V30 18021 C 1708.42 0.597368 -3.4385 0
M  V30 18022 C 1709.77 0.893477 -4.15093 0
M  V30 18023 O 1710.79 0.683251 -3.49586 0
M  V30 18024 O 1709.65 1.2938 -5.30964 0
M  V30 18025 H 1706.75 0.230145 -0.794331 0
M  V30 18026 H 1709.29 -0.290426 -1.67196 0
M  V30 18027 H 1708.06 -0.339952 -3.8982 0
M  V30 18028 H 1707.69 1.36714 -3.73356 0
M  V30 18029 N 1708.68 1.57577 0.026722 0
M  V30 18030 C 1709.61 2.09748 1.02605 0
M  V30 18031 C 1710.59 1.00054 1.37562 0
M  V30 18032 O 1711.78 1.2759 1.46405 0
M  V30 18033 C 1708.91 2.57881 2.32626 0
M  V30 18034 C 1707.86 3.7186 2.11905 0
M  V30 18035 C 1707.19 4.06208 3.47706 0
M  V30 18036 C 1708.49 5.00198 1.50332 0
M  V30 18037 H 1710.18 2.93494 0.591753 0
M  V30 18038 H 1707.73 1.41188 0.283199 0
M  V30 18039 H 1709.68 2.93 3.02868 0
M  V30 18040 H 1708.41 1.71222 2.7812 0
M  V30 18041 H 1707.07 3.37094 1.44096 0
M  V30 18042 H 1706.71 3.16611 3.90853 0
M  V30 18043 H 1706.41 4.82982 3.34667 0
M  V30 18044 H 1707.94 4.43863 4.19306 0
M  V30 18045 H 1709.35 5.33259 2.10494 0
M  V30 18046 H 1707.75 5.81599 1.4786 0
M  V30 18047 H 1708.82 4.82623 0.469405 0
M  V30 18048 N 1710.16 -0.299034 1.54737 0
M  V30 18049 C 1711.12 -1.35199 1.85078 0
M  V30 18050 C 1712.12 -1.4359 0.723788 0
M  V30 18051 O 1713.31 -1.43191 0.992067 0
M  V30 18052 C 1710.45 -2.73659 2.03282 0
M  V30 18053 H 1711.64 -1.09538 2.7918 0
M  V30 18054 H 1709.19 -0.535803 1.46829 0
M  V30 18055 H 1709.93 -3.04539 1.11475 0
M  V30 18056 H 1709.71 -2.68959 2.85313 0
M  V30 18057 H 1711.2 -3.49787 2.28119 0
M  V30 18058 N 1711.64 -1.47227 -0.562322 0
M  V30 18059 C 1712.57 -1.62204 -1.67965 0
M  V30 18060 C 1713.55 -0.471638 -1.63431 0
M  V30 18061 O 1714.74 -0.70036 -1.81131 0
M  V30 18062 C 1711.87 -1.63127 -3.06605 0
M  V30 18063 C 1710.82 -2.77343 -3.25983 0
M  V30 18064 C 1710.15 -2.63336 -4.65358 0
M  V30 18065 C 1711.45 -4.18983 -3.1185 0
M  V30 18066 H 1713.14 -2.55739 -1.55686 0
M  V30 18067 H 1710.69 -1.23075 -0.747561 0
M  V30 18068 H 1712.64 -1.72197 -3.84612 0
M  V30 18069 H 1711.36 -0.661501 -3.19831 0
M  V30 18070 H 1710.02 -2.67776 -2.50383 0
M  V30 18071 H 1709.67 -1.64398 -4.75376 0
M  V30 18072 H 1709.37 -3.39957 -4.79273 0
M  V30 18073 H 1710.89 -2.74327 -5.45506 0
M  V30 18074 H 1712.31 -4.29554 -3.79679 0
M  V30 18075 H 1710.7 -4.96351 -3.37277 0
M  V30 18076 H 1711.77 -4.37709 -2.08661 0
M  V30 18077 N 1713.12 0.808639 -1.35273 0
M  V30 18078 C 1714.06 1.92036 -1.28026 0
M  V30 18079 C 1715.03 1.65397 -0.152611 0
M  V30 18080 O 1716.22 1.87819 -0.335972 0
M  V30 18081 C 1713.36 3.28544 -1.05607 0
M  V30 18082 C 1712.47 3.67382 -2.27276 0
M  V30 18083 C 1711.61 4.9291 -1.98024 0
M  V30 18084 C 1710.65 5.2437 -3.15757 0
M  V30 18085 N 1709.78 6.41077 -2.86294 0
M  V30 18086 H 1714.62 1.97567 -2.23095 0
M  V30 18087 H 1712.16 0.966397 -1.10902 0
M  V30 18088 H 1714.12 4.07234 -0.906418 0
M  V30 18089 H 1712.75 3.22487 -0.142015 0
M  V30 18090 H 1711.8 2.83969 -2.53112 0
M  V30 18091 H 1713.11 3.86593 -3.15194 0
M  V30 18092 H 1712.27 5.79421 -1.79877 0
M  V30 18093 H 1711.01 4.7573 -1.07387 0
M  V30 18094 H 1710.01 4.36349 -3.34483 0
M  V30 18095 H 1711.24 5.4348 -4.07193 0
M  V30 18096 H 1709.18 6.25327 -1.98249 0
M  V30 18097 H 1709.1 6.60528 -3.67748 0
M  V30 18098 H 1710.37 7.30622 -2.71684 0
M  V30 18099 N 1714.6 1.19237 1.03055 0
M  V30 18100 C 1715.53 0.886348 2.11368 0
M  V30 18101 C 1716.54 -0.120256 1.62355 0
M  V30 18102 O 1717.73 0.108934 1.78167 0
M  V30 18103 C 1714.83 0.304819 3.37526 0
M  V30 18104 C 1714 1.35957 4.15734 0
M  V30 18105 C 1713.06 0.791885 5.20207 0
M  V30 18106 O 1712.09 1.46916 5.49913 0
M  V30 18107 N 1713.29 -0.40564 5.79081 0
M  V30 18108 H 1716.06 1.81867 2.38211 0
M  V30 18109 H 1713.62 1.09414 1.19332 0
M  V30 18110 H 1715.61 -0.0887629 4.04603 0
M  V30 18111 H 1714.18 -0.531744 3.08044 0
M  V30 18112 H 1713.4 1.92806 3.43831 0
M  V30 18113 H 1714.69 2.07034 4.64773 0
M  V30 18114 H 1714.08 -0.973423 5.57262 0
M  V30 18115 H 1712.64 -0.741021 6.47574 0
M  V30 18116 N 1716.07 -1.22136 0.99602 0
M  V30 18117 C 1717 -2.26463 0.568909 0
M  V30 18118 C 1717.99 -1.65189 -0.405783 0
M  V30 18119 O 1719.17 -1.91935 -0.295735 0
M  V30 18120 C 1716.3 -3.47112 -0.114166 0
M  V30 18121 C 1715.25 -4.20844 0.779387 0
M  V30 18122 C 1714.58 -5.34687 -0.0367787 0
M  V30 18123 C 1715.88 -4.79195 2.07773 0
M  V30 18124 H 1717.57 -2.62443 1.44097 0
M  V30 18125 H 1715.12 -1.26156 0.694314 0
M  V30 18126 H 1717.07 -4.19258 -0.424381 0
M  V30 18127 H 1715.8 -3.10238 -1.02079 0
M  V30 18128 H 1714.46 -3.50537 1.07329 0
M  V30 18129 H 1714.1 -4.94054 -0.94442 0
M  V30 18130 H 1713.8 -5.84944 0.558092 0
M  V30 18131 H 1715.33 -6.09647 -0.341016 0
M  V30 18132 H 1716.74 -5.43266 1.83126 0
M  V30 18133 H 1715.14 -5.39803 2.62169 0
M  V30 18134 H 1716.21 -3.99073 2.75442 0
M  V30 18135 N 1717.55 -0.769612 -1.37531 0
M  V30 18136 C 1718.8 -0.332309 -1.99349 0
M  V30 18137 C 1719.12 1.09432 -1.61399 0
M  V30 18138 O 1718.39 1.75102 -0.878415 0
M  V30 18139 H 1716.97 -0.119879 -0.737318 0
M  V30 18140 H 1719.63 -0.987265 -1.68045 0
M  V30 18141 H 1718.73 -0.408233 -3.09419 0
M  V30 18142 N 1719.03 1.48775 -0.519977 0
M  V30 18143 C 1719.98 2.26421 0.267886 0
M  V30 18144 C 1720.96 1.32087 0.918795 0
M  V30 18145 O 1722.16 1.56689 0.823256 0
M  V30 18146 C 1719.29 3.16896 1.3203 0
M  V30 18147 C 1718.37 4.18699 0.674688 0
M  V30 18148 N 1718.76 5.05259 -0.233769 0
M  V30 18149 C 1717.06 4.3613 0.933071 0
M  V30 18150 C 1717.76 5.78543 -0.605233 0
M  V30 18151 N 1716.74 5.43591 0.0313426 0
M  V30 18152 H 1720.54 2.9072 -0.43116 0
M  V30 18153 H 1718.05 1.58858 -0.337322 0
M  V30 18154 H 1720.05 3.71171 1.89836 0
M  V30 18155 H 1718.71 2.5415 2.02083 0
M  V30 18156 H 1719.72 5.14345 -0.605766 0
M  V30 18157 H 1716.4 3.84581 1.62492 0
M  V30 18158 H 1717.79 6.58207 -1.34957 0
M  V30 18159 N 1720.51 0.254649 1.55529 0
M  V30 18160 C 1721.76 -0.368461 1.98306 0
M  V30 18161 C 1722.07 -1.585 1.14617 0
M  V30 18162 O 1723.28 -2.27975 1.47443 0
M  V30 18163 C 1721.73 -0.70693 3.52889 0
M  V30 18164 C 1721.34 0.488648 4.45327 0
M  V30 18165 C 1723.08 -1.2938 4.04303 0
M  V30 18166 C 1720.99 0.125903 5.91266 0
M  V30 18167 H 1719.92 -0.141444 0.740614 0
M  V30 18168 H 1722.57 0.356085 1.80012 0
M  V30 18169 H 1720.95 -1.48982 3.66907 0
M  V30 18170 H 1722.13 1.26587 4.43071 0
M  V30 18171 H 1720.44 0.990969 4.04436 0
M  V30 18172 H 1723.04 -1.57866 5.10864 0
M  V30 18173 H 1723.38 -2.22088 3.52112 0
M  V30 18174 H 1723.92 -0.573647 3.93642 0
M  V30 18175 H 1720.66 1.02032 6.4751 0
M  V30 18176 H 1720.18 -0.614969 5.96639 0
M  V30 18177 H 1721.85 -0.289174 6.46353 0
M  V30 18178 N 1721.99 -1.57589 -0.0183649 0
M  V30 18179 C 1723.4 -1.55152 -0.374183 0
M  V30 18180 C 1723.6 -0.98217 -1.75942 0
M  V30 18181 O 1722.66 -0.607905 -2.45073 0
M  V30 18182 C 1723.97 -2.99519 -0.266231 0
M  V30 18183 C 1725.52 -3.1112 -0.342527 0
M  V30 18184 C 1725.99 -4.57239 -0.263905 0
M  V30 18185 N 1727.49 -4.62077 -0.322372 0
M  V30 18186 C 1728.22 -5.72693 -0.284594 0
M  V30 18187 N 1727.72 -6.92516 -0.198482 0
M  V30 18188 N 1729.51 -5.611 -0.335111 0
M  V30 18189 H 1721.66 -1.92945 0.888033 0
M  V30 18190 H 1723.92 -0.885432 0.338695 0
M  V30 18191 H 1723.63 -3.44942 0.686123 0
M  V30 18192 H 1723.5 -3.62127 -1.05565 0
M  V30 18193 H 1725.89 -2.65638 -1.28532 0
M  V30 18194 H 1725.97 -2.51324 0.476435 0
M  V30 18195 H 1725.62 -5.03391 0.675263 0
M  V30 18196 H 1725.55 -5.14959 -1.10111 0
M  V30 18197 H 1728.04 -3.75872 -0.391004 0
M  V30 18198 H 1728.35 -7.72602 -0.175048 0
M  V30 18199 H 1726.69 -6.94806 -0.164374 0
M  V30 18200 H 1729.89 -4.66384 -0.400452 0
M  V30 18201 H 1730.06 -6.47295 -0.302203 0
M  V30 18202 N 1723.46 0.290824 -1.54893 0
M  V30 18203 C 1724.37 1.38137 -1.89619 0
M  V30 18204 C 1725.39 1.54959 -0.791432 0
M  V30 18205 O 1726.57 1.69428 -1.08885 0
M  V30 18206 C 1723.63 2.72353 -2.14534 0
M  V30 18207 C 1722.69 2.64429 -3.38195 0
M  V30 18208 C 1721.93 3.92244 -3.61912 0
M  V30 18209 O 1722.15 4.92088 -2.88454 0
M  V30 18210 O 1721.08 3.93523 -4.55438 0
M  V30 18211 H 1724.91 1.11688 -2.82417 0
M  V30 18212 H 1722.49 0.487789 -1.41213 0
M  V30 18213 H 1724.38 3.51745 -2.32064 0
M  V30 18214 H 1723.05 2.98624 -1.24921 0
M  V30 18215 H 1721.96 1.83474 -3.26018 0
M  V30 18216 H 1723.29 2.43109 -4.2797 0
M  V30 18217 N 1724.94 1.47523 0.554506 0
M  V30 18218 C 1726.17 1.57678 1.33496 0
M  V30 18219 C 1726.58 0.226976 1.87834 0
M  V30 18220 O 1725.92 -0.790327 1.6583 0
M  V30 18221 C 1725.99 2.54423 2.53987 0
M  V30 18222 C 1725.65 4.00056 2.20916 0
M  V30 18223 C 1726.65 4.88462 1.78048 0
M  V30 18224 C 1724.33 4.45412 2.32192 0
M  V30 18225 C 1726.33 6.20244 1.46889 0
M  V30 18226 C 1724.01 5.77221 2.00646 0
M  V30 18227 C 1725.01 6.64459 1.58062 0
M  V30 18228 O 1724.7 7.93818 1.26917 0
M  V30 18229 H 1724.43 0.535053 0.413152 0
M  V30 18230 H 1726.98 1.93878 0.678279 0
M  V30 18231 H 1725.21 2.13296 3.22555 0
M  V30 18232 H 1726.9 2.54676 3.16061 0
M  V30 18233 H 1727.67 4.54667 1.68827 0
M  V30 18234 H 1723.55 3.77715 2.64296 0
M  V30 18235 H 1727.09 6.88292 1.13578 0
M  V30 18236 H 1722.99 6.10557 2.095 0
M  V30 18237 H 1723.76 8.06347 1.40525 0
M  V30 18238 N 1726.42 -0.801453 1.357 0
M  V30 18239 C 1727.33 -1.94505 1.31167 0
M  V30 18240 C 1728.35 -1.72657 0.215747 0
M  V30 18241 O 1729.52 -1.96399 0.446022 0
M  V30 18242 C 1726.59 -3.29175 1.08834 0
M  V30 18243 C 1725.65 -3.63883 2.27788 0
M  V30 18244 C 1724.88 -4.92127 2.06511 0
M  V30 18245 O 1725.1 -5.60947 1.03416 0
M  V30 18246 O 1724.04 -5.25213 2.93998 0
M  V30 18247 H 1727.86 -2.01277 2.27423 0
M  V30 18248 H 1725.45 -0.939979 1.16124 0
M  V30 18249 H 1727.33 -4.09787 0.98248 0
M  V30 18250 H 1726.01 -3.23322 0.156326 0
M  V30 18251 H 1724.91 -2.83627 2.4394 0
M  V30 18252 H 1726.25 -3.74446 3.19454 0
M  V30 18253 N 1727.9 -1.19782 -1.02421 0
M  V30 18254 C 1728.83 -0.897544 -2.10895 0
M  V30 18255 C 1729.84 0.111644 -1.62417 0
M  V30 18256 O 1731.03 -0.118381 -1.78107 0
M  V30 18257 C 1728.13 -0.322714 -3.3736 0
M  V30 18258 C 1727.31 -1.38159 -4.15007 0
M  V30 18259 C 1726.36 -0.819462 -5.1978 0
M  V30 18260 O 1725.39 -1.4983 -5.49126 0
M  V30 18261 N 1726.59 0.374925 -5.79288 0
M  V30 18262 H 1729.36 -1.83127 -2.37243 0
M  V30 18263 H 1726.92 -1.10045 -1.1875 0
M  V30 18264 H 1728.91 0.0673046 -4.04644 0
M  V30 18265 H 1727.48 0.5154 -3.08322 0
M  V30 18266 H 1726.7 -1.94627 -3.42803 0
M  V30 18267 H 1727.99 -2.09496 -4.63669 0
M  V30 18268 H 1727.39 0.943856 -5.5777 0
M  V30 18269 H 1725.94 0.706668 -6.47958 0
M  V30 18270 N 1729.38 1.21606 -1.00248 0
M  V30 18271 C 1730.79 1.42695 -0.714862 0
M  V30 18272 C 1730.99 1.88542 0.710917 0
M  V30 18273 O 1730.05 2.04535 1.48059 0
M  V30 18274 C 1731.36 2.4605 -1.72858 0
M  V30 18275 C 1732.91 2.59836 -1.74511 0
M  V30 18276 C 1733.39 3.66421 -2.74772 0
M  V30 18277 N 1734.88 3.73889 -2.73425 0
M  V30 18278 C 1735.61 4.5598 -3.47664 0
M  V30 18279 N 1735.11 5.41987 -4.31535 0
M  V30 18280 N 1736.9 4.50379 -3.36326 0
M  V30 18281 H 1729.05 0.901565 -1.92316 0
M  V30 18282 H 1731.31 0.458128 -0.829954 0
M  V30 18283 H 1731.02 2.19329 -2.74932 0
M  V30 18284 H 1730.89 3.44812 -1.5292 0
M  V30 18285 H 1733.28 2.85895 -0.731304 0
M  V30 18286 H 1733.36 1.61317 -1.98521 0
M  V30 18287 H 1733.01 3.41108 -3.76308 0
M  V30 18288 H 1732.94 4.64531 -2.48029 0
M  V30 18289 H 1735.43 3.12443 -2.12575 0
M  V30 18290 H 1735.74 6.01673 -4.84984 0
M  V30 18291 H 1734.09 5.41537 -4.35618 0
M  V30 18292 H 1737.28 3.82217 -2.70237 0
M  V30 18293 H 1737.45 5.14122 -3.9444 0
M  V30 18294 N 1730.86 0.776895 1.37121 0
M  V30 18295 C 1731.79 0.180738 2.32799 0
M  V30 18296 C 1732.77 -0.677284 1.56035 0
M  V30 18297 O 1733.95 -0.613687 1.84249 0
M  V30 18298 C 1731.08 -0.695148 3.40272 0
M  V30 18299 C 1730.04 0.0619772 4.27955 0
M  V30 18300 C 1729.36 -0.933688 5.26485 0
M  V30 18301 C 1730.66 1.24396 5.0727 0
M  V30 18302 H 1732.36 0.980039 2.82906 0
M  V30 18303 H 1729.9 0.472722 1.3602 0
M  V30 18304 H 1731.85 -1.12205 4.06187 0
M  V30 18305 H 1730.58 -1.52702 2.88703 0
M  V30 18306 H 1729.24 0.469717 3.63578 0
M  V30 18307 H 1728.89 -1.76025 4.71194 0
M  V30 18308 H 1728.59 -0.431608 5.86013 0
M  V30 18309 H 1730.11 -1.35942 5.95275 0
M  V30 18310 H 1731.52 0.89345 5.66295 0
M  V30 18311 H 1729.92 1.67848 5.76149 0
M  V30 18312 H 1730.99 2.04553 4.39643 0
M  V30 18313 N 1732.33 -1.48497 0.527859 0
M  V30 18314 C 1733.28 -2.2959 -0.23607 0
M  V30 18315 C 1734.25 -1.37232 -0.935762 0
M  V30 18316 O 1735.44 -1.66196 -0.937202 0
M  V30 18317 C 1732.58 -3.20551 -1.27832 0
M  V30 18318 C 1731.69 -4.27984 -0.58769 0
M  V30 18319 C 1730.82 -5.06128 -1.61269 0
M  V30 18320 C 1729.86 -6.05367 -0.905404 0
M  V30 18321 N 1729 -6.76577 -1.87585 0
M  V30 18322 H 1733.84 -2.94403 0.461635 0
M  V30 18323 H 1731.38 -1.45137 0.239493 0
M  V30 18324 H 1733.33 -3.71686 -1.89488 0
M  V30 18325 H 1731.96 -2.57665 -1.94444 0
M  V30 18326 H 1731.02 -3.80132 0.142759 0
M  V30 18327 H 1732.33 -4.9879 -0.0322348 0
M  V30 18328 H 1731.48 -5.61266 -2.30359 0
M  V30 18329 H 1730.22 -4.35157 -2.20204 0
M  V30 18330 H 1729.23 -5.49435 -0.200426 0
M  V30 18331 H 1730.45 -6.78335 -0.322197 0
M  V30 18332 H 1728.4 -6.08358 -2.45432 0
M  V30 18333 H 1728.31 -7.4345 -1.37178 0
M  V30 18334 H 1729.58 -7.36305 -2.5588 0
M  V30 18335 N 1733.81 -0.262893 -1.55392 0
M  V30 18336 C 1735.06 0.357895 -1.99617 0
M  V30 18337 C 1735.39 1.56415 -1.151 0
M  V30 18338 O 1734.67 1.93273 -0.218139 0
M  V30 18339 C 1734.95 0.752095 -3.52158 0
M  V30 18340 C 1734.8 -0.460658 -4.47435 0
M  V30 18341 C 1736.12 1.59314 -4.10253 0
M  V30 18342 H 1733.24 0.128612 -0.725691 0
M  V30 18343 H 1735.88 -0.367399 -1.86414 0
M  V30 18344 H 1734.03 1.37006 -3.6354 0
M  V30 18345 H 1735.7 -1.09918 -4.48013 0
M  V30 18346 H 1733.95 -1.10093 -4.19597 0
M  V30 18347 H 1734.62 -0.141262 -5.51819 0
M  V30 18348 H 1737.09 1.07135 -4.02071 0
M  V30 18349 H 1735.97 1.83779 -5.1722 0
M  V30 18350 H 1736.23 2.57022 -3.59711 0
M  V30 18351 N 1735.29 1.57597 0.0100073 0
M  V30 18352 C 1736.22 2.10825 1.00375 0
M  V30 18353 C 1737.2 1.01507 1.36493 0
M  V30 18354 O 1738.39 1.29136 1.45043 0
M  V30 18355 C 1735.52 2.60334 2.29878 0
M  V30 18356 C 1734.47 3.74087 2.07949 0
M  V30 18357 C 1733.8 4.09873 3.43378 0
M  V30 18358 C 1735.1 5.01764 1.45018 0
M  V30 18359 H 1736.79 2.94105 0.560591 0
M  V30 18360 H 1734.34 1.4148 0.268208 0
M  V30 18361 H 1736.29 2.96196 2.99743 0
M  V30 18362 H 1735.01 1.74162 2.76288 0
M  V30 18363 H 1733.67 3.38603 1.40512 0
M  V30 18364 H 1733.32 3.20739 3.87473 0
M  V30 18365 H 1733.02 4.86505 3.29525 0
M  V30 18366 H 1734.54 4.48285 4.14575 0
M  V30 18367 H 1735.96 5.35462 2.04826 0
M  V30 18368 H 1734.35 5.83135 1.41683 0
M  V30 18369 H 1735.42 4.83093 0.41819 0
M  V30 18370 N 1736.77 -0.282606 1.55045 0
M  V30 18371 C 1737.68 -1.37129 1.90349 0
M  V30 18372 C 1738.69 -1.54537 0.799639 0
M  V30 18373 O 1739.87 -1.68849 1.09782 0
M  V30 18374 C 1736.93 -2.71211 2.15975 0
M  V30 18375 C 1736 -2.62632 3.39592 0
M  V30 18376 C 1735.23 -3.90319 3.63987 0
M  V30 18377 O 1735.45 -4.90551 2.9106 0
M  V30 18378 O 1734.39 -3.91102 4.57518 0
M  V30 18379 H 1738.21 -1.10189 2.83006 0
M  V30 18380 H 1735.8 -0.480293 1.41469 0
M  V30 18381 H 1737.68 -3.50509 2.33926 0
M  V30 18382 H 1736.35 -2.97958 1.26503 0
M  V30 18383 H 1735.26 -1.81743 3.26987 0
M  V30 18384 H 1736.59 -2.40836 4.29254 0
M  V30 18385 N 1738.25 -1.47815 -0.546675 0
M  V30 18386 C 1739.66 -1.33566 -0.873628 0
M  V30 18387 C 1739.86 -0.334067 -1.98711 0
M  V30 18388 O 1738.92 0.250675 -2.51253 0
M  V30 18389 C 1740.23 -2.73171 -1.25691 0
M  V30 18390 C 1741.78 -2.81535 -1.36774 0
M  V30 18391 C 1742.25 -4.21804 -1.78454 0
M  V30 18392 N 1743.74 -4.24396 -1.85586 0
M  V30 18393 C 1744.48 -5.29854 -2.19186 0
M  V30 18394 N 1743.98 -6.45606 -2.51326 0
M  V30 18395 N 1745.77 -5.17237 -2.2005 0
M  V30 18396 H 1737.92 -2.11564 0.188285 0
M  V30 18397 H 1740.18 -0.947754 0.0215773 0
M  V30 18398 H 1739.89 -3.47946 -0.512485 0
M  V30 18399 H 1739.76 -3.05622 -2.21077 0
M  V30 18400 H 1742.15 -2.07025 -2.10297 0
M  V30 18401 H 1742.23 -2.52724 -0.395504 0
M  V30 18402 H 1741.87 -4.96823 -1.05498 0
M  V30 18403 H 1741.8 -4.48046 -2.76699 0
M  V30 18404 H 1744.3 -3.40895 -1.63092 0
M  V30 18405 H 1744.61 -7.21825 -2.76022 0
M  V30 18406 H 1742.95 -6.48909 -2.48883 0
M  V30 18407 H 1746.14 -4.2583 -1.94387 0
M  V30 18408 H 1746.32 -5.99529 -2.45905 0
M  V30 18409 N 1739.72 0.794246 -1.36123 0
M  V30 18410 C 1740.63 1.93807 -1.32197 0
M  V30 18411 C 1741.65 1.7254 -0.2249 0
M  V30 18412 O 1742.83 1.9616 -0.456431 0
M  V30 18413 C 1739.89 3.28593 -1.10578 0
M  V30 18414 C 1738.95 3.6267 -2.29715 0
M  V30 18415 C 1738.18 4.91025 -2.09118 0
M  V30 18416 O 1738.41 5.6039 -1.06389 0
M  V30 18417 O 1737.34 5.23647 -2.96779 0
M  V30 18418 H 1741.17 2.00068 -2.28487 0
M  V30 18419 H 1738.75 0.933808 -1.16621 0
M  V30 18420 H 1740.63 4.0926 -1.0042 0
M  V30 18421 H 1739.31 3.23235 -0.17347 0
M  V30 18422 H 1738.22 2.82329 -2.4544 0
M  V30 18423 H 1739.55 3.72747 -3.21435 0
M  V30 18424 N 1741.2 1.20323 1.01785 0
M  V30 18425 C 1742.45 1.01413 1.75623 0
M  V30 18426 C 1742.78 -0.452801 1.88847 0
M  V30 18427 O 1742.06 -1.33618 1.41338 0
M  V30 18428 C 1742.34 1.69686 3.17614 0
M  V30 18429 C 1742.19 3.23815 3.12192 0
M  V30 18430 C 1743.51 1.42891 4.16257 0
M  V30 18431 H 1740.63 0.369822 0.637495 0
M  V30 18432 H 1743.27 1.4832 1.18749 0
M  V30 18433 H 1741.42 1.29806 3.66173 0
M  V30 18434 H 1743.09 3.72981 2.71446 0
M  V30 18435 H 1741.34 3.54785 2.4962 0
M  V30 18436 H 1742.01 3.66741 4.12559 0
M  V30 18437 H 1744.48 1.77486 3.76348 0
M  V30 18438 H 1743.36 1.93195 5.13777 0
M  V30 18439 H 1743.62 0.356263 4.40662 0
M  V30 18440 N 1742.68 -1.21073 1.00892 0
M  V30 18441 C 1743.61 -2.22968 0.530841 0
M  V30 18442 C 1744.62 -1.58239 -0.382664 0
M  V30 18443 O 1745.81 -1.77567 -0.182237 0
M  V30 18444 C 1742.91 -3.37991 -0.248096 0
M  V30 18445 C 1742.09 -4.32309 0.665439 0
M  V30 18446 C 1741.15 -5.2616 -0.0645731 0
M  V30 18447 O 1740.17 -5.66484 0.555383 0
M  V30 18448 N 1741.37 -5.64777 -1.3419 0
M  V30 18449 H 1744.14 -2.64614 1.4071 0
M  V30 18450 H 1741.7 -1.35536 0.885528 0
M  V30 18451 H 1743.69 -3.97774 -0.745513 0
M  V30 18452 H 1742.26 -2.95297 -1.02558 0
M  V30 18453 H 1741.48 -3.70607 1.34329 0
M  V30 18454 H 1742.77 -4.92254 1.28701 0
M  V30 18455 H 1742.17 -5.34016 -1.86664 0
M  V30 18456 H 1740.72 -6.26905 -1.78419 0
M  V30 18457 N 1744.16 -0.784156 -1.36707 0
M  V30 18458 C 1745.09 -0.136944 -2.28791 0
M  V30 18459 C 1746.1 0.65075 -1.49228 0
M  V30 18460 O 1747.29 0.486799 -1.71734 0
M  V30 18461 C 1744.39 0.829306 -3.28597 0
M  V30 18462 C 1743.57 0.09279 -4.37302 0
M  V30 18463 C 1742.62 0.974213 -5.17103 0
M  V30 18464 O 1741.65 0.433399 -5.67548 0
M  V30 18465 N 1742.85 2.29909 -5.33031 0
M  V30 18466 H 1745.62 -0.927906 -2.84974 0
M  V30 18467 H 1743.18 -0.637596 -1.48816 0
M  V30 18468 H 1745.17 1.42268 -3.78869 0
M  V30 18469 H 1743.74 1.52117 -2.73092 0
M  V30 18470 H 1742.96 -0.681615 -3.88262 0
M  V30 18471 H 1744.25 -0.415655 -5.07099 0
M  V30 18472 H 1743.65 2.76268 -4.93652 0
M  V30 18473 H 1742.2 2.84224 -5.86566 0
M  V30 18474 N 1745.64 1.48215 -0.535727 0
M  V30 18475 C 1746.88 2.04399 -0.0058065 0
M  V30 18476 C 1747.24 1.40332 1.31037 0
M  V30 18477 O 1748.44 1.87437 1.92668 0
M  V30 18478 C 1746.71 3.57237 0.107773 0
M  V30 18479 S 1748.27 4.34857 0.586926 0
M  V30 18480 H 1745.09 0.710846 -0.0148167 0
M  V30 18481 H 1747.69 1.81854 -0.717592 0
M  V30 18482 H 1746.4 4.01398 -0.85488 0
M  V30 18483 H 1745.93 3.84245 0.843764 0
M  V30 18484 H 1747.94 4.60405 1.85045 0
M  V30 18485 N 1747.11 0.27113 1.5525 0
M  V30 18486 C 1748.34 -0.353138 2.04371 0
M  V30 18487 C 1748.76 -1.48978 1.14835 0
M  V30 18488 O 1748.12 -1.8071 0.146138 0
M  V30 18489 C 1748.17 -0.815425 3.51259 0
M  V30 18490 O 1747.27 -1.92302 3.6482 0
M  V30 18491 H 1746.62 -0.0736207 0.659906 0
M  V30 18492 H 1749.15 0.404266 2.00566 0
M  V30 18493 H 1749.16 -1.11224 3.92547 0
M  V30 18494 H 1747.83 0.0162079 4.15897 0
M  V30 18495 H 1746.41 -1.62904 3.35435 0
M  V30 18496 N 1748.59 -1.576 -0.00164943 0
M  V30 18497 C 1750.01 -1.5554 -0.357706 0
M  V30 18498 C 1750.21 -1.00078 -1.74891 0
M  V30 18499 O 1749.26 -0.633864 -2.44414 0
M  V30 18500 C 1750.58 -2.99785 -0.234448 0
M  V30 18501 C 1752.13 -3.11466 -0.309509 0
M  V30 18502 C 1752.6 -4.57493 -0.215394 0
M  V30 18503 N 1754.09 -4.62393 -0.273345 0
M  V30 18504 C 1754.83 -5.72963 -0.223836 0
M  V30 18505 N 1754.32 -6.92687 -0.12502 0
M  V30 18506 N 1756.12 -5.61424 -0.27558 0
M  V30 18507 H 1748.27 -1.91992 0.908448 0
M  V30 18508 H 1750.53 -0.88179 0.348067 0
M  V30 18509 H 1750.24 -3.44195 0.722671 0
M  V30 18510 H 1750.11 -3.63226 -1.01718 0
M  V30 18511 H 1752.5 -2.66986 -1.25707 0
M  V30 18512 H 1752.58 -2.50805 0.503064 0
M  V30 18513 H 1752.22 -5.02647 0.728617 0
M  V30 18514 H 1752.15 -5.16098 -1.04643 0
M  V30 18515 H 1754.64 -3.76265 -0.351116 0
M  V30 18516 H 1754.96 -7.72744 -0.0930938 0
M  V30 18517 H 1753.3 -6.94941 -0.0906712 0
M  V30 18518 H 1756.49 -4.66782 -0.350963 0
M  V30 18519 H 1756.66 -6.47579 -0.233531 0
M  V30 18520 N 1750.07 0.274379 -1.55193 0
M  V30 18521 C 1751.32 1.00766 -1.75995 0
M  V30 18522 C 1751.65 1.8599 -0.558679 0
M  V30 18523 O 1750.92 1.8937 0.443784 0
M  V30 18524 C 1751.21 1.89137 -3.0643 0
M  V30 18525 C 1751.06 1.06914 -4.36909 0
M  V30 18526 C 1752.38 2.87869 -3.32896 0
M  V30 18527 H 1749.5 0.364915 -0.640317 0
M  V30 18528 H 1752.14 0.280156 -1.87923 0
M  V30 18529 H 1750.29 2.51166 -2.96391 0
M  V30 18530 H 1751.96 0.469666 -4.58903 0
M  V30 18531 H 1750.21 0.372566 -4.32197 0
M  V30 18532 H 1750.88 1.72063 -5.24498 0
M  V30 18533 H 1753.35 2.35974 -3.42718 0
M  V30 18534 H 1752.23 3.46845 -4.25429 0
M  V30 18535 H 1752.49 3.62921 -2.52469 0
M  V30 18536 N 1751.55 1.48103 0.538828 0
M  V30 18537 C 1752.48 1.64856 1.65363 0
M  V30 18538 C 1753.46 0.497579 1.6266 0
M  V30 18539 O 1754.64 0.729088 1.79994 0
M  V30 18540 C 1751.77 1.67984 3.03971 0
M  V30 18541 C 1750.73 2.82494 3.21529 0
M  V30 18542 C 1750.05 2.70706 4.6111 0
M  V30 18543 C 1751.35 4.23892 3.05145 0
M  V30 18544 H 1753.05 2.58183 1.51598 0
M  V30 18545 H 1750.59 1.24249 0.727886 0
M  V30 18546 H 1752.55 1.78294 3.81824 0
M  V30 18547 H 1751.27 0.712299 3.18738 0
M  V30 18548 H 1749.93 2.71725 2.46091 0
M  V30 18549 H 1749.58 1.7194 4.727 0
M  V30 18550 H 1749.28 3.47539 4.73804 0
M  V30 18551 H 1750.8 2.82971 5.41073 0
M  V30 18552 H 1752.22 4.3554 3.72797 0
M  V30 18553 H 1750.61 5.01654 3.29338 0
M  V30 18554 H 1751.68 4.40973 2.01671 0
M  V30 18555 N 1753.03 -0.787016 1.36542 0
M  V30 18556 C 1754.27 -1.54194 1.30647 0
M  V30 18557 C 1754.6 -1.94671 -0.113195 0
M  V30 18558 O 1753.87 -1.65131 -1.05397 0
M  V30 18559 H 1752.45 -0.571857 0.480613 0
M  V30 18560 H 1755.11 -0.93761 1.70865 0
M  V30 18561 H 1754.2 -2.4484 1.93545 0
M  V30 18562 N 1754.5 -1.20861 -1.01145 0
M  V30 18563 C 1755.75 -1.03347 -1.75188 0
M  V30 18564 C 1756.11 0.429303 -1.87549 0
M  V30 18565 O 1755.4 1.31444 -1.39402 0
M  V30 18566 C 1755.59 -1.65666 -3.16685 0
M  V30 18567 C 1755.42 -3.17851 -3.1812 0
M  V30 18568 C 1754.19 -3.86858 -3.25067 0
M  V30 18569 C 1756.39 -4.15016 -3.03754 0
M  V30 18570 N 1754.37 -5.26288 -3.1606 0
M  V30 18571 C 1755.74 -5.41156 -3.02573 0
M  V30 18572 C 1757.8 -4.06148 -2.88008 0
M  V30 18573 C 1756.5 -6.59449 -2.87261 0
M  V30 18574 C 1758.53 -5.24071 -2.74051 0
M  V30 18575 C 1757.89 -6.49118 -2.73541 0
M  V30 18576 H 1753.99 -0.432455 -0.651541 0
M  V30 18577 H 1756.57 -1.53114 -1.20267 0
M  V30 18578 H 1754.74 -1.18476 -3.69889 0
M  V30 18579 H 1756.47 -1.41419 -3.79187 0
M  V30 18580 H 1753.23 -3.37746 -3.32001 0
M  V30 18581 H 1753.65 -5.99297 -3.14917 0
M  V30 18582 H 1758.3 -3.10273 -2.87212 0
M  V30 18583 H 1756.01 -7.55492 -2.86805 0
M  V30 18584 H 1759.6 -5.19025 -2.62878 0
M  V30 18585 H 1758.48 -7.38831 -2.62867 0
M  V30 18586 N 1755.98 1.20536 -1.01532 0
M  V30 18587 C 1757.23 1.90152 -0.704973 0
M  V30 18588 C 1757.56 1.78569 0.763343 0
M  V30 18589 O 1756.84 1.16906 1.55445 0
M  V30 18590 C 1757.12 3.41589 -1.1397 0
M  V30 18591 C 1756.97 3.62113 -2.66823 0
M  V30 18592 C 1758.29 4.34335 -0.709984 0
M  V30 18593 H 1755.41 0.690524 -0.257577 0
M  V30 18594 H 1758.05 1.41959 -1.26284 0
M  V30 18595 H 1756.2 3.82765 -0.66505 0
M  V30 18596 H 1757.87 3.30197 -3.2213 0
M  V30 18597 H 1756.12 3.05626 -3.07855 0
M  V30 18598 H 1756.79 4.68261 -2.92294 0
M  V30 18599 H 1759.26 4.00799 -1.11801 0
M  V30 18600 H 1758.14 5.38915 -1.04221 0
M  V30 18601 H 1758.4 4.40391 0.388408 0
M  V30 18602 N 1757.46 0.791395 1.36289 0
M  V30 18603 C 1758.42 0.197069 2.28351 0
M  V30 18604 C 1759.42 -0.606748 1.48913 0
M  V30 18605 O 1760.61 -0.427453 1.68874 0
M  V30 18606 C 1757.75 -0.727009 3.33058 0
M  V30 18607 H 1758.94 1.00885 2.82422 0
M  V30 18608 H 1756.49 0.560959 1.45887 0
M  V30 18609 H 1757.23 -1.56306 2.84146 0
M  V30 18610 H 1757.01 -0.152537 3.91803 0
M  V30 18611 H 1758.5 -1.13765 4.01805 0
M  V30 18612 N 1758.94 -1.47929 0.54358 0
M  V30 18613 C 1759.85 -2.33611 -0.215191 0
M  V30 18614 C 1760.87 -1.47343 -0.925526 0
M  V30 18615 O 1762.04 -1.80299 -0.897459 0
M  V30 18616 C 1759.11 -3.23755 -1.24031 0
M  V30 18617 C 1758.17 -4.25904 -0.538874 0
M  V30 18618 C 1757.4 -5.11741 -1.51516 0
M  V30 18619 O 1757.62 -4.9979 -2.74893 0
M  V30 18620 O 1756.56 -5.92722 -1.0471 0
M  V30 18621 H 1760.38 -2.99765 0.487279 0
M  V30 18622 H 1757.97 -1.46267 0.30434 0
M  V30 18623 H 1759.85 -3.79475 -1.8324 0
M  V30 18624 H 1758.53 -2.60245 -1.92495 0
M  V30 18625 H 1757.43 -3.73982 0.0940539 0
M  V30 18626 H 1758.77 -4.9209 0.104063 0
M  V30 18627 N 1760.42 -0.27936 -1.55104 0
M  V30 18628 C 1761.38 0.593214 -2.2139 0
M  V30 18629 C 1762.38 1.07807 -1.19308 0
M  V30 18630 O 1763.57 0.97756 -1.44185 0
M  V30 18631 C 1760.7 1.81889 -2.88321 0
M  V30 18632 H 1761.9 0.0143941 -2.99897 0
M  V30 18633 H 1759.45 -0.0300083 -1.56271 0
M  V30 18634 H 1760.18 2.43811 -2.13838 0
M  V30 18635 H 1759.97 1.4791 -3.63132 0
M  V30 18636 H 1761.46 2.4393 -3.38951 0
M  V30 18637 N 1761.9 1.57599 -0.0067085 0
M  V30 18638 C 1762.83 2.11878 0.981331 0
M  V30 18639 C 1763.81 1.02949 1.35408 0
M  V30 18640 O 1764.99 1.30667 1.43665 0
M  V30 18641 C 1762.12 2.62757 2.27104 0
M  V30 18642 C 1761.08 3.76272 2.0397 0
M  V30 18643 C 1760.4 4.13491 3.39012 0
M  V30 18644 C 1761.7 5.03274 1.39688 0
M  V30 18645 H 1763.4 2.94683 0.529366 0
M  V30 18646 H 1760.94 1.41757 0.253187 0
M  V30 18647 H 1762.89 2.99359 2.96585 0
M  V30 18648 H 1761.62 1.77082 2.74426 0
M  V30 18649 H 1760.28 3.40074 1.36913 0
M  V30 18650 H 1759.93 3.24831 3.8405 0
M  V30 18651 H 1759.63 4.89972 3.24347 0
M  V30 18652 H 1761.15 4.52657 4.09797 0
M  V30 18653 H 1762.56 5.37604 1.99136 0
M  V30 18654 H 1760.96 5.84604 1.3549 0
M  V30 18655 H 1762.03 4.8351 0.366928 0
M  V30 18656 N 1763.37 -0.266145 1.55336 0
M  V30 18657 C 1764.6 -1.01915 1.80633 0
M  V30 18658 C 1765.02 -1.78897 0.581172 0
M  V30 18659 O 1764.38 -1.75118 -0.469399 0
M  V30 18660 C 1764.43 -1.948 3.03456 0
M  V30 18661 O 1763.53 -3.03678 2.79022 0
M  V30 18662 H 1762.87 -0.29102 0.596828 0
M  V30 18663 H 1765.4 -0.292973 2.02492 0
M  V30 18664 H 1765.41 -2.36626 3.32373 0
M  V30 18665 H 1764.09 -1.38182 3.92273 0
M  V30 18666 H 1762.67 -2.66118 2.61219 0
M  V30 18667 N 1764.85 -1.48386 -0.530967 0
M  V30 18668 C 1766.27 -1.34485 -0.859412 0
M  V30 18669 C 1766.47 -0.355124 -1.98346 0
M  V30 18670 O 1765.52 0.224012 -2.51504 0
M  V30 18671 C 1766.84 -2.74488 -1.22787 0
M  V30 18672 C 1768.38 -2.82969 -1.33781 0
M  V30 18673 C 1768.86 -4.23673 -1.7397 0
M  V30 18674 N 1770.35 -4.26341 -1.81074 0
M  V30 18675 C 1771.09 -5.32149 -2.13554 0
M  V30 18676 N 1770.58 -6.48235 -2.44464 0
M  V30 18677 N 1772.37 -5.19542 -2.14551 0
M  V30 18678 H 1764.53 -2.11352 0.210713 0
M  V30 18679 H 1766.79 -0.947472 0.0316283 0
M  V30 18680 H 1766.49 -3.4847 -0.475552 0
M  V30 18681 H 1766.37 -3.0795 -2.17823 0
M  V30 18682 H 1768.76 -2.09244 -2.08089 0
M  V30 18683 H 1768.84 -2.53129 -0.368677 0
M  V30 18684 H 1768.48 -4.97914 -1.00222 0
M  V30 18685 H 1768.41 -4.50956 -2.71931 0
M  V30 18686 H 1770.9 -3.42606 -1.59467 0
M  V30 18687 H 1771.21 -7.24712 -2.6835 0
M  V30 18688 H 1769.56 -6.51512 -2.41986 0
M  V30 18689 H 1772.75 -4.27868 -1.89859 0
M  V30 18690 H 1772.92 -6.02103 -2.39532 0
M  V30 18691 N 1766.33 0.779763 -1.36958 0
M  V30 18692 C 1767.55 1.57389 -1.35068 0
M  V30 18693 C 1767.98 1.87993 0.0635244 0
M  V30 18694 O 1767.34 1.48625 1.03828 0
M  V30 18695 C 1767.39 2.86582 -2.18868 0
M  V30 18696 O 1766.49 3.80609 -1.58779 0
M  V30 18697 H 1765.83 0.477052 -0.461863 0
M  V30 18698 H 1768.36 0.965741 -1.80373 0
M  V30 18699 H 1768.37 3.35761 -2.31794 0
M  V30 18700 H 1767.05 2.63635 -3.21666 0
M  V30 18701 H 1765.62 3.39229 -1.54848 0
M  V30 18702 N 1767.81 1.21396 1.00503 0
M  V30 18703 C 1768.77 0.974756 2.07439 0
M  V30 18704 C 1769.77 -0.0542142 1.60709 0
M  V30 18705 O 1770.96 0.183056 1.73236 0
M  V30 18706 C 1768.09 0.46989 3.37646 0
M  V30 18707 H 1769.29 1.92346 2.30094 0
M  V30 18708 H 1766.84 1.03095 1.17479 0
M  V30 18709 H 1767.57 -0.483735 3.20672 0
M  V30 18710 H 1767.36 1.2121 3.72895 0
M  V30 18711 H 1768.85 0.322393 4.16354 0
M  V30 18712 N 1769.29 -1.19996 1.0217 0
M  V30 18713 C 1770.22 -2.25206 0.616818 0
M  V30 18714 C 1771.2 -1.66013 -0.370653 0
M  V30 18715 O 1772.38 -1.92519 -0.254956 0
M  V30 18716 C 1769.51 -3.47276 -0.0405129 0
M  V30 18717 C 1768.47 -4.19096 0.868479 0
M  V30 18718 C 1767.79 -5.34645 0.0766447 0
M  V30 18719 C 1769.09 -4.7468 2.1789 0
M  V30 18720 H 1770.79 -2.59328 1.49632 0
M  V30 18721 H 1768.33 -1.24655 0.720917 0
M  V30 18722 H 1770.28 -4.20063 -0.335355 0
M  V30 18723 H 1769.01 -3.12333 -0.954759 0
M  V30 18724 H 1767.67 -3.48181 1.1474 0
M  V30 18725 H 1767.32 -4.95946 -0.839411 0
M  V30 18726 H 1767.02 -5.83628 0.682041 0
M  V30 18727 H 1768.54 -6.10233 -0.211624 0
M  V30 18728 H 1769.95 -5.39259 1.94608 0
M  V30 18729 H 1768.35 -5.34121 2.7356 0
M  V30 18730 H 1769.42 -3.93141 2.83845 0
M  V30 18731 N 1770.76 -0.798611 -1.35867 0
M  V30 18732 C 1771.69 -0.217751 -2.32482 0
M  V30 18733 C 1772.67 0.652374 -1.57093 0
M  V30 18734 O 1773.86 0.584297 -1.85202 0
M  V30 18735 C 1770.99 0.640925 -3.41335 0
M  V30 18736 C 1769.94 -0.130053 -4.27802 0
M  V30 18737 C 1769.27 0.849811 -5.27904 0
M  V30 18738 C 1770.57 -1.32451 -5.05227 0
M  V30 18739 H 1772.26 -1.02492 -2.81311 0
M  V30 18740 H 1769.81 -0.494302 -1.3525 0
M  V30 18741 H 1771.76 1.05729 -4.07921 0
M  V30 18742 H 1770.49 1.4809 -2.91096 0
M  V30 18743 H 1769.15 -0.5275 -3.62785 0
M  V30 18744 H 1768.79 1.68507 -4.73935 0
M  V30 18745 H 1768.49 0.338323 -5.86625 0
M  V30 18746 H 1770.02 1.26455 -5.97362 0
M  V30 18747 H 1771.43 -0.983429 -5.64802 0
M  V30 18748 H 1769.83 -1.76992 -5.73405 0
M  V30 18749 H 1770.9 -2.11522 -4.36333 0
M  V30 18750 N 1772.24 1.47639 -0.551417 0
M  V30 18751 C 1773.65 1.86336 -0.116513 0
M  V30 18752 C 1774 1.45869 1.31213 0
M  V30 18753 O 1773.13 0.859103 1.98616 0
M  V30 18754 C 1773.72 3.38181 -0.204671 0
M  V30 18755 C 1772.28 3.75992 0.175161 0
M  V30 18756 C 1771.43 2.71692 -0.554843 0
M  V30 18757 H 1774.38 1.39238 -0.761471 0
M  V30 18758 H 1774.4 3.76081 0.578214 0
M  V30 18759 H 1773.91 3.67604 -1.24456 0
M  V30 18760 H 1772.01 3.52186 1.21638 0
M  V30 18761 H 1772.13 4.78764 -0.179368 0
M  V30 18762 H 1770.49 2.547 0.00140775 0
M  V30 18763 H 1771.27 3.03957 -1.59578 0
M  V30 18764 N 1773.72 0.287581 1.54954 0
M  V30 18765 C 1775.13 -0.207733 1.85541 0
M  V30 18766 C 1775.48 -1.54478 1.20959 0
M  V30 18767 O 1774.61 -2.10487 0.502399 0
M  V30 18768 C 1775.2 -0.383701 3.3662 0
M  V30 18769 C 1773.76 -0.82324 3.67287 0
M  V30 18770 C 1772.91 0.0762579 2.77195 0
M  V30 18771 H 1775.86 0.509004 1.50316 0
M  V30 18772 H 1775.88 -1.22036 3.60399 0
M  V30 18773 H 1775.39 0.589575 3.83596 0
M  V30 18774 H 1773.49 -1.80754 3.2582 0
M  V30 18775 H 1773.61 -0.651925 4.74644 0
M  V30 18776 H 1771.97 -0.44219 2.50832 0
M  V30 18777 H 1772.75 1.04564 3.26988 0
M  V30 18778 N 1775.2 -1.57593 0.0150662 0
M  V30 18779 C 1776.45 -1.90836 -0.665282 0
M  V30 18780 C 1776.77 -0.890693 -1.73469 0
M  V30 18781 O 1776.04 0.0698113 -1.95776 0
M  V30 18782 H 1774.62 -0.704377 -0.24872 0
M  V30 18783 H 1777.28 -1.94809 0.0595521 0
M  V30 18784 H 1776.38 -2.91043 -1.12697 0
M  V30 18785 N 1776.68 0.257904 -1.55475 0
M  V30 18786 C 1777.92 0.985519 -1.76442 0
M  V30 18787 C 1778.25 1.86267 -0.577033 0
M  V30 18788 O 1777.52 1.91613 0.407582 0
M  V30 18789 H 1776.1 0.366872 -0.650702 0
M  V30 18790 H 1778.76 0.278498 -1.929 0
M  V30 18791 H 1777.85 1.61367 -2.67146 0
M  V30 18792 N 1778.15 1.48666 0.52309 0
M  V30 18793 C 1779.57 1.50492 1.10495 0
M  V30 18794 C 1779.92 0.278579 1.94212 0
M  V30 18795 O 1779.04 -0.613679 2.07516 0
M  V30 18796 C 1779.64 2.72692 2.01058 0
M  V30 18797 C 1778.2 2.77368 2.54448 0
M  V30 18798 C 1777.34 2.44104 1.31562 0
M  V30 18799 H 1780.29 1.55682 0.308017 0
M  V30 18800 H 1780.31 2.51601 2.85442 0
M  V30 18801 H 1779.83 3.61931 1.401 0
M  V30 18802 H 1777.93 1.92356 3.19108 0
M  V30 18803 H 1778.04 3.78976 2.93111 0
M  V30 18804 H 1776.4 1.95407 1.63366 0
M  V30 18805 H 1777.19 3.35591 0.723455 0
M  V30 18806 N 1779.63 -0.772489 1.37369 0
M  V30 18807 C 1781.04 -1.34873 1.29098 0
M  V30 18808 C 1781.39 -1.96103 -0.0617433 0
M  V30 18809 O 1780.52 -1.93764 -0.963562 0
M  V30 18810 C 1781.11 -2.45218 2.33781 0
M  V30 18811 C 1779.67 -2.98612 2.29146 0
M  V30 18812 C 1778.82 -1.71823 2.17651 0
M  V30 18813 H 1781.77 -0.572805 1.48002 0
M  V30 18814 H 1781.79 -3.24679 1.98404 0
M  V30 18815 H 1781.3 -2.00624 3.32222 0
M  V30 18816 H 1779.41 -3.47583 1.34225 0
M  V30 18817 H 1779.52 -3.54276 3.22529 0
M  V30 18818 H 1777.88 -1.94719 1.64185 0
M  V30 18819 H 1778.67 -1.29334 3.18006 0
M  V30 18820 N 1781.11 -1.21927 -0.998575 0
M  V30 18821 C 1782.52 -1.03808 -1.5518 0
M  V30 18822 C 1782.87 0.400202 -1.92075 0
M  V30 18823 O 1782 1.28436 -1.74164 0
M  V30 18824 C 1782.59 -1.87814 -2.81978 0
M  V30 18825 C 1781.15 -1.74008 -3.33764 0
M  V30 18826 C 1780.3 -1.8463 -2.06899 0
M  V30 18827 H 1783.25 -1.35855 -0.820305 0
M  V30 18828 H 1783.27 -1.39219 -3.54116 0
M  V30 18829 H 1782.78 -2.92487 -2.55094 0
M  V30 18830 H 1780.88 -0.720445 -3.65569 0
M  V30 18831 H 1781 -2.56348 -4.0475 0
M  V30 18832 H 1779.36 -1.28007 -2.20196 0
M  V30 18833 H 1780.14 -2.90824 -1.82419 0
M  V30 18834 N 1782.59 1.19452 -1.02805 0
M  V30 18835 C 1784 1.70804 -0.753845 0
M  V30 18836 C 1784.35 1.8225 0.726584 0
M  V30 18837 O 1783.48 1.49307 1.56641 0
M  V30 18838 C 1784.07 3.10227 -1.36178 0
M  V30 18839 C 1782.63 3.58842 -1.13618 0
M  V30 18840 C 1781.78 2.3573 -1.46036 0
M  V30 18841 H 1784.73 1.04305 -1.19608 0
M  V30 18842 H 1784.75 3.72867 -0.758315 0
M  V30 18843 H 1784.26 3.01864 -2.43925 0
M  V30 18844 H 1782.36 3.72521 -0.0768914 0
M  V30 18845 H 1782.47 4.43008 -1.82431 0
M  V30 18846 H 1780.84 2.39027 -0.879669 0
M  V30 18847 H 1781.62 2.29998 -2.54864 0
M  V30 18848 N 1784.07 0.805805 1.35442 0
M  V30 18849 C 1785.34 0.309105 1.93142 0
M  V30 18850 C 1785.72 -1.20119 1.73593 0
M  V30 18851 O 1785.07 -2.00034 1.10448 0
M  V30 18852 C 1785.28 0.719653 3.415 0
M  V30 18853 C 1786.63 0.708697 4.18644 0
M  V30 18854 O 1787.65 0.661148 3.5001 0
M  V30 18855 O 1786.51 0.76636 5.411 0
M  V30 18856 H 1783.61 0.0806647 0.823057 0
M  V30 18857 H 1786.15 0.88945 1.44523 0
M  V30 18858 H 1784.92 1.7606 3.49455 0
M  V30 18859 H 1784.55 0.114073 3.97436 0
M  V30 18860 N 1785.54 -1.47344 0.559239 0
M  V30 18861 C 1786.47 -2.32839 -0.175542 0
M  V30 18862 C 1787.46 -1.43914 -0.906787 0
M  V30 18863 O 1788.64 -1.72767 -0.886855 0
M  V30 18864 C 1785.77 -3.25735 -1.20474 0
M  V30 18865 C 1784.72 -4.23916 -0.589825 0
M  V30 18866 C 1784.05 -5.06151 -1.7238 0
M  V30 18867 C 1785.35 -5.2029 0.457733 0
M  V30 18868 H 1787.04 -2.94522 0.538225 0
M  V30 18869 H 1784.59 -1.41628 0.260282 0
M  V30 18870 H 1786.54 -3.84388 -1.72695 0
M  V30 18871 H 1785.27 -2.62111 -1.94847 0
M  V30 18872 H 1783.93 -3.66492 -0.0888897 0
M  V30 18873 H 1783.57 -4.38929 -2.45663 0
M  V30 18874 H 1783.27 -5.72625 -1.31813 0
M  V30 18875 H 1784.8 -5.67663 -2.24923 0
M  V30 18876 H 1786.21 -5.73296 0.0215019 0
M  V30 18877 H 1784.61 -5.94978 0.7824 0
M  V30 18878 H 1785.68 -4.65645 1.35286 0
M  V30 18879 N 1787.02 -0.295795 -1.54799 0
M  V30 18880 C 1788.43 0.19789 -1.85648 0
M  V30 18881 C 1788.78 1.53834 -1.21776 0
M  V30 18882 O 1787.91 2.10218 -0.513554 0
M  V30 18883 C 1788.5 0.365844 -3.36819 0
M  V30 18884 C 1787.06 0.80375 -3.67718 0
M  V30 18885 C 1786.21 -0.0909572 -2.77151 0
M  V30 18886 H 1789.16 -0.516968 -1.50044 0
M  V30 18887 H 1789.18 1.20123 -3.61041 0
M  V30 18888 H 1788.69 -0.60991 -3.83278 0
M  V30 18889 H 1786.8 1.79024 -3.26774 0
M  V30 18890 H 1786.91 0.626745 -4.74983 0
M  V30 18891 H 1785.27 0.428882 -2.51063 0
M  V30 18892 H 1786.06 -1.06297 -3.26429 0
M  V30 18893 N 1788.5 1.57583 -0.0234236 0
M  V30 18894 C 1789.75 1.91186 0.655152 0
M  V30 18895 C 1790.07 0.89988 1.72995 0
M  V30 18896 O 1789.34 -0.0594278 1.9581 0
M  V30 18897 H 1787.92 0.705686 0.244982 0
M  V30 18898 H 1790.58 1.94775 -0.0698824 0
M  V30 18899 H 1789.68 2.91636 1.11152 0
M  V30 18900 N 1789.98 -0.249655 1.5561 0
M  V30 18901 C 1791.2 -0.999931 1.81703 0
M  V30 18902 C 1791.63 -1.7827 0.600113 0
M  V30 18903 O 1790.99 -1.75606 -0.450799 0
M  V30 18904 C 1791.04 -1.9157 3.05505 0
M  V30 18905 O 1790.14 -3.00702 2.82227 0
M  V30 18906 H 1789.48 -0.284673 0.599881 0
M  V30 18907 H 1792.01 -0.27148 2.02791 0
M  V30 18908 H 1792.02 -2.33088 3.34864 0
M  V30 18909 H 1790.7 -1.34014 3.93717 0
M  V30 18910 H 1789.27 -2.63332 2.64027 0
M  V30 18911 N 1791.46 -1.48941 -0.515198 0
M  V30 18912 C 1792.4 -1.64561 -1.61828 0
M  V30 18913 C 1793.37 -0.487323 -1.5879 0
M  V30 18914 O 1794.56 -0.712626 -1.76992 0
M  V30 18915 C 1791.7 -1.70506 -3.00036 0
M  V30 18916 C 1790.81 -2.97543 -3.13197 0
M  V30 18917 C 1789.95 -2.94555 -4.42053 0
M  V30 18918 C 1788.99 -4.16232 -4.48795 0
M  V30 18919 N 1788.12 -4.11236 -5.6906 0
M  V30 18920 H 1792.96 -2.58754 -1.47818 0
M  V30 18921 H 1790.5 -1.28307 -0.719423 0
M  V30 18922 H 1792.46 -1.71934 -3.80125 0
M  V30 18923 H 1791.09 -0.797907 -3.12783 0
M  V30 18924 H 1790.14 -3.05792 -2.26264 0
M  V30 18925 H 1791.45 -3.87532 -3.14039 0
M  V30 18926 H 1790.61 -2.94466 -5.30447 0
M  V30 18927 H 1789.35 -2.0232 -4.43754 0
M  V30 18928 H 1788.35 -4.1658 -3.58805 0
M  V30 18929 H 1789.58 -5.09644 -4.48821 0
M  V30 18930 H 1787.52 -3.2183 -5.7163 0
M  V30 18931 H 1787.44 -4.94945 -5.71459 0
M  V30 18932 H 1788.71 -4.15229 -6.59701 0
M  V30 18933 N 1792.94 0.765193 -1.37777 0
M  V30 18934 C 1794.21 1.51374 -1.23876 0
M  V30 18935 C 1794.59 2.10455 0.164852 0
M  V30 18936 O 1793.94 1.96084 1.17318 0
M  V30 18937 C 1794.15 2.58939 -2.33991 0
M  V30 18938 C 1795.5 3.26162 -2.71852 0
M  V30 18939 O 1796.52 2.69238 -2.33216 0
M  V30 18940 O 1795.38 4.29094 -3.38438 0
M  V30 18941 H 1792.48 0.670749 -0.48376 0
M  V30 18942 H 1795.02 0.801597 -1.49574 0
M  V30 18943 H 1793.79 2.13448 -3.27957 0
M  V30 18944 H 1793.42 3.37747 -2.09793 0
M  V30 18945 O 1794.45 1.3373 0.905451 0
M  V30 18946 H 1795.14 1.17475 1.54011 0
M  V30 END ATOM
M  V30 BEGIN BOND
M  V30 END BOND
M  V30 END CTAB
M  END
$$$$
