drugbank_target|Q8I4W4 Signal recognition particle receptor, beta subunit (DB11638)
 OpenBabel12092121113D

  0  0  0     0  0            999 V3000
M  V30 BEGIN CTAB
M  V30 COUNTS 4411 4455 0 0 0
M  V30 BEGIN ATOM
M  V30 1 H -0.908 1.98254 -0.117106 0
M  V30 2 N 0 1.576 0 0
M  V30 3 C 0.933 2.03868 1.02534 0
M  V30 4 C 1.911 0.928543 1.3348 0
M  V30 5 O 3.095 1.19667 1.45644 0
M  V30 6 C 0.222 2.43627 2.35294 0
M  V30 7 C -0.732 3.65373 2.2001 0
M  V30 8 S 0.101 5.13292 1.52614 0
M  V30 9 C 1.257 5.56322 2.86805 0
M  V30 10 H 1.49 2.90518 0.631377 0
M  V30 11 H -0.977 1.52953 0.210867 0
M  V30 12 H 0.981 2.67203 3.11629 0
M  V30 13 H -0.358 1.57376 2.7183 0
M  V30 14 H -1.165 3.90944 3.18086 0
M  V30 15 H -1.563 3.418 1.51819 0
M  V30 16 H 0.729 5.58782 3.83104 0
M  V30 17 H 1.672 6.56266 2.65933 0
M  V30 18 H 2.08 4.83886 2.90714 0
M  V30 19 N 1.4781 -0.272755 1.55222 0
M  V30 20 C 2.7551 -1.02562 1.66555 0
M  V30 21 C 3.1351 -2.04282 0.532189 0
M  V30 22 O 2.4831 -2.23662 -0.467717 0
M  V30 23 C 2.6931 -1.6822 3.05782 0
M  V30 24 C 4.0411 -2.19373 3.63539 0
M  V30 25 O 5.0651 -1.78206 3.08417 0
M  V30 26 O 3.9241 -2.94883 4.60115 0
M  V30 27 H 1.0181 -0.475755 0.676451 0
M  V30 28 H 3.5641 -0.268593 1.67561 0
M  V30 29 H 2.3361 -0.945112 3.79715 0
M  V30 30 H 1.9591 -2.50609 3.08676 0
M  V30 31 N 2.9562 -1.48159 -0.537278 0
M  V30 32 C 4.2052 -1.5506 -1.28993 0
M  V30 33 C 4.5182 -0.226211 -1.94288 0
M  V30 34 O 5.7242 -0.173395 -2.70946 0
M  V30 35 C 4.1802 -2.73429 -2.34018 0
M  V30 36 C 3.7882 -4.1248 -1.74825 0
M  V30 37 C 5.5322 -2.89638 -3.10339 0
M  V30 38 C 3.4392 -5.22121 -2.77747 0
M  V30 39 H 2.3692 -0.577231 -0.485098 0
M  V30 40 H 5.0202 -1.74478 -0.568317 0
M  V30 41 H 3.4022 -2.47431 -3.09182 0
M  V30 42 H 4.5762 -4.48466 -1.05899 0
M  V30 43 H 2.8912 -4.01327 -1.11022 0
M  V30 44 H 5.4882 -3.68718 -3.87235 0
M  V30 45 H 5.8312 -1.9882 -3.65754 0
M  V30 46 H 6.3642 -3.15502 -2.42288 0
M  V30 47 H 3.1032 -6.1488 -2.27161 0
M  V30 48 H 2.6232 -4.90631 -3.45024 0
M  V30 49 H 4.3022 -5.49924 -3.4087 0
M  V30 50 N 4.4343 0.785586 -1.36625 0
M  V30 51 C 5.3643 1.91259 -1.33949 0
M  V30 52 C 6.3453 1.68795 -0.210325 0
M  V30 53 O 7.5303 1.89854 -0.408561 0
M  V30 54 C 4.6603 3.28339 -1.13186 0
M  V30 55 C 3.6143 3.65335 -2.22967 0
M  V30 56 C 2.9403 5.00806 -1.87342 0
M  V30 57 C 4.2403 3.7352 -3.65075 0
M  V30 58 H 5.9343 1.93755 -2.28253 0
M  V30 59 H 3.4803 0.930788 -1.09874 0
M  V30 60 H 5.4333 4.06804 -1.09948 0
M  V30 61 H 4.1573 3.2624 -0.153332 0
M  V30 62 H 2.8163 2.89169 -2.25337 0
M  V30 63 H 2.4643 4.95233 -0.880545 0
M  V30 64 H 2.1643 5.26529 -2.60846 0
M  V30 65 H 3.6883 5.81687 -1.85667 0
M  V30 66 H 5.1023 4.42168 -3.64911 0
M  V30 67 H 3.4993 4.10731 -4.37516 0
M  V30 68 H 4.5693 2.74527 -3.99703 0
M  V30 69 N 5.9124 1.20967 1.01018 0
M  V30 70 C 6.8604 0.961223 2.1181 0
M  V30 71 C 7.8544 -0.0897034 1.69162 0
M  V30 72 O 9.0604 0.0612271 1.79896 0
M  V30 73 H 5.4354 0.29355 0.692338 0
M  V30 74 H 7.4064 1.90178 2.29946 0
M  V30 75 C 6.1554 0.536854 3.4353 0
M  V30 76 H 5.4784 1.33713 3.76777 0
M  V30 77 H 6.9184 0.402286 4.22087 0
M  V30 78 C 5.3774 -0.751574 3.2841 0
M  V30 79 O 5.9074 -1.80841 3.58691 0
M  V30 80 N 4.1134 -0.716079 2.81639 0
M  V30 81 H 3.6604 0.144236 2.57196 0
M  V30 82 H 3.6184 -1.57847 2.71904 0
M  V30 83 N 7.3905 -1.2043 1.01659 0
M  V30 84 C 8.3375 -2.23215 0.586822 0
M  V30 85 C 9.3075 -1.61382 -0.393085 0
M  V30 86 O 10.4925 -1.88544 -0.292525 0
M  V30 87 C 7.6325 -3.45032 -0.0687464 0
M  V30 88 C 6.7455 -4.21296 0.955724 0
M  V30 89 C 5.8805 -5.30507 0.271208 0
M  V30 90 C 4.9195 -5.98515 1.28244 0
M  V30 91 N 4.0565 -6.99316 0.62459 0
M  V30 92 H 8.8965 -2.59336 1.46796 0
M  V30 93 H 6.4335 -1.27431 0.734836 0
M  V30 94 H 8.3915 -4.1459 -0.465965 0
M  V30 95 H 7.0215 -3.09604 -0.913529 0
M  V30 96 H 6.0735 -3.50803 1.4711 0
M  V30 97 H 7.3855 -4.6803 1.72479 0
M  V30 98 H 6.5395 -6.06428 -0.18151 0
M  V30 99 H 5.2785 -4.8481 -0.530163 0
M  V30 100 H 4.2835 -5.21355 1.74554 0
M  V30 101 H 5.5085 -6.46298 2.08509 0
M  V30 102 H 3.4545 -6.55812 -0.156914 0
M  V30 103 H 3.3715 -7.44178 1.33172 0
M  V30 104 H 4.6395 -7.79255 0.195462 0
M  V30 105 N 8.8686 -0.792821 -1.36206 0
M  V30 106 C 10.1176 -0.363353 -1.984 0
M  V30 107 C 10.4306 1.07172 -1.63626 0
M  V30 108 O 11.6366 1.60362 -2.19081 0
M  V30 109 C 10.0926 -0.59872 -3.54885 0
M  V30 110 C 9.7006 -2.04543 -3.9858 0
M  V30 111 C 11.4446 -0.233926 -4.23855 0
M  V30 112 C 9.3516 -2.22727 -5.47856 0
M  V30 113 H 8.2816 -0.13212 -0.742334 0
M  V30 114 H 10.9326 -0.974935 -1.55458 0
M  V30 115 H 9.3146 0.0826222 -3.95914 0
M  V30 116 H 10.4886 -2.76345 -3.68741 0
M  V30 117 H 8.8036 -2.36879 -3.42458 0
M  V30 118 H 11.4006 -0.348027 -5.33566 0
M  V30 119 H 11.7436 0.818351 -4.08177 0
M  V30 120 H 12.2766 -0.868639 -3.882 0
M  V30 121 H 9.0156 -3.2635 -5.68486 0
M  V30 122 H 8.5356 -1.55434 -5.7931 0
M  V30 123 H 10.2146 -2.03607 -6.14128 0
M  V30 124 N 10.3467 1.47872 -0.545128 0
M  V30 125 C 11.5957 2.01695 -0.0145033 0
M  V30 126 C 11.9087 1.42609 1.33873 0
M  V30 127 O 13.1147 1.88021 1.95858 0
M  V30 128 C 11.5707 3.59892 0.0245068 0
M  V30 129 C 11.1787 4.27966 -1.32475 0
M  V30 130 C 12.9227 4.21507 0.50316 0
M  V30 131 C 10.8297 5.78136 -1.2455 0
M  V30 132 H 9.7597 0.753998 -0.00165172 0
M  V30 133 H 12.4107 1.69985 -0.691175 0
M  V30 134 H 10.7927 3.88509 0.766575 0
M  V30 135 H 11.9667 4.11003 -2.08357 0
M  V30 136 H 10.2817 3.78286 -1.74036 0
M  V30 137 H 12.8787 5.31538 0.580656 0
M  V30 138 H 13.2217 3.87855 1.51243 0
M  V30 139 H 13.7547 3.97376 -0.183681 0
M  V30 140 H 10.4937 6.16388 -2.23039 0
M  V30 141 H 10.0137 5.97469 -0.528282 0
M  V30 142 H 11.6927 6.40099 -0.942488 0
M  V30 143 N 11.8248 0.280983 1.55075 0
M  V30 144 C 12.7718 -0.603937 2.22758 0
M  V30 145 C 13.7418 -1.1452 1.20309 0
M  V30 146 O 14.9268 -1.19343 1.48869 0
M  V30 147 C 12.0668 -1.77947 2.95684 0
M  V30 148 C 11.1798 -1.2715 4.12864 0
M  V30 149 C 10.3148 -2.4093 4.7342 0
M  V30 150 C 9.3538 -1.87165 5.82783 0
M  V30 151 N 8.4908 -2.94441 6.37377 0
M  V30 152 H 13.3308 -0.020124 2.97993 0
M  V30 153 H 10.8678 0.00183425 1.471 0
M  V30 154 H 12.8258 -2.47055 3.36184 0
M  V30 155 H 11.4558 -2.33522 2.22861 0
M  V30 156 H 10.5078 -0.473331 3.77444 0
M  V30 157 H 11.8198 -0.837751 4.91715 0
M  V30 158 H 10.9738 -3.18021 5.1667 0
M  V30 159 H 9.7128 -2.87623 3.93859 0
M  V30 160 H 8.7178 -1.08556 5.38976 0
M  V30 161 H 9.9428 -1.41401 6.64216 0
M  V30 162 H 7.8888 -3.40505 5.60707 0
M  V30 163 H 7.8058 -2.55501 7.11516 0
M  V30 164 H 9.0738 -3.71489 6.85285 0
M  V30 165 N 13.3029 -1.57598 0.00835791 0
M  V30 166 C 14.5799 -1.82172 -0.712235 0
M  V30 167 C 14.9599 -0.887873 -1.9152 0
M  V30 168 O 14.3079 0.06146 -2.28417 0
M  V30 169 C 14.5179 -3.30875 -1.11008 0
M  V30 170 C 15.8659 -3.96826 -1.51044 0
M  V30 171 O 16.8899 -3.35248 -1.20364 0
M  V30 172 O 15.7489 -5.05318 -2.08125 0
M  V30 173 H 12.8429 -0.750435 -0.347529 0
M  V30 174 H 15.3889 -1.69665 0.0344523 0
M  V30 175 H 14.1609 -3.90481 -0.252982 0
M  V30 176 H 13.7839 -3.48412 -1.9156 0
M  V30 177 N 14.781 0.264519 -1.55364 0
M  V30 178 C 16.03 0.992812 -1.75574 0
M  V30 179 C 16.343 1.87142 -0.568979 0
M  V30 180 O 17.549 2.63513 -0.653682 0
M  V30 181 C 16.005 1.81519 -3.10771 0
M  V30 182 C 15.613 0.984839 -4.37041 0
M  V30 183 C 17.357 2.53727 -3.40327 0
M  V30 184 C 15.264 1.80209 -5.63275 0
M  V30 185 H 14.194 0.374412 -0.65447 0
M  V30 186 H 16.845 0.248138 -1.81815 0
M  V30 187 H 15.227 2.60115 -2.98591 0
M  V30 188 H 16.401 0.242455 -4.60162 0
M  V30 189 H 14.716 0.37691 -4.14691 0
M  V30 190 H 17.313 3.15292 -4.3185 0
M  V30 191 H 17.656 3.24447 -2.60845 0
M  V30 192 H 18.189 1.82156 -3.53644 0
M  V30 193 H 14.928 1.13896 -6.45529 0
M  V30 194 H 14.448 2.52022 -5.44284 0
M  V30 195 H 16.127 2.37364 -6.01887 0
M  V30 196 N 16.2591 1.48442 0.529413 0
M  V30 197 C 17.5081 1.55742 1.28169 0
M  V30 198 C 17.8211 0.236511 1.94165 0
M  V30 199 O 19.0271 0.187761 2.7085 0
M  V30 200 C 17.4831 2.74667 2.32564 0
M  V30 201 C 17.0911 4.13402 1.72636 0
M  V30 202 C 18.8351 2.9128 3.08798 0
M  V30 203 C 16.7421 5.23587 2.74975 0
M  V30 204 H 15.6721 0.579796 0.48203 0
M  V30 205 H 18.3231 1.74776 0.559056 0
M  V30 206 H 16.7051 2.49067 3.07866 0
M  V30 207 H 17.8791 4.49022 1.03519 0
M  V30 208 H 16.1941 4.0191 1.08892 0
M  V30 209 H 18.7911 3.70767 3.85274 0
M  V30 210 H 19.1341 2.00757 3.64695 0
M  V30 211 H 19.6671 3.16782 2.40611 0
M  V30 212 H 16.4061 6.16076 2.23897 0
M  V30 213 H 15.9261 4.92454 3.42417 0
M  V30 214 H 17.6051 5.51724 3.37949 0
M  V30 215 N 17.7372 -0.778329 1.37039 0
M  V30 216 C 18.9672 -1.56507 1.34868 0
M  V30 217 C 19.3752 -1.89072 -0.0694802 0
M  V30 218 O 18.7182 -1.51434 -1.03987 0
M  V30 219 C 18.7802 -2.90641 2.11585 0
M  V30 220 C 18.4442 -2.80746 3.60598 0
M  V30 221 C 19.4412 -2.52226 4.54618 0
M  V30 222 C 17.1262 -2.98974 4.03633 0
M  V30 223 C 19.1202 -2.42054 5.89651 0
M  V30 224 C 16.8072 -2.88423 5.38754 0
M  V30 225 C 17.8052 -2.60002 6.31576 0
M  V30 226 O 17.4932 -2.49465 7.64214 0
M  V30 227 H 17.2252 -0.491723 0.463879 0
M  V30 228 H 19.7792 -0.973053 1.80889 0
M  V30 229 H 18.0092 -3.51936 1.60243 0
M  V30 230 H 19.6982 -3.51992 2.0213 0
M  V30 231 H 20.4642 -2.37835 4.22681 0
M  V30 232 H 16.3432 -3.20099 3.31749 0
M  V30 233 H 19.8872 -2.19791 6.62071 0
M  V30 234 H 15.7842 -3.0238 5.70295 0
M  V30 235 H 16.5522 -2.64864 7.74461 0
M  V30 236 N 19.2153 -1.21501 -1.00376 0
M  V30 237 C 20.1623 -0.975387 -2.09177 0
M  V30 238 C 21.1323 0.0990615 -1.65804 0
M  V30 239 O 22.3173 -0.0483147 -1.90739 0
M  V30 240 C 19.4573 -0.547507 -3.40729 0
M  V30 241 C 18.5703 -1.69153 -3.97506 0
M  V30 242 C 17.7053 -1.2127 -5.17172 0
M  V30 243 C 16.7443 -2.32897 -5.66061 0
M  V30 244 N 15.8813 -1.86138 -6.76976 0
M  V30 245 H 20.7213 -1.9068 -2.29009 0
M  V30 246 H 18.2583 -0.950257 -1.12288 0
M  V30 247 H 20.2163 -0.280667 -4.16255 0
M  V30 248 H 18.8463 0.346904 -3.20931 0
M  V30 249 H 17.8983 -2.07298 -3.18954 0
M  V30 250 H 19.2103 -2.5316 -4.29781 0
M  V30 251 H 18.3643 -0.902591 -5.99948 0
M  V30 252 H 17.1033 -0.342692 -4.86495 0
M  V30 253 H 16.1083 -2.64709 -4.81881 0
M  V30 254 H 17.3333 -3.20396 -5.98768 0
M  V30 255 H 15.2793 -1.01484 -6.48103 0
M  V30 256 H 15.1963 -2.63717 -7.08512 0
M  V30 257 H 16.4643 -1.58165 -7.63285 0
M  V30 258 N 20.6934 1.19889 -1.02296 0
M  V30 259 C 21.9424 1.88743 -0.711257 0
M  V30 260 C 22.2554 1.80112 0.762817 0
M  V30 261 O 23.4614 2.44161 1.18733 0
M  V30 262 C 21.9174 3.38525 -1.22185 0
M  V30 263 C 21.5254 3.55727 -2.72328 0
M  V30 264 C 23.2694 4.12893 -0.985864 0
M  V30 265 C 21.1764 4.99369 -3.16835 0
M  V30 266 H 20.1064 0.706885 -0.262353 0
M  V30 267 H 22.7574 1.35586 -1.23648 0
M  V30 268 H 21.1394 3.91044 -0.624571 0
M  V30 269 H 22.3134 3.13564 -3.3766 0
M  V30 270 H 20.6284 2.94739 -2.9414 0
M  V30 271 H 23.2254 5.18813 -1.29374 0
M  V30 272 H 23.5684 4.16228 0.0775055 0
M  V30 273 H 24.1014 3.66494 -1.54684 0
M  V30 274 H 20.8404 5.01193 -4.22476 0
M  V30 275 H 20.3604 5.42317 -2.56228 0
M  V30 276 H 22.0394 5.67988 -3.09837 0
M  V30 277 N 22.1715 0.800033 1.35784 0
M  V30 278 C 23.1185 0.203848 2.29898 0
M  V30 279 C 24.0885 -0.658375 1.52495 0
M  V30 280 O 25.2735 -0.604832 1.8096 0
M  V30 281 C 22.4135 -0.64688 3.38983 0
M  V30 282 C 21.5265 0.235054 4.3136 0
M  V30 283 C 20.6615 -0.623054 5.27533 0
M  V30 284 C 19.7005 0.259682 6.11549 0
M  V30 285 N 18.8375 -0.558019 6.99879 0
M  V30 286 H 23.6775 1.01186 2.80295 0
M  V30 287 H 21.2145 0.51053 1.37957 0
M  V30 288 H 23.1725 -1.15521 4.00887 0
M  V30 289 H 21.8025 -1.42021 2.89879 0
M  V30 290 H 20.8545 0.861438 3.70518 0
M  V30 291 H 22.1665 0.914768 4.9034 0
M  V30 292 H 21.3205 -1.19678 5.94779 0
M  V30 293 H 20.0595 -1.33636 4.69034 0
M  V30 294 H 19.0645 0.845726 5.43256 0
M  V30 295 H 20.2895 0.970748 6.72126 0
M  V30 296 H 18.2355 -1.25542 6.43875 0
M  V30 297 H 18.1525 0.0637872 7.55973 0
M  V30 298 H 19.4205 -1.11523 7.71481 0
M  V30 299 N 23.6496 -1.47581 0.552962 0
M  V30 300 C 24.8986 -2.01684 0.0251995 0
M  V30 301 C 25.2116 -1.43317 -1.33115 0
M  V30 302 O 26.4176 -1.89057 -1.94858 0
M  V30 303 C 24.8736 -3.599 -0.00542052 0
M  V30 304 C 24.4816 -4.27257 1.34742 0
M  V30 305 C 26.2256 -4.21768 -0.4808 0
M  V30 306 C 24.1326 -5.77467 1.27614 0
M  V30 307 H 23.0626 -0.753979 0.00565033 0
M  V30 308 H 25.7136 -1.69616 0.70018 0
M  V30 309 H 24.0956 -3.88911 -0.745961 0
M  V30 310 H 25.2696 -4.09893 2.10534 0
M  V30 311 H 23.5846 -3.77358 1.76039 0
M  V30 312 H 26.1816 -5.31838 -0.55246 0
M  V30 313 H 26.5246 -3.88651 -1.49184 0
M  V30 314 H 27.0576 -3.97273 0.204752 0
M  V30 315 H 23.7966 -6.15196 2.26304 0
M  V30 316 H 23.3166 -5.9718 0.55996 0
M  V30 317 H 24.9956 -6.3959 0.976421 0
M  V30 318 N 25.1277 -0.289203 -1.54924 0
M  V30 319 C 26.3577 0.325989 -2.04012 0
M  V30 320 C 26.7657 1.48961 -1.1665 0
M  V30 321 O 26.1087 1.82794 -0.1822 0
M  V30 322 C 26.1707 0.856112 -3.49158 0
M  V30 323 C 25.8347 -0.180697 -4.56643 0
M  V30 324 C 26.8317 -1.0051 -5.10092 0
M  V30 325 C 24.5167 -0.318998 -5.01286 0
M  V30 326 C 26.5107 -1.95385 -6.06715 0
M  V30 327 C 24.1977 -1.27121 -5.97732 0
M  V30 328 C 25.1957 -2.08713 -6.50329 0
M  V30 329 O 24.8837 -3.02322 -7.44887 0
M  V30 330 H 24.6157 0.0765276 -0.671654 0
M  V30 331 H 27.1697 -0.423254 -2.00992 0
M  V30 332 H 25.3997 1.65567 -3.49463 0
M  V30 333 H 27.0887 1.38591 -3.81507 0
M  V30 334 H 27.8547 -0.90906 -4.76404 0
M  V30 335 H 23.7337 0.306108 -4.59983 0
M  V30 336 H 27.2777 -2.59111 -6.47694 0
M  V30 337 H 23.1747 -1.36801 -6.30837 0
M  V30 338 H 23.9427 -2.97165 -7.6265 0
M  V30 339 N 26.6058 1.57591 -0.0167156 0
M  V30 340 C 27.5558 2.05953 0.978137 0
M  V30 341 C 28.5398 0.957532 1.29306 0
M  V30 342 O 29.7318 1.22119 1.28125 0
M  V30 343 C 26.8608 2.58006 2.26468 0
M  V30 344 C 25.9468 3.75113 1.97867 0
M  V30 345 N 26.3378 4.86187 1.39486 0
M  V30 346 C 24.6358 3.83363 2.27924 0
M  V30 347 C 25.3368 5.67502 1.27735 0
M  V30 348 N 24.3128 5.14023 1.76866 0
M  V30 349 H 28.1148 2.89236 0.521522 0
M  V30 350 H 25.6288 1.61301 0.188596 0
M  V30 351 H 27.6258 2.90937 2.98599 0
M  V30 352 H 26.2858 1.76148 2.72767 0
M  V30 353 H 27.2968 5.06695 1.07147 0
M  V30 354 H 23.9738 3.1239 2.76982 0
M  V30 355 H 25.3638 6.66791 0.826978 0
M  V30 356 N 28.0839 -0.256276 1.55502 0
M  V30 357 C 29.3299 -0.987079 1.77157 0
M  V30 358 C 29.6629 -1.85327 0.580315 0
M  V30 359 O 28.9379 -1.89874 -0.421686 0
M  V30 360 C 29.2209 -1.85553 3.08613 0
M  V30 361 C 29.0739 -1.01816 4.38125 0
M  V30 362 C 30.3929 -2.8397 3.36228 0
M  V30 363 H 27.5119 -0.357428 0.644526 0
M  V30 364 H 30.1539 -0.258239 1.88237 0
M  V30 365 H 28.3039 -2.47695 2.99298 0
M  V30 366 H 29.9759 -0.416159 4.59419 0
M  V30 367 H 28.2189 -0.322178 4.32602 0
M  V30 368 H 28.8899 -1.65939 5.26468 0
M  V30 369 H 31.3659 -2.31964 3.45445 0
M  V30 370 H 30.2419 -3.41864 4.29442 0
M  V30 371 H 30.5029 -3.59955 2.56681 0
M  V30 372 N 29.562 -1.4872 -0.521534 0
M  V30 373 C 30.509 -1.63871 -1.62527 0
M  V30 374 C 31.479 -0.480559 -1.58996 0
M  V30 375 O 32.664 -0.705085 -1.77294 0
M  V30 376 C 29.804 -1.69227 -3.00759 0
M  V30 377 C 28.917 -2.96207 -3.14461 0
M  V30 378 C 28.052 -2.92671 -4.43303 0
M  V30 379 C 27.091 -4.14318 -4.50563 0
M  V30 380 N 26.228 -4.0881 -5.70805 0
M  V30 381 H 31.068 -2.58123 -1.48918 0
M  V30 382 H 28.605 -1.28 -0.724878 0
M  V30 383 H 30.563 -1.70314 -3.80853 0
M  V30 384 H 29.193 -0.784586 -3.1312 0
M  V30 385 H 28.245 -3.04826 -2.27564 0
M  V30 386 H 29.557 -3.86192 -3.15686 0
M  V30 387 H 28.711 -2.92206 -5.31696 0
M  V30 388 H 27.45 -2.00429 -4.44612 0
M  V30 389 H 26.455 -4.15049 -3.60575 0
M  V30 390 H 27.68 -5.07729 -4.50986 0
M  V30 391 H 25.626 -3.19394 -5.72995 0
M  V30 392 H 25.543 -4.92509 -5.7356 0
M  V30 393 H 26.811 -4.12418 -6.61462 0
M  V30 394 N 31.0401 0.771051 -1.3745 0
M  V30 395 C 32.2701 1.55789 -1.35696 0
M  V30 396 C 32.6781 1.89107 0.0594523 0
M  V30 397 O 32.0211 1.51984 1.03183 0
M  V30 398 C 32.0831 2.89515 -2.13123 0
M  V30 399 C 31.7471 2.78829 -3.62082 0
M  V30 400 C 32.7441 2.49812 -4.5595 0
M  V30 401 C 30.4291 2.9683 -4.05213 0
M  V30 402 C 32.4231 2.38923 -5.90927 0
M  V30 403 C 30.1101 2.85562 -5.40276 0
M  V30 404 C 31.1081 2.56649 -6.32946 0
M  V30 405 O 30.7961 2.45408 -7.65526 0
M  V30 406 H 30.5281 0.489257 -0.466481 0
M  V30 407 H 33.0821 0.963446 -1.81403 0
M  V30 408 H 31.3121 3.51081 -1.62107 0
M  V30 409 H 33.0011 3.50915 -2.03994 0
M  V30 410 H 33.7671 2.3559 -4.23937 0
M  V30 411 H 29.6461 3.18335 -3.33442 0
M  V30 412 H 33.1901 2.16277 -6.63227 0
M  V30 413 H 29.0871 2.99351 -5.71891 0
M  V30 414 H 29.8551 2.60753 -7.75855 0
M  V30 415 N 32.5182 1.22032 0.997298 0
M  V30 416 C 33.7662 1.04016 1.73278 0
M  V30 417 C 34.0872 -0.426255 1.90284 0
M  V30 418 O 33.3572 -1.30694 1.45931 0
M  V30 419 H 31.9372 0.381897 0.642 0
M  V30 420 H 34.5992 1.5347 1.20137 0
M  V30 421 H 33.6952 1.51441 2.72896 0
M  V30 422 N 33.9963 -1.19345 1.0293 0
M  V30 423 C 35.2453 -1.88363 0.721256 0
M  V30 424 C 35.5583 -1.80514 -0.753254 0
M  V30 425 O 36.7643 -2.44788 -1.17436 0
M  V30 426 C 35.2203 -3.37872 1.23978 0
M  V30 427 C 34.8283 -3.54278 2.74211 0
M  V30 428 C 36.5723 -4.12365 1.00775 0
M  V30 429 C 34.4793 -4.97682 3.19479 0
M  V30 430 H 33.4093 -0.705484 0.266098 0
M  V30 431 H 36.0603 -1.34928 1.24365 0
M  V30 432 H 34.4423 -3.90707 0.6453 0
M  V30 433 H 35.6163 -3.11769 3.39318 0
M  V30 434 H 33.9313 -2.93174 2.95699 0
M  V30 435 H 36.5283 -5.18119 1.32123 0
M  V30 436 H 36.8713 -4.16263 -0.0554308 0
M  V30 437 H 37.4043 -3.65668 1.56625 0
M  V30 438 H 34.1433 -4.98945 4.25128 0
M  V30 439 H 33.6633 -5.4095 2.591 0
M  V30 440 H 35.3423 -5.66337 3.12845 0
M  V30 441 N 35.4744 -0.807222 -1.35358 0
M  V30 442 C 36.4244 -0.190706 -2.27201 0
M  V30 443 C 37.4084 0.635838 -1.47804 0
M  V30 444 O 38.6004 0.492991 -1.69996 0
M  V30 445 C 35.7294 0.659337 -3.36909 0
M  V30 446 C 34.8154 -0.176971 -4.23731 0
M  V30 447 N 35.2064 -1.24029 -4.90357 0
M  V30 448 C 33.5044 0.0412953 -4.45981 0
M  V30 449 C 34.2054 -1.75092 -5.54723 0
M  V30 450 N 33.1814 -1.05727 -5.33219 0
M  V30 451 H 36.9834 -1.0043 -2.76208 0
M  V30 452 H 34.4974 -0.648445 -1.48892 0
M  V30 453 H 36.4944 1.11706 -4.01656 0
M  V30 454 H 35.1544 1.47127 -2.89454 0
M  V30 455 H 36.1654 -1.62295 -4.91814 0
M  V30 456 H 32.8424 0.82232 -4.09322 0
M  V30 457 H 34.2324 -2.63963 -6.17878 0
M  V30 458 N 36.9525 1.47285 -0.560781 0
M  V30 459 C 37.8825 2.32857 0.173105 0
M  V30 460 C 38.8635 1.44009 0.905281 0
M  V30 461 O 40.0485 1.7286 0.885046 0
M  V30 462 C 37.1785 3.25861 1.20133 0
M  V30 463 C 36.1325 4.23978 0.585388 0
M  V30 464 C 35.4585 5.06332 1.7185 0
M  V30 465 C 36.7585 5.20242 -0.463178 0
M  V30 466 H 38.4525 2.94466 -0.541307 0
M  V30 467 H 35.9985 1.41601 -0.261764 0
M  V30 468 H 37.9515 3.84569 1.72293 0
M  V30 469 H 36.6755 2.62315 1.94573 0
M  V30 470 H 35.3345 3.66501 0.085054 0
M  V30 471 H 34.9825 4.39186 2.45203 0
M  V30 472 H 34.6825 5.72762 1.31213 0
M  V30 473 H 36.2065 5.67899 2.24329 0
M  V30 474 H 37.6205 5.73293 -0.027502 0
M  V30 475 H 36.0175 5.94896 -0.788627 0
M  V30 476 H 37.0875 4.65504 -1.35773 0
M  V30 477 N 38.4306 0.297415 1.54768 0
M  V30 478 C 39.3786 -0.596051 2.24833 0
M  V30 479 C 40.3726 -1.13992 1.25308 0
M  V30 480 O 41.5786 -1.09098 1.4317 0
M  V30 481 H 37.9536 -0.210814 0.721846 0
M  V30 482 H 39.9246 0.0174667 2.98395 0
M  V30 483 C 38.6736 -1.75818 2.99972 0
M  V30 484 H 37.9966 -1.3489 3.76357 0
M  V30 485 H 39.4366 -2.35949 3.52284 0
M  V30 486 C 37.8956 -2.66014 2.06732 0
M  V30 487 O 38.4256 -3.67009 1.63302 0
M  V30 488 N 36.6316 -2.33669 1.72763 0
M  V30 489 H 36.1786 -1.51586 2.08277 0
M  V30 490 H 36.1366 -2.94285 1.10652 0
M  V30 491 N 39.9087 -1.5758 0.0250728 0
M  V30 492 C 41.1857 -1.82917 -0.692873 0
M  V30 493 C 41.5657 -0.908137 -1.90568 0
M  V30 494 O 40.9137 0.0372298 -2.2847 0
M  V30 495 C 41.1237 -3.32034 -1.07492 0
M  V30 496 C 42.4717 -3.98406 -1.46826 0
M  V30 497 O 43.4957 -3.36505 -1.16801 0
M  V30 498 O 42.3547 -5.07497 -2.02754 0
M  V30 499 H 39.4487 -0.754079 -0.33955 0
M  V30 500 H 41.9947 -1.69619 0.0524456 0
M  V30 501 H 40.7667 -3.90728 -0.211552 0
M  V30 502 H 40.3897 -3.50424 -1.87854 0
M  V30 503 N 41.3868 0.248026 -1.55636 0
M  V30 504 C 42.6338 0.976224 -1.77415 0
M  V30 505 C 42.9618 1.85361 -0.589193 0
M  V30 506 O 42.2168 1.90973 0.427529 0
M  V30 507 C 42.5158 1.86819 -3.04686 0
M  V30 508 C 42.1818 1.14625 -4.36087 0
M  V30 509 C 40.8438 0.946723 -4.71795 0
M  V30 510 C 43.1958 0.634463 -5.17324 0
M  V30 511 C 40.5238 0.223091 -5.86276 0
M  V30 512 C 42.8758 -0.0756959 -6.32555 0
M  V30 513 C 41.5398 -0.286711 -6.66884 0
M  V30 514 H 40.8098 0.357226 -0.649208 0
M  V30 515 H 43.4568 0.246415 -1.89908 0
M  V30 516 H 41.7618 2.66502 -2.872 0
M  V30 517 H 43.4588 2.43329 -3.18735 0
M  V30 518 H 40.0488 1.3117 -4.08035 0
M  V30 519 H 44.2328 0.77616 -4.90193 0
M  V30 520 H 39.4888 0.0491185 -6.1138 0
M  V30 521 H 43.6628 -0.479899 -6.94745 0
M  V30 522 H 41.2898 -0.849389 -7.5544 0
M  V30 523 N 42.8649 1.48995 0.513639 0
M  V30 524 C 43.8149 1.61127 1.61314 0
M  V30 525 C 44.7989 0.467521 1.53958 0
M  V30 526 O 45.9909 0.719826 1.61702 0
M  V30 527 C 43.1199 1.66937 2.99978 0
M  V30 528 C 42.2059 2.86847 3.12377 0
M  V30 529 N 42.5969 4.11078 2.94701 0
M  V30 530 C 40.8949 2.84521 3.43459 0
M  V30 531 C 41.5959 4.91615 3.10949 0
M  V30 532 N 40.5719 4.24739 3.3926 0
M  V30 533 H 44.3739 2.54909 1.46282 0
M  V30 534 H 41.8879 1.45593 0.719483 0
M  V30 535 H 43.8849 1.73725 3.78979 0
M  V30 536 H 42.5449 0.742831 3.16089 0
M  V30 537 H 43.5559 4.41258 2.71131 0
M  V30 538 H 40.2329 2.01192 3.65825 0
M  V30 539 H 41.6229 6.00264 3.01882 0
M  V30 540 N 44.343 -0.763751 1.37857 0
M  V30 541 C 45.291 -1.89864 1.34367 0
M  V30 542 C 46.285 -1.67816 0.231143 0
M  V30 543 O 47.491 -1.75508 0.399617 0
M  V30 544 H 43.866 -0.624501 0.41893 0
M  V30 545 H 45.837 -1.89925 2.30155 0
M  V30 546 C 44.586 -3.27227 1.1755 0
M  V30 547 H 43.909 -3.44773 2.02414 0
M  V30 548 H 45.349 -4.06911 1.1916 0
M  V30 549 C 43.808 -3.36692 -0.118311 0
M  V30 550 O 44.338 -3.86374 -1.09902 0
M  V30 551 N 42.544 -2.90092 -0.171717 0
M  V30 552 H 42.091 -2.49853 0.627012 0
M  V30 553 H 42.049 -2.96806 -1.03699 0
M  V30 554 N 45.8211 -1.22559 -0.990812 0
M  V30 555 C 46.7511 -1.0218 -2.09956 0
M  V30 556 C 47.7321 0.0579394 -1.70001 0
M  V30 557 O 48.9171 -0.104684 -1.93918 0
M  V30 558 C 46.0471 -0.601023 -3.4206 0
M  V30 559 C 45.0011 -1.62694 -3.95872 0
M  V30 560 C 44.3271 -1.06193 -5.24049 0
M  V30 561 C 45.6271 -3.01743 -4.2632 0
M  V30 562 H 47.3211 -1.94916 -2.27262 0
M  V30 563 H 44.8671 -0.938566 -1.09211 0
M  V30 564 H 46.8201 -0.445561 -4.19038 0
M  V30 565 H 45.5441 0.362005 -3.24588 0
M  V30 566 H 44.2031 -1.77021 -3.21028 0
M  V30 567 H 43.8511 -0.0901903 -5.02919 0
M  V30 568 H 43.5511 -1.74732 -5.61019 0
M  V30 569 H 45.0751 -0.918092 -6.03658 0
M  V30 570 H 46.4891 -2.90777 -4.94087 0
M  V30 571 H 44.8861 -3.67425 -4.74467 0
M  V30 572 H 45.9561 -3.51518 -3.34011 0
M  V30 573 N 47.2992 1.18797 -1.03562 0
M  V30 574 C 48.2292 2.24472 -0.643019 0
M  V30 575 C 49.2102 1.66433 0.351283 0
M  V30 576 O 50.3952 1.92803 0.232505 0
M  V30 577 C 47.5252 3.473 4.24935e-05 0
M  V30 578 C 46.4792 4.18055 -0.917257 0
M  V30 579 C 45.8052 5.34519 -0.138941 0
M  V30 580 C 47.1052 4.72109 -2.23407 0
M  V30 581 H 48.7992 2.57566 -1.52643 0
M  V30 582 H 46.3452 1.23806 -0.735394 0
M  V30 583 H 48.2982 4.20426 0.286383 0
M  V30 584 H 47.0222 3.13424 0.918299 0
M  V30 585 H 45.6812 3.46821 -1.1879 0
M  V30 586 H 45.3292 4.96891 0.781562 0
M  V30 587 H 45.0292 5.82794 -0.750005 0
M  V30 588 H 46.5532 6.10438 0.1405 0
M  V30 589 H 47.9672 5.36955 -2.00879 0
M  V30 590 H 46.3642 5.30897 -2.79765 0
M  V30 591 H 47.4342 3.89807 -2.88407 0
M  V30 592 N 48.7773 0.814389 1.34928 0
M  V30 593 C 50.0243 0.398423 1.98542 0
M  V30 594 C 50.3523 -1.03638 1.64589 0
M  V30 595 O 49.6073 -1.73509 0.90516 0
M  V30 596 C 49.9063 0.537781 3.53331 0
M  V30 597 C 49.5723 1.93704 4.07172 0
M  V30 598 C 48.2343 2.31984 4.21589 0
M  V30 599 C 50.5863 2.85213 4.36237 0
M  V30 600 C 47.9143 3.61125 4.62391 0
M  V30 601 C 50.2663 4.13809 4.78482 0
M  V30 602 C 48.9303 4.52077 4.91104 0
M  V30 603 H 48.2003 0.145793 0.726516 0
M  V30 604 H 50.8473 1.03669 1.61012 0
M  V30 605 H 49.1523 -0.183906 3.91368 0
M  V30 606 H 50.8493 0.196588 4.00518 0
M  V30 607 H 47.4393 1.62966 3.96409 0
M  V30 608 H 51.6233 2.56885 4.24645 0
M  V30 609 H 46.8793 3.90612 4.70353 0
M  V30 610 H 51.0533 4.84811 4.99932 0
M  V30 611 H 48.6803 5.52196 5.22478 0
M  V30 612 N 50.2554 -1.46986 0.568584 0
M  V30 613 C 51.5014 -2.02741 0.0488709 0
M  V30 614 C 51.8344 -1.44077 -1.30214 0
M  V30 615 O 51.1094 -0.600552 -1.84996 0
M  V30 616 C 51.3924 -3.60086 -0.032047 0
M  V30 617 C 51.2454 -4.29162 1.34686 0
M  V30 618 C 52.5644 -4.33838 -0.739798 0
M  V30 619 H 49.6834 -0.736749 0.0192338 0
M  V30 620 H 52.3254 -1.75289 0.733065 0
M  V30 621 H 50.4754 -3.83606 -0.61473 0
M  V30 622 H 52.1474 -4.16948 1.97362 0
M  V30 623 H 50.3904 -3.89073 1.91846 0
M  V30 624 H 51.0614 -5.37826 1.24285 0
M  V30 625 H 53.5374 -4.15378 -0.244939 0
M  V30 626 H 52.4134 -5.43537 -0.765406 0
M  V30 627 H 52.6744 -4.03875 -1.79827 0
M  V30 628 N 51.7335 -0.305618 -1.54608 0
M  V30 629 C 52.9825 0.303098 -1.9941 0
M  V30 630 C 53.2955 1.54648 -1.19764 0
M  V30 631 O 54.5015 2.23007 -1.54855 0
M  V30 632 C 52.9575 0.590588 -3.55021 0
M  V30 633 C 52.5655 -0.634719 -4.43481 0
M  V30 634 C 54.3095 1.16025 -4.08336 0
M  V30 635 C 52.2165 -0.320126 -5.90533 0
M  V30 636 H 51.1465 0.117031 -0.744862 0
M  V30 637 H 53.7975 -0.415045 -1.78745 0
M  V30 638 H 52.1795 1.36845 -3.71604 0
M  V30 639 H 53.3535 -1.41079 -4.38672 0
M  V30 640 H 51.6685 -1.12333 -4.00962 0
M  V30 641 H 54.2655 1.40994 -5.15776 0
M  V30 642 H 54.6085 2.10397 -3.5922 0
M  V30 643 H 55.1415 0.443985 -3.95315 0
M  V30 644 H 51.8805 -1.23254 -6.43808 0
M  V30 645 H 51.4005 0.418579 -5.98338 0
M  V30 646 H 53.0795 0.0766241 -6.46955 0
M  V30 647 N 53.2116 1.57565 -0.0334293 0
M  V30 648 C 54.4396 1.9628 0.654347 0
M  V30 649 C 54.8546 0.910138 1.65414 0
M  V30 650 O 54.2116 -0.107595 1.82183 0
M  V30 651 C 54.2626 3.35067 1.35693 0
M  V30 652 O 53.9836 4.36296 0.397191 0
M  V30 653 C 55.4846 3.88439 2.13613 0
M  V30 654 H 52.7046 0.646369 0.180132 0
M  V30 655 H 55.2486 2.04282 -0.0944721 0
M  V30 656 H 53.4036 3.2827 2.05712 0
M  V30 657 H 53.8176 5.1678 0.896597 0
M  V30 658 H 55.2916 4.8788 2.58219 0
M  V30 659 H 55.7686 3.22914 2.97696 0
M  V30 660 H 56.3746 3.98516 1.48543 0
M  V30 661 N 54.6897 -0.239769 1.55765 0
M  V30 662 C 55.6197 -1.30052 1.9393 0
M  V30 663 C 56.6007 -1.49839 0.805132 0
M  V30 664 O 57.7857 -1.62328 1.06599 0
M  V30 665 C 54.9157 -2.65391 2.2402 0
M  V30 666 C 53.8697 -2.60289 3.39755 0
M  V30 667 C 53.1957 -3.99489 3.55405 0
M  V30 668 C 54.4957 -2.16654 4.75246 0
M  V30 669 H 56.1897 -0.983573 2.82783 0
M  V30 670 H 53.7357 -0.471701 1.36055 0
M  V30 671 H 55.6887 -3.3974 2.49308 0
M  V30 672 H 54.4127 -2.98736 1.32 0
M  V30 673 H 53.0717 -1.88398 3.14487 0
M  V30 674 H 52.7197 -4.30112 2.60793 0
M  V30 675 H 52.4197 -3.96962 4.33238 0
M  V30 676 H 53.9437 -4.75528 3.83022 0
M  V30 677 H 55.3577 -2.80737 4.99859 0
M  V30 678 H 53.7547 -2.25223 5.56232 0
M  V30 679 H 54.8247 -1.11835 4.71827 0
M  V30 680 N 56.1678 -1.49265 -0.50573 0
M  V30 681 C 57.0978 -1.68495 -1.61653 0
M  V30 682 C 58.0788 -0.53366 -1.61512 0
M  V30 683 O 59.2638 -0.76897 -1.78327 0
M  V30 684 C 56.3938 -1.74709 -3.00157 0
M  V30 685 C 55.3478 -2.89581 -3.15162 0
M  V30 686 C 54.6738 -2.80903 -4.5497 0
M  V30 687 C 55.9738 -4.30578 -2.95634 0
M  V30 688 H 57.6678 -2.61493 -1.45814 0
M  V30 689 H 55.2138 -1.25838 -0.70005 0
M  V30 690 H 57.1668 -1.86748 -3.77761 0
M  V30 691 H 55.8908 -0.783067 -3.17074 0
M  V30 692 H 54.5498 -2.77136 -2.39982 0
M  V30 693 H 54.1978 -1.82419 -4.68756 0
M  V30 694 H 53.8978 -3.57999 -4.65951 0
M  V30 695 H 55.4218 -2.94944 -5.34641 0
M  V30 696 H 56.8358 -4.4373 -3.63011 0
M  V30 697 H 55.2328 -5.0886 -3.18091 0
M  V30 698 H 56.3028 -4.45352 -1.91806 0
M  V30 699 N 57.6459 0.756429 -1.3826 0
M  V30 700 C 58.8929 1.51547 -1.34312 0
M  V30 701 C 59.2209 1.94382 0.0677144 0
M  V30 702 O 58.4759 1.65514 1.04421 0
M  V30 703 C 58.7749 2.78313 -2.24224 0
M  V30 704 C 58.4409 2.54455 -3.72241 0
M  V30 705 C 57.1029 2.47657 -4.12576 0
M  V30 706 C 59.4549 2.3354 -4.65949 0
M  V30 707 C 56.7829 2.17956 -5.44713 0
M  V30 708 C 59.1349 2.05359 -5.9834 0
M  V30 709 C 57.7989 1.97016 -6.37762 0
M  V30 710 H 57.0689 0.55455 -0.491482 0
M  V30 711 H 59.7159 0.870039 -1.70595 0
M  V30 712 H 58.0209 3.47492 -1.80987 0
M  V30 713 H 59.7179 3.36259 -2.18474 0
M  V30 714 H 56.3079 2.60616 -3.40261 0
M  V30 715 H 60.4919 2.37772 -4.35635 0
M  V30 716 H 55.7479 2.10003 -5.74203 0
M  V30 717 H 59.9219 1.88179 -6.70494 0
M  V30 718 H 57.5489 1.73766 -7.40074 0
M  V30 719 N 59.124 1.23083 0.984299 0
M  V30 720 C 60.372 1.05848 1.72165 0
M  V30 721 C 60.693 -0.406049 1.90726 0
M  V30 722 O 59.963 -1.29139 1.47309 0
M  V30 723 H 58.543 0.388685 0.637913 0
M  V30 724 H 61.205 1.54736 1.18503 0
M  V30 725 H 60.301 1.54327 2.71274 0
M  V30 726 N 60.6021 -1.18246 1.0419 0
M  V30 727 C 61.5321 -2.24127 0.654914 0
M  V30 728 C 62.5131 -1.66617 -0.342451 0
M  V30 729 O 63.6981 -1.92924 -0.222277 0
M  V30 730 C 60.8281 -3.47295 0.0183757 0
M  V30 731 C 59.7821 -4.17563 0.939414 0
M  V30 732 C 59.1081 -5.34438 0.167286 0
M  V30 733 C 60.4081 -4.70917 2.25908 0
M  V30 734 H 62.1021 -2.56753 1.54007 0
M  V30 735 H 59.6481 -1.23414 0.74195 0
M  V30 736 H 61.6011 -4.20572 -0.264082 0
M  V30 737 H 60.3251 -3.13907 -0.901664 0
M  V30 738 H 58.9841 -3.46186 1.20628 0
M  V30 739 H 58.6321 -4.97298 -0.7552 0
M  V30 740 H 58.3321 -5.82388 0.780901 0
M  V30 741 H 59.8561 -6.10504 -0.108125 0
M  V30 742 H 61.2701 -5.35882 2.03724 0
M  V30 743 H 59.6671 -5.29406 2.82577 0
M  V30 744 H 60.7371 -3.88272 2.9047 0
M  V30 745 N 62.0802 -0.821533 -1.34494 0
M  V30 746 C 63.3262 -0.409552 -1.98622 0
M  V30 747 C 63.6592 1.0244 -1.64984 0
M  V30 748 O 62.9342 1.71325 -0.920758 0
M  V30 749 C 63.2172 -0.610458 -3.54888 0
M  V30 750 C 63.0702 -2.09043 -3.98273 0
M  V30 751 C 64.3892 -0.0455379 -4.40076 0
M  V30 752 H 61.5082 -0.15028 -0.721516 0
M  V30 753 H 64.1502 -1.03384 -1.59411 0
M  V30 754 H 62.3002 -0.079044 -3.8842 0
M  V30 755 H 63.9722 -2.68537 -3.75081 0
M  V30 756 H 62.2152 -2.58139 -3.48635 0
M  V30 757 H 62.8862 -2.18182 -5.07051 0
M  V30 758 H 65.3622 -0.499557 -4.1309 0
M  V30 759 H 64.2382 -0.215922 -5.48475 0
M  V30 760 H 64.4992 1.04939 -4.29465 0
M  V30 761 N 63.5583 1.46682 -0.576371 0
M  V30 762 C 64.8053 2.02412 -0.0595339 0
M  V30 763 C 65.1333 1.44859 1.29793 0
M  V30 764 O 64.3883 0.601099 1.8624 0
M  V30 765 C 64.6873 3.57345 0.062886 0
M  V30 766 C 64.3533 4.33908 -1.22616 0
M  V30 767 C 63.0153 4.54544 -1.57933 0
M  V30 768 C 65.3673 4.77919 -2.07948 0
M  V30 769 C 62.6953 5.16444 -2.78393 0
M  V30 770 C 65.0473 5.41149 -3.27629 0
M  V30 771 C 63.7113 5.60014 -3.63236 0
M  V30 772 H 62.9813 0.74068 -0.021785 0
M  V30 773 H 65.6283 1.76128 -0.751735 0
M  V30 774 H 63.9333 3.82729 0.838178 0
M  V30 775 H 65.6303 3.98136 0.478439 0
M  V30 776 H 62.2203 4.18138 -0.941202 0
M  V30 777 H 66.4043 4.61738 -1.81967 0
M  V30 778 H 61.6603 5.29242 -3.06126 0
M  V30 779 H 65.8343 5.74211 -3.94023 0
M  V30 780 H 63.4613 6.07748 -4.56669 0
M  V30 781 N 65.0364 0.313813 1.54444 0
M  V30 782 C 65.9664 -0.549454 2.26943 0
M  V30 783 C 66.9474 -1.12741 1.27372 0
M  V30 784 O 68.1324 -1.15436 1.56167 0
M  V30 785 C 65.2624 -1.71523 3.01989 0
M  V30 786 C 64.2164 -1.26703 4.08816 0
M  V30 787 C 63.5424 -2.51898 4.71647 0
M  V30 788 C 64.8424 -0.388962 5.2085 0
M  V30 789 H 66.5364 0.0552661 2.99349 0
M  V30 790 H 64.0824 0.0280207 1.43973 0
M  V30 791 H 66.0354 -2.32535 3.51433 0
M  V30 792 H 64.7594 -2.34639 2.27183 0
M  V30 793 H 63.4184 -0.679896 3.6024 0
M  V30 794 H 63.0664 -3.13356 3.93468 0
M  V30 795 H 62.7664 -2.22605 5.43802 0
M  V30 796 H 64.2904 -3.1369 5.23861 0
M  V30 797 H 65.7044 -0.905107 5.6611 0
M  V30 798 H 64.1014 -0.18924 5.99802 0
M  V30 799 H 65.1714 0.582699 4.81386 0
M  V30 800 N 66.5145 -1.57545 0.0417849 0
M  V30 801 C 67.4445 -2.14009 -0.933929 0
M  V30 802 C 68.4255 -1.05938 -1.33083 0
M  V30 803 O 69.6105 -1.33833 -1.40721 0
M  V30 804 C 66.7405 -2.67747 -2.21199 0
M  V30 805 C 65.6945 -3.80718 -1.95544 0
M  V30 806 C 65.0205 -4.20935 -3.29724 0
M  V30 807 C 66.3205 -5.06258 -1.28452 0
M  V30 808 H 68.0145 -2.95788 -0.463645 0
M  V30 809 H 65.5605 -1.42285 -0.221573 0
M  V30 810 H 67.5135 -3.05886 -2.89848 0
M  V30 811 H 66.2375 -1.83147 -2.70416 0
M  V30 812 H 64.8965 -3.43037 -1.2931 0
M  V30 813 H 64.5445 -3.33298 -3.76724 0
M  V30 814 H 64.2445 -4.9707 -3.13361 0
M  V30 815 H 65.7685 -4.61666 -3.9962 0
M  V30 816 H 67.1825 -5.41903 -1.8712 0
M  V30 817 H 65.5795 -5.87475 -1.22445 0
M  V30 818 H 66.6495 -4.84207 -0.259219 0
M  V30 819 N 67.9926 0.231505 -1.5589 0
M  V30 820 C 69.2226 0.973092 -1.82248 0
M  V30 821 C 69.6306 1.78845 -0.617328 0
M  V30 822 O 68.9736 1.78752 0.423499 0
M  V30 823 C 69.0356 1.94732 -3.02192 0
M  V30 824 C 68.6996 1.31743 -4.37599 0
M  V30 825 C 69.6966 0.712238 -5.14998 0
M  V30 826 C 67.3816 1.33218 -4.84312 0
M  V30 827 C 69.3756 0.130195 -6.37267 0
M  V30 828 C 67.0626 0.746286 -6.06526 0
M  V30 829 C 68.0606 0.146337 -6.82843 0
M  V30 830 O 67.7486 -0.430465 -8.02747 0
M  V30 831 H 67.4806 0.29125 -0.61004 0
M  V30 832 H 70.0346 0.254915 -2.03812 0
M  V30 833 H 68.2646 2.70422 -2.76422 0
M  V30 834 H 69.9536 2.55362 -3.15508 0
M  V30 835 H 70.7196 0.69324 -4.8002 0
M  V30 836 H 66.5986 1.78854 -4.24891 0
M  V30 837 H 70.1426 -0.33871 -6.96777 0
M  V30 838 H 66.0396 0.762663 -6.40979 0
M  V30 839 H 66.8076 -0.323818 -8.17859 0
M  V30 840 N 69.4707 1.49531 0.497807 0
M  V30 841 C 70.4007 1.6935 1.60757 0
M  V30 842 C 71.3817 0.542218 1.61227 0
M  V30 843 O 72.5667 0.778417 1.77917 0
M  V30 844 C 69.6967 1.76298 2.99226 0
M  V30 845 C 68.6507 2.91248 3.13622 0
M  V30 846 C 67.9767 2.83312 4.53474 0
M  V30 847 C 69.2767 4.3214 2.93346 0
M  V30 848 H 70.9707 2.62263 1.44425 0
M  V30 849 H 68.5167 1.26208 0.693367 0
M  V30 850 H 70.4697 1.88749 3.76765 0
M  V30 851 H 69.1937 0.799871 3.16654 0
M  V30 852 H 67.8527 2.78404 2.38509 0
M  V30 853 H 67.5007 1.84902 4.67782 0
M  V30 854 H 67.2007 3.60465 4.64046 0
M  V30 855 H 68.7247 2.97775 5.33069 0
M  V30 856 H 70.1387 4.45649 3.60652 0
M  V30 857 H 68.5357 5.1054 3.15387 0
M  V30 858 H 69.6057 4.46363 1.89441 0
M  V30 859 N 70.9488 -0.749086 1.3866 0
M  V30 860 C 71.8788 -1.8764 1.38973 0
M  V30 861 C 72.8598 -1.68178 0.255004 0
M  V30 862 O 74.0448 -1.88704 0.458754 0
M  V30 863 C 71.1748 -3.25222 1.21851 0
M  V30 864 C 70.1288 -3.59295 2.32575 0
M  V30 865 C 69.4548 -4.95663 2.00555 0
M  V30 866 C 70.7548 -3.63709 3.7485 0
M  V30 867 H 72.4488 -1.87635 2.3331 0
M  V30 868 H 69.9948 -0.901329 1.12303 0
M  V30 869 H 71.9478 -4.03746 1.20695 0
M  V30 870 H 70.6718 -3.25719 0.239775 0
M  V30 871 H 69.3308 -2.83093 2.32925 0
M  V30 872 H 68.9788 -4.92724 1.01154 0
M  V30 873 H 68.6788 -5.19429 2.74714 0
M  V30 874 H 70.2028 -5.7656 2.01024 0
M  V30 875 H 71.6168 -4.32338 3.76506 0
M  V30 876 H 70.0138 -3.98986 4.48252 0
M  V30 877 H 71.0838 -2.63834 4.06841 0
M  V30 878 N 72.4269 -1.23603 -0.977757 0
M  V30 879 C 73.3569 -1.04401 -2.0886 0
M  V30 880 C 74.3379 0.0399052 -1.70053 0
M  V30 881 O 75.5229 -0.125246 -1.93796 0
M  V30 882 C 72.6529 -0.637269 -3.41403 0
M  V30 883 C 71.6069 -1.66883 -3.94124 0
M  V30 884 C 70.9329 -1.11745 -5.22893 0
M  V30 885 C 72.2329 -3.06247 -4.23096 0
M  V30 886 H 73.9269 -1.97316 -2.25182 0
M  V30 887 H 71.4729 -0.950096 -1.08209 0
M  V30 888 H 73.4259 -0.48998 -4.18542 0
M  V30 889 H 72.1499 0.327557 -3.24953 0
M  V30 890 H 70.8089 -1.80416 -3.19133 0
M  V30 891 H 70.4569 -0.143527 -5.02795 0
M  V30 892 H 70.1569 -1.80672 -5.59134 0
M  V30 893 H 71.6809 -0.982067 -6.02651 0
M  V30 894 H 73.0949 -2.96001 -4.90975 0
M  V30 895 H 71.4919 -3.72436 -4.70544 0
M  V30 896 H 72.5619 -3.55041 -3.30263 0
M  V30 897 N 73.905 1.17692 -1.04816 0
M  V30 898 C 75.154 1.87192 -0.751132 0
M  V30 899 C 75.467 1.8169 0.724441 0
M  V30 900 O 76.673 2.46625 1.13527 0
M  V30 901 C 75.129 3.35857 -1.29338 0
M  V30 902 C 74.737 3.4987 -2.79812 0
M  V30 903 C 76.481 4.10709 -1.07322 0
M  V30 904 C 74.388 4.92536 -3.27356 0
M  V30 905 H 73.318 0.701162 -0.277288 0
M  V30 906 H 75.969 1.32932 -1.26496 0
M  V30 907 H 74.351 3.89631 -0.707376 0
M  V30 908 H 75.525 3.06332 -3.44235 0
M  V30 909 H 73.84 2.88433 -3.00325 0
M  V30 910 H 76.437 5.15952 -1.4035 0
M  V30 911 H 76.78 4.16299 -0.0108001 0
M  V30 912 H 77.313 3.6313 -1.62423 0
M  V30 913 H 74.052 4.92119 -4.33012 0
M  V30 914 H 73.572 5.3676 -2.67673 0
M  V30 915 H 75.251 5.61288 -3.21815 0
M  V30 916 N 75.3831 0.828654 1.34056 0
M  V30 917 C 76.3131 0.269443 2.3194 0
M  V30 918 C 77.2941 -0.617247 1.58506 0
M  V30 919 O 78.4791 -0.542931 1.86456 0
M  V30 920 C 75.6091 -0.564793 3.42677 0
M  V30 921 C 74.5631 0.225241 4.27407 0
M  V30 922 C 73.8891 -0.7321 5.29664 0
M  V30 923 C 75.1891 1.43663 5.02154 0
M  V30 924 H 76.8831 1.08728 2.7896 0
M  V30 925 H 74.4291 0.524283 1.34117 0
M  V30 926 H 76.3821 -0.966233 4.10173 0
M  V30 927 H 75.1061 -1.41574 2.9432 0
M  V30 928 H 73.7651 0.608117 3.61521 0
M  V30 929 H 73.4131 -1.57916 4.77568 0
M  V30 930 H 73.1131 -0.20767 5.87233 0
M  V30 931 H 74.6371 -1.13128 6.00029 0
M  V30 932 H 76.0511 1.1089 5.62473 0
M  V30 933 H 74.4481 1.89711 5.69324 0
M  V30 934 H 75.5181 2.21181 4.31517 0
M  V30 935 N 76.8612 -1.46375 0.584142 0
M  V30 936 C 78.1082 -2.02378 0.0702675 0
M  V30 937 C 78.4362 -1.45545 -1.29023 0
M  V30 938 O 77.6912 -0.610967 -1.85918 0
M  V30 939 C 77.9902 -3.57373 -0.0439342 0
M  V30 940 C 77.6562 -4.33252 1.24915 0
M  V30 941 C 76.3182 -4.53701 1.60341 0
M  V30 942 C 78.6702 -4.7681 2.1048 0
M  V30 943 C 75.9982 -5.1496 2.81128 0
M  V30 944 C 78.3502 -5.39404 3.30494 0
M  V30 945 C 77.0142 -5.5808 3.66201 0
M  V30 946 H 76.2842 -0.740554 0.0257127 0
M  V30 947 H 78.9312 -1.75727 0.761065 0
M  V30 948 H 77.2362 -3.83169 -0.817869 0
M  V30 949 H 78.9332 -3.98384 -0.457318 0
M  V30 950 H 75.5232 -4.17633 0.963364 0
M  V30 951 H 79.7072 -4.60766 1.84414 0
M  V30 952 H 74.9632 -5.27611 3.08928 0
M  V30 953 H 79.1372 -5.72114 3.97063 0
M  V30 954 H 76.7642 -6.05318 4.59885 0
M  V30 955 N 78.3393 -0.321999 -1.54275 0
M  V30 956 C 79.2873 0.560206 -2.25753 0
M  V30 957 C 80.2813 1.11984 -1.27106 0
M  V30 958 O 81.4873 1.06806 -1.44888 0
M  V30 959 H 77.8623 0.199304 -0.725108 0
M  V30 960 H 79.8333 -0.0649365 -2.98329 0
M  V30 961 C 78.5823 1.71023 -3.02731 0
M  V30 962 H 77.9053 1.28885 -3.78456 0
M  V30 963 H 79.3453 2.30314 -3.55993 0
M  V30 964 C 77.8043 2.62692 -2.10938 0
M  V30 965 O 78.3343 3.64364 -1.6912 0
M  V30 966 N 76.5403 2.30891 -1.76459 0
M  V30 967 H 76.0873 1.48253 -2.10663 0
M  V30 968 H 76.0453 2.92487 -1.1532 0
M  V30 969 N 79.8174 1.5752 -0.0501392 0
M  V30 970 C 81.0664 1.91827 0.623328 0
M  V30 971 C 81.3794 0.930222 1.72065 0
M  V30 972 O 82.5854 1.1653 2.4522 0
M  V30 973 C 81.0414 3.40692 1.16003 0
M  V30 974 C 80.6494 4.479 0.0948811 0
M  V30 975 C 82.3934 3.84034 1.80881 0
M  V30 976 C 80.3004 5.87879 0.644411 0
M  V30 977 H 79.2304 0.715918 0.236596 0
M  V30 978 H 81.8814 1.83115 -0.118861 0
M  V30 979 H 80.2634 3.44405 1.9545 0
M  V30 980 H 81.4374 4.55775 -0.678675 0
M  V30 981 H 79.7524 4.13892 -0.45637 0
M  V30 982 H 82.3494 4.85984 2.22988 0
M  V30 983 H 82.6924 3.20225 2.6601 0
M  V30 984 H 83.2254 3.82833 1.0809 0
M  V30 985 H 79.9644 6.55282 -0.169229 0
M  V30 986 H 79.4844 5.83567 1.38598 0
M  V30 987 H 81.1634 6.37098 1.12763 0
M  V30 988 N 81.2955 -0.223234 1.56011 0
M  V30 989 C 82.5425 -0.947875 1.78946 0
M  V30 990 C 82.8705 -1.844 0.618608 0
M  V30 991 O 82.1255 -1.91629 -0.397093 0
M  V30 992 C 82.4245 -1.81948 3.0762 0
M  V30 993 C 82.0905 -1.07672 4.37856 0
M  V30 994 C 80.7525 -0.871544 4.73242 0
M  V30 995 C 83.1045 -0.552081 5.18268 0
M  V30 996 C 80.4325 -0.129791 5.86556 0
M  V30 997 C 82.7845 0.17632 6.32354 0
M  V30 998 C 81.4485 0.39277 6.66343 0
M  V30 999 H 80.7185 -0.346852 0.654809 0
M  V30 1000 H 83.3655 -0.216171 1.90276 0
M  V30 1001 H 81.6705 -2.61899 2.91404 0
M  V30 1002 H 83.3675 -2.38227 3.22566 0
M  V30 1003 H 79.9575 -1.24662 4.1007 0
M  V30 1004 H 84.1415 -0.698076 4.91366 0
M  V30 1005 H 79.3975 0.048153 6.11381 0
M  V30 1006 H 83.5715 0.590367 6.93893 0
M  V30 1007 H 81.1985 0.969466 7.53993 0
M  V30 1008 N 82.7736 -1.49793 -0.48987 0
M  V30 1009 C 84.0206 -1.59841 -1.24327 0
M  V30 1010 C 84.3486 -0.290135 -1.92324 0
M  V30 1011 O 83.6036 0.722749 -1.81865 0
M  V30 1012 C 83.9026 -2.71488 -2.32441 0
M  V30 1013 C 83.5686 -4.12614 -1.81826 0
M  V30 1014 C 82.2306 -4.51017 -1.67742 0
M  V30 1015 C 84.5826 -5.00892 -1.4407 0
M  V30 1016 C 81.9106 -5.75459 -1.14297 0
M  V30 1017 C 84.2626 -6.25863 -0.920742 0
M  V30 1018 C 82.9266 -6.63086 -0.766383 0
M  V30 1019 H 82.1966 -0.584899 -0.454944 0
M  V30 1020 H 84.8436 -1.83663 -0.542215 0
M  V30 1021 H 83.1486 -2.4168 -3.0838 0
M  V30 1022 H 84.8456 -2.76469 -2.90458 0
M  V30 1023 H 81.4356 -3.82307 -1.93751 0
M  V30 1024 H 85.6196 -4.7187 -1.53794 0
M  V30 1025 H 80.8756 -6.02989 -1.01068 0
M  V30 1026 H 85.0496 -6.9364 -0.619448 0
M  V30 1027 H 82.6766 -7.59393 -0.350083 0
M  V30 1028 N 84.2517 0.741722 -1.39055 0
M  V30 1029 C 85.1987 1.85566 -1.37237 0
M  V30 1030 C 86.1687 1.64457 -0.233072 0
M  V30 1031 O 87.3537 1.85957 -0.427147 0
M  V30 1032 C 84.4937 3.23004 -1.215 0
M  V30 1033 C 83.6067 3.55864 -2.44918 0
M  V30 1034 C 82.7417 4.82669 -2.21821 0
M  V30 1035 C 81.7807 5.08351 -3.40948 0
M  V30 1036 N 80.9177 6.26356 -3.17211 0
M  V30 1037 H 85.7577 1.86455 -2.32462 0
M  V30 1038 H 83.2947 0.911176 -1.15482 0
M  V30 1039 H 85.2527 4.02331 -1.10389 0
M  V30 1040 H 83.8827 3.21411 -0.29908 0
M  V30 1041 H 82.9347 2.7129 -2.66657 0
M  V30 1042 H 84.2467 3.70765 -3.33668 0
M  V30 1043 H 83.4007 5.69962 -2.07914 0
M  V30 1044 H 82.1397 4.69929 -1.30454 0
M  V30 1045 H 81.1447 4.19522 -3.55361 0
M  V30 1046 H 82.3697 5.22981 -4.33207 0
M  V30 1047 H 80.3157 6.14917 -2.28502 0
M  V30 1048 H 80.2327 6.41813 -3.99515 0
M  V30 1049 H 81.5007 7.16506 -3.06984 0
M  V30 1050 N 85.7298 1.2412 0.971189 0
M  V30 1051 C 86.6768 1.0305 2.06517 0
M  V30 1052 C 87.6468 -0.0550666 1.66009 0
M  V30 1053 O 88.8318 0.0988688 1.90544 0
M  V30 1054 C 85.9718 0.637653 3.39158 0
M  V30 1055 C 85.0848 1.79633 3.92882 0
M  V30 1056 C 84.2198 1.34939 5.13775 0
M  V30 1057 C 83.2588 2.47823 5.59687 0
M  V30 1058 N 82.3958 2.04022 6.71803 0
M  V30 1059 H 87.2358 1.96685 2.23873 0
M  V30 1060 H 84.7728 0.979694 1.09729 0
M  V30 1061 H 86.7308 0.390931 4.15364 0
M  V30 1062 H 85.3608 -0.261693 3.21737 0
M  V30 1063 H 84.4128 2.15681 3.13346 0
M  V30 1064 H 85.7248 2.64466 4.22918 0
M  V30 1065 H 84.8788 1.06134 5.97345 0
M  V30 1066 H 83.6178 0.471557 4.85415 0
M  V30 1067 H 82.6228 2.77392 4.74693 0
M  V30 1068 H 83.8478 3.36158 5.90063 0
M  V30 1069 H 81.7938 1.18632 6.45184 0
M  V30 1070 H 81.7108 2.82409 7.01271 0
M  V30 1071 H 82.9788 1.78347 7.58823 0
M  V30 1072 N 87.2079 -1.17134 1.05439 0
M  V30 1073 C 88.4329 -1.91913 0.786396 0
M  V30 1074 C 88.8579 -1.7643 -0.652234 0
M  V30 1075 O 88.2159 -1.08372 -1.45345 0
M  V30 1076 C 88.2639 -3.40921 1.17497 0
M  V30 1077 O 87.3679 -4.11244 0.308589 0
M  V30 1078 H 86.7089 -0.598215 0.288158 0
M  V30 1079 H 89.2389 -1.48457 1.4079 0
M  V30 1080 H 89.2489 -3.91668 1.14281 0
M  V30 1081 H 87.9239 -3.5151 2.22292 0
M  V30 1082 H 86.5009 -3.70731 0.40157 0
M  V30 1083 N 88.686 -0.835752 -1.33615 0
M  V30 1084 C 89.633 -0.26473 -2.29277 0
M  V30 1085 C 90.603 0.617712 -1.54187 0
M  V30 1086 O 91.788 0.556641 -1.825 0
M  V30 1087 C 88.928 0.556777 -3.40579 0
M  V30 1088 C 88.041 -0.349339 -4.30585 0
M  V30 1089 C 87.176 0.482969 -5.29 0
M  V30 1090 C 86.215 -0.421732 -6.10645 0
M  V30 1091 N 85.352 0.372262 -7.01112 0
M  V30 1092 H 90.192 -1.08582 -2.77514 0
M  V30 1093 H 87.729 -0.546927 -1.36554 0
M  V30 1094 H 89.687 1.04852 -4.03809 0
M  V30 1095 H 88.317 1.34286 -2.93542 0
M  V30 1096 H 87.369 -0.959372 -3.68104 0
M  V30 1097 H 88.681 -1.04445 -4.87742 0
M  V30 1098 H 87.835 1.03866 -5.97743 0
M  V30 1099 H 86.574 1.21153 -4.72412 0
M  V30 1100 H 85.579 -0.989464 -5.40823 0
M  V30 1101 H 86.804 -1.14861 -6.69316 0
M  V30 1102 H 84.75 1.08426 -6.46977 0
M  V30 1103 H 84.667 -0.264198 -7.55538 0
M  V30 1104 H 85.935 0.910293 -7.74167 0
M  V30 1105 N 90.1641 1.46063 -0.591896 0
M  V30 1106 C 91.1271 2.28854 0.125973 0
M  V30 1107 C 92.1271 1.38903 0.810107 0
M  V30 1108 O 93.3171 1.61186 0.66066 0
M  V30 1109 C 90.4491 3.19526 1.1881 0
M  V30 1110 H 91.6421 2.93802 -0.601717 0
M  V30 1111 H 89.1951 1.52325 -0.350254 0
M  V30 1112 H 89.9301 2.59345 1.94707 0
M  V30 1113 H 89.7151 3.85766 0.701936 0
M  V30 1114 H 91.2051 3.81817 1.69132 0
M  V30 1115 N 91.6422 0.330177 1.54103 0
M  V30 1116 C 92.5902 -0.548226 2.26047 0
M  V30 1117 C 93.5842 -1.11309 1.27698 0
M  V30 1118 O 94.7902 -1.06036 1.45452 0
M  V30 1119 H 91.1652 -0.195456 0.726155 0
M  V30 1120 H 93.1362 0.0807567 2.98291 0
M  V30 1121 C 91.8852 -1.69415 3.03634 0
M  V30 1122 H 91.2082 -1.26876 3.79134 0
M  V30 1123 H 92.6482 -2.28423 3.5721 0
M  V30 1124 C 91.1072 -2.61569 2.12328 0
M  V30 1125 O 91.6372 -3.63462 1.7105 0
M  V30 1126 N 89.8432 -2.29952 1.77681 0
M  V30 1127 H 89.3902 -1.47134 2.11446 0
M  V30 1128 H 89.3482 -2.91871 1.16869 0
M  V30 1129 N 93.1203 -1.57491 0.0584922 0
M  V30 1130 C 94.0683 -2.13148 -0.931168 0
M  V30 1131 C 95.0623 -1.06507 -1.31729 0
M  V30 1132 O 96.2683 -1.24906 -1.29609 0
M  V30 1133 H 92.6433 -0.68137 -0.31818 0
M  V30 1134 H 94.6143 -2.95187 -0.436707 0
M  V30 1135 C 93.3633 -2.69732 -2.19408 0
M  V30 1136 H 92.6863 -3.51454 -1.90578 0
M  V30 1137 H 94.1263 -3.12287 -2.86798 0
M  V30 1138 C 92.5853 -1.63855 -2.94369 0
M  V30 1139 O 93.1153 -1.05565 -3.87581 0
M  V30 1140 N 91.3213 -1.35202 -2.57233 0
M  V30 1141 H 90.8683 -1.82791 -1.81508 0
M  V30 1142 H 90.8263 -0.645922 -3.07693 0
M  V30 1143 N 94.5984 0.214957 -1.56127 0
M  V30 1144 C 95.8444 0.939762 -1.79712 0
M  V30 1145 C 96.1774 1.83723 -0.629247 0
M  V30 1146 O 95.4524 1.90925 0.371197 0
M  V30 1147 C 95.7354 1.77306 -3.13424 0
M  V30 1148 C 95.5884 0.90164 -4.40671 0
M  V30 1149 C 96.9074 2.74956 -3.43638 0
M  V30 1150 H 94.0264 0.340214 -0.653776 0
M  V30 1151 H 96.6684 0.20824 -1.88855 0
M  V30 1152 H 94.8184 2.39673 -3.0576 0
M  V30 1153 H 96.4904 0.294206 -4.60361 0
M  V30 1154 H 94.7334 0.207368 -4.33304 0
M  V30 1155 H 95.4044 1.51923 -5.30682 0
M  V30 1156 H 97.8804 2.22724 -3.51473 0
M  V30 1157 H 96.7564 3.30358 -4.38355 0
M  V30 1158 H 97.0174 3.53023 -2.66134 0
M  V30 1159 N 96.0765 1.50051 0.48192 0
M  V30 1160 C 97.3225 1.60736 1.2366 0
M  V30 1161 C 97.6555 0.301786 1.91841 0
M  V30 1162 O 96.9305 -0.696025 1.8162 0
M  V30 1163 C 97.2135 2.78009 2.28874 0
M  V30 1164 C 97.0665 4.18416 1.65069 0
M  V30 1165 C 98.3855 2.90867 3.30279 0
M  V30 1166 H 95.5045 0.585031 0.448228 0
M  V30 1167 H 98.1465 1.82402 0.531946 0
M  V30 1168 H 96.2965 2.59667 2.88973 0
M  V30 1169 H 97.9685 4.48322 1.0865 0
M  V30 1170 H 96.2115 4.23177 0.954148 0
M  V30 1171 H 96.8825 4.96381 2.41474 0
M  V30 1172 H 99.3585 3.07623 2.80191 0
M  V30 1173 H 98.2345 3.74566 4.01238 0
M  V30 1174 H 98.4955 2.01021 3.93755 0
M  V30 1175 N 97.5546 -0.734337 1.39446 0
M  V30 1176 C 98.4846 -1.86155 1.40955 0
M  V30 1177 C 99.4656 -1.67898 0.272827 0
M  V30 1178 O 100.651 -1.88207 0.478743 0
M  V30 1179 C 97.7806 -3.23912 1.25294 0
M  V30 1180 C 96.7346 -3.56808 2.36373 0
M  V30 1181 C 96.0606 -4.93508 2.058 0
M  V30 1182 C 97.3606 -3.59713 3.78687 0
M  V30 1183 H 99.0546 -1.8515 2.35287 0
M  V30 1184 H 96.6006 -0.889367 1.13253 0
M  V30 1185 H 98.5536 -4.02443 1.2497 0
M  V30 1186 H 97.2776 -3.25446 0.274308 0
M  V30 1187 H 95.9366 -2.80606 2.35914 0
M  V30 1188 H 95.5846 -4.91623 1.06374 0
M  V30 1189 H 95.2846 -5.16486 2.80208 0
M  V30 1190 H 96.8086 -5.74396 2.07128 0
M  V30 1191 H 98.2226 -4.2832 3.81071 0
M  V30 1192 H 96.6196 -3.94209 4.52459 0
M  V30 1193 H 97.6896 -2.59504 4.09617 0
M  V30 1194 N 99.0327 -1.24633 -0.964593 0
M  V30 1195 C 99.9627 -1.06611 -2.07741 0
M  V30 1196 C 100.944 0.0218666 -1.70086 0
M  V30 1197 O 102.129 -0.145793 -1.93652 0
M  V30 1198 C 99.2587 -0.673444 -3.40708 0
M  V30 1199 C 98.2127 -1.71054 -3.92332 0
M  V30 1200 C 97.5387 -1.17285 -5.21678 0
M  V30 1201 C 98.8387 -3.10718 -4.19824 0
M  V30 1202 H 100.533 -1.99693 -2.23076 0
M  V30 1203 H 98.0787 -0.96152 -1.07195 0
M  V30 1204 H 100.032 -0.534345 -4.17998 0
M  V30 1205 H 98.7557 0.293073 -3.25282 0
M  V30 1206 H 97.4147 -1.83791 -3.17201 0
M  V30 1207 H 97.0627 -0.196847 -5.02615 0
M  V30 1208 H 96.7627 -1.86592 -5.57187 0
M  V30 1209 H 98.2867 -1.04593 -6.01575 0
M  V30 1210 H 99.7007 -3.01192 -4.87808 0
M  V30 1211 H 98.0977 -3.77406 -4.66567 0
M  V30 1212 H 99.1677 -3.58524 -3.26479 0
M  V30 1213 N 100.511 1.16574 -1.06058 0
M  V30 1214 C 101.441 2.23057 -0.690488 0
M  V30 1215 C 102.422 1.67141 0.315901 0
M  V30 1216 O 103.607 1.93253 0.191556 0
M  V30 1217 C 100.737 3.47222 -0.073625 0
M  V30 1218 C 99.6908 4.16016 -1.00573 0
M  V30 1219 C 99.0168 5.34104 -0.252289 0
M  V30 1220 C 100.317 4.67264 -2.33371 0
M  V30 1221 H 102.011 2.54271 -1.58072 0
M  V30 1222 H 99.5568 1.22218 -0.76149 0
M  V30 1223 H 101.51 4.20939 0.19714 0
M  V30 1224 H 100.234 3.15302 0.85161 0
M  V30 1225 H 98.8928 3.44223 -1.2612 0
M  V30 1226 H 98.5408 4.98437 0.675988 0
M  V30 1227 H 98.2408 5.81072 -0.873455 0
M  V30 1228 H 99.7648 6.10599 0.0109857 0
M  V30 1229 H 101.179 5.32573 -2.12223 0
M  V30 1230 H 99.5758 5.24843 -2.90963 0
M  V30 1231 H 100.646 3.83602 -2.96611 0
M  V30 1232 N 101.989 0.842826 1.3317 0
M  V30 1233 C 103.237 0.439577 1.97262 0
M  V30 1234 C 103.558 -1.00548 1.67078 0
M  V30 1235 O 102.828 -1.70098 0.971779 0
M  V30 1236 H 101.408 0.159558 0.72976 0
M  V30 1237 H 104.07 1.07665 1.62463 0
M  V30 1238 H 103.166 0.574886 3.0676 0
M  V30 1239 N 103.467 -1.45747 0.599634 0
M  V30 1240 C 104.878 -1.85853 0.177681 0
M  V30 1241 C 105.229 -1.50102 -1.26348 0
M  V30 1242 O 104.354 -0.923905 -1.95686 0
M  V30 1243 C 104.949 -3.37326 0.315688 0
M  V30 1244 C 103.508 -3.76365 -0.0515144 0
M  V30 1245 C 102.655 -2.69722 0.643822 0
M  V30 1246 H 105.606 -1.36661 0.806814 0
M  V30 1247 H 105.627 -3.77778 -0.454321 0
M  V30 1248 H 105.139 -3.63315 1.36468 0
M  V30 1249 H 103.24 -3.55993 -1.09999 0
M  V30 1250 H 103.353 -4.77916 0.336594 0
M  V30 1251 H 101.717 -2.54567 0.0822881 0
M  V30 1252 H 102.5 -2.98549 1.6948 0
M  V30 1253 N 104.945 -0.338344 -1.53925 0
M  V30 1254 C 106.185 0.260168 -2.02737 0
M  V30 1255 C 106.549 1.48181 -1.22092 0
M  V30 1256 O 107.75 2.15416 -1.60777 0
M  V30 1257 C 106.021 0.571627 -3.52799 0
M  V30 1258 S 107.58 1.14769 -4.23525 0
M  V30 1259 H 104.398 0.077791 -0.706732 0
M  V30 1260 H 107 -0.474899 -1.89644 0
M  V30 1261 H 105.704 -0.325392 -4.09108 0
M  V30 1262 H 105.235 1.3365 -3.70002 0
M  V30 1263 H 107.25 2.43372 -4.32417 0
M  V30 1264 N 106.423 1.57458 -0.0668435 0
M  V30 1265 C 107.7 1.8469 0.644132 0
M  V30 1266 C 108.08 0.958343 1.88093 0
M  V30 1267 O 107.428 0.0233579 2.28488 0
M  V30 1268 C 107.638 3.34767 0.986509 0
M  V30 1269 C 108.986 4.02159 1.36212 0
M  V30 1270 O 110.01 3.39484 1.07839 0
M  V30 1271 O 108.869 5.12694 1.89227 0
M  V30 1272 H 105.963 0.762816 0.319437 0
M  V30 1273 H 108.509 1.6942 -0.0973986 0
M  V30 1274 H 107.281 3.91151 0.107883 0
M  V30 1275 H 106.904 3.55281 1.78497 0
M  V30 1276 N 107.901 -0.206675 1.56239 0
M  V30 1277 C 109.126 -0.949474 1.8439 0
M  V30 1278 C 109.551 -1.76549 0.649016 0
M  V30 1279 O 108.909 -1.76782 -0.402231 0
M  V30 1280 C 108.957 -1.83078 3.10668 0
M  V30 1281 O 108.061 -2.9281 2.90407 0
M  V30 1282 H 107.402 -0.268033 0.607499 0
M  V30 1283 H 109.932 -0.215488 2.03462 0
M  V30 1284 H 109.942 -2.2377 3.41161 0
M  V30 1285 H 108.617 -1.23112 3.97261 0
M  V30 1286 H 107.194 -2.55956 2.71184 0
M  V30 1287 N 109.379 -1.50304 -0.473955 0
M  V30 1288 C 110.627 -1.60832 -1.22382 0
M  V30 1289 C 110.948 -0.30939 -1.9253 0
M  V30 1290 O 110.218 0.67296 -1.83978 0
M  V30 1291 H 108.798 -0.592652 -0.454723 0
M  V30 1292 H 111.46 -1.87068 -0.546968 0
M  V30 1293 H 110.556 -2.41803 -1.97327 0
M  V30 1294 N 110.857 0.726932 -1.39834 0
M  V30 1295 C 111.804 1.841 -1.39197 0
M  V30 1296 C 112.774 1.642 -0.250502 0
M  V30 1297 O 113.959 1.85494 -0.446846 0
M  V30 1298 C 111.099 3.21697 -1.24919 0
M  V30 1299 C 110.212 3.53247 -2.48678 0
M  V30 1300 C 109.347 4.80289 -2.26928 0
M  V30 1301 C 108.386 5.04707 -3.4632 0
M  V30 1302 N 107.523 6.22956 -3.23836 0
M  V30 1303 H 112.363 1.83979 -2.34427 0
M  V30 1304 H 109.9 0.898876 -1.16442 0
M  V30 1305 H 111.858 4.01137 -1.1465 0
M  V30 1306 H 110.488 3.21076 -0.333153 0
M  V30 1307 H 109.54 2.68447 -2.69519 0
M  V30 1308 H 110.852 3.67205 -3.37582 0
M  V30 1309 H 110.006 5.67725 -2.13947 0
M  V30 1310 H 108.745 4.68519 -1.35431 0
M  V30 1311 H 107.75 4.1573 -3.5979 0
M  V30 1312 H 108.975 5.18357 -4.38729 0
M  V30 1313 H 106.921 6.12459 -2.35011 0
M  V30 1314 H 106.838 6.37539 -4.063 0
M  V30 1315 H 108.106 7.1321 -3.14566 0
M  V30 1316 N 112.336 1.25143 0.95797 0
M  V30 1317 C 113.564 1.12424 1.73691 0
M  V30 1318 C 113.979 -0.322304 1.86029 0
M  V30 1319 O 113.336 -1.22186 1.35561 0
M  V30 1320 C 113.387 1.76933 3.15241 0
M  V30 1321 O 113.108 3.15932 3.03511 0
M  V30 1322 C 114.609 1.6995 4.09429 0
M  V30 1323 H 111.829 0.3923 0.544373 0
M  V30 1324 H 114.373 1.6544 1.20207 0
M  V30 1325 H 112.528 1.27895 3.6568 0
M  V30 1326 H 112.942 3.47598 3.9278 0
M  V30 1327 H 114.416 2.19753 5.06372 0
M  V30 1328 H 114.893 0.662619 4.34173 0
M  V30 1329 H 115.499 2.18461 3.64904 0
M  V30 1330 N 113.814 -1.1601 1.06675 0
M  V30 1331 C 115.042 -1.90527 0.806667 0
M  V30 1332 C 115.457 -1.77643 -0.639396 0
M  V30 1333 O 114.814 -1.12369 -1.43803 0
M  V30 1334 C 114.865 -3.41106 1.19705 0
M  V30 1335 O 114.586 -3.53608 2.58636 0
M  V30 1336 C 116.087 -4.32663 0.965266 0
M  V30 1337 H 113.307 -0.604053 0.292166 0
M  V30 1338 H 115.851 -1.47026 1.4214 0
M  V30 1339 H 114.006 -3.82296 0.626774 0
M  V30 1340 H 114.42 -4.47011 2.74375 0
M  V30 1341 H 115.894 -5.36763 1.288 0
M  V30 1342 H 116.371 -4.39089 -0.0987936 0
M  V30 1343 H 116.977 -3.97206 1.52011 0
M  V30 1344 N 115.292 -0.849877 -1.32721 0
M  V30 1345 C 116.539 -0.450923 -1.97416 0
M  V30 1346 C 116.867 0.992376 -1.67279 0
M  V30 1347 O 116.122 1.71048 -0.950845 0
M  V30 1348 C 116.421 -0.631272 -3.51781 0
M  V30 1349 C 116.087 -2.04432 -4.01894 0
M  V30 1350 C 114.749 -2.4308 -4.1529 0
M  V30 1351 C 117.101 -2.96679 -4.28522 0
M  V30 1352 C 114.429 -3.73257 -4.52654 0
M  V30 1353 C 116.781 -4.26349 -4.67343 0
M  V30 1354 C 115.445 -4.64939 -4.78945 0
M  V30 1355 H 114.715 -0.165004 -0.722395 0
M  V30 1356 H 117.362 -1.07901 -1.58207 0
M  V30 1357 H 115.667 0.0800767 -3.91718 0
M  V30 1358 H 117.364 -0.302709 -3.99856 0
M  V30 1359 H 113.954 -1.73419 -3.91949 0
M  V30 1360 H 118.138 -2.68054 -4.17685 0
M  V30 1361 H 113.394 -4.02946 -4.59831 0
M  V30 1362 H 117.568 -4.97895 -4.86902 0
M  V30 1363 H 115.195 -5.65855 -5.07654 0
M  V30 1364 N 116.77 1.45427 -0.607355 0
M  V30 1365 C 117.7 2.3329 0.0989352 0
M  V30 1366 C 118.681 1.46816 0.859007 0
M  V30 1367 O 119.866 1.75588 0.829604 0
M  V30 1368 C 116.996 3.29518 1.09705 0
M  V30 1369 C 115.95 4.25626 0.450206 0
M  V30 1370 C 115.276 5.11542 1.55655 0
M  V30 1371 C 116.576 5.18505 -0.628455 0
M  V30 1372 H 118.27 2.92595 -0.634716 0
M  V30 1373 H 115.816 1.40696 -0.306681 0
M  V30 1374 H 117.769 3.89855 1.59971 0
M  V30 1375 H 116.493 2.68372 1.86129 0
M  V30 1376 H 115.152 3.66586 -0.0315886 0
M  V30 1377 H 114.8 4.46765 2.31107 0
M  V30 1378 H 114.5 5.76647 1.12925 0
M  V30 1379 H 116.024 5.74748 2.06148 0
M  V30 1380 H 117.438 5.72916 -0.209877 0
M  V30 1381 H 115.835 5.92085 -0.977489 0
M  V30 1382 H 116.905 4.60948 -1.50514 0
M  V30 1383 N 118.248 0.346503 1.53744 0
M  V30 1384 C 119.495 -0.249104 2.00962 0
M  V30 1385 C 119.823 -1.5032 1.23426 0
M  V30 1386 O 119.078 -1.93217 0.310761 0
M  V30 1387 C 119.377 -0.605809 3.52228 0
M  V30 1388 C 119.043 0.551747 4.47512 0
M  V30 1389 C 117.705 0.86941 4.73281 0
M  V30 1390 C 120.057 1.32818 5.03993 0
M  V30 1391 C 117.385 1.96582 5.52786 0
M  V30 1392 C 119.737 2.41486 5.84694 0
M  V30 1393 C 118.401 2.73808 6.08757 0
M  V30 1394 H 117.671 -0.0911538 0.735372 0
M  V30 1395 H 120.318 0.475027 1.85515 0
M  V30 1396 H 118.623 -1.4107 3.65522 0
M  V30 1397 H 120.32 -1.07858 3.86222 0
M  V30 1398 H 116.91 0.294102 4.2759 0
M  V30 1399 H 121.094 1.09602 4.84047 0
M  V30 1400 H 116.35 2.22045 5.69654 0
M  V30 1401 H 120.524 3.02078 6.27473 0
M  V30 1402 H 118.151 3.58892 6.7015 0
M  V30 1403 N 119.726 -1.57421 0.075193 0
M  V30 1404 C 120.673 -2.12915 -0.890843 0
M  V30 1405 C 121.643 -1.04252 -1.29309 0
M  V30 1406 O 122.828 -1.31933 -1.37834 0
M  V30 1407 C 119.968 -2.69795 -2.15186 0
M  V30 1408 C 119.081 -3.92624 -1.80194 0
M  V30 1409 C 118.216 -4.37736 -3.00933 0
M  V30 1410 C 117.255 -5.53205 -2.61974 0
M  V30 1411 N 116.392 -5.9326 -3.75483 0
M  V30 1412 H 121.232 -2.95156 -0.410735 0
M  V30 1413 H 118.769 -1.45854 -0.191086 0
M  V30 1414 H 120.727 -3.00883 -2.89008 0
M  V30 1415 H 119.357 -1.90313 -2.60731 0
M  V30 1416 H 118.409 -3.67977 -0.964218 0
M  V30 1417 H 119.721 -4.76482 -1.47534 0
M  V30 1418 H 118.875 -4.70503 -3.8303 0
M  V30 1419 H 117.614 -3.52739 -3.36789 0
M  V30 1420 H 116.619 -5.20086 -1.783 0
M  V30 1421 H 117.844 -6.39936 -2.27284 0
M  V30 1422 H 115.79 -5.11212 -4.11094 0
M  V30 1423 H 115.707 -6.71865 -3.46602 0
M  V30 1424 H 116.975 -6.30651 -4.58148 0
M  V30 1425 N 121.204 0.198386 -1.56346 0
M  V30 1426 C 122.134 1.24865 -1.9731 0
M  V30 1427 C 123.115 1.47651 -0.844576 0
M  V30 1428 O 124.3 1.59444 -1.10866 0
M  V30 1429 C 121.43 2.59358 -2.30977 0
M  V30 1430 C 120.384 2.5119 -3.46537 0
M  V30 1431 C 119.71 3.89926 -3.65871 0
M  V30 1432 C 121.01 2.03977 -4.80823 0
M  V30 1433 H 122.704 0.908252 -2.85291 0
M  V30 1434 H 120.25 0.435462 -1.37258 0
M  V30 1435 H 122.203 3.33011 -2.58228 0
M  V30 1436 H 120.927 2.95132 -1.39874 0
M  V30 1437 H 119.586 1.79993 -3.19371 0
M  V30 1438 H 119.234 4.23046 -2.72105 0
M  V30 1439 H 118.934 3.85336 -4.4361 0
M  V30 1440 H 120.458 4.65205 -3.95495 0
M  V30 1441 H 121.872 2.67386 -5.07127 0
M  V30 1442 H 120.269 2.10397 -5.62008 0
M  V30 1443 H 121.339 0.992861 -4.74626 0
M  V30 1444 N 122.682 1.50554 0.465978 0
M  V30 1445 C 123.629 1.6979 1.56333 0
M  V30 1446 C 124.599 0.539239 1.57103 0
M  V30 1447 O 125.784 0.770401 1.74555 0
M  V30 1448 C 122.924 1.80273 2.94271 0
M  V30 1449 C 122.037 3.07674 3.0325 0
M  V30 1450 C 121.172 3.08922 4.32135 0
M  V30 1451 C 120.211 4.30755 4.34875 0
M  V30 1452 N 119.348 4.29714 5.55239 0
M  V30 1453 H 124.188 2.63472 1.39235 0
M  V30 1454 H 121.725 1.30602 0.676873 0
M  V30 1455 H 123.683 1.84332 3.74269 0
M  V30 1456 H 122.313 0.900258 3.09992 0
M  V30 1457 H 121.365 3.13062 2.16094 0
M  V30 1458 H 122.677 3.97642 3.01135 0
M  V30 1459 H 121.831 3.11738 5.20485 0
M  V30 1460 H 120.57 2.16792 4.36866 0
M  V30 1461 H 119.575 4.28146 3.44922 0
M  V30 1462 H 120.8 5.24117 4.31831 0
M  V30 1463 H 118.746 3.4044 5.60746 0
M  V30 1464 H 118.663 5.13456 5.54886 0
M  V30 1465 H 119.931 4.36683 6.457 0
M  V30 1466 N 124.16 -0.719506 1.40217 0
M  V30 1467 C 125.388 -1.50864 1.41589 0
M  V30 1468 C 125.803 -1.88794 0.0145275 0
M  V30 1469 O 125.16 -1.55174 -0.960594 0
M  V30 1470 C 125.211 -2.78646 2.30302 0
M  V30 1471 O 124.932 -2.42321 3.64983 0
M  V30 1472 C 126.433 -3.72569 2.40224 0
M  V30 1473 H 123.653 -0.465709 0.48307 0
M  V30 1474 H 126.197 -0.88785 1.84221 0
M  V30 1475 H 124.352 -3.37019 1.91042 0
M  V30 1476 H 124.766 -3.24514 4.12057 0
M  V30 1477 H 126.24 -4.5908 3.06512 0
M  V30 1478 H 126.717 -4.15403 1.42608 0
M  V30 1479 H 127.323 -3.20109 2.80019 0
M  V30 1480 N 125.638 -1.25649 -0.95132 0
M  V30 1481 C 126.915 -1.01361 -1.67288 0
M  V30 1482 C 127.295 0.459135 -2.06046 0
M  V30 1483 O 126.643 1.43723 -1.7764 0
M  V30 1484 C 126.853 -1.95256 -2.89268 0
M  V30 1485 C 128.201 -2.23289 -3.61147 0
M  V30 1486 O 129.225 -1.93041 -2.99355 0
M  V30 1487 O 128.084 -2.74741 -4.72419 0
M  V30 1488 H 125.178 -0.38464 -0.732107 0
M  V30 1489 H 127.724 -1.36817 -1.00395 0
M  V30 1490 H 126.496 -2.94685 -2.57442 0
M  V30 1491 H 126.119 -1.60218 -3.6389 0
M  V30 1492 N 127.117 1.15442 -1.07289 0
M  V30 1493 C 128.064 2.20161 -0.692653 0
M  V30 1494 C 129.034 1.63073 0.31564 0
M  V30 1495 O 130.219 1.89725 0.202235 0
M  V30 1496 C 127.359 3.44967 -0.0959509 0
M  V30 1497 C 126.472 4.16256 -1.15564 0
M  V30 1498 C 125.607 5.28609 -0.524011 0
M  V30 1499 C 124.646 5.91715 -1.56653 0
M  V30 1500 N 123.783 6.9554 -0.957531 0
M  V30 1501 H 128.623 2.52037 -1.59002 0
M  V30 1502 H 126.16 1.2378 -0.794798 0
M  V30 1503 H 128.118 4.16341 0.267628 0
M  V30 1504 H 126.748 3.1361 0.764772 0
M  V30 1505 H 125.8 3.43385 -1.6368 0
M  V30 1506 H 127.112 4.59268 -1.94613 0
M  V30 1507 H 126.266 6.06604 -0.108032 0
M  V30 1508 H 125.005 4.86787 0.29825 0
M  V30 1509 H 124.01 5.12433 -1.9923 0
M  V30 1510 H 125.235 6.35614 -2.39107 0
M  V30 1511 H 123.181 6.55814 -0.156162 0
M  V30 1512 H 123.098 7.36977 -1.68526 0
M  V30 1513 H 124.366 7.77435 -0.567032 0
M  V30 1514 N 128.595 0.856903 1.32268 0
M  V30 1515 C 129.525 0.31858 2.31316 0
M  V30 1516 C 130.506 -0.583487 1.59779 0
M  V30 1517 O 131.691 -0.503259 1.87566 0
M  V30 1518 C 128.821 -0.491979 3.43798 0
M  V30 1519 C 127.775 0.315849 4.26833 0
M  V30 1520 C 127.101 -0.619586 5.31098 0
M  V30 1521 C 128.401 1.54282 4.98993 0
M  V30 1522 H 130.095 1.14621 2.76591 0
M  V30 1523 H 127.641 0.552613 1.32974 0
M  V30 1524 H 129.594 -0.879012 4.1213 0
M  V30 1525 H 128.318 -1.35299 2.97257 0
M  V30 1526 H 126.977 0.684664 3.6015 0
M  V30 1527 H 126.625 -1.47751 4.8081 0
M  V30 1528 H 126.325 -0.0830621 5.87541 0
M  V30 1529 H 127.849 -1.00375 6.02293 0
M  V30 1530 H 129.263 1.22796 5.59995 0
M  V30 1531 H 127.66 2.01745 5.65172 0
M  V30 1532 H 128.73 2.30285 4.26728 0
M  V30 1533 N 130.073 -1.45103 0.615059 0
M  V30 1534 C 131.313 -2.04069 0.116282 0
M  V30 1535 C 131.677 -1.4721 -1.2326 0
M  V30 1536 O 132.878 -1.97577 -1.82255 0
M  V30 1537 C 131.149 -3.57298 0.085482 0
M  V30 1538 S 132.708 -4.37394 -0.351015 0
M  V30 1539 H 129.526 -0.709006 0.0532183 0
M  V30 1540 H 132.128 -1.77709 0.81484 0
M  V30 1541 H 130.832 -3.9619 1.0706 0
M  V30 1542 H 130.363 -3.88244 -0.634835 0
M  V30 1543 H 132.378 -4.69734 -1.59889 0
M  V30 1544 N 131.551 -0.354651 -1.53558 0
M  V30 1545 C 132.967 -0.00315426 -1.596 0
M  V30 1546 C 133.167 1.47741 -1.37021 0
M  V30 1547 O 132.223 2.23759 -1.16996 0
M  V30 1548 C 133.536 -0.44929 -2.97325 0
M  V30 1549 C 135.084 -0.402578 -3.104 0
M  V30 1550 C 135.559 -0.824355 -4.5052 0
M  V30 1551 N 137.05 -0.778979 -4.56603 0
M  V30 1552 C 137.785 -1.07715 -5.63192 0
M  V30 1553 N 137.281 -1.44405 -6.77583 0
M  V30 1554 N 139.074 -1.00066 -5.53121 0
M  V30 1555 H 131.225 -1.31893 -1.66487 0
M  V30 1556 H 133.488 -0.538388 -0.780284 0
M  V30 1557 H 133.194 -1.48202 -3.1895 0
M  V30 1558 H 133.068 0.169772 -3.76818 0
M  V30 1559 H 135.455 0.621004 -2.88492 0
M  V30 1560 H 135.536 -1.05699 -2.32941 0
M  V30 1561 H 135.18 -1.846 -4.73165 0
M  V30 1562 H 135.11 -0.147304 -5.26394 0
M  V30 1563 H 137.601 -0.508528 -3.74463 0
M  V30 1564 H 137.914 -1.65612 -7.54846 0
M  V30 1565 H 136.259 -1.4826 -6.79002 0
M  V30 1566 H 139.45 -0.713293 -4.62633 0
M  V30 1567 H 139.623 -1.23638 -6.36096 0
M  V30 1568 N 133.029 1.57378 -0.0835403 0
M  V30 1569 C 134.257 1.98263 0.59157 0
M  V30 1570 C 134.672 0.962302 1.62435 0
M  V30 1571 O 134.029 -0.049581 1.82433 0
M  V30 1572 C 134.08 3.39214 1.24965 0
M  V30 1573 O 133.801 4.37339 0.258186 0
M  V30 1574 C 135.302 3.95038 2.01147 0
M  V30 1575 H 132.522 0.651773 0.159477 0
M  V30 1576 H 135.066 2.03878 -0.159415 0
M  V30 1577 H 133.221 3.34649 1.95164 0
M  V30 1578 H 133.635 5.19371 0.731734 0
M  V30 1579 H 135.109 4.95848 2.42567 0
M  V30 1580 H 135.586 3.32222 2.87272 0
M  V30 1581 H 136.192 4.0304 1.35789 0
M  V30 1582 N 134.507 -0.190092 1.56449 0
M  V30 1583 C 135.753 -0.911052 1.81184 0
M  V30 1584 C 136.086 -1.82699 0.658396 0
M  V30 1585 O 135.361 -1.91491 -0.340775 0
M  V30 1586 C 135.644 -1.72297 3.16205 0
M  V30 1587 C 135.497 -0.831419 4.42049 0
M  V30 1588 C 136.816 -2.69454 3.47969 0
M  V30 1589 H 133.935 -0.32977 0.659106 0
M  V30 1590 H 136.577 -0.178169 1.89163 0
M  V30 1591 H 134.727 -2.34778 3.09534 0
M  V30 1592 H 136.399 -0.220929 4.60771 0
M  V30 1593 H 134.642 -0.138406 4.33579 0
M  V30 1594 H 135.313 -1.43461 5.33032 0
M  V30 1595 H 137.789 -2.17104 3.54972 0
M  V30 1596 H 136.665 -3.23342 4.43555 0
M  V30 1597 H 136.926 -3.48744 2.71717 0
M  V30 1598 N 135.985 -1.50799 -0.457987 0
M  V30 1599 C 137.396 -1.55152 -1.0385 0
M  V30 1600 C 137.747 -0.362719 -1.92818 0
M  V30 1601 O 136.872 0.522915 -2.09987 0
M  V30 1602 C 137.467 -2.81173 -1.89017 0
M  V30 1603 C 136.026 -2.88164 -2.42154 0
M  V30 1604 C 135.173 -2.49591 -1.20829 0
M  V30 1605 H 138.124 -1.56874 -0.240068 0
M  V30 1606 H 138.145 -2.63769 -2.74238 0
M  V30 1607 H 137.657 -3.67677 -1.24238 0
M  V30 1608 H 135.758 -2.06042 -3.10447 0
M  V30 1609 H 135.871 -3.91356 -2.76364 0
M  V30 1610 H 134.235 -2.02322 -1.54719 0
M  V30 1611 H 135.018 -3.38418 -0.576927 0
M  V30 1612 N 137.463 0.71206 -1.40597 0
M  V30 1613 C 138.688 1.50617 -1.42581 0
M  V30 1614 C 139.113 1.88079 -0.0282102 0
M  V30 1615 O 138.471 1.53511 0.964579 0
M  V30 1616 C 138.519 2.7557 -2.3258 0
M  V30 1617 O 137.623 3.72414 -1.77148 0
M  V30 1618 H 136.964 0.453966 -0.484573 0
M  V30 1619 H 139.494 0.876649 -1.84868 0
M  V30 1620 H 139.504 3.2406 -2.47889 0
M  V30 1621 H 138.179 2.47639 -3.34138 0
M  V30 1622 H 136.756 3.31276 -1.71204 0
M  V30 1623 N 138.941 1.26152 0.944643 0
M  V30 1624 C 139.874 1.01729 2.04271 0
M  V30 1625 C 140.852 -0.0568101 1.62501 0
M  V30 1626 O 142.036 0.0848987 1.88309 0
M  V30 1627 C 139.163 0.539792 3.34371 0
M  V30 1628 C 138.209 1.60593 3.9511 0
M  V30 1629 S 139.042 3.19392 4.29825 0
M  V30 1630 C 140.198 2.73402 5.63029 0
M  V30 1631 H 140.431 1.94703 2.24673 0
M  V30 1632 H 137.964 1.09793 1.08558 0
M  V30 1633 H 139.922 0.270956 4.09605 0
M  V30 1634 H 138.583 -0.369609 3.11918 0
M  V30 1635 H 137.776 1.22275 4.88943 0
M  V30 1636 H 137.378 1.82596 3.26397 0
M  V30 1637 H 139.67 2.1765 6.41588 0
M  V30 1638 H 140.613 3.65913 6.06229 0
M  V30 1639 H 141.021 2.13077 5.22741 0
M  V30 1640 N 140.419 -1.14872 1.07899 0
M  V30 1641 C 141.366 -2.19791 0.704319 0
M  V30 1642 C 142.336 -1.63238 -0.306987 0
M  V30 1643 O 143.521 -1.8983 -0.192171 0
M  V30 1644 C 140.661 -3.44911 0.114244 0
M  V30 1645 C 139.774 -4.15637 1.1777 0
M  V30 1646 C 138.909 -5.28324 0.552037 0
M  V30 1647 C 137.948 -5.90875 1.59789 0
M  V30 1648 N 137.085 -6.95022 0.994404 0
M  V30 1649 H 141.925 -2.5119 1.60336 0
M  V30 1650 H 139.462 -1.23356 0.801352 0
M  V30 1651 H 141.42 -4.16477 -0.245544 0
M  V30 1652 H 140.05 -3.14011 -0.74813 0
M  V30 1653 H 139.102 -3.42512 1.65499 0
M  V30 1654 H 140.414 -4.5823 1.97046 0
M  V30 1655 H 139.568 -6.06538 0.1402 0
M  V30 1656 H 138.307 -4.86939 -0.272431 0
M  V30 1657 H 137.312 -5.11369 2.01945 0
M  V30 1658 H 138.537 -6.34337 2.42474 0
M  V30 1659 H 136.483 -6.55722 0.190939 0
M  V30 1660 H 136.4 -7.36073 1.72432 0
M  V30 1661 H 137.668 -7.77123 0.608253 0
M  V30 1662 N 141.898 -0.863906 -1.31812 0
M  V30 1663 C 142.808 -0.318461 -2.32428 0
M  V30 1664 C 143.824 0.568496 -1.64451 0
M  V30 1665 O 145 0.46666 -1.95919 0
M  V30 1666 C 142.065 0.476355 -3.43412 0
M  V30 1667 C 141.126 -0.43784 -4.27061 0
M  V30 1668 C 140.359 0.319138 -5.32745 0
M  V30 1669 O 140.582 1.54799 -5.48993 0
M  V30 1670 O 139.516 -0.319861 -6.01049 0
M  V30 1671 H 143.342 -1.15229 -2.80991 0
M  V30 1672 H 140.927 -0.627103 -1.35602 0
M  V30 1673 H 142.809 0.927156 -4.11074 0
M  V30 1674 H 141.484 1.28683 -2.97022 0
M  V30 1675 H 140.391 -0.937013 -3.62175 0
M  V30 1676 H 141.724 -1.21375 -4.77 0
M  V30 1677 N 143.376 1.44774 -0.622745 0
M  V30 1678 C 144.324 2.32387 0.0994683 0
M  V30 1679 C 145.318 1.46859 0.844326 0
M  V30 1680 O 146.524 1.63254 0.758174 0
M  V30 1681 H 142.899 0.750273 0.0509291 0
M  V30 1682 H 144.87 2.91062 -0.65767 0
M  V30 1683 C 143.619 3.30723 1.07319 0
M  V30 1684 H 142.942 3.96541 0.509462 0
M  V30 1685 H 144.382 3.94725 1.54817 0
M  V30 1686 C 142.841 2.59021 2.15429 0
M  V30 1687 O 143.371 2.38286 3.23393 0
M  V30 1688 N 141.577 2.189 1.91131 0
M  V30 1689 H 141.124 2.35964 1.03337 0
M  V30 1690 H 141.082 1.71251 2.63668 0
M  V30 1691 N 144.854 0.36279 1.53368 0
M  V30 1692 C 146.103 -0.22888 2.00397 0
M  V30 1693 C 146.416 -1.50096 1.25421 0
M  V30 1694 O 147.622 -2.17106 1.63025 0
M  V30 1695 C 146.078 -0.458417 3.56969 0
M  V30 1696 C 145.686 0.798877 4.4082 0
M  V30 1697 C 147.43 -1.00789 4.12361 0
M  V30 1698 C 145.337 0.539078 5.88938 0
M  V30 1699 H 144.267 -0.089305 0.748693 0
M  V30 1700 H 146.918 0.481099 1.77081 0
M  V30 1701 H 145.3 -1.22959 3.76427 0
M  V30 1702 H 146.474 1.57262 4.33134 0
M  V30 1703 H 144.789 1.27137 3.96516 0
M  V30 1704 H 147.386 -1.21754 5.20653 0
M  V30 1705 H 147.729 -1.9692 3.66781 0
M  V30 1706 H 148.262 -0.296961 3.9669 0
M  V30 1707 H 145.001 1.47064 6.3879 0
M  V30 1708 H 144.521 -0.196222 5.99479 0
M  V30 1709 H 146.2 0.163542 6.46793 0
M  V30 1710 N 146.332 -1.57332 0.0918853 0
M  V30 1711 C 147.295 -2.12708 -0.85369 0
M  V30 1712 C 148.295 -1.05561 -1.213 0
M  V30 1713 O 149.485 -1.31461 -1.14296 0
M  V30 1714 C 146.617 -2.64503 -2.15061 0
M  V30 1715 H 147.81 -2.97573 -0.3729 0
M  V30 1716 H 145.363 -1.55509 -0.157072 0
M  V30 1717 H 146.098 -1.83149 -2.67632 0
M  V30 1718 H 145.883 -3.4284 -1.90272 0
M  V30 1719 H 147.373 -3.07351 -2.82711 0
M  V30 1720 N 147.81 0.181792 -1.56548 0
M  V30 1721 C 149.057 0.900097 -1.81396 0
M  V30 1722 C 149.385 1.82695 -0.667281 0
M  V30 1723 O 148.64 1.92614 0.346146 0
M  V30 1724 C 148.939 1.73728 -3.12335 0
M  V30 1725 C 148.605 0.960255 -4.40556 0
M  V30 1726 C 147.267 0.745766 -4.75386 0
M  V30 1727 C 149.619 0.414477 -5.19549 0
M  V30 1728 C 146.947 -0.0257694 -5.86694 0
M  V30 1729 C 149.299 -0.343916 -6.31664 0
M  V30 1730 C 147.963 -0.569301 -6.65068 0
M  V30 1731 H 147.233 0.329369 -0.663775 0
M  V30 1732 H 149.88 0.165647 -1.90782 0
M  V30 1733 H 148.185 2.54081 -2.98245 0
M  V30 1734 H 149.882 2.29591 -3.28769 0
M  V30 1735 H 146.472 1.13746 -4.13231 0
M  V30 1736 H 150.656 0.567554 -4.93044 0
M  V30 1737 H 145.912 -0.210233 -6.11038 0
M  V30 1738 H 150.086 -0.774133 -6.92084 0
M  V30 1739 H 147.713 -1.16903 -7.51158 0
M  V30 1740 N 149.288 1.51039 0.449983 0
M  V30 1741 C 150.537 1.62317 1.19733 0
M  V30 1742 C 150.85 0.339101 1.92638 0
M  V30 1743 O 152.056 0.331069 2.69474 0
M  V30 1744 C 150.512 2.86608 2.17678 0
M  V30 1745 C 150.12 4.21972 1.50479 0
M  V30 1746 C 151.864 3.07239 2.92924 0
M  V30 1747 C 149.771 5.37426 2.46834 0
M  V30 1748 H 148.701 0.604532 0.450619 0
M  V30 1749 H 151.352 1.77494 0.465625 0
M  V30 1750 H 149.734 2.65037 2.94231 0
M  V30 1751 H 150.908 4.53878 0.795716 0
M  V30 1752 H 149.223 4.07117 0.874344 0
M  V30 1753 H 151.82 3.90668 3.65079 0
M  V30 1754 H 152.163 2.19807 3.5354 0
M  V30 1755 H 152.696 3.29091 2.23481 0
M  V30 1756 H 149.435 6.27079 1.90926 0
M  V30 1757 H 148.955 5.09912 3.15832 0
M  V30 1758 H 150.634 5.68862 3.08228 0
M  V30 1759 N 150.766 -0.704594 1.40972 0
M  V30 1760 C 152.013 -1.46458 1.39844 0
M  V30 1761 C 152.341 -1.94499 0.00447594 0
M  V30 1762 O 151.596 -1.69275 -0.982057 0
M  V30 1763 C 151.895 -2.698 2.34399 0
M  V30 1764 C 151.561 -2.40464 3.81429 0
M  V30 1765 C 150.223 -2.32174 4.21484 0
M  V30 1766 C 152.575 -2.16086 4.74296 0
M  V30 1767 C 149.903 -1.97589 5.52427 0
M  V30 1768 C 152.255 -1.83011 6.05549 0
M  V30 1769 C 150.919 -1.7321 6.44635 0
M  V30 1770 H 150.189 -0.535927 0.511725 0
M  V30 1771 H 152.836 -0.806124 1.73706 0
M  V30 1772 H 151.141 -3.40536 1.93759 0
M  V30 1773 H 152.838 -3.27919 2.30804 0
M  V30 1774 H 149.428 -2.47808 3.49699 0
M  V30 1775 H 153.612 -2.2144 4.4416 0
M  V30 1776 H 148.868 -1.88547 5.81601 0
M  V30 1777 H 153.042 -1.63164 6.77016 0
M  V30 1778 H 150.669 -1.46179 7.46013 0
M  V30 1779 N 152.244 -1.26651 -0.937939 0
M  V30 1780 C 153.174 -1.10993 -2.05433 0
M  V30 1781 C 154.155 -0.0142161 -1.70094 0
M  V30 1782 O 155.34 -0.186837 -1.93299 0
M  V30 1783 C 152.47 -0.745561 -3.39203 0
M  V30 1784 C 151.424 -1.79337 -3.88616 0
M  V30 1785 C 150.75 -1.28324 -5.19073 0
M  V30 1786 C 152.05 -3.19553 -4.13138 0
M  V30 1787 H 153.744 -2.0438 -2.1879 0
M  V30 1788 H 151.29 -0.984041 -1.05131 0
M  V30 1789 H 153.243 -0.622888 -4.16771 0
M  V30 1790 H 151.967 0.22401 -3.25831 0
M  V30 1791 H 150.626 -1.90477 -3.13231 0
M  V30 1792 H 150.274 -0.303414 -5.02084 0
M  V30 1793 H 149.974 -1.98369 -5.53103 0
M  V30 1794 H 151.498 -1.1733 -5.99221 0
M  V30 1795 H 152.912 -3.11471 -4.81309 0
M  V30 1796 H 151.309 -3.87218 -4.58457 0
M  V30 1797 H 152.379 -3.65368 -3.18801 0
M  V30 1798 N 153.722 1.14298 -1.08507 0
M  V30 1799 C 154.669 2.19414 -0.715965 0
M  V30 1800 C 155.639 1.63399 0.298326 0
M  V30 1801 O 156.824 1.89929 0.182101 0
M  V30 1802 C 153.964 3.44845 -0.132534 0
M  V30 1803 C 153.077 4.15007 -1.19973 0
M  V30 1804 C 152.212 5.28024 -0.580048 0
M  V30 1805 C 151.251 5.9002 -1.62921 0
M  V30 1806 N 150.388 6.94485 -1.03125 0
M  V30 1807 H 155.228 2.50336 -1.61666 0
M  V30 1808 H 152.765 1.2293 -0.807882 0
M  V30 1809 H 154.723 4.16601 0.223454 0
M  V30 1810 H 153.353 3.14403 0.731467 0
M  V30 1811 H 152.405 3.41629 -1.67313 0
M  V30 1812 H 153.717 4.57178 -1.99473 0
M  V30 1813 H 152.871 6.06455 -0.172364 0
M  V30 1814 H 151.61 4.87076 0.246603 0
M  V30 1815 H 150.615 5.10291 -2.04654 0
M  V30 1816 H 151.84 6.33042 -2.45835 0
M  V30 1817 H 149.786 6.55612 -0.225711 0
M  V30 1818 H 149.703 7.35148 -1.76334 0
M  V30 1819 H 150.971 7.7679 -0.649458 0
M  V30 1820 N 155.201 0.870884 1.31352 0
M  V30 1821 C 156.149 0.316445 2.30437 0
M  V30 1822 C 157.143 -0.568965 1.59559 0
M  V30 1823 O 158.349 -0.454964 1.74155 0
M  V30 1824 H 154.724 0.0836521 0.747333 0
M  V30 1825 H 156.695 1.16606 2.74673 0
M  V30 1826 C 155.444 -0.46635 3.44558 0
M  V30 1827 H 154.767 0.205687 3.99271 0
M  V30 1828 H 156.207 -0.819614 4.16003 0
M  V30 1829 C 154.666 -1.65797 2.9328 0
M  V30 1830 O 155.196 -2.75728 2.92125 0
M  V30 1831 N 153.402 -1.49041 2.4947 0
M  V30 1832 H 152.949 -0.59612 2.50608 0
M  V30 1833 H 152.907 -2.28911 2.15516 0
M  V30 1834 N 156.679 -1.44442 0.630414 0
M  V30 1835 C 157.626 -2.30678 -0.0749355 0
M  V30 1836 C 158.596 -1.4344 -0.837502 0
M  V30 1837 O 159.781 -1.72343 -0.818684 0
M  V30 1838 C 156.921 -3.28706 -1.05103 0
M  V30 1839 C 156.034 -4.31046 -0.286954 0
M  V30 1840 C 155.169 -5.16167 -1.2548 0
M  V30 1841 C 154.208 -6.10216 -0.479843 0
M  V30 1842 N 153.345 -6.88039 -1.39811 0
M  V30 1843 H 158.185 -2.90454 0.666386 0
M  V30 1844 H 155.722 -1.43107 0.340404 0
M  V30 1845 H 157.68 -3.84027 -1.63031 0
M  V30 1846 H 156.31 -2.70632 -1.75949 0
M  V30 1847 H 155.362 -3.78203 0.408243 0
M  V30 1848 H 156.674 -4.97794 0.316657 0
M  V30 1849 H 155.828 -5.76002 -1.90544 0
M  V30 1850 H 154.567 -4.49491 -1.89233 0
M  V30 1851 H 153.572 -5.49491 0.184295 0
M  V30 1852 H 154.797 -6.78928 0.152965 0
M  V30 1853 H 152.743 -6.24032 -2.02287 0
M  V30 1854 H 152.66 -7.51223 -0.848508 0
M  V30 1855 H 153.928 -7.52397 -2.03762 0
M  V30 1856 N 158.157 -0.370918 -1.53173 0
M  V30 1857 C 159.104 0.473035 -2.259 0
M  V30 1858 C 160.074 1.07311 -1.26781 0
M  V30 1859 O 161.259 1.1046 -1.55574 0
M  V30 1860 C 158.399 1.60405 -3.05556 0
M  V30 1861 C 157.512 1.02863 -4.19575 0
M  V30 1862 C 156.647 2.12918 -4.86661 0
M  V30 1863 C 155.686 1.52869 -5.92704 0
M  V30 1864 N 154.823 2.56779 -6.53459 0
M  V30 1865 H 159.663 -0.153649 -2.97604 0
M  V30 1866 H 157.2 -0.0875946 -1.46839 0
M  V30 1867 H 159.158 2.27034 -3.50016 0
M  V30 1868 H 157.788 2.20131 -2.36097 0
M  V30 1869 H 156.84 0.252465 -3.79561 0
M  V30 1870 H 158.152 0.549642 -4.95762 0
M  V30 1871 H 157.306 2.87356 -5.34333 0
M  V30 1872 H 156.045 2.6417 -4.09958 0
M  V30 1873 H 155.05 0.769479 -5.44389 0
M  V30 1874 H 156.275 1.02435 -6.7133 0
M  V30 1875 H 154.221 3.07235 -5.79606 0
M  V30 1876 H 154.138 2.13583 -7.25202 0
M  V30 1877 H 155.406 3.30903 -7.05779 0
M  V30 1878 N 159.635 1.57281 -0.100228 0
M  V30 1879 C 160.582 2.14305 0.856858 0
M  V30 1880 C 161.552 1.06296 1.27634 0
M  V30 1881 O 162.737 1.34109 1.35718 0
M  V30 1882 C 159.877 2.73184 2.10866 0
M  V30 1883 C 158.99 3.95442 1.73925 0
M  V30 1884 C 158.125 4.42468 2.93931 0
M  V30 1885 C 157.164 5.57303 2.5314 0
M  V30 1886 N 156.301 5.99158 3.65997 0
M  V30 1887 H 161.141 2.95772 0.363726 0
M  V30 1888 H 158.678 1.46139 0.167858 0
M  V30 1889 H 160.636 3.05442 2.84185 0
M  V30 1890 H 159.266 1.94437 2.57671 0
M  V30 1891 H 158.318 3.69464 0.905554 0
M  V30 1892 H 159.63 4.78769 1.39935 0
M  V30 1893 H 158.784 4.76537 3.75496 0
M  V30 1894 H 157.523 3.58052 3.31134 0
M  V30 1895 H 156.528 5.22857 1.70003 0
M  V30 1896 H 157.753 6.43471 2.17075 0
M  V30 1897 H 155.699 5.17687 4.02909 0
M  V30 1898 H 155.616 6.77295 3.35869 0
M  V30 1899 H 156.884 6.3786 4.48057 0
M  V30 1900 N 161.113 -0.173488 1.56642 0
M  V30 1901 C 162.045 -1.23935 1.92802 0
M  V30 1902 C 163.058 -1.40589 0.820889 0
M  V30 1903 O 164.247 -1.40631 1.09933 0
M  V30 1904 C 161.347 -2.60837 2.16373 0
M  V30 1905 C 160.52 -2.6551 3.47596 0
M  V30 1906 C 159.579 -3.8376 3.60021 0
M  V30 1907 O 158.605 -3.69859 4.32658 0
M  V30 1908 N 159.807 -5.00127 2.94709 0
M  V30 1909 H 162.572 -0.932236 2.84832 0
M  V30 1910 H 160.133 -0.363268 1.57772 0
M  V30 1911 H 162.125 -3.38407 2.21952 0
M  V30 1912 H 160.695 -2.83948 1.30738 0
M  V30 1913 H 159.915 -1.74052 3.53694 0
M  V30 1914 H 161.203 -2.65641 4.33949 0
M  V30 1915 H 160.601 -5.14322 2.35563 0
M  V30 1916 H 159.158 -5.75567 3.05886 0
M  V30 1917 N 162.591 -1.51276 -0.441967 0
M  V30 1918 C 163.538 -1.72256 -1.53612 0
M  V30 1919 C 164.508 -0.564164 -1.56225 0
M  V30 1920 O 165.693 -0.798074 -1.73307 0
M  V30 1921 C 162.833 -1.84932 -2.91366 0
M  V30 1922 C 161.946 -3.12459 -2.98317 0
M  V30 1923 C 161.081 -3.15758 -4.27166 0
M  V30 1924 C 160.12 -4.37619 -4.27967 0
M  V30 1925 N 159.257 -4.38493 -5.48333 0
M  V30 1926 H 164.097 -2.65654 -1.35026 0
M  V30 1927 H 161.634 -1.31662 -0.656009 0
M  V30 1928 H 163.592 -1.90263 -3.7129 0
M  V30 1929 H 162.222 -0.949461 -3.08521 0
M  V30 1930 H 161.274 -3.1646 -2.11086 0
M  V30 1931 H 162.586 -4.02382 -2.94771 0
M  V30 1932 H 161.74 -3.19979 -5.15459 0
M  V30 1933 H 160.479 -2.23715 -4.33362 0
M  V30 1934 H 159.484 -4.33579 -3.38067 0
M  V30 1935 H 160.709 -5.30921 -4.23438 0
M  V30 1936 H 158.655 -3.49318 -5.55259 0
M  V30 1937 H 158.572 -5.22219 -5.46647 0
M  V30 1938 H 159.84 -4.469 -6.38671 0
M  V30 1939 N 164.069 0.697108 -1.41344 0
M  V30 1940 C 165.309 1.46939 -1.42085 0
M  V30 1941 C 165.673 1.9198 -0.0280397 0
M  V30 1942 O 166.874 2.6865 0.0897504 0
M  V30 1943 C 165.145 2.64985 -2.39828 0
M  V30 1944 S 166.704 3.54147 -2.59085 0
M  V30 1945 H 163.522 0.502146 -0.503359 0
M  V30 1946 H 166.124 0.813546 -1.77769 0
M  V30 1947 H 164.828 2.30098 -3.39828 0
M  V30 1948 H 164.359 3.35464 -2.05493 0
M  V30 1949 H 166.374 4.60137 -1.85711 0
M  V30 1950 N 165.547 1.27147 0.931209 0
M  V30 1951 C 166.796 1.12664 1.67302 0
M  V30 1952 C 167.109 -0.327718 1.92835 0
M  V30 1953 O 168.315 -0.593392 2.64936 0
M  V30 1954 C 166.771 1.9683 3.01307 0
M  V30 1955 C 166.379 3.46901 2.83485 0
M  V30 1956 C 168.123 1.90985 3.79111 0
M  V30 1957 C 166.03 4.23279 4.13024 0
M  V30 1958 H 164.96 0.41803 0.627509 0
M  V30 1959 H 167.611 1.51539 1.03481 0
M  V30 1960 H 165.993 1.50797 3.66164 0
M  V30 1961 H 167.167 4.00773 2.27415 0
M  V30 1962 H 165.482 3.54088 2.19113 0
M  V30 1963 H 168.079 2.45328 4.75098 0
M  V30 1964 H 168.422 0.882718 4.06834 0
M  V30 1965 H 168.955 2.34895 3.21044 0
M  V30 1966 H 165.694 5.26503 3.90481 0
M  V30 1967 H 165.214 3.74186 4.6877 0
M  V30 1968 H 166.893 4.32265 4.81411 0
M  V30 1969 N 167.025 -1.13721 1.09112 0
M  V30 1970 C 168.441 -1.36914 0.820174 0
M  V30 1971 C 168.641 -1.93356 -0.567079 0
M  V30 1972 O 167.697 -2.15093 -1.32255 0
M  V30 1973 C 169.01 -2.3235 1.90877 0
M  V30 1974 C 170.558 -2.45973 1.93562 0
M  V30 1975 C 171.033 -3.44714 3.01556 0
M  V30 1976 N 172.524 -3.52263 3.00775 0
M  V30 1977 C 173.259 -4.28536 3.80978 0
M  V30 1978 N 172.755 -5.07991 4.71081 0
M  V30 1979 N 174.548 -4.23804 3.69251 0
M  V30 1980 H 166.699 -0.754348 1.98553 0
M  V30 1981 H 168.962 -0.3944 0.862063 0
M  V30 1982 H 168.668 -1.98027 2.90651 0
M  V30 1983 H 168.542 -3.32332 1.78424 0
M  V30 1984 H 170.929 -2.79584 0.944286 0
M  V30 1985 H 171.01 -1.45926 2.10093 0
M  V30 1986 H 170.654 -3.11835 4.00901 0
M  V30 1987 H 170.584 -4.44558 2.82269 0
M  V30 1988 H 173.075 -2.95567 2.35475 0
M  V30 1989 H 173.388 -5.63487 5.28869 0
M  V30 1990 H 171.733 -5.07235 4.75119 0
M  V30 1991 H 174.924 -3.60806 2.98222 0
M  V30 1992 H 175.097 -4.82995 4.31995 0
M  V30 1993 N 168.503 -0.877838 -1.30888 0
M  V30 1994 C 169.75 -0.492696 -1.96415 0
M  V30 1995 C 170.078 0.956671 -1.69346 0
M  V30 1996 O 169.333 1.68993 -0.986913 0
M  V30 1997 C 169.632 -0.705748 -3.50363 0
M  V30 1998 C 169.298 -2.1291 -3.97467 0
M  V30 1999 C 167.96 -2.51834 -4.1004 0
M  V30 2000 C 170.312 -3.05702 -4.22132 0
M  V30 2001 C 167.64 -3.82775 -4.44635 0
M  V30 2002 C 169.992 -4.36166 -4.58194 0
M  V30 2003 C 168.656 -4.74993 -4.68975 0
M  V30 2004 H 167.926 -0.18029 -0.718733 0
M  V30 2005 H 170.573 -1.11233 -1.55883 0
M  V30 2006 H 168.878 -0.00303058 -3.918 0
M  V30 2007 H 170.575 -0.387456 -3.99124 0
M  V30 2008 H 167.165 -1.81694 -3.88182 0
M  V30 2009 H 171.349 -2.76853 -4.11906 0
M  V30 2010 H 166.605 -4.12609 -4.51181 0
M  V30 2011 H 170.779 -5.08111 -4.76231 0
M  V30 2012 H 168.406 -5.76495 -4.95537 0
M  V30 2013 N 169.982 1.44106 -0.638065 0
M  V30 2014 C 171.228 2.02277 -0.145546 0
M  V30 2015 C 171.561 1.50125 1.23191 0
M  V30 2016 O 170.836 0.688133 1.8192 0
M  V30 2017 C 171.119 3.59829 -0.139791 0
M  V30 2018 C 170.972 4.22247 -1.55008 0
M  V30 2019 C 172.291 4.36873 0.531966 0
M  V30 2020 H 169.41 0.734992 -0.0543632 0
M  V30 2021 H 172.052 1.71592 -0.815863 0
M  V30 2022 H 170.202 3.86102 0.431007 0
M  V30 2023 H 171.874 4.07057 -2.1703 0
M  V30 2024 H 170.117 3.79476 -2.10191 0
M  V30 2025 H 170.788 5.31284 -1.49804 0
M  V30 2026 H 173.264 4.16074 0.0464781 0
M  V30 2027 H 172.14 5.4657 0.505206 0
M  V30 2028 H 172.401 4.11995 1.60352 0
M  V30 2029 N 171.46 0.379036 1.52974 0
M  V30 2030 C 172.737 -0.263479 1.93817 0
M  V30 2031 C 173.117 -1.65244 1.31368 0
M  V30 2032 O 172.465 -2.23448 0.477856 0
M  V30 2033 C 172.675 -0.300166 3.47707 0
M  V30 2034 C 174.023 -0.534061 4.21228 0
M  V30 2035 O 175.047 -0.38081 3.54159 0
M  V30 2036 O 173.906 -0.833501 5.40106 0
M  V30 2037 H 171 -0.161149 0.811147 0
M  V30 2038 H 173.546 0.432798 1.64088 0
M  V30 2039 H 172.318 0.673138 3.85467 0
M  V30 2040 H 171.941 -1.04179 3.83709 0
M  V30 2041 N 172.938 -1.57226 0.108567 0
M  V30 2042 C 174.185 -1.94833 -0.551943 0
M  V30 2043 C 174.513 -0.991204 -1.67348 0
M  V30 2044 O 173.768 -0.0131878 -1.95696 0
M  V30 2045 C 174.067 -3.38911 -1.13463 0
M  V30 2046 C 173.733 -4.50696 -0.135509 0
M  V30 2047 C 172.395 -4.80998 0.139252 0
M  V30 2048 C 174.747 -5.18333 0.545957 0
M  V30 2049 C 172.075 -5.76259 1.10194 0
M  V30 2050 C 174.427 -6.14627 1.49721 0
M  V30 2051 C 173.091 -6.43327 1.78006 0
M  V30 2052 H 172.361 -0.712944 -0.20197 0
M  V30 2053 H 175.008 -1.90582 0.18726 0
M  V30 2054 H 173.313 -3.39805 -1.95037 0
M  V30 2055 H 175.01 -3.65317 -1.65362 0
M  V30 2056 H 171.6 -4.27087 -0.359846 0
M  V30 2057 H 175.784 -4.95087 0.346842 0
M  V30 2058 H 171.04 -5.96804 1.32795 0
M  V30 2059 H 175.214 -6.66126 2.03099 0
M  V30 2060 H 172.841 -7.1695 2.52759 0
M  V30 2061 N 174.416 0.165178 -1.56732 0
M  V30 2062 C 175.827 0.727046 -1.71962 0
M  V30 2063 C 176.178 1.82508 -0.720078 0
M  V30 2064 O 175.303 2.16082 0.117242 0
M  V30 2065 C 175.898 1.32559 -3.11791 0
M  V30 2066 C 174.457 1.83422 -3.28684 0
M  V30 2067 C 173.604 0.715567 -2.67908 0
M  V30 2068 H 176.555 -0.0602896 -1.58585 0
M  V30 2069 H 176.576 2.19533 -3.10782 0
M  V30 2070 H 176.088 0.526195 -3.84516 0
M  V30 2071 H 174.189 2.65986 -2.60926 0
M  V30 2072 H 174.302 1.97543 -4.36478 0
M  V30 2073 H 172.666 1.13758 -2.27884 0
M  V30 2074 H 173.449 -0.0720836 -3.43224 0
M  V30 2075 N 175.894 1.51508 0.433938 0
M  V30 2076 C 177.142 1.6402 1.18075 0
M  V30 2077 C 177.463 0.360328 1.91642 0
M  V30 2078 O 176.733 -0.623945 1.85698 0
M  V30 2079 H 175.313 0.6045 0.43885 0
M  V30 2080 H 177.975 1.88452 0.497178 0
M  V30 2081 H 177.071 2.46949 1.90847 0
M  V30 2082 N 177.372 -0.689602 1.41712 0
M  V30 2083 C 178.322 -1.79571 1.40493 0
M  V30 2084 C 179.306 -1.58473 0.278409 0
M  V30 2085 O 180.498 -1.69204 0.519532 0
M  V30 2086 C 177.627 -3.17923 1.29536 0
M  V30 2087 C 176.713 -3.44695 2.47075 0
M  V30 2088 N 177.104 -3.42132 3.72531 0
M  V30 2089 C 175.402 -3.75269 2.41017 0
M  V30 2090 C 176.103 -3.67976 4.50521 0
M  V30 2091 N 175.079 -3.88014 3.80718 0
M  V30 2092 H 178.881 -1.75961 2.35404 0
M  V30 2093 H 176.395 -0.889839 1.35851 0
M  V30 2094 H 178.392 -3.97167 1.26745 0
M  V30 2095 H 177.052 -3.22741 0.356153 0
M  V30 2096 H 178.063 -3.22375 4.05333 0
M  V30 2097 H 174.74 -3.87421 1.55599 0
M  V30 2098 H 176.13 -3.7208 5.59469 0
M  V30 2099 N 178.85 -1.27639 -0.924453 0
M  V30 2100 C 180.261 -1.12834 -1.48746 0
M  V30 2101 C 180.612 0.285505 -1.94112 0
M  V30 2102 O 179.737 1.17874 -1.81479 0
M  V30 2103 C 180.332 -2.04217 -2.70334 0
M  V30 2104 C 178.891 -1.93509 -3.22848 0
M  V30 2105 C 178.038 -1.96583 -1.95577 0
M  V30 2106 H 180.989 -1.40484 -0.738233 0
M  V30 2107 H 181.01 -1.59989 -3.4523 0
M  V30 2108 H 180.522 -3.07111 -2.37285 0
M  V30 2109 H 178.623 -0.936131 -3.60649 0
M  V30 2110 H 178.736 -2.79917 -3.88823 0
M  V30 2111 H 177.1 -1.4085 -2.12211 0
M  V30 2112 H 177.883 -3.01137 -1.64837 0
M  V30 2113 N 180.328 1.1314 -1.09713 0
M  V30 2114 C 181.275 2.18642 -0.739196 0
M  V30 2115 C 182.245 1.63706 0.280978 0
M  V30 2116 O 183.43 1.90111 0.161946 0
M  V30 2117 C 180.57 3.44685 -0.169102 0
M  V30 2118 C 179.683 4.13711 -1.24367 0
M  V30 2119 C 178.818 5.27379 -0.636019 0
M  V30 2120 C 177.857 5.88259 -1.69169 0
M  V30 2121 N 176.994 6.93352 -1.10485 0
M  V30 2122 H 181.834 2.48607 -1.64312 0
M  V30 2123 H 179.371 1.22066 -0.820875 0
M  V30 2124 H 181.329 4.16815 0.179256 0
M  V30 2125 H 179.959 3.15161 0.698079 0
M  V30 2126 H 179.011 3.39835 -1.70927 0
M  V30 2127 H 180.323 4.55037 -2.04311 0
M  V30 2128 H 179.477 6.06238 -0.236677 0
M  V30 2129 H 178.216 4.8731 0.194928 0
M  V30 2130 H 177.221 5.08092 -2.10055 0
M  V30 2131 H 178.446 6.30399 -2.52536 0
M  V30 2132 H 176.392 6.55335 -0.295234 0
M  V30 2133 H 176.309 7.33236 -1.84121 0
M  V30 2134 H 177.577 7.76057 -0.73181 0
M  V30 2135 N 181.806 0.884767 1.30421 0
M  V30 2136 C 182.736 0.367574 2.30589 0
M  V30 2137 C 183.717 -0.549464 1.60981 0
M  V30 2138 O 184.902 -0.46336 1.88591 0
M  V30 2139 C 182.032 -0.418944 3.44764 0
M  V30 2140 C 180.986 0.406316 4.26067 0
M  V30 2141 C 180.312 -0.506793 5.32293 0
M  V30 2142 C 181.612 1.64832 4.95608 0
M  V30 2143 H 183.306 1.20462 2.74097 0
M  V30 2144 H 180.852 0.580695 1.31772 0
M  V30 2145 H 182.805 -0.791395 4.13902 0
M  V30 2146 H 181.529 -1.28964 3.0006 0
M  V30 2147 H 180.188 0.760903 3.58617 0
M  V30 2148 H 179.836 -1.37519 4.83836 0
M  V30 2149 H 179.536 0.0415828 5.87585 0
M  V30 2150 H 181.06 -0.875764 6.04287 0
M  V30 2151 H 182.474 1.34646 5.57264 0
M  V30 2152 H 180.871 2.13688 5.60765 0
M  V30 2153 H 181.941 2.39284 4.21748 0
M  V30 2154 N 183.284 -1.43765 0.645699 0
M  V30 2155 C 184.509 -2.06767 0.161883 0
M  V30 2156 C 184.934 -1.48034 -1.16049 0
M  V30 2157 O 184.292 -0.587369 -1.71522 0
M  V30 2158 C 184.34 -3.60519 0.0762003 0
M  V30 2159 O 183.444 -4.00982 -0.963721 0
M  V30 2160 H 182.785 -0.657675 0.091429 0
M  V30 2161 H 185.315 -1.84397 0.886499 0
M  V30 2162 H 185.325 -4.07853 -0.109604 0
M  V30 2163 H 184 -4.02646 1.04157 0
M  V30 2164 H 182.577 -3.65253 -0.751312 0
M  V30 2165 N 184.763 -0.387143 -1.52771 0
M  V30 2166 C 185.993 0.195585 -2.05672 0
M  V30 2167 C 186.401 1.41241 -1.25887 0
M  V30 2168 O 185.744 1.81265 -0.298081 0
M  V30 2169 C 185.806 0.632327 -3.53895 0
M  V30 2170 C 185.47 -0.470739 -4.54569 0
M  V30 2171 C 186.467 -1.32746 -5.02667 0
M  V30 2172 C 184.152 -0.637151 -4.98243 0
M  V30 2173 C 186.146 -2.33574 -5.93061 0
M  V30 2174 C 183.833 -1.64877 -5.88438 0
M  V30 2175 C 184.831 -2.49649 -6.35739 0
M  V30 2176 O 184.519 -3.49082 -7.24153 0
M  V30 2177 H 184.251 0.033658 -0.675162 0
M  V30 2178 H 186.805 -0.550221 -1.97893 0
M  V30 2179 H 185.035 1.43008 -3.59285 0
M  V30 2180 H 186.724 1.14048 -3.89548 0
M  V30 2181 H 187.49 -1.21019 -4.69659 0
M  V30 2182 H 183.369 0.0129567 -4.60998 0
M  V30 2183 H 186.913 -2.99777 -6.29904 0
M  V30 2184 H 182.81 -1.76643 -6.2086 0
M  V30 2185 H 183.578 -3.45065 -7.42208 0
M  V30 2186 N 186.241 1.57166 -0.116904 0
M  V30 2187 C 187.466 1.999 0.55271 0
M  V30 2188 C 187.891 0.996039 1.59564 0
M  V30 2189 O 187.249 -0.032556 1.81271 0
M  V30 2190 C 187.297 3.4152 1.15742 0
M  V30 2191 O 186.401 3.44106 2.27299 0
M  V30 2192 H 185.742 0.649447 0.138258 0
M  V30 2193 H 188.272 2.03573 -0.204759 0
M  V30 2194 H 188.282 3.79684 1.49346 0
M  V30 2195 H 186.957 4.14034 0.393493 0
M  V30 2196 H 185.534 3.17759 1.9515 0
M  V30 2197 N 187.719 -0.156864 1.56817 0
M  V30 2198 C 188.649 -1.19589 2.00551 0
M  V30 2199 C 189.63 -1.4536 0.883426 0
M  V30 2200 O 190.815 -1.56449 1.15054 0
M  V30 2201 C 187.945 -2.53143 2.37773 0
M  V30 2202 C 186.899 -2.41913 3.53075 0
M  V30 2203 C 186.225 -3.80088 3.76081 0
M  V30 2204 C 187.525 -1.91157 4.86062 0
M  V30 2205 H 189.219 -0.832293 2.87599 0
M  V30 2206 H 186.765 -0.398918 1.38364 0
M  V30 2207 H 188.718 -3.26047 2.66967 0
M  V30 2208 H 187.442 -2.91319 1.4765 0
M  V30 2209 H 186.101 -1.71462 3.24031 0
M  V30 2210 H 185.749 -4.15683 2.83225 0
M  V30 2211 H 185.449 -3.73439 4.53671 0
M  V30 2212 H 186.973 -4.54556 4.0769 0
M  V30 2213 H 188.387 -2.53846 5.14038 0
M  V30 2214 H 186.784 -1.95422 5.67389 0
M  V30 2215 H 187.854 -0.866673 4.77092 0
M  V30 2216 N 189.197 -1.51736 -0.425897 0
M  V30 2217 C 190.145 -1.74464 -1.53834 0
M  V30 2218 C 191.139 -0.611241 -1.57988 0
M  V30 2219 O 192.345 -0.792899 -1.61596 0
M  V30 2220 H 188.72 -0.551437 -0.511293 0
M  V30 2221 H 190.691 -2.67694 -1.31843 0
M  V30 2222 C 189.44 -1.8972 -2.91379 0
M  V30 2223 H 188.763 -2.76344 -2.88919 0
M  V30 2224 H 190.203 -2.09629 -3.68553 0
M  V30 2225 C 188.662 -0.65992 -3.30374 0
M  V30 2226 O 189.192 0.180083 -4.01296 0
M  V30 2227 N 187.398 -0.500677 -2.86254 0
M  V30 2228 H 186.945 -1.18532 -2.28709 0
M  V30 2229 H 186.903 0.325903 -3.12706 0
M  V30 2230 N 190.675 0.682077 -1.42076 0
M  V30 2231 C 191.622 1.79578 -1.44984 0
M  V30 2232 C 192.592 1.6332 -0.302614 0
M  V30 2233 O 193.777 1.83978 -0.505633 0
M  V30 2234 C 190.917 3.1756 -1.35091 0
M  V30 2235 C 190.03 3.45156 -2.59791 0
M  V30 2236 C 189.165 4.72826 -2.42093 0
M  V30 2237 C 188.204 4.93433 -3.62202 0
M  V30 2238 N 187.341 6.12338 -3.43491 0
M  V30 2239 H 192.181 1.76427 -2.40161 0
M  V30 2240 H 189.718 0.861376 -1.19242 0
M  V30 2241 H 191.676 3.97287 -1.27354 0
M  V30 2242 H 190.306 3.19854 -0.435133 0
M  V30 2243 H 189.358 2.59736 -2.77923 0
M  V30 2244 H 190.67 3.5628 -3.49094 0
M  V30 2245 H 189.824 5.60631 -2.319 0
M  V30 2246 H 188.563 4.63973 -1.50268 0
M  V30 2247 H 187.568 4.04073 -3.72834 0
M  V30 2248 H 188.793 5.04136 -4.54998 0
M  V30 2249 H 186.739 6.04672 -2.54377 0
M  V30 2250 H 186.656 6.2429 -4.26377 0
M  V30 2251 H 187.924 7.02841 -3.37097 0
M  V30 2252 N 192.153 1.28127 0.917671 0
M  V30 2253 C 193.383 1.17722 1.6978 0
M  V30 2254 C 193.791 -0.267261 1.87303 0
M  V30 2255 O 193.134 -1.19286 1.39702 0
M  V30 2256 C 193.196 1.79958 3.11216 0
M  V30 2257 C 192.86 3.29187 3.16993 0
M  V30 2258 C 193.857 4.25679 2.98485 0
M  V30 2259 C 191.542 3.70075 3.39632 0
M  V30 2260 C 193.536 5.61035 3.02521 0
M  V30 2261 C 191.223 5.05557 3.433 0
M  V30 2262 C 192.221 6.00847 3.24764 0
M  V30 2263 O 191.909 7.33859 3.28187 0
M  V30 2264 H 191.641 0.409788 0.537634 0
M  V30 2265 H 194.195 1.69694 1.15728 0
M  V30 2266 H 192.425 1.22475 3.66793 0
M  V30 2267 H 194.114 1.64125 3.71238 0
M  V30 2268 H 194.88 3.95426 2.80826 0
M  V30 2269 H 190.759 2.96373 3.53106 0
M  V30 2270 H 194.303 6.35388 2.87971 0
M  V30 2271 H 190.2 5.35462 3.60486 0
M  V30 2272 H 190.968 7.42436 3.44575 0
M  V30 2273 N 193.631 -1.12557 1.10312 0
M  V30 2274 C 194.878 -1.84038 0.844759 0
M  V30 2275 C 195.206 -1.84026 -0.629668 0
M  V30 2276 O 194.461 -1.28026 -1.48013 0
M  V30 2277 C 194.76 -3.31462 1.33669 0
M  V30 2278 C 194.426 -3.51647 2.82232 0
M  V30 2279 C 193.088 -3.56864 3.22802 0
M  V30 2280 C 195.44 -3.58867 3.77974 0
M  V30 2281 C 192.768 -3.66844 4.57867 0
M  V30 2282 C 195.12 -3.70375 5.1284 0
M  V30 2283 C 193.784 -3.73848 5.52986 0
M  V30 2284 H 193.054 -0.673444 0.309119 0
M  V30 2285 H 195.701 -1.32824 1.37949 0
M  V30 2286 H 194.006 -3.85091 0.721949 0
M  V30 2287 H 195.703 -3.85236 1.11329 0
M  V30 2288 H 192.293 -3.48249 2.49842 0
M  V30 2289 H 196.477 -3.54107 3.47738 0
M  V30 2290 H 191.733 -3.67804 4.88396 0
M  V30 2291 H 195.907 -3.74904 5.86873 0
M  V30 2292 H 193.534 -3.81333 6.57639 0
M  V30 2293 N 195.109 -0.891671 -1.2995 0
M  V30 2294 C 196.057 -0.353066 -2.29905 0
M  V30 2295 C 197.051 0.543509 -1.60444 0
M  V30 2296 O 198.257 0.4272 -1.74857 0
M  V30 2297 H 194.632 -0.095531 -0.745907 0
M  V30 2298 H 196.603 -1.20961 -2.72784 0
M  V30 2299 C 195.352 0.411475 -3.45257 0
M  V30 2300 H 194.675 -0.269182 -3.98893 0
M  V30 2301 H 196.115 0.753328 -4.17254 0
M  V30 2302 C 194.574 1.6111 -2.9588 0
M  V30 2303 O 195.104 2.71045 -2.96475 0
M  V30 2304 N 193.31 1.45054 -2.51809 0
M  V30 2305 H 192.857 0.556175 -2.51524 0
M  V30 2306 H 192.815 2.25453 -2.1913 0
M  V30 2307 N 196.587 1.43421 -0.653314 0
M  V30 2308 C 197.836 2.01032 -0.164076 0
M  V30 2309 C 198.149 1.52147 1.22926 0
M  V30 2310 O 199.355 2.02031 1.81371 0
M  V30 2311 C 197.811 3.59082 -0.24252 0
M  V30 2312 C 197.419 4.1696 -1.63855 0
M  V30 2313 C 199.163 4.24079 0.18911 0
M  V30 2314 C 197.07 5.67304 -1.67092 0
M  V30 2315 H 196 0.751798 -0.0575769 0
M  V30 2316 H 198.651 1.6439 -0.815362 0
M  V30 2317 H 197.033 3.93125 0.476276 0
M  V30 2318 H 198.207 3.94416 -2.38271 0
M  V30 2319 H 196.522 3.64335 -2.01616 0
M  V30 2320 H 199.119 5.34381 0.184775 0
M  V30 2321 H 199.462 3.98005 1.22056 0
M  V30 2322 H 199.995 3.94918 -0.477938 0
M  V30 2323 H 196.734 5.98145 -2.68146 0
M  V30 2324 H 196.254 5.91904 -0.970014 0
M  V30 2325 H 197.933 6.31344 -1.4147 0
M  V30 2326 N 198.065 0.39524 1.52563 0
M  V30 2327 C 199.293 -0.184943 2.06072 0
M  V30 2328 C 199.708 -1.40021 1.26647 0
M  V30 2329 O 199.065 -1.79767 0.314672 0
M  V30 2330 C 199.116 -0.549179 3.57304 0
M  V30 2331 O 198.837 0.617813 4.33722 0
M  V30 2332 C 200.338 -1.18459 4.2718 0
M  V30 2333 H 197.558 -0.0265025 0.670476 0
M  V30 2334 H 200.102 0.562184 1.96621 0
M  V30 2335 H 198.257 -1.2462 3.66809 0
M  V30 2336 H 198.671 0.317091 5.23541 0
M  V30 2337 H 200.145 -1.38976 5.34219 0
M  V30 2338 H 200.622 -2.15368 3.82771 0
M  V30 2339 H 201.228 -0.528163 4.22008 0
M  V30 2340 N 199.544 -1.57102 0.125237 0
M  V30 2341 C 200.492 -2.16905 -0.839927 0
M  V30 2342 C 201.486 -1.11998 -1.27094 0
M  V30 2343 O 202.692 -1.3029 -1.24195 0
M  V30 2344 H 199.067 -0.694252 -0.288995 0
M  V30 2345 H 201.038 -2.96774 -0.311115 0
M  V30 2346 C 199.787 -2.78795 -2.07771 0
M  V30 2347 H 199.11 -3.59221 -1.755 0
M  V30 2348 H 200.55 -3.2417 -2.73295 0
M  V30 2349 C 199.009 -1.76193 -2.87155 0
M  V30 2350 O 199.539 -1.21909 -3.82755 0
M  V30 2351 N 197.745 -1.45991 -2.51267 0
M  V30 2352 H 197.292 -1.90325 -1.73592 0
M  V30 2353 H 197.25 -0.775844 -3.04677 0
M  V30 2354 N 201.022 0.148545 -1.56898 0
M  V30 2355 C 202.268 0.862694 -1.83536 0
M  V30 2356 C 202.601 1.80889 -0.706604 0
M  V30 2357 O 201.876 1.92328 0.289885 0
M  V30 2358 C 202.159 1.63853 -3.20662 0
M  V30 2359 C 202.012 0.713925 -4.44098 0
M  V30 2360 C 203.331 2.60133 -3.54991 0
M  V30 2361 H 200.45 0.312179 -0.667618 0
M  V30 2362 H 203.092 0.127953 -1.89569 0
M  V30 2363 H 201.242 2.26489 -3.1565 0
M  V30 2364 H 202.914 0.098686 -4.61194 0
M  V30 2365 H 201.157 0.0234019 -4.33794 0
M  V30 2366 H 201.828 1.29278 -5.36648 0
M  V30 2367 H 204.304 2.07616 -3.60603 0
M  V30 2368 H 203.18 3.11468 -4.51972 0
M  V30 2369 H 203.441 3.41417 -2.80868 0
M  V30 2370 N 202.5 1.5196 0.417844 0
M  V30 2371 C 203.749 1.6482 1.16264 0
M  V30 2372 C 204.062 0.379886 1.91876 0
M  V30 2373 O 205.268 0.388154 2.68711 0
M  V30 2374 C 203.724 2.91161 2.1155 0
M  V30 2375 C 203.332 4.25068 1.41495 0
M  V30 2376 C 205.076 3.13383 2.86341 0
M  V30 2377 C 202.983 5.42541 2.35379 0
M  V30 2378 H 201.913 0.613954 0.437694 0
M  V30 2379 H 204.564 1.78442 0.427871 0
M  V30 2380 H 202.946 2.71218 2.88543 0
M  V30 2381 H 204.12 4.55463 0.699263 0
M  V30 2382 H 202.435 4.0888 0.787792 0
M  V30 2383 H 205.032 3.98324 3.5671 0
M  V30 2384 H 205.375 2.27256 3.48798 0
M  V30 2385 H 205.908 3.33757 2.1645 0
M  V30 2386 H 202.647 6.30987 1.77582 0
M  V30 2387 H 202.167 5.16497 3.04945 0
M  V30 2388 H 203.846 5.75272 2.96093 0
M  V30 2389 N 203.978 -0.674533 1.42435 0
M  V30 2390 C 205.224 -1.43671 1.43131 0
M  V30 2391 C 205.557 -1.94142 0.0476021 0
M  V30 2392 O 204.832 -1.70924 -0.928188 0
M  V30 2393 C 205.115 -2.63355 2.45594 0
M  V30 2394 C 204.968 -2.18514 3.93156 0
M  V30 2395 C 206.287 -3.65571 2.45043 0
M  V30 2396 H 203.406 -0.521077 0.521198 0
M  V30 2397 H 206.048 -0.766551 1.7385 0
M  V30 2398 H 204.198 -3.2053 2.19528 0
M  V30 2399 H 205.87 -1.66504 4.30202 0
M  V30 2400 H 204.113 -1.50086 4.07009 0
M  V30 2401 H 204.784 -3.04484 4.60428 0
M  V30 2402 H 207.26 -3.18113 2.68223 0
M  V30 2403 H 206.136 -4.46893 3.18713 0
M  V30 2404 H 206.397 -4.16716 1.47649 0
M  V30 2405 N 205.456 -1.28612 -0.910864 0
M  V30 2406 C 206.686 -1.1862 -1.69153 0
M  V30 2407 C 207.094 0.257324 -1.87442 0
M  V30 2408 O 206.437 1.18543 -1.40332 0
M  V30 2409 C 206.499 -1.81606 -3.10257 0
M  V30 2410 C 206.163 -3.30864 -3.15243 0
M  V30 2411 C 207.16 -4.27256 -2.96223 0
M  V30 2412 C 204.845 -3.71871 -3.37664 0
M  V30 2413 C 206.839 -5.62631 -2.99541 0
M  V30 2414 C 204.526 -5.07371 -3.40614 0
M  V30 2415 C 205.524 -6.02561 -3.21573 0
M  V30 2416 O 205.212 -7.35589 -3.2429 0
M  V30 2417 H 204.944 -0.412633 -0.535453 0
M  V30 2418 H 207.498 -1.70306 -1.14827 0
M  V30 2419 H 205.728 -1.24418 -3.66138 0
M  V30 2420 H 207.417 -1.66092 -3.70362 0
M  V30 2421 H 208.183 -3.9691 -2.78725 0
M  V30 2422 H 204.062 -2.98241 -3.5153 0
M  V30 2423 H 207.606 -6.36907 -2.84597 0
M  V30 2424 H 203.503 -5.37366 -3.57642 0
M  V30 2425 H 204.271 -7.44252 -3.40633 0
M  V30 2426 N 206.934 1.1197 -1.10907 0
M  V30 2427 C 207.867 2.16998 -0.706192 0
M  V30 2428 C 208.845 1.59903 0.294897 0
M  V30 2429 O 210.029 1.87513 0.192636 0
M  V30 2430 C 207.156 3.38673 -0.0427664 0
M  V30 2431 C 206.202 4.14414 -1.00811 0
M  V30 2432 S 207.035 4.72079 -2.52789 0
M  V30 2433 C 208.191 5.97083 -1.87731 0
M  V30 2434 H 208.424 2.50837 -1.59587 0
M  V30 2435 H 205.957 1.23508 -0.926555 0
M  V30 2436 H 207.915 4.09142 0.333668 0
M  V30 2437 H 206.576 3.03105 0.823788 0
M  V30 2438 H 205.769 5.016 -0.491259 0
M  V30 2439 H 205.371 3.49678 -1.3267 0
M  V30 2440 H 207.663 6.66599 -1.21044 0
M  V30 2441 H 208.606 6.53403 -2.72892 0
M  V30 2442 H 209.014 5.4837 -1.33979 0
M  V30 2443 N 208.412 0.89855 1.29475 0
M  V30 2444 C 209.661 0.519863 1.94885 0
M  V30 2445 C 209.974 -0.9383 1.71625 0
M  V30 2446 O 211.18 -1.42445 2.31131 0
M  V30 2447 C 209.636 0.878836 3.49005 0
M  V30 2448 C 209.244 2.35569 3.81066 0
M  V30 2449 C 210.988 0.570004 4.20656 0
M  V30 2450 C 208.895 2.65558 5.28425 0
M  V30 2451 H 207.825 0.190692 0.729488 0
M  V30 2452 H 210.476 1.09539 1.47219 0
M  V30 2453 H 208.858 0.232253 3.95318 0
M  V30 2454 H 210.032 3.04773 3.45616 0
M  V30 2455 H 208.347 2.63343 3.22552 0
M  V30 2456 H 210.944 0.770925 5.29113 0
M  V30 2457 H 211.287 -0.491404 4.1339 0
M  V30 2458 H 211.82 1.17438 3.8007 0
M  V30 2459 H 208.559 3.70493 5.40754 0
M  V30 2460 H 208.079 2.00977 5.65127 0
M  V30 2461 H 209.758 2.51765 5.96006 0
M  V30 2462 N 209.89 -1.43072 0.660911 0
M  V30 2463 C 211.167 -1.95307 0.107017 0
M  V30 2464 C 211.547 -1.60192 -1.37484 0
M  V30 2465 O 210.895 -0.890949 -2.10415 0
M  V30 2466 C 211.105 -3.47124 0.361402 0
M  V30 2467 C 212.453 -4.23738 0.270455 0
M  V30 2468 O 213.477 -3.54981 0.294382 0
M  V30 2469 O 212.336 -5.46131 0.200737 0
M  V30 2470 H 209.43 -0.826984 -0.00517729 0
M  V30 2471 H 211.976 -1.52972 0.734681 0
M  V30 2472 H 210.748 -3.65837 1.38848 0
M  V30 2473 H 210.371 -3.96475 -0.298953 0
M  V30 2474 N 211.368 -0.403325 -1.52352 0
M  V30 2475 C 212.593 0.176499 -2.06648 0
M  V30 2476 C 213.018 1.38577 -1.27193 0
M  V30 2477 O 212.376 1.7879 -0.300637 0
M  V30 2478 C 212.424 0.511061 -3.5696 0
M  V30 2479 O 211.528 1.60294 -3.79973 0
M  V30 2480 H 210.869 0.0167337 -0.663789 0
M  V30 2481 H 213.399 -0.574848 -1.96359 0
M  V30 2482 H 213.409 0.771362 -4.00642 0
M  V30 2483 H 212.084 -0.37296 -4.14224 0
M  V30 2484 H 210.661 1.33526 -3.48174 0
M  V30 2485 N 212.846 1.57033 -0.133567 0
M  V30 2486 C 214.071 2.00475 0.531477 0
M  V30 2487 C 214.496 1.01291 1.58499 0
M  V30 2488 O 213.854 -0.0133279 1.81295 0
M  V30 2489 C 213.902 3.42729 1.12113 0
M  V30 2490 O 213.006 3.46498 2.23636 0
M  V30 2491 H 212.347 0.650876 0.131362 0
M  V30 2492 H 214.877 2.03344 -0.22634 0
M  V30 2493 H 214.887 3.81246 1.4531 0
M  V30 2494 H 213.562 4.14428 0.349557 0
M  V30 2495 H 212.139 3.19811 1.91769 0
M  V30 2496 N 214.325 -0.140222 1.56975 0
M  V30 2497 C 215.602 -0.880769 1.74648 0
M  V30 2498 C 215.982 -1.99036 0.703404 0
M  V30 2499 O 215.33 -2.26821 -0.27648 0
M  V30 2500 C 215.54 -1.417 3.18939 0
M  V30 2501 C 216.888 -1.87774 3.80823 0
M  V30 2502 O 217.912 -1.51427 3.2241 0
M  V30 2503 O 216.771 -2.54827 4.83452 0
M  V30 2504 H 213.865 -0.416713 0.714338 0
M  V30 2505 H 216.411 -0.125618 1.69234 0
M  V30 2506 H 215.183 -0.619902 3.86359 0
M  V30 2507 H 214.806 -2.23546 3.28805 0
M  V30 2508 N 215.803 -1.52179 -0.40978 0
M  V30 2509 C 217.219 -1.40968 -0.74835 0
M  V30 2510 C 217.419 -0.513657 -1.94843 0
M  V30 2511 O 216.475 0.0208026 -2.52491 0
M  V30 2512 C 217.788 -2.83483 -1.0029 0
M  V30 2513 C 219.336 -2.92821 -1.10565 0
M  V30 2514 C 219.811 -4.36303 -1.39296 0
M  V30 2515 N 221.302 -4.39535 -1.46162 0
M  V30 2516 C 222.037 -5.47614 -1.70018 0
M  V30 2517 N 221.533 -6.65812 -1.91483 0
M  V30 2518 N 223.326 -5.35129 -1.72027 0
M  V30 2519 H 215.477 -2.0897 0.380186 0
M  V30 2520 H 217.74 -0.94185 0.107805 0
M  V30 2521 H 217.446 -3.51168 -0.193461 0
M  V30 2522 H 217.32 -3.24487 -1.92323 0
M  V30 2523 H 219.707 -2.25318 -1.90568 0
M  V30 2524 H 219.788 -2.55276 -0.16369 0
M  V30 2525 H 219.432 -5.04366 -0.598109 0
M  V30 2526 H 219.362 -4.71385 -2.34743 0
M  V30 2527 H 221.853 -3.54332 -1.31367 0
M  V30 2528 H 222.166 -7.43964 -2.09134 0
M  V30 2529 H 220.511 -6.68879 -1.88749 0
M  V30 2530 H 223.702 -4.41764 -1.54796 0
M  V30 2531 H 223.875 -6.19433 -1.9028 0
M  V30 2532 N 217.281 0.66697 -1.42791 0
M  V30 2533 C 218.213 1.7925 -1.42836 0
M  V30 2534 C 219.226 1.59496 -0.326333 0
M  V30 2535 O 220.415 1.6847 -0.589916 0
M  V30 2536 C 217.515 3.16476 -1.21229 0
M  V30 2537 C 216.688 3.63011 -2.44013 0
M  V30 2538 C 215.747 4.78993 -2.17834 0
M  V30 2539 O 214.773 4.89137 -2.91091 0
M  V30 2540 N 215.975 5.68248 -1.18635 0
M  V30 2541 H 218.74 1.79695 -2.39854 0
M  V30 2542 H 216.301 0.850338 -1.37771 0
M  V30 2543 H 218.293 3.91734 -1.01621 0
M  V30 2544 H 216.863 3.10884 -0.32706 0
M  V30 2545 H 216.083 2.78346 -2.79137 0
M  V30 2546 H 217.371 3.90845 -3.25757 0
M  V30 2547 H 216.769 5.62712 -0.580615 0
M  V30 2548 H 215.326 6.43285 -1.05013 0
M  V30 2549 N 218.759 1.29093 0.90403 0
M  V30 2550 C 219.984 1.19809 1.69294 0
M  V30 2551 C 220.409 -0.238481 1.86582 0
M  V30 2552 O 219.767 -1.1723 1.383 0
M  V30 2553 C 219.815 1.91202 3.05736 0
M  V30 2554 O 218.919 1.22611 3.93752 0
M  V30 2555 H 218.26 0.415385 0.518027 0
M  V30 2556 H 220.79 1.70586 1.12967 0
M  V30 2557 H 220.8 1.99487 3.55906 0
M  V30 2558 H 219.475 2.95692 2.92471 0
M  V30 2559 H 218.052 1.22554 3.52186 0
M  V30 2560 N 220.237 -1.11381 1.11499 0
M  V30 2561 C 221.167 -2.19509 0.796125 0
M  V30 2562 C 222.148 -1.68458 -0.235796 0
M  V30 2563 O 223.333 -1.93947 -0.0991344 0
M  V30 2564 C 220.463 -3.46475 0.239205 0
M  V30 2565 C 219.417 -4.10744 1.20307 0
M  V30 2566 C 218.743 -5.32293 0.50683 0
M  V30 2567 C 220.043 -4.55597 2.55399 0
M  V30 2568 H 221.737 -2.46439 1.70024 0
M  V30 2569 H 219.283 -1.18446 0.818935 0
M  V30 2570 H 221.236 -4.214 0.00392006 0
M  V30 2571 H 219.96 -3.19006 -0.700206 0
M  V30 2572 H 218.619 -3.37813 1.42399 0
M  V30 2573 H 218.267 -5.01095 -0.437408 0
M  V30 2574 H 217.967 -5.76243 1.1497 0
M  V30 2575 H 219.491 -6.09956 0.280351 0
M  V30 2576 H 220.905 -5.21841 2.37391 0
M  V30 2577 H 219.302 -5.10363 3.15673 0
M  V30 2578 H 220.372 -3.69013 3.14575 0
M  V30 2579 N 221.715 -0.905404 -1.28997 0
M  V30 2580 C 222.662 -0.385892 -2.27551 0
M  V30 2581 C 223.632 0.535113 -1.57244 0
M  V30 2582 O 224.817 0.459119 -1.85194 0
M  V30 2583 C 221.957 0.375461 -3.43051 0
M  V30 2584 C 221.07 -0.577092 -4.28128 0
M  V30 2585 C 220.205 0.201879 -5.30816 0
M  V30 2586 C 219.244 -0.744829 -6.07551 0
M  V30 2587 N 218.381 9.42587e-05 -7.021 0
M  V30 2588 H 223.221 -1.23139 -2.71368 0
M  V30 2589 H 220.758 -0.618542 -1.33463 0
M  V30 2590 H 222.716 0.832992 -4.088 0
M  V30 2591 H 221.346 1.18537 -3.00248 0
M  V30 2592 H 220.398 -1.15315 -3.62501 0
M  V30 2593 H 221.71 -1.30152 -4.8152 0
M  V30 2594 H 220.864 0.720351 -6.02408 0
M  V30 2595 H 219.603 0.959413 -4.7817 0
M  V30 2596 H 218.608 -1.27475 -5.34818 0
M  V30 2597 H 219.833 -1.50178 -6.62286 0
M  V30 2598 H 217.779 0.739791 -6.51815 0
M  V30 2599 H 217.696 -0.664321 -7.53076 0
M  V30 2600 H 218.964 0.498644 -7.77903 0
M  V30 2601 N 223.193 1.4272 -0.668489 0
M  V30 2602 C 224.44 2.01624 -0.18814 0
M  V30 2603 C 224.768 1.5282 1.20317 0
M  V30 2604 O 224.023 0.718323 1.8204 0
M  V30 2605 C 224.322 3.57021 -0.164499 0
M  V30 2606 C 223.988 4.25232 -1.49962 0
M  V30 2607 C 222.65 4.4358 -1.8652 0
M  V30 2608 C 225.002 4.63727 -2.37921 0
M  V30 2609 C 222.33 4.97694 -3.10674 0
M  V30 2610 C 224.682 5.19218 -3.6138 0
M  V30 2611 C 223.346 5.3578 -3.98115 0
M  V30 2612 H 222.616 0.737795 -0.0688454 0
M  V30 2613 H 225.263 1.70991 -0.862225 0
M  V30 2614 H 223.568 3.87285 0.593079 0
M  V30 2615 H 225.265 4.00372 0.224271 0
M  V30 2616 H 221.855 4.11306 -1.20522 0
M  V30 2617 H 226.039 4.4923 -2.10964 0
M  V30 2618 H 221.295 5.08702 -3.39164 0
M  V30 2619 H 225.469 5.4799 -4.29743 0
M  V30 2620 H 223.096 5.77475 -4.94395 0
M  V30 2621 N 224.671 0.411399 1.52136 0
M  V30 2622 C 225.917 -0.163888 2.02137 0
M  V30 2623 C 226.25 -1.44597 1.29636 0
M  V30 2624 O 225.525 -1.90272 0.403353 0
M  V30 2625 C 225.808 -0.40927 3.57767 0
M  V30 2626 C 225.661 0.889643 4.40914 0
M  V30 2627 C 226.98 -1.19042 4.23694 0
M  V30 2628 H 224.099 -0.0580896 0.734707 0
M  V30 2629 H 226.741 0.54531 1.82007 0
M  V30 2630 H 224.891 -1.0134 3.7505 0
M  V30 2631 H 226.563 1.52575 4.35337 0
M  V30 2632 H 224.806 1.50011 4.07037 0
M  V30 2633 H 225.477 0.672314 5.4789 0
M  V30 2634 H 227.953 -0.678942 4.10524 0
M  V30 2635 H 226.829 -1.33086 5.32522 0
M  V30 2636 H 227.09 -2.21166 3.82803 0
M  V30 2637 N 226.149 -1.5696 0.141893 0
M  V30 2638 C 227.112 -2.15316 -0.785587 0
M  V30 2639 C 228.112 -1.09366 -1.1788 0
M  V30 2640 O 229.302 -1.35031 -1.10056 0
M  V30 2641 C 226.434 -2.71211 -2.06537 0
M  V30 2642 H 227.627 -2.98608 -0.278041 0
M  V30 2643 H 225.18 -1.5593 -0.107519 0
M  V30 2644 H 225.915 -1.91571 -2.6167 0
M  V30 2645 H 225.7 -3.4872 -1.79268 0
M  V30 2646 H 227.19 -3.16189 -2.72789 0
M  V30 2647 N 227.627 0.131896 -1.57047 0
M  V30 2648 C 228.537 1.1815 -2.02676 0
M  V30 2649 C 229.553 1.46113 -0.944824 0
M  V30 2650 O 230.729 1.57485 -1.25541 0
M  V30 2651 C 227.794 2.49139 -2.41103 0
M  V30 2652 C 226.855 2.28688 -3.63318 0
M  V30 2653 C 226.088 3.53431 -3.99903 0
M  V30 2654 O 226.311 4.60223 -3.36973 0
M  V30 2655 O 225.245 3.45198 -4.93074 0
M  V30 2656 H 229.071 0.824069 -2.92306 0
M  V30 2657 H 226.656 0.341745 -1.45439 0
M  V30 2658 H 228.538 3.26338 -2.66611 0
M  V30 2659 H 227.213 2.84382 -1.54624 0
M  V30 2660 H 226.12 1.4939 -3.42977 0
M  V30 2661 H 227.453 1.98355 -4.50462 0
M  V30 2662 N 229.106 1.52395 0.401703 0
M  V30 2663 C 230.053 1.76268 1.48991 0
M  V30 2664 C 231.023 0.605386 1.54675 0
M  V30 2665 O 232.208 0.843742 1.7113 0
M  V30 2666 C 229.348 1.92592 2.86361 0
M  V30 2667 C 228.461 3.20259 2.89928 0
M  V30 2668 C 227.596 3.26972 4.18644 0
M  V30 2669 C 226.635 4.48812 4.16214 0
M  V30 2670 N 225.772 4.52877 5.36514 0
M  V30 2671 H 230.612 2.6914 1.27935 0
M  V30 2672 H 228.149 1.33355 0.620871 0
M  V30 2673 H 230.107 2.0004 3.66115 0
M  V30 2674 H 228.737 1.03093 3.05895 0
M  V30 2675 H 227.789 3.21945 2.02621 0
M  V30 2676 H 229.101 4.10056 2.83999 0
M  V30 2677 H 228.255 3.33533 5.06794 0
M  V30 2678 H 226.994 2.35126 4.27278 0
M  V30 2679 H 225.999 4.4239 3.26453 0
M  V30 2680 H 227.224 5.41961 4.09213 0
M  V30 2681 H 225.17 3.63917 5.45802 0
M  V30 2682 H 225.087 5.36529 5.32609 0
M  V30 2683 H 226.355 4.63676 6.26597 0
M  V30 2684 N 230.584 -0.659388 1.43143 0
M  V30 2685 C 231.514 -1.78422 1.50625 0
M  V30 2686 C 232.495 -1.66216 0.361443 0
M  V30 2687 O 233.68 -1.85404 0.577834 0
M  V30 2688 C 230.81 -3.16815 1.42287 0
M  V30 2689 C 229.764 -3.43777 2.54954 0
M  V30 2690 C 229.09 -4.81905 2.31671 0
M  V30 2691 C 230.39 -3.39134 3.97222 0
M  V30 2692 H 232.084 -1.72417 2.44771 0
M  V30 2693 H 229.63 -0.828084 1.17808 0
M  V30 2694 H 231.583 -3.95253 1.46127 0
M  V30 2695 H 230.307 -3.23534 0.446435 0
M  V30 2696 H 228.966 -2.67707 2.50457 0
M  V30 2697 H 228.614 -4.85294 1.32284 0
M  V30 2698 H 228.314 -5.00906 3.07192 0
M  V30 2699 H 229.838 -5.62609 2.37284 0
M  V30 2700 H 231.252 -4.07518 4.03239 0
M  V30 2701 H 229.649 -3.69671 4.72719 0
M  V30 2702 H 230.719 -2.37426 4.22797 0
M  V30 2703 N 232.062 -1.29571 -0.897171 0
M  V30 2704 C 233.309 -1.17689 -1.6479 0
M  V30 2705 C 233.637 0.27107 -1.92602 0
M  V30 2706 O 232.892 1.21193 -1.53658 0
M  V30 2707 C 233.191 -1.9382 -3.00281 0
M  V30 2708 C 232.857 -3.43522 -2.92068 0
M  V30 2709 C 231.519 -3.84348 -2.89535 0
M  V30 2710 C 233.871 -4.38906 -2.81089 0
M  V30 2711 C 231.199 -5.18869 -2.73846 0
M  V30 2712 C 233.551 -5.73521 -2.66939 0
M  V30 2713 C 232.215 -6.13601 -2.62774 0
M  V30 2714 H 231.485 -0.430654 -0.603008 0
M  V30 2715 H 234.132 -1.60536 -1.04404 0
M  V30 2716 H 232.437 -1.4357 -3.64547 0
M  V30 2717 H 234.134 -1.82028 -3.57305 0
M  V30 2718 H 230.724 -3.11072 -2.94842 0
M  V30 2719 H 234.908 -4.08315 -2.82121 0
M  V30 2720 H 230.164 -5.4903 -2.69027 0
M  V30 2721 H 234.338 -6.47078 -2.57416 0
M  V30 2722 H 231.965 -7.17786 -2.50375 0
M  V30 2723 N 233.54 1.10788 -1.12088 0
M  V30 2724 C 234.45 2.20599 -0.798338 0
M  V30 2725 C 235.466 1.72712 0.21135 0
M  V30 2726 O 236.642 2.01348 0.0458477 0
M  V30 2727 C 233.707 3.45771 -0.253674 0
M  V30 2728 C 232.768 4.08411 -1.32283 0
M  V30 2729 C 232.001 5.27608 -0.80406 0
M  V30 2730 O 232.224 5.69241 0.363478 0
M  V30 2731 O 231.158 5.8101 -1.57198 0
M  V30 2732 H 234.984 2.50614 -1.7154 0
M  V30 2733 H 232.569 1.19454 -0.897275 0
M  V30 2734 H 234.451 4.21376 0.0453691 0
M  V30 2735 H 233.126 3.1739 0.636005 0
M  V30 2736 H 232.033 3.34507 -1.67499 0
M  V30 2737 H 233.366 4.40986 -2.18614 0
M  V30 2738 N 235.018 0.912232 1.28515 0
M  V30 2739 C 235.948 0.416403 2.29757 0
M  V30 2740 C 236.929 -0.515194 1.6211 0
M  V30 2741 O 238.114 -0.423253 1.89532 0
M  V30 2742 C 235.244 -0.34572 3.45575 0
M  V30 2743 C 234.198 0.496599 4.25109 0
M  V30 2744 C 233.524 -0.393771 5.33248 0
M  V30 2745 C 234.824 1.75307 4.92001 0
M  V30 2746 H 236.518 1.26249 2.7148 0
M  V30 2747 H 234.064 0.608515 1.30511 0
M  V30 2748 H 236.017 -0.703422 4.15488 0
M  V30 2749 H 234.741 -1.2257 3.02728 0
M  V30 2750 H 233.4 0.8368 3.56922 0
M  V30 2751 H 233.048 -1.27225 4.86644 0
M  V30 2752 H 232.748 0.166209 5.87365 0
M  V30 2753 H 234.272 -0.747389 6.06009 0
M  V30 2754 H 235.686 1.46437 5.54283 0
M  V30 2755 H 234.083 2.25534 5.56106 0
M  V30 2756 H 235.153 2.48176 4.16577 0
M  V30 2757 N 236.496 -1.42363 0.676048 0
M  V30 2758 C 237.743 -2.01522 0.19883 0
M  V30 2759 C 238.071 -1.53456 -1.19505 0
M  V30 2760 O 237.326 -0.727967 -1.81657 0
M  V30 2761 C 237.625 -3.56929 0.183431 0
M  V30 2762 C 237.291 -4.24431 1.52215 0
M  V30 2763 C 235.953 -4.42585 1.8887 0
M  V30 2764 C 238.305 -4.62459 2.40377 0
M  V30 2765 C 235.633 -4.96039 3.13309 0
M  V30 2766 C 237.985 -5.17294 3.64129 0
M  V30 2767 C 236.649 -5.33661 4.00951 0
M  V30 2768 H 235.919 -0.737419 0.0727571 0
M  V30 2769 H 238.566 -1.70531 0.871281 0
M  V30 2770 H 236.871 -3.87594 -0.572532 0
M  V30 2771 H 238.568 -4.00486 -0.203035 0
M  V30 2772 H 235.158 -4.10661 1.22701 0
M  V30 2773 H 239.342 -4.48105 2.13343 0
M  V30 2774 H 234.598 -5.06896 3.41857 0
M  V30 2775 H 238.772 -5.45704 4.32644 0
M  V30 2776 H 236.399 -5.74845 4.9745 0
M  V30 2777 N 237.974 -0.419461 -1.51915 0
M  V30 2778 C 239.202 0.152136 -2.0634 0
M  V30 2779 C 239.617 1.37988 -1.28859 0
M  V30 2780 O 238.974 1.79243 -0.343232 0
M  V30 2781 C 239.025 0.492266 -3.58133 0
M  V30 2782 O 238.746 -0.686736 -4.32684 0
M  V30 2783 C 240.247 1.11648 -4.2901 0
M  V30 2784 H 237.467 0.0158325 -0.670813 0
M  V30 2785 H 240.011 -0.593394 -1.95702 0
M  V30 2786 H 238.166 1.18769 -3.68745 0
M  V30 2787 H 238.58 -0.400341 -5.2297 0
M  V30 2788 H 240.054 1.3046 -5.36362 0
M  V30 2789 H 240.531 2.09251 -3.86148 0
M  V30 2790 H 241.137 0.460958 -4.22795 0
M  V30 2791 N 239.452 1.56882 -0.150215 0
M  V30 2792 C 240.4 2.18214 0.805313 0
M  V30 2793 C 241.394 1.14006 1.25296 0
M  V30 2794 O 242.6 1.3225 1.22107 0
M  V30 2795 H 238.975 0.698762 0.277913 0
M  V30 2796 H 240.946 2.97231 0.263862 0
M  V30 2797 C 239.695 2.82065 2.03309 0
M  V30 2798 H 239.018 3.61968 1.69763 0
M  V30 2799 H 240.458 3.28477 2.68103 0
M  V30 2800 C 238.917 1.80739 2.84315 0
M  V30 2801 O 239.447 1.27983 3.80767 0
M  V30 2802 N 237.653 1.4997 2.48913 0
M  V30 2803 H 237.2 1.93062 1.70542 0
M  V30 2804 H 237.158 0.824217 3.03404 0
M  V30 2805 N 240.93 -0.123565 1.57115 0
M  V30 2806 C 241.877 -1.15177 2.00007 0
M  V30 2807 C 242.847 -1.41403 0.871454 0
M  V30 2808 O 244.032 -1.53346 1.13533 0
M  V30 2809 C 241.172 -2.47436 2.40561 0
M  V30 2810 C 240.285 -2.28184 3.66819 0
M  V30 2811 C 239.42 -3.53641 3.96373 0
M  V30 2812 C 238.459 -3.29528 5.15827 0
M  V30 2813 N 237.596 -4.47175 5.41275 0
M  V30 2814 H 242.436 -0.779008 2.87638 0
M  V30 2815 H 239.973 -0.373166 1.42288 0
M  V30 2816 H 241.931 -3.24584 2.62109 0
M  V30 2817 H 240.561 -2.82614 1.55978 0
M  V30 2818 H 239.613 -1.41976 3.52912 0
M  V30 2819 H 240.925 -2.0634 4.5412 0
M  V30 2820 H 240.079 -4.39209 4.18545 0
M  V30 2821 H 238.818 -3.78512 3.07538 0
M  V30 2822 H 237.823 -2.42349 4.93505 0
M  V30 2823 H 239.048 -3.06031 6.06236 0
M  V30 2824 H 236.994 -4.72175 4.55397 0
M  V30 2825 H 236.911 -4.28419 6.22891 0
M  V30 2826 H 238.179 -5.3389 5.67963 0
M  V30 2827 N 242.408 -1.52605 -0.393616 0
M  V30 2828 C 243.654 -1.67672 -1.14079 0
M  V30 2829 C 243.987 -0.413121 -1.89755 0
M  V30 2830 O 243.262 0.588952 -1.85369 0
M  V30 2831 C 243.545 -2.9088 -2.12276 0
M  V30 2832 C 243.398 -4.27329 -1.40394 0
M  V30 2833 C 244.717 -3.09628 -3.12759 0
M  V30 2834 H 241.836 -0.610168 -0.413356 0
M  V30 2835 H 244.478 -1.85193 -0.424696 0
M  V30 2836 H 242.628 -2.76073 -2.73342 0
M  V30 2837 H 244.3 -4.53894 -0.82327 0
M  V30 2838 H 242.543 -4.2802 -0.705801 0
M  V30 2839 H 243.214 -5.09615 -2.12123 0
M  V30 2840 H 245.69 -3.23436 -2.61779 0
M  V30 2841 H 244.566 -3.97322 -3.78717 0
M  V30 2842 H 244.827 -2.23637 -3.81365 0
M  V30 2843 N 243.887 0.651787 -1.4349 0
M  V30 2844 C 245.136 1.40754 -1.44469 0
M  V30 2845 C 245.449 1.95463 -0.0731845 0
M  V30 2846 O 246.655 2.71471 0.0395721 0
M  V30 2847 C 245.111 2.54735 -2.5424 0
M  V30 2848 C 244.719 2.06628 -3.97504 0
M  V30 2849 C 246.463 3.32092 -2.64414 0
M  V30 2850 C 244.37 3.17829 -4.98737 0
M  V30 2851 H 243.3 0.528862 -0.53742 0
M  V30 2852 H 245.951 0.703365 -1.69485 0
M  V30 2853 H 244.333 3.2763 -2.22428 0
M  V30 2854 H 245.507 1.40734 -4.38783 0
M  V30 2855 H 243.822 1.42146 -3.91387 0
M  V30 2856 H 246.419 4.14952 -3.37223 0
M  V30 2857 H 246.762 3.80217 -1.69532 0
M  V30 2858 H 247.295 2.66279 -2.95534 0
M  V30 2859 H 244.034 2.74671 -5.95177 0
M  V30 2860 H 243.554 3.82429 -4.62069 0
M  V30 2861 H 245.233 3.82937 -5.21505 0
M  V30 2862 N 245.365 1.30045 0.890287 0
M  V30 2863 C 246.611 1.18737 1.64406 0
M  V30 2864 C 246.944 -0.258525 1.92472 0
M  V30 2865 O 246.219 -1.18562 1.54186 0
M  V30 2866 C 246.502 2.01087 2.98724 0
M  V30 2867 C 246.355 3.53867 2.77665 0
M  V30 2868 C 247.674 1.84457 3.9958 0
M  V30 2869 H 244.793 0.432698 0.596608 0
M  V30 2870 H 247.435 1.5962 1.0306 0
M  V30 2871 H 245.585 1.66349 3.51084 0
M  V30 2872 H 247.257 3.98637 2.32133 0
M  V30 2873 H 245.5 3.78318 2.12269 0
M  V30 2874 H 246.171 4.06772 3.7315 0
M  V30 2875 H 248.647 2.14817 3.56361 0
M  V30 2876 H 247.523 2.44411 4.91482 0
M  V30 2877 H 247.784 0.802276 4.3476 0
M  V30 2878 N 246.843 -1.10192 1.12674 0
M  V30 2879 C 247.79 -2.16606 0.796906 0
M  V30 2880 C 248.76 -1.64394 -0.237476 0
M  V30 2881 O 249.945 -1.90474 -0.111484 0
M  V30 2882 C 247.085 -3.44116 0.26043 0
M  V30 2883 C 246.198 -4.10268 1.35293 0
M  V30 2884 C 245.333 -5.25507 0.775621 0
M  V30 2885 C 244.372 -5.83567 1.84706 0
M  V30 2886 N 243.509 -6.90179 1.28829 0
M  V30 2887 H 248.349 -2.44163 1.70846 0
M  V30 2888 H 245.886 -1.19846 0.85295 0
M  V30 2889 H 247.844 -4.17143 -0.0686814 0
M  V30 2890 H 246.474 -3.16901 -0.614274 0
M  V30 2891 H 245.526 -3.35184 1.79877 0
M  V30 2892 H 246.838 -4.4946 2.16303 0
M  V30 2893 H 245.992 -6.05398 0.397327 0
M  V30 2894 H 244.731 -4.87656 -0.0656581 0
M  V30 2895 H 243.736 -5.02344 2.23452 0
M  V30 2896 H 244.961 -6.23482 2.69161 0
M  V30 2897 H 242.907 -6.54322 0.468881 0
M  V30 2898 H 242.824 -7.28097 2.03497 0
M  V30 2899 H 244.092 -7.73844 0.937311 0
M  V30 2900 N 248.321 -0.919034 -1.28029 0
M  V30 2901 C 249.268 -0.410005 -2.27129 0
M  V30 2902 C 250.238 0.518405 -1.57803 0
M  V30 2903 O 251.423 0.439451 -1.8567 0
M  V30 2904 C 248.563 0.339054 -3.4343 0
M  V30 2905 C 247.676 -0.622468 -4.27492 0
M  V30 2906 C 246.811 0.145567 -5.31001 0
M  V30 2907 C 245.85 -0.809226 -6.06727 0
M  V30 2908 N 244.987 -0.0743728 -7.02061 0
M  V30 2909 H 249.827 -1.26011 -2.70047 0
M  V30 2910 H 247.364 -0.632663 -1.328 0
M  V30 2911 H 249.322 0.789586 -4.0966 0
M  V30 2912 H 247.952 1.15346 -3.01488 0
M  V30 2913 H 247.004 -1.19153 -3.61257 0
M  V30 2914 H 248.316 -1.35252 -4.80113 0
M  V30 2915 H 247.47 0.656417 -6.03139 0
M  V30 2916 H 246.209 0.908643 -4.79161 0
M  V30 2917 H 245.214 -1.3314 -5.33436 0
M  V30 2918 H 246.439 -1.57194 -6.60656 0
M  V30 2919 H 244.385 0.670616 -6.52563 0
M  V30 2920 H 244.302 -0.744157 -7.52329 0
M  V30 2921 H 245.57 0.416109 -7.78389 0
M  V30 2922 N 249.799 1.42003 -0.683588 0
M  V30 2923 C 250.746 2.30798 -0.0107309 0
M  V30 2924 C 251.716 1.4645 0.783688 0
M  V30 2925 O 252.901 1.75263 0.754156 0
M  V30 2926 C 250.041 3.3238 0.928306 0
M  V30 2927 C 249.154 4.31814 0.126776 0
M  V30 2928 C 248.289 5.20468 1.06236 0
M  V30 2929 C 247.328 6.11577 0.253035 0
M  V30 2930 N 246.465 6.92754 1.14179 0
M  V30 2931 H 251.305 2.8778 -0.773727 0
M  V30 2932 H 248.842 1.41745 -0.393283 0
M  V30 2933 H 250.8 3.89813 1.48666 0
M  V30 2934 H 249.43 2.76976 1.65783 0
M  V30 2935 H 248.482 3.76427 -0.54833 0
M  V30 2936 H 249.794 4.96276 -0.501192 0
M  V30 2937 H 248.948 5.82677 1.69035 0
M  V30 2938 H 247.687 4.56204 1.7242 0
M  V30 2939 H 246.692 5.48428 -0.388108 0
M  V30 2940 H 247.917 6.77892 -0.404839 0
M  V30 2941 H 245.863 6.3111 1.78987 0
M  V30 2942 H 245.78 7.53855 0.569111 0
M  V30 2943 H 247.048 7.59441 1.75697 0
M  V30 2944 N 251.277 0.427512 1.51691 0
M  V30 2945 C 252.526 -0.143679 2.01188 0
M  V30 2946 C 252.839 -1.44642 1.31674 0
M  V30 2947 O 254.045 -2.09997 1.72086 0
M  V30 2948 C 252.501 -0.306602 3.58592 0
M  V30 2949 C 252.109 0.985125 4.37035 0
M  V30 2950 C 253.853 -0.832091 4.16265 0
M  V30 2951 C 251.76 0.788382 5.86122 0
M  V30 2952 H 250.69 -0.0574701 0.751807 0
M  V30 2953 H 253.341 0.555772 1.74881 0
M  V30 2954 H 251.723 -1.06882 3.81303 0
M  V30 2955 H 252.897 1.75492 4.26074 0
M  V30 2956 H 251.212 1.4384 3.90767 0
M  V30 2957 H 253.809 -0.995617 5.25349 0
M  V30 2958 H 254.152 -1.81186 3.74803 0
M  V30 2959 H 254.685 -0.128444 3.97593 0
M  V30 2960 H 251.424 1.74025 6.31978 0
M  V30 2961 H 250.944 0.0582143 5.99772 0
M  V30 2962 H 252.623 0.437722 6.45518 0
M  V30 2963 N 252.755 -1.56801 0.158532 0
M  V30 2964 C 254.166 -1.83189 -0.360366 0
M  V30 2965 C 254.517 -1.07778 -1.63946 0
M  V30 2966 O 253.642 -0.326718 -2.13919 0
M  V30 2967 C 254.237 -3.32297 -0.660595 0
M  V30 2968 C 252.796 -3.59227 -1.12398 0
M  V30 2969 C 251.943 -2.76877 -0.153097 0
M  V30 2970 H 254.894 -1.54008 0.383031 0
M  V30 2971 H 254.915 -3.4908 -1.51405 0
M  V30 2972 H 254.427 -3.87156 0.270527 0
M  V30 2973 H 252.528 -3.09766 -2.07064 0
M  V30 2974 H 252.641 -4.67632 -1.04197 0
M  V30 2975 H 251.005 -2.46319 -0.647983 0
M  V30 2976 H 251.788 -3.34511 0.77182 0
M  V30 2977 N 254.233 0.115231 -1.57178 0
M  V30 2978 C 255.48 0.822351 -1.8505 0
M  V30 2979 C 255.808 1.79701 -0.744168 0
M  V30 2980 O 255.063 1.93909 0.26414 0
M  V30 2981 C 255.362 1.60324 -3.19423 0
M  V30 2982 C 255.028 0.772536 -4.44233 0
M  V30 2983 C 253.69 0.543468 -4.78121 0
M  V30 2984 C 256.042 0.193746 -5.2084 0
M  V30 2985 C 253.37 -0.274583 -5.86057 0
M  V30 2986 C 255.722 -0.611517 -6.29637 0
M  V30 2987 C 254.386 -0.850867 -6.62055 0
M  V30 2988 H 253.656 0.30092 -0.677147 0
M  V30 2989 H 256.303 0.0845802 -1.91313 0
M  V30 2990 H 254.608 2.41203 -3.08753 0
M  V30 2991 H 256.305 2.1544 -3.38211 0
M  V30 2992 H 252.895 0.96117 -4.17683 0
M  V30 2993 H 257.079 0.357926 -4.95008 0
M  V30 2994 H 252.335 -0.469206 -6.09597 0
M  V30 2995 H 256.509 -1.06697 -6.88178 0
M  V30 2996 H 254.136 -1.48657 -7.45523 0
M  V30 2997 N 255.711 1.52812 0.385517 0
M  V30 2998 C 256.96 1.67249 1.12741 0
M  V30 2999 C 257.273 0.4205 1.91027 0
M  V30 3000 O 258.479 0.445064 2.67827 0
M  V30 3001 C 256.935 2.95583 2.05326 0
M  V30 3002 C 256.543 4.27974 1.32447 0
M  V30 3003 C 258.287 3.19386 2.7963 0
M  V30 3004 C 256.194 5.47412 2.23818 0
M  V30 3005 H 255.124 0.6231 0.424573 0
M  V30 3006 H 257.775 1.79309 0.389924 0
M  V30 3007 H 256.157 2.77277 2.82725 0
M  V30 3008 H 257.331 4.56844 0.602495 0
M  V30 3009 H 255.646 4.10459 0.700885 0
M  V30 3010 H 258.243 4.05801 3.48181 0
M  V30 3011 H 258.586 2.34604 3.43899 0
M  V30 3012 H 259.119 3.38274 2.09322 0
M  V30 3013 H 255.858 6.34612 1.64157 0
M  V30 3014 H 255.378 5.22849 2.93921 0
M  V30 3015 H 257.057 5.81423 2.83824 0
M  V30 3016 N 257.189 -0.644168 1.43834 0
M  V30 3017 C 258.438 -1.39985 1.45214 0
M  V30 3018 C 258.751 -1.95421 0.0835494 0
M  V30 3019 O 259.957 -2.71488 -0.0251748 0
M  V30 3020 C 258.413 -2.53384 2.55587 0
M  V30 3021 C 258.021 -2.04517 3.98594 0
M  V30 3022 C 259.765 -3.30685 2.66172 0
M  V30 3023 C 257.672 -3.1518 5.00416 0
M  V30 3024 H 256.602 -0.526005 0.540218 0
M  V30 3025 H 259.253 -0.694367 1.69855 0
M  V30 3026 H 257.635 -3.26446 2.24163 0
M  V30 3027 H 258.809 -1.38405 4.39523 0
M  V30 3028 H 257.124 -1.40068 3.92135 0
M  V30 3029 H 259.721 -4.13158 3.39418 0
M  V30 3030 H 260.064 -3.79312 1.71546 0
M  V30 3031 H 260.597 -2.64708 2.96942 0
M  V30 3032 H 257.336 -2.71511 5.96625 0
M  V30 3033 H 256.856 -3.79974 4.64091 0
M  V30 3034 H 258.535 -3.80166 5.23529 0
M  V30 3035 N 258.668 -1.30515 -0.883378 0
M  V30 3036 C 259.914 -1.19607 -1.63774 0
M  V30 3037 C 260.247 0.248314 -1.92606 0
M  V30 3038 O 259.522 1.17742 -1.54813 0
M  V30 3039 C 259.805 -2.02669 -2.97653 0
M  V30 3040 C 259.658 -3.55335 -2.75784 0
M  V30 3041 C 260.977 -1.86573 -3.98596 0
M  V30 3042 H 258.096 -0.435856 -0.594305 0
M  V30 3043 H 260.738 -1.60165 -1.02212 0
M  V30 3044 H 258.888 -1.68208 -3.50197 0
M  V30 3045 H 260.56 -3.99863 -2.30016 0
M  V30 3046 H 258.803 -3.79438 -2.1026 0
M  V30 3047 H 259.474 -4.08745 -3.70988 0
M  V30 3048 H 261.95 -2.16703 -3.55217 0
M  V30 3049 H 260.826 -2.47014 -4.90179 0
M  V30 3050 H 261.087 -0.825321 -4.34328 0
M  V30 3051 N 260.146 1.09593 -1.13257 0
M  V30 3052 C 261.386 1.83349 -0.903472 0
M  V30 3053 C 261.75 1.83641 0.560351 0
M  V30 3054 O 262.951 2.53037 0.906947 0
M  V30 3055 C 261.222 3.25629 -1.47311 0
M  V30 3056 S 262.781 4.16408 -1.38382 0
M  V30 3057 H 259.599 0.632014 -0.325699 0
M  V30 3058 H 262.201 1.31817 -1.44376 0
M  V30 3059 H 260.905 3.22991 -2.53189 0
M  V30 3060 H 260.436 3.82233 -0.930689 0
M  V30 3061 H 262.451 4.94884 -0.361113 0
M  V30 3062 N 261.624 0.925811 1.2754 0
M  V30 3063 C 262.572 0.413897 2.28888 0
M  V30 3064 C 263.566 -0.500779 1.61829 0
M  V30 3065 O 264.772 -0.38069 1.75928 0
M  V30 3066 H 261.147 0.115274 0.743112 0
M  V30 3067 H 263.118 1.28151 2.69481 0
M  V30 3068 C 261.867 -0.319792 3.46226 0
M  V30 3069 H 261.19 0.374846 3.98039 0
M  V30 3070 H 262.63 -0.642435 4.19105 0
M  V30 3071 C 261.089 -1.53209 3.00048 0
M  V30 3072 O 261.619 -2.6309 3.03557 0
M  V30 3073 N 259.825 -1.38326 2.55566 0
M  V30 3074 H 259.372 -0.489292 2.5291 0
M  V30 3075 H 259.33 -2.19564 2.25031 0
M  V30 3076 N 263.102 -1.41638 0.69111 0
M  V30 3077 C 264.049 -2.30789 0.0229705 0
M  V30 3078 C 265.019 -1.46863 -0.775911 0
M  V30 3079 O 266.204 -1.75661 -0.74485 0
M  V30 3080 C 263.344 -3.32868 -0.910666 0
M  V30 3081 C 262.457 -4.31875 -0.103874 0
M  V30 3082 C 261.592 -5.21024 -1.03475 0
M  V30 3083 C 260.631 -6.11702 -0.220598 0
M  V30 3084 N 259.768 -6.93349 -1.10504 0
M  V30 3085 H 264.608 -2.87366 0.788978 0
M  V30 3086 H 262.145 -1.41535 0.400794 0
M  V30 3087 H 264.103 -3.90596 -1.46597 0
M  V30 3088 H 262.733 -2.77851 -1.64312 0
M  V30 3089 H 261.785 -3.76131 0.568285 0
M  V30 3090 H 263.097 -4.96003 0.527504 0
M  V30 3091 H 262.251 -5.83565 -1.65943 0
M  V30 3092 H 260.99 -4.57112 -1.69999 0
M  V30 3093 H 259.995 -5.48215 0.417187 0
M  V30 3094 H 261.22 -6.77668 0.440784 0
M  V30 3095 H 259.166 -6.3205 -1.75638 0
M  V30 3096 H 259.083 -7.54146 -0.529125 0
M  V30 3097 H 260.351 -7.60362 -1.71667 0
M  V30 3098 N 264.58 -0.43555 -1.51462 0
M  V30 3099 C 265.808 0.130242 -2.0649 0
M  V30 3100 C 266.223 1.36614 -1.30315 0
M  V30 3101 O 265.58 1.78869 -0.362223 0
M  V30 3102 C 265.631 0.454253 -3.58635 0
M  V30 3103 O 265.352 -0.73259 -4.31931 0
M  V30 3104 C 266.853 1.07091 -4.3017 0
M  V30 3105 H 264.073 0.00871669 -0.670943 0
M  V30 3106 H 266.617 -0.614117 -1.95061 0
M  V30 3107 H 264.772 1.14851 -3.69984 0
M  V30 3108 H 265.186 -0.455787 -5.22516 0
M  V30 3109 H 266.66 1.24764 -5.37716 0
M  V30 3110 H 267.137 2.05144 -3.88346 0
M  V30 3111 H 267.743 0.416089 -4.2326 0
M  V30 3112 N 266.058 1.56714 -0.166846 0
M  V30 3113 C 267.335 1.88412 0.525373 0
M  V30 3114 C 267.715 1.07602 1.81618 0
M  V30 3115 O 267.063 0.168621 2.27877 0
M  V30 3116 C 267.273 3.40363 0.771613 0
M  V30 3117 C 268.621 4.10007 1.1036 0
M  V30 3118 O 269.645 3.45655 0.860304 0
M  V30 3119 O 268.504 5.2369 1.56239 0
M  V30 3120 H 265.598 0.781587 0.270278 0
M  V30 3121 H 268.144 1.68458 -0.204946 0
M  V30 3122 H 266.916 3.91046 -0.141093 0
M  V30 3123 H 266.539 3.65914 1.55541 0
M  V30 3124 N 267.536 -0.106894 1.57237 0
M  V30 3125 C 268.466 -1.13148 2.04254 0
M  V30 3126 C 269.447 -1.42476 0.929224 0
M  V30 3127 O 270.632 -1.52709 1.19973 0
M  V30 3128 C 267.762 -2.4545 2.45706 0
M  V30 3129 C 266.716 -2.30558 3.60592 0
M  V30 3130 C 266.042 -3.67931 3.87983 0
M  V30 3131 C 267.342 -1.75597 4.91897 0
M  V30 3132 H 269.036 -0.740374 2.90101 0
M  V30 3133 H 266.582 -0.354696 1.39563 0
M  V30 3134 H 268.535 -3.17389 2.77205 0
M  V30 3135 H 267.259 -2.86475 1.56843 0
M  V30 3136 H 265.918 -1.61067 3.29322 0
M  V30 3137 H 265.566 -4.06462 2.96306 0
M  V30 3138 H 265.266 -3.58817 4.65322 0
M  V30 3139 H 266.79 -4.41356 4.21945 0
M  V30 3140 H 268.204 -2.37364 5.21854 0
M  V30 3141 H 266.601 -1.77272 5.73319 0
M  V30 3142 H 267.671 -0.714451 4.79608 0
M  V30 3143 N 269.014 -1.53014 -0.377408 0
M  V30 3144 C 270.254 -1.70318 -1.1301 0
M  V30 3145 C 270.618 -0.439538 -1.86901 0
M  V30 3146 O 271.819 -0.489095 -2.64313 0
M  V30 3147 C 270.09 -2.91125 -2.07319 0
M  V30 3148 S 271.649 -3.29075 -2.90268 0
M  V30 3149 H 268.467 -0.599426 -0.382374 0
M  V30 3150 H 271.069 -1.91089 -0.412933 0
M  V30 3151 H 269.773 -3.81303 -1.51777 0
M  V30 3152 H 269.304 -2.7272 -2.83526 0
M  V30 3153 H 271.319 -2.80165 -4.09539 0
M  V30 3154 N 270.492 0.636531 -1.44174 0
M  V30 3155 C 271.44 1.76995 -1.50915 0
M  V30 3156 C 272.434 1.65053 -0.381295 0
M  V30 3157 O 273.64 1.71197 -0.55601 0
M  V30 3158 H 270.015 0.584247 -0.473455 0
M  V30 3159 H 271.986 1.68432 -2.4632 0
M  V30 3160 C 270.735 3.15314 -1.46534 0
M  V30 3161 H 270.058 3.25149 -2.32633 0
M  V30 3162 H 271.498 3.9453 -1.55312 0
M  V30 3163 C 269.957 3.3639 -0.185305 0
M  V30 3164 O 270.487 3.94699 0.746688 0
M  V30 3165 N 268.693 2.9046 -0.0901606 0
M  V30 3166 H 268.24 2.43193 -0.849416 0
M  V30 3167 H 268.198 3.04937 0.765553 0
M  V30 3168 N 271.97 1.30982 0.876444 0
M  V30 3169 C 273.195 1.23373 1.66715 0
M  V30 3170 C 273.62 -0.19885 1.87046 0
M  V30 3171 O 272.978 -1.1427 1.40756 0
M  V30 3172 C 273.026 1.97644 3.01611 0
M  V30 3173 O 272.13 1.30935 3.91062 0
M  V30 3174 H 271.471 0.426279 0.509099 0
M  V30 3175 H 274.001 1.72944 1.09323 0
M  V30 3176 H 274.011 2.06992 3.51594 0
M  V30 3177 H 272.686 3.01829 2.86133 0
M  V30 3178 H 271.263 1.29996 3.49507 0
M  V30 3179 N 273.449 -1.08991 1.13837 0
M  V30 3180 C 274.865 -1.33312 0.877506 0
M  V30 3181 C 275.065 -1.95587 -0.48456 0
M  V30 3182 O 274.121 -2.20509 -1.23013 0
M  V30 3183 C 275.434 -2.24045 2.0056 0
M  V30 3184 C 276.982 -2.37542 2.03821 0
M  V30 3185 C 277.457 -3.31614 3.15905 0
M  V30 3186 N 278.948 -3.39189 3.15445 0
M  V30 3187 C 279.683 -4.11992 3.98811 0
M  V30 3188 N 279.179 -4.87553 4.92203 0
M  V30 3189 N 280.972 -4.07762 3.86894 0
M  V30 3190 H 273.123 -0.669456 2.01574 0
M  V30 3191 H 275.386 -0.357482 0.878015 0
M  V30 3192 H 275.092 -1.85521 2.98789 0
M  V30 3193 H 274.966 -3.24466 1.92359 0
M  V30 3194 H 277.353 -2.75327 1.06202 0
M  V30 3195 H 277.434 -1.36884 2.16093 0
M  V30 3196 H 277.078 -2.94551 4.13766 0
M  V30 3197 H 277.008 -4.32186 3.0087 0
M  V30 3198 H 279.499 -2.85314 2.47799 0
M  V30 3199 H 279.812 -5.40549 5.52292 0
M  V30 3200 H 278.157 -4.86627 4.96205 0
M  V30 3201 H 281.348 -3.47833 3.13257 0
M  V30 3202 H 281.521 -4.64238 4.52092 0
M  V30 3203 N 274.927 -0.932562 -1.27047 0
M  V30 3204 C 276.338 -0.619451 -1.76124 0
M  V30 3205 C 276.689 0.865397 -1.76083 0
M  V30 3206 O 275.814 1.67722 -1.36742 0
M  V30 3207 C 276.409 -1.11771 -3.19832 0
M  V30 3208 C 274.968 -0.855174 -3.66557 0
M  V30 3209 C 274.115 -1.27362 -2.46321 0
M  V30 3210 H 277.066 -1.11181 -1.13245 0
M  V30 3211 H 277.087 -0.46759 -3.77616 0
M  V30 3212 H 276.599 -2.19842 -3.1983 0
M  V30 3213 H 274.7 0.211524 -3.71999 0
M  V30 3214 H 274.813 -1.47613 -4.55793 0
M  V30 3215 H 273.177 -0.692119 -2.45116 0
M  V30 3216 H 273.96 -2.36307 -2.49025 0
M  V30 3217 N 276.405 1.4127 -0.698611 0
M  V30 3218 C 277.352 2.30773 -0.0352094 0
M  V30 3219 C 278.322 1.47273 0.768111 0
M  V30 3220 O 279.507 1.76053 0.735524 0
M  V30 3221 C 276.647 3.33346 0.893 0
M  V30 3222 C 275.76 4.31924 0.0809695 0
M  V30 3223 C 274.895 5.21566 1.0071 0
M  V30 3224 C 273.934 6.11811 0.188155 0
M  V30 3225 N 273.071 6.93926 1.06825 0
M  V30 3226 H 277.911 2.86943 -0.804207 0
M  V30 3227 H 275.448 1.4132 -0.408294 0
M  V30 3228 H 277.406 3.91368 1.44523 0
M  V30 3229 H 276.036 2.78719 1.62836 0
M  V30 3230 H 275.088 3.75825 -0.588224 0
M  V30 3231 H 276.4 4.95716 -0.553801 0
M  V30 3232 H 275.554 5.84437 1.62845 0
M  V30 3233 H 274.293 4.58008 1.67572 0
M  V30 3234 H 273.298 5.47986 -0.446254 0
M  V30 3235 H 274.523 6.77425 -0.476716 0
M  V30 3236 H 272.469 6.32973 1.72283 0
M  V30 3237 H 272.386 7.54416 0.489123 0
M  V30 3238 H 273.654 7.61262 1.67632 0
M  V30 3239 N 277.883 0.443576 1.51229 0
M  V30 3240 C 278.815 -0.400608 2.25672 0
M  V30 3241 C 279.828 -0.980945 1.29928 0
M  V30 3242 O 281.017 -0.874024 1.55638 0
M  V30 3243 C 278.117 -1.57304 3.00181 0
M  V30 3244 C 277.29 -1.11046 4.23069 0
M  V30 3245 C 276.349 -2.15374 4.80105 0
M  V30 3246 O 275.375 -1.74554 5.41774 0
M  V30 3247 N 276.577 -3.47922 4.64683 0
M  V30 3248 H 279.342 0.23745 2.98758 0
M  V30 3249 H 276.903 0.272809 1.59585 0
M  V30 3250 H 278.895 -2.26733 3.35223 0
M  V30 3251 H 277.465 -2.11632 2.30066 0
M  V30 3252 H 276.685 -0.243019 3.9345 0
M  V30 3253 H 277.973 -0.778888 5.02803 0
M  V30 3254 H 277.371 -3.83815 4.15575 0
M  V30 3255 H 275.928 -4.13228 5.0407 0
M  V30 3256 N 279.361 -1.56624 0.175154 0
M  V30 3257 C 280.607 -1.9729 -0.469506 0
M  V30 3258 C 280.94 -1.06128 -1.62636 0
M  V30 3259 O 280.215 -0.109183 -1.94193 0
M  V30 3260 C 280.498 -3.47375 -0.948804 0
M  V30 3261 C 280.351 -4.49317 0.208491 0
M  V30 3262 C 281.67 -4.00652 -1.82116 0
M  V30 3263 H 278.789 -0.717317 -0.16919 0
M  V30 3264 H 281.431 -1.88184 0.262062 0
M  V30 3265 H 279.581 -3.55267 -1.57219 0
M  V30 3266 H 281.253 -4.53482 0.845682 0
M  V30 3267 H 279.496 -4.25121 0.863395 0
M  V30 3268 H 280.167 -5.51741 -0.169059 0
M  V30 3269 H 282.643 -3.95416 -1.2956 0
M  V30 3270 H 281.519 -5.06075 -2.12554 0
M  V30 3271 H 281.78 -3.44699 -2.7683 0
M  V30 3272 N 280.839 0.0985539 -1.57292 0
M  V30 3273 C 282.088 0.801358 -1.85098 0
M  V30 3274 C 282.401 1.80066 -0.763902 0
M  V30 3275 O 283.607 2.55112 -0.928981 0
M  V30 3276 C 282.063 1.47599 -3.28242 0
M  V30 3277 C 281.671 0.516624 -4.45011 0
M  V30 3278 C 283.415 2.16272 -3.65276 0
M  V30 3279 C 281.322 1.19564 -5.79188 0
M  V30 3280 H 280.252 0.303022 -0.69043 0
M  V30 3281 H 282.903 0.0542623 -1.8342 0
M  V30 3282 H 281.285 2.27042 -3.2445 0
M  V30 3283 H 282.459 -0.246065 -4.60143 0
M  V30 3284 H 280.774 -0.064227 -4.1635 0
M  V30 3285 H 283.371 2.67802 -4.62803 0
M  V30 3286 H 283.714 2.95009 -2.93727 0
M  V30 3287 H 284.247 1.43693 -3.70941 0
M  V30 3288 H 280.986 0.449157 -6.53959 0
M  V30 3289 H 280.506 1.92984 -5.67906 0
M  V30 3290 H 282.185 1.7231 -6.23633 0
M  V30 3291 N 282.317 1.53212 0.369288 0
M  V30 3292 C 283.264 1.79388 1.45219 0
M  V30 3293 C 284.234 0.638059 1.53356 0
M  V30 3294 O 285.419 0.879852 1.69302 0
M  V30 3295 C 282.559 1.98623 2.82211 0
M  V30 3296 C 281.672 3.26337 2.8307 0
M  V30 3297 C 280.807 3.35779 4.11614 0
M  V30 3298 C 279.846 4.5754 4.06601 0
M  V30 3299 N 278.983 4.64155 5.26787 0
M  V30 3300 H 283.823 2.71794 1.22198 0
M  V30 3301 H 281.36 1.34642 0.592444 0
M  V30 3302 H 283.318 2.07761 3.61789 0
M  V30 3303 H 281.948 1.09558 3.03639 0
M  V30 3304 H 281 3.26171 1.95747 0
M  V30 3305 H 282.312 4.15988 2.75237 0
M  V30 3306 H 281.466 3.44208 4.99606 0
M  V30 3307 H 280.205 2.44137 4.22195 0
M  V30 3308 H 279.21 4.49215 3.16996 0
M  V30 3309 H 280.435 5.50519 3.97625 0
M  V30 3310 H 278.381 3.75413 5.3796 0
M  V30 3311 H 278.298 5.47706 5.21109 0
M  V30 3312 H 279.566 4.76863 6.16621 0
M  V30 3313 N 283.795 -0.628877 1.44509 0
M  V30 3314 C 284.705 -1.7694 1.54044 0
M  V30 3315 C 285.721 -1.68705 0.425987 0
M  V30 3316 O 286.897 -1.89442 0.683656 0
M  V30 3317 C 283.962 -3.13332 1.48405 0
M  V30 3318 C 283.023 -3.33181 2.70719 0
M  V30 3319 C 282.256 -4.63067 2.6534 0
M  V30 3320 O 282.479 -5.44017 1.71469 0
M  V30 3321 O 281.413 -4.85167 3.56226 0
M  V30 3322 H 285.239 -1.71848 2.50403 0
M  V30 3323 H 282.824 -0.790378 1.26781 0
M  V30 3324 H 284.706 -3.94634 1.47791 0
M  V30 3325 H 283.381 -3.1896 0.551898 0
M  V30 3326 H 282.288 -2.51549 2.769 0
M  V30 3327 H 283.621 -3.32416 3.62988 0
M  V30 3328 N 285.273 -1.31445 -0.869486 0
M  V30 3329 C 286.55 -1.11795 -1.60503 0
M  V30 3330 C 286.93 0.327168 -2.08549 0
M  V30 3331 O 286.278 1.32135 -1.8642 0
M  V30 3332 C 286.488 -2.13258 -2.76265 0
M  V30 3333 C 287.836 -2.45805 -3.46215 0
M  V30 3334 O 288.86 -2.11688 -2.86473 0
M  V30 3335 O 287.719 -3.04228 -4.5399 0
M  V30 3336 H 284.813 -0.430421 -0.706163 0
M  V30 3337 H 287.359 -1.42925 -0.914907 0
M  V30 3338 H 286.131 -3.10461 -2.3818 0
M  V30 3339 H 285.754 -1.83035 -3.52964 0
M  V30 3340 N 286.751 1.08385 -1.14413 0
M  V30 3341 C 287.681 2.17321 -0.854044 0
M  V30 3342 C 288.662 1.69024 0.191049 0
M  V30 3343 O 289.847 1.94141 0.0476779 0
M  V30 3344 C 286.977 3.45719 -0.330983 0
M  V30 3345 C 285.931 4.07409 -1.31155 0
M  V30 3346 C 285.257 5.30762 -0.64778 0
M  V30 3347 C 286.557 4.48665 -2.67388 0
M  V30 3348 H 288.251 2.41845 -1.76498 0
M  V30 3349 H 285.797 1.16233 -0.850051 0
M  V30 3350 H 287.75 4.21241 -0.115645 0
M  V30 3351 H 286.474 3.2075 0.615381 0
M  V30 3352 H 285.133 3.33919 -1.51306 0
M  V30 3353 H 284.781 5.02078 0.304398 0
M  V30 3354 H 284.481 5.72992 -1.30207 0
M  V30 3355 H 286.005 6.08998 -0.441972 0
M  V30 3356 H 287.419 5.15364 -2.51143 0
M  V30 3357 H 285.816 5.01814 -3.29093 0
M  V30 3358 H 286.886 3.60543 -3.24248 0
M  V30 3359 N 288.23 0.939286 1.26551 0
M  V30 3360 C 289.14 0.453432 2.30176 0
M  V30 3361 C 290.156 -0.471649 1.67486 0
M  V30 3362 O 291.332 -0.35164 1.98306 0
M  V30 3363 C 288.397 -0.275326 3.45605 0
M  V30 3364 C 287.458 0.686084 4.23782 0
M  V30 3365 C 286.691 -0.00798994 5.33699 0
M  V30 3366 O 286.914 -1.22528 5.57085 0
M  V30 3367 O 285.848 0.669746 5.98162 0
M  V30 3368 H 289.674 1.31416 2.73795 0
M  V30 3369 H 287.259 0.705095 1.31715 0
M  V30 3370 H 289.141 -0.685911 4.1578 0
M  V30 3371 H 287.816 -1.11147 3.0402 0
M  V30 3372 H 286.723 1.14658 3.56096 0
M  V30 3373 H 288.056 1.48979 4.69112 0
M  V30 3374 N 289.708 -1.40897 0.706093 0
M  V30 3375 C 291.124 -1.55042 0.37869 0
M  V30 3376 C 291.324 -1.67944 -1.11342 0
M  V30 3377 O 290.38 -1.66372 -1.89938 0
M  V30 3378 C 291.693 -2.78398 1.13643 0
M  V30 3379 C 293.241 -2.92206 1.12181 0
M  V30 3380 C 293.716 -4.18463 1.86152 0
M  V30 3381 N 295.207 -4.25443 1.83173 0
M  V30 3382 C 295.942 -5.2202 2.37239 0
M  V30 3383 N 295.438 -6.24563 2.99821 0
M  V30 3384 N 297.231 -5.14033 2.27435 0
M  V30 3385 H 289.382 -1.30769 1.67372 0
M  V30 3386 H 291.645 -0.631653 0.706907 0
M  V30 3387 H 291.351 -2.7511 2.19106 0
M  V30 3388 H 291.225 -3.70228 0.721853 0
M  V30 3389 H 293.612 -2.95004 0.0754171 0
M  V30 3390 H 293.693 -2.01521 1.57554 0
M  V30 3391 H 293.337 -4.16427 2.90776 0
M  V30 3392 H 293.267 -5.08141 1.38206 0
M  V30 3393 H 295.758 -3.51976 1.37556 0
M  V30 3394 H 296.071 -6.94665 3.38616 0
M  V30 3395 H 294.416 -6.25035 3.03902 0
M  V30 3396 H 297.607 -4.3285 1.78208 0
M  V30 3397 H 297.78 -5.89129 2.69873 0
M  V30 3398 N 291.186 -0.45159 -1.50991 0
M  V30 3399 C 292.096 0.358431 -2.31846 0
M  V30 3400 C 293.112 1.01438 -1.41373 0
M  V30 3401 O 294.288 1.00663 -1.74439 0
M  V30 3402 C 291.353 1.43704 -3.15515 0
M  V30 3403 C 290.414 0.799742 -4.21785 0
M  V30 3404 C 289.647 1.82696 -5.01456 0
M  V30 3405 O 289.87 3.05105 -4.81941 0
M  V30 3406 O 288.804 1.40958 -5.85162 0
M  V30 3407 H 292.63 -0.302032 -3.02194 0
M  V30 3408 H 290.215 -0.213825 -1.47862 0
M  V30 3409 H 292.097 2.06227 -3.67489 0
M  V30 3410 H 290.772 2.08133 -2.47916 0
M  V30 3411 H 289.679 0.136084 -3.73852 0
M  V30 3412 H 291.012 0.198718 -4.91799 0
M  V30 3413 N 292.664 1.56529 -0.183458 0
M  V30 3414 C 293.913 1.96419 0.458511 0
M  V30 3415 C 294.226 1.0727 1.63562 0
M  V30 3416 O 295.432 1.36893 2.34462 0
M  V30 3417 C 293.888 3.49298 0.867122 0
M  V30 3418 C 293.496 4.47092 -0.285057 0
M  V30 3419 C 295.24 3.97983 1.47683 0
M  V30 3420 C 293.147 5.91225 0.143862 0
M  V30 3421 H 292.077 0.733394 0.175071 0
M  V30 3422 H 294.728 1.81448 -0.273624 0
M  V30 3423 H 293.11 3.59731 1.65559 0
M  V30 3424 H 294.284 4.48383 -1.0625 0
M  V30 3425 H 292.599 4.08535 -0.805503 0
M  V30 3426 H 295.196 5.03134 1.80999 0
M  V30 3427 H 295.539 3.41618 2.37914 0
M  V30 3428 H 296.072 3.90617 0.752562 0
M  V30 3429 H 292.811 6.5149 -0.723974 0
M  V30 3430 H 292.331 5.93214 0.886413 0
M  V30 3431 H 294.01 6.44362 0.583628 0
M  V30 3432 N 294.142 -0.090211 1.57342 0
M  V30 3433 C 295.052 -1.12735 2.05738 0
M  V30 3434 C 296.068 -1.43557 0.983231 0
M  V30 3435 O 297.244 -1.54101 1.29672 0
M  V30 3436 C 294.309 -2.42659 2.47624 0
M  V30 3437 C 293.37 -2.18975 3.69254 0
M  V30 3438 C 292.603 -3.42704 4.09133 0
M  V30 3439 O 292.826 -4.51127 3.49057 0
M  V30 3440 O 291.76 -3.32003 5.02053 0
M  V30 3441 H 295.586 -0.746279 2.94388 0
M  V30 3442 H 293.171 -0.303064 1.46294 0
M  V30 3443 H 295.053 -3.19155 2.7517 0
M  V30 3444 H 293.728 -2.80182 1.62109 0
M  V30 3445 H 292.635 -1.40244 3.46818 0
M  V30 3446 H 293.968 -1.86342 4.55563 0
M  V30 3447 N 295.62 -1.53406 -0.361157 0
M  V30 3448 C 296.869 -1.69022 -1.10066 0
M  V30 3449 C 297.182 -0.450838 -1.90333 0
M  V30 3450 O 298.388 -0.487617 -2.67085 0
M  V30 3451 C 296.844 -2.98812 -2.00598 0
M  V30 3452 C 296.452 -4.30027 -1.25621 0
M  V30 3453 C 298.196 -3.23795 -2.74513 0
M  V30 3454 C 296.103 -5.50903 -2.1508 0
M  V30 3455 H 295.033 -0.629776 -0.414606 0
M  V30 3456 H 297.684 -1.79907 -0.361348 0
M  V30 3457 H 296.066 -2.8174 -2.78278 0
M  V30 3458 H 297.24 -4.57745 -0.529739 0
M  V30 3459 H 295.555 -4.11522 -0.635496 0
M  V30 3460 H 298.152 -4.11289 -3.41681 0
M  V30 3461 H 298.495 -2.40045 -3.40123 0
M  V30 3462 H 299.028 -3.41561 -2.03914 0
M  V30 3463 H 295.767 -6.37143 -1.54041 0
M  V30 3464 H 295.287 -5.27459 -2.85565 0
M  V30 3465 H 296.966 -5.85865 -2.74538 0
M  V30 3466 N 297.098 0.621204 -1.44841 0
M  V30 3467 C 298.028 1.74366 -1.55303 0
M  V30 3468 C 299.009 1.65199 -0.405385 0
M  V30 3469 O 300.194 1.83807 -0.626787 0
M  V30 3470 C 297.324 3.12931 -1.50637 0
M  V30 3471 C 296.278 3.36896 -2.63979 0
M  V30 3472 C 295.604 4.75594 -2.44366 0
M  V30 3473 C 296.904 3.28483 -4.06074 0
M  V30 3474 H 298.598 1.65867 -2.49256 0
M  V30 3475 H 296.144 0.796558 -1.19962 0
M  V30 3476 H 298.097 3.9124 -1.56555 0
M  V30 3477 H 296.821 3.22237 -0.532057 0
M  V30 3478 H 295.48 2.60972 -2.57467 0
M  V30 3479 H 295.128 4.81616 -1.45105 0
M  V30 3480 H 294.828 4.92586 -3.20364 0
M  V30 3481 H 296.352 5.5612 -2.52117 0
M  V30 3482 H 297.766 3.96684 -4.13902 0
M  V30 3483 H 296.163 3.57008 -4.82354 0
M  V30 3484 H 297.233 2.26133 -4.28943 0
M  V30 3485 N 298.576 1.31904 0.862503 0
M  V30 3486 C 299.523 1.20182 1.9704 0
M  V30 3487 C 300.493 0.0858247 1.65878 0
M  V30 3488 O 301.678 0.26 1.8902 0
M  V30 3489 C 298.818 0.922797 3.32533 0
M  V30 3490 C 297.931 2.12284 3.76244 0
M  V30 3491 C 297.066 1.77996 5.00491 0
M  V30 3492 C 296.105 2.94366 5.36671 0
M  V30 3493 N 295.242 2.60223 6.52095 0
M  V30 3494 H 300.082 2.14951 2.06398 0
M  V30 3495 H 297.619 1.06917 1.01031 0
M  V30 3496 H 299.577 0.741548 4.10557 0
M  V30 3497 H 298.207 0.0119227 3.22798 0
M  V30 3498 H 297.259 2.41461 2.9394 0
M  V30 3499 H 298.571 2.99357 3.98982 0
M  V30 3500 H 297.725 1.56377 5.862 0
M  V30 3501 H 296.464 0.881252 4.79672 0
M  V30 3502 H 295.469 3.16625 4.49476 0
M  V30 3503 H 296.694 3.84957 5.59451 0
M  V30 3504 H 294.64 1.72884 6.32809 0
M  V30 3505 H 294.557 3.40827 6.74814 0
M  V30 3506 H 295.825 2.42016 7.40978 0
M  V30 3507 N 300.054 -1.07777 1.14986 0
M  V30 3508 C 300.987 -2.14228 0.786243 0
M  V30 3509 C 301.965 -1.60888 -0.235347 0
M  V30 3510 O 303.149 -1.88099 -0.122909 0
M  V30 3511 C 300.276 -3.38281 0.168433 0
M  V30 3512 C 299.322 -4.10387 1.16123 0
M  V30 3513 S 300.155 -4.62371 2.70135 0
M  V30 3514 C 301.311 -5.89704 2.09762 0
M  V30 3515 H 301.544 -2.44741 1.68787 0
M  V30 3516 H 299.077 -1.19984 0.971756 0
M  V30 3517 H 301.035 -4.10098 -0.181588 0
M  V30 3518 H 299.696 -3.05953 -0.710725 0
M  V30 3519 H 298.889 -4.99431 0.677086 0
M  V30 3520 H 298.491 -3.44513 1.45556 0
M  V30 3521 H 300.783 -6.61648 1.45701 0
M  V30 3522 H 301.726 -6.42824 2.96955 0
M  V30 3523 H 302.134 -5.4302 1.54239 0
M  V30 3524 N 301.532 -0.945985 -1.26051 0
M  V30 3525 C 302.757 -0.612525 -1.98149 0
M  V30 3526 C 303.182 0.806623 -1.69927 0
M  V30 3527 O 302.54 1.54411 -0.950108 0
M  V30 3528 C 302.588 -0.866981 -3.50023 0
M  V30 3529 O 301.692 0.0585333 -4.12358 0
M  V30 3530 H 301.033 -0.23379 -0.621481 0
M  V30 3531 H 303.563 -1.27023 -1.60395 0
M  V30 3532 H 303.573 -0.789792 -4.00283 0
M  V30 3533 H 302.248 -1.90135 -3.69894 0
M  V30 3534 H 300.825 -0.0701241 -3.72834 0
M  V30 3535 N 303.011 1.40521 -0.713556 0
M  V30 3536 C 303.958 2.30723 -0.059684 0
M  V30 3537 C 304.928 1.48079 0.752448 0
M  V30 3538 O 306.113 1.76823 0.71681 0
M  V30 3539 C 303.253 3.34274 0.857594 0
M  V30 3540 C 302.366 4.31986 0.0351536 0
M  V30 3541 C 301.501 5.22605 0.951724 0
M  V30 3542 C 300.54 6.11976 0.123253 0
M  V30 3543 N 299.677 6.9502 0.99459 0
M  V30 3544 H 304.517 2.86074 -0.834596 0
M  V30 3545 H 302.054 1.40879 -0.42326 0
M  V30 3546 H 304.012 3.92879 1.40364 0
M  V30 3547 H 302.642 2.8043 1.59871 0
M  V30 3548 H 301.694 3.7518 -0.628052 0
M  V30 3549 H 303.006 4.95101 -0.606347 0
M  V30 3550 H 302.16 5.86131 1.56638 0
M  V30 3551 H 300.899 4.59759 1.62705 0
M  V30 3552 H 299.904 5.47482 -0.50435 0
M  V30 3553 H 301.129 6.76881 -0.548539 0
M  V30 3554 H 299.075 6.34764 1.6556 0
M  V30 3555 H 298.992 7.54892 0.40908 0
M  V30 3556 H 300.26 7.62997 1.59549 0
M  V30 3557 N 304.489 0.459591 1.5075 0
M  V30 3558 C 305.719 -0.0972338 2.06371 0
M  V30 3559 C 306.127 -1.35074 1.32483 0
M  V30 3560 O 305.47 -1.79637 0.384226 0
M  V30 3561 C 305.532 -0.462759 3.56509 0
M  V30 3562 C 305.196 0.687084 4.51805 0
M  V30 3563 C 306.193 1.56578 4.95761 0
M  V30 3564 C 303.878 0.874144 4.94635 0
M  V30 3565 C 305.872 2.61604 5.81242 0
M  V30 3566 C 303.559 1.92765 5.79901 0
M  V30 3567 C 304.557 2.79697 6.23104 0
M  V30 3568 O 304.245 3.83235 7.06673 0
M  V30 3569 H 303.977 -0.00140687 0.675999 0
M  V30 3570 H 306.531 0.644011 1.95043 0
M  V30 3571 H 304.761 -1.25703 3.65699 0
M  V30 3572 H 306.45 -0.953323 3.94546 0
M  V30 3573 H 307.216 1.4329 4.6335 0
M  V30 3574 H 303.095 0.207006 4.60535 0
M  V30 3575 H 306.639 3.29489 6.14884 0
M  V30 3576 H 302.536 2.06064 6.11725 0
M  V30 3577 H 303.304 3.80084 7.24899 0
M  V30 3578 N 305.967 -1.56429 0.191757 0
M  V30 3579 C 306.915 -2.20273 -0.747174 0
M  V30 3580 C 307.909 -1.17288 -1.22229 0
M  V30 3581 O 309.115 -1.35441 -1.18557 0
M  V30 3582 H 305.49 -0.705885 -0.259289 0
M  V30 3583 H 307.461 -2.97826 -0.184963 0
M  V30 3584 C 306.21 -2.87356 -1.95759 0
M  V30 3585 H 305.533 -3.66341 -1.60106 0
M  V30 3586 H 306.973 -3.3547 -2.59299 0
M  V30 3587 C 305.432 -1.88213 -2.79423 0
M  V30 3588 O 305.962 -1.38033 -3.7724 0
M  V30 3589 N 304.168 -1.56516 -2.44849 0
M  V30 3590 H 303.715 -1.97516 -1.65364 0
M  V30 3591 H 303.673 -0.904369 -3.01112 0
M  V30 3592 N 307.445 0.0818655 -1.57387 0
M  V30 3593 C 308.393 1.11712 -2.04018 0
M  V30 3594 C 309.387 1.40683 -0.94364 0
M  V30 3595 O 310.593 1.40209 -1.12878 0
M  V30 3596 H 306.968 0.377542 -0.650358 0
M  V30 3597 H 308.939 0.697614 -2.90131 0
M  V30 3598 C 307.688 2.42537 -2.49141 0
M  V30 3599 H 307.011 2.21092 -3.33104 0
M  V30 3600 H 308.451 3.13446 -2.85531 0
M  V30 3601 C 306.91 3.0778 -1.37014 0
M  V30 3602 O 307.44 3.95436 -0.706621 0
M  V30 3603 N 305.646 2.68242 -1.11779 0
M  V30 3604 H 305.193 1.97052 -1.65917 0
M  V30 3605 H 305.151 3.1222 -0.369594 0
M  V30 3606 N 308.923 1.53595 0.353017 0
M  V30 3607 C 309.853 1.83902 1.43883 0
M  V30 3608 C 310.834 0.693421 1.55324 0
M  V30 3609 O 312.019 0.944452 1.69687 0
M  V30 3610 C 309.149 2.04016 2.8106 0
M  V30 3611 C 308.103 3.19814 2.84434 0
M  V30 3612 C 307.429 3.25244 4.24406 0
M  V30 3613 C 308.729 4.58133 2.50822 0
M  V30 3614 H 310.423 2.74835 1.1877 0
M  V30 3615 H 307.969 1.32242 0.569917 0
M  V30 3616 H 309.922 2.238 3.57059 0
M  V30 3617 H 308.646 1.09804 3.07588 0
M  V30 3618 H 307.305 2.9987 2.10887 0
M  V30 3619 H 306.953 2.28646 4.48029 0
M  V30 3620 H 306.653 4.03054 4.27576 0
M  V30 3621 H 308.177 3.47228 5.0226 0
M  V30 3622 H 309.591 4.77995 3.16534 0
M  V30 3623 H 307.988 5.38276 2.6529 0
M  V30 3624 H 309.058 4.62387 1.46034 0
M  V30 3625 N 310.401 -0.613514 1.45168 0
M  V30 3626 C 311.678 -1.37263 1.39349 0
M  V30 3627 C 312.058 -2.11012 0.0610848 0
M  V30 3628 O 311.406 -2.07502 -0.956825 0
M  V30 3629 C 311.616 -2.3244 2.60332 0
M  V30 3630 C 312.964 -2.9523 3.05163 0
M  V30 3631 O 313.988 -2.42762 2.60663 0
M  V30 3632 O 312.847 -3.90454 3.82372 0
M  V30 3633 H 309.941 -0.615188 0.552696 0
M  V30 3634 H 312.487 -0.637097 1.57287 0
M  V30 3635 H 311.259 -1.77164 3.48896 0
M  V30 3636 H 310.882 -3.13383 2.44698 0
M  V30 3637 N 311.879 -1.3236 -0.855495 0
M  V30 3638 C 313.156 -1.13491 -1.59309 0
M  V30 3639 C 313.536 0.30503 -2.08885 0
M  V30 3640 O 312.884 1.30151 -1.87811 0
M  V30 3641 C 313.094 -2.16176 -2.73987 0
M  V30 3642 C 314.442 -2.49463 -3.43589 0
M  V30 3643 O 315.466 -2.14715 -2.84211 0
M  V30 3644 O 314.325 -3.09027 -4.50738 0
M  V30 3645 H 311.419 -0.437887 -0.701559 0
M  V30 3646 H 313.965 -1.43887 -0.899696 0
M  V30 3647 H 312.737 -3.1297 -2.34873 0
M  V30 3648 H 312.36 -1.86769 -3.51003 0
M  V30 3649 N 313.357 1.07166 -1.15556 0
M  V30 3650 C 314.634 1.76546 -0.842069 0
M  V30 3651 C 315.014 2.00453 0.661939 0
M  V30 3652 O 314.362 1.62452 1.60691 0
M  V30 3653 C 314.572 3.07266 -1.65495 0
M  V30 3654 C 315.92 3.81578 -1.86234 0
M  V30 3655 O 316.944 3.17083 -1.62287 0
M  V30 3656 O 315.803 4.97419 -2.26355 0
M  V30 3657 H 312.897 0.766756 -0.309862 0
M  V30 3658 H 315.443 1.13514 -1.26145 0
M  V30 3659 H 314.215 2.85494 -2.67598 0
M  V30 3660 H 313.838 3.7803 -1.23203 0
M  V30 3661 N 314.835 0.952656 1.25548 0
M  V30 3662 C 316.075 0.614013 1.9496 0
M  V30 3663 C 316.439 -0.833215 1.72978 0
M  V30 3664 O 317.64 -1.28135 2.36294 0
M  V30 3665 C 315.911 0.960562 3.4425 0
M  V30 3666 S 317.47 0.734195 4.32614 0
M  V30 3667 H 314.288 0.225754 0.674208 0
M  V30 3668 H 316.89 1.22641 1.52248 0
M  V30 3669 H 315.594 2.01103 3.57751 0
M  V30 3670 H 315.125 0.338336 3.91942 0
M  V30 3671 H 317.14 -0.395995 4.94617 0
M  V30 3672 N 316.313 -1.40141 0.720998 0
M  V30 3673 C 317.562 -2.0002 0.259804 0
M  V30 3674 C 317.875 -1.57839 -1.15526 0
M  V30 3675 O 319.081 -2.10455 -1.71525 0
M  V30 3676 C 317.537 -3.57516 0.413566 0
M  V30 3677 C 317.145 -4.08667 1.83562 0
M  V30 3678 C 318.889 -4.24498 0.0134387 0
M  V30 3679 C 316.796 -5.58686 1.93968 0
M  V30 3680 H 315.726 -0.748195 0.0933806 0
M  V30 3681 H 318.377 -1.60313 0.892866 0
M  V30 3682 H 316.759 -3.9495 -0.288169 0
M  V30 3683 H 317.933 -3.82598 2.56817 0
M  V30 3684 H 316.248 -3.543 2.1877 0
M  V30 3685 H 318.845 -5.34654 0.0703954 0
M  V30 3686 H 319.188 -4.03375 -1.02927 0
M  V30 3687 H 319.721 -3.92188 0.665815 0
M  V30 3688 H 316.46 -5.8467 2.96379 0
M  V30 3689 H 315.98 -5.86602 1.25131 0
M  V30 3690 H 317.659 -6.23875 1.71431 0
M  V30 3691 N 317.792 -0.46758 -1.50504 0
M  V30 3692 C 319.069 0.15003 -1.95024 0
M  V30 3693 C 319.449 1.57304 -1.40779 0
M  V30 3694 O 318.797 2.20281 -0.607319 0
M  V30 3695 C 319.007 0.0969324 -3.48865 0
M  V30 3696 C 320.355 0.287565 -4.23625 0
M  V30 3697 O 321.379 0.173678 -3.55776 0
M  V30 3698 O 320.238 0.517186 -5.44047 0
M  V30 3699 H 317.332 0.113582 -0.819163 0
M  V30 3700 H 319.878 -0.52773 -1.61286 0
M  V30 3701 H 318.65 -0.896732 -3.80886 0
M  V30 3702 H 318.273 0.816303 -3.8913 0
M  V30 3703 N 319.27 1.56325 -0.20005 0
M  V30 3704 C 320.18 2.22931 0.730668 0
M  V30 3705 C 321.196 1.22997 1.23076 0
M  V30 3706 O 322.372 1.55748 1.27689 0
M  V30 3707 C 319.437 2.87948 1.93098 0
M  V30 3708 C 318.498 4.03166 1.47497 0
M  V30 3709 C 317.731 4.65073 2.61807 0
M  V30 3710 O 317.954 4.25913 3.79413 0
M  V30 3711 O 316.888 5.54452 2.34237 0
M  V30 3712 H 320.714 3.03084 0.193391 0
M  V30 3713 H 318.299 1.49371 0.0294621 0
M  V30 3714 H 320.181 3.29063 2.6324 0
M  V30 3715 H 318.856 2.10771 2.45677 0
M  V30 3716 H 317.763 3.66664 0.742201 0
M  V30 3717 H 319.096 4.82022 0.995796 0
M  V30 3718 N 320.748 -0.0735177 1.57428 0
M  V30 3719 C 321.976 -0.785969 1.9139 0
M  V30 3720 C 322.391 -1.71207 0.795847 0
M  V30 3721 O 321.748 -1.81033 -0.230915 0
M  V30 3722 C 321.799 -1.58107 3.25091 0
M  V30 3723 O 321.52 -0.6922 4.32597 0
M  V30 3724 C 323.021 -2.39467 3.73055 0
M  V30 3725 H 320.241 -0.223558 0.632663 0
M  V30 3726 H 322.785 -0.044302 2.04452 0
M  V30 3727 H 320.94 -2.27503 3.13562 0
M  V30 3728 H 321.354 -1.24504 5.09508 0
M  V30 3729 H 322.828 -2.90716 4.69242 0
M  V30 3730 H 323.305 -3.18913 3.01979 0
M  V30 3731 H 323.911 -1.7523 3.87523 0
M  V30 3732 N 322.226 -1.5378 -0.344866 0
M  V30 3733 C 323.136 -1.84667 -1.4469 0
M  V30 3734 C 324.152 -0.736704 -1.57635 0
M  V30 3735 O 325.328 -1.02888 -1.73136 0
M  V30 3736 C 322.393 -2.04869 -2.79696 0
M  V30 3737 C 321.454 -3.28731 -2.76106 0
M  V30 3738 C 320.687 -3.4796 -4.04673 0
M  V30 3739 O 320.91 -2.71052 -5.01883 0
M  V30 3740 O 319.844 -4.41383 -4.09224 0
M  V30 3741 H 323.67 -2.78334 -1.21506 0
M  V30 3742 H 321.255 -1.39418 -0.536921 0
M  V30 3743 H 323.137 -2.19609 -3.59652 0
M  V30 3744 H 321.812 -1.14391 -3.02814 0
M  V30 3745 H 320.719 -3.19396 -1.94774 0
M  V30 3746 H 322.052 -4.19198 -2.57941 0
M  V30 3747 N 323.704 0.605807 -1.45491 0
M  V30 3748 C 324.944 1.37606 -1.51142 0
M  V30 3749 C 325.308 1.91413 -0.150075 0
M  V30 3750 O 326.509 2.68677 -0.0812828 0
M  V30 3751 C 324.78 2.49197 -2.56195 0
M  V30 3752 S 326.339 3.36953 -2.81083 0
M  V30 3753 H 323.157 0.469118 -0.534275 0
M  V30 3754 H 325.759 0.698845 -1.82583 0
M  V30 3755 H 324.463 2.0802 -3.53773 0
M  V30 3756 H 323.994 3.21717 -2.26411 0
M  V30 3757 H 326.009 4.47395 -2.14598 0
M  V30 3758 N 325.182 1.32811 0.848464 0
M  V30 3759 C 326.429 1.23724 1.60308 0
M  V30 3760 C 326.757 -0.1994 1.93475 0
M  V30 3761 O 326.012 -1.15406 1.5805 0
M  V30 3762 C 326.311 2.04831 2.92881 0
M  V30 3763 C 325.977 3.54125 2.79117 0
M  V30 3764 C 324.639 3.94829 2.7507 0
M  V30 3765 C 326.991 4.49036 2.64606 0
M  V30 3766 C 324.319 5.28675 2.544 0
M  V30 3767 C 326.671 5.83033 2.4547 0
M  V30 3768 C 325.335 6.22931 2.39819 0
M  V30 3769 H 324.605 0.452737 0.586609 0
M  V30 3770 H 327.252 1.64301 0.983743 0
M  V30 3771 H 325.557 1.57001 3.58968 0
M  V30 3772 H 327.254 1.95164 3.50303 0
M  V30 3773 H 323.844 3.21801 2.83094 0
M  V30 3774 H 328.028 4.18505 2.66772 0
M  V30 3775 H 323.284 5.58637 2.48465 0
M  V30 3776 H 327.458 6.56186 2.33222 0
M  V30 3777 H 325.085 7.26584 2.23562 0
M  V30 3778 N 326.66 -1.06551 1.16123 0
M  V30 3779 C 327.59 -2.15935 0.88851 0
M  V30 3780 C 328.571 -1.69306 -0.164135 0
M  V30 3781 O 329.756 -1.94193 -0.0167857 0
M  V30 3782 C 326.886 -3.45149 0.385942 0
M  V30 3783 C 325.84 -4.05271 1.3762 0
M  V30 3784 C 325.166 -5.29664 0.732137 0
M  V30 3785 C 326.466 -4.44355 2.74493 0
M  V30 3786 H 328.16 -2.39006 1.80323 0
M  V30 3787 H 325.706 -1.14866 0.868435 0
M  V30 3788 H 327.659 -4.21004 0.182647 0
M  V30 3789 H 326.383 -3.21689 -0.564274 0
M  V30 3790 H 325.042 -3.3147 1.56599 0
M  V30 3791 H 324.69 -5.02499 -0.224483 0
M  V30 3792 H 324.39 -5.70848 1.39307 0
M  V30 3793 H 325.914 -6.08218 0.538802 0
M  V30 3794 H 327.328 -5.11303 2.59311 0
M  V30 3795 H 325.725 -4.96515 3.37035 0
M  V30 3796 H 326.795 -3.55339 3.29943 0
M  V30 3797 N 328.138 -0.959301 -1.25041 0
M  V30 3798 C 329.386 -0.615393 -1.92503 0
M  V30 3799 C 329.707 0.850969 -1.75452 0
M  V30 3800 O 328.977 1.60658 -1.12098 0
M  V30 3801 H 327.557 -0.224613 -0.712431 0
M  V30 3802 H 330.219 -1.21855 -1.5211 0
M  V30 3803 H 329.315 -0.848738 -3.00338 0
M  V30 3804 N 329.616 1.39756 -0.72842 0
M  V30 3805 C 330.579 2.29012 -0.0927297 0
M  V30 3806 C 331.579 1.45992 0.674025 0
M  V30 3807 O 332.769 1.66749 0.50402 0
M  V30 3808 C 329.901 3.29396 0.878137 0
M  V30 3809 H 331.094 2.86729 -0.879011 0
M  V30 3810 H 328.647 1.48293 -0.493847 0
M  V30 3811 H 329.382 2.76722 1.69101 0
M  V30 3812 H 329.167 3.907 0.331051 0
M  V30 3813 H 330.657 3.96199 1.3197 0
M  V30 3814 N 331.094 0.475555 1.50254 0
M  V30 3815 C 332.042 -0.330276 2.30243 0
M  V30 3816 C 333.036 -0.986306 1.37726 0
M  V30 3817 O 334.242 -0.9169 1.54897 0
M  V30 3818 H 330.617 -0.125353 0.741479 0
M  V30 3819 H 332.588 0.364702 2.96163 0
M  V30 3820 C 331.337 -1.39704 3.18399 0
M  V30 3821 H 330.66 -0.901621 3.89501 0
M  V30 3822 H 332.1 -1.93336 3.77355 0
M  V30 3823 C 330.559 -2.4014 2.36293 0
M  V30 3824 O 331.089 -3.45504 2.04914 0
M  V30 3825 N 329.295 -2.1197 1.98789 0
M  V30 3826 H 328.842 -1.2631 2.24507 0
M  V30 3827 H 328.8 -2.79403 1.44157 0
M  V30 3828 N 332.573 -1.56217 0.208337 0
M  V30 3829 C 333.798 -2.02782 -0.435222 0
M  V30 3830 C 334.223 -1.08738 -1.53485 0
M  V30 3831 O 333.581 -0.0731855 -1.81152 0
M  V30 3832 C 333.629 -3.47687 -0.956335 0
M  V30 3833 O 332.733 -3.56773 -2.06849 0
M  V30 3834 H 332.074 -0.656403 -0.100158 0
M  V30 3835 H 334.604 -2.02033 0.3231 0
M  V30 3836 H 334.614 -3.87745 -1.26955 0
M  V30 3837 H 333.289 -4.15624 -0.15143 0
M  V30 3838 H 331.866 -3.28597 -1.76292 0
M  V30 3839 N 334.051 0.0651679 -1.57465 0
M  V30 3840 C 334.961 1.09448 -2.07505 0
M  V30 3841 C 335.977 1.41974 -1.00595 0
M  V30 3842 O 337.153 1.52018 -1.32107 0
M  V30 3843 C 334.218 2.38689 -2.51453 0
M  V30 3844 C 333.279 2.13073 -3.72691 0
M  V30 3845 C 332.512 3.36152 -4.14533 0
M  V30 3846 O 332.735 4.45517 -3.56189 0
M  V30 3847 O 331.669 3.23974 -5.07272 0
M  V30 3848 H 335.495 0.69935 -2.95538 0
M  V30 3849 H 333.08 0.279752 -1.46757 0
M  V30 3850 H 334.962 3.14736 -2.80212 0
M  V30 3851 H 333.637 2.77568 -1.66546 0
M  V30 3852 H 332.544 1.34709 -3.49005 0
M  V30 3853 H 333.877 1.79071 -4.5847 0
M  V30 3854 N 335.529 1.53961 0.336706 0
M  V30 3855 C 336.776 1.71536 1.07618 0
M  V30 3856 C 337.104 0.482125 1.8843 0
M  V30 3857 O 336.359 -0.536142 1.88213 0
M  V30 3858 C 336.658 2.93493 2.03953 0
M  V30 3859 C 336.324 4.28811 1.39399 0
M  V30 3860 C 334.986 4.65602 1.21523 0
M  V30 3861 C 337.338 5.12844 0.929541 0
M  V30 3862 C 334.666 5.84037 0.558312 0
M  V30 3863 C 337.018 6.31951 0.286505 0
M  V30 3864 C 335.682 6.67432 0.0954869 0
M  V30 3865 H 334.952 0.627696 0.393801 0
M  V30 3866 H 337.599 1.88186 0.354715 0
M  V30 3867 H 335.904 2.71475 2.82504 0
M  V30 3868 H 337.601 3.04285 2.61174 0
M  V30 3869 H 334.191 3.99858 1.54311 0
M  V30 3870 H 338.375 4.84947 1.05548 0
M  V30 3871 H 333.631 6.10097 0.398995 0
M  V30 3872 H 337.805 6.96352 -0.0814376 0
M  V30 3873 H 335.432 7.59063 -0.415579 0
M  V30 3874 N 337.007 -0.598083 1.45811 0
M  V30 3875 C 338.254 -1.35681 1.50323 0
M  V30 3876 C 338.582 -1.9393 0.148739 0
M  V30 3877 O 337.837 -1.76094 -0.853787 0
M  V30 3878 C 338.136 -2.51669 2.53766 0
M  V30 3879 C 337.802 -2.11508 3.98215 0
M  V30 3880 C 336.464 -2.0027 4.37545 0
M  V30 3881 C 338.816 -1.80308 4.89018 0
M  V30 3882 C 336.144 -1.56067 5.65562 0
M  V30 3883 C 338.496 -1.37589 6.17456 0
M  V30 3884 C 337.16 -1.24916 6.55708 0
M  V30 3885 H 336.43 -0.496492 0.550069 0
M  V30 3886 H 339.077 -0.675052 1.79207 0
M  V30 3887 H 337.382 -3.25225 2.18486 0
M  V30 3888 H 339.079 -3.09895 2.54492 0
M  V30 3889 H 335.669 -2.21185 3.67117 0
M  V30 3890 H 339.853 -1.87884 4.59362 0
M  V30 3891 H 335.109 -1.44886 5.93985 0
M  V30 3892 H 339.283 -1.12495 6.87254 0
M  V30 3893 H 336.91 -0.904386 7.54801 0
M  V30 3894 N 338.485 -1.33259 -0.841409 0
M  V30 3895 C 339.901 -1.12538 -1.13169 0
M  V30 3896 C 340.101 0.0854037 -2.01319 0
M  V30 3897 O 339.157 0.766417 -2.40587 0
M  V30 3898 C 340.47 -2.41156 -1.79623 0
M  V30 3899 C 342.018 -2.47038 -1.922 0
M  V30 3900 C 342.493 -3.7561 -2.6207 0
M  V30 3901 N 343.984 -3.76667 -2.69585 0
M  V30 3902 C 344.719 -4.72861 -3.2433 0
M  V30 3903 N 344.215 -5.79428 -3.79783 0
M  V30 3904 N 346.008 -4.6034 -3.22558 0
M  V30 3905 H 338.159 -2.10868 -0.254676 0
M  V30 3906 H 340.422 -0.931615 -0.175493 0
M  V30 3907 H 340.128 -3.29747 -1.22311 0
M  V30 3908 H 340.002 -2.53114 -2.79666 0
M  V30 3909 H 342.389 -1.58898 -2.48667 0
M  V30 3910 H 342.47 -2.39022 -0.911148 0
M  V30 3911 H 342.114 -4.64131 -2.06263 0
M  V30 3912 H 342.044 -3.80902 -3.63622 0
M  V30 3913 H 344.535 -2.99648 -2.30259 0
M  V30 3914 H 344.848 -6.48867 -4.19752 0
M  V30 3915 H 343.193 -5.83166 -3.78078 0
M  V30 3916 H 346.384 -3.76244 -2.78492 0
M  V30 3917 H 346.557 -5.35478 -3.64921 0
M  V30 3918 N 339.963 1.05934 -1.16686 0
M  V30 3919 C 341.21 1.788 -0.950622 0
M  V30 3920 C 341.538 1.87384 0.521305 0
M  V30 3921 O 340.793 1.36438 1.40297 0
M  V30 3922 C 341.092 3.23105 -1.52767 0
M  V30 3923 C 340.758 3.34594 -3.02254 0
M  V30 3924 C 339.42 3.37437 -3.43059 0
M  V30 3925 C 341.772 3.36219 -3.98254 0
M  V30 3926 C 339.1 3.39525 -4.78477 0
M  V30 3927 C 341.452 3.39845 -5.33562 0
M  V30 3928 C 340.116 3.40971 -5.73842 0
M  V30 3929 H 339.386 0.654275 -0.347857 0
M  V30 3930 H 342.033 1.24555 -1.45459 0
M  V30 3931 H 340.338 3.80227 -0.94524 0
M  V30 3932 H 342.035 3.7809 -1.336 0
M  V30 3933 H 338.625 3.3309 -2.6972 0
M  V30 3934 H 342.809 3.33231 -3.67792 0
M  V30 3935 H 338.065 3.38703 -5.09009 0
M  V30 3936 H 342.239 3.4005 -6.07733 0
M  V30 3937 H 339.866 3.42342 -6.78753 0
M  V30 3938 N 341.441 0.965919 1.2453 0
M  V30 3939 C 342.351 0.502154 2.29163 0
M  V30 3940 C 343.367 -0.436017 1.68448 0
M  V30 3941 O 344.543 -0.309497 1.99008 0
M  V30 3942 C 341.608 -0.201956 3.46111 0
M  V30 3943 C 340.669 0.775821 4.22232 0
M  V30 3944 C 339.902 0.105217 5.33596 0
M  V30 3945 O 340.125 -1.10683 5.59558 0
M  V30 3946 O 339.059 0.796475 5.96607 0
M  V30 3947 H 342.885 1.37194 2.70946 0
M  V30 3948 H 340.47 0.732875 1.30189 0
M  V30 3949 H 342.352 -0.597564 4.17142 0
M  V30 3950 H 341.027 -1.04673 3.06309 0
M  V30 3951 H 339.934 1.22185 3.53584 0
M  V30 3952 H 341.267 1.58896 4.65846 0
M  V30 3953 N 342.919 -1.39368 0.735821 0
M  V30 3954 C 343.866 -2.30599 0.0963825 0
M  V30 3955 C 344.836 -1.49257 -0.728794 0
M  V30 3956 O 346.021 -1.77941 -0.688588 0
M  V30 3957 C 343.161 -3.35596 -0.804305 0
M  V30 3958 C 342.274 -4.31987 0.0335761 0
M  V30 3959 C 341.409 -5.24053 -0.868461 0
M  V30 3960 C 340.448 -6.12095 -0.0258776 0
M  V30 3961 N 339.585 -6.96514 -0.883893 0
M  V30 3962 H 344.425 -2.8471 0.880002 0
M  V30 3963 H 341.962 -1.40188 0.445619 0
M  V30 3964 H 343.92 -3.95062 -1.34096 0
M  V30 3965 H 342.55 -2.82938 -1.55389 0
M  V30 3966 H 341.602 -3.74133 0.68766 0
M  V30 3967 H 342.914 -4.94074 0.685036 0
M  V30 3968 H 342.068 -5.88549 -1.47293 0
M  V30 3969 H 340.807 -4.62289 -1.5537 0
M  V30 3970 H 339.812 -5.4661 0.591386 0
M  V30 3971 H 341.037 -6.75923 0.656156 0
M  V30 3972 H 338.983 -6.37318 -1.55441 0
M  V30 3973 H 338.9 -7.55448 -0.288931 0
M  V30 3974 H 340.168 -7.65439 -1.4739 0
M  V30 3975 N 344.397 -0.483516 -1.5 0
M  V30 3976 C 345.36 0.292965 -2.2732 0
M  V30 3977 C 346.36 0.909499 -1.32608 0
M  V30 3978 O 347.55 0.776745 -1.55924 0
M  V30 3979 C 344.682 1.41854 -3.09984 0
M  V30 3980 H 345.875 -0.385289 -2.97415 0
M  V30 3981 H 343.428 -0.237942 -1.54478 0
M  V30 3982 H 344.163 2.13148 -2.44414 0
M  V30 3983 H 343.948 0.982114 -3.79601 0
M  V30 3984 H 345.438 1.96597 -3.68429 0
M  V30 3985 N 345.875 1.56104 -0.216619 0
M  V30 3986 C 347.286 1.844 0.292128 0
M  V30 3987 C 347.637 1.13788 1.59833 0
M  V30 3988 O 346.762 0.405888 2.12559 0
M  V30 3989 C 347.357 3.3452 0.53681 0
M  V30 3990 C 345.916 3.63151 0.989876 0
M  V30 3991 C 345.063 2.77255 0.0502302 0
M  V30 3992 H 348.014 1.52481 -0.439926 0
M  V30 3993 H 348.035 3.54459 1.38345 0
M  V30 3994 H 347.547 3.85885 -0.414031 0
M  V30 3995 H 345.648 3.17238 1.95425 0
M  V30 3996 H 345.761 4.71177 0.867698 0
M  V30 3997 H 344.125 2.48555 0.556117 0
M  V30 3998 H 344.908 3.31416 -0.89544 0
M  V30 3999 N 347.353 -0.0568162 1.57498 0
M  V30 4000 C 348.593 -0.758273 1.89815 0
M  V30 4001 C 348.957 -1.73978 0.812132 0
M  V30 4002 O 350.158 -2.48744 1.01881 0
M  V30 4003 C 348.429 -1.43465 3.27342 0
M  V30 4004 S 349.988 -2.1691 3.81439 0
M  V30 4005 H 346.806 -0.251836 0.664906 0
M  V30 4006 H 349.408 -0.0137997 1.95495 0
M  V30 4007 H 348.112 -0.706693 4.0427 0
M  V30 4008 H 347.643 -2.21825 3.24896 0
M  V30 4009 H 349.658 -3.43658 3.5793 0
M  V30 4010 N 348.832 -1.54138 -0.328536 0
M  V30 4011 C 349.782 -1.79557 -1.4051 0
M  V30 4012 C 350.766 -0.651373 -1.47126 0
M  V30 4013 O 351.958 -0.911226 -1.51742 0
M  V30 4014 C 349.087 -2.02196 -2.77438 0
M  V30 4015 C 348.173 -3.22724 -2.75155 0
M  V30 4016 N 348.564 -4.43881 -2.42494 0
M  V30 4017 C 346.862 -3.24196 -3.06289 0
M  V30 4018 C 347.563 -5.25797 -2.48822 0
M  V30 4019 N 346.539 -4.62862 -2.8506 0
M  V30 4020 H 350.341 -2.70814 -1.1418 0
M  V30 4021 H 347.855 -1.53265 -0.536991 0
M  V30 4022 H 349.852 -2.18546 -3.55026 0
M  V30 4023 H 348.512 -1.12191 -3.04702 0
M  V30 4024 H 349.523 -4.70969 -2.15428 0
M  V30 4025 H 346.2 -2.44208 -3.38627 0
M  V30 4026 H 347.59 -6.32535 -2.26603 0
M  V30 4027 N 350.31 0.590341 -1.46126 0
M  V30 4028 C 351.559 1.34499 -1.50309 0
M  V30 4029 C 351.872 1.94977 -0.156021 0
M  V30 4030 O 353.078 2.71395 -0.0756037 0
M  V30 4031 C 351.534 2.43723 -2.64815 0
M  V30 4032 C 351.142 1.89582 -4.0591 0
M  V30 4033 C 352.886 3.20579 -2.78262 0
M  V30 4034 C 350.793 2.9639 -5.11769 0
M  V30 4035 H 349.723 0.505593 -0.559368 0
M  V30 4036 H 352.374 0.630848 -1.72315 0
M  V30 4037 H 350.756 3.17902 -2.36124 0
M  V30 4038 H 351.93 1.21997 -4.44357 0
M  V30 4039 H 350.245 1.25418 -3.97063 0
M  V30 4040 H 352.842 4.00276 -3.54519 0
M  V30 4041 H 353.185 3.72684 -1.85505 0
M  V30 4042 H 353.718 2.53505 -3.06562 0
M  V30 4043 H 350.457 2.49181 -6.06291 0
M  V30 4044 H 349.977 3.62487 -4.77873 0
M  V30 4045 H 351.656 3.60474 -5.37278 0
M  V30 4046 N 351.788 1.33704 0.83433 0
M  V30 4047 C 352.698 1.26382 1.97648 0
M  V30 4048 C 353.714 0.173548 1.73132 0
M  V30 4049 O 354.89 0.397962 1.97429 0
M  V30 4050 C 351.955 1.00769 3.31733 0
M  V30 4051 C 351.016 2.1884 3.69334 0
M  V30 4052 C 350.249 1.9444 4.9702 0
M  V30 4053 O 350.472 0.896961 5.63303 0
M  V30 4054 O 349.406 2.81093 5.32231 0
M  V30 4055 H 353.232 2.22444 2.06767 0
M  V30 4056 H 350.817 1.13795 0.968037 0
M  V30 4057 H 352.699 0.882186 4.12062 0
M  V30 4058 H 351.374 0.0773783 3.23608 0
M  V30 4059 H 350.281 2.36946 2.89495 0
M  V30 4060 H 351.614 3.10221 3.82131 0
M  V30 4061 N 353.266 -1.05314 1.17247 0
M  V30 4062 C 354.196 -2.1498 0.911362 0
M  V30 4063 C 355.177 -1.69471 -0.146169 0
M  V30 4064 O 356.362 -1.942 0.003812 0
M  V30 4065 C 353.492 -3.4472 0.422528 0
M  V30 4066 C 352.446 -4.03789 1.4191 0
M  V30 4067 C 351.772 -5.28858 0.788274 0
M  V30 4068 C 353.072 -4.41418 2.7919 0
M  V30 4069 H 354.766 -2.3708 1.82848 0
M  V30 4070 H 352.312 -1.13938 0.880569 0
M  V30 4071 H 354.265 -4.20787 0.227289 0
M  V30 4072 H 352.989 -3.22269 -0.530123 0
M  V30 4073 H 351.648 -3.2979 1.60106 0
M  V30 4074 H 351.296 -5.02709 -0.171173 0
M  V30 4075 H 350.996 -5.69338 1.45353 0
M  V30 4076 H 352.52 -6.07612 0.603282 0
M  V30 4077 H 353.934 -5.08524 2.64719 0
M  V30 4078 H 352.331 -4.92913 3.42282 0
M  V30 4079 H 353.401 -3.51819 3.33693 0
M  V30 4080 N 354.744 -0.972509 -1.24016 0
M  V30 4081 C 355.984 -0.644951 -1.93958 0
M  V30 4082 C 356.348 0.80559 -1.74282 0
M  V30 4083 O 357.549 1.2436 -2.38302 0
M  V30 4084 C 355.82 -1.01521 -3.42678 0
M  V30 4085 S 357.379 -0.802927 -4.31391 0
M  V30 4086 H 354.197 -0.236452 -0.670531 0
M  V30 4087 H 356.799 -1.25048 -1.50277 0
M  V30 4088 H 355.503 -2.06769 -3.54506 0
M  V30 4089 H 355.034 -0.400648 -3.91355 0
M  V30 4090 H 357.049 0.317256 -4.95185 0
M  V30 4091 N 356.222 1.38976 -0.743202 0
M  V30 4092 C 357.447 2.05161 -0.303936 0
M  V30 4093 C 357.872 1.55677 1.05576 0
M  V30 4094 O 357.23 0.704131 1.67068 0
M  V30 4095 C 357.278 3.59138 -0.324373 0
M  V30 4096 O 356.382 4.06668 0.685204 0
M  V30 4097 H 355.723 0.649815 -0.136518 0
M  V30 4098 H 358.253 1.77852 -1.01142 0
M  V30 4099 H 358.263 4.07639 -0.171618 0
M  V30 4100 H 356.938 3.94515 -1.31647 0
M  V30 4101 H 355.515 3.69561 0.497913 0
M  V30 4102 N 357.7 0.491464 1.49741 0
M  V30 4103 C 358.663 -0.280906 2.27472 0
M  V30 4104 C 359.663 -0.902454 1.33088 0
M  V30 4105 O 360.853 -0.768465 1.56334 0
M  V30 4106 C 357.985 -1.40209 3.10732 0
M  V30 4107 H 359.178 0.401056 2.97206 0
M  V30 4108 H 356.731 0.246131 1.5435 0
M  V30 4109 H 357.466 -2.11849 2.45541 0
M  V30 4110 H 357.251 -0.961969 3.80117 0
M  V30 4111 H 358.741 -1.9464 3.69466 0
M  V30 4112 N 359.178 -1.55987 0.224894 0
M  V30 4113 C 360.403 -2.03232 -0.41369 0
M  V30 4114 C 360.828 -1.10359 -1.52323 0
M  V30 4115 O 360.186 -0.092395 -1.81064 0
M  V30 4116 C 360.234 -3.48682 -0.919405 0
M  V30 4117 O 359.338 -3.58947 -2.03054 0
M  V30 4118 H 358.679 -0.657428 -0.0931903 0
M  V30 4119 H 361.209 -2.01679 0.34451 0
M  V30 4120 H 361.219 -3.8907 -1.22835 0
M  V30 4121 H 359.894 -4.15761 -0.107339 0
M  V30 4122 H 358.471 -3.30448 -1.72796 0
M  V30 4123 N 360.656 0.0484629 -1.57525 0
M  V30 4124 C 361.902 0.744226 -1.88651 0
M  V30 4125 C 362.235 1.76029 -0.820212 0
M  V30 4126 O 361.51 1.93782 0.166985 0
M  V30 4127 C 361.793 1.43128 -3.30434 0
M  V30 4128 C 361.646 0.43005 -4.47739 0
M  V30 4129 C 362.965 2.37031 -3.70816 0
M  V30 4130 H 360.084 0.269089 -0.68612 0
M  V30 4131 H 362.726 0.00713532 -1.89999 0
M  V30 4132 H 360.876 2.05956 -3.29415 0
M  V30 4133 H 362.548 -0.194816 -4.60888 0
M  V30 4134 H 360.791 -0.252522 -4.33064 0
M  V30 4135 H 361.462 0.948874 -5.43783 0
M  V30 4136 H 363.938 1.84263 -3.73077 0
M  V30 4137 H 362.814 2.82094 -4.70865 0
M  V30 4138 H 363.075 3.22864 -3.02012 0
M  V30 4139 N 362.134 1.5431 0.320358 0
M  V30 4140 C 363.081 1.83918 1.39438 0
M  V30 4141 C 364.051 0.686525 1.51248 0
M  V30 4142 O 365.236 0.933269 1.66417 0
M  V30 4143 C 362.376 2.075 2.75749 0
M  V30 4144 C 361.489 3.35177 2.72544 0
M  V30 4145 C 360.624 3.48704 4.00723 0
M  V30 4146 C 359.663 4.70244 3.91838 0
M  V30 4147 N 358.8 4.80679 5.11754 0
M  V30 4148 H 363.64 2.75544 1.13489 0
M  V30 4149 H 361.177 1.36459 0.549309 0
M  V30 4150 H 363.135 2.19166 3.54996 0
M  V30 4151 H 361.765 1.19163 3 0
M  V30 4152 H 360.817 3.32233 1.85271 0
M  V30 4153 H 362.129 4.24534 2.61863 0
M  V30 4154 H 361.283 3.59928 4.88402 0
M  V30 4155 H 360.022 2.57445 4.14214 0
M  V30 4156 H 359.027 4.59072 3.02544 0
M  V30 4157 H 360.252 5.6289 3.7991 0
M  V30 4158 H 358.198 3.92337 5.25745 0
M  V30 4159 H 358.115 5.64007 5.0342 0
M  V30 4160 H 359.383 4.96239 6.01138 0
M  V30 4161 N 363.613 -0.582584 1.46437 0
M  V30 4162 C 364.561 -1.71272 1.5738 0
M  V30 4163 C 365.555 -1.63524 0.44229 0
M  V30 4164 O 366.761 -1.69016 0.619166 0
M  V30 4165 H 363.136 -0.566273 0.494813 0
M  V30 4166 H 365.107 -1.59174 2.52401 0
M  V30 4167 C 363.856 -3.09658 1.58136 0
M  V30 4168 H 363.179 -3.16291 2.44541 0
M  V30 4169 H 364.619 -3.88494 1.69847 0
M  V30 4170 C 363.078 -3.3547 0.310026 0
M  V30 4171 O 363.608 -3.97199 -0.599683 0
M  V30 4172 N 361.814 -2.89925 0.197901 0
M  V30 4173 H 361.361 -2.39873 0.93909 0
M  V30 4174 H 361.319 -3.07568 -0.65185 0
M  V30 4175 N 365.091 -1.34144 -0.827227 0
M  V30 4176 C 366.039 -1.25364 -1.95925 0
M  V30 4177 C 367.033 -0.152608 -1.68711 0
M  V30 4178 O 368.239 -0.317311 -1.77181 0
M  V30 4179 H 364.614 -0.389342 -0.643364 0
M  V30 4180 H 366.585 -2.21045 -2.00454 0
M  V30 4181 C 365.334 -1.02158 -3.32354 0
M  V30 4182 H 364.657 -1.86111 -3.5384 0
M  V30 4183 H 366.097 -1.00048 -4.12027 0
M  V30 4184 C 364.556 0.275244 -3.35774 0
M  V30 4185 O 365.086 1.27806 -3.80826 0
M  V30 4186 N 363.292 0.306853 -2.88975 0
M  V30 4187 H 362.839 -0.509777 -2.52506 0
M  V30 4188 H 362.797 1.17432 -2.91646 0
M  V30 4189 N 366.569 1.04691 -1.17803 0
M  V30 4190 C 367.517 2.14665 -0.895635 0
M  V30 4191 C 368.511 1.68806 0.141679 0
M  V30 4192 O 369.717 1.79999 -0.00587914 0
M  V30 4193 H 366.092 0.701038 -0.272121 0
M  V30 4194 H 368.063 2.35685 -1.83017 0
M  V30 4195 C 366.812 3.45019 -0.430962 0
M  V30 4196 H 366.135 3.8071 -1.22064 0
M  V30 4197 H 367.575 4.23125 -0.272301 0
M  V30 4198 C 366.034 3.25943 0.852207 0
M  V30 4199 O 366.564 3.5296 1.91786 0
M  V30 4200 N 364.77 2.79304 0.802346 0
M  V30 4201 H 364.317 2.57518 -0.0650788 0
M  V30 4202 H 364.275 2.66921 1.66134 0
M  V30 4203 N 368.047 0.979072 1.23499 0
M  V30 4204 C 369.293 0.648178 1.92163 0
M  V30 4205 C 369.626 -0.816049 1.76222 0
M  V30 4206 O 368.901 -1.58849 1.12237 0
M  V30 4207 C 369.184 1.03773 3.44824 0
M  V30 4208 C 369.037 2.55948 3.69879 0
M  V30 4209 C 370.356 0.580653 4.36253 0
M  V30 4210 H 367.475 0.236952 0.69787 0
M  V30 4211 H 370.117 1.22012 1.45647 0
M  V30 4212 H 368.267 0.551058 3.84572 0
M  V30 4213 H 369.939 3.12179 3.3962 0
M  V30 4214 H 368.182 2.98641 3.14636 0
M  V30 4215 H 368.853 2.78255 4.76737 0
M  V30 4216 H 371.329 0.998465 4.03943 0
M  V30 4217 H 370.205 0.881663 5.41773 0
M  V30 4218 H 370.466 -0.519052 4.39042 0
M  V30 4219 N 369.525 -1.3858 0.750561 0
M  V30 4220 C 370.802 -1.94231 0.231009 0
M  V30 4221 C 371.182 -1.68611 -1.27018 0
M  V30 4222 O 370.53 -1.02296 -2.04323 0
M  V30 4223 C 370.74 -3.44123 0.581428 0
M  V30 4224 C 372.088 -4.2116 0.539389 0
M  V30 4225 O 373.112 -3.52391 0.519541 0
M  V30 4226 O 371.971 -5.43749 0.54765 0
M  V30 4227 H 369.065 -0.825639 0.0474263 0
M  V30 4228 H 371.611 -1.4799 0.830478 0
M  V30 4229 H 370.383 -3.56267 1.61833 0
M  V30 4230 H 370.006 -3.97573 -0.0462047 0
M  V30 4231 N 371.003 -0.499398 -1.49478 0
M  V30 4232 C 371.913 0.284489 -2.32869 0
M  V30 4233 C 372.929 0.968885 -1.44529 0
M  V30 4234 O 374.105 0.95062 -1.77553 0
M  V30 4235 C 371.17 1.33594 -3.19928 0
M  V30 4236 C 370.231 0.665149 -4.24116 0
M  V30 4237 C 369.464 1.6665 -5.07014 0
M  V30 4238 O 369.687 2.89618 -4.91404 0
M  V30 4239 O 368.621 1.22271 -5.8935 0
M  V30 4240 H 372.447 -0.39802 -3.01081 0
M  V30 4241 H 370.032 -0.260758 -1.47107 0
M  V30 4242 H 371.914 1.94431 -3.73864 0
M  V30 4243 H 370.589 2.0014 -2.54412 0
M  V30 4244 H 369.496 0.0170769 -3.74096 0
M  V30 4245 H 370.829 0.0421555 -4.92182 0
M  V30 4246 N 372.481 1.55866 -0.233164 0
M  V30 4247 C 373.73 1.97779 0.39579 0
M  V30 4248 C 374.043 1.12419 1.60066 0
M  V30 4249 O 375.249 1.44283 2.29988 0
M  V30 4250 C 373.705 3.5188 0.755556 0
M  V30 4251 C 373.313 4.45959 -0.427152 0
M  V30 4252 C 375.057 4.02479 1.34946 0
M  V30 4253 C 372.964 5.91383 -0.0443043 0
M  V30 4254 H 371.894 0.738592 0.15165 0
M  V30 4255 H 374.545 1.80486 -0.331212 0
M  V30 4256 H 372.927 3.64816 1.5403 0
M  V30 4257 H 374.101 4.44776 -1.20462 0
M  V30 4258 H 372.416 4.05765 -0.935068 0
M  V30 4259 H 375.013 5.08637 1.649 0
M  V30 4260 H 375.356 3.49014 2.26925 0
M  V30 4261 H 375.889 3.92813 0.62791 0
M  V30 4262 H 372.628 6.48857 -0.930874 0
M  V30 4263 H 372.148 5.95734 0.697238 0
M  V30 4264 H 373.827 6.45893 0.378334 0
M  V30 4265 N 373.959 -0.0401083 1.57549 0
M  V30 4266 C 375.208 -0.732108 1.87944 0
M  V30 4267 C 375.521 -1.77107 0.830206 0
M  V30 4268 O 376.727 -2.51488 1.02302 0
M  V30 4269 C 375.183 -1.35315 3.33494 0
M  V30 4270 C 374.791 -0.351105 4.46622 0
M  V30 4271 C 376.535 -2.02566 3.73051 0
M  V30 4272 C 374.442 -0.979859 5.83226 0
M  V30 4273 H 373.372 -0.277188 0.701201 0
M  V30 4274 H 376.023 0.0138501 1.83495 0
M  V30 4275 H 374.405 -2.14844 3.32653 0
M  V30 4276 H 375.579 0.416674 4.58912 0
M  V30 4277 H 373.894 0.218708 4.15825 0
M  V30 4278 H 376.491 -2.50441 4.72423 0
M  V30 4279 H 376.834 -2.83904 3.04474 0
M  V30 4280 H 377.367 -1.29827 3.76018 0
M  V30 4281 H 374.106 -0.206135 6.55176 0
M  V30 4282 H 373.626 -1.71774 5.74677 0
M  V30 4283 H 375.305 -1.49046 6.29599 0
M  V30 4284 N 375.437 -1.54477 -0.31217 0
M  V30 4285 C 376.347 -1.87695 -1.4074 0
M  V30 4286 C 377.363 -0.769975 -1.56036 0
M  V30 4287 O 378.539 -1.06537 -1.70915 0
M  V30 4288 C 375.604 -2.10755 -2.75287 0
M  V30 4289 C 374.665 -3.34514 -2.69071 0
M  V30 4290 C 373.898 -3.56465 -3.97201 0
M  V30 4291 O 374.121 -2.81637 -4.96021 0
M  V30 4292 O 373.055 -4.49964 -3.9977 0
M  V30 4293 H 376.881 -2.80849 -1.15574 0
M  V30 4294 H 374.466 -1.40526 -0.507228 0
M  V30 4295 H 376.348 -2.27188 -3.54913 0
M  V30 4296 H 375.023 -1.20788 -3.0032 0
M  V30 4297 H 373.93 -3.23456 -1.87955 0
M  V30 4298 H 375.263 -4.24575 -2.48992 0
M  V30 4299 N 376.915 0.57481 -1.46744 0
M  V30 4300 C 378.162 1.33272 -1.52462 0
M  V30 4301 C 378.49 1.93669 -0.179572 0
M  V30 4302 O 377.745 1.7743 0.825664 0
M  V30 4303 C 378.044 2.476 -2.57738 0
M  V30 4304 C 377.71 2.05146 -4.01529 0
M  V30 4305 C 376.372 1.93284 -4.40676 0
M  V30 4306 C 378.724 1.72506 -4.91824 0
M  V30 4307 C 376.052 1.47049 -5.67973 0
M  V30 4308 C 378.404 1.27748 -6.19567 0
M  V30 4309 C 377.068 1.14468 -6.57612 0
M  V30 4310 H 376.338 0.487678 -0.557899 0
M  V30 4311 H 378.985 0.646456 -1.80259 0
M  V30 4312 H 377.29 3.21708 -2.23632 0
M  V30 4313 H 378.987 3.05807 -2.5939 0
M  V30 4314 H 375.577 2.15316 -3.7059 0
M  V30 4315 H 379.761 1.80552 -4.62293 0
M  V30 4316 H 375.017 1.35417 -5.96215 0
M  V30 4317 H 379.191 1.01547 -6.88957 0
M  V30 4318 H 376.818 0.78419 -7.56145 0
M  V30 4319 N 378.394 1.34581 0.820102 0
M  V30 4320 C 379.64 1.27285 1.57881 0
M  V30 4321 C 379.973 -0.156137 1.93571 0
M  V30 4322 O 379.248 -1.10222 1.60254 0
M  V30 4323 C 379.531 2.16639 2.87645 0
M  V30 4324 C 379.384 3.68088 2.58517 0
M  V30 4325 C 380.703 2.05378 3.8924 0
M  V30 4326 H 377.822 0.463714 0.572833 0
M  V30 4327 H 380.464 1.64859 0.944539 0
M  V30 4328 H 378.614 1.84725 3.41773 0
M  V30 4329 H 380.286 4.10382 2.10676 0
M  V30 4330 H 378.529 3.89038 1.91917 0
M  V30 4331 H 379.2 4.2598 3.51063 0
M  V30 4332 H 381.676 2.33404 3.44473 0
M  V30 4333 H 380.552 2.7012 4.77835 0
M  V30 4334 H 380.813 1.0316 4.29896 0
M  V30 4335 N 379.872 -1.04064 1.18357 0
M  V30 4336 C 380.782 -2.15569 0.925596 0
M  V30 4337 C 381.798 -1.7365 -0.110295 0
M  V30 4338 O 382.974 -2.01273 0.0716218 0
M  V30 4339 C 380.039 -3.43704 0.454836 0
M  V30 4340 C 379.1 -4.00004 1.55869 0
M  V30 4341 C 378.333 -5.22023 1.1103 0
M  V30 4342 O 378.556 -5.70392 -0.0309756 0
M  V30 4343 O 377.49 -5.70856 1.90805 0
M  V30 4344 H 381.316 -2.40187 1.8586 0
M  V30 4345 H 378.901 -1.1402 0.965394 0
M  V30 4346 H 380.783 -4.20923 0.200382 0
M  V30 4347 H 379.458 -3.20559 -0.449876 0
M  V30 4348 H 378.365 -3.24172 1.86716 0
M  V30 4349 H 379.698 -4.2749 2.43953 0
M  V30 4350 N 381.35 -0.985608 -1.22978 0
M  V30 4351 C 382.297 -0.529825 -2.24636 0
M  V30 4352 C 383.267 0.434028 -1.60329 0
M  V30 4353 O 384.452 0.340414 -1.87739 0
M  V30 4354 C 381.592 0.156533 -3.44745 0
M  V30 4355 C 380.705 -0.848197 -4.23591 0
M  V30 4356 C 379.84 -0.136109 -5.31026 0
M  V30 4357 C 378.879 -1.1297 -6.01585 0
M  V30 4358 N 378.016 -0.446415 -7.00679 0
M  V30 4359 H 382.856 -1.40148 -2.62988 0
M  V30 4360 H 380.393 -0.702168 -1.29259 0
M  V30 4361 H 382.351 0.571324 -4.1327 0
M  V30 4362 H 380.981 0.992025 -3.07179 0
M  V30 4363 H 380.033 -1.38135 -3.54433 0
M  V30 4364 H 381.345 -1.60512 -4.72268 0
M  V30 4365 H 380.499 0.335784 -6.0577 0
M  V30 4366 H 379.238 0.653373 -4.83304 0
M  V30 4367 H 378.243 -1.6123 -5.25628 0
M  V30 4368 H 379.468 -1.91993 -6.51395 0
M  V30 4369 H 377.414 0.323763 -6.55201 0
M  V30 4370 H 377.331 -1.1419 -7.47326 0
M  V30 4371 H 378.599 0.00291697 -7.795 0
M  V30 4372 N 382.828 1.3818 -0.7579 0
M  V30 4373 C 383.778 2.27741 -0.108674 0
M  V30 4374 C 384.762 1.45415 0.688709 0
M  V30 4375 O 385.954 1.68108 0.553956 0
M  V30 4376 C 383.083 3.34313 0.780367 0
M  V30 4377 C 382.169 4.24093 -0.0240977 0
M  V30 4378 N 382.56 4.9451 -1.06271 0
M  V30 4379 C 380.858 4.45542 0.202049 0
M  V30 4380 C 381.559 5.60675 -1.54979 0
M  V30 4381 N 380.535 5.36684 -0.864348 0
M  V30 4382 H 384.337 2.79649 -0.904071 0
M  V30 4383 H 381.851 1.51133 -0.594346 0
M  V30 4384 H 383.848 3.97368 1.26114 0
M  V30 4385 H 382.508 2.83962 1.57467 0
M  V30 4386 H 383.519 4.97345 -1.44459 0
M  V30 4387 H 380.196 4.06091 0.96935 0
M  V30 4388 H 381.586 6.26992 -2.41517 0
M  V30 4389 N 384.306 0.507319 1.49211 0
M  V30 4390 C 385.536 -0.0315292 2.06576 0
M  V30 4391 C 385.944 -1.30791 1.36713 0
M  V30 4392 O 385.287 -1.78324 0.441181 0
M  V30 4393 C 385.349 -0.349104 3.57801 0
M  V30 4394 C 385.013 0.830475 4.49391 0
M  V30 4395 C 386.01 1.72271 4.90529 0
M  V30 4396 C 383.695 1.03107 4.91604 0
M  V30 4397 C 385.689 2.79964 5.72625 0
M  V30 4398 C 383.376 2.11116 5.73475 0
M  V30 4399 C 384.374 2.99379 6.1389 0
M  V30 4400 O 384.062 4.05523 6.94123 0
M  V30 4401 H 383.794 0.0201002 0.675701 0
M  V30 4402 H 386.348 0.705737 1.92895 0
M  V30 4403 H 384.578 -1.14005 3.69513 0
M  V30 4404 H 386.267 -0.827319 3.97379 0
M  V30 4405 H 387.033 1.57958 4.58557 0
M  V30 4406 H 382.912 0.353417 4.59643 0
M  V30 4407 H 386.456 3.48884 6.04091 0
M  V30 4408 H 382.353 2.25421 6.0486 0
M  V30 4409 H 383.121 4.02953 7.1244 0
M  V30 4410 O 385.823 -1.56889 0.38316 0
M  V30 4411 H 386.514 -1.93009 -0.163415 0
M  V30 END ATOM
M  V30 BEGIN BOND
M  V30 END BOND
M  V30 END CTAB
M  END
$$$$
