drugbank_target|P42081 T-lymphocyte activation antigen CD86 (DB00098; DB01281; DB06681; DB11752)
 OpenBabel12092119413D

  0  0  0     0  0            999 V3000
M  V30 BEGIN CTAB
M  V30 COUNTS 5279 5337 0 0 0
M  V30 BEGIN ATOM
M  V30 1 H -0.908 1.98254 -0.117106 0
M  V30 2 N 0 1.576 0 0
M  V30 3 C 0.933 2.03868 1.02534 0
M  V30 4 C 1.911 0.928543 1.3348 0
M  V30 5 O 3.095 1.19667 1.45644 0
M  V30 6 C 0.222 2.43627 2.35294 0
M  V30 7 C -0.732 3.65373 2.2001 0
M  V30 8 S 0.101 5.13292 1.52614 0
M  V30 9 C 1.257 5.56322 2.86805 0
M  V30 10 H 1.49 2.90518 0.631377 0
M  V30 11 H -0.977 1.52953 0.210867 0
M  V30 12 H 0.981 2.67203 3.11629 0
M  V30 13 H -0.358 1.57376 2.7183 0
M  V30 14 H -1.165 3.90944 3.18086 0
M  V30 15 H -1.563 3.418 1.51819 0
M  V30 16 H 0.729 5.58782 3.83104 0
M  V30 17 H 1.672 6.56266 2.65933 0
M  V30 18 H 2.08 4.83886 2.90714 0
M  V30 19 N 1.4781 -0.272755 1.55222 0
M  V30 20 C 2.7551 -1.02562 1.66555 0
M  V30 21 C 3.1351 -2.04282 0.532189 0
M  V30 22 O 2.4831 -2.23662 -0.467717 0
M  V30 23 C 2.6931 -1.6822 3.05782 0
M  V30 24 C 4.0411 -2.19373 3.63539 0
M  V30 25 O 5.0651 -1.78206 3.08417 0
M  V30 26 O 3.9241 -2.94883 4.60115 0
M  V30 27 H 1.0181 -0.475755 0.676451 0
M  V30 28 H 3.5641 -0.268593 1.67561 0
M  V30 29 H 2.3361 -0.945112 3.79715 0
M  V30 30 H 1.9591 -2.50609 3.08676 0
M  V30 31 N 2.9562 -1.48159 -0.537278 0
M  V30 32 C 4.3672 -1.49429 -1.11928 0
M  V30 33 C 4.7182 -0.26 -1.9447 0
M  V30 34 O 3.8432 0.633489 -2.0692 0
M  V30 35 C 4.4382 -2.70758 -2.03656 0
M  V30 36 C 2.9972 -2.74923 -2.57088 0
M  V30 37 C 2.1442 -2.42835 -1.3389 0
M  V30 38 H 5.0952 -1.55381 -0.322886 0
M  V30 39 H 5.1162 -2.48861 -2.87834 0
M  V30 40 H 4.6282 -3.60575 -1.43553 0
M  V30 41 H 2.7292 -1.89296 -3.20933 0
M  V30 42 H 2.8422 -3.76157 -2.9672 0
M  V30 43 H 1.2062 -1.93836 -1.65226 0
M  V30 44 H 1.9892 -3.34884 -0.755504 0
M  V30 45 N 4.4343 0.785586 -1.36625 0
M  V30 46 C 5.3663 1.90711 -1.2713 0
M  V30 47 C 6.3793 1.61688 -0.189986 0
M  V30 48 O 7.5683 1.72864 -0.445014 0
M  V30 49 C 4.6683 3.25611 -0.939713 0
M  V30 50 C 3.8413 3.82385 -2.12369 0
M  V30 51 C 2.9003 4.95732 -1.76456 0
M  V30 52 O 1.9263 5.12047 -2.48589 0
M  V30 53 N 3.1283 5.76258 -0.700492 0
M  V30 54 H 5.8933 1.99376 -2.23762 0
M  V30 55 H 3.4543 0.964041 -1.30069 0
M  V30 56 H 5.4463 3.98937 -0.680554 0
M  V30 57 H 4.0163 3.12538 -0.0624074 0
M  V30 58 H 3.2363 3.01001 -2.54543 0
M  V30 59 H 4.5243 4.17047 -2.9146 0
M  V30 60 H 3.9223 5.65609 -0.101624 0
M  V30 61 H 2.4793 6.4987 -0.501165 0
M  V30 62 N 5.9124 1.20967 1.01018 0
M  V30 63 C 7.1524 1.03511 1.76252 0
M  V30 64 C 7.5164 -0.42458 1.87247 0
M  V30 65 O 8.7174 -0.719508 2.58991 0
M  V30 66 C 6.9884 1.70726 3.13986 0
M  V30 67 S 8.5474 1.68458 4.05176 0
M  V30 68 H 5.3654 0.371037 0.606508 0
M  V30 69 H 7.9674 1.53628 1.20908 0
M  V30 70 H 6.6714 2.76128 3.03614 0
M  V30 71 H 6.2024 1.20767 3.74405 0
M  V30 72 H 8.2174 0.721987 4.90919 0
M  V30 73 N 7.3905 -1.2043 1.01659 0
M  V30 74 C 8.6185 -1.93777 0.725132 0
M  V30 75 C 9.0335 -1.74772 -0.714166 0
M  V30 76 O 8.3905 -1.06169 -1.4844 0
M  V30 77 C 8.4415 -3.45876 1.05129 0
M  V30 78 O 8.1625 -3.6426 2.43406 0
M  V30 79 C 9.6635 -4.36368 0.780891 0
M  V30 80 H 6.8835 -0.615901 0.266284 0
M  V30 81 H 9.4275 -1.52922 1.35776 0
M  V30 82 H 7.5825 -3.8461 0.464065 0
M  V30 83 H 7.9965 -4.58246 2.55169 0
M  V30 84 H 9.4705 -5.41743 1.05918 0
M  V30 85 H 9.9475 -4.38275 -0.284937 0
M  V30 86 H 10.5535 -4.03296 1.35027 0
M  V30 87 N 8.8686 -0.792821 -1.36206 0
M  V30 88 C 9.8016 -0.139422 -2.27774 0
M  V30 89 C 10.7796 0.68649 -1.47398 0
M  V30 90 O 11.9636 0.656738 -1.7669 0
M  V30 91 C 9.0906 0.807947 -3.28922 0
M  V30 92 C 8.1366 0.0633999 -4.26453 0
M  V30 93 S 8.9696 -1.26319 -5.20388 0
M  V30 94 C 10.1256 -0.31991 -6.25082 0
M  V30 95 H 10.3586 -0.915809 -2.82843 0
M  V30 96 H 7.8916 -0.587203 -1.42798 0
M  V30 97 H 9.8496 1.34908 -3.87699 0
M  V30 98 H 8.5106 1.55761 -2.72759 0
M  V30 99 H 7.7036 0.782386 -4.9789 0
M  V30 100 H 7.3056 -0.407352 -3.71775 0
M  V30 101 H 9.5976 0.499985 -6.75653 0
M  V30 102 H 10.5406 -1.00307 -7.00959 0
M  V30 103 H 10.9486 0.0782694 -5.64446 0
M  V30 104 N 10.3467 1.47872 -0.545128 0
M  V30 105 C 11.5947 2.02093 -0.016553 0
M  V30 106 C 11.9157 1.42305 1.3332 0
M  V30 107 O 11.1857 0.593853 1.86682 0
M  V30 108 H 9.7657 0.746993 -0.00313038 0
M  V30 109 H 12.4277 1.81414 -0.712397 0
M  V30 110 H 11.5237 3.11996 0.0805422 0
M  V30 111 N 11.8248 0.280983 1.55075 0
M  V30 112 C 12.7548 -0.597469 2.25727 0
M  V30 113 C 13.7358 -1.15417 1.24952 0
M  V30 114 O 14.9208 -1.18722 1.53684 0
M  V30 115 C 12.0508 -1.7789 2.98283 0
M  V30 116 C 11.0048 -1.35347 4.06036 0
M  V30 117 C 10.3308 -2.61846 4.66198 0
M  V30 118 C 11.6308 -0.499354 5.19907 0
M  V30 119 H 13.3248 -0.00824265 2.99399 0
M  V30 120 H 10.8708 -0.0025244 1.44 0
M  V30 121 H 12.8238 -2.39937 3.46422 0
M  V30 122 H 11.5478 -2.39405 2.22155 0
M  V30 123 H 10.2068 -0.756156 3.58717 0
M  V30 124 H 9.8548 -3.21632 3.86732 0
M  V30 125 H 9.5548 -2.3409 5.38958 0
M  V30 126 H 11.0788 -3.24732 5.1709 0
M  V30 127 H 12.4928 -1.02498 5.64063 0
M  V30 128 H 10.8898 -0.316424 5.99265 0
M  V30 129 H 11.9598 0.480459 4.82514 0
M  V30 130 N 13.3029 -1.57598 0.00835791 0
M  V30 131 C 14.5279 -1.95617 -0.689103 0
M  V30 132 C 14.9529 -0.883753 -1.66046 0
M  V30 133 O 14.3109 0.157352 -1.80616 0
M  V30 134 C 14.3589 -3.32736 -1.38994 0
M  V30 135 O 13.4629 -3.27631 -2.50463 0
M  V30 136 H 12.8039 -0.638379 -0.182668 0
M  V30 137 H 15.3339 -2.045 0.064036 0
M  V30 138 H 15.3439 -3.68494 -1.75147 0
M  V30 139 H 14.0189 -4.1034 -0.677778 0
M  V30 140 H 12.5959 -3.03561 -2.16576 0
M  V30 141 N 14.781 0.264519 -1.55364 0
M  V30 142 C 15.729 1.34702 -1.89626 0
M  V30 143 C 16.723 1.50712 -0.773459 0
M  V30 144 O 17.929 1.52395 -0.957897 0
M  V30 145 H 14.304 0.450682 -0.601988 0
M  V30 146 H 16.275 1.0306 -2.80038 0
M  V30 147 C 15.024 2.6989 -2.19214 0
M  V30 148 H 14.347 2.58365 -3.05103 0
M  V30 149 H 15.787 3.44553 -2.47102 0
M  V30 150 C 14.246 3.21637 -1.00254 0
M  V30 151 O 14.776 4.00973 -0.241501 0
M  V30 152 N 12.982 2.7943 -0.797938 0
M  V30 153 H 12.529 2.15026 -1.4185 0
M  V30 154 H 12.487 3.144 -0.00363422 0
M  V30 155 N 16.2591 1.48442 0.529413 0
M  V30 156 C 17.5081 1.55742 1.28169 0
M  V30 157 C 17.8211 0.236511 1.94165 0
M  V30 158 O 19.0271 0.187761 2.7085 0
M  V30 159 C 17.4831 2.74667 2.32564 0
M  V30 160 C 17.0911 4.13402 1.72636 0
M  V30 161 C 18.8351 2.9128 3.08798 0
M  V30 162 C 16.7421 5.23587 2.74975 0
M  V30 163 H 15.6721 0.579796 0.48203 0
M  V30 164 H 18.3231 1.74776 0.559056 0
M  V30 165 H 16.7051 2.49067 3.07866 0
M  V30 166 H 17.8791 4.49022 1.03519 0
M  V30 167 H 16.1941 4.0191 1.08892 0
M  V30 168 H 18.7911 3.70767 3.85274 0
M  V30 169 H 19.1341 2.00757 3.64695 0
M  V30 170 H 19.6671 3.16782 2.40611 0
M  V30 171 H 16.4061 6.16076 2.23897 0
M  V30 172 H 15.9261 4.92454 3.42417 0
M  V30 173 H 17.6051 5.51724 3.37949 0
M  V30 174 N 17.7372 -0.778329 1.37039 0
M  V30 175 C 18.6672 -1.90546 1.34962 0
M  V30 176 C 19.6482 -1.68681 0.219274 0
M  V30 177 O 20.8332 -1.89634 0.418624 0
M  V30 178 C 17.9632 -3.27734 1.14925 0
M  V30 179 C 16.9172 -3.64147 2.24902 0
M  V30 180 C 16.2432 -4.99806 1.89996 0
M  V30 181 C 17.5432 -3.71579 3.67051 0
M  V30 182 H 19.2372 -1.92541 2.29277 0
M  V30 183 H 16.7832 -0.924948 1.10366 0
M  V30 184 H 18.7362 -4.06215 1.12104 0
M  V30 185 H 17.4602 -3.26154 0.170631 0
M  V30 186 H 16.1192 -2.8797 2.26868 0
M  V30 187 H 15.7672 -4.94759 0.906796 0
M  V30 188 H 15.4672 -5.25139 2.63634 0
M  V30 189 H 16.9912 -5.80694 1.88749 0
M  V30 190 H 18.4052 -4.40227 3.67251 0
M  V30 191 H 16.8022 -4.08405 4.39688 0
M  V30 192 H 17.8722 -2.72404 4.01154 0
M  V30 193 N 19.2153 -1.21501 -1.00376 0
M  V30 194 C 20.4623 -1.03299 -1.74171 0
M  V30 195 C 20.7903 0.433326 -1.89612 0
M  V30 196 O 20.0453 1.33779 -1.42834 0
M  V30 197 C 20.3443 -1.67673 -3.15627 0
M  V30 198 C 20.0103 -3.17533 -3.2013 0
M  V30 199 C 18.6723 -3.58427 -3.21067 0
M  V30 200 C 21.0243 -4.13504 -3.17275 0
M  V30 201 C 18.3523 -4.93794 -3.16835 0
M  V30 202 C 20.7043 -5.48834 -3.14585 0
M  V30 203 C 19.3683 -5.89123 -3.13831 0
M  V30 204 H 18.6383 -0.377999 -0.637336 0
M  V30 205 H 21.2853 -1.51111 -1.17634 0
M  V30 206 H 19.5903 -1.12158 -3.75404 0
M  V30 207 H 21.2873 -1.51091 -3.71446 0
M  V30 208 H 17.8773 -2.84965 -3.20145 0
M  V30 209 H 22.0613 -3.82936 -3.15711 0
M  V30 210 H 17.3173 -5.24255 -3.1459 0
M  V30 211 H 21.4913 -6.22934 -3.1133 0
M  V30 212 H 19.1183 -6.93984 -3.10307 0
M  V30 213 N 20.6934 1.19889 -1.02296 0
M  V30 214 C 21.9394 1.89701 -0.717033 0
M  V30 215 C 22.2724 1.7905 0.751989 0
M  V30 216 O 21.5474 1.17891 1.547 0
M  V30 217 C 21.8304 3.40858 -1.16136 0
M  V30 218 C 21.6834 3.60411 -2.69117 0
M  V30 219 C 23.0024 4.33876 -0.737549 0
M  V30 220 H 20.1214 0.688874 -0.261957 0
M  V30 221 H 22.7634 1.41154 -1.27183 0
M  V30 222 H 20.9134 3.82335 -0.689342 0
M  V30 223 H 22.5854 3.28145 -3.2422 0
M  V30 224 H 20.8284 3.03665 -3.0979 0
M  V30 225 H 21.4994 4.66396 -2.95261 0
M  V30 226 H 23.9754 4.00081 -1.14344 0
M  V30 227 H 22.8514 5.38242 -1.0764 0
M  V30 228 H 23.1124 4.40628 0.360436 0
M  V30 229 N 22.1715 0.800033 1.35784 0
M  V30 230 C 23.1045 0.151499 2.27697 0
M  V30 231 C 24.0825 -0.678663 1.4776 0
M  V30 232 O 25.2665 -0.647358 1.77035 0
M  V30 233 C 22.3935 -0.790492 3.29346 0
M  V30 234 C 21.4395 -0.0407832 4.26481 0
M  V30 235 S 22.2725 1.29077 5.19711 0
M  V30 236 C 23.4285 0.353055 6.24903 0
M  V30 237 H 23.6615 0.930796 2.82353 0
M  V30 238 H 21.1945 0.594767 1.42485 0
M  V30 239 H 23.1525 -1.3285 3.88409 0
M  V30 240 H 21.8135 -1.54312 2.73581 0
M  V30 241 H 21.0065 -0.755971 4.98298 0
M  V30 242 H 20.6085 0.427063 3.71554 0
M  V30 243 H 22.9005 -0.464147 6.75908 0
M  V30 244 H 23.8435 1.04023 7.00418 0
M  V30 245 H 24.2515 -0.0483344 5.64479 0
M  V30 246 N 23.6496 -1.47581 0.552962 0
M  V30 247 C 24.6126 -2.28439 -0.186605 0
M  V30 248 C 25.6126 -1.36706 -0.84665 0
M  V30 249 O 26.8026 -1.59378 -0.703164 0
M  V30 250 C 23.9346 -3.16264 -1.2724 0
M  V30 251 H 25.1276 -2.95294 0.523609 0
M  V30 252 H 22.6806 -1.532 0.309745 0
M  V30 253 H 23.4156 -2.54091 -2.01514 0
M  V30 254 H 23.2006 -3.83769 -0.803968 0
M  V30 255 H 24.6906 -3.77198 -1.79196 0
M  V30 256 N 25.1277 -0.289203 -1.54924 0
M  V30 257 C 26.3747 0.323519 -1.99899 0
M  V30 258 C 26.7027 1.54797 -1.17762 0
M  V30 259 O 25.9577 1.94237 -0.238835 0
M  V30 260 C 26.2567 0.736119 -3.49737 0
M  V30 261 C 25.9227 -0.385276 -4.49251 0
M  V30 262 C 24.5847 -0.693156 -4.76181 0
M  V30 263 C 26.9367 -1.14021 -5.08575 0
M  V30 264 C 24.2647 -1.7593 -5.59701 0
M  V30 265 C 26.6167 -2.19619 -5.93254 0
M  V30 266 C 25.2807 -2.51026 -6.185 0
M  V30 267 H 24.5507 0.118384 -0.731482 0
M  V30 268 H 27.1977 -0.405847 -1.8715 0
M  V30 269 H 25.5027 1.54539 -3.60035 0
M  V30 270 H 27.1997 1.22118 -3.81953 0
M  V30 271 H 23.7897 -0.135202 -4.28387 0
M  V30 272 H 27.9737 -0.915611 -4.87781 0
M  V30 273 H 23.2297 -2.0075 -5.77503 0
M  V30 274 H 27.4037 -2.78581 -6.38252 0
M  V30 275 H 25.0307 -3.33772 -6.83008 0
M  V30 276 N 26.6058 1.57591 -0.0167156 0
M  V30 277 C 27.5358 2.12496 0.967858 0
M  V30 278 C 28.5168 1.03807 1.34752 0
M  V30 279 O 29.7018 1.31577 1.42833 0
M  V30 280 C 26.8318 2.64194 2.25431 0
M  V30 281 C 25.7858 3.77559 2.01576 0
M  V30 282 C 25.1118 4.15636 3.36379 0
M  V30 283 C 26.4118 5.04151 1.36489 0
M  V30 284 H 28.1058 2.95013 0.510643 0
M  V30 285 H 25.6518 1.41915 0.244181 0
M  V30 286 H 27.6048 3.01236 2.94678 0
M  V30 287 H 26.3288 1.78821 2.73296 0
M  V30 288 H 24.9878 3.40937 1.34751 0
M  V30 289 H 24.6358 3.27263 3.81979 0
M  V30 290 H 24.3358 4.92022 3.21229 0
M  V30 291 H 25.8598 4.5525 4.06915 0
M  V30 292 H 27.2738 5.38857 1.95718 0
M  V30 293 H 25.6708 5.85453 1.31776 0
M  V30 294 H 26.7408 4.83733 0.336219 0
M  V30 295 N 28.0839 -0.256276 1.55502 0
M  V30 296 C 29.0139 -1.32102 1.92539 0
M  V30 297 C 29.9949 -1.50684 0.789194 0
M  V30 298 O 31.1799 -1.63449 1.04872 0
M  V30 299 C 28.3099 -2.67752 2.21192 0
M  V30 300 C 27.2639 -2.63878 3.36975 0
M  V30 301 C 26.5899 -4.03236 3.51147 0
M  V30 302 C 27.8899 -2.21682 4.72921 0
M  V30 303 H 29.5839 -1.01351 2.81724 0
M  V30 304 H 27.1299 -0.486105 1.35547 0
M  V30 305 H 29.0829 -3.42365 2.45691 0
M  V30 306 H 27.8069 -3.0012 1.28824 0
M  V30 307 H 26.4659 -1.91722 3.12471 0
M  V30 308 H 26.1139 -4.32854 2.56216 0
M  V30 309 H 25.8139 -4.01535 4.29003 0
M  V30 310 H 27.3379 -4.79563 3.77957 0
M  V30 311 H 28.7519 -2.86023 4.96854 0
M  V30 312 H 27.1489 -2.3111 5.53812 0
M  V30 313 H 28.2189 -1.16833 4.70615 0
M  V30 314 N 29.562 -1.4872 -0.521534 0
M  V30 315 C 30.787 -1.61101 -1.30618 0
M  V30 316 C 31.212 -0.274611 -1.86085 0
M  V30 317 O 30.57 0.754937 -1.64834 0
M  V30 318 C 30.618 -2.66709 -2.4269 0
M  V30 319 O 29.722 -2.24456 -3.45967 0
M  V30 320 H 29.063 -0.539921 -0.386499 0
M  V30 321 H 31.593 -1.94767 -0.626645 0
M  V30 322 H 31.603 -2.88245 -2.88754 0
M  V30 323 H 30.278 -3.63727 -2.01682 0
M  V30 324 H 28.855 -2.13168 -3.05964 0
M  V30 325 N 31.0401 0.771051 -1.3745 0
M  V30 326 C 32.2881 1.52661 -1.32435 0
M  V30 327 C 32.6091 1.9479 0.0905024 0
M  V30 328 O 31.8791 1.66348 1.03466 0
M  V30 329 H 30.4591 0.566218 -0.487244 0
M  V30 330 H 33.1211 0.917636 -1.71946 0
M  V30 331 H 32.2171 2.42568 -1.96385 0
M  V30 332 N 32.5182 1.22032 0.997298 0
M  V30 333 C 33.4812 0.987909 2.06816 0
M  V30 334 C 34.4812 -0.0440084 1.6074 0
M  V30 335 O 35.6712 0.194053 1.73116 0
M  V30 336 C 32.8032 0.49132 3.37341 0
M  V30 337 H 33.9962 1.93803 2.28868 0
M  V30 338 H 31.5492 1.03838 1.16822 0
M  V30 339 H 32.2842 -0.463364 3.20973 0
M  V30 340 H 32.0692 1.23575 3.72118 0
M  V30 341 H 33.5592 0.348824 4.16141 0
M  V30 342 N 33.9963 -1.19345 1.0293 0
M  V30 343 C 34.9593 -2.20793 0.615069 0
M  V30 344 C 35.9593 -1.57553 -0.321533 0
M  V30 345 O 37.1493 -1.73862 -0.108483 0
M  V30 346 C 34.2813 -3.40754 -0.0999222 0
M  V30 347 H 35.4743 -2.58955 1.51269 0
M  V30 348 H 33.0273 -1.3303 0.820534 0
M  V30 349 H 33.7623 -3.0811 -1.01187 0
M  V30 350 H 33.5473 -3.87889 0.57309 0
M  V30 351 H 35.0373 -4.15898 -0.376645 0
M  V30 352 N 35.4744 -0.807222 -1.35358 0
M  V30 353 C 36.8854 -0.44876 -1.81226 0
M  V30 354 C 37.2364 1.02929 -1.67033 0
M  V30 355 O 36.3614 1.79991 -1.20133 0
M  V30 356 C 36.9564 -0.807774 -3.2903 0
M  V30 357 C 35.5154 -0.501901 -3.73039 0
M  V30 358 C 34.6624 -1.03304 -2.57339 0
M  V30 359 H 37.6134 -0.998808 -1.23327 0
M  V30 360 H 37.6344 -0.10554 -3.80354 0
M  V30 361 H 37.1464 -1.88357 -3.39328 0
M  V30 362 H 35.2474 0.565128 -3.68289 0
M  V30 363 H 35.3604 -1.03497 -4.67787 0
M  V30 364 H 33.7244 -0.455339 -2.50597 0
M  V30 365 H 34.5074 -2.11496 -2.70415 0
M  V30 366 N 36.9525 1.47285 -0.560781 0
M  V30 367 C 37.8825 2.32857 0.173105 0
M  V30 368 C 38.8635 1.44009 0.905281 0
M  V30 369 O 40.0485 1.7286 0.885046 0
M  V30 370 C 37.1785 3.25861 1.20133 0
M  V30 371 C 36.1325 4.23978 0.585388 0
M  V30 372 C 35.4585 5.06332 1.7185 0
M  V30 373 C 36.7585 5.20242 -0.463178 0
M  V30 374 H 38.4525 2.94466 -0.541307 0
M  V30 375 H 35.9985 1.41601 -0.261764 0
M  V30 376 H 37.9515 3.84569 1.72293 0
M  V30 377 H 36.6755 2.62315 1.94573 0
M  V30 378 H 35.3345 3.66501 0.085054 0
M  V30 379 H 34.9825 4.39186 2.45203 0
M  V30 380 H 34.6825 5.72762 1.31213 0
M  V30 381 H 36.2065 5.67899 2.24329 0
M  V30 382 H 37.6205 5.73293 -0.027502 0
M  V30 383 H 36.0175 5.94896 -0.788627 0
M  V30 384 H 37.0875 4.65504 -1.35773 0
M  V30 385 N 38.4306 0.297415 1.54768 0
M  V30 386 C 39.3776 -0.580276 2.23386 0
M  V30 387 C 40.3476 -1.13238 1.21517 0
M  V30 388 O 41.5326 -1.17757 1.50126 0
M  V30 389 C 38.6726 -1.74801 2.97555 0
M  V30 390 C 37.7856 -1.22764 4.1419 0
M  V30 391 C 36.9206 -2.35895 4.75949 0
M  V30 392 C 35.9596 -1.80974 5.84735 0
M  V30 393 N 35.0966 -2.87664 6.40464 0
M  V30 394 H 39.9366 0.0114833 2.97998 0
M  V30 395 H 37.4736 0.0174361 1.4709 0
M  V30 396 H 39.4316 -2.43475 3.38786 0
M  V30 397 H 38.0616 -2.31145 2.25326 0
M  V30 398 H 37.1136 -0.433271 3.77924 0
M  V30 399 H 38.4256 -0.785551 4.92575 0
M  V30 400 H 37.5796 -3.12523 5.20014 0
M  V30 401 H 36.3186 -2.83429 3.96887 0
M  V30 402 H 35.3236 -1.02834 5.40097 0
M  V30 403 H 36.5486 -1.34348 6.65678 0
M  V30 404 H 34.4946 -3.34538 5.64287 0
M  V30 405 H 34.4116 -2.4794 7.14186 0
M  V30 406 H 35.6796 -3.642 6.89187 0
M  V30 407 N 39.9087 -1.5758 0.0250728 0
M  V30 408 C 41.1577 -1.90811 -0.653767 0
M  V30 409 C 41.4707 -0.90273 -1.73523 0
M  V30 410 O 42.6767 -1.12614 -2.47043 0
M  V30 411 C 41.1327 -3.38804 -1.21409 0
M  V30 412 C 40.7407 -4.47692 -0.166126 0
M  V30 413 C 42.4847 -3.81108 -1.86967 0
M  V30 414 C 40.3917 -5.86779 -0.737856 0
M  V30 415 H 39.3217 -0.712063 -0.247956 0
M  V30 416 H 41.9727 -1.83281 0.0897137 0
M  V30 417 H 40.3547 -3.41252 -2.00905 0
M  V30 418 H 41.5287 -4.56797 0.606079 0
M  V30 419 H 39.8437 -4.14565 0.390466 0
M  V30 420 H 42.4407 -4.82375 -2.30692 0
M  V30 421 H 42.7837 -3.15953 -2.71071 0
M  V30 422 H 43.3167 -3.81065 -1.14167 0
M  V30 423 H 40.0557 -6.55468 0.0649577 0
M  V30 424 H 39.5757 -5.81288 -1.47864 0
M  V30 425 H 41.2547 -6.35223 -1.22884 0
M  V30 426 N 41.3868 0.248026 -1.55636 0
M  V30 427 C 42.3188 1.32993 -1.8667 0
M  V30 428 C 43.3318 1.44345 -0.752877 0
M  V30 429 O 44.5208 1.45715 -1.03098 0
M  V30 430 C 41.6208 2.70863 -2.03682 0
M  V30 431 C 40.7938 2.81792 -3.34532 0
M  V30 432 C 39.8528 4.005 -3.41301 0
M  V30 433 O 38.8788 3.9008 -4.14519 0
M  V30 434 N 40.0808 5.13618 -2.70512 0
M  V30 435 H 42.8458 1.06707 -2.8006 0
M  V30 436 H 40.4068 0.438129 -1.55859 0
M  V30 437 H 42.3988 3.48612 -2.05553 0
M  V30 438 H 40.9688 2.89862 -1.17041 0
M  V30 439 H 40.1888 1.90729 -3.44987 0
M  V30 440 H 41.4768 2.86043 -4.20781 0
M  V30 441 H 40.8748 5.24975 -2.10755 0
M  V30 442 H 39.4318 5.89505 -2.78077 0
M  V30 443 N 42.8649 1.48995 0.513639 0
M  V30 444 C 43.8279 1.64229 1.59879 0
M  V30 445 C 44.8279 0.514696 1.5234 0
M  V30 446 O 46.0179 0.78087 1.55718 0
M  V30 447 C 43.1499 1.62783 2.99524 0
M  V30 448 H 44.3429 2.61004 1.47705 0
M  V30 449 H 41.8959 1.37837 0.736936 0
M  V30 450 H 42.6309 0.675461 3.17188 0
M  V30 451 H 42.4159 2.4466 3.06404 0
M  V30 452 H 43.9059 1.76669 3.78388 0
M  V30 453 N 44.343 -0.763751 1.37857 0
M  V30 454 C 45.573 -1.55067 1.3652 0
M  V30 455 C 45.981 -1.89135 -0.0494227 0
M  V30 456 O 45.324 -1.52529 -1.02375 0
M  V30 457 C 45.386 -2.8838 2.14656 0
M  V30 458 C 45.05 -2.76905 3.63555 0
M  V30 459 C 46.047 -2.4739 4.57268 0
M  V30 460 C 43.732 -2.94676 4.06781 0
M  V30 461 C 45.726 -2.35786 5.92186 0
M  V30 462 C 43.413 -2.82692 5.41782 0
M  V30 463 C 44.411 -2.53289 6.34298 0
M  V30 464 O 44.099 -2.41345 7.66817 0
M  V30 465 H 43.831 -0.486776 0.469069 0
M  V30 466 H 46.385 -0.953812 1.81911 0
M  V30 467 H 44.615 -3.50217 1.63967 0
M  V30 468 H 46.304 -3.49828 2.05852 0
M  V30 469 H 47.07 -2.33339 4.2518 0
M  V30 470 H 42.949 -3.16563 3.35126 0
M  V30 471 H 46.493 -2.12757 6.64365 0
M  V30 472 H 42.39 -2.96314 5.7347 0
M  V30 473 H 43.158 -2.56634 7.77226 0
M  V30 474 N 45.8211 -1.22559 -0.990812 0
M  V30 475 C 47.0681 -1.05141 -1.73065 0
M  V30 476 C 47.3961 0.413191 -1.9006 0
M  V30 477 O 46.6511 1.32257 -1.44245 0
M  V30 478 C 46.9501 -1.71011 -3.13831 0
M  V30 479 C 46.6161 -3.20911 -3.16745 0
M  V30 480 C 45.2781 -3.61812 -3.17247 0
M  V30 481 C 47.6301 -4.16846 -3.12872 0
M  V30 482 C 44.9581 -4.97127 -3.1158 0
M  V30 483 C 47.3101 -5.5214 -3.08746 0
M  V30 484 C 45.9741 -5.92419 -3.07565 0
M  V30 485 H 45.2441 -0.384738 -0.633291 0
M  V30 486 H 47.8911 -1.5235 -1.16025 0
M  V30 487 H 46.1961 -1.16133 -3.74193 0
M  V30 488 H 47.8931 -1.55023 -3.69823 0
M  V30 489 H 44.4831 -2.88344 -3.17105 0
M  V30 490 H 48.6671 -3.86263 -3.11632 0
M  V30 491 H 43.9231 -5.27562 -3.09012 0
M  V30 492 H 48.0971 -6.26201 -3.04705 0
M  V30 493 H 45.7241 -6.97236 -3.02929 0
M  V30 494 N 47.2992 1.18797 -1.03562 0
M  V30 495 C 48.2472 2.24297 -0.615905 0
M  V30 496 C 49.2412 1.65643 0.354808 0
M  V30 497 O 50.4472 1.78618 0.22265 0
M  V30 498 H 46.8222 0.729909 -0.180934 0
M  V30 499 H 48.7932 2.5701 -1.5162 0
M  V30 500 C 47.5422 3.47698 0.0104735 0
M  V30 501 H 46.8652 3.93125 -0.727509 0
M  V30 502 H 48.3052 4.23159 0.266995 0
M  V30 503 C 46.7642 3.12489 1.25905 0
M  V30 504 O 47.2942 3.25761 2.35038 0
M  V30 505 N 45.5002 2.6686 1.15039 0
M  V30 506 H 45.0472 2.56261 0.262328 0
M  V30 507 H 45.0052 2.43674 1.98672 0
M  V30 508 N 48.7773 0.814389 1.34928 0
M  V30 509 C 49.6873 0.231978 2.3345 0
M  V30 510 C 50.7033 -0.629139 1.62228 0
M  V30 511 O 51.8793 -0.539052 1.94052 0
M  V30 512 C 48.9443 -0.603482 3.41407 0
M  V30 513 C 48.0053 0.279037 4.28392 0
M  V30 514 C 47.2383 -0.516643 5.31193 0
M  V30 515 O 47.4613 -1.75068 5.4287 0
M  V30 516 O 46.3953 0.0965652 6.01823 0
M  V30 517 H 50.2213 1.04721 2.85074 0
M  V30 518 H 47.8063 0.576343 1.37836 0
M  V30 519 H 49.6883 -1.07908 4.0735 0
M  V30 520 H 48.3633 -1.39618 2.92042 0
M  V30 521 H 47.2703 0.801948 3.65403 0
M  V30 522 H 48.6033 1.03588 4.81176 0
M  V30 523 N 50.2554 -1.46986 0.568584 0
M  V30 524 C 51.4834 -2.0683 0.0539956 0
M  V30 525 C 51.8984 -1.41953 -1.24478 0
M  V30 526 O 51.2554 -0.519933 -1.74937 0
M  V30 527 C 51.3064 -3.61254 -0.133362 0
M  V30 528 O 51.0274 -4.237 1.11399 0
M  V30 529 C 52.5284 -4.37992 -0.683927 0
M  V30 530 H 49.7484 -0.669058 0.0510141 0
M  V30 531 H 52.2924 -1.88824 0.785234 0
M  V30 532 H 50.4474 -3.78735 -0.81477 0
M  V30 533 H 50.8614 -5.16388 0.91888 0
M  V30 534 H 52.3354 -5.46684 -0.764263 0
M  V30 535 H 52.8124 -4.05058 -1.69778 0
M  V30 536 H 53.4184 -4.25283 -0.0378494 0
M  V30 537 N 51.7335 -0.305618 -1.54608 0
M  V30 538 C 52.6965 0.555591 -2.22364 0
M  V30 539 C 53.6965 1.05768 -1.21119 0
M  V30 540 O 54.8865 0.952972 -1.45822 0
M  V30 541 C 52.0185 1.76974 -2.91364 0
M  V30 542 H 53.2115 -0.0364572 -2.99878 0
M  V30 543 H 50.7645 -0.0565007 -1.56198 0
M  V30 544 H 51.4995 2.40151 -2.17941 0
M  V30 545 H 51.2845 1.41732 -3.65588 0
M  V30 546 H 52.7745 2.38148 -3.43038 0
M  V30 547 N 53.2116 1.57565 -0.0334293 0
M  V30 548 C 54.4886 1.83282 0.683163 0
M  V30 549 C 54.8686 0.91823 1.90084 0
M  V30 550 O 54.2166 -0.025113 2.28486 0
M  V30 551 C 54.4266 3.32599 1.0573 0
M  V30 552 C 55.7746 3.99179 1.44711 0
M  V30 553 O 56.7986 3.3712 1.15015 0
M  V30 554 O 55.6576 5.08565 2.0006 0
M  V30 555 H 52.7516 0.755869 0.335546 0
M  V30 556 H 55.2976 1.69589 -0.0614402 0
M  V30 557 H 54.0696 3.90834 0.190828 0
M  V30 558 H 53.6926 3.51415 1.85993 0
M  V30 559 N 54.6897 -0.239769 1.55765 0
M  V30 560 C 55.6197 -1.30052 1.9393 0
M  V30 561 C 56.6007 -1.49839 0.805132 0
M  V30 562 O 57.7857 -1.62328 1.06599 0
M  V30 563 C 54.9157 -2.65391 2.2402 0
M  V30 564 C 53.8697 -2.60289 3.39755 0
M  V30 565 C 53.1957 -3.99489 3.55405 0
M  V30 566 C 54.4957 -2.16654 4.75246 0
M  V30 567 H 56.1897 -0.983573 2.82783 0
M  V30 568 H 53.7357 -0.471701 1.36055 0
M  V30 569 H 55.6887 -3.3974 2.49308 0
M  V30 570 H 54.4127 -2.98736 1.32 0
M  V30 571 H 53.0717 -1.88398 3.14487 0
M  V30 572 H 52.7197 -4.30112 2.60793 0
M  V30 573 H 52.4197 -3.96962 4.33238 0
M  V30 574 H 53.9437 -4.75528 3.83022 0
M  V30 575 H 55.3577 -2.80737 4.99859 0
M  V30 576 H 53.7547 -2.25223 5.56232 0
M  V30 577 H 54.8247 -1.11835 4.71827 0
M  V30 578 N 56.1678 -1.49265 -0.50573 0
M  V30 579 C 57.5788 -1.51769 -1.08734 0
M  V30 580 C 57.9298 -0.301192 -1.93874 0
M  V30 581 O 57.0548 0.589456 -2.08217 0
M  V30 582 C 57.6498 -2.75017 -1.97867 0
M  V30 583 C 56.2088 -2.80314 -2.51199 0
M  V30 584 C 55.3558 -2.4562 -1.28709 0
M  V30 585 H 58.3068 -1.56031 -0.289855 0
M  V30 586 H 58.3278 -2.5491 -2.82491 0
M  V30 587 H 57.8398 -3.63539 -1.35873 0
M  V30 588 H 55.9408 -1.96061 -3.16845 0
M  V30 589 H 56.0538 -3.82366 -2.88675 0
M  V30 590 H 54.4178 -1.97297 -1.61078 0
M  V30 591 H 55.2008 -3.36411 -0.6843 0
M  V30 592 N 57.6459 0.756429 -1.3826 0
M  V30 593 C 58.8859 1.52833 -1.35725 0
M  V30 594 C 59.2499 1.91926 0.0534106 0
M  V30 595 O 60.4509 2.68028 0.203613 0
M  V30 596 C 58.7219 2.74919 -2.28373 0
M  V30 597 S 60.2809 3.64817 -2.43832 0
M  V30 598 H 57.0989 0.523043 -0.481608 0
M  V30 599 H 59.7009 0.888212 -1.74158 0
M  V30 600 H 58.4049 2.44304 -3.29763 0
M  V30 601 H 57.9359 3.43878 -1.91079 0
M  V30 602 H 59.9509 4.676 -1.66027 0
M  V30 603 N 59.124 1.23083 0.984299 0
M  V30 604 C 60.056 0.96636 2.07832 0
M  V30 605 C 61.069 -0.0582135 1.62696 0
M  V30 606 O 62.258 0.176843 1.77622 0
M  V30 607 C 59.358 0.433397 3.36117 0
M  V30 608 C 58.531 1.51722 4.10243 0
M  V30 609 C 57.59 0.989821 5.16807 0
M  V30 610 O 56.616 1.67794 5.43906 0
M  V30 611 N 57.818 -0.184367 5.80207 0
M  V30 612 H 60.583 1.90824 2.31098 0
M  V30 613 H 58.144 1.13888 1.1507 0
M  V30 614 H 60.136 0.065699 4.04647 0
M  V30 615 H 58.706 -0.413806 3.09849 0
M  V30 616 H 57.926 2.05786 3.36223 0
M  V30 617 H 59.214 2.24619 4.56534 0
M  V30 618 H 58.612 -0.760062 5.60571 0
M  V30 619 H 57.169 -0.493366 6.4993 0
M  V30 620 N 60.6021 -1.18246 1.0419 0
M  V30 621 C 61.8491 -1.88257 0.746017 0
M  V30 622 C 62.1771 -1.80429 -0.726331 0
M  V30 623 O 61.4321 -1.2 -1.54591 0
M  V30 624 C 61.7311 -3.38082 1.15911 0
M  V30 625 C 61.3971 -3.66114 2.63195 0
M  V30 626 C 60.0591 -3.73474 3.03432 0
M  V30 627 C 62.4111 -3.78398 3.5842 0
M  V30 628 C 59.7391 -3.90599 4.37778 0
M  V30 629 C 62.0911 -3.97039 4.92487 0
M  V30 630 C 60.7551 -4.02635 5.32392 0
M  V30 631 H 60.0251 -0.688883 0.272987 0
M  V30 632 H 62.6721 -1.3995 1.30715 0
M  V30 633 H 60.9771 -3.88377 0.516806 0
M  V30 634 H 62.6741 -3.90596 0.907516 0
M  V30 635 H 59.2641 -3.61003 2.3103 0
M  V30 636 H 63.4481 -3.72042 3.28479 0
M  V30 637 H 58.7041 -3.93175 4.68213 0
M  V30 638 H 62.8781 -4.05486 5.66175 0
M  V30 639 H 60.5051 -4.15657 6.36501 0
M  V30 640 N 62.0802 -0.821533 -1.34494 0
M  V30 641 C 63.0432 -0.247847 -2.27856 0
M  V30 642 C 64.0432 0.573453 -1.50227 0
M  V30 643 O 65.2332 0.389759 -1.69784 0
M  V30 644 C 62.3652 0.652698 -3.34593 0
M  V30 645 H 63.5582 -1.07146 -2.80107 0
M  V30 646 H 61.1112 -0.593291 -1.44602 0
M  V30 647 H 61.8462 1.49943 -2.87555 0
M  V30 648 H 61.6312 0.065292 -3.92046 0
M  V30 649 H 63.1212 1.04793 -4.04238 0
M  V30 650 N 63.5583 1.46682 -0.576371 0
M  V30 651 C 64.5063 2.31953 0.17335 0
M  V30 652 C 65.5003 1.44098 0.89062 0
M  V30 653 O 66.7063 1.60759 0.809728 0
M  V30 654 H 63.0813 0.748273 0.0747727 0
M  V30 655 H 65.0523 2.93007 -0.564738 0
M  V30 656 C 63.8013 3.27142 1.17786 0
M  V30 657 H 63.1243 3.94719 0.635361 0
M  V30 658 H 64.5643 3.896 1.67296 0
M  V30 659 C 63.0233 2.52036 2.23561 0
M  V30 660 O 63.5533 2.27877 3.3081 0
M  V30 661 N 61.7593 2.12709 1.97998 0
M  V30 662 H 61.3063 2.32557 1.10792 0
M  V30 663 H 61.2643 1.62776 2.68982 0
M  V30 664 N 65.0364 0.313813 1.54444 0
M  V30 665 C 66.2614 -0.296681 2.05267 0
M  V30 666 C 66.6864 -1.45757 1.18897 0
M  V30 667 O 66.0444 -1.80239 0.195886 0
M  V30 668 C 66.0924 -0.71831 3.53373 0
M  V30 669 O 65.1964 -1.82175 3.69981 0
M  V30 670 H 64.5374 -0.0554061 0.661684 0
M  V30 671 H 67.0674 0.459387 1.99376 0
M  V30 672 H 67.0774 -1.00364 3.95463 0
M  V30 673 H 65.7524 0.130821 4.15694 0
M  V30 674 H 64.3294 -1.53598 3.39797 0
M  V30 675 N 66.5145 -1.57545 0.0417849 0
M  V30 676 C 67.4465 -2.07904 -0.964799 0
M  V30 677 C 68.4595 -1.00497 -1.28079 0
M  V30 678 O 69.6485 -1.28087 -1.24322 0
M  V30 679 C 66.7485 -2.49928 -2.28887 0
M  V30 680 C 65.9215 -3.80562 -2.15619 0
M  V30 681 C 64.9805 -4.08999 -3.31069 0
M  V30 682 O 64.0065 -4.79061 -3.0739 0
M  V30 683 N 65.2085 -3.6017 -4.55256 0
M  V30 684 H 67.9735 -2.94886 -0.535029 0
M  V30 685 H 65.5345 -1.61252 -0.144681 0
M  V30 686 H 67.5265 -2.66034 -3.04972 0
M  V30 687 H 66.0965 -1.68245 -2.63463 0
M  V30 688 H 65.3165 -3.74129 -1.24183 0
M  V30 689 H 66.6045 -4.66126 -2.03971 0
M  V30 690 H 66.0025 -3.03512 -4.77386 0
M  V30 691 H 64.5595 -3.81532 -5.28466 0
M  V30 692 N 67.9926 0.231505 -1.5589 0
M  V30 693 C 68.9406 1.30649 -1.92441 0
M  V30 694 C 69.9346 1.49037 -0.805254 0
M  V30 695 O 71.1406 1.50329 -0.990007 0
M  V30 696 H 67.5156 0.437812 -0.611412 0
M  V30 697 H 69.4866 0.970973 -2.82161 0
M  V30 698 C 68.2356 2.65179 -2.24889 0
M  V30 699 H 67.5586 2.51835 -3.10514 0
M  V30 700 H 68.9986 3.39234 -2.54355 0
M  V30 701 C 67.4576 3.19439 -1.07054 0
M  V30 702 O 67.9876 4.00371 -0.326499 0
M  V30 703 N 66.1936 2.77675 -0.85703 0
M  V30 704 H 65.7406 2.11969 -1.46379 0
M  V30 705 H 65.6986 3.14321 -0.0703223 0
M  V30 706 N 69.4707 1.49531 0.497807 0
M  V30 707 C 70.4027 1.62559 1.61578 0
M  V30 708 C 71.4157 0.508134 1.54667 0
M  V30 709 O 72.6047 0.780309 1.60541 0
M  V30 710 C 69.7047 1.56925 3.00379 0
M  V30 711 C 68.8777 2.84257 3.3244 0
M  V30 712 C 67.9367 2.71632 4.50669 0
M  V30 713 O 66.9627 3.4557 4.52294 0
M  V30 714 N 68.1647 1.83391 5.5077 0
M  V30 715 H 70.9297 2.58981 1.50828 0
M  V30 716 H 68.4907 1.4666 0.685743 0
M  V30 717 H 70.4827 1.46129 3.77397 0
M  V30 718 H 69.0527 0.683483 3.05037 0
M  V30 719 H 68.2727 3.09381 2.44289 0
M  V30 720 H 69.5607 3.68666 3.5066 0
M  V30 721 H 68.9587 1.22583 5.52259 0
M  V30 722 H 67.5157 1.78515 6.26878 0
M  V30 723 N 70.9488 -0.749086 1.3866 0
M  V30 724 C 72.1738 -1.54344 1.38538 0
M  V30 725 C 72.5988 -1.88088 -0.0216655 0
M  V30 726 O 71.9568 -1.50899 -1.00494 0
M  V30 727 C 72.0048 -2.8164 2.25192 0
M  V30 728 O 71.1088 -3.7698 1.67212 0
M  V30 729 H 70.4498 -0.466654 0.472367 0
M  V30 730 H 72.9798 -0.925355 1.82478 0
M  V30 731 H 72.9898 -3.30519 2.3921 0
M  V30 732 H 71.6648 -2.56411 3.27454 0
M  V30 733 H 70.2418 -3.35699 1.6236 0
M  V30 734 N 72.4269 -1.23603 -0.977757 0
M  V30 735 C 73.3569 -1.04401 -2.0886 0
M  V30 736 C 74.3379 0.0399052 -1.70053 0
M  V30 737 O 75.5229 -0.125246 -1.93796 0
M  V30 738 C 72.6529 -0.637269 -3.41403 0
M  V30 739 C 71.6069 -1.66883 -3.94124 0
M  V30 740 C 70.9329 -1.11745 -5.22893 0
M  V30 741 C 72.2329 -3.06247 -4.23096 0
M  V30 742 H 73.9269 -1.97316 -2.25182 0
M  V30 743 H 71.4729 -0.950096 -1.08209 0
M  V30 744 H 73.4259 -0.48998 -4.18542 0
M  V30 745 H 72.1499 0.327557 -3.24953 0
M  V30 746 H 70.8089 -1.80416 -3.19133 0
M  V30 747 H 70.4569 -0.143527 -5.02795 0
M  V30 748 H 70.1569 -1.80672 -5.59134 0
M  V30 749 H 71.6809 -0.982067 -6.02651 0
M  V30 750 H 73.0949 -2.96001 -4.90975 0
M  V30 751 H 71.4919 -3.72436 -4.70544 0
M  V30 752 H 72.5619 -3.55041 -3.30263 0
M  V30 753 N 73.905 1.17692 -1.04816 0
M  V30 754 C 75.13 1.92327 -0.776207 0
M  V30 755 C 75.555 1.76082 0.661581 0
M  V30 756 O 74.913 1.076 1.45917 0
M  V30 757 C 74.961 3.41539 -1.15687 0
M  V30 758 O 74.065 4.11402 -0.286775 0
M  V30 759 H 73.406 0.599735 -0.284981 0
M  V30 760 H 75.936 1.49201 -1.4 0
M  V30 761 H 75.946 3.92269 -1.12202 0
M  V30 762 H 74.621 3.52684 -2.20425 0
M  V30 763 H 73.198 3.70939 -0.381903 0
M  V30 764 N 75.3831 0.828654 1.34056 0
M  V30 765 C 76.2931 0.256725 2.33191 0
M  V30 766 C 77.3091 -0.611898 1.62886 0
M  V30 767 O 78.4851 -0.51844 1.94613 0
M  V30 768 C 75.5501 -0.567238 3.42028 0
M  V30 769 C 74.6111 0.324458 4.28072 0
M  V30 770 C 73.8441 -0.460274 5.31712 0
M  V30 771 O 74.0671 -1.693 5.44696 0
M  V30 772 O 73.0011 0.160391 6.01686 0
M  V30 773 H 76.8271 1.07739 2.83947 0
M  V30 774 H 74.4121 0.59093 1.37217 0
M  V30 775 H 76.2941 -1.03582 4.08471 0
M  V30 776 H 74.9691 -1.36513 2.93506 0
M  V30 777 H 73.8761 0.840659 3.64532 0
M  V30 778 H 75.2091 1.08685 4.8005 0
M  V30 779 N 76.8612 -1.46375 0.584142 0
M  V30 780 C 77.7912 -2.33103 -0.136037 0
M  V30 781 C 78.7722 -1.45431 -0.882255 0
M  V30 782 O 79.9572 -1.74246 -0.857434 0
M  V30 783 C 77.0872 -3.27731 -1.14933 0
M  V30 784 C 76.0412 -4.24855 -0.517862 0
M  V30 785 C 75.3672 -5.09001 -1.63773 0
M  V30 786 C 76.6672 -5.19439 0.545886 0
M  V30 787 H 78.3612 -2.93568 0.588086 0
M  V30 788 H 75.9072 -1.41166 0.284259 0
M  V30 789 H 77.8602 -3.87261 -1.66153 0
M  V30 790 H 76.5842 -2.65377 -1.90375 0
M  V30 791 H 75.2432 -3.6659 -0.0267361 0
M  V30 792 H 74.8912 -4.43031 -2.38185 0
M  V30 793 H 74.5912 -5.74777 -1.22085 0
M  V30 794 H 76.1152 -5.71396 -2.15266 0
M  V30 795 H 77.5292 -5.73177 0.118704 0
M  V30 796 H 75.9262 -5.93566 0.88317 0
M  V30 797 H 76.9962 -4.63285 1.43162 0
M  V30 798 N 78.3393 -0.321999 -1.54275 0
M  V30 799 C 79.5853 0.281461 -2.00837 0
M  V30 800 C 79.9183 1.51909 -1.20985 0
M  V30 801 O 79.1933 1.923 -0.291733 0
M  V30 802 C 79.4763 0.617162 -3.54772 0
M  V30 803 C 79.3293 -0.631064 -4.45351 0
M  V30 804 C 80.6483 1.43542 -4.16033 0
M  V30 805 H 77.7673 0.100826 -0.730071 0
M  V30 806 H 80.4093 -0.438268 -1.84876 0
M  V30 807 H 78.5593 1.23034 -3.68504 0
M  V30 808 H 80.2313 -1.26934 -4.43492 0
M  V30 809 H 78.4743 -1.26025 -4.15091 0
M  V30 810 H 79.1453 -0.351735 -5.50878 0
M  V30 811 H 81.6213 0.917134 -4.05867 0
M  V30 812 H 80.4973 1.63907 -5.23856 0
M  V30 813 H 80.7583 2.43108 -3.69257 0
M  V30 814 N 79.8174 1.5752 -0.0501392 0
M  V30 815 C 81.0634 1.92936 0.624798 0
M  V30 816 C 81.3964 0.928685 1.70555 0
M  V30 817 O 80.6714 -0.0454779 1.94447 0
M  V30 818 C 80.9544 3.38737 1.22185 0
M  V30 819 C 80.8074 4.49552 0.149218 0
M  V30 820 C 82.1264 3.84913 2.13378 0
M  V30 821 H 79.2454 0.701604 0.225657 0
M  V30 822 H 81.8874 1.89671 -0.111693 0
M  V30 823 H 80.0374 3.4165 1.84953 0
M  V30 824 H 81.7094 4.58768 -0.482648 0
M  V30 825 H 79.9524 4.30638 -0.522841 0
M  V30 826 H 80.6234 5.48653 0.606966 0
M  V30 827 H 83.0994 3.8387 1.60572 0
M  V30 828 H 81.9754 4.87584 2.52097 0
M  V30 829 H 82.2364 3.21611 3.03346 0
M  V30 830 N 81.2955 -0.223234 1.56011 0
M  V30 831 C 82.5425 -0.947875 1.78946 0
M  V30 832 C 82.8705 -1.844 0.618608 0
M  V30 833 O 82.1255 -1.91629 -0.397093 0
M  V30 834 C 82.4245 -1.81948 3.0762 0
M  V30 835 C 82.0905 -1.07672 4.37856 0
M  V30 836 C 80.7525 -0.871544 4.73242 0
M  V30 837 C 83.1045 -0.552081 5.18268 0
M  V30 838 C 80.4325 -0.129791 5.86556 0
M  V30 839 C 82.7845 0.17632 6.32354 0
M  V30 840 C 81.4485 0.39277 6.66343 0
M  V30 841 H 80.7185 -0.346852 0.654809 0
M  V30 842 H 83.3655 -0.216171 1.90276 0
M  V30 843 H 81.6705 -2.61899 2.91404 0
M  V30 844 H 83.3675 -2.38227 3.22566 0
M  V30 845 H 79.9575 -1.24662 4.1007 0
M  V30 846 H 84.1415 -0.698076 4.91366 0
M  V30 847 H 79.3975 0.048153 6.11381 0
M  V30 848 H 83.5715 0.590367 6.93893 0
M  V30 849 H 81.1985 0.969466 7.53993 0
M  V30 850 N 82.7736 -1.49793 -0.48987 0
M  V30 851 C 84.0196 -1.61049 -1.24236 0
M  V30 852 C 84.3746 -0.298412 -1.90072 0
M  V30 853 O 83.6676 0.702262 -1.78266 0
M  V30 854 C 83.8616 -2.71488 -2.32441 0
M  V30 855 C 83.6906 -4.13308 -1.77218 0
M  V30 856 C 82.4606 -4.79955 -1.58023 0
M  V30 857 C 84.6586 -4.98176 -1.27772 0
M  V30 858 N 82.6406 -6.06052 -0.978465 0
M  V30 859 C 84.0116 -6.14843 -0.798 0
M  V30 860 C 86.0666 -4.84091 -1.16449 0
M  V30 861 C 84.7696 -7.18975 -0.216245 0
M  V30 862 C 86.7956 -5.88382 -0.596698 0
M  V30 863 C 86.1576 -7.04285 -0.127262 0
M  V30 864 H 82.2566 -0.643611 -0.444172 0
M  V30 865 H 84.8406 -1.86842 -0.54754 0
M  V30 866 H 83.0116 -2.47449 -2.99372 0
M  V30 867 H 84.7436 -2.72205 -2.99477 0
M  V30 868 H 81.4986 -4.36936 -1.82712 0
M  V30 869 H 81.9226 -6.73407 -0.696534 0
M  V30 870 H 86.5646 -3.94786 -1.5134 0
M  V30 871 H 84.2826 -8.0797 0.144903 0
M  V30 872 H 87.8686 -5.79545 -0.511716 0
M  V30 873 H 86.7486 -7.83606 0.30523 0
M  V30 874 N 84.2517 0.741722 -1.39055 0
M  V30 875 C 85.1837 1.8657 -1.33133 0
M  V30 876 C 86.1967 1.61001 -0.241329 0
M  V30 877 O 87.3857 1.7136 -0.499784 0
M  V30 878 C 84.4857 3.22457 -1.04283 0
M  V30 879 C 83.6587 3.75435 -2.24427 0
M  V30 880 C 82.7177 4.89867 -1.92138 0
M  V30 881 O 81.7437 5.03879 -2.64754 0
M  V30 882 N 82.9457 5.73738 -0.88347 0
M  V30 883 H 85.7107 1.92156 -2.29991 0
M  V30 884 H 83.2717 0.922172 -1.3307 0
M  V30 885 H 85.2637 3.9657 -0.807128 0
M  V30 886 H 83.8337 3.12181 -0.161807 0
M  V30 887 H 83.0537 2.92751 -2.6399 0
M  V30 888 H 84.3417 4.07563 -3.04581 0
M  V30 889 H 83.7397 5.64999 -0.281517 0
M  V30 890 H 82.2967 6.47947 -0.707662 0
M  V30 891 N 85.7298 1.2412 0.971189 0
M  V30 892 C 87.0068 0.986867 1.6888 0
M  V30 893 C 87.3868 -0.491857 2.0529 0
M  V30 894 O 86.7348 -1.46531 1.75331 0
M  V30 895 C 86.9448 1.9063 2.92338 0
M  V30 896 C 88.2928 2.17515 3.64654 0
M  V30 897 O 89.3168 1.88254 3.02388 0
M  V30 898 O 88.1758 2.6719 4.7673 0
M  V30 899 H 85.2698 0.372944 0.738134 0
M  V30 900 H 87.8158 1.35203 1.02559 0
M  V30 901 H 86.5878 2.90552 2.62097 0
M  V30 902 H 86.2108 1.54408 3.66393 0
M  V30 903 N 87.2079 -1.17134 1.05439 0
M  V30 904 C 88.1399 -2.2078 0.615539 0
M  V30 905 C 89.1529 -1.59584 -0.322001 0
M  V30 906 O 90.3419 -1.78133 -0.114344 0
M  V30 907 C 87.4419 -3.38691 -0.118938 0
M  V30 908 C 86.6149 -4.29454 0.829924 0
M  V30 909 C 85.6739 -5.26024 0.136258 0
M  V30 910 O 84.6999 -5.63952 0.77115 0
M  V30 911 N 85.9019 -5.69487 -1.1254 0
M  V30 912 H 88.6669 -2.59052 1.50705 0
M  V30 913 H 86.2279 -1.32058 0.936603 0
M  V30 914 H 88.2199 -4.00329 -0.593179 0
M  V30 915 H 86.7899 -2.98996 -0.91215 0
M  V30 916 H 86.0099 -3.65211 1.48373 0
M  V30 917 H 87.2979 -4.86984 1.47392 0
M  V30 918 H 86.6959 -5.4075 -1.6615 0
M  V30 919 H 85.2529 -6.33257 -1.54366 0
M  V30 920 N 88.686 -0.835752 -1.33615 0
M  V30 921 C 89.596 -0.269088 -2.33052 0
M  V30 922 C 90.612 0.603251 -1.63208 0
M  V30 923 O 91.788 0.508112 -1.94885 0
M  V30 924 C 88.853 0.549091 -3.42324 0
M  V30 925 C 87.914 -0.347156 -4.27894 0
M  V30 926 C 87.147 0.43207 -5.31948 0
M  V30 927 O 87.37 1.66409 -5.45586 0
M  V30 928 O 86.304 -0.192298 -6.01593 0
M  V30 929 H 90.13 -1.09243 -2.83372 0
M  V30 930 H 87.715 -0.598198 -1.36901 0
M  V30 931 H 89.597 1.01414 -4.09015 0
M  V30 932 H 88.272 1.34955 -2.94226 0
M  V30 933 H 87.179 -0.859979 -3.64081 0
M  V30 934 H 88.512 -1.1123 -4.79467 0
M  V30 935 N 90.1641 1.46063 -0.591896 0
M  V30 936 C 91.1121 2.32124 0.148739 0
M  V30 937 C 92.1061 1.45035 0.875286 0
M  V30 938 O 93.3121 1.61609 0.792632 0
M  V30 939 H 89.6871 0.749024 0.066832 0
M  V30 940 H 91.6581 2.92392 -0.595783 0
M  V30 941 C 90.4071 3.28373 1.1431 0
M  V30 942 H 89.7301 3.95371 0.59346 0
M  V30 943 H 91.1701 3.91352 1.63155 0
M  V30 944 C 89.6291 2.54393 2.20875 0
M  V30 945 O 90.1591 2.31373 3.28374 0
M  V30 946 N 88.3651 2.14797 1.95731 0
M  V30 947 H 87.9121 2.33719 1.08319 0
M  V30 948 H 87.8701 1.65619 2.67241 0
M  V30 949 N 91.6422 0.330177 1.54103 0
M  V30 950 C 92.5722 -0.525353 2.27513 0
M  V30 951 C 93.5532 -1.11383 1.2856 0
M  V30 952 O 94.7382 -1.13773 1.57383 0
M  V30 953 C 91.8682 -1.6831 3.03791 0
M  V30 954 C 90.8222 -1.2236 4.10137 0
M  V30 955 C 90.1482 -2.46882 4.74293 0
M  V30 956 C 91.4482 -0.333697 5.21233 0
M  V30 957 H 93.1422 0.087013 2.99274 0
M  V30 958 H 90.6882 0.0432893 1.43935 0
M  V30 959 H 92.6412 -2.28795 3.5388 0
M  V30 960 H 91.3652 -2.32216 2.29659 0
M  V30 961 H 90.0242 -0.64165 3.60941 0
M  V30 962 H 89.6722 -3.09165 3.96769 0
M  V30 963 H 89.3722 -2.16825 5.46133 0
M  V30 964 H 90.8962 -3.08117 5.27159 0
M  V30 965 H 92.3102 -0.845013 5.67038 0
M  V30 966 H 90.7072 -0.125612 5.99969 0
M  V30 967 H 91.7772 0.633724 4.80741 0
M  V30 968 N 93.1203 -1.57491 0.0584922 0
M  V30 969 C 94.3663 -1.93264 -0.614558 0
M  V30 970 C 94.6993 -0.937717 -1.7006 0
M  V30 971 O 93.9743 0.0351652 -1.94468 0
M  V30 972 C 94.2573 -3.3938 -1.20386 0
M  V30 973 C 94.1103 -4.49625 -0.125375 0
M  V30 974 C 95.4293 -3.86039 -2.11334 0
M  V30 975 H 92.5483 -0.702791 -0.221933 0
M  V30 976 H 95.1903 -1.8961 0.12175 0
M  V30 977 H 93.3403 -3.42626 -1.83139 0
M  V30 978 H 95.0123 -4.58506 0.506971 0
M  V30 979 H 93.2553 -4.30354 0.545672 0
M  V30 980 H 93.9263 -5.48967 -0.577861 0
M  V30 981 H 96.4023 -3.84716 -1.58534 0
M  V30 982 H 95.2783 -4.88914 -2.49507 0
M  V30 983 H 95.5393 -3.23215 -3.01636 0
M  V30 984 N 94.5984 0.214957 -1.56127 0
M  V30 985 C 95.5284 1.2695 -1.95974 0
M  V30 986 C 96.5094 1.48539 -0.828868 0
M  V30 987 O 97.6944 1.60611 -1.09168 0
M  V30 988 C 94.8244 2.61794 -2.28214 0
M  V30 989 C 93.7784 2.54851 -3.43853 0
M  V30 990 C 93.1044 3.93785 -3.61715 0
M  V30 991 C 94.4044 2.09065 -4.78632 0
M  V30 992 H 96.0984 0.93846 -2.84312 0
M  V30 993 H 93.6444 0.449996 -1.36788 0
M  V30 994 H 95.5974 3.35731 -2.54682 0
M  V30 995 H 94.3214 2.96599 -1.36736 0
M  V30 996 H 92.9804 1.8337 -3.17444 0
M  V30 997 H 92.6284 4.25908 -2.67602 0
M  V30 998 H 92.3284 3.90019 -4.39498 0
M  V30 999 H 93.8524 4.69374 -3.90539 0
M  V30 1000 H 95.2664 2.7275 -5.04262 0
M  V30 1001 H 93.6634 2.16346 -5.59745 0
M  V30 1002 H 94.7334 1.04315 -4.73547 0
M  V30 1003 N 96.0765 1.50051 0.48192 0
M  V30 1004 C 97.0245 1.68635 1.60203 0
M  V30 1005 C 98.0185 0.552184 1.60148 0
M  V30 1006 O 99.2245 0.732377 1.64427 0
M  V30 1007 H 95.5995 0.532081 0.531407 0
M  V30 1008 H 97.5705 2.62616 1.41688 0
M  V30 1009 C 96.3195 1.78775 2.9822 0
M  V30 1010 H 95.6425 2.6543 2.98976 0
M  V30 1011 H 97.0825 1.95806 3.7608 0
M  V30 1012 C 95.5415 0.536849 3.32595 0
M  V30 1013 O 96.0715 -0.328897 4.00351 0
M  V30 1014 N 94.2775 0.394091 2.87915 0
M  V30 1015 H 93.8245 1.09962 2.32951 0
M  V30 1016 H 93.7825 -0.441737 3.11281 0
M  V30 1017 N 97.5546 -0.734337 1.39446 0
M  V30 1018 C 98.4646 -1.87879 1.40495 0
M  V30 1019 C 99.4806 -1.714 0.299672 0
M  V30 1020 O 100.657 -1.93991 0.541249 0
M  V30 1021 C 97.7216 -3.23477 1.24754 0
M  V30 1022 C 96.7826 -3.52344 2.45259 0
M  V30 1023 C 96.0156 -4.81473 2.30259 0
M  V30 1024 O 96.2386 -5.55237 1.30643 0
M  V30 1025 O 95.1726 -5.10254 3.19256 0
M  V30 1026 H 98.9986 -1.89949 2.36966 0
M  V30 1027 H 96.5836 -0.882243 1.20569 0
M  V30 1028 H 98.4656 -4.04509 1.18111 0
M  V30 1029 H 97.1406 -3.22176 0.313781 0
M  V30 1030 H 96.0476 -2.71396 2.57478 0
M  V30 1031 H 97.3806 -3.58426 3.37331 0
M  V30 1032 N 99.0327 -1.24633 -0.964593 0
M  V30 1033 C 100.279 -1.08949 -1.71049 0
M  V30 1034 C 100.612 0.370302 -1.90637 0
M  V30 1035 O 99.8867 1.27349 -1.47011 0
M  V30 1036 C 100.17 -1.83329 -3.0994 0
M  V30 1037 C 100.023 -3.37077 -2.97824 0
M  V30 1038 C 101.342 -1.60846 -4.09654 0
M  V30 1039 H 98.4607 -0.397178 -0.620821 0
M  V30 1040 H 101.103 -1.5334 -1.12191 0
M  V30 1041 H 99.2527 -1.45597 -3.60186 0
M  V30 1042 H 100.925 -3.84425 -2.5498 0
M  V30 1043 H 99.1677 -3.65298 -2.33965 0
M  V30 1044 H 99.8387 -3.84324 -3.96231 0
M  V30 1045 H 102.315 -1.93674 -3.68279 0
M  V30 1046 H 101.191 -2.1534 -5.04896 0
M  V30 1047 H 101.452 -0.547434 -4.38698 0
M  V30 1048 N 100.511 1.16574 -1.06058 0
M  V30 1049 C 101.741 1.90675 -0.795397 0
M  V30 1050 C 102.149 1.77547 0.653735 0
M  V30 1051 O 101.492 1.11611 1.45907 0
M  V30 1052 C 101.554 3.42011 -1.10764 0
M  V30 1053 C 101.218 3.78924 -2.55471 0
M  V30 1054 C 102.215 3.81042 -3.53699 0
M  V30 1055 C 99.8998 4.09626 -2.90708 0
M  V30 1056 C 101.894 4.13346 -4.85205 0
M  V30 1057 C 99.5808 4.41597 -4.22416 0
M  V30 1058 C 100.579 4.43436 -5.19474 0
M  V30 1059 O 100.267 4.74649 -6.48817 0
M  V30 1060 H 99.9988 0.611554 -0.288058 0
M  V30 1061 H 102.553 1.48711 -1.41683 0
M  V30 1062 H 100.783 3.84312 -0.429128 0
M  V30 1063 H 102.472 3.97384 -0.827077 0
M  V30 1064 H 103.238 3.57437 -3.27817 0
M  V30 1065 H 99.1168 4.07361 -2.15819 0
M  V30 1066 H 102.661 4.14696 -5.60957 0
M  V30 1067 H 98.5578 4.64667 -4.48056 0
M  V30 1068 H 99.3258 4.9247 -6.5377 0
M  V30 1069 N 101.989 0.842826 1.3317 0
M  V30 1070 C 102.919 0.294028 2.31641 0
M  V30 1071 C 103.9 -0.600401 1.59151 0
M  V30 1072 O 105.085 -0.523124 1.87022 0
M  V30 1073 C 102.215 -0.528416 3.43257 0
M  V30 1074 C 101.169 0.27056 4.27144 0
M  V30 1075 C 100.495 -0.675881 5.30411 0
M  V30 1076 C 101.795 1.48981 5.00602 0
M  V30 1077 H 103.489 1.11681 2.77791 0
M  V30 1078 H 101.035 0.538478 1.33553 0
M  V30 1079 H 102.988 -0.922674 4.11175 0
M  V30 1080 H 101.712 -1.38445 2.95805 0
M  V30 1081 H 100.371 0.646427 3.60856 0
M  V30 1082 H 100.019 -1.52842 4.79216 0
M  V30 1083 H 99.7189 -0.145374 5.8742 0
M  V30 1084 H 101.243 -1.06757 6.01195 0
M  V30 1085 H 102.657 1.16849 5.61266 0
M  V30 1086 H 101.054 1.95739 5.6728 0
M  V30 1087 H 102.124 2.25746 4.29147 0
M  V30 1088 N 103.467 -1.45747 0.599634 0
M  V30 1089 C 104.715 -2.01893 0.0915472 0
M  V30 1090 C 105.036 -1.47155 -1.27946 0
M  V30 1091 O 104.306 -0.66273 -1.84349 0
M  V30 1092 H 102.886 -0.746363 0.0308524 0
M  V30 1093 H 105.548 -1.78645 0.779237 0
M  V30 1094 H 104.644 -3.1208 0.0353086 0
M  V30 1095 N 104.945 -0.338344 -1.53925 0
M  V30 1096 C 105.892 0.520845 -2.24846 0
M  V30 1097 C 106.862 1.09976 -1.24477 0
M  V30 1098 O 108.047 1.13735 -1.53196 0
M  V30 1099 C 105.187 1.6685 -3.02084 0
M  V30 1100 C 104.3 1.11739 -4.17299 0
M  V30 1101 C 103.435 2.23193 -4.82036 0
M  V30 1102 C 102.474 1.65407 -5.89328 0
M  V30 1103 N 101.611 2.70582 -6.47866 0
M  V30 1104 H 106.451 -0.0904881 -2.97863 0
M  V30 1105 H 103.988 -0.0564282 -1.46992 0
M  V30 1106 H 105.946 2.34407 -3.45122 0
M  V30 1107 H 104.576 2.2509 -2.31375 0
M  V30 1108 H 103.628 0.332919 -3.7894 0
M  V30 1109 H 104.94 0.654677 -4.94485 0
M  V30 1110 H 104.094 2.98626 -5.28117 0
M  V30 1111 H 102.833 2.72807 -4.04262 0
M  V30 1112 H 101.838 0.884779 -5.42634 0
M  V30 1113 H 103.063 1.16652 -6.69006 0
M  V30 1114 H 101.009 3.1946 -5.72959 0
M  V30 1115 H 100.926 2.28917 -7.20509 0
M  V30 1116 H 102.194 3.45799 -6.98601 0
M  V30 1117 N 106.423 1.57458 -0.0668435 0
M  V30 1118 C 107.333 2.15937 0.916975 0
M  V30 1119 C 108.349 1.12123 1.33058 0
M  V30 1120 O 109.525 1.44366 1.40429 0
M  V30 1121 C 106.59 2.70547 2.16807 0
M  V30 1122 C 105.651 3.89215 1.81135 0
M  V30 1123 C 104.884 4.41211 3.0028 0
M  V30 1124 O 105.107 3.92225 4.14144 0
M  V30 1125 O 104.041 5.32605 2.80384 0
M  V30 1126 H 107.867 3.00354 0.449561 0
M  V30 1127 H 105.452 1.48584 0.155949 0
M  V30 1128 H 107.334 3.0557 2.90181 0
M  V30 1129 H 106.009 1.89192 2.62656 0
M  V30 1130 H 104.916 3.59054 1.05028 0
M  V30 1131 H 106.249 4.71848 1.40073 0
M  V30 1132 N 107.901 -0.206675 1.56239 0
M  V30 1133 C 108.848 -1.25617 1.93621 0
M  V30 1134 C 109.818 -1.45824 0.795274 0
M  V30 1135 O 111.003 -1.59148 1.05245 0
M  V30 1136 C 108.143 -2.59839 2.27107 0
M  V30 1137 C 107.256 -2.47308 3.54207 0
M  V30 1138 C 106.391 -3.74155 3.7707 0
M  V30 1139 C 105.43 -3.56407 4.97635 0
M  V30 1140 N 104.567 -4.75238 5.1681 0
M  V30 1141 H 109.407 -0.930383 2.83104 0
M  V30 1142 H 106.944 -0.448065 1.4011 0
M  V30 1143 H 108.902 -3.38021 2.44535 0
M  V30 1144 H 107.532 -2.90485 1.40778 0
M  V30 1145 H 106.584 -1.60483 3.4489 0
M  V30 1146 H 107.896 -2.30122 4.42544 0
M  V30 1147 H 107.05 -4.60778 3.94675 0
M  V30 1148 H 105.789 -3.94282 2.87042 0
M  V30 1149 H 104.794 -2.68168 4.79964 0
M  V30 1150 H 106.019 -3.37736 5.89161 0
M  V30 1151 H 103.965 -4.95651 4.29728 0
M  V30 1152 H 103.882 -4.60835 5.99306 0
M  V30 1153 H 105.15 -5.63246 5.38864 0
M  V30 1154 N 109.379 -1.50304 -0.473955 0
M  V30 1155 C 110.626 -1.6115 -1.22625 0
M  V30 1156 C 110.954 -0.310517 -1.92005 0
M  V30 1157 O 110.209 0.703419 -1.82621 0
M  V30 1158 C 110.508 -2.73938 -2.29549 0
M  V30 1159 C 110.174 -4.14519 -1.7744 0
M  V30 1160 C 108.836 -4.5277 -1.62949 0
M  V30 1161 C 111.188 -5.02392 -1.3875 0
M  V30 1162 C 108.516 -5.76639 -1.08187 0
M  V30 1163 C 110.868 -6.26805 -0.854309 0
M  V30 1164 C 109.532 -6.63861 -0.696011 0
M  V30 1165 H 108.802 -0.589691 -0.448715 0
M  V30 1166 H 111.449 -1.84228 -0.522705 0
M  V30 1167 H 109.754 -2.44937 -3.05799 0
M  V30 1168 H 111.451 -2.79534 -2.87509 0
M  V30 1169 H 108.041 -3.8434 -1.89685 0
M  V30 1170 H 112.225 -4.73474 -1.4878 0
M  V30 1171 H 107.481 -6.04027 -0.946666 0
M  V30 1172 H 111.655 -6.94258 -0.545843 0
M  V30 1173 H 109.282 -7.59722 -0.26952 0
M  V30 1174 N 110.857 0.726932 -1.39834 0
M  V30 1175 C 112.134 1.47902 -1.28001 0
M  V30 1176 C 112.514 2.1083 0.106789 0
M  V30 1177 O 111.862 1.99242 1.11869 0
M  V30 1178 C 112.072 2.52392 -2.41038 0
M  V30 1179 C 113.42 3.18546 -2.80737 0
M  V30 1180 O 114.444 2.62708 -2.40547 0
M  V30 1181 O 113.303 4.19604 -3.50135 0
M  V30 1182 H 110.397 0.657163 -0.502062 0
M  V30 1183 H 112.943 0.760071 -1.51727 0
M  V30 1184 H 111.715 2.04329 -3.33715 0
M  V30 1185 H 111.338 3.31837 -2.19021 0
M  V30 1186 N 112.336 1.25143 0.95797 0
M  V30 1187 C 113.561 1.12521 1.74223 0
M  V30 1188 C 113.986 -0.317402 1.85403 0
M  V30 1189 O 113.344 -1.2299 1.33204 0
M  V30 1190 C 113.392 1.78062 3.1357 0
M  V30 1191 O 112.496 1.058 3.98598 0
M  V30 1192 H 111.837 0.39304 0.535178 0
M  V30 1193 H 114.367 1.65641 1.201 0
M  V30 1194 H 114.377 1.84213 3.64046 0
M  V30 1195 H 113.052 2.83021 3.04749 0
M  V30 1196 H 111.629 1.07506 3.57067 0
M  V30 1197 N 113.814 -1.1601 1.06675 0
M  V30 1198 C 115.06 -1.86909 0.786945 0
M  V30 1199 C 115.393 -1.81717 -0.685018 0
M  V30 1200 O 114.668 -1.23551 -1.50218 0
M  V30 1201 C 114.951 -3.36313 1.28707 0
M  V30 1202 C 114.804 -3.50175 2.82308 0
M  V30 1203 C 116.123 -4.3084 0.898071 0
M  V30 1204 H 113.242 -0.678677 0.287343 0
M  V30 1205 H 115.884 -1.36336 1.32334 0
M  V30 1206 H 114.034 -3.79513 0.830768 0
M  V30 1207 H 115.706 -3.15886 3.36175 0
M  V30 1208 H 113.949 -2.91959 3.20847 0
M  V30 1209 H 114.62 -4.55116 3.12368 0
M  V30 1210 H 117.096 -3.95561 1.29114 0
M  V30 1211 H 115.972 -5.33876 1.27543 0
M  V30 1212 H 116.233 -4.41662 -0.196651 0
M  V30 1213 N 115.292 -0.849877 -1.32721 0
M  V30 1214 C 116.242 -0.262892 -2.26479 0
M  V30 1215 C 117.226 0.588493 -1.49752 0
M  V30 1216 O 118.418 0.438659 -1.71478 0
M  V30 1217 C 115.547 0.551818 -3.38836 0
M  V30 1218 C 114.633 -0.311689 -4.22953 0
M  V30 1219 N 115.024 -1.39567 -4.86163 0
M  V30 1220 C 113.322 -0.100611 -4.45887 0
M  V30 1221 C 114.023 -1.92651 -5.48872 0
M  V30 1222 N 112.999 -1.22637 -5.29586 0
M  V30 1223 H 116.801 -1.09166 -2.72873 0
M  V30 1224 H 114.315 -0.695486 -1.46754 0
M  V30 1225 H 116.312 0.988713 -4.05006 0
M  V30 1226 H 114.972 1.37844 -2.93988 0
M  V30 1227 H 115.983 -1.77859 -4.86402 0
M  V30 1228 H 112.66 0.691681 -4.11731 0
M  V30 1229 H 114.05 -2.83487 -6.09167 0
M  V30 1230 N 116.77 1.45427 -0.607355 0
M  V30 1231 C 117.995 2.07124 -0.107006 0
M  V30 1232 C 118.42 1.44906 1.19933 0
M  V30 1233 O 117.778 0.541687 1.73019 0
M  V30 1234 C 117.826 3.60595 0.0194119 0
M  V30 1235 O 116.93 3.98285 1.0697 0
M  V30 1236 H 116.271 0.659868 -0.0739597 0
M  V30 1237 H 118.801 1.86683 -0.837297 0
M  V30 1238 H 118.811 4.07419 0.2177 0
M  V30 1239 H 117.486 4.05266 -0.934453 0
M  V30 1240 H 116.063 3.63133 0.847889 0
M  V30 1241 N 118.248 0.346503 1.53744 0
M  V30 1242 C 119.195 -0.508914 2.25119 0
M  V30 1243 C 120.165 -1.09315 1.25058 0
M  V30 1244 O 121.35 -1.12921 1.53797 0
M  V30 1245 C 118.49 -1.65246 3.02965 0
M  V30 1246 C 117.603 -1.09525 4.17886 0
M  V30 1247 C 116.738 -2.20634 4.83212 0
M  V30 1248 C 115.777 -1.62279 5.90196 0
M  V30 1249 N 114.914 -2.67143 6.49291 0
M  V30 1250 H 119.754 0.106283 2.9781 0
M  V30 1251 H 117.291 0.0642227 1.4696 0
M  V30 1252 H 119.249 -2.32574 3.4636 0
M  V30 1253 H 117.879 -2.2386 2.32565 0
M  V30 1254 H 116.931 -0.312818 3.79112 0
M  V30 1255 H 118.243 -0.628444 4.94825 0
M  V30 1256 H 117.397 -2.95821 5.29693 0
M  V30 1257 H 116.136 -2.70659 4.05703 0
M  V30 1258 H 115.141 -0.855989 5.43096 0
M  V30 1259 H 116.366 -1.13102 6.69615 0
M  V30 1260 H 114.312 -3.16417 5.74645 0
M  V30 1261 H 114.229 -2.25093 7.21713 0
M  V30 1262 H 115.497 -3.4209 7.00425 0
M  V30 1263 N 119.726 -1.57421 0.075193 0
M  V30 1264 C 120.956 -1.97659 -0.601203 0
M  V30 1265 C 121.364 -0.952427 -1.63479 0
M  V30 1266 O 120.707 0.0688241 -1.83571 0
M  V30 1267 C 120.769 -3.34218 -1.32434 0
M  V30 1268 C 120.433 -4.5484 -0.443826 0
M  V30 1269 C 121.43 -5.19034 0.299969 0
M  V30 1270 C 119.115 -5.00952 -0.367709 0
M  V30 1271 C 121.109 -6.27695 1.10807 0
M  V30 1272 C 118.796 -6.09484 0.444058 0
M  V30 1273 C 119.794 -6.72719 1.18061 0
M  V30 1274 O 119.482 -7.79161 1.97898 0
M  V30 1275 H 119.214 -0.65494 -0.167422 0
M  V30 1276 H 121.768 -2.04886 0.145157 0
M  V30 1277 H 119.998 -3.23615 -2.11685 0
M  V30 1278 H 121.687 -3.59038 -1.89331 0
M  V30 1279 H 122.453 -4.84351 0.250776 0
M  V30 1280 H 118.332 -4.51509 -0.930638 0
M  V30 1281 H 121.876 -6.76982 1.68347 0
M  V30 1282 H 117.773 -6.43601 0.494803 0
M  V30 1283 H 118.541 -7.96055 1.90367 0
M  V30 1284 N 121.204 0.198386 -1.56346 0
M  V30 1285 C 122.137 1.27381 -1.89339 0
M  V30 1286 C 123.115 1.44106 -0.753134 0
M  V30 1287 O 124.299 1.59549 -1.00381 0
M  V30 1288 C 121.426 2.6409 -2.12071 0
M  V30 1289 C 120.472 2.64253 -3.34772 0
M  V30 1290 S 121.305 2.16013 -4.89999 0
M  V30 1291 C 122.461 3.54553 -5.15794 0
M  V30 1292 H 122.694 0.992058 -2.8026 0
M  V30 1293 H 120.227 0.401726 -1.49082 0
M  V30 1294 H 122.185 3.42786 -2.2585 0
M  V30 1295 H 120.846 2.89478 -1.21906 0
M  V30 1296 H 120.039 3.64768 -3.47794 0
M  V30 1297 H 119.641 1.93637 -3.1997 0
M  V30 1298 H 121.933 4.50396 -5.06112 0
M  V30 1299 H 122.876 3.46428 -6.1757 0
M  V30 1300 H 123.284 3.49313 -4.43442 0
M  V30 1301 N 122.682 1.50554 0.465978 0
M  V30 1302 C 123.93 1.61479 1.21528 0
M  V30 1303 C 124.251 0.319596 1.92363 0
M  V30 1304 O 123.521 -0.663194 1.84333 0
M  V30 1305 H 122.101 0.595055 0.451573 0
M  V30 1306 H 124.763 1.87355 0.53704 0
M  V30 1307 H 123.859 2.42846 1.96042 0
M  V30 1308 N 124.16 -0.719506 1.40217 0
M  V30 1309 C 125.576 -1.02707 1.22161 0
M  V30 1310 C 125.776 -2.0128 0.0940557 0
M  V30 1311 O 124.832 -2.46452 -0.549318 0
M  V30 1312 C 126.145 -1.57454 2.56181 0
M  V30 1313 C 127.693 -1.69458 2.63159 0
M  V30 1314 C 128.168 -2.27611 3.97438 0
M  V30 1315 N 129.659 -2.35002 3.99159 0
M  V30 1316 C 130.394 -2.80972 4.99842 0
M  V30 1317 N 129.89 -3.26723 6.10921 0
M  V30 1318 N 131.683 -2.80321 4.87213 0
M  V30 1319 H 123.834 -0.0660492 2.12297 0
M  V30 1320 H 126.097 -0.0919077 0.943534 0
M  V30 1321 H 125.803 -0.924873 3.39321 0
M  V30 1322 H 125.677 -2.56036 2.76993 0
M  V30 1323 H 128.064 -2.33543 1.80393 0
M  V30 1324 H 128.145 -0.694867 2.46181 0
M  V30 1325 H 127.789 -1.6415 4.80643 0
M  V30 1326 H 127.719 -3.2829 4.11744 0
M  V30 1327 H 130.21 -2.02685 3.18947 0
M  V30 1328 H 130.523 -3.60355 6.8364 0
M  V30 1329 H 128.868 -3.24692 6.14492 0
M  V30 1330 H 132.059 -2.43912 3.9953 0
M  V30 1331 H 132.232 -3.15831 5.65822 0
M  V30 1332 N 125.638 -1.25649 -0.95132 0
M  V30 1333 C 126.866 -1.13343 -1.73092 0
M  V30 1334 C 127.281 0.312434 -1.86197 0
M  V30 1335 O 126.638 1.21465 -1.36207 0
M  V30 1336 C 126.689 -1.78602 -3.14299 0
M  V30 1337 O 126.41 -3.17537 -3.01831 0
M  V30 1338 C 127.911 -1.72119 -4.08522 0
M  V30 1339 H 125.131 -0.395181 -0.542285 0
M  V30 1340 H 127.675 -1.66076 -1.19328 0
M  V30 1341 H 125.83 -1.29832 -3.64996 0
M  V30 1342 H 126.244 -3.49676 -3.90931 0
M  V30 1343 H 127.718 -2.22435 -5.052 0
M  V30 1344 H 128.195 -0.685635 -4.33815 0
M  V30 1345 H 128.801 -2.20393 -3.63741 0
M  V30 1346 N 127.117 1.15442 -1.07289 0
M  V30 1347 C 128.342 1.90638 -0.816828 0
M  V30 1348 C 128.767 1.77445 0.624083 0
M  V30 1349 O 128.125 1.10671 1.43602 0
M  V30 1350 C 128.173 3.39008 -1.22906 0
M  V30 1351 O 127.277 4.10701 -0.373975 0
M  V30 1352 H 126.618 0.593555 -0.297638 0
M  V30 1353 H 129.148 1.46198 -1.43134 0
M  V30 1354 H 129.158 3.89801 -1.20497 0
M  V30 1355 H 127.833 3.47929 -2.27856 0
M  V30 1356 H 126.41 3.70046 -0.460499 0
M  V30 1357 N 128.595 0.856903 1.32268 0
M  V30 1358 C 129.842 0.461386 1.97174 0
M  V30 1359 C 130.17 -0.983491 1.67803 0
M  V30 1360 O 129.425 -1.70541 0.959903 0
M  V30 1361 C 129.724 0.649919 3.51441 0
M  V30 1362 C 129.39 2.0656 4.00804 0
M  V30 1363 C 128.052 2.45279 4.13995 0
M  V30 1364 C 130.404 2.98947 4.26943 0
M  V30 1365 C 127.732 3.75653 4.50668 0
M  V30 1366 C 130.084 4.28822 4.65075 0
M  V30 1367 C 128.748 4.67472 4.76472 0
M  V30 1368 H 128.018 0.168833 0.72151 0
M  V30 1369 H 130.665 1.08739 1.57633 0
M  V30 1370 H 128.97 -0.0593018 3.91755 0
M  V30 1371 H 130.667 0.32391 3.9969 0
M  V30 1372 H 127.257 1.75495 3.91024 0
M  V30 1373 H 131.441 2.70265 4.16258 0
M  V30 1374 H 126.697 4.05379 4.57688 0
M  V30 1375 H 130.871 5.0047 4.84255 0
M  V30 1376 H 128.498 5.68539 5.04646 0
M  V30 1377 N 130.073 -1.45103 0.615059 0
M  V30 1378 C 131.35 -1.95549 0.0448276 0
M  V30 1379 C 131.73 -1.55737 -1.4251 0
M  V30 1380 O 131.078 -0.823556 -2.13143 0
M  V30 1381 C 131.288 -3.48098 0.250785 0
M  V30 1382 C 132.636 -4.24384 0.135509 0
M  V30 1383 O 133.66 -3.55738 0.181299 0
M  V30 1384 O 132.519 -5.46493 0.0268878 0
M  V30 1385 H 129.613 -0.8264 -0.0314845 0
M  V30 1386 H 132.159 -1.55232 0.685642 0
M  V30 1387 H 130.931 -3.7007 1.27139 0
M  V30 1388 H 130.554 -3.95323 -0.424937 0
M  V30 1389 N 131.551 -0.354651 -1.53558 0
M  V30 1390 C 132.776 0.242153 -2.05981 0
M  V30 1391 C 133.201 1.42553 -1.2272 0
M  V30 1392 O 132.559 1.79656 -0.243604 0
M  V30 1393 C 132.607 0.624367 -3.55154 0
M  V30 1394 O 131.711 1.72301 -3.74681 0
M  V30 1395 H 131.052 0.0378432 -0.662921 0
M  V30 1396 H 133.582 -0.512087 -1.98088 0
M  V30 1397 H 133.592 0.898433 -3.97985 0
M  V30 1398 H 132.267 -0.240989 -4.15201 0
M  V30 1399 H 130.844 1.44535 -3.4375 0
M  V30 1400 N 133.029 1.57378 -0.0835403 0
M  V30 1401 C 134.306 1.85363 0.624507 0
M  V30 1402 C 134.686 0.978239 1.87066 0
M  V30 1403 O 134.034 0.0475908 2.2845 0
M  V30 1404 C 134.244 3.35795 0.950947 0
M  V30 1405 C 135.592 4.03581 1.31939 0
M  V30 1406 O 136.616 3.40609 1.04232 0
M  V30 1407 O 135.475 5.14672 1.83779 0
M  V30 1408 H 132.569 0.766162 0.311329 0
M  V30 1409 H 135.115 1.69307 -0.115362 0
M  V30 1410 H 133.887 3.91244 0.0663899 0
M  V30 1411 H 133.51 3.57154 1.74719 0
M  V30 1412 N 134.507 -0.190092 1.56449 0
M  V30 1413 C 135.732 -0.929864 1.85387 0
M  V30 1414 C 136.157 -1.7585 0.667704 0
M  V30 1415 O 135.515 -1.77198 -0.383459 0
M  V30 1416 C 135.563 -1.79773 3.12593 0
M  V30 1417 O 134.667 -2.89713 2.93496 0
M  V30 1418 H 134.008 -0.261574 0.610307 0
M  V30 1419 H 136.538 -0.193896 2.03679 0
M  V30 1420 H 136.548 -2.20139 3.43515 0
M  V30 1421 H 135.223 -1.18892 3.98544 0
M  V30 1422 H 133.8 -2.53065 2.73884 0
M  V30 1423 N 135.985 -1.50799 -0.457987 0
M  V30 1424 C 137.231 -1.63648 -1.20792 0
M  V30 1425 C 137.586 -0.338662 -1.89396 0
M  V30 1426 O 136.879 0.664291 -1.79716 0
M  V30 1427 C 137.073 -2.76358 -2.2663 0
M  V30 1428 C 136.902 -4.16974 -1.68411 0
M  V30 1429 C 135.672 -4.83199 -1.47807 0
M  V30 1430 C 137.87 -5.00774 -1.17176 0
M  V30 1431 N 135.852 -6.07991 -0.849692 0
M  V30 1432 C 137.223 -6.16397 -0.667403 0
M  V30 1433 C 139.278 -4.86452 -1.06155 0
M  V30 1434 C 137.981 -7.19272 -0.0636908 0
M  V30 1435 C 140.007 -5.89515 -0.471759 0
M  V30 1436 C 139.369 -7.04397 0.0221557 0
M  V30 1437 H 135.468 -0.652888 -0.43042 0
M  V30 1438 H 138.052 -1.87962 -0.507785 0
M  V30 1439 H 136.223 -2.53744 -2.94056 0
M  V30 1440 H 137.955 -2.78496 -2.93636 0
M  V30 1441 H 134.71 -4.40714 -1.73403 0
M  V30 1442 H 135.134 -6.74733 -0.553537 0
M  V30 1443 H 139.776 -3.97907 -1.42932 0
M  V30 1444 H 137.494 -8.07481 0.316253 0
M  V30 1445 H 141.08 -5.805 -0.388671 0
M  V30 1446 H 139.96 -7.82782 0.471375 0
M  V30 1447 N 137.463 0.71206 -1.40597 0
M  V30 1448 C 138.691 1.50111 -1.42388 0
M  V30 1449 C 139.106 1.88784 -0.0245395 0
M  V30 1450 O 138.463 1.55681 0.952351 0
M  V30 1451 C 138.514 2.7742 -2.31776 0
M  V30 1452 O 138.235 2.40382 -3.66262 0
M  V30 1453 C 139.736 3.7129 -2.42196 0
M  V30 1454 H 136.956 0.46314 -0.485533 0
M  V30 1455 H 139.5 0.878068 -1.8469 0
M  V30 1456 H 137.655 3.36001 -1.92827 0
M  V30 1457 H 138.069 3.22324 -4.13772 0
M  V30 1458 H 139.543 4.57448 -3.08943 0
M  V30 1459 H 140.02 4.14641 -1.44809 0
M  V30 1460 H 140.626 3.18619 -2.81712 0
M  V30 1461 N 138.941 1.26152 0.944643 0
M  V30 1462 C 139.871 1.09902 2.06019 0
M  V30 1463 C 140.852 0.00519538 1.70099 0
M  V30 1464 O 142.037 0.176583 1.93396 0
M  V30 1465 C 139.167 0.727562 3.39594 0
M  V30 1466 C 138.121 1.77274 3.89561 0
M  V30 1467 C 137.447 1.25569 5.19747 0
M  V30 1468 C 138.747 3.17357 4.14827 0
M  V30 1469 H 140.441 2.03217 2.19871 0
M  V30 1470 H 137.987 0.978452 1.05652 0
M  V30 1471 H 139.94 0.600777 4.17095 0
M  V30 1472 H 138.664 -0.241287 3.25707 0
M  V30 1473 H 137.323 1.88814 3.14237 0
M  V30 1474 H 136.971 0.276783 5.02238 0
M  V30 1475 H 136.671 1.95433 5.54148 0
M  V30 1476 H 138.195 1.1415 5.99835 0
M  V30 1477 H 139.609 3.08914 4.82954 0
M  V30 1478 H 138.006 3.84781 4.60504 0
M  V30 1479 H 139.076 3.63673 3.20734 0
M  V30 1480 N 140.419 -1.14872 1.07899 0
M  V30 1481 C 141.835 -1.37776 0.805606 0
M  V30 1482 C 142.035 -1.92743 -0.587555 0
M  V30 1483 O 141.091 -2.13678 -1.34528 0
M  V30 1484 C 142.404 -2.34361 1.88402 0
M  V30 1485 C 143.952 -2.48012 1.90942 0
M  V30 1486 C 144.427 -3.47893 2.97883 0
M  V30 1487 N 145.918 -3.55433 2.97021 0
M  V30 1488 C 146.653 -4.32553 3.76412 0
M  V30 1489 N 146.149 -5.12959 4.65666 0
M  V30 1490 N 147.942 -4.27697 3.64735 0
M  V30 1491 H 140.093 -0.775365 1.97742 0
M  V30 1492 H 142.356 -0.403521 0.857831 0
M  V30 1493 H 142.062 -2.01098 2.88535 0
M  V30 1494 H 141.936 -3.34206 1.74889 0
M  V30 1495 H 144.323 -2.8057 0.914579 0
M  V30 1496 H 144.404 -1.48147 2.08534 0
M  V30 1497 H 144.048 -3.16069 3.97571 0
M  V30 1498 H 143.978 -4.47527 2.77538 0
M  V30 1499 H 146.469 -2.98048 2.32326 0
M  V30 1500 H 146.782 -5.69065 5.22862 0
M  V30 1501 H 145.127 -5.12245 4.69712 0
M  V30 1502 H 148.318 -3.63949 2.94378 0
M  V30 1503 H 148.491 -4.8755 4.26848 0
M  V30 1504 N 141.898 -0.863906 -1.31812 0
M  V30 1505 C 142.828 -0.330843 -2.31144 0
M  V30 1506 C 143.809 0.575005 -1.60087 0
M  V30 1507 O 144.994 0.493304 -1.8783 0
M  V30 1508 C 142.124 0.47374 -3.44054 0
M  V30 1509 C 141.078 -0.338481 -4.26659 0
M  V30 1510 C 140.404 0.591412 -5.31419 0
M  V30 1511 C 141.704 -1.56926 -4.98168 0
M  V30 1512 H 143.398 -1.16086 -2.75979 0
M  V30 1513 H 140.944 -0.559657 -1.32679 0
M  V30 1514 H 142.897 0.857143 -4.12591 0
M  V30 1515 H 141.621 1.33721 -2.9797 0
M  V30 1516 H 140.28 -0.703754 -3.59782 0
M  V30 1517 H 139.928 1.45199 -4.81587 0
M  V30 1518 H 139.628 0.0519022 -5.87577 0
M  V30 1519 H 141.152 0.97179 -6.02817 0
M  V30 1520 H 142.566 -1.25764 -5.59336 0
M  V30 1521 H 140.963 -2.04739 -5.64094 0
M  V30 1522 H 142.033 -2.32544 -4.25501 0
M  V30 1523 N 143.376 1.44774 -0.622745 0
M  V30 1524 C 144.326 2.2774 0.108889 0
M  V30 1525 C 145.31 1.38189 0.824175 0
M  V30 1526 O 146.502 1.62063 0.711664 0
M  V30 1527 C 143.631 3.25353 1.09546 0
M  V30 1528 C 142.717 4.22392 0.380232 0
M  V30 1529 N 143.108 5.02388 -0.586535 0
M  V30 1530 C 141.406 4.41588 0.625792 0
M  V30 1531 C 142.107 5.72894 -1.00834 0
M  V30 1532 N 141.083 5.42479 -0.348878 0
M  V30 1533 H 144.885 2.86993 -0.63341 0
M  V30 1534 H 142.399 1.5611 -0.447589 0
M  V30 1535 H 144.396 3.83538 1.63414 0
M  V30 1536 H 143.056 2.6766 1.83815 0
M  V30 1537 H 144.067 5.0885 -0.963975 0
M  V30 1538 H 140.744 3.95003 1.352 0
M  V30 1539 H 142.134 6.47158 -1.80656 0
M  V30 1540 N 144.854 0.36279 1.53368 0
M  V30 1541 C 145.802 -0.500155 2.27159 0
M  V30 1542 C 146.796 -1.08575 1.3003 0
M  V30 1543 O 148.002 -1.02927 1.47668 0
M  V30 1544 H 144.377 -0.180009 0.730138 0
M  V30 1545 H 146.348 0.14401 2.98052 0
M  V30 1546 C 145.097 -1.62937 3.07159 0
M  V30 1547 H 144.42 -1.18806 3.8174 0
M  V30 1548 H 145.86 -2.20795 3.61975 0
M  V30 1549 C 144.319 -2.57007 2.17829 0
M  V30 1550 O 144.849 -3.59752 1.78721 0
M  V30 1551 N 143.055 -2.26131 1.82518 0
M  V30 1552 H 142.602 -1.42616 2.14519 0
M  V30 1553 H 142.56 -2.89327 1.23034 0
M  V30 1554 N 146.332 -1.57332 0.0918853 0
M  V30 1555 C 147.262 -2.16872 -0.865371 0
M  V30 1556 C 148.243 -1.10118 -1.29646 0
M  V30 1557 O 149.428 -1.38242 -1.36392 0
M  V30 1558 C 146.558 -2.74649 -2.12569 0
M  V30 1559 C 145.512 -3.86747 -1.83333 0
M  V30 1560 C 144.838 -4.31212 -3.16166 0
M  V30 1561 C 146.138 -5.10089 -1.1228 0
M  V30 1562 H 147.832 -2.97114 -0.369307 0
M  V30 1563 H 145.378 -1.42918 -0.176194 0
M  V30 1564 H 147.331 -3.14952 -2.7997 0
M  V30 1565 H 146.055 -1.91657 -2.64452 0
M  V30 1566 H 144.714 -3.46978 -1.18331 0
M  V30 1567 H 144.362 -3.45115 -3.6593 0
M  V30 1568 H 144.062 -5.06788 -2.97388 0
M  V30 1569 H 145.586 -4.74146 -3.84731 0
M  V30 1570 H 147 -5.47582 -1.69785 0
M  V30 1571 H 145.397 -5.91073 -1.03693 0
M  V30 1572 H 146.467 -4.84786 -0.105041 0
M  V30 1573 N 147.81 0.181792 -1.56548 0
M  V30 1574 C 148.742 1.24956 -1.92142 0
M  V30 1575 C 149.755 1.41022 -0.813422 0
M  V30 1576 O 150.944 1.41212 -1.09186 0
M  V30 1577 C 148.044 2.61981 -2.14987 0
M  V30 1578 C 147.217 2.6735 -3.46183 0
M  V30 1579 C 146.276 3.85664 -3.5798 0
M  V30 1580 O 145.302 3.72148 -4.30691 0
M  V30 1581 N 146.504 5.01683 -2.92053 0
M  V30 1582 H 149.269 0.947329 -2.84334 0
M  V30 1583 H 146.83 0.371629 -1.57577 0
M  V30 1584 H 148.822 3.3958 -2.20154 0
M  V30 1585 H 147.392 2.84637 -1.2923 0
M  V30 1586 H 146.612 1.75925 -3.52766 0
M  V30 1587 H 147.9 2.67939 -4.32534 0
M  V30 1588 H 147.298 5.15564 -2.32832 0
M  V30 1589 H 145.855 5.77181 -3.0283 0
M  V30 1590 N 149.288 1.51039 0.449983 0
M  V30 1591 C 150.537 1.62317 1.19733 0
M  V30 1592 C 150.85 0.339101 1.92638 0
M  V30 1593 O 152.056 0.331069 2.69474 0
M  V30 1594 C 150.512 2.86608 2.17678 0
M  V30 1595 C 150.12 4.21972 1.50479 0
M  V30 1596 C 151.864 3.07239 2.92924 0
M  V30 1597 C 149.771 5.37426 2.46834 0
M  V30 1598 H 148.701 0.604532 0.450619 0
M  V30 1599 H 151.352 1.77494 0.465625 0
M  V30 1600 H 149.734 2.65037 2.94231 0
M  V30 1601 H 150.908 4.53878 0.795716 0
M  V30 1602 H 149.223 4.07117 0.874344 0
M  V30 1603 H 151.82 3.90668 3.65079 0
M  V30 1604 H 152.163 2.19807 3.5354 0
M  V30 1605 H 152.696 3.29091 2.23481 0
M  V30 1606 H 149.435 6.27079 1.90926 0
M  V30 1607 H 148.955 5.09912 3.15832 0
M  V30 1608 H 150.634 5.68862 3.08228 0
M  V30 1609 N 150.766 -0.704594 1.40972 0
M  V30 1610 C 151.713 -1.81862 1.42109 0
M  V30 1611 C 152.683 -1.63781 0.276593 0
M  V30 1612 O 153.868 -1.84759 0.4763 0
M  V30 1613 C 151.008 -3.19669 1.30022 0
M  V30 1614 C 150.121 -3.49246 2.54267 0
M  V30 1615 C 149.256 -4.76618 2.3454 0
M  V30 1616 C 148.295 -4.99133 3.54306 0
M  V30 1617 N 147.432 -6.17726 3.33706 0
M  V30 1618 H 152.272 -1.80226 2.37324 0
M  V30 1619 H 149.809 -0.880238 1.17857 0
M  V30 1620 H 151.767 -3.99263 1.21018 0
M  V30 1621 H 150.397 -3.20506 0.384192 0
M  V30 1622 H 149.449 -2.64125 2.73756 0
M  V30 1623 H 150.761 -3.61788 3.43381 0
M  V30 1624 H 149.915 -5.64249 2.22952 0
M  V30 1625 H 148.654 -4.66305 1.42867 0
M  V30 1626 H 147.659 -4.09953 3.66359 0
M  V30 1627 H 148.884 -5.11311 4.4692 0
M  V30 1628 H 146.83 -6.08642 2.44725 0
M  V30 1629 H 146.747 -6.30995 4.16391 0
M  V30 1630 H 148.015 -7.08115 3.25873 0
M  V30 1631 N 152.244 -1.26651 -0.937939 0
M  V30 1632 C 153.521 -1.0313 -1.66204 0
M  V30 1633 C 153.901 0.437256 -2.06522 0
M  V30 1634 O 153.249 1.41831 -1.79154 0
M  V30 1635 C 153.459 -1.98314 -2.87181 0
M  V30 1636 C 154.807 -2.27107 -3.58758 0
M  V30 1637 O 155.831 -1.96205 -2.97291 0
M  V30 1638 O 154.69 -2.79736 -4.69479 0
M  V30 1639 H 151.784 -0.392384 -0.727986 0
M  V30 1640 H 154.33 -1.37874 -0.989382 0
M  V30 1641 H 153.102 -2.97399 -2.54302 0
M  V30 1642 H 152.725 -1.64068 -3.6217 0
M  V30 1643 N 153.722 1.14298 -1.08507 0
M  V30 1644 C 154.669 2.19414 -0.715965 0
M  V30 1645 C 155.639 1.63399 0.298326 0
M  V30 1646 O 156.824 1.89929 0.182101 0
M  V30 1647 C 153.964 3.44845 -0.132534 0
M  V30 1648 C 153.077 4.15007 -1.19973 0
M  V30 1649 C 152.212 5.28024 -0.580048 0
M  V30 1650 C 151.251 5.9002 -1.62921 0
M  V30 1651 N 150.388 6.94485 -1.03125 0
M  V30 1652 H 155.228 2.50336 -1.61666 0
M  V30 1653 H 152.765 1.2293 -0.807882 0
M  V30 1654 H 154.723 4.16601 0.223454 0
M  V30 1655 H 153.353 3.14403 0.731467 0
M  V30 1656 H 152.405 3.41629 -1.67313 0
M  V30 1657 H 153.717 4.57178 -1.99473 0
M  V30 1658 H 152.871 6.06455 -0.172364 0
M  V30 1659 H 151.61 4.87076 0.246603 0
M  V30 1660 H 150.615 5.10291 -2.04654 0
M  V30 1661 H 151.84 6.33042 -2.45835 0
M  V30 1662 H 149.786 6.55612 -0.225711 0
M  V30 1663 H 149.703 7.35148 -1.76334 0
M  V30 1664 H 150.971 7.7679 -0.649458 0
M  V30 1665 N 155.201 0.870884 1.31352 0
M  V30 1666 C 156.449 0.48132 1.96285 0
M  V30 1667 C 156.77 -0.969813 1.69173 0
M  V30 1668 O 156.04 -1.67998 1.00764 0
M  V30 1669 H 154.62 0.175002 0.726212 0
M  V30 1670 H 157.282 1.11087 1.60143 0
M  V30 1671 H 156.378 0.639825 3.05471 0
M  V30 1672 N 156.679 -1.44442 0.630414 0
M  V30 1673 C 157.609 -2.33418 -0.0618083 0
M  V30 1674 C 158.59 -1.48165 -0.835541 0
M  V30 1675 O 159.775 -1.76886 -0.801564 0
M  V30 1676 C 156.905 -3.31222 -1.04449 0
M  V30 1677 C 155.859 -4.26288 -0.382436 0
M  V30 1678 C 155.185 -5.13954 -1.47497 0
M  V30 1679 C 156.485 -5.1744 0.710865 0
M  V30 1680 H 158.179 -2.91548 0.681184 0
M  V30 1681 H 155.725 -1.40191 0.329026 0
M  V30 1682 H 157.678 -3.92351 -1.53748 0
M  V30 1683 H 156.402 -2.71299 -1.81836 0
M  V30 1684 H 155.061 -3.6649 0.0899054 0
M  V30 1685 H 154.709 -4.50385 -2.2397 0
M  V30 1686 H 154.409 -5.7837 -1.03737 0
M  V30 1687 H 155.933 -5.77955 -1.96979 0
M  V30 1688 H 157.347 -5.72509 0.300996 0
M  V30 1689 H 155.744 -5.90455 1.07156 0
M  V30 1690 H 156.814 -4.58496 1.57829 0
M  V30 1691 N 158.157 -0.370918 -1.53173 0
M  V30 1692 C 159.387 0.217389 -2.05453 0
M  V30 1693 C 159.795 1.42568 -1.24382 0
M  V30 1694 O 159.138 1.81571 -0.278839 0
M  V30 1695 C 159.2 0.669827 -3.53205 0
M  V30 1696 C 158.864 -0.4225 -4.55043 0
M  V30 1697 C 159.861 -1.27407 -5.04047 0
M  V30 1698 C 157.546 -0.58427 -4.9889 0
M  V30 1699 C 159.54 -2.27271 -5.95505 0
M  V30 1700 C 157.227 -1.58627 -5.90153 0
M  V30 1701 C 158.225 -2.42892 -6.38351 0
M  V30 1702 O 157.913 -3.41382 -7.27814 0
M  V30 1703 H 157.645 0.0408171 -0.674767 0
M  V30 1704 H 160.199 -0.5292 -1.98466 0
M  V30 1705 H 158.429 1.4681 -3.57748 0
M  V30 1706 H 160.118 1.18173 -3.88317 0
M  V30 1707 H 160.884 -1.16031 -4.70916 0
M  V30 1708 H 156.763 0.061851 -4.60959 0
M  V30 1709 H 160.307 -2.93079 -6.33049 0
M  V30 1710 H 156.204 -1.70048 -6.22699 0
M  V30 1711 H 156.972 -3.37173 -7.45826 0
M  V30 1712 N 159.635 1.57281 -0.100228 0
M  V30 1713 C 160.567 2.11342 0.886972 0
M  V30 1714 C 161.58 1.05182 1.24261 0
M  V30 1715 O 162.769 1.32613 1.19483 0
M  V30 1716 C 159.869 2.5825 2.19454 0
M  V30 1717 C 159.042 3.88302 2.01346 0
M  V30 1718 C 158.101 4.21004 3.15661 0
M  V30 1719 O 157.127 4.9014 2.89398 0
M  V30 1720 N 158.329 3.76818 4.41575 0
M  V30 1721 H 161.094 2.96668 0.425216 0
M  V30 1722 H 158.655 1.61678 0.0847334 0
M  V30 1723 H 160.647 2.7717 2.94888 0
M  V30 1724 H 159.217 1.77907 2.57037 0
M  V30 1725 H 158.437 3.7848 1.10212 0
M  V30 1726 H 159.725 4.73375 1.8653 0
M  V30 1727 H 159.123 3.2102 4.65792 0
M  V30 1728 H 157.68 4.00882 5.13942 0
M  V30 1729 N 161.113 -0.173488 1.56642 0
M  V30 1730 C 162.353 -0.896984 1.83667 0
M  V30 1731 C 162.717 -1.79523 0.680842 0
M  V30 1732 O 163.918 -2.55616 0.831488 0
M  V30 1733 C 162.189 -1.67351 3.15798 0
M  V30 1734 S 163.748 -2.44607 3.64298 0
M  V30 1735 H 160.566 -0.300464 0.644393 0
M  V30 1736 H 163.168 -0.158775 1.94854 0
M  V30 1737 H 161.872 -1.00462 3.97914 0
M  V30 1738 H 161.403 -2.45313 3.07546 0
M  V30 1739 H 163.418 -3.69261 3.31452 0
M  V30 1740 N 162.591 -1.51276 -0.441967 0
M  V30 1741 C 163.84 -1.6295 -1.18871 0
M  V30 1742 C 164.153 -0.349312 -1.92456 0
M  V30 1743 O 165.359 -0.345355 -2.69295 0
M  V30 1744 C 163.815 -2.87759 -2.16155 0
M  V30 1745 C 163.423 -4.22764 -1.48239 0
M  V30 1746 C 165.167 -3.08788 -2.91291 0
M  V30 1747 C 163.074 -5.38728 -2.4398 0
M  V30 1748 H 162.004 -0.606913 -0.447406 0
M  V30 1749 H 164.655 -1.77739 -0.456205 0
M  V30 1750 H 163.037 -2.66593 -2.92821 0
M  V30 1751 H 164.211 -4.54293 -0.771635 0
M  V30 1752 H 162.526 -4.07575 -0.852741 0
M  V30 1753 H 165.123 -3.92599 -3.63002 0
M  V30 1754 H 165.466 -2.21679 -3.5237 0
M  V30 1755 H 165.999 -3.30272 -2.21733 0
M  V30 1756 H 162.738 -6.28082 -1.87598 0
M  V30 1757 H 162.258 -5.1158 -3.13123 0
M  V30 1758 H 163.937 -5.70489 -3.05207 0
M  V30 1759 N 164.069 0.697108 -1.41344 0
M  V30 1760 C 165.318 1.45279 -1.39918 0
M  V30 1761 C 165.631 1.95597 -0.0109624 0
M  V30 1762 O 166.837 2.71208 0.125919 0
M  V30 1763 C 165.293 2.62695 -2.46007 0
M  V30 1764 C 164.901 2.19169 -3.90729 0
M  V30 1765 C 166.645 3.40336 -2.53715 0
M  V30 1766 C 164.552 3.33535 -4.88373 0
M  V30 1767 H 163.482 0.545692 -0.520323 0
M  V30 1768 H 166.133 0.756929 -1.67161 0
M  V30 1769 H 164.515 3.34541 -2.11892 0
M  V30 1770 H 165.689 1.54623 -4.34083 0
M  V30 1771 H 164.004 1.54525 -3.86666 0
M  V30 1772 H 166.601 4.2547 -3.2385 0
M  V30 1773 H 166.944 3.85418 -1.5735 0
M  V30 1774 H 167.477 2.75546 -2.86913 0
M  V30 1775 H 164.216 2.93468 -5.86137 0
M  V30 1776 H 163.736 3.96936 -4.49668 0
M  V30 1777 H 165.415 3.99335 -5.09059 0
M  V30 1778 N 165.547 1.27147 0.931209 0
M  V30 1779 C 166.497 1.06227 2.01742 0
M  V30 1780 C 167.481 -0.00859065 1.60898 0
M  V30 1781 O 168.673 0.209537 1.75755 0
M  V30 1782 C 165.802 0.707787 3.35924 0
M  V30 1783 C 164.888 1.81661 3.83223 0
M  V30 1784 N 165.279 3.05564 4.03069 0
M  V30 1785 C 163.577 1.70249 4.12227 0
M  V30 1786 C 164.278 3.77697 4.42403 0
M  V30 1787 N 163.254 3.0544 4.49675 0
M  V30 1788 H 167.056 2.00261 2.15111 0
M  V30 1789 H 164.57 1.1781 1.11779 0
M  V30 1790 H 166.567 0.539043 4.134 0
M  V30 1791 H 165.227 -0.224964 3.2392 0
M  V30 1792 H 166.238 3.41363 3.89476 0
M  V30 1793 H 162.915 0.840329 4.08956 0
M  V30 1794 H 164.305 4.84168 4.65866 0
M  V30 1795 N 167.025 -1.13721 1.09112 0
M  V30 1796 C 167.975 -2.17082 0.697091 0
M  V30 1797 C 168.959 -1.58321 -0.286923 0
M  V30 1798 O 170.151 -1.7673 -0.0978008 0
M  V30 1799 C 167.28 -3.43105 0.115729 0
M  V30 1800 C 166.366 -4.0888 1.12596 0
M  V30 1801 N 166.757 -4.4987 2.31195 0
M  V30 1802 C 165.055 -4.35471 0.963366 0
M  V30 1803 C 165.756 -5.01094 2.95431 0
M  V30 1804 N 164.732 -4.95751 2.23006 0
M  V30 1805 H 168.534 -2.46524 1.6001 0
M  V30 1806 H 166.048 -1.30481 0.966869 0
M  V30 1807 H 168.045 -4.16491 -0.184555 0
M  V30 1808 H 166.705 -3.15138 -0.78217 0
M  V30 1809 H 167.716 -4.42678 2.68806 0
M  V30 1810 H 164.393 -4.17328 0.119878 0
M  V30 1811 H 165.783 -5.4263 3.96236 0
M  V30 1812 N 168.503 -0.877838 -1.30888 0
M  V30 1813 C 169.45 -0.337538 -2.28318 0
M  V30 1814 C 170.42 0.568346 -1.56074 0
M  V30 1815 O 171.605 0.498298 -1.84178 0
M  V30 1816 C 168.745 0.448142 -3.42178 0
M  V30 1817 C 167.858 -0.48615 -4.29256 0
M  V30 1818 C 166.993 0.314427 -5.30269 0
M  V30 1819 C 166.032 -0.615791 -6.08995 0
M  V30 1820 N 165.169 0.14902 -7.01942 0
M  V30 1821 H 170.009 -1.17356 -2.73919 0
M  V30 1822 H 167.546 -0.590094 -1.34745 0
M  V30 1823 H 169.504 0.919517 -4.06941 0
M  V30 1824 H 168.134 1.24879 -2.97666 0
M  V30 1825 H 167.186 -1.076 -3.64865 0
M  V30 1826 H 168.498 -1.19909 -4.84173 0
M  V30 1827 H 167.652 0.847969 -6.00745 0
M  V30 1828 H 166.391 1.06062 -4.76027 0
M  V30 1829 H 165.396 -1.16102 -5.37401 0
M  V30 1830 H 166.621 -1.36097 -6.65323 0
M  V30 1831 H 164.567 0.877884 -6.50099 0
M  V30 1832 H 164.484 -0.504433 -7.54315 0
M  V30 1833 H 165.752 0.663537 -7.76671 0
M  V30 1834 N 169.982 1.44106 -0.638065 0
M  V30 1835 C 170.929 2.30715 0.062701 0
M  V30 1836 C 171.899 1.43882 0.829883 0
M  V30 1837 O 173.084 1.72775 0.809532 0
M  V30 1838 C 170.224 3.29258 1.03358 0
M  V30 1839 C 169.337 4.31192 0.26409 0
M  V30 1840 C 168.472 5.16825 1.22741 0
M  V30 1841 C 167.511 6.10462 0.447475 0
M  V30 1842 N 166.648 6.8877 1.36161 0
M  V30 1843 H 171.488 2.90096 -0.681781 0
M  V30 1844 H 169.025 1.42925 -0.347988 0
M  V30 1845 H 170.983 3.84886 1.60992 0
M  V30 1846 H 169.613 2.71562 1.74511 0
M  V30 1847 H 168.665 3.77981 -0.428295 0
M  V30 1848 H 169.977 4.97619 -0.343052 0
M  V30 1849 H 169.131 5.77004 1.87487 0
M  V30 1850 H 167.87 4.50488 1.86847 0
M  V30 1851 H 166.875 5.49386 -0.213433 0
M  V30 1852 H 168.1 6.78837 -0.188968 0
M  V30 1853 H 166.046 6.25096 1.98975 0
M  V30 1854 H 165.963 7.51663 0.808656 0
M  V30 1855 H 167.231 7.53467 1.99769 0
M  V30 1856 N 171.46 0.379036 1.52974 0
M  V30 1857 C 172.871 -0.0972525 1.86447 0
M  V30 1858 C 173.222 -1.47027 1.29914 0
M  V30 1859 O 172.347 -2.07135 0.626433 0
M  V30 1860 C 172.942 -0.183248 3.38304 0
M  V30 1861 C 171.501 -0.603812 3.71525 0
M  V30 1862 C 170.648 0.240632 2.76254 0
M  V30 1863 H 173.599 0.597316 1.4703 0
M  V30 1864 H 173.62 -1.00432 3.67006 0
M  V30 1865 H 173.132 0.816191 3.79421 0
M  V30 1866 H 171.233 -1.61099 3.35973 0
M  V30 1867 H 171.346 -0.369086 4.77676 0
M  V30 1868 H 169.71 -0.292548 2.53014 0
M  V30 1869 H 170.493 1.23786 3.20206 0
M  V30 1870 N 172.938 -1.57226 0.108567 0
M  V30 1871 C 174.166 -1.99179 -0.559954 0
M  V30 1872 C 174.581 -0.988022 -1.60884 0
M  V30 1873 O 173.938 0.0205512 -1.82488 0
M  V30 1874 C 173.989 -3.41159 -1.19552 0
M  V30 1875 O 173.71 -4.37694 -0.188577 0
M  V30 1876 C 175.211 -3.98188 -1.94837 0
M  V30 1877 H 172.431 -0.654228 -0.149088 0
M  V30 1878 H 174.975 -2.03598 0.19183 0
M  V30 1879 H 173.13 -3.37711 -1.89815 0
M  V30 1880 H 173.544 -5.20469 -0.649014 0
M  V30 1881 H 175.018 -4.99644 -2.34648 0
M  V30 1882 H 175.495 -3.3675 -2.81951 0
M  V30 1883 H 176.101 -4.0515 -1.2936 0
M  V30 1884 N 174.416 0.165178 -1.56732 0
M  V30 1885 C 175.664 0.879068 -1.8198 0
M  V30 1886 C 175.985 1.82514 -0.686561 0
M  V30 1887 O 175.255 1.93694 0.293146 0
M  V30 1888 H 173.835 0.327608 -0.671329 0
M  V30 1889 H 176.497 0.163526 -1.94213 0
M  V30 1890 H 175.593 1.45228 -2.76252 0
M  V30 1891 N 175.894 1.51508 0.433938 0
M  V30 1892 C 176.827 1.67756 1.54704 0
M  V30 1893 C 177.805 0.525127 1.53887 0
M  V30 1894 O 178.989 0.749393 1.72963 0
M  V30 1895 C 176.116 1.69424 2.9328 0
M  V30 1896 C 175.162 2.90673 3.12108 0
M  V30 1897 S 175.995 4.51431 2.88046 0
M  V30 1898 C 177.151 4.55849 4.28897 0
M  V30 1899 H 177.384 2.61904 1.40689 0
M  V30 1900 H 174.917 1.41235 0.62386 0
M  V30 1901 H 176.875 1.7107 3.73156 0
M  V30 1902 H 175.536 0.764464 3.04655 0
M  V30 1903 H 174.729 2.88251 4.13434 0
M  V30 1904 H 174.331 2.86786 2.40062 0
M  V30 1905 H 176.623 4.31699 5.22152 0
M  V30 1906 H 177.566 5.57676 4.36351 0
M  V30 1907 H 177.974 3.85137 4.12711 0
M  V30 1908 N 177.372 -0.689602 1.41712 0
M  V30 1909 C 178.621 -1.44534 1.40686 0
M  V30 1910 C 178.934 -1.95588 0.0213352 0
M  V30 1911 O 180.14 -2.71271 -0.111534 0
M  V30 1912 C 178.596 -2.61387 2.47396 0
M  V30 1913 C 178.204 -2.17094 3.91885 0
M  V30 1914 C 179.948 -3.38986 2.55517 0
M  V30 1915 C 177.855 -3.3094 4.90135 0
M  V30 1916 H 176.785 -0.542925 0.52321 0
M  V30 1917 H 179.436 -0.748054 1.6756 0
M  V30 1918 H 177.818 -3.33412 2.13664 0
M  V30 1919 H 178.992 -1.52318 4.34897 0
M  V30 1920 H 177.307 -1.52473 3.8748 0
M  V30 1921 H 179.904 -4.23747 3.26102 0
M  V30 1922 H 180.247 -3.84578 1.59391 0
M  V30 1923 H 180.78 -2.74021 2.8837 0
M  V30 1924 H 177.519 -2.90355 5.87685 0
M  V30 1925 H 177.039 -3.94546 4.51767 0
M  V30 1926 H 178.718 -3.9663 5.11169 0
M  V30 1927 N 178.85 -1.27639 -0.924453 0
M  V30 1928 C 180.266 -1.05113 -1.20097 0
M  V30 1929 C 180.466 0.213262 -2.00368 0
M  V30 1930 O 179.522 0.91787 -2.35226 0
M  V30 1931 C 180.835 -2.29244 -1.94596 0
M  V30 1932 C 182.383 -2.34315 -2.07522 0
M  V30 1933 C 182.858 -3.58183 -2.85427 0
M  V30 1934 N 184.349 -3.5876 -2.92994 0
M  V30 1935 C 185.084 -4.51277 -3.53746 0
M  V30 1936 N 184.58 -5.54102 -4.15863 0
M  V30 1937 N 186.373 -4.38894 -3.51181 0
M  V30 1938 H 178.524 -2.08821 -0.388264 0
M  V30 1939 H 180.787 -0.918568 -0.234385 0
M  V30 1940 H 180.493 -3.21301 -1.43034 0
M  V30 1941 H 180.367 -2.34816 -2.95197 0
M  V30 1942 H 182.754 -1.42762 -2.58269 0
M  V30 1943 H 182.835 -2.32744 -1.06131 0
M  V30 1944 H 182.479 -4.50074 -2.35363 0
M  V30 1945 H 182.409 -3.57006 -3.8711 0
M  V30 1946 H 184.9 -2.84398 -2.4885 0
M  V30 1947 H 185.213 -6.20859 -4.60168 0
M  V30 1948 H 183.558 -5.57941 -4.144 0
M  V30 1949 H 186.749 -3.57772 -3.01856 0
M  V30 1950 H 186.922 -5.11186 -3.98237 0
M  V30 1951 N 180.328 1.1314 -1.09713 0
M  V30 1952 C 181.577 1.83838 -0.829851 0
M  V30 1953 C 181.89 1.84599 0.646728 0
M  V30 1954 O 183.096 2.51218 1.02965 0
M  V30 1955 C 181.552 3.30069 -1.43466 0
M  V30 1956 C 181.16 3.37688 -2.94399 0
M  V30 1957 C 182.904 4.05788 -1.24645 0
M  V30 1958 C 180.811 4.78209 -3.47952 0
M  V30 1959 H 179.741 0.68877 -0.306777 0
M  V30 1960 H 182.392 1.27448 -1.3202 0
M  V30 1961 H 180.774 3.8628 -0.871996 0
M  V30 1962 H 181.948 2.91456 -3.56918 0
M  V30 1963 H 180.263 2.75436 -3.12289 0
M  V30 1964 H 182.86 5.09535 -1.62107 0
M  V30 1965 H 183.203 4.15878 -0.187357 0
M  V30 1966 H 183.736 3.55915 -1.77678 0
M  V30 1967 H 180.475 4.73311 -4.53495 0
M  V30 1968 H 179.995 5.24924 -2.90198 0
M  V30 1969 H 181.674 5.47133 -3.45332 0
M  V30 1970 N 181.806 0.884767 1.30421 0
M  V30 1971 C 182.756 0.322846 2.25703 0
M  V30 1972 C 183.74 -0.548582 1.51259 0
M  V30 1973 O 184.932 -0.39304 1.72581 0
M  V30 1974 C 182.061 -0.461787 3.4018 0
M  V30 1975 C 181.147 0.423717 4.21978 0
M  V30 1976 N 181.538 1.52408 4.82292 0
M  V30 1977 C 179.836 0.218795 4.45463 0
M  V30 1978 C 180.537 2.07136 5.43571 0
M  V30 1979 N 179.513 1.36635 5.26148 0
M  V30 1980 H 183.315 1.16363 2.69883 0
M  V30 1981 H 180.829 0.73415 1.44859 0
M  V30 1982 H 182.826 -0.880985 4.07485 0
M  V30 1983 H 181.486 -1.30001 2.9754 0
M  V30 1984 H 182.497 1.90693 4.81515 0
M  V30 1985 H 179.174 -0.582275 4.1342 0
M  V30 1986 H 180.564 2.99538 6.01437 0
M  V30 1987 N 183.284 -1.43765 0.645699 0
M  V30 1988 C 184.216 -2.29027 -0.0890605 0
M  V30 1989 C 185.229 -1.42093 -0.794563 0
M  V30 1990 O 186.418 -1.66104 -0.653575 0
M  V30 1991 C 183.518 -3.18831 -1.14891 0
M  V30 1992 C 182.691 -4.34261 -0.523043 0
M  V30 1993 C 181.75 -5.04994 -1.47878 0
M  V30 1994 O 180.776 -5.6052 -0.990277 0
M  V30 1995 N 181.978 -5.07795 -2.81291 0
M  V30 1996 H 184.743 -2.92727 0.64272 0
M  V30 1997 H 182.304 -1.54373 0.487924 0
M  V30 1998 H 184.296 -3.63015 -1.78892 0
M  V30 1999 H 182.866 -2.56782 -1.78275 0
M  V30 2000 H 182.086 -3.93088 0.295896 0
M  V30 2001 H 183.374 -5.08728 -0.0858147 0
M  V30 2002 H 182.772 -4.64042 -3.23546 0
M  V30 2003 H 181.329 -5.55721 -3.40614 0
M  V30 2004 N 184.763 -0.387143 -1.52771 0
M  V30 2005 C 185.696 0.493123 -2.22808 0
M  V30 2006 C 186.674 1.0658 -1.22798 0
M  V30 2007 O 187.858 1.11785 -1.51777 0
M  V30 2008 C 184.985 1.68238 -2.93962 0
M  V30 2009 C 184.031 1.23515 -4.08223 0
M  V30 2010 S 184.864 0.21848 -5.35054 0
M  V30 2011 C 186.02 1.41357 -6.09729 0
M  V30 2012 H 186.253 -0.101625 -2.97126 0
M  V30 2013 H 183.786 -0.171323 -1.53447 0
M  V30 2014 H 185.744 2.36443 -3.35567 0
M  V30 2015 H 184.405 2.24842 -2.19328 0
M  V30 2016 H 183.598 2.12304 -4.57103 0
M  V30 2017 H 183.2 0.632044 -3.68621 0
M  V30 2018 H 185.492 2.34101 -6.3577 0
M  V30 2019 H 186.435 0.965736 -7.01484 0
M  V30 2020 H 186.843 1.6294 -5.40473 0
M  V30 2021 N 186.241 1.57166 -0.116904 0
M  V30 2022 C 187.189 2.16457 0.851418 0
M  V30 2023 C 188.183 1.11323 1.27686 0
M  V30 2024 O 189.389 1.2963 1.24884 0
M  V30 2025 H 185.764 0.69271 0.292672 0
M  V30 2026 H 187.735 2.96605 0.32685 0
M  V30 2027 C 186.484 2.77689 2.09246 0
M  V30 2028 H 185.807 3.58285 1.77402 0
M  V30 2029 H 187.247 3.22716 2.7501 0
M  V30 2030 C 185.706 1.74667 2.88085 0
M  V30 2031 O 186.236 1.19877 3.83396 0
M  V30 2032 N 184.442 1.44656 2.52038 0
M  V30 2033 H 183.989 1.89402 1.74599 0
M  V30 2034 H 183.947 0.759675 3.05084 0
M  V30 2035 N 187.719 -0.156864 1.56817 0
M  V30 2036 C 188.944 -0.890331 1.87318 0
M  V30 2037 C 189.369 -1.74394 0.704855 0
M  V30 2038 O 188.727 -1.77972 -0.345786 0
M  V30 2039 C 188.775 -1.73102 3.16336 0
M  V30 2040 O 187.879 -2.83422 2.99576 0
M  V30 2041 H 187.22 -0.24857 0.615718 0
M  V30 2042 H 189.75 -0.150649 2.04045 0
M  V30 2043 H 189.76 -2.12803 3.48107 0
M  V30 2044 H 188.435 -1.10412 4.00976 0
M  V30 2045 H 187.012 -2.47199 2.7919 0
M  V30 2046 N 189.197 -1.51736 -0.425897 0
M  V30 2047 C 190.107 -1.76738 -1.54275 0
M  V30 2048 C 191.123 -0.65211 -1.61318 0
M  V30 2049 O 192.299 -0.935654 -1.78346 0
M  V30 2050 C 189.364 -1.89755 -2.90162 0
M  V30 2051 C 188.425 -3.13633 -2.93143 0
M  V30 2052 C 187.658 -3.2602 -4.22548 0
M  V30 2053 O 187.881 -2.44067 -5.15546 0
M  V30 2054 O 186.815 -4.19071 -4.32046 0
M  V30 2055 H 190.641 -2.71502 -1.36089 0
M  V30 2056 H 188.226 -1.36376 -0.610069 0
M  V30 2057 H 190.108 -2.00236 -3.70788 0
M  V30 2058 H 188.783 -0.981785 -3.08452 0
M  V30 2059 H 187.69 -3.08622 -2.11431 0
M  V30 2060 H 189.023 -4.04936 -2.798 0
M  V30 2061 N 190.675 0.682077 -1.42076 0
M  V30 2062 C 191.605 1.80796 -1.47767 0
M  V30 2063 C 192.586 1.6677 -0.334954 0
M  V30 2064 O 193.771 1.863 -0.548264 0
M  V30 2065 C 190.901 3.19038 -1.37229 0
M  V30 2066 C 189.855 3.47789 -2.49453 0
M  V30 2067 C 189.181 4.8553 -2.23975 0
M  V30 2068 C 190.481 3.45411 -3.91776 0
M  V30 2069 H 192.175 1.7629 -2.41997 0
M  V30 2070 H 189.721 0.846721 -1.16476 0
M  V30 2071 H 191.674 3.97528 -1.39821 0
M  V30 2072 H 190.398 3.24204 -0.394907 0
M  V30 2073 H 189.057 2.71657 -2.46166 0
M  V30 2074 H 188.705 4.87337 -1.24547 0
M  V30 2075 H 188.405 5.0573 -2.99184 0
M  V30 2076 H 189.929 5.66312 -2.28304 0
M  V30 2077 H 191.343 4.13882 -3.96705 0
M  V30 2078 H 189.74 3.77145 -4.66778 0
M  V30 2079 H 190.81 2.44122 -4.18966 0
M  V30 2080 N 192.153 1.28127 0.917671 0
M  V30 2081 C 193.378 1.18007 1.70555 0
M  V30 2082 C 193.803 -0.258257 1.86319 0
M  V30 2083 O 193.161 -1.1869 1.37049 0
M  V30 2084 C 193.209 1.87948 3.07746 0
M  V30 2085 O 192.313 1.18427 3.9503 0
M  V30 2086 H 191.654 0.409867 0.522403 0
M  V30 2087 H 194.184 1.69379 1.1477 0
M  V30 2088 H 194.194 1.95701 3.58001 0
M  V30 2089 H 192.869 2.92573 2.95591 0
M  V30 2090 H 191.446 1.18811 3.53466 0
M  V30 2091 N 193.631 -1.12557 1.10312 0
M  V30 2092 C 194.877 -1.84311 0.846011 0
M  V30 2093 C 195.21 -1.83805 -0.626859 0
M  V30 2094 O 194.485 -1.28268 -1.46211 0
M  V30 2095 C 194.768 -3.32048 1.39341 0
M  V30 2096 C 194.621 -3.41016 2.93305 0
M  V30 2097 C 195.94 -4.27764 1.03468 0
M  V30 2098 H 193.059 -0.669192 0.30879 0
M  V30 2099 H 195.701 -1.32057 1.36605 0
M  V30 2100 H 193.851 -3.76678 0.951087 0
M  V30 2101 H 195.523 -3.05031 3.46055 0
M  V30 2102 H 193.766 -2.81603 3.29973 0
M  V30 2103 H 194.437 -4.44948 3.26689 0
M  V30 2104 H 196.913 -3.91253 1.41633 0
M  V30 2105 H 195.789 -5.29549 1.44463 0
M  V30 2106 H 196.05 -4.42064 -0.0560404 0
M  V30 2107 N 195.109 -0.891671 -1.2995 0
M  V30 2108 C 196.039 -0.379797 -2.30391 0
M  V30 2109 C 197.02 0.540919 -1.6127 0
M  V30 2110 O 198.205 0.453352 -1.88834 0
M  V30 2111 C 195.335 0.400654 -3.44981 0
M  V30 2112 C 194.289 -0.428905 -4.25846 0
M  V30 2113 C 193.615 0.478557 -5.32554 0
M  V30 2114 C 194.915 -1.67458 -4.94727 0
M  V30 2115 H 196.609 -1.21914 -2.73454 0
M  V30 2116 H 194.155 -0.587675 -1.31462 0
M  V30 2117 H 196.108 0.769434 -4.14316 0
M  V30 2118 H 194.832 1.27371 -3.0074 0
M  V30 2119 H 193.491 -0.779911 -3.58208 0
M  V30 2120 H 193.139 1.34951 -4.84559 0
M  V30 2121 H 192.839 -0.0727433 -5.87555 0
M  V30 2122 H 194.363 0.843705 -6.04743 0
M  V30 2123 H 195.777 -1.376 -5.56542 0
M  V30 2124 H 194.174 -2.16659 -5.59624 0
M  V30 2125 H 195.244 -2.41518 -4.20473 0
M  V30 2126 N 196.587 1.43421 -0.653314 0
M  V30 2127 C 197.55 2.29182 0.0287951 0
M  V30 2128 C 198.55 1.42213 0.750465 0
M  V30 2129 O 199.74 1.63843 0.591701 0
M  V30 2130 C 196.872 3.24278 1.05151 0
M  V30 2131 H 198.065 2.90985 -0.725786 0
M  V30 2132 H 195.618 1.50702 -0.414545 0
M  V30 2133 H 196.353 2.6737 1.83532 0
M  V30 2134 H 196.138 3.88396 0.537687 0
M  V30 2135 H 197.628 3.88647 1.52786 0
M  V30 2136 N 198.065 0.39524 1.52563 0
M  V30 2137 C 199.013 -0.451859 2.28169 0
M  V30 2138 C 200.007 -1.05792 1.32304 0
M  V30 2139 O 201.213 -0.997718 1.49818 0
M  V30 2140 H 197.588 -0.164481 0.733792 0
M  V30 2141 H 199.559 0.207199 2.9768 0
M  V30 2142 C 198.308 -1.56385 3.10546 0
M  V30 2143 H 197.631 -1.10682 3.84174 0
M  V30 2144 H 199.071 -2.13067 3.66577 0
M  V30 2145 C 197.53 -2.52328 2.23231 0
M  V30 2146 O 198.06 -3.5588 1.86312 0
M  V30 2147 N 196.266 -2.22209 1.87274 0
M  V30 2148 H 195.813 -1.38033 2.17496 0
M  V30 2149 H 195.771 -2.86652 1.29143 0
M  V30 2150 N 199.544 -1.57102 0.125237 0
M  V30 2151 C 200.791 -1.95407 -0.531248 0
M  V30 2152 C 201.119 -1.0089 -1.66287 0
M  V30 2153 O 200.374 -0.0339431 -1.95671 0
M  V30 2154 C 200.673 -3.40096 -1.09862 0
M  V30 2155 C 200.339 -4.50815 -0.0876989 0
M  V30 2156 C 199.001 -4.80824 0.19026 0
M  V30 2157 C 201.353 -5.17724 0.600902 0
M  V30 2158 C 198.681 -5.75058 1.163 0
M  V30 2159 C 201.033 -6.13005 1.56231 0
M  V30 2160 C 199.697 -6.41403 1.8482 0
M  V30 2161 H 198.967 -0.715046 -0.194397 0
M  V30 2162 H 201.614 -1.90373 0.207463 0
M  V30 2163 H 199.919 -3.41855 -1.91422 0
M  V30 2164 H 201.616 -3.6705 -1.61478 0
M  V30 2165 H 198.206 -4.27444 -0.314528 0
M  V30 2166 H 202.39 -4.94691 0.399333 0
M  V30 2167 H 197.646 -5.95362 1.39117 0
M  V30 2168 H 201.82 -6.63934 2.10153 0
M  V30 2169 H 199.447 -7.14229 2.60349 0
M  V30 2170 N 201.022 0.148545 -1.56898 0
M  V30 2171 C 202.247 0.880385 -1.87787 0
M  V30 2172 C 202.672 1.74018 -0.714093 0
M  V30 2173 O 202.03 1.78153 0.336343 0
M  V30 2174 C 202.078 1.71422 -3.17249 0
M  V30 2175 O 201.182 2.8183 -3.01074 0
M  V30 2176 H 200.523 0.245301 -0.617028 0
M  V30 2177 H 203.053 0.139826 -2.04122 0
M  V30 2178 H 203.063 2.10954 -3.49231 0
M  V30 2179 H 201.738 1.08284 -4.01556 0
M  V30 2180 H 200.315 2.45715 -2.80497 0
M  V30 2181 N 202.5 1.5196 0.417844 0
M  V30 2182 C 203.432 1.70895 1.52733 0
M  V30 2183 C 204.445 0.589405 1.51756 0
M  V30 2184 O 205.634 0.864312 1.56179 0
M  V30 2185 C 202.734 1.72627 2.91639 0
M  V30 2186 C 201.907 3.01479 3.16905 0
M  V30 2187 C 200.966 2.95139 4.35637 0
M  V30 2188 O 199.992 3.69059 4.3334 0
M  V30 2189 N 201.194 2.12328 5.40275 0
M  V30 2190 H 203.959 2.66612 1.36888 0
M  V30 2191 H 201.52 1.50089 0.607037 0
M  V30 2192 H 203.512 1.65928 3.6912 0
M  V30 2193 H 202.082 0.844216 3.00985 0
M  V30 2194 H 201.302 3.21895 2.27546 0
M  V30 2195 H 202.59 3.86736 3.30625 0
M  V30 2196 H 201.988 1.51685 5.44985 0
M  V30 2197 H 200.545 2.11494 6.16534 0
M  V30 2198 N 203.978 -0.674533 1.42435 0
M  V30 2199 C 205.389 -1.25514 1.38214 0
M  V30 2200 C 205.74 -1.96055 0.0755464 0
M  V30 2201 O 204.865 -2.00028 -0.8257 0
M  V30 2202 C 205.46 -2.28269 2.50357 0
M  V30 2203 C 204.019 -2.81856 2.49467 0
M  V30 2204 C 203.166 -1.56182 2.29134 0
M  V30 2205 H 206.117 -0.467902 1.51646 0
M  V30 2206 H 206.138 -3.10009 2.20624 0
M  V30 2207 H 205.65 -1.769 3.45439 0
M  V30 2208 H 203.751 -3.37346 1.58204 0
M  V30 2209 H 203.864 -3.30854 3.46515 0
M  V30 2210 H 202.228 -1.82761 1.774 0
M  V30 2211 H 203.011 -1.06778 3.26272 0
M  V30 2212 N 205.456 -1.28612 -0.910864 0
M  V30 2213 C 206.366 -1.14643 -2.0468 0
M  V30 2214 C 207.382 -0.0723121 -1.7385 0
M  V30 2215 O 208.558 -0.282178 -1.99413 0
M  V30 2216 C 205.623 -0.812561 -3.37044 0
M  V30 2217 C 204.684 -1.96935 -3.81465 0
M  V30 2218 C 203.917 -1.65131 -5.07511 0
M  V30 2219 O 204.14 -0.567013 -5.67575 0
M  V30 2220 O 203.074 -2.49585 -5.47714 0
M  V30 2221 H 206.9 -2.1001 -2.19384 0
M  V30 2222 H 204.485 -1.07958 -1.03274 0
M  V30 2223 H 206.367 -0.640441 -4.16505 0
M  V30 2224 H 205.042 0.111426 -3.23508 0
M  V30 2225 H 203.949 -2.19664 -3.02818 0
M  V30 2226 H 205.282 -2.87414 -3.99567 0
M  V30 2227 N 206.934 1.1197 -1.10907 0
M  V30 2228 C 208.183 1.82947 -0.849302 0
M  V30 2229 C 208.496 1.85275 0.627112 0
M  V30 2230 O 209.702 2.52296 1.00295 0
M  V30 2231 C 208.158 3.28529 -1.46959 0
M  V30 2232 C 207.766 3.34546 -2.97965 0
M  V30 2233 C 209.51 4.04443 -1.28942 0
M  V30 2234 C 207.417 4.74491 -3.53004 0
M  V30 2235 H 206.347 0.685477 -0.314065 0
M  V30 2236 H 208.998 1.2604 -1.33365 0
M  V30 2237 H 207.38 3.85333 -0.912917 0
M  V30 2238 H 208.554 2.87654 -3.59989 0
M  V30 2239 H 206.869 2.72108 -3.15192 0
M  V30 2240 H 209.466 5.07787 -1.67502 0
M  V30 2241 H 209.809 4.15656 -0.231456 0
M  V30 2242 H 210.342 3.5401 -1.81443 0
M  V30 2243 H 207.081 4.68474 -4.58489 0
M  V30 2244 H 206.601 5.21816 -2.9575 0
M  V30 2245 H 208.28 5.4344 -3.51115 0
M  V30 2246 N 208.412 0.89855 1.29475 0
M  V30 2247 C 209.658 0.524658 1.95896 0
M  V30 2248 C 209.991 -0.926468 1.70676 0
M  V30 2249 O 209.266 -1.65665 1.01908 0
M  V30 2250 C 209.549 0.81633 3.50725 0
M  V30 2251 C 209.402 2.31907 3.85408 0
M  V30 2252 C 210.721 0.302038 4.39062 0
M  V30 2253 H 207.84 0.19209 0.711527 0
M  V30 2254 H 210.482 1.12502 1.53112 0
M  V30 2255 H 208.632 0.305369 3.87298 0
M  V30 2256 H 210.304 2.89949 3.58786 0
M  V30 2257 H 208.547 2.78027 3.32992 0
M  V30 2258 H 209.218 2.47373 4.93468 0
M  V30 2259 H 211.694 0.739551 4.09475 0
M  V30 2260 H 210.57 0.535331 5.46283 0
M  V30 2261 H 210.831 -0.797216 4.34853 0
M  V30 2262 N 209.89 -1.43072 0.660911 0
M  V30 2263 C 211.301 -1.84932 0.256348 0
M  V30 2264 C 211.652 -1.55325 -1.19868 0
M  V30 2265 O 210.777 -1.00607 -1.91591 0
M  V30 2266 C 211.372 -3.35684 0.458475 0
M  V30 2267 C 209.931 -3.76245 0.108161 0
M  V30 2268 C 209.078 -2.66749 0.757641 0
M  V30 2269 H 212.029 -1.33116 0.864051 0
M  V30 2270 H 212.05 -3.79365 -0.293683 0
M  V30 2271 H 211.562 -3.572 1.51755 0
M  V30 2272 H 209.663 -3.60338 -0.948014 0
M  V30 2273 H 209.776 -4.76058 0.538992 0
M  V30 2274 H 208.14 -2.53989 0.190185 0
M  V30 2275 H 208.923 -2.91092 1.81989 0
M  V30 2276 N 211.368 -0.403325 -1.52352 0
M  V30 2277 C 212.617 0.175668 -2.00934 0
M  V30 2278 C 212.93 1.46718 -1.29356 0
M  V30 2279 O 214.136 2.12708 -1.68724 0
M  V30 2280 C 212.592 0.363612 -3.58058 0
M  V30 2281 C 212.2 -0.915472 -4.38547 0
M  V30 2282 C 213.944 0.89821 -4.14888 0
M  V30 2283 C 211.851 -0.695035 -5.87302 0
M  V30 2284 H 210.781 0.0694234 -0.750797 0
M  V30 2285 H 213.432 -0.527879 -1.75743 0
M  V30 2286 H 211.814 1.12935 -3.79555 0
M  V30 2287 H 212.988 -1.68691 -4.28812 0
M  V30 2288 H 211.303 -1.37606 -3.93006 0
M  V30 2289 H 213.9 1.07907 -5.23699 0
M  V30 2290 H 214.243 1.87126 -3.71873 0
M  V30 2291 H 214.776 0.191681 -3.97338 0
M  V30 2292 H 211.515 -1.63948 -6.34666 0
M  V30 2293 H 211.035 0.0372116 -5.99788 0
M  V30 2294 H 212.714 -0.33497 -6.46132 0
M  V30 2295 N 212.846 1.57033 -0.133567 0
M  V30 2296 C 214.071 2.00475 0.531477 0
M  V30 2297 C 214.496 1.01291 1.58499 0
M  V30 2298 O 213.854 -0.0133279 1.81295 0
M  V30 2299 C 213.902 3.42729 1.12113 0
M  V30 2300 O 213.006 3.46498 2.23636 0
M  V30 2301 H 212.347 0.650876 0.131362 0
M  V30 2302 H 214.877 2.03344 -0.22634 0
M  V30 2303 H 214.887 3.81246 1.4531 0
M  V30 2304 H 213.562 4.14428 0.349557 0
M  V30 2305 H 212.139 3.19811 1.91769 0
M  V30 2306 N 214.325 -0.140222 1.56975 0
M  V30 2307 C 215.273 -1.19207 1.99731 0
M  V30 2308 C 216.267 -1.44089 0.890777 0
M  V30 2309 O 217.473 -1.44301 1.07597 0
M  V30 2310 H 213.848 -0.40142 0.635898 0
M  V30 2311 H 215.819 -0.804813 2.87342 0
M  V30 2312 C 214.568 -2.51617 2.39967 0
M  V30 2313 H 213.891 -2.33303 3.24669 0
M  V30 2314 H 215.331 -3.23827 2.73701 0
M  V30 2315 C 213.79 -3.12654 1.25496 0
M  V30 2316 O 214.32 -3.97786 0.559371 0
M  V30 2317 N 212.526 -2.72206 1.01746 0
M  V30 2318 H 212.073 -2.03074 1.58489 0
M  V30 2319 H 212.031 -3.13377 0.253461 0
M  V30 2320 N 215.803 -1.52179 -0.40978 0
M  V30 2321 C 217.052 -1.65434 -1.15388 0
M  V30 2322 C 217.365 -0.390056 -1.91671 0
M  V30 2323 O 218.571 -0.402399 -2.68501 0
M  V30 2324 C 217.027 -2.92279 -2.10003 0
M  V30 2325 C 216.635 -4.25813 -1.39239 0
M  V30 2326 C 218.379 -3.14897 -2.84675 0
M  V30 2327 C 216.286 -5.43782 -2.32498 0
M  V30 2328 H 215.216 -0.616267 -0.434432 0
M  V30 2329 H 217.867 -1.78666 -0.418401 0
M  V30 2330 H 216.249 -2.72744 -2.871 0
M  V30 2331 H 217.423 -4.55828 -0.675099 0
M  V30 2332 H 215.738 -4.09292 -0.766097 0
M  V30 2333 H 218.335 -4.0021 -3.54593 0
M  V30 2334 H 218.678 -2.29103 -3.47588 0
M  V30 2335 H 219.211 -3.34901 -2.14677 0
M  V30 2336 H 215.95 -6.3192 -1.74233 0
M  V30 2337 H 215.47 -5.18106 -3.02201 0
M  V30 2338 H 217.149 -5.76834 -2.93038 0
M  V30 2339 N 217.281 0.66697 -1.42791 0
M  V30 2340 C 218.509 1.45505 -1.47091 0
M  V30 2341 C 218.924 1.8861 -0.0845873 0
M  V30 2342 O 218.281 1.58632 0.90234 0
M  V30 2343 C 218.332 2.69906 -2.40485 0
M  V30 2344 O 218.053 2.28608 -3.73725 0
M  V30 2345 C 219.554 3.63396 -2.53886 0
M  V30 2346 H 216.774 0.447459 -0.500022 0
M  V30 2347 H 219.318 0.818866 -1.8739 0
M  V30 2348 H 217.473 3.29696 -2.03419 0
M  V30 2349 H 217.887 3.08997 -4.23817 0
M  V30 2350 H 219.361 4.47387 -3.2334 0
M  V30 2351 H 219.838 4.09824 -1.57927 0
M  V30 2352 H 220.444 3.09495 -2.91706 0
M  V30 2353 N 218.759 1.29093 0.90403 0
M  V30 2354 C 219.669 1.15727 2.0407 0
M  V30 2355 C 220.685 0.0815308 1.73809 0
M  V30 2356 O 221.861 0.292749 1.99261 0
M  V30 2357 C 218.926 0.830424 3.36608 0
M  V30 2358 C 217.987 1.98955 3.80415 0
M  V30 2359 C 217.22 1.6782 5.06628 0
M  V30 2360 O 217.443 0.597105 5.67266 0
M  V30 2361 O 216.377 2.52486 5.46383 0
M  V30 2362 H 220.203 2.11171 2.18267 0
M  V30 2363 H 217.788 1.08504 1.027 0
M  V30 2364 H 219.67 0.662521 4.16159 0
M  V30 2365 H 218.345 -0.0942678 3.23563 0
M  V30 2366 H 217.252 2.21267 3.01648 0
M  V30 2367 H 218.585 2.89529 3.98037 0
M  V30 2368 N 220.237 -1.11381 1.11499 0
M  V30 2369 C 221.185 -2.19522 0.768956 0
M  V30 2370 C 222.179 -1.67693 -0.239857 0
M  V30 2371 O 223.385 -1.79727 -0.0990755 0
M  V30 2372 H 219.76 -0.715711 0.230786 0
M  V30 2373 H 221.731 -2.45954 1.68964 0
M  V30 2374 C 220.48 -3.46945 0.229073 0
M  V30 2375 H 219.803 -3.8718 0.996596 0
M  V30 2376 H 221.243 -4.23993 0.0251441 0
M  V30 2377 C 219.702 -3.2042 -1.04079 0
M  V30 2378 O 220.232 -3.41178 -2.12038 0
M  V30 2379 N 218.438 -2.74151 -0.963823 0
M  V30 2380 H 217.985 -2.57459 -0.0851722 0
M  V30 2381 H 217.943 -2.56781 -1.81414 0
M  V30 2382 N 221.715 -0.905404 -1.28997 0
M  V30 2383 C 222.961 -0.535039 -1.95615 0
M  V30 2384 C 223.294 0.917404 -1.71165 0
M  V30 2385 O 222.569 1.65123 -1.02785 0
M  V30 2386 C 222.852 -0.834918 -3.50287 0
M  V30 2387 C 222.705 -2.33948 -3.84172 0
M  V30 2388 C 224.024 -0.325318 -4.38896 0
M  V30 2389 H 221.143 -0.195861 -0.710498 0
M  V30 2390 H 223.785 -1.13313 -1.52513 0
M  V30 2391 H 221.935 -0.325904 -3.87131 0
M  V30 2392 H 223.607 -2.91847 -3.57243 0
M  V30 2393 H 221.85 -2.79789 -3.31513 0
M  V30 2394 H 222.521 -2.49987 -4.92149 0
M  V30 2395 H 224.997 -0.761256 -4.09077 0
M  V30 2396 H 223.873 -0.564295 -5.45992 0
M  V30 2397 H 224.134 0.774144 -4.35269 0
M  V30 2398 N 223.193 1.4272 -0.668489 0
M  V30 2399 C 224.423 2.05668 -0.196063 0
M  V30 2400 C 224.831 1.5028 1.14946 0
M  V30 2401 O 224.174 0.6348 1.72383 0
M  V30 2402 C 224.236 3.59469 -0.0468879 0
M  V30 2403 C 223.9 4.37518 -1.32012 0
M  V30 2404 C 224.897 4.68584 -2.25222 0
M  V30 2405 C 222.582 4.77266 -1.56596 0
M  V30 2406 C 224.576 5.38326 -3.41297 0
M  V30 2407 C 222.263 5.4675 -2.72962 0
M  V30 2408 C 223.261 5.77204 -3.65137 0
M  V30 2409 O 222.949 6.45264 -4.79468 0
M  V30 2410 H 222.681 0.669382 -0.0943599 0
M  V30 2411 H 225.235 1.83954 -0.913788 0
M  V30 2412 H 223.465 3.79817 0.726357 0
M  V30 2413 H 225.154 4.04071 0.384852 0
M  V30 2414 H 225.92 4.38382 -2.07477 0
M  V30 2415 H 221.799 4.52959 -0.857249 0
M  V30 2416 H 225.343 5.62014 -4.13263 0
M  V30 2417 H 221.24 5.76369 -2.90635 0
M  V30 2418 H 222.008 6.63753 -4.78931 0
M  V30 2419 N 224.671 0.411399 1.52136 0
M  V30 2420 C 225.92 -0.165009 2.01024 0
M  V30 2421 C 226.233 -1.4603 1.30133 0
M  V30 2422 O 227.439 -2.1181 1.69849 0
M  V30 2423 C 225.895 -0.344618 3.58246 0
M  V30 2424 C 225.503 0.938716 4.38055 0
M  V30 2425 C 227.247 -0.876195 4.15359 0
M  V30 2426 C 225.154 0.726172 5.86925 0
M  V30 2427 H 224.084 -0.0654407 0.751155 0
M  V30 2428 H 226.735 0.537192 1.75461 0
M  V30 2429 H 225.117 -1.10921 3.80148 0
M  V30 2430 H 226.291 1.70963 4.27912 0
M  V30 2431 H 224.606 1.39688 3.92271 0
M  V30 2432 H 227.203 -1.05128 5.24263 0
M  V30 2433 H 227.546 -1.85152 3.7286 0
M  V30 2434 H 228.079 -0.170607 3.97434 0
M  V30 2435 H 224.818 1.67312 6.33788 0
M  V30 2436 H 224.338 -0.00540283 5.998 0
M  V30 2437 H 226.017 0.369231 6.45946 0
M  V30 2438 N 226.149 -1.5696 0.141893 0
M  V30 2439 C 227.097 -2.17784 -0.816874 0
M  V30 2440 C 228.091 -1.1334 -1.25899 0
M  V30 2441 O 229.297 -1.316 -1.22806 0
M  V30 2442 H 225.672 -0.697278 -0.281615 0
M  V30 2443 H 227.643 -2.97087 -0.279621 0
M  V30 2444 C 226.392 -2.80983 -2.04802 0
M  V30 2445 H 225.715 -3.61062 -1.7168 0
M  V30 2446 H 227.155 -3.2705 -2.69841 0
M  V30 2447 C 225.614 -1.79228 -2.8527 0
M  V30 2448 O 226.144 -1.25962 -3.8144 0
M  V30 2449 N 224.35 -1.48647 -2.49704 0
M  V30 2450 H 223.897 -1.92155 -1.71564 0
M  V30 2451 H 223.855 -0.808115 -3.03837 0
M  V30 2452 N 227.627 0.131896 -1.57047 0
M  V30 2453 C 228.557 1.16384 -2.02428 0
M  V30 2454 C 229.538 1.43936 -0.90644 0
M  V30 2455 O 230.723 1.54599 -1.17528 0
M  V30 2456 C 227.853 2.49328 -2.4177 0
M  V30 2457 C 226.807 2.36266 -3.56879 0
M  V30 2458 C 226.133 3.74057 -3.8208 0
M  V30 2459 C 227.433 1.834 -4.89042 0
M  V30 2460 H 229.127 0.786433 -2.88887 0
M  V30 2461 H 226.673 0.376855 -1.38981 0
M  V30 2462 H 228.626 3.21759 -2.7212 0
M  V30 2463 H 227.35 2.88934 -1.52266 0
M  V30 2464 H 226.009 1.66286 -3.26718 0
M  V30 2465 H 225.657 4.11125 -2.89803 0
M  V30 2466 H 225.357 3.66174 -4.59554 0
M  V30 2467 H 226.881 4.48012 -4.1487 0
M  V30 2468 H 228.295 2.45636 -5.18011 0
M  V30 2469 H 226.692 1.8637 -5.70426 0
M  V30 2470 H 227.762 0.790662 -4.7841 0
M  V30 2471 N 229.106 1.52395 0.401703 0
M  V30 2472 C 230.334 1.70676 1.16949 0
M  V30 2473 C 230.749 0.419503 1.8408 0
M  V30 2474 O 230.106 -0.605061 1.72178 0
M  V30 2475 C 230.157 2.84753 2.22706 0
M  V30 2476 O 229.878 4.08495 1.58314 0
M  V30 2477 C 231.379 3.14608 3.12309 0
M  V30 2478 H 228.599 0.571787 0.351142 0
M  V30 2479 H 231.143 1.98987 0.471652 0
M  V30 2480 H 229.298 2.58941 2.88147 0
M  V30 2481 H 229.712 4.72117 2.28485 0
M  V30 2482 H 231.186 3.97923 3.82572 0
M  V30 2483 H 231.663 2.28464 3.75101 0
M  V30 2484 H 232.269 3.42212 2.52529 0
M  V30 2485 N 230.584 -0.659388 1.43143 0
M  V30 2486 C 231.824 -1.43121 1.45931 0
M  V30 2487 C 232.188 -1.91838 0.0789298 0
M  V30 2488 O 233.389 -2.68794 -0.018491 0
M  V30 2489 C 231.66 -2.58534 2.46769 0
M  V30 2490 S 233.219 -3.47154 2.68384 0
M  V30 2491 H 230.037 -0.488624 0.516496 0
M  V30 2492 H 232.639 -0.766128 1.79863 0
M  V30 2493 H 231.343 -2.21007 3.45809 0
M  V30 2494 H 230.874 -3.29898 2.14315 0
M  V30 2495 H 232.889 -4.55051 1.97845 0
M  V30 2496 N 232.062 -1.29571 -0.897171 0
M  V30 2497 C 233.287 -1.20705 -1.68656 0
M  V30 2498 C 233.712 0.228582 -1.86706 0
M  V30 2499 O 233.07 1.16494 -1.3892 0
M  V30 2500 C 233.118 -1.9282 -3.04717 0
M  V30 2501 O 232.222 -1.24697 -3.93096 0
M  V30 2502 H 231.563 -0.418126 -0.515816 0
M  V30 2503 H 234.093 -1.71183 -1.12061 0
M  V30 2504 H 234.103 -2.01372 -3.54843 0
M  V30 2505 H 232.778 -2.97239 -2.90899 0
M  V30 2506 H 231.355 -1.2442 -3.51531 0
M  V30 2507 N 233.54 1.10788 -1.12088 0
M  V30 2508 C 234.765 1.87002 -0.896949 0
M  V30 2509 C 235.19 1.79933 0.548261 0
M  V30 2510 O 234.548 1.16662 1.38779 0
M  V30 2511 C 234.596 3.3349 -1.37174 0
M  V30 2512 O 233.7 4.08745 -0.547831 0
M  V30 2513 H 233.041 0.580397 -0.322545 0
M  V30 2514 H 235.571 1.39996 -1.49206 0
M  V30 2515 H 235.581 3.84339 -1.36922 0
M  V30 2516 H 234.256 3.37951 -2.42408 0
M  V30 2517 H 232.833 3.6776 -0.617034 0
M  V30 2518 N 235.018 0.912232 1.28515 0
M  V30 2519 C 236.267 0.540504 1.94323 0
M  V30 2520 C 236.58 -0.920044 1.72611 0
M  V30 2521 O 237.786 -1.39986 2.32629 0
M  V30 2522 C 236.242 0.915803 3.48053 0
M  V30 2523 C 235.85 2.39598 3.78546 0
M  V30 2524 C 237.594 0.614588 4.20027 0
M  V30 2525 C 235.501 2.71148 5.25578 0
M  V30 2526 H 234.431 0.198418 0.727424 0
M  V30 2527 H 237.082 1.11094 1.46049 0
M  V30 2528 H 235.464 0.274168 3.9505 0
M  V30 2529 H 236.638 3.08422 3.42364 0
M  V30 2530 H 234.953 2.66749 3.1974 0
M  V30 2531 H 237.55 0.827002 5.28266 0
M  V30 2532 H 237.893 -0.447531 4.13887 0
M  V30 2533 H 238.426 1.21462 3.78803 0
M  V30 2534 H 235.165 3.76207 5.36794 0
M  V30 2535 H 234.685 2.0696 5.62963 0
M  V30 2536 H 236.364 2.58072 5.93302 0
M  V30 2537 N 236.496 -1.42363 0.676048 0
M  V30 2538 C 237.446 -2.27987 -0.0242903 0
M  V30 2539 C 238.43 -1.41153 -0.772319 0
M  V30 2540 O 239.622 -1.64592 -0.651025 0
M  V30 2541 C 236.751 -3.29195 -0.973953 0
M  V30 2542 C 235.837 -4.23512 -0.223202 0
M  V30 2543 N 236.228 -4.99865 0.772589 0
M  V30 2544 C 234.526 -4.43606 -0.461469 0
M  V30 2545 C 235.227 -5.68757 1.22027 0
M  V30 2546 N 234.203 -5.40811 0.549975 0
M  V30 2547 H 238.005 -2.84445 0.73949 0
M  V30 2548 H 235.519 -1.54341 0.50522 0
M  V30 2549 H 237.516 -3.89339 -1.49067 0
M  V30 2550 H 236.176 -2.74298 -1.73755 0
M  V30 2551 H 237.187 -5.04921 1.15217 0
M  V30 2552 H 233.864 -3.99749 -1.20446 0
M  V30 2553 H 235.254 -6.40007 2.0455 0
M  V30 2554 N 237.974 -0.419461 -1.51915 0
M  V30 2555 C 239.222 0.152637 -2.01523 0
M  V30 2556 C 239.543 1.44762 -1.30649 0
M  V30 2557 O 238.813 1.90997 -0.435535 0
M  V30 2558 H 237.393 0.0593966 -0.744635 0
M  V30 2559 H 240.055 -0.558073 -1.86739 0
M  V30 2560 H 239.151 0.341369 -3.10227 0
M  V30 2561 N 239.452 1.56882 -0.150215 0
M  V30 2562 C 240.682 2.00302 0.506213 0
M  V30 2563 C 241.09 1.02934 1.58749 0
M  V30 2564 O 240.433 0.0188384 1.8369 0
M  V30 2565 C 240.495 3.40156 1.16337 0
M  V30 2566 C 240.159 4.56439 0.226311 0
M  V30 2567 C 241.156 5.17012 -0.547265 0
M  V30 2568 C 238.841 5.02136 0.128279 0
M  V30 2569 C 240.835 6.21693 -1.40629 0
M  V30 2570 C 238.522 6.06672 -0.734345 0
M  V30 2571 C 239.52 6.6632 -1.50023 0
M  V30 2572 O 239.208 7.68831 -2.34848 0
M  V30 2573 H 238.94 0.662182 0.135984 0
M  V30 2574 H 241.494 2.03961 -0.242746 0
M  V30 2575 H 239.724 3.33346 1.96004 0
M  V30 2576 H 241.413 3.67663 1.71985 0
M  V30 2577 H 242.179 4.82603 -0.48158 0
M  V30 2578 H 238.058 4.55435 0.714157 0
M  V30 2579 H 241.602 6.68179 -2.00455 0
M  V30 2580 H 237.499 6.40507 -0.801309 0
M  V30 2581 H 238.267 7.86065 -2.28131 0
M  V30 2582 N 240.93 -0.123565 1.57115 0
M  V30 2583 C 242.341 -0.681198 1.73829 0
M  V30 2584 C 242.692 -1.80535 0.768214 0
M  V30 2585 O 241.817 -2.16317 -0.0599103 0
M  V30 2586 C 242.412 -1.24246 3.15196 0
M  V30 2587 C 240.971 -1.74643 3.33432 0
M  V30 2588 C 240.118 -0.644284 2.69711 0
M  V30 2589 H 243.069 0.102315 1.5837 0
M  V30 2590 H 243.09 -2.11216 3.16493 0
M  V30 2591 H 242.602 -0.424062 3.85776 0
M  V30 2592 H 240.703 -2.58974 2.67886 0
M  V30 2593 H 240.816 -1.85902 4.41562 0
M  V30 2594 H 239.18 -1.07676 2.3082 0
M  V30 2595 H 239.963 0.163058 3.42913 0
M  V30 2596 N 242.408 -1.52605 -0.393616 0
M  V30 2597 C 243.318 -1.79971 -1.50492 0
M  V30 2598 C 244.334 -0.686181 -1.59899 0
M  V30 2599 O 245.51 -0.973274 -1.76322 0
M  V30 2600 C 242.575 -1.95867 -2.86072 0
M  V30 2601 C 241.636 -3.19781 -2.86424 0
M  V30 2602 C 240.869 -3.34909 -4.15538 0
M  V30 2603 O 241.092 -2.54948 -5.10253 0
M  V30 2604 O 240.026 -4.28141 -4.23059 0
M  V30 2605 H 243.852 -2.74328 -1.30299 0
M  V30 2606 H 241.437 -1.3764 -0.581005 0
M  V30 2607 H 243.319 -2.08056 -3.66457 0
M  V30 2608 H 241.994 -1.04699 -3.063 0
M  V30 2609 H 240.901 -3.13038 -2.04837 0
M  V30 2610 H 242.234 -4.1078 -2.71147 0
M  V30 2611 N 243.887 0.651787 -1.4349 0
M  V30 2612 C 245.298 1.233 -1.40193 0
M  V30 2613 C 245.649 1.9591 -0.106727 0
M  V30 2614 O 244.774 2.01316 0.793773 0
M  V30 2615 C 245.369 2.24257 -2.53957 0
M  V30 2616 C 243.928 2.77852 -2.5392 0
M  V30 2617 C 243.075 1.52517 -2.3159 0
M  V30 2618 H 246.026 0.443717 -1.52371 0
M  V30 2619 H 246.047 3.0646 -2.25528 0
M  V30 2620 H 245.559 1.71382 -3.4821 0
M  V30 2621 H 243.66 3.34786 -1.63551 0
M  V30 2622 H 243.773 3.25299 -3.51735 0
M  V30 2623 H 242.137 1.79915 -1.80285 0
M  V30 2624 H 242.92 1.01574 -3.27929 0
M  V30 2625 N 245.365 1.30045 0.890287 0
M  V30 2626 C 246.312 1.15976 1.99545 0
M  V30 2627 C 247.282 0.0506202 1.66023 0
M  V30 2628 O 248.467 0.219847 1.89529 0
M  V30 2629 C 245.607 0.852054 3.34416 0
M  V30 2630 C 244.72 2.04255 3.80662 0
M  V30 2631 C 243.855 1.6734 5.04154 0
M  V30 2632 C 242.894 2.82916 5.42794 0
M  V30 2633 N 242.031 2.46333 6.57468 0
M  V30 2634 H 246.871 2.10524 2.10911 0
M  V30 2635 H 244.408 1.04749 1.03276 0
M  V30 2636 H 246.366 0.654296 4.12037 0
M  V30 2637 H 244.996 -0.0565502 3.2275 0
M  V30 2638 H 244.048 2.35172 2.98995 0
M  V30 2639 H 245.36 2.90826 4.05242 0
M  V30 2640 H 244.514 1.43908 5.89386 0
M  V30 2641 H 243.253 0.779308 4.81433 0
M  V30 2642 H 242.258 3.0702 4.56091 0
M  V30 2643 H 243.483 3.73004 5.6749 0
M  V30 2644 H 241.429 1.59423 6.36334 0
M  V30 2645 H 241.346 3.26436 6.81891 0
M  V30 2646 H 242.614 2.26244 7.45945 0
M  V30 2647 N 246.843 -1.10192 1.12674 0
M  V30 2648 C 247.79 -2.16606 0.796906 0
M  V30 2649 C 248.76 -1.64394 -0.237476 0
M  V30 2650 O 249.945 -1.90474 -0.111484 0
M  V30 2651 C 247.085 -3.44116 0.26043 0
M  V30 2652 C 246.198 -4.10268 1.35293 0
M  V30 2653 C 245.333 -5.25507 0.775621 0
M  V30 2654 C 244.372 -5.83567 1.84706 0
M  V30 2655 N 243.509 -6.90179 1.28829 0
M  V30 2656 H 248.349 -2.44163 1.70846 0
M  V30 2657 H 245.886 -1.19846 0.85295 0
M  V30 2658 H 247.844 -4.17143 -0.0686814 0
M  V30 2659 H 246.474 -3.16901 -0.614274 0
M  V30 2660 H 245.526 -3.35184 1.79877 0
M  V30 2661 H 246.838 -4.4946 2.16303 0
M  V30 2662 H 245.992 -6.05398 0.397327 0
M  V30 2663 H 244.731 -4.87656 -0.0656581 0
M  V30 2664 H 243.736 -5.02344 2.23452 0
M  V30 2665 H 244.961 -6.23482 2.69161 0
M  V30 2666 H 242.907 -6.54322 0.468881 0
M  V30 2667 H 242.824 -7.28097 2.03497 0
M  V30 2668 H 244.092 -7.73844 0.937311 0
M  V30 2669 N 248.321 -0.919034 -1.28029 0
M  V30 2670 C 249.254 -0.355887 -2.25408 0
M  V30 2671 C 250.232 0.542874 -1.5327 0
M  V30 2672 O 251.416 0.485338 -1.82145 0
M  V30 2673 C 248.543 0.490759 -3.35126 0
M  V30 2674 C 247.589 -0.343358 -4.25116 0
M  V30 2675 S 248.422 -1.75344 -5.05979 0
M  V30 2676 C 249.578 -0.914244 -6.19187 0
M  V30 2677 H 249.811 -1.18123 -2.72826 0
M  V30 2678 H 247.344 -0.720636 -1.36551 0
M  V30 2679 H 249.302 0.973404 -3.98792 0
M  V30 2680 H 247.963 1.29054 -2.86363 0
M  V30 2681 H 247.156 0.304266 -5.03081 0
M  V30 2682 H 246.758 -0.759851 -3.662 0
M  V30 2683 H 249.05 -0.146282 -6.77342 0
M  V30 2684 H 249.993 -1.66661 -6.88208 0
M  V30 2685 H 250.401 -0.460082 -5.62622 0
M  V30 2686 N 249.799 1.42003 -0.683588 0
M  V30 2687 C 251.024 2.06265 -0.216647 0
M  V30 2688 C 251.449 1.51059 1.12083 0
M  V30 2689 O 250.807 0.632638 1.69904 0
M  V30 2690 C 250.855 3.60191 -0.171759 0
M  V30 2691 O 249.959 4.03396 0.857069 0
M  V30 2692 H 249.3 0.65502 -0.108834 0
M  V30 2693 H 251.83 1.81982 -0.935077 0
M  V30 2694 H 251.84 4.08 0.0014303 0
M  V30 2695 H 250.515 3.99743 -1.14796 0
M  V30 2696 H 249.092 3.67117 0.654208 0
M  V30 2697 N 251.277 0.427512 1.51691 0
M  V30 2698 C 252.523 -0.142439 2.02299 0
M  V30 2699 C 252.856 -1.43214 1.31162 0
M  V30 2700 O 252.131 -1.89833 0.423511 0
M  V30 2701 C 252.414 -0.371301 3.58181 0
M  V30 2702 C 252.267 0.936358 4.39946 0
M  V30 2703 C 253.586 -1.14542 4.24933 0
M  V30 2704 H 250.705 -0.0502937 0.735282 0
M  V30 2705 H 253.347 0.564584 1.81418 0
M  V30 2706 H 251.497 -0.973559 3.76104 0
M  V30 2707 H 253.169 1.57184 4.33694 0
M  V30 2708 H 251.412 1.5432 4.05423 0
M  V30 2709 H 252.083 0.730388 5.47147 0
M  V30 2710 H 254.559 -0.635362 4.11221 0
M  V30 2711 H 253.435 -1.27431 5.33903 0
M  V30 2712 H 253.696 -2.17093 3.85127 0
M  V30 2713 N 252.755 -1.56801 0.158532 0
M  V30 2714 C 253.685 -2.20347 -0.772609 0
M  V30 2715 C 254.666 -1.15518 -1.24859 0
M  V30 2716 O 255.851 -1.43902 -1.30406 0
M  V30 2717 C 252.981 -2.83417 -2.00729 0
M  V30 2718 C 251.935 -3.94174 -1.66765 0
M  V30 2719 C 251.261 -4.44233 -2.97592 0
M  V30 2720 C 252.561 -5.14392 -0.905447 0
M  V30 2721 H 254.255 -2.98413 -0.242959 0
M  V30 2722 H 251.801 -1.43537 -0.115419 0
M  V30 2723 H 253.754 -3.26543 -2.6636 0
M  V30 2724 H 252.478 -2.02701 -2.56086 0
M  V30 2725 H 251.137 -3.51684 -1.03508 0
M  V30 2726 H 250.785 -3.60325 -3.50963 0
M  V30 2727 H 250.485 -5.18945 -2.75626 0
M  V30 2728 H 252.009 -4.90037 -3.64274 0
M  V30 2729 H 253.423 -5.5429 -1.46408 0
M  V30 2730 H 251.82 -5.9494 -0.7853 0
M  V30 2731 H 252.89 -4.84795 0.100668 0
M  V30 2732 N 254.233 0.115231 -1.57178 0
M  V30 2733 C 255.163 1.1423 -2.03651 0
M  V30 2734 C 256.144 1.42967 -0.921655 0
M  V30 2735 O 257.329 1.53343 -1.19162 0
M  V30 2736 C 254.459 2.4675 -2.44401 0
M  V30 2737 C 253.413 2.32467 -3.59365 0
M  V30 2738 C 252.739 3.69984 -3.86026 0
M  V30 2739 C 254.039 1.78203 -4.90959 0
M  V30 2740 H 255.733 0.755749 -2.89705 0
M  V30 2741 H 253.279 0.362093 -1.39373 0
M  V30 2742 H 255.232 3.18854 -2.75517 0
M  V30 2743 H 253.956 2.87302 -1.55322 0
M  V30 2744 H 252.615 1.62811 -3.28463 0
M  V30 2745 H 252.263 4.08028 -2.94147 0
M  V30 2746 H 251.963 3.61279 -4.63412 0
M  V30 2747 H 253.487 4.43587 -4.19599 0
M  V30 2748 H 254.901 2.40128 -5.20587 0
M  V30 2749 H 253.298 1.8031 -5.72371 0
M  V30 2750 H 254.368 0.739876 -4.79222 0
M  V30 2751 N 255.711 1.52812 0.385517 0
M  V30 2752 C 257.127 1.4214 0.725829 0
M  V30 2753 C 257.327 0.544589 1.94001 0
M  V30 2754 O 256.383 0.0193693 2.52493 0
M  V30 2755 C 257.696 2.85042 0.957668 0
M  V30 2756 C 259.244 2.94543 1.05892 0
M  V30 2757 C 259.719 4.38464 1.32337 0
M  V30 2758 N 261.21 4.41804 1.39151 0
M  V30 2759 C 261.945 5.5025 1.61285 0
M  V30 2760 N 261.441 6.68775 1.80866 0
M  V30 2761 N 263.234 5.37798 1.63492 0
M  V30 2762 H 255.385 2.08338 -0.413383 0
M  V30 2763 H 257.648 0.940016 -0.122775 0
M  V30 2764 H 257.354 3.51431 0.137568 0
M  V30 2765 H 257.228 3.27505 1.87137 0
M  V30 2766 H 259.615 2.28321 1.86959 0
M  V30 2767 H 259.696 2.55504 0.123057 0
M  V30 2768 H 259.34 5.05254 0.517793 0
M  V30 2769 H 259.27 4.75059 2.27214 0
M  V30 2770 H 261.761 3.56377 1.25713 0
M  V30 2771 H 262.074 7.47197 1.97271 0
M  V30 2772 H 260.419 6.71797 1.78083 0
M  V30 2773 H 263.61 4.44171 1.47749 0
M  V30 2774 H 263.783 6.22382 1.80402 0
M  V30 2775 N 257.189 -0.644168 1.43834 0
M  V30 2776 C 258.417 -1.43147 1.49387 0
M  V30 2777 C 258.832 -1.88452 0.114583 0
M  V30 2778 O 258.189 -1.60047 -0.876989 0
M  V30 2779 C 258.24 -2.66046 2.44748 0
M  V30 2780 O 257.961 -2.22633 3.77314 0
M  V30 2781 C 259.462 -3.59311 2.59635 0
M  V30 2782 H 256.682 -0.439447 0.507077 0
M  V30 2783 H 259.226 -0.78895 1.88669 0
M  V30 2784 H 257.381 -3.26418 2.08638 0
M  V30 2785 H 257.795 -3.02216 4.28679 0
M  V30 2786 H 259.269 -4.42187 3.30416 0
M  V30 2787 H 259.746 -4.07259 1.64427 0
M  V30 2788 H 260.352 -3.04816 2.96593 0
M  V30 2789 N 258.668 -1.30515 -0.883378 0
M  V30 2790 C 259.615 -1.17032 -1.98927 0
M  V30 2791 C 260.585 -0.0594241 -1.65994 0
M  V30 2792 O 261.77 -0.229895 -1.8941 0
M  V30 2793 C 258.91 -0.869777 -3.33959 0
M  V30 2794 C 258.023 -2.06271 -3.79574 0
M  V30 2795 C 257.158 -1.70011 -5.03259 0
M  V30 2796 C 256.197 -2.8579 -5.41286 0
M  V30 2797 N 255.334 -2.49816 -6.56153 0
M  V30 2798 H 260.174 -2.1164 -2.09792 0
M  V30 2799 H 257.711 -1.05296 -1.02719 0
M  V30 2800 H 259.669 -0.676138 -4.11685 0
M  V30 2801 H 258.299 0.0394332 -3.22776 0
M  V30 2802 H 257.351 -2.36755 -2.97744 0
M  V30 2803 H 258.663 -2.92971 -4.03694 0
M  V30 2804 H 257.817 -1.47032 -5.88614 0
M  V30 2805 H 256.556 -0.804829 -4.81013 0
M  V30 2806 H 255.561 -3.09434 -4.54456 0
M  V30 2807 H 256.786 -3.76008 -5.65504 0
M  V30 2808 H 254.732 -1.62795 -6.35479 0
M  V30 2809 H 254.649 -3.30048 -6.8015 0
M  V30 2810 H 255.917 -2.30197 -7.44735 0
M  V30 2811 N 260.146 1.09593 -1.13257 0
M  V30 2812 C 261.094 2.18271 -0.803783 0
M  V30 2813 C 262.088 1.68054 0.213148 0
M  V30 2814 O 263.294 1.79862 0.0704699 0
M  V30 2815 H 259.669 0.711949 -0.242143 0
M  V30 2816 H 261.64 2.43235 -1.72856 0
M  V30 2817 C 260.389 3.46536 -0.28424 0
M  V30 2818 H 259.712 3.85545 -1.05807 0
M  V30 2819 H 261.152 4.23899 -0.0925945 0
M  V30 2820 C 259.611 3.22036 0.989684 0
M  V30 2821 O 260.141 3.44509 2.06584 0
M  V30 2822 N 258.347 2.7565 0.920086 0
M  V30 2823 H 257.894 2.57562 0.0442019 0
M  V30 2824 H 257.852 2.59635 1.77306 0
M  V30 2825 N 261.624 0.925811 1.2754 0
M  V30 2826 C 262.849 0.580924 1.99098 0
M  V30 2827 C 263.274 -0.833555 1.68622 0
M  V30 2828 O 262.632 -1.55903 0.925422 0
M  V30 2829 C 262.68 0.811186 3.51358 0
M  V30 2830 O 261.784 -0.124129 4.12213 0
M  V30 2831 H 261.125 0.223873 0.625122 0
M  V30 2832 H 263.655 1.24455 1.62395 0
M  V30 2833 H 263.665 0.72601 4.01489 0
M  V30 2834 H 262.34 1.84227 3.72872 0
M  V30 2835 H 260.917 0.0108006 3.72898 0
M  V30 2836 N 263.102 -1.41638 0.69111 0
M  V30 2837 C 264.33 -2.05628 0.22909 0
M  V30 2838 C 264.745 -1.51992 -1.11999 0
M  V30 2839 O 264.102 -0.666322 -1.69901 0
M  V30 2840 C 264.153 -3.61084 0.173283 0
M  V30 2841 O 263.874 -4.12735 1.46907 0
M  V30 2842 C 265.375 -4.42213 -0.310266 0
M  V30 2843 H 262.595 -0.662327 0.107534 0
M  V30 2844 H 265.139 -1.81489 0.942438 0
M  V30 2845 H 263.294 -3.84278 -0.490858 0
M  V30 2846 H 263.708 -5.06743 1.35322 0
M  V30 2847 H 265.182 -5.51194 -0.298196 0
M  V30 2848 H 265.659 -4.1799 -1.34838 0
M  V30 2849 H 266.265 -4.24074 0.322716 0
M  V30 2850 N 264.58 -0.43555 -1.51462 0
M  V30 2851 C 265.829 0.133007 -2.01261 0
M  V30 2852 C 266.142 1.43942 -1.32439 0
M  V30 2853 O 267.348 2.09081 -1.73198 0
M  V30 2854 C 265.804 0.287581 -3.58749 0
M  V30 2855 C 265.412 -1.00829 -4.36506 0
M  V30 2856 C 267.156 0.810004 -4.167 0
M  V30 2857 C 265.063 -0.819454 -5.85695 0
M  V30 2858 H 263.993 0.0534822 -0.752101 0
M  V30 2859 H 266.644 -0.565038 -1.74584 0
M  V30 2860 H 265.026 1.04859 -3.81865 0
M  V30 2861 H 266.2 -1.77749 -4.25138 0
M  V30 2862 H 264.515 -1.45911 -3.89999 0
M  V30 2863 H 267.112 0.967743 -5.2587 0
M  V30 2864 H 267.455 1.79196 -3.75758 0
M  V30 2865 H 267.988 0.107357 -3.97655 0
M  V30 2866 H 264.727 -1.77374 -6.31046 0
M  V30 2867 H 264.247 -0.0900208 -5.99732 0
M  V30 2868 H 265.926 -0.471949 -6.45276 0
M  V30 2869 N 266.058 1.56714 -0.166846 0
M  V30 2870 C 266.968 2.21331 0.777791 0
M  V30 2871 C 267.984 1.20358 1.25658 0
M  V30 2872 O 269.16 1.53005 1.30964 0
M  V30 2873 C 266.225 2.83787 1.99163 0
M  V30 2874 C 265.286 3.99947 1.56016 0
M  V30 2875 C 264.519 4.59415 2.71613 0
M  V30 2876 O 264.742 4.17769 3.88362 0
M  V30 2877 O 263.676 5.49359 2.45945 0
M  V30 2878 H 267.502 3.02605 0.257636 0
M  V30 2879 H 265.087 1.49275 0.0611393 0
M  V30 2880 H 266.969 3.23405 2.70161 0
M  V30 2881 H 265.644 2.05513 2.50092 0
M  V30 2882 H 264.551 3.65007 0.819809 0
M  V30 2883 H 265.884 4.79801 1.09782 0
M  V30 2884 N 267.536 -0.106894 1.57237 0
M  V30 2885 C 268.766 -0.825191 1.89405 0
M  V30 2886 C 269.174 -1.73374 0.757496 0
M  V30 2887 O 268.517 -1.81552 -0.280115 0
M  V30 2888 C 268.579 -1.70102 3.1671 0
M  V30 2889 C 268.243 -0.965523 4.46684 0
M  V30 2890 C 269.24 -0.300741 5.19029 0
M  V30 2891 C 266.925 -0.943105 4.93367 0
M  V30 2892 C 268.919 0.376622 6.36286 0
M  V30 2893 C 266.606 -0.261949 6.10538 0
M  V30 2894 C 267.604 0.396748 6.81847 0
M  V30 2895 O 267.292 1.06701 7.96787 0
M  V30 2896 H 267.024 -0.241852 0.631255 0
M  V30 2897 H 269.578 -0.0921491 2.05193 0
M  V30 2898 H 267.808 -2.47601 2.97036 0
M  V30 2899 H 269.497 -2.29483 3.34802 0
M  V30 2900 H 270.263 -0.309599 4.84011 0
M  V30 2901 H 266.142 -1.44524 4.3776 0
M  V30 2902 H 269.686 0.891334 6.91882 0
M  V30 2903 H 265.583 -0.250896 6.45012 0
M  V30 2904 H 266.351 0.972707 8.127 0
M  V30 2905 N 269.014 -1.53014 -0.377408 0
M  V30 2906 C 270.291 -1.59215 -1.13622 0
M  V30 2907 C 270.671 -0.392407 -2.07421 0
M  V30 2908 O 270.019 0.618342 -2.19975 0
M  V30 2909 C 270.229 -2.93669 -1.88573 0
M  V30 2910 C 271.577 -3.47822 -2.43526 0
M  V30 2911 O 272.601 -2.9562 -1.98715 0
M  V30 2912 O 271.46 -4.39055 -3.25412 0
M  V30 2913 H 268.554 -0.642625 -0.52054 0
M  V30 2914 H 271.1 -1.65353 -0.381625 0
M  V30 2915 H 269.872 -3.7243 -1.20048 0
M  V30 2916 H 269.495 -2.90968 -2.70968 0
M  V30 2917 N 270.492 0.636531 -1.44174 0
M  V30 2918 C 271.74 1.39343 -1.46383 0
M  V30 2919 C 272.061 1.94766 -0.0955715 0
M  V30 2920 O 271.331 1.75452 0.871395 0
M  V30 2921 H 269.911 0.517199 -0.538994 0
M  V30 2922 H 272.573 0.74957 -1.7991 0
M  V30 2923 H 271.669 2.22746 -2.18611 0
M  V30 2924 N 271.97 1.30982 0.876444 0
M  V30 2925 C 273.216 1.20474 1.63138 0
M  V30 2926 C 273.549 -0.238096 1.92735 0
M  V30 2927 O 272.824 -1.1692 1.55435 0
M  V30 2928 C 273.107 2.04244 2.96574 0
M  V30 2929 C 272.96 3.56793 2.73896 0
M  V30 2930 C 274.279 1.88684 3.97601 0
M  V30 2931 H 271.398 0.439001 0.591985 0
M  V30 2932 H 274.04 1.60704 1.01361 0
M  V30 2933 H 272.19 1.70063 3.493 0
M  V30 2934 H 273.862 4.01077 2.27892 0
M  V30 2935 H 272.105 3.80548 2.08245 0
M  V30 2936 H 272.776 4.10706 3.68815 0
M  V30 2937 H 275.252 2.18584 3.54062 0
M  V30 2938 H 274.128 2.4961 4.88862 0
M  V30 2939 H 274.389 0.848343 4.33884 0
M  V30 2940 N 273.449 -1.08991 1.13837 0
M  V30 2941 C 274.382 -2.15049 0.763477 0
M  V30 2942 C 275.36 -1.60629 -0.252398 0
M  V30 2943 O 276.544 -1.87958 -0.142853 0
M  V30 2944 C 273.671 -3.38441 0.132545 0
M  V30 2945 C 272.717 -4.11596 1.11763 0
M  V30 2946 S 273.55 -4.6521 2.65216 0
M  V30 2947 C 274.706 -5.91896 2.03495 0
M  V30 2948 H 274.939 -2.46518 1.66182 0
M  V30 2949 H 272.472 -1.21008 0.958976 0
M  V30 2950 H 274.43 -4.09883 -0.225074 0
M  V30 2951 H 273.091 -3.05182 -0.743135 0
M  V30 2952 H 272.284 -5.00121 0.624076 0
M  V30 2953 H 271.886 -3.46038 1.41894 0
M  V30 2954 H 274.178 -6.63156 1.38675 0
M  V30 2955 H 275.121 -6.45938 2.9012 0
M  V30 2956 H 275.529 -5.44625 1.48471 0
M  V30 2957 N 274.927 -0.932562 -1.27047 0
M  V30 2958 C 275.859 -0.392734 -2.2581 0
M  V30 2959 C 276.872 0.479241 -1.55586 0
M  V30 2960 O 278.061 0.291078 -1.76111 0
M  V30 2961 C 275.161 0.455456 -3.35826 0
M  V30 2962 C 274.334 -0.398355 -4.35582 0
M  V30 2963 C 273.393 0.387985 -5.24768 0
M  V30 2964 O 272.419 -0.206003 -5.68827 0
M  V30 2965 N 273.621 1.68664 -5.55457 0
M  V30 2966 H 276.386 -1.24173 -2.72766 0
M  V30 2967 H 273.947 -0.800511 -1.40725 0
M  V30 2968 H 275.939 0.988692 -3.92437 0
M  V30 2969 H 274.509 1.20522 -2.88432 0
M  V30 2970 H 273.729 -1.11286 -3.78165 0
M  V30 2971 H 275.017 -0.981889 -4.99236 0
M  V30 2972 H 274.415 2.19147 -5.21528 0
M  V30 2973 H 272.972 2.1663 -6.14748 0
M  V30 2974 N 276.405 1.4127 -0.698611 0
M  V30 2975 C 277.352 2.30773 -0.0352094 0
M  V30 2976 C 278.322 1.47273 0.768111 0
M  V30 2977 O 279.507 1.76053 0.735524 0
M  V30 2978 C 276.647 3.33346 0.893 0
M  V30 2979 C 275.76 4.31924 0.0809695 0
M  V30 2980 C 274.895 5.21566 1.0071 0
M  V30 2981 C 273.934 6.11811 0.188155 0
M  V30 2982 N 273.071 6.93926 1.06825 0
M  V30 2983 H 277.911 2.86943 -0.804207 0
M  V30 2984 H 275.448 1.4132 -0.408294 0
M  V30 2985 H 277.406 3.91368 1.44523 0
M  V30 2986 H 276.036 2.78719 1.62836 0
M  V30 2987 H 275.088 3.75825 -0.588224 0
M  V30 2988 H 276.4 4.95716 -0.553801 0
M  V30 2989 H 275.554 5.84437 1.62845 0
M  V30 2990 H 274.293 4.58008 1.67572 0
M  V30 2991 H 273.298 5.47986 -0.446254 0
M  V30 2992 H 274.523 6.77425 -0.476716 0
M  V30 2993 H 272.469 6.32973 1.72283 0
M  V30 2994 H 272.386 7.54416 0.489123 0
M  V30 2995 H 273.654 7.61262 1.67632 0
M  V30 2996 N 277.883 0.443576 1.51229 0
M  V30 2997 C 279.108 -0.121648 2.07043 0
M  V30 2998 C 279.533 -1.35156 1.30823 0
M  V30 2999 O 278.891 -1.7793 0.347934 0
M  V30 3000 C 278.939 -0.41624 3.5819 0
M  V30 3001 O 278.043 -1.50163 3.8409 0
M  V30 3002 H 277.384 0.000871367 0.663999 0
M  V30 3003 H 279.914 0.626706 1.94765 0
M  V30 3004 H 279.924 -0.664867 4.02546 0
M  V30 3005 H 278.599 0.482653 4.1309 0
M  V30 3006 H 277.176 -1.24248 3.51592 0
M  V30 3007 N 279.361 -1.56624 0.175154 0
M  V30 3008 C 280.293 -2.15333 -0.785128 0
M  V30 3009 C 281.306 -1.1099 -1.19101 0
M  V30 3010 O 282.495 -1.38162 -1.13019 0
M  V30 3011 C 279.595 -2.68427 -2.06882 0
M  V30 3012 C 278.768 -3.97466 -1.8259 0
M  V30 3013 C 277.827 -4.35585 -2.95215 0
M  V30 3014 O 276.853 -5.03389 -2.65684 0
M  V30 3015 N 278.055 -3.97457 -4.23094 0
M  V30 3016 H 280.82 -2.98359 -0.283187 0
M  V30 3017 H 278.381 -1.61898 -0.00749817 0
M  V30 3018 H 280.373 -2.90924 -2.81328 0
M  V30 3019 H 278.943 -1.89968 -2.48256 0
M  V30 3020 H 278.163 -3.83307 -0.920287 0
M  V30 3021 H 279.451 -4.81736 -1.63733 0
M  V30 3022 H 278.849 -3.42878 -4.49945 0
M  V30 3023 H 277.406 -4.24947 -4.9423 0
M  V30 3024 N 280.839 0.0985539 -1.57292 0
M  V30 3025 C 282.116 0.834155 -1.76921 0
M  V30 3026 C 282.496 1.97101 -0.755928 0
M  V30 3027 O 281.844 2.27474 0.216245 0
M  V30 3028 C 282.054 1.33194 -3.22584 0
M  V30 3029 C 283.402 1.77611 -3.85668 0
M  V30 3030 O 284.426 1.42825 -3.26312 0
M  V30 3031 O 283.285 2.4192 -4.90038 0
M  V30 3032 H 280.379 0.397628 -0.725135 0
M  V30 3033 H 282.925 0.0807044 -1.69508 0
M  V30 3034 H 281.697 0.517248 -3.87866 0
M  V30 3035 H 281.32 2.1475 -3.34616 0
M  V30 3036 N 282.317 1.53212 0.369288 0
M  V30 3037 C 283.265 1.80054 1.47253 0
M  V30 3038 C 284.259 0.669456 1.55611 0
M  V30 3039 O 285.465 0.852328 1.58541 0
M  V30 3040 H 281.84 0.570034 0.490475 0
M  V30 3041 H 283.811 2.72403 1.21817 0
M  V30 3042 C 282.56 2.00403 2.84137 0
M  V30 3043 H 281.883 2.86876 2.78464 0
M  V30 3044 H 283.323 2.23164 3.60519 0
M  V30 3045 C 281.782 0.782081 3.27697 0
M  V30 3046 O 282.312 -0.0310205 4.01688 0
M  V30 3047 N 280.518 0.606573 2.84199 0
M  V30 3048 H 280.065 1.26939 2.24152 0
M  V30 3049 H 280.023 -0.20962 3.137 0
M  V30 3050 N 283.795 -0.628877 1.44509 0
M  V30 3051 C 285.041 -1.39045 1.47629 0
M  V30 3052 C 285.374 -1.93892 0.109343 0
M  V30 3053 O 284.649 -1.7379 -0.87334 0
M  V30 3054 C 284.932 -2.55408 2.53848 0
M  V30 3055 C 284.785 -2.05896 3.99909 0
M  V30 3056 C 286.104 -3.5759 2.56549 0
M  V30 3057 H 283.223 -0.504232 0.537512 0
M  V30 3058 H 285.865 -0.710854 1.76201 0
M  V30 3059 H 284.015 -3.13384 2.29615 0
M  V30 3060 H 285.687 -1.52734 4.35282 0
M  V30 3061 H 283.93 -1.37061 4.11578 0
M  V30 3062 H 284.601 -2.89681 4.69882 0
M  V30 3063 H 287.077 -3.09419 2.78207 0
M  V30 3064 H 285.953 -4.36527 3.32769 0
M  V30 3065 H 286.214 -4.11808 1.60832 0
M  V30 3066 N 285.273 -1.31445 -0.869486 0
M  V30 3067 C 286.501 -1.24122 -1.65534 0
M  V30 3068 C 286.916 0.193387 -1.87807 0
M  V30 3069 O 286.273 1.12557 -1.43656 0
M  V30 3070 C 286.324 -1.98229 -3.02304 0
M  V30 3071 O 286.045 -3.3609 -2.81026 0
M  V30 3072 C 287.546 -1.97751 -3.96749 0
M  V30 3073 H 284.766 -0.428868 -0.516055 0
M  V30 3074 H 287.31 -1.73328 -1.08525 0
M  V30 3075 H 285.465 -1.52782 -3.56001 0
M  V30 3076 H 285.879 -3.7383 -3.67902 0
M  V30 3077 H 287.353 -2.54114 -4.90031 0
M  V30 3078 H 287.83 -0.960137 -4.28577 0
M  V30 3079 H 288.436 -2.43079 -3.48988 0
M  V30 3080 N 286.751 1.08385 -1.14413 0
M  V30 3081 C 287.661 2.18856 -0.844951 0
M  V30 3082 C 288.677 1.73121 0.174668 0
M  V30 3083 O 289.853 2.014 0.00312857 0
M  V30 3084 C 286.918 3.45155 -0.32696 0
M  V30 3085 C 285.979 4.05513 -1.40916 0
M  V30 3086 C 285.212 5.25784 -0.915793 0
M  V30 3087 O 285.435 5.69884 0.242651 0
M  V30 3088 O 284.369 5.77545 -1.69487 0
M  V30 3089 H 288.195 2.46919 -1.76818 0
M  V30 3090 H 285.78 1.17524 -0.922411 0
M  V30 3091 H 287.662 4.21377 -0.0440211 0
M  V30 3092 H 286.337 3.18668 0.568539 0
M  V30 3093 H 285.244 3.30879 -1.74556 0
M  V30 3094 H 286.577 4.3625 -2.27919 0
M  V30 3095 N 288.23 0.939286 1.26551 0
M  V30 3096 C 289.16 0.465044 2.28822 0
M  V30 3097 C 290.141 -0.480692 1.63167 0
M  V30 3098 O 291.326 -0.382955 1.90387 0
M  V30 3099 C 288.456 -0.27234 3.46231 0
M  V30 3100 C 287.41 0.58666 4.2396 0
M  V30 3101 C 286.736 -0.280573 5.33963 0
M  V30 3102 C 288.036 1.85704 4.88171 0
M  V30 3103 H 289.73 1.31979 2.68741 0
M  V30 3104 H 287.276 0.636061 1.29191 0
M  V30 3105 H 289.229 -0.615133 4.16886 0
M  V30 3106 H 287.953 -1.16121 3.0526 0
M  V30 3107 H 286.612 0.91232 3.55067 0
M  V30 3108 H 286.26 -1.16874 4.89234 0
M  V30 3109 H 285.96 0.29076 5.8688 0
M  V30 3110 H 287.484 -0.618678 6.07458 0
M  V30 3111 H 288.898 1.58161 5.51052 0
M  V30 3112 H 287.295 2.37279 5.51197 0
M  V30 3113 H 288.365 2.56957 4.11219 0
M  V30 3114 N 289.708 -1.40897 0.706093 0
M  V30 3115 C 290.938 -2.05075 0.250523 0
M  V30 3116 C 291.346 -1.53275 -1.10921 0
M  V30 3117 O 290.689 -0.680281 -1.7064 0
M  V30 3118 C 290.751 -3.59219 0.142178 0
M  V30 3119 C 290.415 -4.33864 1.43566 0
M  V30 3120 C 291.412 -4.62448 2.37566 0
M  V30 3121 C 289.097 -4.72946 1.69195 0
M  V30 3122 C 291.091 -5.29088 3.5545 0
M  V30 3123 C 288.778 -5.3932 2.87362 0
M  V30 3124 C 289.776 -5.6732 3.80312 0
M  V30 3125 O 289.464 -6.32325 4.96408 0
M  V30 3126 H 289.196 -0.666645 0.112074 0
M  V30 3127 H 291.75 -1.81467 0.962239 0
M  V30 3128 H 289.98 -3.81609 -0.6254 0
M  V30 3129 H 291.669 -4.0495 -0.277584 0
M  V30 3130 H 292.435 -4.32727 2.19027 0
M  V30 3131 H 288.314 -4.50527 0.977042 0
M  V30 3132 H 291.858 -5.50859 4.28018 0
M  V30 3133 H 287.755 -5.68461 3.05814 0
M  V30 3134 H 288.523 -6.50821 4.9636 0
M  V30 3135 N 291.186 -0.45159 -1.50991 0
M  V30 3136 C 292.463 0.170707 -1.94854 0
M  V30 3137 C 292.843 1.58788 -1.39103 0
M  V30 3138 O 292.191 2.20913 -0.583921 0
M  V30 3139 C 292.401 0.133929 -3.48743 0
M  V30 3140 C 293.749 0.33248 -4.23296 0
M  V30 3141 O 294.773 0.211403 -3.55572 0
M  V30 3142 O 293.632 0.57486 -5.43468 0
M  V30 3143 H 290.726 0.122264 -0.817912 0
M  V30 3144 H 293.272 -0.510594 -1.61836 0
M  V30 3145 H 292.044 -0.856283 -3.81816 0
M  V30 3146 H 291.667 0.857529 -3.88242 0
M  V30 3147 N 292.664 1.56529 -0.183458 0
M  V30 3148 C 293.91 1.97537 0.459036 0
M  V30 3149 C 294.243 1.06989 1.62071 0
M  V30 3150 O 293.518 0.11948 1.94133 0
M  V30 3151 C 293.801 3.47874 0.930368 0
M  V30 3152 C 293.654 4.492 -0.232317 0
M  V30 3153 C 294.973 4.01612 1.79989 0
M  V30 3154 H 292.092 0.718204 0.165383 0
M  V30 3155 H 294.734 1.88042 -0.272038 0
M  V30 3156 H 292.884 3.56095 1.55333 0
M  V30 3157 H 294.556 4.53027 -0.86972 0
M  V30 3158 H 292.799 4.24657 -0.885928 0
M  V30 3159 H 293.47 5.51823 0.139796 0
M  V30 3160 H 295.946 3.96097 1.27461 0
M  V30 3161 H 294.822 5.07195 2.09867 0
M  V30 3162 H 295.083 3.46163 2.74998 0
M  V30 3163 N 294.142 -0.090211 1.57342 0
M  V30 3164 C 295.367 -0.810082 1.90925 0
M  V30 3165 C 295.792 -1.71248 0.778187 0
M  V30 3166 O 295.15 -1.79278 -0.269991 0
M  V30 3167 C 295.198 -1.59529 3.23393 0
M  V30 3168 O 294.302 -2.70461 3.11327 0
M  V30 3169 H 293.643 -0.222231 0.625707 0
M  V30 3170 H 296.173 -0.0639716 2.045 0
M  V30 3171 H 296.183 -1.97847 3.5682 0
M  V30 3172 H 294.858 -0.933055 4.05299 0
M  V30 3173 H 293.435 -2.35135 2.89423 0
M  V30 3174 N 295.62 -1.53406 -0.361157 0
M  V30 3175 C 296.869 -1.69022 -1.10066 0
M  V30 3176 C 297.182 -0.450838 -1.90333 0
M  V30 3177 O 298.388 -0.487617 -2.67085 0
M  V30 3178 C 296.844 -2.98812 -2.00598 0
M  V30 3179 C 296.452 -4.30027 -1.25621 0
M  V30 3180 C 298.196 -3.23795 -2.74513 0
M  V30 3181 C 296.103 -5.50903 -2.1508 0
M  V30 3182 H 295.033 -0.629776 -0.414606 0
M  V30 3183 H 297.684 -1.79907 -0.361348 0
M  V30 3184 H 296.066 -2.8174 -2.78278 0
M  V30 3185 H 297.24 -4.57745 -0.529739 0
M  V30 3186 H 295.555 -4.11522 -0.635496 0
M  V30 3187 H 298.152 -4.11289 -3.41681 0
M  V30 3188 H 298.495 -2.40045 -3.40123 0
M  V30 3189 H 299.028 -3.41561 -2.03914 0
M  V30 3190 H 295.767 -6.37143 -1.54041 0
M  V30 3191 H 295.287 -5.27459 -2.85565 0
M  V30 3192 H 296.966 -5.85865 -2.74538 0
M  V30 3193 N 297.098 0.621204 -1.44841 0
M  V30 3194 C 298.323 1.41244 -1.51871 0
M  V30 3195 C 298.748 1.87519 -0.147764 0
M  V30 3196 O 298.106 1.59334 0.865 0
M  V30 3197 C 298.154 2.60221 -2.49634 0
M  V30 3198 O 297.258 3.60395 -2.00473 0
M  V30 3199 H 296.599 0.42223 -0.512463 0
M  V30 3200 H 299.129 0.757305 -1.90069 0
M  V30 3201 H 299.139 3.0764 -2.67996 0
M  V30 3202 H 297.814 2.25887 -3.4921 0
M  V30 3203 H 296.391 3.19717 -1.91925 0
M  V30 3204 N 298.576 1.31904 0.862503 0
M  V30 3205 C 299.506 1.22782 1.98612 0
M  V30 3206 C 300.487 0.113362 1.69722 0
M  V30 3207 O 301.672 0.299218 1.91881 0
M  V30 3208 C 298.802 0.942058 3.34279 0
M  V30 3209 C 297.756 2.0169 3.77499 0
M  V30 3210 C 297.082 1.58369 5.10709 0
M  V30 3211 C 298.382 3.43096 3.93805 0
M  V30 3212 H 300.076 2.16788 2.06502 0
M  V30 3213 H 297.622 1.04366 0.992154 0
M  V30 3214 H 299.575 0.864818 4.1243 0
M  V30 3215 H 298.299 -0.0336603 3.26583 0
M  V30 3216 H 296.958 2.08416 3.01593 0
M  V30 3217 H 296.606 0.595628 4.99461 0
M  V30 3218 H 296.306 2.30279 5.40597 0
M  V30 3219 H 297.83 1.52067 5.91361 0
M  V30 3220 H 299.244 3.39003 4.62331 0
M  V30 3221 H 297.641 4.13288 4.35101 0
M  V30 3222 H 298.711 3.83334 2.96957 0
M  V30 3223 N 300.054 -1.07777 1.14986 0
M  V30 3224 C 301.279 -1.84558 0.946213 0
M  V30 3225 C 301.704 -1.81323 -0.500362 0
M  V30 3226 O 301.062 -1.20301 -1.35637 0
M  V30 3227 C 301.11 -3.29736 1.45968 0
M  V30 3228 O 300.214 -4.07149 0.65601 0
M  V30 3229 H 299.555 -0.571641 0.33782 0
M  V30 3230 H 302.085 -1.35991 1.52865 0
M  V30 3231 H 302.095 -3.80574 1.47063 0
M  V30 3232 H 300.77 -3.31406 2.51283 0
M  V30 3233 H 299.347 -3.65994 0.714322 0
M  V30 3234 N 301.532 -0.945985 -1.26051 0
M  V30 3235 C 302.778 -0.597002 -1.93814 0
M  V30 3236 C 303.111 0.862484 -1.73997 0
M  V30 3237 O 302.386 1.61769 -1.07986 0
M  V30 3238 C 302.669 -0.945937 -3.47454 0
M  V30 3239 C 302.522 -2.46052 -3.76535 0
M  V30 3240 C 303.841 -0.464785 -4.37639 0
M  V30 3241 H 300.96 -0.218366 -0.703907 0
M  V30 3242 H 303.602 -1.18107 -1.48831 0
M  V30 3243 H 301.752 -0.448902 -3.85898 0
M  V30 3244 H 303.424 -3.03065 -3.47778 0
M  V30 3245 H 301.667 -2.90194 -3.22444 0
M  V30 3246 H 302.338 -2.65517 -4.83947 0
M  V30 3247 H 304.814 -0.891016 -4.06448 0
M  V30 3248 H 303.69 -0.737712 -5.4392 0
M  V30 3249 H 303.951 0.635274 -4.37512 0
M  V30 3250 N 303.011 1.40521 -0.713556 0
M  V30 3251 C 304.236 2.05759 -0.26035 0
M  V30 3252 C 304.661 1.53403 1.08854 0
M  V30 3253 O 304.019 0.668535 1.68524 0
M  V30 3254 C 304.067 3.59745 -0.248122 0
M  V30 3255 O 303.171 4.05123 0.77131 0
M  V30 3256 H 302.512 0.652564 -0.122703 0
M  V30 3257 H 305.042 1.79958 -0.973467 0
M  V30 3258 H 305.052 4.07911 -0.0851129 0
M  V30 3259 H 303.727 3.97218 -1.2325 0
M  V30 3260 H 302.304 3.68422 0.57619 0
M  V30 3261 N 304.489 0.459591 1.5075 0
M  V30 3262 C 305.736 -0.0993495 2.02256 0
M  V30 3263 C 306.064 -1.40751 1.34237 0
M  V30 3264 O 305.319 -1.90379 0.453228 0
M  V30 3265 C 305.618 -0.342866 3.55752 0
M  V30 3266 C 305.284 0.88218 4.42186 0
M  V30 3267 C 303.946 1.21808 4.65528 0
M  V30 3268 C 306.298 1.69837 4.92752 0
M  V30 3269 C 303.626 2.37045 5.36681 0
M  V30 3270 C 305.978 2.84192 5.65171 0
M  V30 3271 C 304.642 3.1821 5.8677 0
M  V30 3272 H 303.912 -0.0363545 0.740108 0
M  V30 3273 H 306.559 0.611329 1.8148 0
M  V30 3274 H 304.864 -1.13567 3.7498 0
M  V30 3275 H 306.561 -0.789121 3.93159 0
M  V30 3276 H 303.151 0.610467 4.2423 0
M  V30 3277 H 307.335 1.45205 4.74583 0
M  V30 3278 H 302.591 2.63689 5.51614 0
M  V30 3279 H 306.765 3.4779 6.03337 0
M  V30 3280 H 304.392 4.07613 6.41682 0
M  V30 3281 N 305.967 -1.56429 0.191757 0
M  V30 3282 C 307.378 -1.83912 -0.321428 0
M  V30 3283 C 307.729 -1.11231 -1.61623 0
M  V30 3284 O 306.854 -0.37202 -2.13178 0
M  V30 3285 C 307.449 -3.33624 -0.589961 0
M  V30 3286 C 306.008 -3.6153 -1.04753 0
M  V30 3287 C 305.155 -2.7714 -0.0943327 0
M  V30 3288 H 308.106 -1.53161 0.415612 0
M  V30 3289 H 308.127 -3.52213 -1.43966 0
M  V30 3290 H 307.639 -3.86495 0.352588 0
M  V30 3291 H 305.74 -3.14089 -2.00447 0
M  V30 3292 H 305.853 -4.69737 -0.942549 0
M  V30 3293 H 304.217 -2.47638 -0.595589 0
M  V30 3294 H 305 -3.32799 0.842601 0
M  V30 3295 N 307.445 0.0818655 -1.57387 0
M  V30 3296 C 308.722 0.815343 -1.77796 0
M  V30 3297 C 309.102 1.96289 -0.77679 0
M  V30 3298 O 308.45 2.27691 0.192106 0
M  V30 3299 C 308.66 1.29765 -3.23978 0
M  V30 3300 C 310.008 1.7351 -3.8753 0
M  V30 3301 O 311.032 1.39356 -3.27808 0
M  V30 3302 O 309.891 2.36708 -4.92576 0
M  V30 3303 H 306.985 0.389914 -0.729312 0
M  V30 3304 H 309.531 0.0627213 -1.69584 0
M  V30 3305 H 308.303 0.47608 -3.88393 0
M  V30 3306 H 307.926 2.11189 -3.36875 0
M  V30 3307 N 308.923 1.53595 0.353017 0
M  V30 3308 C 310.169 1.70638 1.09593 0
M  V30 3309 C 310.502 0.463286 1.88593 0
M  V30 3310 O 309.777 -0.539597 1.86865 0
M  V30 3311 C 310.06 2.96406 2.04489 0
M  V30 3312 C 309.913 4.30901 1.29014 0
M  V30 3313 C 311.232 3.17812 3.0444 0
M  V30 3314 H 308.351 0.620913 0.397034 0
M  V30 3315 H 310.993 1.86254 0.375446 0
M  V30 3316 H 309.143 2.83223 2.65927 0
M  V30 3317 H 310.815 4.55917 0.702638 0
M  V30 3318 H 309.058 4.29741 0.592071 0
M  V30 3319 H 309.729 5.1506 1.98537 0
M  V30 3320 H 312.205 3.30263 2.53112 0
M  V30 3321 H 311.081 4.07223 3.6805 0
M  V30 3322 H 311.342 2.33669 3.75301 0
M  V30 3323 N 310.401 -0.613514 1.45168 0
M  V30 3324 C 311.629 -1.39946 1.5239 0
M  V30 3325 C 312.044 -1.88167 0.154531 0
M  V30 3326 O 311.401 -1.61872 -0.842843 0
M  V30 3327 C 311.452 -2.60795 2.50337 0
M  V30 3328 O 311.173 -2.1458 3.81952 0
M  V30 3329 C 312.674 -3.53723 2.67198 0
M  V30 3330 H 309.894 -0.428593 0.516284 0
M  V30 3331 H 312.438 -0.748753 1.903 0
M  V30 3332 H 310.593 -3.21919 2.15515 0
M  V30 3333 H 311.007 -2.93055 4.34993 0
M  V30 3334 H 312.481 -4.35079 3.39721 0
M  V30 3335 H 312.958 -4.0368 1.73029 0
M  V30 3336 H 313.564 -2.98456 3.02992 0
M  V30 3337 N 311.879 -1.3236 -0.855495 0
M  V30 3338 C 313.104 -1.2601 -1.64731 0
M  V30 3339 C 313.529 0.169068 -1.87339 0
M  V30 3340 O 312.887 1.12016 -1.42556 0
M  V30 3341 C 312.935 -2.02417 -2.98429 0
M  V30 3342 O 312.039 -1.3714 -3.8893 0
M  V30 3343 H 311.38 -0.434325 -0.502253 0
M  V30 3344 H 313.91 -1.74661 -1.06558 0
M  V30 3345 H 313.92 -2.12559 -3.48257 0
M  V30 3346 H 312.595 -3.06343 -2.81295 0
M  V30 3347 H 311.172 -1.3554 -3.47395 0
M  V30 3348 N 313.357 1.07166 -1.15556 0
M  V30 3349 C 314.305 2.16517 -0.8499 0
M  V30 3350 C 315.299 1.68468 0.177454 0
M  V30 3351 O 316.505 1.79971 0.0323026 0
M  V30 3352 H 312.88 0.706652 -0.25719 0
M  V30 3353 H 314.851 2.39514 -1.77976 0
M  V30 3354 C 313.6 3.45855 -0.357682 0
M  V30 3355 H 312.923 3.83214 -1.13961 0
M  V30 3356 H 314.363 4.23607 -0.182489 0
M  V30 3357 C 312.822 3.24062 0.921152 0
M  V30 3358 O 313.352 3.48813 1.9923 0
M  V30 3359 N 311.558 2.77539 0.86141 0
M  V30 3360 H 311.105 2.57598 -0.0104408 0
M  V30 3361 H 311.063 2.63337 1.71758 0
M  V30 3362 N 314.835 0.952656 1.25548 0
M  V30 3363 C 315.768 0.415525 2.24385 0
M  V30 3364 C 316.746 -0.502046 1.54655 0
M  V30 3365 O 317.93 -0.436875 1.83368 0
M  V30 3366 C 315.057 -0.401734 3.36309 0
M  V30 3367 C 314.103 0.455949 4.24056 0
M  V30 3368 S 314.936 1.88698 5.01152 0
M  V30 3369 C 316.092 1.07809 6.16545 0
M  V30 3370 H 316.325 1.25315 2.69599 0
M  V30 3371 H 313.858 0.756587 1.34592 0
M  V30 3372 H 315.816 -0.867329 4.01233 0
M  V30 3373 H 314.477 -1.21416 2.89684 0
M  V30 3374 H 313.67 -0.170776 5.03711 0
M  V30 3375 H 313.272 0.856675 3.64056 0
M  V30 3376 H 315.564 0.325816 6.76716 0
M  V30 3377 H 316.507 1.84849 6.83547 0
M  V30 3378 H 316.915 0.60909 5.61204 0
M  V30 3379 N 316.313 -1.40141 0.720998 0
M  V30 3380 C 317.541 -2.05096 0.272656 0
M  V30 3381 C 317.956 -1.54334 -1.0875 0
M  V30 3382 O 317.313 -0.702211 -1.6845 0
M  V30 3383 C 317.364 -3.60636 0.249835 0
M  V30 3384 O 317.085 -4.09526 1.55629 0
M  V30 3385 C 318.586 -4.42772 -0.216396 0
M  V30 3386 H 315.806 -0.659897 0.121558 0
M  V30 3387 H 318.35 -1.79449 0.980723 0
M  V30 3388 H 316.505 -3.85232 -0.409237 0
M  V30 3389 H 316.919 -5.03758 1.4604 0
M  V30 3390 H 318.393 -5.51702 -0.181212 0
M  V30 3391 H 318.87 -4.20756 -1.25941 0
M  V30 3392 H 319.476 -4.23294 0.412596 0
M  V30 3393 N 317.792 -0.46758 -1.50504 0
M  V30 3394 C 319.041 0.0902868 -2.01498 0
M  V30 3395 C 319.354 1.411 -1.35463 0
M  V30 3396 O 320.56 2.0536 -1.77594 0
M  V30 3397 C 319.016 0.21142 -3.59278 0
M  V30 3398 C 318.624 -1.10065 -4.34269 0
M  V30 3399 C 320.368 0.721433 -4.18325 0
M  V30 3400 C 318.275 -0.943505 -5.83825 0
M  V30 3401 H 317.205 0.037517 -0.753066 0
M  V30 3402 H 319.856 -0.601943 -1.73346 0
M  V30 3403 H 318.238 0.967352 -3.84003 0
M  V30 3404 H 319.412 -1.86726 -4.21272 0
M  V30 3405 H 317.727 -1.5415 -3.86816 0
M  V30 3406 H 320.324 0.85598 -5.27804 0
M  V30 3407 H 320.667 1.71186 -3.79475 0
M  V30 3408 H 321.2 0.0229843 -3.97793 0
M  V30 3409 H 317.939 -1.90719 -6.27141 0
M  V30 3410 H 317.459 -0.217213 -5.99407 0
M  V30 3411 H 319.138 -0.608715 -6.4413 0
M  V30 3412 N 319.27 1.56325 -0.20005 0
M  V30 3413 C 320.517 1.97719 0.437411 0
M  V30 3414 C 320.845 1.08709 1.61284 0
M  V30 3415 O 320.1 0.127261 1.95286 0
M  V30 3416 C 320.399 3.4495 0.935103 0
M  V30 3417 C 320.065 4.5072 -0.12749 0
M  V30 3418 C 318.727 4.79368 -0.419451 0
M  V30 3419 C 321.079 5.14268 -0.847231 0
M  V30 3420 C 318.407 5.68854 -1.43604 0
M  V30 3421 C 320.759 6.04852 -1.85301 0
M  V30 3422 C 319.423 6.31855 -2.15211 0
M  V30 3423 H 318.693 0.723507 0.16006 0
M  V30 3424 H 321.34 1.89166 -0.298056 0
M  V30 3425 H 319.645 3.50599 1.74894 0
M  V30 3426 H 321.342 3.74337 1.43781 0
M  V30 3427 H 317.932 4.28458 0.11023 0
M  V30 3428 H 322.116 4.92222 -0.634901 0
M  V30 3429 H 317.372 5.88047 -1.67364 0
M  V30 3430 H 321.546 6.53152 -2.41591 0
M  V30 3431 H 319.173 7.00994 -2.94129 0
M  V30 3432 N 320.748 -0.0735177 1.57428 0
M  V30 3433 C 321.988 -0.778363 1.89 0
M  V30 3434 C 322.352 -1.7483 0.793634 0
M  V30 3435 O 323.553 -2.49811 0.992367 0
M  V30 3436 C 321.824 -1.46929 3.25802 0
M  V30 3437 S 323.383 -2.20943 3.79117 0
M  V30 3438 H 320.201 -0.258874 0.662197 0
M  V30 3439 H 322.803 -0.0345338 1.95469 0
M  V30 3440 H 321.507 -0.749532 4.03497 0
M  V30 3441 H 321.038 -2.25258 3.22525 0
M  V30 3442 H 323.053 -3.47435 3.54265 0
M  V30 3443 N 322.226 -1.5378 -0.344866 0
M  V30 3444 C 323.475 -1.7018 -1.08267 0
M  V30 3445 C 323.788 -0.471 -1.89845 0
M  V30 3446 O 324.994 -0.515917 -2.66553 0
M  V30 3447 C 323.45 -3.00923 -1.97417 0
M  V30 3448 C 323.058 -4.31335 -1.21053 0
M  V30 3449 C 324.802 -3.26688 -2.71063 0
M  V30 3450 C 322.709 -5.53153 -2.09225 0
M  V30 3451 H 321.639 -0.634138 -0.407903 0
M  V30 3452 H 324.29 -1.8028 -0.342246 0
M  V30 3453 H 322.672 -2.84676 -2.75274 0
M  V30 3454 H 323.846 -4.58281 -0.481159 0
M  V30 3455 H 322.161 -4.12173 -0.591813 0
M  V30 3456 H 324.758 -4.1489 -3.37299 0
M  V30 3457 H 325.101 -2.43639 -3.37558 0
M  V30 3458 H 325.634 -3.43705 -2.0028 0
M  V30 3459 H 322.373 -6.38741 -1.47274 0
M  V30 3460 H 321.893 -5.30458 -2.79955 0
M  V30 3461 H 323.572 -5.88744 -2.68308 0
M  V30 3462 N 323.704 0.605807 -1.45491 0
M  V30 3463 C 324.634 1.72709 -1.57143 0
M  V30 3464 C 325.615 1.6476 -0.422884 0
M  V30 3465 O 326.8 1.83132 -0.646247 0
M  V30 3466 C 323.93 3.11316 -1.53948 0
M  V30 3467 C 322.884 3.34077 -2.67537 0
M  V30 3468 C 322.21 4.72975 -2.49397 0
M  V30 3469 C 323.51 3.24158 -4.09535 0
M  V30 3470 H 325.204 1.63214 -2.51001 0
M  V30 3471 H 322.75 0.78379 -1.208 0
M  V30 3472 H 324.703 3.89557 -1.60696 0
M  V30 3473 H 323.427 3.21655 -0.566205 0
M  V30 3474 H 322.086 2.58227 -2.6022 0
M  V30 3475 H 321.734 4.8005 -1.50205 0
M  V30 3476 H 321.434 4.8916 -3.25571 0
M  V30 3477 H 322.958 5.53414 -2.58002 0
M  V30 3478 H 324.372 3.92271 -4.18086 0
M  V30 3479 H 322.769 3.51872 -4.86113 0
M  V30 3480 H 323.839 2.2157 -4.31317 0
M  V30 3481 N 325.182 1.32811 0.848464 0
M  V30 3482 C 326.092 1.24278 1.98978 0
M  V30 3483 C 327.108 0.155176 1.73307 0
M  V30 3484 O 328.284 0.376999 1.9784 0
M  V30 3485 C 325.349 0.972444 3.32783 0
M  V30 3486 C 324.41 2.14911 3.71634 0
M  V30 3487 C 323.643 1.89157 4.99054 0
M  V30 3488 O 323.866 0.837165 5.64223 0
M  V30 3489 O 322.8 2.75433 5.35183 0
M  V30 3490 H 326.626 2.20238 2.09115 0
M  V30 3491 H 324.211 1.12762 0.980052 0
M  V30 3492 H 326.093 0.838432 4.12975 0
M  V30 3493 H 324.768 0.043051 3.23671 0
M  V30 3494 H 323.675 2.33862 2.91992 0
M  V30 3495 H 325.008 3.06151 3.85399 0
M  V30 3496 N 326.66 -1.06551 1.16123 0
M  V30 3497 C 327.888 -1.83005 0.965237 0
M  V30 3498 C 328.303 -1.82423 -0.486542 0
M  V30 3499 O 327.66 -1.24152 -1.33763 0
M  V30 3500 C 327.711 -3.29733 1.48183 0
M  V30 3501 O 327.432 -3.30416 2.87674 0
M  V30 3502 C 328.933 -4.22926 1.32848 0
M  V30 3503 H 326.153 -0.577118 0.342309 0
M  V30 3504 H 328.697 -1.3445 1.54089 0
M  V30 3505 H 326.852 -3.75609 0.948517 0
M  V30 3506 H 327.266 -4.22149 3.11272 0
M  V30 3507 H 328.74 -5.23916 1.73827 0
M  V30 3508 H 329.217 -4.38346 0.273692 0
M  V30 3509 H 329.823 -3.82894 1.85127 0
M  V30 3510 N 328.138 -0.959301 -1.25041 0
M  V30 3511 C 329.415 -0.533805 -1.88175 0
M  V30 3512 C 329.795 0.988994 -1.865 0
M  V30 3513 O 329.143 1.85677 -1.33177 0
M  V30 3514 C 329.353 -1.11575 -3.30684 0
M  V30 3515 C 330.701 -1.19548 -4.07423 0
M  V30 3516 O 331.725 -1.06765 -3.39823 0
M  V30 3517 O 330.584 -1.39656 -5.28354 0
M  V30 3518 H 327.678 -0.176772 -0.807887 0
M  V30 3519 H 330.224 -1.05303 -1.33076 0
M  V30 3520 H 328.996 -2.15884 -3.26358 0
M  V30 3521 H 328.619 -0.580059 -3.93346 0
M  V30 3522 N 329.616 1.39756 -0.72842 0
M  V30 3523 C 330.563 2.30647 -0.0841519 0
M  V30 3524 C 331.533 1.48869 0.7367 0
M  V30 3525 O 332.718 1.77574 0.698015 0
M  V30 3526 C 329.858 3.35165 0.822091 0
M  V30 3527 C 328.971 4.31999 -0.0106663 0
M  V30 3528 C 328.106 5.23585 0.896241 0
M  V30 3529 C 327.145 6.12072 0.0583381 0
M  V30 3530 N 326.282 6.96035 0.920818 0
M  V30 3531 H 331.122 2.85173 -0.864891 0
M  V30 3532 H 328.659 1.40422 -0.438179 0
M  V30 3533 H 330.617 3.94345 1.36189 0
M  V30 3534 H 329.247 2.8211 1.56888 0
M  V30 3535 H 328.299 3.74492 -0.66781 0
M  V30 3536 H 329.611 4.9443 -0.658825 0
M  V30 3537 H 328.765 5.87759 1.50412 0
M  V30 3538 H 327.504 4.61459 1.57819 0
M  V30 3539 H 326.509 5.46916 -0.562389 0
M  V30 3540 H 327.734 6.76261 -0.6203 0
M  V30 3541 H 325.68 6.36485 1.58818 0
M  V30 3542 H 325.597 7.55284 0.32899 0
M  V30 3543 H 326.865 7.64646 1.51447 0
M  V30 3544 N 331.094 0.475555 1.50254 0
M  V30 3545 C 332.322 -0.0754493 2.06762 0
M  V30 3546 C 332.737 -1.33111 1.33891 0
M  V30 3547 O 332.094 -1.77846 0.40952 0
M  V30 3548 C 332.145 -0.359008 3.59713 0
M  V30 3549 O 331.866 0.846851 4.29837 0
M  V30 3550 C 333.367 -0.956484 4.32858 0
M  V30 3551 H 330.587 0.00907525 0.670939 0
M  V30 3552 H 333.131 0.665618 1.93364 0
M  V30 3553 H 331.286 -1.05001 3.72899 0
M  V30 3554 H 331.7 0.594162 5.21124 0
M  V30 3555 H 333.174 -1.10463 5.40834 0
M  V30 3556 H 333.651 -1.94775 3.93649 0
M  V30 3557 H 334.257 -0.303723 4.24214 0
M  V30 3558 N 332.573 -1.56217 0.208337 0
M  V30 3559 C 333.989 -1.58919 -0.14729 0
M  V30 3560 C 334.189 -1.22486 -1.59998 0
M  V30 3561 O 333.245 -0.953849 -2.3379 0
M  V30 3562 C 334.558 -3.00236 0.167048 0
M  V30 3563 C 336.106 -3.12813 0.108219 0
M  V30 3564 C 336.581 -4.56284 0.396049 0
M  V30 3565 N 338.072 -4.61912 0.345142 0
M  V30 3566 C 338.807 -5.70837 0.541523 0
M  V30 3567 N 338.303 -6.88178 0.798968 0
M  V30 3568 N 340.096 -5.60091 0.474867 0
M  V30 3569 H 332.247 -1.78177 1.15614 0
M  V30 3570 H 334.51 -0.827555 0.462446 0
M  V30 3571 H 334.216 -3.31499 1.1748 0
M  V30 3572 H 334.09 -3.7354 -0.524184 0
M  V30 3573 H 336.477 -2.81354 -0.890157 0
M  V30 3574 H 336.558 -2.41866 0.832729 0
M  V30 3575 H 336.202 -4.88458 1.3918 0
M  V30 3576 H 336.132 -5.25439 -0.349502 0
M  V30 3577 H 338.623 -3.77589 0.153316 0
M  V30 3578 H 338.936 -7.67095 0.93727 0
M  V30 3579 H 337.281 -6.89953 0.836013 0
M  V30 3580 H 340.472 -4.67297 0.274064 0
M  V30 3581 H 340.645 -6.44917 0.631326 0
M  V30 3582 N 334.051 0.0651679 -1.57465 0
M  V30 3583 C 334.981 1.07693 -2.07182 0
M  V30 3584 C 335.962 1.39962 -0.966673 0
M  V30 3585 O 337.147 1.49475 -1.2398 0
M  V30 3586 C 334.277 2.3885 -2.52127 0
M  V30 3587 C 333.231 2.20917 -3.66579 0
M  V30 3588 C 332.557 3.57515 -3.97601 0
M  V30 3589 C 333.857 1.62493 -4.9638 0
M  V30 3590 H 335.551 0.663199 -2.91962 0
M  V30 3591 H 333.097 0.317569 -1.40455 0
M  V30 3592 H 335.05 3.09928 -2.85522 0
M  V30 3593 H 333.774 2.82215 -1.64384 0
M  V30 3594 H 332.433 1.52279 -3.33477 0
M  V30 3595 H 332.081 3.98463 -3.06979 0
M  V30 3596 H 331.781 3.46353 -4.74672 0
M  V30 3597 H 333.305 4.30013 -4.33499 0
M  V30 3598 H 334.719 2.23445 -5.27963 0
M  V30 3599 H 333.116 1.62009 -5.77818 0
M  V30 3600 H 334.186 0.587041 -4.81333 0
M  V30 3601 N 335.529 1.53961 0.336706 0
M  V30 3602 C 336.459 1.85417 1.41925 0
M  V30 3603 C 337.44 0.709856 1.5458 0
M  V30 3604 O 338.625 0.962396 1.68676 0
M  V30 3605 C 335.755 2.06985 2.78881 0
M  V30 3606 C 334.709 3.22813 2.81026 0
M  V30 3607 C 334.035 3.29727 4.20932 0
M  V30 3608 C 335.335 4.60767 2.45949 0
M  V30 3609 H 337.029 2.76079 1.15848 0
M  V30 3610 H 334.575 1.32839 0.555859 0
M  V30 3611 H 336.528 2.27575 3.54665 0
M  V30 3612 H 335.252 1.13061 3.06406 0
M  V30 3613 H 333.911 3.0209 2.07695 0
M  V30 3614 H 333.559 2.33385 4.45579 0
M  V30 3615 H 333.259 4.07566 4.23277 0
M  V30 3616 H 334.783 3.52536 4.98549 0
M  V30 3617 H 336.197 4.81325 3.11446 0
M  V30 3618 H 334.594 5.4106 2.59566 0
M  V30 3619 H 335.664 4.6391 1.41122 0
M  V30 3620 N 337.007 -0.598083 1.45811 0
M  V30 3621 C 338.232 -1.3881 1.54099 0
M  V30 3622 C 338.657 -1.8726 0.177578 0
M  V30 3623 O 338.015 -1.6069 -0.839541 0
M  V30 3624 C 338.063 -2.56217 2.53743 0
M  V30 3625 O 337.167 -3.5716 2.06182 0
M  V30 3626 H 336.508 -0.414024 0.519115 0
M  V30 3627 H 339.038 -0.726971 1.91249 0
M  V30 3628 H 339.048 -3.03337 2.72856 0
M  V30 3629 H 337.723 -2.20303 3.5276 0
M  V30 3630 H 336.3 -3.16624 1.96987 0
M  V30 3631 N 338.485 -1.33259 -0.841409 0
M  V30 3632 C 339.71 -1.2775 -1.63385 0
M  V30 3633 C 340.135 0.149188 -1.87507 0
M  V30 3634 O 339.493 1.10498 -1.43736 0
M  V30 3635 C 339.541 -2.05571 -2.96265 0
M  V30 3636 O 338.645 -1.41257 -3.87453 0
M  V30 3637 H 337.986 -0.439627 -0.497618 0
M  V30 3638 H 340.516 -1.75782 -1.04699 0
M  V30 3639 H 340.526 -2.16241 -3.45982 0
M  V30 3640 H 339.201 -3.09309 -2.7803 0
M  V30 3641 H 337.778 -1.39217 -3.45938 0
M  V30 3642 N 339.963 1.05934 -1.16686 0
M  V30 3643 C 341.374 1.60263 -0.957745 0
M  V30 3644 C 341.725 1.89789 0.49745 0
M  V30 3645 O 340.85 1.67401 1.37135 0
M  V30 3646 C 341.445 2.91172 -1.73218 0
M  V30 3647 C 340.004 3.42188 -1.56794 0
M  V30 3648 C 339.151 2.16028 -1.73859 0
M  V30 3649 H 342.102 0.888392 -1.31504 0
M  V30 3650 H 342.123 3.60744 -1.21014 0
M  V30 3651 H 341.635 2.6965 -2.79124 0
M  V30 3652 H 339.736 3.68762 -0.533437 0
M  V30 3653 H 339.849 4.17273 -2.35414 0
M  V30 3654 H 338.213 2.26426 -1.16633 0
M  V30 3655 H 338.996 1.96985 -2.81161 0
M  V30 3656 N 341.441 0.965919 1.2453 0
M  V30 3657 C 342.688 0.626831 1.92554 0
M  V30 3658 C 343.016 -0.837739 1.75534 0
M  V30 3659 O 342.271 -1.61793 1.10098 0
M  V30 3660 C 342.57 0.945428 3.44669 0
M  V30 3661 C 342.236 2.39785 3.81856 0
M  V30 3662 C 340.898 2.79483 3.91718 0
M  V30 3663 C 343.25 3.34055 4.00071 0
M  V30 3664 C 340.578 4.12496 4.1721 0
M  V30 3665 C 342.93 4.66694 4.27059 0
M  V30 3666 C 341.594 5.06172 4.3514 0
M  V30 3667 H 340.864 0.229374 0.704605 0
M  V30 3668 H 343.511 1.21707 1.4785 0
M  V30 3669 H 341.816 0.272926 3.90848 0
M  V30 3670 H 343.513 0.661484 3.95507 0
M  V30 3671 H 340.103 2.08003 3.74743 0
M  V30 3672 H 344.287 3.04571 3.91855 0
M  V30 3673 H 339.543 4.42709 4.21685 0
M  V30 3674 H 343.717 5.3971 4.40097 0
M  V30 3675 H 341.344 6.09262 4.54646 0
M  V30 3676 N 342.919 -1.39368 0.735821 0
M  V30 3677 C 344.144 -2.05319 0.293052 0
M  V30 3678 C 344.569 -1.55115 -1.064 0
M  V30 3679 O 343.927 -0.695261 -1.67439 0
M  V30 3680 C 343.975 -3.59305 0.305323 0
M  V30 3681 O 343.079 -4.06299 -0.706761 0
M  V30 3682 H 342.42 -0.650529 0.13307 0
M  V30 3683 H 344.95 -1.78386 1.00197 0
M  V30 3684 H 344.96 -4.07724 0.149997 0
M  V30 3685 H 343.635 -3.95207 1.29553 0
M  V30 3686 H 342.212 -3.69292 -0.517504 0
M  V30 3687 N 344.397 -0.483516 -1.5 0
M  V30 3688 C 345.646 0.0689102 -2.01582 0
M  V30 3689 C 345.959 1.39655 -1.36952 0
M  V30 3690 O 347.165 2.03465 -1.79762 0
M  V30 3691 C 345.621 0.173302 -3.59483 0
M  V30 3692 C 345.229 -1.14665 -4.33077 0
M  V30 3693 C 346.973 0.677024 -4.19066 0
M  V30 3694 C 344.88 -1.00537 -5.82792 0
M  V30 3695 H 343.81 0.0295277 -0.753422 0
M  V30 3696 H 346.461 -0.620295 -1.72698 0
M  V30 3697 H 344.843 0.926569 -3.85007 0
M  V30 3698 H 346.017 -1.91184 -4.19268 0
M  V30 3699 H 344.332 -1.58244 -3.85159 0
M  V30 3700 H 346.929 0.799952 -5.28682 0
M  V30 3701 H 347.272 1.67151 -3.81269 0
M  V30 3702 H 347.805 -0.0192083 -3.97795 0
M  V30 3703 H 344.544 -1.9736 -6.25083 0
M  V30 3704 H 344.064 -0.280776 -5.99142 0
M  V30 3705 H 345.743 -0.677 -6.43448 0
M  V30 3706 N 345.875 1.56104 -0.216619 0
M  V30 3707 C 346.785 2.23694 0.706982 0
M  V30 3708 C 347.801 1.24295 1.21765 0
M  V30 3709 O 348.977 1.57094 1.2603 0
M  V30 3710 C 346.042 2.8998 1.90033 0
M  V30 3711 C 345.103 4.04708 1.43213 0
M  V30 3712 C 344.336 4.67824 2.56859 0
M  V30 3713 O 344.559 4.29913 3.74874 0
M  V30 3714 O 343.493 5.56905 2.28343 0
M  V30 3715 H 347.319 3.03272 0.161235 0
M  V30 3716 H 344.904 1.49394 0.0136177 0
M  V30 3717 H 346.786 3.31837 2.59735 0
M  V30 3718 H 345.461 2.13365 2.43428 0
M  V30 3719 H 344.368 3.6743 0.70327 0
M  V30 3720 H 345.701 4.83051 0.944615 0
M  V30 3721 N 347.353 -0.0568162 1.57498 0
M  V30 3722 C 348.283 -1.06593 2.0775 0
M  V30 3723 C 349.264 -1.39448 0.974082 0
M  V30 3724 O 350.449 -1.48815 1.24771 0
M  V30 3725 C 347.579 -2.37509 2.5339 0
M  V30 3726 C 346.533 -2.1897 3.67745 0
M  V30 3727 C 345.859 -3.55402 3.99492 0
M  V30 3728 C 347.159 -1.59859 4.97235 0
M  V30 3729 H 348.853 -0.647706 2.9231 0
M  V30 3730 H 346.399 -0.310116 1.40621 0
M  V30 3731 H 348.352 -3.08409 2.87162 0
M  V30 3732 H 347.076 -2.8134 1.65878 0
M  V30 3733 H 345.735 -1.50508 3.3428 0
M  V30 3734 H 345.383 -3.9683 3.09088 0
M  V30 3735 H 345.083 -3.43831 4.76502 0
M  V30 3736 H 346.607 -4.27708 4.35773 0
M  V30 3737 H 348.021 -2.20642 5.29141 0
M  V30 3738 H 346.418 -1.58942 5.78669 0
M  V30 3739 H 347.488 -0.561506 4.81638 0
M  V30 3740 N 348.832 -1.54138 -0.328536 0
M  V30 3741 C 349.742 -1.86192 -1.42723 0
M  V30 3742 C 350.758 -0.753382 -1.56844 0
M  V30 3743 O 351.934 -1.04718 -1.72035 0
M  V30 3744 C 348.999 -2.07824 -2.77507 0
M  V30 3745 C 348.06 -3.31641 -2.72603 0
M  V30 3746 C 347.293 -3.52232 -4.00959 0
M  V30 3747 O 347.516 -2.7636 -4.9898 0
M  V30 3748 O 346.45 -4.45699 -4.0452 0
M  V30 3749 H 350.276 -2.79608 -1.18547 0
M  V30 3750 H 347.861 -1.3998 -0.522104 0
M  V30 3751 H 349.743 -2.23411 -3.57303 0
M  V30 3752 H 348.418 -1.17596 -3.01584 0
M  V30 3753 H 347.325 -3.21444 -1.91376 0
M  V30 3754 H 348.658 -4.2191 -2.53481 0
M  V30 3755 N 350.31 0.590341 -1.46126 0
M  V30 3756 C 351.587 1.35029 -1.41515 0
M  V30 3757 C 351.967 2.10888 -0.0946472 0
M  V30 3758 O 351.315 2.08998 0.923693 0
M  V30 3759 C 351.525 2.28269 -2.63997 0
M  V30 3760 C 352.873 2.90338 -3.09821 0
M  V30 3761 O 353.897 2.38585 -2.64492 0
M  V30 3762 O 352.756 3.84321 -3.88535 0
M  V30 3763 H 349.85 0.606317 -0.562413 0
M  V30 3764 H 352.396 0.611994 -1.58281 0
M  V30 3765 H 351.168 1.71591 -3.51671 0
M  V30 3766 H 350.791 3.0945 -2.49652 0
M  V30 3767 N 351.788 1.33704 0.83433 0
M  V30 3768 C 353.199 1.22813 1.4062 0
M  V30 3769 C 353.55 -0.151107 1.95617 0
M  V30 3770 O 352.675 -1.05092 1.89168 0
M  V30 3771 C 353.27 2.22355 2.55624 0
M  V30 3772 C 351.829 2.1529 3.08751 0
M  V30 3773 C 350.976 2.09589 1.8157 0
M  V30 3774 H 353.927 1.45236 0.639702 0
M  V30 3775 H 353.948 1.83391 3.33389 0
M  V30 3776 H 353.46 3.22728 2.15566 0
M  V30 3777 H 351.561 1.18235 3.53343 0
M  V30 3778 H 351.674 3.06038 3.68616 0
M  V30 3779 H 350.038 1.55134 2.02004 0
M  V30 3780 H 350.821 3.11777 1.43701 0
M  V30 3781 N 353.266 -1.05314 1.17247 0
M  V30 3782 C 354.198 -2.13023 0.845812 0
M  V30 3783 C 355.211 -1.62096 -0.151246 0
M  V30 3784 O 356.4 -1.78343 0.0748818 0
M  V30 3785 C 353.5 -3.38047 0.240292 0
M  V30 3786 C 352.673 -4.18255 1.27991 0
M  V30 3787 C 351.732 -5.21625 0.692375 0
M  V30 3788 O 350.758 -5.52619 1.36385 0
M  V30 3789 N 351.96 -5.78201 -0.516178 0
M  V30 3790 H 354.725 -2.41642 1.77283 0
M  V30 3791 H 352.286 -1.21401 1.07115 0
M  V30 3792 H 354.278 -4.04359 -0.16603 0
M  V30 3793 H 352.848 -3.06972 -0.590487 0
M  V30 3794 H 352.068 -3.47451 1.86203 0
M  V30 3795 H 353.356 -4.68643 1.98119 0
M  V30 3796 H 352.754 -5.55301 -1.07969 0
M  V30 3797 H 351.311 -6.4604 -0.86458 0
M  V30 3798 N 354.744 -0.972509 -1.24016 0
M  V30 3799 C 356.155 -0.67517 -1.74064 0
M  V30 3800 C 356.506 0.808939 -1.78747 0
M  V30 3801 O 355.631 1.63286 -1.42009 0
M  V30 3802 C 356.226 -1.21889 -3.16115 0
M  V30 3803 C 354.785 -0.971358 -3.6365 0
M  V30 3804 C 353.932 -1.35134 -2.42145 0
M  V30 3805 H 356.883 -1.14727 -1.09651 0
M  V30 3806 H 356.904 -0.587489 -3.75937 0
M  V30 3807 H 356.416 -2.29906 -3.12674 0
M  V30 3808 H 354.517 0.0930686 -3.72484 0
M  V30 3809 H 354.63 -1.62039 -4.50866 0
M  V30 3810 H 352.994 -0.769751 -2.4279 0
M  V30 3811 H 353.777 -2.4411 -2.41381 0
M  V30 3812 N 356.222 1.38976 -0.743202 0
M  V30 3813 C 357.633 1.83123 -0.363732 0
M  V30 3814 C 357.984 1.6205 1.10609 0
M  V30 3815 O 357.109 1.11606 1.854 0
M  V30 3816 C 357.704 3.32439 -0.653408 0
M  V30 3817 C 356.263 3.74974 -0.327338 0
M  V30 3818 C 355.41 2.61878 -0.911875 0
M  V30 3819 H 358.361 1.27852 -0.940191 0
M  V30 3820 H 358.382 3.80432 0.0720031 0
M  V30 3821 H 357.894 3.47745 -1.72323 0
M  V30 3822 H 355.995 3.65252 0.736314 0
M  V30 3823 H 356.108 4.72106 -0.815631 0
M  V30 3824 H 354.472 2.52448 -0.337944 0
M  V30 3825 H 355.255 2.79987 -1.98651 0
M  V30 3826 N 357.7 0.491464 1.49741 0
M  V30 3827 C 359.111 0.0413169 1.86654 0
M  V30 3828 C 359.462 -1.36985 1.40462 0
M  V30 3829 O 358.587 -2.01917 0.778354 0
M  V30 3830 C 359.182 0.0682023 3.38731 0
M  V30 3831 C 357.741 -0.32656 3.74981 0
M  V30 3832 C 356.888 0.444888 2.73708 0
M  V30 3833 H 359.839 0.704733 1.42194 0
M  V30 3834 H 359.86 -0.729322 3.73445 0
M  V30 3835 H 359.372 1.09539 3.72321 0
M  V30 3836 H 357.473 -1.35734 3.46997 0
M  V30 3837 H 357.586 -0.013741 4.79098 0
M  V30 3838 H 355.95 -0.104062 2.54487 0
M  V30 3839 H 356.733 1.47197 3.10142 0
M  V30 3840 N 359.178 -1.55987 0.224894 0
M  V30 3841 C 360.455 -1.90232 -0.455083 0
M  V30 3842 C 360.835 -1.14269 -1.77499 0
M  V30 3843 O 360.183 -0.253079 -2.27094 0
M  V30 3844 C 360.393 -3.42993 -0.644758 0
M  V30 3845 C 361.741 -4.13821 -0.950669 0
M  V30 3846 O 362.765 -3.4861 -0.731423 0
M  V30 3847 O 361.624 -5.29128 -1.36695 0
M  V30 3848 H 358.718 -0.79108 -0.241084 0
M  V30 3849 H 361.264 -1.67581 0.267327 0
M  V30 3850 H 360.036 -3.90252 0.28613 0
M  V30 3851 H 359.659 -3.71434 -1.41853 0
M  V30 3852 N 360.656 0.0484629 -1.57525 0
M  V30 3853 C 361.606 1.06246 -2.01732 0
M  V30 3854 C 362.59 1.33155 -0.903245 0
M  V30 3855 O 363.782 1.33065 -1.16717 0
M  V30 3856 C 360.911 2.36943 -2.48421 0
M  V30 3857 C 359.997 2.13208 -3.6661 0
M  V30 3858 N 360.388 1.5947 -4.80003 0
M  V30 3859 C 358.686 2.43581 -3.7361 0
M  V30 3860 C 359.387 1.51092 -5.61735 0
M  V30 3861 N 358.363 1.9797 -5.0627 0
M  V30 3862 H 362.165 0.640675 -2.86832 0
M  V30 3863 H 359.679 0.255134 -1.60383 0
M  V30 3864 H 361.676 3.10374 -2.78341 0
M  V30 3865 H 360.336 2.79818 -1.64718 0
M  V30 3866 H 361.347 1.28008 -5.01831 0
M  V30 3867 H 358.024 2.89662 -3.00669 0
M  V30 3868 H 359.414 1.10199 -6.62801 0
M  V30 3869 N 362.134 1.5431 0.320358 0
M  V30 3870 C 363.383 1.7188 1.05546 0
M  V30 3871 C 363.696 0.501143 1.89071 0
M  V30 3872 O 364.902 0.558258 2.65699 0
M  V30 3873 C 363.358 3.04025 1.92605 0
M  V30 3874 C 362.966 4.33207 1.14176 0
M  V30 3875 C 364.71 3.30959 2.65832 0
M  V30 3876 C 362.617 5.56412 2.00399 0
M  V30 3877 H 361.547 0.640547 0.397763 0
M  V30 3878 H 364.198 1.80802 0.313522 0
M  V30 3879 H 362.58 2.89019 2.7071 0
M  V30 3880 H 363.754 4.58989 0.40819 0
M  V30 3881 H 362.069 4.13062 0.526165 0
M  V30 3882 H 364.666 4.20203 3.30656 0
M  V30 3883 H 365.009 2.48979 3.33639 0
M  V30 3884 H 365.542 3.46847 1.94787 0
M  V30 3885 H 362.281 6.41004 1.37094 0
M  V30 3886 H 361.801 5.34844 2.7148 0
M  V30 3887 H 363.48 5.92938 2.58908 0
M  V30 3888 N 363.613 -0.582584 1.46437 0
M  V30 3889 C 365.024 -1.1647 1.45916 0
M  V30 3890 C 365.375 -1.95177 0.200077 0
M  V30 3891 O 364.5 -2.04874 -0.696819 0
M  V30 3892 C 365.095 -2.11885 2.64367 0
M  V30 3893 C 363.654 -2.65421 2.66887 0
M  V30 3894 C 362.801 -1.41294 2.38603 0
M  V30 3895 H 365.752 -0.370514 1.54314 0
M  V30 3896 H 365.773 -2.9535 2.39892 0
M  V30 3897 H 365.285 -1.54573 3.5599 0
M  V30 3898 H 363.386 -3.26602 1.79338 0
M  V30 3899 H 363.499 -3.08147 3.66854 0
M  V30 3900 H 361.863 -1.71109 1.88663 0
M  V30 3901 H 362.646 -0.858125 3.32402 0
M  V30 3902 N 365.091 -1.34144 -0.827227 0
M  V30 3903 C 366.337 -1.27455 -1.58515 0
M  V30 3904 C 366.692 0.155271 -1.91772 0
M  V30 3905 O 365.985 1.10042 -1.56848 0
M  V30 3906 C 366.179 -2.09464 -2.89585 0
M  V30 3907 C 366.008 -3.60276 -2.69131 0
M  V30 3908 C 364.778 -4.29565 -2.66087 0
M  V30 3909 C 366.976 -4.54367 -2.40947 0
M  V30 3910 N 364.958 -5.66252 -2.37132 0
M  V30 3911 C 366.329 -5.79027 -2.21648 0
M  V30 3912 C 368.384 -4.43327 -2.26639 0
M  V30 3913 C 367.087 -6.93891 -1.89492 0
M  V30 3914 C 369.113 -5.58019 -1.95878 0
M  V30 3915 C 368.475 -6.81695 -1.774 0
M  V30 3916 H 364.574 -0.521614 -0.582617 0
M  V30 3917 H 367.158 -1.68811 -0.970105 0
M  V30 3918 H 365.329 -1.70411 -3.49019 0
M  V30 3919 H 367.061 -1.94453 -3.54923 0
M  V30 3920 H 363.816 -3.81959 -2.80008 0
M  V30 3921 H 364.24 -6.38338 -2.25507 0
M  V30 3922 H 368.882 -3.48333 -2.39633 0
M  V30 3923 H 366.6 -7.88871 -1.75236 0
M  V30 3924 H 370.186 -5.5142 -1.85546 0
M  V30 3925 H 369.066 -7.68942 -1.53941 0
M  V30 3926 N 366.569 1.04691 -1.17803 0
M  V30 3927 C 367.818 1.77176 -0.963931 0
M  V30 3928 C 368.131 1.88888 0.508015 0
M  V30 3929 O 369.337 2.58164 0.840465 0
M  V30 3930 C 367.793 3.18518 -1.67555 0
M  V30 3931 C 367.401 3.14919 -3.18637 0
M  V30 3932 C 369.145 3.95424 -1.54402 0
M  V30 3933 C 367.052 4.51081 -3.82466 0
M  V30 3934 H 365.982 0.664116 -0.357023 0
M  V30 3935 H 368.633 1.17303 -1.4111 0
M  V30 3936 H 367.015 3.78748 -1.15613 0
M  V30 3937 H 368.189 2.64178 -3.77554 0
M  V30 3938 H 366.504 2.51512 -3.31859 0
M  V30 3939 H 369.101 4.96106 -1.99456 0
M  V30 3940 H 369.444 4.13343 -0.495329 0
M  V30 3941 H 369.977 3.41754 -2.0359 0
M  V30 3942 H 366.716 4.38368 -4.87354 0
M  V30 3943 H 366.236 5.01951 -3.28337 0
M  V30 3944 H 367.915 5.2001 -3.84965 0
M  V30 3945 N 368.047 0.979072 1.23499 0
M  V30 3946 C 369.275 0.665202 1.95915 0
M  V30 3947 C 369.69 -0.767571 1.72493 0
M  V30 3948 O 369.047 -1.51635 1.01554 0
M  V30 3949 C 369.098 0.944438 3.48945 0
M  V30 3950 O 368.819 2.3209 3.71572 0
M  V30 3951 C 370.32 0.646336 4.38563 0
M  V30 3952 H 367.54 0.247218 0.623798 0
M  V30 3953 H 370.084 1.31009 1.57025 0
M  V30 3954 H 368.239 0.345575 3.85856 0
M  V30 3955 H 368.653 2.40957 4.65876 0
M  V30 3956 H 370.127 0.892091 5.44744 0
M  V30 3957 H 370.604 -0.419575 4.37191 0
M  V30 3958 H 371.21 1.22562 4.07258 0
M  V30 3959 N 369.525 -1.3858 0.750561 0
M  V30 3960 C 370.488 -2.28836 0.129152 0
M  V30 3961 C 371.488 -1.47045 -0.650714 0
M  V30 3962 O 372.678 -1.6753 -0.477428 0
M  V30 3963 C 369.81 -3.30751 -0.825622 0
M  V30 3964 H 371.003 -2.85294 0.924516 0
M  V30 3965 H 368.556 -1.47489 0.517376 0
M  V30 3966 H 369.291 -2.79378 -1.64677 0
M  V30 3967 H 369.076 -3.91177 -0.268852 0
M  V30 3968 H 370.566 -3.98249 -1.2565 0
M  V30 3969 N 371.003 -0.499398 -1.49478 0
M  V30 3970 C 372.249 0.0457576 -2.02748 0
M  V30 3971 C 372.582 1.36793 -1.37846 0
M  V30 3972 O 371.857 1.87596 -0.513601 0
M  V30 3973 C 372.14 0.199986 -3.59544 0
M  V30 3974 C 371.993 -1.1452 -4.34977 0
M  V30 3975 C 373.312 0.94137 -4.29914 0
M  V30 3976 H 370.431 0.0151552 -0.736844 0
M  V30 3977 H 373.073 -0.650498 -1.78518 0
M  V30 3978 H 371.223 0.793007 -3.8032 0
M  V30 3979 H 372.895 -1.77697 -4.25701 0
M  V30 3980 H 371.138 -1.73488 -3.97598 0
M  V30 3981 H 371.809 -0.990607 -5.43039 0
M  V30 3982 H 374.285 0.43844 -4.13784 0
M  V30 3983 H 373.161 1.01812 -5.39375 0
M  V30 3984 H 373.422 1.98471 -3.95046 0
M  V30 3985 N 372.481 1.55866 -0.233164 0
M  V30 3986 C 373.411 2.23783 0.666599 0
M  V30 3987 C 374.392 1.21343 1.19205 0
M  V30 3988 O 375.577 1.4996 1.23392 0
M  V30 3989 C 372.707 2.92671 1.86978 0
M  V30 3990 C 371.661 4.01682 1.47768 0
M  V30 3991 C 370.987 4.57926 2.76058 0
M  V30 3992 C 372.287 5.18126 0.658993 0
M  V30 3993 H 373.981 2.99232 0.100306 0
M  V30 3994 H 371.527 1.43924 0.046804 0
M  V30 3995 H 373.48 3.3888 2.50476 0
M  V30 3996 H 372.204 2.14688 2.46123 0
M  V30 3997 H 370.863 3.56222 0.866106 0
M  V30 3998 H 370.511 3.76659 3.33372 0
M  V30 3999 H 370.211 5.31505 2.50552 0
M  V30 4000 H 371.735 5.06859 3.40479 0
M  V30 4001 H 373.149 5.60644 1.19795 0
M  V30 4002 H 371.546 5.98009 0.500552 0
M  V30 4003 H 372.616 4.83763 -0.331856 0
M  V30 4004 N 373.959 -0.0401083 1.57549 0
M  V30 4005 C 375.37 -0.588097 1.77196 0
M  V30 4006 C 375.721 -1.76209 0.862832 0
M  V30 4007 O 374.846 -2.16331 0.0548389 0
M  V30 4008 C 375.441 -1.07363 3.21339 0
M  V30 4009 C 374 -1.56723 3.42221 0
M  V30 4010 C 373.147 -0.50041 2.72747 0
M  V30 4011 H 376.098 0.186119 1.57605 0
M  V30 4012 H 376.119 -1.94143 3.27244 0
M  V30 4013 H 375.631 -0.218975 3.87482 0
M  V30 4014 H 373.732 -2.4441 2.81237 0
M  V30 4015 H 373.845 -1.62234 4.50796 0
M  V30 4016 H 372.209 -0.952894 2.36203 0
M  V30 4017 H 372.992 0.344599 3.41566 0
M  V30 4018 N 375.437 -1.54477 -0.31217 0
M  V30 4019 C 376.665 -1.77205 -1.068 0
M  V30 4020 C 377.08 -0.526114 -1.81321 0
M  V30 4021 O 376.437 0.503647 -1.75413 0
M  V30 4022 C 376.488 -2.97253 -2.05725 0
M  V30 4023 O 376.209 -4.1703 -1.34228 0
M  V30 4024 C 377.71 -3.32281 -2.93435 0
M  V30 4025 H 374.93 -0.591287 -0.317208 0
M  V30 4026 H 377.474 -2.01398 -0.354834 0
M  V30 4027 H 375.629 -2.753 -2.72559 0
M  V30 4028 H 376.043 -4.84636 -2.00571 0
M  V30 4029 H 377.517 -4.19551 -3.58721 0
M  V30 4030 H 377.994 -2.49945 -3.61143 0
M  V30 4031 H 378.6 -3.56353 -2.32147 0
M  V30 4032 N 376.915 0.57481 -1.46744 0
M  V30 4033 C 378.161 1.3347 -1.52688 0
M  V30 4034 C 378.494 1.93353 -0.181229 0
M  V30 4035 O 377.769 1.76912 0.808237 0
M  V30 4036 C 378.052 2.45811 -2.63152 0
M  V30 4037 C 377.905 1.90912 -4.07275 0
M  V30 4038 C 379.224 3.47822 -2.69644 0
M  V30 4039 H 376.343 0.483935 -0.555856 0
M  V30 4040 H 378.985 0.644968 -1.78718 0
M  V30 4041 H 377.135 3.04646 -2.41088 0
M  V30 4042 H 378.807 1.36473 -4.4065 0
M  V30 4043 H 377.05 1.21691 -4.16382 0
M  V30 4044 H 377.721 2.72042 -4.80309 0
M  V30 4045 H 380.197 2.9888 -2.895 0
M  V30 4046 H 379.073 4.23876 -3.48742 0
M  V30 4047 H 379.334 4.05555 -1.76005 0
M  V30 4048 N 378.394 1.34581 0.820102 0
M  V30 4049 C 379.643 1.26437 1.57151 0
M  V30 4050 C 379.956 -0.163111 1.94919 0
M  V30 4051 O 381.162 -0.366722 2.69012 0
M  V30 4052 C 379.618 2.21658 2.83541 0
M  V30 4053 C 379.226 3.69679 2.53065 0
M  V30 4054 C 380.97 2.22428 3.61561 0
M  V30 4055 C 378.877 4.56761 3.75664 0
M  V30 4056 H 377.807 0.469707 0.589823 0
M  V30 4057 H 380.458 1.59763 0.902656 0
M  V30 4058 H 378.84 1.81287 3.52067 0
M  V30 4059 H 380.014 4.18605 1.92631 0
M  V30 4060 H 378.329 3.71384 1.88316 0
M  V30 4061 H 380.926 2.8471 4.52597 0
M  V30 4062 H 381.269 1.22434 3.97889 0
M  V30 4063 H 381.802 2.61259 2.99981 0
M  V30 4064 H 378.541 5.57702 3.44454 0
M  V30 4065 H 378.061 4.12568 4.35371 0
M  V30 4066 H 379.74 4.71509 4.43044 0
M  V30 4067 N 379.872 -1.04064 1.18357 0
M  V30 4068 C 381.121 -1.76662 0.973313 0
M  V30 4069 C 381.434 -1.89154 -0.497991 0
M  V30 4070 O 382.64 -2.58606 -0.826762 0
M  V30 4071 C 381.096 -3.17624 1.69242 0
M  V30 4072 C 380.704 -3.13225 3.20303 0
M  V30 4073 C 382.448 -3.946 1.56497 0
M  V30 4074 C 380.355 -4.49046 3.84853 0
M  V30 4075 H 379.285 -0.662214 0.36054 0
M  V30 4076 H 381.936 -1.16553 1.41731 0
M  V30 4077 H 380.318 -3.78129 1.1762 0
M  V30 4078 H 381.492 -2.62172 3.78949 0
M  V30 4079 H 379.807 -2.49749 3.33189 0
M  V30 4080 H 382.404 -4.95042 2.02084 0
M  V30 4081 H 382.747 -4.13074 0.517243 0
M  V30 4082 H 383.28 -3.4067 2.05399 0
M  V30 4083 H 380.019 -4.35777 4.89672 0
M  V30 4084 H 379.539 -5.00203 3.30994 0
M  V30 4085 H 381.218 -5.17961 3.87718 0
M  V30 4086 N 381.35 -0.985608 -1.22978 0
M  V30 4087 C 382.59 -0.665487 -1.93263 0
M  V30 4088 C 382.954 0.78706 -1.75127 0
M  V30 4089 O 384.155 1.21826 -2.39608 0
M  V30 4090 C 382.426 -1.0515 -3.41582 0
M  V30 4091 S 383.985 -0.848637 -4.30516 0
M  V30 4092 H 380.803 -0.24355 -0.667985 0
M  V30 4093 H 383.405 -1.26635 -1.48942 0
M  V30 4094 H 382.109 -2.10517 -3.52293 0
M  V30 4095 H 381.64 -0.442134 -3.90908 0
M  V30 4096 H 383.655 0.264717 -4.95493 0
M  V30 4097 N 382.828 1.3818 -0.7579 0
M  V30 4098 C 384.074 2.00316 -0.316453 0
M  V30 4099 C 384.407 1.60026 1.10025 0
M  V30 4100 O 383.682 0.839835 1.75434 0
M  V30 4101 C 383.965 3.57349 -0.444245 0
M  V30 4102 C 383.818 4.07591 -1.90236 0
M  V30 4103 C 385.137 4.3981 0.1598 0
M  V30 4104 H 382.256 0.727741 -0.116459 0
M  V30 4105 H 384.898 1.6406 -0.958352 0
M  V30 4106 H 383.048 3.88365 0.102233 0
M  V30 4107 H 384.72 3.87199 -2.50748 0
M  V30 4108 H 382.963 3.60297 -2.41595 0
M  V30 4109 H 383.634 5.16677 -1.94291 0
M  V30 4110 H 386.11 4.14971 -0.306314 0
M  V30 4111 H 384.986 5.48885 0.0401675 0
M  V30 4112 H 385.247 4.24102 1.24859 0
M  V30 4113 N 384.306 0.507319 1.49211 0
M  V30 4114 C 385.239 -0.314509 2.26022 0
M  V30 4115 C 386.217 -0.964849 1.30879 0
M  V30 4116 O 387.401 -0.993707 1.6018 0
M  V30 4117 C 384.528 -1.44346 3.06402 0
M  V30 4118 C 383.574 -0.90685 4.16748 0
M  V30 4119 S 384.407 0.207392 5.35098 0
M  V30 4120 C 385.563 -0.924573 6.19033 0
M  V30 4121 H 385.796 0.337416 2.95379 0
M  V30 4122 H 383.329 0.292718 1.516 0
M  V30 4123 H 385.287 -2.09029 3.53295 0
M  V30 4124 H 383.948 -2.06702 2.36502 0
M  V30 4125 H 383.141 -1.75309 4.72528 0
M  V30 4126 H 382.743 -0.33712 3.72478 0
M  V30 4127 H 385.035 -1.82839 6.52362 0
M  V30 4128 H 385.978 -0.405248 7.06939 0
M  V30 4129 H 386.386 -1.19476 5.51712 0
M  V30 4130 N 385.784 -1.5574 0.241426 0
M  V30 4131 C 387.03 -1.99104 -0.385406 0
M  V30 4132 C 387.363 -1.1293 -1.57988 0
M  V30 4133 O 386.638 -0.191449 -1.93555 0
M  V30 4134 C 386.921 -3.51087 -0.800616 0
M  V30 4135 C 386.774 -4.48028 0.398874 0
M  V30 4136 C 388.093 -4.08015 -1.64959 0
M  V30 4137 H 385.212 -0.723848 -0.138614 0
M  V30 4138 H 387.854 -1.86903 0.341642 0
M  V30 4139 H 386.004 -3.61615 -1.4201 0
M  V30 4140 H 387.676 -4.49487 1.03726 0
M  V30 4141 H 385.919 -4.21077 1.04293 0
M  V30 4142 H 386.59 -5.51962 0.0651056 0
M  V30 4143 H 389.066 -4.00555 -1.12672 0
M  V30 4144 H 387.942 -5.14635 -1.90898 0
M  V30 4145 H 388.203 -3.56131 -2.61961 0
M  V30 4146 N 387.262 0.0317525 -1.57568 0
M  V30 4147 C 388.509 0.723104 -1.89149 0
M  V30 4148 C 388.837 1.75504 -0.838377 0
M  V30 4149 O 388.092 1.95037 0.160982 0
M  V30 4150 C 388.391 1.43167 -3.27472 0
M  V30 4151 C 388.057 0.535972 -4.47703 0
M  V30 4152 C 386.719 0.289262 -4.8033 0
M  V30 4153 C 389.071 -0.0826125 -5.21135 0
M  V30 4154 C 386.399 -0.584853 -5.83778 0
M  V30 4155 C 388.751 -0.944414 -6.25511 0
M  V30 4156 C 387.415 -1.20061 -6.56614 0
M  V30 4157 H 386.685 0.264602 -0.692146 0
M  V30 4158 H 389.332 -0.0169496 -1.91492 0
M  V30 4159 H 387.637 2.24497 -3.21105 0
M  V30 4160 H 389.334 1.97209 -3.49155 0
M  V30 4161 H 385.924 0.738414 -4.22191 0
M  V30 4162 H 390.108 0.0950302 -4.96209 0
M  V30 4163 H 385.364 -0.79168 -6.06253 0
M  V30 4164 H 389.538 -1.43026 -6.81554 0
M  V30 4165 H 387.165 -1.87967 -7.36595 0
M  V30 4166 N 388.74 1.54641 0.303973 0
M  V30 4167 C 389.98 1.75516 1.04755 0
M  V30 4168 C 390.344 0.528211 1.84591 0
M  V30 4169 O 391.545 0.614645 2.61678 0
M  V30 4170 C 389.816 3.00685 1.93193 0
M  V30 4171 S 391.375 3.42549 2.74237 0
M  V30 4172 H 388.193 0.616987 0.353339 0
M  V30 4173 H 390.795 1.92842 0.321292 0
M  V30 4174 H 389.499 3.8811 1.33411 0
M  V30 4175 H 389.03 2.85937 2.70191 0
M  V30 4176 H 391.045 2.99386 3.95705 0
M  V30 4177 N 390.218 -0.567019 1.47046 0
M  V30 4178 C 391.148 -1.68482 1.61667 0
M  V30 4179 C 392.129 -1.6358 0.466418 0
M  V30 4180 O 393.314 -1.81354 0.694574 0
M  V30 4181 C 390.444 -3.07124 1.62148 0
M  V30 4182 C 389.398 -3.26867 2.76301 0
M  V30 4183 C 388.724 -4.66196 2.61849 0
M  V30 4184 C 390.024 -3.13186 4.17986 0
M  V30 4185 H 391.718 -1.56502 2.5524 0
M  V30 4186 H 389.264 -0.751486 1.22836 0
M  V30 4187 H 391.217 -3.8516 1.70968 0
M  V30 4188 H 389.941 -3.2004 0.651287 0
M  V30 4189 H 388.6 -2.51237 2.66975 0
M  V30 4190 H 388.248 -4.75898 1.62879 0
M  V30 4191 H 387.948 -4.80356 3.38425 0
M  V30 4192 H 389.472 -5.46379 2.72584 0
M  V30 4193 H 390.886 -3.81049 4.2834 0
M  V30 4194 H 389.283 -3.3886 4.95272 0
M  V30 4195 H 390.353 -2.10057 4.3704 0
M  V30 4196 N 391.696 -1.35014 -0.812953 0
M  V30 4197 C 392.945 -1.27269 -1.56479 0
M  V30 4198 C 393.258 0.152771 -1.95002 0
M  V30 4199 O 394.464 0.352451 -2.69203 0
M  V30 4200 C 392.92 -2.23159 -2.82362 0
M  V30 4201 C 392.528 -3.71016 -2.511 0
M  V30 4202 C 394.272 -2.24342 -3.60376 0
M  V30 4203 C 392.179 -4.58746 -3.73237 0
M  V30 4204 H 391.109 -0.472829 -0.587324 0
M  V30 4205 H 393.76 -1.6024 -0.894171 0
M  V30 4206 H 392.142 -1.83151 -3.51101 0
M  V30 4207 H 393.316 -4.1962 -1.90409 0
M  V30 4208 H 391.631 -3.72378 -1.86343 0
M  V30 4209 H 394.228 -2.87107 -4.51081 0
M  V30 4210 H 394.571 -1.24542 -3.97234 0
M  V30 4211 H 395.104 -2.62846 -2.98591 0
M  V30 4212 H 391.843 -5.59521 -3.41492 0
M  V30 4213 H 391.363 -4.14871 -4.33176 0
M  V30 4214 H 393.042 -4.73852 -4.40537 0
M  V30 4215 N 393.175 1.03435 -1.18907 0
M  V30 4216 C 394.105 2.13503 -0.945448 0
M  V30 4217 C 395.086 1.69682 0.119189 0
M  V30 4218 O 396.271 1.94169 -0.034707 0
M  V30 4219 C 393.401 3.44004 -0.477316 0
M  V30 4220 C 392.355 4.0148 -1.48316 0
M  V30 4221 C 391.681 5.27537 -0.872311 0
M  V30 4222 C 392.981 4.36921 -2.86177 0
M  V30 4223 H 394.675 2.34141 -1.86597 0
M  V30 4224 H 392.221 1.12523 -0.898584 0
M  V30 4225 H 394.174 4.20372 -0.294204 0
M  V30 4226 H 392.898 3.23072 0.478786 0
M  V30 4227 H 391.557 3.27201 -1.65332 0
M  V30 4228 H 391.205 5.02917 0.0911752 0
M  V30 4229 H 390.905 5.66954 -1.54393 0
M  V30 4230 H 392.429 6.06576 -0.699871 0
M  V30 4231 H 393.843 5.04248 -2.72776 0
M  V30 4232 H 392.24 4.87405 -3.50081 0
M  V30 4233 H 393.31 3.46466 -3.39248 0
M  V30 4234 N 394.653 0.992116 1.22453 0
M  V30 4235 C 395.899 0.678177 1.91761 0
M  V30 4236 C 396.254 -0.781141 1.75829 0
M  V30 4237 O 395.547 -1.55747 1.11595 0
M  V30 4238 C 395.741 1.01832 3.42586 0
M  V30 4239 C 395.57 2.50916 3.73191 0
M  V30 4240 C 394.34 3.17308 3.93248 0
M  V30 4241 C 396.538 3.49032 3.77732 0
M  V30 4242 N 394.52 4.55876 4.11157 0
M  V30 4243 C 395.891 4.73055 4.00773 0
M  V30 4244 C 397.946 3.43349 3.60577 0
M  V30 4245 C 396.649 5.92089 4.0844 0
M  V30 4246 C 398.675 4.61759 3.69503 0
M  V30 4247 C 398.037 5.84582 3.92993 0
M  V30 4248 H 394.136 0.299425 0.722405 0
M  V30 4249 H 396.72 1.27197 1.47408 0
M  V30 4250 H 394.891 0.453118 3.85748 0
M  V30 4251 H 396.623 0.660454 3.99274 0
M  V30 4252 H 393.378 2.67778 3.9063 0
M  V30 4253 H 393.802 5.27748 4.24042 0
M  V30 4254 H 398.444 2.49408 3.41402 0
M  V30 4255 H 396.162 6.86435 4.26418 0
M  V30 4256 H 399.748 4.58951 3.57569 0
M  V30 4257 H 398.628 6.74676 3.99728 0
M  V30 4258 N 396.131 -1.37776 0.765217 0
M  V30 4259 C 397.078 -2.30342 0.145274 0
M  V30 4260 C 398.048 -1.5077 -0.696971 0
M  V30 4261 O 399.233 -1.79362 -0.650689 0
M  V30 4262 C 396.373 -3.37227 -0.732939 0
M  V30 4263 C 395.486 -4.31819 0.125199 0
M  V30 4264 C 394.621 -5.25777 -0.757107 0
M  V30 4265 C 393.66 -6.12012 0.103963 0
M  V30 4266 N 392.797 -6.98232 -0.735953 0
M  V30 4267 H 397.637 -2.8278 0.940195 0
M  V30 4268 H 395.174 -1.39211 0.475255 0
M  V30 4269 H 397.132 -3.97818 -1.25686 0
M  V30 4270 H 395.762 -2.86171 -1.49353 0
M  V30 4271 H 394.814 -3.7259 0.766865 0
M  V30 4272 H 396.126 -4.92509 0.789683 0
M  V30 4273 H 395.28 -5.91541 -1.34776 0
M  V30 4274 H 394.019 -4.65481 -1.45529 0
M  V30 4275 H 393.024 -5.45233 0.707197 0
M  V30 4276 H 394.249 -6.74379 0.799381 0
M  V30 4277 H 392.195 -6.40472 -1.41887 0
M  V30 4278 H 392.112 -7.55891 -0.128624 0
M  V30 4279 H 393.38 -7.68393 -1.31121 0
M  V30 4280 N 397.609 -0.515225 -1.4894 0
M  V30 4281 C 398.855 0.016187 -2.03394 0
M  V30 4282 C 399.21 1.33377 -1.38666 0
M  V30 4283 O 398.503 1.84461 -0.518141 0
M  V30 4284 C 398.697 0.210595 -3.56779 0
M  V30 4285 C 398.526 -1.08659 -4.36375 0
M  V30 4286 C 397.296 -1.64237 -4.77864 0
M  V30 4287 C 399.494 -1.9935 -4.74093 0
M  V30 4288 N 397.476 -2.88398 -5.41941 0
M  V30 4289 C 398.847 -3.08088 -5.38035 0
M  V30 4290 C 400.902 -1.99856 -4.56029 0
M  V30 4291 C 399.605 -4.17377 -5.85823 0
M  V30 4292 C 401.631 -3.08129 -5.04787 0
M  V30 4293 C 400.993 -4.15586 -5.68742 0
M  V30 4294 H 397.092 -0.0352107 -0.781207 0
M  V30 4295 H 399.676 -0.693237 -1.8194 0
M  V30 4296 H 397.847 0.889088 -3.78087 0
M  V30 4297 H 399.579 0.740287 -3.97872 0
M  V30 4298 H 396.334 -1.18566 -4.58518 0
M  V30 4299 H 396.758 -3.51572 -5.78555 0
M  V30 4300 H 401.4 -1.18079 -4.05977 0
M  V30 4301 H 399.118 -4.99943 -6.34888 0
M  V30 4302 H 402.704 -3.09557 -4.92611 0
M  V30 4303 H 401.584 -4.97987 -6.05787 0
M  V30 4304 N 399.087 1.5561 -0.249682 0
M  V30 4305 C 400.034 2.21496 0.648694 0
M  V30 4306 C 401.004 1.17977 1.16921 0
M  V30 4307 O 402.189 1.46434 1.22318 0
M  V30 4308 C 399.329 2.92039 1.83868 0
M  V30 4309 C 398.442 4.10219 1.35442 0
M  V30 4310 C 397.577 4.6847 2.50419 0
M  V30 4311 C 396.616 5.78893 1.98869 0
M  V30 4312 N 395.753 6.31315 3.07223 0
M  V30 4313 H 400.593 2.97892 0.0801582 0
M  V30 4314 H 398.13 1.47074 0.0278031 0
M  V30 4315 H 400.088 3.31138 2.53778 0
M  V30 4316 H 398.718 2.18111 2.37965 0
M  V30 4317 H 397.77 3.76413 0.54928 0
M  V30 4318 H 399.082 4.89927 0.936649 0
M  V30 4319 H 398.236 5.10158 3.28366 0
M  V30 4320 H 396.975 3.87984 2.95499 0
M  V30 4321 H 395.98 5.3668 1.19393 0
M  V30 4322 H 397.205 6.61232 1.54755 0
M  V30 4323 H 395.151 5.53733 3.51732 0
M  V30 4324 H 395.068 7.06224 2.69784 0
M  V30 4325 H 396.336 6.77662 3.8522 0
M  V30 4326 N 400.565 -0.0233959 1.57583 0
M  V30 4327 C 401.512 -1.02224 2.06927 0
M  V30 4328 C 402.482 -1.35575 0.959617 0
M  V30 4329 O 403.667 -1.45815 1.23055 0
M  V30 4330 C 400.807 -2.31636 2.5581 0
M  V30 4331 C 399.92 -2.04394 3.80588 0
M  V30 4332 C 399.055 -3.27717 4.18061 0
M  V30 4333 C 398.094 -2.96056 5.3574 0
M  V30 4334 N 397.231 -4.11847 5.68618 0
M  V30 4335 H 402.071 -0.594504 2.9201 0
M  V30 4336 H 399.608 -0.281921 1.44373 0
M  V30 4337 H 401.566 -3.07258 2.82221 0
M  V30 4338 H 400.196 -2.72122 1.73636 0
M  V30 4339 H 399.248 -1.19244 3.61227 0
M  V30 4340 H 400.56 -1.77042 4.66323 0
M  V30 4341 H 399.714 -4.11702 4.4563 0
M  V30 4342 H 398.453 -3.58188 3.30988 0
M  V30 4343 H 397.458 -2.10474 5.07918 0
M  V30 4344 H 398.683 -2.66857 6.24471 0
M  V30 4345 H 396.629 -4.42258 4.84504 0
M  V30 4346 H 396.546 -3.87938 6.48876 0
M  V30 4347 H 397.814 -4.96689 6.00766 0
M  V30 4348 N 402.043 -1.548 -0.295768 0
M  V30 4349 C 402.99 -1.86113 -1.36494 0
M  V30 4350 C 403.96 -0.7105 -1.50137 0
M  V30 4351 O 405.145 -0.959626 -1.64912 0
M  V30 4352 C 402.285 -2.11861 -2.72413 0
M  V30 4353 C 401.398 -3.39471 -2.67177 0
M  V30 4354 C 400.533 -3.55035 -3.95125 0
M  V30 4355 C 399.572 -4.76418 -3.84308 0
M  V30 4356 N 398.709 -4.8876 -5.04042 0
M  V30 4357 H 403.549 -2.77314 -1.09091 0
M  V30 4358 H 401.086 -1.37315 -0.52753 0
M  V30 4359 H 403.044 -2.24786 -3.51464 0
M  V30 4360 H 401.674 -1.2392 -2.98066 0
M  V30 4361 H 400.726 -3.35139 -1.79962 0
M  V30 4362 H 402.038 -4.28646 -2.55076 0
M  V30 4363 H 401.192 -3.67653 -4.82614 0
M  V30 4364 H 399.931 -2.64002 -4.10066 0
M  V30 4365 H 398.936 -4.63827 -2.95202 0
M  V30 4366 H 400.161 -5.68863 -3.70906 0
M  V30 4367 H 398.107 -4.00652 -5.19436 0
M  V30 4368 H 398.024 -5.71945 -4.94384 0
M  V30 4369 H 399.292 -5.0574 -5.93167 0
M  V30 4370 N 403.521 0.559213 -1.47345 0
M  V30 4371 C 404.468 1.66645 -1.59682 0
M  V30 4372 C 405.438 1.60168 -0.43994 0
M  V30 4373 O 406.623 1.79031 -0.659736 0
M  V30 4374 C 403.763 3.04969 -1.61518 0
M  V30 4375 C 402.876 3.21897 -2.88108 0
M  V30 4376 C 402.011 4.50608 -2.81294 0
M  V30 4377 C 401.05 4.60961 -4.02717 0
M  V30 4378 N 400.187 5.81024 -3.94151 0
M  V30 4379 H 405.027 1.55439 -2.54249 0
M  V30 4380 H 402.564 0.757219 -1.26113 0
M  V30 4381 H 404.522 3.85064 -1.60566 0
M  V30 4382 H 403.152 3.15015 -0.704645 0
M  V30 4383 H 402.204 2.35248 -2.98936 0
M  V30 4384 H 403.516 3.25412 -3.78032 0
M  V30 4385 H 402.67 5.3896 -2.7858 0
M  V30 4386 H 401.409 4.49568 -1.89049 0
M  V30 4387 H 400.414 3.71021 -4.05738 0
M  V30 4388 H 401.639 4.63761 -4.96087 0
M  V30 4389 H 399.585 5.80938 -3.04708 0
M  V30 4390 H 399.502 5.85909 -4.77752 0
M  V30 4391 H 400.77 6.71744 -3.9545 0
M  V30 4392 N 404.999 1.35443 0.805782 0
M  V30 4393 C 406.415 1.15499 1.10146 0
M  V30 4394 C 406.615 -0.0319975 2.01475 0
M  V30 4395 O 405.671 -0.70236 2.42535 0
M  V30 4396 C 406.984 2.45833 1.73166 0
M  V30 4397 C 408.532 2.52047 1.85583 0
M  V30 4398 C 409.007 3.82427 2.52019 0
M  V30 4399 N 410.498 3.83682 2.59504 0
M  V30 4400 C 411.233 4.81294 3.11679 0
M  V30 4401 N 410.729 5.89294 3.64287 0
M  V30 4402 N 412.522 4.6873 3.1024 0
M  V30 4403 H 404.673 2.11469 0.198678 0
M  V30 4404 H 406.936 0.93594 0.150731 0
M  V30 4405 H 406.642 3.32874 1.13526 0
M  V30 4406 H 406.516 2.6044 2.72857 0
M  V30 4407 H 408.903 1.65435 2.44367 0
M  V30 4408 H 408.984 2.41354 0.847455 0
M  V30 4409 H 408.628 4.69437 1.93885 0
M  V30 4410 H 408.558 3.90409 3.53395 0
M  V30 4411 H 411.049 3.05648 2.22234 0
M  V30 4412 H 411.362 6.59768 4.02401 0
M  V30 4413 H 409.707 5.92985 3.62483 0
M  V30 4414 H 412.898 3.83496 2.68419 0
M  V30 4415 H 413.071 5.44965 3.50596 0
M  V30 4416 N 406.477 -1.02803 1.19454 0
M  V30 4417 C 407.888 -1.57667 0.999899 0
M  V30 4418 C 408.239 -1.91041 -0.446956 0
M  V30 4419 O 407.364 -1.70978 -1.32648 0
M  V30 4420 C 407.959 -2.86477 1.80877 0
M  V30 4421 C 406.518 -3.37911 1.65811 0
M  V30 4422 C 405.665 -2.11343 1.79526 0
M  V30 4423 H 408.616 -0.853214 1.33813 0
M  V30 4424 H 408.637 -3.57408 1.30536 0
M  V30 4425 H 408.149 -2.62155 2.86175 0
M  V30 4426 H 406.25 -3.67218 0.63102 0
M  V30 4427 H 406.363 -4.10885 2.46395 0
M  V30 4428 H 404.727 -2.23254 1.22596 0
M  V30 4429 H 405.51 -1.89461 2.86285 0
M  V30 4430 N 407.956 -0.998596 -1.21925 0
M  V30 4431 C 409.372 -0.710303 -1.42923 0
M  V30 4432 C 409.572 0.716933 -1.88314 0
M  V30 4433 O 408.628 1.48712 -2.04062 0
M  V30 4434 C 409.941 -1.72072 -2.466 0
M  V30 4435 C 411.489 -1.73681 -2.60392 0
M  V30 4436 C 411.964 -2.73601 -3.67296 0
M  V30 4437 N 413.455 -2.7223 -3.7476 0
M  V30 4438 C 414.19 -3.46206 -4.57087 0
M  V30 4439 N 413.686 -4.29802 -5.43362 0
M  V30 4440 N 415.479 -3.34886 -4.51451 0
M  V30 4441 H 407.63 -1.92028 -0.9077 0
M  V30 4442 H 409.893 -0.828487 -0.460775 0
M  V30 4443 H 409.599 -2.74231 -2.20206 0
M  V30 4444 H 409.473 -1.51818 -3.45299 0
M  V30 4445 H 411.86 -0.722173 -2.86127 0
M  V30 4446 H 411.941 -1.98005 -1.61949 0
M  V30 4447 H 411.585 -3.75217 -3.42307 0
M  V30 4448 H 411.515 -2.46545 -4.65321 0
M  V30 4449 H 414.006 -2.11576 -3.1312 0
M  V30 4450 H 414.319 -4.83061 -6.03218 0
M  V30 4451 H 412.664 -4.33887 -5.42925 0
M  V30 4452 H 415.855 -2.69015 -3.83078 0
M  V30 4453 H 416.028 -3.92796 -5.15379 0
M  V30 4454 N 409.434 1.37368 -0.772513 0
M  V30 4455 C 410.382 2.32134 -0.147111 0
M  V30 4456 C 411.376 1.54972 0.684106 0
M  V30 4457 O 412.582 1.70363 0.581083 0
M  V30 4458 H 408.957 0.751449 -0.028786 0
M  V30 4459 H 410.928 2.82464 -0.962112 0
M  V30 4460 C 409.677 3.40226 0.71703 0
M  V30 4461 H 409 3.99706 0.0867951 0
M  V30 4462 H 410.44 4.08897 1.12159 0
M  V30 4463 C 408.899 2.80372 1.86797 0
M  V30 4464 O 409.429 2.71183 2.96349 0
M  V30 4465 N 407.635 2.37904 1.66883 0
M  V30 4466 H 407.182 2.45578 0.777759 0
M  V30 4467 H 407.14 1.98202 2.44056 0
M  V30 4468 N 410.912 0.523116 1.48665 0
M  V30 4469 C 412.137 -0.0117284 2.07397 0
M  V30 4470 C 412.562 -1.28031 1.37803 0
M  V30 4471 O 411.92 -1.75836 0.441762 0
M  V30 4472 C 411.968 -0.225786 3.59892 0
M  V30 4473 O 411.072 -1.29592 3.91509 0
M  V30 4474 H 410.413 0.0360673 0.66302 0
M  V30 4475 H 412.943 0.729066 1.9117 0
M  V30 4476 H 412.953 -0.450552 4.05505 0
M  V30 4477 H 411.628 0.700944 4.09951 0
M  V30 4478 H 410.205 -1.05436 3.57684 0
M  V30 4479 N 412.39 -1.55475 0.257931 0
M  V30 4480 C 413.62 -2.03314 -0.367026 0
M  V30 4481 C 414.028 -1.13625 -1.51281 0
M  V30 4482 O 413.371 -0.145334 -1.83124 0
M  V30 4483 C 413.433 -3.47362 -0.926284 0
M  V30 4484 C 413.097 -4.56914 0.0886584 0
M  V30 4485 C 414.094 -5.12013 0.902123 0
M  V30 4486 C 411.779 -5.01827 0.217936 0
M  V30 4487 C 413.773 -6.10529 1.83122 0
M  V30 4488 C 411.46 -6.00172 1.15052 0
M  V30 4489 C 412.458 -6.54402 1.95568 0
M  V30 4490 O 412.146 -7.50827 2.87253 0
M  V30 4491 H 411.878 -0.669976 -0.0900443 0
M  V30 4492 H 414.432 -2.01804 0.382673 0
M  V30 4493 H 412.662 -3.46056 -1.72575 0
M  V30 4494 H 414.351 -3.78637 -1.46249 0
M  V30 4495 H 415.117 -4.78139 0.812891 0
M  V30 4496 H 410.996 -4.59272 -0.398721 0
M  V30 4497 H 414.54 -6.52783 2.46008 0
M  V30 4498 H 410.437 -6.33465 1.24064 0
M  V30 4499 H 411.205 -7.68483 2.81739 0
M  V30 4500 N 413.868 0.0150385 -1.57593 0
M  V30 4501 C 414.815 1.01126 -2.07466 0
M  V30 4502 C 415.785 1.35064 -0.966794 0
M  V30 4503 O 416.97 1.4516 -1.23827 0
M  V30 4504 C 414.11 2.30276 -2.57035 0
M  V30 4505 C 413.223 2.02373 -3.81666 0
M  V30 4506 C 412.358 3.25496 -4.19793 0
M  V30 4507 C 411.397 2.93211 -5.37303 0
M  V30 4508 N 410.534 4.08826 -5.70794 0
M  V30 4509 H 415.374 0.57901 -2.92321 0
M  V30 4510 H 412.911 0.27426 -1.44521 0
M  V30 4511 H 414.869 3.05757 -2.83846 0
M  V30 4512 H 413.499 2.71197 -1.75077 0
M  V30 4513 H 412.551 1.17327 -3.61854 0
M  V30 4514 H 413.863 1.74567 -4.67256 0
M  V30 4515 H 413.017 4.09333 -4.47807 0
M  V30 4516 H 411.756 3.56428 -3.32882 0
M  V30 4517 H 410.761 2.07777 -5.09027 0
M  V30 4518 H 411.986 2.63542 -6.25877 0
M  V30 4519 H 409.932 4.39682 -4.86842 0
M  V30 4520 H 409.849 3.84491 -6.50924 0
M  V30 4521 H 411.117 4.93496 -6.03392 0
M  V30 4522 N 415.346 1.54954 0.287554 0
M  V30 4523 C 416.586 1.76617 1.02887 0
M  V30 4524 C 416.95 0.547759 1.84021 0
M  V30 4525 O 418.151 0.642365 2.61012 0
M  V30 4526 C 416.422 3.02717 1.89993 0
M  V30 4527 S 417.981 3.45438 2.70588 0
M  V30 4528 H 414.799 0.6207 0.346775 0
M  V30 4529 H 417.401 1.93172 0.30082 0
M  V30 4530 H 416.105 3.89503 1.29287 0
M  V30 4531 H 415.636 2.88787 2.67144 0
M  V30 4532 H 417.651 3.03566 3.92508 0
M  V30 4533 N 416.824 -0.551391 1.4764 0
M  V30 4534 C 418.072 -1.30572 1.54258 0
M  V30 4535 C 418.393 -1.93877 0.208963 0
M  V30 4536 O 417.663 -1.80234 -0.767619 0
M  V30 4537 H 416.243 -0.484894 0.568231 0
M  V30 4538 H 418.905 -0.643402 1.83974 0
M  V30 4539 H 418.001 -2.09621 2.31226 0
M  V30 4540 N 418.302 -1.35869 -0.798587 0
M  V30 4541 C 419.53 -1.32722 -1.58722 0
M  V30 4542 C 419.945 0.0935631 -1.88568 0
M  V30 4543 O 419.302 1.04784 -1.49421 0
M  V30 4544 C 419.353 -2.13974 -2.91371 0
M  V30 4545 O 419.074 -3.50514 -2.62815 0
M  V30 4546 C 420.575 -2.18504 -3.85708 0
M  V30 4547 H 417.795 -0.45562 -0.492596 0
M  V30 4548 H 420.339 -1.78837 -0.991843 0
M  V30 4549 H 418.494 -1.71438 -3.47402 0
M  V30 4550 H 418.908 -3.92806 -3.47568 0
M  V30 4551 H 420.382 -2.79732 -4.75872 0
M  V30 4552 H 420.859 -1.18597 -4.22885 0
M  V30 4553 H 421.465 -2.61236 -3.35612 0
M  V30 4554 N 419.78 1.02168 -1.19998 0
M  V30 4555 C 420.728 2.12717 -0.940967 0
M  V30 4556 C 421.722 1.69069 0.105841 0
M  V30 4557 O 422.928 1.79946 -0.0440583 0
M  V30 4558 H 419.303 0.695108 -0.28693 0
M  V30 4559 H 421.274 2.3175 -1.87975 0
M  V30 4560 C 420.023 3.44027 -0.504049 0
M  V30 4561 H 419.346 3.78036 -1.30112 0
M  V30 4562 H 420.786 4.22452 -0.361991 0
M  V30 4563 C 419.245 3.27678 0.782878 0
M  V30 4564 O 419.775 3.56949 1.84256 0
M  V30 4565 N 417.981 2.80943 0.742921 0
M  V30 4566 H 417.528 2.57322 -0.119687 0
M  V30 4567 H 417.486 2.70385 1.60435 0
M  V30 4568 N 421.258 1.00505 1.21394 0
M  V30 4569 C 422.486 0.706609 1.9446 0
M  V30 4570 C 422.901 -0.73081 1.74082 0
M  V30 4571 O 422.258 -1.49446 1.04747 0
M  V30 4572 C 422.309 1.01824 3.46863 0
M  V30 4573 O 422.03 2.39919 3.66566 0
M  V30 4574 C 423.531 0.739216 4.37093 0
M  V30 4575 H 420.751 0.260394 0.618414 0
M  V30 4576 H 423.295 1.34311 1.54211 0
M  V30 4577 H 421.45 0.427343 3.85036 0
M  V30 4578 H 421.864 2.50784 4.6066 0
M  V30 4579 H 423.338 1.00744 5.42729 0
M  V30 4580 H 423.815 -0.326746 4.37983 0
M  V30 4581 H 424.421 1.31173 4.04566 0
M  V30 4582 N 422.737 -1.36956 0.779787 0
M  V30 4583 C 423.67 -2.27896 0.117681 0
M  V30 4584 C 424.648 -1.46736 -0.700523 0
M  V30 4585 O 425.832 -1.76055 -0.673568 0
M  V30 4586 C 422.959 -3.28136 -0.839296 0
M  V30 4587 C 422.005 -4.26373 -0.10409 0
M  V30 4588 S 422.838 -5.2157 1.21348 0
M  V30 4589 C 423.994 -6.25359 0.260249 0
M  V30 4590 H 424.227 -2.83704 0.888778 0
M  V30 4591 H 421.76 -1.43352 0.57355 0
M  V30 4592 H 423.718 -3.86394 -1.38601 0
M  V30 4593 H 422.379 -2.7126 -1.58356 0
M  V30 4594 H 421.572 -4.97121 -0.82986 0
M  V30 4595 H 421.174 -3.72147 0.371858 0
M  V30 4596 H 423.466 -6.75145 -0.564435 0
M  V30 4597 H 424.409 -7.01885 0.936135 0
M  V30 4598 H 424.817 -5.64345 -0.132127 0
M  V30 4599 N 424.215 -0.530993 -1.48385 0
M  V30 4600 C 425.125 0.23503 -2.3342 0
M  V30 4601 C 426.141 0.93801 -1.46552 0
M  V30 4602 O 427.317 0.912745 -1.7953 0
M  V30 4603 C 424.382 1.26778 -3.22689 0
M  V30 4604 C 423.443 0.575038 -4.25431 0
M  V30 4605 C 422.676 1.55858 -5.10435 0
M  V30 4606 O 422.899 2.79129 -4.97437 0
M  V30 4607 O 421.833 1.09742 -5.91811 0
M  V30 4608 H 425.659 -0.461794 -3.00169 0
M  V30 4609 H 423.244 -0.291903 -1.46521 0
M  V30 4610 H 425.126 1.86457 -3.77904 0
M  V30 4611 H 423.801 1.94699 -2.586 0
M  V30 4612 H 422.708 -0.0622782 -3.74048 0
M  V30 4613 H 424.041 -0.062253 -4.92161 0
M  V30 4614 N 425.693 1.55336 -0.266172 0
M  V30 4615 C 427.109 1.59356 0.0882065 0
M  V30 4616 C 427.309 1.2834 1.55342 0
M  V30 4617 O 426.365 1.03996 2.30089 0
M  V30 4618 C 427.678 2.99409 -0.278364 0
M  V30 4619 C 429.226 3.12196 -0.224243 0
M  V30 4620 C 429.701 4.545 -0.565123 0
M  V30 4621 N 431.192 4.60313 -0.51634 0
M  V30 4622 C 431.927 5.68434 -0.753013 0
M  V30 4623 N 431.423 6.84738 -1.05383 0
M  V30 4624 N 433.216 5.57942 -0.682414 0
M  V30 4625 H 425.367 1.73764 -1.22147 0
M  V30 4626 H 427.63 0.809822 -0.492841 0
M  V30 4627 H 427.336 3.2691 -1.29703 0
M  V30 4628 H 427.21 3.75228 0.385186 0
M  V30 4629 H 429.597 2.84464 0.78512 0
M  V30 4630 H 429.678 2.38609 -0.921922 0
M  V30 4631 H 429.322 4.82956 -1.57213 0
M  V30 4632 H 429.252 5.26374 0.154248 0
M  V30 4633 H 431.743 3.7676 -0.29335 0
M  V30 4634 H 432.056 7.63088 -1.22133 0
M  V30 4635 H 430.401 6.86375 -1.09151 0
M  V30 4636 H 433.592 4.65958 -0.44731 0
M  V30 4637 H 433.765 6.4213 -0.870248 0
M  V30 4638 N 427.171 -0.0066808 1.57599 0
M  V30 4639 C 428.081 -1.01671 2.11424 0
M  V30 4640 C 429.097 -1.38143 1.05795 0
M  V30 4641 O 430.273 -1.47011 1.37658 0
M  V30 4642 C 427.338 -2.29192 2.60139 0
M  V30 4643 C 426.399 -1.99094 3.80342 0
M  V30 4644 C 425.632 -3.20535 4.26724 0
M  V30 4645 O 425.855 -4.3199 3.72479 0
M  V30 4646 O 424.789 -3.04924 5.18946 0
M  V30 4647 H 428.615 -0.589181 2.9793 0
M  V30 4648 H 426.2 -0.225091 1.47695 0
M  V30 4649 H 428.082 -3.0412 2.917 0
M  V30 4650 H 426.757 -2.71195 1.76733 0
M  V30 4651 H 425.664 -1.21663 3.53764 0
M  V30 4652 H 426.997 -1.61931 4.648 0
M  V30 4653 N 428.649 -1.55105 -0.279332 0
M  V30 4654 C 429.559 -1.90638 -1.36727 0
M  V30 4655 C 430.575 -0.802899 -1.54368 0
M  V30 4656 O 431.751 -1.10138 -1.68616 0
M  V30 4657 C 428.816 -2.16547 -2.70755 0
M  V30 4658 C 427.877 -3.40146 -2.61915 0
M  V30 4659 C 427.11 -3.6481 -3.8955 0
M  V30 4660 O 427.333 -2.92095 -4.89935 0
M  V30 4661 O 426.267 -4.58343 -3.90135 0
M  V30 4662 H 430.093 -2.83237 -1.09591 0
M  V30 4663 H 427.678 -1.4157 -0.477306 0
M  V30 4664 H 429.56 -2.34665 -3.50014 0
M  V30 4665 H 428.235 -1.27131 -2.9769 0
M  V30 4666 H 427.142 -3.2737 -1.81052 0
M  V30 4667 H 428.475 -4.29761 -2.3993 0
M  V30 4668 N 430.127 0.543554 -1.4793 0
M  V30 4669 C 431.352 1.32995 -1.59145 0
M  V30 4670 C 431.777 1.86472 -0.246956 0
M  V30 4671 O 431.135 1.63696 0.779324 0
M  V30 4672 C 431.183 2.46623 -2.63077 0
M  V30 4673 O 430.287 3.49261 -2.19295 0
M  V30 4674 H 429.628 0.394472 -0.534124 0
M  V30 4675 H 432.158 0.655489 -1.93816 0
M  V30 4676 H 432.168 2.93001 -2.83926 0
M  V30 4677 H 430.843 2.07059 -3.60693 0
M  V30 4678 H 429.42 3.09094 -2.08603 0
M  V30 4679 N 431.605 1.3629 0.791371 0
M  V30 4680 C 432.515 1.32606 1.93527 0
M  V30 4681 C 433.531 0.228541 1.72493 0
M  V30 4682 O 434.707 0.460571 1.96063 0
M  V30 4683 C 431.772 1.11271 3.28359 0
M  V30 4684 C 430.833 2.3048 3.62185 0
M  V30 4685 C 430.066 2.10154 4.90583 0
M  V30 4686 O 430.289 1.07572 5.60165 0
M  V30 4687 O 429.223 2.97884 5.23019 0
M  V30 4688 H 433.049 2.28909 1.99585 0
M  V30 4689 H 430.634 1.16818 0.931344 0
M  V30 4690 H 432.516 1.01283 4.09047 0
M  V30 4691 H 431.191 0.180292 3.23198 0
M  V30 4692 H 430.098 2.46036 2.81811 0
M  V30 4693 H 431.431 3.22221 3.72068 0
M  V30 4694 N 433.083 -1.0153 1.20538 0
M  V30 4695 C 434.015 -2.10224 0.913155 0
M  V30 4696 C 435.028 -1.62495 -0.0995998 0
M  V30 4697 O 436.217 -1.78014 0.131582 0
M  V30 4698 C 433.317 -3.37111 0.347717 0
M  V30 4699 C 432.49 -4.13971 1.41233 0
M  V30 4700 C 431.549 -5.19158 0.857976 0
M  V30 4701 O 430.575 -5.48 1.53897 0
M  V30 4702 N 431.777 -5.7955 -0.331966 0
M  V30 4703 H 434.542 -2.35879 1.84881 0
M  V30 4704 H 432.103 -1.17931 1.10923 0
M  V30 4705 H 434.095 -4.04683 -0.0373026 0
M  V30 4706 H 432.665 -3.08696 -0.492527 0
M  V30 4707 H 431.885 -3.41351 1.97163 0
M  V30 4708 H 433.173 -4.62103 2.12928 0
M  V30 4709 H 432.571 -5.58455 -0.902478 0
M  V30 4710 H 431.128 -6.48464 -0.65861 0
M  V30 4711 N 434.561 -1.01147 -1.20859 0
M  V30 4712 C 435.789 -0.716911 -1.94082 0
M  V30 4713 C 436.204 0.721568 -1.74467 0
M  V30 4714 O 435.561 1.48889 -1.05539 0
M  V30 4715 C 435.612 -1.03662 -3.46318 0
M  V30 4716 O 435.333 -2.4186 -3.65288 0
M  V30 4717 C 436.834 -0.762386 -4.36695 0
M  V30 4718 H 434.054 -0.26367 -0.617024 0
M  V30 4719 H 436.598 -1.35127 -1.53496 0
M  V30 4720 H 434.753 -0.447757 -3.84804 0
M  V30 4721 H 435.167 -2.53224 -4.59323 0
M  V30 4722 H 436.641 -1.03621 -5.42187 0
M  V30 4723 H 437.118 0.303514 -4.3815 0
M  V30 4724 H 437.724 -1.33316 -4.03865 0
M  V30 4725 N 436.039 1.36541 -0.78704 0
M  V30 4726 C 436.986 2.30082 -0.181901 0
M  V30 4727 C 437.956 1.5186 0.672896 0
M  V30 4728 O 439.141 1.80374 0.622072 0
M  V30 4729 C 436.281 3.3835 0.679197 0
M  V30 4730 C 435.394 4.31565 -0.193882 0
M  V30 4731 C 434.529 5.26915 0.673364 0
M  V30 4732 C 433.568 6.11769 -0.201315 0
M  V30 4733 N 432.705 6.99315 0.624777 0
M  V30 4734 H 437.545 2.81248 -0.985064 0
M  V30 4735 H 435.082 1.38437 -0.497342 0
M  V30 4736 H 437.04 3.99767 1.19341 0
M  V30 4737 H 435.67 2.8851 1.44781 0
M  V30 4738 H 434.722 3.71323 -0.826044 0
M  V30 4739 H 436.034 4.91191 -0.867937 0
M  V30 4740 H 435.188 5.9361 1.25348 0
M  V30 4741 H 433.927 4.67737 1.38105 0
M  V30 4742 H 432.932 5.44039 -0.793849 0
M  V30 4743 H 434.157 6.73022 -0.906568 0
M  V30 4744 H 432.103 6.42648 1.3168 0
M  V30 4745 H 432.02 7.56 0.00835237 0
M  V30 4746 H 433.288 7.70382 1.18879 0
M  V30 4747 N 437.518 0.538854 1.48102 0
M  V30 4748 C 438.465 -0.219042 2.29758 0
M  V30 4749 C 439.435 -0.925562 1.37922 0
M  V30 4750 O 440.62 -0.924855 1.66886 0
M  V30 4751 C 437.76 -1.25452 3.2149 0
M  V30 4752 C 436.873 -0.555943 4.28408 0
M  V30 4753 C 436.008 -1.57512 5.0731 0
M  V30 4754 C 435.047 -0.860498 6.06021 0
M  V30 4755 N 434.184 -1.82564 6.77949 0
M  V30 4756 H 439.024 0.483449 2.94052 0
M  V30 4757 H 436.561 0.250247 1.44956 0
M  V30 4758 H 438.519 -1.86727 3.7308 0
M  V30 4759 H 437.149 -1.92528 2.591 0
M  V30 4760 H 436.201 0.170938 3.80016 0
M  V30 4761 H 437.513 0.00474616 4.988 0
M  V30 4762 H 436.667 -2.26191 5.62959 0
M  V30 4763 H 435.406 -2.16972 4.36778 0
M  V30 4764 H 434.411 -0.159686 5.49568 0
M  V30 4765 H 435.636 -0.271897 6.78555 0
M  V30 4766 H 433.582 -2.40915 6.10161 0
M  V30 4767 H 433.499 -1.31662 7.44447 0
M  V30 4768 H 434.767 -2.50414 7.38182 0
M  V30 4769 N 438.996 -1.55193 0.274407 0
M  V30 4770 C 440.412 -1.59401 -0.0797543 0
M  V30 4771 C 440.612 -1.29162 -1.54659 0
M  V30 4772 O 439.668 -1.05215 -2.29534 0
M  V30 4773 C 440.981 -2.99257 0.294238 0
M  V30 4774 C 442.529 -3.12072 0.240796 0
M  V30 4775 C 443.004 -4.54194 0.589218 0
M  V30 4776 N 444.495 -4.60033 0.540744 0
M  V30 4777 C 445.23 -5.68027 0.783147 0
M  V30 4778 N 444.726 -6.8417 1.09013 0
M  V30 4779 N 446.519 -5.57572 0.711993 0
M  V30 4780 H 438.67 -1.73113 1.23067 0
M  V30 4781 H 440.933 -0.807197 0.497129 0
M  V30 4782 H 440.639 -3.26217 1.31435 0
M  V30 4783 H 440.513 -3.75427 -0.365281 0
M  V30 4784 H 442.9 -2.84877 -0.770024 0
M  V30 4785 H 442.981 -2.38117 0.934563 0
M  V30 4786 H 442.625 -4.82115 1.59772 0
M  V30 4787 H 442.555 -5.26448 -0.126331 0
M  V30 4788 H 445.046 -3.76599 0.313327 0
M  V30 4789 H 445.359 -7.6243 1.26178 0
M  V30 4790 H 443.704 -6.85787 1.12789 0
M  V30 4791 H 446.895 -4.65714 0.472014 0
M  V30 4792 H 447.068 -6.41659 0.90429 0
M  V30 4793 N 440.474 -0.00167713 -1.576 0
M  V30 4794 C 441.384 1.00548 -2.1196 0
M  V30 4795 C 442.4 1.3758 -1.06526 0
M  V30 4796 O 443.576 1.46278 -1.38436 0
M  V30 4797 C 440.641 2.27809 -2.6135 0
M  V30 4798 C 439.702 1.97074 -3.81393 0
M  V30 4799 C 438.935 3.18267 -4.28417 0
M  V30 4800 O 439.158 4.30009 -3.74765 0
M  V30 4801 O 438.092 3.02167 -5.20556 0
M  V30 4802 H 441.918 0.573373 -2.98238 0
M  V30 4803 H 439.503 0.217255 -1.47812 0
M  V30 4804 H 441.385 3.02568 -2.93309 0
M  V30 4805 H 440.06 2.70254 -1.78169 0
M  V30 4806 H 438.967 1.19785 -3.54404 0
M  V30 4807 H 440.3 1.59464 -4.65652 0
M  V30 4808 N 441.952 1.55251 0.271103 0
M  V30 4809 C 442.899 1.88261 1.33516 0
M  V30 4810 C 443.869 0.734296 1.48988 0
M  V30 4811 O 445.054 0.985741 1.63364 0
M  V30 4812 C 442.194 2.16168 2.69008 0
M  V30 4813 C 441.307 3.43678 2.61743 0
M  V30 4814 C 440.442 3.61276 3.89427 0
M  V30 4815 C 439.481 4.82472 3.7668 0
M  V30 4816 N 438.618 4.96717 4.96202 0
M  V30 4817 H 443.458 2.79015 1.04665 0
M  V30 4818 H 440.995 1.38137 0.505618 0
M  V30 4819 H 442.953 2.30349 3.47844 0
M  V30 4820 H 441.583 1.28646 2.96057 0
M  V30 4821 H 440.635 3.37959 1.74607 0
M  V30 4822 H 441.947 4.3265 2.48224 0
M  V30 4823 H 441.101 3.75284 4.76704 0
M  V30 4824 H 439.84 2.70492 4.05814 0
M  V30 4825 H 438.845 4.68465 2.87786 0
M  V30 4826 H 440.07 5.74692 3.61809 0
M  V30 4827 H 438.016 4.08865 5.12997 0
M  V30 4828 H 437.933 5.79738 4.85222 0
M  V30 4829 H 439.201 5.15113 5.85046 0
M  V30 4830 N 443.43 -0.535701 1.48216 0
M  V30 4831 C 444.679 -1.28828 1.55197 0
M  V30 4832 C 444.992 -1.94263 0.228278 0
M  V30 4833 O 446.198 -2.70927 0.176278 0
M  V30 4834 C 444.654 -2.33727 2.73678 0
M  V30 4835 C 444.262 -1.74386 4.12666 0
M  V30 4836 C 446.006 -3.1003 2.89968 0
M  V30 4837 C 443.913 -2.77192 5.22416 0
M  V30 4838 H 442.843 -0.484484 0.577747 0
M  V30 4839 H 445.494 -0.56646 1.74538 0
M  V30 4840 H 443.876 -3.08919 2.4776 0
M  V30 4841 H 445.05 -1.05421 4.48579 0
M  V30 4842 H 443.365 -1.10595 4.01445 0
M  V30 4843 H 445.962 -3.86842 3.6913 0
M  V30 4844 H 446.305 -3.65542 1.9921 0
M  V30 4845 H 446.838 -2.41952 3.15759 0
M  V30 4846 H 443.577 -2.26507 6.15122 0
M  V30 4847 H 443.097 -3.44502 4.90998 0
M  V30 4848 H 444.776 -3.40285 5.50286 0
M  V30 4849 N 444.908 -1.36708 -0.784132 0
M  V30 4850 C 445.858 -1.2799 -1.88686 0
M  V30 4851 C 446.842 -0.170282 -1.59996 0
M  V30 4852 O 448.034 -0.403571 -1.72338 0
M  V30 4853 C 445.163 -1.07674 -3.25977 0
M  V30 4854 C 444.249 -2.23127 -3.60659 0
M  V30 4855 N 444.64 -3.48467 -3.66612 0
M  V30 4856 C 442.938 -2.15009 -3.90752 0
M  V30 4857 C 443.639 -4.24525 -3.97685 0
M  V30 4858 N 442.615 -3.53524 -4.12943 0
M  V30 4859 H 446.417 -2.22927 -1.91522 0
M  V30 4860 H 443.931 -1.29503 -0.979933 0
M  V30 4861 H 445.928 -0.995151 -4.04849 0
M  V30 4862 H 444.588 -0.13643 -3.24413 0
M  V30 4863 H 445.599 -3.82534 -3.49125 0
M  V30 4864 H 442.276 -1.28963 -3.97083 0
M  V30 4865 H 443.666 -5.32944 -4.0917 0
M  V30 4866 N 446.386 1.0089 -1.21074 0
M  V30 4867 C 447.635 1.74019 -1.01981 0
M  V30 4868 C 447.948 1.90408 0.447665 0
M  V30 4869 O 449.154 2.60707 0.757906 0
M  V30 4870 C 447.61 3.13026 -1.77603 0
M  V30 4871 C 447.218 3.04623 -3.28495 0
M  V30 4872 C 448.962 3.90312 -1.66904 0
M  V30 4873 C 446.869 4.38685 -3.96623 0
M  V30 4874 H 445.799 0.652422 -0.377971 0
M  V30 4875 H 448.45 1.12755 -1.44771 0
M  V30 4876 H 446.832 3.74878 -1.27604 0
M  V30 4877 H 448.006 2.52032 -3.85767 0
M  V30 4878 H 446.321 2.40827 -3.39693 0
M  V30 4879 H 448.918 4.8951 -2.15138 0
M  V30 4880 H 449.261 4.11558 -0.62658 0
M  V30 4881 H 449.794 3.35104 -2.14359 0
M  V30 4882 H 446.533 4.22641 -5.01054 0
M  V30 4883 H 446.053 4.91252 -3.4414 0
M  V30 4884 H 447.732 5.075 -4.01314 0
M  V30 4885 N 447.864 1.01787 1.20321 0
M  V30 4886 C 449.275 0.739307 1.71438 0
M  V30 4887 C 449.626 -0.742041 1.81627 0
M  V30 4888 O 448.751 -1.57903 1.47971 0
M  V30 4889 C 449.346 1.33538 3.11373 0
M  V30 4890 C 447.905 1.10566 3.59795 0
M  V30 4891 C 447.052 1.44028 2.36962 0
M  V30 4892 H 450.003 1.18718 1.05317 0
M  V30 4893 H 450.024 0.726611 3.73498 0
M  V30 4894 H 449.536 2.41352 3.03926 0
M  V30 4895 H 447.637 0.0452405 3.72573 0
M  V30 4896 H 447.75 1.78661 4.44542 0
M  V30 4897 H 446.114 0.85933 2.39766 0
M  V30 4898 H 446.897 2.52901 2.32155 0
M  V30 4899 N 449.342 -1.36122 0.79427 0
M  V30 4900 C 450.252 -2.33769 0.197296 0
M  V30 4901 C 451.268 -1.61276 -0.653153 0
M  V30 4902 O 452.444 -1.9323 -0.5678 0
M  V30 4903 C 449.509 -3.40474 -0.654098 0
M  V30 4904 C 448.57 -4.28759 0.215411 0
M  V30 4905 C 447.803 -5.30368 -0.595443 0
M  V30 4906 O 448.026 -5.40211 -1.83107 0
M  V30 4907 O 446.96 -6.019 0.00721351 0
M  V30 4908 H 450.786 -2.86597 1.00478 0
M  V30 4909 H 448.371 -1.38676 0.555818 0
M  V30 4910 H 450.253 -4.05703 -1.13944 0
M  V30 4911 H 448.928 -2.89937 -1.43938 0
M  V30 4912 H 447.835 -3.66554 0.747615 0
M  V30 4913 H 449.168 -4.82661 0.964332 0
M  V30 4914 N 450.82 -0.546701 -1.47814 0
M  V30 4915 C 452.236 -0.205717 -1.58269 0
M  V30 4916 C 452.436 1.29153 -1.54667 0
M  V30 4917 O 451.492 2.07098 -1.44453 0
M  V30 4918 C 452.805 -0.823065 -2.89216 0
M  V30 4919 C 454.353 -0.793328 -3.02779 0
M  V30 4920 C 454.828 -1.38955 -4.36412 0
M  V30 4921 N 456.319 -1.35227 -4.43021 0
M  V30 4922 C 457.054 -1.78333 -5.44963 0
M  V30 4923 N 456.55 -2.29246 -6.53772 0
M  V30 4924 N 458.343 -1.69467 -5.35945 0
M  V30 4925 H 450.494 -1.5196 -1.48398 0
M  V30 4926 H 452.757 -0.633078 -0.705632 0
M  V30 4927 H 452.463 -1.8749 -2.97558 0
M  V30 4928 H 452.337 -0.309915 -3.75925 0
M  V30 4929 H 454.724 0.249784 -2.94041 0
M  V30 4930 H 454.805 -1.34412 -2.17639 0
M  V30 4931 H 454.449 -2.43168 -4.45906 0
M  V30 4932 H 454.379 -0.814291 -5.20266 0
M  V30 4933 H 456.87 -0.979739 -3.64979 0
M  V30 4934 H 457.183 -2.60089 -7.27718 0
M  V30 4935 H 455.528 -2.3325 -6.5469 0
M  V30 4936 H 458.719 -1.29477 -4.49837 0
M  V30 4937 H 458.892 -2.03381 -6.15256 0
M  V30 4938 N 452.299 1.55045 -0.282633 0
M  V30 4939 C 453.524 2.04628 0.337977 0
M  V30 4940 C 453.949 1.15937 1.48123 0
M  V30 4941 O 453.307 0.159532 1.80597 0
M  V30 4942 C 453.355 3.51854 0.78936 0
M  V30 4943 O 452.459 3.66236 1.89592 0
M  V30 4944 H 451.8 0.660434 0.0687261 0
M  V30 4945 H 454.33 2.00261 -0.419124 0
M  V30 4946 H 454.34 3.93361 1.08311 0
M  V30 4947 H 453.015 4.15873 -0.0470419 0
M  V30 4948 H 451.592 3.36633 1.60413 0
M  V30 4949 N 453.777 0.010035 1.57597 0
M  V30 4950 C 455.054 -0.710296 1.82248 0
M  V30 4951 C 455.434 -1.91426 0.889911 0
M  V30 4952 O 454.782 -2.28424 -0.0590292 0
M  V30 4953 C 454.992 -1.10655 3.30993 0
M  V30 4954 C 456.34 -1.50621 3.96987 0
M  V30 4955 O 457.364 -1.20007 3.35375 0
M  V30 4956 O 456.223 -2.07587 5.05539 0
M  V30 4957 H 453.317 -0.34673 0.750804 0
M  V30 4958 H 455.863 0.0362578 1.69661 0
M  V30 4959 H 454.635 -0.248826 3.90508 0
M  V30 4960 H 454.258 -1.91189 3.48615 0
M  V30 4961 N 455.255 -1.55392 -0.262866 0
M  V30 4962 C 456.165 -1.92077 -1.34698 0
M  V30 4963 C 457.181 -0.819227 -1.53508 0
M  V30 4964 O 458.357 -1.11921 -1.67439 0
M  V30 4965 C 455.422 -2.19407 -2.68443 0
M  V30 4966 C 454.483 -3.42905 -2.58292 0
M  V30 4967 C 453.716 -3.68921 -3.85659 0
M  V30 4968 O 453.939 -2.97275 -4.8681 0
M  V30 4969 O 452.873 -4.62455 -3.85252 0
M  V30 4970 H 456.699 -2.84384 -1.06581 0
M  V30 4971 H 454.284 -1.42069 -0.462264 0
M  V30 4972 H 456.166 -2.38365 -3.47506 0
M  V30 4973 H 454.841 -1.30282 -2.96325 0
M  V30 4974 H 453.748 -3.29272 -1.7757 0
M  V30 4975 H 455.081 -4.32282 -2.35358 0
M  V30 4976 N 456.733 0.527833 -1.48498 0
M  V30 4977 C 457.696 1.61439 -1.62696 0
M  V30 4978 C 458.696 1.52824 -0.500136 0
M  V30 4979 O 459.886 1.56456 -0.765976 0
M  V30 4980 C 457.018 3.01063 -1.59918 0
M  V30 4981 H 458.211 1.50189 -2.59583 0
M  V30 4982 H 455.764 0.750055 -1.37127 0
M  V30 4983 H 456.499 3.17818 -0.645163 0
M  V30 4984 H 456.284 3.08725 -2.41726 0
M  V30 4985 H 457.774 3.80057 -1.73051 0
M  V30 4986 N 458.211 1.37122 0.776871 0
M  V30 4987 C 459.143 1.28342 1.89897 0
M  V30 4988 C 460.156 0.200277 1.61563 0
M  V30 4989 O 461.345 0.456012 1.72577 0
M  V30 4990 C 458.445 0.960427 3.25006 0
M  V30 4991 C 457.618 2.148 3.81025 0
M  V30 4992 C 456.677 1.79608 4.94598 0
M  V30 4993 O 455.703 2.51845 5.10454 0
M  V30 4994 N 456.905 0.737171 5.758 0
M  V30 4995 H 459.67 2.25027 1.97947 0
M  V30 4996 H 457.231 1.3068 0.955739 0
M  V30 4997 H 459.223 0.705942 3.98495 0
M  V30 4998 H 457.793 0.0823066 3.12492 0
M  V30 4999 H 457.013 2.56454 2.99374 0
M  V30 5000 H 458.301 2.9411 4.15183 0
M  V30 5001 H 457.699 0.137637 5.65533 0
M  V30 5002 H 456.256 0.542534 6.49538 0
M  V30 5003 N 459.689 -1.00246 1.21608 0
M  V30 5004 C 461.105 -1.26435 0.973975 0
M  V30 5005 C 461.305 -1.98642 -0.338143 0
M  V30 5006 O 460.361 -2.29026 -1.06317 0
M  V30 5007 C 461.674 -2.08551 2.16626 0
M  V30 5008 C 463.222 -2.21769 2.20879 0
M  V30 5009 C 463.697 -3.07267 3.39633 0
M  V30 5010 N 465.188 -3.14855 3.39736 0
M  V30 5011 C 465.923 -3.81274 4.28273 0
M  V30 5012 N 465.419 -4.497 5.27012 0
M  V30 5013 N 467.212 -3.7794 4.16074 0
M  V30 5014 H 459.363 -0.518089 2.05984 0
M  V30 5015 H 461.626 -0.291368 0.902113 0
M  V30 5016 H 461.332 -1.62847 3.11727 0
M  V30 5017 H 461.206 -3.09303 2.15897 0
M  V30 5018 H 463.593 -2.66691 1.26332 0
M  V30 5019 H 463.674 -1.20478 2.25652 0
M  V30 5020 H 463.318 -2.63047 4.34475 0
M  V30 5021 H 463.248 -4.08678 3.321 0
M  V30 5022 H 465.739 -2.66147 2.6828 0
M  V30 5023 H 466.052 -4.98092 5.90867 0
M  V30 5024 H 464.397 -4.48479 5.30935 0
M  V30 5025 H 467.588 -3.23638 3.38195 0
M  V30 5026 H 467.761 -4.29424 4.85282 0
M  V30 5027 N 461.167 -1.02423 -1.1978 0
M  V30 5028 C 462.413 -0.719051 -1.89625 0
M  V30 5029 C 462.746 0.750083 -1.7913 0
M  V30 5030 O 462.021 1.54574 -1.18056 0
M  V30 5031 C 462.304 -1.16499 -3.40735 0
M  V30 5032 C 462.157 -2.695 -3.60125 0
M  V30 5033 C 463.476 -0.742166 -4.33797 0
M  V30 5034 H 460.595 -0.26269 -0.688595 0
M  V30 5035 H 463.237 -1.27333 -1.41018 0
M  V30 5036 H 461.387 -0.69341 -3.82262 0
M  V30 5037 H 463.059 -3.24569 -3.278 0
M  V30 5038 H 461.302 -3.10113 -3.03336 0
M  V30 5039 H 461.973 -2.95757 -4.66081 0
M  V30 5040 H 464.449 -1.1477 -3.99959 0
M  V30 5041 H 463.325 -1.08213 -5.38127 0
M  V30 5042 H 463.586 0.355747 -4.40666 0
M  V30 5043 N 462.645 1.35699 -0.801477 0
M  V30 5044 C 463.892 1.98913 -0.379459 0
M  V30 5045 C 464.22 1.63592 1.05204 0
M  V30 5046 O 463.475 0.888563 1.74365 0
M  V30 5047 C 463.774 3.53828 -0.504041 0
M  V30 5048 C 463.44 4.09002 -1.8981 0
M  V30 5049 C 462.102 4.23783 -2.27951 0
M  V30 5050 C 464.454 4.38939 -2.81038 0
M  V30 5051 C 461.782 4.65816 -3.56696 0
M  V30 5052 C 464.134 4.82409 -4.09224 0
M  V30 5053 C 462.798 4.95395 -4.4737 0
M  V30 5054 H 462.068 0.727874 -0.138854 0
M  V30 5055 H 464.715 1.61994 -1.02128 0
M  V30 5056 H 463.02 3.91175 0.221242 0
M  V30 5057 H 464.717 4.00687 -0.158361 0
M  V30 5058 H 461.307 3.97946 -1.59176 0
M  V30 5059 H 465.491 4.27077 -2.52821 0
M  V30 5060 H 460.747 4.74059 -3.86106 0
M  V30 5061 H 464.921 5.04535 -4.80018 0
M  V30 5062 H 462.548 5.27724 -5.47185 0
M  V30 5063 N 464.123 0.554532 1.47522 0
M  V30 5064 C 465.07 -0.19466 2.29978 0
M  V30 5065 C 466.04 -0.910882 1.38896 0
M  V30 5066 O 467.225 -0.907102 1.67858 0
M  V30 5067 C 464.365 -1.22035 3.22802 0
M  V30 5068 C 463.478 -0.510474 4.28973 0
M  V30 5069 C 462.613 -1.52123 5.08952 0
M  V30 5070 C 461.652 -0.796173 6.069 0
M  V30 5071 N 460.789 -1.75363 6.79847 0
M  V30 5072 H 465.629 0.51461 2.93523 0
M  V30 5073 H 463.166 0.265607 1.44682 0
M  V30 5074 H 465.124 -1.8276 3.7504 0
M  V30 5075 H 463.754 -1.89769 2.61127 0
M  V30 5076 H 462.806 0.211234 3.79813 0
M  V30 5077 H 464.118 0.0576503 4.98767 0
M  V30 5078 H 463.272 -2.20207 5.65326 0
M  V30 5079 H 462.011 -2.12327 4.39054 0
M  V30 5080 H 461.016 -0.101388 5.49707 0
M  V30 5081 H 462.241 -0.199911 6.78806 0
M  V30 5082 H 460.187 -2.3443 6.12682 0
M  V30 5083 H 460.104 -1.23759 7.45801 0
M  V30 5084 H 461.372 -2.4257 7.40797 0
M  V30 5085 N 465.601 -1.54893 0.290851 0
M  V30 5086 C 466.826 -2.04804 -0.32712 0
M  V30 5087 C 467.251 -1.16721 -1.47506 0
M  V30 5088 O 466.609 -0.169107 -1.8051 0
M  V30 5089 C 466.657 -3.52268 -0.770689 0
M  V30 5090 O 465.761 -3.67236 -1.87647 0
M  V30 5091 H 465.102 -0.660789 -0.0652227 0
M  V30 5092 H 467.632 -2.00036 0.429739 0
M  V30 5093 H 467.642 -3.9393 -1.06223 0
M  V30 5094 H 466.317 -4.15843 0.069096 0
M  V30 5095 H 464.894 -3.37479 -1.58626 0
M  V30 5096 N 467.08 -0.0183926 -1.57589 0
M  V30 5097 C 468.305 0.676634 -1.96052 0
M  V30 5098 C 468.73 1.6548 -0.894307 0
M  V30 5099 O 468.088 1.80712 0.145849 0
M  V30 5100 C 468.136 1.36872 -3.33614 0
M  V30 5101 O 467.24 2.48372 -3.29219 0
M  V30 5102 H 466.581 0.1786 -0.63953 0
M  V30 5103 H 469.111 -0.077056 -2.04455 0
M  V30 5104 H 469.121 1.72797 -3.69601 0
M  V30 5105 H 467.796 0.651636 -4.10763 0
M  V30 5106 H 466.373 2.14639 -3.04934 0
M  V30 5107 N 468.558 1.5553 0.254621 0
M  V30 5108 C 469.505 1.89666 1.31512 0
M  V30 5109 C 470.475 0.750057 1.482 0
M  V30 5110 O 471.66 1.00301 1.62309 0
M  V30 5111 C 468.8 2.19009 2.667 0
M  V30 5112 C 467.913 3.46435 2.58083 0
M  V30 5113 C 467.048 3.65386 3.85573 0
M  V30 5114 C 466.087 4.8644 3.71541 0
M  V30 5115 N 465.224 5.01952 4.90906 0
M  V30 5116 H 470.064 2.80109 1.017 0
M  V30 5117 H 467.601 1.38666 0.490938 0
M  V30 5118 H 469.559 2.34025 3.45381 0
M  V30 5119 H 468.189 1.31779 2.94676 0
M  V30 5120 H 467.241 3.39792 1.71013 0
M  V30 5121 H 468.553 4.35258 2.43622 0
M  V30 5122 H 467.707 3.80319 4.72697 0
M  V30 5123 H 466.446 2.74781 4.02922 0
M  V30 5124 H 465.451 4.71491 2.82801 0
M  V30 5125 H 466.676 5.78497 3.55694 0
M  V30 5126 H 464.622 4.14283 5.08631 0
M  V30 5127 H 464.539 5.84851 4.79046 0
M  V30 5128 H 465.807 5.21289 5.7955 0
M  V30 5129 N 470.036 -0.519951 1.48776 0
M  V30 5130 C 471.264 -1.29971 1.60982 0
M  V30 5131 C 471.679 -1.86803 0.273885 0
M  V30 5132 O 471.036 -1.66904 -0.738193 0
M  V30 5133 C 471.087 -2.44346 2.66415 0
M  V30 5134 O 470.808 -1.89855 3.94825 0
M  V30 5135 C 472.309 -3.36014 2.89153 0
M  V30 5136 H 469.529 -0.394891 0.542496 0
M  V30 5137 H 472.073 -0.626214 1.94676 0
M  V30 5138 H 470.228 -3.07562 2.35552 0
M  V30 5139 H 470.642 -2.64798 4.5275 0
M  V30 5140 H 472.116 -4.12593 3.66703 0
M  V30 5141 H 472.593 -3.91859 1.98351 0
M  V30 5142 H 473.199 -2.78582 3.21359 0
M  V30 5143 N 471.514 -1.37532 -0.769588 0
M  V30 5144 C 472.739 -1.36231 -1.56384 0
M  V30 5145 C 473.164 0.0495849 -1.88035 0
M  V30 5146 O 472.522 1.02723 -1.49391 0
M  V30 5147 C 472.57 -2.20986 -2.84952 0
M  V30 5148 O 471.674 -1.61597 -3.79421 0
M  V30 5149 H 471.015 -0.465387 -0.473615 0
M  V30 5150 H 473.545 -1.81085 -0.952342 0
M  V30 5151 H 473.555 -2.34277 -3.34034 0
M  V30 5152 H 472.23 -3.23612 -2.61243 0
M  V30 5153 H 470.807 -1.57359 -3.38072 0
M  V30 5154 N 472.992 0.995999 -1.22138 0
M  V30 5155 C 474.217 1.77601 -1.0711 0
M  V30 5156 C 474.642 1.84339 0.374264 0
M  V30 5157 O 474 1.29359 1.27028 0
M  V30 5158 C 474.048 3.18897 -1.68336 0
M  V30 5159 O 473.152 4.01663 -0.934928 0
M  V30 5160 H 472.493 0.547011 -0.376397 0
M  V30 5161 H 475.023 1.25137 -1.6187 0
M  V30 5162 H 475.033 3.69539 -1.72931 0
M  V30 5163 H 473.708 3.13308 -2.73516 0
M  V30 5164 H 472.285 3.60204 -0.964751 0
M  V30 5165 N 474.47 1.03057 1.19235 0
M  V30 5166 C 475.71 0.736757 1.9066 0
M  V30 5167 C 476.074 -0.721521 1.77927 0
M  V30 5168 O 477.275 -1.12849 2.43964 0
M  V30 5169 C 475.546 1.17755 3.37444 0
M  V30 5170 S 477.105 1.00783 4.27069 0
M  V30 5171 H 473.923 0.268174 0.658486 0
M  V30 5172 H 476.525 1.32076 1.4414 0
M  V30 5173 H 475.229 2.23448 3.44237 0
M  V30 5174 H 474.76 0.586912 3.88997 0
M  V30 5175 H 476.775 -0.0806356 4.96134 0
M  V30 5176 N 475.948 -1.35272 0.808662 0
M  V30 5177 C 477.225 -1.93077 0.313181 0
M  V30 5178 C 477.605 -1.73847 -1.19752 0
M  V30 5179 O 476.953 -1.1087 -1.998 0
M  V30 5180 C 477.163 -3.41347 0.726859 0
M  V30 5181 C 478.511 -4.18493 0.717532 0
M  V30 5182 O 479.535 -3.4987 0.668535 0
M  V30 5183 O 478.394 -5.40937 0.777779 0
M  V30 5184 H 475.488 -0.822885 0.0824018 0
M  V30 5185 H 478.034 -1.44335 0.892499 0
M  V30 5186 H 476.806 -3.49082 1.76797 0
M  V30 5187 H 476.429 -3.97411 0.122461 0
M  V30 5188 N 477.426 -0.562348 -1.47226 0
M  V30 5189 C 478.373 0.182461 -2.30078 0
M  V30 5190 C 479.343 0.903503 -1.39377 0
M  V30 5191 O 480.528 0.898188 -1.68337 0
M  V30 5192 C 477.668 1.20322 -3.23445 0
M  V30 5193 C 476.781 0.487717 -4.29238 0
M  V30 5194 C 475.916 1.49422 -5.09752 0
M  V30 5195 C 474.955 0.763976 -6.07314 0
M  V30 5196 N 474.092 1.71755 -6.80768 0
M  V30 5197 H 478.932 -0.530169 -2.93246 0
M  V30 5198 H 476.469 -0.273276 -1.44539 0
M  V30 5199 H 478.427 1.80768 -3.76004 0
M  V30 5200 H 477.057 1.88382 -2.6213 0
M  V30 5201 H 476.109 -0.231374 -3.79696 0
M  V30 5202 H 477.421 -0.0841003 -4.98729 0
M  V30 5203 H 476.575 2.17206 -5.66486 0
M  V30 5204 H 475.314 2.09995 -4.40174 0
M  V30 5205 H 474.319 0.0722344 -5.49753 0
M  V30 5206 H 475.544 0.16391 -6.78902 0
M  V30 5207 H 473.49 2.31177 -6.13916 0
M  V30 5208 H 473.407 1.19802 -7.46447 0
M  V30 5209 H 474.675 2.38638 -7.42073 0
M  V30 5210 N 478.904 1.54736 -0.299062 0
M  V30 5211 C 480.129 2.04975 0.316254 0
M  V30 5212 C 480.554 1.17501 1.46885 0
M  V30 5213 O 479.912 0.178678 1.80417 0
M  V30 5214 C 479.96 3.52672 0.751997 0
M  V30 5215 O 479.064 3.68226 1.85697 0
M  V30 5216 H 478.405 0.661126 0.0617175 0
M  V30 5217 H 480.935 1.99805 -0.440341 0
M  V30 5218 H 480.945 3.94488 1.04133 0
M  V30 5219 H 479.62 4.158 -0.0911482 0
M  V30 5220 H 478.197 3.38316 1.56834 0
M  V30 5221 N 480.382 0.0267497 1.57577 0
M  V30 5222 C 481.659 -0.690926 1.82991 0
M  V30 5223 C 482.039 -1.90471 0.910164 0
M  V30 5224 O 481.387 -2.28474 -0.0347985 0
M  V30 5225 C 481.597 -1.07139 3.32148 0
M  V30 5226 C 482.945 -1.46402 3.98562 0
M  V30 5227 O 483.969 -1.16443 3.36629 0
M  V30 5228 O 482.828 -2.02214 5.07712 0
M  V30 5229 H 479.922 -0.338747 0.75444 0
M  V30 5230 H 482.468 0.0542506 1.69613 0
M  V30 5231 H 481.24 -0.207394 3.9075 0
M  V30 5232 H 480.863 -1.87481 3.50623 0
M  V30 5233 N 481.861 -1.55662 -0.24637 0
M  V30 5234 C 483.089 -1.81575 -0.991876 0
M  V30 5235 C 483.504 -0.602545 -1.78927 0
M  V30 5236 O 482.861 0.428795 -1.77391 0
M  V30 5237 C 482.912 -3.05711 -1.92933 0
M  V30 5238 O 482.633 -4.22348 -1.1642 0
M  V30 5239 C 484.134 -3.44428 -2.79078 0
M  V30 5240 H 481.354 -0.604209 -0.291844 0
M  V30 5241 H 483.898 -2.02722 -0.269095 0
M  V30 5242 H 482.053 -2.86612 -2.60638 0
M  V30 5243 H 482.467 -4.92706 -1.79835 0
M  V30 5244 H 483.941 -4.34388 -3.40603 0
M  V30 5245 H 484.418 -2.65037 -3.50217 0
M  V30 5246 H 485.024 -3.65879 -2.16824 0
M  V30 5247 N 483.339 0.512053 -1.4905 0
M  V30 5248 C 484.579 1.27715 -1.59588 0
M  V30 5249 C 484.943 1.90071 -0.271502 0
M  V30 5250 O 486.144 2.67616 -0.251987 0
M  V30 5251 C 484.415 2.32399 -2.71524 0
M  V30 5252 S 485.974 3.18396 -3.01943 0
M  V30 5253 H 482.792 0.43419 -0.563027 0
M  V30 5254 H 485.394 0.581315 -1.86657 0
M  V30 5255 H 484.098 1.85101 -3.66287 0
M  V30 5256 H 483.629 3.06667 -2.46412 0
M  V30 5257 H 485.644 4.32842 -2.42616 0
M  V30 5258 N 484.817 1.37938 0.762283 0
M  V30 5259 C 486.064 1.33668 1.52115 0
M  V30 5260 C 486.392 -0.0759538 1.94352 0
M  V30 5261 O 485.647 -1.05121 1.6507 0
M  V30 5262 C 485.946 2.23042 2.79261 0
M  V30 5263 C 485.612 3.71159 2.56031 0
M  V30 5264 C 484.274 4.11523 2.49404 0
M  V30 5265 C 486.626 4.64955 2.35513 0
M  V30 5266 C 483.954 5.43784 2.20263 0
M  V30 5267 C 486.306 5.97464 2.07894 0
M  V30 5268 C 484.97 6.36922 1.99718 0
M  V30 5269 H 484.24 0.489127 0.556629 0
M  V30 5270 H 486.887 1.70224 0.877262 0
M  V30 5271 H 485.192 1.79512 3.48256 0
M  V30 5272 H 486.889 2.17047 3.37182 0
M  V30 5273 H 483.479 3.39153 2.62056 0
M  V30 5274 H 487.663 4.34623 2.39617 0
M  V30 5275 H 482.919 5.73307 2.12435 0
M  V30 5276 H 487.093 6.6969 1.91019 0
M  V30 5277 H 484.72 7.39331 1.76902 0
M  V30 5278 O 486.334 -0.902626 1.33921 0
M  V30 5279 H 487.025 -1.53762 1.178 0
M  V30 END ATOM
M  V30 BEGIN BOND
M  V30 END BOND
M  V30 END CTAB
M  END
$$$$
