drugbank_target|P18089 Alpha-2B adrenergic receptor (DB00246; DB00248; DB00292; DB00363; DB00368; DB00408; DB00457; DB00484; DB00502; DB00575; DB00589; DB00629; DB00668; DB00714; DB00726; DB00734; DB00797; DB00800; DB00925; DB00935; DB00964; DB01018; DB01136; DB01200; DB01224; DB01238; DB01267; DB01363; DB01392; DB01403; DB01577; DB04846; DB04855; DB05271; DB05461; DB05492; DB06148; DB06153; DB06216; DB06229; DB06262; DB06694; DB11124; DB14185)
 OpenBabel12092119343D

  0  0  0     0  0            999 V3000
M  V30 BEGIN CTAB
M  V30 COUNTS 7018 7114 0 0 0
M  V30 BEGIN ATOM
M  V30 1 H -0.908 1.98254 -0.117106 0
M  V30 2 N 0 1.576 0 0
M  V30 3 C 0.933 2.03868 1.02534 0
M  V30 4 C 1.911 0.928543 1.3348 0
M  V30 5 O 3.095 1.19667 1.45644 0
M  V30 6 C 0.222 2.43627 2.35294 0
M  V30 7 C -0.732 3.65373 2.2001 0
M  V30 8 S 0.101 5.13292 1.52614 0
M  V30 9 C 1.257 5.56322 2.86805 0
M  V30 10 H 1.49 2.90518 0.631377 0
M  V30 11 H -0.977 1.52953 0.210867 0
M  V30 12 H 0.981 2.67203 3.11629 0
M  V30 13 H -0.358 1.57376 2.7183 0
M  V30 14 H -1.165 3.90944 3.18086 0
M  V30 15 H -1.563 3.418 1.51819 0
M  V30 16 H 0.729 5.58782 3.83104 0
M  V30 17 H 1.672 6.56266 2.65933 0
M  V30 18 H 2.08 4.83886 2.90714 0
M  V30 19 N 1.4781 -0.272755 1.55222 0
M  V30 20 C 2.7551 -1.02562 1.66555 0
M  V30 21 C 3.1351 -2.04282 0.532189 0
M  V30 22 O 2.4831 -2.23662 -0.467717 0
M  V30 23 C 2.6931 -1.6822 3.05782 0
M  V30 24 C 4.0411 -2.19373 3.63539 0
M  V30 25 O 5.0651 -1.78206 3.08417 0
M  V30 26 O 3.9241 -2.94883 4.60115 0
M  V30 27 H 1.0181 -0.475755 0.676451 0
M  V30 28 H 3.5641 -0.268593 1.67561 0
M  V30 29 H 2.3361 -0.945112 3.79715 0
M  V30 30 H 1.9591 -2.50609 3.08676 0
M  V30 31 N 2.9562 -1.48159 -0.537278 0
M  V30 32 C 3.9062 -1.5854 -1.63857 0
M  V30 33 C 4.8902 -0.442969 -1.54682 0
M  V30 34 O 6.0822 -0.69401 -1.62827 0
M  V30 35 C 3.2112 -1.62144 -3.02596 0
M  V30 36 C 2.2972 -2.81841 -3.16901 0
M  V30 37 N 2.6882 -4.06337 -3.01204 0
M  V30 38 C 0.9862 -2.79021 -3.47942 0
M  V30 39 C 1.6872 -4.86606 -3.18731 0
M  V30 40 N 0.6632 -4.19288 -3.45974 0
M  V30 41 H 4.4652 -2.5255 -1.50319 0
M  V30 42 H 1.9792 -1.4443 -0.742555 0
M  V30 43 H 3.9762 -1.67674 -3.81695 0
M  V30 44 H 2.6362 -0.69245 -3.17231 0
M  V30 45 H 3.6472 -4.36888 -2.78117 0
M  V30 46 H 0.3242 -1.95347 -3.6898 0
M  V30 47 H 1.7142 -5.95385 -3.11394 0
M  V30 48 N 4.4343 0.785586 -1.36625 0
M  V30 49 C 5.3663 1.90711 -1.2713 0
M  V30 50 C 6.3793 1.61688 -0.189986 0
M  V30 51 O 7.5683 1.72864 -0.445014 0
M  V30 52 C 4.6683 3.25611 -0.939713 0
M  V30 53 C 3.8413 3.82385 -2.12369 0
M  V30 54 C 2.9003 4.95732 -1.76456 0
M  V30 55 O 1.9263 5.12047 -2.48589 0
M  V30 56 N 3.1283 5.76258 -0.700492 0
M  V30 57 H 5.8933 1.99376 -2.23762 0
M  V30 58 H 3.4543 0.964041 -1.30069 0
M  V30 59 H 5.4463 3.98937 -0.680554 0
M  V30 60 H 4.0163 3.12538 -0.0624074 0
M  V30 61 H 3.2363 3.01001 -2.54543 0
M  V30 62 H 4.5243 4.17047 -2.9146 0
M  V30 63 H 3.9223 5.65609 -0.101624 0
M  V30 64 H 2.4793 6.4987 -0.501165 0
M  V30 65 N 5.9124 1.20967 1.01018 0
M  V30 66 C 7.1894 0.93264 1.71934 0
M  V30 67 C 7.5694 -0.55692 2.03621 0
M  V30 68 O 6.9174 -1.52035 1.7058 0
M  V30 69 C 7.1274 1.81233 2.98254 0
M  V30 70 C 8.4754 2.05804 3.71389 0
M  V30 71 O 9.4994 1.78539 3.08225 0
M  V30 72 O 8.3584 2.51888 4.84989 0
M  V30 73 H 5.4524 0.349272 0.749625 0
M  V30 74 H 7.9984 1.31871 1.06808 0
M  V30 75 H 6.7704 2.82067 2.71208 0
M  V30 76 H 6.3934 1.42674 3.7112 0
M  V30 77 N 7.3905 -1.2043 1.01659 0
M  V30 78 C 8.8015 -1.71517 0.737482 0
M  V30 79 C 9.1525 -1.81547 -0.743973 0
M  V30 80 O 8.2775 -1.47803 -1.58061 0
M  V30 81 C 8.8725 -3.11515 1.33206 0
M  V30 82 C 7.4315 -3.59912 1.10183 0
M  V30 83 C 6.5785 -2.37116 1.43776 0
M  V30 84 H 9.5295 -1.05444 1.18606 0
M  V30 85 H 9.5505 -3.73575 0.722636 0
M  V30 86 H 9.0625 -3.04182 2.41028 0
M  V30 87 H 7.1635 -3.72577 0.0412756 0
M  V30 88 H 7.2765 -4.44731 1.78188 0
M  V30 89 H 5.6405 -2.39857 0.856778 0
M  V30 90 H 6.4235 -2.32424 2.52654 0
M  V30 91 N 8.8686 -0.792821 -1.36206 0
M  V30 92 C 10.0986 -0.378275 -2.03107 0
M  V30 93 C 10.5066 1.01119 -1.59911 0
M  V30 94 O 9.8496 1.66052 -0.785658 0
M  V30 95 C 9.9116 -0.366535 -3.57627 0
M  V30 96 C 9.5756 -1.70416 -4.24037 0
M  V30 97 C 10.5726 -2.6602 -4.46687 0
M  V30 98 C 8.2576 -1.98439 -4.6144 0
M  V30 99 C 10.2516 -3.8784 -5.05825 0
M  V30 100 C 7.9386 -3.20525 -5.20295 0
M  V30 101 C 8.9366 -4.15044 -5.42427 0
M  V30 102 O 8.6246 -5.34978 -6.00045 0
M  V30 103 H 8.3566 -0.153543 -0.658332 0
M  V30 104 H 10.9106 -1.07383 -1.75094 0
M  V30 105 H 9.1406 0.385539 -3.84773 0
M  V30 106 H 10.8296 0.0238088 -4.05893 0
M  V30 107 H 11.5956 -2.45658 -4.18183 0
M  V30 108 H 7.4746 -1.25686 -4.43536 0
M  V30 109 H 11.0186 -4.61628 -5.23015 0
M  V30 110 H 6.9156 -3.40764 -5.48225 0
M  V30 111 H 7.6836 -5.36088 -6.18508 0
M  V30 112 N 10.3467 1.47872 -0.545128 0
M  V30 113 C 11.5717 2.07391 -0.0190611 0
M  V30 114 C 11.9967 1.39688 1.25971 0
M  V30 115 O 11.3547 0.467816 1.7516 0
M  V30 116 C 11.4027 3.60188 0.172335 0
M  V30 117 O 10.5067 3.9339 1.23766 0
M  V30 118 H 9.8477 0.662411 -0.0459059 0
M  V30 119 H 12.3777 1.90066 -0.757365 0
M  V30 120 H 12.3877 4.06129 0.390305 0
M  V30 121 H 11.0627 4.08865 -0.761725 0
M  V30 122 H 9.6397 3.5921 1.00114 0
M  V30 123 N 11.8248 0.280983 1.55075 0
M  V30 124 C 13.0708 -0.33461 2.00021 0
M  V30 125 C 13.4038 -1.55063 1.16915 0
M  V30 126 O 12.6788 -1.93006 0.240646 0
M  V30 127 C 12.9618 -0.711007 3.53011 0
M  V30 128 C 12.8148 0.512766 4.46868 0
M  V30 129 C 14.1338 -1.54522 4.12081 0
M  V30 130 H 11.2528 -0.120147 0.727141 0
M  V30 131 H 13.8948 0.389097 1.85973 0
M  V30 132 H 12.0448 -1.32761 3.65112 0
M  V30 133 H 13.7168 1.15131 4.46702 0
M  V30 134 H 11.9598 1.14975 4.18286 0
M  V30 135 H 12.6308 0.205556 5.51617 0
M  V30 136 H 15.1068 -1.02442 4.03293 0
M  V30 137 H 13.9828 -1.77739 5.19327 0
M  V30 138 H 14.2438 -2.52813 3.62682 0
M  V30 139 N 13.3029 -1.57598 0.00835791 0
M  V30 140 C 14.2349 -2.05811 -1.00868 0
M  V30 141 C 15.2479 -0.977579 -1.30182 0
M  V30 142 O 16.4369 -1.25421 -1.27011 0
M  V30 143 C 13.5369 -2.45016 -2.34137 0
M  V30 144 C 12.7099 -3.75903 -2.23643 0
M  V30 145 C 11.7689 -4.01884 -3.3967 0
M  V30 146 O 10.7949 -4.72433 -3.17483 0
M  V30 147 N 11.9969 -3.50432 -4.62793 0
M  V30 148 H 14.7619 -2.93684 -0.597458 0
M  V30 149 H 12.3229 -1.60909 -0.178852 0
M  V30 150 H 14.3149 -2.59506 -3.10546 0
M  V30 151 H 12.8849 -1.62618 -2.66972 0
M  V30 152 H 12.1049 -3.7141 -1.32091 0
M  V30 153 H 13.3929 -4.61695 -2.13812 0
M  V30 154 H 12.7909 -2.93317 -4.83716 0
M  V30 155 H 11.3479 -3.70236 -5.3644 0
M  V30 156 N 14.781 0.264519 -1.55364 0
M  V30 157 C 15.744 1.31046 -1.88042 0
M  V30 158 C 16.744 1.41943 -0.755569 0
M  V30 159 O 17.934 1.40947 -1.02369 0
M  V30 160 C 15.066 2.69067 -2.09323 0
M  V30 161 H 16.259 1.03297 -2.81549 0
M  V30 162 H 13.812 0.502989 -1.47986 0
M  V30 163 H 14.547 3.01982 -1.18226 0
M  V30 164 H 14.332 2.62542 -2.91229 0
M  V30 165 H 15.822 3.44623 -2.35848 0
M  V30 166 N 16.2591 1.48442 0.529413 0
M  V30 167 C 17.4871 1.60151 1.30994 0
M  V30 168 C 17.9021 0.261985 1.86973 0
M  V30 169 O 17.2591 -0.748805 1.66431 0
M  V30 170 C 17.3101 2.64854 2.46038 0
M  V30 171 O 17.0311 3.93608 1.92365 0
M  V30 172 C 18.5321 2.87007 3.37849 0
M  V30 173 H 15.7521 0.539971 0.398338 0
M  V30 174 H 18.2961 1.94273 0.638597 0
M  V30 175 H 16.4511 2.33589 3.09055 0
M  V30 176 H 16.8651 4.51055 2.67675 0
M  V30 177 H 18.3391 3.64068 4.14919 0
M  V30 178 H 18.8161 1.95852 3.93114 0
M  V30 179 H 19.4221 3.19579 2.80623 0
M  V30 180 N 17.7372 -0.778329 1.37039 0
M  V30 181 C 18.7002 -1.87301 1.32102 0
M  V30 182 C 19.7002 -1.59198 0.226405 0
M  V30 183 O 20.8902 -1.67403 0.481861 0
M  V30 184 C 18.0222 -3.24309 1.05055 0
M  V30 185 H 19.2152 -1.93093 2.29467 0
M  V30 186 H 16.7682 -0.977358 1.21973 0
M  V30 187 H 17.5032 -3.24196 0.0819373 0
M  V30 188 H 17.2882 -3.46098 1.84279 0
M  V30 189 H 18.7782 -4.04382 1.04234 0
M  V30 190 N 19.2153 -1.21501 -1.00376 0
M  V30 191 C 20.1783 -0.976927 -2.07337 0
M  V30 192 C 21.1783 0.0525322 -1.60714 0
M  V30 193 O 22.3683 -0.184869 -1.73216 0
M  V30 194 C 19.5003 -0.473423 -3.37597 0
M  V30 195 H 20.6933 -1.92587 -2.29892 0
M  V30 196 H 18.2463 -1.03217 -1.17371 0
M  V30 197 H 18.9813 0.480379 -3.20722 0
M  V30 198 H 18.7663 -1.216 -3.72768 0
M  V30 199 H 20.2563 -0.32675 -4.1632 0
M  V30 200 N 20.6934 1.19889 -1.02296 0
M  V30 201 C 21.9424 1.88743 -0.711257 0
M  V30 202 C 22.2554 1.80112 0.762817 0
M  V30 203 O 23.4614 2.44161 1.18733 0
M  V30 204 C 21.9174 3.38525 -1.22185 0
M  V30 205 C 21.5254 3.55727 -2.72328 0
M  V30 206 C 23.2694 4.12893 -0.985864 0
M  V30 207 C 21.1764 4.99369 -3.16835 0
M  V30 208 H 20.1064 0.706885 -0.262353 0
M  V30 209 H 22.7574 1.35586 -1.23648 0
M  V30 210 H 21.1394 3.91044 -0.624571 0
M  V30 211 H 22.3134 3.13564 -3.3766 0
M  V30 212 H 20.6284 2.94739 -2.9414 0
M  V30 213 H 23.2254 5.18813 -1.29374 0
M  V30 214 H 23.5684 4.16228 0.0775055 0
M  V30 215 H 24.1014 3.66494 -1.54684 0
M  V30 216 H 20.8404 5.01193 -4.22476 0
M  V30 217 H 20.3604 5.42317 -2.56228 0
M  V30 218 H 22.0394 5.67988 -3.09837 0
M  V30 219 N 22.1715 0.800033 1.35784 0
M  V30 220 C 23.1345 0.211565 2.28221 0
M  V30 221 C 24.1345 -0.59728 1.49296 0
M  V30 222 O 25.3245 -0.416721 1.69142 0
M  V30 223 C 22.4565 -0.705846 3.33513 0
M  V30 224 H 23.6495 1.02677 2.81776 0
M  V30 225 H 21.2025 0.570211 1.45528 0
M  V30 226 H 21.9375 -1.54498 2.85133 0
M  V30 227 H 21.7225 -0.127655 3.91892 0
M  V30 228 H 23.2125 -1.11211 4.02519 0
M  V30 229 N 23.6496 -1.47581 0.552962 0
M  V30 230 C 24.6126 -2.28439 -0.186605 0
M  V30 231 C 25.6126 -1.36706 -0.84665 0
M  V30 232 O 26.8026 -1.59378 -0.703164 0
M  V30 233 C 23.9346 -3.16264 -1.2724 0
M  V30 234 H 25.1276 -2.95294 0.523609 0
M  V30 235 H 22.6806 -1.532 0.309745 0
M  V30 236 H 23.4156 -2.54091 -2.01514 0
M  V30 237 H 23.2006 -3.83769 -0.803968 0
M  V30 238 H 24.6906 -3.77198 -1.79196 0
M  V30 239 N 25.1277 -0.289203 -1.54924 0
M  V30 240 C 26.0907 0.579144 -2.21762 0
M  V30 241 C 27.0907 1.07047 -1.1999 0
M  V30 242 O 28.2807 0.968384 -1.44803 0
M  V30 243 C 25.4127 1.80055 -2.8947 0
M  V30 244 H 26.6057 -0.00464908 -2.999 0
M  V30 245 H 24.1587 -0.0399306 -1.56249 0
M  V30 246 H 24.8937 2.42449 -2.15381 0
M  V30 247 H 24.6787 1.45602 -3.64064 0
M  V30 248 H 26.1687 2.41773 -3.40493 0
M  V30 249 N 26.6058 1.57591 -0.0167156 0
M  V30 250 C 27.8548 1.90461 0.663877 0
M  V30 251 C 28.1678 0.893515 1.73999 0
M  V30 252 O 29.3738 1.11302 2.47637 0
M  V30 253 C 27.8298 3.38155 1.23204 0
M  V30 254 C 27.4378 4.47597 0.189866 0
M  V30 255 C 29.1818 3.80111 1.88986 0
M  V30 256 C 27.0888 5.86379 0.768964 0
M  V30 257 H 26.0188 0.710738 0.251729 0
M  V30 258 H 28.6698 1.83326 -0.0799926 0
M  V30 259 H 27.0518 3.40182 2.02712 0
M  V30 260 H 28.2258 4.57112 -0.581846 0
M  V30 261 H 26.5408 4.14766 -0.368475 0
M  V30 262 H 29.1378 4.81145 2.33247 0
M  V30 263 H 29.4808 3.14511 2.72743 0
M  V30 264 H 30.0138 3.80454 1.16187 0
M  V30 265 H 26.7528 6.55493 -0.0301957 0
M  V30 266 H 26.2728 5.80496 1.50945 0
M  V30 267 H 27.9518 6.34563 1.26251 0
M  V30 268 N 28.0839 -0.256276 1.55502 0
M  V30 269 C 29.3119 -1.00342 1.8094 0
M  V30 270 C 29.7269 -1.79307 0.59114 0
M  V30 271 O 29.0839 -1.77114 -0.440081 0
M  V30 272 C 29.1349 -1.94875 3.04476 0
M  V30 273 O 28.8559 -1.19107 4.21598 0
M  V30 274 C 30.3569 -2.81266 3.42644 0
M  V30 275 H 27.5769 -0.295685 0.602338 0
M  V30 276 H 30.1209 -0.281998 2.02546 0
M  V30 277 H 28.2759 -2.62457 2.84947 0
M  V30 278 H 28.6899 -1.82969 4.91551 0
M  V30 279 H 30.1639 -3.43362 4.32211 0
M  V30 280 H 30.6409 -3.51897 2.62802 0
M  V30 281 H 31.2469 -2.1915 3.64491 0
M  V30 282 N 29.562 -1.4872 -0.521534 0
M  V30 283 C 30.809 -1.57168 -1.27689 0
M  V30 284 C 31.137 -0.249275 -1.92896 0
M  V30 285 O 30.392 0.761162 -1.80291 0
M  V30 286 C 30.691 -2.66497 -2.38148 0
M  V30 287 C 30.357 -4.08664 -1.90538 0
M  V30 288 C 29.019 -4.47357 -1.77271 0
M  V30 289 C 31.371 -4.97724 -1.54663 0
M  V30 290 C 28.699 -5.72905 -1.26478 0
M  V30 291 C 31.051 -6.2377 -1.05329 0
M  V30 292 C 29.715 -6.61311 -0.906861 0
M  V30 293 H 28.985 -0.575117 -0.467249 0
M  V30 294 H 31.632 -1.82472 -0.581051 0
M  V30 295 H 29.937 -2.35085 -3.13437 0
M  V30 296 H 31.634 -2.70246 -2.96257 0
M  V30 297 H 28.224 -3.78111 -2.01816 0
M  V30 298 H 32.408 -4.68501 -1.63768 0
M  V30 299 H 27.664 -6.00709 -1.13835 0
M  V30 300 H 31.838 -6.9217 -0.76644 0
M  V30 301 H 29.465 -7.5848 -0.511083 0
M  V30 302 N 31.0401 0.771051 -1.3745 0
M  V30 303 C 31.9701 1.89827 -1.3597 0
M  V30 304 C 32.9511 1.68562 -0.228216 0
M  V30 305 O 34.1361 1.8941 -0.428675 0
M  V30 306 C 31.2661 3.2712 -1.16662 0
M  V30 307 C 30.2201 3.6295 -2.2683 0
M  V30 308 C 29.5461 4.98791 -1.92644 0
M  V30 309 C 30.8461 3.69627 -3.69017 0
M  V30 310 H 32.5401 1.91323 -2.30295 0
M  V30 311 H 30.0861 0.919082 -1.10855 0
M  V30 312 H 32.0391 4.05615 -1.14256 0
M  V30 313 H 30.7631 3.26059 -0.187926 0
M  V30 314 H 29.4221 2.86763 -2.28392 0
M  V30 315 H 29.0701 4.94271 -0.933021 0
M  V30 316 H 28.7701 5.23733 -2.66416 0
M  V30 317 H 30.2941 5.79685 -1.91826 0
M  V30 318 H 31.7081 4.38273 -3.69581 0
M  V30 319 H 30.1051 4.06067 -4.41848 0
M  V30 320 H 31.1751 2.70273 -4.02592 0
M  V30 321 N 32.5182 1.22032 0.997298 0
M  V30 322 C 33.7672 1.03637 1.73038 0
M  V30 323 C 34.0802 -0.429475 1.90827 0
M  V30 324 O 35.2862 -0.732995 2.61418 0
M  V30 325 C 33.7422 1.80582 3.11317 0
M  V30 326 C 33.3502 3.31387 3.01474 0
M  V30 327 C 35.0942 1.70621 3.88701 0
M  V30 328 C 33.0012 4.00791 4.3488 0
M  V30 329 H 31.9312 0.384179 0.648785 0
M  V30 330 H 34.5822 1.4584 1.11368 0
M  V30 331 H 32.9642 1.31175 3.73643 0
M  V30 332 H 34.1382 3.88155 2.4834 0
M  V30 333 H 32.4532 3.41976 2.37575 0
M  V30 334 H 35.0502 2.19799 4.87434 0
M  V30 335 H 35.3932 0.665823 4.10941 0
M  V30 336 H 35.9262 2.17547 3.33044 0
M  V30 337 H 32.6652 5.05064 4.1784 0
M  V30 338 H 32.1852 3.48811 4.87945 0
M  V30 339 H 33.8642 4.06139 5.03647 0
M  V30 340 N 33.9963 -1.19345 1.0293 0
M  V30 341 C 34.9263 -2.2481 0.631105 0
M  V30 342 C 35.9073 -1.66245 -0.360104 0
M  V30 343 O 37.0923 -1.92677 -0.242726 0
M  V30 344 C 34.2223 -3.47295 -0.0184607 0
M  V30 345 C 33.1763 -4.18536 0.895073 0
M  V30 346 C 32.5023 -5.34586 0.110592 0
M  V30 347 C 33.8023 -4.73287 2.209 0
M  V30 348 H 35.4963 -2.58372 1.51275 0
M  V30 349 H 33.0423 -1.24194 0.728818 0
M  V30 350 H 34.9953 -4.20268 -0.308675 0
M  V30 351 H 33.7193 -3.12933 -0.934907 0
M  V30 352 H 32.3783 -3.47446 1.16949 0
M  V30 353 H 32.0263 -4.96469 -0.807902 0
M  V30 354 H 31.7263 -5.83183 0.719087 0
M  V30 355 H 33.2503 -6.10355 -0.172871 0
M  V30 356 H 34.6643 -5.38013 1.98028 0
M  V30 357 H 33.0613 -5.32373 2.76946 0
M  V30 358 H 34.1313 -3.91331 2.86336 0
M  V30 359 N 35.4744 -0.807222 -1.35358 0
M  V30 360 C 36.7214 -0.387888 -1.9875 0
M  V30 361 C 37.0494 1.04509 -1.64037 0
M  V30 362 O 36.3044 1.73986 -0.895946 0
M  V30 363 C 36.6034 -0.519036 -3.53611 0
M  V30 364 C 36.2694 -1.91542 -4.08194 0
M  V30 365 C 34.9314 -2.29745 -4.22813 0
M  V30 366 C 37.2834 -2.82896 -4.37744 0
M  V30 367 C 34.6114 -3.58668 -4.643 0
M  V30 368 C 36.9634 -4.11265 -4.8067 0
M  V30 369 C 35.6274 -4.49466 -4.93494 0
M  V30 370 H 34.8974 -0.141938 -0.727279 0
M  V30 371 H 37.5444 -1.02814 -1.6156 0
M  V30 372 H 35.8494 0.204658 -3.91265 0
M  V30 373 H 37.5464 -0.175345 -4.00616 0
M  V30 374 H 34.1364 -1.60862 -3.97268 0
M  V30 375 H 38.3204 -2.54629 -4.26002 0
M  V30 376 H 33.5764 -3.88113 -4.72418 0
M  V30 377 H 37.7504 -4.82153 -5.02496 0
M  V30 378 H 35.3774 -5.49418 -5.25399 0
M  V30 379 N 36.9525 1.47285 -0.560781 0
M  V30 380 C 38.1805 2.06855 -0.0430262 0
M  V30 381 C 38.5955 1.41291 1.25229 0
M  V30 382 O 37.9525 0.510648 1.7521 0
M  V30 383 C 38.0035 3.61178 0.152518 0
M  V30 384 O 37.7245 4.24285 -1.0915 0
M  V30 385 C 39.2255 4.37624 0.707145 0
M  V30 386 H 36.4455 0.669319 -0.0474652 0
M  V30 387 H 38.9895 1.89237 -0.77521 0
M  V30 388 H 37.1445 3.78298 0.834843 0
M  V30 389 H 37.5585 5.16868 -0.891482 0
M  V30 390 H 39.0325 5.46271 0.793244 0
M  V30 391 H 39.5095 4.04152 1.71923 0
M  V30 392 H 40.1155 4.25257 0.0604027 0
M  V30 393 N 38.4306 0.297415 1.54768 0
M  V30 394 C 39.6796 -0.313669 1.99246 0
M  V30 395 C 39.9926 -1.55281 1.18942 0
M  V30 396 O 41.1986 -2.23825 1.5367 0
M  V30 397 C 39.6546 -0.609407 3.54703 0
M  V30 398 C 39.2626 0.611192 4.43811 0
M  V30 399 C 41.0066 -1.18188 4.07715 0
M  V30 400 C 38.9136 0.288805 5.90694 0
M  V30 401 H 37.8436 -0.120979 0.744231 0
M  V30 402 H 40.4946 0.40556 1.78962 0
M  V30 403 H 38.8766 -1.38813 3.70873 0
M  V30 404 H 40.0506 1.3875 4.39414 0
M  V30 405 H 38.3656 1.10205 4.01552 0
M  V30 406 H 40.9626 -1.43727 5.15021 0
M  V30 407 H 41.3056 -2.12299 3.58099 0
M  V30 408 H 41.8386 -0.464944 3.95074 0
M  V30 409 H 38.5776 1.19838 6.44453 0
M  V30 410 H 38.0976 -0.450305 5.98107 0
M  V30 411 H 39.7766 -0.110933 6.46905 0
M  V30 412 N 39.9087 -1.5758 0.0250728 0
M  V30 413 C 41.1557 -1.91633 -0.654444 0
M  V30 414 C 41.4837 -0.901103 -1.72367 0
M  V30 415 O 40.7387 0.0905647 -1.9549 0
M  V30 416 C 41.0377 -3.32421 -1.31268 0
M  V30 417 C 40.7037 -4.49344 -0.374223 0
M  V30 418 C 39.3657 -4.8106 -0.115911 0
M  V30 419 C 41.7177 -5.20498 0.270432 0
M  V30 420 C 39.0457 -5.8129 0.79493 0
M  V30 421 C 41.3977 -6.21699 1.1693 0
M  V30 422 C 40.0617 -6.51859 1.43655 0
M  V30 423 H 39.3317 -0.701236 -0.239478 0
M  V30 424 H 41.9787 -1.91307 0.0859734 0
M  V30 425 H 40.2837 -3.28989 -2.12775 0
M  V30 426 H 41.9807 -3.56038 -1.84494 0
M  V30 427 H 38.5707 -4.24579 -0.58573 0
M  V30 428 H 42.7547 -4.96229 0.0839194 0
M  V30 429 H 38.0107 -6.03005 1.00973 0
M  V30 430 H 42.1847 -6.75955 1.67504 0
M  V30 431 H 39.8117 -7.2934 2.144 0
M  V30 432 N 41.3868 0.248026 -1.55636 0
M  V30 433 C 42.6348 0.974295 -1.77065 0
M  V30 434 C 42.9558 1.85897 -0.588849 0
M  V30 435 O 42.2258 1.91868 0.395407 0
M  V30 436 H 40.8058 0.362733 -0.653019 0
M  V30 437 H 43.4678 0.266244 -1.93073 0
M  V30 438 H 42.5638 1.59667 -2.68166 0
M  V30 439 N 42.8649 1.48995 0.513639 0
M  V30 440 C 43.8129 1.65199 1.63744 0
M  V30 441 C 44.8069 0.51809 1.61283 0
M  V30 442 O 46.0129 0.697335 1.65943 0
M  V30 443 H 42.3879 0.52069 0.542574 0
M  V30 444 H 44.3589 2.59552 1.47226 0
M  V30 445 C 43.1079 1.72409 3.01945 0
M  V30 446 H 42.4309 2.59029 3.04539 0
M  V30 447 H 43.8709 1.87785 3.80148 0
M  V30 448 C 42.3299 0.46618 3.33659 0
M  V30 449 O 42.8599 -0.413744 3.99564 0
M  V30 450 N 41.0659 0.332931 2.88687 0
M  V30 451 H 40.6129 1.04996 2.35231 0
M  V30 452 H 40.5709 -0.507665 3.10274 0
M  V30 453 N 44.343 -0.763751 1.37857 0
M  V30 454 C 45.306 -1.85889 1.34081 0
M  V30 455 C 46.306 -1.58949 0.243277 0
M  V30 456 O 47.496 -1.66882 0.499589 0
M  V30 457 C 44.628 -3.23176 1.08489 0
M  V30 458 H 45.821 -1.90648 2.31502 0
M  V30 459 H 43.374 -0.964367 1.23003 0
M  V30 460 H 44.109 -3.24091 0.116318 0
M  V30 461 H 43.894 -3.44124 1.8794 0
M  V30 462 H 45.384 -4.03254 1.08517 0
M  V30 463 N 45.8211 -1.22559 -0.990812 0
M  V30 464 C 46.7511 -1.0218 -2.09956 0
M  V30 465 C 47.7321 0.0579394 -1.70001 0
M  V30 466 O 48.9171 -0.104684 -1.93918 0
M  V30 467 C 46.0471 -0.601023 -3.4206 0
M  V30 468 C 45.0011 -1.62694 -3.95872 0
M  V30 469 C 44.3271 -1.06193 -5.24049 0
M  V30 470 C 45.6271 -3.01743 -4.2632 0
M  V30 471 H 47.3211 -1.94916 -2.27262 0
M  V30 472 H 44.8671 -0.938566 -1.09211 0
M  V30 473 H 46.8201 -0.445561 -4.19038 0
M  V30 474 H 45.5441 0.362005 -3.24588 0
M  V30 475 H 44.2031 -1.77021 -3.21028 0
M  V30 476 H 43.8511 -0.0901903 -5.02919 0
M  V30 477 H 43.5511 -1.74732 -5.61019 0
M  V30 478 H 45.0751 -0.918092 -6.03658 0
M  V30 479 H 46.4891 -2.90777 -4.94087 0
M  V30 480 H 44.8861 -3.67425 -4.74467 0
M  V30 481 H 45.9561 -3.51518 -3.34011 0
M  V30 482 N 47.2992 1.18797 -1.03562 0
M  V30 483 C 48.5452 1.8893 -0.737113 0
M  V30 484 C 48.8782 1.79837 0.732956 0
M  V30 485 O 48.1532 1.19525 1.5344 0
M  V30 486 C 48.4362 3.39607 -1.19745 0
M  V30 487 C 48.2892 3.57537 -2.72924 0
M  V30 488 C 49.6082 4.33069 -0.783526 0
M  V30 489 H 46.7272 0.686057 -0.269249 0
M  V30 490 H 49.3692 1.39797 -1.28673 0
M  V30 491 H 47.5192 3.81583 -0.729855 0
M  V30 492 H 49.1912 3.24688 -3.27682 0
M  V30 493 H 47.4342 3.00363 -3.12993 0
M  V30 494 H 48.1052 4.63238 -3.00191 0
M  V30 495 H 50.5812 3.98846 -1.18581 0
M  V30 496 H 49.4572 5.3707 -1.13343 0
M  V30 497 H 49.7182 4.40986 0.313681 0
M  V30 498 N 48.7773 0.814389 1.34928 0
M  V30 499 C 50.0263 0.394871 1.97797 0
M  V30 500 C 50.3393 -1.04555 1.65311 0
M  V30 501 O 51.5453 -1.56856 2.21604 0
M  V30 502 C 50.0013 0.655103 3.53888 0
M  V30 503 C 49.6093 2.10858 3.95276 0
M  V30 504 C 51.3533 0.301329 4.23429 0
M  V30 505 C 49.2603 2.31415 5.44244 0
M  V30 506 H 48.1903 0.143913 0.740139 0
M  V30 507 H 50.8413 0.999544 1.53888 0
M  V30 508 H 49.2233 -0.0196253 3.95995 0
M  V30 509 H 50.3973 2.82176 3.64298 0
M  V30 510 H 48.7123 2.42297 3.38646 0
M  V30 511 H 51.3093 0.432869 5.32945 0
M  V30 512 H 51.6523 -0.75331 4.09428 0
M  V30 513 H 52.1853 0.930288 3.86769 0
M  V30 514 H 48.9243 3.35353 5.63222 0
M  V30 515 H 48.4443 1.6463 5.76764 0
M  V30 516 H 50.1233 2.13352 6.10811 0
M  V30 517 N 50.2554 -1.46986 0.568584 0
M  V30 518 C 51.1854 -2.32946 -0.160753 0
M  V30 519 C 52.1664 -1.44487 -0.897631 0
M  V30 520 O 53.3514 -1.73327 -0.875867 0
M  V30 521 C 50.4814 -3.26494 -1.18403 0
M  V30 522 C 49.4354 -4.24282 -0.562895 0
M  V30 523 C 48.7614 -5.07236 -1.69163 0
M  V30 524 C 50.0614 -5.19989 0.490761 0
M  V30 525 H 51.7554 -2.94175 0.556916 0
M  V30 526 H 49.3014 -1.4146 0.26927 0
M  V30 527 H 51.2544 -3.85477 -1.70251 0
M  V30 528 H 49.9784 -2.63343 -1.93179 0
M  V30 529 H 48.6374 -3.66541 -0.0656164 0
M  V30 530 H 48.2854 -4.4048 -2.42871 0
M  V30 531 H 47.9854 -5.7345 -1.28174 0
M  V30 532 H 49.5094 -5.6908 -2.21314 0
M  V30 533 H 50.9234 -5.73271 0.0579047 0
M  V30 534 H 49.3204 -5.94469 0.820165 0
M  V30 535 H 50.3904 -4.64777 1.3824 0
M  V30 536 N 51.7335 -0.305618 -1.54608 0
M  V30 537 C 52.6965 0.555591 -2.22364 0
M  V30 538 C 53.6965 1.05768 -1.21119 0
M  V30 539 O 54.8865 0.952972 -1.45822 0
M  V30 540 C 52.0185 1.76974 -2.91364 0
M  V30 541 H 53.2115 -0.0364572 -2.99878 0
M  V30 542 H 50.7645 -0.0565007 -1.56198 0
M  V30 543 H 51.4995 2.40151 -2.17941 0
M  V30 544 H 51.2845 1.41732 -3.65588 0
M  V30 545 H 52.7745 2.38148 -3.43038 0
M  V30 546 N 53.2116 1.57565 -0.0334293 0
M  V30 547 C 54.4576 1.92262 0.645226 0
M  V30 548 C 54.7906 0.910543 1.71531 0
M  V30 549 O 54.0656 -0.066099 1.94388 0
M  V30 550 C 54.3486 3.37422 1.2577 0
M  V30 551 C 54.2016 4.49369 0.196891 0
M  V30 552 C 55.5206 3.82628 2.17449 0
M  V30 553 H 52.6396 0.699171 0.233085 0
M  V30 554 H 55.2816 1.89779 -0.0915694 0
M  V30 555 H 53.4316 3.39669 1.88566 0
M  V30 556 H 55.1036 4.59254 -0.433962 0
M  V30 557 H 53.3466 4.31168 -0.477137 0
M  V30 558 H 54.0176 5.47978 0.665124 0
M  V30 559 H 56.4936 3.82145 1.64634 0
M  V30 560 H 55.3696 4.84883 2.57254 0
M  V30 561 H 55.6306 3.18376 3.0674 0
M  V30 562 N 54.6897 -0.239769 1.55765 0
M  V30 563 C 55.6197 -1.30052 1.9393 0
M  V30 564 C 56.6007 -1.49839 0.805132 0
M  V30 565 O 57.7857 -1.62328 1.06599 0
M  V30 566 C 54.9157 -2.65391 2.2402 0
M  V30 567 C 53.8697 -2.60289 3.39755 0
M  V30 568 C 53.1957 -3.99489 3.55405 0
M  V30 569 C 54.4957 -2.16654 4.75246 0
M  V30 570 H 56.1897 -0.983573 2.82783 0
M  V30 571 H 53.7357 -0.471701 1.36055 0
M  V30 572 H 55.6887 -3.3974 2.49308 0
M  V30 573 H 54.4127 -2.98736 1.32 0
M  V30 574 H 53.0717 -1.88398 3.14487 0
M  V30 575 H 52.7197 -4.30112 2.60793 0
M  V30 576 H 52.4197 -3.96962 4.33238 0
M  V30 577 H 53.9437 -4.75528 3.83022 0
M  V30 578 H 55.3577 -2.80737 4.99859 0
M  V30 579 H 53.7547 -2.25223 5.56232 0
M  V30 580 H 54.8247 -1.11835 4.71827 0
M  V30 581 N 56.1678 -1.49265 -0.50573 0
M  V30 582 C 57.3958 -1.62215 -1.28429 0
M  V30 583 C 57.8108 -0.291697 -1.86533 0
M  V30 584 O 57.1678 0.722233 -1.67601 0
M  V30 585 C 57.2188 -2.68735 -2.41793 0
M  V30 586 O 56.9398 -3.96619 -1.86078 0
M  V30 587 C 58.4408 -2.92346 -3.3324 0
M  V30 588 H 55.6608 -0.546239 -0.389697 0
M  V30 589 H 58.2048 -1.95265 -0.607609 0
M  V30 590 H 56.3598 -2.38476 -3.053 0
M  V30 591 H 56.7738 -4.55256 -2.60465 0
M  V30 592 H 58.2478 -3.70623 -4.09075 0
M  V30 593 H 58.7248 -2.02081 -3.89948 0
M  V30 594 H 59.3308 -3.24003 -2.75503 0
M  V30 595 N 57.6459 0.756429 -1.3826 0
M  V30 596 C 58.8709 1.55077 -1.37717 0
M  V30 597 C 59.2959 1.88073 0.03164 0
M  V30 598 O 58.6539 1.50364 1.01293 0
M  V30 599 C 58.7019 2.8283 -2.23695 0
M  V30 600 O 57.8059 3.77862 -1.6521 0
M  V30 601 H 57.1469 0.469152 -0.469885 0
M  V30 602 H 59.6769 0.935019 -1.81985 0
M  V30 603 H 59.6869 3.31783 -2.37453 0
M  V30 604 H 58.3619 2.58144 -3.2609 0
M  V30 605 H 56.9389 3.36555 -1.60578 0
M  V30 606 N 59.124 1.23083 0.984299 0
M  V30 607 C 60.54 0.992637 1.24975 0
M  V30 608 C 60.74 -0.308618 1.99123 0
M  V30 609 O 59.796 -1.02905 2.30579 0
M  V30 610 C 61.109 2.19698 2.05312 0
M  V30 611 C 62.657 2.24147 2.18465 0
M  V30 612 C 63.132 3.44157 3.02192 0
M  V30 613 N 64.623 3.44372 3.09777 0
M  V30 614 C 65.358 4.33886 3.74874 0
M  V30 615 N 64.854 5.3363 4.41827 0
M  V30 616 N 66.647 4.21639 3.71721 0
M  V30 617 H 58.798 2.06731 0.487453 0
M  V30 618 H 61.061 0.906339 0.277944 0
M  V30 619 H 60.767 3.1411 1.58201 0
M  V30 620 H 60.641 2.20465 3.06064 0
M  V30 621 H 63.028 1.30277 2.64786 0
M  V30 622 H 63.109 2.27415 1.17115 0
M  V30 623 H 62.753 4.38332 2.56568 0
M  V30 624 H 62.683 3.3813 4.03702 0
M  V30 625 H 65.174 2.72201 2.62135 0
M  V30 626 H 65.487 5.98196 4.89266 0
M  V30 627 H 63.832 5.37534 4.40548 0
M  V30 628 H 67.023 3.42962 3.18582 0
M  V30 629 H 67.196 4.91604 4.22173 0
M  V30 630 N 60.6021 -1.18246 1.0419 0
M  V30 631 C 61.8271 -1.92736 0.765996 0
M  V30 632 C 62.2521 -1.75728 -0.67091 0
M  V30 633 O 61.6101 -1.06825 -1.46486 0
M  V30 634 C 61.6581 -3.42148 1.13875 0
M  V30 635 O 60.7621 -4.11548 0.264954 0
M  V30 636 H 60.1031 -0.601238 0.281797 0
M  V30 637 H 62.6331 -1.49942 1.39207 0
M  V30 638 H 62.6431 -3.92858 1.1012 0
M  V30 639 H 61.3181 -3.53848 2.18551 0
M  V30 640 H 59.8951 -3.71137 0.362226 0
M  V30 641 N 62.0802 -0.821533 -1.34494 0
M  V30 642 C 63.0102 -0.257138 -2.3208 0
M  V30 643 C 63.9912 0.625645 -1.58176 0
M  V30 644 O 65.1762 0.552811 -1.86166 0
M  V30 645 C 62.3062 0.582958 -3.42372 0
M  V30 646 C 61.2602 -0.202571 -4.2752 0
M  V30 647 C 60.5862 0.760179 -5.29269 0
M  V30 648 C 61.8862 -1.40998 -5.02908 0
M  V30 649 H 63.5802 -1.07247 -2.79532 0
M  V30 650 H 61.1262 -0.517163 -1.34393 0
M  V30 651 H 63.0792 0.987972 -4.09655 0
M  V30 652 H 61.8032 1.43133 -2.93565 0
M  V30 653 H 60.4622 -0.588936 -3.61838 0
M  V30 654 H 60.1102 1.60447 -4.76724 0
M  V30 655 H 59.8102 0.238809 -5.87115 0
M  V30 656 H 61.3342 1.16308 -5.9942 0
M  V30 657 H 62.7482 -1.07905 -5.63054 0
M  V30 658 H 61.1452 -1.86689 -5.70322 0
M  V30 659 H 62.2152 -2.1889 -4.32684 0
M  V30 660 N 63.5583 1.46682 -0.576371 0
M  V30 661 C 64.9743 1.57822 -0.237562 0
M  V30 662 C 65.1743 1.57237 1.26011 0
M  V30 663 O 64.2303 1.48596 2.04146 0
M  V30 664 C 65.5433 2.87499 -0.881168 0
M  V30 665 C 67.0913 3.01119 -0.85417 0
M  V30 666 C 67.5663 4.33524 -1.4772 0
M  V30 667 N 69.0573 4.40207 -1.44125 0
M  V30 668 C 69.7923 5.4126 -1.89276 0
M  V30 669 N 69.2883 6.49021 -2.42371 0
M  V30 670 N 71.0813 5.32422 -1.80231 0
M  V30 671 H 63.2323 1.45306 -1.54919 0
M  V30 672 H 65.4953 0.692733 -0.647167 0
M  V30 673 H 65.2013 2.9372 -1.93447 0
M  V30 674 H 65.0753 3.75224 -0.385592 0
M  V30 675 H 67.4623 2.94485 0.190491 0
M  V30 676 H 67.5433 2.14887 -1.3877 0
M  V30 677 H 67.1873 4.40916 -2.52103 0
M  V30 678 H 67.1173 5.1852 -0.918947 0
M  V30 679 H 69.6083 3.62931 -1.05307 0
M  V30 680 H 69.9213 7.2233 -2.74698 0
M  V30 681 H 68.2663 6.49858 -2.46393 0
M  V30 682 H 71.4573 4.47137 -1.38514 0
M  V30 683 H 71.6303 6.11034 -2.15735 0
M  V30 684 N 65.0364 0.313813 1.54444 0
M  V30 685 C 65.9994 -0.54379 2.22656 0
M  V30 686 C 66.9994 -1.05124 1.21678 0
M  V30 687 O 68.1894 -0.945225 1.46325 0
M  V30 688 C 65.3214 -1.75427 2.92298 0
M  V30 689 H 66.5144 0.0523599 2.99854 0
M  V30 690 H 64.0674 0.0647834 1.56166 0
M  V30 691 H 64.8024 -2.38991 2.19211 0
M  V30 692 H 64.5874 -1.39791 3.66334 0
M  V30 693 H 66.0774 -2.36325 3.44297 0
M  V30 694 N 66.5145 -1.57545 0.0417849 0
M  V30 695 C 67.9255 -1.80011 -0.495259 0
M  V30 696 C 68.2765 -0.953199 -1.71489 0
M  V30 697 O 67.4015 -0.167138 -2.15754 0
M  V30 698 C 67.9965 -3.26482 -0.905265 0
M  V30 699 C 66.5555 -3.499 -1.38734 0
M  V30 700 C 65.7025 -2.74979 -0.358056 0
M  V30 701 H 68.6535 -1.56425 0.267736 0
M  V30 702 H 68.6745 -3.36887 -1.76882 0
M  V30 703 H 68.1865 -3.88096 -0.017401 0
M  V30 704 H 66.2875 -2.93553 -2.29471 0
M  V30 705 H 66.4005 -4.58615 -1.38598 0
M  V30 706 H 64.7645 -2.40834 -0.828912 0
M  V30 707 H 65.5475 -3.39315 0.521561 0
M  V30 708 N 67.9926 0.231505 -1.5589 0
M  V30 709 C 68.9246 1.31006 -1.8807 0
M  V30 710 C 69.9376 1.43539 -0.768145 0
M  V30 711 O 71.1266 1.44614 -1.04638 0
M  V30 712 C 68.2266 2.68688 -2.06543 0
M  V30 713 C 67.3996 2.78228 -3.37502 0
M  V30 714 C 66.4586 3.96857 -3.4553 0
M  V30 715 O 65.4846 3.85662 -4.18633 0
M  V30 716 N 66.6866 5.1072 -2.75944 0
M  V30 717 H 69.4516 1.03731 -2.81176 0
M  V30 718 H 67.0126 0.421573 -1.56315 0
M  V30 719 H 69.0046 3.46412 -2.09239 0
M  V30 720 H 67.5746 2.88605 -1.20109 0
M  V30 721 H 66.7946 1.87059 -3.46991 0
M  V30 722 H 68.0826 2.81564 -4.23791 0
M  V30 723 H 67.4806 5.2271 -2.16311 0
M  V30 724 H 66.0376 5.86523 -2.84314 0
M  V30 725 N 69.4707 1.49531 0.497807 0
M  V30 726 C 70.4187 1.66926 1.61983 0
M  V30 727 C 71.4127 0.535167 1.60724 0
M  V30 728 O 72.6187 0.714896 1.65195 0
M  V30 729 H 68.9937 0.526415 0.537021 0
M  V30 730 H 70.9647 2.61098 1.44465 0
M  V30 731 C 69.7137 1.75602 3.00099 0
M  V30 732 H 69.0367 2.62244 3.01775 0
M  V30 733 H 70.4767 1.91807 3.78135 0
M  V30 734 C 68.9357 0.501543 3.33146 0
M  V30 735 O 69.4657 -0.371342 3.9998 0
M  V30 736 N 67.6717 0.363531 2.88317 0
M  V30 737 H 67.2187 1.07485 2.34104 0
M  V30 738 H 67.1767 -0.474728 3.10795 0
M  V30 739 N 70.9488 -0.749086 1.3866 0
M  V30 740 C 71.8788 -1.8764 1.38973 0
M  V30 741 C 72.8598 -1.68178 0.255004 0
M  V30 742 O 74.0448 -1.88704 0.458754 0
M  V30 743 C 71.1748 -3.25222 1.21851 0
M  V30 744 C 70.1288 -3.59295 2.32575 0
M  V30 745 C 69.4548 -4.95663 2.00555 0
M  V30 746 C 70.7548 -3.63709 3.7485 0
M  V30 747 H 72.4488 -1.87635 2.3331 0
M  V30 748 H 69.9948 -0.901329 1.12303 0
M  V30 749 H 71.9478 -4.03746 1.20695 0
M  V30 750 H 70.6718 -3.25719 0.239775 0
M  V30 751 H 69.3308 -2.83093 2.32925 0
M  V30 752 H 68.9788 -4.92724 1.01154 0
M  V30 753 H 68.6788 -5.19429 2.74714 0
M  V30 754 H 70.2028 -5.7656 2.01024 0
M  V30 755 H 71.6168 -4.32338 3.76506 0
M  V30 756 H 70.0138 -3.98986 4.48252 0
M  V30 757 H 71.0838 -2.63834 4.06841 0
M  V30 758 N 72.4269 -1.23603 -0.977757 0
M  V30 759 C 73.6739 -1.06971 -1.71941 0
M  V30 760 C 74.0019 0.393009 -1.90488 0
M  V30 761 O 73.2569 1.30719 -1.4564 0
M  V30 762 C 73.5559 -1.7433 -3.11999 0
M  V30 763 C 73.2219 -3.24252 -3.13323 0
M  V30 764 C 71.8839 -3.65156 -3.13392 0
M  V30 765 C 74.2359 -4.20141 -3.08433 0
M  V30 766 C 71.5639 -5.00403 -3.0629 0
M  V30 767 C 73.9159 -5.55384 -3.02873 0
M  V30 768 C 72.5799 -5.95647 -3.01265 0
M  V30 769 H 71.8499 -0.391433 -0.629175 0
M  V30 770 H 74.4969 -1.53572 -1.14403 0
M  V30 771 H 72.8019 -1.20096 -3.7294 0
M  V30 772 H 74.4989 -1.58936 -3.68158 0
M  V30 773 H 71.0889 -2.91692 -3.14029 0
M  V30 774 H 75.2729 -3.89547 -3.07517 0
M  V30 775 H 70.5289 -5.3081 -3.03399 0
M  V30 776 H 74.7029 -6.29398 -2.98046 0
M  V30 777 H 72.3299 -7.0041 -2.95516 0
M  V30 778 N 73.905 1.17692 -1.04816 0
M  V30 779 C 74.835 2.23777 -0.666791 0
M  V30 780 C 75.816 1.66796 0.33361 0
M  V30 781 O 77.001 1.93039 0.212042 0
M  V30 782 C 74.131 3.47281 -0.0367933 0
M  V30 783 C 73.085 4.17059 -0.961546 0
M  V30 784 C 72.411 5.34342 -0.195626 0
M  V30 785 C 73.711 4.69713 -2.28402 0
M  V30 786 H 75.405 2.55933 -1.55367 0
M  V30 787 H 72.951 1.23019 -0.748484 0
M  V30 788 H 74.904 4.20706 0.241775 0
M  V30 789 H 73.628 3.14381 0.885004 0
M  V30 790 H 72.287 3.45541 -1.22462 0
M  V30 791 H 71.935 4.97692 0.728816 0
M  V30 792 H 71.635 5.81966 -0.811775 0
M  V30 793 H 73.159 6.10553 0.0757473 0
M  V30 794 H 74.573 5.34794 -2.06563 0
M  V30 795 H 72.97 5.279 -2.8538 0
M  V30 796 H 74.04 3.86726 -2.92525 0
M  V30 797 N 75.3831 0.828654 1.34056 0
M  V30 798 C 76.6291 0.42008 1.98402 0
M  V30 799 C 76.9621 -1.01564 1.65525 0
M  V30 800 O 76.2371 -1.70834 0.929831 0
M  V30 801 C 76.5201 0.62927 3.54559 0
M  V30 802 C 76.3731 2.11152 3.97159 0
M  V30 803 C 77.6921 0.0688756 4.40046 0
M  V30 804 H 74.8111 0.154104 0.720709 0
M  V30 805 H 77.4531 1.04228 1.5886 0
M  V30 806 H 75.6031 0.0996418 3.88372 0
M  V30 807 H 77.2751 2.70522 3.73651 0
M  V30 808 H 75.5181 2.59985 3.47261 0
M  V30 809 H 76.1891 2.20868 5.05887 0
M  V30 810 H 78.6651 0.521458 4.1282 0
M  V30 811 H 77.5411 0.245006 5.48353 0
M  V30 812 H 77.8021 -1.0266 4.30015 0
M  V30 813 N 76.8612 -1.46375 0.584142 0
M  V30 814 C 78.0862 -2.07268 0.0740405 0
M  V30 815 C 78.5112 -1.42979 -1.22223 0
M  V30 816 O 77.8692 -0.514092 -1.73859 0
M  V30 817 C 77.9172 -3.60518 -0.0767769 0
M  V30 818 O 77.0212 -3.96533 -1.13292 0
M  V30 819 H 76.3622 -0.660961 0.0634524 0
M  V30 820 H 78.8922 -1.87991 0.807492 0
M  V30 821 H 78.9022 -4.07021 -0.282489 0
M  V30 822 H 77.5772 -4.06702 0.86986 0
M  V30 823 H 76.1542 -3.61738 -0.905553 0
M  V30 824 N 78.3393 -0.321999 -1.54275 0
M  V30 825 C 79.2693 0.537411 -2.27231 0
M  V30 826 C 80.2503 1.12064 -1.27968 0
M  V30 827 O 81.4353 1.14606 -1.56777 0
M  V30 828 C 78.5653 1.69919 -3.02894 0
M  V30 829 C 77.5193 1.24534 -4.09482 0
M  V30 830 C 76.8453 2.49394 -4.72977 0
M  V30 831 C 78.1453 0.361335 -5.21049 0
M  V30 832 H 79.8393 -0.0711406 -2.99315 0
M  V30 833 H 77.3853 -0.0356555 -1.43956 0
M  V30 834 H 79.3383 2.30668 -3.52662 0
M  V30 835 H 78.0623 2.33431 -2.28424 0
M  V30 836 H 76.7213 0.660782 -3.60596 0
M  V30 837 H 76.3693 3.11265 -3.95124 0
M  V30 838 H 76.0693 2.19718 -5.44975 0
M  V30 839 H 77.5933 3.10908 -5.25517 0
M  V30 840 H 79.0073 0.875072 -5.66582 0
M  V30 841 H 77.4043 0.157428 -5.99893 0
M  V30 842 H 78.4743 -0.60822 -4.8107 0
M  V30 843 N 79.8174 1.5752 -0.0501392 0
M  V30 844 C 80.7804 2.1037 0.909786 0
M  V30 845 C 81.7804 1.02308 1.24056 0
M  V30 846 O 82.9704 1.28385 1.17741 0
M  V30 847 C 80.1024 2.58708 2.21998 0
M  V30 848 H 81.2954 2.96479 0.451665 0
M  V30 849 H 78.8484 1.55038 0.198248 0
M  V30 850 H 79.5834 1.75989 2.72394 0
M  V30 851 H 79.3684 3.37675 1.99295 0
M  V30 852 H 80.8584 2.99747 2.9076 0
M  V30 853 N 81.2955 -0.223234 1.56011 0
M  V30 854 C 82.2585 -1.26014 1.9145 0
M  V30 855 C 83.2585 -1.3989 0.792937 0
M  V30 856 O 84.4485 -1.38184 1.0607 0
M  V30 857 C 81.5805 -2.63422 2.16383 0
M  V30 858 H 82.7735 -0.95796 2.84189 0
M  V30 859 H 80.3265 -0.463576 1.49267 0
M  V30 860 H 81.0615 -2.98741 1.2619 0
M  V30 861 H 80.8465 -2.54728 2.98088 0
M  V30 862 H 82.3365 -3.38249 2.44903 0
M  V30 863 N 82.7736 -1.49793 -0.48987 0
M  V30 864 C 83.7366 -1.66752 -1.57246 0
M  V30 865 C 84.7366 -0.538867 -1.51502 0
M  V30 866 O 85.9266 -0.805545 -1.54456 0
M  V30 867 C 83.0586 -1.67528 -2.96896 0
M  V30 868 H 84.2516 -2.63321 -1.43534 0
M  V30 869 H 81.8046 -1.38992 -0.714914 0
M  V30 870 H 82.5396 -0.725837 -3.16073 0
M  V30 871 H 82.3246 -2.49504 -3.02473 0
M  V30 872 H 83.8146 -1.82667 -3.7553 0
M  V30 873 N 84.2517 0.741722 -1.39055 0
M  V30 874 C 85.5287 1.49252 -1.26425 0
M  V30 875 C 85.9087 2.10705 0.129144 0
M  V30 876 O 85.2567 1.98045 1.13976 0
M  V30 877 C 85.4667 2.54934 -2.38347 0
M  V30 878 C 86.8147 3.21506 -2.77343 0
M  V30 879 O 87.8387 2.65245 -2.37747 0
M  V30 880 O 86.6977 4.23294 -3.45665 0
M  V30 881 H 83.7917 0.662451 -0.495064 0
M  V30 882 H 86.3377 0.776121 -1.50912 0
M  V30 883 H 85.1097 2.07857 -3.31529 0
M  V30 884 H 84.7327 3.34141 -2.15489 0
M  V30 885 N 85.7298 1.2412 0.971189 0
M  V30 886 C 86.9788 1.07284 1.70801 0
M  V30 887 C 87.2918 -0.388902 1.91695 0
M  V30 888 O 88.4978 -0.677379 2.62914 0
M  V30 889 C 86.9538 1.87145 3.07416 0
M  V30 890 C 86.5618 3.37707 2.94377 0
M  V30 891 C 88.3058 1.78828 3.84995 0
M  V30 892 C 86.2128 4.09925 4.26281 0
M  V30 893 H 85.1428 0.397854 0.64049 0
M  V30 894 H 87.7938 1.4817 1.0825 0
M  V30 895 H 86.1758 1.39071 3.70777 0
M  V30 896 H 87.3498 3.93335 2.4005 0
M  V30 897 H 85.6648 3.46938 2.30267 0
M  V30 898 H 88.2618 2.30089 4.82662 0
M  V30 899 H 88.6048 0.75284 4.09436 0
M  V30 900 H 89.1378 2.24563 3.28354 0
M  V30 901 H 85.8768 5.13813 4.07033 0
M  V30 902 H 85.3968 3.59083 4.80437 0
M  V30 903 H 87.0758 4.1673 4.94919 0
M  V30 904 N 87.2079 -1.17134 1.05439 0
M  V30 905 C 88.1379 -2.2342 0.678649 0
M  V30 906 C 89.1189 -1.66971 -0.32476 0
M  V30 907 O 90.3039 -1.93149 -0.201802 0
M  V30 908 C 87.4339 -3.47256 0.0552099 0
M  V30 909 C 86.3879 -4.16543 0.98365 0
M  V30 910 C 85.7139 -5.34231 0.223961 0
M  V30 911 C 87.0139 -4.68495 2.3089 0
M  V30 912 H 88.7079 -2.55105 1.56722 0
M  V30 913 H 86.2539 -1.2262 0.754998 0
M  V30 914 H 88.2069 -4.20828 -0.21946 0
M  V30 915 H 86.9309 -3.14846 -0.868319 0
M  V30 916 H 85.5899 -3.44887 1.24293 0
M  V30 917 H 85.2379 -4.98071 -0.702412 0
M  V30 918 H 84.9379 -5.81527 0.842627 0
M  V30 919 H 86.4619 -6.10585 -0.0433671 0
M  V30 920 H 87.8759 -5.33691 2.09396 0
M  V30 921 H 86.2729 -5.26379 2.88176 0
M  V30 922 H 87.3429 -3.85169 2.94572 0
M  V30 923 N 88.686 -0.835752 -1.33615 0
M  V30 924 C 89.932 -0.430596 -1.98176 0
M  V30 925 C 90.265 1.00684 -1.66061 0
M  V30 926 O 89.54 1.70339 -0.938877 0
M  V30 927 C 89.823 -0.648065 -3.5422 0
M  V30 928 C 89.676 -2.13255 -3.96033 0
M  V30 929 C 90.995 -0.0922113 -4.40003 0
M  V30 930 H 88.114 -0.157924 -0.719881 0
M  V30 931 H 90.756 -1.05069 -1.58305 0
M  V30 932 H 88.906 -0.120237 -3.88314 0
M  V30 933 H 90.578 -2.725 -3.72211 0
M  V30 934 H 88.821 -2.61823 -3.45878 0
M  V30 935 H 89.492 -2.23547 -5.04708 0
M  V30 936 H 91.968 -0.543343 -4.12537 0
M  V30 937 H 90.844 -0.274083 -5.48215 0
M  V30 938 H 91.105 1.00378 -4.30554 0
M  V30 939 N 90.1641 1.46063 -0.591896 0
M  V30 940 C 91.1271 2.28854 0.125973 0
M  V30 941 C 92.1271 1.38903 0.810107 0
M  V30 942 O 93.3171 1.61186 0.66066 0
M  V30 943 C 90.4491 3.19526 1.1881 0
M  V30 944 H 91.6421 2.93802 -0.601717 0
M  V30 945 H 89.1951 1.52325 -0.350254 0
M  V30 946 H 89.9301 2.59345 1.94707 0
M  V30 947 H 89.7151 3.85766 0.701936 0
M  V30 948 H 91.2051 3.81817 1.69132 0
M  V30 949 N 91.6422 0.330177 1.54103 0
M  V30 950 C 92.8702 -0.272179 2.05102 0
M  V30 951 C 93.2852 -1.45267 1.20595 0
M  V30 952 O 92.6422 -1.8094 0.238144 0
M  V30 953 C 92.6932 -0.70023 3.54653 0
M  V30 954 O 92.4142 0.433301 4.35952 0
M  V30 955 C 93.9152 -1.3647 4.21771 0
M  V30 956 H 91.1352 -0.0549159 0.668749 0
M  V30 957 H 93.6792 0.478285 1.98828 0
M  V30 958 H 91.8342 -1.40066 3.61193 0
M  V30 959 H 92.2482 0.0947539 5.24414 0
M  V30 960 H 93.7222 -1.61509 5.27843 0
M  V30 961 H 94.1992 -2.31409 3.73292 0
M  V30 962 H 94.8052 -0.706675 4.19388 0
M  V30 963 N 93.1203 -1.57491 0.0584922 0
M  V30 964 C 94.0503 -2.14988 -0.911178 0
M  V30 965 C 95.0313 -1.07343 -1.31952 0
M  V30 966 O 96.2163 -1.35318 -1.39294 0
M  V30 967 C 93.3463 -2.70078 -2.18347 0
M  V30 968 C 92.3003 -3.82771 -1.91495 0
M  V30 969 C 91.6263 -4.24408 -3.25241 0
M  V30 970 C 92.9263 -5.07592 -1.23075 0
M  V30 971 H 94.6203 -2.96263 -0.432246 0
M  V30 972 H 92.1663 -1.42512 -0.206469 0
M  V30 973 H 94.1193 -3.08943 -2.86587 0
M  V30 974 H 92.8433 -1.86005 -2.68458 0
M  V30 975 H 91.5023 -3.44389 -1.25664 0
M  V30 976 H 91.1503 -3.37275 -3.73168 0
M  V30 977 H 90.8503 -5.00366 -3.08071 0
M  V30 978 H 92.3743 -4.65879 -3.94701 0
M  V30 979 H 93.7883 -5.43857 -1.81362 0
M  V30 980 H 92.1853 -5.88741 -1.16207 0
M  V30 981 H 93.2553 -4.84454 -0.207847 0
M  V30 982 N 94.5984 0.214957 -1.56127 0
M  V30 983 C 95.8474 0.936451 -1.78643 0
M  V30 984 C 96.1604 1.85237 -0.628229 0
M  V30 985 O 97.3664 2.613 -0.737186 0
M  V30 986 C 95.8224 1.7154 -3.16389 0
M  V30 987 C 95.4304 0.845299 -4.39953 0
M  V30 988 C 97.1744 2.42772 -3.48227 0
M  V30 989 C 95.0814 1.62198 -5.68723 0
M  V30 990 H 94.0114 0.353401 -0.666051 0
M  V30 991 H 96.6624 0.190169 -1.82512 0
M  V30 992 H 95.0444 2.50484 -3.06715 0
M  V30 993 H 96.2184 0.0959353 -4.607 0
M  V30 994 H 94.5334 0.244789 -4.1568 0
M  V30 995 H 97.1304 3.01394 -4.41663 0
M  V30 996 H 97.4734 3.15984 -2.71035 0
M  V30 997 H 98.0064 1.70813 -3.5926 0
M  V30 998 H 94.7454 0.933011 -6.48826 0
M  V30 999 H 94.2654 2.34579 -5.52026 0
M  V30 1000 H 95.9444 2.18095 -6.09133 0
M  V30 1001 N 96.0765 1.50051 0.48192 0
M  V30 1002 C 97.3255 1.59741 1.23149 0
M  V30 1003 C 97.6385 0.298163 1.93314 0
M  V30 1004 O 98.8445 0.273835 2.70116 0
M  V30 1005 C 97.3005 2.81926 2.23708 0
M  V30 1006 C 96.9085 4.18685 1.59396 0
M  V30 1007 C 98.6525 3.00956 2.99375 0
M  V30 1008 C 96.5595 5.3207 2.58178 0
M  V30 1009 H 95.4895 0.594838 0.46334 0
M  V30 1010 H 98.1405 1.76467 0.503169 0
M  V30 1011 H 96.5225 2.58736 2.99786 0
M  V30 1012 H 97.6965 4.52088 0.891811 0
M  V30 1013 H 96.0115 4.05171 0.960503 0
M  V30 1014 H 98.6085 3.82836 3.73283 0
M  V30 1015 H 98.9515 2.12258 3.58123 0
M  V30 1016 H 99.4845 3.24277 2.30411 0
M  V30 1017 H 96.2235 6.22888 2.04184 0
M  V30 1018 H 95.7435 5.03098 3.26577 0
M  V30 1019 H 97.4225 5.62196 3.20225 0
M  V30 1020 N 97.5546 -0.734337 1.39446 0
M  V30 1021 C 98.9656 -1.31264 1.32766 0
M  V30 1022 C 99.3166 -1.96198 -0.00767497 0
M  V30 1023 O 98.4416 -1.96346 -0.909796 0
M  V30 1024 C 99.0366 -2.38682 2.4045 0
M  V30 1025 C 97.5956 -2.92184 2.37288 0
M  V30 1026 C 96.7426 -1.6576 2.22304 0
M  V30 1027 H 99.6936 -0.531799 1.49525 0
M  V30 1028 H 99.7146 -3.19087 2.07276 0
M  V30 1029 H 99.2266 -1.91392 3.37625 0
M  V30 1030 H 97.3276 -3.43752 1.43754 0
M  V30 1031 H 97.4406 -3.45253 3.3217 0
M  V30 1032 H 95.8046 -1.9012 1.69489 0
M  V30 1033 H 96.5876 -1.20521 3.21449 0
M  V30 1034 N 99.0327 -1.24633 -0.964593 0
M  V30 1035 C 100.28 -1.08788 -1.70796 0
M  V30 1036 C 100.608 0.372783 -1.90894 0
M  V30 1037 O 99.8627 1.29167 -1.47018 0
M  V30 1038 C 100.162 -1.7763 -3.10133 0
M  V30 1039 C 99.8277 -3.27557 -3.09866 0
M  V30 1040 C 98.4897 -3.6846 -3.09501 0
M  V30 1041 C 100.842 -4.23389 -3.03959 0
M  V30 1042 C 98.1697 -5.03624 -3.00965 0
M  V30 1043 C 100.522 -5.58565 -2.96965 0
M  V30 1044 C 99.1857 -5.98809 -2.9493 0
M  V30 1045 H 98.4557 -0.398084 -0.624988 0
M  V30 1046 H 101.103 -1.54777 -1.12767 0
M  V30 1047 H 99.4077 -1.24044 -3.71645 0
M  V30 1048 H 101.105 -1.62832 -3.66451 0
M  V30 1049 H 97.6947 -2.95006 -3.10917 0
M  V30 1050 H 101.879 -3.92787 -3.03368 0
M  V30 1051 H 97.1347 -5.33998 -2.97752 0
M  V30 1052 H 101.309 -6.32523 -2.91354 0
M  V30 1053 H 98.9357 -7.03505 -2.88071 0
M  V30 1054 N 100.511 1.16574 -1.06058 0
M  V30 1055 C 101.736 1.91493 -0.796562 0
M  V30 1056 C 102.161 1.76773 0.642868 0
M  V30 1057 O 101.519 1.09142 1.44768 0
M  V30 1058 C 101.567 3.40293 -1.19303 0
M  V30 1059 O 100.671 4.11074 -0.330394 0
M  V30 1060 H 100.012 0.596678 -0.291326 0
M  V30 1061 H 102.542 1.47708 -1.41575 0
M  V30 1062 H 102.552 3.91057 -1.16356 0
M  V30 1063 H 101.227 3.50326 -2.24153 0
M  V30 1064 H 99.8038 3.70513 -0.421225 0
M  V30 1065 N 101.989 0.842826 1.3317 0
M  V30 1066 C 102.919 0.294028 2.31641 0
M  V30 1067 C 103.9 -0.600401 1.59151 0
M  V30 1068 O 105.085 -0.523124 1.87022 0
M  V30 1069 C 102.215 -0.528416 3.43257 0
M  V30 1070 C 101.169 0.27056 4.27144 0
M  V30 1071 C 100.495 -0.675881 5.30411 0
M  V30 1072 C 101.795 1.48981 5.00602 0
M  V30 1073 H 103.489 1.11681 2.77791 0
M  V30 1074 H 101.035 0.538478 1.33553 0
M  V30 1075 H 102.988 -0.922674 4.11175 0
M  V30 1076 H 101.712 -1.38445 2.95805 0
M  V30 1077 H 100.371 0.646427 3.60856 0
M  V30 1078 H 100.019 -1.52842 4.79216 0
M  V30 1079 H 99.7189 -0.145374 5.8742 0
M  V30 1080 H 101.243 -1.06757 6.01195 0
M  V30 1081 H 102.657 1.16849 5.61266 0
M  V30 1082 H 101.054 1.95739 5.6728 0
M  V30 1083 H 102.124 2.25746 4.29147 0
M  V30 1084 N 103.467 -1.45747 0.599634 0
M  V30 1085 C 104.43 -2.28917 -0.113835 0
M  V30 1086 C 105.43 -1.3933 -0.802729 0
M  V30 1087 O 106.62 -1.61534 -0.652103 0
M  V30 1088 C 103.752 -3.20152 -1.17114 0
M  V30 1089 H 104.945 -2.93478 0.617289 0
M  V30 1090 H 102.498 -1.52137 0.358327 0
M  V30 1091 H 103.233 -2.60374 -1.93329 0
M  V30 1092 H 103.018 -3.86133 -0.681468 0
M  V30 1093 H 104.508 -3.82708 -1.67105 0
M  V30 1094 N 104.945 -0.338344 -1.53925 0
M  V30 1095 C 105.893 0.536231 -2.26335 0
M  V30 1096 C 106.887 1.1063 -1.28286 0
M  V30 1097 O 108.093 1.05264 -1.46012 0
M  V30 1098 H 104.468 0.191602 -0.727181 0
M  V30 1099 H 106.439 -0.0965747 -2.98244 0
M  V30 1100 C 105.188 1.67803 -3.04528 0
M  V30 1101 H 104.511 1.24864 -3.79801 0
M  V30 1102 H 105.951 2.26526 -3.58416 0
M  V30 1103 C 104.41 2.60439 -2.13712 0
M  V30 1104 O 104.94 3.6255 -1.72975 0
M  V30 1105 N 103.146 2.29006 -1.78898 0
M  V30 1106 H 102.693 1.46011 -2.12223 0
M  V30 1107 H 102.651 2.91248 -1.18416 0
M  V30 1108 N 106.423 1.57458 -0.0668435 0
M  V30 1109 C 107.333 2.15937 0.916975 0
M  V30 1110 C 108.349 1.12123 1.33058 0
M  V30 1111 O 109.525 1.44366 1.40429 0
M  V30 1112 C 106.59 2.70547 2.16807 0
M  V30 1113 C 105.651 3.89215 1.81135 0
M  V30 1114 C 104.884 4.41211 3.0028 0
M  V30 1115 O 105.107 3.92225 4.14144 0
M  V30 1116 O 104.041 5.32605 2.80384 0
M  V30 1117 H 107.867 3.00354 0.449561 0
M  V30 1118 H 105.452 1.48584 0.155949 0
M  V30 1119 H 107.334 3.0557 2.90181 0
M  V30 1120 H 106.009 1.89192 2.62656 0
M  V30 1121 H 104.916 3.59054 1.05028 0
M  V30 1122 H 106.249 4.71848 1.40073 0
M  V30 1123 N 107.901 -0.206675 1.56239 0
M  V30 1124 C 108.831 -1.25909 1.96645 0
M  V30 1125 C 109.812 -1.48097 0.836734 0
M  V30 1126 O 110.997 -1.6003 1.10019 0
M  V30 1127 C 108.127 -2.6058 2.29599 0
M  V30 1128 C 107.081 -2.53024 3.452 0
M  V30 1129 C 106.407 -3.91861 3.63798 0
M  V30 1130 C 107.707 -2.06524 4.79734 0
M  V30 1131 H 109.401 -0.923369 2.84806 0
M  V30 1132 H 106.947 -0.442735 1.37025 0
M  V30 1133 H 108.9 -3.34375 2.56459 0
M  V30 1134 H 107.624 -2.95869 1.38307 0
M  V30 1135 H 106.283 -1.81684 3.18412 0
M  V30 1136 H 105.931 -4.24483 2.69857 0
M  V30 1137 H 105.631 -3.87683 4.4156 0
M  V30 1138 H 107.155 -4.67296 3.93022 0
M  V30 1139 H 108.569 -2.70072 5.05702 0
M  V30 1140 H 106.966 -2.13374 5.60885 0
M  V30 1141 H 108.036 -1.01802 4.74093 0
M  V30 1142 N 109.379 -1.50304 -0.473955 0
M  V30 1143 C 110.309 -1.71886 -1.58042 0
M  V30 1144 C 111.29 -0.567799 -1.60344 0
M  V30 1145 O 112.475 -0.806623 -1.76656 0
M  V30 1146 C 109.605 -1.81036 -2.96384 0
M  V30 1147 C 108.559 -2.962 -3.08949 0
M  V30 1148 C 107.885 -2.9049 -4.48909 0
M  V30 1149 C 109.185 -4.36752 -2.86434 0
M  V30 1150 H 110.879 -2.64527 -1.40234 0
M  V30 1151 H 108.425 -1.27295 -0.673201 0
M  V30 1152 H 110.378 -1.94719 -3.73714 0
M  V30 1153 H 109.102 -0.850147 -3.15341 0
M  V30 1154 H 107.761 -2.82164 -2.3405 0
M  V30 1155 H 107.409 -1.92321 -4.64781 0
M  V30 1156 H 107.109 -3.67802 -4.58253 0
M  V30 1157 H 108.633 -3.06218 -5.28264 0
M  V30 1158 H 110.047 -4.5133 -3.53517 0
M  V30 1159 H 108.444 -5.15493 -3.07225 0
M  V30 1160 H 109.514 -4.49321 -1.82316 0
M  V30 1161 N 110.857 0.726932 -1.39834 0
M  V30 1162 C 112.105 1.4837 -1.37225 0
M  V30 1163 C 112.426 1.94979 0.0284857 0
M  V30 1164 O 111.696 1.69555 0.981213 0
M  V30 1165 H 110.276 0.55043 -0.505011 0
M  V30 1166 H 112.938 0.862468 -1.74778 0
M  V30 1167 H 112.034 2.36198 -2.04003 0
M  V30 1168 N 112.336 1.25143 0.95797 0
M  V30 1169 C 113.566 1.12261 1.73439 0
M  V30 1170 C 113.974 -0.326715 1.86358 0
M  V30 1171 O 113.317 -1.2367 1.35836 0
M  V30 1172 C 113.379 1.69966 3.16784 0
M  V30 1173 C 113.043 3.18936 3.27305 0
M  V30 1174 C 114.04 4.15968 3.11877 0
M  V30 1175 C 111.725 3.59083 3.51234 0
M  V30 1176 C 113.719 5.51126 3.20217 0
M  V30 1177 C 111.406 4.9438 3.5921 0
M  V30 1178 C 112.404 5.90211 3.43716 0
M  V30 1179 O 112.092 7.23046 3.51368 0
M  V30 1180 H 111.824 0.392476 0.550399 0
M  V30 1181 H 114.378 1.65927 1.21068 0
M  V30 1182 H 112.608 1.10744 3.70503 0
M  V30 1183 H 114.297 1.52232 3.76272 0
M  V30 1184 H 115.063 3.86292 2.93264 0
M  V30 1185 H 110.942 2.84989 3.62356 0
M  V30 1186 H 114.486 6.25905 3.0804 0
M  V30 1187 H 110.383 5.23723 3.77339 0
M  V30 1188 H 111.151 7.31097 3.6802 0
M  V30 1189 N 113.814 -1.1601 1.06675 0
M  V30 1190 C 115.06 -1.87145 0.796766 0
M  V30 1191 C 115.415 -1.8037 -0.669658 0
M  V30 1192 O 114.708 -1.21116 -1.48463 0
M  V30 1193 C 114.902 -3.35547 1.23057 0
M  V30 1194 C 114.731 -3.56769 2.73762 0
M  V30 1195 C 113.501 -3.72635 3.41279 0
M  V30 1196 C 115.699 -3.55166 3.7197 0
M  V30 1197 N 113.681 -3.81845 4.80695 0
M  V30 1198 C 115.052 -3.70406 4.97191 0
M  V30 1199 C 117.107 -3.384 3.65226 0
M  V30 1200 C 115.81 -3.70615 6.16471 0
M  V30 1201 C 117.836 -3.39904 4.83962 0
M  V30 1202 C 117.198 -3.55667 6.08013 0
M  V30 1203 H 113.297 -0.702267 0.344014 0
M  V30 1204 H 115.881 -1.39165 1.36166 0
M  V30 1205 H 114.052 -3.82159 0.693456 0
M  V30 1206 H 115.784 -3.94363 0.908844 0
M  V30 1207 H 112.539 -3.73121 2.91681 0
M  V30 1208 H 112.963 -3.90209 5.53232 0
M  V30 1209 H 117.605 -3.25138 2.70269 0
M  V30 1210 H 115.323 -3.82658 7.11757 0
M  V30 1211 H 118.909 -3.28169 4.80413 0
M  V30 1212 H 117.789 -3.56755 6.98352 0
M  V30 1213 N 115.292 -0.849877 -1.32721 0
M  V30 1214 C 116.522 -0.46408 -2.0132 0
M  V30 1215 C 116.93 0.94246 -1.64056 0
M  V30 1216 O 116.273 1.6257 -0.855379 0
M  V30 1217 C 116.335 -0.517887 -3.5575 0
M  V30 1218 C 115.999 -1.88248 -4.16427 0
M  V30 1219 C 116.996 -2.84726 -4.35002 0
M  V30 1220 C 114.681 -2.17832 -4.52609 0
M  V30 1221 C 116.675 -4.08945 -4.8892 0
M  V30 1222 C 114.362 -3.42304 -5.06232 0
M  V30 1223 C 115.36 -4.37677 -5.24335 0
M  V30 1224 O 115.048 -5.59946 -5.76815 0
M  V30 1225 H 114.78 -0.181327 -0.651227 0
M  V30 1226 H 117.334 -1.14713 -1.70382 0
M  V30 1227 H 115.564 0.221997 -3.86062 0
M  V30 1228 H 117.253 -0.148366 -4.05629 0
M  V30 1229 H 118.019 -2.63174 -4.07388 0
M  V30 1230 H 113.898 -1.44385 -4.37806 0
M  V30 1231 H 117.442 -4.83396 -5.02966 0
M  V30 1232 H 113.339 -3.63709 -5.33278 0
M  V30 1233 H 114.107 -5.61838 -5.95214 0
M  V30 1234 N 116.77 1.45427 -0.607355 0
M  V30 1235 C 118.017 2.02241 -0.102455 0
M  V30 1236 C 118.345 1.4758 1.26691 0
M  V30 1237 O 117.6 0.640468 1.84923 0
M  V30 1238 C 117.899 3.57398 -0.0129263 0
M  V30 1239 C 117.565 4.3121 -1.31792 0
M  V30 1240 C 116.227 4.51092 -1.67539 0
M  V30 1241 C 118.579 4.73401 -2.18039 0
M  V30 1242 C 115.907 5.10422 -2.89285 0
M  V30 1243 C 118.259 5.34078 -3.39034 0
M  V30 1244 C 116.923 5.52184 -3.75033 0
M  V30 1245 H 116.193 0.740051 -0.037491 0
M  V30 1246 H 118.84 1.74494 -0.788926 0
M  V30 1247 H 117.145 3.84421 0.756806 0
M  V30 1248 H 118.842 3.99061 0.393881 0
M  V30 1249 H 115.432 4.16047 -1.02968 0
M  V30 1250 H 119.616 4.57774 -1.91721 0
M  V30 1251 H 114.872 5.22629 -3.17283 0
M  V30 1252 H 119.046 5.65724 -4.06115 0
M  V30 1253 H 116.673 5.97925 -4.69457 0
M  V30 1254 N 118.248 0.346503 1.53744 0
M  V30 1255 C 119.664 -0.00530975 1.59599 0
M  V30 1256 C 119.864 -1.48465 1.36236 0
M  V30 1257 O 118.92 -2.24376 1.15808 0
M  V30 1258 C 120.233 0.433516 2.97559 0
M  V30 1259 C 121.781 0.386111 3.10609 0
M  V30 1260 C 122.256 0.800451 4.50951 0
M  V30 1261 N 123.747 0.754753 4.5701 0
M  V30 1262 C 124.482 1.04727 5.63755 0
M  V30 1263 N 123.978 1.4081 6.7834 0
M  V30 1264 N 125.771 0.971316 5.53644 0
M  V30 1265 H 117.922 1.31009 1.67184 0
M  V30 1266 H 120.185 0.534242 0.783128 0
M  V30 1267 H 119.891 1.46509 3.19731 0
M  V30 1268 H 119.765 -0.189753 3.76722 0
M  V30 1269 H 122.152 -0.636295 2.88158 0
M  V30 1270 H 122.233 1.04462 2.33498 0
M  V30 1271 H 121.877 1.82088 4.74137 0
M  V30 1272 H 121.807 0.119386 5.26465 0
M  V30 1273 H 124.298 0.488662 3.74727 0
M  V30 1274 H 124.611 1.61607 7.55714 0
M  V30 1275 H 122.956 1.44657 6.79779 0
M  V30 1276 H 126.147 0.688748 4.63005 0
M  V30 1277 H 126.32 1.20263 6.36742 0
M  V30 1278 N 119.726 -1.57421 0.075193 0
M  V30 1279 C 121.142 -1.57099 -0.281444 0
M  V30 1280 C 121.342 -1.08486 -1.69803 0
M  V30 1281 O 120.398 -0.752279 -2.41033 0
M  V30 1282 C 121.711 -3.00571 -0.0880041 0
M  V30 1283 C 123.259 -3.12605 -0.157281 0
M  V30 1284 C 123.734 -4.57999 0.0079207 0
M  V30 1285 N 125.225 -4.63176 -0.0475725 0
M  V30 1286 C 125.96 -5.73373 0.0557876 0
M  V30 1287 N 125.456 -6.92473 0.21286 0
M  V30 1288 N 127.249 -5.621 -0.00152098 0
M  V30 1289 H 119.4 -1.87335 1.00098 0
M  V30 1290 H 121.663 -0.86377 0.390646 0
M  V30 1291 H 121.369 -3.40262 0.889629 0
M  V30 1292 H 121.243 -3.67754 -0.838875 0
M  V30 1293 H 123.63 -2.72798 -1.1254 0
M  V30 1294 H 123.711 -2.48053 0.62475 0
M  V30 1295 H 123.355 -4.98496 0.972824 0
M  V30 1296 H 123.285 -5.20586 -0.793556 0
M  V30 1297 H 125.776 -3.7753 -0.167244 0
M  V30 1298 H 126.089 -7.72279 0.283781 0
M  V30 1299 H 124.434 -6.94556 0.248267 0
M  V30 1300 H 127.625 -4.67938 -0.122958 0
M  V30 1301 H 127.798 -6.47948 0.0824844 0
M  V30 1302 N 121.204 0.198386 -1.56346 0
M  V30 1303 C 122.432 0.935572 -1.84539 0
M  V30 1304 C 122.847 1.76989 -0.657281 0
M  V30 1305 O 122.204 1.78626 0.374043 0
M  V30 1306 C 122.255 1.8344 -3.11499 0
M  V30 1307 O 121.976 1.03377 -4.25728 0
M  V30 1308 C 123.477 2.68355 -3.52846 0
M  V30 1309 H 120.697 0.273126 -0.612897 0
M  V30 1310 H 123.241 0.20663 -2.03453 0
M  V30 1311 H 121.396 2.51701 -2.94492 0
M  V30 1312 H 121.81 1.64599 -4.98003 0
M  V30 1313 H 123.284 3.27085 -4.44657 0
M  V30 1314 H 123.761 3.41901 -2.75681 0
M  V30 1315 H 124.367 2.05471 -3.72373 0
M  V30 1316 N 122.682 1.50554 0.465978 0
M  V30 1317 C 123.928 1.63006 1.21658 0
M  V30 1318 C 124.283 0.328613 1.89573 0
M  V30 1319 O 123.576 -0.673813 1.79361 0
M  V30 1320 C 123.77 2.75152 2.28093 0
M  V30 1321 C 123.599 4.16075 1.7062 0
M  V30 1322 C 122.369 4.82408 1.50368 0
M  V30 1323 C 124.567 5.00145 1.1983 0
M  V30 1324 N 122.549 6.07532 0.881924 0
M  V30 1325 C 123.92 6.16035 0.700083 0
M  V30 1326 C 125.975 4.85882 1.08733 0
M  V30 1327 C 124.678 7.19228 0.101835 0
M  V30 1328 C 126.704 5.89257 0.503016 0
M  V30 1329 C 126.066 7.04398 0.0152005 0
M  V30 1330 H 122.165 0.650596 0.433877 0
M  V30 1331 H 124.749 1.8769 0.517746 0
M  V30 1332 H 122.92 2.52181 2.95397 0
M  V30 1333 H 124.652 2.76935 2.95109 0
M  V30 1334 H 121.407 4.39788 1.75737 0
M  V30 1335 H 121.831 6.7443 0.589312 0
M  V30 1336 H 126.473 3.97144 1.4504 0
M  V30 1337 H 124.191 8.07637 -0.273426 0
M  V30 1338 H 127.777 5.80286 0.419451 0
M  V30 1339 H 126.657 7.83021 -0.429856 0
M  V30 1340 N 124.16 -0.719506 1.40217 0
M  V30 1341 C 125.4 -1.49181 1.39729 0
M  V30 1342 C 125.764 -1.92 -0.00250614 0
M  V30 1343 O 126.965 -2.68473 -0.132479 0
M  V30 1344 C 125.236 -2.68767 2.35582 0
M  V30 1345 S 126.795 -3.58224 2.53418 0
M  V30 1346 H 123.613 -0.510091 0.495307 0
M  V30 1347 H 126.215 -0.841724 1.76452 0
M  V30 1348 H 124.919 -2.35475 3.36124 0
M  V30 1349 H 124.45 -3.38691 2.0013 0
M  V30 1350 H 126.465 -4.63033 1.78367 0
M  V30 1351 N 125.638 -1.25649 -0.95132 0
M  V30 1352 C 126.548 -1.08073 -2.08224 0
M  V30 1353 C 127.564 -0.0169666 -1.73992 0
M  V30 1354 O 128.74 -0.218593 -2.0021 0
M  V30 1355 C 125.805 -0.704922 -3.39458 0
M  V30 1356 C 124.866 -1.84699 -3.87537 0
M  V30 1357 C 124.099 -1.48902 -5.12508 0
M  V30 1358 O 124.322 -0.386156 -5.69091 0
M  V30 1359 O 123.256 -2.32033 -5.55378 0
M  V30 1360 H 127.082 -2.02924 -2.25954 0
M  V30 1361 H 124.667 -1.04618 -1.06656 0
M  V30 1362 H 126.549 -0.507609 -4.18332 0
M  V30 1363 H 125.224 0.214291 -3.2299 0
M  V30 1364 H 124.131 -2.09919 -3.09653 0
M  V30 1365 H 125.464 -2.74557 -4.08509 0
M  V30 1366 N 127.117 1.15442 -1.07289 0
M  V30 1367 C 128.363 1.86489 -0.796846 0
M  V30 1368 C 128.696 1.82078 0.675371 0
M  V30 1369 O 127.971 1.24346 1.4956 0
M  V30 1370 C 128.254 3.35626 -1.30489 0
M  V30 1371 C 128.107 3.48673 -2.84161 0
M  V30 1372 C 129.426 4.30357 -0.920907 0
M  V30 1373 H 126.545 0.677144 -0.290939 0
M  V30 1374 H 129.187 1.35633 -1.33056 0
M  V30 1375 H 127.337 3.79068 -0.850883 0
M  V30 1376 H 129.009 3.14099 -3.37846 0
M  V30 1377 H 127.252 2.90253 -3.22391 0
M  V30 1378 H 127.923 4.53453 -3.14777 0
M  V30 1379 H 130.399 3.94871 -1.3121 0
M  V30 1380 H 129.275 5.33193 -1.30372 0
M  V30 1381 H 129.536 4.4176 0.173226 0
M  V30 1382 N 128.595 0.856903 1.32268 0
M  V30 1383 C 129.825 0.47475 2.01071 0
M  V30 1384 C 130.233 -0.933746 1.64553 0
M  V30 1385 O 129.576 -1.62114 0.863989 0
M  V30 1386 C 129.638 0.536746 3.55471 0
M  V30 1387 C 129.302 1.90453 4.15423 0
M  V30 1388 C 130.299 2.87029 4.33486 0
M  V30 1389 C 127.984 2.20229 4.51447 0
M  V30 1390 C 129.978 4.11532 4.86744 0
M  V30 1391 C 127.665 3.44984 5.0441 0
M  V30 1392 C 128.663 4.40452 5.22007 0
M  V30 1393 O 128.351 5.62998 5.73837 0
M  V30 1394 H 128.083 0.184778 0.650256 0
M  V30 1395 H 130.637 1.15615 1.69771 0
M  V30 1396 H 128.867 -0.20152 3.86175 0
M  V30 1397 H 130.556 0.169875 4.05544 0
M  V30 1398 H 131.322 2.6533 4.05986 0
M  V30 1399 H 127.201 1.46705 4.37034 0
M  V30 1400 H 130.745 4.86056 5.00395 0
M  V30 1401 H 126.642 3.66532 5.31342 0
M  V30 1402 H 127.41 5.64987 5.92226 0
M  V30 1403 N 130.073 -1.45103 0.615059 0
M  V30 1404 C 131.003 -2.33339 -0.0865619 0
M  V30 1405 C 131.984 -1.4727 -0.851209 0
M  V30 1406 O 133.169 -1.76026 -0.820281 0
M  V30 1407 C 130.299 -3.30095 -1.07956 0
M  V30 1408 C 129.253 -4.25858 -0.427628 0
M  V30 1409 C 128.579 -5.12361 -1.5294 0
M  V30 1410 C 129.879 -5.18165 0.655944 0
M  V30 1411 H 131.573 -2.92254 0.650224 0
M  V30 1412 H 129.119 -1.40532 0.314138 0
M  V30 1413 H 131.072 -3.90698 -1.57901 0
M  V30 1414 H 129.796 -2.69355 -1.84703 0
M  V30 1415 H 128.455 -3.66564 0.0510292 0
M  V30 1416 H 128.103 -4.47984 -2.28734 0
M  V30 1417 H 127.803 -5.77238 -1.09865 0
M  V30 1418 H 129.327 -5.75833 -2.03098 0
M  V30 1419 H 130.741 -5.72796 0.240257 0
M  V30 1420 H 129.138 -5.91559 1.00888 0
M  V30 1421 H 130.208 -4.60144 1.52957 0
M  V30 1422 N 131.551 -0.354651 -1.53558 0
M  V30 1423 C 132.514 0.484566 -2.24019 0
M  V30 1424 C 133.514 1.01861 -1.24422 0
M  V30 1425 O 134.704 0.906097 -1.4878 0
M  V30 1426 C 131.836 1.67615 -2.96847 0
M  V30 1427 H 133.029 -0.131843 -2.9961 0
M  V30 1428 H 130.582 -0.106165 -1.55939 0
M  V30 1429 H 131.317 2.33095 -2.25471 0
M  V30 1430 H 131.102 1.30029 -3.69912 0
M  V30 1431 H 132.592 2.27114 -3.50441 0
M  V30 1432 N 133.029 1.57378 -0.0835403 0
M  V30 1433 C 133.959 2.1641 0.87686 0
M  V30 1434 C 134.94 1.09429 1.30228 0
M  V30 1435 O 136.125 1.37516 1.37124 0
M  V30 1436 C 133.255 2.73517 2.14022 0
M  V30 1437 C 132.209 3.85769 1.85381 0
M  V30 1438 C 131.535 4.29529 3.18448 0
M  V30 1439 C 132.835 5.09486 1.14984 0
M  V30 1440 H 134.529 2.96914 0.385059 0
M  V30 1441 H 132.075 1.42823 0.18377 0
M  V30 1442 H 134.028 3.13463 2.81636 0
M  V30 1443 H 132.752 1.90252 2.65465 0
M  V30 1444 H 131.411 3.46345 1.20169 0
M  V30 1445 H 131.059 3.43169 3.67755 0
M  V30 1446 H 130.759 5.05204 3.00071 0
M  V30 1447 H 132.283 4.72099 3.8724 0
M  V30 1448 H 133.697 5.46674 1.72687 0
M  V30 1449 H 132.094 5.90515 1.06826 0
M  V30 1450 H 133.164 4.84724 0.130749 0
M  V30 1451 N 134.507 -0.190092 1.56449 0
M  V30 1452 C 135.784 -0.935886 1.71757 0
M  V30 1453 C 136.164 -2.01173 0.639726 0
M  V30 1454 O 135.512 -2.25827 -0.348502 0
M  V30 1455 C 135.722 -1.51775 3.1427 0
M  V30 1456 C 137.07 -1.99794 3.74656 0
M  V30 1457 O 138.094 -1.61607 3.1743 0
M  V30 1458 O 136.953 -2.70079 4.751 0
M  V30 1459 H 134.047 -0.439229 0.700719 0
M  V30 1460 H 136.593 -0.179395 1.68749 0
M  V30 1461 H 135.365 -0.742505 3.84191 0
M  V30 1462 H 134.988 -2.33894 3.21527 0
M  V30 1463 N 135.985 -1.50799 -0.457987 0
M  V30 1464 C 137.231 -1.62683 -1.21088 0
M  V30 1465 C 137.564 -0.332268 -1.91336 0
M  V30 1466 O 136.839 0.667043 -1.82704 0
M  V30 1467 C 137.122 -2.81615 -2.24422 0
M  V30 1468 C 136.975 -4.20989 -1.58392 0
M  V30 1469 C 138.294 -2.96085 -3.2561 0
M  V30 1470 H 135.413 -0.592087 -0.438864 0
M  V30 1471 H 138.055 -1.83225 -0.50286 0
M  V30 1472 H 136.205 -2.64231 -2.84806 0
M  V30 1473 H 137.877 -4.49994 -1.01504 0
M  V30 1474 H 136.12 -4.24641 -0.886704 0
M  V30 1475 H 136.791 -5.0016 -2.33547 0
M  V30 1476 H 139.267 -3.12042 -2.75262 0
M  V30 1477 H 138.143 -3.80902 -3.95228 0
M  V30 1478 H 138.404 -2.0726 -3.90507 0
M  V30 1479 N 137.463 0.71206 -1.40597 0
M  V30 1480 C 138.393 1.83889 -1.43899 0
M  V30 1481 C 139.374 1.67442 -0.299504 0
M  V30 1482 O 140.559 1.87421 -0.508624 0
M  V30 1483 C 137.689 3.21877 -1.30431 0
M  V30 1484 C 136.643 3.53002 -2.42019 0
M  V30 1485 C 135.969 4.90172 -2.13626 0
M  V30 1486 C 137.269 3.53643 -3.84362 0
M  V30 1487 H 138.963 1.81383 -2.38203 0
M  V30 1488 H 136.509 0.871237 -1.14654 0
M  V30 1489 H 138.462 4.00404 -1.31357 0
M  V30 1490 H 137.186 3.24968 -0.326049 0
M  V30 1491 H 135.845 2.76818 -2.40349 0
M  V30 1492 H 135.493 4.89869 -1.14182 0
M  V30 1493 H 135.193 5.11962 -2.88389 0
M  V30 1494 H 136.717 5.71028 -2.1624 0
M  V30 1495 H 138.131 4.22203 -3.87837 0
M  V30 1496 H 136.528 3.86961 -4.58673 0
M  V30 1497 H 137.598 2.52954 -4.13693 0
M  V30 1498 N 138.941 1.26152 0.944643 0
M  V30 1499 C 140.188 1.11492 1.69044 0
M  V30 1500 C 140.516 -0.342366 1.91463 0
M  V30 1501 O 139.771 -1.26812 1.49054 0
M  V30 1502 C 140.07 1.82541 3.07268 0
M  V30 1503 C 139.736 3.32445 3.04616 0
M  V30 1504 C 138.398 3.73337 3.036 0
M  V30 1505 C 140.75 4.28171 2.97185 0
M  V30 1506 C 138.078 5.08348 2.92915 0
M  V30 1507 C 140.43 5.63218 2.88041 0
M  V30 1508 C 139.094 6.03426 2.85366 0
M  V30 1509 H 138.364 0.407977 0.618576 0
M  V30 1510 H 141.011 1.56551 1.10291 0
M  V30 1511 H 139.316 1.29941 3.69625 0
M  V30 1512 H 141.013 1.68642 3.63815 0
M  V30 1513 H 137.603 2.99915 3.06185 0
M  V30 1514 H 141.787 3.97563 2.97081 0
M  V30 1515 H 137.043 5.38667 2.89219 0
M  V30 1516 H 141.217 6.37078 2.81254 0
M  V30 1517 H 138.844 7.07999 2.76842 0
M  V30 1518 N 140.419 -1.14872 1.07899 0
M  V30 1519 C 141.659 -1.8745 0.814965 0
M  V30 1520 C 142.023 -1.80758 -0.64733 0
M  V30 1521 O 143.224 -2.48422 -1.02664 0
M  V30 1522 C 141.495 -3.32286 1.31607 0
M  V30 1523 S 143.054 -4.22537 1.18357 0
M  V30 1524 H 139.872 -0.646833 0.295174 0
M  V30 1525 H 142.474 -1.38555 1.37923 0
M  V30 1526 H 141.178 -3.34703 2.37491 0
M  V30 1527 H 140.709 -3.86238 0.747261 0
M  V30 1528 H 142.724 -4.96044 0.124586 0
M  V30 1529 N 141.898 -0.863906 -1.31812 0
M  V30 1530 C 143.126 -0.486111 -2.01108 0
M  V30 1531 C 143.541 0.919755 -1.64882 0
M  V30 1532 O 142.898 1.60162 -0.874893 0
M  V30 1533 C 142.949 -0.626435 -3.56031 0
M  V30 1534 O 142.67 -1.97693 -3.90959 0
M  V30 1535 C 144.171 -0.248857 -4.42601 0
M  V30 1536 H 141.391 -0.190052 -0.643523 0
M  V30 1537 H 143.935 -1.1634 -1.68182 0
M  V30 1538 H 142.09 0.00322717 -3.874 0
M  V30 1539 H 142.504 -1.98034 -4.85678 0
M  V30 1540 H 143.978 -0.398016 -5.50563 0
M  V30 1541 H 144.455 0.811489 -4.31638 0
M  V30 1542 H 145.061 -0.853971 -4.16638 0
M  V30 1543 N 143.376 1.44774 -0.622745 0
M  V30 1544 C 144.601 2.06999 -0.128968 0
M  V30 1545 C 145.026 1.4617 1.1839 0
M  V30 1546 O 144.384 0.560007 1.72434 0
M  V30 1547 C 144.432 3.60595 -0.0188351 0
M  V30 1548 O 143.536 3.99398 1.02739 0
M  V30 1549 H 142.877 0.659047 -0.0809544 0
M  V30 1550 H 145.407 1.85784 -0.85705 0
M  V30 1551 H 145.417 4.07627 0.174476 0
M  V30 1552 H 144.092 4.04252 -0.977384 0
M  V30 1553 H 142.669 3.64011 0.809326 0
M  V30 1554 N 144.854 0.36279 1.53368 0
M  V30 1555 C 146.079 -0.231226 2.06107 0
M  V30 1556 C 146.504 -1.419 1.23474 0
M  V30 1557 O 145.862 -1.79524 0.253128 0
M  V30 1558 C 145.91 -0.605523 3.5548 0
M  V30 1559 O 145.014 -1.70312 3.7559 0
M  V30 1560 H 144.355 -0.034327 0.663112 0
M  V30 1561 H 146.885 0.522584 1.97814 0
M  V30 1562 H 146.895 -0.877314 3.98456 0
M  V30 1563 H 145.57 0.263004 4.15068 0
M  V30 1564 H 144.147 -1.4271 3.44512 0
M  V30 1565 N 146.332 -1.57332 0.0918853 0
M  V30 1566 C 147.581 -1.93412 -0.572249 0
M  V30 1567 C 147.894 -0.975515 -1.69538 0
M  V30 1568 O 149.1 -1.22991 -2.42045 0
M  V30 1569 C 147.556 -3.43648 -1.0693 0
M  V30 1570 C 147.164 -4.47994 0.0239049 0
M  V30 1571 C 148.908 -3.88695 -1.70635 0
M  V30 1572 C 146.815 -5.89381 -0.488319 0
M  V30 1573 H 145.745 -0.721939 -0.217532 0
M  V30 1574 H 148.396 -1.82735 0.167369 0
M  V30 1575 H 146.778 -3.49466 -1.8625 0
M  V30 1576 H 147.952 -4.53815 0.799277 0
M  V30 1577 H 146.267 -4.12536 0.565946 0
M  V30 1578 H 148.864 -4.91725 -2.10025 0
M  V30 1579 H 149.207 -3.27166 -2.57426 0
M  V30 1580 H 149.74 -3.85564 -0.979023 0
M  V30 1581 H 146.479 -6.54602 0.342906 0
M  V30 1582 H 145.999 -5.87037 -1.23077 0
M  V30 1583 H 147.678 -6.39863 -0.958317 0
M  V30 1584 N 147.81 0.181792 -1.56548 0
M  V30 1585 C 149.056 0.901431 -1.81665 0
M  V30 1586 C 149.389 1.82347 -0.668075 0
M  V30 1587 O 148.664 1.91669 0.330615 0
M  V30 1588 C 148.947 1.70618 -3.17115 0
M  V30 1589 C 148.8 0.807964 -4.42484 0
M  V30 1590 C 150.119 2.67605 -3.49393 0
M  V30 1591 H 147.238 0.32627 -0.660846 0
M  V30 1592 H 149.88 0.168134 -1.89255 0
M  V30 1593 H 148.03 2.33133 -3.10775 0
M  V30 1594 H 149.702 0.19649 -4.60881 0
M  V30 1595 H 147.945 0.115411 -4.33646 0
M  V30 1596 H 148.616 1.40632 -5.33785 0
M  V30 1597 H 151.092 2.15218 -3.56118 0
M  V30 1598 H 149.968 3.20985 -4.45264 0
M  V30 1599 H 150.229 3.47298 -2.73563 0
M  V30 1600 N 149.288 1.51039 0.449983 0
M  V30 1601 C 150.238 1.67824 1.54335 0
M  V30 1602 C 151.222 0.5324 1.51836 0
M  V30 1603 O 152.414 0.787762 1.58503 0
M  V30 1604 C 149.543 1.7951 2.92628 0
M  V30 1605 C 148.629 2.99838 2.9993 0
M  V30 1606 N 149.02 4.23207 2.77001 0
M  V30 1607 C 147.318 2.98832 3.31082 0
M  V30 1608 C 148.019 5.04361 2.89818 0
M  V30 1609 N 146.995 4.38746 3.2094 0
M  V30 1610 H 150.797 2.60884 1.35339 0
M  V30 1611 H 148.311 1.48513 0.657085 0
M  V30 1612 H 150.308 1.89642 3.7127 0
M  V30 1613 H 148.968 0.876227 3.12654 0
M  V30 1614 H 149.979 4.5236 2.52172 0
M  V30 1615 H 146.656 2.16527 3.56963 0
M  V30 1616 H 148.046 6.12528 2.76151 0
M  V30 1617 N 150.766 -0.704594 1.40972 0
M  V30 1618 C 151.696 -1.83124 1.44872 0
M  V30 1619 C 152.677 -1.67281 0.30838 0
M  V30 1620 O 153.862 -1.87149 0.518556 0
M  V30 1621 C 150.992 -3.21181 1.32136 0
M  V30 1622 C 149.946 -3.51714 2.43888 0
M  V30 1623 C 149.272 -4.89032 2.16222 0
M  V30 1624 C 150.572 -3.516 3.86232 0
M  V30 1625 H 152.266 -1.80117 2.39161 0
M  V30 1626 H 149.812 -0.865145 1.15114 0
M  V30 1627 H 151.765 -3.99702 1.33479 0
M  V30 1628 H 150.489 -3.24791 0.343279 0
M  V30 1629 H 149.148 -2.75539 2.41813 0
M  V30 1630 H 148.796 -4.89256 1.16778 0
M  V30 1631 H 148.496 -5.10426 2.911 0
M  V30 1632 H 150.02 -5.69873 2.19265 0
M  V30 1633 H 151.434 -4.2014 3.9007 0
M  V30 1634 H 149.831 -3.84523 4.60719 0
M  V30 1635 H 150.901 -2.50757 4.15029 0
M  V30 1636 N 152.244 -1.26651 -0.937939 0
M  V30 1637 C 153.484 -1.13611 -1.69917 0
M  V30 1638 C 153.848 0.314687 -1.89404 0
M  V30 1639 O 155.049 0.567285 -2.62746 0
M  V30 1640 C 153.32 -1.88742 -3.03498 0
M  V30 1641 S 154.879 -1.91794 -3.94665 0
M  V30 1642 H 151.697 -0.405767 -0.583844 0
M  V30 1643 H 154.299 -1.60416 -1.11745 0
M  V30 1644 H 153.003 -2.9336 -2.86999 0
M  V30 1645 H 152.534 -1.42391 -3.66727 0
M  V30 1646 H 154.549 -1.00698 -4.85875 0
M  V30 1647 N 153.722 1.14298 -1.08507 0
M  V30 1648 C 154.685 2.17607 -0.719711 0
M  V30 1649 C 155.685 1.58907 0.245997 0
M  V30 1650 O 156.875 1.74181 0.0254081 0
M  V30 1651 C 154.007 3.40842 -0.0627695 0
M  V30 1652 H 155.2 2.51443 -1.63452 0
M  V30 1653 H 152.753 1.28963 -0.88307 0
M  V30 1654 H 153.488 3.12587 0.863716 0
M  V30 1655 H 153.273 3.84713 -0.757504 0
M  V30 1656 H 154.763 4.17221 0.177786 0
M  V30 1657 N 155.201 0.870884 1.31352 0
M  V30 1658 C 156.45 0.478408 1.95944 0
M  V30 1659 C 156.763 -0.974493 1.69597 0
M  V30 1660 O 157.969 -1.47316 2.28058 0
M  V30 1661 C 156.425 0.804609 3.50791 0
M  V30 1662 C 156.033 2.27433 3.85977 0
M  V30 1663 C 157.777 0.480648 4.2177 0
M  V30 1664 C 155.684 2.5429 5.33939 0
M  V30 1665 H 154.614 0.175175 0.733369 0
M  V30 1666 H 157.265 1.06391 1.4951 0
M  V30 1667 H 155.647 0.148347 3.95722 0
M  V30 1668 H 156.821 2.97373 3.52002 0
M  V30 1669 H 155.136 2.56442 3.28065 0
M  V30 1670 H 157.733 0.658519 5.30629 0
M  V30 1671 H 158.076 -0.578979 4.12254 0
M  V30 1672 H 158.609 1.09349 3.82476 0
M  V30 1673 H 155.348 3.58939 5.48491 0
M  V30 1674 H 154.868 1.88945 5.69263 0
M  V30 1675 H 156.547 2.39066 6.01212 0
M  V30 1676 N 156.679 -1.44442 0.630414 0
M  V30 1677 C 157.904 -2.06927 0.139944 0
M  V30 1678 C 158.329 -1.46795 -1.17613 0
M  V30 1679 O 157.687 -0.569144 -1.72135 0
M  V30 1680 C 157.735 -3.6058 0.0379581 0
M  V30 1681 O 156.839 -3.99937 -1.0062 0
M  V30 1682 H 156.18 -0.658608 0.0844483 0
M  V30 1683 H 158.71 -1.85327 0.866891 0
M  V30 1684 H 158.72 -4.07714 -0.152856 0
M  V30 1685 H 157.395 -4.03728 0.998809 0
M  V30 1686 H 155.972 -3.64436 -0.79001 0
M  V30 1687 N 158.157 -0.370918 -1.53173 0
M  V30 1688 C 159.087 0.464847 -2.28826 0
M  V30 1689 C 160.068 1.07936 -1.31468 0
M  V30 1690 O 161.253 1.0956 -1.60344 0
M  V30 1691 C 158.383 1.60196 -3.08147 0
M  V30 1692 C 157.337 1.11443 -4.13237 0
M  V30 1693 C 156.663 2.3422 -4.80672 0
M  V30 1694 C 157.963 0.195384 -5.21934 0
M  V30 1695 H 159.657 -0.166329 -2.98938 0
M  V30 1696 H 157.203 -0.0814359 -1.4377 0
M  V30 1697 H 159.156 2.19332 -3.59822 0
M  V30 1698 H 157.88 2.26045 -2.35735 0
M  V30 1699 H 156.539 0.545727 -3.62515 0
M  V30 1700 H 156.187 2.98537 -4.04827 0
M  V30 1701 H 155.887 2.02269 -5.51689 0
M  V30 1702 H 157.411 2.94032 -5.35143 0
M  V30 1703 H 158.825 0.694375 -5.69079 0
M  V30 1704 H 157.222 -0.0335027 -6.00091 0
M  V30 1705 H 158.292 -0.760961 -4.78892 0
M  V30 1706 N 159.635 1.57281 -0.100228 0
M  V30 1707 C 160.912 1.86014 0.604812 0
M  V30 1708 C 161.292 0.998025 1.86018 0
M  V30 1709 O 160.64 0.0718184 2.28387 0
M  V30 1710 C 160.85 3.36784 0.915278 0
M  V30 1711 C 162.198 4.04957 1.27651 0
M  V30 1712 O 163.222 3.41695 1.00613 0
M  V30 1713 O 162.081 5.16593 1.7831 0
M  V30 1714 H 159.175 0.76942 0.303185 0
M  V30 1715 H 161.721 1.69176 -0.133313 0
M  V30 1716 H 160.493 3.91292 0.0248896 0
M  V30 1717 H 160.116 3.58987 1.70921 0
M  V30 1718 N 161.113 -0.173488 1.56642 0
M  V30 1719 C 162.529 -0.525174 1.50712 0
M  V30 1720 C 162.729 -1.8476 0.804107 0
M  V30 1721 O 161.785 -2.49869 0.363574 0
M  V30 1722 C 163.098 -0.559937 2.95441 0
M  V30 1723 C 164.646 -0.647288 3.06234 0
M  V30 1724 C 165.121 -0.712963 4.52417 0
M  V30 1725 N 166.612 -0.775911 4.56655 0
M  V30 1726 C 167.347 -0.847264 5.67106 0
M  V30 1727 N 166.843 -0.879585 6.87194 0
M  V30 1728 N 168.636 -0.886117 5.55071 0
M  V30 1729 H 160.787 0.693681 2.00753 0
M  V30 1730 H 163.05 0.249841 0.914485 0
M  V30 1731 H 162.756 0.343049 3.50023 0
M  V30 1732 H 162.63 -1.40718 3.49969 0
M  V30 1733 H 165.017 -1.5407 2.51687 0
M  V30 1734 H 165.098 0.226586 2.54794 0
M  V30 1735 H 164.742 0.176183 5.07594 0
M  V30 1736 H 164.672 -1.60295 5.0161 0
M  V30 1737 H 167.163 -0.759304 3.70193 0
M  V30 1738 H 167.476 -0.935144 7.67121 0
M  V30 1739 H 165.821 -0.847898 6.89808 0
M  V30 1740 H 169.012 -0.857853 4.60172 0
M  V30 1741 H 169.185 -0.938263 6.41171 0
M  V30 1742 N 162.591 -1.51276 -0.441967 0
M  V30 1743 C 163.821 -1.67273 -1.21257 0
M  V30 1744 C 164.229 -0.367624 -1.85594 0
M  V30 1745 O 163.572 0.663349 -1.71305 0
M  V30 1746 C 163.634 -2.72807 -2.34129 0
M  V30 1747 C 163.298 -4.1554 -1.90198 0
M  V30 1748 C 164.295 -5.00471 -1.40801 0
M  V30 1749 C 161.98 -4.61616 -1.9803 0
M  V30 1750 C 163.974 -6.29536 -0.998174 0
M  V30 1751 C 161.661 -5.90679 -1.56658 0
M  V30 1752 C 162.659 -6.74466 -1.07633 0
M  V30 1753 O 162.347 -8.01116 -0.668459 0
M  V30 1754 H 162.079 -0.564614 -0.371734 0
M  V30 1755 H 164.633 -1.9843 -0.530521 0
M  V30 1756 H 162.863 -2.36954 -3.05597 0
M  V30 1757 H 164.552 -2.77729 -2.96009 0
M  V30 1758 H 165.318 -4.66079 -1.34148 0
M  V30 1759 H 161.197 -3.96526 -2.35135 0
M  V30 1760 H 164.741 -6.94885 -0.61482 0
M  V30 1761 H 160.638 -6.24586 -1.62979 0
M  V30 1762 H 161.406 -8.14633 -0.794722 0
M  V30 1763 N 164.069 0.697108 -1.41344 0
M  V30 1764 C 165.315 1.45796 -1.41828 0
M  V30 1765 C 165.67 1.92382 -0.0261743 0
M  V30 1766 O 164.963 1.66522 0.947688 0
M  V30 1767 C 165.157 2.68553 -2.35826 0
M  V30 1768 C 164.986 2.33975 -3.84039 0
M  V30 1769 C 163.756 2.24414 -4.52732 0
M  V30 1770 C 165.954 1.97048 -4.75054 0
M  V30 1771 N 163.936 1.82705 -5.86082 0
M  V30 1772 C 165.307 1.66086 -5.9734 0
M  V30 1773 C 167.362 1.83845 -4.62715 0
M  V30 1774 C 166.065 1.23246 -7.08663 0
M  V30 1775 C 168.091 1.4241 -5.73998 0
M  V30 1776 C 167.453 1.12357 -6.95381 0
M  V30 1777 H 163.552 0.530859 -0.574206 0
M  V30 1778 H 166.136 0.806674 -1.77203 0
M  V30 1779 H 164.307 3.31404 -2.02549 0
M  V30 1780 H 166.039 3.35015 -2.2704 0
M  V30 1781 H 162.794 2.4276 -4.0665 0
M  V30 1782 H 163.218 1.64337 -6.56751 0
M  V30 1783 H 167.86 2.05734 -3.69369 0
M  V30 1784 H 165.578 1.00102 -8.01876 0
M  V30 1785 H 169.164 1.32746 -5.66454 0
M  V30 1786 H 168.044 0.807795 -7.80028 0
M  V30 1787 N 165.547 1.27147 0.931209 0
M  V30 1788 C 166.51 1.09615 2.01289 0
M  V30 1789 C 167.51 0.0412581 1.60747 0
M  V30 1790 O 168.7 0.285545 1.71844 0
M  V30 1791 C 165.832 0.669447 3.34262 0
M  V30 1792 H 167.025 2.05662 2.18273 0
M  V30 1793 H 164.578 1.09885 1.11153 0
M  V30 1794 H 165.313 -0.292572 3.22978 0
M  V30 1795 H 165.098 1.43127 3.65044 0
M  V30 1796 H 166.588 0.568921 4.13706 0
M  V30 1797 N 167.025 -1.13721 1.09112 0
M  V30 1798 C 168.271 -1.85198 0.826414 0
M  V30 1799 C 168.604 -1.83129 -0.646319 0
M  V30 1800 O 167.879 -1.2671 -1.47563 0
M  V30 1801 C 168.162 -3.33507 1.35812 0
M  V30 1802 C 168.015 -3.44108 2.89672 0
M  V30 1803 C 169.334 -4.28838 0.989256 0
M  V30 1804 H 166.453 -0.67243 0.301675 0
M  V30 1805 H 169.095 -1.33499 1.35197 0
M  V30 1806 H 167.245 -3.77666 0.911082 0
M  V30 1807 H 168.917 -3.08684 3.428 0
M  V30 1808 H 167.16 -2.85087 3.26967 0
M  V30 1809 H 167.831 -4.48388 3.21951 0
M  V30 1810 H 170.307 -3.92734 1.37475 0
M  V30 1811 H 169.183 -5.31051 1.38838 0
M  V30 1812 H 169.444 -4.4198 -0.102924 0
M  V30 1813 N 168.503 -0.877838 -1.30888 0
M  V30 1814 C 169.728 -0.506629 -2.01117 0
M  V30 1815 C 170.153 0.895564 -1.65412 0
M  V30 1816 O 169.511 1.5923 -0.866922 0
M  V30 1817 C 169.559 -0.680223 -3.54126 0
M  V30 1818 O 168.663 0.277033 -4.11468 0
M  V30 1819 H 168.004 -0.200518 -0.633 0
M  V30 1820 H 170.534 -1.18342 -1.66902 0
M  V30 1821 H 170.544 -0.5765 -4.03907 0
M  V30 1822 H 169.219 -1.70261 -3.79452 0
M  V30 1823 H 167.796 0.127606 -3.72682 0
M  V30 1824 N 169.982 1.44106 -0.638065 0
M  V30 1825 C 171.398 1.56672 -0.304286 0
M  V30 1826 C 171.598 1.6244 1.19228 0
M  V30 1827 O 170.654 1.57121 1.9766 0
M  V30 1828 C 171.967 2.83503 -1.00231 0
M  V30 1829 C 173.515 2.97226 -0.981116 0
M  V30 1830 C 173.99 4.26868 -1.65974 0
M  V30 1831 N 175.481 4.33698 -1.62666 0
M  V30 1832 C 176.216 5.32745 -2.12063 0
M  V30 1833 N 175.712 6.38157 -2.6968 0
M  V30 1834 N 177.505 5.24299 -2.02651 0
M  V30 1835 H 169.656 1.38605 -1.60942 0
M  V30 1836 H 171.919 0.664661 -0.675965 0
M  V30 1837 H 171.625 2.85251 -2.0573 0
M  V30 1838 H 171.499 3.73251 -0.54439 0
M  V30 1839 H 173.886 2.95027 0.0654188 0
M  V30 1840 H 173.967 2.08808 -1.47759 0
M  V30 1841 H 173.611 4.29826 -2.70576 0
M  V30 1842 H 173.541 5.14156 -1.13804 0
M  V30 1843 H 176.032 3.58138 -1.20606 0
M  V30 1844 H 176.345 7.10029 -3.05087 0
M  V30 1845 H 174.69 6.38823 -2.73734 0
M  V30 1846 H 177.881 4.4086 -1.57353 0
M  V30 1847 H 178.054 6.01334 -2.41457 0
M  V30 1848 N 171.46 0.379036 1.52974 0
M  V30 1849 C 172.423 -0.448865 2.24762 0
M  V30 1850 C 173.423 -0.998689 1.26027 0
M  V30 1851 O 174.613 -0.882313 1.50203 0
M  V30 1852 C 171.745 -1.62872 2.99476 0
M  V30 1853 H 172.938 0.179491 2.99362 0
M  V30 1854 H 170.491 0.13096 1.5575 0
M  V30 1855 H 171.226 -2.29479 2.29151 0
M  V30 1856 H 171.011 -1.24128 3.71934 0
M  V30 1857 H 172.501 -2.2151 3.5401 0
M  V30 1858 N 172.938 -1.57226 0.108567 0
M  V30 1859 C 173.868 -2.17778 -0.84232 0
M  V30 1860 C 174.849 -1.11487 -1.2847 0
M  V30 1861 O 176.034 -1.39681 -1.34918 0
M  V30 1862 C 173.164 -2.76888 -2.09644 0
M  V30 1863 C 172.118 -3.88669 -1.79221 0
M  V30 1864 C 171.444 -4.34541 -3.11574 0
M  V30 1865 C 172.744 -5.11251 -1.06864 0
M  V30 1866 H 174.438 -2.97489 -0.337774 0
M  V30 1867 H 171.984 -1.43097 -0.161025 0
M  V30 1868 H 173.937 -3.17904 -2.76614 0
M  V30 1869 H 172.661 -1.94451 -2.62405 0
M  V30 1870 H 171.32 -3.48213 -1.14644 0
M  V30 1871 H 170.968 -3.48977 -3.62249 0
M  V30 1872 H 170.668 -5.09914 -2.91996 0
M  V30 1873 H 172.192 -4.782 -3.7968 0
M  V30 1874 H 173.606 -5.49352 -1.63968 0
M  V30 1875 H 172.003 -5.9214 -0.974178 0
M  V30 1876 H 173.073 -4.8487 -0.0536168 0
M  V30 1877 N 174.416 0.165178 -1.56732 0
M  V30 1878 C 175.326 1.22423 -2.00125 0
M  V30 1879 C 176.342 1.48084 -0.913619 0
M  V30 1880 O 177.518 1.60112 -1.22172 0
M  V30 1881 C 174.583 2.54197 -2.35764 0
M  V30 1882 C 173.644 2.36343 -3.58386 0
M  V30 1883 C 172.877 3.61834 -3.92316 0
M  V30 1884 O 173.1 4.67267 -3.27135 0
M  V30 1885 O 172.034 3.55579 -4.85641 0
M  V30 1886 H 175.86 0.885886 -2.90492 0
M  V30 1887 H 173.445 0.372518 -1.44681 0
M  V30 1888 H 175.327 3.3192 -2.59629 0
M  V30 1889 H 174.002 2.87598 -1.48557 0
M  V30 1890 H 172.909 1.56632 -3.39731 0
M  V30 1891 H 174.242 2.07865 -4.46154 0
M  V30 1892 N 175.894 1.51508 0.433938 0
M  V30 1893 C 177.124 1.67914 1.20369 0
M  V30 1894 C 177.532 0.377461 1.85397 0
M  V30 1895 O 176.875 -0.654255 1.71654 0
M  V30 1896 C 176.937 2.74045 2.32679 0
M  V30 1897 C 176.601 4.16543 1.87991 0
M  V30 1898 C 177.598 5.01211 1.38145 0
M  V30 1899 C 175.283 4.6266 1.95579 0
M  V30 1900 C 177.277 6.30056 0.964774 0
M  V30 1901 C 174.964 5.91501 1.53523 0
M  V30 1902 C 175.962 6.75027 1.04055 0
M  V30 1903 O 175.65 8.01459 0.625964 0
M  V30 1904 H 175.382 0.566578 0.368735 0
M  V30 1905 H 177.936 1.98709 0.51999 0
M  V30 1906 H 176.166 2.38572 3.04336 0
M  V30 1907 H 177.855 2.79295 2.94532 0
M  V30 1908 H 178.621 4.66783 1.31675 0
M  V30 1909 H 174.5 3.97767 2.33029 0
M  V30 1910 H 178.044 6.95202 0.57796 0
M  V30 1911 H 173.941 6.25442 1.59665 0
M  V30 1912 H 174.709 8.15043 0.751509 0
M  V30 1913 N 177.372 -0.689602 1.41712 0
M  V30 1914 C 178.32 -1.82475 1.44242 0
M  V30 1915 C 179.314 -1.66354 0.319774 0
M  V30 1916 O 180.52 -1.73143 0.492089 0
M  V30 1917 H 176.895 -0.601416 0.451445 0
M  V30 1918 H 178.866 -1.77458 2.39899 0
M  V30 1919 C 177.615 -3.20535 1.3473 0
M  V30 1920 H 176.938 -3.33559 2.20405 0
M  V30 1921 H 178.378 -4.00023 1.40562 0
M  V30 1922 C 176.837 -3.36846 0.0603281 0
M  V30 1923 O 177.367 -3.91656 -0.892663 0
M  V30 1924 N 175.573 -2.90595 -0.0177039 0
M  V30 1925 H 175.12 -2.46178 0.758572 0
M  V30 1926 H 175.078 -3.01886 -0.878201 0
M  V30 1927 N 178.85 -1.27639 -0.924453 0
M  V30 1928 C 180.075 -1.17101 -1.71179 0
M  V30 1929 C 180.5 0.268134 -1.86179 0
M  V30 1930 O 179.858 1.19415 -1.36418 0
M  V30 1931 C 179.906 -1.86313 -3.08739 0
M  V30 1932 O 179.01 -1.16331 -3.95652 0
M  V30 1933 H 178.351 -0.407091 -0.524569 0
M  V30 1934 H 180.881 -1.68767 -1.15666 0
M  V30 1935 H 180.891 -1.938 -3.59034 0
M  V30 1936 H 179.566 -2.91001 -2.97138 0
M  V30 1937 H 178.143 -1.16935 -3.54091 0
M  V30 1938 N 180.328 1.1314 -1.09713 0
M  V30 1939 C 181.275 2.18642 -0.739196 0
M  V30 1940 C 182.245 1.63706 0.280978 0
M  V30 1941 O 183.43 1.90111 0.161946 0
M  V30 1942 C 180.57 3.44685 -0.169102 0
M  V30 1943 C 179.683 4.13711 -1.24367 0
M  V30 1944 C 178.818 5.27379 -0.636019 0
M  V30 1945 C 177.857 5.88259 -1.69169 0
M  V30 1946 N 176.994 6.93352 -1.10485 0
M  V30 1947 H 181.834 2.48607 -1.64312 0
M  V30 1948 H 179.371 1.22066 -0.820875 0
M  V30 1949 H 181.329 4.16815 0.179256 0
M  V30 1950 H 179.959 3.15161 0.698079 0
M  V30 1951 H 179.011 3.39835 -1.70927 0
M  V30 1952 H 180.323 4.55037 -2.04311 0
M  V30 1953 H 179.477 6.06238 -0.236677 0
M  V30 1954 H 178.216 4.8731 0.194928 0
M  V30 1955 H 177.221 5.08092 -2.10055 0
M  V30 1956 H 178.446 6.30399 -2.52536 0
M  V30 1957 H 176.392 6.55335 -0.295234 0
M  V30 1958 H 176.309 7.33236 -1.84121 0
M  V30 1959 H 177.577 7.76057 -0.73181 0
M  V30 1960 N 181.806 0.884767 1.30421 0
M  V30 1961 C 183.222 0.57874 1.48737 0
M  V30 1962 C 183.422 -0.883567 1.81095 0
M  V30 1963 O 182.478 -1.6648 1.89844 0
M  V30 1964 C 183.791 1.49171 2.61091 0
M  V30 1965 C 185.339 1.49532 2.74971 0
M  V30 1966 C 185.814 2.39421 3.90438 0
M  V30 1967 N 187.305 2.37383 3.97748 0
M  V30 1968 C 188.04 3.03647 4.86401 0
M  V30 1969 N 187.536 3.79136 5.79852 0
M  V30 1970 N 189.329 2.9288 4.79768 0
M  V30 1971 H 181.48 1.83075 1.0769 0
M  V30 1972 H 183.743 0.783637 0.533495 0
M  V30 1973 H 183.449 2.53291 2.44001 0
M  V30 1974 H 183.323 1.20113 3.57565 0
M  V30 1975 H 185.71 0.46163 2.91467 0
M  V30 1976 H 185.791 1.8262 1.79119 0
M  V30 1977 H 185.435 3.42874 3.74699 0
M  V30 1978 H 185.365 2.03649 4.85628 0
M  V30 1979 H 187.856 1.82525 3.30897 0
M  V30 1980 H 188.169 4.26789 6.4426 0
M  V30 1981 H 186.514 3.83243 5.79784 0
M  V30 1982 H 189.705 2.33433 4.05742 0
M  V30 1983 H 189.878 3.448 5.4865 0
M  V30 1984 N 183.284 -1.43765 0.645699 0
M  V30 1985 C 184.512 -2.06253 0.163556 0
M  V30 1986 C 184.927 -1.48352 -1.16778 0
M  V30 1987 O 184.284 -0.611932 -1.71935 0
M  V30 1988 C 184.335 -3.61453 0.0583186 0
M  V30 1989 O 184.056 -4.172 1.33702 0
M  V30 1990 C 185.557 -4.41002 -0.450795 0
M  V30 1991 H 182.777 -0.665413 0.0864077 0
M  V30 1992 H 185.321 -1.84396 0.884222 0
M  V30 1993 H 183.476 -3.82522 -0.612865 0
M  V30 1994 H 183.89 -5.10791 1.19131 0
M  V30 1995 H 185.364 -5.49966 -0.473403 0
M  V30 1996 H 185.841 -4.13488 -1.48068 0
M  V30 1997 H 186.447 -4.24886 0.187637 0
M  V30 1998 N 184.763 -0.387143 -1.52771 0
M  V30 1999 C 186.174 0.0873634 -1.86495 0
M  V30 2000 C 186.525 1.46336 -1.30691 0
M  V30 2001 O 185.65 2.068 -0.637409 0
M  V30 2002 C 186.245 0.165305 -3.38396 0
M  V30 2003 C 184.804 0.584101 -3.7184 0
M  V30 2004 C 183.951 -0.255279 -2.76122 0
M  V30 2005 H 186.902 -0.605104 -1.46711 0
M  V30 2006 H 186.923 0.984848 -3.67534 0
M  V30 2007 H 186.435 -0.836301 -3.78982 0
M  V30 2008 H 184.536 1.59315 -3.36823 0
M  V30 2009 H 184.649 0.343749 -4.77865 0
M  V30 2010 H 183.013 0.279126 -2.53166 0
M  V30 2011 H 183.796 -1.25482 -3.19545 0
M  V30 2012 N 186.241 1.57166 -0.116904 0
M  V30 2013 C 187.657 1.5779 0.239693 0
M  V30 2014 C 187.857 1.1295 1.66867 0
M  V30 2015 O 186.913 0.81592 2.38954 0
M  V30 2016 C 188.226 3.00699 0.00828202 0
M  V30 2017 C 189.774 3.12912 0.0743438 0
M  V30 2018 C 190.249 4.57817 -0.129348 0
M  V30 2019 N 191.74 4.63139 -0.075247 0
M  V30 2020 C 192.475 5.73023 -0.207788 0
M  V30 2021 N 191.971 6.91665 -0.396382 0
M  V30 2022 N 193.764 5.61906 -0.14751 0
M  V30 2023 H 185.915 1.84615 -1.05029 0
M  V30 2024 H 188.178 0.85311 -0.41341 0
M  V30 2025 H 187.884 3.37784 -0.979531 0
M  V30 2026 H 187.758 3.69848 0.741077 0
M  V30 2027 H 190.145 2.75686 1.05268 0
M  V30 2028 H 190.226 2.4631 -0.690297 0
M  V30 2029 H 189.87 4.95742 -1.10465 0
M  V30 2030 H 189.8 5.22507 0.655253 0
M  V30 2031 H 192.291 3.7784 0.0670898 0
M  V30 2032 H 192.604 7.71255 -0.488437 0
M  V30 2033 H 190.949 6.93654 -0.432329 0
M  V30 2034 H 194.14 4.681 -0.00115036 0
M  V30 2035 H 194.313 6.47501 -0.254247 0
M  V30 2036 N 187.719 -0.156864 1.56817 0
M  V30 2037 C 189.135 -0.50916 1.5126 0
M  V30 2038 C 189.335 -1.83897 0.823658 0
M  V30 2039 O 188.391 -2.49469 0.390055 0
M  V30 2040 C 189.704 -0.52857 2.96018 0
M  V30 2041 C 191.252 -0.614771 3.06903 0
M  V30 2042 C 191.727 -0.664938 4.53147 0
M  V30 2043 N 193.218 -0.727433 4.57452 0
M  V30 2044 C 193.953 -0.787067 5.67973 0
M  V30 2045 N 193.449 -0.806649 6.88088 0
M  V30 2046 N 195.242 -0.827195 5.5598 0
M  V30 2047 H 187.393 0.714935 2.00006 0
M  V30 2048 H 189.656 0.259526 0.911784 0
M  V30 2049 H 189.362 0.380154 3.49639 0
M  V30 2050 H 189.236 -1.36998 3.51442 0
M  V30 2051 H 191.623 -1.51392 2.53307 0
M  V30 2052 H 191.704 0.253597 2.5454 0
M  V30 2053 H 191.348 0.230011 5.07379 0
M  V30 2054 H 191.278 -1.54966 5.03282 0
M  V30 2055 H 193.769 -0.719998 3.70978 0
M  V30 2056 H 194.082 -0.853727 7.6807 0
M  V30 2057 H 192.427 -0.774687 6.90669 0
M  V30 2058 H 195.618 -0.808998 4.61056 0
M  V30 2059 H 195.791 -0.870206 6.4213 0
M  V30 2060 N 189.197 -1.51736 -0.425897 0
M  V30 2061 C 190.446 -1.64201 -1.17136 0
M  V30 2062 C 190.759 -0.369705 -1.92074 0
M  V30 2063 O 191.965 -0.373898 -2.68913 0
M  V30 2064 C 190.421 -2.90035 -2.13091 0
M  V30 2065 C 190.029 -4.24312 -1.43747 0
M  V30 2066 C 191.773 -3.1186 -2.87999 0
M  V30 2067 C 189.68 -5.41285 -2.38253 0
M  V30 2068 H 188.61 -0.611624 -0.440944 0
M  V30 2069 H 191.261 -1.78212 -0.437328 0
M  V30 2070 H 189.643 -2.69684 -2.89977 0
M  V30 2071 H 190.817 -4.55086 -0.723408 0
M  V30 2072 H 189.132 -4.08456 -0.809465 0
M  V30 2073 H 191.729 -3.96427 -3.58817 0
M  V30 2074 H 192.072 -2.25403 -3.49999 0
M  V30 2075 H 192.605 -3.32605 -2.18217 0
M  V30 2076 H 189.344 -6.30037 -1.80925 0
M  V30 2077 H 188.864 -5.14872 -3.0768 0
M  V30 2078 H 190.543 -5.73694 -2.99139 0
M  V30 2079 N 190.675 0.682077 -1.42076 0
M  V30 2080 C 191.622 1.79578 -1.44984 0
M  V30 2081 C 192.592 1.6332 -0.302614 0
M  V30 2082 O 193.777 1.83978 -0.505633 0
M  V30 2083 C 190.917 3.1756 -1.35091 0
M  V30 2084 C 190.03 3.45156 -2.59791 0
M  V30 2085 C 189.165 4.72826 -2.42093 0
M  V30 2086 C 188.204 4.93433 -3.62202 0
M  V30 2087 N 187.341 6.12338 -3.43491 0
M  V30 2088 H 192.181 1.76427 -2.40161 0
M  V30 2089 H 189.718 0.861376 -1.19242 0
M  V30 2090 H 191.676 3.97287 -1.27354 0
M  V30 2091 H 190.306 3.19854 -0.435133 0
M  V30 2092 H 189.358 2.59736 -2.77923 0
M  V30 2093 H 190.67 3.5628 -3.49094 0
M  V30 2094 H 189.824 5.60631 -2.319 0
M  V30 2095 H 188.563 4.63973 -1.50268 0
M  V30 2096 H 187.568 4.04073 -3.72834 0
M  V30 2097 H 188.793 5.04136 -4.54998 0
M  V30 2098 H 186.739 6.04672 -2.54377 0
M  V30 2099 H 186.656 6.2429 -4.26377 0
M  V30 2100 H 187.924 7.02841 -3.37097 0
M  V30 2101 N 192.153 1.28127 0.917671 0
M  V30 2102 C 193.393 1.163 1.68088 0
M  V30 2103 C 193.757 -0.284515 1.8988 0
M  V30 2104 O 194.958 -0.525413 2.63615 0
M  V30 2105 C 193.229 1.93546 3.00457 0
M  V30 2106 S 194.788 1.98048 3.91564 0
M  V30 2107 H 191.606 0.415005 0.577315 0
M  V30 2108 H 194.208 1.62173 1.09179 0
M  V30 2109 H 192.912 2.97888 2.82295 0
M  V30 2110 H 192.443 1.48207 3.64415 0
M  V30 2111 H 194.458 1.08415 4.84211 0
M  V30 2112 N 193.631 -1.12557 1.10312 0
M  V30 2113 C 194.88 -1.83395 0.839588 0
M  V30 2114 C 195.193 -1.84939 -0.636929 0
M  V30 2115 O 196.399 -2.51761 -1.01631 0
M  V30 2116 C 194.855 -3.29303 1.45215 0
M  V30 2117 C 194.463 -3.36122 2.96186 0
M  V30 2118 C 196.207 -4.05121 1.26796 0
M  V30 2119 C 194.114 -4.76357 3.50483 0
M  V30 2120 H 193.044 -0.687133 0.310425 0
M  V30 2121 H 195.695 -1.26746 1.32694 0
M  V30 2122 H 194.077 -3.85812 0.892469 0
M  V30 2123 H 195.251 -2.89559 3.58458 0
M  V30 2124 H 193.566 -2.73776 3.13745 0
M  V30 2125 H 196.163 -5.08668 1.64806 0
M  V30 2126 H 196.506 -4.15773 0.209409 0
M  V30 2127 H 197.039 -3.54967 1.79563 0
M  V30 2128 H 193.778 -4.70899 4.55998 0
M  V30 2129 H 193.298 -5.23377 2.92978 0
M  V30 2130 H 194.977 -5.45294 3.48228 0
M  V30 2131 N 195.109 -0.891671 -1.2995 0
M  V30 2132 C 196.358 -0.509521 -1.95158 0
M  V30 2133 C 196.671 0.947388 -1.71125 0
M  V30 2134 O 197.877 1.43669 -2.30372 0
M  V30 2135 C 196.333 -0.860315 -3.49466 0
M  V30 2136 C 195.941 -2.33545 -3.8231 0
M  V30 2137 C 197.685 -0.547687 -4.20952 0
M  V30 2138 C 195.592 -2.62752 -5.29826 0
M  V30 2139 H 194.522 -0.18682 -0.730489 0
M  V30 2140 H 197.173 -1.08756 -1.47798 0
M  V30 2141 H 195.555 -0.211285 -3.95436 0
M  V30 2142 H 196.729 -3.02936 -3.47227 0
M  V30 2143 H 195.044 -2.61629 -3.23944 0
M  V30 2144 H 197.641 -0.742854 -5.29515 0
M  V30 2145 H 197.984 0.51332 -4.13123 0
M  V30 2146 H 198.517 -1.1542 -3.80688 0
M  V30 2147 H 195.256 -3.6762 -5.42712 0
M  V30 2148 H 194.776 -1.97977 -5.66185 0
M  V30 2149 H 196.455 -2.48601 -5.97333 0
M  V30 2150 N 196.587 1.43421 -0.653314 0
M  V30 2151 C 197.517 2.33487 0.0246656 0
M  V30 2152 C 198.498 1.49475 0.811863 0
M  V30 2153 O 199.683 1.78139 0.773322 0
M  V30 2154 C 196.813 3.32841 0.99166 0
M  V30 2155 C 195.767 4.26842 0.314568 0
M  V30 2156 C 195.093 5.16236 1.39302 0
M  V30 2157 C 196.393 5.16243 -0.793095 0
M  V30 2158 H 198.087 2.90427 -0.727481 0
M  V30 2159 H 195.633 1.39649 -0.351287 0
M  V30 2160 H 197.586 3.94747 1.47487 0
M  V30 2161 H 196.31 2.74158 1.77497 0
M  V30 2162 H 194.969 3.663 -0.148199 0
M  V30 2163 H 194.617 4.53891 2.16776 0
M  V30 2164 H 194.317 5.79948 0.945223 0
M  V30 2165 H 195.841 5.81015 1.87759 0
M  V30 2166 H 197.255 5.71958 -0.392039 0
M  V30 2167 H 195.652 5.88676 -1.16536 0
M  V30 2168 H 196.722 4.55927 -1.65103 0
M  V30 2169 N 198.065 0.39524 1.52563 0
M  V30 2170 C 199.293 -0.184943 2.06072 0
M  V30 2171 C 199.708 -1.40021 1.26647 0
M  V30 2172 O 199.065 -1.79767 0.314672 0
M  V30 2173 C 199.116 -0.549179 3.57304 0
M  V30 2174 O 198.837 0.617813 4.33722 0
M  V30 2175 C 200.338 -1.18459 4.2718 0
M  V30 2176 H 197.558 -0.0265025 0.670476 0
M  V30 2177 H 200.102 0.562184 1.96621 0
M  V30 2178 H 198.257 -1.2462 3.66809 0
M  V30 2179 H 198.671 0.317091 5.23541 0
M  V30 2180 H 200.145 -1.38976 5.34219 0
M  V30 2181 H 200.622 -2.15368 3.82771 0
M  V30 2182 H 201.228 -0.528163 4.22008 0
M  V30 2183 N 199.544 -1.57102 0.125237 0
M  V30 2184 C 200.79 -1.95697 -0.532035 0
M  V30 2185 C 201.123 -1.009 -1.6593 0
M  V30 2186 O 200.398 -0.047347 -1.94442 0
M  V30 2187 C 200.681 -3.44181 -1.05884 0
M  V30 2188 C 200.534 -4.49752 0.0654392 0
M  V30 2189 C 201.853 -3.94655 -1.9477 0
M  V30 2190 H 198.972 -0.711571 -0.191925 0
M  V30 2191 H 201.614 -1.88923 0.20206 0
M  V30 2192 H 199.764 -3.50085 -1.68442 0
M  V30 2193 H 201.436 -4.55943 0.700982 0
M  V30 2194 H 199.679 -4.27653 0.727709 0
M  V30 2195 H 200.35 -5.50924 -0.344505 0
M  V30 2196 H 202.826 -3.91094 -1.42074 0
M  V30 2197 H 201.702 -4.99057 -2.28546 0
M  V30 2198 H 201.963 -3.35718 -2.87656 0
M  V30 2199 N 201.022 0.148545 -1.56898 0
M  V30 2200 C 202.268 0.857877 -1.84424 0
M  V30 2201 C 202.623 1.7886 -0.709006 0
M  V30 2202 O 201.916 1.89344 0.293139 0
M  V30 2203 C 202.11 1.67064 -3.1595 0
M  V30 2204 C 201.939 0.82011 -4.42159 0
M  V30 2205 C 200.709 0.486328 -5.02954 0
M  V30 2206 C 202.907 0.151155 -5.14078 0
M  V30 2207 N 200.889 -0.377956 -6.12735 0
M  V30 2208 C 202.26 -0.573333 -6.17343 0
M  V30 2209 C 204.315 0.0716685 -4.97848 0
M  V30 2210 C 203.018 -1.3698 -7.06137 0
M  V30 2211 C 205.044 -0.711532 -5.87104 0
M  V30 2212 C 204.406 -1.42431 -6.8985 0
M  V30 2213 H 200.505 0.291798 -0.725519 0
M  V30 2214 H 203.089 0.123347 -1.94309 0
M  V30 2215 H 201.26 2.37642 -3.07215 0
M  V30 2216 H 202.992 2.32302 -3.31388 0
M  V30 2217 H 199.747 0.821753 -4.66416 0
M  V30 2218 H 200.171 -0.801077 -6.72244 0
M  V30 2219 H 204.813 0.608381 -4.184 0
M  V30 2220 H 202.531 -1.91778 -7.85014 0
M  V30 2221 H 206.117 -0.775005 -5.76615 0
M  V30 2222 H 204.997 -2.02061 -7.57721 0
M  V30 2223 N 202.5 1.5196 0.417844 0
M  V30 2224 C 203.43 1.77634 1.51554 0
M  V30 2225 C 204.411 0.626918 1.58126 0
M  V30 2226 O 205.596 0.871632 1.7354 0
M  V30 2227 C 202.726 1.91911 2.8946 0
M  V30 2228 C 201.68 3.07463 2.97743 0
M  V30 2229 C 201.006 3.06951 4.37819 0
M  V30 2230 C 202.306 4.47082 2.70027 0
M  V30 2231 H 204 2.6955 1.3032 0
M  V30 2232 H 201.546 1.29706 0.625492 0
M  V30 2233 H 203.499 2.08455 3.6623 0
M  V30 2234 H 202.223 0.966598 3.11969 0
M  V30 2235 H 200.882 2.90656 2.23416 0
M  V30 2236 H 200.53 2.09438 4.57323 0
M  V30 2237 H 200.23 3.84556 4.44286 0
M  V30 2238 H 201.754 3.25613 5.16535 0
M  V30 2239 H 203.168 4.6414 3.36522 0
M  V30 2240 H 201.565 5.2654 2.87881 0
M  V30 2241 H 202.635 4.55777 1.65514 0
M  V30 2242 N 203.978 -0.674533 1.42435 0
M  V30 2243 C 205.227 -1.43034 1.42212 0
M  V30 2244 C 205.54 -1.95555 0.0420788 0
M  V30 2245 O 206.746 -2.71374 -0.0827558 0
M  V30 2246 C 205.202 -2.58748 2.50155 0
M  V30 2247 C 204.81 -2.12925 3.94166 0
M  V30 2248 C 206.554 -3.36257 2.59098 0
M  V30 2249 C 204.461 -3.25723 4.93618 0
M  V30 2250 H 203.391 -0.537345 0.528939 0
M  V30 2251 H 206.042 -0.73024 1.68344 0
M  V30 2252 H 204.424 -3.31128 2.17188 0
M  V30 2253 H 205.598 -1.47697 4.36488 0
M  V30 2254 H 203.913 -1.48354 3.89076 0
M  V30 2255 H 206.51 -4.20264 3.30578 0
M  V30 2256 H 206.853 -3.82866 1.63461 0
M  V30 2257 H 207.386 -2.70947 2.9126 0
M  V30 2258 H 204.125 -2.84105 5.90732 0
M  V30 2259 H 203.645 -3.89732 4.55926 0
M  V30 2260 H 205.324 -3.91186 5.15347 0
M  V30 2261 N 205.456 -1.28612 -0.910864 0
M  V30 2262 C 206.419 -1.12803 -1.9952 0
M  V30 2263 C 207.419 -0.0668264 -1.60661 0
M  V30 2264 O 208.609 -0.312847 -1.71368 0
M  V30 2265 C 205.741 -0.72254 -3.33155 0
M  V30 2266 H 206.934 -2.09109 -2.14973 0
M  V30 2267 H 204.487 -1.11639 -1.09391 0
M  V30 2268 H 205.222 0.241152 -3.23402 0
M  V30 2269 H 205.007 -1.48916 -3.62721 0
M  V30 2270 H 206.497 -0.634666 -4.12749 0
M  V30 2271 N 206.934 1.1197 -1.10907 0
M  V30 2272 C 207.897 2.16031 -0.765707 0
M  V30 2273 C 208.897 1.59393 0.212235 0
M  V30 2274 O 210.087 1.74196 -0.0115441 0
M  V30 2275 C 207.219 3.40632 -0.135053 0
M  V30 2276 H 208.412 2.47919 -1.68748 0
M  V30 2277 H 205.965 1.27061 -0.910226 0
M  V30 2278 H 206.7 3.14348 0.797218 0
M  V30 2279 H 206.485 3.8302 -0.838937 0
M  V30 2280 H 207.975 4.17505 0.0892469 0
M  V30 2281 N 208.412 0.89855 1.29475 0
M  V30 2282 C 209.658 0.524658 1.95896 0
M  V30 2283 C 209.991 -0.926468 1.70676 0
M  V30 2284 O 209.266 -1.65665 1.01908 0
M  V30 2285 C 209.549 0.81633 3.50725 0
M  V30 2286 C 209.402 2.31907 3.85408 0
M  V30 2287 C 210.721 0.302038 4.39062 0
M  V30 2288 H 207.84 0.19209 0.711527 0
M  V30 2289 H 210.482 1.12502 1.53112 0
M  V30 2290 H 208.632 0.305369 3.87298 0
M  V30 2291 H 210.304 2.89949 3.58786 0
M  V30 2292 H 208.547 2.78027 3.32992 0
M  V30 2293 H 209.218 2.47373 4.93468 0
M  V30 2294 H 211.694 0.739551 4.09475 0
M  V30 2295 H 210.57 0.535331 5.46283 0
M  V30 2296 H 210.831 -0.797216 4.34853 0
M  V30 2297 N 209.89 -1.43072 0.660911 0
M  V30 2298 C 211.139 -2.00942 0.174735 0
M  V30 2299 C 211.452 -1.52797 -1.22117 0
M  V30 2300 O 212.658 -2.02991 -1.80297 0
M  V30 2301 C 211.114 -3.58948 0.261559 0
M  V30 2302 C 210.722 -4.16085 1.66064 0
M  V30 2303 C 212.466 -4.24173 -0.166617 0
M  V30 2304 C 210.373 -5.6641 1.70098 0
M  V30 2305 H 209.303 -0.751483 0.0615631 0
M  V30 2306 H 211.954 -1.63955 0.824069 0
M  V30 2307 H 210.336 -3.93372 -0.455421 0
M  V30 2308 H 211.51 -3.93147 2.40359 0
M  V30 2309 H 209.825 -3.6326 2.03546 0
M  V30 2310 H 212.422 -5.34471 -0.156433 0
M  V30 2311 H 212.765 -3.98647 -1.19943 0
M  V30 2312 H 213.298 -3.94659 0.498875 0
M  V30 2313 H 210.037 -5.96715 2.71315 0
M  V30 2314 H 209.557 -5.91382 1.00139 0
M  V30 2315 H 211.236 -6.30585 1.44816 0
M  V30 2316 N 211.368 -0.403325 -1.52352 0
M  V30 2317 C 212.593 0.176499 -2.06648 0
M  V30 2318 C 213.018 1.38577 -1.27193 0
M  V30 2319 O 212.376 1.7879 -0.300637 0
M  V30 2320 C 212.424 0.511061 -3.5696 0
M  V30 2321 O 211.528 1.60294 -3.79973 0
M  V30 2322 H 210.869 0.0167337 -0.663789 0
M  V30 2323 H 213.399 -0.574848 -1.96359 0
M  V30 2324 H 213.409 0.771362 -4.00642 0
M  V30 2325 H 212.084 -0.37296 -4.14224 0
M  V30 2326 H 210.661 1.33526 -3.48174 0
M  V30 2327 N 212.846 1.57033 -0.133567 0
M  V30 2328 C 213.776 2.1909 0.807567 0
M  V30 2329 C 214.757 1.13517 1.26681 0
M  V30 2330 O 215.942 1.41809 1.32679 0
M  V30 2331 C 213.072 2.80188 2.05212 0
M  V30 2332 C 212.026 3.91471 1.73015 0
M  V30 2333 C 211.352 4.39443 3.04622 0
M  V30 2334 C 212.652 5.12886 0.987168 0
M  V30 2335 H 214.346 2.97988 0.290403 0
M  V30 2336 H 211.892 1.43335 0.138239 0
M  V30 2337 H 213.845 3.22264 2.71521 0
M  V30 2338 H 212.569 1.98601 2.59278 0
M  V30 2339 H 211.228 3.49993 1.0909 0
M  V30 2340 H 210.876 3.54695 3.56651 0
M  V30 2341 H 210.576 5.14495 2.83847 0
M  V30 2342 H 212.1 4.8418 3.72024 0
M  V30 2343 H 213.514 5.51891 1.55208 0
M  V30 2344 H 211.911 5.93615 0.87985 0
M  V30 2345 H 212.981 4.84894 -0.0235286 0
M  V30 2346 N 214.325 -0.140222 1.56975 0
M  V30 2347 C 215.736 -0.699596 1.73097 0
M  V30 2348 C 216.087 -1.8134 0.749022 0
M  V30 2349 O 215.212 -2.16241 -0.0828503 0
M  V30 2350 C 215.807 -1.27582 3.1386 0
M  V30 2351 C 214.366 -1.78169 3.31561 0
M  V30 2352 C 213.513 -0.672855 2.69013 0
M  V30 2353 H 216.464 0.0855115 1.58469 0
M  V30 2354 H 216.485 -2.14561 3.14235 0
M  V30 2355 H 215.997 -0.464955 3.85305 0
M  V30 2356 H 214.098 -2.61801 2.65124 0
M  V30 2357 H 214.211 -1.90574 4.39566 0
M  V30 2358 H 212.575 -1.10118 2.29665 0
M  V30 2359 H 213.358 0.126679 3.43066 0
M  V30 2360 N 215.803 -1.52179 -0.40978 0
M  V30 2361 C 217.214 -1.58377 -0.988615 0
M  V30 2362 C 217.565 -0.423879 -1.91566 0
M  V30 2363 O 216.69 0.455844 -2.11544 0
M  V30 2364 C 217.285 -2.87044 -1.79976 0
M  V30 2365 C 215.844 -2.95722 -2.32863 0
M  V30 2366 C 214.991 -2.53309 -1.12828 0
M  V30 2367 H 217.942 -1.57558 -0.190039 0
M  V30 2368 H 217.963 -2.7236 -2.65707 0
M  V30 2369 H 217.475 -3.71444 -1.12478 0
M  V30 2370 H 215.576 -2.15814 -3.03735 0
M  V30 2371 H 215.689 -3.99951 -2.63773 0
M  V30 2372 H 214.053 -2.07142 -1.48204 0
M  V30 2373 H 214.836 -3.40082 -0.46897 0
M  V30 2374 N 217.281 0.66697 -1.42791 0
M  V30 2375 C 218.211 1.79218 -1.49677 0
M  V30 2376 C 219.192 1.66405 -0.352623 0
M  V30 2377 O 220.377 1.85708 -0.567993 0
M  V30 2378 C 217.507 3.17565 -1.40605 0
M  V30 2379 C 216.461 3.45124 -2.53127 0
M  V30 2380 C 215.787 4.83127 -2.29112 0
M  V30 2381 C 217.087 3.41236 -3.95418 0
M  V30 2382 H 218.781 1.73713 -2.43853 0
M  V30 2383 H 216.327 0.83432 -1.17367 0
M  V30 2384 H 218.28 3.96022 -1.44029 0
M  V30 2385 H 217.004 3.23767 -0.429271 0
M  V30 2386 H 215.663 2.69031 -2.49034 0
M  V30 2387 H 215.311 4.85988 -1.29709 0
M  V30 2388 H 215.011 5.02528 -3.04531 0
M  V30 2389 H 216.535 5.63859 -2.34297 0
M  V30 2390 H 217.949 4.09651 -4.01073 0
M  V30 2391 H 216.346 3.72173 -4.70752 0
M  V30 2392 H 217.416 2.39665 -4.21532 0
M  V30 2393 N 218.759 1.29093 0.90403 0
M  V30 2394 C 220.008 1.16187 1.64874 0
M  V30 2395 C 220.321 -0.286742 1.93487 0
M  V30 2396 O 221.527 -0.537062 2.66135 0
M  V30 2397 C 219.983 2.03177 2.97064 0
M  V30 2398 C 219.591 3.52836 2.76062 0
M  V30 2399 C 221.335 1.98984 3.74974 0
M  V30 2400 C 219.242 4.31945 4.03952 0
M  V30 2401 H 218.172 0.431246 0.618501 0
M  V30 2402 H 220.823 1.53699 1.00243 0
M  V30 2403 H 219.205 1.5853 3.62883 0
M  V30 2404 H 220.379 4.05507 2.18863 0
M  V30 2405 H 218.694 3.58656 2.11553 0
M  V30 2406 H 221.291 2.55351 4.69787 0
M  V30 2407 H 221.634 0.968815 4.0487 0
M  V30 2408 H 222.167 2.41652 3.15989 0
M  V30 2409 H 218.906 5.34667 3.79225 0
M  V30 2410 H 218.426 3.84045 4.60727 0
M  V30 2411 H 220.105 4.42379 4.72133 0
M  V30 2412 N 220.237 -1.11381 1.11499 0
M  V30 2413 C 221.467 -1.86663 0.885464 0
M  V30 2414 C 221.875 -1.80464 -0.568281 0
M  V30 2415 O 221.218 -1.18445 -1.40415 0
M  V30 2416 C 221.28 -3.36337 1.26956 0
M  V30 2417 C 220.944 -3.66304 2.73259 0
M  V30 2418 C 221.941 -3.63733 3.71476 0
M  V30 2419 C 219.626 -3.9529 3.09921 0
M  V30 2420 C 221.62 -3.89725 5.04374 0
M  V30 2421 C 219.307 -4.20941 4.43004 0
M  V30 2422 C 220.305 -4.18147 5.40039 0
M  V30 2423 O 219.993 -4.43153 6.70724 0
M  V30 2424 H 219.725 -0.597114 0.316908 0
M  V30 2425 H 222.279 -1.41782 1.48617 0
M  V30 2426 H 220.509 -3.81826 0.611999 0
M  V30 2427 H 222.198 -3.92986 1.01573 0
M  V30 2428 H 222.964 -3.41389 3.44498 0
M  V30 2429 H 218.843 -3.966 2.35009 0
M  V30 2430 H 222.387 -3.8746 5.80104 0
M  V30 2431 H 218.284 -4.42761 4.69716 0
M  V30 2432 H 219.052 -4.60717 6.76522 0
M  V30 2433 N 221.715 -0.905404 -1.28997 0
M  V30 2434 C 222.662 -0.385892 -2.27551 0
M  V30 2435 C 223.632 0.535113 -1.57244 0
M  V30 2436 O 224.817 0.459119 -1.85194 0
M  V30 2437 C 221.957 0.375461 -3.43051 0
M  V30 2438 C 221.07 -0.577092 -4.28128 0
M  V30 2439 C 220.205 0.201879 -5.30816 0
M  V30 2440 C 219.244 -0.744829 -6.07551 0
M  V30 2441 N 218.381 9.42587e-05 -7.021 0
M  V30 2442 H 223.221 -1.23139 -2.71368 0
M  V30 2443 H 220.758 -0.618542 -1.33463 0
M  V30 2444 H 222.716 0.832992 -4.088 0
M  V30 2445 H 221.346 1.18537 -3.00248 0
M  V30 2446 H 220.398 -1.15315 -3.62501 0
M  V30 2447 H 221.71 -1.30152 -4.8152 0
M  V30 2448 H 220.864 0.720351 -6.02408 0
M  V30 2449 H 219.603 0.959413 -4.7817 0
M  V30 2450 H 218.608 -1.27475 -5.34818 0
M  V30 2451 H 219.833 -1.50178 -6.62286 0
M  V30 2452 H 217.779 0.739791 -6.51815 0
M  V30 2453 H 217.696 -0.664321 -7.53076 0
M  V30 2454 H 218.964 0.498644 -7.77903 0
M  V30 2455 N 223.193 1.4272 -0.668489 0
M  V30 2456 C 224.441 2.01226 -0.187769 0
M  V30 2457 C 224.762 1.53092 1.2078 0
M  V30 2458 O 224.032 0.74993 1.80977 0
M  V30 2459 H 222.612 0.744041 -0.0664272 0
M  V30 2460 H 225.274 1.74723 -0.863583 0
M  V30 2461 H 224.37 3.11556 -0.184166 0
M  V30 2462 N 224.671 0.411399 1.52136 0
M  V30 2463 C 225.948 -0.222308 1.94333 0
M  V30 2464 C 226.328 -1.6242 1.34844 0
M  V30 2465 O 225.676 -2.22384 0.525145 0
M  V30 2466 C 225.886 -0.226345 3.48265 0
M  V30 2467 C 227.234 -0.444592 4.22266 0
M  V30 2468 O 228.258 -0.305602 3.54887 0
M  V30 2469 O 227.117 -0.718749 5.41753 0
M  V30 2470 H 224.211 -0.143907 0.814383 0
M  V30 2471 H 226.757 0.467506 1.63133 0
M  V30 2472 H 225.529 0.75475 3.83952 0
M  V30 2473 H 225.152 -0.960163 3.85832 0
M  V30 2474 N 226.149 -1.5696 0.141893 0
M  V30 2475 C 227.081 -2.13619 -0.830627 0
M  V30 2476 C 228.094 -1.08439 -1.21428 0
M  V30 2477 O 229.283 -1.35734 -1.15925 0
M  V30 2478 C 226.383 -2.63978 -2.12529 0
M  V30 2479 C 225.556 -3.93504 -1.9098 0
M  V30 2480 C 224.615 -4.29225 -3.04388 0
M  V30 2481 O 223.641 -4.97641 -2.76302 0
M  V30 2482 N 224.843 -3.88393 -4.31429 0
M  V30 2483 H 227.608 -2.97691 -0.34641 0
M  V30 2484 H 225.169 -1.61846 -0.0418375 0
M  V30 2485 H 227.161 -2.84891 -2.87436 0
M  V30 2486 H 225.731 -1.84659 -2.52229 0
M  V30 2487 H 224.951 -3.81269 -1.00139 0
M  V30 2488 H 226.239 -4.78154 -1.73914 0
M  V30 2489 H 225.637 -3.33257 -4.57117 0
M  V30 2490 H 224.194 -4.14368 -5.03133 0
M  V30 2491 N 227.627 0.131896 -1.57047 0
M  V30 2492 C 228.875 0.840269 -1.83804 0
M  V30 2493 C 229.196 1.81017 -0.72512 0
M  V30 2494 O 228.466 1.94272 0.251995 0
M  V30 2495 H 227.046 0.313294 -0.678127 0
M  V30 2496 H 229.708 0.122294 -1.94516 0
M  V30 2497 H 228.804 1.39335 -2.79271 0
M  V30 2498 N 229.106 1.52395 0.401703 0
M  V30 2499 C 230.517 1.58899 0.980202 0
M  V30 2500 C 230.868 0.434032 1.91339 0
M  V30 2501 O 229.993 -0.444619 2.11783 0
M  V30 2502 C 230.588 2.87994 1.78451 0
M  V30 2503 C 229.147 2.96953 2.31292 0
M  V30 2504 C 228.294 2.53903 1.11483 0
M  V30 2505 H 231.245 1.57657 0.18168 0
M  V30 2506 H 231.266 2.73765 2.64259 0
M  V30 2507 H 230.778 3.72035 1.10506 0
M  V30 2508 H 228.879 2.17422 3.02586 0
M  V30 2509 H 228.992 4.01344 2.61649 0
M  V30 2510 H 227.356 2.07925 1.47104 0
M  V30 2511 H 228.139 3.40326 0.450928 0
M  V30 2512 N 230.584 -0.659388 1.43143 0
M  V30 2513 C 231.516 -1.7849 1.43784 0
M  V30 2514 C 232.529 -1.5932 0.334787 0
M  V30 2515 O 233.718 -1.68155 0.598842 0
M  V30 2516 C 230.818 -3.15828 1.22906 0
M  V30 2517 C 229.991 -3.61711 2.45934 0
M  V30 2518 C 229.05 -4.77831 2.20371 0
M  V30 2519 O 228.076 -4.87586 2.93681 0
M  V30 2520 N 229.278 -5.67611 1.21647 0
M  V30 2521 H 232.043 -1.7842 2.40803 0
M  V30 2522 H 229.604 -0.84302 1.3822 0
M  V30 2523 H 231.596 -3.91189 1.03697 0
M  V30 2524 H 230.166 -3.10707 0.343542 0
M  V30 2525 H 229.386 -2.76861 2.80609 0
M  V30 2526 H 230.674 -3.89112 3.27825 0
M  V30 2527 H 230.072 -5.62397 0.610449 0
M  V30 2528 H 228.629 -6.42719 1.08423 0
M  V30 2529 N 232.062 -1.29571 -0.897171 0
M  V30 2530 C 233.473 -1.15964 -1.46319 0
M  V30 2531 C 233.824 0.244267 -1.94674 0
M  V30 2532 O 232.949 1.13998 -1.83939 0
M  V30 2533 C 233.544 -2.09906 -2.65942 0
M  V30 2534 C 232.103 -2.00314 -3.18671 0
M  V30 2535 C 231.25 -2.00687 -1.91363 0
M  V30 2536 H 234.201 -1.42019 -0.708268 0
M  V30 2537 H 234.222 -1.67276 -3.41759 0
M  V30 2538 H 233.734 -3.12075 -2.30718 0
M  V30 2539 H 231.835 -1.01242 -3.58582 0
M  V30 2540 H 231.948 -2.88102 -3.82798 0
M  V30 2541 H 230.312 -1.45319 -2.09175 0
M  V30 2542 H 231.095 -3.04566 -1.58413 0
M  V30 2543 N 233.54 1.10788 -1.12088 0
M  V30 2544 C 234.956 1.34691 -0.856186 0
M  V30 2545 C 235.156 1.94791 0.515615 0
M  V30 2546 O 234.212 2.18524 1.26505 0
M  V30 2547 C 235.525 2.27208 -1.9697 0
M  V30 2548 C 237.073 2.40755 -2.00016 0
M  V30 2549 C 237.548 3.36598 -3.1059 0
M  V30 2550 N 239.039 3.44164 -3.10008 0
M  V30 2551 C 239.774 4.18284 -3.92206 0
M  V30 2552 N 239.27 4.95322 -4.84384 0
M  V30 2553 N 241.063 4.13865 -3.80357 0
M  V30 2554 H 233.214 0.70144 -2.00483 0
M  V30 2555 H 235.477 0.371405 -0.872217 0
M  V30 2556 H 235.183 1.90251 -2.958 0
M  V30 2557 H 235.057 3.27485 -1.87172 0
M  V30 2558 H 237.444 2.76982 -1.01808 0
M  V30 2559 H 237.525 1.40305 -2.13888 0
M  V30 2560 H 237.169 3.01096 -4.09028 0
M  V30 2561 H 237.099 4.36918 -2.93956 0
M  V30 2562 H 239.59 2.8922 -2.43228 0
M  V30 2563 H 239.903 5.49267 -5.43623 0
M  V30 2564 H 238.248 4.94459 -4.884 0
M  V30 2565 H 241.439 3.52773 -3.07683 0
M  V30 2566 H 241.612 4.71372 -4.44649 0
M  V30 2567 N 235.018 0.912232 1.28515 0
M  V30 2568 C 236.266 0.543523 1.94654 0
M  V30 2569 C 236.587 -0.9155 1.72173 0
M  V30 2570 O 235.857 -1.64708 1.06058 0
M  V30 2571 H 234.437 0.198017 0.720277 0
M  V30 2572 H 237.099 1.16126 1.56527 0
M  V30 2573 H 236.195 0.736684 3.03281 0
M  V30 2574 N 236.496 -1.42363 0.676048 0
M  V30 2575 C 237.912 -1.55811 0.345718 0
M  V30 2576 C 238.112 -1.65544 -1.14879 0
M  V30 2577 O 237.168 -1.62306 -1.93424 0
M  V30 2578 C 238.481 -2.80746 1.07713 0
M  V30 2579 C 240.029 -2.9452 1.05958 0
M  V30 2580 C 240.504 -4.22318 1.77233 0
M  V30 2581 N 241.995 -4.29233 1.74108 0
M  V30 2582 C 242.73 -5.26935 2.26113 0
M  V30 2583 N 242.226 -6.30783 2.86505 0
M  V30 2584 N 244.019 -5.18741 2.1648 0
M  V30 2585 H 236.17 -1.34289 1.6456 0
M  V30 2586 H 238.433 -0.646506 0.69335 0
M  V30 2587 H 238.139 -2.79696 2.13221 0
M  V30 2588 H 238.013 -3.71676 0.64316 0
M  V30 2589 H 240.4 -2.95097 0.0128255 0
M  V30 2590 H 240.481 -2.04817 1.53244 0
M  V30 2591 H 240.125 -4.22502 2.81877 0
M  V30 2592 H 240.055 -5.10958 1.27396 0
M  V30 2593 H 242.546 -3.54814 1.30059 0
M  V30 2594 H 242.859 -7.01691 3.23805 0
M  V30 2595 H 241.204 -6.31341 2.90575 0
M  V30 2596 H 244.395 -4.36533 1.68987 0
M  V30 2597 H 244.568 -5.94721 2.57316 0
M  V30 2598 N 237.974 -0.419461 -1.51915 0
M  V30 2599 C 239.385 0.0477853 -1.86639 0
M  V30 2600 C 239.736 1.43531 -1.33766 0
M  V30 2601 O 238.861 2.05401 -0.68113 0
M  V30 2602 C 239.456 0.0934885 -3.38671 0
M  V30 2603 C 238.015 0.505097 -3.72996 0
M  V30 2604 C 237.162 -0.313792 -2.75519 0
M  V30 2605 H 240.113 -0.636088 -1.45395 0
M  V30 2606 H 240.134 0.906667 -3.6954 0
M  V30 2607 H 239.646 -0.916501 -3.77123 0
M  V30 2608 H 237.747 1.52135 -3.40126 0
M  V30 2609 H 237.86 0.242309 -4.78487 0
M  V30 2610 H 236.224 0.225363 -2.53701 0
M  V30 2611 H 237.007 -1.32232 -3.16812 0
M  V30 2612 N 239.452 1.56882 -0.150215 0
M  V30 2613 C 240.384 2.14057 0.819286 0
M  V30 2614 C 241.397 1.09082 1.20851 0
M  V30 2615 O 242.586 1.36347 1.15203 0
M  V30 2616 C 239.686 2.65102 2.11127 0
M  V30 2617 C 238.859 3.94511 1.88891 0
M  V30 2618 C 237.918 4.30834 3.02107 0
M  V30 2619 O 236.944 4.99099 2.73659 0
M  V30 2620 N 238.146 3.90676 4.29363 0
M  V30 2621 H 240.911 2.97871 0.330618 0
M  V30 2622 H 238.472 1.61866 0.0332538 0
M  V30 2623 H 240.464 2.86411 2.85921 0
M  V30 2624 H 239.034 1.85994 2.51247 0
M  V30 2625 H 238.254 3.81795 0.981152 0
M  V30 2626 H 239.542 4.7907 1.71376 0
M  V30 2627 H 238.94 3.35677 4.55343 0
M  V30 2628 H 237.497 4.1703 5.00928 0
M  V30 2629 N 240.93 -0.123565 1.57115 0
M  V30 2630 C 242.17 -0.838097 1.86428 0
M  V30 2631 C 242.534 -1.77266 0.737611 0
M  V30 2632 O 243.735 -2.52842 0.912389 0
M  V30 2633 C 242.006 -1.57219 3.20962 0
M  V30 2634 S 243.565 -2.32893 3.71896 0
M  V30 2635 H 240.383 -0.279811 0.653626 0
M  V30 2636 H 242.985 -0.0967034 1.95261 0
M  V30 2637 H 241.689 -0.877522 4.00909 0
M  V30 2638 H 241.22 -2.35405 3.15195 0
M  V30 2639 H 243.235 -3.5853 3.43032 0
M  V30 2640 N 242.408 -1.52605 -0.393616 0
M  V30 2641 C 243.355 -1.77055 -1.48054 0
M  V30 2642 C 244.325 -0.61358 -1.54352 0
M  V30 2643 O 245.51 -0.852806 -1.70681 0
M  V30 2644 C 242.65 -1.94108 -2.85335 0
M  V30 2645 C 241.763 -3.21792 -2.88226 0
M  V30 2646 C 240.898 -3.29188 -4.16904 0
M  V30 2647 C 239.937 -4.51013 -4.13828 0
M  V30 2648 N 239.074 -4.55716 -5.34105 0
M  V30 2649 H 243.914 -2.69815 -1.26506 0
M  V30 2650 H 241.451 -1.33683 -0.61379 0
M  V30 2651 H 243.409 -2.01979 -3.65049 0
M  V30 2652 H 242.039 -1.04713 -3.05344 0
M  V30 2653 H 241.091 -3.23015 -2.00911 0
M  V30 2654 H 242.403 -4.11557 -2.8182 0
M  V30 2655 H 241.557 -3.36216 -5.05018 0
M  V30 2656 H 240.296 -2.37389 -4.26026 0
M  V30 2657 H 239.301 -4.44115 -3.24102 0
M  V30 2658 H 240.526 -5.44123 -4.06333 0
M  V30 2659 H 238.472 -3.66807 -5.43865 0
M  V30 2660 H 238.389 -5.39346 -5.29756 0
M  V30 2661 H 239.657 -4.66993 -6.2413 0
M  V30 2662 N 243.887 0.651787 -1.4349 0
M  V30 2663 C 244.817 1.77621 -1.51569 0
M  V30 2664 C 245.798 1.66022 -0.370253 0
M  V30 2665 O 246.983 1.85095 -0.587658 0
M  V30 2666 C 244.113 3.16056 -1.43966 0
M  V30 2667 C 243.067 3.4242 -2.56774 0
M  V30 2668 C 242.393 4.8067 -2.34223 0
M  V30 2669 C 243.693 3.37023 -3.99015 0
M  V30 2670 H 245.387 1.71117 -2.45681 0
M  V30 2671 H 242.933 0.821825 -1.18246 0
M  V30 2672 H 244.886 3.94472 -1.48221 0
M  V30 2673 H 243.61 3.23293 -0.463586 0
M  V30 2674 H 242.269 2.66375 -2.51873 0
M  V30 2675 H 241.917 4.84585 -1.34856 0
M  V30 2676 H 241.617 4.9927 -3.09844 0
M  V30 2677 H 243.141 5.61342 -2.40265 0
M  V30 2678 H 244.555 4.05374 -4.05395 0
M  V30 2679 H 242.952 3.67159 -4.74673 0
M  V30 2680 H 244.022 2.3518 -4.2405 0
M  V30 2681 N 245.365 1.30045 0.890287 0
M  V30 2682 C 246.313 1.15873 2.01683 0
M  V30 2683 C 247.307 0.0719403 1.69247 0
M  V30 2684 O 248.513 0.232414 1.78493 0
M  V30 2685 H 244.888 0.358203 0.661207 0
M  V30 2686 H 246.859 2.11229 2.10772 0
M  V30 2687 C 245.608 0.861842 3.36849 0
M  V30 2688 H 244.931 1.69016 3.62317 0
M  V30 2689 H 246.371 0.802762 4.16331 0
M  V30 2690 C 244.83 -0.435132 3.34078 0
M  V30 2691 O 245.36 -1.4583 3.74295 0
M  V30 2692 N 243.566 -0.444377 2.87182 0
M  V30 2693 H 243.113 0.388723 2.5465 0
M  V30 2694 H 243.071 -1.31213 2.85711 0
M  V30 2695 N 246.843 -1.10192 1.12674 0
M  V30 2696 C 247.775 -2.16418 0.754701 0
M  V30 2697 C 248.788 -1.61309 -0.21986 0
M  V30 2698 O 249.977 -1.785 -0.000826841 0
M  V30 2699 C 247.077 -3.38762 0.096698 0
M  V30 2700 C 246.25 -4.23307 1.10136 0
M  V30 2701 C 245.309 -5.24092 0.470513 0
M  V30 2702 O 244.335 -5.57906 1.12824 0
M  V30 2703 N 245.537 -5.75491 -0.760948 0
M  V30 2704 H 248.302 -2.48943 1.66875 0
M  V30 2705 H 245.863 -1.25834 1.01869 0
M  V30 2706 H 247.855 -4.03291 -0.337384 0
M  V30 2707 H 246.425 -3.04192 -0.720153 0
M  V30 2708 H 245.645 -3.55036 1.71299 0
M  V30 2709 H 246.933 -4.76624 1.78064 0
M  V30 2710 H 246.331 -5.50222 -1.31424 0
M  V30 2711 H 244.888 -6.41792 -1.13781 0
M  V30 2712 N 248.321 -0.919034 -1.28029 0
M  V30 2713 C 249.231 -0.416756 -2.30869 0
M  V30 2714 C 250.247 0.498235 -1.66714 0
M  V30 2715 O 251.423 0.383144 -1.97722 0
M  V30 2716 C 248.488 0.330274 -3.45123 0
M  V30 2717 C 247.549 -0.618578 -4.2482 0
M  V30 2718 C 246.782 0.0928959 -5.33619 0
M  V30 2719 O 247.005 1.31375 -5.55065 0
M  V30 2720 O 245.939 -0.574499 -5.99152 0
M  V30 2721 H 249.765 -1.27043 -2.75851 0
M  V30 2722 H 247.35 -0.684052 -1.3282 0
M  V30 2723 H 249.232 0.751972 -4.14636 0
M  V30 2724 H 247.907 1.1597 -3.02213 0
M  V30 2725 H 246.814 -1.08978 -3.57875 0
M  V30 2726 H 248.147 -1.41497 -4.71423 0
M  V30 2727 N 249.799 1.42003 -0.683588 0
M  V30 2728 C 250.762 2.29191 -0.0198243 0
M  V30 2729 C 251.762 1.43773 0.72013 0
M  V30 2730 O 252.952 1.65061 0.556815 0
M  V30 2731 C 250.084 3.26435 0.982487 0
M  V30 2732 H 251.277 2.8938 -0.787345 0
M  V30 2733 H 248.83 1.49789 -0.446418 0
M  V30 2734 H 249.565 2.71203 1.77819 0
M  V30 2735 H 249.35 3.89449 0.455182 0
M  V30 2736 H 250.84 3.918 1.44508 0
M  V30 2737 N 251.277 0.427512 1.51691 0
M  V30 2738 C 252.523 -0.134744 2.02953 0
M  V30 2739 C 252.878 -1.41235 1.30654 0
M  V30 2740 O 252.171 -1.87168 0.409713 0
M  V30 2741 C 252.365 -0.418249 3.54944 0
M  V30 2742 C 252.194 0.830327 4.41968 0
M  V30 2743 C 250.964 1.36097 4.86627 0
M  V30 2744 C 253.162 1.7137 4.84909 0
M  V30 2745 N 251.144 2.56311 5.57833 0
M  V30 2746 C 252.515 2.76195 5.55082 0
M  V30 2747 C 254.57 1.72928 4.66905 0
M  V30 2748 C 253.273 3.82512 6.09161 0
M  V30 2749 C 255.299 2.78175 5.21894 0
M  V30 2750 C 254.661 3.8172 5.92004 0
M  V30 2751 H 250.76 -0.0103958 0.781931 0
M  V30 2752 H 253.344 0.585981 1.85673 0
M  V30 2753 H 251.515 -1.10801 3.7226 0
M  V30 2754 H 253.247 -0.970999 3.92879 0
M  V30 2755 H 250.002 0.916311 4.64651 0
M  V30 2756 H 250.426 3.17242 5.98069 0
M  V30 2757 H 255.068 0.942081 4.12171 0
M  V30 2758 H 252.786 4.62077 6.62956 0
M  V30 2759 H 256.372 2.8031 5.09821 0
M  V30 2760 H 255.252 4.61821 6.33791 0
M  V30 2761 N 252.755 -1.56801 0.158532 0
M  V30 2762 C 253.985 -2.00568 -0.495583 0
M  V30 2763 C 254.393 -1.03774 -1.58201 0
M  V30 2764 O 253.736 -0.0285797 -1.83678 0
M  V30 2765 C 253.798 -3.40768 -1.14532 0
M  V30 2766 C 253.462 -4.56553 -0.202101 0
M  V30 2767 C 254.459 -5.16714 0.574675 0
M  V30 2768 C 252.144 -5.02197 -0.101648 0
M  V30 2769 C 254.138 -6.20939 1.43924 0
M  V30 2770 C 251.825 -6.06274 0.766508 0
M  V30 2771 C 252.823 -6.65515 1.53555 0
M  V30 2772 O 252.511 -7.67575 2.38922 0
M  V30 2773 H 252.243 -0.662893 -0.13247 0
M  V30 2774 H 254.797 -2.03829 0.253559 0
M  V30 2775 H 253.027 -3.34381 -1.94233 0
M  V30 2776 H 254.716 -3.6857 -1.70033 0
M  V30 2777 H 255.482 -4.82341 0.507167 0
M  V30 2778 H 251.361 -4.55807 -0.689994 0
M  V30 2779 H 254.905 -6.67107 2.03996 0
M  V30 2780 H 250.802 -6.40073 0.835266 0
M  V30 2781 H 251.57 -7.84844 2.32296 0
M  V30 2782 N 254.233 0.115231 -1.57178 0
M  V30 2783 C 255.482 0.820945 -1.84237 0
M  V30 2784 C 255.795 1.80866 -0.744761 0
M  V30 2785 O 257.001 2.56083 -0.901871 0
M  V30 2786 C 255.457 1.51072 -3.26658 0
M  V30 2787 C 255.065 0.563795 -4.44438 0
M  V30 2788 C 256.809 2.20134 -3.62962 0
M  V30 2789 C 254.716 1.25701 -5.77887 0
M  V30 2790 H 253.646 0.310328 -0.687177 0
M  V30 2791 H 256.297 0.0737134 -1.83352 0
M  V30 2792 H 254.679 2.30471 -3.22024 0
M  V30 2793 H 255.853 -0.197247 -4.60378 0
M  V30 2794 H 254.168 -0.0200638 -4.16395 0
M  V30 2795 H 256.765 2.72696 -4.59936 0
M  V30 2796 H 257.108 2.98107 -2.90582 0
M  V30 2797 H 257.641 1.47619 -3.69396 0
M  V30 2798 H 254.38 0.518493 -6.53446 0
M  V30 2799 H 253.9 1.98997 -5.65827 0
M  V30 2800 H 255.579 1.78915 -6.2177 0
M  V30 2801 N 255.711 1.52812 0.385517 0
M  V30 2802 C 256.641 1.80808 1.47752 0
M  V30 2803 C 257.622 0.660318 1.5676 0
M  V30 2804 O 258.807 0.908246 1.71652 0
M  V30 2805 C 255.937 1.98008 2.85324 0
M  V30 2806 C 254.891 3.13709 2.91154 0
M  V30 2807 C 254.217 3.16169 4.31209 0
M  V30 2808 C 255.517 4.52709 2.60483 0
M  V30 2809 H 257.211 2.72253 1.24573 0
M  V30 2810 H 254.757 1.31003 0.597839 0
M  V30 2811 H 256.71 2.16176 3.61726 0
M  V30 2812 H 255.434 1.03255 3.09848 0
M  V30 2813 H 254.093 2.95329 2.17201 0
M  V30 2814 H 253.741 2.19092 4.52778 0
M  V30 2815 H 253.441 3.93894 4.36029 0
M  V30 2816 H 254.965 3.36496 5.09512 0
M  V30 2817 H 256.379 4.71173 3.26602 0
M  V30 2818 H 254.776 5.32528 2.76648 0
M  V30 2819 H 255.846 4.59186 1.55809 0
M  V30 2820 N 257.189 -0.644168 1.43834 0
M  V30 2821 C 258.152 -1.73857 1.49353 0
M  V30 2822 C 259.152 -1.56315 0.377112 0
M  V30 2823 O 260.342 -1.62048 0.639226 0
M  V30 2824 C 257.474 -3.12819 1.35488 0
M  V30 2825 H 258.667 -1.70342 2.46827 0
M  V30 2826 H 256.22 -0.856652 1.30733 0
M  V30 2827 H 256.955 -3.2194 0.390569 0
M  V30 2828 H 256.74 -3.26958 2.16428 0
M  V30 2829 H 258.23 -3.92606 1.42302 0
M  V30 2830 N 258.668 -1.30515 -0.883378 0
M  V30 2831 C 259.893 -1.22487 -1.67367 0
M  V30 2832 C 260.318 0.208767 -1.86938 0
M  V30 2833 O 259.676 1.15015 -1.40148 0
M  V30 2834 C 259.724 -1.96041 -3.02655 0
M  V30 2835 O 258.828 -1.28859 -3.91751 0
M  V30 2836 H 258.169 -0.423573 -0.511353 0
M  V30 2837 H 260.699 -1.72362 -1.10239 0
M  V30 2838 H 260.709 -2.05124 -3.52687 0
M  V30 2839 H 259.384 -3.00307 -2.8773 0
M  V30 2840 H 257.961 -1.28141 -3.50192 0
M  V30 2841 N 260.146 1.09593 -1.13257 0
M  V30 2842 C 261.371 1.8604 -0.916732 0
M  V30 2843 C 261.796 1.80504 0.529146 0
M  V30 2844 O 261.154 1.18127 1.37534 0
M  V30 2845 C 261.202 3.32017 -1.40703 0
M  V30 2846 O 260.306 4.08141 -0.591153 0
M  V30 2847 H 259.647 0.576943 -0.328683 0
M  V30 2848 H 262.177 1.38405 -1.50682 0
M  V30 2849 H 262.187 3.82865 -1.4099 0
M  V30 2850 H 260.862 3.35361 -2.45979 0
M  V30 2851 H 259.439 3.67084 -0.656005 0
M  V30 2852 N 261.624 0.925811 1.2754 0
M  V30 2853 C 262.873 0.561084 1.93739 0
M  V30 2854 C 263.186 -0.901685 1.73577 0
M  V30 2855 O 264.392 -1.37511 2.34101 0
M  V30 2856 C 262.848 0.952668 3.47062 0
M  V30 2857 C 262.456 2.43599 3.75983 0
M  V30 2858 C 264.2 0.659103 4.19352 0
M  V30 2859 C 262.107 2.76707 5.22673 0
M  V30 2860 H 261.037 0.206122 0.725279 0
M  V30 2861 H 263.688 1.12637 1.44863 0
M  V30 2862 H 262.07 0.316053 3.94737 0
M  V30 2863 H 263.244 3.12035 3.39073 0
M  V30 2864 H 261.559 2.70125 3.16893 0
M  V30 2865 H 264.156 0.882985 5.27359 0
M  V30 2866 H 264.499 -0.403607 4.14339 0
M  V30 2867 H 265.032 1.25473 3.77494 0
M  V30 2868 H 261.771 3.8188 5.32774 0
M  V30 2869 H 261.291 2.12919 5.60737 0
M  V30 2870 H 262.97 2.6435 5.90532 0
M  V30 2871 N 263.102 -1.41638 0.69111 0
M  V30 2872 C 264.35 -2.00902 0.219758 0
M  V30 2873 C 264.671 -1.54994 -1.18329 0
M  V30 2874 O 263.941 -0.778628 -1.79762 0
M  V30 2875 H 262.521 -0.74289 0.0782558 0
M  V30 2876 H 265.183 -1.73327 0.891271 0
M  V30 2877 H 264.279 -3.11224 0.233708 0
M  V30 2878 N 264.58 -0.43555 -1.51462 0
M  V30 2879 C 265.805 0.132627 -2.06976 0
M  V30 2880 C 266.23 1.35848 -1.30104 0
M  V30 2881 O 265.588 1.78112 -0.338493 0
M  V30 2882 C 265.636 0.43523 -3.57964 0
M  V30 2883 O 264.74 1.52198 -3.83288 0
M  V30 2884 H 264.081 0.00265 -0.663995 0
M  V30 2885 H 266.611 -0.616369 -1.95095 0
M  V30 2886 H 266.621 0.686206 -4.02188 0
M  V30 2887 H 265.296 -0.460739 -4.1334 0
M  V30 2888 H 263.873 1.2611 -3.50928 0
M  V30 2889 N 266.058 1.56714 -0.166846 0
M  V30 2890 C 267.305 1.96747 0.479252 0
M  V30 2891 C 267.633 1.05263 1.63554 0
M  V30 2892 O 266.888 0.0858098 1.95512 0
M  V30 2893 C 267.187 3.42889 1.00806 0
M  V30 2894 C 266.853 4.50889 -0.0318574 0
M  V30 2895 C 265.515 4.8015 -0.317675 0
M  V30 2896 C 267.867 5.15949 -0.737956 0
M  V30 2897 C 265.195 5.71772 -1.31506 0
M  V30 2898 C 267.547 6.08647 -1.72429 0
M  V30 2899 C 266.211 6.36277 -2.0176 0
M  V30 2900 H 265.481 0.719949 0.175371 0
M  V30 2901 H 268.128 1.89756 -0.257864 0
M  V30 2902 H 266.433 3.4681 1.82291 0
M  V30 2903 H 268.13 3.71203 1.51689 0
M  V30 2904 H 264.72 4.28128 0.201088 0
M  V30 2905 H 268.904 4.93458 -0.530351 0
M  V30 2906 H 264.16 5.91465 -1.54853 0
M  V30 2907 H 268.334 6.58129 -2.27682 0
M  V30 2908 H 265.961 7.07075 -2.79194 0
M  V30 2909 N 267.536 -0.106894 1.57237 0
M  V30 2910 C 268.783 -0.812526 1.85484 0
M  V30 2911 C 269.111 -1.79304 0.753687 0
M  V30 2912 O 268.366 -1.94047 -0.253853 0
M  V30 2913 C 268.665 -1.58628 3.20268 0
M  V30 2914 C 268.331 -0.748967 4.44636 0
M  V30 2915 C 266.993 -0.518104 4.78403 0
M  V30 2916 C 269.345 -0.166122 5.20935 0
M  V30 2917 C 266.673 0.305659 5.85903 0
M  V30 2918 C 269.025 0.644899 6.29304 0
M  V30 2919 C 267.689 0.885965 6.61594 0
M  V30 2920 H 266.959 -0.297324 0.678734 0
M  V30 2921 H 269.606 -0.0744332 1.91355 0
M  V30 2922 H 267.911 -2.39562 3.10028 0
M  V30 2923 H 269.608 -2.13643 3.39349 0
M  V30 2924 H 266.198 -0.939006 4.18187 0
M  V30 2925 H 270.382 -0.33167 4.95191 0
M  V30 2926 H 265.638 0.501528 6.0934 0
M  V30 2927 H 269.812 1.10345 6.87602 0
M  V30 2928 H 267.439 1.52609 7.44725 0
M  V30 2929 N 269.014 -1.53014 -0.377408 0
M  V30 2930 C 269.977 -1.77957 -1.44444 0
M  V30 2931 C 270.977 -0.649763 -1.47087 0
M  V30 2932 O 272.167 -0.917897 -1.48055 0
M  V30 2933 C 269.299 -1.89089 -2.83651 0
M  V30 2934 H 270.492 -2.73243 -1.23606 0
M  V30 2935 H 268.045 -1.43912 -0.609844 0
M  V30 2936 H 268.78 -0.958293 -3.09818 0
M  V30 2937 H 268.565 -2.71254 -2.83132 0
M  V30 2938 H 270.055 -2.1002 -3.60945 0
M  V30 2939 N 270.492 0.636531 -1.44174 0
M  V30 2940 C 271.903 1.21806 -1.41493 0
M  V30 2941 C 272.254 1.95785 -0.1275 0
M  V30 2942 O 271.379 2.02147 0.772376 0
M  V30 2943 C 271.974 2.21551 -2.56321 0
M  V30 2944 C 270.533 2.75143 -2.56853 0
M  V30 2945 C 269.68 1.50052 -2.33195 0
M  V30 2946 H 272.631 0.427531 -1.52833 0
M  V30 2947 H 272.652 3.0405 -2.28765 0
M  V30 2948 H 272.164 1.67679 -3.50008 0
M  V30 2949 H 270.265 3.33033 -1.67093 0
M  V30 2950 H 270.378 3.2155 -3.55165 0
M  V30 2951 H 268.742 1.77993 -1.82183 0
M  V30 2952 H 269.525 0.980903 -3.28988 0
M  V30 2953 N 271.97 1.30982 0.876444 0
M  V30 2954 C 273.21 1.21589 1.64303 0
M  V30 2955 C 273.574 -0.223962 1.90689 0
M  V30 2956 O 274.775 -0.44128 2.65153 0
M  V30 2957 C 273.046 2.03007 2.94148 0
M  V30 2958 S 274.605 2.10405 3.85065 0
M  V30 2959 H 271.423 0.433161 0.563819 0
M  V30 2960 H 274.025 1.65565 1.03964 0
M  V30 2961 H 272.729 3.06719 2.72675 0
M  V30 2962 H 272.26 1.59725 3.59515 0
M  V30 2963 H 274.275 1.23765 4.80517 0
M  V30 2964 N 273.449 -1.08991 1.13837 0
M  V30 2965 C 274.379 -2.17771 0.842507 0
M  V30 2966 C 275.36 -1.6892 -0.20001 0
M  V30 2967 O 276.545 -1.94113 -0.0579731 0
M  V30 2968 C 273.675 -3.4589 0.312644 0
M  V30 2969 C 272.629 -4.08099 1.28992 0
M  V30 2970 C 271.955 -5.31098 0.619623 0
M  V30 2971 C 273.255 -4.50077 2.65005 0
M  V30 2972 H 274.949 -2.42777 1.75213 0
M  V30 2973 H 272.495 -1.16682 0.843875 0
M  V30 2974 H 274.448 -4.21297 0.0933043 0
M  V30 2975 H 273.172 -3.20419 -0.632382 0
M  V30 2976 H 271.831 -3.34717 1.49533 0
M  V30 2977 H 271.479 -5.0191 -0.33102 0
M  V30 2978 H 271.179 -5.73674 1.27167 0
M  V30 2979 H 272.703 -6.09224 0.409669 0
M  V30 2980 H 274.117 -5.16688 2.48407 0
M  V30 2981 H 272.514 -5.03553 3.26427 0
M  V30 2982 H 273.584 -3.62257 3.22332 0
M  V30 2983 N 274.927 -0.932562 -1.27047 0
M  V30 2984 C 276.176 -0.571351 -1.93439 0
M  V30 2985 C 276.489 0.892467 -1.74053 0
M  V30 2986 O 277.695 1.36267 -2.34826 0
M  V30 2987 C 276.151 -0.97106 -3.46552 0
M  V30 2988 C 275.759 -2.4559 -3.74686 0
M  V30 2989 C 277.503 -0.681333 -4.18997 0
M  V30 2990 C 275.41 -2.79475 -5.21198 0
M  V30 2991 H 274.34 -0.209966 -0.724176 0
M  V30 2992 H 276.991 -1.13403 -1.44263 0
M  V30 2993 H 275.373 -0.336983 -3.94564 0
M  V30 2994 H 276.547 -3.13829 -3.37414 0
M  V30 2995 H 274.862 -2.71802 -3.15456 0
M  V30 2996 H 277.459 -0.910939 -5.26883 0
M  V30 2997 H 277.802 0.381628 -4.14547 0
M  V30 2998 H 278.335 -1.27473 -3.76823 0
M  V30 2999 H 275.074 -3.847 -5.30741 0
M  V30 3000 H 274.594 -2.1589 -5.596 0
M  V30 3001 H 276.273 -2.67478 -5.89122 0
M  V30 3002 N 276.405 1.4127 -0.698611 0
M  V30 3003 C 277.338 2.28195 0.0153898 0
M  V30 3004 C 278.316 1.42402 0.784883 0
M  V30 3005 O 279.5 1.71828 0.775067 0
M  V30 3006 C 276.627 3.22685 1.02918 0
M  V30 3007 C 275.673 4.25041 0.352501 0
M  V30 3008 S 276.506 5.27757 -0.907322 0
M  V30 3009 C 277.662 6.25812 0.104796 0
M  V30 3010 H 277.895 2.88403 -0.721858 0
M  V30 3011 H 275.428 1.46452 -0.488996 0
M  V30 3012 H 277.386 3.77655 1.60893 0
M  V30 3013 H 276.047 2.61566 1.73902 0
M  V30 3014 H 275.24 4.91437 1.11828 0
M  V30 3015 H 274.842 3.73682 -0.154254 0
M  V30 3016 H 277.134 6.70705 0.957103 0
M  V30 3017 H 278.077 7.06149 -0.525323 0
M  V30 3018 H 278.485 5.62615 0.460931 0
M  V30 3019 N 277.883 0.443576 1.51229 0
M  V30 3020 C 279.132 -0.122332 2.01329 0
M  V30 3021 C 279.445 -1.43237 1.33201 0
M  V30 3022 O 280.651 -2.0816 1.74304 0
M  V30 3023 C 279.107 -0.268551 3.58897 0
M  V30 3024 C 278.715 1.03142 4.35965 0
M  V30 3025 C 280.459 -0.787894 4.17124 0
M  V30 3026 C 278.366 0.850504 5.85252 0
M  V30 3027 H 277.296 -0.0494929 0.752374 0
M  V30 3028 H 279.947 0.574289 1.74282 0
M  V30 3029 H 278.329 -1.02832 3.82415 0
M  V30 3030 H 279.503 1.80001 4.24189 0
M  V30 3031 H 277.818 1.47977 3.89219 0
M  V30 3032 H 280.415 -0.939841 5.26375 0
M  V30 3033 H 280.758 -1.77201 3.76703 0
M  V30 3034 H 281.291 -0.0862669 3.97706 0
M  V30 3035 H 278.03 1.80718 6.30096 0
M  V30 3036 H 277.55 0.121825 5.99676 0
M  V30 3037 H 279.229 0.506163 6.45017 0
M  V30 3038 N 279.361 -1.56624 0.175154 0
M  V30 3039 C 280.291 -2.21155 -0.749195 0
M  V30 3040 C 281.272 -1.16836 -1.23626 0
M  V30 3041 O 282.457 -1.45277 -1.28873 0
M  V30 3042 C 279.587 -2.8553 -1.97711 0
M  V30 3043 C 278.541 -3.95921 -1.62575 0
M  V30 3044 C 277.867 -4.47365 -2.92864 0
M  V30 3045 C 279.167 -5.15323 -0.850838 0
M  V30 3046 H 280.861 -2.98653 -0.211295 0
M  V30 3047 H 278.407 -1.43651 -0.100188 0
M  V30 3048 H 280.36 -3.2935 -2.62881 0
M  V30 3049 H 279.084 -2.05406 -2.53921 0
M  V30 3050 H 277.743 -3.52762 -0.997719 0
M  V30 3051 H 277.391 -3.64027 -3.47122 0
M  V30 3052 H 277.091 -5.21839 -2.70106 0
M  V30 3053 H 278.615 -4.93873 -3.59056 0
M  V30 3054 H 280.029 -5.55812 -1.40521 0
M  V30 3055 H 278.426 -5.95739 -0.722154 0
M  V30 3056 H 279.496 -4.84661 0.152082 0
M  V30 3057 N 280.839 0.0985539 -1.57292 0
M  V30 3058 C 282.085 0.803867 -1.86188 0
M  V30 3059 C 282.418 1.78549 -0.763794 0
M  V30 3060 O 281.693 1.93153 0.22855 0
M  V30 3061 C 281.976 1.53568 -3.25713 0
M  V30 3062 C 281.829 0.572277 -4.46145 0
M  V30 3063 C 283.148 2.48708 -3.63087 0
M  V30 3064 H 280.267 0.290781 -0.677211 0
M  V30 3065 H 282.909 0.0675783 -1.8988 0
M  V30 3066 H 281.059 2.16332 -3.22696 0
M  V30 3067 H 282.731 -0.0480894 -4.61275 0
M  V30 3068 H 280.974 -0.114618 -4.33649 0
M  V30 3069 H 281.645 1.12139 -5.40489 0
M  V30 3070 H 284.121 1.96039 -3.67026 0
M  V30 3071 H 282.997 2.96932 -4.61652 0
M  V30 3072 H 283.258 3.32309 -2.91588 0
M  V30 3073 N 282.317 1.53212 0.369288 0
M  V30 3074 C 283.547 1.72868 1.13139 0
M  V30 3075 C 283.955 0.455754 1.83629 0
M  V30 3076 O 283.298 -0.580861 1.74275 0
M  V30 3077 C 283.36 2.83667 2.20847 0
M  V30 3078 C 283.024 4.24142 1.70155 0
M  V30 3079 C 284.021 5.06619 1.16763 0
M  V30 3080 C 281.706 4.70539 1.7578 0
M  V30 3081 C 283.7 6.33581 0.696678 0
M  V30 3082 C 281.387 5.97481 1.28297 0
M  V30 3083 C 282.385 6.78833 0.753307 0
M  V30 3084 O 282.073 8.03393 0.285475 0
M  V30 3085 H 281.805 0.581707 0.344373 0
M  V30 3086 H 284.359 2.00736 0.435243 0
M  V30 3087 H 282.589 2.51265 2.93944 0
M  V30 3088 H 284.278 2.91536 2.82421 0
M  V30 3089 H 285.044 4.71948 1.11758 0
M  V30 3090 H 280.923 4.07293 2.15949 0
M  V30 3091 H 284.467 6.97027 0.282581 0
M  V30 3092 H 280.364 6.31651 1.32994 0
M  V30 3093 H 281.132 8.17497 0.405145 0
M  V30 3094 N 283.795 -0.628877 1.44509 0
M  V30 3095 C 284.725 -1.75187 1.54376 0
M  V30 3096 C 285.706 -1.65411 0.396618 0
M  V30 3097 O 286.891 -1.84137 0.617031 0
M  V30 3098 C 284.021 -3.13725 1.48976 0
M  V30 3099 C 282.975 -3.38291 2.62189 0
M  V30 3100 C 282.301 -4.76883 2.41841 0
M  V30 3101 C 283.601 -3.30632 4.04326 0
M  V30 3102 H 285.295 -1.67187 2.48373 0
M  V30 3103 H 282.841 -0.802909 1.19538 0
M  V30 3104 H 284.794 -3.92064 1.54478 0
M  V30 3105 H 283.518 -3.22515 0.514961 0
M  V30 3106 H 282.177 -2.62334 2.56079 0
M  V30 3107 H 281.825 -4.82378 1.42548 0
M  V30 3108 H 281.525 -4.94278 3.17747 0
M  V30 3109 H 283.049 -5.57449 2.49165 0
M  V30 3110 H 284.463 -3.98873 4.11793 0
M  V30 3111 H 282.86 -3.59561 4.80454 0
M  V30 3112 H 283.93 -2.28404 4.27738 0
M  V30 3113 N 285.273 -1.31445 -0.869486 0
M  V30 3114 C 286.689 -1.10113 -1.15531 0
M  V30 3115 C 286.889 0.128087 -2.01092 0
M  V30 3116 O 285.945 0.817276 -2.38908 0
M  V30 3117 C 287.258 -2.37291 -1.84698 0
M  V30 3118 C 288.806 -2.42906 -1.97397 0
M  V30 3119 C 289.281 -3.69967 -2.69979 0
M  V30 3120 N 290.772 -3.70864 -2.77514 0
M  V30 3121 C 291.507 -4.65875 -3.34287 0
M  V30 3122 N 291.003 -5.71242 -3.91988 0
M  V30 3123 N 292.796 -4.53394 -3.3225 0
M  V30 3124 H 284.947 -2.1028 -0.299347 0
M  V30 3125 H 287.21 -0.927683 -0.195214 0
M  V30 3126 H 286.916 -3.27078 -1.29278 0
M  V30 3127 H 286.79 -2.47125 -2.84972 0
M  V30 3128 H 289.177 -1.53588 -2.51982 0
M  V30 3129 H 289.258 -2.37036 -0.961643 0
M  V30 3130 H 288.902 -4.59652 -2.16062 0
M  V30 3131 H 288.832 -3.73103 -3.7162 0
M  V30 3132 H 291.323 -2.94697 -2.36563 0
M  V30 3133 H 291.636 -6.39817 -4.33421 0
M  V30 3134 H 289.981 -5.75015 -3.90362 0
M  V30 3135 H 293.172 -3.70252 -2.8641 0
M  V30 3136 H 293.345 -5.27617 -3.76197 0
M  V30 3137 N 286.751 1.08385 -1.14413 0
M  V30 3138 C 288 1.80153 -0.907076 0
M  V30 3139 C 288.313 1.87176 0.567851 0
M  V30 3140 O 289.519 2.55359 0.922172 0
M  V30 3141 C 287.975 3.23687 -1.57336 0
M  V30 3142 C 287.583 3.24897 -3.08457 0
M  V30 3143 C 289.327 4.00136 -1.41744 0
M  V30 3144 C 287.234 4.6302 -3.67921 0
M  V30 3145 H 286.164 0.675139 -0.335714 0
M  V30 3146 H 288.815 1.21733 -1.37307 0
M  V30 3147 H 287.197 3.82234 -1.03505 0
M  V30 3148 H 288.371 2.76055 -3.68958 0
M  V30 3149 H 286.686 2.61943 -3.2369 0
M  V30 3150 H 289.283 5.02201 -1.83572 0
M  V30 3151 H 289.626 4.14709 -0.363576 0
M  V30 3152 H 290.159 3.48058 -1.92614 0
M  V30 3153 H 286.898 4.5365 -4.73161 0
M  V30 3154 H 286.418 5.12143 -3.12201 0
M  V30 3155 H 288.097 5.31994 -3.68227 0
M  V30 3156 N 288.23 0.939286 1.26551 0
M  V30 3157 C 289.46 0.601663 1.97645 0
M  V30 3158 C 289.868 -0.827206 1.70159 0
M  V30 3159 O 289.211 -1.56291 0.965338 0
M  V30 3160 C 289.273 0.761725 3.51337 0
M  V30 3161 C 288.937 2.16487 4.0247 0
M  V30 3162 C 289.934 3.14016 4.14355 0
M  V30 3163 C 287.619 2.48494 4.36527 0
M  V30 3164 C 289.613 4.41654 4.59587 0
M  V30 3165 C 287.3 3.76364 4.81449 0
M  V30 3166 C 288.298 4.72758 4.92939 0
M  V30 3167 O 287.986 5.98352 5.36871 0
M  V30 3168 H 287.718 0.225758 0.637189 0
M  V30 3169 H 290.272 1.26178 1.62075 0
M  V30 3170 H 288.502 0.0444808 3.86674 0
M  V30 3171 H 290.191 0.427442 4.03643 0
M  V30 3172 H 290.957 2.90613 3.8829 0
M  V30 3173 H 286.836 1.74202 4.26819 0
M  V30 3174 H 290.38 5.16896 4.68471 0
M  V30 3175 H 286.277 3.99582 5.06956 0
M  V30 3176 H 287.045 6.01507 5.55096 0
M  V30 3177 N 289.708 -1.40897 0.706093 0
M  V30 3178 C 290.638 -2.33418 0.0620085 0
M  V30 3179 C 291.619 -1.52385 -0.755827 0
M  V30 3180 O 292.804 -1.80886 -0.706674 0
M  V30 3181 C 289.934 -3.36293 -0.867445 0
M  V30 3182 C 288.888 -4.27716 -0.155932 0
M  V30 3183 C 288.214 -5.2105 -1.20046 0
M  V30 3184 C 289.514 -5.12944 0.984149 0
M  V30 3185 H 291.208 -2.87527 0.83477 0
M  V30 3186 H 288.754 -1.38249 0.402875 0
M  V30 3187 H 290.707 -3.99949 -1.32735 0
M  V30 3188 H 289.431 -2.80556 -1.67199 0
M  V30 3189 H 288.09 -3.65498 0.284047 0
M  V30 3190 H 287.738 -4.61624 -1.99781 0
M  V30 3191 H 287.438 -5.83056 -0.729328 0
M  V30 3192 H 288.962 -5.87584 -1.66066 0
M  V30 3193 H 290.376 -5.70109 0.604048 0
M  V30 3194 H 288.773 -5.83945 1.38304 0
M  V30 3195 H 289.843 -4.49485 1.81911 0
M  V30 3196 N 291.186 -0.45159 -1.50991 0
M  V30 3197 C 292.435 0.111653 -2.01391 0
M  V30 3198 C 292.748 1.42529 -1.33959 0
M  V30 3199 O 293.954 2.07232 -1.75405 0
M  V30 3200 C 292.41 0.249514 -3.59034 0
M  V30 3201 C 292.018 -1.05453 -4.35412 0
M  V30 3202 C 293.762 0.765762 -4.17536 0
M  V30 3203 C 291.669 -0.881529 -5.84793 0
M  V30 3204 H 290.599 0.0455022 -0.752626 0
M  V30 3205 H 293.25 -0.583524 -1.73975 0
M  V30 3206 H 291.632 1.00803 -3.82955 0
M  V30 3207 H 292.806 -1.82248 -4.23229 0
M  V30 3208 H 291.121 -1.50039 -3.88429 0
M  V30 3209 H 293.718 0.911913 -5.26866 0
M  V30 3210 H 294.061 1.75201 -3.77638 0
M  V30 3211 H 294.594 0.0651744 -3.97747 0
M  V30 3212 H 291.333 -1.84057 -6.29129 0
M  V30 3213 H 290.853 -0.153625 -5.99603 0
M  V30 3214 H 292.532 -0.540363 -6.4474 0
M  V30 3215 N 292.664 1.56529 -0.183458 0
M  V30 3216 C 293.627 2.17324 0.728223 0
M  V30 3217 C 294.627 1.12453 1.14939 0
M  V30 3218 O 295.817 1.37902 1.06437 0
M  V30 3219 C 292.949 2.76591 1.99274 0
M  V30 3220 H 294.142 2.99241 0.198772 0
M  V30 3221 H 291.695 1.5616 0.0661391 0
M  V30 3222 H 292.43 1.98441 2.56499 0
M  V30 3223 H 292.215 3.5335 1.69959 0
M  V30 3224 H 293.705 3.23311 2.6431 0
M  V30 3225 N 294.142 -0.090211 1.57342 0
M  V30 3226 C 295.089 -1.10909 2.02405 0
M  V30 3227 C 296.059 -1.39523 0.901252 0
M  V30 3228 O 297.244 -1.50903 1.1676 0
M  V30 3229 C 294.384 -2.42277 2.45755 0
M  V30 3230 C 293.497 -2.20352 3.71576 0
M  V30 3231 C 292.632 -3.45154 4.03785 0
M  V30 3232 C 291.671 -3.18512 5.22701 0
M  V30 3233 N 290.808 -4.35593 5.50639 0
M  V30 3234 H 295.648 -0.71782 2.89225 0
M  V30 3235 H 293.185 -0.342901 1.43048 0
M  V30 3236 H 295.143 -3.18951 2.68935 0
M  V30 3237 H 293.773 -2.79242 1.61938 0
M  V30 3238 H 292.825 -1.34458 3.55844 0
M  V30 3239 H 294.137 -1.96661 4.58395 0
M  V30 3240 H 293.291 -4.30233 4.27767 0
M  V30 3241 H 292.03 -3.71904 3.15498 0
M  V30 3242 H 291.035 -2.31827 4.98534 0
M  V30 3243 H 292.26 -2.93103 6.12591 0
M  V30 3244 H 290.206 -4.6241 4.6531 0
M  V30 3245 H 290.123 -4.1511 6.31838 0
M  V30 3246 H 291.391 -5.21723 5.7916 0
M  V30 3247 N 295.62 -1.53406 -0.361157 0
M  V30 3248 C 297.036 -1.43277 -0.703124 0
M  V30 3249 C 297.236 -0.575384 -1.9311 0
M  V30 3250 O 296.292 -0.0595362 -2.5243 0
M  V30 3251 C 297.605 -2.8653 -0.9122 0
M  V30 3252 C 299.153 -2.96191 -1.01193 0
M  V30 3253 C 299.628 -4.40514 -1.25345 0
M  V30 3254 N 301.119 -4.43962 -1.32105 0
M  V30 3255 C 301.854 -5.52746 -1.5251 0
M  V30 3256 N 301.35 -6.71567 -1.70203 0
M  V30 3257 N 303.143 -5.40331 -1.54916 0
M  V30 3258 H 295.294 -2.07654 0.446475 0
M  V30 3259 H 297.557 -0.937944 0.137715 0
M  V30 3260 H 297.263 -3.51605 -0.0816414 0
M  V30 3261 H 297.137 -3.30441 -1.81903 0
M  V30 3262 H 299.524 -2.31266 -1.83303 0
M  V30 3263 H 299.605 -2.55667 -0.0823929 0
M  V30 3264 H 299.249 -5.06014 -0.437346 0
M  V30 3265 H 299.179 -4.78614 -2.19627 0
M  V30 3266 H 301.67 -3.58332 -1.20028 0
M  V30 3267 H 301.983 -7.50241 -1.85359 0
M  V30 3268 H 300.328 -6.74545 -1.67373 0
M  V30 3269 H 303.519 -4.46465 -1.40663 0
M  V30 3270 H 303.692 -6.25173 -1.70477 0
M  V30 3271 N 297.098 0.621204 -1.44841 0
M  V30 3272 C 298.323 1.41244 -1.51871 0
M  V30 3273 C 298.748 1.87519 -0.147764 0
M  V30 3274 O 298.106 1.59334 0.865 0
M  V30 3275 C 298.154 2.60221 -2.49634 0
M  V30 3276 O 297.258 3.60395 -2.00473 0
M  V30 3277 H 296.599 0.42223 -0.512463 0
M  V30 3278 H 299.129 0.757305 -1.90069 0
M  V30 3279 H 299.139 3.0764 -2.67996 0
M  V30 3280 H 297.814 2.25887 -3.4921 0
M  V30 3281 H 296.391 3.19717 -1.91925 0
M  V30 3282 N 298.576 1.31904 0.862503 0
M  V30 3283 C 299.524 1.20125 1.9918 0
M  V30 3284 C 300.518 0.107824 1.69056 0
M  V30 3285 O 301.724 0.270223 1.7796 0
M  V30 3286 H 298.099 0.372148 0.65346 0
M  V30 3287 H 300.07 2.15652 2.06244 0
M  V30 3288 C 298.819 0.933099 3.34946 0
M  V30 3289 H 298.142 1.76664 3.5865 0
M  V30 3290 H 299.582 0.890892 4.14535 0
M  V30 3291 C 298.041 -0.364172 3.34926 0
M  V30 3292 O 298.571 -1.37858 3.77304 0
M  V30 3293 N 296.777 -0.383362 2.8806 0
M  V30 3294 H 296.324 0.442651 2.53768 0
M  V30 3295 H 296.282 -1.25123 2.8843 0
M  V30 3296 N 300.054 -1.07777 1.14986 0
M  V30 3297 C 301.47 -1.32373 0.891596 0
M  V30 3298 C 301.67 -1.9609 -0.463788 0
M  V30 3299 O 300.726 -2.21801 -1.20667 0
M  V30 3300 C 302.039 -2.21905 2.02925 0
M  V30 3301 C 303.587 -2.35367 2.06329 0
M  V30 3302 C 304.062 -3.28245 3.19405 0
M  V30 3303 N 305.553 -3.35824 3.19024 0
M  V30 3304 C 306.288 -4.07739 4.03158 0
M  V30 3305 N 305.784 -4.82306 4.97346 0
M  V30 3306 N 307.577 -4.03635 3.91197 0
M  V30 3307 H 299.728 -0.648039 2.02273 0
M  V30 3308 H 301.991 -0.348149 0.881757 0
M  V30 3309 H 301.697 -1.82342 3.0074 0
M  V30 3310 H 301.571 -3.22407 1.95789 0
M  V30 3311 H 303.958 -2.74186 1.09116 0
M  V30 3312 H 304.039 -1.34585 2.17533 0
M  V30 3313 H 303.683 -2.90146 4.16867 0
M  V30 3314 H 303.613 -4.28971 3.05437 0
M  V30 3315 H 306.104 -2.8267 2.50811 0
M  V30 3316 H 306.417 -5.34661 5.57994 0
M  V30 3317 H 304.762 -4.81337 5.01338 0
M  V30 3318 H 307.953 -3.44491 3.16928 0
M  V30 3319 H 308.126 -4.59417 4.5699 0
M  V30 3320 N 301.532 -0.945985 -1.26051 0
M  V30 3321 C 302.948 -0.649045 -1.45807 0
M  V30 3322 C 303.148 0.796158 -1.85104 0
M  V30 3323 O 302.204 1.57233 -1.97571 0
M  V30 3324 C 303.517 -1.61458 -2.53677 0
M  V30 3325 C 305.065 -1.62481 -2.67524 0
M  V30 3326 C 305.54 -2.57776 -3.7857 0
M  V30 3327 N 307.031 -2.5609 -3.85969 0
M  V30 3328 C 307.766 -3.26508 -4.7136 0
M  V30 3329 N 307.262 -4.0637 -5.61102 0
M  V30 3330 N 309.055 -3.15437 -4.65248 0
M  V30 3331 H 301.206 -1.88005 -0.988328 0
M  V30 3332 H 303.469 -0.808198 -0.4955 0
M  V30 3333 H 303.175 -2.64644 -2.31638 0
M  V30 3334 H 303.049 -1.37036 -3.51427 0
M  V30 3335 H 305.436 -0.600167 -2.88933 0
M  V30 3336 H 305.517 -1.90958 -1.70202 0
M  V30 3337 H 305.161 -3.60361 -3.57913 0
M  V30 3338 H 305.091 -2.26587 -4.75359 0
M  V30 3339 H 307.582 -1.98105 -3.21812 0
M  V30 3340 H 307.895 -4.57042 -6.23164 0
M  V30 3341 H 306.24 -4.10469 -5.60839 0
M  V30 3342 H 309.431 -2.52525 -3.94143 0
M  V30 3343 H 309.604 -3.70584 -5.31575 0
M  V30 3344 N 303.011 1.40521 -0.713556 0
M  V30 3345 C 304.259 2.00527 -0.251692 0
M  V30 3346 C 304.58 1.56857 1.15848 0
M  V30 3347 O 303.85 0.807127 1.785 0
M  V30 3348 H 302.43 0.741551 -0.0900646 0
M  V30 3349 H 305.092 1.71887 -0.918733 0
M  V30 3350 H 304.188 3.10813 -0.283192 0
M  V30 3351 N 304.489 0.459591 1.5075 0
M  V30 3352 C 305.9 0.00171547 1.867 0
M  V30 3353 C 306.251 -1.39934 1.37525 0
M  V30 3354 O 305.376 -2.03523 0.735349 0
M  V30 3355 C 305.971 -0.00366298 3.388 0
M  V30 3356 C 304.53 -0.406026 3.74204 0
M  V30 3357 C 303.677 0.38673 2.7459 0
M  V30 3358 H 306.628 0.674413 1.43657 0
M  V30 3359 H 306.649 -0.808371 3.71814 0
M  V30 3360 H 306.161 1.01617 3.74561 0
M  V30 3361 H 304.262 -1.43063 3.4404 0
M  V30 3362 H 304.375 -0.115362 4.78961 0
M  V30 3363 H 302.739 -0.158019 2.54209 0
M  V30 3364 H 303.522 1.40585 3.13194 0
M  V30 3365 N 305.967 -1.56429 0.191757 0
M  V30 3366 C 307.383 -1.58754 -0.164137 0
M  V30 3367 C 307.583 -1.20782 -1.61288 0
M  V30 3368 O 306.639 -0.928999 -2.34789 0
M  V30 3369 C 307.952 -3.00396 0.135195 0
M  V30 3370 C 309.5 -3.1291 0.0750351 0
M  V30 3371 C 309.975 -4.56679 0.347632 0
M  V30 3372 N 311.466 -4.62252 0.296131 0
M  V30 3373 C 312.201 -5.71379 0.480948 0
M  V30 3374 N 311.697 -6.88986 0.725933 0
M  V30 3375 N 313.49 -5.60563 0.415435 0
M  V30 3376 H 305.641 -1.79393 1.13718 0
M  V30 3377 H 307.904 -0.832414 0.453643 0
M  V30 3378 H 307.61 -3.32726 1.13958 0
M  V30 3379 H 307.484 -3.72963 -0.563773 0
M  V30 3380 H 309.871 -2.80394 -0.919948 0
M  V30 3381 H 309.952 -2.42736 0.807029 0
M  V30 3382 H 309.596 -4.89907 1.33992 0
M  V30 3383 H 309.526 -5.25039 -0.405212 0
M  V30 3384 H 312.017 -3.7773 0.113259 0
M  V30 3385 H 312.33 -7.68046 0.855857 0
M  V30 3386 H 310.675 -6.90801 0.762788 0
M  V30 3387 H 313.866 -4.67561 0.224486 0
M  V30 3388 H 314.039 -6.45551 0.562889 0
M  V30 3389 N 307.445 0.0818655 -1.57387 0
M  V30 3390 C 308.408 1.08265 -2.02018 0
M  V30 3391 C 309.408 1.32183 -0.915664 0
M  V30 3392 O 310.598 1.28073 -1.18081 0
M  V30 3393 C 307.73 2.42871 -2.39221 0
M  V30 3394 H 308.923 0.698204 -2.91659 0
M  V30 3395 H 306.476 0.327303 -1.52835 0
M  V30 3396 H 307.211 2.86167 -1.52575 0
M  V30 3397 H 306.996 2.26855 -3.19811 0
M  V30 3398 H 308.486 3.14826 -2.74362 0
M  V30 3399 N 308.923 1.53595 0.353017 0
M  V30 3400 C 309.87 1.80919 1.43308 0
M  V30 3401 C 310.84 0.654288 1.5267 0
M  V30 3402 O 312.025 0.897759 1.6836 0
M  V30 3403 C 309.165 2.01605 2.80089 0
M  V30 3404 C 308.278 3.29321 2.79593 0
M  V30 3405 C 307.413 3.40125 4.0803 0
M  V30 3406 C 306.452 4.61826 4.01725 0
M  V30 3407 N 305.589 4.69716 5.21834 0
M  V30 3408 H 310.429 2.73074 1.19308 0
M  V30 3409 H 307.966 1.35263 0.578131 0
M  V30 3410 H 309.924 2.11586 3.59565 0
M  V30 3411 H 308.554 1.12772 3.0246 0
M  V30 3412 H 307.606 3.28229 1.92276 0
M  V30 3413 H 308.918 4.18884 2.70809 0
M  V30 3414 H 308.072 3.49488 4.95927 0
M  V30 3415 H 306.811 2.48601 4.19582 0
M  V30 3416 H 305.816 4.52552 3.12213 0
M  V30 3417 H 307.041 5.54705 3.91764 0
M  V30 3418 H 304.987 3.81097 5.33948 0
M  V30 3419 H 304.904 5.53202 5.1527 0
M  V30 3420 H 306.172 4.83376 6.11529 0
M  V30 3421 N 310.401 -0.613514 1.45168 0
M  V30 3422 C 311.649 -1.36997 1.48581 0
M  V30 3423 C 311.97 -1.94589 0.126545 0
M  V30 3424 O 311.24 -1.76816 -0.843372 0
M  V30 3425 H 309.82 -0.508558 0.547154 0
M  V30 3426 H 312.482 -0.720853 1.81079 0
M  V30 3427 H 311.578 -2.1924 2.22127 0
M  V30 3428 N 311.879 -1.3236 -0.855495 0
M  V30 3429 C 313.127 -1.22629 -1.60644 0
M  V30 3430 C 313.448 0.212136 -1.93843 0
M  V30 3431 O 312.718 1.13666 -1.59552 0
M  V30 3432 H 311.298 -0.450882 -0.595579 0
M  V30 3433 H 313.96 -1.65871 -1.02337 0
M  V30 3434 H 313.056 -1.80832 -2.54374 0
M  V30 3435 N 313.357 1.07166 -1.15556 0
M  V30 3436 C 314.768 1.6127 -0.940693 0
M  V30 3437 C 315.119 1.89251 0.517551 0
M  V30 3438 O 314.244 1.65937 1.38903 0
M  V30 3439 C 314.839 2.92993 -1.7012 0
M  V30 3440 C 313.398 3.43832 -1.53156 0
M  V30 3441 C 312.545 2.1786 -1.71558 0
M  V30 3442 H 315.496 0.90229 -1.30554 0
M  V30 3443 H 315.517 3.62007 -1.17181 0
M  V30 3444 H 315.029 2.72596 -2.76248 0
M  V30 3445 H 313.13 3.69307 -0.494294 0
M  V30 3446 H 313.243 4.19747 -2.30975 0
M  V30 3447 H 311.607 2.2765 -1.14225 0
M  V30 3448 H 312.39 1.99956 -2.79056 0
M  V30 3449 N 314.835 0.952656 1.25548 0
M  V30 3450 C 316.083 0.605176 1.92826 0
M  V30 3451 C 316.404 -0.860261 1.74999 0
M  V30 3452 O 315.674 -1.6125 1.11244 0
M  V30 3453 H 314.254 0.220832 0.713612 0
M  V30 3454 H 316.916 1.21047 1.52754 0
M  V30 3455 H 316.012 0.832798 3.00784 0
M  V30 3456 N 316.313 -1.40141 0.720998 0
M  V30 3457 C 317.245 -2.29177 0.0324669 0
M  V30 3458 C 318.258 -1.46105 -0.718126 0
M  V30 3459 O 319.447 -1.69335 -0.564608 0
M  V30 3460 C 316.547 -3.24473 -0.978292 0
M  V30 3461 C 315.72 -4.36423 -0.292115 0
M  V30 3462 C 314.779 -5.12122 -1.20901 0
M  V30 3463 O 313.805 -5.64981 -0.691766 0
M  V30 3464 N 315.007 -5.21992 -2.53978 0
M  V30 3465 H 317.772 -2.88909 0.796984 0
M  V30 3466 H 315.333 -1.51569 0.569068 0
M  V30 3467 H 317.325 -3.71987 -1.59398 0
M  V30 3468 H 315.895 -2.65871 -1.64413 0
M  V30 3469 H 315.115 -3.90967 0.503847 0
M  V30 3470 H 316.403 -5.08467 0.183971 0
M  V30 3471 H 315.801 -4.8054 -2.98493 0
M  V30 3472 H 314.358 -5.72995 -3.10677 0
M  V30 3473 N 317.792 -0.46758 -1.50504 0
M  V30 3474 C 319.04 0.0884469 -2.01906 0
M  V30 3475 C 319.361 1.40532 -1.35188 0
M  V30 3476 O 318.631 1.89515 -0.496079 0
M  V30 3477 H 317.211 0.0356765 -0.746148 0
M  V30 3478 H 319.873 -0.6172 -1.84869 0
M  V30 3479 H 318.969 0.2425 -3.11156 0
M  V30 3480 N 319.27 1.56325 -0.20005 0
M  V30 3481 C 320.18 2.22931 0.730668 0
M  V30 3482 C 321.196 1.22997 1.23076 0
M  V30 3483 O 322.372 1.55748 1.27689 0
M  V30 3484 C 319.437 2.87948 1.93098 0
M  V30 3485 C 318.498 4.03166 1.47497 0
M  V30 3486 C 317.731 4.65073 2.61807 0
M  V30 3487 O 317.954 4.25913 3.79413 0
M  V30 3488 O 316.888 5.54452 2.34237 0
M  V30 3489 H 320.714 3.03084 0.193391 0
M  V30 3490 H 318.299 1.49371 0.0294621 0
M  V30 3491 H 320.181 3.29063 2.6324 0
M  V30 3492 H 318.856 2.10771 2.45677 0
M  V30 3493 H 317.763 3.66664 0.742201 0
M  V30 3494 H 319.096 4.82022 0.995796 0
M  V30 3495 N 320.748 -0.0735177 1.57428 0
M  V30 3496 C 321.973 -0.789787 1.91774 0
M  V30 3497 C 322.398 -1.70413 0.796306 0
M  V30 3498 O 321.756 -1.79555 -0.250961 0
M  V30 3499 C 321.804 -1.5609 3.25067 0
M  V30 3500 O 320.908 -2.67144 3.14178 0
M  V30 3501 H 320.249 -0.215582 0.628029 0
M  V30 3502 H 322.779 -0.0422781 2.04556 0
M  V30 3503 H 322.789 -1.94052 3.58898 0
M  V30 3504 H 321.464 -0.890015 4.06265 0
M  V30 3505 H 320.041 -2.32052 2.91901 0
M  V30 3506 N 322.226 -1.5378 -0.344866 0
M  V30 3507 C 323.173 -1.81676 -1.42346 0
M  V30 3508 C 324.143 -0.662376 -1.52321 0
M  V30 3509 O 325.328 -0.906675 -1.67881 0
M  V30 3510 C 322.468 -2.03087 -2.79015 0
M  V30 3511 C 321.581 -3.30799 -2.77842 0
M  V30 3512 C 320.716 -3.42285 -4.0622 0
M  V30 3513 C 319.755 -4.6395 -3.9927 0
M  V30 3514 N 318.892 -4.72477 -5.19336 0
M  V30 3515 H 323.732 -2.73703 -1.17858 0
M  V30 3516 H 321.269 -1.35568 -0.570949 0
M  V30 3517 H 323.227 -2.1349 -3.58438 0
M  V30 3518 H 321.857 -1.14375 -3.01858 0
M  V30 3519 H 320.909 -3.29244 -1.90533 0
M  V30 3520 H 322.221 -4.20314 -2.68584 0
M  V30 3521 H 321.375 -3.52113 -4.94066 0
M  V30 3522 H 320.114 -2.50823 -4.18258 0
M  V30 3523 H 319.119 -4.54201 -3.09809 0
M  V30 3524 H 320.344 -5.56775 -3.88817 0
M  V30 3525 H 318.29 -3.83924 -5.3192 0
M  V30 3526 H 318.207 -5.55927 -5.12329 0
M  V30 3527 H 319.475 -4.86613 -6.08957 0
M  V30 3528 N 323.704 0.605807 -1.45491 0
M  V30 3529 C 324.636 1.73031 -1.5031 0
M  V30 3530 C 325.649 1.57968 -0.393687 0
M  V30 3531 O 326.838 1.65817 -0.660839 0
M  V30 3532 C 323.938 3.11049 -1.34543 0
M  V30 3533 C 323.111 3.52334 -2.59189 0
M  V30 3534 C 322.17 4.69323 -2.37954 0
M  V30 3535 O 321.196 4.7635 -3.11575 0
M  V30 3536 N 322.398 5.62705 -1.4263 0
M  V30 3537 H 325.163 1.6936 -2.4726 0
M  V30 3538 H 322.724 0.79114 -1.41254 0
M  V30 3539 H 324.716 3.87071 -1.18144 0
M  V30 3540 H 323.286 3.09217 -0.458623 0
M  V30 3541 H 322.506 2.66256 -2.90691 0
M  V30 3542 H 323.794 3.76677 -3.42041 0
M  V30 3543 H 323.192 5.59744 -0.818758 0
M  V30 3544 H 321.749 6.38252 -1.32202 0
M  V30 3545 N 325.182 1.32811 0.848464 0
M  V30 3546 C 326.593 1.21315 1.41914 0
M  V30 3547 C 326.944 -0.171847 1.95446 0
M  V30 3548 O 326.069 -1.07093 1.88043 0
M  V30 3549 C 326.664 2.19631 2.57968 0
M  V30 3550 C 325.223 2.12003 3.11017 0
M  V30 3551 C 324.37 2.07651 1.83783 0
M  V30 3552 H 327.321 1.44549 0.655071 0
M  V30 3553 H 327.342 1.79845 3.35315 0
M  V30 3554 H 326.854 3.20423 2.18976 0
M  V30 3555 H 324.955 1.14481 3.54577 0
M  V30 3556 H 325.068 3.02111 3.71841 0
M  V30 3557 H 323.432 1.52983 2.03638 0
M  V30 3558 H 324.215 3.10235 1.47 0
M  V30 3559 N 326.66 -1.06551 1.16123 0
M  V30 3560 C 328.076 -1.3142 0.905585 0
M  V30 3561 C 328.276 -1.96571 -0.442964 0
M  V30 3562 O 327.332 -2.23068 -1.18308 0
M  V30 3563 C 328.645 -2.19741 2.05267 0
M  V30 3564 C 330.193 -2.33165 2.08813 0
M  V30 3565 C 330.668 -3.24838 3.22868 0
M  V30 3566 N 332.159 -3.32421 3.22568 0
M  V30 3567 C 332.894 -4.0344 4.0746 0
M  V30 3568 N 332.39 -4.77003 5.02434 0
M  V30 3569 N 334.183 -3.99464 3.95456 0
M  V30 3570 H 326.334 -0.626548 2.02949 0
M  V30 3571 H 328.597 -0.338777 0.8854 0
M  V30 3572 H 328.303 -1.79142 3.02657 0
M  V30 3573 H 328.177 -3.20313 1.99198 0
M  V30 3574 H 330.564 -2.73013 1.12018 0
M  V30 3575 H 330.645 -1.3227 2.18948 0
M  V30 3576 H 330.289 -2.85708 4.19921 0
M  V30 3577 H 330.219 -4.25707 3.0997 0
M  V30 3578 H 332.71 -2.79994 2.53795 0
M  V30 3579 H 333.023 -5.28712 5.63634 0
M  V30 3580 H 331.368 -4.75992 5.06415 0
M  V30 3581 H 334.559 -3.4111 3.20564 0
M  V30 3582 H 334.732 -4.54544 4.61837 0
M  V30 3583 N 328.138 -0.959301 -1.25041 0
M  V30 3584 C 329.549 -0.65667 -1.74771 0
M  V30 3585 C 329.9 0.827852 -1.77879 0
M  V30 3586 O 329.025 1.64783 -1.40269 0
M  V30 3587 C 329.62 -1.1853 -3.1739 0
M  V30 3588 C 328.179 -0.932734 -3.6466 0
M  V30 3589 C 327.326 -1.32558 -2.43564 0
M  V30 3590 H 330.277 -1.13558 -1.10862 0
M  V30 3591 H 330.298 -0.547582 -3.76539 0
M  V30 3592 H 329.81 -2.26576 -3.15095 0
M  V30 3593 H 327.911 0.13257 -3.72364 0
M  V30 3594 H 328.024 -1.57248 -4.52559 0
M  V30 3595 H 326.388 -0.743956 -2.43593 0
M  V30 3596 H 327.171 -2.41537 -2.43957 0
M  V30 3597 N 329.616 1.39756 -0.72842 0
M  V30 3598 C 330.893 1.94574 -0.200079 0
M  V30 3599 C 331.273 1.66569 1.29684 0
M  V30 3600 O 330.621 0.990326 2.05924 0
M  V30 3601 C 330.831 3.45004 -0.526608 0
M  V30 3602 C 332.179 4.21965 -0.472318 0
M  V30 3603 O 333.203 3.53173 -0.463413 0
M  V30 3604 O 332.062 5.44552 -0.461075 0
M  V30 3605 H 329.156 0.826289 -0.0342851 0
M  V30 3606 H 331.702 1.49293 -0.806829 0
M  V30 3607 H 330.474 3.58796 -1.56144 0
M  V30 3608 H 330.097 3.97449 0.109449 0
M  V30 3609 N 331.094 0.475555 1.50254 0
M  V30 3610 C 332.044 -0.335025 2.25525 0
M  V30 3611 C 333.028 -0.957625 1.29299 0
M  V30 3612 O 334.22 -0.869436 1.54175 0
M  V30 3613 C 331.349 -1.41385 3.12834 0
M  V30 3614 C 330.435 -0.798762 4.1651 0
M  V30 3615 N 330.826 0.0835815 5.05731 0
M  V30 3616 C 329.124 -1.06221 4.33166 0
M  V30 3617 C 329.825 0.433113 5.80085 0
M  V30 3618 N 328.801 -0.1928 5.43258 0
M  V30 3619 H 332.603 0.344612 2.91873 0
M  V30 3620 H 330.117 0.289986 1.5979 0
M  V30 3621 H 332.114 -2.00777 3.65368 0
M  V30 3622 H 330.774 -2.09543 2.48036 0
M  V30 3623 H 331.785 0.452715 5.15918 0
M  V30 3624 H 328.462 -1.73844 3.79585 0
M  V30 3625 H 329.852 1.15346 6.61925 0
M  V30 3626 N 332.573 -1.56217 0.208337 0
M  V30 3627 C 333.821 -1.97558 -0.426076 0
M  V30 3628 C 334.142 -1.09683 -1.61229 0
M  V30 3629 O 333.412 -0.170956 -1.95153 0
M  V30 3630 H 331.992 -0.729575 -0.160405 0
M  V30 3631 H 334.654 -1.92606 0.298155 0
M  V30 3632 H 333.75 -3.02672 -0.761312 0
M  V30 3633 N 334.051 0.0651679 -1.57465 0
M  V30 3634 C 335.299 0.761555 -1.87202 0
M  V30 3635 C 335.62 1.77778 -0.801243 0
M  V30 3636 O 334.89 1.95166 0.16937 0
M  V30 3637 H 333.47 0.284251 -0.690804 0
M  V30 3638 H 336.132 0.0396827 -1.9486 0
M  V30 3639 H 335.228 1.27365 -2.84929 0
M  V30 3640 N 335.529 1.53961 0.336706 0
M  V30 3641 C 336.492 1.81724 1.39675 0
M  V30 3642 C 337.492 0.688532 1.45313 0
M  V30 3643 O 338.682 0.956829 1.45569 0
M  V30 3644 C 335.814 1.96543 2.78538 0
M  V30 3645 H 337.007 2.76424 1.16318 0
M  V30 3646 H 334.56 1.45478 0.571474 0
M  V30 3647 H 335.295 1.0401 3.07168 0
M  V30 3648 H 335.08 2.78665 2.75841 0
M  V30 3649 H 336.57 2.19516 3.5525 0
M  V30 3650 N 337.007 -0.598083 1.45811 0
M  V30 3651 C 337.937 -1.71873 1.58057 0
M  V30 3652 C 338.918 -1.64533 0.431615 0
M  V30 3653 O 340.103 -1.82787 0.65595 0
M  V30 3654 C 337.233 -3.10495 1.55597 0
M  V30 3655 C 336.187 -3.32654 2.69305 0
M  V30 3656 C 335.513 -4.71646 2.51902 0
M  V30 3657 C 336.813 -3.21981 4.11248 0
M  V30 3658 H 338.507 -1.61881 2.51863 0
M  V30 3659 H 336.053 -0.777372 1.21214 0
M  V30 3660 H 338.006 -3.88699 1.6276 0
M  V30 3661 H 336.73 -3.2135 0.583255 0
M  V30 3662 H 335.389 -2.56843 2.61586 0
M  V30 3663 H 335.037 -4.79246 1.52748 0
M  V30 3664 H 334.737 -4.87426 3.2816 0
M  V30 3665 H 336.261 -5.52038 2.60933 0
M  V30 3666 H 337.675 -3.90049 4.20161 0
M  V30 3667 H 336.072 -3.49289 4.87972 0
M  V30 3668 H 337.142 -2.1928 4.32486 0
M  V30 3669 N 338.485 -1.33259 -0.841409 0
M  V30 3670 C 339.448 -1.23221 -1.9326 0
M  V30 3671 C 340.448 -0.151895 -1.60081 0
M  V30 3672 O 341.638 -0.403246 -1.69468 0
M  V30 3673 C 338.77 -0.898123 -3.28856 0
M  V30 3674 H 339.963 -2.2021 -2.03587 0
M  V30 3675 H 337.516 -1.17281 -1.03319 0
M  V30 3676 H 338.251 0.0693841 -3.24226 0
M  V30 3677 H 338.036 -1.67934 -3.54317 0
M  V30 3678 H 339.526 -0.852563 -4.08805 0
M  V30 3679 N 339.963 1.05934 -1.16686 0
M  V30 3680 C 341.188 1.83029 -0.975455 0
M  V30 3681 C 341.613 1.82096 0.471452 0
M  V30 3682 O 340.971 1.22443 1.33706 0
M  V30 3683 C 341.019 3.27372 -1.51195 0
M  V30 3684 O 340.123 4.06054 -0.720701 0
M  V30 3685 H 339.464 0.566194 -0.346872 0
M  V30 3686 H 341.994 1.33541 -1.55009 0
M  V30 3687 H 342.004 3.78186 -1.53099 0
M  V30 3688 H 340.679 3.27366 -2.56523 0
M  V30 3689 H 339.256 3.64812 -0.772458 0
M  V30 3690 N 341.441 0.965919 1.2453 0
M  V30 3691 C 342.404 0.499547 2.2369 0
M  V30 3692 C 343.404 -0.40294 1.5567 0
M  V30 3693 O 344.594 -0.19865 1.73064 0
M  V30 3694 C 341.726 -0.276792 3.39774 0
M  V30 3695 H 342.919 1.37613 2.66463 0
M  V30 3696 H 340.472 0.750324 1.37112 0
M  V30 3697 H 341.207 -1.17055 3.02438 0
M  V30 3698 H 340.992 0.370826 3.90343 0
M  V30 3699 H 342.482 -0.592175 4.1338 0
M  V30 3700 N 342.919 -1.39368 0.735821 0
M  V30 3701 C 343.866 -2.30599 0.0963825 0
M  V30 3702 C 344.836 -1.49257 -0.728794 0
M  V30 3703 O 346.021 -1.77941 -0.688588 0
M  V30 3704 C 343.161 -3.35596 -0.804305 0
M  V30 3705 C 342.274 -4.31987 0.0335761 0
M  V30 3706 C 341.409 -5.24053 -0.868461 0
M  V30 3707 C 340.448 -6.12095 -0.0258776 0
M  V30 3708 N 339.585 -6.96514 -0.883893 0
M  V30 3709 H 344.425 -2.8471 0.880002 0
M  V30 3710 H 341.962 -1.40188 0.445619 0
M  V30 3711 H 343.92 -3.95062 -1.34096 0
M  V30 3712 H 342.55 -2.82938 -1.55389 0
M  V30 3713 H 341.602 -3.74133 0.68766 0
M  V30 3714 H 342.914 -4.94074 0.685036 0
M  V30 3715 H 342.068 -5.88549 -1.47293 0
M  V30 3716 H 340.807 -4.62289 -1.5537 0
M  V30 3717 H 339.812 -5.4661 0.591386 0
M  V30 3718 H 341.037 -6.75923 0.656156 0
M  V30 3719 H 338.983 -6.37318 -1.55441 0
M  V30 3720 H 338.9 -7.55448 -0.288931 0
M  V30 3721 H 340.168 -7.65439 -1.4739 0
M  V30 3722 N 344.397 -0.483516 -1.5 0
M  V30 3723 C 345.327 0.293829 -2.31644 0
M  V30 3724 C 346.308 0.978864 -1.39112 0
M  V30 3725 O 347.493 0.973644 -1.68029 0
M  V30 3726 C 344.623 1.36897 -3.19181 0
M  V30 3727 C 343.577 0.804833 -4.20365 0
M  V30 3728 C 342.903 1.9792 -4.96721 0
M  V30 3729 C 344.203 -0.192313 -5.21946 0
M  V30 3730 H 345.897 -0.387616 -2.9688 0
M  V30 3731 H 343.443 -0.187856 -1.42769 0
M  V30 3732 H 345.396 1.92037 -3.751 0
M  V30 3733 H 344.12 2.07936 -2.51853 0
M  V30 3734 H 342.779 0.275319 -3.65565 0
M  V30 3735 H 342.427 2.67686 -4.25856 0
M  V30 3736 H 342.127 1.60789 -5.65173 0
M  V30 3737 H 343.651 2.53526 -5.55479 0
M  V30 3738 H 345.065 0.270333 -5.72662 0
M  V30 3739 H 343.462 -0.478543 -5.98189 0
M  V30 3740 H 344.532 -1.11409 -4.71928 0
M  V30 3741 N 345.875 1.56104 -0.216619 0
M  V30 3742 C 347.286 1.844 0.292128 0
M  V30 3743 C 347.637 1.13788 1.59833 0
M  V30 3744 O 346.762 0.405888 2.12559 0
M  V30 3745 C 347.357 3.3452 0.53681 0
M  V30 3746 C 345.916 3.63151 0.989876 0
M  V30 3747 C 345.063 2.77255 0.0502302 0
M  V30 3748 H 348.014 1.52481 -0.439926 0
M  V30 3749 H 348.035 3.54459 1.38345 0
M  V30 3750 H 347.547 3.85885 -0.414031 0
M  V30 3751 H 345.648 3.17238 1.95425 0
M  V30 3752 H 345.761 4.71177 0.867698 0
M  V30 3753 H 344.125 2.48555 0.556117 0
M  V30 3754 H 344.908 3.31416 -0.89544 0
M  V30 3755 N 347.353 -0.0568162 1.57498 0
M  V30 3756 C 348.316 -1.05038 2.03715 0
M  V30 3757 C 349.316 -1.30709 0.936577 0
M  V30 3758 O 350.506 -1.26178 1.20103 0
M  V30 3759 C 347.638 -2.39034 2.43055 0
M  V30 3760 H 348.831 -0.651715 2.92733 0
M  V30 3761 H 346.384 -0.302947 1.53336 0
M  V30 3762 H 347.119 -2.83703 1.57108 0
M  V30 3763 H 346.904 -2.21739 3.2338 0
M  V30 3764 H 348.394 -3.10421 2.79336 0
M  V30 3765 N 348.832 -1.54138 -0.328536 0
M  V30 3766 C 349.762 -1.86167 -1.40939 0
M  V30 3767 C 350.743 -0.718044 -1.54202 0
M  V30 3768 O 351.928 -0.971328 -1.68163 0
M  V30 3769 C 349.058 -2.08461 -2.77779 0
M  V30 3770 C 348.012 -3.24299 -2.7931 0
M  V30 3771 C 347.338 -3.31955 -4.19178 0
M  V30 3772 C 348.638 -4.62065 -2.43502 0
M  V30 3773 H 350.332 -2.76689 -1.14383 0
M  V30 3774 H 347.878 -1.33132 -0.548806 0
M  V30 3775 H 349.831 -2.29453 -3.53454 0
M  V30 3776 H 348.555 -1.14684 -3.05802 0
M  V30 3777 H 347.214 -3.03187 -2.0609 0
M  V30 3778 H 346.862 -2.35745 -4.44335 0
M  V30 3779 H 346.562 -4.09805 -4.2111 0
M  V30 3780 H 348.086 -3.55175 -4.96672 0
M  V30 3781 H 349.5 -4.8297 -3.08889 0
M  V30 3782 H 347.897 -5.42429 -2.56693 0
M  V30 3783 H 348.967 -4.64652 -1.38659 0
M  V30 3784 N 350.31 0.590341 -1.46126 0
M  V30 3785 C 351.273 1.68194 -1.55703 0
M  V30 3786 C 352.273 1.54808 -0.434868 0
M  V30 3787 O 353.463 1.59564 -0.698928 0
M  V30 3788 C 350.595 3.07575 -1.47005 0
M  V30 3789 H 351.788 1.61064 -2.52979 0
M  V30 3790 H 349.341 0.807541 -1.33823 0
M  V30 3791 H 350.076 3.20268 -0.509785 0
M  V30 3792 H 349.861 3.187 -2.28414 0
M  V30 3793 H 351.351 3.87055 -1.56776 0
M  V30 3794 N 351.788 1.33704 0.83433 0
M  V30 3795 C 353.013 1.28615 1.62705 0
M  V30 3796 C 353.438 -0.139242 1.87584 0
M  V30 3797 O 352.796 -1.09734 1.4432 0
M  V30 3798 C 352.844 2.07139 2.95171 0
M  V30 3799 O 351.948 1.4331 3.86699 0
M  V30 3800 H 351.289 0.44226 0.49528 0
M  V30 3801 H 353.819 1.76335 1.03766 0
M  V30 3802 H 353.829 2.18073 3.44831 0
M  V30 3803 H 352.504 3.10779 2.76386 0
M  V30 3804 H 351.081 1.4105 3.45195 0
M  V30 3805 N 353.266 -1.05314 1.17247 0
M  V30 3806 C 354.512 -1.78557 0.961513 0
M  V30 3807 C 354.845 -1.87419 -0.508697 0
M  V30 3808 O 354.12 -1.37307 -1.37757 0
M  V30 3809 C 354.403 -3.22514 1.60176 0
M  V30 3810 C 354.256 -3.21673 3.14399 0
M  V30 3811 C 355.575 -4.20318 1.30463 0
M  V30 3812 H 352.694 -0.6482 0.350723 0
M  V30 3813 H 355.336 -1.23102 1.44727 0
M  V30 3814 H 353.486 -3.69867 1.18871 0
M  V30 3815 H 355.158 -2.82405 3.64753 0
M  V30 3816 H 353.401 -2.60048 3.47214 0
M  V30 3817 H 354.072 -4.23271 3.54324 0
M  V30 3818 H 356.548 -3.81454 1.66229 0
M  V30 3819 H 355.424 -5.19289 1.77848 0
M  V30 3820 H 355.685 -4.41526 0.22521 0
M  V30 3821 N 354.744 -0.972509 -1.24016 0
M  V30 3822 C 355.707 -0.511403 -2.23422 0
M  V30 3823 C 356.707 0.394679 -1.55881 0
M  V30 3824 O 357.897 0.189469 -1.73167 0
M  V30 3825 C 355.029 0.258769 -3.39916 0
M  V30 3826 H 356.222 -1.39024 -2.6573 0
M  V30 3827 H 353.775 -0.757585 -1.36713 0
M  V30 3828 H 354.51 1.1545 -3.03054 0
M  V30 3829 H 354.295 -0.391522 -3.9014 0
M  V30 3830 H 355.785 0.570244 -4.13688 0
M  V30 3831 N 356.222 1.38976 -0.743202 0
M  V30 3832 C 357.447 2.05161 -0.303936 0
M  V30 3833 C 357.872 1.55677 1.05576 0
M  V30 3834 O 357.23 0.704131 1.67068 0
M  V30 3835 C 357.278 3.59138 -0.324373 0
M  V30 3836 O 356.382 4.06668 0.685204 0
M  V30 3837 H 355.723 0.649815 -0.136518 0
M  V30 3838 H 358.253 1.77852 -1.01142 0
M  V30 3839 H 358.263 4.07639 -0.171618 0
M  V30 3840 H 356.938 3.94515 -1.31647 0
M  V30 3841 H 355.515 3.69561 0.497913 0
M  V30 3842 N 357.7 0.491464 1.49741 0
M  V30 3843 C 358.663 -0.280906 2.27472 0
M  V30 3844 C 359.663 -0.902454 1.33088 0
M  V30 3845 O 360.853 -0.768465 1.56334 0
M  V30 3846 C 357.985 -1.40209 3.10732 0
M  V30 3847 H 359.178 0.401056 2.97206 0
M  V30 3848 H 356.731 0.246131 1.5435 0
M  V30 3849 H 357.466 -2.11849 2.45541 0
M  V30 3850 H 357.251 -0.961969 3.80117 0
M  V30 3851 H 358.741 -1.9464 3.69466 0
M  V30 3852 N 359.178 -1.55987 0.224894 0
M  V30 3853 C 360.594 -1.59066 -0.130426 0
M  V30 3854 C 360.794 -1.24176 -1.5869 0
M  V30 3855 O 359.85 -0.978592 -2.32766 0
M  V30 3856 C 361.163 -3.00042 0.198883 0
M  V30 3857 C 362.711 -3.1268 0.141391 0
M  V30 3858 C 363.186 -4.55839 0.444422 0
M  V30 3859 N 364.677 -4.6152 0.394115 0
M  V30 3860 C 365.412 -5.70231 0.602038 0
M  V30 3861 N 364.908 -6.87291 0.871914 0
M  V30 3862 N 366.701 -5.59555 0.534245 0
M  V30 3863 H 358.852 -1.76941 1.17497 0
M  V30 3864 H 361.115 -0.822604 0.471197 0
M  V30 3865 H 360.821 -3.30234 1.2099 0
M  V30 3866 H 360.695 -3.74075 -0.484535 0
M  V30 3867 H 363.082 -2.82283 -0.860265 0
M  V30 3868 H 363.163 -2.40969 0.858335 0
M  V30 3869 H 362.807 -4.86954 1.44353 0
M  V30 3870 H 362.737 -5.2578 -0.293752 0
M  V30 3871 H 365.228 -3.77405 0.193356 0
M  V30 3872 H 365.541 -7.66058 1.01858 0
M  V30 3873 H 363.886 -6.89028 0.909145 0
M  V30 3874 H 367.077 -4.6698 0.323612 0
M  V30 3875 H 367.25 -6.44211 0.699693 0
M  V30 3876 N 360.656 0.0484629 -1.57525 0
M  V30 3877 C 361.566 1.07241 -2.08654 0
M  V30 3878 C 362.582 1.409 -1.02095 0
M  V30 3879 O 363.758 1.50609 -1.33712 0
M  V30 3880 C 360.823 2.36008 -2.5397 0
M  V30 3881 C 359.884 2.09108 -3.7493 0
M  V30 3882 C 359.117 3.31736 -4.18075 0
M  V30 3883 O 359.34 4.41714 -3.60895 0
M  V30 3884 O 358.274 3.18576 -5.10679 0
M  V30 3885 H 362.1 0.667965 -2.96263 0
M  V30 3886 H 359.685 0.26417 -1.47046 0
M  V30 3887 H 361.567 3.11747 -2.83535 0
M  V30 3888 H 360.242 2.75786 -1.69481 0
M  V30 3889 H 359.149 1.31 -3.50414 0
M  V30 3890 H 360.482 1.74198 -4.60343 0
M  V30 3891 N 362.134 1.5431 0.320358 0
M  V30 3892 C 363.38 1.72924 1.05949 0
M  V30 3893 C 363.713 0.503185 1.87568 0
M  V30 3894 O 362.988 -0.499839 1.87968 0
M  V30 3895 C 363.271 3.00676 1.98156 0
M  V30 3896 C 363.124 4.3354 1.19845 0
M  V30 3897 C 364.443 3.24198 2.9763 0
M  V30 3898 H 361.562 0.629195 0.383774 0
M  V30 3899 H 364.204 1.87008 0.335854 0
M  V30 3900 H 362.354 2.888 2.59859 0
M  V30 3901 H 364.026 4.57305 0.605773 0
M  V30 3902 H 362.269 4.309 0.500784 0
M  V30 3903 H 362.94 5.19156 1.87567 0
M  V30 3904 H 365.416 3.35557 2.4605 0
M  V30 3905 H 364.292 4.14938 3.59329 0
M  V30 3906 H 364.553 2.41577 3.7026 0
M  V30 3907 N 363.613 -0.582584 1.46437 0
M  V30 3908 C 364.561 -1.71272 1.5738 0
M  V30 3909 C 365.555 -1.63524 0.44229 0
M  V30 3910 O 366.761 -1.69016 0.619166 0
M  V30 3911 H 363.136 -0.566273 0.494813 0
M  V30 3912 H 365.107 -1.59174 2.52401 0
M  V30 3913 C 363.856 -3.09658 1.58136 0
M  V30 3914 H 363.179 -3.16291 2.44541 0
M  V30 3915 H 364.619 -3.88494 1.69847 0
M  V30 3916 C 363.078 -3.3547 0.310026 0
M  V30 3917 O 363.608 -3.97199 -0.599683 0
M  V30 3918 N 361.814 -2.89925 0.197901 0
M  V30 3919 H 361.361 -2.39873 0.93909 0
M  V30 3920 H 361.319 -3.07568 -0.65185 0
M  V30 3921 N 365.091 -1.34144 -0.827227 0
M  V30 3922 C 366.339 -1.26009 -1.58007 0
M  V30 3923 C 366.66 0.170971 -1.94249 0
M  V30 3924 O 365.93 1.10256 -1.61927 0
M  V30 3925 H 364.51 -0.463414 -0.585881 0
M  V30 3926 H 367.172 -1.68005 -0.987951 0
M  V30 3927 H 366.268 -1.86187 -2.50481 0
M  V30 3928 N 366.569 1.04691 -1.17803 0
M  V30 3929 C 367.519 2.10856 -0.867391 0
M  V30 3930 C 368.503 1.601 0.160206 0
M  V30 3931 O 369.695 1.76948 -0.042947 0
M  V30 3932 C 366.824 3.411 -0.388012 0
M  V30 3933 C 365.91 3.9864 -1.44732 0
M  V30 3934 N 366.301 4.30075 -2.66212 0
M  V30 3935 C 364.599 4.26439 -1.30637 0
M  V30 3936 C 365.3 4.76033 -3.34317 0
M  V30 3937 N 364.276 4.76462 -2.61696 0
M  V30 3938 H 368.078 2.33029 -1.79094 0
M  V30 3939 H 365.592 1.22386 -1.0675 0
M  V30 3940 H 367.589 4.16641 -0.146994 0
M  V30 3941 H 366.249 3.20357 0.529271 0
M  V30 3942 H 367.26 4.19917 -3.03134 0
M  V30 3943 H 363.937 4.15056 -0.451129 0
M  V30 3944 H 365.327 5.09427 -4.38103 0
M  V30 3945 N 368.047 0.979072 1.23499 0
M  V30 3946 C 369.272 0.664845 1.96455 0
M  V30 3947 C 369.697 -0.761287 1.72006 0
M  V30 3948 O 369.055 -1.51837 0.990713 0
M  V30 3949 C 369.103 0.959479 3.47601 0
M  V30 3950 O 368.207 0.0508168 4.12369 0
M  V30 3951 H 367.548 0.250185 0.615064 0
M  V30 3952 H 370.078 1.31231 1.5697 0
M  V30 3953 H 370.088 0.895642 3.98048 0
M  V30 3954 H 368.763 1.99876 3.64723 0
M  V30 3955 H 367.34 0.16895 3.72517 0
M  V30 3956 N 369.525 -1.3858 0.750561 0
M  V30 3957 C 370.472 -2.30483 0.120835 0
M  V30 3958 C 371.442 -1.50022 -0.712923 0
M  V30 3959 O 372.627 -1.78662 -0.669676 0
M  V30 3960 C 369.767 -3.36431 -0.768666 0
M  V30 3961 C 368.88 -4.31927 0.0793922 0
M  V30 3962 C 368.015 -5.24944 -0.81283 0
M  V30 3963 C 367.054 -6.12088 0.0390447 0
M  V30 3964 N 366.191 -6.97412 -0.809969 0
M  V30 3965 H 371.031 -2.83761 0.91015 0
M  V30 3966 H 368.568 -1.39707 0.460463 0
M  V30 3967 H 370.526 -3.96462 -1.29898 0
M  V30 3968 H 369.156 -2.8457 -1.5238 0
M  V30 3969 H 368.208 -3.73382 0.727303 0
M  V30 3970 H 369.52 -4.93319 0.737401 0
M  V30 3971 H 368.674 -5.90078 -1.41042 0
M  V30 3972 H 367.413 -4.63911 -1.50458 0
M  V30 3973 H 366.418 -5.45952 0.649328 0
M  V30 3974 H 367.643 -6.75189 0.727809 0
M  V30 3975 H 365.589 -6.38931 -1.48672 0
M  V30 3976 H 365.506 -7.55712 -0.208789 0
M  V30 3977 H 366.774 -7.66959 -1.39263 0
M  V30 3978 N 371.003 -0.499398 -1.49478 0
M  V30 3979 C 372.228 0.044722 -2.07352 0
M  V30 3980 C 372.653 1.30207 -1.35749 0
M  V30 3981 O 372.011 1.76516 -0.413732 0
M  V30 3982 C 372.059 0.283013 -3.59488 0
M  V30 3983 O 371.163 1.35804 -3.89398 0
M  V30 3984 H 370.504 -0.0255147 -0.66351 0
M  V30 3985 H 373.034 -0.698561 -1.92305 0
M  V30 3986 H 373.044 0.515007 -4.04737 0
M  V30 3987 H 371.719 -0.635636 -4.11014 0
M  V30 3988 H 370.296 1.11113 -3.55961 0
M  V30 3989 N 372.481 1.55866 -0.233164 0
M  V30 3990 C 373.709 2.02998 0.399905 0
M  V30 3991 C 374.124 1.11274 1.52524 0
M  V30 3992 O 373.481 0.124528 1.82075 0
M  V30 3993 C 373.532 3.4958 0.920639 0
M  V30 3994 O 373.253 4.37808 -0.159834 0
M  V30 3995 C 374.754 4.12411 1.62578 0
M  V30 3996 H 371.974 0.664006 0.0966281 0
M  V30 3997 H 374.518 2.0143 -0.353013 0
M  V30 3998 H 372.673 3.51727 1.62379 0
M  V30 3999 H 373.087 5.23981 0.23337 0
M  V30 4000 H 374.561 5.16711 1.94201 0
M  V30 4001 H 375.038 3.5809 2.54299 0
M  V30 4002 H 375.644 4.14148 0.967553 0
M  V30 4003 N 373.959 -0.0401083 1.57549 0
M  V30 4004 C 375.207 -0.731677 1.8839 0
M  V30 4005 C 375.528 -1.76481 0.829425 0
M  V30 4006 O 374.798 -1.95411 -0.1383 0
M  V30 4007 H 373.378 -0.273225 0.695239 0
M  V30 4008 H 376.04 -0.00867725 1.94898 0
M  V30 4009 H 375.136 -1.22816 2.86919 0
M  V30 4010 N 375.437 -1.54477 -0.31217 0
M  V30 4011 C 376.347 -1.87695 -1.4074 0
M  V30 4012 C 377.363 -0.769975 -1.56036 0
M  V30 4013 O 378.539 -1.06537 -1.70915 0
M  V30 4014 C 375.604 -2.10755 -2.75287 0
M  V30 4015 C 374.665 -3.34514 -2.69071 0
M  V30 4016 C 373.898 -3.56465 -3.97201 0
M  V30 4017 O 374.121 -2.81637 -4.96021 0
M  V30 4018 O 373.055 -4.49964 -3.9977 0
M  V30 4019 H 376.881 -2.80849 -1.15574 0
M  V30 4020 H 374.466 -1.40526 -0.507228 0
M  V30 4021 H 376.348 -2.27188 -3.54913 0
M  V30 4022 H 375.023 -1.20788 -3.0032 0
M  V30 4023 H 373.93 -3.23456 -1.87955 0
M  V30 4024 H 375.263 -4.24575 -2.48992 0
M  V30 4025 N 376.915 0.57481 -1.46744 0
M  V30 4026 C 377.862 1.68329 -1.57905 0
M  V30 4027 C 378.832 1.60625 -0.422927 0
M  V30 4028 O 380.017 1.79721 -0.640711 0
M  V30 4029 C 377.157 3.06665 -1.58274 0
M  V30 4030 C 376.27 3.24935 -2.84678 0
M  V30 4031 C 375.405 4.53566 -2.76499 0
M  V30 4032 C 374.444 4.65207 -3.97806 0
M  V30 4033 N 373.581 5.85172 -3.87967 0
M  V30 4034 H 378.421 1.58127 -2.52587 0
M  V30 4035 H 375.958 0.770552 -1.25303 0
M  V30 4036 H 377.916 3.86745 -1.56473 0
M  V30 4037 H 376.546 3.15745 -0.671194 0
M  V30 4038 H 375.598 2.38405 -2.96424 0
M  V30 4039 H 376.91 3.29403 -3.7456 0
M  V30 4040 H 376.064 5.41885 -2.72848 0
M  V30 4041 H 374.803 4.51548 -1.8427 0
M  V30 4042 H 373.808 3.75304 -4.0178 0
M  V30 4043 H 375.033 4.68997 -4.9114 0
M  V30 4044 H 372.979 5.84137 -2.98529 0
M  V30 4045 H 372.896 5.90943 -4.71511 0
M  V30 4046 H 374.164 6.759 -3.88303 0
M  V30 4047 N 378.394 1.34581 0.820102 0
M  V30 4048 C 379.304 1.28471 1.96297 0
M  V30 4049 C 380.32 0.191902 1.72939 0
M  V30 4050 O 381.496 0.418879 1.96996 0
M  V30 4051 C 378.561 1.04281 3.30645 0
M  V30 4052 C 377.622 2.22745 3.66992 0
M  V30 4053 C 376.855 1.997 4.9493 0
M  V30 4054 O 377.078 0.956656 5.6232 0
M  V30 4055 O 376.012 2.86723 5.2922 0
M  V30 4056 H 379.838 2.24624 2.04396 0
M  V30 4057 H 377.423 1.14816 0.955913 0
M  V30 4058 H 379.305 0.925841 4.11104 0
M  V30 4059 H 377.98 0.111697 3.23507 0
M  V30 4060 H 376.887 2.40003 2.86966 0
M  V30 4061 H 378.22 3.14257 3.78819 0
M  V30 4062 N 379.872 -1.04064 1.18357 0
M  V30 4063 C 380.782 -2.15569 0.925596 0
M  V30 4064 C 381.798 -1.7365 -0.110295 0
M  V30 4065 O 382.974 -2.01273 0.0716218 0
M  V30 4066 C 380.039 -3.43704 0.454836 0
M  V30 4067 C 379.1 -4.00004 1.55869 0
M  V30 4068 C 378.333 -5.22023 1.1103 0
M  V30 4069 O 378.556 -5.70392 -0.0309756 0
M  V30 4070 O 377.49 -5.70856 1.90805 0
M  V30 4071 H 381.316 -2.40187 1.8586 0
M  V30 4072 H 378.901 -1.1402 0.965394 0
M  V30 4073 H 380.783 -4.20923 0.200382 0
M  V30 4074 H 379.458 -3.20559 -0.449876 0
M  V30 4075 H 378.365 -3.24172 1.86716 0
M  V30 4076 H 379.698 -4.2749 2.43953 0
M  V30 4077 N 381.35 -0.985608 -1.22978 0
M  V30 4078 C 382.598 -0.656087 -1.91154 0
M  V30 4079 C 382.919 0.813561 -1.77218 0
M  V30 4080 O 382.189 1.58244 -1.1548 0
M  V30 4081 H 380.769 -0.239674 -0.707506 0
M  V30 4082 H 383.431 -1.25054 -1.49491 0
M  V30 4083 H 382.527 -0.912253 -2.9847 0
M  V30 4084 N 382.828 1.3818 -0.7579 0
M  V30 4085 C 383.738 2.3421 -0.135247 0
M  V30 4086 C 384.754 1.59487 0.695683 0
M  V30 4087 O 385.93 1.91657 0.618832 0
M  V30 4088 C 382.995 3.3862 0.744139 0
M  V30 4089 C 382.056 4.2918 -0.101658 0
M  V30 4090 C 381.289 5.28603 0.735851 0
M  V30 4091 O 381.512 5.35166 1.97366 0
M  V30 4092 O 380.446 6.01707 0.152372 0
M  V30 4093 H 384.272 2.8916 -0.928436 0
M  V30 4094 H 381.857 1.40101 -0.518855 0
M  V30 4095 H 383.739 4.02539 1.2466 0
M  V30 4096 H 382.414 2.86019 1.51575 0
M  V30 4097 H 381.321 3.68407 -0.650167 0
M  V30 4098 H 382.654 4.85048 -0.836024 0
M  V30 4099 N 384.306 0.507319 1.49211 0
M  V30 4100 C 385.534 -0.0315749 2.06876 0
M  V30 4101 C 385.949 -1.30241 1.36685 0
M  V30 4102 O 385.306 -1.76937 0.447152 0
M  V30 4103 C 385.357 -0.282627 3.60393 0
M  V30 4104 O 385.078 0.937835 4.27944 0
M  V30 4105 C 386.579 -0.864453 4.3479 0
M  V30 4106 H 383.799 0.0233048 0.670595 0
M  V30 4107 H 386.343 0.706484 1.91909 0
M  V30 4108 H 384.498 -0.97068 3.75042 0
M  V30 4109 H 384.912 0.704567 5.19746 0
M  V30 4110 H 386.386 -0.989664 5.43056 0
M  V30 4111 H 386.863 -1.86382 3.97692 0
M  V30 4112 H 387.469 -0.213672 4.24763 0
M  V30 4113 N 385.784 -1.5574 0.241426 0
M  V30 4114 C 387.195 -1.84842 -0.262755 0
M  V30 4115 C 387.546 -1.16317 -1.58003 0
M  V30 4116 O 386.671 -0.439653 -2.11887 0
M  V30 4117 C 387.266 -3.35332 -0.483523 0
M  V30 4118 C 385.825 -3.6468 -0.931977 0
M  V30 4119 C 384.972 -2.77299 -0.0061151 0
M  V30 4120 H 387.923 -1.51761 0.464129 0
M  V30 4121 H 387.944 -3.56615 -1.32688 0
M  V30 4122 H 387.456 -3.85178 0.47537 0
M  V30 4123 H 385.557 -3.20307 -1.90353 0
M  V30 4124 H 385.67 -4.72498 -0.792628 0
M  V30 4125 H 384.034 -2.49408 -0.516503 0
M  V30 4126 H 384.817 -3.2995 0.948052 0
M  V30 4127 N 387.262 0.0317525 -1.57568 0
M  V30 4128 C 388.172 1.05021 -2.0978 0
M  V30 4129 C 389.188 1.39809 -1.03583 0
M  V30 4130 O 390.364 1.49182 -1.35302 0
M  V30 4131 C 387.429 2.33301 -2.56459 0
M  V30 4132 C 386.49 2.0512 -3.77127 0
M  V30 4133 C 385.723 3.27283 -4.2157 0
M  V30 4134 O 385.946 4.37861 -3.65559 0
M  V30 4135 O 384.88 3.13141 -5.14029 0
M  V30 4136 H 388.706 0.636505 -2.96955 0
M  V30 4137 H 386.291 0.248559 -1.47318 0
M  V30 4138 H 388.173 3.08722 -2.86825 0
M  V30 4139 H 386.848 2.73973 -1.72397 0
M  V30 4140 H 385.755 1.27276 -3.51784 0
M  V30 4141 H 387.088 1.69305 -4.62165 0
M  V30 4142 N 388.74 1.54641 0.303973 0
M  V30 4143 C 390.017 1.64455 1.05896 0
M  V30 4144 C 390.397 0.490923 2.05312 0
M  V30 4145 O 389.745 -0.512685 2.22674 0
M  V30 4146 C 389.955 3.02331 1.74347 0
M  V30 4147 C 391.303 3.59045 2.26653 0
M  V30 4148 O 392.327 3.04764 1.84384 0
M  V30 4149 O 391.186 4.54081 3.04093 0
M  V30 4150 H 388.28 0.666729 0.489287 0
M  V30 4151 H 390.826 1.66986 0.302298 0
M  V30 4152 H 389.598 3.77734 1.02142 0
M  V30 4153 H 389.221 3.03565 2.56777 0
M  V30 4154 N 390.218 -0.567019 1.47046 0
M  V30 4155 C 391.446 -1.35027 1.56765 0
M  V30 4156 C 391.861 -1.8758 0.214316 0
M  V30 4157 O 391.218 -1.64471 -0.790919 0
M  V30 4158 C 391.269 -2.52698 2.58507 0
M  V30 4159 O 390.99 -2.0232 3.88585 0
M  V30 4160 C 392.491 -3.45043 2.78316 0
M  V30 4161 H 389.711 -0.41195 0.529658 0
M  V30 4162 H 392.255 -0.687832 1.92585 0
M  V30 4163 H 390.41 -3.149 2.25648 0
M  V30 4164 H 390.824 -2.79068 4.44096 0
M  V30 4165 H 392.298 -4.2405 3.53391 0
M  V30 4166 H 392.775 -3.97971 1.85784 0
M  V30 4167 H 393.381 -2.88665 3.12334 0
M  V30 4168 N 391.696 -1.35014 -0.812953 0
M  V30 4169 C 392.944 -1.27678 -1.56661 0
M  V30 4170 C 393.265 0.150359 -1.94419 0
M  V30 4171 O 392.535 1.08532 -1.63088 0
M  V30 4172 H 391.115 -0.469602 -0.580933 0
M  V30 4173 H 393.777 -1.69043 -0.970076 0
M  V30 4174 H 392.873 -1.88833 -2.48492 0
M  V30 4175 N 393.175 1.03435 -1.18907 0
M  V30 4176 C 394.403 1.80381 -1.01342 0
M  V30 4177 C 394.818 1.83649 0.438005 0
M  V30 4178 O 394.175 1.27655 1.30424 0
M  V30 4179 C 394.226 3.25689 -1.56873 0
M  V30 4180 O 393.947 3.22673 -2.96334 0
M  V30 4181 C 395.448 4.19255 -1.44014 0
M  V30 4182 H 392.668 0.56784 -0.35749 0
M  V30 4183 H 395.212 1.30317 -1.576 0
M  V30 4184 H 393.367 3.72962 -1.04777 0
M  V30 4185 H 393.781 4.13748 -3.22355 0
M  V30 4186 H 395.255 5.19123 -1.87657 0
M  V30 4187 H 395.732 4.37467 -0.389815 0
M  V30 4188 H 396.338 3.77851 -1.95214 0
M  V30 4189 N 394.653 0.992116 1.22453 0
M  V30 4190 C 396.069 0.702713 1.43297 0
M  V30 4191 C 396.269 -0.726909 1.87932 0
M  V30 4192 O 395.325 -1.49792 2.0327 0
M  V30 4193 C 396.638 1.70762 2.47509 0
M  V30 4194 C 398.186 1.72298 2.61309 0
M  V30 4195 C 398.661 2.71649 3.68742 0
M  V30 4196 N 400.152 2.70239 3.76199 0
M  V30 4197 C 400.887 3.43778 4.58917 0
M  V30 4198 N 400.383 4.26914 5.45633 0
M  V30 4199 N 402.176 3.32487 4.5322 0
M  V30 4200 H 394.327 1.91543 0.917871 0
M  V30 4201 H 396.59 0.826031 0.465162 0
M  V30 4202 H 396.296 2.73059 2.21657 0
M  V30 4203 H 396.17 1.49985 3.46099 0
M  V30 4204 H 398.557 0.706989 2.86506 0
M  V30 4205 H 398.638 1.97143 1.62997 0
M  V30 4206 H 398.282 3.73397 3.44292 0
M  V30 4207 H 398.212 2.44074 4.66622 0
M  V30 4208 H 400.703 2.09912 3.14237 0
M  V30 4209 H 401.016 4.79855 6.05771 0
M  V30 4210 H 399.361 4.31002 5.45218 0
M  V30 4211 H 402.552 2.6698 3.84499 0
M  V30 4212 H 402.725 3.90058 5.17454 0
M  V30 4213 N 396.131 -1.37776 0.765217 0
M  V30 4214 C 397.094 -2.28686 0.153416 0
M  V30 4215 C 398.094 -1.47727 -0.635081 0
M  V30 4216 O 399.284 -1.68027 -0.459632 0
M  V30 4217 C 396.416 -3.31608 -0.790495 0
M  V30 4218 H 397.609 -2.84297 0.954723 0
M  V30 4219 H 395.162 -1.46932 0.53299 0
M  V30 4220 H 395.897 -2.81109 -1.61705 0
M  V30 4221 H 395.682 -3.9144 -0.227348 0
M  V30 4222 H 397.172 -3.99559 -1.21419 0
M  V30 4223 N 397.609 -0.515225 -1.4894 0
M  V30 4224 C 398.539 0.244628 -2.32215 0
M  V30 4225 C 399.52 0.949136 -1.41157 0
M  V30 4226 O 400.705 0.937783 -1.70057 0
M  V30 4227 C 397.835 1.30096 -3.22013 0
M  V30 4228 C 396.789 0.715486 -4.21977 0
M  V30 4229 C 396.115 1.87339 -5.00808 0
M  V30 4230 C 397.415 -0.302982 -5.2142 0
M  V30 4231 H 399.109 -0.450501 -2.95991 0
M  V30 4232 H 396.655 -0.218098 -1.42339 0
M  V30 4233 H 398.608 1.84037 -3.79089 0
M  V30 4234 H 397.332 2.02547 -2.56207 0
M  V30 4235 H 395.991 0.197715 -3.66066 0
M  V30 4236 H 395.639 2.58592 -4.31438 0
M  V30 4237 H 395.339 1.48764 -5.68457 0
M  V30 4238 H 396.863 2.41686 -5.60732 0
M  V30 4239 H 398.277 0.148802 -5.73107 0
M  V30 4240 H 396.674 -0.60532 -5.97039 0
M  V30 4241 H 397.744 -1.21395 -4.69459 0
M  V30 4242 N 399.087 1.5561 -0.249682 0
M  V30 4243 C 400.498 1.84979 0.252949 0
M  V30 4244 C 400.849 1.17153 1.57384 0
M  V30 4245 O 399.974 0.450884 2.11651 0
M  V30 4246 C 400.569 3.35584 0.465732 0
M  V30 4247 C 399.128 3.65169 0.912624 0
M  V30 4248 C 398.275 2.77299 -0.00859085 0
M  V30 4249 H 401.226 1.51513 -0.47217 0
M  V30 4250 H 401.247 3.57313 1.30795 0
M  V30 4251 H 400.759 3.8492 -0.49579 0
M  V30 4252 H 398.86 3.21312 1.88652 0
M  V30 4253 H 398.973 4.72912 0.767559 0
M  V30 4254 H 397.337 2.49678 0.50327 0
M  V30 4255 H 398.12 3.29442 -0.965537 0
M  V30 4256 N 400.565 -0.0233959 1.57583 0
M  V30 4257 C 401.976 -0.56927 1.77809 0
M  V30 4258 C 402.327 -1.75284 0.881472 0
M  V30 4259 O 401.452 -2.1626 0.0777805 0
M  V30 4260 C 402.047 -1.03949 3.22459 0
M  V30 4261 C 400.606 -1.53084 3.43864 0
M  V30 4262 C 399.753 -0.471454 2.73263 0
M  V30 4263 H 402.704 0.202825 1.57399 0
M  V30 4264 H 402.725 -1.90661 3.29285 0
M  V30 4265 H 402.237 -0.177865 3.87692 0
M  V30 4266 H 400.338 -2.41414 2.83814 0
M  V30 4267 H 400.451 -1.57443 4.52491 0
M  V30 4268 H 398.815 -0.927788 2.37201 0
M  V30 4269 H 399.598 0.380808 3.41181 0
M  V30 4270 N 402.043 -1.548 -0.295768 0
M  V30 4271 C 403.268 -1.78653 -1.05346 0
M  V30 4272 C 403.693 -0.546894 -1.79974 0
M  V30 4273 O 403.051 0.502763 -1.7419 0
M  V30 4274 C 403.099 -2.99679 -2.00561 0
M  V30 4275 O 402.203 -2.7317 -3.08953 0
M  V30 4276 H 401.544 -0.59116 -0.302367 0
M  V30 4277 H 404.074 -2.01895 -0.331598 0
M  V30 4278 H 404.084 -3.27793 -2.42932 0
M  V30 4279 H 402.759 -3.89562 -1.4565 0
M  V30 4280 H 401.336 -2.56089 -2.71059 0
M  V30 4281 N 403.521 0.559213 -1.47345 0
M  V30 4282 C 404.767 1.31614 -1.55079 0
M  V30 4283 C 405.122 1.91257 -0.209422 0
M  V30 4284 O 404.415 1.74796 0.784656 0
M  V30 4285 C 404.609 2.44853 -2.6035 0
M  V30 4286 C 404.438 1.96305 -4.04591 0
M  V30 4287 C 403.208 1.8024 -4.72061 0
M  V30 4288 C 405.406 1.50872 -4.91673 0
M  V30 4289 N 403.388 1.26011 -6.00828 0
M  V30 4290 C 404.759 1.08395 -6.10451 0
M  V30 4291 C 406.814 1.38905 -4.78132 0
M  V30 4292 C 405.517 0.551399 -7.17183 0
M  V30 4293 C 407.543 0.870518 -5.84958 0
M  V30 4294 C 406.905 0.455661 -7.02925 0
M  V30 4295 H 403.004 0.473712 -0.62219 0
M  V30 4296 H 405.588 0.634103 -1.84085 0
M  V30 4297 H 403.759 3.10589 -2.33215 0
M  V30 4298 H 405.491 3.11849 -2.57938 0
M  V30 4299 H 402.246 2.02895 -4.27937 0
M  V30 4300 H 402.67 1.00991 -6.69425 0
M  V30 4301 H 407.312 1.69591 -3.87297 0
M  V30 4302 H 405.03 0.232159 -8.07766 0
M  V30 4303 H 408.616 0.781507 -5.76527 0
M  V30 4304 H 407.496 0.0606414 -7.84177 0
M  V30 4305 N 404.999 1.35443 0.805782 0
M  V30 4306 C 405.962 1.28301 1.89925 0
M  V30 4307 C 406.962 0.194285 1.59622 0
M  V30 4308 O 408.152 0.448036 1.6834 0
M  V30 4309 C 405.284 0.984997 3.2636 0
M  V30 4310 H 406.477 2.2553 1.97677 0
M  V30 4311 H 404.03 1.19979 1.00173 0
M  V30 4312 H 404.765 0.016603 3.24296 0
M  V30 4313 H 404.55 1.77269 3.4974 0
M  V30 4314 H 406.04 0.960651 4.064 0
M  V30 4315 N 406.477 -1.02803 1.19454 0
M  V30 4316 C 407.44 -2.09264 0.934955 0
M  V30 4317 C 408.44 -1.60576 -0.0849015 0
M  V30 4318 O 409.63 -1.73554 0.149933 0
M  V30 4319 C 406.762 -3.38482 0.40531 0
M  V30 4320 H 407.955 -2.33726 1.87916 0
M  V30 4321 H 405.508 -1.19426 1.00832 0
M  V30 4322 H 406.243 -3.19689 -0.544899 0
M  V30 4323 H 406.028 -3.75142 1.14065 0
M  V30 4324 H 407.518 -4.16894 0.242806 0
M  V30 4325 N 407.956 -0.998596 -1.21925 0
M  V30 4326 C 408.886 -0.573688 -2.26343 0
M  V30 4327 C 409.867 0.402296 -1.65274 0
M  V30 4328 O 411.052 0.291683 -1.91997 0
M  V30 4329 C 408.182 0.106839 -3.47136 0
M  V30 4330 C 407.136 -0.788269 -4.20678 0
M  V30 4331 C 406.462 0.0254927 -5.34694 0
M  V30 4332 C 407.762 -2.08784 -4.78755 0
M  V30 4333 H 409.456 -1.44651 -2.62138 0
M  V30 4334 H 407.002 -0.696975 -1.26009 0
M  V30 4335 H 408.955 0.415531 -4.19346 0
M  V30 4336 H 407.679 1.01424 -3.10452 0
M  V30 4337 H 406.338 -1.08069 -3.50309 0
M  V30 4338 H 405.986 0.933989 -4.94253 0
M  V30 4339 H 405.686 -0.570437 -5.84825 0
M  V30 4340 H 407.21 0.328147 -6.09718 0
M  V30 4341 H 408.624 -1.84272 -5.42878 0
M  V30 4342 H 407.021 -2.63307 -5.39249 0
M  V30 4343 H 408.091 -2.76284 -3.98491 0
M  V30 4344 N 409.434 1.37368 -0.772513 0
M  V30 4345 C 410.845 1.8231 -0.402493 0
M  V30 4346 C 411.196 1.6436 1.07146 0
M  V30 4347 O 410.321 1.15514 1.82991 0
M  V30 4348 C 410.916 3.30979 -0.723776 0
M  V30 4349 C 409.475 3.74195 -0.406802 0
M  V30 4350 C 408.622 2.59885 -0.967218 0
M  V30 4351 H 411.573 1.25829 -0.967099 0
M  V30 4352 H 411.594 3.80499 -0.00870832 0
M  V30 4353 H 411.106 3.44011 -1.7966 0
M  V30 4354 H 409.207 3.66732 0.658673 0
M  V30 4355 H 409.32 4.7027 -0.915588 0
M  V30 4356 H 407.684 2.51674 -0.391416 0
M  V30 4357 H 408.467 2.7571 -2.04546 0
M  V30 4358 N 410.912 0.523116 1.48665 0
M  V30 4359 C 411.86 -0.256859 2.31177 0
M  V30 4360 C 412.854 -0.94199 1.40794 0
M  V30 4361 O 414.06 -0.867157 1.57735 0
M  V30 4362 H 410.435 -0.1017 0.745091 0
M  V30 4363 H 412.406 0.458739 2.94853 0
M  V30 4364 C 411.155 -1.29503 3.22683 0
M  V30 4365 H 410.478 -0.777248 3.92172 0
M  V30 4366 H 411.918 -1.81233 3.83315 0
M  V30 4367 C 410.377 -2.32501 2.43813 0
M  V30 4368 O 410.907 -3.3881 2.15803 0
M  V30 4369 N 409.113 -2.05538 2.05432 0
M  V30 4370 H 408.66 -1.19104 2.28412 0
M  V30 4371 H 408.618 -2.74676 1.52973 0
M  V30 4372 N 412.39 -1.55475 0.257931 0
M  V30 4373 C 413.615 -2.04064 -0.370488 0
M  V30 4374 C 414.04 -1.13565 -1.49948 0
M  V30 4375 O 413.398 -0.130781 -1.80828 0
M  V30 4376 C 413.446 -3.50554 -0.845237 0
M  V30 4377 O 412.55 -3.63173 -1.95394 0
M  V30 4378 H 411.891 -0.659257 -0.0792243 0
M  V30 4379 H 414.421 -2.00903 0.387212 0
M  V30 4380 H 414.431 -3.91588 -1.14555 0
M  V30 4381 H 413.106 -4.15896 -0.0191259 0
M  V30 4382 H 411.683 -3.34039 -1.65748 0
M  V30 4383 N 413.868 0.0150385 -1.57593 0
M  V30 4384 C 415.116 0.701613 -1.8953 0
M  V30 4385 C 415.437 1.75139 -0.857396 0
M  V30 4386 O 414.707 1.95607 0.107194 0
M  V30 4387 H 413.287 0.26213 -0.699498 0
M  V30 4388 H 415.949 -0.0223304 -1.94887 0
M  V30 4389 H 415.045 1.18236 -2.88837 0
M  V30 4390 N 415.346 1.54954 0.287554 0
M  V30 4391 C 416.278 1.83224 1.37701 0
M  V30 4392 C 417.291 0.715898 1.46215 0
M  V30 4393 O 418.48 0.993565 1.48292 0
M  V30 4394 C 415.58 1.96723 2.75959 0
M  V30 4395 C 414.753 3.27253 2.90215 0
M  V30 4396 C 413.812 3.30998 4.09056 0
M  V30 4397 O 412.838 4.04457 4.00503 0
M  V30 4398 N 414.04 2.57353 5.20336 0
M  V30 4399 H 416.805 2.77254 1.138 0
M  V30 4400 H 414.366 1.54694 0.477652 0
M  V30 4401 H 416.358 1.96615 3.5373 0
M  V30 4402 H 414.928 1.09626 2.92747 0
M  V30 4403 H 414.148 3.40022 1.99447 0
M  V30 4404 H 415.436 4.13365 2.96659 0
M  V30 4405 H 414.834 1.97327 5.30169 0
M  V30 4406 H 413.391 2.62984 5.96391 0
M  V30 4407 N 416.824 -0.551391 1.4764 0
M  V30 4408 C 418.072 -1.30572 1.54258 0
M  V30 4409 C 418.393 -1.93877 0.208963 0
M  V30 4410 O 417.663 -1.80234 -0.767619 0
M  V30 4411 H 416.243 -0.484894 0.568231 0
M  V30 4412 H 418.905 -0.643402 1.83974 0
M  V30 4413 H 418.001 -2.09621 2.31226 0
M  V30 4414 N 418.302 -1.35869 -0.798587 0
M  V30 4415 C 419.234 -1.25305 -1.91915 0
M  V30 4416 C 420.247 -0.174548 -1.61862 0
M  V30 4417 O 421.436 -0.428499 -1.73281 0
M  V30 4418 C 418.536 -0.9086 -3.26493 0
M  V30 4419 C 417.709 -2.08711 -3.84394 0
M  V30 4420 C 416.768 -1.71717 -4.97393 0
M  V30 4421 O 415.794 -2.43692 -5.14396 0
M  V30 4422 N 416.996 -0.645473 -5.769 0
M  V30 4423 H 419.761 -2.21849 -2.01502 0
M  V30 4424 H 417.322 -1.29143 -0.976408 0
M  V30 4425 H 419.314 -0.642455 -3.99568 0
M  V30 4426 H 417.884 -0.0325815 -3.12583 0
M  V30 4427 H 417.104 -2.51659 -3.03416 0
M  V30 4428 H 418.392 -2.87468 -4.19809 0
M  V30 4429 H 417.79 -0.047648 -5.6568 0
M  V30 4430 H 416.347 -0.43913 -6.50319 0
M  V30 4431 N 419.78 1.02168 -1.19998 0
M  V30 4432 C 420.727 2.10601 -0.944228 0
M  V30 4433 C 421.697 1.65639 0.123664 0
M  V30 4434 O 422.882 1.9079 -0.0199941 0
M  V30 4435 C 420.022 3.41504 -0.496865 0
M  V30 4436 C 419.135 3.99973 -1.63234 0
M  V30 4437 C 418.27 5.18915 -1.13579 0
M  V30 4438 C 417.309 5.69456 -2.24468 0
M  V30 4439 N 416.446 6.79665 -1.76068 0
M  V30 4440 H 421.286 2.31814 -1.8726 0
M  V30 4441 H 418.823 1.13686 -0.933483 0
M  V30 4442 H 420.781 4.16626 -0.218843 0
M  V30 4443 H 419.411 3.2038 0.394508 0
M  V30 4444 H 418.463 3.21997 -2.0254 0
M  V30 4445 H 419.775 4.33492 -2.46752 0
M  V30 4446 H 418.929 6.01222 -0.813429 0
M  V30 4447 H 417.668 4.8695 -0.270434 0
M  V30 4448 H 416.673 4.85757 -2.57526 0
M  V30 4449 H 417.898 6.03459 -3.11472 0
M  V30 4450 H 415.844 6.49538 -0.918516 0
M  V30 4451 H 415.761 7.12349 -2.5317 0
M  V30 4452 H 417.029 7.65549 -1.46817 0
M  V30 4453 N 421.258 1.00505 1.21394 0
M  V30 4454 C 422.168 0.574806 2.27449 0
M  V30 4455 C 423.184 -0.382206 1.6975 0
M  V30 4456 O 424.36 -0.246027 1.99892 0
M  V30 4457 C 421.425 -0.0917414 3.46579 0
M  V30 4458 C 420.486 0.909758 4.1955 0
M  V30 4459 C 419.719 0.274924 5.32991 0
M  V30 4460 O 419.942 -0.928254 5.62796 0
M  V30 4461 O 418.876 0.985877 5.93771 0
M  V30 4462 H 422.702 1.45744 2.66444 0
M  V30 4463 H 420.287 0.773923 1.27792 0
M  V30 4464 H 422.169 -0.464551 4.18832 0
M  V30 4465 H 420.844 -0.948755 3.09484 0
M  V30 4466 H 419.751 1.33372 3.49518 0
M  V30 4467 H 421.084 1.73636 4.60555 0
M  V30 4468 N 422.737 -1.36956 0.779787 0
M  V30 4469 C 423.985 -1.99097 0.347079 0
M  V30 4470 C 424.306 -1.62206 -1.08232 0
M  V30 4471 O 423.576 -0.891373 -1.74446 0
M  V30 4472 H 422.156 -0.736409 0.125342 0
M  V30 4473 H 424.818 -1.67308 0.999696 0
M  V30 4474 H 423.914 -3.09107 0.431162 0
M  V30 4475 N 424.215 -0.530993 -1.48385 0
M  V30 4476 C 425.461 0.00274135 -2.028 0
M  V30 4477 C 425.794 1.33838 -1.40716 0
M  V30 4478 O 425.069 1.86465 -0.553277 0
M  V30 4479 C 425.352 0.123676 -3.59888 0
M  V30 4480 C 425.205 -1.2372 -4.3245 0
M  V30 4481 C 426.524 0.849967 -4.31814 0
M  V30 4482 H 423.643 -0.000477758 -0.737 0
M  V30 4483 H 426.285 -0.688217 -1.77098 0
M  V30 4484 H 424.435 0.712157 -3.81917 0
M  V30 4485 H 426.107 -1.86687 -4.21836 0
M  V30 4486 H 424.35 -1.81882 -3.93829 0
M  V30 4487 H 425.021 -1.10557 -5.40815 0
M  V30 4488 H 427.497 0.350572 -4.14621 0
M  V30 4489 H 426.373 0.903486 -5.41413 0
M  V30 4490 H 426.634 1.90047 -3.99167 0
M  V30 4491 N 425.693 1.55336 -0.266172 0
M  V30 4492 C 426.933 2.01303 0.354459 0
M  V30 4493 C 427.297 1.15046 1.53715 0
M  V30 4494 O 428.498 1.50554 2.22681 0
M  V30 4495 C 426.769 3.49748 0.735579 0
M  V30 4496 S 428.328 4.1771 1.34401 0
M  V30 4497 H 425.146 0.702333 0.110674 0
M  V30 4498 H 427.748 1.91653 -0.385916 0
M  V30 4499 H 426.452 4.10181 -0.134196 0
M  V30 4500 H 425.983 3.63364 1.50764 0
M  V30 4501 H 427.998 4.20594 2.63278 0
M  V30 4502 N 427.171 -0.0066808 1.57599 0
M  V30 4503 C 428.419 -0.691552 1.899 0
M  V30 4504 C 428.74 -1.74682 0.866672 0
M  V30 4505 O 428.01 -1.95661 -0.0968189 0
M  V30 4506 H 426.59 -0.258416 0.700878 0
M  V30 4507 H 429.252 0.0326655 1.94873 0
M  V30 4508 H 428.348 -1.16702 2.8946 0
M  V30 4509 N 428.649 -1.55105 -0.279332 0
M  V30 4510 C 429.612 -1.86783 -1.32834 0
M  V30 4511 C 430.612 -0.74199 -1.42657 0
M  V30 4512 O 431.802 -1.0102 -1.41918 0
M  V30 4513 C 428.934 -2.06746 -2.71052 0
M  V30 4514 H 430.127 -2.8055 -1.05979 0
M  V30 4515 H 427.68 -1.47499 -0.517087 0
M  V30 4516 H 428.415 -1.15339 -3.03097 0
M  V30 4517 H 428.2 -2.88711 -2.65309 0
M  V30 4518 H 429.69 -2.32549 -3.46858 0
M  V30 4519 N 430.127 0.543554 -1.4793 0
M  V30 4520 C 431.352 1.32995 -1.59145 0
M  V30 4521 C 431.777 1.86472 -0.246956 0
M  V30 4522 O 431.135 1.63696 0.779324 0
M  V30 4523 C 431.183 2.46623 -2.63077 0
M  V30 4524 O 430.287 3.49261 -2.19295 0
M  V30 4525 H 429.628 0.394472 -0.534124 0
M  V30 4526 H 432.158 0.655489 -1.93816 0
M  V30 4527 H 432.168 2.93001 -2.83926 0
M  V30 4528 H 430.843 2.07059 -3.60693 0
M  V30 4529 H 429.42 3.09094 -2.08603 0
M  V30 4530 N 431.605 1.3629 0.791371 0
M  V30 4531 C 433.016 1.27225 1.36641 0
M  V30 4532 C 433.367 -0.0887968 1.95999 0
M  V30 4533 O 432.492 -0.990207 1.92416 0
M  V30 4534 C 433.087 2.30375 2.48421 0
M  V30 4535 C 431.646 2.25004 3.01746 0
M  V30 4536 C 430.793 2.15259 1.7481 0
M  V30 4537 H 433.744 1.47198 0.593173 0
M  V30 4538 H 433.765 1.93905 3.27385 0
M  V30 4539 H 433.277 3.29422 2.05189 0
M  V30 4540 H 431.378 1.29417 3.49403 0
M  V30 4541 H 431.491 3.1761 3.58693 0
M  V30 4542 H 429.855 1.61482 1.96966 0
M  V30 4543 H 430.638 3.16191 1.33709 0
M  V30 4544 N 433.083 -1.0153 1.20538 0
M  V30 4545 C 433.993 -2.13557 0.971113 0
M  V30 4546 C 435.009 -1.73845 -0.0734366 0
M  V30 4547 O 436.185 -2.01075 0.114299 0
M  V30 4548 C 433.25 -3.42661 0.527639 0
M  V30 4549 C 432.311 -3.96608 1.64319 0
M  V30 4550 C 431.544 -5.1955 1.22078 0
M  V30 4551 O 431.767 -5.70329 0.0900198 0
M  V30 4552 O 430.701 -5.66681 2.02871 0
M  V30 4553 H 434.527 -2.3619 1.90913 0
M  V30 4554 H 432.112 -1.11946 0.989362 0
M  V30 4555 H 433.994 -4.20404 0.289621 0
M  V30 4556 H 432.669 -3.21441 -0.381779 0
M  V30 4557 H 431.576 -3.20139 1.93551 0
M  V30 4558 H 432.909 -4.22219 2.52966 0
M  V30 4559 N 434.561 -1.01147 -1.20859 0
M  V30 4560 C 435.838 -0.613136 -1.85742 0
M  V30 4561 C 436.218 0.909004 -1.90526 0
M  V30 4562 O 435.566 1.79862 -1.40932 0
M  V30 4563 C 435.776 -1.255 -3.25654 0
M  V30 4564 C 437.124 -1.3672 -4.01986 0
M  V30 4565 O 438.148 -1.21082 -3.34989 0
M  V30 4566 O 437.007 -1.6194 -5.21956 0
M  V30 4567 H 434.101 -0.210878 -0.799662 0
M  V30 4568 H 436.647 -1.10853 -1.2849 0
M  V30 4569 H 435.419 -2.29532 -3.16908 0
M  V30 4570 H 435.042 -0.746369 -3.90532 0
M  V30 4571 N 436.039 1.36541 -0.78704 0
M  V30 4572 C 436.949 2.3387 -0.184896 0
M  V30 4573 C 437.965 1.60927 0.661697 0
M  V30 4574 O 439.141 1.92927 0.57804 0
M  V30 4575 C 436.206 3.40122 0.672145 0
M  V30 4576 C 435.267 4.28867 -0.19267 0
M  V30 4577 C 434.5 5.30045 0.623561 0
M  V30 4578 O 434.723 5.39232 1.8597 0
M  V30 4579 O 433.657 6.01895 0.0247068 0
M  V30 4580 H 437.483 2.87126 -0.989562 0
M  V30 4581 H 435.068 1.38969 -0.548455 0
M  V30 4582 H 436.95 4.05093 1.16094 0
M  V30 4583 H 435.625 2.89169 1.45474 0
M  V30 4584 H 434.532 3.66945 -0.728166 0
M  V30 4585 H 435.865 4.83165 -0.938722 0
M  V30 4586 N 437.518 0.538854 1.48102 0
M  V30 4587 C 438.481 -0.208395 2.28251 0
M  V30 4588 C 439.481 -0.859656 1.35892 0
M  V30 4589 O 440.671 -0.71834 1.58699 0
M  V30 4590 C 437.803 -1.30252 3.15035 0
M  V30 4591 H 438.996 0.495407 2.9578 0
M  V30 4592 H 436.549 0.295112 1.53489 0
M  V30 4593 H 437.284 -2.0393 2.52157 0
M  V30 4594 H 437.069 -0.840551 3.82985 0
M  V30 4595 H 438.559 -1.82787 3.75471 0
M  V30 4596 N 438.996 -1.55193 0.274407 0
M  V30 4597 C 439.906 -2.26164 -0.623473 0
M  V30 4598 C 440.922 -1.28729 -1.17068 0
M  V30 4599 O 442.098 -1.61663 -1.20112 0
M  V30 4600 C 439.163 -2.96833 -1.7914 0
M  V30 4601 C 438.224 -4.09745 -1.28093 0
M  V30 4602 C 437.457 -4.77034 -2.3932 0
M  V30 4603 O 437.68 -4.4353 -3.5866 0
M  V30 4604 O 436.614 -5.64996 -2.07516 0
M  V30 4605 H 440.44 -3.03661 -0.0485661 0
M  V30 4606 H 438.025 -1.49341 0.0418382 0
M  V30 4607 H 439.907 -3.41248 -2.4724 0
M  V30 4608 H 438.582 -2.22253 -2.35341 0
M  V30 4609 H 437.489 -3.69787 -0.566416 0
M  V30 4610 H 438.822 -4.86224 -0.764683 0
M  V30 4611 N 440.474 -0.00167713 -1.576 0
M  V30 4612 C 441.384 1.00548 -2.1196 0
M  V30 4613 C 442.4 1.3758 -1.06526 0
M  V30 4614 O 443.576 1.46278 -1.38436 0
M  V30 4615 C 440.641 2.27809 -2.6135 0
M  V30 4616 C 439.702 1.97074 -3.81393 0
M  V30 4617 C 438.935 3.18267 -4.28417 0
M  V30 4618 O 439.158 4.30009 -3.74765 0
M  V30 4619 O 438.092 3.02167 -5.20556 0
M  V30 4620 H 441.918 0.573373 -2.98238 0
M  V30 4621 H 439.503 0.217255 -1.47812 0
M  V30 4622 H 441.385 3.02568 -2.93309 0
M  V30 4623 H 440.06 2.70254 -1.78169 0
M  V30 4624 H 438.967 1.19785 -3.54404 0
M  V30 4625 H 440.3 1.59464 -4.65652 0
M  V30 4626 N 441.952 1.55251 0.271103 0
M  V30 4627 C 442.862 1.9136 1.35714 0
M  V30 4628 C 443.878 0.811075 1.5394 0
M  V30 4629 O 445.054 1.11031 1.6803 0
M  V30 4630 C 442.119 2.1798 2.69603 0
M  V30 4631 C 441.18 3.4153 2.60107 0
M  V30 4632 C 440.413 3.66871 3.8761 0
M  V30 4633 O 440.636 2.94689 4.8838 0
M  V30 4634 O 439.57 4.60405 3.87699 0
M  V30 4635 H 443.396 2.83815 1.08088 0
M  V30 4636 H 440.981 1.41821 0.469792 0
M  V30 4637 H 442.863 2.36518 3.48765 0
M  V30 4638 H 441.538 1.28708 2.97012 0
M  V30 4639 H 440.445 3.28325 1.79314 0
M  V30 4640 H 441.778 4.31027 2.37647 0
M  V30 4641 N 443.43 -0.535701 1.48216 0
M  V30 4642 C 444.34 -1.66785 1.64985 0
M  V30 4643 C 445.356 -1.65654 0.532414 0
M  V30 4644 O 446.532 -1.8471 0.80275 0
M  V30 4645 C 443.597 -3.0326 1.68031 0
M  V30 4646 C 442.658 -3.1529 2.9136 0
M  V30 4647 C 441.891 -4.45255 2.94252 0
M  V30 4648 O 442.114 -5.32011 2.05719 0
M  V30 4649 O 441.048 -4.6153 3.86359 0
M  V30 4650 H 444.874 -1.55576 2.60825 0
M  V30 4651 H 442.459 -0.70815 1.31551 0
M  V30 4652 H 444.341 -3.84436 1.72589 0
M  V30 4653 H 443.016 -3.14805 0.753628 0
M  V30 4654 H 441.923 -2.3343 2.92337 0
M  V30 4655 H 443.256 -3.08658 3.83394 0
M  V30 4656 N 444.908 -1.36708 -0.784132 0
M  V30 4657 C 445.818 -1.3363 -1.92822 0
M  V30 4658 C 446.834 -0.237686 -1.72369 0
M  V30 4659 O 448.01 -0.470962 -1.95816 0
M  V30 4660 C 445.075 -1.13011 -3.27764 0
M  V30 4661 C 444.136 -2.32397 -3.60957 0
M  V30 4662 C 443.369 -2.12752 -4.89461 0
M  V30 4663 O 443.592 -1.10541 -5.59586 0
M  V30 4664 O 442.526 -3.00653 -5.21432 0
M  V30 4665 H 446.352 -2.29964 -1.98369 0
M  V30 4666 H 443.937 -1.1731 -0.925136 0
M  V30 4667 H 445.819 -1.03451 -4.08504 0
M  V30 4668 H 444.494 -0.19743 -3.23097 0
M  V30 4669 H 443.401 -2.47527 -2.80502 0
M  V30 4670 H 444.734 -3.2419 -3.70354 0
M  V30 4671 N 446.386 1.0089 -1.21074 0
M  V30 4672 C 447.296 2.13039 -0.982425 0
M  V30 4673 C 448.312 1.73881 0.0642161 0
M  V30 4674 O 449.488 2.01012 -0.12496 0
M  V30 4675 C 446.553 3.42377 -0.545803 0
M  V30 4676 C 445.614 3.95731 -1.6642 0
M  V30 4677 C 444.847 5.18896 -1.24832 0
M  V30 4678 O 445.07 5.70273 -0.120265 0
M  V30 4679 O 444.004 5.65597 -2.05873 0
M  V30 4680 H 447.83 2.35175 -1.92163 0
M  V30 4681 H 445.415 1.1142 -0.995285 0
M  V30 4682 H 447.297 4.20244 -0.311912 0
M  V30 4683 H 445.972 3.21639 0.364727 0
M  V30 4684 H 444.879 3.19108 -1.95246 0
M  V30 4685 H 446.212 4.20872 -2.55201 0
M  V30 4686 N 447.864 1.01787 1.20321 0
M  V30 4687 C 448.774 0.598898 2.26827 0
M  V30 4688 C 449.79 -0.36418 1.70146 0
M  V30 4689 O 450.966 -0.224812 2.00141 0
M  V30 4690 C 448.031 -0.0549769 3.46656 0
M  V30 4691 C 447.092 0.954205 4.18561 0
M  V30 4692 C 446.325 0.331439 5.3267 0
M  V30 4693 O 446.548 -0.86851 5.63749 0
M  V30 4694 O 445.482 1.0488 5.92692 0
M  V30 4695 H 449.308 1.48562 2.64883 0
M  V30 4696 H 446.893 0.787434 1.26964 0
M  V30 4697 H 448.775 -0.420102 4.19301 0
M  V30 4698 H 447.45 -0.915876 3.10473 0
M  V30 4699 H 446.357 1.37072 3.48083 0
M  V30 4700 H 447.69 1.78511 4.58688 0
M  V30 4701 N 449.342 -1.36122 0.79427 0
M  V30 4702 C 450.252 -2.33769 0.197296 0
M  V30 4703 C 451.268 -1.61276 -0.653153 0
M  V30 4704 O 452.444 -1.9323 -0.5678 0
M  V30 4705 C 449.509 -3.40474 -0.654098 0
M  V30 4706 C 448.57 -4.28759 0.215411 0
M  V30 4707 C 447.803 -5.30368 -0.595443 0
M  V30 4708 O 448.026 -5.40211 -1.83107 0
M  V30 4709 O 446.96 -6.019 0.00721351 0
M  V30 4710 H 450.786 -2.86597 1.00478 0
M  V30 4711 H 448.371 -1.38676 0.555818 0
M  V30 4712 H 450.253 -4.05703 -1.13944 0
M  V30 4713 H 448.928 -2.89937 -1.43938 0
M  V30 4714 H 447.835 -3.66554 0.747615 0
M  V30 4715 H 449.168 -4.82661 0.964332 0
M  V30 4716 N 450.82 -0.546701 -1.47814 0
M  V30 4717 C 451.73 0.21026 -2.33656 0
M  V30 4718 C 452.746 0.922413 -1.47538 0
M  V30 4719 O 453.922 0.893652 -1.80488 0
M  V30 4720 C 450.987 1.23348 -3.24016 0
M  V30 4721 C 450.048 0.529883 -4.26017 0
M  V30 4722 C 449.281 1.50435 -5.12059 0
M  V30 4723 O 449.504 2.73837 -5.00369 0
M  V30 4724 O 448.438 1.03459 -5.92942 0
M  V30 4725 H 452.264 -0.493605 -2.99662 0
M  V30 4726 H 449.849 -0.307427 -1.46203 0
M  V30 4727 H 451.731 1.82438 -3.79861 0
M  V30 4728 H 450.406 1.91945 -2.60651 0
M  V30 4729 H 449.313 -0.101948 -3.73961 0
M  V30 4730 H 450.646 -0.11445 -4.92067 0
M  V30 4731 N 452.299 1.55045 -0.282633 0
M  V30 4732 C 453.539 2.01668 0.333088 0
M  V30 4733 C 453.903 1.1667 1.52486 0
M  V30 4734 O 455.104 1.52907 2.21072 0
M  V30 4735 C 453.375 3.50509 0.698442 0
M  V30 4736 S 454.934 4.19112 1.29963 0
M  V30 4737 H 451.752 0.703468 0.103219 0
M  V30 4738 H 454.354 1.91233 -0.406222 0
M  V30 4739 H 453.058 4.10015 -0.177693 0
M  V30 4740 H 452.589 3.64943 1.46902 0
M  V30 4741 H 454.604 4.23362 2.58803 0
M  V30 4742 N 453.777 0.010035 1.57597 0
M  V30 4743 C 454.687 -0.994226 2.12491 0
M  V30 4744 C 455.703 -1.37013 1.07254 0
M  V30 4745 O 456.879 -1.45542 1.3921 0
M  V30 4746 C 453.944 -2.2642 2.62555 0
M  V30 4747 C 453.005 -1.95049 3.82432 0
M  V30 4748 C 452.238 -3.15991 4.30099 0
M  V30 4749 O 452.461 -4.28015 3.7704 0
M  V30 4750 O 451.395 -2.99403 5.22151 0
M  V30 4751 H 455.221 -0.557549 2.98538 0
M  V30 4752 H 452.806 -0.209413 1.47925 0
M  V30 4753 H 454.688 -3.01009 2.9491 0
M  V30 4754 H 453.363 -2.69306 1.796 0
M  V30 4755 H 452.27 -1.17904 3.55034 0
M  V30 4756 H 453.603 -1.56992 4.66491 0
M  V30 4757 N 455.255 -1.55392 -0.262866 0
M  V30 4758 C 456.666 -1.67079 -0.833158 0
M  V30 4759 C 457.017 -0.604539 -1.86654 0
M  V30 4760 O 456.142 0.252138 -2.14926 0
M  V30 4761 C 456.737 -3.02891 -1.51797 0
M  V30 4762 C 455.296 -3.16571 -2.03617 0
M  V30 4763 C 454.443 -2.62909 -0.881701 0
M  V30 4764 H 457.394 -1.58652 -0.0389986 0
M  V30 4765 H 457.415 -2.96445 -2.38538 0
M  V30 4766 H 456.927 -3.80473 -0.765619 0
M  V30 4767 H 455.028 -2.43782 -2.81782 0
M  V30 4768 H 455.141 -4.23271 -2.24452 0
M  V30 4769 H 453.505 -2.20324 -1.27786 0
M  V30 4770 H 454.288 -3.43003 -0.14269 0
M  V30 4771 N 456.733 0.527833 -1.48498 0
M  V30 4772 C 457.665 1.6482 -1.5927 0
M  V30 4773 C 458.678 1.55659 -0.476869 0
M  V30 4774 O 459.867 1.62081 -0.747806 0
M  V30 4775 C 456.967 3.0348 -1.50842 0
M  V30 4776 C 456.14 3.381 -2.77502 0
M  V30 4777 C 455.199 4.5605 -2.62497 0
M  V30 4778 O 454.225 4.59165 -3.36387 0
M  V30 4779 N 455.427 5.54353 -1.72257 0
M  V30 4780 H 458.192 1.56015 -2.55889 0
M  V30 4781 H 455.753 0.715152 -1.45249 0
M  V30 4782 H 457.745 3.80264 -1.38496 0
M  V30 4783 H 456.315 3.06352 -0.621887 0
M  V30 4784 H 455.535 2.50473 -3.04396 0
M  V30 4785 H 456.823 3.58017 -3.61527 0
M  V30 4786 H 456.221 5.54617 -1.11431 0
M  V30 4787 H 454.778 6.30347 -1.65849 0
M  V30 4788 N 458.211 1.37122 0.776871 0
M  V30 4789 C 459.174 1.32301 1.8716 0
M  V30 4790 C 460.174 0.228099 1.59174 0
M  V30 4791 O 461.364 0.483642 1.67352 0
M  V30 4792 C 458.496 1.054 3.24197 0
M  V30 4793 H 459.689 2.29673 1.92848 0
M  V30 4794 H 457.242 1.22077 0.97606 0
M  V30 4795 H 457.977 0.0853872 3.24188 0
M  V30 4796 H 457.762 1.84648 3.45901 0
M  V30 4797 H 459.252 1.04664 4.04271 0
M  V30 4798 N 459.689 -1.00246 1.21608 0
M  V30 4799 C 460.935 -1.74319 1.03638 0
M  V30 4800 C 461.268 -1.89408 -0.428749 0
M  V30 4801 O 460.543 -1.43026 -1.3181 0
M  V30 4802 C 460.826 -3.15431 1.73711 0
M  V30 4803 C 460.679 -3.08049 3.27759 0
M  V30 4804 C 461.998 -4.14407 1.48173 0
M  V30 4805 H 459.117 -0.632741 0.377899 0
M  V30 4806 H 461.759 -1.16853 1.49818 0
M  V30 4807 H 459.909 -3.64493 1.34452 0
M  V30 4808 H 461.581 -2.66681 3.76403 0
M  V30 4809 H 459.824 -2.45088 3.57931 0
M  V30 4810 H 460.495 -4.07862 3.71958 0
M  V30 4811 H 462.971 -3.74061 1.82258 0
M  V30 4812 H 461.847 -5.11279 1.99713 0
M  V30 4813 H 462.108 -4.40174 0.412273 0
M  V30 4814 N 461.167 -1.02423 -1.1978 0
M  V30 4815 C 462.578 -0.748389 -1.71044 0
M  V30 4816 C 462.929 0.732398 -1.82017 0
M  V30 4817 O 462.054 1.57116 -1.48807 0
M  V30 4818 C 462.649 -1.35187 -3.1066 0
M  V30 4819 C 461.208 -1.12472 -3.59203 0
M  V30 4820 C 460.355 -1.45283 -2.36195 0
M  V30 4821 H 463.306 -1.19275 -1.04686 0
M  V30 4822 H 463.327 -0.746408 -3.73107 0
M  V30 4823 H 462.839 -2.4296 -3.02642 0
M  V30 4824 H 460.94 -0.0649983 -3.72543 0
M  V30 4825 H 461.053 -1.81016 -4.43588 0
M  V30 4826 H 459.417 -0.872034 -2.39307 0
M  V30 4827 H 460.2 -2.54129 -2.30811 0
M  V30 4828 N 462.645 1.35699 -0.801477 0
M  V30 4829 C 463.891 1.99208 -0.380022 0
M  V30 4830 C 464.224 1.63445 1.04878 0
M  V30 4831 O 463.499 0.895223 1.72673 0
M  V30 4832 C 463.782 3.55755 -0.557708 0
M  V30 4833 C 463.635 4.01332 -2.03107 0
M  V30 4834 C 464.954 4.40096 0.0197968 0
M  V30 4835 H 462.073 0.723667 -0.139552 0
M  V30 4836 H 464.715 1.60928 -1.01006 0
M  V30 4837 H 462.865 3.88494 -0.0213741 0
M  V30 4838 H 464.537 3.79026 -2.62939 0
M  V30 4839 H 462.78 3.52429 -2.52936 0
M  V30 4840 H 463.451 5.10234 -2.1063 0
M  V30 4841 H 465.927 4.13786 -0.438179 0
M  V30 4842 H 464.803 5.48735 -0.134477 0
M  V30 4843 H 465.064 4.2786 1.11303 0
M  V30 4844 N 464.123 0.554532 1.47522 0
M  V30 4845 C 465.348 0.0322661 2.07375 0
M  V30 4846 C 465.773 -1.25079 1.40488 0
M  V30 4847 O 465.131 -1.74859 0.47896 0
M  V30 4848 C 465.179 -0.149397 3.6029 0
M  V30 4849 O 464.283 -1.21259 3.9417 0
M  V30 4850 H 463.624 0.0501228 0.662106 0
M  V30 4851 H 466.154 0.769452 1.8958 0
M  V30 4852 H 466.164 -0.364437 4.06369 0
M  V30 4853 H 464.839 0.787743 4.08372 0
M  V30 4854 H 463.416 -0.97825 3.5984 0
M  V30 4855 N 465.601 -1.54893 0.290851 0
M  V30 4856 C 467.012 -1.85584 -0.203816 0
M  V30 4857 C 467.363 -1.21285 -1.54222 0
M  V30 4858 O 466.488 -0.506841 -2.10381 0
M  V30 4859 C 467.083 -3.367 -0.376595 0
M  V30 4860 C 465.642 -3.6746 -0.815485 0
M  V30 4861 C 464.789 -2.77178 0.0821087 0
M  V30 4862 H 467.74 -1.50208 0.512175 0
M  V30 4863 H 467.761 -3.60656 -1.21275 0
M  V30 4864 H 467.273 -3.8347 0.59767 0
M  V30 4865 H 465.374 -3.26201 -1.80066 0
M  V30 4866 H 465.487 -4.7478 -0.641905 0
M  V30 4867 H 463.851 -2.50925 -0.436895 0
M  V30 4868 H 464.634 -3.26767 1.05254 0
M  V30 4869 N 467.08 -0.0183926 -1.57589 0
M  V30 4870 C 468.043 0.951986 -2.08494 0
M  V30 4871 C 469.043 1.26092 -0.997874 0
M  V30 4872 O 470.233 1.20304 -1.25987 0
M  V30 4873 C 467.365 2.27165 -2.54182 0
M  V30 4874 H 468.558 0.511307 -2.95509 0
M  V30 4875 H 466.111 0.229444 -1.54607 0
M  V30 4876 H 466.846 2.75884 -1.70465 0
M  V30 4877 H 466.631 2.06057 -3.33591 0
M  V30 4878 H 468.121 2.9674 -2.93828 0
M  V30 4879 N 468.558 1.5553 0.254621 0
M  V30 4880 C 469.783 1.81383 1.00573 0
M  V30 4881 C 470.208 0.594419 1.78461 0
M  V30 4882 O 469.566 -0.456403 1.75461 0
M  V30 4883 C 469.614 3.04892 1.92545 0
M  V30 4884 O 468.718 2.81266 3.01601 0
M  V30 4885 H 468.059 0.598969 0.286587 0
M  V30 4886 H 470.589 2.02703 0.277952 0
M  V30 4887 H 470.599 3.34119 2.34155 0
M  V30 4888 H 469.274 3.93287 1.3527 0
M  V30 4889 H 467.851 2.63185 2.64174 0
M  V30 4890 N 470.036 -0.519951 1.48776 0
M  V30 4891 C 470.999 -1.60574 1.6355 0
M  V30 4892 C 471.999 -1.52557 0.508234 0
M  V30 4893 O 473.189 -1.56047 0.774262 0
M  V30 4894 C 470.321 -3.00211 1.61512 0
M  V30 4895 H 471.514 -1.4881 2.60376 0
M  V30 4896 H 469.067 -0.742772 1.37523 0
M  V30 4897 H 469.802 -3.17471 0.662009 0
M  V30 4898 H 469.587 -3.07439 2.43359 0
M  V30 4899 H 471.077 -3.79134 1.75064 0
M  V30 4900 N 471.514 -1.37532 -0.769588 0
M  V30 4901 C 472.754 -1.34261 -1.54122 0
M  V30 4902 C 473.118 0.0717222 -1.91866 0
M  V30 4903 O 474.319 0.22918 -2.67821 0
M  V30 4904 C 472.59 -2.2574 -2.77086 0
M  V30 4905 S 474.149 -2.40339 -3.67127 0
M  V30 4906 H 470.967 -0.476595 -0.527615 0
M  V30 4907 H 473.569 -1.73303 -0.90479 0
M  V30 4908 H 472.273 -3.27417 -2.4744 0
M  V30 4909 H 471.804 -1.87789 -3.45686 0
M  V30 4910 H 473.819 -1.61558 -4.69163 0
M  V30 4911 N 472.992 0.995999 -1.22138 0
M  V30 4912 C 474.217 1.77601 -1.0711 0
M  V30 4913 C 474.642 1.84339 0.374264 0
M  V30 4914 O 474 1.29359 1.27028 0
M  V30 4915 C 474.048 3.18897 -1.68336 0
M  V30 4916 O 473.152 4.01663 -0.934928 0
M  V30 4917 H 472.493 0.547011 -0.376397 0
M  V30 4918 H 475.023 1.25137 -1.6187 0
M  V30 4919 H 475.033 3.69539 -1.72931 0
M  V30 4920 H 473.708 3.13308 -2.73516 0
M  V30 4921 H 472.285 3.60204 -0.964751 0
M  V30 4922 N 474.47 1.03057 1.19235 0
M  V30 4923 C 475.881 0.757449 1.70645 0
M  V30 4924 C 476.232 -0.722735 1.82403 0
M  V30 4925 O 475.357 -1.56325 1.49638 0
M  V30 4926 C 475.952 1.36833 3.09939 0
M  V30 4927 C 474.511 1.14375 3.58602 0
M  V30 4928 C 473.658 1.46533 2.35422 0
M  V30 4929 H 476.609 1.19828 1.04052 0
M  V30 4930 H 476.63 0.766184 3.72706 0
M  V30 4931 H 476.142 2.44562 3.01349 0
M  V30 4932 H 474.243 0.0847542 3.72504 0
M  V30 4933 H 474.356 1.83366 4.42622 0
M  V30 4934 H 472.72 0.884712 2.38841 0
M  V30 4935 H 473.503 2.55349 2.2946 0
M  V30 4936 N 475.948 -1.35272 0.808662 0
M  V30 4937 C 477.359 -1.81179 0.450688 0
M  V30 4938 C 477.71 -1.67143 -1.02751 0
M  V30 4939 O 476.835 -1.20325 -1.79864 0
M  V30 4940 C 477.43 -3.28943 0.811275 0
M  V30 4941 C 475.989 -3.72985 0.505871 0
M  V30 4942 C 475.136 -2.57229 1.03578 0
M  V30 4943 H 478.087 -1.2322 1.00012 0
M  V30 4944 H 478.108 -3.80342 0.109588 0
M  V30 4945 H 477.62 -3.39127 1.88718 0
M  V30 4946 H 475.721 -3.68349 -0.561209 0
M  V30 4947 H 475.834 -4.67677 1.03995 0
M  V30 4948 H 474.198 -2.50548 0.458005 0
M  V30 4949 H 474.981 -2.7019 2.11784 0
M  V30 4950 N 477.426 -0.562348 -1.47226 0
M  V30 4951 C 478.356 0.170627 -2.32876 0
M  V30 4952 C 479.337 0.903748 -1.44106 0
M  V30 4953 O 480.522 0.883206 -1.72954 0
M  V30 4954 C 477.652 1.19786 -3.25989 0
M  V30 4955 C 476.606 0.580875 -4.2404 0
M  V30 4956 C 475.932 1.71311 -5.06514 0
M  V30 4957 C 477.232 -0.468714 -5.20193 0
M  V30 4958 H 478.926 -0.544441 -2.94408 0
M  V30 4959 H 476.472 -0.263271 -1.41573 0
M  V30 4960 H 478.425 1.71884 -3.84752 0
M  V30 4961 H 477.149 1.94294 -2.62521 0
M  V30 4962 H 475.808 0.0811538 -3.6651 0
M  V30 4963 H 475.456 2.44736 -4.39447 0
M  V30 4964 H 475.156 1.30604 -5.72902 0
M  V30 4965 H 476.68 2.23725 -5.68137 0
M  V30 4966 H 478.094 -0.0336028 -5.7329 0
M  V30 4967 H 476.491 -0.794957 -5.94811 0
M  V30 4968 H 477.561 -1.36269 -4.65359 0
M  V30 4969 N 478.904 1.54736 -0.299062 0
M  V30 4970 C 479.836 2.20891 0.61153 0
M  V30 4971 C 480.849 1.20104 1.09904 0
M  V30 4972 O 482.038 1.46707 1.01683 0
M  V30 4973 C 479.138 2.84018 1.84897 0
M  V30 4974 C 478.311 4.10719 1.50428 0
M  V30 4975 C 477.37 4.57667 2.59667 0
M  V30 4976 O 476.396 5.2291 2.24842 0
M  V30 4977 N 477.598 4.29821 3.90172 0
M  V30 4978 H 480.363 2.99666 0.0452001 0
M  V30 4979 H 477.924 1.61446 -0.121178 0
M  V30 4980 H 479.916 3.1236 2.5732 0
M  V30 4981 H 478.486 2.09095 2.32375 0
M  V30 4982 H 477.706 3.89408 0.612781 0
M  V30 4983 H 478.994 4.93223 1.24934 0
M  V30 4984 H 478.392 3.77549 4.21276 0
M  V30 4985 H 476.949 4.62877 4.58899 0
M  V30 4986 N 480.382 0.0267497 1.57577 0
M  V30 4987 C 481.314 -0.984594 2.06974 0
M  V30 4988 C 482.327 -1.29032 0.992705 0
M  V30 4989 O 483.516 -1.25539 1.26895 0
M  V30 4990 C 480.616 -2.31262 2.47732 0
M  V30 4991 C 479.789 -2.1924 3.78487 0
M  V30 4992 C 478.848 -3.34956 4.05821 0
M  V30 4993 O 477.874 -3.11948 4.76106 0
M  V30 4994 N 479.076 -4.58672 3.55809 0
M  V30 4995 H 481.841 -0.563143 2.94362 0
M  V30 4996 H 479.402 -0.160061 1.61107 0
M  V30 4997 H 481.394 -3.07496 2.63112 0
M  V30 4998 H 479.964 -2.65056 1.65723 0
M  V30 4999 H 479.184 -1.27747 3.72927 0
M  V30 5000 H 480.472 -2.08409 4.64158 0
M  V30 5001 H 479.87 -4.8026 2.98942 0
M  V30 5002 H 478.427 -5.32083 3.76472 0
M  V30 5003 N 481.861 -1.55662 -0.24637 0
M  V30 5004 C 483.272 -1.67953 -0.81539 0
M  V30 5005 C 483.623 -0.624302 -1.86002 0
M  V30 5006 O 482.748 0.229328 -2.15181 0
M  V30 5007 C 483.343 -3.04484 -1.48576 0
M  V30 5008 C 481.902 -3.18713 -2.00248 0
M  V30 5009 C 481.049 -2.6383 -0.853766 0
M  V30 5010 H 484 -1.58685 -0.0221692 0
M  V30 5011 H 484.021 -2.98959 -2.3538 0
M  V30 5012 H 483.533 -3.81264 -0.725222 0
M  V30 5013 H 481.634 -2.46757 -2.79181 0
M  V30 5014 H 481.747 -4.25628 -2.1995 0
M  V30 5015 H 480.111 -2.21667 -1.25442 0
M  V30 5016 H 480.894 -3.43135 -0.106302 0
M  V30 5017 N 483.339 0.512053 -1.4905 0
M  V30 5018 C 484.271 1.63121 -1.6101 0
M  V30 5019 C 485.284 1.55145 -0.493352 0
M  V30 5020 O 486.473 1.61278 -0.764955 0
M  V30 5021 C 483.573 3.01863 -1.54052 0
M  V30 5022 C 482.746 3.35138 -2.81072 0
M  V30 5023 C 481.805 4.5324 -2.67319 0
M  V30 5024 O 480.831 4.55571 -3.41238 0
M  V30 5025 N 482.033 5.52495 -1.78127 0
M  V30 5026 H 484.798 1.53292 -2.5753 0
M  V30 5027 H 482.359 0.699706 -1.45999 0
M  V30 5028 H 484.351 3.78774 -1.42521 0
M  V30 5029 H 482.921 3.05675 -0.654345 0
M  V30 5030 H 482.141 2.4723 -3.07036 0
M  V30 5031 H 483.429 3.54162 -3.65304 0
M  V30 5032 H 482.827 5.53403 -1.17308 0
M  V30 5033 H 481.384 6.28553 -1.72525 0
M  V30 5034 N 484.817 1.37938 0.762283 0
M  V30 5035 C 486.065 1.33404 1.51815 0
M  V30 5036 C 486.386 -0.0780975 1.94844 0
M  V30 5037 O 485.656 -1.02405 1.67003 0
M  V30 5038 H 484.236 0.490839 0.563104 0
M  V30 5039 H 486.898 1.72527 0.906669 0
M  V30 5040 H 485.994 1.97926 2.41313 0
M  V30 5041 N 486.295 -0.989507 1.22664 0
M  V30 5042 C 487.52 -1.77031 1.08051 0
M  V30 5043 C 487.945 -1.84535 -0.364483 0
M  V30 5044 O 487.303 -1.3003 -1.2634 0
M  V30 5045 C 487.351 -3.18 1.70024 0
M  V30 5046 O 486.455 -4.01161 0.956216 0
M  V30 5047 H 485.796 -0.545008 0.379292 0
M  V30 5048 H 488.326 -1.24277 1.62531 0
M  V30 5049 H 488.336 -3.68616 1.74888 0
M  V30 5050 H 487.011 -3.11853 2.75174 0
M  V30 5051 H 485.588 -3.59687 0.98384 0
M  V30 5052 N 487.773 -1.03688 -1.18687 0
M  V30 5053 C 489.189 -0.755413 -1.4059 0
M  V30 5054 C 489.389 0.656659 -1.905 0
M  V30 5055 O 488.445 1.42144 -2.08689 0
M  V30 5056 C 489.758 -1.7983 -2.41001 0
M  V30 5057 C 491.306 -1.81877 -2.54735 0
M  V30 5058 C 491.781 -2.85148 -3.58406 0
M  V30 5059 N 493.272 -2.84015 -3.6591 0
M  V30 5060 C 494.007 -3.60573 -4.45841 0
M  V30 5061 N 493.503 -4.46871 -5.29413 0
M  V30 5062 N 495.296 -3.49079 -4.40568 0
M  V30 5063 H 487.447 -1.94818 -0.846148 0
M  V30 5064 H 489.71 -0.842727 -0.434184 0
M  V30 5065 H 489.416 -2.81097 -2.1137 0
M  V30 5066 H 489.29 -1.62727 -3.40294 0
M  V30 5067 H 491.677 -0.812836 -2.83685 0
M  V30 5068 H 491.758 -2.03057 -1.55568 0
M  V30 5069 H 491.402 -3.85918 -3.30197 0
M  V30 5070 H 491.332 -2.61224 -4.57241 0
M  V30 5071 H 493.823 -2.21431 -3.0623 0
M  V30 5072 H 494.136 -5.02007 -5.87545 0
M  V30 5073 H 492.481 -4.5094 -5.28846 0
M  V30 5074 H 495.672 -2.81066 -3.74325 0
M  V30 5075 H 495.845 -4.08994 -5.02621 0
M  V30 5076 N 489.251 1.34841 -0.815825 0
M  V30 5077 C 490.497 1.98793 -0.401129 0
M  V30 5078 C 490.83 1.64548 1.03139 0
M  V30 5079 O 490.105 0.913487 1.71714 0
M  V30 5080 C 490.388 3.55143 -0.595409 0
M  V30 5081 C 490.241 3.99155 -2.07352 0
M  V30 5082 C 491.56 4.40092 -0.0268823 0
M  V30 5083 H 488.679 0.722146 -0.14722 0
M  V30 5084 H 491.321 1.59847 -1.02707 0
M  V30 5085 H 489.471 3.8845 -0.0625779 0
M  V30 5086 H 491.143 3.76216 -2.66945 0
M  V30 5087 H 489.386 3.49726 -2.56659 0
M  V30 5088 H 490.057 5.07971 -2.1603 0
M  V30 5089 H 492.533 4.13298 -0.482042 0
M  V30 5090 H 491.409 5.48562 -0.19267 0
M  V30 5091 H 491.67 4.29016 1.06759 0
M  V30 5092 N 490.729 0.570148 1.46925 0
M  V30 5093 C 491.659 -0.158274 2.32963 0
M  V30 5094 C 492.64 -0.896093 1.44583 0
M  V30 5095 O 493.825 -0.874022 1.7342 0
M  V30 5096 C 490.955 -1.18055 3.26619 0
M  V30 5097 C 489.909 -0.558379 4.24342 0
M  V30 5098 C 489.235 -1.68623 5.07415 0
M  V30 5099 C 490.535 0.496295 5.19937 0
M  V30 5100 H 492.229 0.560046 2.94115 0
M  V30 5101 H 489.775 0.270775 1.41431 0
M  V30 5102 H 491.728 -1.69841 3.85658 0
M  V30 5103 H 490.452 -1.92899 2.63548 0
M  V30 5104 H 489.111 -0.0617157 3.66548 0
M  V30 5105 H 488.759 -2.42402 4.40738 0
M  V30 5106 H 488.459 -1.27564 5.73586 0
M  V30 5107 H 489.983 -2.20709 5.69315 0
M  V30 5108 H 491.397 0.0640052 5.73264 0
M  V30 5109 H 489.794 0.82649 5.94381 0
M  V30 5110 H 490.864 1.38735 4.6463 0
M  V30 5111 N 492.207 -1.54576 0.307264 0
M  V30 5112 C 493.17 -2.22423 -0.553224 0
M  V30 5113 C 494.17 -1.21231 -1.05639 0
M  V30 5114 O 495.36 -1.45923 -0.951419 0
M  V30 5115 C 492.492 -2.91552 -1.76664 0
M  V30 5116 H 493.685 -2.99874 0.0396484 0
M  V30 5117 H 491.238 -1.56192 0.0581629 0
M  V30 5118 H 491.973 -2.18196 -2.39918 0
M  V30 5119 H 491.758 -3.65738 -1.41343 0
M  V30 5120 H 493.248 -3.43292 -2.37783 0
M  V30 5121 N 493.685 -0.035106 -1.57561 0
M  V30 5122 C 494.913 0.652258 -1.9635 0
M  V30 5123 C 495.328 1.65317 -0.911897 0
M  V30 5124 O 494.685 1.82194 0.105657 0
M  V30 5125 C 494.736 1.35337 -3.35211 0
M  V30 5126 O 494.457 0.392548 -4.36338 0
M  V30 5127 C 495.958 2.13199 -3.88666 0
M  V30 5128 H 493.178 0.179444 -0.646561 0
M  V30 5129 H 495.722 -0.0966459 -2.04271 0
M  V30 5130 H 493.877 2.05362 -3.28489 0
M  V30 5131 H 494.291 0.891097 -5.16875 0
M  V30 5132 H 495.765 2.577 -4.88154 0
M  V30 5133 H 496.242 2.97353 -3.23231 0
M  V30 5134 H 496.848 1.48118 -3.98674 0
M  V30 5135 N 495.163 1.55791 0.238111 0
M  V30 5136 C 496.093 1.94068 1.29846 0
M  V30 5137 C 497.074 0.806726 1.49753 0
M  V30 5138 O 498.259 1.06772 1.62214 0
M  V30 5139 C 495.389 2.24302 2.65153 0
M  V30 5140 C 494.343 3.40032 2.59927 0
M  V30 5141 C 493.669 3.55829 3.99111 0
M  V30 5142 C 494.969 4.75476 2.16148 0
M  V30 5143 H 496.663 2.82887 0.980563 0
M  V30 5144 H 494.209 1.36105 0.470253 0
M  V30 5145 H 496.162 2.4967 3.39475 0
M  V30 5146 H 494.886 1.32318 2.98596 0
M  V30 5147 H 493.545 3.14687 1.88063 0
M  V30 5148 H 493.193 2.6125 4.29834 0
M  V30 5149 H 492.893 4.3366 3.96501 0
M  V30 5150 H 494.417 3.83528 4.7512 0
M  V30 5151 H 495.831 5.00158 2.80205 0
M  V30 5152 H 494.228 5.56472 2.24631 0
M  V30 5153 H 495.298 4.71946 1.11333 0
M  V30 5154 N 496.642 -0.504142 1.49319 0
M  V30 5155 C 498.058 -0.835039 1.36012 0
M  V30 5156 C 498.258 -1.97674 0.390808 0
M  V30 5157 O 497.314 -2.51867 -0.178655 0
M  V30 5158 C 498.627 -1.17821 2.76656 0
M  V30 5159 C 500.175 -1.2866 2.85334 0
M  V30 5160 C 500.65 -1.66307 4.26739 0
M  V30 5161 N 502.141 -1.73362 4.29534 0
M  V30 5162 C 502.876 -2.0393 5.35911 0
M  V30 5163 N 502.372 -2.32744 6.52535 0
M  V30 5164 N 504.165 -2.05155 5.23324 0
M  V30 5165 H 496.316 0.248764 2.10938 0
M  V30 5166 H 498.579 0.0486962 0.946748 0
M  V30 5167 H 498.285 -0.412682 3.4927 0
M  V30 5168 H 498.159 -2.12239 3.11825 0
M  V30 5169 H 500.546 -2.04285 2.1296 0
M  V30 5170 H 500.627 -0.323004 2.53752 0
M  V30 5171 H 500.271 -0.91234 4.99639 0
M  V30 5172 H 500.201 -2.63761 4.55782 0
M  V30 5173 H 502.692 -1.53268 3.45424 0
M  V30 5174 H 503.005 -2.55248 7.2943 0
M  V30 5175 H 501.35 -2.30207 6.55767 0
M  V30 5176 H 504.541 -1.82119 4.3122 0
M  V30 5177 H 504.714 -2.28644 6.06322 0
M  V30 5178 N 498.12 -1.38341 -0.754957 0
M  V30 5179 C 499.368 -1.34208 -1.51105 0
M  V30 5180 C 499.689 0.0677634 -1.94882 0
M  V30 5181 O 498.959 1.01517 -1.67544 0
M  V30 5182 H 497.539 -0.493819 -0.560493 0
M  V30 5183 H 500.201 -1.73005 -0.897507 0
M  V30 5184 H 499.297 -1.99203 -2.4026 0
M  V30 5185 N 499.598 0.982988 -1.23187 0
M  V30 5186 C 500.53 2.07729 -0.968572 0
M  V30 5187 C 501.543 1.62702 0.0564821 0
M  V30 5188 O 502.732 1.77603 -0.178733 0
M  V30 5189 C 499.832 3.36071 -0.436974 0
M  V30 5190 C 499.005 4.10081 -1.52159 0
M  V30 5191 C 498.064 5.16701 -0.99532 0
M  V30 5192 O 497.09 5.43727 -1.68373 0
M  V30 5193 N 498.292 5.80226 0.178192 0
M  V30 5194 H 501.057 2.30894 -1.9107 0
M  V30 5195 H 498.618 1.14949 -1.1401 0
M  V30 5196 H 500.61 4.04639 -0.0700051 0
M  V30 5197 H 499.18 3.09893 0.410509 0
M  V30 5198 H 498.4 3.36004 -2.06144 0
M  V30 5199 H 499.688 4.56295 -2.25105 0
M  V30 5200 H 499.086 5.60651 0.754096 0
M  V30 5201 H 497.643 6.49982 0.486449 0
M  V30 5202 N 501.076 1.04316 1.18135 0
M  V30 5203 C 502.322 0.749128 1.88457 0
M  V30 5204 C 502.655 -0.72149 1.803 0
M  V30 5205 O 501.93 -1.52676 1.205 0
M  V30 5206 C 502.213 1.21905 3.38838 0
M  V30 5207 C 502.066 2.75195 3.55792 0
M  V30 5208 C 503.385 0.811085 4.32561 0
M  V30 5209 H 500.504 0.273611 0.684329 0
M  V30 5210 H 503.146 1.29561 1.38975 0
M  V30 5211 H 501.296 0.754137 3.8111 0
M  V30 5212 H 502.968 3.29743 3.22595 0
M  V30 5213 H 501.211 3.14899 2.98364 0
M  V30 5214 H 501.882 3.03135 4.61317 0
M  V30 5215 H 504.358 1.21118 3.98082 0
M  V30 5216 H 503.234 1.16761 5.36338 0
M  V30 5217 H 503.495 -0.285596 4.41177 0
M  V30 5218 N 502.554 -1.34406 0.822964 0
M  V30 5219 C 503.484 -2.32052 0.259608 0
M  V30 5220 C 504.465 -1.58243 -0.623961 0
M  V30 5221 O 505.65 -1.86224 -0.55083 0
M  V30 5222 C 502.78 -3.42434 -0.579314 0
M  V30 5223 C 501.734 -4.27499 0.20712 0
M  V30 5224 C 501.06 -5.29349 -0.754547 0
M  V30 5225 C 502.36 -5.02758 1.41533 0
M  V30 5226 H 504.054 -2.79418 1.07545 0
M  V30 5227 H 501.6 -1.34338 0.518593 0
M  V30 5228 H 503.553 -4.0976 -0.983612 0
M  V30 5229 H 502.277 -2.93717 -1.4282 0
M  V30 5230 H 500.936 -3.61776 0.592787 0
M  V30 5231 H 500.584 -4.76895 -1.59939 0
M  V30 5232 H 500.284 -5.8714 -0.232561 0
M  V30 5233 H 501.808 -5.99544 -1.1567 0
M  V30 5234 H 503.222 -5.62938 1.08504 0
M  V30 5235 H 501.619 -5.70123 1.87296 0
M  V30 5236 H 502.689 -4.32451 2.1935 0
M  V30 5237 N 504.032 -0.577932 -1.46621 0
M  V30 5238 C 504.962 0.145917 -2.33044 0
M  V30 5239 C 505.943 0.888412 -1.45056 0
M  V30 5240 O 507.128 0.864812 -1.73881 0
M  V30 5241 C 504.258 1.16322 -3.27241 0
M  V30 5242 C 503.212 0.535868 -4.24632 0
M  V30 5243 C 502.538 1.65929 -5.08303 0
M  V30 5244 C 503.838 -0.523861 -5.19666 0
M  V30 5245 H 505.532 -0.575636 -2.93814 0
M  V30 5246 H 503.078 -0.278272 -1.41286 0
M  V30 5247 H 505.031 1.67793 -3.86553 0
M  V30 5248 H 503.755 1.91498 -2.64567 0
M  V30 5249 H 502.414 0.0422759 -3.66576 0
M  V30 5250 H 502.062 2.40061 -4.42018 0
M  V30 5251 H 501.762 1.2452 -5.74255 0
M  V30 5252 H 503.286 2.17686 -5.70478 0
M  V30 5253 H 504.7 -0.0944059 -5.73222 0
M  V30 5254 H 503.097 -0.858 -5.93935 0
M  V30 5255 H 504.167 -1.41197 -4.63887 0
M  V30 5256 N 505.51 1.54411 -0.315457 0
M  V30 5257 C 506.758 2.00023 0.288971 0
M  V30 5258 C 507.079 1.20529 1.5329 0
M  V30 5259 O 506.349 0.304986 1.93511 0
M  V30 5260 H 504.929 0.738891 0.109766 0
M  V30 5261 H 507.591 1.90094 -0.430129 0
M  V30 5262 H 506.687 3.07198 0.550999 0
M  V30 5263 N 506.988 0.0434614 1.5754 0
M  V30 5264 C 508.404 -0.313039 1.565 0
M  V30 5265 C 508.604 -1.71954 1.05043 0
M  V30 5266 O 507.66 -2.425 0.703564 0
M  V30 5267 C 508.973 -0.148544 3.00333 0
M  V30 5268 C 510.521 -0.220231 3.12224 0
M  V30 5269 C 510.996 -0.0843565 4.57922 0
M  V30 5270 N 512.487 -0.140881 4.62986 0
M  V30 5271 C 513.222 -0.0597443 5.73369 0
M  V30 5272 N 512.718 0.0733004 6.92761 0
M  V30 5273 N 514.511 -0.11477 5.61983 0
M  V30 5274 H 506.662 0.96303 1.89313 0
M  V30 5275 H 508.925 0.373164 0.871466 0
M  V30 5276 H 508.631 0.820894 3.41986 0
M  V30 5277 H 508.505 -0.912798 3.65989 0
M  V30 5278 H 510.892 -1.18014 2.70475 0
M  V30 5279 H 510.973 0.574646 2.49262 0
M  V30 5280 H 510.617 0.872192 5.00355 0
M  V30 5281 H 510.547 -0.898281 5.18882 0
M  V30 5282 H 513.038 -0.243273 3.77116 0
M  V30 5283 H 513.351 0.128128 7.72694 0
M  V30 5284 H 511.696 0.10828 6.94916 0
M  V30 5285 H 514.887 -0.217212 4.67596 0
M  V30 5286 H 515.06 -0.0480779 6.47982 0
M  V30 5287 N 508.466 -1.55915 -0.229846 0
M  V30 5288 C 509.714 -1.7819 -0.953565 0
M  V30 5289 C 510.035 -0.610504 -1.85197 0
M  V30 5290 O 509.305 0.372988 -1.92316 0
M  V30 5291 H 507.885 -0.657208 -0.355087 0
M  V30 5292 H 510.547 -1.9337 -0.243693 0
M  V30 5293 H 509.643 -2.70011 -1.56527 0
M  V30 5294 N 509.944 0.496216 -1.49584 0
M  V30 5295 C 511.19 1.25189 -1.59548 0
M  V30 5296 C 511.523 1.9212 -0.283466 0
M  V30 5297 O 510.798 1.80947 0.713324 0
M  V30 5298 C 511.081 2.31516 -2.75812 0
M  V30 5299 C 510.934 1.69054 -4.16822 0
M  V30 5300 C 512.253 3.3304 -2.87702 0
M  V30 5301 H 509.372 0.45379 -0.580727 0
M  V30 5302 H 512.014 0.549327 -1.81886 0
M  V30 5303 H 510.164 2.91438 -2.56897 0
M  V30 5304 H 511.836 1.12923 -4.47265 0
M  V30 5305 H 510.079 0.994485 -4.22247 0
M  V30 5306 H 510.75 2.462 -4.94054 0
M  V30 5307 H 513.226 2.83114 -3.04936 0
M  V30 5308 H 512.102 4.04794 -3.7072 0
M  V30 5309 H 512.363 3.95655 -1.97255 0
M  V30 5310 N 511.423 1.38739 0.74761 0
M  V30 5311 C 512.671 1.35007 1.50391 0
M  V30 5312 C 512.992 -0.0574274 1.94915 0
M  V30 5313 O 512.262 -1.00628 1.6808 0
M  V30 5314 H 510.842 0.496784 0.557866 0
M  V30 5315 H 513.504 1.73479 0.888319 0
M  V30 5316 H 512.6 2.00474 2.392 0
M  V30 5317 N 512.901 -0.976442 1.23707 0
M  V30 5318 C 513.864 -2.0511 1.02287 0
M  V30 5319 C 514.864 -1.60791 -0.0167195 0
M  V30 5320 O 516.054 -1.72761 0.223408 0
M  V30 5321 C 513.186 -3.36458 0.548507 0
M  V30 5322 H 514.379 -2.25545 1.9766 0
M  V30 5323 H 511.932 -1.15042 1.05806 0
M  V30 5324 H 512.667 -3.21713 -0.408818 0
M  V30 5325 H 512.452 -3.69967 1.29874 0
M  V30 5326 H 513.942 -4.15489 0.419406 0
M  V30 5327 N 514.379 -1.04941 -1.1758 0
M  V30 5328 C 515.628 -0.753124 -1.87112 0
M  V30 5329 C 515.941 0.722507 -1.81767 0
M  V30 5330 O 517.147 1.13265 -2.46746 0
M  V30 5331 C 515.603 -1.29695 -3.35719 0
M  V30 5332 C 515.211 -2.80184 -3.49572 0
M  V30 5333 C 516.955 -1.07759 -4.10595 0
M  V30 5334 C 514.862 -3.2788 -4.92187 0
M  V30 5335 H 513.792 -0.278034 -0.700866 0
M  V30 5336 H 516.443 -1.26637 -1.32798 0
M  V30 5337 H 514.825 -0.711522 -3.89555 0
M  V30 5338 H 515.999 -3.44561 -3.05965 0
M  V30 5339 H 514.314 -3.00632 -2.88113 0
M  V30 5340 H 516.911 -1.40899 -5.15802 0
M  V30 5341 H 517.254 -0.0152302 -4.16297 0
M  V30 5342 H 517.787 -1.62809 -3.62957 0
M  V30 5343 H 514.526 -4.33535 -4.91658 0
M  V30 5344 H 514.046 -2.68245 -5.36475 0
M  V30 5345 H 515.725 -3.22412 -5.60945 0
M  V30 5346 N 515.857 1.33968 -0.830081 0
M  V30 5347 C 517.105 1.97672 -0.420734 0
M  V30 5348 C 517.426 1.66111 1.02138 0
M  V30 5349 O 516.696 0.955503 1.71017 0
M  V30 5350 H 515.276 0.73125 -0.152587 0
M  V30 5351 H 517.938 1.63483 -1.0611 0
M  V30 5352 H 517.034 3.07294 -0.545588 0
M  V30 5353 N 517.335 0.585699 1.46312 0
M  V30 5354 C 518.583 0.072278 2.01971 0
M  V30 5355 C 518.904 -1.29345 1.45928 0
M  V30 5356 O 518.174 -1.84973 0.645109 0
M  V30 5357 H 516.754 0.023729 0.746623 0
M  V30 5358 H 519.416 0.762155 1.7938 0
M  V30 5359 H 518.512 0.00552767 3.121 0
M  V30 5360 N 518.813 -1.54241 0.323641 0
M  V30 5361 C 519.745 -2.21836 -0.576311 0
M  V30 5362 C 520.758 -1.21837 -1.07979 0
M  V30 5363 O 521.947 -1.48306 -0.99336 0
M  V30 5364 C 519.047 -2.86923 -1.80356 0
M  V30 5365 C 518.22 -4.1306 -1.43875 0
M  V30 5366 C 517.279 -4.6174 -2.52353 0
M  V30 5367 O 516.305 -5.26421 -2.16494 0
M  V30 5368 N 517.507 -4.35974 -3.83284 0
M  V30 5369 H 520.272 -2.997 0.00247987 0
M  V30 5370 H 517.833 -1.61233 0.146848 0
M  V30 5371 H 519.825 -3.16414 -2.52318 0
M  V30 5372 H 518.395 -2.12765 -2.29019 0
M  V30 5373 H 517.615 -3.90334 -0.550752 0
M  V30 5374 H 518.903 -4.95148 -1.17071 0
M  V30 5375 H 518.301 -3.84203 -4.15216 0
M  V30 5376 H 516.858 -4.70119 -4.51477 0
M  V30 5377 N 520.291 -0.0518155 -1.57515 0
M  V30 5378 C 521.537 0.616839 -1.93821 0
M  V30 5379 C 521.892 1.68413 -0.930307 0
M  V30 5380 O 521.185 1.91534 0.0504231 0
M  V30 5381 C 521.379 1.25607 -3.34601 0
M  V30 5382 C 521.208 0.252222 -4.48992 0
M  V30 5383 C 519.978 -0.156031 -5.05059 0
M  V30 5384 C 522.176 -0.502613 -5.11838 0
M  V30 5385 N 520.158 -1.15267 -6.02981 0
M  V30 5386 C 521.529 -1.35232 -6.05072 0
M  V30 5387 C 523.584 -0.560855 -4.94731 0
M  V30 5388 C 522.287 -2.25505 -6.83037 0
M  V30 5389 C 524.313 -1.45102 -5.73323 0
M  V30 5390 C 523.675 -2.28845 -6.6619 0
M  V30 5391 H 519.774 0.197344 -0.75669 0
M  V30 5392 H 522.358 -0.124297 -1.94303 0
M  V30 5393 H 520.529 1.96723 -3.34895 0
M  V30 5394 H 522.261 1.88358 -3.58195 0
M  V30 5395 H 519.016 0.22306 -4.73074 0
M  V30 5396 H 519.44 -1.64791 -6.56638 0
M  V30 5397 H 524.082 0.0723639 -4.22738 0
M  V30 5398 H 521.8 -2.89872 -7.54321 0
M  V30 5399 H 525.386 -1.50066 -5.62113 0
M  V30 5400 H 524.266 -2.96608 -7.25943 0
M  V30 5401 N 521.769 1.56035 0.221574 0
M  V30 5402 C 523.015 1.80221 0.942973 0
M  V30 5403 C 523.37 0.624799 1.81973 0
M  V30 5404 O 522.663 -0.381145 1.87771 0
M  V30 5405 C 522.857 3.07813 1.8162 0
M  V30 5406 C 522.686 4.37852 1.02548 0
M  V30 5407 C 521.456 5.00138 0.720418 0
M  V30 5408 C 523.654 5.12813 0.390799 0
M  V30 5409 N 521.636 6.13831 -0.0917139 0
M  V30 5410 C 523.007 6.19346 -0.284728 0
M  V30 5411 C 525.062 4.96972 0.303828 0
M  V30 5412 C 523.765 7.11758 -1.03891 0
M  V30 5413 C 525.791 5.89784 -0.436883 0
M  V30 5414 C 525.153 6.95743 -1.10095 0
M  V30 5415 H 521.252 0.711117 0.325325 0
M  V30 5416 H 523.836 1.93522 0.213854 0
M  V30 5417 H 522.007 2.95795 2.51714 0
M  V30 5418 H 523.739 3.20191 2.47508 0
M  V30 5419 H 520.494 4.62075 1.03843 0
M  V30 5420 H 520.918 6.75249 -0.486615 0
M  V30 5421 H 525.56 4.15107 0.802896 0
M  V30 5422 H 523.278 7.93105 -1.54949 0
M  V30 5423 H 526.864 5.79603 -0.505181 0
M  V30 5424 H 525.744 7.66322 -1.66495 0
M  V30 5425 N 523.247 -0.488276 1.49845 0
M  V30 5426 C 524.663 -0.820566 1.3689 0
M  V30 5427 C 524.863 -1.97248 0.411752 0
M  V30 5428 O 523.919 -2.52042 -0.151931 0
M  V30 5429 C 525.232 -1.1488 2.77891 0
M  V30 5430 C 526.78 -1.25626 2.86683 0
M  V30 5431 C 527.255 -1.61772 4.28479 0
M  V30 5432 N 528.746 -1.68797 4.31349 0
M  V30 5433 C 529.481 -1.98235 5.38043 0
M  V30 5434 N 528.977 -2.2581 6.54967 0
M  V30 5435 N 530.77 -1.99593 5.2547 0
M  V30 5436 H 522.921 0.271123 2.10662 0
M  V30 5437 H 525.184 0.058735 0.946179 0
M  V30 5438 H 524.89 -0.375614 3.49688 0
M  V30 5439 H 524.764 -2.08919 3.14058 0
M  V30 5440 H 527.151 -2.02014 2.15114 0
M  V30 5441 H 527.232 -0.296072 2.54081 0
M  V30 5442 H 526.876 -0.859295 5.00578 0
M  V30 5443 H 526.806 -2.58912 4.58554 0
M  V30 5444 H 529.297 -1.49595 3.4703 0
M  V30 5445 H 529.61 -2.47497 7.32096 0
M  V30 5446 H 527.955 -2.23239 6.58171 0
M  V30 5447 H 531.146 -1.77535 4.33127 0
M  V30 5448 H 531.319 -2.222 6.08713 0
M  V30 5449 N 524.725 -1.39134 -0.740242 0
M  V30 5450 C 526.141 -1.20623 -1.0451 0
M  V30 5451 C 526.341 -0.0641651 -2.01398 0
M  V30 5452 O 525.397 0.585843 -2.4561 0
M  V30 5453 C 526.71 -2.53815 -1.6124 0
M  V30 5454 C 528.258 -2.60615 -1.73346 0
M  V30 5455 C 528.733 -3.94015 -2.33486 0
M  V30 5456 N 530.224 -3.95627 -2.40902 0
M  V30 5457 C 530.959 -4.95616 -2.88361 0
M  V30 5458 N 530.455 -6.06003 -3.35756 0
M  V30 5459 N 532.248 -4.82998 -2.87523 0
M  V30 5460 H 524.399 -2.12176 -0.0975576 0
M  V30 5461 H 526.662 -0.942066 -0.105904 0
M  V30 5462 H 526.368 -3.37911 -0.975144 0
M  V30 5463 H 526.242 -2.73162 -2.6012 0
M  V30 5464 H 528.629 -1.76906 -2.36195 0
M  V30 5465 H 528.71 -2.45123 -0.731336 0
M  V30 5466 H 528.354 -4.78153 -1.71267 0
M  V30 5467 H 528.284 -4.06825 -3.34366 0
M  V30 5468 H 530.775 -3.15903 -2.07398 0
M  V30 5469 H 531.088 -6.78215 -3.70464 0
M  V30 5470 H 529.433 -6.09604 -3.33778 0
M  V30 5471 H 532.624 -3.95866 -2.49816 0
M  V30 5472 H 532.797 -5.61072 -3.24196 0
M  V30 5473 N 526.204 0.969867 -1.24223 0
M  V30 5474 C 527.62 1.23809 -1.00716 0
M  V30 5475 C 527.82 1.99469 0.285358 0
M  V30 5476 O 526.876 2.31764 1.00207 0
M  V30 5477 C 528.189 2.02734 -2.2208 0
M  V30 5478 C 529.737 2.15834 -2.26681 0
M  V30 5479 C 530.212 2.98154 -3.47661 0
M  V30 5480 N 531.703 3.05737 -3.47964 0
M  V30 5481 C 532.438 3.69785 -4.38231 0
M  V30 5482 N 531.934 4.35569 -5.3875 0
M  V30 5483 N 533.727 3.66775 -4.25949 0
M  V30 5484 H 525.878 0.463294 -2.07286 0
M  V30 5485 H 528.141 0.267348 -0.909521 0
M  V30 5486 H 527.847 1.54524 -3.15935 0
M  V30 5487 H 527.721 3.0347 -2.24021 0
M  V30 5488 H 530.108 2.63248 -1.33359 0
M  V30 5489 H 530.189 1.14453 -2.28767 0
M  V30 5490 H 529.833 2.51435 -4.41297 0
M  V30 5491 H 529.763 3.99729 -3.42818 0
M  V30 5492 H 532.254 2.58941 -2.75242 0
M  V30 5493 H 532.567 4.82251 -6.03866 0
M  V30 5494 H 530.912 4.34244 -5.42639 0
M  V30 5495 H 534.103 3.14558 -3.46657 0
M  V30 5496 H 534.276 4.16407 -4.96497 0
M  V30 5497 N 527.682 1.05563 1.17022 0
M  V30 5498 C 528.645 0.664098 2.19368 0
M  V30 5499 C 529.645 -0.286358 1.5823 0
M  V30 5500 O 530.835 -0.069728 1.7406 0
M  V30 5501 C 527.967 -0.0239932 3.40892 0
M  V30 5502 H 529.16 1.57 2.55521 0
M  V30 5503 H 526.713 0.849964 1.31169 0
M  V30 5504 H 527.448 -0.942988 3.10287 0
M  V30 5505 H 527.233 0.659351 3.86516 0
M  V30 5506 H 528.723 -0.283909 4.16634 0
M  V30 5507 N 529.16 -1.33526 0.837174 0
M  V30 5508 C 530.092 -2.28077 0.226579 0
M  V30 5509 C 531.105 -1.51666 -0.591717 0
M  V30 5510 O 532.294 -1.73511 -0.419064 0
M  V30 5511 C 529.394 -3.31597 -0.69978 0
M  V30 5512 C 528.567 -4.37329 0.0788067 0
M  V30 5513 C 527.626 -5.20526 -0.770637 0
M  V30 5514 O 526.652 -5.68811 -0.210453 0
M  V30 5515 N 527.854 -5.41639 -2.08825 0
M  V30 5516 H 530.619 -2.81115 1.03897 0
M  V30 5517 H 528.18 -1.46201 0.695476 0
M  V30 5518 H 530.172 -3.84158 -1.27298 0
M  V30 5519 H 528.742 -2.78848 -1.41288 0
M  V30 5520 H 527.962 -3.8529 0.833381 0
M  V30 5521 H 529.25 -5.05079 0.614238 0
M  V30 5522 H 528.648 -5.04108 -2.56693 0
M  V30 5523 H 527.205 -5.97263 -2.60998 0
M  V30 5524 N 530.638 -0.59345 -1.46 0
M  V30 5525 C 531.568 0.121192 -2.33185 0
M  V30 5526 C 532.549 0.872977 -1.4599 0
M  V30 5527 O 533.734 0.846321 -1.74789 0
M  V30 5528 C 530.864 1.12844 -3.28456 0
M  V30 5529 C 529.818 0.4908 -4.25177 0
M  V30 5530 C 529.144 1.60529 -5.10034 0
M  V30 5531 C 530.444 -0.578949 -5.19081 0
M  V30 5532 H 532.138 -0.606767 -2.93187 0
M  V30 5533 H 529.684 -0.293242 -1.40983 0
M  V30 5534 H 531.637 1.63684 -3.88311 0
M  V30 5535 H 530.361 1.88681 -2.66584 0
M  V30 5536 H 529.02 0.00339328 -3.666 0
M  V30 5537 H 528.668 2.35359 -4.44539 0
M  V30 5538 H 528.368 1.18422 -5.75543 0
M  V30 5539 H 529.892 2.11623 -5.72755 0
M  V30 5540 H 531.306 -0.155199 -5.7309 0
M  V30 5541 H 529.703 -0.920947 -5.92991 0
M  V30 5542 H 530.773 -1.46109 -4.62364 0
M  V30 5543 N 532.116 1.54067 -0.331816 0
M  V30 5544 C 533.344 2.05131 0.269996 0
M  V30 5545 C 533.759 1.20749 1.45138 0
M  V30 5546 O 533.116 0.240069 1.80914 0
M  V30 5547 C 533.167 3.54728 0.696456 0
M  V30 5548 O 532.888 4.35906 -0.43794 0
M  V30 5549 C 534.389 4.21916 1.36021 0
M  V30 5550 H 531.609 0.668807 0.0542042 0
M  V30 5551 H 534.153 1.98777 -0.4804 0
M  V30 5552 H 532.308 3.61342 1.39681 0
M  V30 5553 H 532.722 5.24404 -0.100334 0
M  V30 5554 H 534.196 5.28015 1.60947 0
M  V30 5555 H 534.673 3.73538 2.31011 0
M  V30 5556 H 535.279 4.19463 0.702212 0
M  V30 5557 N 533.594 0.0601682 1.57485 0
M  V30 5558 C 535.01 -0.296422 1.56823 0
M  V30 5559 C 535.21 -1.70831 1.0686 0
M  V30 5560 O 534.266 -2.4174 0.729245 0
M  V30 5561 C 535.579 -0.116681 3.00474 0
M  V30 5562 C 537.127 -0.187103 3.1244 0
M  V30 5563 C 537.602 -0.035783 4.57986 0
M  V30 5564 N 539.093 -0.0917676 4.63109 0
M  V30 5565 C 539.828 0.00107251 5.734 0
M  V30 5566 N 539.324 0.146773 6.92645 0
M  V30 5567 N 541.117 -0.0551577 5.62073 0
M  V30 5568 H 533.268 0.983055 1.88281 0
M  V30 5569 H 535.531 0.382386 0.867459 0
M  V30 5570 H 535.237 0.85712 3.41096 0
M  V30 5571 H 535.111 -0.873929 3.66936 0
M  V30 5572 H 537.498 -1.15138 2.71712 0
M  V30 5573 H 537.579 0.601052 2.48638 0
M  V30 5574 H 537.223 0.925212 4.99402 0
M  V30 5575 H 537.153 -0.843196 5.19806 0
M  V30 5576 H 539.644 -0.203261 3.77353 0
M  V30 5577 H 539.957 0.210076 7.72514 0
M  V30 5578 H 538.302 0.181979 6.94762 0
M  V30 5579 H 541.493 -0.167605 4.678 0
M  V30 5580 H 541.666 0.020652 6.47997 0
M  V30 5581 N 535.072 -1.5615 -0.213296 0
M  V30 5582 C 535.982 -1.96265 -1.28519 0
M  V30 5583 C 536.998 -0.86765 -1.50824 0
M  V30 5584 O 538.174 -1.17191 -1.63793 0
M  V30 5585 C 535.239 -2.27836 -2.61327 0
M  V30 5586 C 534.3 -3.50949 -2.47252 0
M  V30 5587 C 533.533 -3.81004 -3.73727 0
M  V30 5588 O 533.756 -3.12612 -4.77106 0
M  V30 5589 O 532.69 -4.74477 -3.70344 0
M  V30 5590 H 536.516 -2.87631 -0.974795 0
M  V30 5591 H 534.101 -1.43467 -0.416832 0
M  V30 5592 H 535.983 -2.49299 -3.39747 0
M  V30 5593 H 534.658 -1.39643 -2.9203 0
M  V30 5594 H 533.565 -3.34754 -1.67004 0
M  V30 5595 H 534.898 -4.39551 -2.21486 0
M  V30 5596 N 536.55 0.480323 -1.50102 0
M  V30 5597 C 537.497 1.57946 -1.6829 0
M  V30 5598 C 538.467 1.57611 -0.524223 0
M  V30 5599 O 539.652 1.75282 -0.753709 0
M  V30 5600 C 536.792 2.95978 -1.77457 0
M  V30 5601 C 535.905 3.06173 -3.04766 0
M  V30 5602 C 535.04 4.35063 -3.04784 0
M  V30 5603 C 534.079 4.38966 -4.26586 0
M  V30 5604 N 533.216 5.59314 -4.24396 0
M  V30 5605 H 538.056 1.41743 -2.62131 0
M  V30 5606 H 535.593 0.689304 -1.2995 0
M  V30 5607 H 537.551 3.76011 -1.80752 0
M  V30 5608 H 536.181 3.10837 -0.870637 0
M  V30 5609 H 535.233 2.19071 -3.10986 0
M  V30 5610 H 536.545 3.04916 -3.9475 0
M  V30 5611 H 535.699 5.23436 -3.06757 0
M  V30 5612 H 534.438 4.38915 -2.12614 0
M  V30 5613 H 533.443 3.48992 -4.24835 0
M  V30 5614 H 534.668 4.36813 -5.19972 0
M  V30 5615 H 532.614 5.63969 -3.35074 0
M  V30 5616 H 532.531 5.5976 -5.08138 0
M  V30 5617 H 533.799 6.49837 -4.30502 0
M  V30 5618 N 538.028 1.39524 0.732853 0
M  V30 5619 C 539.444 1.21176 1.03868 0
M  V30 5620 C 539.644 0.0748448 2.01361 0
M  V30 5621 O 538.7 -0.57281 2.45917 0
M  V30 5622 C 540.013 2.54667 1.59892 0
M  V30 5623 C 541.561 2.6153 1.71962 0
M  V30 5624 C 542.036 3.95248 2.31394 0
M  V30 5625 N 543.527 3.96899 2.38801 0
M  V30 5626 C 544.262 4.97138 2.85729 0
M  V30 5627 N 543.758 6.07775 3.32537 0
M  V30 5628 N 545.551 4.84516 2.84957 0
M  V30 5629 H 537.702 2.12225 0.086304 0
M  V30 5630 H 539.965 0.942614 0.100907 0
M  V30 5631 H 539.671 3.38423 0.95721 0
M  V30 5632 H 539.545 2.74538 2.58668 0
M  V30 5633 H 541.932 1.78156 2.35254 0
M  V30 5634 H 542.013 2.45507 0.718327 0
M  V30 5635 H 541.657 4.79054 1.68729 0
M  V30 5636 H 541.587 4.08593 3.32204 0
M  V30 5637 H 544.078 3.16998 2.05719 0
M  V30 5638 H 544.391 6.8017 3.66862 0
M  V30 5639 H 542.736 6.11366 3.30541 0
M  V30 5640 H 545.927 3.97185 2.47713 0
M  V30 5641 H 546.1 5.62783 3.21215 0
M  V30 5642 N 539.506 -0.963266 1.24736 0
M  V30 5643 C 540.753 -1.7068 1.0897 0
M  V30 5644 C 541.081 -1.90934 -0.370751 0
M  V30 5645 O 540.336 -1.47155 -1.29011 0
M  V30 5646 C 540.635 -3.09944 1.7796 0
M  V30 5647 C 540.301 -3.09518 3.27887 0
M  V30 5648 C 538.963 -3.09109 3.68789 0
M  V30 5649 C 541.315 -3.03509 4.23712 0
M  V30 5650 C 538.643 -3.00429 5.03944 0
M  V30 5651 C 540.995 -2.96371 5.5888 0
M  V30 5652 C 539.659 -2.94293 5.99123 0
M  V30 5653 H 538.929 -0.624564 0.398749 0
M  V30 5654 H 541.576 -1.12603 1.54896 0
M  V30 5655 H 539.881 -3.71513 1.2444 0
M  V30 5656 H 541.578 -3.66278 1.63222 0
M  V30 5657 H 538.168 -3.10603 2.95337 0
M  V30 5658 H 542.352 -3.0295 3.93109 0
M  V30 5659 H 537.608 -2.97183 5.34314 0
M  V30 5660 H 541.782 -2.90681 6.32833 0
M  V30 5661 H 539.409 -2.87322 7.03811 0
M  V30 5662 N 540.985 -1.06182 -1.16461 0
M  V30 5663 C 542.213 -0.798583 -1.90867 0
M  V30 5664 C 542.628 0.646921 -1.77371 0
M  V30 5665 O 541.985 1.44279 -1.11758 0
M  V30 5666 C 542.036 -1.18258 -3.4161 0
M  V30 5667 O 541.757 -2.57135 -3.54701 0
M  V30 5668 C 543.258 -0.946917 -4.33069 0
M  V30 5669 H 540.478 -0.289603 -0.605286 0
M  V30 5670 H 543.022 -1.41515 -1.47627 0
M  V30 5671 H 541.177 -0.610562 -3.82558 0
M  V30 5672 H 541.591 -2.72477 -4.4817 0
M  V30 5673 H 543.065 -1.26523 -5.37304 0
M  V30 5674 H 543.542 0.117406 -4.39043 0
M  V30 5675 H 544.148 -1.50326 -3.97847 0
M  V30 5676 N 542.463 1.3308 -0.844243 0
M  V30 5677 C 543.71 1.97605 -0.44255 0
M  V30 5678 C 544.038 1.66856 0.999458 0
M  V30 5679 O 543.293 0.943586 1.7145 0
M  V30 5680 C 543.592 3.52045 -0.616354 0
M  V30 5681 C 543.258 4.02757 -2.02726 0
M  V30 5682 C 541.92 4.16316 -2.41317 0
M  V30 5683 C 544.272 4.29776 -2.9486 0
M  V30 5684 C 541.6 4.54232 -3.71335 0
M  V30 5685 C 543.952 4.69146 -4.24364 0
M  V30 5686 C 542.616 4.80911 -4.62904 0
M  V30 5687 H 541.886 0.723088 -0.161941 0
M  V30 5688 H 544.533 1.58663 -1.0723 0
M  V30 5689 H 542.838 3.91681 0.0966812 0
M  V30 5690 H 544.535 3.99981 -0.285756 0
M  V30 5691 H 541.125 3.9268 -1.71756 0
M  V30 5692 H 545.309 4.18818 -2.6628 0
M  V30 5693 H 540.565 4.61535 -4.00993 0
M  V30 5694 H 544.739 4.89008 -4.95827 0
M  V30 5695 H 542.366 5.10048 -5.63698 0
M  V30 5696 N 543.941 0.601185 1.45683 0
M  V30 5697 C 545.187 0.0940202 2.02582 0
M  V30 5698 C 545.52 -1.26972 1.46941 0
M  V30 5699 O 544.795 -1.83613 0.641612 0
M  V30 5700 C 545.078 0.0481715 3.60068 0
M  V30 5701 C 544.931 1.44212 4.26055 0
M  V30 5702 C 546.25 -0.642975 4.35378 0
M  V30 5703 H 543.369 0.0356404 0.736138 0
M  V30 5704 H 546.011 0.771929 1.73612 0
M  V30 5705 H 544.161 -0.529128 3.8488 0
M  V30 5706 H 545.833 2.06601 4.12449 0
M  V30 5707 H 544.076 2.00465 3.84703 0
M  V30 5708 H 544.747 1.36234 5.34925 0
M  V30 5709 H 547.223 -0.152351 4.15821 0
M  V30 5710 H 546.099 -0.644141 5.45107 0
M  V30 5711 H 546.36 -1.70785 4.0778 0
M  V30 5712 N 545.419 -1.53889 0.339982 0
M  V30 5713 C 546.349 -2.27843 -0.510856 0
M  V30 5714 C 547.33 -1.29267 -1.10563 0
M  V30 5715 O 548.515 -1.58104 -1.12768 0
M  V30 5716 C 545.645 -3.04857 -1.66372 0
M  V30 5717 C 544.599 -4.10907 -1.19746 0
M  V30 5718 C 543.925 -4.75855 -2.43857 0
M  V30 5719 C 545.225 -5.21435 -0.300501 0
M  V30 5720 H 546.919 -2.99212 0.106067 0
M  V30 5721 H 544.465 -1.43904 0.0524533 0
M  V30 5722 H 546.418 -3.5533 -2.26537 0
M  V30 5723 H 545.142 -2.31133 -2.30749 0
M  V30 5724 H 543.801 -3.61342 -0.618654 0
M  V30 5725 H 543.449 -3.9873 -3.06633 0
M  V30 5726 H 543.149 -5.47502 -2.13343 0
M  V30 5727 H 544.673 -5.2911 -3.04754 0
M  V30 5728 H 546.087 -5.67565 -0.80889 0
M  V30 5729 H 544.484 -6.00036 -0.0874076 0
M  V30 5730 H 545.554 -4.80328 0.664321 0
M  V30 5731 N 546.897 -0.0685191 -1.57451 0
M  V30 5732 C 547.86 0.885173 -2.11417 0
M  V30 5733 C 548.86 1.22853 -1.03748 0
M  V30 5734 O 550.05 1.16235 -1.2975 0
M  V30 5735 C 547.182 2.18964 -2.61281 0
M  V30 5736 H 548.375 0.417034 -2.96986 0
M  V30 5737 H 545.928 0.18014 -1.55258 0
M  V30 5738 H 546.663 2.70321 -1.79156 0
M  V30 5739 H 546.448 1.9534 -3.39977 0
M  V30 5740 H 547.938 2.87242 -3.0312 0
M  V30 5741 N 548.375 1.56261 0.205012 0
M  V30 5742 C 549.621 1.80306 0.9283 0
M  V30 5743 C 549.954 0.640932 1.83319 0
M  V30 5744 O 549.229 -0.359032 1.91158 0
M  V30 5745 C 549.512 3.14547 1.75306 0
M  V30 5746 C 549.365 4.41236 0.873562 0
M  V30 5747 C 550.684 3.45382 2.72762 0
M  V30 5748 H 547.803 0.655929 0.336044 0
M  V30 5749 H 550.445 1.88984 0.196211 0
M  V30 5750 H 548.595 3.0728 2.37721 0
M  V30 5751 H 550.267 4.60539 0.264887 0
M  V30 5752 H 548.51 4.33427 0.179773 0
M  V30 5753 H 549.181 5.31639 1.48541 0
M  V30 5754 H 551.657 3.52884 2.20481 0
M  V30 5755 H 550.533 4.40449 3.2756 0
M  V30 5756 H 550.794 2.68377 3.51321 0
M  V30 5757 N 549.853 -0.472356 1.50355 0
M  V30 5758 C 551.099 -1.22634 1.6152 0
M  V30 5759 C 551.432 -1.91645 0.313995 0
M  V30 5760 O 550.707 -1.82059 -0.684446 0
M  V30 5761 C 550.99 -2.27099 2.7946 0
M  V30 5762 C 550.843 -1.62402 4.19459 0
M  V30 5763 C 552.162 -3.28421 2.92964 0
M  V30 5764 H 549.281 -0.444494 0.587873 0
M  V30 5765 H 551.923 -0.520321 1.82737 0
M  V30 5766 H 550.073 -2.87314 2.61501 0
M  V30 5767 H 551.745 -1.05793 4.49005 0
M  V30 5768 H 549.988 -0.927184 4.23776 0
M  V30 5769 H 550.659 -2.38309 4.97909 0
M  V30 5770 H 553.135 -2.78227 3.09401 0
M  V30 5771 H 552.011 -3.98845 3.77113 0
M  V30 5772 H 552.272 -3.92467 2.03525 0
M  V30 5773 N 551.331 -1.39911 -0.725443 0
M  V30 5774 C 552.58 -1.36963 -1.48068 0
M  V30 5775 C 552.893 0.0284478 -1.95579 0
M  V30 5776 O 554.099 0.180535 -2.70899 0
M  V30 5777 C 552.555 -2.40664 -2.67598 0
M  V30 5778 C 552.163 -3.86234 -2.26997 0
M  V30 5779 C 553.907 -2.46807 -3.45379 0
M  V30 5780 C 551.814 -4.81554 -3.43307 0
M  V30 5781 H 550.744 -0.509223 -0.556065 0
M  V30 5782 H 553.395 -1.65602 -0.790454 0
M  V30 5783 H 551.777 -2.05109 -3.38742 0
M  V30 5784 H 552.951 -4.3088 -1.63337 0
M  V30 5785 H 551.266 -3.83475 -1.62284 0
M  V30 5786 H 553.863 -3.15213 -4.31909 0
M  V30 5787 H 554.206 -1.49552 -3.8851 0
M  V30 5788 H 554.739 -2.81303 -2.81271 0
M  V30 5789 H 551.478 -5.80106 -3.05217 0
M  V30 5790 H 550.998 -4.4158 -4.05915 0
M  V30 5791 H 552.677 -5.0091 -4.0951 0
M  V30 5792 N 552.809 0.956637 -1.25245 0
M  V30 5793 C 554.057 1.69764 -1.09657 0
M  V30 5794 C 554.378 1.91583 0.363464 0
M  V30 5795 O 553.648 1.50149 1.25825 0
M  V30 5796 H 552.228 0.629097 -0.402798 0
M  V30 5797 H 554.89 1.15026 -1.57337 0
M  V30 5798 H 553.986 2.67769 -1.60331 0
M  V30 5799 N 554.287 1.06798 1.15896 0
M  V30 5800 C 555.533 0.788934 1.86825 0
M  V30 5801 C 555.866 -0.683084 1.8179 0
M  V30 5802 O 555.141 -1.50086 1.23711 0
M  V30 5803 C 555.424 1.29065 3.36176 0
M  V30 5804 C 555.277 2.8268 3.49874 0
M  V30 5805 C 556.596 0.902655 4.30744 0
M  V30 5806 H 553.715 0.288066 0.678371 0
M  V30 5807 H 556.357 1.32479 1.36195 0
M  V30 5808 H 554.507 0.834806 3.79425 0
M  V30 5809 H 556.179 3.36511 3.15528 0
M  V30 5810 H 554.422 3.21157 2.91617 0
M  V30 5811 H 555.093 3.12852 4.54783 0
M  V30 5812 H 557.569 1.29535 3.95424 0
M  V30 5813 H 556.445 1.28111 5.3374 0
M  V30 5814 H 556.706 -0.191951 4.41683 0
M  V30 5815 N 555.766 -1.3263 0.851289 0
M  V30 5816 C 557.013 -1.97368 0.453023 0
M  V30 5817 C 557.341 -1.67384 -0.990596 0
M  V30 5818 O 556.596 -0.952665 -1.70947 0
M  V30 5819 C 556.895 -3.51713 0.635015 0
M  V30 5820 C 556.561 -4.01676 2.04859 0
M  V30 5821 C 555.223 -4.15031 2.43522 0
M  V30 5822 C 557.575 -4.28206 2.97135 0
M  V30 5823 C 554.903 -4.52257 3.73739 0
M  V30 5824 C 557.255 -4.66889 4.26846 0
M  V30 5825 C 555.919 -4.7845 4.65448 0
M  V30 5826 H 555.189 -0.722219 0.165773 0
M  V30 5827 H 557.836 -1.58092 1.0807 0
M  V30 5828 H 556.141 -3.91726 -0.0759081 0
M  V30 5829 H 557.838 -3.99823 0.306964 0
M  V30 5830 H 554.428 -3.91764 1.73836 0
M  V30 5831 H 558.612 -4.174 2.68498 0
M  V30 5832 H 553.868 -4.59402 4.03435 0
M  V30 5833 H 558.042 -4.86372 4.98413 0
M  V30 5834 H 555.669 -5.07052 5.66395 0
M  V30 5835 N 557.244 -0.608902 -1.45362 0
M  V30 5836 C 558.49 -0.104762 -2.02529 0
M  V30 5837 C 558.823 1.26191 -1.47613 0
M  V30 5838 O 558.098 1.8327 -0.65134 0
M  V30 5839 C 558.381 -0.0672661 -3.60037 0
M  V30 5840 C 558.234 -1.4647 -4.25284 0
M  V30 5841 C 559.553 0.619877 -4.35713 0
M  V30 5842 H 556.672 -0.0395438 -0.735938 0
M  V30 5843 H 559.314 -0.781126 -1.73201 0
M  V30 5844 H 557.464 0.50871 -3.85155 0
M  V30 5845 H 559.136 -2.08785 -4.11347 0
M  V30 5846 H 557.379 -2.02502 -3.83634 0
M  V30 5847 H 558.05 -1.39069 -5.34195 0
M  V30 5848 H 560.526 0.130297 -4.15896 0
M  V30 5849 H 559.402 0.615224 -5.45441 0
M  V30 5850 H 559.663 1.68621 -4.0868 0
M  V30 5851 N 558.722 1.53707 -0.348139 0
M  V30 5852 C 559.652 2.28111 0.498766 0
M  V30 5853 C 560.633 1.29851 1.09876 0
M  V30 5854 O 561.818 1.587 1.11928 0
M  V30 5855 C 558.948 3.05735 1.64753 0
M  V30 5856 C 557.902 4.11537 1.17565 0
M  V30 5857 C 557.228 4.77142 2.4133 0
M  V30 5858 C 558.528 5.21587 0.272844 0
M  V30 5859 H 560.222 2.99152 -0.121934 0
M  V30 5860 H 557.768 1.43875 -0.0600842 0
M  V30 5861 H 559.721 3.56526 2.24649 0
M  V30 5862 H 558.445 2.32354 2.2952 0
M  V30 5863 H 557.104 3.61665 0.599483 0
M  V30 5864 H 556.752 4.0035 3.04514 0
M  V30 5865 H 556.452 5.48626 2.10436 0
M  V30 5866 H 557.976 5.30719 3.01943 0
M  V30 5867 H 559.39 5.67986 0.778779 0
M  V30 5868 H 557.787 6.00074 0.0555849 0
M  V30 5869 H 558.857 4.79969 -0.689785 0
M  V30 5870 N 560.2 0.0768682 1.57412 0
M  V30 5871 C 561.44 -0.594676 1.95558 0
M  V30 5872 C 561.804 -1.66469 0.956658 0
M  V30 5873 O 563.005 -2.39215 1.22595 0
M  V30 5874 C 561.276 -1.15206 3.38323 0
M  V30 5875 S 562.835 -1.83803 3.9845 0
M  V30 5876 H 559.653 -0.194579 0.683857 0
M  V30 5877 H 562.255 0.151933 1.94909 0
M  V30 5878 H 560.959 -0.36153 4.08805 0
M  V30 5879 H 560.49 -1.93491 3.42527 0
M  V30 5880 H 562.505 -3.12087 3.85767 0
M  V30 5881 N 561.678 -1.56367 -0.196722 0
M  V30 5882 C 562.924 -1.81698 -0.914182 0
M  V30 5883 C 563.279 -0.65367 -1.80956 0
M  V30 5884 O 562.572 0.351224 -1.88353 0
M  V30 5885 C 562.766 -3.10663 -1.767 0
M  V30 5886 C 562.595 -4.39428 -0.955689 0
M  V30 5887 C 561.365 -5.01221 -0.64076 0
M  V30 5888 C 563.563 -5.1337 -0.309165 0
M  V30 5889 N 561.545 -6.13608 0.189358 0
M  V30 5890 C 562.916 -6.18815 0.383225 0
M  V30 5891 C 564.971 -4.97393 -0.224726 0
M  V30 5892 C 563.674 -7.10015 1.15201 0
M  V30 5893 C 565.7 -5.89014 0.530658 0
M  V30 5894 C 565.062 -6.93903 1.2115 0
M  V30 5895 H 561.161 -0.716203 -0.31397 0
M  V30 5896 H 563.745 -1.93838 -0.18304 0
M  V30 5897 H 561.916 -2.99762 -2.46976 0
M  V30 5898 H 563.648 -3.24088 -2.42382 0
M  V30 5899 H 560.403 -4.63669 -0.96479 0
M  V30 5900 H 560.827 -6.74389 0.593979 0
M  V30 5901 H 565.469 -4.16331 -0.736754 0
M  V30 5902 H 563.187 -7.9054 1.67547 0
M  V30 5903 H 566.773 -5.78726 0.597326 0
M  V30 5904 H 565.653 -7.63576 1.78665 0
M  V30 5905 N 563.156 0.464375 -1.50603 0
M  V30 5906 C 564.403 1.21596 -1.61928 0
M  V30 5907 C 564.731 1.91804 -0.322737 0
M  V30 5908 O 563.986 1.83065 0.691776 0
M  V30 5909 C 564.285 2.278 -2.75394 0
M  V30 5910 C 563.951 1.74797 -4.1564 0
M  V30 5911 C 562.613 1.60063 -4.53799 0
M  V30 5912 C 564.965 1.35548 -5.03266 0
M  V30 5913 C 562.293 1.04514 -5.77316 0
M  V30 5914 C 564.645 0.814381 -6.27336 0
M  V30 5915 C 563.309 0.653726 -6.64291 0
M  V30 5916 H 562.579 0.444951 -0.592536 0
M  V30 5917 H 565.226 0.510964 -1.84557 0
M  V30 5918 H 563.531 3.04233 -2.46879 0
M  V30 5919 H 565.228 2.85723 -2.81359 0
M  V30 5920 H 561.818 1.87234 -3.8554 0
M  V30 5921 H 566.002 1.45763 -4.74412 0
M  V30 5922 H 561.258 0.908186 -6.04617 0
M  V30 5923 H 565.432 0.501626 -6.94591 0
M  V30 5924 H 563.059 0.22114 -7.59878 0
M  V30 5925 N 564.634 1.40294 0.718013 0
M  V30 5926 C 566.045 1.34289 1.29705 0
M  V30 5927 C 566.396 0.0152228 1.96194 0
M  V30 5928 O 565.521 -0.88682 1.97394 0
M  V30 5929 C 566.116 2.43219 2.3586 0
M  V30 5930 C 564.675 2.40682 2.89394 0
M  V30 5931 C 563.822 2.24223 1.63154 0
M  V30 5932 H 566.773 1.50135 0.514312 0
M  V30 5933 H 566.794 2.10986 3.16647 0
M  V30 5934 H 566.306 3.39836 1.87439 0
M  V30 5935 H 564.407 1.47756 3.42051 0
M  V30 5936 H 564.52 3.36177 3.41353 0
M  V30 5937 H 562.884 1.71696 1.88129 0
M  V30 5938 H 563.667 3.22834 1.16761 0
M  V30 5939 N 566.112 -0.949982 1.2575 0
M  V30 5940 C 567.359 -1.69515 1.10774 0
M  V30 5941 C 567.687 -1.91316 -0.350479 0
M  V30 5942 O 566.942 -1.48515 -1.27443 0
M  V30 5943 C 567.241 -3.08039 1.81237 0
M  V30 5944 C 566.907 -3.06023 3.31151 0
M  V30 5945 C 565.569 -3.0518 3.72047 0
M  V30 5946 C 567.921 -2.98998 4.26907 0
M  V30 5947 C 565.249 -2.95067 5.07102 0
M  V30 5948 C 567.601 -2.90426 5.61992 0
M  V30 5949 C 566.265 -2.87922 6.0221 0
M  V30 5950 H 565.535 -0.6203 0.405351 0
M  V30 5951 H 568.182 -1.10953 1.56082 0
M  V30 5952 H 566.487 -3.70172 1.28373 0
M  V30 5953 H 568.184 -3.64526 1.67098 0
M  V30 5954 H 564.774 -3.07453 2.98614 0
M  V30 5955 H 568.958 -2.98764 3.963 0
M  V30 5956 H 564.214 -2.915 5.37436 0
M  V30 5957 H 568.388 -2.83952 6.35881 0
M  V30 5958 H 566.015 -2.79841 7.06819 0
M  V30 5959 N 567.59 -1.07411 -1.15328 0
M  V30 5960 C 568.837 -0.797649 -1.86128 0
M  V30 5961 C 569.165 0.676298 -1.82364 0
M  V30 5962 O 568.42 1.51223 -1.24218 0
M  V30 5963 C 568.719 -1.25191 -3.34757 0
M  V30 5964 C 568.385 -2.73191 -3.58716 0
M  V30 5965 C 567.047 -3.13616 -3.64964 0
M  V30 5966 C 569.399 -3.68718 -3.6837 0
M  V30 5967 C 566.727 -4.48383 -3.78377 0
M  V30 5968 C 569.079 -5.03248 -3.83306 0
M  V30 5969 C 567.743 -5.43293 -3.878 0
M  V30 5970 H 567.013 -0.29188 -0.681092 0
M  V30 5971 H 569.66 -1.34524 -1.36292 0
M  V30 5972 H 567.965 -0.623712 -3.86804 0
M  V30 5973 H 569.662 -1.01489 -3.87945 0
M  V30 5974 H 566.252 -2.40898 -3.54494 0
M  V30 5975 H 570.436 -3.38614 -3.62842 0
M  V30 5976 H 565.692 -4.78877 -3.80114 0
M  V30 5977 H 569.866 -5.77142 -3.89718 0
M  V30 5978 H 567.493 -6.47721 -3.97946 0
M  V30 5979 N 569.068 1.32177 -0.85831 0
M  V30 5980 C 570.315 1.97125 -0.463484 0
M  V30 5981 C 570.643 1.67907 0.981705 0
M  V30 5982 O 569.898 0.961717 1.70439 0
M  V30 5983 C 570.197 3.51372 -0.653658 0
M  V30 5984 C 569.863 4.00584 -2.06987 0
M  V30 5985 C 568.525 4.13733 -2.4572 0
M  V30 5986 C 570.877 4.26624 -2.99402 0
M  V30 5987 C 568.205 4.50268 -3.76132 0
M  V30 5988 C 570.557 4.64618 -4.29316 0
M  V30 5989 C 569.221 4.75975 -4.67979 0
M  V30 5990 H 568.491 0.72133 -0.169601 0
M  V30 5991 H 571.138 1.57517 -1.08907 0
M  V30 5992 H 569.443 3.91761 0.0551328 0
M  V30 5993 H 571.14 3.99655 -0.328163 0
M  V30 5994 H 567.73 3.90837 -1.75911 0
M  V30 5995 H 571.914 4.1597 -2.70708 0
M  V30 5996 H 567.17 4.57256 -4.05865 0
M  V30 5997 H 571.344 4.83722 -5.00985 0
M  V30 5998 H 568.971 5.04041 -5.69076 0
M  V30 5999 N 570.547 0.616602 1.45037 0
M  V30 6000 C 571.772 0.120192 2.07051 0
M  V30 6001 C 572.197 -1.19008 1.45666 0
M  V30 6002 O 571.555 -1.7267 0.552692 0
M  V30 6003 C 571.603 0.00354901 3.606 0
M  V30 6004 O 570.707 -1.04431 3.98958 0
M  V30 6005 H 570.048 0.0781599 0.659384 0
M  V30 6006 H 572.578 0.849167 1.86146 0
M  V30 6007 H 572.588 -0.191754 4.07549 0
M  V30 6008 H 571.263 0.960239 4.04663 0
M  V30 6009 H 569.84 -0.824749 3.63665 0
M  V30 6010 N 572.025 -1.5352 0.356285 0
M  V30 6011 C 573.255 -2.05236 -0.236983 0
M  V30 6012 C 573.663 -1.23016 -1.43749 0
M  V30 6013 O 573.006 -0.2615 -1.81829 0
M  V30 6014 C 573.068 -3.52549 -0.7035 0
M  V30 6015 C 572.732 -4.55425 0.379059 0
M  V30 6016 C 573.729 -5.0524 1.22592 0
M  V30 6017 C 571.414 -4.99425 0.536638 0
M  V30 6018 C 573.408 -5.97647 2.21578 0
M  V30 6019 C 571.095 -5.9164 1.52988 0
M  V30 6020 C 572.093 -6.4064 2.3679 0
M  V30 6021 O 571.781 -7.31039 3.34421 0
M  V30 6022 H 571.513 -0.674346 -0.047254 0
M  V30 6023 H 574.067 -1.98962 0.510238 0
M  V30 6024 H 572.297 -3.56331 -1.50217 0
M  V30 6025 H 573.986 -3.87171 -1.21873 0
M  V30 6026 H 574.752 -4.72002 1.11532 0
M  V30 6027 H 570.631 -4.60879 -0.105834 0
M  V30 6028 H 574.175 -6.35816 2.87025 0
M  V30 6029 H 570.072 -6.24293 1.64099 0
M  V30 6030 H 570.84 -7.49009 3.30041 0
M  V30 6031 N 573.503 -0.0852151 -1.57369 0
M  V30 6032 C 574.728 0.592872 -1.98746 0
M  V30 6033 C 575.153 1.61538 -0.963689 0
M  V30 6034 O 574.511 1.81168 0.069071 0
M  V30 6035 C 574.559 1.22599 -3.39119 0
M  V30 6036 O 573.663 2.34185 -3.39457 0
M  V30 6037 H 573.004 0.151314 -0.646529 0
M  V30 6038 H 575.534 -0.163703 -2.03944 0
M  V30 6039 H 575.544 1.56965 -3.76598 0
M  V30 6040 H 574.219 0.476831 -4.13158 0
M  V30 6041 H 572.796 2.01512 -3.13763 0
M  V30 6042 N 574.981 1.5647 0.188427 0
M  V30 6043 C 575.911 1.98101 1.23606 0
M  V30 6044 C 576.892 0.853961 1.47111 0
M  V30 6045 O 578.077 1.11879 1.58735 0
M  V30 6046 C 575.207 2.32624 2.57882 0
M  V30 6047 C 574.161 3.48129 2.48978 0
M  V30 6048 C 573.487 3.68347 3.87588 0
M  V30 6049 C 574.787 4.82112 2.00911 0
M  V30 6050 H 576.481 2.85864 0.890068 0
M  V30 6051 H 574.027 1.37532 0.426714 0
M  V30 6052 H 575.98 2.60343 3.3136 0
M  V30 6053 H 574.704 1.41751 2.94235 0
M  V30 6054 H 573.363 3.20511 1.77956 0
M  V30 6055 H 573.011 2.74793 4.21305 0
M  V30 6056 H 572.711 4.46055 3.82503 0
M  V30 6057 H 574.235 3.98449 4.62678 0
M  V30 6058 H 575.649 5.08819 2.64151 0
M  V30 6059 H 574.046 5.63337 2.06814 0
M  V30 6060 H 575.116 4.75249 0.96262 0
M  V30 6061 N 576.459 -0.456382 1.50847 0
M  V30 6062 C 577.707 -1.20497 1.62249 0
M  V30 6063 C 578.028 -1.92156 0.331839 0
M  V30 6064 O 577.298 -1.84751 -0.651443 0
M  V30 6065 H 575.878 -0.447775 0.597918 0
M  V30 6066 H 578.54 -0.525099 1.87693 0
M  V30 6067 H 577.636 -1.94492 2.44089 0
M  V30 6068 N 577.937 -1.40673 -0.710563 0
M  V30 6069 C 578.9 -1.4108 -1.80635 0
M  V30 6070 C 579.9 -0.303783 -1.57904 0
M  V30 6071 O 581.09 -0.562937 -1.64853 0
M  V30 6072 C 578.222 -1.20748 -3.18799 0
M  V30 6073 H 579.415 -2.38612 -1.81671 0
M  V30 6074 H 576.968 -1.26595 -0.916704 0
M  V30 6075 H 577.703 -0.239964 -3.23411 0
M  V30 6076 H 577.488 -2.00941 -3.36698 0
M  V30 6077 H 578.978 -1.23833 -3.98817 0
M  V30 6078 N 579.415 0.9433 -1.26252 0
M  V30 6079 C 580.664 1.68369 -1.11062 0
M  V30 6080 C 580.977 1.92514 0.346104 0
M  V30 6081 O 582.183 2.64358 0.618646 0
M  V30 6082 C 580.639 3.03171 -1.93946 0
M  V30 6083 C 580.247 2.86782 -3.4418 0
M  V30 6084 C 581.991 3.80916 -1.87359 0
M  V30 6085 C 579.898 4.17044 -4.19319 0
M  V30 6086 H 578.828 0.631469 -0.412023 0
M  V30 6087 H 581.479 1.04922 -1.50544 0
M  V30 6088 H 579.861 3.67587 -1.47296 0
M  V30 6089 H 581.035 2.31229 -3.98585 0
M  V30 6090 H 579.35 2.22482 -3.51981 0
M  V30 6091 H 581.947 4.77417 -2.40784 0
M  V30 6092 H 582.29 4.07658 -0.843857 0
M  V30 6093 H 582.823 3.2327 -2.31821 0
M  V30 6094 H 579.562 3.95487 -5.22753 0
M  V30 6095 H 579.082 4.72319 -3.69696 0
M  V30 6096 H 580.761 4.85513 -4.27651 0
M  V30 6097 N 580.893 1.08022 1.14757 0
M  V30 6098 C 582.133 0.816959 1.87364 0
M  V30 6099 C 582.497 -0.645407 1.80827 0
M  V30 6100 O 583.698 -1.024 2.48531 0
M  V30 6101 C 581.969 1.31961 3.32146 0
M  V30 6102 S 583.528 1.18806 4.2241 0
M  V30 6103 H 580.346 0.295862 0.646519 0
M  V30 6104 H 582.948 1.3807 1.38408 0
M  V30 6105 H 581.652 2.37847 3.3445 0
M  V30 6106 H 581.183 0.751371 3.86158 0
M  V30 6107 H 583.198 0.129865 4.9603 0
M  V30 6108 N 582.371 -1.3172 0.865308 0
M  V30 6109 C 583.782 -1.79104 0.527126 0
M  V30 6110 C 584.133 -1.7135 -0.955695 0
M  V30 6111 O 583.258 -1.27845 -1.74598 0
M  V30 6112 C 583.853 -3.25207 0.950061 0
M  V30 6113 C 582.412 -3.70504 0.663611 0
M  V30 6114 C 581.559 -2.52605 1.14395 0
M  V30 6115 H 584.51 -1.18868 1.05148 0
M  V30 6116 H 584.531 -3.79535 0.270805 0
M  V30 6117 H 584.043 -3.30818 2.02931 0
M  V30 6118 H 582.144 -3.70398 -0.404474 0
M  V30 6119 H 582.257 -4.62845 1.23737 0
M  V30 6120 H 580.621 -2.4838 0.563859 0
M  V30 6121 H 581.404 -2.60964 2.23053 0
M  V30 6122 N 583.85 -0.624285 -1.44708 0
M  V30 6123 C 584.797 0.0847135 -2.30644 0
M  V30 6124 C 585.767 0.843575 -1.43084 0
M  V30 6125 O 586.952 0.825982 -1.71995 0
M  V30 6126 C 584.091 1.06495 -3.28257 0
M  V30 6127 C 583.205 0.305224 -4.3092 0
M  V30 6128 C 582.34 1.27667 -5.1563 0
M  V30 6129 C 581.379 0.505706 -6.10007 0
M  V30 6130 N 580.516 1.42727 -6.8744 0
M  V30 6131 H 585.356 -0.654068 -2.90733 0
M  V30 6132 H 582.893 -0.334334 -1.4325 0
M  V30 6133 H 584.851 1.64658 -3.83332 0
M  V30 6134 H 583.481 1.77094 -2.69884 0
M  V30 6135 H 582.533 -0.392207 -3.78373 0
M  V30 6136 H 583.845 -0.295553 -4.97924 0
M  V30 6137 H 582.999 1.92984 -5.75189 0
M  V30 6138 H 581.738 1.91137 -4.48685 0
M  V30 6139 H 580.743 -0.160999 -5.49564 0
M  V30 6140 H 581.968 -0.124183 -6.78986 0
M  V30 6141 H 579.913 2.04931 -6.23169 0
M  V30 6142 H 579.831 0.880345 -7.50857 0
M  V30 6143 H 581.099 2.0695 -7.51526 0
M  V30 6144 N 585.328 1.53329 -0.364422 0
M  V30 6145 C 586.278 2.22472 0.499024 0
M  V30 6146 C 587.262 1.21952 1.0496 0
M  V30 6147 O 588.454 1.47405 0.979836 0
M  V30 6148 C 585.583 3.01659 1.6388 0
M  V30 6149 C 584.669 4.09555 1.10116 0
M  V30 6150 N 585.06 5.04988 0.286414 0
M  V30 6151 C 583.358 4.2424 1.37608 0
M  V30 6152 C 584.059 5.81699 -0.00781682 0
M  V30 6153 N 583.035 5.40394 0.589494 0
M  V30 6154 H 586.837 2.93611 -0.130284 0
M  V30 6155 H 584.351 1.61483 -0.172377 0
M  V30 6156 H 586.348 3.4971 2.26954 0
M  V30 6157 H 585.008 2.32051 2.27118 0
M  V30 6158 H 586.019 5.17847 -0.0742839 0
M  V30 6159 H 582.696 3.65858 2.01133 0
M  V30 6160 H 584.086 6.68587 -0.666394 0
M  V30 6161 N 586.806 0.0935595 1.57322 0
M  V30 6162 C 588.046 -0.573901 1.96178 0
M  V30 6163 C 588.41 -1.65445 0.97426 0
M  V30 6164 O 589.611 -2.37901 1.25126 0
M  V30 6165 C 587.882 -1.11612 3.39526 0
M  V30 6166 S 589.441 -1.79566 4.00377 0
M  V30 6167 H 586.259 -0.187315 0.685882 0
M  V30 6168 H 588.861 0.172597 1.94737 0
M  V30 6169 H 587.565 -0.31815 4.09165 0
M  V30 6170 H 587.096 -1.89848 3.4456 0
M  V30 6171 H 589.111 -3.07978 3.89056 0
M  V30 6172 N 588.284 -1.56567 -0.180126 0
M  V30 6173 C 589.231 -1.95725 -1.22313 0
M  V30 6174 C 590.201 -0.819911 -1.44453 0
M  V30 6175 O 591.386 -1.07931 -1.57339 0
M  V30 6176 C 588.526 -2.31484 -2.55947 0
M  V30 6177 C 587.639 -3.58354 -2.4126 0
M  V30 6178 C 586.774 -3.83366 -3.67701 0
M  V30 6179 C 585.813 -5.03612 -3.47909 0
M  V30 6180 N 584.95 -5.24802 -4.66398 0
M  V30 6181 H 589.79 -2.84642 -0.882198 0
M  V30 6182 H 587.327 -1.4085 -0.42422 0
M  V30 6183 H 589.285 -2.50237 -3.33822 0
M  V30 6184 H 587.915 -1.45689 -2.88053 0
M  V30 6185 H 586.967 -3.47565 -1.54606 0
M  V30 6186 H 588.279 -4.46386 -2.22577 0
M  V30 6187 H 587.433 -4.02439 -4.54013 0
M  V30 6188 H 586.172 -2.93692 -3.89353 0
M  V30 6189 H 585.177 -4.84447 -2.59983 0
M  V30 6190 H 586.402 -5.94809 -3.27688 0
M  V30 6191 H 584.348 -4.38079 -4.88286 0
M  V30 6192 H 584.265 -6.07041 -4.50596 0
M  V30 6193 H 585.533 -5.48346 -5.54019 0
M  V30 6194 N 589.762 0.448376 -1.51087 0
M  V30 6195 C 591.008 1.20049 -1.6345 0
M  V30 6196 C 591.341 1.91121 -0.344444 0
M  V30 6197 O 590.616 1.83125 0.655396 0
M  V30 6198 C 590.899 2.22624 -2.83038 0
M  V30 6199 C 590.752 1.55708 -4.21989 0
M  V30 6200 C 592.071 3.23718 -2.98152 0
M  V30 6201 H 589.19 0.435085 -0.59487 0
M  V30 6202 H 591.832 0.491183 -1.83541 0
M  V30 6203 H 589.982 2.83117 -2.66039 0
M  V30 6204 H 591.654 0.986367 -4.50631 0
M  V30 6205 H 589.897 0.859647 -4.25197 0
M  V30 6206 H 590.568 2.30357 -5.01637 0
M  V30 6207 H 593.044 2.73269 -3.13788 0
M  V30 6208 H 591.92 3.92795 -3.83411 0
M  V30 6209 H 592.181 3.89179 -2.09743 0
M  V30 6210 N 591.24 1.41047 0.703093 0
M  V30 6211 C 592.651 1.35657 1.28274 0
M  V30 6212 C 593.002 0.0360309 1.96167 0
M  V30 6213 O 592.127 -0.865833 1.98324 0
M  V30 6214 C 592.722 2.45707 2.33267 0
M  V30 6215 C 591.281 2.43738 2.86825 0
M  V30 6216 C 590.428 2.25941 1.60767 0
M  V30 6217 H 593.379 1.50672 0.49836 0
M  V30 6218 H 593.4 2.14333 3.14391 0
M  V30 6219 H 592.912 3.41805 1.83824 0
M  V30 6220 H 591.013 1.51375 3.40465 0
M  V30 6221 H 591.126 3.39779 3.37768 0
M  V30 6222 H 589.49 1.73681 1.86298 0
M  V30 6223 H 590.273 3.24054 1.1333 0
M  V30 6224 N 592.718 -0.936591 1.26751 0
M  V30 6225 C 593.668 -2.0219 1.05371 0
M  V30 6226 C 594.652 -1.60893 -0.0154112 0
M  V30 6227 O 595.844 -1.75843 0.202085 0
M  V30 6228 C 592.973 -3.36222 0.693541 0
M  V30 6229 C 592.059 -3.8399 1.80035 0
M  V30 6230 N 592.45 -4.0436 3.03852 0
M  V30 6231 C 590.748 -4.12945 1.685 0
M  V30 6232 C 591.449 -4.44 3.75818 0
M  V30 6233 N 590.425 -4.50966 3.03531 0
M  V30 6234 H 594.227 -2.15958 1.99347 0
M  V30 6235 H 591.741 -1.12277 1.17335 0
M  V30 6236 H 593.738 -4.13625 0.521513 0
M  V30 6237 H 592.398 -3.23821 -0.238693 0
M  V30 6238 H 593.409 -3.9092 3.39709 0
M  V30 6239 H 590.086 -4.09308 0.822986 0
M  V30 6240 H 591.476 -4.67914 4.82189 0
M  V30 6241 N 594.196 -1.08629 -1.14182 0
M  V30 6242 C 595.444 -0.815731 -1.84906 0
M  V30 6243 C 595.765 0.660441 -1.83475 0
M  V30 6244 O 595.035 1.47888 -1.28476 0
M  V30 6245 H 593.615 -0.298773 -0.684648 0
M  V30 6246 H 596.277 -1.37274 -1.38354 0
M  V30 6247 H 595.373 -1.16193 -2.89665 0
M  V30 6248 N 595.674 1.31259 -0.872281 0
M  V30 6249 C 596.604 2.30929 -0.345554 0
M  V30 6250 C 597.585 1.60449 0.5648 0
M  V30 6251 O 598.77 1.8814 0.481335 0
M  V30 6252 C 595.9 3.44348 0.451823 0
M  V30 6253 C 594.854 4.26435 -0.365641 0
M  V30 6254 C 594.18 5.31785 0.557562 0
M  V30 6255 C 595.48 4.97159 -1.60095 0
M  V30 6256 H 597.174 2.75234 -1.17841 0
M  V30 6257 H 594.72 1.3232 -0.568094 0
M  V30 6258 H 596.673 4.13128 0.830854 0
M  V30 6259 H 595.397 2.98816 1.31821 0
M  V30 6260 H 594.056 3.59326 -0.726649 0
M  V30 6261 H 593.704 4.82502 1.4213 0
M  V30 6262 H 593.404 5.87598 0.0144878 0
M  V30 6263 H 594.928 6.03424 0.933387 0
M  V30 6264 H 596.342 5.58523 -1.29323 0
M  V30 6265 H 594.739 5.62779 -2.08327 0
M  V30 6266 H 595.809 4.24012 -2.35249 0
M  V30 6267 N 597.152 0.631951 1.44375 0
M  V30 6268 C 598.399 0.136767 2.02038 0
M  V30 6269 C 598.727 -1.24168 1.49709 0
M  V30 6270 O 597.982 -1.83809 0.671763 0
M  V30 6271 C 598.281 0.0735861 3.57324 0
M  V30 6272 C 597.947 1.39092 4.28911 0
M  V30 6273 C 596.609 1.75171 4.48184 0
M  V30 6274 C 598.961 2.26042 4.69632 0
M  V30 6275 C 596.289 2.97907 5.05439 0
M  V30 6276 C 598.641 3.4805 5.28246 0
M  V30 6277 C 597.305 3.84351 5.45738 0
M  V30 6278 H 596.575 0.0500466 0.739308 0
M  V30 6279 H 599.222 0.818429 1.7313 0
M  V30 6280 H 597.527 -0.691449 3.8565 0
M  V30 6281 H 599.224 -0.326091 3.99672 0
M  V30 6282 H 595.814 1.10015 4.1424 0
M  V30 6283 H 599.998 1.99463 4.54454 0
M  V30 6284 H 595.254 3.26108 5.17169 0
M  V30 6285 H 599.428 4.15658 5.5875 0
M  V30 6286 H 597.055 4.79538 5.8987 0
M  V30 6287 N 598.631 -1.53133 0.372548 0
M  V30 6288 C 599.563 -2.23557 -0.505444 0
M  V30 6289 C 600.576 -1.25211 -1.04049 0
M  V30 6290 O 601.765 -1.51391 -0.945675 0
M  V30 6291 C 598.865 -2.92516 -1.71136 0
M  V30 6292 C 598.038 -4.17428 -1.30661 0
M  V30 6293 C 597.097 -4.69535 -2.37536 0
M  V30 6294 O 596.123 -5.33042 -1.99637 0
M  V30 6295 N 597.325 -4.47947 -3.6922 0
M  V30 6296 H 600.09 -2.9954 0.0978259 0
M  V30 6297 H 597.651 -1.60684 0.198068 0
M  V30 6298 H 599.643 -3.24281 -2.42124 0
M  V30 6299 H 598.213 -2.19944 -2.22134 0
M  V30 6300 H 597.433 -3.91888 -0.426292 0
M  V30 6301 H 598.721 -4.98622 -1.01259 0
M  V30 6302 H 598.119 -3.97219 -4.02783 0
M  V30 6303 H 596.676 -4.84245 -4.36292 0
M  V30 6304 N 600.109 -0.101901 -1.5727 0
M  V30 6305 C 601.356 0.560197 -1.94597 0
M  V30 6306 C 601.684 1.67767 -0.984101 0
M  V30 6307 O 600.939 1.95699 -0.00489193 0
M  V30 6308 C 601.238 1.14898 -3.38427 0
M  V30 6309 C 600.904 0.154613 -4.50635 0
M  V30 6310 C 599.566 -0.118861 -4.81053 0
M  V30 6311 C 601.918 -0.523979 -5.18559 0
M  V30 6312 C 599.246 -1.0775 -5.76721 0
M  V30 6313 C 601.598 -1.47114 -6.15256 0
M  V30 6314 C 600.262 -1.75278 -6.44076 0
M  V30 6315 H 599.532 0.204991 -0.712081 0
M  V30 6316 H 602.179 -0.17918 -1.9066 0
M  V30 6317 H 600.484 1.96476 -3.38976 0
M  V30 6318 H 602.181 1.66909 -3.64613 0
M  V30 6319 H 598.771 0.377948 -4.2693 0
M  V30 6320 H 602.955 -0.325851 -4.95229 0
M  V30 6321 H 598.211 -1.30263 -5.97362 0
M  V30 6322 H 602.385 -2.00274 -6.66981 0
M  V30 6323 H 600.012 -2.49717 -7.18015 0
M  V30 6324 N 601.587 1.56661 0.17182 0
M  V30 6325 C 602.834 1.81965 0.888529 0
M  V30 6326 C 603.162 0.6789 1.82267 0
M  V30 6327 O 602.417 -0.333875 1.92831 0
M  V30 6328 C 602.716 3.13435 1.71736 0
M  V30 6329 C 602.382 4.41159 0.932184 0
M  V30 6330 C 601.044 4.75851 0.715481 0
M  V30 6331 C 603.396 5.19803 0.381387 0
M  V30 6332 C 600.724 5.86666 -0.063126 0
M  V30 6333 C 603.076 6.31433 -0.384129 0
M  V30 6334 C 601.74 6.64692 -0.611637 0
M  V30 6335 H 601.01 0.665859 0.325136 0
M  V30 6336 H 603.657 1.90884 0.153495 0
M  V30 6337 H 601.962 2.99857 2.52177 0
M  V30 6338 H 603.659 3.30224 2.27493 0
M  V30 6339 H 600.249 4.13947 1.11112 0
M  V30 6340 H 604.433 4.93396 0.536148 0
M  V30 6341 H 599.689 6.10892 -0.249136 0
M  V30 6342 H 603.863 6.91577 -0.818185 0
M  V30 6343 H 601.49 7.50398 -1.21684 0
M  V30 6344 N 603.065 -0.440357 1.51323 0
M  V30 6345 C 604.312 -1.19004 1.63842 0
M  V30 6346 C 604.64 -1.91266 0.35321 0
M  V30 6347 O 603.895 -1.84143 -0.662565 0
M  V30 6348 C 604.194 -2.2339 2.78984 0
M  V30 6349 C 603.86 -1.68162 4.18369 0
M  V30 6350 C 602.522 -1.52823 4.56288 0
M  V30 6351 C 604.874 -1.27524 5.05358 0
M  V30 6352 C 602.202 -0.953157 5.78906 0
M  V30 6353 C 604.554 -0.714474 6.28552 0
M  V30 6354 C 603.218 -0.547961 6.65247 0
M  V30 6355 H 602.488 -0.435468 0.59954 0
M  V30 6356 H 605.135 -0.481538 1.85347 0
M  V30 6357 H 603.44 -3.00267 2.51688 0
M  V30 6358 H 605.137 -2.81211 2.85869 0
M  V30 6359 H 601.727 -1.81077 3.8847 0
M  V30 6360 H 605.911 -1.38197 4.76671 0
M  V30 6361 H 601.167 -0.811882 6.05986 0
M  V30 6362 H 605.341 -0.391059 6.95301 0
M  V30 6363 H 602.968 -0.100222 7.60134 0
M  V30 6364 N 604.543 -1.41418 -0.695603 0
M  V30 6365 C 605.789 -1.41983 -1.45645 0
M  V30 6366 C 606.144 -0.0282216 -1.92379 0
M  V30 6367 O 605.437 0.945916 -1.66622 0
M  V30 6368 C 605.631 -2.36112 -2.68302 0
M  V30 6369 C 605.46 -3.84288 -2.33566 0
M  V30 6370 C 604.23 -4.52971 -2.23932 0
M  V30 6371 C 606.428 -4.75264 -1.96543 0
M  V30 6372 N 604.41 -5.86276 -1.82081 0
M  V30 6373 C 605.781 -5.97517 -1.6545 0
M  V30 6374 C 607.836 -4.62911 -1.83352 0
M  V30 6375 C 606.539 -7.08793 -1.22492 0
M  V30 6376 C 608.565 -5.74149 -1.41799 0
M  V30 6377 C 607.927 -6.95501 -1.11617 0
M  V30 6378 H 604.026 -0.574771 -0.530247 0
M  V30 6379 H 606.61 -1.77289 -0.804788 0
M  V30 6380 H 604.781 -2.02902 -3.31188 0
M  V30 6381 H 606.513 -2.27397 -3.34773 0
M  V30 6382 H 603.268 -4.06909 -2.42327 0
M  V30 6383 H 603.692 -6.56926 -1.63638 0
M  V30 6384 H 608.334 -3.69588 -2.05341 0
M  V30 6385 H 606.052 -8.01982 -0.992482 0
M  V30 6386 H 609.638 -5.66595 -1.32143 0
M  V30 6387 H 608.518 -7.80114 -0.799493 0
M  V30 6388 N 606.021 0.929856 -1.27246 0
M  V30 6389 C 607.27 1.67182 -1.12842 0
M  V30 6390 C 607.583 1.9287 0.325666 0
M  V30 6391 O 608.789 2.64999 0.590572 0
M  V30 6392 C 607.245 3.01097 -1.97151 0
M  V30 6393 C 606.853 2.83115 -3.47203 0
M  V30 6394 C 608.597 3.78907 -1.91389 0
M  V30 6395 C 606.504 4.12573 -4.23719 0
M  V30 6396 H 605.434 0.627064 -0.418697 0
M  V30 6397 H 608.085 1.0332 -1.51649 0
M  V30 6398 H 606.467 3.66004 -1.51186 0
M  V30 6399 H 607.641 2.26989 -4.01015 0
M  V30 6400 H 605.956 2.18736 -3.54321 0
M  V30 6401 H 608.553 4.74837 -2.45834 0
M  V30 6402 H 608.896 4.0674 -0.887047 0
M  V30 6403 H 609.429 3.20794 -2.35237 0
M  V30 6404 H 606.168 3.8992 -5.26918 0
M  V30 6405 H 605.688 4.68371 -3.74685 0
M  V30 6406 H 607.367 4.8095 -4.32777 0
M  V30 6407 N 607.499 1.09233 1.13605 0
M  V30 6408 C 608.747 0.825525 1.84471 0
M  V30 6409 C 609.068 -0.650702 1.83823 0
M  V30 6410 O 608.338 -1.47204 1.29259 0
M  V30 6411 H 606.918 0.3024 0.683054 0
M  V30 6412 H 609.58 1.38006 1.37624 0
M  V30 6413 H 608.676 1.17727 2.89045 0
M  V30 6414 N 608.977 -1.30795 0.87923 0
M  V30 6415 C 610.207 -2.00237 0.50881 0
M  V30 6416 C 610.615 -1.66115 -0.905682 0
M  V30 6417 O 609.958 -0.89138 -1.60624 0
M  V30 6418 C 610.02 -3.54508 0.597003 0
M  V30 6419 C 609.684 -4.12131 1.97477 0
M  V30 6420 C 610.681 -4.28552 2.94346 0
M  V30 6421 C 608.366 -4.47644 2.2786 0
M  V30 6422 C 610.36 -4.79689 4.19735 0
M  V30 6423 C 608.047 -4.98481 3.53496 0
M  V30 6424 C 609.045 -5.14456 4.49248 0
M  V30 6425 O 608.733 -5.64199 5.72656 0
M  V30 6426 H 608.465 -0.647026 0.195788 0
M  V30 6427 H 611.019 -1.67785 1.1848 0
M  V30 6428 H 609.249 -3.86461 -0.135945 0
M  V30 6429 H 610.938 -4.05198 0.238684 0
M  V30 6430 H 611.704 -4.01424 2.72183 0
M  V30 6431 H 607.583 -4.34481 1.54102 0
M  V30 6432 H 611.127 -4.92073 4.9448 0
M  V30 6433 H 607.024 -5.25044 3.75498 0
M  V30 6434 H 607.792 -5.82551 5.74957 0
M  V30 6435 N 610.455 -0.639598 -1.44038 0
M  V30 6436 C 611.695 -0.150902 -2.03842 0
M  V30 6437 C 612.059 1.20744 -1.49281 0
M  V30 6438 O 613.26 1.78875 -2.00642 0
M  V30 6439 C 611.531 -0.146114 -3.57101 0
M  V30 6440 S 613.09 0.276725 -4.37927 0
M  V30 6441 H 609.908 -0.0652447 -0.708 0
M  V30 6442 H 612.51 -0.844886 -1.76301 0
M  V30 6443 H 611.214 -1.13769 -3.94316 0
M  V30 6444 H 610.745 0.568846 -3.89266 0
M  V30 6445 H 612.76 1.51893 -4.7238 0
M  V30 6446 N 611.933 1.52934 -0.380664 0
M  V30 6447 C 612.881 2.27727 0.47361 0
M  V30 6448 C 613.875 1.31288 1.0705 0
M  V30 6449 O 615.081 1.4886 1.01197 0
M  V30 6450 H 611.456 0.732189 0.171475 0
M  V30 6451 H 613.427 2.97864 -0.178785 0
M  V30 6452 C 612.176 3.0904 1.59341 0
M  V30 6453 H 611.499 3.831 1.14343 0
M  V30 6454 H 612.939 3.64527 2.16555 0
M  V30 6455 C 611.398 2.20813 2.54447 0
M  V30 6456 O 611.928 1.82907 3.57642 0
M  V30 6457 N 610.134 1.85145 2.23986 0
M  V30 6458 H 609.681 2.16169 1.40103 0
M  V30 6459 H 609.639 1.26402 2.87871 0
M  V30 6460 N 613.412 0.11024 1.57214 0
M  V30 6461 C 614.637 -0.561179 1.99664 0
M  V30 6462 C 615.062 -1.59985 0.989266 0
M  V30 6463 O 614.42 -1.81255 -0.0402399 0
M  V30 6464 C 614.468 -1.17189 3.41027 0
M  V30 6465 O 613.572 -2.28755 3.4314 0
M  V30 6466 H 612.913 -0.14101 0.648855 0
M  V30 6467 H 615.443 0.196128 2.03658 0
M  V30 6468 H 615.453 -1.50954 3.79047 0
M  V30 6469 H 614.128 -0.411041 4.13864 0
M  V30 6470 H 612.705 -1.96495 3.16929 0
M  V30 6471 N 614.89 -1.56749 -0.16351 0
M  V30 6472 C 616.115 -1.86938 -0.898264 0
M  V30 6473 C 616.54 -0.697456 -1.74692 0
M  V30 6474 O 615.898 0.353327 -1.77824 0
M  V30 6475 C 615.946 -3.15599 -1.74441 0
M  V30 6476 O 615.05 -2.98371 -2.8469 0
M  V30 6477 H 614.391 -0.614659 -0.251178 0
M  V30 6478 H 616.921 -2.03979 -0.159298 0
M  V30 6479 H 616.931 -3.47202 -2.14277 0
M  V30 6480 H 615.606 -4.00505 -1.1211 0
M  V30 6481 H 614.183 -2.7814 -2.4838 0
M  V30 6482 N 616.368 0.432326 -1.51554 0
M  V30 6483 C 617.298 1.53242 -1.76179 0
M  V30 6484 C 618.279 1.58717 -0.611801 0
M  V30 6485 O 619.464 1.74364 -0.855033 0
M  V30 6486 C 616.594 2.91278 -1.89141 0
M  V30 6487 C 615.548 3.00663 -3.04608 0
M  V30 6488 C 614.874 4.40728 -3.02759 0
M  V30 6489 C 616.174 2.74281 -4.44485 0
M  V30 6490 H 617.868 1.32886 -2.68294 0
M  V30 6491 H 615.414 0.637841 -1.29103 0
M  V30 6492 H 617.367 3.68203 -2.04951 0
M  V30 6493 H 616.091 3.12877 -0.936785 0
M  V30 6494 H 614.75 2.26179 -2.88511 0
M  V30 6495 H 614.398 4.59301 -2.05065 0
M  V30 6496 H 614.098 4.47936 -3.80299 0
M  V30 6497 H 615.622 5.19619 -3.20669 0
M  V30 6498 H 617.036 3.40936 -4.60907 0
M  V30 6499 H 615.433 2.92893 -5.23769 0
M  V30 6500 H 616.503 1.69856 -4.54177 0
M  V30 6501 N 617.846 1.41785 0.688094 0
M  V30 6502 C 618.794 1.44436 1.82321 0
M  V30 6503 C 619.788 0.321544 1.6632 0
M  V30 6504 O 620.994 0.493931 1.73091 0
M  V30 6505 H 617.369 0.452084 0.600936 0
M  V30 6506 H 619.34 2.40087 1.77202 0
M  V30 6507 C 618.089 1.35071 3.20392 0
M  V30 6508 H 617.412 2.2076 3.33324 0
M  V30 6509 H 618.852 1.40988 3.99873 0
M  V30 6510 C 617.311 0.0639127 3.36839 0
M  V30 6511 O 617.841 -0.888495 3.91751 0
M  V30 6512 N 616.047 -0.0146114 2.90596 0
M  V30 6513 H 615.594 0.761191 2.46097 0
M  V30 6514 H 615.552 -0.874988 3.01979 0
M  V30 6515 N 619.324 -0.923095 1.27737 0
M  V30 6516 C 620.735 -1.48626 1.12993 0
M  V30 6517 C 621.086 -1.94142 -0.283439 0
M  V30 6518 O 620.211 -1.81605 -1.17681 0
M  V30 6519 C 620.806 -2.70117 2.04505 0
M  V30 6520 C 619.365 -3.22642 1.93853 0
M  V30 6521 C 618.512 -1.95368 1.96791 0
M  V30 6522 H 621.463 -0.736737 1.40563 0
M  V30 6523 H 621.484 -3.4506 1.60356 0
M  V30 6524 H 620.996 -2.36959 3.07363 0
M  V30 6525 H 619.097 -3.60549 0.939968 0
M  V30 6526 H 619.21 -3.88525 2.80331 0
M  V30 6527 H 617.574 -2.12061 1.41076 0
M  V30 6528 H 618.357 -1.64517 3.01312 0
M  V30 6529 N 620.802 -1.09834 -1.13024 0
M  V30 6530 C 622.048 -0.83819 -1.84668 0
M  V30 6531 C 622.381 0.634645 -1.83537 0
M  V30 6532 O 621.656 1.46753 -1.27647 0
M  V30 6533 C 621.939 -1.37933 -3.32636 0
M  V30 6534 C 621.792 -2.91857 -3.42257 0
M  V30 6535 C 623.111 -1.01654 -4.28199 0
M  V30 6536 H 620.23 -0.30595 -0.670495 0
M  V30 6537 H 622.872 -1.36044 -1.32635 0
M  V30 6538 H 621.022 -0.935111 -3.77078 0
M  V30 6539 H 622.694 -3.44759 -3.06495 0
M  V30 6540 H 620.937 -3.28776 -2.83 0
M  V30 6541 H 621.608 -3.24799 -4.46329 0
M  V30 6542 H 624.084 -1.39973 -3.9185 0
M  V30 6543 H 622.96 -1.42217 -5.30156 0
M  V30 6544 H 623.221 0.0747794 -4.42037 0
M  V30 6545 N 622.28 1.30327 -0.886154 0
M  V30 6546 C 623.529 1.95373 -0.501243 0
M  V30 6547 C 623.842 1.70722 0.954634 0
M  V30 6548 O 625.048 2.29761 1.44644 0
M  V30 6549 C 623.504 3.49828 -0.845493 0
M  V30 6550 C 623.112 3.83296 -2.31922 0
M  V30 6551 C 624.856 4.2118 -0.529838 0
M  V30 6552 C 622.763 5.30935 -2.60504 0
M  V30 6553 H 621.693 0.731274 -0.183722 0
M  V30 6554 H 624.344 1.48258 -1.08129 0
M  V30 6555 H 622.726 3.95522 -0.19452 0
M  V30 6556 H 623.9 3.48508 -3.01461 0
M  V30 6557 H 622.215 3.2505 -2.60253 0
M  V30 6558 H 624.812 5.29825 -0.720401 0
M  V30 6559 H 625.155 4.12902 0.530828 0
M  V30 6560 H 625.688 3.81173 -1.13806 0
M  V30 6561 H 622.427 5.44265 -3.65316 0
M  V30 6562 H 621.947 5.67019 -1.95575 0
M  V30 6563 H 623.626 5.98381 -2.46066 0
M  V30 6564 N 623.758 0.647228 1.43697 0
M  V30 6565 C 624.988 0.16551 2.05936 0
M  V30 6566 C 625.396 -1.17164 1.48557 0
M  V30 6567 O 624.739 -1.73307 0.60914 0
M  V30 6568 C 624.801 -0.00648082 3.59499 0
M  V30 6569 C 624.465 1.25503 4.39429 0
M  V30 6570 C 625.462 2.18241 4.71876 0
M  V30 6571 C 623.147 1.49494 4.79538 0
M  V30 6572 C 625.141 3.33268 5.43333 0
M  V30 6573 C 622.828 2.64815 5.50742 0
M  V30 6574 C 623.826 3.56528 5.82561 0
M  V30 6575 O 623.514 4.69836 6.52311 0
M  V30 6576 H 623.246 0.0844124 0.670709 0
M  V30 6577 H 625.8 0.88638 1.8529 0
M  V30 6578 H 624.03 -0.782661 3.78697 0
M  V30 6579 H 625.719 -0.444794 4.03456 0
M  V30 6580 H 626.485 2.00946 4.41413 0
M  V30 6581 H 622.364 0.789912 4.54182 0
M  V30 6582 H 625.908 4.04874 5.68087 0
M  V30 6583 H 621.805 2.82047 5.8062 0
M  V30 6584 H 622.573 4.69024 6.70789 0
M  V30 6585 N 625.236 -1.5273 0.388769 0
M  V30 6586 C 626.464 -2.05992 -0.193677 0
M  V30 6587 C 626.879 -1.26053 -1.40557 0
M  V30 6588 O 626.236 -0.307049 -1.79898 0
M  V30 6589 C 626.287 -3.57068 -0.564321 0
M  V30 6590 O 626.008 -4.3398 0.599422 0
M  V30 6591 C 627.509 -4.26674 -1.20269 0
M  V30 6592 H 624.729 -0.670358 -0.0293445 0
M  V30 6593 H 627.273 -1.96857 0.553844 0
M  V30 6594 H 625.428 -3.66277 -1.26174 0
M  V30 6595 H 625.842 -5.2367 0.294895 0
M  V30 6596 H 627.316 -5.33625 -1.4124 0
M  V30 6597 H 627.793 -3.81854 -2.16989 0
M  V30 6598 H 628.399 -4.2178 -0.546047 0
M  V30 6599 N 626.714 -0.118576 -1.57153 0
M  V30 6600 C 627.963 0.539339 -1.94355 0
M  V30 6601 C 628.276 1.67858 -1.00415 0
M  V30 6602 O 629.482 2.39922 -1.27081 0
M  V30 6603 C 627.938 1.01082 -3.45414 0
M  V30 6604 C 627.546 -0.0999402 -4.47889 0
M  V30 6605 C 629.29 1.64013 -3.91535 0
M  V30 6606 C 627.197 0.388212 -5.90124 0
M  V30 6607 H 626.127 0.205247 -0.725527 0
M  V30 6608 H 628.778 -0.19836 -1.82425 0
M  V30 6609 H 627.16 1.80292 -3.52577 0
M  V30 6610 H 628.334 -0.876189 -4.52393 0
M  V30 6611 H 626.649 -0.635885 -4.11516 0
M  V30 6612 H 629.246 2.01649 -4.95219 0
M  V30 6613 H 629.589 2.51836 -3.31488 0
M  V30 6614 H 630.122 0.913439 -3.87171 0
M  V30 6615 H 626.861 -0.453963 -6.53926 0
M  V30 6616 H 626.381 1.13095 -5.89041 0
M  V30 6617 H 628.06 0.849574 -6.41398 0
M  V30 6618 N 628.193 1.56834 0.155195 0
M  V30 6619 C 629.44 1.82898 0.869179 0
M  V30 6620 C 629.768 0.698194 1.81537 0
M  V30 6621 O 629.023 -0.313404 1.93174 0
M  V30 6622 C 629.322 3.15239 1.68402 0
M  V30 6623 C 628.988 4.42123 0.885341 0
M  V30 6624 C 627.65 4.76583 0.664971 0
M  V30 6625 C 630.002 5.20178 0.326234 0
M  V30 6626 C 627.33 5.86566 -0.125346 0
M  V30 6627 C 629.682 6.3099 -0.45108 0
M  V30 6628 C 628.346 6.64006 -0.682102 0
M  V30 6629 H 627.616 0.66927 0.318055 0
M  V30 6630 H 630.263 1.91036 0.133241 0
M  V30 6631 H 628.568 3.02515 2.48982 0
M  V30 6632 H 630.265 3.32618 2.23978 0
M  V30 6633 H 626.855 4.15102 1.06716 0
M  V30 6634 H 631.039 4.93936 0.483787 0
M  V30 6635 H 626.295 6.10594 -0.313915 0
M  V30 6636 H 630.469 6.9067 -0.89149 0
M  V30 6637 H 628.096 7.49065 -1.29636 0
M  V30 6638 N 629.671 -0.424282 1.51781 0
M  V30 6639 C 630.619 -1.53649 1.74628 0
M  V30 6640 C 631.613 -1.57923 0.612922 0
M  V30 6641 O 632.819 -1.61511 0.794618 0
M  V30 6642 H 629.194 -0.510706 0.551981 0
M  V30 6643 H 631.165 -1.31558 2.67834 0
M  V30 6644 C 629.914 -2.91177 1.9003 0
M  V30 6645 H 629.237 -2.88625 2.76651 0
M  V30 6646 H 630.677 -3.6833 2.10021 0
M  V30 6647 C 629.136 -3.30303 0.663435 0
M  V30 6648 O 629.666 -4.01315 -0.175812 0
M  V30 6649 N 627.872 -2.86201 0.503723 0
M  V30 6650 H 627.419 -2.28583 1.18776 0
M  V30 6651 H 627.377 -3.12741 -0.322575 0
M  V30 6652 N 631.149 -1.42148 -0.680565 0
M  V30 6653 C 632.081 -1.41119 -1.80605 0
M  V30 6654 C 633.094 -0.311099 -1.598 0
M  V30 6655 O 634.283 -0.573813 -1.69026 0
M  V30 6656 C 631.383 -1.18204 -3.17618 0
M  V30 6657 C 630.556 -2.40537 -3.65322 0
M  V30 6658 C 629.615 -2.13254 -4.8105 0
M  V30 6659 O 628.641 -2.8641 -4.91892 0
M  V30 6660 N 629.843 -1.13208 -5.69354 0
M  V30 6661 H 632.608 -2.38128 -1.81975 0
M  V30 6662 H 630.169 -1.36953 -0.863446 0
M  V30 6663 H 632.161 -0.97878 -3.92686 0
M  V30 6664 H 630.731 -0.29738 -3.11182 0
M  V30 6665 H 629.951 -2.76468 -2.80996 0
M  V30 6666 H 631.239 -3.22012 -3.93936 0
M  V30 6667 H 630.637 -0.526893 -5.63241 0
M  V30 6668 H 629.194 -0.988699 -6.44258 0
M  V30 6669 N 632.627 0.916307 -1.28225 0
M  V30 6670 C 633.904 1.64429 -1.05936 0
M  V30 6671 C 634.284 2.07234 0.402139 0
M  V30 6672 O 633.632 1.81535 1.3877 0
M  V30 6673 C 633.842 2.83773 -2.03159 0
M  V30 6674 C 635.19 3.54852 -2.33164 0
M  V30 6675 O 636.214 2.93918 -2.01223 0
M  V30 6676 O 635.073 4.64663 -2.87664 0
M  V30 6677 H 632.167 0.721221 -0.404683 0
M  V30 6678 H 634.713 0.965838 -1.39534 0
M  V30 6679 H 633.485 2.49217 -3.01673 0
M  V30 6680 H 633.108 3.59333 -1.70192 0
M  V30 6681 N 634.105 1.10431 1.1244 0
M  V30 6682 C 635.352 0.846717 1.83948 0
M  V30 6683 C 635.68 -0.627709 1.84093 0
M  V30 6684 O 634.935 -1.47876 1.28184 0
M  V30 6685 C 635.234 1.34022 3.3132 0
M  V30 6686 C 634.9 2.82606 3.51347 0
M  V30 6687 C 633.562 3.23182 3.56521 0
M  V30 6688 C 635.914 3.78356 3.58464 0
M  V30 6689 C 633.242 4.58258 3.66356 0
M  V30 6690 C 635.594 5.13234 3.69829 0
M  V30 6691 C 634.258 5.53384 3.73259 0
M  V30 6692 H 633.528 0.309836 0.673114 0
M  V30 6693 H 636.175 1.38091 1.32677 0
M  V30 6694 H 634.48 0.726047 3.85014 0
M  V30 6695 H 636.177 1.11739 3.85118 0
M  V30 6696 H 632.767 2.50212 3.47983 0
M  V30 6697 H 636.951 3.48115 3.53737 0
M  V30 6698 H 632.207 4.88787 3.67284 0
M  V30 6699 H 636.381 5.87272 3.74279 0
M  V30 6700 H 634.008 6.58045 3.80633 0
M  V30 6701 N 635.583 -1.29855 0.893053 0
M  V30 6702 C 636.999 -1.48366 0.588199 0
M  V30 6703 C 637.199 -1.81654 -0.872018 0
M  V30 6704 O 636.255 -1.909 -1.65268 0
M  V30 6705 C 637.568 -2.60136 1.5083 0
M  V30 6706 C 639.116 -2.74014 1.51279 0
M  V30 6707 C 639.591 -3.88905 2.41902 0
M  V30 6708 N 641.082 -3.96228 2.39911 0
M  V30 6709 C 641.817 -4.84458 3.06738 0
M  V30 6710 N 641.313 -5.77426 3.8282 0
M  V30 6711 N 643.106 -4.77894 2.95929 0
M  V30 6712 H 635.257 -1.06522 1.83757 0
M  V30 6713 H 637.52 -0.528495 0.787018 0
M  V30 6714 H 637.226 -2.42383 2.54839 0
M  V30 6715 H 637.1 -3.56793 1.22388 0
M  V30 6716 H 639.487 -2.91167 0.480179 0
M  V30 6717 H 639.568 -1.77952 1.83757 0
M  V30 6718 H 639.212 -3.72508 3.45253 0
M  V30 6719 H 639.142 -4.84322 2.06737 0
M  V30 6720 H 641.633 -3.29728 1.84629 0
M  V30 6721 H 641.946 -6.41529 4.30883 0
M  V30 6722 H 640.291 -5.77332 3.86927 0
M  V30 6723 H 643.482 -4.04248 2.36012 0
M  V30 6724 H 643.655 -5.46444 3.48286 0
M  V30 6725 N 637.061 -0.65484 -1.43351 0
M  V30 6726 C 638.477 -0.32255 -1.56307 0
M  V30 6727 C 638.677 1.17324 -1.63821 0
M  V30 6728 O 637.733 1.95813 -1.59417 0
M  V30 6729 C 639.046 -1.03533 -2.82314 0
M  V30 6730 C 640.594 -1.01574 -2.9606 0
M  V30 6731 C 641.069 -1.70945 -4.24902 0
M  V30 6732 N 642.56 -1.67716 -4.3177 0
M  V30 6733 C 643.295 -2.18265 -5.30234 0
M  V30 6734 N 642.791 -2.7711 -6.34966 0
M  V30 6735 N 644.584 -2.08756 -5.21898 0
M  V30 6736 H 636.735 -1.62549 -1.36717 0
M  V30 6737 H 638.998 -0.683676 -0.656727 0
M  V30 6738 H 638.704 -2.09045 -2.8283 0
M  V30 6739 H 638.578 -0.587913 -3.7259 0
M  V30 6740 H 640.965 0.0309834 -2.95084 0
M  V30 6741 H 641.046 -1.50186 -2.07069 0
M  V30 6742 H 640.69 -2.75574 -4.26639 0
M  V30 6743 H 640.62 -1.19797 -5.12793 0
M  V30 6744 H 643.111 -1.24777 -3.56706 0
M  V30 6745 H 643.424 -3.13353 -7.06421 0
M  V30 6746 H 641.769 -2.81171 -6.35585 0
M  V30 6747 H 644.96 -1.62488 -4.38994 0
M  V30 6748 H 645.133 -2.48459 -5.98475 0
M  V30 6749 N 638.539 1.52521 -0.396863 0
M  V30 6750 C 639.502 2.2527 0.422604 0
M  V30 6751 C 640.502 1.27184 0.983913 0
M  V30 6752 O 641.692 1.51222 0.864723 0
M  V30 6753 C 638.824 3.01356 1.59365 0
M  V30 6754 H 640.017 2.99133 -0.214416 0
M  V30 6755 H 637.57 1.55587 -0.149128 0
M  V30 6756 H 638.305 2.31813 2.26789 0
M  V30 6757 H 638.09 3.73357 1.19779 0
M  V30 6758 H 639.58 3.56571 2.17363 0
M  V30 6759 N 640.017 0.126909 1.57088 0
M  V30 6760 C 641.264 -0.529168 1.95464 0
M  V30 6761 C 641.592 -1.6618 1.01067 0
M  V30 6762 O 640.847 -1.95667 0.0360254 0
M  V30 6763 C 641.146 -1.095 3.40212 0
M  V30 6764 C 640.812 -0.0829015 4.50824 0
M  V30 6765 C 639.474 0.195377 4.80803 0
M  V30 6766 C 641.826 0.606411 5.1766 0
M  V30 6767 C 639.154 1.16912 5.74933 0
M  V30 6768 C 641.506 1.56884 6.12838 0
M  V30 6769 C 640.17 1.85502 6.41206 0
M  V30 6770 H 639.44 -0.193636 0.715252 0
M  V30 6771 H 642.087 0.209489 1.90351 0
M  V30 6772 H 640.392 -1.91058 3.42059 0
M  V30 6773 H 642.089 -1.61087 3.67222 0
M  V30 6774 H 638.679 -0.309979 4.27478 0
M  V30 6775 H 642.863 0.404597 4.94648 0
M  V30 6776 H 638.119 1.3975 5.95214 0
M  V30 6777 H 642.293 2.10859 6.6371 0
M  V30 6778 H 639.92 2.61109 7.13951 0
M  V30 6779 N 641.495 -1.56914 -0.146875 0
M  V30 6780 C 642.911 -1.51582 -0.499518 0
M  V30 6781 C 643.111 -0.83535 -1.83369 0
M  V30 6782 O 642.167 -0.405932 -2.49216 0
M  V30 6783 C 643.48 -2.96349 -0.509711 0
M  V30 6784 C 645.028 -3.07288 -0.595217 0
M  V30 6785 C 645.503 -4.53562 -0.636071 0
M  V30 6786 N 646.994 -4.57906 -0.69829 0
M  V30 6787 C 647.729 -5.68462 -0.750886 0
M  V30 6788 N 647.225 -6.88588 -0.76282 0
M  V30 6789 N 649.018 -5.56496 -0.791777 0
M  V30 6790 H 641.169 -1.99547 0.727656 0
M  V30 6791 H 643.432 -0.910113 0.265327 0
M  V30 6792 H 643.138 -3.4939 0.402409 0
M  V30 6793 H 643.012 -3.52307 -1.34758 0
M  V30 6794 H 645.399 -2.54266 -1.49776 0
M  V30 6795 H 645.48 -2.54373 0.2698 0
M  V30 6796 H 645.124 -5.07222 0.262313 0
M  V30 6797 H 645.054 -5.04259 -1.51758 0
M  V30 6798 H 647.545 -3.71429 -0.696362 0
M  V30 6799 H 647.858 -7.68598 -0.804804 0
M  V30 6800 H 646.203 -6.91148 -0.730694 0
M  V30 6801 H 649.394 -4.61562 -0.779624 0
M  V30 6802 H 649.567 -6.42671 -0.829301 0
M  V30 6803 N 642.974 0.416227 -1.52004 0
M  V30 6804 C 644.39 0.754319 -1.40649 0
M  V30 6805 C 644.59 1.95059 -0.505392 0
M  V30 6806 O 643.646 2.5248 0.0315057 0
M  V30 6807 C 644.959 1.0149 -2.83055 0
M  V30 6808 C 646.507 1.11805 -2.9235 0
M  V30 6809 C 646.982 1.41144 -4.35709 0
M  V30 6810 N 648.473 1.48024 -4.38911 0
M  V30 6811 C 649.208 1.72338 -5.46889 0
M  V30 6812 N 648.704 1.94303 -6.64995 0
M  V30 6813 N 650.497 1.74294 -5.34395 0
M  V30 6814 H 642.648 -0.371324 -2.09129 0
M  V30 6815 H 644.911 -0.103811 -0.942299 0
M  V30 6816 H 644.617 0.208345 -3.51082 0
M  V30 6817 H 644.491 1.93697 -3.23668 0
M  V30 6818 H 646.878 1.91521 -2.24508 0
M  V30 6819 H 646.959 0.17451 -2.55204 0
M  V30 6820 H 646.603 0.619484 -5.04108 0
M  V30 6821 H 646.533 2.36739 -4.70385 0
M  V30 6822 H 649.024 1.32868 -3.53772 0
M  V30 6823 H 649.337 2.12286 -7.43071 0
M  V30 6824 H 647.682 1.91582 -6.68073 0
M  V30 6825 H 650.873 1.56667 -4.41104 0
M  V30 6826 H 651.046 1.92904 -6.18621 0
M  V30 6827 N 644.452 1.42507 0.673017 0
M  V30 6828 C 645.701 1.42364 1.42883 0
M  V30 6829 C 646.014 0.0441598 1.9555 0
M  V30 6830 O 647.22 -0.0798679 2.71382 0
M  V30 6831 C 645.676 2.5043 2.58482 0
M  V30 6832 C 645.284 3.94392 2.12506 0
M  V30 6833 C 647.028 2.59455 3.35981 0
M  V30 6834 C 644.935 4.93964 3.25198 0
M  V30 6835 H 643.865 0.52951 0.536782 0
M  V30 6836 H 646.516 1.68422 0.728448 0
M  V30 6837 H 644.898 2.1754 3.30896 0
M  V30 6838 H 646.072 4.36645 1.47233 0
M  V30 6839 H 644.387 3.89233 1.4794 0
M  V30 6840 H 646.984 3.31025 4.19912 0
M  V30 6841 H 647.327 1.63869 3.82691 0
M  V30 6842 H 647.86 2.91549 2.70637 0
M  V30 6843 H 644.599 5.91034 2.83477 0
M  V30 6844 H 644.119 4.56341 3.89247 0
M  V30 6845 H 645.798 5.15763 3.90637 0
M  V30 6846 N 645.93 -0.909495 1.28709 0
M  V30 6847 C 646.86 -2.0291 1.15542 0
M  V30 6848 C 647.841 -1.7002 0.0521017 0
M  V30 6849 O 649.026 -1.92835 0.229849 0
M  V30 6850 C 646.156 -3.37458 0.820935 0
M  V30 6851 C 645.11 -3.84524 1.87949 0
M  V30 6852 C 644.436 -5.16086 1.39854 0
M  V30 6853 C 645.736 -4.05918 3.28676 0
M  V30 6854 H 647.43 -2.14183 2.09203 0
M  V30 6855 H 644.976 -1.02913 1.00722 0
M  V30 6856 H 646.929 -4.1528 0.715571 0
M  V30 6857 H 645.653 -3.26249 -0.151374 0
M  V30 6858 H 644.312 -3.08911 1.97408 0
M  V30 6859 H 643.96 -5.01284 0.41518 0
M  V30 6860 H 643.66 -5.48547 2.1064 0
M  V30 6861 H 645.184 -5.96459 1.30649 0
M  V30 6862 H 646.598 -4.74252 3.22115 0
M  V30 6863 H 644.995 -4.49717 3.97334 0
M  V30 6864 H 646.065 -3.10583 3.72379 0
M  V30 6865 N 647.408 -1.11026 -1.11852 0
M  V30 6866 C 648.648 -0.866348 -1.85132 0
M  V30 6867 C 649.012 0.597236 -1.82475 0
M  V30 6868 O 650.213 0.957744 -2.51159 0
M  V30 6869 C 648.484 -1.40721 -3.28531 0
M  V30 6870 S 650.043 -1.29964 -4.19112 0
M  V30 6871 H 646.861 -0.312899 -0.638447 0
M  V30 6872 H 649.463 -1.41691 -1.34699 0
M  V30 6873 H 648.167 -2.46631 -3.28027 0
M  V30 6874 H 647.698 -0.85349 -3.8403 0
M  V30 6875 H 649.713 -0.261333 -4.95511 0
M  V30 6876 N 648.886 1.2938 -0.899927 0
M  V30 6877 C 650.302 1.48052 -0.596059 0
M  V30 6878 C 650.502 1.82114 0.862372 0
M  V30 6879 O 649.558 1.91774 1.64253 0
M  V30 6880 C 650.871 2.59332 -1.52208 0
M  V30 6881 C 652.419 2.73208 -1.5273 0
M  V30 6882 C 652.894 3.87617 -2.43961 0
M  V30 6883 N 654.385 3.9495 -2.42009 0
M  V30 6884 C 655.12 4.82824 -3.09303 0
M  V30 6885 N 654.616 5.75387 -3.85877 0
M  V30 6886 N 656.409 4.76317 -2.98459 0
M  V30 6887 H 648.56 1.05546 -1.8432 0
M  V30 6888 H 650.823 0.524314 -0.78981 0
M  V30 6889 H 650.529 2.41029 -2.56121 0
M  V30 6890 H 650.403 3.56139 -1.24278 0
M  V30 6891 H 652.79 2.90908 -0.495614 0
M  V30 6892 H 652.871 1.76975 -1.84698 0
M  V30 6893 H 652.515 3.70672 -3.47224 0
M  V30 6894 H 652.445 4.83218 -2.09303 0
M  V30 6895 H 654.936 3.28744 -1.86375 0
M  V30 6896 H 655.249 6.39235 -4.34279 0
M  V30 6897 H 653.594 5.75272 -3.89984 0
M  V30 6898 H 656.785 4.0299 -2.38152 0
M  V30 6899 H 656.958 5.44589 -3.51179 0
M  V30 6900 N 650.364 0.662433 1.43002 0
M  V30 6901 C 651.775 0.258315 1.84904 0
M  V30 6902 C 652.126 -1.19703 1.55453 0
M  V30 6903 O 651.251 -1.91484 1.00811 0
M  V30 6904 C 651.846 0.462047 3.35635 0
M  V30 6905 C 650.405 0.112165 3.76233 0
M  V30 6906 C 649.552 0.760479 2.66668 0
M  V30 6907 H 652.503 0.865467 1.33024 0
M  V30 6908 H 652.524 -0.289646 3.79396 0
M  V30 6909 H 652.036 1.52135 3.57039 0
M  V30 6910 H 650.137 -0.944179 3.60439 0
M  V30 6911 H 650.25 0.544058 4.76001 0
M  V30 6912 H 648.614 0.192887 2.53969 0
M  V30 6913 H 649.397 1.82299 2.90898 0
M  V30 6914 N 651.842 -1.52309 0.404946 0
M  V30 6915 C 653.088 -2.02731 -0.164857 0
M  V30 6916 C 653.443 -1.28543 -1.43159 0
M  V30 6917 O 652.736 -0.381883 -1.87756 0
M  V30 6918 C 652.93 -3.54284 -0.470895 0
M  V30 6919 C 652.759 -4.43152 0.764625 0
M  V30 6920 C 651.529 -4.88594 1.28858 0
M  V30 6921 C 653.727 -4.874 1.64152 0
M  V30 6922 N 651.709 -5.61577 2.48001 0
M  V30 6923 C 653.08 -5.59121 2.67924 0
M  V30 6924 C 655.135 -4.69421 1.65978 0
M  V30 6925 C 653.838 -6.14772 3.73427 0
M  V30 6926 C 655.864 -5.25966 2.70396 0
M  V30 6927 C 655.226 -5.97606 3.7289 0
M  V30 6928 H 651.325 -0.78169 -0.0220025 0
M  V30 6929 H 653.909 -1.86522 0.558354 0
M  V30 6930 H 652.08 -3.70574 -1.16315 0
M  V30 6931 H 653.812 -3.91394 -1.02921 0
M  V30 6932 H 650.567 -4.6596 0.847232 0
M  V30 6933 H 650.991 -6.02712 3.08329 0
M  V30 6934 H 655.633 -4.13524 0.88079 0
M  V30 6935 H 653.351 -6.69743 4.52184 0
M  V30 6936 H 656.937 -5.13926 2.72711 0
M  V30 6937 H 655.817 -6.40577 4.52361 0
M  V30 6938 N 653.32 -0.135238 -1.57019 0
M  V30 6939 C 654.548 0.526066 -2.001 0
M  V30 6940 C 654.963 1.59184 -1.01519 0
M  V30 6941 O 654.32 1.82497 -0.0104258 0
M  V30 6942 C 654.371 1.13744 -3.43139 0
M  V30 6943 O 654.092 0.114259 -4.37951 0
M  V30 6944 C 655.593 1.8805 -4.01438 0
M  V30 6945 H 652.813 0.137962 -0.656664 0
M  V30 6946 H 655.357 -0.226359 -2.03243 0
M  V30 6947 H 653.512 1.84056 -3.40885 0
M  V30 6948 H 653.926 0.56058 -5.21496 0
M  V30 6949 H 655.4 2.26133 -5.03555 0
M  V30 6950 H 655.877 2.76194 -3.41487 0
M  V30 6951 H 656.483 1.22464 -4.07287 0
M  V30 6952 N 654.798 1.5699 0.138552 0
M  V30 6953 C 655.73 1.95515 1.1961 0
M  V30 6954 C 656.743 0.852002 1.38726 0
M  V30 6955 O 657.932 1.13038 1.38147 0
M  V30 6956 C 655.032 2.2213 2.55952 0
M  V30 6957 C 654.205 3.53424 2.57702 0
M  V30 6958 C 653.264 3.6848 3.75645 0
M  V30 6959 O 652.29 4.4079 3.60129 0
M  V30 6960 N 653.492 3.05777 4.93438 0
M  V30 6961 H 656.257 2.86838 0.868557 0
M  V30 6962 H 653.818 1.58542 0.328033 0
M  V30 6963 H 655.81 2.29435 3.33379 0
M  V30 6964 H 654.38 1.3703 2.80965 0
M  V30 6965 H 653.6 3.57484 1.6613 0
M  V30 6966 H 654.888 4.39759 2.55909 0
M  V30 6967 H 654.286 2.46961 5.08947 0
M  V30 6968 H 652.843 3.18631 5.6861 0
M  V30 6969 N 656.276 -0.40816 1.52223 0
M  V30 6970 C 657.504 -1.17672 1.70179 0
M  V30 6971 C 657.919 -1.84257 0.411696 0
M  V30 6972 O 657.276 -1.7192 -0.612354 0
M  V30 6973 C 657.327 -2.23911 2.83806 0
M  V30 6974 O 657.048 -1.60044 4.0782 0
M  V30 6975 C 658.549 -3.1364 3.13281 0
M  V30 6976 H 655.769 -0.353562 0.570293 0
M  V30 6977 H 658.313 -0.480083 1.98785 0
M  V30 6978 H 656.468 -2.89242 2.57717 0
M  V30 6979 H 656.882 -2.30484 4.71145 0
M  V30 6980 H 658.356 -3.84255 3.96298 0
M  V30 6981 H 658.833 -3.76066 2.26872 0
M  V30 6982 H 659.439 -2.53977 3.41139 0
M  V30 6983 N 657.755 -1.42862 -0.66545 0
M  V30 6984 C 658.718 -1.46756 -1.76055 0
M  V30 6985 C 659.718 -0.353866 -1.56858 0
M  V30 6986 O 660.908 -0.615099 -1.62979 0
M  V30 6987 C 658.04 -1.30829 -3.14796 0
M  V30 6988 H 659.233 -2.44271 -1.73987 0
M  V30 6989 H 656.786 -1.29447 -0.875965 0
M  V30 6990 H 657.521 -0.342733 -3.22484 0
M  V30 6991 H 657.306 -2.11551 -3.30134 0
M  V30 6992 H 658.796 -1.36458 -3.94676 0
M  V30 6993 N 659.233 0.902656 -1.29189 0
M  V30 6994 C 660.479 1.6555 -1.18172 0
M  V30 6995 C 660.834 1.90569 0.264788 0
M  V30 6996 O 660.127 1.50292 1.1884 0
M  V30 6997 C 660.321 3.011 -1.92545 0
M  V30 6998 C 660.15 2.89312 -3.4428 0
M  V30 6999 C 658.92 2.90239 -4.1363 0
M  V30 7000 C 661.118 2.6656 -4.3983 0
M  V30 7001 N 659.1 2.69156 -5.5175 0
M  V30 7002 C 660.471 2.54429 -5.6539 0
M  V30 7003 C 662.526 2.51644 -4.29627 0
M  V30 7004 C 661.229 2.289 -6.81907 0
M  V30 7005 C 663.255 2.27498 -5.45892 0
M  V30 7006 C 662.617 2.16129 -6.70423 0
M  V30 7007 H 658.716 0.611519 -0.48741 0
M  V30 7008 H 661.3 1.06514 -1.62981 0
M  V30 7009 H 659.471 3.58202 -1.50154 0
M  V30 7010 H 661.203 3.65471 -1.73818 0
M  V30 7011 H 657.958 3.01412 -3.65305 0
M  V30 7012 H 658.382 2.61676 -6.24383 0
M  V30 7013 H 663.024 2.59178 -3.34045 0
M  V30 7014 H 660.742 2.20104 -7.77547 0
M  V30 7015 H 664.328 2.16805 -5.39895 0
M  V30 7016 H 663.208 1.97703 -7.5887 0
M  V30 7017 O 660.75 1.23723 1.03802 0
M  V30 7018 H 661.441 1.01035 1.65262 0
M  V30 END ATOM
M  V30 BEGIN BOND
M  V30 END BOND
M  V30 END CTAB
M  END
$$$$
