drugbank_target|Q9UQ05 Potassium voltage-gated channel subfamily H member 4 (DB00228; DB01069; DB01110)
 OpenBabel12092121213D

  0  0  0     0  0            999 V3000
M  V30 BEGIN CTAB
M  V30 COUNTS 15749 15952 0 0 0
M  V30 BEGIN ATOM
M  V30 1 H -0.908 1.98254 -0.117106 0
M  V30 2 N 0 1.576 0 0
M  V30 3 C 0.933 2.03868 1.02534 0
M  V30 4 C 1.911 0.928543 1.3348 0
M  V30 5 O 3.095 1.19667 1.45644 0
M  V30 6 C 0.222 2.43627 2.35294 0
M  V30 7 C -0.732 3.65373 2.2001 0
M  V30 8 S 0.101 5.13292 1.52614 0
M  V30 9 C 1.257 5.56322 2.86805 0
M  V30 10 H 1.49 2.90518 0.631377 0
M  V30 11 H -0.977 1.52953 0.210867 0
M  V30 12 H 0.981 2.67203 3.11629 0
M  V30 13 H -0.358 1.57376 2.7183 0
M  V30 14 H -1.165 3.90944 3.18086 0
M  V30 15 H -1.563 3.418 1.51819 0
M  V30 16 H 0.729 5.58782 3.83104 0
M  V30 17 H 1.672 6.56266 2.65933 0
M  V30 18 H 2.08 4.83886 2.90714 0
M  V30 19 N 1.4781 -0.272755 1.55222 0
M  V30 20 C 2.8891 -0.84378 1.66545 0
M  V30 21 C 3.2401 -1.87035 0.592641 0
M  V30 22 O 2.3651 -2.14761 -0.265818 0
M  V30 23 C 2.9601 -1.53723 3.01918 0
M  V30 24 C 1.5191 -2.05628 3.15268 0
M  V30 25 C 0.6661 -0.898424 2.62343 0
M  V30 26 H 3.6171 -0.0490998 1.58624 0
M  V30 27 H 3.6381 -2.40421 2.94921 0
M  V30 28 H 3.1501 -0.78983 3.79978 0
M  V30 29 H 1.2511 -2.83329 2.41983 0
M  V30 30 H 1.3641 -2.27142 4.21833 0
M  V30 31 H -0.2719 -1.29186 2.19506 0
M  V30 32 H 0.5111 -0.164528 3.42906 0
M  V30 33 N 2.9562 -1.48159 -0.537278 0
M  V30 34 C 4.2022 -1.56035 -1.29541 0
M  V30 35 C 4.5352 -0.230377 -1.92829 0
M  V30 36 O 3.8102 0.762952 -1.78911 0
M  V30 37 C 4.0932 -2.69323 -2.39034 0
M  V30 38 C 3.9462 -4.12002 -1.80485 0
M  V30 39 C 5.2652 -2.78408 -3.40847 0
M  V30 40 H 2.3842 -0.567992 -0.469632 0
M  V30 41 H 5.0262 -1.80302 -0.599277 0
M  V30 42 H 3.1762 -2.48763 -2.98412 0
M  V30 43 H 4.8482 -4.43981 -1.25215 0
M  V30 44 H 3.0912 -4.19344 -1.11055 0
M  V30 45 H 3.7622 -4.87077 -2.59731 0
M  V30 46 H 6.2382 -2.97012 -2.91416 0
M  V30 47 H 5.1142 -3.59416 -4.14863 0
M  V30 48 H 5.3752 -1.86269 -4.00944 0
M  V30 49 N 4.4343 0.785586 -1.36625 0
M  V30 50 C 5.3673 1.90509 -1.25625 0
M  V30 51 C 6.3453 1.62 -0.139607 0
M  V30 52 O 7.5293 1.8591 -0.31141 0
M  V30 53 C 4.6563 3.25419 -0.939158 0
M  V30 54 C 3.7023 3.72856 -2.07077 0
M  V30 55 S 4.5353 3.88162 -3.68904 0
M  V30 56 C 5.6913 5.25942 -3.39317 0
M  V30 57 H 5.9243 1.99549 -2.20381 0
M  V30 58 H 3.4573 0.945226 -1.22085 0
M  V30 59 H 5.4153 4.03346 -0.763029 0
M  V30 60 H 4.0763 3.14099 -0.00931402 0
M  V30 61 H 3.2693 4.70624 -1.80357 0
M  V30 62 H 2.8713 3.01989 -2.20632 0
M  V30 63 H 5.1633 6.10651 -2.93447 0
M  V30 64 H 6.1063 5.57668 -4.36363 0
M  V30 65 H 6.5143 4.93224 -2.74573 0
M  V30 66 N 5.9124 1.20967 1.01018 0
M  V30 67 C 6.8594 0.964281 2.09691 0
M  V30 68 C 7.8294 -0.107853 1.65749 0
M  V30 69 O 9.0144 0.0381987 1.90762 0
M  V30 70 C 6.1544 0.52943 3.41015 0
M  V30 71 C 5.2674 1.67043 3.98398 0
M  V30 72 C 4.4024 1.18525 5.17808 0
M  V30 73 C 3.4414 2.29892 5.67288 0
M  V30 74 N 2.5784 1.82546 6.77954 0
M  V30 75 H 7.4184 1.89463 2.30017 0
M  V30 76 H 4.9554 0.944289 1.1279 0
M  V30 77 H 6.9134 0.258588 4.16398 0
M  V30 78 H 5.5434 -0.363919 3.20742 0
M  V30 79 H 4.5954 2.05603 3.20049 0
M  V30 80 H 5.9074 2.50877 4.31117 0
M  V30 81 H 5.0614 0.870762 6.00419 0
M  V30 82 H 3.8004 0.316887 4.86669 0
M  V30 83 H 2.8054 2.6215 4.83278 0
M  V30 84 H 4.0304 3.17216 6.00459 0
M  V30 85 H 1.9764 0.980454 6.48632 0
M  V30 86 H 1.8934 2.59956 7.09901 0
M  V30 87 H 3.1614 1.54115 7.64113 0
M  V30 88 N 7.3905 -1.2043 1.01659 0
M  V30 89 C 8.6385 -1.89423 0.704522 0
M  V30 90 C 8.9595 -1.79231 -0.768197 0
M  V30 91 O 8.2295 -1.1947 -1.55254 0
M  V30 92 H 6.8095 -0.701178 0.257602 0
M  V30 93 H 9.4715 -1.4626 1.28818 0
M  V30 94 H 8.5675 -2.96052 0.987916 0
M  V30 95 N 8.8686 -0.792821 -1.36206 0
M  V30 96 C 9.7986 -0.207853 -2.32573 0
M  V30 97 C 10.7796 0.659055 -1.56813 0
M  V30 98 O 11.9646 0.592176 -1.84951 0
M  V30 99 C 9.0946 0.655449 -3.41059 0
M  V30 100 C 8.0486 -0.111842 -4.27854 0
M  V30 101 C 7.3746 0.872274 -5.27537 0
M  V30 102 C 8.6746 -1.30299 -5.05786 0
M  V30 103 H 10.3686 -1.01294 -2.81744 0
M  V30 104 H 7.9146 -0.48854 -1.3546 0
M  V30 105 H 9.8676 1.07464 -4.07467 0
M  V30 106 H 8.5916 1.49328 -2.90463 0
M  V30 107 H 7.2506 -0.512053 -3.63006 0
M  V30 108 H 6.8986 1.70523 -4.73214 0
M  V30 109 H 6.5986 0.363291 -5.86476 0
M  V30 110 H 8.1226 1.28996 -5.96818 0
M  V30 111 H 9.5366 -0.959379 -5.65216 0
M  V30 112 H 7.9336 -1.7455 -5.74154 0
M  V30 113 H 9.0036 -2.09663 -4.37229 0
M  V30 114 N 10.3467 1.47872 -0.545128 0
M  V30 115 C 11.2767 2.32661 0.197793 0
M  V30 116 C 12.2577 1.43041 0.920504 0
M  V30 117 O 13.4427 1.71912 0.90333 0
M  V30 118 C 10.5727 3.24569 1.23582 0
M  V30 119 C 9.5267 4.23333 0.630323 0
M  V30 120 C 8.8527 5.0448 1.77211 0
M  V30 121 C 10.1527 5.20704 -0.407974 0
M  V30 122 H 11.8467 2.95024 -0.510045 0
M  V30 123 H 9.3927 1.4187 -0.246731 0
M  V30 124 H 11.3457 3.8272 1.76362 0
M  V30 125 H 10.0697 2.60236 1.97344 0
M  V30 126 H 8.7287 3.6639 0.123922 0
M  V30 127 H 8.3767 4.36561 2.49847 0
M  V30 128 H 8.0767 5.71339 1.37281 0
M  V30 129 H 9.6007 5.65487 2.3034 0
M  V30 130 H 11.0147 5.7329 0.033305 0
M  V30 131 H 9.4117 5.95699 -0.725486 0
M  V30 132 H 10.4817 4.66917 -1.30828 0
M  V30 133 N 11.8248 0.280983 1.55075 0
M  V30 134 C 12.7878 -0.590896 2.21452 0
M  V30 135 C 13.7878 -1.07682 1.19421 0
M  V30 136 O 14.9778 -0.97605 1.44288 0
M  V30 137 C 12.1098 -1.81587 2.88511 0
M  V30 138 H 13.3028 -0.0112554 2.99898 0
M  V30 139 H 10.8558 0.0316438 1.56268 0
M  V30 140 H 11.5908 -2.43587 2.14093 0
M  V30 141 H 11.3758 -1.4753 3.63287 0
M  V30 142 H 12.8658 -2.43575 3.39206 0
M  V30 143 N 13.3029 -1.57598 0.00835791 0
M  V30 144 C 14.7139 -1.7892 -0.53333 0
M  V30 145 C 15.0649 -0.916609 -1.73473 0
M  V30 146 O 14.1899 -0.121336 -2.1606 0
M  V30 147 C 14.7849 -3.24488 -0.974313 0
M  V30 148 C 13.3439 -3.46878 -1.46125 0
M  V30 149 C 12.4909 -2.74157 -0.416302 0
M  V30 150 H 15.4419 -1.56958 0.234495 0
M  V30 151 H 15.4629 -3.3306 -1.83988 0
M  V30 152 H 14.9749 -3.87972 -0.099718 0
M  V30 153 H 13.0759 -2.8862 -2.35646 0
M  V30 154 H 13.1889 -4.55572 -1.48295 0
M  V30 155 H 11.5529 -2.39022 -0.87981 0
M  V30 156 H 12.3359 -3.40345 0.44947 0
M  V30 157 N 14.781 0.264519 -1.55364 0
M  V30 158 C 15.713 1.34965 -1.85248 0
M  V30 159 C 16.726 1.45136 -0.737525 0
M  V30 160 O 17.915 1.46801 -1.01547 0
M  V30 161 C 15.015 2.73008 -2.00797 0
M  V30 162 C 14.188 2.85324 -3.31525 0
M  V30 163 C 13.247 4.04097 -3.37034 0
M  V30 164 O 12.273 3.94455 -4.10358 0
M  V30 165 N 13.475 5.16458 -2.65049 0
M  V30 166 H 16.24 1.09672 -2.78913 0
M  V30 167 H 13.801 0.454635 -1.55386 0
M  V30 168 H 15.793 3.50772 -2.01844 0
M  V30 169 H 14.363 2.91087 -1.1396 0
M  V30 170 H 13.583 1.94377 -3.42945 0
M  V30 171 H 14.871 2.9049 -4.17724 0
M  V30 172 H 14.269 5.27181 -2.05175 0
M  V30 173 H 12.826 5.92422 -2.71809 0
M  V30 174 N 16.2591 1.48442 0.529413 0
M  V30 175 C 17.2071 1.63452 1.65487 0
M  V30 176 C 18.2011 0.500955 1.61823 0
M  V30 177 O 19.4071 0.679695 1.66674 0
M  V30 178 H 15.7821 0.514905 0.548066 0
M  V30 179 H 17.7531 2.57975 1.49971 0
M  V30 180 C 16.5021 1.69196 3.03756 0
M  V30 181 H 15.8251 2.55784 3.07269 0
M  V30 182 H 17.2651 1.83743 3.82119 0
M  V30 183 C 15.7241 0.430765 3.34135 0
M  V30 184 O 16.2541 -0.4561 3.99102 0
M  V30 185 N 14.4601 0.302293 2.89023 0
M  V30 186 H 14.0071 1.02496 2.36331 0
M  V30 187 H 13.9651 -0.540546 3.09718 0
M  V30 188 N 17.7372 -0.778329 1.37039 0
M  V30 189 C 18.9652 -1.56734 1.35063 0
M  V30 190 C 19.3802 -1.88686 -0.0655597 0
M  V30 191 O 18.7372 -1.5096 -1.02554 0
M  V30 192 C 18.7882 -2.88163 2.18276 0
M  V30 193 O 18.5092 -2.57583 3.54376 0
M  V30 194 C 20.0102 -3.82422 2.24206 0
M  V30 195 H 17.2302 -0.485778 0.462883 0
M  V30 196 H 19.7742 -0.965185 1.8029 0
M  V30 197 H 17.9292 -3.44818 1.76576 0
M  V30 198 H 18.3432 -3.41699 3.97922 0
M  V30 199 H 19.8172 -4.71667 2.86765 0
M  V30 200 H 20.2942 -4.21078 1.24861 0
M  V30 201 H 20.9002 -3.31697 2.6619 0
M  V30 202 N 19.2153 -1.21501 -1.00376 0
M  V30 203 C 20.4623 -1.03299 -1.74171 0
M  V30 204 C 20.7903 0.433326 -1.89612 0
M  V30 205 O 20.0453 1.33779 -1.42834 0
M  V30 206 C 20.3443 -1.67673 -3.15627 0
M  V30 207 C 20.0103 -3.17533 -3.2013 0
M  V30 208 C 18.6723 -3.58427 -3.21067 0
M  V30 209 C 21.0243 -4.13504 -3.17275 0
M  V30 210 C 18.3523 -4.93794 -3.16835 0
M  V30 211 C 20.7043 -5.48834 -3.14585 0
M  V30 212 C 19.3683 -5.89123 -3.13831 0
M  V30 213 H 18.6383 -0.377999 -0.637336 0
M  V30 214 H 21.2853 -1.51111 -1.17634 0
M  V30 215 H 19.5903 -1.12158 -3.75404 0
M  V30 216 H 21.2873 -1.51091 -3.71446 0
M  V30 217 H 17.8773 -2.84965 -3.20145 0
M  V30 218 H 22.0613 -3.82936 -3.15711 0
M  V30 219 H 17.3173 -5.24255 -3.1459 0
M  V30 220 H 21.4913 -6.22934 -3.1133 0
M  V30 221 H 19.1183 -6.93984 -3.10307 0
M  V30 222 N 20.6934 1.19889 -1.02296 0
M  V30 223 C 21.6234 2.25141 -0.619174 0
M  V30 224 C 22.6044 1.66051 0.368915 0
M  V30 225 O 23.7894 1.92546 0.252941 0
M  V30 226 C 20.9194 3.4728 0.0368783 0
M  V30 227 C 19.8734 4.19005 -0.872865 0
M  V30 228 C 19.1994 5.34637 -0.0822402 0
M  V30 229 C 20.4994 4.74452 -2.18387 0
M  V30 230 H 22.1934 2.59171 -1.49903 0
M  V30 231 H 19.7394 1.24579 -0.722222 0
M  V30 232 H 21.6924 4.20098 0.330958 0
M  V30 233 H 20.4164 3.12433 0.95149 0
M  V30 234 H 19.0754 3.48061 -1.15105 0
M  V30 235 H 18.7234 4.96034 0.83422 0
M  V30 236 H 18.4234 5.83557 -0.688149 0
M  V30 237 H 19.9474 6.10255 0.205238 0
M  V30 238 H 21.3614 5.39055 -1.95172 0
M  V30 239 H 19.7584 5.33834 -2.74119 0
M  V30 240 H 20.8284 3.92844 -2.84257 0
M  V30 241 N 22.1715 0.800033 1.35784 0
M  V30 242 C 23.4485 0.30088 1.93272 0
M  V30 243 C 23.8285 -1.20857 1.73081 0
M  V30 244 O 23.1765 -2.00502 1.09596 0
M  V30 245 C 23.3865 0.70511 3.41803 0
M  V30 246 C 24.7345 0.690871 4.18942 0
M  V30 247 O 25.7585 0.646244 3.50289 0
M  V30 248 O 24.6175 0.74332 5.41421 0
M  V30 249 H 21.7115 0.0771605 0.823393 0
M  V30 250 H 24.2575 0.88329 1.449 0
M  V30 251 H 23.0295 1.74571 3.50201 0
M  V30 252 H 22.6525 0.0971541 3.97481 0
M  V30 253 N 23.6496 -1.47581 0.552962 0
M  V30 254 C 24.8776 -2.06875 0.0320556 0
M  V30 255 C 25.2926 -1.40625 -1.25976 0
M  V30 256 O 24.6496 -0.501349 -1.75479 0
M  V30 257 C 24.7006 -3.61092 -0.17167 0
M  V30 258 O 24.4216 -4.24858 1.06899 0
M  V30 259 C 25.9226 -4.37242 -0.730344 0
M  V30 260 H 23.1426 -0.669561 0.043915 0
M  V30 261 H 25.6866 -1.89646 0.765163 0
M  V30 262 H 23.8416 -3.7785 -0.854894 0
M  V30 263 H 24.2556 -5.17334 0.864059 0
M  V30 264 H 25.7296 -5.45842 -0.822203 0
M  V30 265 H 26.2066 -4.03235 -1.74064 0
M  V30 266 H 26.8126 -4.25219 -0.0829543 0
M  V30 267 N 25.1277 -0.289203 -1.54924 0
M  V30 268 C 26.3767 0.324231 -1.99077 0
M  V30 269 C 26.6897 1.5591 -1.18117 0
M  V30 270 O 27.8957 2.24637 -1.52481 0
M  V30 271 C 26.3517 0.628209 -3.54375 0
M  V30 272 C 25.9597 -0.587647 -4.44129 0
M  V30 273 C 27.7037 1.20349 -4.07083 0
M  V30 274 C 25.6107 -0.257475 -5.90839 0
M  V30 275 H 24.5407 0.124924 -0.743579 0
M  V30 276 H 27.1917 -0.396063 -1.79175 0
M  V30 277 H 25.5737 1.40778 -3.70132 0
M  V30 278 H 26.7477 -1.36418 -4.40144 0
M  V30 279 H 25.0627 -1.08074 -4.0213 0
M  V30 280 H 27.6597 1.46456 -5.14252 0
M  V30 281 H 28.0027 2.14195 -3.56968 0
M  V30 282 H 28.5357 0.485889 -3.94821 0
M  V30 283 H 25.2747 -1.16419 -6.45079 0
M  V30 284 H 24.7947 0.482018 -5.9786 0
M  V30 285 H 26.4737 0.145238 -6.46837 0
M  V30 286 N 26.6058 1.57591 -0.0167156 0
M  V30 287 C 27.5688 2.08393 0.954204 0
M  V30 288 C 28.5688 0.996531 1.26198 0
M  V30 289 O 29.7588 1.25858 1.20438 0
M  V30 290 C 26.8908 2.5394 2.27436 0
M  V30 291 H 28.0838 2.95455 0.514451 0
M  V30 292 H 25.6368 1.54582 0.231089 0
M  V30 293 H 26.3718 1.70171 2.76066 0
M  V30 294 H 26.1568 3.33371 2.06412 0
M  V30 295 H 27.6468 2.93512 2.97053 0
M  V30 296 N 28.0839 -0.256276 1.55502 0
M  V30 297 C 29.3119 -1.00342 1.8094 0
M  V30 298 C 29.7269 -1.79307 0.59114 0
M  V30 299 O 29.0839 -1.77114 -0.440081 0
M  V30 300 C 29.1349 -1.94875 3.04476 0
M  V30 301 O 28.8559 -1.19107 4.21598 0
M  V30 302 C 30.3569 -2.81266 3.42644 0
M  V30 303 H 27.5769 -0.295685 0.602338 0
M  V30 304 H 30.1209 -0.281998 2.02546 0
M  V30 305 H 28.2759 -2.62457 2.84947 0
M  V30 306 H 28.6899 -1.82969 4.91551 0
M  V30 307 H 30.1639 -3.43362 4.32211 0
M  V30 308 H 30.6409 -3.51897 2.62802 0
M  V30 309 H 31.2469 -2.1915 3.64491 0
M  V30 310 N 29.562 -1.4872 -0.521534 0
M  V30 311 C 30.978 -1.35028 -0.850855 0
M  V30 312 C 31.178 -0.367712 -1.98116 0
M  V30 313 O 30.234 0.208037 -2.51642 0
M  V30 314 C 31.547 -2.75263 -1.21041 0
M  V30 315 C 33.095 -2.83813 -1.31981 0
M  V30 316 C 33.57 -4.24769 -1.71276 0
M  V30 317 N 35.061 -4.27482 -1.78363 0
M  V30 318 C 35.796 -5.33494 -2.1017 0
M  V30 319 N 35.292 -6.49775 -2.40343 0
M  V30 320 N 37.085 -5.20894 -2.11248 0
M  V30 321 H 29.236 -2.11214 0.22413 0
M  V30 322 H 31.499 -0.947252 0.0376439 0
M  V30 323 H 31.205 -3.48765 -0.453415 0
M  V30 324 H 31.079 -3.09327 -2.15863 0
M  V30 325 H 33.466 -2.10561 -2.06756 0
M  V30 326 H 33.547 -2.53358 -0.352596 0
M  V30 327 H 33.191 -4.9854 -0.970588 0
M  V30 328 H 33.121 -4.52673 -2.69062 0
M  V30 329 H 35.612 -3.43611 -1.57288 0
M  V30 330 H 35.925 -7.26402 -2.63743 0
M  V30 331 H 34.27 -6.53035 -2.37844 0
M  V30 332 H 37.461 -4.29065 -1.87139 0
M  V30 333 H 37.634 -6.03612 -2.35704 0
M  V30 334 N 31.0401 0.771051 -1.3745 0
M  V30 335 C 32.2871 1.52963 -1.32697 0
M  V30 336 C 32.6151 1.94299 0.0883274 0
M  V30 337 O 31.8701 1.64397 1.0617 0
M  V30 338 C 32.1691 2.80676 -2.2126 0
M  V30 339 C 31.8351 2.58389 -3.69521 0
M  V30 340 C 30.4971 2.52019 -4.09927 0
M  V30 341 C 32.8491 2.38469 -4.63446 0
M  V30 342 C 30.1771 2.23721 -5.42371 0
M  V30 343 C 32.5291 2.11694 -5.96128 0
M  V30 344 C 31.1931 2.03769 -6.35637 0
M  V30 345 H 30.4631 0.559732 -0.485573 0
M  V30 346 H 33.1101 0.888083 -1.69662 0
M  V30 347 H 31.4151 3.49392 -1.77291 0
M  V30 348 H 33.1121 3.38557 -2.14895 0
M  V30 349 H 29.7021 2.6421 -3.37478 0
M  V30 350 H 33.8861 2.4238 -4.33089 0
M  V30 351 H 29.1421 2.16081 -5.71943 0
M  V30 352 H 33.3161 1.9528 -6.6846 0
M  V30 353 H 30.9431 1.81606 -7.38189 0
M  V30 354 N 32.5182 1.22032 0.997298 0
M  V30 355 C 33.7952 0.950823 1.70935 0
M  V30 356 C 34.1752 -0.535292 2.042 0
M  V30 357 O 33.5232 -1.50217 1.72183 0
M  V30 358 C 33.7332 1.84386 2.96315 0
M  V30 359 C 35.0812 2.09732 3.69185 0
M  V30 360 O 36.1052 1.81798 3.06314 0
M  V30 361 O 34.9642 2.57018 4.82291 0
M  V30 362 H 32.0582 0.357204 0.745878 0
M  V30 363 H 34.6042 1.32997 1.05404 0
M  V30 364 H 33.3762 2.84928 2.68201 0
M  V30 365 H 32.9992 1.46602 3.69586 0
M  V30 366 N 33.9963 -1.19345 1.0293 0
M  V30 367 C 35.2443 -1.88665 0.724574 0
M  V30 368 C 35.5653 -1.80036 -0.749144 0
M  V30 369 O 34.8353 -1.2111 -1.53978 0
M  V30 370 H 33.4153 -0.698406 0.265025 0
M  V30 371 H 36.0773 -1.44885 1.30362 0
M  V30 372 H 35.1733 -2.94987 1.01926 0
M  V30 373 N 35.4744 -0.807222 -1.35358 0
M  V30 374 C 36.7024 -0.400377 -2.02989 0
M  V30 375 C 37.1174 0.988859 -1.60832 0
M  V30 376 O 36.4744 1.63729 -0.806175 0
M  V30 377 C 36.5254 -0.474867 -3.58368 0
M  V30 378 O 36.2464 -1.80933 -3.98992 0
M  V30 379 C 37.7474 -0.0609112 -4.43258 0
M  V30 380 H 34.9674 -0.162587 -0.651004 0
M  V30 381 H 37.5114 -1.09102 -1.72965 0
M  V30 382 H 35.6664 0.167534 -3.87038 0
M  V30 383 H 36.0804 -1.77256 -4.9364 0
M  V30 384 H 37.5544 -0.164145 -5.51756 0
M  V30 385 H 38.0314 0.993831 -4.27808 0
M  V30 386 H 38.6374 -0.676492 -4.19885 0
M  V30 387 N 36.9525 1.47285 -0.560781 0
M  V30 388 C 37.9025 2.27073 0.205384 0
M  V30 389 C 38.8865 1.34569 0.882044 0
M  V30 390 O 40.0785 1.58899 0.77976 0
M  V30 391 C 37.2075 3.20414 1.23247 0
M  V30 392 C 36.2935 4.20399 0.559041 0
M  V30 393 N 36.6845 5.04423 -0.372927 0
M  V30 394 C 34.9825 4.38536 0.812522 0
M  V30 395 C 35.6835 5.76655 -0.764446 0
M  V30 396 N 34.6595 5.43471 -0.11848 0
M  V30 397 H 38.4615 2.89422 -0.511117 0
M  V30 398 H 35.9755 1.57868 -0.380975 0
M  V30 399 H 37.9725 3.76262 1.79534 0
M  V30 400 H 36.6325 2.59623 1.95002 0
M  V30 401 H 37.6435 5.1248 -0.747287 0
M  V30 402 H 34.3205 3.88913 1.51832 0
M  V30 403 H 35.7105 6.54238 -1.53045 0
M  V30 404 N 38.4306 0.297415 1.54768 0
M  V30 405 C 39.6556 -0.318435 2.04941 0
M  V30 406 C 40.0806 -1.4701 1.17345 0
M  V30 407 O 39.4386 -1.80436 0.176758 0
M  V30 408 C 39.4866 -0.755749 3.52592 0
M  V30 409 O 38.5906 -1.86088 3.68028 0
M  V30 410 H 37.9316 -0.062421 0.661059 0
M  V30 411 H 40.4616 0.438215 1.99852 0
M  V30 412 H 40.4716 -1.04552 3.94376 0
M  V30 413 H 39.1466 0.0867233 4.1581 0
M  V30 414 H 37.7236 -1.57193 3.38149 0
M  V30 415 N 39.9087 -1.5758 0.0250728 0
M  V30 416 C 40.8567 -2.11125 -0.97617 0
M  V30 417 C 41.8507 -1.03689 -1.33959 0
M  V30 418 O 43.0567 -1.22128 -1.3223 0
M  V30 419 H 39.4317 -0.674468 -0.332561 0
M  V30 420 H 41.4027 -2.94194 -0.499223 0
M  V30 421 C 40.1517 -2.65017 -2.2508 0
M  V30 422 H 39.4747 -3.47333 -1.9799 0
M  V30 423 H 40.9147 -3.06133 -2.93357 0
M  V30 424 C 39.3737 -1.57574 -2.97779 0
M  V30 425 O 39.9037 -0.973203 -3.89733 0
M  V30 426 N 38.1097 -1.29716 -2.60043 0
M  V30 427 H 37.6567 -1.789 -1.85345 0
M  V30 428 H 37.6147 -0.58051 -3.08994 0
M  V30 429 N 41.3868 0.248026 -1.55636 0
M  V30 430 C 42.6338 0.976224 -1.77415 0
M  V30 431 C 42.9618 1.85361 -0.589193 0
M  V30 432 O 42.2168 1.90973 0.427529 0
M  V30 433 C 42.5158 1.86819 -3.04686 0
M  V30 434 C 42.1818 1.14625 -4.36087 0
M  V30 435 C 40.8438 0.946723 -4.71795 0
M  V30 436 C 43.1958 0.634463 -5.17324 0
M  V30 437 C 40.5238 0.223091 -5.86276 0
M  V30 438 C 42.8758 -0.0756959 -6.32555 0
M  V30 439 C 41.5398 -0.286711 -6.66884 0
M  V30 440 H 40.8098 0.357226 -0.649208 0
M  V30 441 H 43.4568 0.246415 -1.89908 0
M  V30 442 H 41.7618 2.66502 -2.872 0
M  V30 443 H 43.4588 2.43329 -3.18735 0
M  V30 444 H 40.0488 1.3117 -4.08035 0
M  V30 445 H 44.2328 0.77616 -4.90193 0
M  V30 446 H 39.4888 0.0491185 -6.1138 0
M  V30 447 H 43.6628 -0.479899 -6.94745 0
M  V30 448 H 41.2898 -0.849389 -7.5544 0
M  V30 449 N 42.8649 1.48995 0.513639 0
M  V30 450 C 43.7949 1.67636 1.62544 0
M  V30 451 C 44.7759 0.525087 1.61793 0
M  V30 452 O 45.9609 0.759502 1.78732 0
M  V30 453 C 43.0909 1.73114 3.01079 0
M  V30 454 C 42.0449 2.87905 3.16693 0
M  V30 455 C 41.3709 2.78486 4.56453 0
M  V30 456 C 42.6709 4.29005 2.97913 0
M  V30 457 H 44.3649 2.60716 1.47198 0
M  V30 458 H 41.9109 1.25465 0.706714 0
M  V30 459 H 43.8639 1.84742 3.78746 0
M  V30 460 H 42.5879 0.766241 3.17484 0
M  V30 461 H 41.2469 2.75859 2.41448 0
M  V30 462 H 40.8949 1.7993 4.69717 0
M  V30 463 H 40.5949 3.55523 4.67843 0
M  V30 464 H 42.1189 2.92104 5.36197 0
M  V30 465 H 43.5329 4.41798 3.65359 0
M  V30 466 H 41.9299 5.07166 3.20785 0
M  V30 467 H 42.9999 4.44329 1.94165 0
M  V30 468 N 44.343 -0.763751 1.37857 0
M  V30 469 C 45.273 -1.89103 1.36975 0
M  V30 470 C 46.254 -1.68439 0.237152 0
M  V30 471 O 47.439 -1.8918 0.438713 0
M  V30 472 C 44.569 -3.26496 1.18395 0
M  V30 473 C 43.523 -3.61741 2.28751 0
M  V30 474 C 42.849 -4.97762 1.95286 0
M  V30 475 C 44.149 -3.67665 3.70972 0
M  V30 476 H 45.843 -1.90099 2.31307 0
M  V30 477 H 43.389 -0.91319 1.11341 0
M  V30 478 H 45.342 -4.05003 1.16406 0
M  V30 479 H 44.066 -3.25955 0.205215 0
M  V30 480 H 42.725 -2.85547 2.29909 0
M  V30 481 H 42.373 -4.93769 0.959221 0
M  V30 482 H 42.073 -5.22313 2.69189 0
M  V30 483 H 43.597 -5.7866 1.94898 0
M  V30 484 H 45.011 -4.36307 3.719 0
M  V30 485 H 43.408 -4.03718 4.43995 0
M  V30 486 H 44.478 -2.68134 4.0402 0
M  V30 487 N 45.8211 -1.22559 -0.990812 0
M  V30 488 C 46.7841 -0.998863 -2.0629 0
M  V30 489 C 47.7841 0.0354834 -1.60761 0
M  V30 490 O 48.9741 -0.203231 -1.7301 0
M  V30 491 C 46.1061 -0.509203 -3.37076 0
M  V30 492 H 47.2991 -1.95014 -2.27837 0
M  V30 493 H 44.8521 -1.04456 -1.16269 0
M  V30 494 H 45.5871 0.446335 -3.21214 0
M  V30 495 H 45.3721 -1.25547 -3.71457 0
M  V30 496 H 46.8621 -0.370888 -4.1595 0
M  V30 497 N 47.2992 1.18797 -1.03562 0
M  V30 498 C 48.2472 2.24297 -0.615905 0
M  V30 499 C 49.2412 1.65643 0.354808 0
M  V30 500 O 50.4472 1.78618 0.22265 0
M  V30 501 H 46.8222 0.729909 -0.180934 0
M  V30 502 H 48.7932 2.5701 -1.5162 0
M  V30 503 C 47.5422 3.47698 0.0104735 0
M  V30 504 H 46.8652 3.93125 -0.727509 0
M  V30 505 H 48.3052 4.23159 0.266995 0
M  V30 506 C 46.7642 3.12489 1.25905 0
M  V30 507 O 47.2942 3.25761 2.35038 0
M  V30 508 N 45.5002 2.6686 1.15039 0
M  V30 509 H 45.0472 2.56261 0.262328 0
M  V30 510 H 45.0052 2.43674 1.98672 0
M  V30 511 N 48.7773 0.814389 1.34928 0
M  V30 512 C 49.7403 0.235759 2.27984 0
M  V30 513 C 50.7403 -0.581412 1.49921 0
M  V30 514 O 51.9303 -0.398758 1.69575 0
M  V30 515 C 49.0623 -0.670433 3.34242 0
M  V30 516 H 50.2553 1.05659 2.80671 0
M  V30 517 H 47.8083 0.585614 1.44915 0
M  V30 518 H 48.5433 -1.51466 2.86755 0
M  V30 519 H 48.3283 -0.0860822 3.92005 0
M  V30 520 H 49.8183 -1.06935 4.03676 0
M  V30 521 N 50.2554 -1.46986 0.568584 0
M  V30 522 C 51.1874 -2.28233 -0.210337 0
M  V30 523 C 52.2004 -1.37682 -0.868767 0
M  V30 524 O 53.3894 -1.62406 -0.740705 0
M  V30 525 C 50.4894 -3.12293 -1.3163 0
M  V30 526 C 49.6624 -4.30878 -0.7525 0
M  V30 527 C 48.7214 -4.96445 -1.74439 0
M  V30 528 O 47.7474 -5.54482 -1.286 0
M  V30 529 N 48.9494 -4.92171 -3.07812 0
M  V30 530 H 51.7144 -2.95723 0.486648 0
M  V30 531 H 49.2754 -1.56742 0.405409 0
M  V30 532 H 51.2674 -3.53022 -1.97883 0
M  V30 533 H 49.8374 -2.46971 -1.91636 0
M  V30 534 H 49.0574 -3.94104 0.0871128 0
M  V30 535 H 50.3454 -5.07558 -0.35536 0
M  V30 536 H 49.7434 -4.46239 -3.47688 0
M  V30 537 H 48.3004 -5.36884 -3.69592 0
M  V30 538 N 51.7335 -0.305618 -1.54608 0
M  V30 539 C 52.9815 0.301701 -1.99835 0
M  V30 540 C 53.3025 1.54054 -1.19551 0
M  V30 541 O 52.5725 1.93702 -0.292658 0
M  V30 542 H 51.1525 0.114468 -0.738178 0
M  V30 543 H 53.8145 -0.418016 -1.90364 0
M  V30 544 H 52.9105 0.570548 -3.06841 0
M  V30 545 N 53.2116 1.57565 -0.0334293 0
M  V30 546 C 54.4396 1.9628 0.654347 0
M  V30 547 C 54.8546 0.910138 1.65414 0
M  V30 548 O 54.2116 -0.107595 1.82183 0
M  V30 549 C 54.2626 3.35067 1.35693 0
M  V30 550 O 53.9836 4.36296 0.397191 0
M  V30 551 C 55.4846 3.88439 2.13613 0
M  V30 552 H 52.7046 0.646369 0.180132 0
M  V30 553 H 55.2486 2.04282 -0.0944721 0
M  V30 554 H 53.4036 3.2827 2.05712 0
M  V30 555 H 53.8176 5.1678 0.896597 0
M  V30 556 H 55.2916 4.8788 2.58219 0
M  V30 557 H 55.7686 3.22914 2.97696 0
M  V30 558 H 56.3746 3.98516 1.48543 0
M  V30 559 N 54.6897 -0.239769 1.55765 0
M  V30 560 C 56.1057 -0.588624 1.48349 0
M  V30 561 C 56.3057 -1.88005 0.72502 0
M  V30 562 O 55.3617 -2.51186 0.257269 0
M  V30 563 C 56.6747 -0.68474 2.928 0
M  V30 564 C 58.2227 -0.77659 3.03213 0
M  V30 565 C 58.6977 -0.904207 4.48986 0
M  V30 566 N 60.1887 -0.968896 4.52953 0
M  V30 567 C 60.9237 -1.08703 5.63002 0
M  V30 568 N 60.4197 -1.17026 6.82845 0
M  V30 569 N 62.2127 -1.12074 5.50814 0
M  V30 570 H 54.3637 0.607911 2.03515 0
M  V30 571 H 56.6267 0.21083 0.924259 0
M  V30 572 H 56.3327 0.194284 3.51163 0
M  V30 573 H 56.2067 -1.55435 3.43686 0
M  V30 574 H 58.5937 -1.64606 2.44926 0
M  V30 575 H 58.6747 0.118315 2.55526 0
M  V30 576 H 58.3187 -0.0392633 5.07885 0
M  V30 577 H 58.2487 -1.81426 4.9436 0
M  V30 578 H 60.7397 -0.915633 3.6664 0
M  V30 579 H 61.0527 -1.25966 7.62465 0
M  V30 580 H 59.3977 -1.13971 6.85591 0
M  V30 581 H 62.5887 -1.05226 4.5612 0
M  V30 582 H 62.7617 -1.20936 6.36615 0
M  V30 583 N 56.1678 -1.49265 -0.50573 0
M  V30 584 C 57.4158 -1.582 -1.25766 0
M  V30 585 C 57.7368 -0.268482 -1.93143 0
M  V30 586 O 57.0068 0.711833 -1.8251 0
M  V30 587 H 55.5868 -0.582873 -0.467191 0
M  V30 588 H 58.2488 -1.85865 -0.586525 0
M  V30 589 H 57.3448 -2.37563 -2.02412 0
M  V30 590 N 57.6459 0.756429 -1.3826 0
M  V30 591 C 58.8929 1.51547 -1.34312 0
M  V30 592 C 59.2209 1.94382 0.0677144 0
M  V30 593 O 58.4759 1.65514 1.04421 0
M  V30 594 C 58.7749 2.78313 -2.24224 0
M  V30 595 C 58.4409 2.54455 -3.72241 0
M  V30 596 C 57.1029 2.47657 -4.12576 0
M  V30 597 C 59.4549 2.3354 -4.65949 0
M  V30 598 C 56.7829 2.17956 -5.44713 0
M  V30 599 C 59.1349 2.05359 -5.9834 0
M  V30 600 C 57.7989 1.97016 -6.37762 0
M  V30 601 H 57.0689 0.55455 -0.491482 0
M  V30 602 H 59.7159 0.870039 -1.70595 0
M  V30 603 H 58.0209 3.47492 -1.80987 0
M  V30 604 H 59.7179 3.36259 -2.18474 0
M  V30 605 H 56.3079 2.60616 -3.40261 0
M  V30 606 H 60.4919 2.37772 -4.35635 0
M  V30 607 H 55.7479 2.10003 -5.74203 0
M  V30 608 H 59.9219 1.88179 -6.70494 0
M  V30 609 H 57.5489 1.73766 -7.40074 0
M  V30 610 N 59.124 1.23083 0.984299 0
M  V30 611 C 60.535 1.05609 1.5396 0
M  V30 612 C 60.886 -0.377793 1.92528 0
M  V30 613 O 60.011 -1.26398 1.75649 0
M  V30 614 C 60.606 1.91087 2.7977 0
M  V30 615 C 59.165 1.77885 3.31713 0
M  V30 616 C 58.312 1.87028 2.04733 0
M  V30 617 H 61.263 1.36802 0.804419 0
M  V30 618 H 61.284 1.43336 3.5247 0
M  V30 619 H 60.796 2.9544 2.51668 0
M  V30 620 H 58.897 0.762995 3.64704 0
M  V30 621 H 59.01 2.61047 4.01735 0
M  V30 622 H 57.374 1.30565 2.18689 0
M  V30 623 H 58.157 2.92929 1.79017 0
M  V30 624 N 60.6021 -1.18246 1.0419 0
M  V30 625 C 61.8511 -1.87588 0.741194 0
M  V30 626 C 62.1641 -1.81303 -0.734066 0
M  V30 627 O 63.3701 -2.46019 -1.14834 0
M  V30 628 C 61.8261 -3.36538 1.27555 0
M  V30 629 C 61.4341 -3.51349 2.77953 0
M  V30 630 C 63.1781 -4.11273 1.05143 0
M  V30 631 C 61.0851 -4.94265 3.2474 0
M  V30 632 H 60.0151 -0.702622 0.273565 0
M  V30 633 H 62.6661 -1.33601 1.25789 0
M  V30 634 H 61.0481 -3.9 0.686703 0
M  V30 635 H 62.2221 -3.08153 3.42605 0
M  V30 636 H 60.5371 -2.90022 2.98791 0
M  V30 637 H 63.1341 -5.16689 1.37611 0
M  V30 638 H 63.4771 -4.16298 -0.0112774 0
M  V30 639 H 64.0101 -3.63987 1.60495 0
M  V30 640 H 60.7491 -4.94408 4.30396 0
M  V30 641 H 60.2691 -5.38172 2.64823 0
M  V30 642 H 61.9481 -5.62987 3.18834 0
M  V30 643 N 62.0802 -0.821533 -1.34494 0
M  V30 644 C 63.3262 -0.409552 -1.98622 0
M  V30 645 C 63.6592 1.0244 -1.64984 0
M  V30 646 O 62.9342 1.71325 -0.920758 0
M  V30 647 C 63.2172 -0.610458 -3.54888 0
M  V30 648 C 63.0702 -2.09043 -3.98273 0
M  V30 649 C 64.3892 -0.0455379 -4.40076 0
M  V30 650 H 61.5082 -0.15028 -0.721516 0
M  V30 651 H 64.1502 -1.03384 -1.59411 0
M  V30 652 H 62.3002 -0.079044 -3.8842 0
M  V30 653 H 63.9722 -2.68537 -3.75081 0
M  V30 654 H 62.2152 -2.58139 -3.48635 0
M  V30 655 H 62.8862 -2.18182 -5.07051 0
M  V30 656 H 65.3622 -0.499557 -4.1309 0
M  V30 657 H 64.2382 -0.215922 -5.48475 0
M  V30 658 H 64.4992 1.04939 -4.29465 0
M  V30 659 N 63.5583 1.46682 -0.576371 0
M  V30 660 C 64.7883 2.06498 -0.0648694 0
M  V30 661 C 65.1963 1.42665 1.24271 0
M  V30 662 O 64.5393 0.523886 1.76071 0
M  V30 663 C 64.6013 3.5904 0.181816 0
M  V30 664 C 64.2653 4.45028 -1.0392 0
M  V30 665 C 65.2623 4.81959 -1.94966 0
M  V30 666 C 62.9473 4.86259 -1.25927 0
M  V30 667 C 64.9413 5.58942 -3.06371 0
M  V30 668 C 62.6283 5.63002 -2.37638 0
M  V30 669 C 63.6263 5.99257 -3.2769 0
M  V30 670 O 63.3143 6.7445 -4.37461 0
M  V30 671 H 63.0463 0.674028 -0.0515987 0
M  V30 672 H 65.6003 1.89393 -0.794951 0
M  V30 673 H 63.8303 3.74429 0.966436 0
M  V30 674 H 65.5193 4.00806 0.641047 0
M  V30 675 H 66.2853 4.50689 -1.79177 0
M  V30 676 H 62.1643 4.57494 -0.567448 0
M  V30 677 H 65.7083 5.87158 -3.76684 0
M  V30 678 H 61.6053 5.93686 -2.53392 0
M  V30 679 H 62.3733 6.92867 -4.35749 0
M  V30 680 N 65.0364 0.313813 1.54444 0
M  V30 681 C 66.2764 -0.292389 2.02298 0
M  V30 682 C 66.6404 -1.50105 1.19719 0
M  V30 683 O 67.8414 -2.17947 1.5733 0
M  V30 684 C 66.1124 -0.627682 3.51845 0
M  V30 685 S 67.6714 -1.21493 4.21646 0
M  V30 686 H 64.4894 -0.0890247 0.705405 0
M  V30 687 H 67.0914 0.444668 1.90376 0
M  V30 688 H 65.7954 0.260265 4.09574 0
M  V30 689 H 65.3264 -1.39519 3.67829 0
M  V30 690 H 67.3414 -2.5022 4.28491 0
M  V30 691 N 66.5145 -1.57545 0.0417849 0
M  V30 692 C 67.7395 -1.97035 -0.647455 0
M  V30 693 C 68.1645 -0.918775 -1.64135 0
M  V30 694 O 67.5225 0.119006 -1.80909 0
M  V30 695 C 67.5705 -3.35609 -1.31905 0
M  V30 696 O 66.6745 -3.3287 -2.43457 0
M  V30 697 H 66.0155 -0.64211 -0.169086 0
M  V30 698 H 68.5455 -2.04318 0.107399 0
M  V30 699 H 68.5555 -3.72126 -1.67291 0
M  V30 700 H 67.2305 -4.11685 -0.590586 0
M  V30 701 H 65.8075 -3.08087 -2.10088 0
M  V30 702 N 67.9926 0.231505 -1.5589 0
M  V30 703 C 69.2696 0.981096 -1.69215 0
M  V30 704 C 69.6496 2.02799 -0.586164 0
M  V30 705 O 68.9976 2.24823 0.408253 0
M  V30 706 C 69.2076 1.60054 -3.10135 0
M  V30 707 C 70.5556 2.09658 -3.69227 0
M  V30 708 O 71.5796 1.69967 -3.13033 0
M  V30 709 O 70.4386 2.8258 -4.67772 0
M  V30 710 H 67.5326 0.457653 -0.688827 0
M  V30 711 H 70.0786 0.224073 -1.68214 0
M  V30 712 H 68.8506 0.844105 -3.82087 0
M  V30 713 H 68.4736 2.42336 -3.15212 0
M  V30 714 N 69.4707 1.49531 0.497807 0
M  V30 715 C 70.7187 1.58865 1.24926 0
M  V30 716 C 71.0397 0.278721 1.92998 0
M  V30 717 O 70.3097 -0.702144 1.82885 0
M  V30 718 H 68.8897 0.585343 0.464094 0
M  V30 719 H 71.5517 1.86174 0.57666 0
M  V30 720 H 70.6477 2.38633 2.01149 0
M  V30 721 N 70.9488 -0.749086 1.3866 0
M  V30 722 C 72.1958 -1.50833 1.35114 0
M  V30 723 C 72.5238 -1.94415 -0.0574049 0
M  V30 724 O 71.7788 -1.66065 -1.03541 0
M  V30 725 C 72.0778 -2.7712 2.25697 0
M  V30 726 C 71.7438 -2.52477 3.73585 0
M  V30 727 C 70.4058 -2.45466 4.13884 0
M  V30 728 C 72.7578 -2.31066 4.67181 0
M  V30 729 C 70.0858 -2.15064 5.45861 0
M  V30 730 C 72.4378 -2.02183 5.9942 0
M  V30 731 C 71.1018 -1.93631 6.38798 0
M  V30 732 H 70.3718 -0.551936 0.494416 0
M  V30 733 H 73.0188 -0.860979 1.71054 0
M  V30 734 H 71.3238 -3.46528 1.82827 0
M  V30 735 H 73.0208 -3.35096 2.20254 0
M  V30 736 H 69.6108 -2.58807 3.41638 0
M  V30 737 H 73.7948 -2.35459 4.3689 0
M  V30 738 H 69.0508 -2.06954 5.75308 0
M  V30 739 H 73.2248 -1.8462 6.71482 0
M  V30 740 H 70.8518 -1.69839 7.40985 0
M  V30 741 N 72.4269 -1.23603 -0.977757 0
M  V30 742 C 73.6669 -1.08148 -1.73446 0
M  V30 743 C 74.0309 0.374785 -1.88307 0
M  V30 744 O 75.2319 0.650588 -2.60808 0
M  V30 745 C 73.5029 -1.78991 -3.0935 0
M  V30 746 S 75.0619 -1.79141 -4.00567 0
M  V30 747 H 71.8799 -0.386987 -0.596458 0
M  V30 748 H 74.4819 -1.5678 -1.16792 0
M  V30 749 H 73.1859 -2.8408 -2.96187 0
M  V30 750 H 72.7169 -1.30651 -3.71071 0
M  V30 751 H 74.7319 -0.851892 -4.88833 0
M  V30 752 N 73.905 1.17692 -1.04816 0
M  V30 753 C 74.815 2.25229 -0.65643 0
M  V30 754 C 75.831 1.71018 0.320761 0
M  V30 755 O 77.007 2.00649 0.173805 0
M  V30 756 C 74.072 3.46684 -0.0332629 0
M  V30 757 C 73.133 4.15997 -1.06042 0
M  V30 758 C 72.366 5.31654 -0.466893 0
M  V30 759 O 72.589 5.65777 0.724758 0
M  V30 760 O 71.523 5.89831 -1.1993 0
M  V30 761 H 75.349 2.61016 -1.55255 0
M  V30 762 H 72.934 1.24919 -0.81949 0
M  V30 763 H 74.816 4.20234 0.313256 0
M  V30 764 H 73.491 3.12703 0.836566 0
M  V30 765 H 72.398 3.44482 -1.45886 0
M  V30 766 H 73.731 4.53996 -1.90127 0
M  V30 767 N 75.3831 0.828654 1.34056 0
M  V30 768 C 76.3131 0.269443 2.3194 0
M  V30 769 C 77.2941 -0.617247 1.58506 0
M  V30 770 O 78.4791 -0.542931 1.86456 0
M  V30 771 C 75.6091 -0.564793 3.42677 0
M  V30 772 C 74.5631 0.225241 4.27407 0
M  V30 773 C 73.8891 -0.7321 5.29664 0
M  V30 774 C 75.1891 1.43663 5.02154 0
M  V30 775 H 76.8831 1.08728 2.7896 0
M  V30 776 H 74.4291 0.524283 1.34117 0
M  V30 777 H 76.3821 -0.966233 4.10173 0
M  V30 778 H 75.1061 -1.41574 2.9432 0
M  V30 779 H 73.7651 0.608117 3.61521 0
M  V30 780 H 73.4131 -1.57916 4.77568 0
M  V30 781 H 73.1131 -0.20767 5.87233 0
M  V30 782 H 74.6371 -1.13128 6.00029 0
M  V30 783 H 76.0511 1.1089 5.62473 0
M  V30 784 H 74.4481 1.89711 5.69324 0
M  V30 785 H 75.5181 2.21181 4.31517 0
M  V30 786 N 76.8612 -1.46375 0.584142 0
M  V30 787 C 78.0892 -2.06761 0.0759296 0
M  V30 788 C 78.5042 -1.43266 -1.22965 0
M  V30 789 O 77.8612 -0.538458 -1.74376 0
M  V30 790 C 77.9122 -3.61375 -0.0950384 0
M  V30 791 O 77.6332 -4.22495 1.15887 0
M  V30 792 C 79.1342 -4.38693 -0.637434 0
M  V30 793 H 76.3542 -0.668479 0.0581075 0
M  V30 794 H 78.8982 -1.8798 0.805218 0
M  V30 795 H 77.0532 -3.79578 -0.774554 0
M  V30 796 H 77.4672 -5.15385 0.973598 0
M  V30 797 H 78.9412 -5.47464 -0.706237 0
M  V30 798 H 79.4182 -4.06836 -1.65472 0
M  V30 799 H 80.0242 -4.25299 0.00725967 0
M  V30 800 N 78.3393 -0.321999 -1.54275 0
M  V30 801 C 79.5873 0.280489 -2.00144 0
M  V30 802 C 79.9083 1.52777 -1.21178 0
M  V30 803 O 79.1783 1.9338 -0.313187 0
M  V30 804 H 77.7583 0.106632 -0.73935 0
M  V30 805 H 80.4203 -0.438184 -1.8991 0
M  V30 806 H 79.5163 0.537972 -3.07428 0
M  V30 807 N 79.8174 1.5752 -0.0501392 0
M  V30 808 C 81.0474 1.96678 0.632573 0
M  V30 809 C 81.4554 0.926298 1.64974 0
M  V30 810 O 80.7984 -0.09802 1.83438 0
M  V30 811 C 80.8604 3.32068 1.37735 0
M  V30 812 C 80.5244 4.54076 0.516131 0
M  V30 813 C 81.5214 5.19445 -0.217357 0
M  V30 814 C 79.2064 5.00304 0.44736 0
M  V30 815 C 81.2004 6.29378 -1.00807 0
M  V30 816 C 78.8874 6.10114 -0.347038 0
M  V30 817 C 79.8854 6.74512 -1.07344 0
M  V30 818 O 79.5734 7.82211 -1.85477 0
M  V30 819 H 79.3054 0.652193 0.177821 0
M  V30 820 H 81.8594 2.05091 -0.112543 0
M  V30 821 H 80.0894 3.20206 2.16807 0
M  V30 822 H 81.7784 3.55981 1.95019 0
M  V30 823 H 82.5444 4.84689 -0.173688 0
M  V30 824 H 78.4234 4.49971 1.00235 0
M  V30 825 H 81.9674 6.79575 -1.57556 0
M  V30 826 H 77.8644 6.44307 -0.392349 0
M  V30 827 H 78.6324 7.98982 -1.77678 0
M  V30 828 N 81.2955 -0.223234 1.56011 0
M  V30 829 C 82.5435 -0.946003 1.78592 0
M  V30 830 C 82.8645 -1.84936 0.618349 0
M  V30 831 O 82.1345 -1.92473 -0.364833 0
M  V30 832 H 80.7145 -0.352298 0.658707 0
M  V30 833 H 83.3765 -0.235494 1.93472 0
M  V30 834 H 82.4725 -1.55381 2.70672 0
M  V30 835 N 82.7736 -1.49793 -0.48987 0
M  V30 836 C 84.1896 -1.36803 -0.822022 0
M  V30 837 C 84.3896 -0.409652 -1.97292 0
M  V30 838 O 83.4456 0.154614 -2.52026 0
M  V30 839 C 84.7586 -2.77768 -1.15175 0
M  V30 840 C 86.3066 -2.86549 -1.25931 0
M  V30 841 C 86.7816 -4.28306 -1.62228 0
M  V30 842 N 88.2726 -4.31169 -1.69256 0
M  V30 843 C 89.0076 -5.37832 -1.98807 0
M  V30 844 N 88.5036 -6.54726 -2.26507 0
M  V30 845 N 90.2966 -5.25258 -2.00152 0
M  V30 846 H 82.4476 -2.10691 0.268881 0
M  V30 847 H 84.7106 -0.946241 0.057728 0
M  V30 848 H 84.4166 -3.49648 -0.379335 0
M  V30 849 H 84.2906 -3.13836 -2.09253 0
M  V30 850 H 86.6776 -2.14899 -2.02243 0
M  V30 851 H 86.7586 -2.54049 -0.298776 0
M  V30 852 H 86.4026 -5.00486 -0.864622 0
M  V30 853 H 86.3326 -4.58279 -2.594 0
M  V30 854 H 88.8236 -3.4687 -1.49965 0
M  V30 855 H 89.1366 -7.31833 -2.48276 0
M  V30 856 H 87.4816 -6.57933 -2.23939 0
M  V30 857 H 90.6726 -4.32938 -1.77996 0
M  V30 858 H 90.8456 -6.08476 -2.22848 0
M  V30 859 N 84.2517 0.741722 -1.39055 0
M  V30 860 C 85.4797 1.53098 -1.39171 0
M  V30 861 C 85.8947 1.88794 0.0155099 0
M  V30 862 O 85.2517 1.53626 0.985159 0
M  V30 863 C 85.3027 2.82274 -2.2584 0
M  V30 864 O 85.0237 2.48097 -3.61081 0
M  V30 865 C 86.5247 3.76343 -2.34266 0
M  V30 866 H 83.7447 0.473335 -0.4756 0
M  V30 867 H 86.2887 0.917045 -1.82785 0
M  V30 868 H 84.4437 3.40015 -1.85656 0
M  V30 869 H 84.8577 3.31029 -4.06842 0
M  V30 870 H 86.3317 4.63898 -2.9917 0
M  V30 871 H 86.8087 4.17619 -1.35982 0
M  V30 872 H 87.4147 3.24523 -2.74891 0
M  V30 873 N 85.7298 1.2412 0.971189 0
M  V30 874 C 86.6398 1.04747 2.09917 0
M  V30 875 C 87.6558 -0.0107162 1.73997 0
M  V30 876 O 88.8318 0.186714 2.00533 0
M  V30 877 C 85.8968 0.650828 3.40537 0
M  V30 878 C 84.9578 1.7851 3.90426 0
M  V30 879 C 84.1908 1.40729 5.14812 0
M  V30 880 O 84.4138 0.29557 5.69634 0
M  V30 881 O 83.3478 2.23168 5.58999 0
M  V30 882 H 87.1738 1.99304 2.29154 0
M  V30 883 H 84.7588 1.02908 1.08307 0
M  V30 884 H 86.6408 0.440992 4.19086 0
M  V30 885 H 85.3158 -0.265649 3.22608 0
M  V30 886 H 84.2228 2.04966 3.12953 0
M  V30 887 H 85.5558 2.68023 4.12825 0
M  V30 888 N 87.2079 -1.17134 1.05439 0
M  V30 889 C 88.4539 -1.87733 0.767077 0
M  V30 890 C 88.7869 -1.8098 -0.704253 0
M  V30 891 O 88.0619 -1.21951 -1.5152 0
M  V30 892 C 88.3449 -3.37659 1.25133 0
M  V30 893 C 88.1979 -3.53149 2.78578 0
M  V30 894 C 89.5169 -4.31768 0.852324 0
M  V30 895 H 86.6359 -0.681687 0.280129 0
M  V30 896 H 89.2779 -1.37732 1.30881 0
M  V30 897 H 87.4279 -3.80373 0.790469 0
M  V30 898 H 89.0999 -3.19434 3.32806 0
M  V30 899 H 87.3429 -2.95345 3.17732 0
M  V30 900 H 88.0139 -4.58403 3.07523 0
M  V30 901 H 90.4899 -3.96909 1.24911 0
M  V30 902 H 89.3659 -5.35199 1.21873 0
M  V30 903 H 89.6269 -4.41429 -0.243485 0
M  V30 904 N 88.686 -0.835752 -1.33615 0
M  V30 905 C 89.619 -0.211815 -2.27215 0
M  V30 906 C 90.597 0.639249 -1.49507 0
M  V30 907 O 91.781 0.600193 -1.78689 0
M  V30 908 C 88.908 0.702893 -3.31326 0
M  V30 909 C 87.954 -0.0723049 -4.26439 0
M  V30 910 S 88.787 -1.42811 -5.16106 0
M  V30 911 C 89.943 -0.518613 -6.23748 0
M  V30 912 H 90.176 -1.00533 -2.79786 0
M  V30 913 H 87.709 -0.632336 -1.40858 0
M  V30 914 H 89.667 1.22505 -3.91794 0
M  V30 915 H 88.328 1.47004 -2.77576 0
M  V30 916 H 87.521 0.62359 -5.00127 0
M  V30 917 H 87.123 -0.525424 -3.70291 0
M  V30 918 H 89.415 0.284778 -6.76901 0
M  V30 919 H 90.358 -1.22556 -6.97413 0
M  V30 920 H 90.766 -0.101344 -5.64409 0
M  V30 921 N 90.1641 1.46063 -0.591896 0
M  V30 922 C 91.0961 2.28539 0.174001 0
M  V30 923 C 92.1091 1.39047 0.846753 0
M  V30 924 O 93.2981 1.63564 0.714774 0
M  V30 925 C 90.3981 3.14347 1.26645 0
M  V30 926 C 89.5711 4.32021 0.683856 0
M  V30 927 C 88.6301 4.99157 1.66518 0
M  V30 928 O 87.6561 5.56458 1.19763 0
M  V30 929 N 88.8581 4.97005 2.99943 0
M  V30 930 H 91.6231 2.94911 -0.533633 0
M  V30 931 H 89.1841 1.56077 -0.430294 0
M  V30 932 H 91.1761 3.56125 1.92242 0
M  V30 933 H 89.7461 2.49988 1.87682 0
M  V30 934 H 88.9661 3.93915 -0.1498 0
M  V30 935 H 90.2541 5.08059 0.274567 0
M  V30 936 H 89.6521 4.51714 3.40545 0
M  V30 937 H 88.2091 5.42696 3.61004 0
M  V30 938 N 91.6422 0.330177 1.54103 0
M  V30 939 C 92.5892 -0.532762 2.24567 0
M  V30 940 C 93.5592 -1.10635 1.23892 0
M  V30 941 O 94.7442 -1.14546 1.5259 0
M  V30 942 C 91.8842 -1.6845 3.01195 0
M  V30 943 C 90.9972 -1.13951 4.167 0
M  V30 944 C 90.1322 -2.25746 4.80845 0
M  V30 945 C 89.1712 -1.6853 5.88442 0
M  V30 946 N 88.3082 -2.74014 6.46421 0
M  V30 947 H 93.1482 0.0746905 2.97906 0
M  V30 948 H 90.6852 0.048632 1.4702 0
M  V30 949 H 92.6432 -2.36234 3.43874 0
M  V30 950 H 91.2732 -2.26314 2.30178 0
M  V30 951 H 90.3252 -0.35301 3.78758 0
M  V30 952 H 91.6372 -0.680892 4.94131 0
M  V30 953 H 90.7912 -3.01422 5.26526 0
M  V30 954 H 89.5302 -2.74947 4.0281 0
M  V30 955 H 88.5352 -0.913543 5.42157 0
M  V30 956 H 89.7602 -1.20198 6.68378 0
M  V30 957 H 87.7062 -3.22494 5.71256 0
M  V30 958 H 87.6232 -2.32735 7.19285 0
M  V30 959 H 88.8912 -3.49499 6.96757 0
M  V30 960 N 93.1203 -1.57491 0.0584922 0
M  V30 961 C 94.3483 -1.97296 -0.623037 0
M  V30 962 C 94.7633 -0.936338 -1.63946 0
M  V30 963 O 94.1203 0.0785981 -1.82331 0
M  V30 964 C 94.1713 -3.37183 -1.30345 0
M  V30 965 O 93.8923 -4.36872 -0.32773 0
M  V30 966 C 95.3933 -3.91788 -2.07406 0
M  V30 967 H 92.6133 -0.649153 -0.169826 0
M  V30 968 H 95.1573 -2.04106 0.12696 0
M  V30 969 H 93.3123 -3.31502 -2.00463 0
M  V30 970 H 93.7263 -5.18141 -0.814269 0
M  V30 971 H 95.2003 -4.91926 -2.50425 0
M  V30 972 H 95.6773 -3.27609 -2.92521 0
M  V30 973 H 96.2833 -4.00829 -1.42184 0
M  V30 974 N 94.5984 0.214957 -1.56127 0
M  V30 975 C 95.8384 0.945364 -1.81224 0
M  V30 976 C 96.2024 1.81265 -0.633005 0
M  V30 977 O 97.4034 2.57731 -0.763423 0
M  V30 978 C 95.6744 1.75665 -3.1125 0
M  V30 979 S 97.2334 2.54179 -3.57685 0
M  V30 980 H 94.0514 0.317443 -0.6362 0
M  V30 981 H 96.6534 0.210381 -1.94365 0
M  V30 982 H 95.3574 1.10977 -3.9511 0
M  V30 983 H 94.8884 2.53381 -3.00934 0
M  V30 984 H 96.9034 3.7792 -3.21545 0
M  V30 985 N 96.0765 1.50051 0.48192 0
M  V30 986 C 97.3015 1.64508 1.26301 0
M  V30 987 C 97.7265 0.323851 1.85291 0
M  V30 988 O 97.0845 -0.710969 1.66778 0
M  V30 989 C 97.1325 2.7305 2.35533 0
M  V30 990 O 96.2365 2.3355 3.39895 0
M  V30 991 H 95.5775 0.549978 0.372048 0
M  V30 992 H 98.1075 1.9636 0.574786 0
M  V30 993 H 98.1175 2.95799 2.8101 0
M  V30 994 H 96.7925 3.68946 1.91967 0
M  V30 995 H 95.3695 2.21205 3.00204 0
M  V30 996 N 97.5546 -0.734337 1.39446 0
M  V30 997 C 98.7946 -1.50655 1.38139 0
M  V30 998 C 99.1586 -1.91986 -0.0228701 0
M  V30 999 O 100.36 -2.68318 -0.160947 0
M  V30 1000 C 98.6306 -2.71251 2.32718 0
M  V30 1001 S 100.19 -3.60892 2.49605 0
M  V30 1002 H 97.0076 -0.515315 0.489869 0
M  V30 1003 H 99.6096 -0.860392 1.75549 0
M  V30 1004 H 98.3136 -2.39027 3.33608 0
M  V30 1005 H 97.8446 -3.40795 1.96526 0
M  V30 1006 H 99.8596 -4.64899 1.73446 0
M  V30 1007 N 99.0327 -1.24633 -0.964593 0
M  V30 1008 C 100.449 -1.01239 -1.2338 0
M  V30 1009 C 100.649 0.2769 -1.99588 0
M  V30 1010 O 99.7047 0.992241 -2.32187 0
M  V30 1011 C 101.018 -2.22937 -2.01791 0
M  V30 1012 C 102.566 -2.27594 -2.14872 0
M  V30 1013 C 103.041 -3.48921 -2.96678 0
M  V30 1014 N 104.532 -3.49257 -3.04259 0
M  V30 1015 C 105.267 -4.39795 -3.67924 0
M  V30 1016 N 104.763 -5.40591 -4.33281 0
M  V30 1017 N 106.556 -4.275 -3.64966 0
M  V30 1018 H 98.7067 -2.0748 -0.454502 0
M  V30 1019 H 100.97 -0.910647 -0.26349 0
M  V30 1020 H 100.676 -3.16587 -1.53184 0
M  V30 1021 H 100.55 -2.25306 -3.02518 0
M  V30 1022 H 102.937 -1.34473 -2.6268 0
M  V30 1023 H 103.018 -2.2925 -1.13482 0
M  V30 1024 H 102.662 -4.42359 -2.49562 0
M  V30 1025 H 102.592 -3.4451 -3.98272 0
M  V30 1026 H 105.083 -2.76337 -2.57771 0
M  V30 1027 H 105.396 -6.05904 -4.79687 0
M  V30 1028 H 103.741 -5.44475 -4.3194 0
M  V30 1029 H 106.932 -3.47987 -3.13086 0
M  V30 1030 H 107.105 -4.98258 -4.14298 0
M  V30 1031 N 100.511 1.16574 -1.06058 0
M  V30 1032 C 101.758 1.87047 -0.775873 0
M  V30 1033 C 102.086 1.81562 0.697534 0
M  V30 1034 O 101.341 1.22445 1.52662 0
M  V30 1035 C 101.64 3.36195 -1.21275 0
M  V30 1036 C 101.306 3.6188 -2.68986 0
M  V30 1037 C 99.9678 3.68599 -3.09335 0
M  V30 1038 C 102.32 3.72648 -3.64394 0
M  V30 1039 C 99.6478 3.83584 -4.43937 0
M  V30 1040 C 102 3.89154 -4.98741 0
M  V30 1041 C 100.664 3.94114 -5.3873 0
M  V30 1042 H 99.9338 0.684452 -0.283912 0
M  V30 1043 H 102.581 1.37853 -1.32925 0
M  V30 1044 H 100.886 3.87505 -0.578528 0
M  V30 1045 H 102.583 3.89103 -0.969542 0
M  V30 1046 H 99.1728 3.57281 -2.36744 0
M  V30 1047 H 103.357 3.66769 -3.34356 0
M  V30 1048 H 98.6128 3.85677 -4.74409 0
M  V30 1049 H 102.787 3.96427 -5.72554 0
M  V30 1050 H 100.414 4.05478 -6.43033 0
M  V30 1051 N 101.989 0.842826 1.3317 0
M  V30 1052 C 102.919 0.294028 2.31641 0
M  V30 1053 C 103.9 -0.600401 1.59151 0
M  V30 1054 O 105.085 -0.523124 1.87022 0
M  V30 1055 C 102.215 -0.528416 3.43257 0
M  V30 1056 C 101.169 0.27056 4.27144 0
M  V30 1057 C 100.495 -0.675881 5.30411 0
M  V30 1058 C 101.795 1.48981 5.00602 0
M  V30 1059 H 103.489 1.11681 2.77791 0
M  V30 1060 H 101.035 0.538478 1.33553 0
M  V30 1061 H 102.988 -0.922674 4.11175 0
M  V30 1062 H 101.712 -1.38445 2.95805 0
M  V30 1063 H 100.371 0.646427 3.60856 0
M  V30 1064 H 100.019 -1.52842 4.79216 0
M  V30 1065 H 99.7189 -0.145374 5.8742 0
M  V30 1066 H 101.243 -1.06757 6.01195 0
M  V30 1067 H 102.657 1.16849 5.61266 0
M  V30 1068 H 101.054 1.95739 5.6728 0
M  V30 1069 H 102.124 2.25746 4.29147 0
M  V30 1070 N 103.467 -1.45747 0.599634 0
M  V30 1071 C 104.697 -2.06369 0.0977132 0
M  V30 1072 C 105.105 -1.44624 -1.21985 0
M  V30 1073 O 104.448 -0.551831 -1.75216 0
M  V30 1074 C 104.51 -3.59284 -0.124673 0
M  V30 1075 C 104.174 -4.43318 1.10987 0
M  V30 1076 C 105.171 -4.78796 2.02609 0
M  V30 1077 C 102.856 -4.84194 1.33647 0
M  V30 1078 C 104.85 -5.53997 3.15224 0
M  V30 1079 C 102.537 -5.5915 2.46565 0
M  V30 1080 C 103.535 -5.93968 3.37182 0
M  V30 1081 O 103.223 -6.67405 4.48136 0
M  V30 1082 H 102.955 -0.673122 0.0623153 0
M  V30 1083 H 105.509 -1.88104 0.824981 0
M  V30 1084 H 103.739 -3.75919 -0.906745 0
M  V30 1085 H 105.428 -4.01775 -0.577201 0
M  V30 1086 H 106.194 -4.47781 1.86325 0
M  V30 1087 H 102.073 -4.56534 0.64016 0
M  V30 1088 H 105.617 -5.81091 3.85978 0
M  V30 1089 H 101.514 -5.89579 2.62805 0
M  V30 1090 H 102.282 -6.85847 4.46717 0
M  V30 1091 N 104.945 -0.338344 -1.53925 0
M  V30 1092 C 106.193 0.259245 -2.0043 0
M  V30 1093 C 106.514 1.51484 -1.22791 0
M  V30 1094 O 105.784 1.93037 -0.33368 0
M  V30 1095 H 104.364 0.0987845 -0.740439 0
M  V30 1096 H 107.026 -0.458302 -1.89435 0
M  V30 1097 H 106.122 0.505334 -3.07982 0
M  V30 1098 N 106.423 1.57458 -0.0668435 0
M  V30 1099 C 107.834 1.80776 0.466558 0
M  V30 1100 C 108.185 0.980361 1.69951 0
M  V30 1101 O 107.31 0.201441 2.1546 0
M  V30 1102 C 107.905 3.27881 0.85321 0
M  V30 1103 C 106.464 3.52062 1.3315 0
M  V30 1104 C 105.611 2.75513 0.314264 0
M  V30 1105 H 108.562 1.5598 -0.292588 0
M  V30 1106 H 108.583 3.39659 1.715 0
M  V30 1107 H 108.095 3.88075 -0.0443439 0
M  V30 1108 H 106.196 2.97167 2.24772 0
M  V30 1109 H 106.309 4.60762 1.31285 0
M  V30 1110 H 104.673 2.42123 0.790492 0
M  V30 1111 H 105.456 3.38442 -0.575477 0
M  V30 1112 N 107.901 -0.206675 1.56239 0
M  V30 1113 C 108.811 -1.27686 1.96808 0
M  V30 1114 C 109.827 -1.50455 0.874035 0
M  V30 1115 O 111.003 -1.63295 1.17884 0
M  V30 1116 C 108.068 -2.60358 2.28942 0
M  V30 1117 C 107.129 -2.45762 3.51994 0
M  V30 1118 C 106.362 -3.72108 3.82585 0
M  V30 1119 O 106.585 -4.75776 3.14631 0
M  V30 1120 O 105.519 -3.6833 4.76043 0
M  V30 1121 H 109.345 -0.962593 2.88041 0
M  V30 1122 H 106.93 -0.410746 1.43643 0
M  V30 1123 H 108.812 -3.38687 2.50737 0
M  V30 1124 H 107.487 -2.91435 1.4088 0
M  V30 1125 H 106.394 -1.65584 3.35459 0
M  V30 1126 H 107.727 -2.19621 4.40486 0
M  V30 1127 N 109.379 -1.50304 -0.473955 0
M  V30 1128 C 110.607 -1.64902 -1.24959 0
M  V30 1129 C 111.022 -0.331198 -1.85872 0
M  V30 1130 O 110.379 0.68652 -1.69095 0
M  V30 1131 C 110.43 -2.73803 -2.36038 0
M  V30 1132 O 110.151 -4.00477 -1.77624 0
M  V30 1133 C 111.652 -2.99349 -3.26964 0
M  V30 1134 H 108.872 -0.554383 -0.378022 0
M  V30 1135 H 111.416 -1.9651 -0.566054 0
M  V30 1136 H 109.571 -2.44898 -3.00173 0
M  V30 1137 H 109.985 -4.60678 -2.5075 0
M  V30 1138 H 111.459 -3.79217 -4.01121 0
M  V30 1139 H 111.936 -2.10307 -3.85574 0
M  V30 1140 H 112.542 -3.29774 -2.68569 0
M  V30 1141 N 110.857 0.726932 -1.39834 0
M  V30 1142 C 112.082 1.52121 -1.40976 0
M  V30 1143 C 112.507 1.88098 -0.00826029 0
M  V30 1144 O 111.865 1.52479 0.980807 0
M  V30 1145 C 111.913 2.78021 -2.29644 0
M  V30 1146 O 111.017 3.74272 -1.73188 0
M  V30 1147 H 110.358 0.45908 -0.479731 0
M  V30 1148 H 112.888 0.896207 -1.83927 0
M  V30 1149 H 112.898 3.26671 -2.44438 0
M  V30 1150 H 111.573 2.51169 -3.31492 0
M  V30 1151 H 110.15 3.33073 -1.6768 0
M  V30 1152 N 112.336 1.25143 0.95797 0
M  V30 1153 C 113.246 1.06968 2.08794 0
M  V30 1154 C 114.262 0.00773911 1.73998 0
M  V30 1155 O 115.438 0.207972 2.00323 0
M  V30 1156 C 112.503 0.68691 3.39827 0
M  V30 1157 C 111.564 1.82641 3.88511 0
M  V30 1158 C 110.797 1.46181 5.1329 0
M  V30 1159 O 111.02 0.355971 5.69288 0
M  V30 1160 O 109.954 2.29085 5.566 0
M  V30 1161 H 113.78 2.01723 2.27027 0
M  V30 1162 H 111.365 1.04051 1.07209 0
M  V30 1163 H 113.247 0.485417 4.18595 0
M  V30 1164 H 111.922 -0.231417 3.22872 0
M  V30 1165 H 110.829 2.08274 3.10762 0
M  V30 1166 H 112.162 2.72386 4.09959 0
M  V30 1167 N 113.814 -1.1601 1.06675 0
M  V30 1168 C 115.225 -1.68235 0.809565 0
M  V30 1169 C 115.576 -1.8454 -0.666303 0
M  V30 1170 O 114.701 -1.54374 -1.5165 0
M  V30 1171 C 115.296 -3.05585 1.46299 0
M  V30 1172 C 113.855 -3.54915 1.25349 0
M  V30 1173 C 113.002 -2.30804 1.53703 0
M  V30 1174 H 115.953 -1.00318 1.22971 0
M  V30 1175 H 115.974 -3.70174 0.880431 0
M  V30 1176 H 115.486 -2.93686 2.53713 0
M  V30 1177 H 113.587 -3.72067 0.199261 0
M  V30 1178 H 113.7 -4.36774 1.9689 0
M  V30 1179 H 112.064 -2.36007 0.957739 0
M  V30 1180 H 112.847 -2.21499 2.62284 0
M  V30 1181 N 115.292 -0.849877 -1.32721 0
M  V30 1182 C 116.255 -0.296122 -2.27279 0
M  V30 1183 C 117.255 0.541458 -1.5141 0
M  V30 1184 O 118.445 0.353658 -1.70572 0
M  V30 1185 C 115.577 0.581579 -3.35902 0
M  V30 1186 H 116.77 -1.13064 -2.77771 0
M  V30 1187 H 114.323 -0.62383 -1.43311 0
M  V30 1188 H 115.058 1.43809 -2.9067 0
M  V30 1189 H 114.843 -0.0178814 -3.92096 0
M  V30 1190 H 116.333 0.961951 -4.0637 0
M  V30 1191 N 116.77 1.45427 -0.607355 0
M  V30 1192 C 117.7 2.3329 0.0989352 0
M  V30 1193 C 118.681 1.46816 0.859007 0
M  V30 1194 O 119.866 1.75588 0.829604 0
M  V30 1195 C 116.996 3.29518 1.09705 0
M  V30 1196 C 115.95 4.25626 0.450206 0
M  V30 1197 C 115.276 5.11542 1.55655 0
M  V30 1198 C 116.576 5.18505 -0.628455 0
M  V30 1199 H 118.27 2.92595 -0.634716 0
M  V30 1200 H 115.816 1.40696 -0.306681 0
M  V30 1201 H 117.769 3.89855 1.59971 0
M  V30 1202 H 116.493 2.68372 1.86129 0
M  V30 1203 H 115.152 3.66586 -0.0315886 0
M  V30 1204 H 114.8 4.46765 2.31107 0
M  V30 1205 H 114.5 5.76647 1.12925 0
M  V30 1206 H 116.024 5.74748 2.06148 0
M  V30 1207 H 117.438 5.72916 -0.209877 0
M  V30 1208 H 115.835 5.92085 -0.977489 0
M  V30 1209 H 116.905 4.60948 -1.50514 0
M  V30 1210 N 118.248 0.346503 1.53744 0
M  V30 1211 C 119.18 -0.543316 2.22667 0
M  V30 1212 C 120.193 -1.06159 1.23427 0
M  V30 1213 O 121.382 -0.971235 1.49764 0
M  V30 1214 C 118.482 -1.76076 2.89569 0
M  V30 1215 C 117.655 -1.37727 4.15151 0
M  V30 1216 C 116.714 -2.45471 4.65436 0
M  V30 1217 O 115.74 -2.08655 5.29577 0
M  V30 1218 N 116.942 -3.7677 4.41616 0
M  V30 1219 H 119.707 0.0469703 2.99663 0
M  V30 1220 H 117.268 0.170766 1.60997 0
M  V30 1221 H 119.26 -2.47593 3.20125 0
M  V30 1222 H 117.83 -2.25835 2.16142 0
M  V30 1223 H 117.05 -0.492746 3.91108 0
M  V30 1224 H 118.338 -1.09708 4.96832 0
M  V30 1225 H 117.736 -4.09467 3.90325 0
M  V30 1226 H 116.293 -4.44448 4.7677 0
M  V30 1227 N 119.726 -1.57421 0.075193 0
M  V30 1228 C 121.142 -1.57099 -0.281444 0
M  V30 1229 C 121.342 -1.08486 -1.69803 0
M  V30 1230 O 120.398 -0.752279 -2.41033 0
M  V30 1231 C 121.711 -3.00571 -0.0880041 0
M  V30 1232 C 123.259 -3.12605 -0.157281 0
M  V30 1233 C 123.734 -4.57999 0.0079207 0
M  V30 1234 N 125.225 -4.63176 -0.0475725 0
M  V30 1235 C 125.96 -5.73373 0.0557876 0
M  V30 1236 N 125.456 -6.92473 0.21286 0
M  V30 1237 N 127.249 -5.621 -0.00152098 0
M  V30 1238 H 119.4 -1.87335 1.00098 0
M  V30 1239 H 121.663 -0.86377 0.390646 0
M  V30 1240 H 121.369 -3.40262 0.889629 0
M  V30 1241 H 121.243 -3.67754 -0.838875 0
M  V30 1242 H 123.63 -2.72798 -1.1254 0
M  V30 1243 H 123.711 -2.48053 0.62475 0
M  V30 1244 H 123.355 -4.98496 0.972824 0
M  V30 1245 H 123.285 -5.20586 -0.793556 0
M  V30 1246 H 125.776 -3.7753 -0.167244 0
M  V30 1247 H 126.089 -7.72279 0.283781 0
M  V30 1248 H 124.434 -6.94556 0.248267 0
M  V30 1249 H 127.625 -4.67938 -0.122958 0
M  V30 1250 H 127.798 -6.47948 0.0824844 0
M  V30 1251 N 121.204 0.198386 -1.56346 0
M  V30 1252 C 122.134 1.24865 -1.9731 0
M  V30 1253 C 123.115 1.47651 -0.844576 0
M  V30 1254 O 124.3 1.59444 -1.10866 0
M  V30 1255 C 121.43 2.59358 -2.30977 0
M  V30 1256 C 120.384 2.5119 -3.46537 0
M  V30 1257 C 119.71 3.89926 -3.65871 0
M  V30 1258 C 121.01 2.03977 -4.80823 0
M  V30 1259 H 122.704 0.908252 -2.85291 0
M  V30 1260 H 120.25 0.435462 -1.37258 0
M  V30 1261 H 122.203 3.33011 -2.58228 0
M  V30 1262 H 120.927 2.95132 -1.39874 0
M  V30 1263 H 119.586 1.79993 -3.19371 0
M  V30 1264 H 119.234 4.23046 -2.72105 0
M  V30 1265 H 118.934 3.85336 -4.4361 0
M  V30 1266 H 120.458 4.65205 -3.95495 0
M  V30 1267 H 121.872 2.67386 -5.07127 0
M  V30 1268 H 120.269 2.10397 -5.62008 0
M  V30 1269 H 121.339 0.992861 -4.74626 0
M  V30 1270 N 122.682 1.50554 0.465978 0
M  V30 1271 C 123.632 1.66177 1.56106 0
M  V30 1272 C 124.616 0.516265 1.52393 0
M  V30 1273 O 125.808 0.770906 1.5933 0
M  V30 1274 C 122.937 1.76396 2.94515 0
M  V30 1275 C 122.023 2.9664 3.03093 0
M  V30 1276 N 122.414 4.20245 2.81474 0
M  V30 1277 C 120.712 2.95304 3.34233 0
M  V30 1278 C 121.413 5.01259 2.95151 0
M  V30 1279 N 120.389 4.35318 3.25576 0
M  V30 1280 H 124.191 2.59434 1.38099 0
M  V30 1281 H 121.705 1.47808 0.6728 0
M  V30 1282 H 123.702 1.85694 3.73261 0
M  V30 1283 H 122.362 0.843017 3.13565 0
M  V30 1284 H 123.373 4.4966 2.56956 0
M  V30 1285 H 120.05 2.12729 3.59239 0
M  V30 1286 H 121.44 6.09564 2.82632 0
M  V30 1287 N 124.16 -0.719506 1.40217 0
M  V30 1288 C 125.107 -1.83359 1.40172 0
M  V30 1289 C 126.077 -1.64065 0.259206 0
M  V30 1290 O 127.262 -1.85254 0.456677 0
M  V30 1291 C 124.402 -3.2103 1.26624 0
M  V30 1292 C 123.515 -3.51923 2.50548 0
M  V30 1293 C 122.65 -4.79079 2.29471 0
M  V30 1294 C 121.689 -5.02863 3.48992 0
M  V30 1295 N 120.826 -6.2123 3.27135 0
M  V30 1296 H 125.666 -1.82733 2.35399 0
M  V30 1297 H 123.203 -0.892688 1.16917 0
M  V30 1298 H 125.161 -4.00524 1.16776 0
M  V30 1299 H 123.791 -3.20895 0.350176 0
M  V30 1300 H 122.843 -2.67014 2.70939 0
M  V30 1301 H 124.155 -3.6541 3.39525 0
M  V30 1302 H 123.309 -5.66582 2.16955 0
M  V30 1303 H 122.048 -4.67794 1.37913 0
M  V30 1304 H 121.053 -4.13816 3.6199 0
M  V30 1305 H 122.278 -5.16023 4.41472 0
M  V30 1306 H 120.224 -6.11204 2.38256 0
M  V30 1307 H 120.141 -6.35375 4.09675 0
M  V30 1308 H 121.409 -7.11532 3.18344 0
M  V30 1309 N 125.638 -1.25649 -0.95132 0
M  V30 1310 C 126.601 -1.06399 -2.03007 0
M  V30 1311 C 127.601 -0.0156794 -1.60792 0
M  V30 1312 O 128.791 -0.25817 -1.72276 0
M  V30 1313 C 125.923 -0.616184 -3.35285 0
M  V30 1314 H 127.116 -2.02164 -2.21517 0
M  V30 1315 H 124.669 -1.08103 -1.12887 0
M  V30 1316 H 125.404 0.343917 -3.22471 0
M  V30 1317 H 125.189 -1.37301 -3.67275 0
M  V30 1318 H 126.679 -0.503032 -4.14559 0
M  V30 1319 N 127.117 1.15442 -1.07289 0
M  V30 1320 C 128.047 2.22312 -0.714107 0
M  V30 1321 C 129.028 1.67467 0.298155 0
M  V30 1322 O 130.213 1.93445 0.171048 0
M  V30 1323 C 127.343 3.47124 -0.110448 0
M  V30 1324 C 126.297 4.14926 -1.04979 0
M  V30 1325 C 125.623 5.33807 -0.308924 0
M  V30 1326 C 126.923 4.64762 -2.38314 0
M  V30 1327 H 128.617 2.5258 -1.6076 0
M  V30 1328 H 126.163 1.21404 -0.77441 0
M  V30 1329 H 128.116 4.21124 0.152482 0
M  V30 1330 H 126.84 3.16187 0.81812 0
M  V30 1331 H 125.499 3.42866 -1.29764 0
M  V30 1332 H 125.147 4.99126 0.623084 0
M  V30 1333 H 124.847 5.80113 -0.935036 0
M  V30 1334 H 126.371 6.10576 -0.0537771 0
M  V30 1335 H 127.785 5.30292 -2.1786 0
M  V30 1336 H 126.182 5.21728 -2.96514 0
M  V30 1337 H 127.252 3.80434 -3.00663 0
M  V30 1338 N 128.595 0.856903 1.32268 0
M  V30 1339 C 129.505 0.306131 2.32594 0
M  V30 1340 C 130.521 -0.577209 1.64147 0
M  V30 1341 O 131.697 -0.477043 1.95669 0
M  V30 1342 C 128.762 -0.494561 3.43154 0
M  V30 1343 C 127.823 0.415186 4.27288 0
M  V30 1344 C 127.056 -0.347387 5.32568 0
M  V30 1345 O 127.279 -1.57708 5.48165 0
M  V30 1346 O 126.213 0.287982 6.01211 0
M  V30 1347 H 130.039 1.13737 2.81598 0
M  V30 1348 H 127.624 0.619902 1.35932 0
M  V30 1349 H 129.506 -0.948944 4.10576 0
M  V30 1350 H 128.181 -1.30257 2.96336 0
M  V30 1351 H 127.088 0.917793 3.62667 0
M  V30 1352 H 128.421 1.18844 4.77637 0
M  V30 1353 N 130.073 -1.45103 0.615059 0
M  V30 1354 C 131.321 -2.01784 0.112955 0
M  V30 1355 C 131.642 -1.48504 -1.26378 0
M  V30 1356 O 130.912 -0.682245 -1.83636 0
M  V30 1357 H 129.492 -0.745993 0.0387668 0
M  V30 1358 H 132.154 -1.77808 0.798141 0
M  V30 1359 H 131.25 -3.12025 0.0684069 0
M  V30 1360 N 131.551 -0.354651 -1.53558 0
M  V30 1361 C 132.501 0.513179 -2.2215 0
M  V30 1362 C 133.485 1.05734 -1.21281 0
M  V30 1363 O 134.677 0.989202 -1.46778 0
M  V30 1364 C 131.806 1.65798 -3.00609 0
M  V30 1365 C 130.892 1.12722 -4.08845 0
M  V30 1366 N 131.283 0.318563 -5.04796 0
M  V30 1367 C 129.581 1.40307 -4.23356 0
M  V30 1368 C 130.282 0.0292224 -5.81693 0
M  V30 1369 N 129.258 0.623891 -5.40008 0
M  V30 1370 H 133.06 -0.111586 -2.93688 0
M  V30 1371 H 130.574 -0.162091 -1.61589 0
M  V30 1372 H 132.571 2.29176 -3.48258 0
M  V30 1373 H 131.231 2.28591 -2.306 0
M  V30 1374 H 132.242 -0.0413091 -5.17884 0
M  V30 1375 H 128.919 2.03458 -3.6457 0
M  V30 1376 H 130.309 -0.623808 -6.68998 0
M  V30 1377 N 133.029 1.57378 -0.0835403 0
M  V30 1378 C 133.961 2.10389 0.909338 0
M  V30 1379 C 134.974 1.03858 1.25369 0
M  V30 1380 O 136.163 1.31338 1.20882 0
M  V30 1381 C 133.263 2.55908 2.2218 0
M  V30 1382 C 132.436 3.86145 2.05453 0
M  V30 1383 C 131.495 4.17633 3.20108 0
M  V30 1384 O 130.521 4.87043 2.94581 0
M  V30 1385 N 131.723 3.72113 4.45547 0
M  V30 1386 H 134.488 2.962 0.456657 0
M  V30 1387 H 132.049 1.61579 0.101877 0
M  V30 1388 H 134.041 2.74027 2.97811 0
M  V30 1389 H 132.611 1.75171 2.58909 0
M  V30 1390 H 131.831 3.7729 1.1422 0
M  V30 1391 H 133.119 4.7137 1.91541 0
M  V30 1392 H 132.517 3.16062 4.69171 0
M  V30 1393 H 131.074 3.95409 5.18165 0
M  V30 1394 N 134.507 -0.190092 1.56449 0
M  V30 1395 C 135.417 -1.25591 1.98152 0
M  V30 1396 C 136.433 -1.49519 0.889944 0
M  V30 1397 O 137.609 -1.62036 1.19609 0
M  V30 1398 C 134.674 -2.57916 2.3169 0
M  V30 1399 C 133.735 -2.42015 3.5458 0
M  V30 1400 C 132.968 -3.6803 3.8651 0
M  V30 1401 O 133.191 -4.72413 3.1966 0
M  V30 1402 O 132.125 -3.6326 4.79923 0
M  V30 1403 H 135.951 -0.931988 2.89046 0
M  V30 1404 H 133.536 -0.395488 1.4407 0
M  V30 1405 H 135.418 -3.36008 2.54316 0
M  V30 1406 H 134.093 -2.89925 1.43963 0
M  V30 1407 H 133 -1.62017 3.37196 0
M  V30 1408 H 134.333 -2.14937 4.4279 0
M  V30 1409 N 135.985 -1.50799 -0.457987 0
M  V30 1410 C 136.935 -1.67003 -1.55222 0
M  V30 1411 C 137.919 -0.52434 -1.52117 0
M  V30 1412 O 139.111 -0.779345 -1.58919 0
M  V30 1413 C 136.24 -1.77956 -2.93576 0
M  V30 1414 C 135.326 -2.98243 -3.01516 0
M  V30 1415 N 135.717 -4.21732 -2.79241 0
M  V30 1416 C 134.015 -2.97072 -3.32662 0
M  V30 1417 C 134.716 -5.02817 -2.92489 0
M  V30 1418 N 133.692 -4.37038 -3.23262 0
M  V30 1419 H 137.494 -2.60163 -1.36721 0
M  V30 1420 H 135.008 -1.48163 -0.664952 0
M  V30 1421 H 137.005 -1.87671 -3.72271 0
M  V30 1422 H 135.665 -0.859634 -3.13114 0
M  V30 1423 H 136.676 -4.51016 -2.54567 0
M  V30 1424 H 133.353 -2.14631 -3.58106 0
M  V30 1425 H 134.743 -6.11054 -2.79396 0
M  V30 1426 N 137.463 0.71206 -1.40597 0
M  V30 1427 C 138.879 1.02058 -1.22704 0
M  V30 1428 C 139.079 2.01228 -0.104729 0
M  V30 1429 O 138.135 2.4674 0.53624 0
M  V30 1430 C 139.448 1.56094 -2.57012 0
M  V30 1431 C 140.996 1.6806 -2.64054 0
M  V30 1432 C 141.471 2.25501 -3.9864 0
M  V30 1433 N 142.962 2.32882 -4.004 0
M  V30 1434 C 143.697 2.78317 -5.01325 0
M  V30 1435 N 143.193 3.23478 -6.12645 0
M  V30 1436 N 144.986 2.77733 -4.88693 0
M  V30 1437 H 137.137 0.0547896 -2.12329 0
M  V30 1438 H 139.4 0.0869027 -0.944008 0
M  V30 1439 H 139.106 0.906865 -3.39807 0
M  V30 1440 H 138.98 2.54564 -2.78347 0
M  V30 1441 H 141.367 2.32583 -1.81629 0
M  V30 1442 H 141.448 0.681802 -2.46546 0
M  V30 1443 H 141.092 1.61598 -4.81506 0
M  V30 1444 H 141.022 3.26102 -4.13479 0
M  V30 1445 H 143.513 2.00991 -3.20017 0
M  V30 1446 H 143.826 3.56725 -6.85542 0
M  V30 1447 H 142.171 3.21429 -6.16205 0
M  V30 1448 H 145.362 2.4179 -4.00818 0
M  V30 1449 H 145.535 3.12826 -5.67489 0
M  V30 1450 N 138.941 1.26152 0.944643 0
M  V30 1451 C 139.904 1.07474 2.0244 0
M  V30 1452 C 140.904 0.0242064 1.60782 0
M  V30 1453 O 142.094 0.267302 1.72137 0
M  V30 1454 C 139.226 0.633956 3.34953 0
M  V30 1455 H 140.419 2.03336 2.20442 0
M  V30 1456 H 137.972 1.087 1.12312 0
M  V30 1457 H 138.707 -0.326811 3.22649 0
M  V30 1458 H 138.492 1.39247 3.66542 0
M  V30 1459 H 139.982 0.52501 4.14287 0
M  V30 1460 N 140.419 -1.14872 1.07899 0
M  V30 1461 C 141.329 -2.2341 0.715915 0
M  V30 1462 C 142.345 -1.71808 -0.275306 0
M  V30 1463 O 143.521 -2.01039 -0.120545 0
M  V30 1464 C 140.586 -3.46474 0.125168 0
M  V30 1465 C 139.647 -4.13039 1.17034 0
M  V30 1466 C 138.88 -5.30229 0.607688 0
M  V30 1467 O 139.103 -5.675 -0.574497 0
M  V30 1468 O 138.037 -5.86444 1.35526 0
M  V30 1469 H 141.863 -2.56808 1.62121 0
M  V30 1470 H 139.448 -1.22702 0.852322 0
M  V30 1471 H 141.33 -4.20917 -0.201729 0
M  V30 1472 H 140.005 -3.14811 -0.753364 0
M  V30 1473 H 138.912 -3.40493 1.54968 0
M  V30 1474 H 140.245 -4.48796 2.02097 0
M  V30 1475 N 141.898 -0.863906 -1.31812 0
M  V30 1476 C 143.147 -0.46801 -1.96195 0
M  V30 1477 C 143.46 0.983474 -1.69077 0
M  V30 1478 O 144.666 1.48523 -2.27273 0
M  V30 1479 C 143.122 -0.785995 -3.51212 0
M  V30 1480 C 142.73 -2.25383 -3.87178 0
M  V30 1481 C 144.474 -0.458274 -4.22019 0
M  V30 1482 C 142.381 -2.51455 -5.3528 0
M  V30 1483 H 141.311 -0.171283 -0.734287 0
M  V30 1484 H 143.962 -1.05597 -1.50072 0
M  V30 1485 H 142.344 -0.127359 -3.95795 0
M  V30 1486 H 143.518 -2.95502 -3.53575 0
M  V30 1487 H 141.833 -2.54698 -3.2942 0
M  V30 1488 H 144.43 -0.630369 -5.30971 0
M  V30 1489 H 144.773 0.600834 -4.11941 0
M  V30 1490 H 145.306 -1.07319 -3.8305 0
M  V30 1491 H 142.045 -3.56025 -5.50387 0
M  V30 1492 H 141.565 -1.85923 -5.70257 0
M  V30 1493 H 143.244 -2.35874 -6.02472 0
M  V30 1494 N 143.376 1.44774 -0.622745 0
M  V30 1495 C 144.616 2.04004 -0.127102 0
M  V30 1496 C 144.98 1.47862 1.22478 0
M  V30 1497 O 146.181 1.98541 1.81204 0
M  V30 1498 C 144.452 3.57247 -0.104429 0
M  V30 1499 S 146.011 4.37574 0.327814 0
M  V30 1500 H 142.829 0.708713 -0.0569776 0
M  V30 1501 H 145.431 1.77275 -0.824253 0
M  V30 1502 H 144.135 3.95616 -1.09159 0
M  V30 1503 H 143.666 3.88575 0.614236 0
M  V30 1504 H 145.681 4.70575 1.57395 0
M  V30 1505 N 144.854 0.36279 1.53368 0
M  V30 1506 C 146.101 -0.227776 2.01215 0
M  V30 1507 C 146.429 -1.49003 1.25014 0
M  V30 1508 O 145.684 -1.92876 0.331236 0
M  V30 1509 C 145.983 -0.568417 3.52851 0
M  V30 1510 C 145.649 0.59918 4.46901 0
M  V30 1511 C 144.311 0.919559 4.72332 0
M  V30 1512 C 146.663 1.38156 5.02556 0
M  V30 1513 C 143.991 2.02434 5.5067 0
M  V30 1514 C 146.343 2.47674 5.821 0
M  V30 1515 C 145.007 2.8025 6.05819 0
M  V30 1516 H 144.277 -0.083349 0.736297 0
M  V30 1517 H 146.924 0.494677 1.85001 0
M  V30 1518 H 145.229 -1.37185 3.66998 0
M  V30 1519 H 146.926 -1.03756 3.87344 0
M  V30 1520 H 143.516 0.339437 4.27254 0
M  V30 1521 H 147.7 1.14729 4.82857 0
M  V30 1522 H 142.956 2.28075 5.67267 0
M  V30 1523 H 147.13 3.08716 6.24234 0
M  V30 1524 H 144.757 3.65979 6.66306 0
M  V30 1525 N 146.332 -1.57332 0.0918853 0
M  V30 1526 C 147.562 -1.98286 -0.580205 0
M  V30 1527 C 147.97 -0.969713 -1.6246 0
M  V30 1528 O 147.313 0.0493501 -1.83634 0
M  V30 1529 C 147.375 -3.35603 -1.28882 0
M  V30 1530 C 147.039 -4.55285 -0.395559 0
M  V30 1531 C 148.036 -5.18687 0.355002 0
M  V30 1532 C 145.721 -5.01314 -0.314556 0
M  V30 1533 C 147.715 -6.26484 1.17458 0
M  V30 1534 C 145.402 -6.08979 0.508677 0
M  V30 1535 C 146.4 -6.71429 1.2519 0
M  V30 1536 O 146.088 -7.77018 2.06151 0
M  V30 1537 H 145.82 -0.656678 -0.160466 0
M  V30 1538 H 148.374 -2.04721 0.16688 0
M  V30 1539 H 146.604 -3.25842 -2.08241 0
M  V30 1540 H 148.293 -3.61026 -1.85512 0
M  V30 1541 H 149.059 -4.84058 0.302134 0
M  V30 1542 H 144.938 -4.5247 -0.882697 0
M  V30 1543 H 148.482 -6.75159 1.75518 0
M  V30 1544 H 144.379 -6.4304 0.563037 0
M  V30 1545 H 145.147 -7.93991 1.98799 0
M  V30 1546 N 147.81 0.181792 -1.56548 0
M  V30 1547 C 149.226 0.53316 -1.50431 0
M  V30 1548 C 149.426 1.85184 -0.794297 0
M  V30 1549 O 148.482 2.50058 -0.350318 0
M  V30 1550 C 149.795 0.575597 -2.9514 0
M  V30 1551 C 151.343 0.663519 -3.05886 0
M  V30 1552 C 151.818 0.736946 -4.52032 0
M  V30 1553 N 153.309 0.800118 -4.56237 0
M  V30 1554 C 154.044 0.877327 -5.66649 0
M  V30 1555 N 153.54 0.916016 -6.86718 0
M  V30 1556 N 155.333 0.915542 -5.54594 0
M  V30 1557 H 147.484 -0.683025 -2.01118 0
M  V30 1558 H 149.747 -0.244988 -0.915797 0
M  V30 1559 H 149.453 -0.324482 -3.502 0
M  V30 1560 H 149.327 1.42572 -3.49218 0
M  V30 1561 H 151.714 1.55403 -2.50867 0
M  V30 1562 H 151.795 -0.21307 -2.54911 0
M  V30 1563 H 151.439 -0.149262 -5.07681 0
M  V30 1564 H 151.369 1.62953 -5.00753 0
M  V30 1565 H 153.86 0.778926 -3.69785 0
M  V30 1566 H 154.173 0.975813 -7.66614 0
M  V30 1567 H 152.518 0.884469 -6.89349 0
M  V30 1568 H 155.709 0.882245 -4.59711 0
M  V30 1569 H 155.882 0.972253 -6.40665 0
M  V30 1570 N 149.288 1.51039 0.449983 0
M  V30 1571 C 150.235 1.71439 1.54523 0
M  V30 1572 C 151.205 0.555871 1.56522 0
M  V30 1573 O 152.39 0.788871 1.73728 0
M  V30 1574 C 149.53 1.83384 2.92343 0
M  V30 1575 C 148.643 3.10873 2.9997 0
M  V30 1576 C 147.778 3.13488 4.28834 0
M  V30 1577 C 146.817 4.35343 4.30282 0
M  V30 1578 N 145.954 4.35579 5.5065 0
M  V30 1579 H 150.794 2.64934 1.36433 0
M  V30 1580 H 148.331 1.31312 0.662982 0
M  V30 1581 H 150.289 1.88291 3.72293 0
M  V30 1582 H 148.919 0.933086 3.0902 0
M  V30 1583 H 147.971 3.15336 2.12761 0
M  V30 1584 H 149.283 4.00814 2.96901 0
M  V30 1585 H 148.437 3.17241 5.17149 0
M  V30 1586 H 147.176 2.21414 4.34543 0
M  V30 1587 H 146.181 4.3178 3.40362 0
M  V30 1588 H 147.406 5.28668 4.26248 0
M  V30 1589 H 145.352 3.46369 5.57104 0
M  V30 1590 H 145.269 5.19313 5.49409 0
M  V30 1591 H 146.537 4.43507 6.41032 0
M  V30 1592 N 150.766 -0.704594 1.40972 0
M  V30 1593 C 152.043 -1.45847 1.30338 0
M  V30 1594 C 152.423 -2.10973 -0.0732344 0
M  V30 1595 O 151.771 -2.00997 -1.08685 0
M  V30 1596 C 151.981 -2.48525 2.45023 0
M  V30 1597 C 153.329 -3.1404 2.8577 0
M  V30 1598 O 154.353 -2.58848 2.44696 0
M  V30 1599 O 153.212 -4.13981 3.56766 0
M  V30 1600 H 150.306 -0.649092 0.512454 0
M  V30 1601 H 152.852 -0.735836 1.52917 0
M  V30 1602 H 151.624 -1.98994 3.36923 0
M  V30 1603 H 151.247 -3.2831 2.24272 0
M  V30 1604 N 152.244 -1.26651 -0.937939 0
M  V30 1605 C 153.492 -1.12165 -1.68118 0
M  V30 1606 C 153.813 0.334983 -1.92101 0
M  V30 1607 O 153.083 1.23583 -1.52 0
M  V30 1608 H 151.663 -0.412093 -0.623048 0
M  V30 1609 H 154.325 -1.59027 -1.12678 0
M  V30 1610 H 153.421 -1.64289 -2.6536 0
M  V30 1611 N 153.722 1.14298 -1.08507 0
M  V30 1612 C 154.947 1.8976 -0.837001 0
M  V30 1613 C 155.372 1.78097 0.605228 0
M  V30 1614 O 154.73 1.12188 1.4242 0
M  V30 1615 C 154.778 3.37685 -1.26495 0
M  V30 1616 O 153.882 4.10281 -0.417514 0
M  V30 1617 H 153.223 0.590365 -0.303917 0
M  V30 1618 H 155.753 1.44672 -1.44676 0
M  V30 1619 H 155.763 3.88501 -1.24625 0
M  V30 1620 H 154.438 3.45492 -2.31534 0
M  V30 1621 H 153.015 3.69536 -0.499722 0
M  V30 1622 N 155.201 0.870884 1.31352 0
M  V30 1623 C 156.164 0.332243 2.26779 0
M  V30 1624 C 157.164 -0.517302 1.52252 0
M  V30 1625 O 158.354 -0.326477 1.71113 0
M  V30 1626 C 155.486 -0.528066 3.36785 0
M  V30 1627 H 156.679 1.17469 2.75937 0
M  V30 1628 H 154.232 0.64655 1.423 0
M  V30 1629 H 154.967 -1.39167 2.92922 0
M  V30 1630 H 154.752 0.0802582 3.92018 0
M  V30 1631 H 156.242 -0.897179 4.07849 0
M  V30 1632 N 156.679 -1.44442 0.630414 0
M  V30 1633 C 157.926 -2.02052 0.134617 0
M  V30 1634 C 158.254 -1.49576 -1.24327 0
M  V30 1635 O 157.509 -0.669806 -1.83881 0
M  V30 1636 C 157.808 -3.57332 0.0697835 0
M  V30 1637 C 157.474 -4.29058 1.38635 0
M  V30 1638 C 156.136 -4.4837 1.74694 0
M  V30 1639 C 158.488 -4.69872 2.25543 0
M  V30 1640 C 155.816 -5.05756 2.97369 0
M  V30 1641 C 158.168 -5.28616 3.47487 0
M  V30 1642 C 156.832 -5.46147 3.8377 0
M  V30 1643 H 156.102 -0.739361 0.0492598 0
M  V30 1644 H 158.749 -1.73217 0.816586 0
M  V30 1645 H 157.054 -3.85577 -0.695553 0
M  V30 1646 H 158.751 -3.99637 -0.330344 0
M  V30 1647 H 155.341 -4.14357 1.09574 0
M  V30 1648 H 159.525 -4.54666 1.98979 0
M  V30 1649 H 154.781 -5.17515 3.25558 0
M  V30 1650 H 158.955 -5.59192 4.15063 0
M  V30 1651 H 156.582 -5.9038 4.7891 0
M  V30 1652 N 158.157 -0.370918 -1.53173 0
M  V30 1653 C 159.403 0.209976 -2.02313 0
M  V30 1654 C 159.758 1.45987 -1.25322 0
M  V30 1655 O 159.051 1.8856 -0.339965 0
M  V30 1656 C 159.245 0.549696 -3.53147 0
M  V30 1657 C 159.074 -0.665721 -4.44745 0
M  V30 1658 C 157.844 -1.17942 -4.91343 0
M  V30 1659 C 160.042 -1.53255 -4.90935 0
M  V30 1660 N 158.024 -2.35431 -5.66962 0
M  V30 1661 C 159.395 -2.55403 -5.64951 0
M  V30 1662 C 161.45 -1.5548 -4.73002 0
M  V30 1663 C 160.153 -3.5964 -6.22938 0
M  V30 1664 C 162.179 -2.58613 -5.31858 0
M  V30 1665 C 161.541 -3.59485 -6.05764 0
M  V30 1666 H 157.64 0.0394095 -0.781006 0
M  V30 1667 H 160.224 -0.516666 -1.8772 0
M  V30 1668 H 158.395 1.24541 -3.67891 0
M  V30 1669 H 160.127 1.11614 -3.89004 0
M  V30 1670 H 156.882 -0.743228 -4.67732 0
M  V30 1671 H 157.306 -2.94827 -6.09431 0
M  V30 1672 H 161.948 -0.788457 -4.15383 0
M  V30 1673 H 159.666 -4.37153 -6.79649 0
M  V30 1674 H 163.252 -2.61195 -5.19873 0
M  V30 1675 H 162.132 -4.3798 -6.50495 0
M  V30 1676 N 159.635 1.57281 -0.100228 0
M  V30 1677 C 160.875 1.96419 0.56558 0
M  V30 1678 C 161.239 0.981265 1.65031 0
M  V30 1679 O 162.44 1.26133 2.37369 0
M  V30 1680 C 160.711 3.39996 1.10171 0
M  V30 1681 S 162.27 4.01134 1.77867 0
M  V30 1682 H 159.088 0.68667 0.184406 0
M  V30 1683 H 161.69 1.94662 -0.180851 0
M  V30 1684 H 160.394 4.09296 0.300803 0
M  V30 1685 H 159.925 3.45361 1.88385 0
M  V30 1686 H 161.94 3.90358 3.06326 0
M  V30 1687 N 161.113 -0.173488 1.56642 0
M  V30 1688 C 162.043 -1.2171 1.99271 0
M  V30 1689 C 163.024 -1.46289 0.867959 0
M  V30 1690 O 164.209 -1.5766 1.13388 0
M  V30 1691 C 161.339 -2.55651 2.35074 0
M  V30 1692 C 160.293 -2.45645 3.50489 0
M  V30 1693 C 159.619 -3.84056 3.72028 0
M  V30 1694 C 160.919 -1.96302 4.84007 0
M  V30 1695 H 162.613 -0.86275 2.867 0
M  V30 1696 H 160.159 -0.413571 1.37933 0
M  V30 1697 H 162.112 -3.2886 2.63494 0
M  V30 1698 H 160.836 -2.92869 1.44552 0
M  V30 1699 H 159.495 -1.7489 3.22194 0
M  V30 1700 H 159.143 -4.18664 2.788 0
M  V30 1701 H 158.843 -3.7823 4.49684 0
M  V30 1702 H 160.367 -4.58854 4.02846 0
M  V30 1703 H 161.781 -2.59284 5.11317 0
M  V30 1704 H 160.178 -2.01429 5.65284 0
M  V30 1705 H 161.248 -0.917226 4.76146 0
M  V30 1706 N 162.591 -1.51276 -0.441967 0
M  V30 1707 C 163.521 -1.752 -1.54361 0
M  V30 1708 C 164.502 -0.601682 -1.59103 0
M  V30 1709 O 165.687 -0.843913 -1.74905 0
M  V30 1710 C 162.817 -1.87282 -2.92477 0
M  V30 1711 C 161.771 -3.02687 -3.02596 0
M  V30 1712 C 161.097 -2.99947 -4.42647 0
M  V30 1713 C 162.397 -4.4273 -2.77106 0
M  V30 1714 H 164.091 -2.67442 -1.34592 0
M  V30 1715 H 161.637 -1.28694 -0.646048 0
M  V30 1716 H 163.59 -2.02602 -3.695 0
M  V30 1717 H 162.314 -0.916844 -3.13467 0
M  V30 1718 H 160.973 -2.87065 -2.28012 0
M  V30 1719 H 160.621 -2.02136 -4.60597 0
M  V30 1720 H 160.321 -3.77439 -4.50348 0
M  V30 1721 H 161.845 -3.17354 -5.2165 0
M  V30 1722 H 163.259 -4.58727 -3.43864 0
M  V30 1723 H 161.656 -5.21893 -2.96222 0
M  V30 1724 H 162.726 -4.53087 -1.72744 0
M  V30 1725 N 164.069 0.697108 -1.41344 0
M  V30 1726 C 165.346 1.45154 -1.31109 0
M  V30 1727 C 165.726 2.11009 0.0620449 0
M  V30 1728 O 165.074 2.01571 1.07618 0
M  V30 1729 C 165.284 2.47223 -2.46337 0
M  V30 1730 C 166.632 3.1252 -2.87431 0
M  V30 1731 O 167.656 2.57547 -2.46065 0
M  V30 1732 O 166.515 4.12083 -3.58957 0
M  V30 1733 H 163.609 0.646365 -0.515889 0
M  V30 1734 H 166.155 0.727716 -1.53305 0
M  V30 1735 H 164.927 1.97204 -3.37974 0
M  V30 1736 H 164.55 3.27116 -2.2601 0
M  V30 1737 N 165.547 1.27147 0.931209 0
M  V30 1738 C 166.48 1.0389 2.0318 0
M  V30 1739 C 167.458 -0.0395716 1.62552 0
M  V30 1740 O 168.642 0.104867 1.88208 0
M  V30 1741 C 165.769 0.575227 3.3378 0
M  V30 1742 C 164.815 1.64774 3.93385 0
M  V30 1743 S 165.648 3.23933 4.26413 0
M  V30 1744 C 166.804 2.79358 5.60098 0
M  V30 1745 H 167.037 1.97075 2.22596 0
M  V30 1746 H 164.57 1.10938 1.07387 0
M  V30 1747 H 166.528 0.314385 4.09294 0
M  V30 1748 H 165.189 -0.336505 3.12292 0
M  V30 1749 H 164.382 1.27454 4.87618 0
M  V30 1750 H 163.984 1.86048 3.24441 0
M  V30 1751 H 166.276 2.24443 6.39243 0
M  V30 1752 H 167.219 3.72322 6.02314 0
M  V30 1753 H 167.627 2.1861 5.20452 0
M  V30 1754 N 167.025 -1.13721 1.09112 0
M  V30 1755 C 167.958 -2.18094 0.67158 0
M  V30 1756 C 168.936 -1.59414 -0.320299 0
M  V30 1757 O 170.12 -1.87183 -0.222444 0
M  V30 1758 C 167.247 -3.38698 -0.0111189 0
M  V30 1759 C 166.293 -4.15966 0.942055 0
M  V30 1760 S 167.126 -4.7604 2.45246 0
M  V30 1761 C 168.282 -5.99994 1.78208 0
M  V30 1762 H 168.515 -2.53344 1.55577 0
M  V30 1763 H 166.048 -1.24967 0.906789 0
M  V30 1764 H 168.006 -4.08559 -0.398716 0
M  V30 1765 H 166.667 -3.01756 -0.871905 0
M  V30 1766 H 165.86 -5.02318 0.411396 0
M  V30 1767 H 165.462 -3.51745 1.2709 0
M  V30 1768 H 167.754 -6.68441 1.10424 0
M  V30 1769 H 168.697 -6.57662 2.62463 0
M  V30 1770 H 169.105 -5.50432 1.25238 0
M  V30 1771 N 168.503 -0.877838 -1.30888 0
M  V30 1772 C 169.914 -0.544193 -1.78593 0
M  V30 1773 C 170.265 0.939301 -1.72254 0
M  V30 1774 O 169.39 1.7337 -1.29505 0
M  V30 1775 C 169.985 -0.98105 -3.24285 0
M  V30 1776 C 168.544 -0.698935 -3.69854 0
M  V30 1777 C 167.691 -1.168 -2.51502 0
M  V30 1778 H 170.642 -1.06278 -1.17859 0
M  V30 1779 H 170.663 -0.307009 -3.79259 0
M  V30 1780 H 170.175 -2.06079 -3.28866 0
M  V30 1781 H 168.276 0.369112 -3.70767 0
M  V30 1782 H 168.389 -1.28148 -4.61644 0
M  V30 1783 H 166.753 -0.587535 -2.47831 0
M  V30 1784 H 167.536 -2.25533 -2.58824 0
M  V30 1785 N 169.982 1.44106 -0.638065 0
M  V30 1786 C 171.231 2.01194 -0.142744 0
M  V30 1787 C 171.544 1.50835 1.24532 0
M  V30 1788 O 172.75 2.00096 1.83504 0
M  V30 1789 C 171.206 3.59319 -0.20442 0
M  V30 1790 C 170.814 4.18674 -1.59423 0
M  V30 1791 C 172.558 4.23854 0.234079 0
M  V30 1792 C 170.465 5.69045 -1.61065 0
M  V30 1793 H 169.395 0.752367 -0.0495998 0
M  V30 1794 H 172.046 1.65246 -0.797881 0
M  V30 1795 H 170.428 3.92598 0.517946 0
M  V30 1796 H 171.602 3.96921 -2.34074 0
M  V30 1797 H 169.917 3.66453 -1.97741 0
M  V30 1798 H 172.514 5.34155 0.241443 0
M  V30 1799 H 172.857 3.96688 1.2627 0
M  V30 1800 H 173.39 3.95403 -0.436025 0
M  V30 1801 H 170.129 6.00956 -2.61787 0
M  V30 1802 H 169.649 5.929 -0.90718 0
M  V30 1803 H 171.328 6.32809 -1.34766 0
M  V30 1804 N 171.46 0.379036 1.52974 0
M  V30 1805 C 172.407 -0.461048 2.26148 0
M  V30 1806 C 173.377 -1.06637 1.27349 0
M  V30 1807 O 174.562 -1.09633 1.56157 0
M  V30 1808 C 171.702 -1.58782 3.06402 0
M  V30 1809 C 170.815 -1.00636 4.20115 0
M  V30 1810 C 169.95 -2.10334 4.87784 0
M  V30 1811 C 168.989 -1.49724 5.93506 0
M  V30 1812 N 168.126 -2.5331 6.54812 0
M  V30 1813 H 172.966 0.169429 2.97518 0
M  V30 1814 H 170.503 0.0953806 1.4679 0
M  V30 1815 H 172.461 -2.25174 3.51215 0
M  V30 1816 H 171.091 -2.18876 2.37261 0
M  V30 1817 H 170.143 -0.232332 3.7969 0
M  V30 1818 H 171.455 -0.523343 4.96047 0
M  V30 1819 H 170.609 -2.84519 5.35849 0
M  V30 1820 H 169.348 -2.61992 4.11353 0
M  V30 1821 H 168.353 -0.740598 5.44789 0
M  V30 1822 H 169.578 -0.988732 6.71864 0
M  V30 1823 H 167.524 -3.04156 5.81227 0
M  V30 1824 H 167.441 -2.09734 7.26325 0
M  V30 1825 H 168.709 -3.27155 7.07524 0
M  V30 1826 N 172.938 -1.57226 0.108567 0
M  V30 1827 C 173.886 -2.16002 -0.862885 0
M  V30 1828 C 174.88 -1.10644 -1.28274 0
M  V30 1829 O 176.086 -1.28966 -1.2557 0
M  V30 1830 H 172.461 -0.691148 -0.296342 0
M  V30 1831 H 174.432 -2.96427 -0.342575 0
M  V30 1832 C 173.181 -2.76576 -2.10716 0
M  V30 1833 H 172.504 -3.5734 -1.793 0
M  V30 1834 H 173.944 -3.21253 -2.76717 0
M  V30 1835 C 172.403 -1.73137 -2.89007 0
M  V30 1836 O 172.933 -1.17842 -3.84026 0
M  V30 1837 N 171.139 -1.43317 -2.52801 0
M  V30 1838 H 170.686 -1.88473 -1.75601 0
M  V30 1839 H 170.644 -0.743485 -3.05483 0
M  V30 1840 N 174.416 0.165178 -1.56732 0
M  V30 1841 C 175.326 1.22423 -2.00125 0
M  V30 1842 C 176.342 1.48084 -0.913619 0
M  V30 1843 O 177.518 1.60112 -1.22172 0
M  V30 1844 C 174.583 2.54197 -2.35764 0
M  V30 1845 C 173.644 2.36343 -3.58386 0
M  V30 1846 C 172.877 3.61834 -3.92316 0
M  V30 1847 O 173.1 4.67267 -3.27135 0
M  V30 1848 O 172.034 3.55579 -4.85641 0
M  V30 1849 H 175.86 0.885886 -2.90492 0
M  V30 1850 H 173.445 0.372518 -1.44681 0
M  V30 1851 H 175.327 3.3192 -2.59629 0
M  V30 1852 H 174.002 2.87598 -1.48557 0
M  V30 1853 H 172.909 1.56632 -3.39731 0
M  V30 1854 H 174.242 2.07865 -4.46154 0
M  V30 1855 N 175.894 1.51508 0.433938 0
M  V30 1856 C 176.827 1.67756 1.54704 0
M  V30 1857 C 177.805 0.525127 1.53887 0
M  V30 1858 O 178.989 0.749393 1.72963 0
M  V30 1859 C 176.116 1.69424 2.9328 0
M  V30 1860 C 175.162 2.90673 3.12108 0
M  V30 1861 S 175.995 4.51431 2.88046 0
M  V30 1862 C 177.151 4.55849 4.28897 0
M  V30 1863 H 177.384 2.61904 1.40689 0
M  V30 1864 H 174.917 1.41235 0.62386 0
M  V30 1865 H 176.875 1.7107 3.73156 0
M  V30 1866 H 175.536 0.764464 3.04655 0
M  V30 1867 H 174.729 2.88251 4.13434 0
M  V30 1868 H 174.331 2.86786 2.40062 0
M  V30 1869 H 176.623 4.31699 5.22152 0
M  V30 1870 H 177.566 5.57676 4.36351 0
M  V30 1871 H 177.974 3.85137 4.12711 0
M  V30 1872 N 177.372 -0.689602 1.41712 0
M  V30 1873 C 178.62 -1.4468 1.4111 0
M  V30 1874 C 178.941 -1.94986 0.0232196 0
M  V30 1875 O 178.211 -1.72097 -0.935913 0
M  V30 1876 H 176.791 -0.536847 0.519427 0
M  V30 1877 H 179.453 -0.815825 1.77004 0
M  V30 1878 H 178.549 -2.30706 2.10193 0
M  V30 1879 N 178.85 -1.27639 -0.924453 0
M  V30 1880 C 179.76 -1.12466 -2.05885 0
M  V30 1881 C 180.776 -0.053869 -1.73917 0
M  V30 1882 O 181.952 -0.261012 -1.99702 0
M  V30 1883 C 179.017 -0.776768 -3.37886 0
M  V30 1884 C 178.078 -1.92878 -3.83532 0
M  V30 1885 C 177.311 -1.59739 -5.09234 0
M  V30 1886 O 177.534 -0.506782 -5.68144 0
M  V30 1887 O 176.468 -2.43761 -5.50331 0
M  V30 1888 H 180.294 -2.07671 -2.21599 0
M  V30 1889 H 177.879 -1.06857 -1.04413 0
M  V30 1890 H 179.761 -0.596229 -4.17161 0
M  V30 1891 H 178.436 0.145732 -3.23372 0
M  V30 1892 H 177.343 -2.1644 -3.0513 0
M  V30 1893 H 178.676 -2.8316 -4.02593 0
M  V30 1894 N 180.328 1.1314 -1.09713 0
M  V30 1895 C 181.574 1.84757 -0.836224 0
M  V30 1896 C 181.907 1.8347 0.636598 0
M  V30 1897 O 181.182 1.27491 1.46889 0
M  V30 1898 C 181.465 3.32782 -1.37578 0
M  V30 1899 C 181.318 3.42567 -2.91493 0
M  V30 1900 C 182.637 4.28307 -1.01198 0
M  V30 1901 H 179.756 0.67082 -0.305236 0
M  V30 1902 H 182.398 1.3278 -1.35903 0
M  V30 1903 H 180.548 3.77177 -0.931097 0
M  V30 1904 H 182.22 3.06862 -3.44432 0
M  V30 1905 H 180.463 2.83349 -3.28475 0
M  V30 1906 H 181.134 4.46674 -3.24324 0
M  V30 1907 H 183.61 3.91999 -1.39556 0
M  V30 1908 H 182.486 5.30307 -1.41653 0
M  V30 1909 H 182.747 4.42029 0.0794833 0
M  V30 1910 N 181.806 0.884767 1.30421 0
M  V30 1911 C 183.052 0.503851 1.96441 0
M  V30 1912 C 183.385 -0.944518 1.69684 0
M  V30 1913 O 182.66 -1.66737 1.00145 0
M  V30 1914 C 182.943 0.779085 3.51571 0
M  V30 1915 C 182.796 2.27807 3.87846 0
M  V30 1916 C 184.115 0.255452 4.39358 0
M  V30 1917 H 181.234 0.184533 0.713524 0
M  V30 1918 H 183.876 1.10872 1.54297 0
M  V30 1919 H 182.026 0.264274 3.876 0
M  V30 1920 H 183.698 2.86127 3.61841 0
M  V30 1921 H 181.941 2.74479 3.35922 0
M  V30 1922 H 182.612 2.42125 4.96064 0
M  V30 1923 H 185.088 0.696079 4.10236 0
M  V30 1924 H 183.964 0.477361 5.4682 0
M  V30 1925 H 184.225 -0.843293 4.33983 0
M  V30 1926 N 183.284 -1.43765 0.645699 0
M  V30 1927 C 184.214 -2.33471 -0.0370477 0
M  V30 1928 C 185.195 -1.49042 -0.819779 0
M  V30 1929 O 186.38 -1.77726 -0.782758 0
M  V30 1930 C 183.51 -3.32311 -1.0093 0
M  V30 1931 C 182.464 -4.2667 -0.337201 0
M  V30 1932 C 181.79 -5.1549 -1.42037 0
M  V30 1933 C 183.09 -5.16657 0.765706 0
M  V30 1934 H 184.784 -2.90809 0.712069 0
M  V30 1935 H 182.33 -1.39834 0.343876 0
M  V30 1936 H 184.283 -3.9396 -1.49578 0
M  V30 1937 H 183.007 -2.73213 -1.78948 0
M  V30 1938 H 181.666 -3.66374 0.128771 0
M  V30 1939 H 181.314 -4.52735 -2.1918 0
M  V30 1940 H 181.014 -5.79438 -0.975966 0
M  V30 1941 H 182.538 -5.80012 -1.90838 0
M  V30 1942 H 183.952 -5.72158 0.361702 0
M  V30 1943 H 182.349 -5.89286 1.13413 0
M  V30 1944 H 183.419 -4.56796 1.62683 0
M  V30 1945 N 184.763 -0.387143 -1.52771 0
M  V30 1946 C 186.01 0.195735 -2.01552 0
M  V30 1947 C 186.338 1.46995 -1.27369 0
M  V30 1948 O 185.593 1.92325 -0.361879 0
M  V30 1949 C 185.892 0.512209 -3.53711 0
M  V30 1950 C 185.558 -0.670202 -4.45891 0
M  V30 1951 C 184.22 -0.994586 -4.70809 0
M  V30 1952 C 186.572 -1.46134 -5.00294 0
M  V30 1953 C 183.9 -2.11169 -5.4738 0
M  V30 1954 C 186.252 -2.56903 -5.78086 0
M  V30 1955 C 184.916 -2.89852 -6.01284 0
M  V30 1956 H 184.186 0.0716246 -0.73753 0
M  V30 1957 H 186.833 -0.524046 -1.8419 0
M  V30 1958 H 185.138 1.31329 -3.69134 0
M  V30 1959 H 186.835 0.975804 -3.88946 0
M  V30 1960 H 183.425 -0.407366 -4.2666 0
M  V30 1961 H 187.609 -1.22397 -4.80971 0
M  V30 1962 H 182.865 -2.3707 -5.63567 0
M  V30 1963 H 187.039 -3.18608 -6.19243 0
M  V30 1964 H 184.666 -3.76533 -6.60399 0
M  V30 1965 N 186.241 1.57166 -0.116904 0
M  V30 1966 C 187.171 2.18222 0.830759 0
M  V30 1967 C 188.152 1.12167 1.27877 0
M  V30 1968 O 189.337 1.40394 1.34176 0
M  V30 1969 C 186.467 2.77996 2.08172 0
M  V30 1970 C 185.421 3.89614 1.77157 0
M  V30 1971 C 184.747 4.36187 3.09265 0
M  V30 1972 C 186.047 5.1181 1.04151 0
M  V30 1973 H 187.741 2.97664 0.321992 0
M  V30 1974 H 185.287 1.4318 0.153434 0
M  V30 1975 H 187.24 3.19366 2.74924 0
M  V30 1976 H 185.964 1.9584 2.6137 0
M  V30 1977 H 184.623 3.48816 1.12796 0
M  V30 1978 H 184.271 3.50893 3.60393 0
M  V30 1979 H 183.971 5.11455 2.89288 0
M  V30 1980 H 185.495 4.80207 3.77139 0
M  V30 1981 H 186.909 5.50214 1.61052 0
M  V30 1982 H 185.306 5.92648 0.942762 0
M  V30 1983 H 186.376 4.84892 0.0279022 0
M  V30 1984 N 187.719 -0.156864 1.56817 0
M  V30 1985 C 188.966 -0.871125 1.82805 0
M  V30 1986 C 189.294 -1.81611 0.696262 0
M  V30 1987 O 188.549 -1.93141 -0.315459 0
M  V30 1988 C 188.848 -1.68737 3.1506 0
M  V30 1989 C 188.514 -0.890045 4.42028 0
M  V30 1990 C 187.176 -0.670042 4.76512 0
M  V30 1991 C 189.528 -0.331769 5.20143 0
M  V30 1992 C 186.856 0.119104 5.86579 0
M  V30 1993 C 189.208 0.444365 6.31037 0
M  V30 1994 C 187.872 0.675035 6.64078 0
M  V30 1995 H 187.142 -0.318767 0.668931 0
M  V30 1996 H 189.789 -0.135274 1.91022 0
M  V30 1997 H 188.094 -2.49304 3.0225 0
M  V30 1998 H 189.791 -2.24331 3.3238 0
M  V30 1999 H 186.381 -1.07157 4.14988 0
M  V30 2000 H 190.565 -0.489043 4.93885 0
M  V30 2001 H 185.821 0.307417 6.10627 0
M  V30 2002 H 189.995 0.884139 6.90765 0
M  V30 2003 H 187.622 1.28839 7.49203 0
M  V30 2004 N 189.197 -1.51736 -0.425897 0
M  V30 2005 C 190.422 -1.69082 -1.20108 0
M  V30 2006 C 190.847 -0.392398 -1.83962 0
M  V30 2007 O 190.205 0.64858 -1.69302 0
M  V30 2008 C 190.253 -2.81604 -2.25237 0
M  V30 2009 O 189.357 -2.46004 -3.30992 0
M  V30 2010 H 188.698 -0.563408 -0.35138 0
M  V30 2011 H 191.228 -1.98358 -0.501512 0
M  V30 2012 H 191.238 -3.06025 -2.69838 0
M  V30 2013 H 189.913 -3.75817 -1.78142 0
M  V30 2014 H 188.49 -2.32195 -2.91787 0
M  V30 2015 N 190.675 0.682077 -1.42076 0
M  V30 2016 C 191.922 1.44215 -1.42156 0
M  V30 2017 C 192.25 1.94468 -0.0354186 0
M  V30 2018 O 191.505 1.70816 0.955002 0
M  V30 2019 C 191.804 2.66036 -2.38662 0
M  V30 2020 C 191.47 2.34366 -3.85206 0
M  V30 2021 C 190.132 2.25439 -4.25124 0
M  V30 2022 C 192.484 2.08513 -4.77673 0
M  V30 2023 C 189.812 1.88775 -5.55501 0
M  V30 2024 C 192.164 1.73354 -6.08384 0
M  V30 2025 C 190.828 1.62933 -6.47309 0
M  V30 2026 H 190.098 0.527718 -0.520187 0
M  V30 2027 H 192.745 0.778387 -1.74967 0
M  V30 2028 H 191.05 3.3741 -1.99152 0
M  V30 2029 H 192.747 3.24205 -2.35991 0
M  V30 2030 H 189.337 2.42213 -3.53597 0
M  V30 2031 H 193.521 2.14346 -4.47626 0
M  V30 2032 H 188.777 1.7927 -5.84527 0
M  V30 2033 H 192.951 1.52373 -6.79526 0
M  V30 2034 H 190.578 1.34292 -7.48244 0
M  V30 2035 N 192.153 1.28127 0.917671 0
M  V30 2036 C 193.1 1.11717 2.0196 0
M  V30 2037 C 194.07 0.0153929 1.66093 0
M  V30 2038 O 195.255 0.179596 1.89953 0
M  V30 2039 C 192.395 0.780927 3.36148 0
M  V30 2040 C 191.508 1.96135 3.84909 0
M  V30 2041 C 190.643 1.56609 5.0759 0
M  V30 2042 C 189.682 2.71339 5.48673 0
M  V30 2043 N 188.819 2.32332 6.62545 0
M  V30 2044 H 193.659 2.06003 2.15329 0
M  V30 2045 H 191.196 1.02535 1.05475 0
M  V30 2046 H 193.154 0.56675 4.13333 0
M  V30 2047 H 191.784 -0.124998 3.22558 0
M  V30 2048 H 190.836 2.28777 3.03916 0
M  V30 2049 H 192.148 2.82165 4.1132 0
M  V30 2050 H 191.302 1.31374 5.92305 0
M  V30 2051 H 190.041 0.677014 4.82978 0
M  V30 2052 H 189.046 2.97276 4.62501 0
M  V30 2053 H 190.271 3.60882 5.75274 0
M  V30 2054 H 188.217 1.45889 6.39572 0
M  V30 2055 H 188.134 3.11899 6.88662 0
M  V30 2056 H 189.402 2.10371 7.50576 0
M  V30 2057 N 193.631 -1.12557 1.10312 0
M  V30 2058 C 194.908 -1.80363 0.756878 0
M  V30 2059 C 195.288 -1.97067 -0.756824 0
M  V30 2060 O 194.636 -1.54601 -1.68259 0
M  V30 2061 C 194.846 -3.14812 1.50647 0
M  V30 2062 C 196.194 -3.90029 1.67817 0
M  V30 2063 O 197.218 -3.24464 1.46974 0
M  V30 2064 O 196.077 -5.07652 2.02365 0
M  V30 2065 H 193.171 -0.780667 0.272926 0
M  V30 2066 H 195.717 -1.19404 1.20586 0
M  V30 2067 H 194.489 -2.97936 2.53672 0
M  V30 2068 H 194.112 -3.83478 1.05026 0
M  V30 2069 N 195.109 -0.891671 -1.2995 0
M  V30 2070 C 196.358 -0.509521 -1.95158 0
M  V30 2071 C 196.671 0.947388 -1.71125 0
M  V30 2072 O 197.877 1.43669 -2.30372 0
M  V30 2073 C 196.333 -0.860315 -3.49466 0
M  V30 2074 C 195.941 -2.33545 -3.8231 0
M  V30 2075 C 197.685 -0.547687 -4.20952 0
M  V30 2076 C 195.592 -2.62752 -5.29826 0
M  V30 2077 H 194.522 -0.18682 -0.730489 0
M  V30 2078 H 197.173 -1.08756 -1.47798 0
M  V30 2079 H 195.555 -0.211285 -3.95436 0
M  V30 2080 H 196.729 -3.02936 -3.47227 0
M  V30 2081 H 195.044 -2.61629 -3.23944 0
M  V30 2082 H 197.641 -0.742854 -5.29515 0
M  V30 2083 H 197.984 0.51332 -4.13123 0
M  V30 2084 H 198.517 -1.1542 -3.80688 0
M  V30 2085 H 195.256 -3.6762 -5.42712 0
M  V30 2086 H 194.776 -1.97977 -5.66185 0
M  V30 2087 H 196.455 -2.48601 -5.97333 0
M  V30 2088 N 196.587 1.43421 -0.653314 0
M  V30 2089 C 197.815 2.06163 -0.174491 0
M  V30 2090 C 198.23 1.48969 1.1599 0
M  V30 2091 O 197.587 0.621042 1.71608 0
M  V30 2092 C 197.638 3.61417 -0.0774865 0
M  V30 2093 O 197.359 4.16485 -1.35912 0
M  V30 2094 C 198.86 4.41235 0.427402 0
M  V30 2095 H 196.08 0.664946 -0.0899353 0
M  V30 2096 H 198.624 1.83924 -0.893988 0
M  V30 2097 H 196.779 3.82841 0.59257 0
M  V30 2098 H 197.193 5.10153 -1.21839 0
M  V30 2099 H 198.667 5.5021 0.44423 0
M  V30 2100 H 199.144 4.14268 1.45873 0
M  V30 2101 H 199.75 4.2478 -0.210167 0
M  V30 2102 N 198.065 0.39524 1.52563 0
M  V30 2103 C 198.997 -0.472201 2.24283 0
M  V30 2104 C 200.01 -1.02178 1.26742 0
M  V30 2105 O 201.199 -0.923097 1.52778 0
M  V30 2106 C 198.299 -1.66775 2.95024 0
M  V30 2107 C 197.472 -1.2445 4.19322 0
M  V30 2108 C 196.531 -2.30539 4.7301 0
M  V30 2109 O 195.557 -1.91702 5.35947 0
M  V30 2110 N 196.759 -3.6253 4.53379 0
M  V30 2111 H 199.524 0.142282 2.99362 0
M  V30 2112 H 197.085 0.2219 1.60372 0
M  V30 2113 H 199.077 -2.37283 3.27839 0
M  V30 2114 H 197.647 -2.18845 2.23217 0
M  V30 2115 H 196.867 -0.368069 3.92478 0
M  V30 2116 H 198.155 -0.938457 5.0007 0
M  V30 2117 H 197.553 -3.96841 4.03154 0
M  V30 2118 H 196.11 -4.29055 4.90668 0
M  V30 2119 N 199.544 -1.57102 0.125237 0
M  V30 2120 C 200.769 -2.0019 -0.542101 0
M  V30 2121 C 201.194 -1.00449 -1.59034 0
M  V30 2122 O 200.552 0.0229423 -1.81285 0
M  V30 2123 C 200.6 -3.42129 -1.13929 0
M  V30 2124 O 199.704 -3.45307 -2.2547 0
M  V30 2125 H 199.045 -0.650171 -0.134812 0
M  V30 2126 H 201.575 -2.03461 0.215553 0
M  V30 2127 H 201.585 -3.80471 -1.4733 0
M  V30 2128 H 200.26 -4.14237 -0.371531 0
M  V30 2129 H 198.837 -3.1879 -1.93462 0
M  V30 2130 N 201.022 0.148545 -1.56898 0
M  V30 2131 C 202.27 0.859717 -1.82902 0
M  V30 2132 C 202.591 1.81775 -0.70588 0
M  V30 2133 O 201.861 1.93994 0.272586 0
M  V30 2134 H 200.441 0.320469 -0.674766 0
M  V30 2135 H 203.103 0.142918 -1.94375 0
M  V30 2136 H 202.199 1.4229 -2.77777 0
M  V30 2137 N 202.5 1.5196 0.417844 0
M  V30 2138 C 203.725 1.69717 1.1921 0
M  V30 2139 C 204.15 0.402148 1.83751 0
M  V30 2140 O 203.508 -0.639593 1.69643 0
M  V30 2141 C 203.556 2.82794 2.2374 0
M  V30 2142 O 202.66 2.47756 3.29683 0
M  V30 2143 H 202.001 0.565263 0.348387 0
M  V30 2144 H 204.531 1.98621 0.490985 0
M  V30 2145 H 204.541 3.07452 2.68212 0
M  V30 2146 H 203.216 3.76756 1.76146 0
M  V30 2147 H 201.793 2.33739 2.90552 0
M  V30 2148 N 203.978 -0.674533 1.42435 0
M  V30 2149 C 205.389 -1.25514 1.38214 0
M  V30 2150 C 205.74 -1.96055 0.0755464 0
M  V30 2151 O 204.865 -2.00028 -0.8257 0
M  V30 2152 C 205.46 -2.28269 2.50357 0
M  V30 2153 C 204.019 -2.81856 2.49467 0
M  V30 2154 C 203.166 -1.56182 2.29134 0
M  V30 2155 H 206.117 -0.467902 1.51646 0
M  V30 2156 H 206.138 -3.10009 2.20624 0
M  V30 2157 H 205.65 -1.769 3.45439 0
M  V30 2158 H 203.751 -3.37346 1.58204 0
M  V30 2159 H 203.864 -3.30854 3.46515 0
M  V30 2160 H 202.228 -1.82761 1.774 0
M  V30 2161 H 203.011 -1.06778 3.26272 0
M  V30 2162 N 205.456 -1.28612 -0.910864 0
M  V30 2163 C 206.704 -1.15705 -1.65701 0
M  V30 2164 C 207.025 0.29416 -1.92769 0
M  V30 2165 O 206.295 1.20331 -1.54588 0
M  V30 2166 H 204.875 -0.425216 -0.614167 0
M  V30 2167 H 207.537 -1.61381 -1.0928 0
M  V30 2168 H 206.633 -1.6988 -2.61815 0
M  V30 2169 N 206.934 1.1197 -1.10907 0
M  V30 2170 C 207.864 2.19928 -0.784473 0
M  V30 2171 C 208.845 1.6833 0.244726 0
M  V30 2172 O 210.03 1.93892 0.109418 0
M  V30 2173 C 207.16 3.46597 -0.220827 0
M  V30 2174 C 206.114 4.11376 -1.18127 0
M  V30 2175 C 205.44 5.32554 -0.478594 0
M  V30 2176 C 206.74 4.56945 -2.52979 0
M  V30 2177 H 208.434 2.47337 -1.68715 0
M  V30 2178 H 205.98 1.18879 -0.812642 0
M  V30 2179 H 207.933 4.21396 0.0184278 0
M  V30 2180 H 206.657 3.1863 0.717113 0
M  V30 2181 H 205.316 3.38564 -1.40606 0
M  V30 2182 H 204.964 5.00856 0.463976 0
M  V30 2183 H 204.664 5.76844 -1.11912 0
M  V30 2184 H 206.188 6.10096 -0.248 0
M  V30 2185 H 207.602 5.23093 -2.3462 0
M  V30 2186 H 205.999 5.1203 -3.12962 0
M  V30 2187 H 207.069 3.70676 -3.12614 0
M  V30 2188 N 208.412 0.89855 1.29475 0
M  V30 2189 C 209.66 0.522847 1.9522 0
M  V30 2190 C 209.981 -0.93371 1.71192 0
M  V30 2191 O 209.251 -1.65823 1.04305 0
M  V30 2192 H 207.831 0.190366 0.722336 0
M  V30 2193 H 210.493 1.14459 1.5775 0
M  V30 2194 H 209.589 0.704476 3.04045 0
M  V30 2195 N 209.89 -1.43072 0.660911 0
M  V30 2196 C 211.301 -1.84932 0.256348 0
M  V30 2197 C 211.652 -1.55325 -1.19868 0
M  V30 2198 O 210.777 -1.00607 -1.91591 0
M  V30 2199 C 211.372 -3.35684 0.458475 0
M  V30 2200 C 209.931 -3.76245 0.108161 0
M  V30 2201 C 209.078 -2.66749 0.757641 0
M  V30 2202 H 212.029 -1.33116 0.864051 0
M  V30 2203 H 212.05 -3.79365 -0.293683 0
M  V30 2204 H 211.562 -3.572 1.51755 0
M  V30 2205 H 209.663 -3.60338 -0.948014 0
M  V30 2206 H 209.776 -4.76058 0.538992 0
M  V30 2207 H 208.14 -2.53989 0.190185 0
M  V30 2208 H 208.923 -2.91092 1.81989 0
M  V30 2209 N 211.368 -0.403325 -1.52352 0
M  V30 2210 C 212.3 0.4603 -2.2453 0
M  V30 2211 C 213.313 1.01505 -1.27282 0
M  V30 2212 O 214.502 0.914982 -1.53266 0
M  V30 2213 C 211.602 1.65208 -2.95905 0
M  V30 2214 C 210.775 1.22224 -4.19976 0
M  V30 2215 C 209.834 2.28028 -4.74226 0
M  V30 2216 O 208.86 1.88857 -5.36956 0
M  V30 2217 N 210.062 3.6012 -4.55295 0
M  V30 2218 H 212.827 -0.158156 -2.99282 0
M  V30 2219 H 210.388 -0.230402 -1.60252 0
M  V30 2220 H 212.38 2.35541 -3.29093 0
M  V30 2221 H 210.95 2.17658 -2.24374 0
M  V30 2222 H 210.17 0.34725 -3.92668 0
M  V30 2223 H 211.458 0.911924 -5.00561 0
M  V30 2224 H 210.856 3.94698 -4.05253 0
M  V30 2225 H 209.413 4.26447 -4.92936 0
M  V30 2226 N 212.846 1.57033 -0.133567 0
M  V30 2227 C 214.094 1.953 0.519848 0
M  V30 2228 C 214.415 1.01866 1.66278 0
M  V30 2229 O 213.685 0.0776513 1.95746 0
M  V30 2230 H 212.265 0.721091 0.195032 0
M  V30 2231 H 214.927 1.93809 -0.205921 0
M  V30 2232 H 214.023 2.98695 0.904854 0
M  V30 2233 N 214.325 -0.140222 1.56975 0
M  V30 2234 C 215.573 -0.850005 1.83356 0
M  V30 2235 C 215.894 -1.81399 0.71551 0
M  V30 2236 O 215.164 -1.94136 -0.262294 0
M  V30 2237 H 213.744 -0.316886 0.676456 0
M  V30 2238 H 216.406 -0.132608 1.94448 0
M  V30 2239 H 215.502 -1.40814 2.78528 0
M  V30 2240 N 215.803 -1.52179 -0.40978 0
M  V30 2241 C 217.219 -1.40968 -0.74835 0
M  V30 2242 C 217.419 -0.513657 -1.94843 0
M  V30 2243 O 216.475 0.0208026 -2.52491 0
M  V30 2244 C 217.788 -2.83483 -1.0029 0
M  V30 2245 C 219.336 -2.92821 -1.10565 0
M  V30 2246 C 219.811 -4.36303 -1.39296 0
M  V30 2247 N 221.302 -4.39535 -1.46162 0
M  V30 2248 C 222.037 -5.47614 -1.70018 0
M  V30 2249 N 221.533 -6.65812 -1.91483 0
M  V30 2250 N 223.326 -5.35129 -1.72027 0
M  V30 2251 H 215.477 -2.0897 0.380186 0
M  V30 2252 H 217.74 -0.94185 0.107805 0
M  V30 2253 H 217.446 -3.51168 -0.193461 0
M  V30 2254 H 217.32 -3.24487 -1.92323 0
M  V30 2255 H 219.707 -2.25318 -1.90568 0
M  V30 2256 H 219.788 -2.55276 -0.16369 0
M  V30 2257 H 219.432 -5.04366 -0.598109 0
M  V30 2258 H 219.362 -4.71385 -2.34743 0
M  V30 2259 H 221.853 -3.54332 -1.31367 0
M  V30 2260 H 222.166 -7.43964 -2.09134 0
M  V30 2261 H 220.511 -6.68879 -1.88749 0
M  V30 2262 H 223.702 -4.41764 -1.54796 0
M  V30 2263 H 223.875 -6.19433 -1.9028 0
M  V30 2264 N 217.281 0.66697 -1.42791 0
M  V30 2265 C 218.529 1.42417 -1.43394 0
M  V30 2266 C 218.85 1.94925 -0.0542373 0
M  V30 2267 O 218.12 1.73564 0.908415 0
M  V30 2268 H 216.7 0.528515 -0.527902 0
M  V30 2269 H 219.362 0.787562 -1.78279 0
M  V30 2270 H 218.458 2.27333 -2.13837 0
M  V30 2271 N 218.759 1.29093 0.90403 0
M  V30 2272 C 220.036 1.075 1.63411 0
M  V30 2273 C 220.416 -0.382346 2.07609 0
M  V30 2274 O 219.764 -1.37031 1.82851 0
M  V30 2275 C 219.974 2.05858 2.81822 0
M  V30 2276 C 221.322 2.36539 3.52611 0
M  V30 2277 O 222.346 2.04019 2.91984 0
M  V30 2278 O 221.205 2.92085 4.61897 0
M  V30 2279 H 218.299 0.411547 0.717327 0
M  V30 2280 H 220.845 1.40449 0.952479 0
M  V30 2281 H 219.617 3.04037 2.46327 0
M  V30 2282 H 219.24 1.73613 3.57693 0
M  V30 2283 N 220.237 -1.11381 1.11499 0
M  V30 2284 C 221.462 -1.87475 0.887019 0
M  V30 2285 C 221.887 -1.79639 -0.557796 0
M  V30 2286 O 221.245 -1.15924 -1.39396 0
M  V30 2287 C 221.293 -3.34213 1.35403 0
M  V30 2288 O 220.397 -4.0903 0.526146 0
M  V30 2289 H 219.738 -0.582099 0.319463 0
M  V30 2290 H 222.268 -1.40785 1.48461 0
M  V30 2291 H 222.278 -3.8506 1.34881 0
M  V30 2292 H 220.953 -3.39232 2.40612 0
M  V30 2293 H 219.53 -3.68082 0.597522 0
M  V30 2294 N 221.715 -0.905404 -1.28997 0
M  V30 2295 C 222.663 -0.377431 -2.29517 0
M  V30 2296 C 223.657 0.526461 -1.61012 0
M  V30 2297 O 224.863 0.40863 -1.753 0
M  V30 2298 H 221.238 -0.103437 -0.744852 0
M  V30 2299 H 223.209 -1.23848 -2.71485 0
M  V30 2300 C 221.958 0.374833 -3.45674 0
M  V30 2301 H 221.281 -0.311474 -3.98585 0
M  V30 2302 H 222.721 0.70903 -4.1803 0
M  V30 2303 C 221.18 1.57963 -2.97572 0
M  V30 2304 O 221.71 2.67886 -2.99333 0
M  V30 2305 N 219.916 1.42375 -2.53333 0
M  V30 2306 H 219.463 0.529466 -2.521 0
M  V30 2307 H 219.421 2.23117 -2.21509 0
M  V30 2308 N 223.193 1.4272 -0.668489 0
M  V30 2309 C 224.143 2.27971 0.0363806 0
M  V30 2310 C 225.127 1.40741 0.779794 0
M  V30 2311 O 226.319 1.64245 0.659745 0
M  V30 2312 C 223.448 3.28673 0.991398 0
M  V30 2313 C 222.534 4.23388 0.245658 0
M  V30 2314 N 222.925 5.00267 -0.746069 0
M  V30 2315 C 221.223 4.43355 0.484988 0
M  V30 2316 C 221.924 5.69396 -1.19009 0
M  V30 2317 N 220.9 5.41095 -0.521287 0
M  V30 2318 H 224.702 2.84833 -0.724394 0
M  V30 2319 H 222.216 1.54607 -0.497028 0
M  V30 2320 H 224.213 3.88543 1.51129 0
M  V30 2321 H 222.873 2.73373 1.75207 0
M  V30 2322 H 223.884 5.05525 -1.12537 0
M  V30 2323 H 220.561 3.99104 1.22565 0
M  V30 2324 H 221.951 6.41083 -2.01153 0
M  V30 2325 N 224.671 0.411399 1.52136 0
M  V30 2326 C 225.581 -0.419774 2.30814 0
M  V30 2327 C 226.597 -1.0515 1.38634 0
M  V30 2328 O 227.773 -1.05252 1.71709 0
M  V30 2329 C 224.838 -1.52019 3.11594 0
M  V30 2330 C 223.899 -0.91129 4.19516 0
M  V30 2331 C 223.132 -1.95927 4.96436 0
M  V30 2332 O 223.355 -3.17775 4.73683 0
M  V30 2333 O 222.289 -1.56423 5.81219 0
M  V30 2334 H 226.115 0.221805 3.02889 0
M  V30 2335 H 223.7 0.174547 1.48377 0
M  V30 2336 H 225.582 -2.15898 3.61892 0
M  V30 2337 H 224.257 -2.14633 2.42311 0
M  V30 2338 H 223.164 -0.235157 3.7336 0
M  V30 2339 H 224.497 -0.32904 4.91099 0
M  V30 2340 N 226.149 -1.5696 0.141893 0
M  V30 2341 C 227.097 -2.17784 -0.816874 0
M  V30 2342 C 228.091 -1.1334 -1.25899 0
M  V30 2343 O 229.297 -1.316 -1.22806 0
M  V30 2344 H 225.672 -0.697278 -0.281615 0
M  V30 2345 H 227.643 -2.97087 -0.279621 0
M  V30 2346 C 226.392 -2.80983 -2.04802 0
M  V30 2347 H 225.715 -3.61062 -1.7168 0
M  V30 2348 H 227.155 -3.2705 -2.69841 0
M  V30 2349 C 225.614 -1.79228 -2.8527 0
M  V30 2350 O 226.144 -1.25962 -3.8144 0
M  V30 2351 N 224.35 -1.48647 -2.49704 0
M  V30 2352 H 223.897 -1.92155 -1.71564 0
M  V30 2353 H 223.855 -0.808115 -3.03837 0
M  V30 2354 N 227.627 0.131896 -1.57047 0
M  V30 2355 C 228.852 0.860418 -1.8871 0
M  V30 2356 C 229.277 1.73251 -0.73251 0
M  V30 2357 O 228.635 1.785 0.317429 0
M  V30 2358 C 228.683 1.68047 -3.19049 0
M  V30 2359 O 227.787 2.7862 -3.04047 0
M  V30 2360 H 227.128 0.238743 -0.619595 0
M  V30 2361 H 229.658 0.118169 -2.04258 0
M  V30 2362 H 229.668 2.07238 -3.51449 0
M  V30 2363 H 228.343 1.04018 -4.02682 0
M  V30 2364 H 226.92 2.42726 -2.83088 0
M  V30 2365 N 229.106 1.52395 0.401703 0
M  V30 2366 C 230.036 1.79231 1.49661 0
M  V30 2367 C 231.017 0.643654 1.57452 0
M  V30 2368 O 232.202 0.889989 1.72606 0
M  V30 2369 C 229.332 1.94971 2.87409 0
M  V30 2370 C 228.286 3.10604 2.94465 0
M  V30 2371 C 227.612 3.11577 4.34538 0
M  V30 2372 C 228.912 4.49921 2.6527 0
M  V30 2373 H 230.606 2.70917 1.27454 0
M  V30 2374 H 228.152 1.30362 0.6117 0
M  V30 2375 H 230.105 2.12328 3.63999 0
M  V30 2376 H 228.829 0.999632 3.10926 0
M  V30 2377 H 227.488 2.93009 2.20321 0
M  V30 2378 H 227.136 2.14277 4.55076 0
M  V30 2379 H 226.836 3.89247 4.40183 0
M  V30 2380 H 228.36 3.31073 5.13053 0
M  V30 2381 H 229.774 4.67683 3.31581 0
M  V30 2382 H 228.171 5.29564 2.82281 0
M  V30 2383 H 229.241 4.57507 1.60671 0
M  V30 2384 N 230.584 -0.659388 1.43143 0
M  V30 2385 C 231.832 -1.41654 1.44147 0
M  V30 2386 C 232.153 -1.94893 0.0645739 0
M  V30 2387 O 231.423 -1.74044 -0.899198 0
M  V30 2388 H 230.003 -0.525708 0.530697 0
M  V30 2389 H 232.665 -0.778097 1.78694 0
M  V30 2390 H 231.761 -2.26195 2.1504 0
M  V30 2391 N 232.062 -1.29571 -0.897171 0
M  V30 2392 C 233.478 -1.07637 -1.17841 0
M  V30 2393 C 233.678 0.170713 -2.00776 0
M  V30 2394 O 232.734 0.867768 -2.3712 0
M  V30 2395 C 234.047 -2.3332 -1.8969 0
M  V30 2396 C 235.595 -2.38664 -2.02505 0
M  V30 2397 C 236.07 -3.64157 -2.77765 0
M  V30 2398 N 237.561 -3.64894 -2.85318 0
M  V30 2399 C 238.296 -4.58679 -3.44094 0
M  V30 2400 N 237.792 -5.62799 -4.04017 0
M  V30 2401 N 239.585 -4.46245 -3.41793 0
M  V30 2402 H 231.736 -2.09598 -0.343883 0
M  V30 2403 H 233.999 -0.923333 -0.214848 0
M  V30 2404 H 233.705 -3.24262 -1.36187 0
M  V30 2405 H 233.579 -2.41025 -2.9015 0
M  V30 2406 H 235.966 -1.48208 -2.55183 0
M  V30 2407 H 236.047 -2.34943 -1.01171 0
M  V30 2408 H 235.691 -4.54965 -2.25763 0
M  V30 2409 H 235.621 -3.65137 -3.7945 0
M  V30 2410 H 238.112 -2.89613 -2.42761 0
M  V30 2411 H 238.425 -6.3048 -4.46895 0
M  V30 2412 H 236.77 -5.66605 -4.02472 0
M  V30 2413 H 239.961 -3.64094 -2.94199 0
M  V30 2414 H 240.134 -5.19518 -3.87304 0
M  V30 2415 N 233.54 1.10788 -1.12088 0
M  V30 2416 C 234.956 1.34691 -0.856186 0
M  V30 2417 C 235.156 1.94791 0.515615 0
M  V30 2418 O 234.212 2.18524 1.26505 0
M  V30 2419 C 235.525 2.27208 -1.9697 0
M  V30 2420 C 237.073 2.40755 -2.00016 0
M  V30 2421 C 237.548 3.36598 -3.1059 0
M  V30 2422 N 239.039 3.44164 -3.10008 0
M  V30 2423 C 239.774 4.18284 -3.92206 0
M  V30 2424 N 239.27 4.95322 -4.84384 0
M  V30 2425 N 241.063 4.13865 -3.80357 0
M  V30 2426 H 233.214 0.70144 -2.00483 0
M  V30 2427 H 235.477 0.371405 -0.872217 0
M  V30 2428 H 235.183 1.90251 -2.958 0
M  V30 2429 H 235.057 3.27485 -1.87172 0
M  V30 2430 H 237.444 2.76982 -1.01808 0
M  V30 2431 H 237.525 1.40305 -2.13888 0
M  V30 2432 H 237.169 3.01096 -4.09028 0
M  V30 2433 H 237.099 4.36918 -2.93956 0
M  V30 2434 H 239.59 2.8922 -2.43228 0
M  V30 2435 H 239.903 5.49267 -5.43623 0
M  V30 2436 H 238.248 4.94459 -4.884 0
M  V30 2437 H 241.439 3.52773 -3.07683 0
M  V30 2438 H 241.612 4.71372 -4.44649 0
M  V30 2439 N 235.018 0.912232 1.28515 0
M  V30 2440 C 236.266 0.543523 1.94654 0
M  V30 2441 C 236.587 -0.9155 1.72173 0
M  V30 2442 O 235.857 -1.64708 1.06058 0
M  V30 2443 H 234.437 0.198017 0.720277 0
M  V30 2444 H 237.099 1.16126 1.56527 0
M  V30 2445 H 236.195 0.736684 3.03281 0
M  V30 2446 N 236.496 -1.42363 0.676048 0
M  V30 2447 C 237.459 -2.29199 0.00766941 0
M  V30 2448 C 238.459 -1.43389 -0.727745 0
M  V30 2449 O 239.649 -1.64764 -0.56556 0
M  V30 2450 C 236.781 -3.2591 -0.999785 0
M  V30 2451 H 237.974 -2.89794 0.771988 0
M  V30 2452 H 235.527 -1.50024 0.438468 0
M  V30 2453 H 236.262 -2.70256 -1.79255 0
M  V30 2454 H 236.047 -3.89202 -0.475829 0
M  V30 2455 H 237.537 -3.91028 -1.46583 0
M  V30 2456 N 237.974 -0.419461 -1.51915 0
M  V30 2457 C 239.202 0.152136 -2.0634 0
M  V30 2458 C 239.617 1.37988 -1.28859 0
M  V30 2459 O 238.974 1.79243 -0.343232 0
M  V30 2460 C 239.025 0.492266 -3.58133 0
M  V30 2461 O 238.746 -0.686736 -4.32684 0
M  V30 2462 C 240.247 1.11648 -4.2901 0
M  V30 2463 H 237.467 0.0158325 -0.670813 0
M  V30 2464 H 240.011 -0.593394 -1.95702 0
M  V30 2465 H 238.166 1.18769 -3.68745 0
M  V30 2466 H 238.58 -0.400341 -5.2297 0
M  V30 2467 H 240.054 1.3046 -5.36362 0
M  V30 2468 H 240.531 2.09251 -3.86148 0
M  V30 2469 H 241.137 0.460958 -4.22795 0
M  V30 2470 N 239.452 1.56882 -0.150215 0
M  V30 2471 C 240.698 1.97299 0.494427 0
M  V30 2472 C 241.053 1.0338 1.62266 0
M  V30 2473 O 240.346 0.0694497 1.91474 0
M  V30 2474 C 240.54 3.41801 1.04437 0
M  V30 2475 C 240.369 4.49691 -0.0290451 0
M  V30 2476 C 239.139 5.03095 -0.47156 0
M  V30 2477 C 241.337 5.07693 -0.821703 0
M  V30 2478 N 239.319 5.94593 -1.52749 0
M  V30 2479 C 240.69 5.95431 -1.72805 0
M  V30 2480 C 242.745 4.90256 -0.869134 0
M  V30 2481 C 241.448 6.67599 -2.67777 0
M  V30 2482 C 243.474 5.63127 -1.8067 0
M  V30 2483 C 242.836 6.50576 -2.70057 0
M  V30 2484 H 238.935 0.76755 0.149639 0
M  V30 2485 H 241.519 1.93145 -0.24556 0
M  V30 2486 H 239.69 3.46541 1.75396 0
M  V30 2487 H 241.422 3.69272 1.6559 0
M  V30 2488 H 238.177 4.73543 -0.0732101 0
M  V30 2489 H 238.601 6.45047 -2.05531 0
M  V30 2490 H 243.243 4.22363 -0.192134 0
M  V30 2491 H 240.961 7.34717 -3.36476 0
M  V30 2492 H 244.547 5.51629 -1.84924 0
M  V30 2493 H 243.427 7.05974 -3.41424 0
M  V30 2494 N 240.93 -0.123565 1.57115 0
M  V30 2495 C 241.877 -1.15177 2.00007 0
M  V30 2496 C 242.847 -1.41403 0.871454 0
M  V30 2497 O 244.032 -1.53346 1.13533 0
M  V30 2498 C 241.172 -2.47436 2.40561 0
M  V30 2499 C 240.285 -2.28184 3.66819 0
M  V30 2500 C 239.42 -3.53641 3.96373 0
M  V30 2501 C 238.459 -3.29528 5.15827 0
M  V30 2502 N 237.596 -4.47175 5.41275 0
M  V30 2503 H 242.436 -0.779008 2.87638 0
M  V30 2504 H 239.973 -0.373166 1.42288 0
M  V30 2505 H 241.931 -3.24584 2.62109 0
M  V30 2506 H 240.561 -2.82614 1.55978 0
M  V30 2507 H 239.613 -1.41976 3.52912 0
M  V30 2508 H 240.925 -2.0634 4.5412 0
M  V30 2509 H 240.079 -4.39209 4.18545 0
M  V30 2510 H 238.818 -3.78512 3.07538 0
M  V30 2511 H 237.823 -2.42349 4.93505 0
M  V30 2512 H 239.048 -3.06031 6.06236 0
M  V30 2513 H 236.994 -4.72175 4.55397 0
M  V30 2514 H 236.911 -4.28419 6.22891 0
M  V30 2515 H 238.179 -5.3389 5.67963 0
M  V30 2516 N 242.408 -1.52605 -0.393616 0
M  V30 2517 C 243.655 -1.67424 -1.1391 0
M  V30 2518 C 243.983 -0.411859 -1.90089 0
M  V30 2519 O 243.238 0.605626 -1.86093 0
M  V30 2520 C 243.537 -2.85721 -2.14705 0
M  V30 2521 C 243.203 -4.23342 -1.55218 0
M  V30 2522 C 241.865 -4.60771 -1.3872 0
M  V30 2523 C 244.217 -5.09041 -1.11924 0
M  V30 2524 C 241.545 -5.81563 -0.774689 0
M  V30 2525 C 243.897 -6.30452 -0.520853 0
M  V30 2526 C 242.561 -6.66617 -0.343134 0
M  V30 2527 H 241.831 -0.612648 -0.416826 0
M  V30 2528 H 244.478 -1.8674 -0.424315 0
M  V30 2529 H 242.783 -2.60803 -2.92385 0
M  V30 2530 H 244.48 -2.94382 -2.72288 0
M  V30 2531 H 241.07 -3.93855 -1.69045 0
M  V30 2532 H 245.254 -4.80695 -1.23473 0
M  V30 2533 H 240.51 -6.08196 -0.625154 0
M  V30 2534 H 244.684 -6.96175 -0.177065 0
M  V30 2535 H 242.311 -7.60083 0.133571 0
M  V30 2536 N 243.887 0.651787 -1.4349 0
M  V30 2537 C 245.303 0.96762 -1.26922 0
M  V30 2538 C 245.503 2.00602 -0.189982 0
M  V30 2539 O 244.559 2.48793 0.431107 0
M  V30 2540 C 245.872 1.45052 -2.63401 0
M  V30 2541 C 247.42 1.5671 -2.70945 0
M  V30 2542 C 247.895 2.0839 -4.07845 0
M  V30 2543 N 249.386 2.1569 -4.09917 0
M  V30 2544 C 250.121 2.56804 -5.12679 0
M  V30 2545 N 249.617 2.97203 -6.25813 0
M  V30 2546 N 251.41 2.56756 -5.00033 0
M  V30 2547 H 243.561 -0.0353158 -2.12371 0
M  V30 2548 H 245.824 0.0467858 -0.946845 0
M  V30 2549 H 245.53 0.761926 -3.43348 0
M  V30 2550 H 245.404 2.42529 -2.88894 0
M  V30 2551 H 247.791 2.2467 -1.9133 0
M  V30 2552 H 247.872 0.57662 -2.49216 0
M  V30 2553 H 247.516 1.41031 -4.87927 0
M  V30 2554 H 247.446 3.08271 -4.26938 0
M  V30 2555 H 249.937 1.87237 -3.28254 0
M  V30 2556 H 250.25 3.27328 -7.00055 0
M  V30 2557 H 248.595 2.95004 -6.29283 0
M  V30 2558 H 251.786 2.24572 -4.10713 0
M  V30 2559 H 251.959 2.88475 -5.80247 0
M  V30 2560 N 245.365 1.30045 0.890287 0
M  V30 2561 C 246.59 1.21598 1.68014 0
M  V30 2562 C 247.015 -0.218678 1.86825 0
M  V30 2563 O 246.373 -1.15756 1.39536 0
M  V30 2564 C 246.421 1.94434 3.03691 0
M  V30 2565 O 245.525 1.2678 3.92429 0
M  V30 2566 H 244.866 0.420856 0.513592 0
M  V30 2567 H 247.396 1.71775 1.11151 0
M  V30 2568 H 247.406 2.03251 3.5377 0
M  V30 2569 H 246.081 2.98777 2.89318 0
M  V30 2570 H 244.658 1.26282 3.50866 0
M  V30 2571 N 246.843 -1.10192 1.12674 0
M  V30 2572 C 247.806 -2.14786 0.799979 0
M  V30 2573 C 248.806 -1.59711 -0.18685 0
M  V30 2574 O 249.996 -1.74156 0.0392558 0
M  V30 2575 C 247.128 -3.40374 0.189228 0
M  V30 2576 H 248.321 -2.45203 1.72671 0
M  V30 2577 H 245.874 -1.25597 0.930326 0
M  V30 2578 H 246.609 -3.15577 -0.747107 0
M  V30 2579 H 246.394 -3.81637 0.899766 0
M  V30 2580 H 247.884 -4.17594 -0.0228143 0
M  V30 2581 N 248.321 -0.919034 -1.28029 0
M  V30 2582 C 249.737 -0.617972 -1.4715 0
M  V30 2583 C 249.937 0.835242 -1.83374 0
M  V30 2584 O 248.993 1.61388 -1.94191 0
M  V30 2585 C 250.306 -1.56041 -2.57044 0
M  V30 2586 C 251.854 -1.56769 -2.7091 0
M  V30 2587 C 252.329 -2.49688 -3.83953 0
M  V30 2588 N 253.82 -2.47845 -3.91314 0
M  V30 2589 C 254.555 -3.16437 -4.78179 0
M  V30 2590 N 254.051 -3.94376 -5.69596 0
M  V30 2591 N 255.844 -3.05498 -4.71834 0
M  V30 2592 H 247.995 -1.85866 -1.02798 0
M  V30 2593 H 250.258 -0.797506 -0.512531 0
M  V30 2594 H 249.964 -2.59671 -2.372 0
M  V30 2595 H 249.838 -1.29551 -3.54255 0
M  V30 2596 H 252.225 -0.538745 -2.90141 0
M  V30 2597 H 252.306 -1.87305 -1.74214 0
M  V30 2598 H 251.95 -3.52688 -3.65477 0
M  V30 2599 H 251.88 -2.16453 -4.80058 0
M  V30 2600 H 254.371 -1.91234 -3.25941 0
M  V30 2601 H 254.684 -4.43721 -6.32718 0
M  V30 2602 H 253.029 -3.98481 -5.69419 0
M  V30 2603 H 256.22 -2.44108 -3.99411 0
M  V30 2604 H 256.393 -3.59225 -5.39316 0
M  V30 2605 N 249.799 1.42003 -0.683588 0
M  V30 2606 C 251.215 1.55625 -0.353976 0
M  V30 2607 C 251.415 1.66151 1.14 0
M  V30 2608 O 250.471 1.63329 1.92561 0
M  V30 2609 C 251.784 2.80171 -1.092 0
M  V30 2610 C 253.332 2.93954 -1.07518 0
M  V30 2611 C 253.807 4.21372 -1.79471 0
M  V30 2612 N 255.298 4.28303 -1.76381 0
M  V30 2613 C 256.033 5.25729 -2.28904 0
M  V30 2614 N 255.529 6.29254 -2.89846 0
M  V30 2615 N 257.322 5.17586 -2.19228 0
M  V30 2616 H 249.473 1.33415 -1.6527 0
M  V30 2617 H 251.736 0.64282 -0.696769 0
M  V30 2618 H 251.442 2.78561 -2.14701 0
M  V30 2619 H 251.316 3.7133 -0.662862 0
M  V30 2620 H 253.703 2.95086 -0.028475 0
M  V30 2621 H 253.784 2.04002 -1.54328 0
M  V30 2622 H 253.428 4.21001 -2.84114 0
M  V30 2623 H 253.358 5.10275 -1.30104 0
M  V30 2624 H 255.849 3.54119 -1.31939 0
M  V30 2625 H 256.162 6.99964 -3.27522 0
M  V30 2626 H 254.507 6.29791 -2.93919 0
M  V30 2627 H 257.698 4.35631 -1.71299 0
M  V30 2628 H 257.871 5.93348 -2.60466 0
M  V30 2629 N 251.277 0.427512 1.51691 0
M  V30 2630 C 252.693 0.0792977 1.59403 0
M  V30 2631 C 252.893 -1.41035 1.43914 0
M  V30 2632 O 251.949 -2.17922 1.27539 0
M  V30 2633 C 253.262 0.590636 2.94842 0
M  V30 2634 C 254.81 0.550215 3.08126 0
M  V30 2635 C 255.285 1.03836 4.46074 0
M  V30 2636 N 256.776 0.995943 4.52366 0
M  V30 2637 C 257.511 1.34463 5.57411 0
M  V30 2638 N 257.007 1.76569 6.69922 0
M  V30 2639 N 258.8 1.26343 5.47717 0
M  V30 2640 H 250.951 1.39687 1.60004 0
M  V30 2641 H 253.214 0.575003 0.753708 0
M  V30 2642 H 252.92 1.63251 3.11516 0
M  V30 2643 H 252.794 0.0102061 3.77199 0
M  V30 2644 H 255.181 -0.482654 2.91126 0
M  V30 2645 H 255.262 1.16693 2.27632 0
M  V30 2646 H 254.906 2.06965 4.63819 0
M  V30 2647 H 254.836 0.398286 5.25092 0
M  V30 2648 H 257.327 0.68661 3.7161 0
M  V30 2649 H 257.64 2.01438 7.46085 0
M  V30 2650 H 255.985 1.80488 6.71155 0
M  V30 2651 H 259.176 0.933209 4.58703 0
M  V30 2652 H 259.349 1.53846 6.29472 0
M  V30 2653 N 252.755 -1.56801 0.158532 0
M  V30 2654 C 253.98 -2.01295 -0.499516 0
M  V30 2655 C 254.405 -1.03799 -1.56867 0
M  V30 2656 O 253.763 -0.0155162 -1.81293 0
M  V30 2657 C 253.811 -3.44469 -1.06647 0
M  V30 2658 O 252.915 -3.50012 -2.18095 0
M  V30 2659 H 252.256 -0.652884 -0.12099 0
M  V30 2660 H 254.786 -2.02958 0.258661 0
M  V30 2661 H 254.796 -3.8351 -1.39227 0
M  V30 2662 H 253.471 -4.14932 -0.283581 0
M  V30 2663 H 252.048 -3.22822 -1.86656 0
M  V30 2664 N 254.233 0.115231 -1.57178 0
M  V30 2665 C 255.649 0.468877 -1.52557 0
M  V30 2666 C 255.849 1.81649 -0.872125 0
M  V30 2667 O 254.905 2.48347 -0.45606 0
M  V30 2668 C 256.218 0.4499 -2.97315 0
M  V30 2669 C 257.766 0.533185 -3.08425 0
M  V30 2670 C 258.241 0.54456 -4.54751 0
M  V30 2671 N 259.732 0.605892 -4.5922 0
M  V30 2672 C 260.467 0.636203 -5.6986 0
M  V30 2673 N 259.963 0.623931 -6.89985 0
M  V30 2674 N 261.756 0.679496 -5.57978 0
M  V30 2675 H 253.907 -0.767712 -1.9804 0
M  V30 2676 H 256.17 -0.283609 -0.904583 0
M  V30 2677 H 255.876 -0.472721 -3.48509 0
M  V30 2678 H 255.75 1.27632 -3.5495 0
M  V30 2679 H 258.137 1.44623 -2.57232 0
M  V30 2680 H 258.218 -0.320995 -2.53778 0
M  V30 2681 H 257.862 -0.364452 -5.06591 0
M  V30 2682 H 257.792 1.41568 -5.07214 0
M  V30 2683 H 260.283 0.621386 -3.72756 0
M  V30 2684 H 260.596 0.649787 -7.70063 0
M  V30 2685 H 258.941 0.591296 -6.9248 0
M  V30 2686 H 262.132 0.686472 -4.63039 0
M  V30 2687 H 262.305 0.69965 -6.44212 0
M  V30 2688 N 255.711 1.52812 0.385517 0
M  V30 2689 C 256.939 1.71907 1.15133 0
M  V30 2690 C 257.354 0.439004 1.83625 0
M  V30 2691 O 256.711 -0.586765 1.7281 0
M  V30 2692 C 256.762 2.87099 2.19673 0
M  V30 2693 O 256.483 4.10151 1.53973 0
M  V30 2694 C 257.984 3.17902 3.08955 0
M  V30 2695 H 255.204 0.575479 0.345057 0
M  V30 2696 H 257.748 1.99476 0.45052 0
M  V30 2697 H 255.903 2.61982 2.85384 0
M  V30 2698 H 256.317 4.74514 2.23465 0
M  V30 2699 H 257.791 4.01959 3.7833 0
M  V30 2700 H 258.268 2.3243 3.72657 0
M  V30 2701 H 258.874 3.44871 2.48885 0
M  V30 2702 N 257.189 -0.644168 1.43834 0
M  V30 2703 C 258.435 -1.40603 1.46146 0
M  V30 2704 C 258.768 -1.93997 0.0887717 0
M  V30 2705 O 258.043 -1.72854 -0.891724 0
M  V30 2706 C 258.326 -2.58086 2.51124 0
M  V30 2707 C 258.179 -2.10126 3.97702 0
M  V30 2708 C 259.498 -3.60291 2.52742 0
M  V30 2709 H 256.617 -0.509905 0.532134 0
M  V30 2710 H 259.259 -0.729502 1.75437 0
M  V30 2711 H 257.409 -3.15801 2.26278 0
M  V30 2712 H 259.081 -1.57342 4.33637 0
M  V30 2713 H 257.324 -1.41419 4.10101 0
M  V30 2714 H 257.995 -2.94649 4.66783 0
M  V30 2715 H 260.471 -3.12352 2.7491 0
M  V30 2716 H 259.347 -4.40032 3.28121 0
M  V30 2717 H 259.608 -4.1349 1.56455 0
M  V30 2718 N 258.668 -1.30515 -0.883378 0
M  V30 2719 C 259.598 -1.19607 -2.00541 0
M  V30 2720 C 260.579 -0.086346 -1.69881 0
M  V30 2721 O 261.764 -0.268654 -1.92333 0
M  V30 2722 C 258.894 -0.888758 -3.35736 0
M  V30 2723 C 257.848 -1.95659 -3.8066 0
M  V30 2724 C 257.174 -1.50224 -5.13164 0
M  V30 2725 C 258.474 -3.36788 -3.99213 0
M  V30 2726 H 260.168 -2.13476 -2.09925 0
M  V30 2727 H 257.714 -1.02775 -1.00863 0
M  V30 2728 H 259.667 -0.799094 -4.13754 0
M  V30 2729 H 258.391 0.0856125 -3.26488 0
M  V30 2730 H 257.05 -2.03591 -3.04871 0
M  V30 2731 H 256.698 -0.516092 -5.00345 0
M  V30 2732 H 256.398 -2.2165 -5.44192 0
M  V30 2733 H 257.922 -1.42639 -5.93706 0
M  V30 2734 H 259.336 -3.31605 -4.67665 0
M  V30 2735 H 257.733 -4.06314 -4.41621 0
M  V30 2736 H 258.803 -3.78561 -3.03017 0
M  V30 2737 N 260.146 1.09593 -1.13257 0
M  V30 2738 C 261.096 2.14345 -0.777179 0
M  V30 2739 C 262.08 1.59277 0.227966 0
M  V30 2740 O 263.272 1.76971 0.0321413 0
M  V30 2741 C 260.401 3.42439 -0.242991 0
M  V30 2742 C 259.487 4.04419 -1.27694 0
M  V30 2743 N 259.878 4.40979 -2.47732 0
M  V30 2744 C 258.176 4.31596 -1.12432 0
M  V30 2745 C 258.877 4.89784 -3.13826 0
M  V30 2746 N 257.853 4.87133 -2.41252 0
M  V30 2747 H 261.655 2.40415 -1.69049 0
M  V30 2748 H 259.169 1.26803 -1.01463 0
M  V30 2749 H 261.166 4.16889 0.0298496 0
M  V30 2750 H 259.826 3.17824 0.66467 0
M  V30 2751 H 260.837 4.32396 -2.85051 0
M  V30 2752 H 257.514 4.16595 -0.274684 0
M  V30 2753 H 258.904 5.2755 -4.16102 0
M  V30 2754 N 261.624 0.925811 1.2754 0
M  V30 2755 C 263.04 0.625767 1.46821 0
M  V30 2756 C 263.24 -0.825506 1.83814 0
M  V30 2757 O 262.296 -1.60356 1.95044 0
M  V30 2758 C 263.609 1.57402 2.56213 0
M  V30 2759 C 265.157 1.58204 2.70075 0
M  V30 2760 C 265.632 2.51721 3.82623 0
M  V30 2761 N 267.123 2.49917 3.89994 0
M  V30 2762 C 267.858 3.18968 4.76494 0
M  V30 2763 N 267.354 3.97391 5.67496 0
M  V30 2764 N 269.147 3.07996 4.70208 0
M  V30 2765 H 261.298 1.86409 1.01811 0
M  V30 2766 H 263.561 0.800213 0.508295 0
M  V30 2767 H 263.267 2.60925 2.35819 0
M  V30 2768 H 263.141 1.31428 3.53563 0
M  V30 2769 H 265.528 0.554124 2.89851 0
M  V30 2770 H 265.609 1.88226 1.73218 0
M  V30 2771 H 265.253 3.54622 3.63601 0
M  V30 2772 H 265.183 2.18996 4.78903 0
M  V30 2773 H 267.674 1.9296 3.24923 0
M  V30 2774 H 267.987 4.4707 6.30356 0
M  V30 2775 H 266.332 4.01495 5.67298 0
M  V30 2776 H 269.523 2.46223 3.9811 0
M  V30 2777 H 269.696 3.6208 5.37403 0
M  V30 2778 N 263.102 -1.41638 0.69111 0
M  V30 2779 C 264.032 -2.3347 0.037248 0
M  V30 2780 C 265.013 -1.51575 -0.771947 0
M  V30 2781 O 266.198 -1.80126 -0.72582 0
M  V30 2782 C 263.328 -3.35354 -0.903064 0
M  V30 2783 C 262.282 -4.27526 -0.201288 0
M  V30 2784 C 261.608 -5.19747 -1.25565 0
M  V30 2785 C 262.908 -5.13959 0.929689 0
M  V30 2786 H 264.602 -2.88397 0.804227 0
M  V30 2787 H 262.148 -1.38669 0.388189 0
M  V30 2788 H 264.101 -3.98519 -1.36969 0
M  V30 2789 H 262.825 -2.78767 -1.70166 0
M  V30 2790 H 261.484 -3.65779 0.245265 0
M  V30 2791 H 261.132 -4.59479 -2.04666 0
M  V30 2792 H 260.832 -5.8225 -0.791128 0
M  V30 2793 H 262.356 -5.85789 -1.72288 0
M  V30 2794 H 263.77 -5.70718 0.543546 0
M  V30 2795 H 262.167 -5.85379 1.32103 0
M  V30 2796 H 263.237 -4.51389 1.77133 0
M  V30 2797 N 264.58 -0.43555 -1.51462 0
M  V30 2798 C 265.808 0.130242 -2.0649 0
M  V30 2799 C 266.223 1.36614 -1.30315 0
M  V30 2800 O 265.58 1.78869 -0.362223 0
M  V30 2801 C 265.631 0.454253 -3.58635 0
M  V30 2802 O 265.352 -0.73259 -4.31931 0
M  V30 2803 C 266.853 1.07091 -4.3017 0
M  V30 2804 H 264.073 0.00871669 -0.670943 0
M  V30 2805 H 266.617 -0.614117 -1.95061 0
M  V30 2806 H 264.772 1.14851 -3.69984 0
M  V30 2807 H 265.186 -0.455787 -5.22516 0
M  V30 2808 H 266.66 1.24764 -5.37716 0
M  V30 2809 H 267.137 2.05144 -3.88346 0
M  V30 2810 H 267.743 0.416089 -4.2326 0
M  V30 2811 N 266.058 1.56714 -0.166846 0
M  V30 2812 C 267.306 1.96358 0.478305 0
M  V30 2813 C 267.627 1.0537 1.6408 0
M  V30 2814 O 266.897 0.119154 1.95537 0
M  V30 2815 H 265.477 0.725065 0.179692 0
M  V30 2816 H 268.139 1.93329 -0.246985 0
M  V30 2817 H 267.235 3.00547 0.841292 0
M  V30 2818 N 267.536 -0.106894 1.57237 0
M  V30 2819 C 268.486 -1.1366 1.9765 0
M  V30 2820 C 269.47 -1.36416 0.853203 0
M  V30 2821 O 270.662 -1.37305 1.11697 0
M  V30 2822 C 267.791 -2.46 2.39455 0
M  V30 2823 C 266.877 -2.26668 3.58445 0
M  V30 2824 N 267.268 -1.77176 4.73754 0
M  V30 2825 C 265.566 -2.57279 3.64312 0
M  V30 2826 C 266.267 -1.71836 5.5574 0
M  V30 2827 N 265.243 -2.16623 4.98573 0
M  V30 2828 H 269.045 -0.74669 2.84256 0
M  V30 2829 H 266.559 -0.314483 1.59326 0
M  V30 2830 H 268.556 -3.2049 2.6663 0
M  V30 2831 H 267.216 -2.85738 1.54219 0
M  V30 2832 H 268.227 -1.46545 4.96734 0
M  V30 2833 H 264.904 -3.00622 2.89711 0
M  V30 2834 H 266.294 -1.34723 6.58255 0
M  V30 2835 N 269.014 -1.53014 -0.377408 0
M  V30 2836 C 270.261 -1.68623 -1.12128 0
M  V30 2837 C 270.589 -0.431997 -1.89642 0
M  V30 2838 O 269.844 0.585855 -1.86725 0
M  V30 2839 C 270.143 -2.87982 -2.11663 0
M  V30 2840 C 269.809 -4.24964 -1.50719 0
M  V30 2841 C 268.471 -4.62217 -1.33825 0
M  V30 2842 C 270.823 -5.10199 -1.06519 0
M  V30 2843 C 268.151 -5.82352 -0.712963 0
M  V30 2844 C 270.503 -6.30969 -0.453955 0
M  V30 2845 C 269.167 -6.66944 -0.272411 0
M  V30 2846 H 268.437 -0.617034 -0.410305 0
M  V30 2847 H 271.084 -1.8718 -0.404484 0
M  V30 2848 H 269.389 -2.63889 -2.89603 0
M  V30 2849 H 271.086 -2.97253 -2.6915 0
M  V30 2850 H 267.676 -3.95626 -1.64858 0
M  V30 2851 H 271.86 -4.81978 -1.18368 0
M  V30 2852 H 267.116 -6.08824 -0.560611 0
M  V30 2853 H 271.29 -6.96324 -0.103217 0
M  V30 2854 H 268.917 -7.59898 0.214181 0
M  V30 2855 N 270.492 0.636531 -1.44174 0
M  V30 2856 C 271.74 1.39343 -1.46383 0
M  V30 2857 C 272.061 1.94766 -0.0955715 0
M  V30 2858 O 271.331 1.75452 0.871395 0
M  V30 2859 H 269.911 0.517199 -0.538994 0
M  V30 2860 H 272.573 0.74957 -1.7991 0
M  V30 2861 H 271.669 2.22746 -2.18611 0
M  V30 2862 N 271.97 1.30982 0.876444 0
M  V30 2863 C 273.386 1.09498 1.16113 0
M  V30 2864 C 273.586 -0.13875 2.01022 0
M  V30 2865 O 272.642 -0.829935 2.38471 0
M  V30 2866 C 273.955 2.36308 1.85954 0
M  V30 2867 C 275.503 2.41856 1.98683 0
M  V30 2868 C 275.978 3.6853 2.71937 0
M  V30 2869 N 277.469 3.69387 2.79477 0
M  V30 2870 C 278.204 4.64096 3.36753 0
M  V30 2871 N 277.7 5.69155 3.95012 0
M  V30 2872 N 279.493 4.51626 3.3465 0
M  V30 2873 H 271.644 2.10118 0.310494 0
M  V30 2874 H 273.907 0.926634 0.200131 0
M  V30 2875 H 273.613 3.26388 1.31011 0
M  V30 2876 H 273.487 2.4561 2.86278 0
M  V30 2877 H 275.874 1.52249 2.52793 0
M  V30 2878 H 275.955 2.36523 0.9742 0
M  V30 2879 H 275.599 4.58499 2.18496 0
M  V30 2880 H 275.529 3.71127 3.73593 0
M  V30 2881 H 278.02 2.93438 2.38123 0
M  V30 2882 H 278.333 6.3751 4.36808 0
M  V30 2883 H 276.678 5.72937 3.93406 0
M  V30 2884 H 279.869 3.68728 2.8837 0
M  V30 2885 H 280.042 5.25614 3.7899 0
M  V30 2886 N 273.449 -1.08991 1.13837 0
M  V30 2887 C 274.865 -1.33312 0.877506 0
M  V30 2888 C 275.065 -1.95587 -0.48456 0
M  V30 2889 O 274.121 -2.20509 -1.23013 0
M  V30 2890 C 275.434 -2.24045 2.0056 0
M  V30 2891 C 276.982 -2.37542 2.03821 0
M  V30 2892 C 277.457 -3.31614 3.15905 0
M  V30 2893 N 278.948 -3.39189 3.15445 0
M  V30 2894 C 279.683 -4.11992 3.98811 0
M  V30 2895 N 279.179 -4.87553 4.92203 0
M  V30 2896 N 280.972 -4.07762 3.86894 0
M  V30 2897 H 273.123 -0.669456 2.01574 0
M  V30 2898 H 275.386 -0.357482 0.878015 0
M  V30 2899 H 275.092 -1.85521 2.98789 0
M  V30 2900 H 274.966 -3.24466 1.92359 0
M  V30 2901 H 277.353 -2.75327 1.06202 0
M  V30 2902 H 277.434 -1.36884 2.16093 0
M  V30 2903 H 277.078 -2.94551 4.13766 0
M  V30 2904 H 277.008 -4.32186 3.0087 0
M  V30 2905 H 279.499 -2.85314 2.47799 0
M  V30 2906 H 279.812 -5.40549 5.52292 0
M  V30 2907 H 278.157 -4.86627 4.96205 0
M  V30 2908 H 281.348 -3.47833 3.13257 0
M  V30 2909 H 281.521 -4.64238 4.52092 0
M  V30 2910 N 274.927 -0.932562 -1.27047 0
M  V30 2911 C 276.175 -0.574422 -1.93765 0
M  V30 2912 C 276.496 0.887993 -1.73608 0
M  V30 2913 O 275.766 1.62999 -1.08665 0
M  V30 2914 H 274.346 -0.209451 -0.717035 0
M  V30 2915 H 277.008 -1.18601 -1.5466 0
M  V30 2916 H 276.104 -0.784841 -3.02071 0
M  V30 2917 N 276.405 1.4127 -0.698611 0
M  V30 2918 C 277.337 2.292 0.00399731 0
M  V30 2919 C 278.35 1.44944 0.741279 0
M  V30 2920 O 279.539 1.68416 0.591477 0
M  V30 2921 C 276.639 3.22875 1.02979 0
M  V30 2922 C 275.812 4.35904 0.36151 0
M  V30 2923 C 274.871 5.10134 1.29033 0
M  V30 2924 O 273.897 5.63809 0.781562 0
M  V30 2925 N 275.099 5.17885 2.6225 0
M  V30 2926 H 277.864 2.9014 -0.750921 0
M  V30 2927 H 275.425 1.52455 -0.544882 0
M  V30 2928 H 277.417 3.69404 1.65296 0
M  V30 2929 H 275.987 2.63221 1.68622 0
M  V30 2930 H 275.207 3.91719 -0.441584 0
M  V30 2931 H 276.495 5.08696 -0.103055 0
M  V30 2932 H 275.893 4.7573 3.061 0
M  V30 2933 H 274.45 5.6798 3.19754 0
M  V30 2934 N 277.883 0.443576 1.51229 0
M  V30 2935 C 279.131 -0.120557 2.0174 0
M  V30 2936 C 279.452 -1.42665 1.32935 0
M  V30 2937 O 278.722 -1.9028 0.465866 0
M  V30 2938 H 277.302 -0.0475426 0.745486 0
M  V30 2939 H 279.964 0.587711 1.85828 0
M  V30 2940 H 279.06 -0.291972 3.10731 0
M  V30 2941 N 279.361 -1.56624 0.175154 0
M  V30 2942 C 280.609 -1.96609 -0.467885 0
M  V30 2943 C 280.93 -1.06238 -1.63519 0
M  V30 2944 O 280.2 -0.129523 -1.95471 0
M  V30 2945 H 278.78 -0.726008 -0.175845 0
M  V30 2946 H 281.442 -1.93195 0.257234 0
M  V30 2947 H 280.538 -3.00989 -0.825342 0
M  V30 2948 N 280.839 0.0985539 -1.57292 0
M  V30 2949 C 281.772 1.15082 -1.97057 0
M  V30 2950 C 282.75 1.39025 -0.843255 0
M  V30 2951 O 283.934 1.52842 -1.10325 0
M  V30 2952 C 281.061 2.50069 -2.28437 0
M  V30 2953 C 280.107 2.42428 -3.509 0
M  V30 2954 S 280.94 1.84414 -5.02744 0
M  V30 2955 C 282.096 3.21032 -5.37298 0
M  V30 2956 H 282.329 0.811815 -2.86002 0
M  V30 2957 H 279.862 0.306102 -1.51335 0
M  V30 2958 H 281.82 3.27729 -2.47192 0
M  V30 2959 H 280.481 2.8114 -1.40069 0
M  V30 2960 H 279.674 3.41911 -3.70288 0
M  V30 2961 H 279.276 1.72896 -3.31637 0
M  V30 2962 H 281.568 4.17297 -5.33731 0
M  V30 2963 H 282.511 3.06452 -6.38352 0
M  V30 2964 H 282.919 3.20404 -4.64759 0
M  V30 2965 N 282.317 1.53212 0.369288 0
M  V30 2966 C 283.264 1.79388 1.45219 0
M  V30 2967 C 284.234 0.638059 1.53356 0
M  V30 2968 O 285.419 0.879852 1.69302 0
M  V30 2969 C 282.559 1.98623 2.82211 0
M  V30 2970 C 281.672 3.26337 2.8307 0
M  V30 2971 C 280.807 3.35779 4.11614 0
M  V30 2972 C 279.846 4.5754 4.06601 0
M  V30 2973 N 278.983 4.64155 5.26787 0
M  V30 2974 H 283.823 2.71794 1.22198 0
M  V30 2975 H 281.36 1.34642 0.592444 0
M  V30 2976 H 283.318 2.07761 3.61789 0
M  V30 2977 H 281.948 1.09558 3.03639 0
M  V30 2978 H 281 3.26171 1.95747 0
M  V30 2979 H 282.312 4.15988 2.75237 0
M  V30 2980 H 281.466 3.44208 4.99606 0
M  V30 2981 H 280.205 2.44137 4.22195 0
M  V30 2982 H 279.21 4.49215 3.16996 0
M  V30 2983 H 280.435 5.50519 3.97625 0
M  V30 2984 H 278.381 3.75413 5.3796 0
M  V30 2985 H 278.298 5.47706 5.21109 0
M  V30 2986 H 279.566 4.76863 6.16621 0
M  V30 2987 N 283.795 -0.628877 1.44509 0
M  V30 2988 C 284.758 -1.72263 1.51188 0
M  V30 2989 C 285.758 -1.55907 0.39367 0
M  V30 2990 O 286.948 -1.61361 0.656377 0
M  V30 2991 C 284.08 -3.11365 1.38798 0
M  V30 2992 H 285.273 -1.67714 2.4862 0
M  V30 2993 H 282.826 -0.842737 1.31634 0
M  V30 2994 H 283.561 -3.21507 0.424693 0
M  V30 2995 H 283.346 -3.24644 2.19884 0
M  V30 2996 H 284.836 -3.91075 1.46458 0
M  V30 2997 N 285.273 -1.31445 -0.869486 0
M  V30 2998 C 286.221 -1.19067 -1.99814 0
M  V30 2999 C 287.215 -0.0988569 -1.69111 0
M  V30 3000 O 288.421 -0.260781 -1.78101 0
M  V30 3001 H 284.796 -0.368677 -0.655425 0
M  V30 3002 H 286.767 -2.14555 -2.07385 0
M  V30 3003 C 285.516 -0.915323 -3.35436 0
M  V30 3004 H 284.839 -1.74759 -3.59582 0
M  V30 3005 H 286.279 -0.868895 -4.15001 0
M  V30 3006 C 284.738 0.381928 -3.34728 0
M  V30 3007 O 285.268 1.39857 -3.76567 0
M  V30 3008 N 283.474 0.398633 -2.87853 0
M  V30 3009 H 283.021 -0.429186 -2.54 0
M  V30 3010 H 282.979 1.26651 -2.87762 0
M  V30 3011 N 286.751 1.08385 -1.14413 0
M  V30 3012 C 287.699 2.17406 -0.826888 0
M  V30 3013 C 288.693 1.6827 0.195312 0
M  V30 3014 O 289.899 1.79927 0.0513892 0
M  V30 3015 H 286.274 0.70934 -0.249681 0
M  V30 3016 H 288.245 2.41388 -1.75426 0
M  V30 3017 C 286.994 3.46215 -0.320979 0
M  V30 3018 H 286.317 3.84401 -1.0989 0
M  V30 3019 H 287.757 4.23777 -0.137549 0
M  V30 3020 C 286.216 3.23067 0.955472 0
M  V30 3021 O 286.746 3.4668 2.02918 0
M  V30 3022 N 284.952 2.7661 0.890798 0
M  V30 3023 H 284.499 2.57594 0.0168815 0
M  V30 3024 H 284.457 2.61501 1.74542 0
M  V30 3025 N 288.23 0.939286 1.26551 0
M  V30 3026 C 289.178 0.43815 2.28436 0
M  V30 3027 C 290.172 -0.483587 1.62351 0
M  V30 3028 O 291.378 -0.362009 1.76322 0
M  V30 3029 H 287.753 0.123149 0.741848 0
M  V30 3030 H 289.724 1.31002 2.68106 0
M  V30 3031 C 288.473 -0.283052 3.46546 0
M  V30 3032 H 287.796 0.417043 3.97619 0
M  V30 3033 H 289.236 -0.597948 4.19763 0
M  V30 3034 C 287.695 -1.50018 3.01656 0
M  V30 3035 O 288.225 -2.59855 3.0633 0
M  V30 3036 N 286.431 -1.35608 2.57019 0
M  V30 3037 H 285.978 -0.46244 2.53415 0
M  V30 3038 H 285.936 -2.17165 2.27347 0
M  V30 3039 N 289.708 -1.40897 0.706093 0
M  V30 3040 C 290.954 -2.01352 0.241889 0
M  V30 3041 C 291.287 -1.55832 -1.15888 0
M  V30 3042 O 290.562 -0.774145 -1.7843 0
M  V30 3043 C 290.845 -3.58752 0.311311 0
M  V30 3044 C 290.698 -4.1437 1.74978 0
M  V30 3045 C 292.017 -4.38914 -0.322922 0
M  V30 3046 H 289.136 -0.731562 0.0893687 0
M  V30 3047 H 291.778 -1.67504 0.896802 0
M  V30 3048 H 289.928 -3.87718 -0.246302 0
M  V30 3049 H 291.6 -3.96239 2.36205 0
M  V30 3050 H 289.843 -3.69016 2.28057 0
M  V30 3051 H 290.514 -5.23532 1.74981 0
M  V30 3052 H 292.99 -4.15822 0.152089 0
M  V30 3053 H 291.866 -5.48358 -0.243855 0
M  V30 3054 H 292.127 -4.19176 -1.40513 0
M  V30 3055 N 291.186 -0.45159 -1.50991 0
M  V30 3056 C 292.433 0.110074 -2.02201 0
M  V30 3057 C 292.761 1.4146 -1.33489 0
M  V30 3058 O 292.016 1.90617 -0.443125 0
M  V30 3059 C 292.315 0.361728 -3.55565 0
M  V30 3060 C 291.981 -0.858717 -4.42648 0
M  V30 3061 C 290.643 -1.19338 -4.66167 0
M  V30 3062 C 292.995 -1.67221 -4.93646 0
M  V30 3063 C 290.323 -2.34195 -5.37931 0
M  V30 3064 C 292.675 -2.8119 -5.6667 0
M  V30 3065 C 291.339 -3.15094 -5.88449 0
M  V30 3066 H 290.609 0.040279 -0.739904 0
M  V30 3067 H 293.256 -0.601696 -1.81802 0
M  V30 3068 H 291.561 1.15554 -3.74372 0
M  V30 3069 H 293.258 0.80996 -3.92735 0
M  V30 3070 H 289.848 -0.58796 -4.24548 0
M  V30 3071 H 294.032 -1.42686 -4.75347 0
M  V30 3072 H 289.288 -2.6076 -5.53005 0
M  V30 3073 H 293.462 -3.44585 -6.05173 0
M  V30 3074 H 291.089 -4.04204 -6.43835 0
M  V30 3075 N 292.664 1.56529 -0.183458 0
M  V30 3076 C 293.574 2.22144 0.754272 0
M  V30 3077 C 294.59 1.21684 1.24374 0
M  V30 3078 O 295.766 1.54385 1.29333 0
M  V30 3079 C 292.831 2.85884 1.96141 0
M  V30 3080 C 291.892 4.01579 1.51765 0
M  V30 3081 C 291.125 4.6227 2.66725 0
M  V30 3082 O 291.348 4.21865 3.83909 0
M  V30 3083 O 290.282 5.51936 2.40104 0
M  V30 3084 H 294.108 3.02861 0.225527 0
M  V30 3085 H 291.693 1.49331 0.0453032 0
M  V30 3086 H 293.575 3.26253 2.66715 0
M  V30 3087 H 292.25 2.08154 2.47899 0
M  V30 3088 H 291.157 3.65856 0.781049 0
M  V30 3089 H 292.49 4.80938 1.04686 0
M  V30 3090 N 294.142 -0.090211 1.57342 0
M  V30 3091 C 295.553 -0.644173 1.75235 0
M  V30 3092 C 295.904 -1.78865 0.806335 0
M  V30 3093 O 295.029 -2.16395 -0.0140128 0
M  V30 3094 C 295.624 -1.17532 3.1776 0
M  V30 3095 C 294.183 -1.67531 3.37061 0
M  V30 3096 C 293.33 -0.58693 2.71017 0
M  V30 3097 H 296.281 0.135884 1.58117 0
M  V30 3098 H 296.302 -2.04455 3.20902 0
M  V30 3099 H 295.814 -0.342138 3.86589 0
M  V30 3100 H 293.915 -2.53234 2.73319 0
M  V30 3101 H 294.028 -1.76493 4.45406 0
M  V30 3102 H 292.392 -1.02756 2.33052 0
M  V30 3103 H 293.175 0.235758 3.4249 0
M  V30 3104 N 295.62 -1.53406 -0.361157 0
M  V30 3105 C 296.567 -1.80156 -1.44265 0
M  V30 3106 C 297.537 -0.646183 -1.53015 0
M  V30 3107 O 298.722 -0.888818 -1.68833 0
M  V30 3108 C 295.862 -2.00116 -2.81154 0
M  V30 3109 C 294.975 -3.27833 -2.81335 0
M  V30 3110 C 294.11 -3.37957 -4.09828 0
M  V30 3111 C 293.149 -4.59689 -4.04168 0
M  V30 3112 N 292.286 -4.66942 -5.24318 0
M  V30 3113 H 297.126 -2.72438 -1.20754 0
M  V30 3114 H 294.663 -1.34954 -0.585296 0
M  V30 3115 H 296.621 -2.09677 -3.60682 0
M  V30 3116 H 295.251 -1.11167 -3.03054 0
M  V30 3117 H 294.303 -3.27204 -1.94014 0
M  V30 3118 H 295.615 -4.17442 -2.73027 0
M  V30 3119 H 294.769 -3.46853 -4.97773 0
M  V30 3120 H 293.508 -2.46372 -4.20894 0
M  V30 3121 H 292.513 -4.50889 -3.14609 0
M  V30 3122 H 293.738 -5.5262 -3.947 0
M  V30 3123 H 291.684 -3.7826 -5.35962 0
M  V30 3124 H 291.601 -5.50462 -5.18197 0
M  V30 3125 H 292.869 -4.80127 -6.14084 0
M  V30 3126 N 297.098 0.621204 -1.44841 0
M  V30 3127 C 298.509 1.20298 -1.42777 0
M  V30 3128 C 298.86 1.95639 -0.148259 0
M  V30 3129 O 297.985 2.02955 0.750892 0
M  V30 3130 C 298.58 2.1882 -2.58657 0
M  V30 3131 C 297.139 2.72403 -2.59756 0
M  V30 3132 C 296.286 1.4757 -2.34773 0
M  V30 3133 H 299.237 0.411297 -1.53278 0
M  V30 3134 H 299.258 3.01607 -2.31977 0
M  V30 3135 H 298.77 1.63957 -3.51766 0
M  V30 3136 H 296.871 3.31242 -1.70615 0
M  V30 3137 H 296.984 3.17765 -3.58556 0
M  V30 3138 H 295.348 1.76051 -1.8406 0
M  V30 3139 H 296.131 0.945954 -3.3001 0
M  V30 3140 N 298.576 1.31904 0.862503 0
M  V30 3141 C 299.801 1.25135 1.65397 0
M  V30 3142 C 300.226 -0.179 1.87246 0
M  V30 3143 O 299.584 -1.1277 1.4196 0
M  V30 3144 C 299.632 2.00832 2.99498 0
M  V30 3145 O 298.736 1.35075 3.89652 0
M  V30 3146 H 298.077 0.431655 0.504549 0
M  V30 3147 H 300.607 1.74094 1.07483 0
M  V30 3148 H 300.617 2.10709 3.49379 0
M  V30 3149 H 299.292 3.04847 2.82916 0
M  V30 3150 H 297.869 1.33696 3.48109 0
M  V30 3151 N 300.054 -1.07777 1.14986 0
M  V30 3152 C 301.3 -1.80557 0.923422 0
M  V30 3153 C 301.633 -1.86298 -0.548337 0
M  V30 3154 O 300.908 -1.34354 -1.40639 0
M  V30 3155 C 301.191 -3.25839 1.53299 0
M  V30 3156 C 301.044 -3.28269 3.07505 0
M  V30 3157 C 302.363 -4.22991 1.21518 0
M  V30 3158 H 299.482 -0.655493 0.336894 0
M  V30 3159 H 302.124 -1.26144 1.42083 0
M  V30 3160 H 300.274 -3.72306 1.10999 0
M  V30 3161 H 301.946 -2.90079 3.58681 0
M  V30 3162 H 300.189 -2.67355 3.4162 0
M  V30 3163 H 300.86 -4.30691 3.45266 0
M  V30 3164 H 303.336 -3.84894 1.581 0
M  V30 3165 H 302.212 -5.22945 1.66793 0
M  V30 3166 H 302.473 -4.41904 0.131505 0
M  V30 3167 N 301.532 -0.945985 -1.26051 0
M  V30 3168 C 302.943 -0.638096 -1.75457 0
M  V30 3169 C 303.294 0.846672 -1.76991 0
M  V30 3170 O 302.419 1.66262 -1.38513 0
M  V30 3171 C 303.014 -1.15157 -3.18629 0
M  V30 3172 C 301.573 -0.894004 -3.65629 0
M  V30 3173 C 300.72 -1.29967 -2.44957 0
M  V30 3174 H 303.671 -1.12376 -1.1206 0
M  V30 3175 H 303.692 -0.507615 -3.77099 0
M  V30 3176 H 303.204 -2.23222 -3.1748 0
M  V30 3177 H 301.305 0.172057 -3.72203 0
M  V30 3178 H 301.418 -1.52439 -4.54202 0
M  V30 3179 H 299.782 -0.718078 -2.44368 0
M  V30 3180 H 300.565 -2.38935 -2.46505 0
M  V30 3181 N 303.011 1.40521 -0.713556 0
M  V30 3182 C 303.921 2.34522 -0.0606667 0
M  V30 3183 C 304.937 1.57193 0.74607 0
M  V30 3184 O 306.113 1.89591 0.679493 0
M  V30 3185 C 303.178 3.36081 0.851491 0
M  V30 3186 C 302.239 4.29286 0.0349339 0
M  V30 3187 C 301.472 5.25994 0.903649 0
M  V30 3188 O 301.695 5.28616 2.14292 0
M  V30 3189 O 300.629 6.00918 0.343723 0
M  V30 3190 H 304.455 2.91968 -0.835972 0
M  V30 3191 H 302.04 1.41681 -0.47402 0
M  V30 3192 H 303.922 3.98369 1.37404 0
M  V30 3193 H 302.597 2.81052 1.60598 0
M  V30 3194 H 301.504 3.70289 -0.532633 0
M  V30 3195 H 302.837 4.87462 -0.681287 0
M  V30 3196 N 304.489 0.459591 1.5075 0
M  V30 3197 C 305.719 -0.0972338 2.06371 0
M  V30 3198 C 306.127 -1.35074 1.32483 0
M  V30 3199 O 305.47 -1.79637 0.384226 0
M  V30 3200 C 305.532 -0.462759 3.56509 0
M  V30 3201 C 305.196 0.687084 4.51805 0
M  V30 3202 C 306.193 1.56578 4.95761 0
M  V30 3203 C 303.878 0.874144 4.94635 0
M  V30 3204 C 305.872 2.61604 5.81242 0
M  V30 3205 C 303.559 1.92765 5.79901 0
M  V30 3206 C 304.557 2.79697 6.23104 0
M  V30 3207 O 304.245 3.83235 7.06673 0
M  V30 3208 H 303.977 -0.00140687 0.675999 0
M  V30 3209 H 306.531 0.644011 1.95043 0
M  V30 3210 H 304.761 -1.25703 3.65699 0
M  V30 3211 H 306.45 -0.953323 3.94546 0
M  V30 3212 H 307.216 1.4329 4.6335 0
M  V30 3213 H 303.095 0.207006 4.60535 0
M  V30 3214 H 306.639 3.29489 6.14884 0
M  V30 3215 H 302.536 2.06064 6.11725 0
M  V30 3216 H 303.304 3.80084 7.24899 0
M  V30 3217 N 305.967 -1.56429 0.191757 0
M  V30 3218 C 306.914 -2.18936 -0.730454 0
M  V30 3219 C 307.884 -1.13557 -1.21219 0
M  V30 3220 O 309.069 -1.41794 -1.27668 0
M  V30 3221 C 306.209 -2.85013 -1.9458 0
M  V30 3222 C 305.322 -4.04909 -1.50574 0
M  V30 3223 C 304.457 -4.58853 -2.67634 0
M  V30 3224 C 303.496 -5.71114 -2.20217 0
M  V30 3225 N 302.633 -6.19478 -3.30442 0
M  V30 3226 H 307.473 -2.97389 -0.190664 0
M  V30 3227 H 305.01 -1.46869 -0.0823694 0
M  V30 3228 H 306.968 -3.21492 -2.65893 0
M  V30 3229 H 305.598 -2.09129 -2.45896 0
M  V30 3230 H 304.65 -3.74115 -0.688605 0
M  V30 3231 H 305.962 -4.86113 -1.11784 0
M  V30 3232 H 305.116 -4.97619 -3.47074 0
M  V30 3233 H 303.855 -3.76749 -3.09696 0
M  V30 3234 H 302.86 -5.31879 -1.3923 0
M  V30 3235 H 304.085 -6.55033 -1.79189 0
M  V30 3236 H 302.031 -5.40297 -3.72041 0
M  V30 3237 H 301.948 -6.95725 -2.9581 0
M  V30 3238 H 303.216 -6.62898 -4.10106 0
M  V30 3239 N 307.445 0.0818655 -1.57387 0
M  V30 3240 C 308.691 0.784074 -1.8703 0
M  V30 3241 C 309.024 1.77729 -0.782689 0
M  V30 3242 O 308.299 1.93384 0.208051 0
M  V30 3243 C 308.582 1.50105 -3.27323 0
M  V30 3244 C 308.435 0.524925 -4.46727 0
M  V30 3245 C 309.754 2.44843 -3.65705 0
M  V30 3246 H 306.873 0.283582 -0.680257 0
M  V30 3247 H 309.515 0.0474352 -1.89941 0
M  V30 3248 H 307.665 2.12897 -3.24972 0
M  V30 3249 H 309.337 -0.0970111 -4.61198 0
M  V30 3250 H 307.58 -0.160606 -4.33503 0
M  V30 3251 H 308.251 1.064 -5.41648 0
M  V30 3252 H 310.727 1.92135 -3.69085 0
M  V30 3253 H 309.603 2.92018 -4.64776 0
M  V30 3254 H 309.864 3.29197 -2.95096 0
M  V30 3255 N 308.923 1.53595 0.353017 0
M  V30 3256 C 309.886 1.80232 1.41594 0
M  V30 3257 C 310.886 0.673081 1.46035 0
M  V30 3258 O 312.076 0.941335 1.46576 0
M  V30 3259 C 309.208 1.93578 2.80607 0
M  V30 3260 H 310.401 2.75174 1.19244 0
M  V30 3261 H 307.954 1.44864 0.586872 0
M  V30 3262 H 308.689 1.00746 3.08254 0
M  V30 3263 H 308.474 2.75724 2.78781 0
M  V30 3264 H 309.964 2.15735 3.57558 0
M  V30 3265 N 310.401 -0.613514 1.45168 0
M  V30 3266 C 311.626 -1.40437 1.52618 0
M  V30 3267 C 312.051 -1.87438 0.157707 0
M  V30 3268 O 311.409 -1.59791 -0.856537 0
M  V30 3269 C 311.457 -2.58894 2.51011 0
M  V30 3270 O 310.561 -3.59326 2.02382 0
M  V30 3271 H 309.902 -0.419506 0.514695 0
M  V30 3272 H 312.432 -0.747215 1.90467 0
M  V30 3273 H 312.442 -3.06214 2.69624 0
M  V30 3274 H 311.117 -2.24032 3.50403 0
M  V30 3275 H 309.694 -3.18695 1.93618 0
M  V30 3276 N 311.879 -1.3236 -0.855495 0
M  V30 3277 C 313.125 -1.23054 -1.612 0
M  V30 3278 C 313.458 0.207404 -1.93089 0
M  V30 3279 O 312.733 1.14432 -1.57275 0
M  V30 3280 C 313.016 -2.08937 -2.93287 0
M  V30 3281 C 312.869 -3.61105 -2.68185 0
M  V30 3282 C 314.188 -1.94986 -3.94549 0
M  V30 3283 H 311.307 -0.448364 -0.584926 0
M  V30 3284 H 313.949 -1.62297 -0.987917 0
M  V30 3285 H 312.099 -1.75599 -3.46551 0
M  V30 3286 H 313.771 -4.04652 -2.21483 0
M  V30 3287 H 312.014 -3.83813 -2.02164 0
M  V30 3288 H 312.685 -4.16522 -3.62234 0
M  V30 3289 H 315.161 -2.24189 -3.5054 0
M  V30 3290 H 314.037 -2.57356 -4.84829 0
M  V30 3291 H 314.298 -0.917263 -4.3248 0
M  V30 3292 N 313.357 1.07166 -1.15556 0
M  V30 3293 C 314.605 1.79443 -0.929764 0
M  V30 3294 C 314.926 1.87246 0.544414 0
M  V30 3295 O 314.196 1.37473 1.39564 0
M  V30 3296 H 312.776 0.664625 -0.341003 0
M  V30 3297 H 315.438 1.29499 -1.45657 0
M  V30 3298 H 314.534 2.81832 -1.34079 0
M  V30 3299 N 314.835 0.952656 1.25548 0
M  V30 3300 C 316.083 0.605176 1.92826 0
M  V30 3301 C 316.404 -0.860261 1.74999 0
M  V30 3302 O 315.674 -1.6125 1.11244 0
M  V30 3303 H 314.254 0.220832 0.713612 0
M  V30 3304 H 316.916 1.21047 1.52754 0
M  V30 3305 H 316.012 0.832798 3.00784 0
M  V30 3306 N 316.313 -1.40141 0.720998 0
M  V30 3307 C 317.538 -2.05618 0.271258 0
M  V30 3308 C 317.963 -1.53978 -1.08039 0
M  V30 3309 O 317.321 -0.677463 -1.68167 0
M  V30 3310 C 317.369 -3.59609 0.267197 0
M  V30 3311 O 316.473 -4.05526 -0.749814 0
M  V30 3312 H 315.814 -0.651904 0.126162 0
M  V30 3313 H 318.344 -1.79439 0.982997 0
M  V30 3314 H 318.354 -4.0786 0.106744 0
M  V30 3315 H 317.029 -3.96559 1.25354 0
M  V30 3316 H 315.606 -3.68722 -0.556644 0
M  V30 3317 N 317.792 -0.46758 -1.50504 0
M  V30 3318 C 319.208 -0.121533 -1.59137 0
M  V30 3319 C 319.408 1.3717 -1.47603 0
M  V30 3320 O 318.464 2.14464 -1.33272 0
M  V30 3321 C 319.777 -0.6686 -2.93173 0
M  V30 3322 C 321.325 -0.631716 -3.06559 0
M  V30 3323 C 321.8 -1.15627 -4.43164 0
M  V30 3324 N 323.291 -1.11553 -4.49567 0
M  V30 3325 C 324.026 -1.49195 -5.5365 0
M  V30 3326 N 323.522 -1.94269 -6.65005 0
M  V30 3327 N 325.315 -1.4082 -5.44175 0
M  V30 3328 H 317.466 -1.4388 -1.56245 0
M  V30 3329 H 319.729 -0.594784 -0.738198 0
M  V30 3330 H 319.435 -1.71453 -3.07078 0
M  V30 3331 H 319.309 -0.11021 -3.77039 0
M  V30 3332 H 321.696 0.405297 -2.92304 0
M  V30 3333 H 321.777 -1.22687 -2.24458 0
M  V30 3334 H 321.421 -2.1919 -4.58168 0
M  V30 3335 H 321.351 -0.537365 -5.23851 0
M  V30 3336 H 323.842 -0.784895 -3.69659 0
M  V30 3337 H 324.155 -2.21148 -7.40482 0
M  V30 3338 H 322.5 -1.98219 -6.66134 0
M  V30 3339 H 325.691 -1.0545 -4.56068 0
M  V30 3340 H 325.864 -1.70481 -6.25172 0
M  V30 3341 N 319.27 1.56325 -0.20005 0
M  V30 3342 C 320.51 1.99619 0.439519 0
M  V30 3343 C 320.874 1.08423 1.58456 0
M  V30 3344 O 322.075 1.40973 2.28867 0
M  V30 3345 C 320.346 3.46314 0.883258 0
M  V30 3346 S 321.905 4.11634 1.51997 0
M  V30 3347 H 318.723 0.697007 0.140363 0
M  V30 3348 H 321.325 1.93118 -0.304282 0
M  V30 3349 H 320.029 4.10381 0.0398967 0
M  V30 3350 H 319.56 3.56643 1.6604 0
M  V30 3351 H 321.575 4.09049 2.8088 0
M  V30 3352 N 320.748 -0.0735177 1.57428 0
M  V30 3353 C 321.678 -1.0879 2.06608 0
M  V30 3354 C 322.659 -1.40473 0.959237 0
M  V30 3355 O 323.844 -1.5013 1.23185 0
M  V30 3356 C 320.974 -2.40183 2.50857 0
M  V30 3357 C 319.928 -2.22858 3.65402 0
M  V30 3358 C 319.254 -3.59619 3.957 0
M  V30 3359 C 320.554 -1.65123 4.95511 0
M  V30 3360 H 322.248 -0.678673 2.91607 0
M  V30 3361 H 319.794 -0.325013 1.40284 0
M  V30 3362 H 321.747 -3.11437 2.83874 0
M  V30 3363 H 320.471 -2.83083 1.62885 0
M  V30 3364 H 319.13 -1.54045 3.32664 0
M  V30 3365 H 318.778 -4.00086 3.04861 0
M  V30 3366 H 318.478 -3.48866 4.72828 0
M  V30 3367 H 320.002 -4.32306 4.31212 0
M  V30 3368 H 321.416 -2.26241 5.26771 0
M  V30 3369 H 319.813 -1.65071 5.7695 0
M  V30 3370 H 320.883 -0.612559 4.81015 0
M  V30 3371 N 322.226 -1.5378 -0.344866 0
M  V30 3372 C 323.156 -1.84662 -1.42906 0
M  V30 3373 C 324.137 -0.701648 -1.54955 0
M  V30 3374 O 325.322 -0.953438 -1.69184 0
M  V30 3375 C 322.452 -2.05503 -2.79974 0
M  V30 3376 C 321.406 -3.21318 -2.82734 0
M  V30 3377 C 320.732 -3.2749 -4.22675 0
M  V30 3378 C 322.032 -4.59456 -2.48389 0
M  V30 3379 H 323.726 -2.75461 -1.17311 0
M  V30 3380 H 321.272 -1.32542 -0.562896 0
M  V30 3381 H 323.225 -2.25691 -3.55867 0
M  V30 3382 H 321.949 -1.11434 -3.07002 0
M  V30 3383 H 320.608 -3.00984 -2.09294 0
M  V30 3384 H 320.256 -2.31019 -4.4681 0
M  V30 3385 H 319.956 -4.05316 -4.25433 0
M  V30 3386 H 321.48 -3.49887 -5.00412 0
M  V30 3387 H 322.894 -4.79667 -3.13995 0
M  V30 3388 H 321.291 -5.39675 -2.62432 0
M  V30 3389 H 322.361 -4.63155 -1.4358 0
M  V30 3390 N 323.704 0.605807 -1.45491 0
M  V30 3391 C 324.634 1.72709 -1.57143 0
M  V30 3392 C 325.615 1.6476 -0.422884 0
M  V30 3393 O 326.8 1.83132 -0.646247 0
M  V30 3394 C 323.93 3.11316 -1.53948 0
M  V30 3395 C 322.884 3.34077 -2.67537 0
M  V30 3396 C 322.21 4.72975 -2.49397 0
M  V30 3397 C 323.51 3.24158 -4.09535 0
M  V30 3398 H 325.204 1.63214 -2.51001 0
M  V30 3399 H 322.75 0.78379 -1.208 0
M  V30 3400 H 324.703 3.89557 -1.60696 0
M  V30 3401 H 323.427 3.21655 -0.566205 0
M  V30 3402 H 322.086 2.58227 -2.6022 0
M  V30 3403 H 321.734 4.8005 -1.50205 0
M  V30 3404 H 321.434 4.8916 -3.25571 0
M  V30 3405 H 322.958 5.53414 -2.58002 0
M  V30 3406 H 324.372 3.92271 -4.18086 0
M  V30 3407 H 322.769 3.51872 -4.86113 0
M  V30 3408 H 323.839 2.2157 -4.31317 0
M  V30 3409 N 325.182 1.32811 0.848464 0
M  V30 3410 C 326.132 1.18842 1.94578 0
M  V30 3411 C 327.116 0.0937517 1.60627 0
M  V30 3412 O 328.308 0.320887 1.74067 0
M  V30 3413 C 325.437 0.91999 3.30743 0
M  V30 3414 C 324.523 2.05665 3.70894 0
M  V30 3415 N 324.914 3.30579 3.8282 0
M  V30 3416 C 323.212 1.9612 4.00566 0
M  V30 3417 C 323.913 4.05067 4.17487 0
M  V30 3418 N 322.889 3.33419 4.2934 0
M  V30 3419 H 326.691 2.13536 2.0194 0
M  V30 3420 H 324.205 1.2468 1.0406 0
M  V30 3421 H 326.202 0.800859 4.09136 0
M  V30 3422 H 324.862 -0.0185076 3.24695 0
M  V30 3423 H 325.873 3.65441 3.66978 0
M  V30 3424 H 322.55 1.09871 4.02784 0
M  V30 3425 H 323.94 5.12815 4.34131 0
M  V30 3426 N 326.66 -1.06551 1.16123 0
M  V30 3427 C 327.89 -1.8274 0.963838 0
M  V30 3428 C 328.298 -1.82712 -0.491228 0
M  V30 3429 O 327.641 -1.24294 -1.35265 0
M  V30 3430 C 327.703 -3.3065 1.41106 0
M  V30 3431 C 327.367 -3.54384 2.88549 0
M  V30 3432 C 328.364 -3.4765 3.86569 0
M  V30 3433 C 326.049 -3.81789 3.26408 0
M  V30 3434 C 328.043 -3.67982 5.2045 0
M  V30 3435 C 325.73 -4.01772 4.60459 0
M  V30 3436 C 326.728 -3.94866 5.57288 0
M  V30 3437 O 326.416 -4.14306 6.88916 0
M  V30 3438 H 326.148 -0.583136 0.341948 0
M  V30 3439 H 328.702 -1.35351 1.54497 0
M  V30 3440 H 326.932 -3.78887 0.773394 0
M  V30 3441 H 328.621 -3.88324 1.1815 0
M  V30 3442 H 329.387 -3.2647 3.58667 0
M  V30 3443 H 325.266 -3.86276 2.51619 0
M  V30 3444 H 328.81 -3.62507 5.96015 0
M  V30 3445 H 324.707 -4.2244 4.88072 0
M  V30 3446 H 325.475 -4.31609 6.95454 0
M  V30 3447 N 328.138 -0.959301 -1.25041 0
M  V30 3448 C 329.363 -0.633507 -1.97488 0
M  V30 3449 C 329.788 0.788555 -1.70773 0
M  V30 3450 O 329.146 1.53394 -0.966431 0
M  V30 3451 C 329.194 -0.904057 -3.49083 0
M  V30 3452 O 328.298 0.0147939 -4.12397 0
M  V30 3453 H 327.639 -0.240368 -0.618966 0
M  V30 3454 H 330.169 -1.28717 -1.59038 0
M  V30 3455 H 330.179 -0.832203 -3.99423 0
M  V30 3456 H 328.854 -1.94048 -3.67856 0
M  V30 3457 H 327.431 -0.109664 -3.72739 0
M  V30 3458 N 329.616 1.39756 -0.72842 0
M  V30 3459 C 330.862 2.00942 -0.273892 0
M  V30 3460 C 331.195 1.57656 1.13394 0
M  V30 3461 O 330.47 0.802434 1.77176 0
M  V30 3462 C 330.753 3.58211 -0.368346 0
M  V30 3463 C 330.606 4.11534 -1.81548 0
M  V30 3464 C 331.925 4.39372 0.253054 0
M  V30 3465 H 329.044 0.730047 -0.100996 0
M  V30 3466 H 331.686 1.66056 -0.923337 0
M  V30 3467 H 329.836 3.88061 0.184588 0
M  V30 3468 H 331.508 3.92431 -2.42478 0
M  V30 3469 H 329.751 3.65341 -2.33898 0
M  V30 3470 H 330.422 5.20682 -1.83288 0
M  V30 3471 H 332.898 4.15527 -0.218224 0
M  V30 3472 H 331.774 5.48677 0.156585 0
M  V30 3473 H 332.035 4.21358 1.33826 0
M  V30 3474 N 331.094 0.475555 1.50254 0
M  V30 3475 C 332.319 -0.0777042 2.07254 0
M  V30 3476 C 332.744 -1.3235 1.3366 0
M  V30 3477 O 332.102 -1.77152 0.385597 0
M  V30 3478 C 332.15 -0.340169 3.58992 0
M  V30 3479 O 331.254 -1.41982 3.87188 0
M  V30 3480 H 330.595 0.0149556 0.663832 0
M  V30 3481 H 333.125 0.667878 1.93392 0
M  V30 3482 H 333.135 -0.579332 4.03866 0
M  V30 3483 H 331.81 0.570167 4.11973 0
M  V30 3484 H 330.387 -1.16762 3.54148 0
M  V30 3485 N 332.573 -1.56217 0.208337 0
M  V30 3486 C 333.52 -2.19699 -0.707192 0
M  V30 3487 C 334.49 -1.14836 -1.20008 0
M  V30 3488 O 335.675 -1.4314 -1.26157 0
M  V30 3489 C 332.815 -2.87061 -1.91546 0
M  V30 3490 C 331.928 -4.06483 -1.46271 0
M  V30 3491 C 331.063 -4.61665 -2.62752 0
M  V30 3492 C 330.102 -5.73417 -2.14147 0
M  V30 3493 N 329.239 -6.22948 -3.23853 0
M  V30 3494 H 334.079 -2.97575 -0.159111 0
M  V30 3495 H 331.616 -1.46948 -0.0667874 0
M  V30 3496 H 333.574 -3.24294 -2.62468 0
M  V30 3497 H 332.204 -2.11725 -2.43664 0
M  V30 3498 H 331.256 -3.74825 -0.648886 0
M  V30 3499 H 332.568 -4.87271 -1.06622 0
M  V30 3500 H 331.722 -5.01272 -3.41776 0
M  V30 3501 H 330.461 -3.80013 -3.05682 0
M  V30 3502 H 329.466 -5.33326 -1.33581 0
M  V30 3503 H 330.691 -6.56897 -1.72232 0
M  V30 3504 H 328.637 -5.44213 -3.6629 0
M  V30 3505 H 328.554 -6.98823 -2.88414 0
M  V30 3506 H 329.822 -6.6721 -4.03052 0
M  V30 3507 N 334.051 0.0651679 -1.57465 0
M  V30 3508 C 335.014 1.06117 -2.03155 0
M  V30 3509 C 336.014 1.31204 -0.929632 0
M  V30 3510 O 337.204 1.26813 -1.19432 0
M  V30 3511 C 334.336 2.4032 -2.41783 0
M  V30 3512 H 335.529 0.667231 -2.92383 0
M  V30 3513 H 333.082 0.311075 -1.53173 0
M  V30 3514 H 333.817 2.84532 -1.55601 0
M  V30 3515 H 333.602 2.23451 -3.22199 0
M  V30 3516 H 335.092 3.11898 -2.77685 0
M  V30 3517 N 335.529 1.53961 0.336706 0
M  V30 3518 C 336.778 1.70751 1.07363 0
M  V30 3519 C 337.091 0.481061 1.89592 0
M  V30 3520 O 338.297 0.530046 2.66276 0
M  V30 3521 C 336.753 3.01965 1.95818 0
M  V30 3522 C 336.361 4.31971 1.18764 0
M  V30 3523 C 338.105 3.28121 2.69327 0
M  V30 3524 C 336.012 5.54255 2.06289 0
M  V30 3525 H 334.942 0.636292 0.404535 0
M  V30 3526 H 337.593 1.80459 0.332681 0
M  V30 3527 H 335.975 2.86132 2.7376 0
M  V30 3528 H 337.149 4.5853 0.456849 0
M  V30 3529 H 335.464 4.12481 0.569946 0
M  V30 3530 H 338.061 4.16673 3.35094 0
M  V30 3531 H 338.404 2.45426 3.36261 0
M  V30 3532 H 338.937 3.44762 1.98454 0
M  V30 3533 H 335.676 6.39513 1.43885 0
M  V30 3534 H 335.196 5.31935 2.77138 0
M  V30 3535 H 336.875 5.90159 2.65182 0
M  V30 3536 N 337.007 -0.598083 1.45811 0
M  V30 3537 C 338.253 -1.35679 1.51535 0
M  V30 3538 C 338.608 -1.91745 0.15864 0
M  V30 3539 O 337.901 -1.72654 -0.830724 0
M  V30 3540 C 338.095 -2.51669 2.53766 0
M  V30 3541 C 337.924 -2.06963 3.99245 0
M  V30 3542 C 336.694 -1.92693 4.67116 0
M  V30 3543 C 338.892 -1.63855 4.875 0
M  V30 3544 N 336.874 -1.41897 5.97276 0
M  V30 3545 C 338.245 -1.24541 6.07363 0
M  V30 3546 C 340.3 -1.51533 4.74281 0
M  V30 3547 C 339.003 -0.741354 7.15469 0
M  V30 3548 C 341.029 -1.0253 5.82444 0
M  V30 3549 C 340.391 -0.641869 7.01469 0
M  V30 3550 H 336.49 -0.490042 0.609412 0
M  V30 3551 H 339.074 -0.682687 1.82339 0
M  V30 3552 H 337.245 -3.16663 2.24898 0
M  V30 3553 H 338.977 -3.18578 2.4958 0
M  V30 3554 H 335.732 -2.1417 4.22408 0
M  V30 3555 H 336.156 -1.18704 6.66512 0
M  V30 3556 H 340.798 -1.798 3.82664 0
M  V30 3557 H 338.516 -0.446243 8.06867 0
M  V30 3558 H 342.102 -0.934088 5.74253 0
M  V30 3559 H 340.982 -0.268531 7.8374 0
M  V30 3560 N 338.485 -1.33259 -0.841409 0
M  V30 3561 C 339.762 -1.15174 -1.58096 0
M  V30 3562 C 340.142 0.282858 -2.09196 0
M  V30 3563 O 339.49 1.28151 -1.89181 0
M  V30 3564 C 339.7 -2.1907 -2.71679 0
M  V30 3565 C 341.048 -2.53093 -3.40924 0
M  V30 3566 O 342.072 -2.17717 -2.81918 0
M  V30 3567 O 340.931 -3.1379 -4.47435 0
M  V30 3568 H 338.025 -0.445303 -0.696875 0
M  V30 3569 H 340.571 -1.44833 -0.884385 0
M  V30 3570 H 339.343 -3.15443 -2.31541 0
M  V30 3571 H 338.966 -1.90481 -3.49002 0
M  V30 3572 N 339.963 1.05934 -1.16686 0
M  V30 3573 C 341.211 1.78447 -0.948744 0
M  V30 3574 C 341.532 1.87813 0.524523 0
M  V30 3575 O 340.802 1.38945 1.38098 0
M  V30 3576 H 339.382 0.660971 -0.348033 0
M  V30 3577 H 342.044 1.27947 -1.47022 0
M  V30 3578 H 341.14 2.80394 -1.37061 0
M  V30 3579 N 341.441 0.965919 1.2453 0
M  V30 3580 C 342.371 0.513476 2.27784 0
M  V30 3581 C 343.352 -0.445974 1.6415 0
M  V30 3582 O 344.537 -0.342485 1.91156 0
M  V30 3583 C 341.667 -0.198839 3.4673 0
M  V30 3584 C 340.621 0.676456 4.2262 0
M  V30 3585 C 339.947 -0.167248 5.34438 0
M  V30 3586 C 341.247 1.96017 4.84123 0
M  V30 3587 H 342.941 1.3765 2.65881 0
M  V30 3588 H 340.487 0.663321 1.27813 0
M  V30 3589 H 342.44 -0.526567 4.18097 0
M  V30 3590 H 341.164 -1.0962 3.07654 0
M  V30 3591 H 339.823 0.98743 3.53052 0
M  V30 3592 H 339.471 -1.0647 4.91603 0
M  V30 3593 H 339.171 0.415181 5.86131 0
M  V30 3594 H 340.695 -0.489688 6.08633 0
M  V30 3595 H 342.109 1.69814 5.47573 0
M  V30 3596 H 340.506 2.48918 5.4604 0
M  V30 3597 H 341.576 2.65622 4.05676 0
M  V30 3598 N 342.919 -1.39368 0.735821 0
M  V30 3599 C 344.168 -1.99733 0.281004 0
M  V30 3600 C 344.481 -1.59055 -1.13846 0
M  V30 3601 O 345.687 -2.12262 -1.69284 0
M  V30 3602 C 344.143 -3.57057 0.451462 0
M  V30 3603 C 343.751 -4.06697 1.87886 0
M  V30 3604 C 345.495 -4.2446 0.0584616 0
M  V30 3605 C 343.402 -5.56598 1.99883 0
M  V30 3606 H 342.332 -0.747163 0.101311 0
M  V30 3607 H 344.983 -1.59357 0.909819 0
M  V30 3608 H 343.365 -3.95234 -0.246263 0
M  V30 3609 H 344.539 -3.79853 2.60861 0
M  V30 3610 H 342.854 -3.5196 2.22515 0
M  V30 3611 H 345.451 -5.34549 0.127099 0
M  V30 3612 H 345.794 -4.04444 -0.986433 0
M  V30 3613 H 346.327 -3.9146 0.707374 0
M  V30 3614 H 343.066 -5.81494 3.02564 0
M  V30 3615 H 342.586 -5.85242 1.31346 0
M  V30 3616 H 344.265 -6.22022 1.78039 0
M  V30 3617 N 344.397 -0.483516 -1.5 0
M  V30 3618 C 345.327 0.293829 -2.31644 0
M  V30 3619 C 346.308 0.978864 -1.39112 0
M  V30 3620 O 347.493 0.973644 -1.68029 0
M  V30 3621 C 344.623 1.36897 -3.19181 0
M  V30 3622 C 343.577 0.804833 -4.20365 0
M  V30 3623 C 342.903 1.9792 -4.96721 0
M  V30 3624 C 344.203 -0.192313 -5.21946 0
M  V30 3625 H 345.897 -0.387616 -2.9688 0
M  V30 3626 H 343.443 -0.187856 -1.42769 0
M  V30 3627 H 345.396 1.92037 -3.751 0
M  V30 3628 H 344.12 2.07936 -2.51853 0
M  V30 3629 H 342.779 0.275319 -3.65565 0
M  V30 3630 H 342.427 2.67686 -4.25856 0
M  V30 3631 H 342.127 1.60789 -5.65173 0
M  V30 3632 H 343.651 2.53526 -5.55479 0
M  V30 3633 H 345.065 0.270333 -5.72662 0
M  V30 3634 H 343.462 -0.478543 -5.98189 0
M  V30 3635 H 344.532 -1.11409 -4.71928 0
M  V30 3636 N 345.875 1.56104 -0.216619 0
M  V30 3637 C 346.805 2.23063 0.690296 0
M  V30 3638 C 347.786 1.20072 1.20485 0
M  V30 3639 O 348.971 1.48643 1.24976 0
M  V30 3640 C 346.101 2.90672 1.90072 0
M  V30 3641 C 345.055 4.00092 1.5202 0
M  V30 3642 C 344.381 4.54972 2.80899 0
M  V30 3643 C 345.681 5.17398 0.71391 0
M  V30 3644 H 347.375 2.99109 0.132038 0
M  V30 3645 H 344.921 1.43866 0.0620664 0
M  V30 3646 H 346.874 3.36204 2.54057 0
M  V30 3647 H 345.598 2.12066 2.48386 0
M  V30 3648 H 344.257 3.55283 0.903839 0
M  V30 3649 H 343.905 3.73102 3.37348 0
M  V30 3650 H 343.605 5.28817 2.56176 0
M  V30 3651 H 345.129 5.0322 3.45836 0
M  V30 3652 H 346.543 5.59342 1.25735 0
M  V30 3653 H 344.94 5.97444 0.563951 0
M  V30 3654 H 346.01 4.84088 -0.280527 0
M  V30 3655 N 347.353 -0.0568162 1.57498 0
M  V30 3656 C 348.316 -1.05038 2.03715 0
M  V30 3657 C 349.316 -1.30709 0.936577 0
M  V30 3658 O 350.506 -1.26178 1.20103 0
M  V30 3659 C 347.638 -2.39034 2.43055 0
M  V30 3660 H 348.831 -0.651715 2.92733 0
M  V30 3661 H 346.384 -0.302947 1.53336 0
M  V30 3662 H 347.119 -2.83703 1.57108 0
M  V30 3663 H 346.904 -2.21739 3.2338 0
M  V30 3664 H 348.394 -3.10421 2.79336 0
M  V30 3665 N 348.832 -1.54138 -0.328536 0
M  V30 3666 C 350.06 -1.76062 -1.08673 0
M  V30 3667 C 350.475 -0.506852 -1.81869 0
M  V30 3668 O 349.832 0.522223 -1.74869 0
M  V30 3669 C 349.883 -2.95054 -2.08866 0
M  V30 3670 O 349.604 -4.15583 -1.38644 0
M  V30 3671 C 351.105 -3.2915 -2.96943 0
M  V30 3672 H 348.325 -0.587889 -0.323461 0
M  V30 3673 H 350.869 -2.0101 -0.376175 0
M  V30 3674 H 349.024 -2.72394 -2.75464 0
M  V30 3675 H 349.438 -4.82481 -2.05699 0
M  V30 3676 H 350.912 -4.15723 -3.63151 0
M  V30 3677 H 351.389 -2.461 -3.63774 0
M  V30 3678 H 351.995 -3.53871 -2.35914 0
M  V30 3679 N 350.31 0.590341 -1.46126 0
M  V30 3680 C 351.557 1.34882 -1.5104 0
M  V30 3681 C 351.885 1.93849 -0.159021 0
M  V30 3682 O 351.14 1.76544 0.844436 0
M  V30 3683 C 351.439 2.5032 -2.55097 0
M  V30 3684 C 351.105 2.09394 -3.99331 0
M  V30 3685 C 349.767 1.97947 -4.38601 0
M  V30 3686 C 352.119 1.77712 -4.89967 0
M  V30 3687 C 349.447 1.53065 -5.66381 0
M  V30 3688 C 351.799 1.34312 -6.18177 0
M  V30 3689 C 350.463 1.21436 -6.56361 0
M  V30 3690 H 349.733 0.493568 -0.552695 0
M  V30 3691 H 352.38 0.665539 -1.79563 0
M  V30 3692 H 350.685 3.24062 -2.20207 0
M  V30 3693 H 352.382 3.08541 -2.56132 0
M  V30 3694 H 348.972 2.19235 -3.68285 0
M  V30 3695 H 353.156 1.85445 -4.60352 0
M  V30 3696 H 348.412 1.41733 -5.94745 0
M  V30 3697 H 352.586 1.08849 -6.87841 0
M  V30 3698 H 350.213 0.864345 -7.5527 0
M  V30 3699 N 351.788 1.33704 0.83433 0
M  V30 3700 C 353.018 1.28281 1.6195 0
M  V30 3701 C 353.426 -0.147603 1.88623 0
M  V30 3702 O 352.769 -1.1016 1.47005 0
M  V30 3703 C 352.831 1.99386 2.99141 0
M  V30 3704 C 352.495 3.48681 2.95416 0
M  V30 3705 C 353.492 4.438 2.70809 0
M  V30 3706 C 351.177 3.90925 3.15409 0
M  V30 3707 C 353.171 5.79138 2.66229 0
M  V30 3708 C 350.858 5.26366 3.10454 0
M  V30 3709 C 351.856 6.20284 2.85895 0
M  V30 3710 O 351.544 7.53245 2.80852 0
M  V30 3711 H 351.276 0.44315 0.510484 0
M  V30 3712 H 353.83 1.76711 1.04702 0
M  V30 3713 H 352.06 1.45554 3.58261 0
M  V30 3714 H 353.749 1.87403 3.60049 0
M  V30 3715 H 354.515 4.12485 2.5511 0
M  V30 3716 H 350.394 3.18229 3.33543 0
M  V30 3717 H 353.938 6.52416 2.4698 0
M  V30 3718 H 349.835 5.57304 3.25703 0
M  V30 3719 H 350.603 7.62846 2.96661 0
M  V30 3720 N 353.266 -1.05314 1.17247 0
M  V30 3721 C 354.512 -1.78557 0.961513 0
M  V30 3722 C 354.845 -1.87419 -0.508697 0
M  V30 3723 O 354.12 -1.37307 -1.37757 0
M  V30 3724 C 354.403 -3.22514 1.60176 0
M  V30 3725 C 354.256 -3.21673 3.14399 0
M  V30 3726 C 355.575 -4.20318 1.30463 0
M  V30 3727 H 352.694 -0.6482 0.350723 0
M  V30 3728 H 355.336 -1.23102 1.44727 0
M  V30 3729 H 353.486 -3.69867 1.18871 0
M  V30 3730 H 355.158 -2.82405 3.64753 0
M  V30 3731 H 353.401 -2.60048 3.47214 0
M  V30 3732 H 354.072 -4.23271 3.54324 0
M  V30 3733 H 356.548 -3.81454 1.66229 0
M  V30 3734 H 355.424 -5.19289 1.77848 0
M  V30 3735 H 355.685 -4.41526 0.22521 0
M  V30 3736 N 354.744 -0.972509 -1.24016 0
M  V30 3737 C 355.707 -0.511403 -2.23422 0
M  V30 3738 C 356.707 0.394679 -1.55881 0
M  V30 3739 O 357.897 0.189469 -1.73167 0
M  V30 3740 C 355.029 0.258769 -3.39916 0
M  V30 3741 H 356.222 -1.39024 -2.6573 0
M  V30 3742 H 353.775 -0.757585 -1.36713 0
M  V30 3743 H 354.51 1.1545 -3.03054 0
M  V30 3744 H 354.295 -0.391522 -3.9014 0
M  V30 3745 H 355.785 0.570244 -4.13688 0
M  V30 3746 N 356.222 1.38976 -0.743202 0
M  V30 3747 C 357.468 2.0064 -0.295189 0
M  V30 3748 C 357.801 1.5885 1.11716 0
M  V30 3749 O 357.076 0.821181 1.76315 0
M  V30 3750 C 357.359 3.578 -0.406318 0
M  V30 3751 C 357.212 4.09586 -1.85903 0
M  V30 3752 C 358.531 4.39616 0.206439 0
M  V30 3753 H 355.65 0.728935 -0.108733 0
M  V30 3754 H 358.292 1.65067 -0.940897 0
M  V30 3755 H 356.442 3.88235 0.143419 0
M  V30 3756 H 358.114 3.89837 -2.46627 0
M  V30 3757 H 356.357 3.6284 -2.3776 0
M  V30 3758 H 357.028 5.18708 -1.888 0
M  V30 3759 H 359.504 4.15273 -0.262283 0
M  V30 3760 H 358.38 5.48812 0.0983819 0
M  V30 3761 H 358.641 4.22754 1.2935 0
M  V30 3762 N 357.7 0.491464 1.49741 0
M  V30 3763 C 358.928 -0.0535151 2.06831 0
M  V30 3764 C 359.343 -1.31683 1.35296 0
M  V30 3765 O 358.7 -1.77402 0.42836 0
M  V30 3766 C 358.751 -0.320835 3.60073 0
M  V30 3767 O 358.472 0.892394 4.28915 0
M  V30 3768 C 359.973 -0.910519 4.33848 0
M  V30 3769 H 357.193 0.0161909 0.670805 0
M  V30 3770 H 359.737 0.68609 1.92647 0
M  V30 3771 H 357.892 -1.0104 3.73991 0
M  V30 3772 H 358.306 0.649401 5.20464 0
M  V30 3773 H 359.78 -1.04721 5.41976 0
M  V30 3774 H 360.257 -1.90589 3.95692 0
M  V30 3775 H 360.863 -0.258712 4.24512 0
M  V30 3776 N 359.178 -1.55987 0.224894 0
M  V30 3777 C 360.424 -1.98684 -0.406502 0
M  V30 3778 C 360.757 -1.11248 -1.59177 0
M  V30 3779 O 360.032 -0.170909 -1.93748 0
M  V30 3780 C 360.315 -3.50218 -0.837808 0
M  V30 3781 C 360.168 -4.48426 0.351332 0
M  V30 3782 C 361.487 -4.06243 -1.69278 0
M  V30 3783 H 358.606 -0.722337 -0.146283 0
M  V30 3784 H 361.248 -1.87255 0.321799 0
M  V30 3785 H 359.398 -3.60089 -1.45837 0
M  V30 3786 H 361.07 -4.50562 0.989526 0
M  V30 3787 H 359.313 -4.22159 0.998207 0
M  V30 3788 H 359.984 -5.52 0.00655905 0
M  V30 3789 H 362.46 -3.99337 -1.16914 0
M  V30 3790 H 361.336 -5.12581 -1.96346 0
M  V30 3791 H 361.597 -3.53332 -2.65723 0
M  V30 3792 N 360.656 0.0484629 -1.57525 0
M  V30 3793 C 362.067 0.597486 -1.76881 0
M  V30 3794 C 362.418 1.76664 -0.853475 0
M  V30 3795 O 361.543 2.16357 -0.0433656 0
M  V30 3796 C 362.138 1.09066 -3.20765 0
M  V30 3797 C 360.697 1.58535 -3.41385 0
M  V30 3798 C 359.844 0.514868 -2.72478 0
M  V30 3799 H 362.795 -0.177758 -1.57701 0
M  V30 3800 H 362.816 1.95875 -3.2621 0
M  V30 3801 H 362.328 0.239521 -3.8736 0
M  V30 3802 H 360.429 2.45898 -2.79937 0
M  V30 3803 H 360.542 1.64622 -4.49929 0
M  V30 3804 H 358.906 0.965407 -2.35695 0
M  V30 3805 H 359.689 -0.32648 -3.41744 0
M  V30 3806 N 362.134 1.5431 0.320358 0
M  V30 3807 C 363.364 1.7638 1.07582 0
M  V30 3808 C 363.772 0.513944 1.82086 0
M  V30 3809 O 363.115 -0.525123 1.76035 0
M  V30 3810 C 363.177 2.9055 2.1171 0
M  V30 3811 C 362.841 4.2934 1.56575 0
M  V30 3812 C 363.838 5.10077 1.00586 0
M  V30 3813 C 361.523 4.75893 1.60722 0
M  V30 3814 C 363.517 6.35477 0.494756 0
M  V30 3815 C 361.204 6.0126 1.09224 0
M  V30 3816 C 362.202 6.80886 0.53696 0
M  V30 3817 O 361.89 8.03894 0.0297371 0
M  V30 3818 H 361.622 0.592369 0.325692 0
M  V30 3819 H 364.176 2.02019 0.37116 0
M  V30 3820 H 362.406 2.60489 2.85801 0
M  V30 3821 H 364.095 3.00373 2.73003 0
M  V30 3822 H 364.861 4.75265 0.966869 0
M  V30 3823 H 360.74 4.13957 2.02882 0
M  V30 3824 H 364.284 6.97574 0.0606842 0
M  V30 3825 H 360.181 6.35562 1.12831 0
M  V30 3826 H 360.949 8.18372 0.14486 0
M  V30 3827 N 363.613 -0.582584 1.46437 0
M  V30 3828 C 364.561 -1.71272 1.5738 0
M  V30 3829 C 365.555 -1.63524 0.44229 0
M  V30 3830 O 366.761 -1.69016 0.619166 0
M  V30 3831 H 363.136 -0.566273 0.494813 0
M  V30 3832 H 365.107 -1.59174 2.52401 0
M  V30 3833 C 363.856 -3.09658 1.58136 0
M  V30 3834 H 363.179 -3.16291 2.44541 0
M  V30 3835 H 364.619 -3.88494 1.69847 0
M  V30 3836 C 363.078 -3.3547 0.310026 0
M  V30 3837 O 363.608 -3.97199 -0.599683 0
M  V30 3838 N 361.814 -2.89925 0.197901 0
M  V30 3839 H 361.361 -2.39873 0.93909 0
M  V30 3840 H 361.319 -3.07568 -0.65185 0
M  V30 3841 N 365.091 -1.34144 -0.827227 0
M  V30 3842 C 366.337 -1.26446 -1.58554 0
M  V30 3843 C 366.67 0.1664 -1.93486 0
M  V30 3844 O 365.945 1.1107 -1.59667 0
M  V30 3845 C 366.228 -2.15111 -2.8879 0
M  V30 3846 C 366.081 -3.66712 -2.60465 0
M  V30 3847 C 367.4 -2.03311 -3.90324 0
M  V30 3848 H 364.519 -0.46067 -0.575284 0
M  V30 3849 H 367.161 -1.64356 -0.953269 0
M  V30 3850 H 365.311 -1.8291 -3.42748 0
M  V30 3851 H 366.983 -4.09259 -2.1285 0
M  V30 3852 H 365.226 -3.88014 -1.93978 0
M  V30 3853 H 365.897 -4.24112 -3.53317 0
M  V30 3854 H 368.373 -2.31574 -3.45706 0
M  V30 3855 H 367.249 -2.67582 -4.79261 0
M  V30 3856 H 367.51 -1.00879 -4.30437 0
M  V30 3857 N 366.569 1.04691 -1.17803 0
M  V30 3858 C 367.809 1.79352 -0.980423 0
M  V30 3859 C 368.173 1.85853 0.481958 0
M  V30 3860 O 369.374 2.56656 0.798809 0
M  V30 3861 C 367.645 3.19088 -1.6099 0
M  V30 3862 S 369.204 4.10164 -1.55918 0
M  V30 3863 H 366.022 0.617631 -0.352211 0
M  V30 3864 H 368.624 1.25575 -1.49837 0
M  V30 3865 H 367.328 3.11962 -2.66661 0
M  V30 3866 H 366.859 3.77941 -1.09197 0
M  V30 3867 H 368.874 4.92907 -0.570685 0
M  V30 3868 N 368.047 0.979072 1.23499 0
M  V30 3869 C 369.294 0.647219 1.91878 0
M  V30 3870 C 369.622 -0.819074 1.76413 0
M  V30 3871 O 368.877 -1.60616 1.11808 0
M  V30 3872 C 369.176 0.981932 3.43646 0
M  V30 3873 C 368.842 2.43822 3.79291 0
M  V30 3874 C 367.504 2.83622 3.88731 0
M  V30 3875 C 369.856 3.3828 3.96505 0
M  V30 3876 C 367.184 4.16897 4.12812 0
M  V30 3877 C 369.536 4.71197 4.22085 0
M  V30 3878 C 368.2 5.10758 4.29747 0
M  V30 3879 H 367.47 0.236834 0.702133 0
M  V30 3880 H 370.117 1.23268 1.46551 0
M  V30 3881 H 368.422 0.314365 3.90537 0
M  V30 3882 H 370.119 0.703395 3.94783 0
M  V30 3883 H 366.709 2.11966 3.72516 0
M  V30 3884 H 370.893 3.0871 3.88603 0
M  V30 3885 H 366.149 4.47157 4.16966 0
M  V30 3886 H 370.323 5.44348 4.34348 0
M  V30 3887 H 367.95 6.1405 4.48159 0
M  V30 3888 N 369.525 -1.3858 0.750561 0
M  V30 3889 C 370.75 -2.04997 0.314812 0
M  V30 3890 C 371.175 -1.56235 -1.04749 0
M  V30 3891 O 370.533 -0.712981 -1.66692 0
M  V30 3892 C 370.581 -3.58961 0.343415 0
M  V30 3893 O 369.685 -4.07025 -0.663628 0
M  V30 3894 H 369.026 -0.649081 0.139962 0
M  V30 3895 H 371.556 -1.77313 1.02084 0
M  V30 3896 H 371.566 -4.07542 0.193233 0
M  V30 3897 H 370.241 -3.93811 1.33738 0
M  V30 3898 H 368.818 -3.6982 -0.478307 0
M  V30 3899 N 371.003 -0.499398 -1.49478 0
M  V30 3900 C 372.251 0.0455996 -2.02049 0
M  V30 3901 C 372.572 1.37633 -1.38138 0
M  V30 3902 O 371.842 1.8842 -0.536166 0
M  V30 3903 H 370.422 0.0198416 -0.746736 0
M  V30 3904 H 373.084 -0.656274 -1.83519 0
M  V30 3905 H 372.18 0.176445 -3.11601 0
M  V30 3906 N 372.481 1.55866 -0.233164 0
M  V30 3907 C 373.758 1.90471 0.444988 0
M  V30 3908 C 374.138 1.15209 1.7689 0
M  V30 3909 O 373.486 0.265119 2.26957 0
M  V30 3910 C 373.696 3.4333 0.626559 0
M  V30 3911 C 375.044 4.14319 0.92871 0
M  V30 3912 O 376.068 3.48993 0.712926 0
M  V30 3913 O 374.927 5.29846 1.33887 0
M  V30 3914 H 372.021 0.792347 0.236885 0
M  V30 3915 H 374.567 1.67437 -0.276211 0
M  V30 3916 H 373.339 3.90095 -0.306822 0
M  V30 3917 H 372.962 3.72181 1.39881 0
M  V30 3918 N 373.959 -0.0401083 1.57549 0
M  V30 3919 C 375.236 -0.767917 1.79896 0
M  V30 3920 C 375.616 -1.9416 0.82856 0
M  V30 3921 O 374.964 -2.2812 -0.131671 0
M  V30 3922 C 375.174 -1.2113 3.27305 0
M  V30 3923 C 376.522 -1.63175 3.91994 0
M  V30 3924 O 377.546 -1.30616 3.31388 0
M  V30 3925 O 376.405 -2.23565 4.98679 0
M  V30 3926 H 373.499 -0.370441 0.739393 0
M  V30 3927 H 376.045 -0.017737 1.69691 0
M  V30 3928 H 374.817 -0.372937 3.89519 0
M  V30 3929 H 374.44 -2.02183 3.42356 0
M  V30 3930 N 375.437 -1.54477 -0.31217 0
M  V30 3931 C 376.714 -1.63891 -1.06767 0
M  V30 3932 C 377.094 -0.480028 -2.0557 0
M  V30 3933 O 376.442 0.524487 -2.22399 0
M  V30 3934 C 376.652 -3.01402 -1.75948 0
M  V30 3935 C 378 -3.57838 -2.28554 0
M  V30 3936 O 379.024 -3.03782 -1.85998 0
M  V30 3937 O 377.883 -4.52462 -3.06497 0
M  V30 3938 H 374.977 -0.664125 -0.492816 0
M  V30 3939 H 377.523 -1.66823 -0.311149 0
M  V30 3940 H 376.295 -3.77187 -1.04144 0
M  V30 3941 H 375.918 -3.02199 -2.58383 0
M  V30 3942 N 376.915 0.57481 -1.46744 0
M  V30 3943 C 378.143 1.35856 -1.56047 0
M  V30 3944 C 378.558 1.87691 -0.204365 0
M  V30 3945 O 377.915 1.64049 0.79963 0
M  V30 3946 C 377.966 2.54066 -2.57163 0
M  V30 3947 O 377.687 2.04377 -3.87507 0
M  V30 3948 C 379.188 3.46514 -2.76483 0
M  V30 3949 H 376.408 0.414754 -0.527466 0
M  V30 3950 H 378.952 0.698035 -1.92218 0
M  V30 3951 H 377.107 3.16092 -2.23974 0
M  V30 3952 H 377.521 2.81419 -4.4261 0
M  V30 3953 H 378.995 4.25919 -3.51137 0
M  V30 3954 H 379.472 3.98951 -1.83671 0
M  V30 3955 H 380.078 2.90318 -3.10799 0
M  V30 3956 N 378.394 1.34581 0.820102 0
M  V30 3957 C 379.805 1.24298 1.39309 0
M  V30 3958 C 380.156 -0.130351 1.95767 0
M  V30 3959 O 379.281 -1.0308 1.90272 0
M  V30 3960 C 379.876 2.25054 2.53251 0
M  V30 3961 C 378.435 2.18552 3.0645 0
M  V30 3962 C 377.582 2.11503 1.79337 0
M  V30 3963 H 380.533 1.45906 0.624262 0
M  V30 3964 H 380.554 1.86917 3.31425 0
M  V30 3965 H 380.066 3.24996 2.1213 0
M  V30 3966 H 378.167 1.21976 3.52069 0
M  V30 3967 H 378.28 3.0993 3.65349 0
M  V30 3968 H 376.644 1.57268 2.00347 0
M  V30 3969 H 377.427 3.13284 1.40386 0
M  V30 3970 N 379.872 -1.04064 1.18357 0
M  V30 3971 C 381.121 -1.76662 0.973313 0
M  V30 3972 C 381.434 -1.89154 -0.497991 0
M  V30 3973 O 382.64 -2.58606 -0.826762 0
M  V30 3974 C 381.096 -3.17624 1.69242 0
M  V30 3975 C 380.704 -3.13225 3.20303 0
M  V30 3976 C 382.448 -3.946 1.56497 0
M  V30 3977 C 380.355 -4.49046 3.84853 0
M  V30 3978 H 379.285 -0.662214 0.36054 0
M  V30 3979 H 381.936 -1.16553 1.41731 0
M  V30 3980 H 380.318 -3.78129 1.1762 0
M  V30 3981 H 381.492 -2.62172 3.78949 0
M  V30 3982 H 379.807 -2.49749 3.33189 0
M  V30 3983 H 382.404 -4.95042 2.02084 0
M  V30 3984 H 382.747 -4.13074 0.517243 0
M  V30 3985 H 383.28 -3.4067 2.05399 0
M  V30 3986 H 380.019 -4.35777 4.89672 0
M  V30 3987 H 379.539 -5.00203 3.30994 0
M  V30 3988 H 381.218 -5.17961 3.87718 0
M  V30 3989 N 381.35 -0.985608 -1.22978 0
M  V30 3990 C 382.578 -0.675582 -1.95559 0
M  V30 3991 C 382.993 0.758413 -1.72897 0
M  V30 3992 O 382.35 1.51094 -1.02357 0
M  V30 3993 C 382.401 -0.96293 -3.48439 0
M  V30 3994 O 382.122 -2.34057 -3.70336 0
M  V30 3995 C 383.623 -0.669585 -4.38214 0
M  V30 3996 H 380.843 -0.250523 -0.622478 0
M  V30 3997 H 383.387 -1.3184 -1.56328 0
M  V30 3998 H 381.542 -0.366033 -3.85667 0
M  V30 3999 H 381.956 -2.43424 -4.64591 0
M  V30 4000 H 383.43 -0.920967 -5.44263 0
M  V30 4001 H 383.907 0.396383 -4.37408 0
M  V30 4002 H 384.513 -1.2472 -4.06602 0
M  V30 4003 N 382.828 1.3818 -0.7579 0
M  V30 4004 C 384.053 2.04827 -0.325679 0
M  V30 4005 C 384.478 1.56788 1.03919 0
M  V30 4006 O 383.836 0.721811 1.66312 0
M  V30 4007 C 383.884 3.58774 -0.362447 0
M  V30 4008 O 382.988 4.07372 0.642033 0
M  V30 4009 H 382.329 0.64833 -0.143402 0
M  V30 4010 H 384.859 1.7677 -1.03023 0
M  V30 4011 H 384.869 4.07434 -0.214844 0
M  V30 4012 H 383.544 3.93096 -1.35824 0
M  V30 4013 H 382.121 3.70068 0.458688 0
M  V30 4014 N 384.306 0.507319 1.49211 0
M  V30 4015 C 385.722 0.163682 1.58758 0
M  V30 4016 C 385.922 -1.33208 1.51188 0
M  V30 4017 O 384.978 -2.10855 1.38911 0
M  V30 4018 C 386.291 0.746095 2.91297 0
M  V30 4019 C 387.839 0.712773 3.04776 0
M  V30 4020 C 388.314 1.27336 4.39943 0
M  V30 4021 N 389.805 1.23433 4.46451 0
M  V30 4022 C 390.54 1.63821 5.495 0
M  V30 4023 N 390.036 2.11832 6.5962 0
M  V30 4024 N 391.829 1.55198 5.4025 0
M  V30 4025 H 383.98 1.47972 1.52375 0
M  V30 4026 H 386.243 0.614147 0.722168 0
M  V30 4027 H 385.949 1.79534 3.02424 0
M  V30 4028 H 385.823 0.210137 3.76614 0
M  V30 4029 H 388.21 -0.327656 2.93275 0
M  V30 4030 H 388.291 1.28595 2.21127 0
M  V30 4031 H 387.935 2.3126 4.52196 0
M  V30 4032 H 387.865 0.676066 5.22242 0
M  V30 4033 H 390.356 0.882627 3.67448 0
M  V30 4034 H 390.669 2.40703 7.34358 0
M  V30 4035 H 389.014 2.1581 6.60644 0
M  V30 4036 H 392.205 1.17505 4.53112 0
M  V30 4037 H 392.378 1.86997 6.20432 0
M  V30 4038 N 385.784 -1.5574 0.241426 0
M  V30 4039 C 386.734 -2.17803 -0.674233 0
M  V30 4040 C 387.718 -1.13225 -1.14319 0
M  V30 4041 O 388.91 -1.39153 -1.09387 0
M  V30 4042 C 386.039 -2.87682 -1.87333 0
M  V30 4043 C 385.125 -3.99509 -1.42313 0
M  V30 4044 N 385.516 -5.01115 -0.686798 0
M  V30 4045 C 383.814 -4.11964 -1.70885 0
M  V30 4046 C 384.515 -5.79922 -0.454456 0
M  V30 4047 N 383.491 -5.34001 -1.01705 0
M  V30 4048 H 387.293 -2.93718 -0.103447 0
M  V30 4049 H 384.807 -1.62342 0.0435095 0
M  V30 4050 H 386.804 -3.3057 -2.54026 0
M  V30 4051 H 385.464 -2.13269 -2.4484 0
M  V30 4052 H 386.475 -5.16799 -0.337459 0
M  V30 4053 H 383.152 -3.48718 -2.2957 0
M  V30 4054 H 384.542 -6.71768 0.132992 0
M  V30 4055 N 387.262 0.0317525 -1.57568 0
M  V30 4056 C 388.49 0.734949 -1.93407 0
M  V30 4057 C 388.905 1.69036 -0.84096 0
M  V30 4058 O 388.262 1.81582 0.182836 0
M  V30 4059 C 388.313 1.49432 -3.29169 0
M  V30 4060 O 388.034 0.577261 -4.3428 0
M  V30 4061 C 389.535 2.29492 -3.79273 0
M  V30 4062 H 386.755 0.206706 -0.638368 0
M  V30 4063 H 389.299 -0.00992046 -2.04498 0
M  V30 4064 H 387.454 2.1911 -3.19483 0
M  V30 4065 H 387.868 1.10952 -5.1263 0
M  V30 4066 H 389.342 2.78172 -4.76785 0
M  V30 4067 H 389.819 3.10794 -3.10328 0
M  V30 4068 H 390.425 1.64894 -3.92033 0
M  V30 4069 N 388.74 1.54641 0.303973 0
M  V30 4070 C 389.67 1.88386 1.3796 0
M  V30 4071 C 390.651 0.742485 1.5304 0
M  V30 4072 O 391.836 0.997959 1.66597 0
M  V30 4073 C 388.966 2.12854 2.74427 0
M  V30 4074 C 387.92 3.28702 2.74115 0
M  V30 4075 C 387.246 3.38582 4.13844 0
M  V30 4076 C 388.546 4.65881 2.3612 0
M  V30 4077 H 390.24 2.78474 1.09966 0
M  V30 4078 H 387.786 1.33988 0.527556 0
M  V30 4079 H 389.739 2.35047 3.49758 0
M  V30 4080 H 388.463 1.19535 3.03939 0
M  V30 4081 H 387.122 3.06428 2.0124 0
M  V30 4082 H 386.77 2.42784 4.40528 0
M  V30 4083 H 386.47 4.16453 4.14537 0
M  V30 4084 H 387.994 3.63031 4.90959 0
M  V30 4085 H 389.408 4.87823 3.01167 0
M  V30 4086 H 387.805 5.46444 2.48031 0
M  V30 4087 H 388.875 4.66799 1.3125 0
M  V30 4088 N 390.218 -0.567019 1.47046 0
M  V30 4089 C 391.464 -1.32658 1.53394 0
M  V30 4090 C 391.797 -1.93254 0.19148 0
M  V30 4091 O 391.072 -1.77338 -0.798844 0
M  V30 4092 C 391.355 -2.44412 2.64452 0
M  V30 4093 C 391.208 -1.88749 4.08282 0
M  V30 4094 C 392.527 -3.46387 2.71485 0
M  V30 4095 H 389.646 -0.48098 0.558415 0
M  V30 4096 H 392.288 -0.635481 1.79058 0
M  V30 4097 H 390.438 -3.03363 2.427 0
M  V30 4098 H 392.11 -1.34134 4.41368 0
M  V30 4099 H 390.353 -1.19481 4.17021 0
M  V30 4100 H 391.024 -2.69491 4.81745 0
M  V30 4101 H 393.5 -2.9734 2.91081 0
M  V30 4102 H 392.376 -4.2202 3.50985 0
M  V30 4103 H 392.637 -4.04616 1.78153 0
M  V30 4104 N 391.696 -1.35014 -0.812953 0
M  V30 4105 C 392.921 -1.31187 -1.60639 0
M  V30 4106 C 393.346 0.109382 -1.87782 0
M  V30 4107 O 392.704 1.07424 -1.46047 0
M  V30 4108 C 392.752 -2.11809 -2.91838 0
M  V30 4109 O 391.856 -1.49444 -3.8437 0
M  V30 4110 H 391.197 -0.450084 -0.488181 0
M  V30 4111 H 393.727 -1.77963 -1.00947 0
M  V30 4112 H 393.737 -2.23531 -3.41318 0
M  V30 4113 H 392.412 -3.15137 -2.71407 0
M  V30 4114 H 390.989 -1.46524 -3.42907 0
M  V30 4115 N 393.175 1.03435 -1.18907 0
M  V30 4116 C 394.452 1.73778 -0.89781 0
M  V30 4117 C 394.832 2.02458 0.597832 0
M  V30 4118 O 394.18 1.67482 1.55441 0
M  V30 4119 C 394.39 3.01845 -1.75187 0
M  V30 4120 C 395.738 3.7546 -1.9828 0
M  V30 4121 O 396.762 3.11759 -1.72293 0
M  V30 4122 O 395.621 4.89966 -2.42065 0
M  V30 4123 H 392.715 0.75651 -0.334098 0
M  V30 4124 H 395.261 1.09444 -1.29693 0
M  V30 4125 H 394.033 2.76836 -2.76545 0
M  V30 4126 H 393.656 3.73919 -1.35167 0
M  V30 4127 N 394.653 0.992116 1.22453 0
M  V30 4128 C 395.902 0.662992 1.90492 0
M  V30 4129 C 396.215 -0.808407 1.78113 0
M  V30 4130 O 397.421 -1.24908 2.41061 0
M  V30 4131 C 395.877 1.1353 3.41524 0
M  V30 4132 C 395.485 2.63187 3.62542 0
M  V30 4133 C 397.229 0.880465 4.15269 0
M  V30 4134 C 395.136 3.04024 5.0727 0
M  V30 4135 H 394.066 0.244278 0.713333 0
M  V30 4136 H 396.717 1.20157 1.38688 0
M  V30 4137 H 395.099 0.52485 3.92506 0
M  V30 4138 H 396.273 3.2957 3.22056 0
M  V30 4139 H 394.588 2.86543 3.02129 0
M  V30 4140 H 397.185 1.16128 5.21937 0
M  V30 4141 H 397.528 -0.183408 4.15896 0
M  V30 4142 H 398.061 1.45307 3.70312 0
M  V30 4143 H 394.8 4.09584 5.11782 0
M  V30 4144 H 394.32 2.42343 5.48662 0
M  V30 4145 H 395.999 2.95282 5.75689 0
M  V30 4146 N 396.131 -1.37776 0.765217 0
M  V30 4147 C 397.094 -2.28686 0.153416 0
M  V30 4148 C 398.094 -1.47727 -0.635081 0
M  V30 4149 O 399.284 -1.68027 -0.459632 0
M  V30 4150 C 396.416 -3.31608 -0.790495 0
M  V30 4151 H 397.609 -2.84297 0.954723 0
M  V30 4152 H 395.162 -1.46932 0.53299 0
M  V30 4153 H 395.897 -2.81109 -1.61705 0
M  V30 4154 H 395.682 -3.9144 -0.227348 0
M  V30 4155 H 397.172 -3.99559 -1.21419 0
M  V30 4156 N 397.609 -0.515225 -1.4894 0
M  V30 4157 C 398.855 0.0242508 -2.02785 0
M  V30 4158 C 399.188 1.35323 -1.39289 0
M  V30 4159 O 398.463 1.87041 -0.533469 0
M  V30 4160 C 398.746 0.16184 -3.59736 0
M  V30 4161 C 398.599 -1.19127 -4.33738 0
M  V30 4162 C 399.918 0.895719 -4.30888 0
M  V30 4163 H 397.037 0.00733914 -0.736963 0
M  V30 4164 H 399.679 -0.669395 -1.77818 0
M  V30 4165 H 397.829 0.752624 -3.8114 0
M  V30 4166 H 399.501 -1.82202 -4.23792 0
M  V30 4167 H 397.744 -1.77695 -3.95736 0
M  V30 4168 H 398.415 -1.04815 -5.41957 0
M  V30 4169 H 400.891 0.394528 -4.14225 0
M  V30 4170 H 399.767 0.960859 -5.40425 0
M  V30 4171 H 400.028 1.9427 -3.97129 0
M  V30 4172 N 399.087 1.5561 -0.249682 0
M  V30 4173 C 399.997 2.25143 0.659375 0
M  V30 4174 C 401.013 1.2685 1.19101 0
M  V30 4175 O 402.189 1.59732 1.22669 0
M  V30 4176 C 399.254 2.93945 1.8384 0
M  V30 4177 C 398.315 4.07655 1.34596 0
M  V30 4178 C 397.548 4.73167 2.46878 0
M  V30 4179 O 397.771 4.37768 3.65671 0
M  V30 4180 O 396.705 5.61623 2.16478 0
M  V30 4181 H 400.531 3.03545 0.0968698 0
M  V30 4182 H 398.116 1.49389 -0.018074 0
M  V30 4183 H 399.998 3.37271 2.52638 0
M  V30 4184 H 398.673 2.18481 2.38847 0
M  V30 4185 H 397.58 3.68839 0.625174 0
M  V30 4186 H 398.913 4.84946 0.841941 0
M  V30 4187 N 400.565 -0.0233959 1.57583 0
M  V30 4188 C 401.498 -1.05549 2.02323 0
M  V30 4189 C 402.476 -1.34843 0.908626 0
M  V30 4190 O 403.66 -1.47404 1.17491 0
M  V30 4191 C 400.787 -2.38885 2.40108 0
M  V30 4192 C 399.833 -2.2541 3.62067 0
M  V30 4193 S 400.666 -1.60217 5.1097 0
M  V30 4194 C 401.822 -2.95032 5.52003 0
M  V30 4195 H 402.055 -0.674435 2.89549 0
M  V30 4196 H 399.588 -0.23355 1.52623 0
M  V30 4197 H 401.546 -3.15562 2.62547 0
M  V30 4198 H 400.207 -2.74137 1.53323 0
M  V30 4199 H 399.4 -3.23854 3.86179 0
M  V30 4200 H 399.002 -1.56876 3.39508 0
M  V30 4201 H 401.294 -3.91357 5.53033 0
M  V30 4202 H 402.237 -2.75646 6.52246 0
M  V30 4203 H 402.645 -2.97865 4.79517 0
M  V30 4204 N 402.043 -1.548 -0.295768 0
M  V30 4205 C 402.973 -1.89115 -1.36959 0
M  V30 4206 C 403.954 -0.75059 -1.52644 0
M  V30 4207 O 405.139 -1.00678 -1.66065 0
M  V30 4208 C 402.269 -2.14307 -2.73295 0
M  V30 4209 C 401.223 -3.30151 -2.72368 0
M  V30 4210 C 400.549 -3.40772 -4.12042 0
M  V30 4211 C 401.849 -4.67126 -2.33646 0
M  V30 4212 H 403.543 -2.79053 -1.08488 0
M  V30 4213 H 401.089 -1.34266 -0.520443 0
M  V30 4214 H 403.042 -2.36898 -3.48507 0
M  V30 4215 H 401.766 -1.21145 -3.03301 0
M  V30 4216 H 400.425 -3.0749 -1.99613 0
M  V30 4217 H 400.073 -2.45117 -4.39234 0
M  V30 4218 H 399.773 -4.18645 -4.12322 0
M  V30 4219 H 401.297 -3.6563 -4.89027 0
M  V30 4220 H 402.711 -4.89414 -2.98575 0
M  V30 4221 H 401.108 -5.47751 -2.45129 0
M  V30 4222 H 402.178 -4.67489 -1.28772 0
M  V30 4223 N 403.521 0.559213 -1.47345 0
M  V30 4224 C 404.768 1.31648 -1.53867 0
M  V30 4225 C 405.096 1.93468 -0.200104 0
M  V30 4226 O 404.351 1.78295 0.806799 0
M  V30 4227 C 404.65 2.44853 -2.6035 0
M  V30 4228 C 404.316 2.00876 -4.03683 0
M  V30 4229 C 402.978 1.88599 -4.42701 0
M  V30 4230 C 405.33 1.67279 -4.93626 0
M  V30 4231 C 402.658 1.41017 -5.69501 0
M  V30 4232 C 405.01 1.21169 -6.20887 0
M  V30 4233 C 403.674 1.07487 -6.58789 0
M  V30 4234 H 402.944 0.481734 -0.56304 0
M  V30 4235 H 405.591 0.627301 -1.80934 0
M  V30 4236 H 403.896 3.19318 -2.27032 0
M  V30 4237 H 405.593 3.03039 -2.62619 0
M  V30 4238 H 402.183 2.11374 -3.72853 0
M  V30 4239 H 406.367 1.75638 -4.64182 0
M  V30 4240 H 401.623 1.29086 -5.97618 0
M  V30 4241 H 405.797 0.942345 -6.89995 0
M  V30 4242 H 403.424 0.703946 -7.56934 0
M  V30 4243 N 404.999 1.35443 0.805782 0
M  V30 4244 C 406.248 1.28097 1.55801 0
M  V30 4245 C 406.561 -0.142428 1.95081 0
M  V30 4246 O 407.767 -0.33817 2.69386 0
M  V30 4247 C 406.223 2.24653 2.81174 0
M  V30 4248 C 405.831 3.72342 2.49129 0
M  V30 4249 C 407.575 2.2625 3.59181 0
M  V30 4250 C 405.482 4.60719 3.70799 0
M  V30 4251 H 404.412 0.475937 0.584808 0
M  V30 4252 H 407.063 1.60712 0.885661 0
M  V30 4253 H 405.445 1.85011 3.50124 0
M  V30 4254 H 406.619 4.20624 1.88181 0
M  V30 4255 H 404.934 3.73361 1.84366 0
M  V30 4256 H 407.531 2.89495 4.49552 0
M  V30 4257 H 407.874 1.26647 3.96568 0
M  V30 4258 H 408.407 2.64426 2.97193 0
M  V30 4259 H 405.146 5.61324 3.3852 0
M  V30 4260 H 404.666 4.17163 4.3097 0
M  V30 4261 H 406.345 4.76182 4.38018 0
M  V30 4262 N 406.477 -1.02803 1.19454 0
M  V30 4263 C 407.407 -2.12999 0.956758 0
M  V30 4264 C 408.388 -1.69743 -0.110188 0
M  V30 4265 O 409.573 -1.94148 0.0450038 0
M  V30 4266 C 406.703 -3.43746 0.495553 0
M  V30 4267 C 405.657 -4.00688 1.50443 0
M  V30 4268 C 404.983 -5.27067 0.900275 0
M  V30 4269 C 406.283 -4.35397 2.8849 0
M  V30 4270 H 407.977 -2.33148 1.87836 0
M  V30 4271 H 405.523 -1.12045 0.904539 0
M  V30 4272 H 407.476 -4.2021 0.316493 0
M  V30 4273 H 406.2 -3.23321 -0.461646 0
M  V30 4274 H 404.859 -3.2632 1.67065 0
M  V30 4275 H 404.507 -5.02959 -0.064503 0
M  V30 4276 H 404.207 -5.66127 1.57397 0
M  V30 4277 H 405.731 -6.06196 0.73203 0
M  V30 4278 H 407.145 -5.02795 2.75446 0
M  V30 4279 H 405.542 -4.85541 3.52661 0
M  V30 4280 H 406.612 -3.44662 3.41081 0
M  V30 4281 N 407.956 -0.998596 -1.21925 0
M  V30 4282 C 409.233 -0.593401 -1.86382 0
M  V30 4283 C 409.613 0.92916 -1.89552 0
M  V30 4284 O 408.961 1.81347 -1.39017 0
M  V30 4285 C 409.171 -1.22039 -3.26967 0
M  V30 4286 C 410.519 -1.32449 -4.03413 0
M  V30 4287 O 411.543 -1.17522 -3.36254 0
M  V30 4288 O 410.402 -1.56395 -5.23644 0
M  V30 4289 H 407.496 -0.202385 -0.801854 0
M  V30 4290 H 410.042 -1.09484 -1.29659 0
M  V30 4291 H 408.814 -2.26158 -3.19325 0
M  V30 4292 H 408.437 -0.704906 -3.91301 0
M  V30 4293 N 409.434 1.37368 -0.772513 0
M  V30 4294 C 410.683 1.98918 -0.333861 0
M  V30 4295 C 410.996 1.62017 1.09589 0
M  V30 4296 O 412.202 2.16676 1.63596 0
M  V30 4297 C 410.658 3.55735 -0.545971 0
M  V30 4298 C 410.266 4.01573 -1.98603 0
M  V30 4299 C 412.01 4.24156 -0.170979 0
M  V30 4300 C 409.917 5.51102 -2.1457 0
M  V30 4301 H 408.847 0.744214 -0.121085 0
M  V30 4302 H 411.498 1.56888 -0.95175 0
M  V30 4303 H 409.88 3.95748 0.141387 0
M  V30 4304 H 411.054 3.72803 -2.7084 0
M  V30 4305 H 409.369 3.45937 -2.31769 0
M  V30 4306 H 411.966 5.34024 -0.26878 0
M  V30 4307 H 412.309 4.06917 0.878855 0
M  V30 4308 H 412.842 3.89447 -0.810914 0
M  V30 4309 H 409.581 5.73268 -3.17875 0
M  V30 4310 H 409.101 5.81554 -1.46817 0
M  V30 4311 H 410.78 6.17083 -1.94468 0
M  V30 4312 N 410.912 0.523116 1.48665 0
M  V30 4313 C 412.161 -0.01544 2.01694 0
M  V30 4314 C 412.474 -1.35975 1.40606 0
M  V30 4315 O 413.68 -1.98627 1.85093 0
M  V30 4316 C 412.136 -0.0779303 3.59816 0
M  V30 4317 C 411.744 1.26107 4.29885 0
M  V30 4318 C 413.488 -0.565678 4.20714 0
M  V30 4319 C 411.395 1.15954 5.79921 0
M  V30 4320 H 410.325 -0.00954163 0.75394 0
M  V30 4321 H 412.976 0.665865 1.70993 0
M  V30 4322 H 411.358 -0.824165 3.87329 0
M  V30 4323 H 412.532 2.02233 4.14051 0
M  V30 4324 H 410.847 1.68401 3.80828 0
M  V30 4325 H 413.444 -0.6595 5.30617 0
M  V30 4326 H 413.787 -1.56984 3.85567 0
M  V30 4327 H 414.32 0.12467 3.97605 0
M  V30 4328 H 411.059 2.13864 6.19631 0
M  V30 4329 H 410.579 0.439529 5.98187 0
M  V30 4330 H 412.258 0.847361 6.41427 0
M  V30 4331 N 412.39 -1.55475 0.257931 0
M  V30 4332 C 413.32 -2.24815 -0.630912 0
M  V30 4333 C 414.301 -1.23224 -1.17259 0
M  V30 4334 O 415.486 -1.51904 -1.20991 0
M  V30 4335 C 412.616 -2.95609 -1.82298 0
M  V30 4336 C 411.57 -4.03982 -1.41359 0
M  V30 4337 C 410.896 -4.6226 -2.68738 0
M  V30 4338 C 412.196 -5.19109 -0.57648 0
M  V30 4339 H 413.89 -2.99354 -0.0526878 0
M  V30 4340 H 411.436 -1.4398 -0.023901 0
M  V30 4341 H 413.389 -3.42822 -2.45054 0
M  V30 4342 H 412.113 -2.18577 -2.42676 0
M  V30 4343 H 410.772 -3.57555 -0.809324 0
M  V30 4344 H 410.42 -3.81915 -3.27338 0
M  V30 4345 H 410.12 -5.35424 -2.42065 0
M  V30 4346 H 411.644 -5.12212 -3.32372 0
M  V30 4347 H 413.058 -5.62479 -1.10861 0
M  V30 4348 H 411.455 -5.98729 -0.405351 0
M  V30 4349 H 412.525 -4.83174 0.408776 0
M  V30 4350 N 413.868 0.0150385 -1.57593 0
M  V30 4351 C 414.816 1.02958 -2.08572 0
M  V30 4352 C 415.81 1.36554 -1.00246 0
M  V30 4353 O 417.016 1.35295 -1.18724 0
M  V30 4354 H 413.391 0.349619 -0.665786 0
M  V30 4355 H 415.362 0.573932 -2.92829 0
M  V30 4356 C 414.111 2.31752 -2.59203 0
M  V30 4357 H 413.434 2.06765 -3.42182 0
M  V30 4358 H 414.874 3.01053 -2.98568 0
M  V30 4359 C 413.333 3.01692 -1.49945 0
M  V30 4360 O 413.863 3.92083 -0.873704 0
M  V30 4361 N 412.069 2.6326 -1.23056 0
M  V30 4362 H 411.616 1.89838 -1.74125 0
M  V30 4363 H 411.574 3.10372 -0.501685 0
M  V30 4364 N 415.346 1.54954 0.287554 0
M  V30 4365 C 416.593 1.74873 1.02106 0
M  V30 4366 C 416.921 0.541829 1.86801 0
M  V30 4367 O 416.176 -0.475992 1.89823 0
M  V30 4368 C 416.475 2.99833 1.94512 0
M  V30 4369 C 416.141 4.33029 1.25686 0
M  V30 4370 C 414.803 4.69233 1.06649 0
M  V30 4371 C 417.155 5.15542 0.765913 0
M  V30 4372 C 414.483 5.85518 0.372222 0
M  V30 4373 C 416.835 6.32542 0.0853101 0
M  V30 4374 C 415.499 6.67398 -0.1169 0
M  V30 4375 H 414.769 0.639906 0.373632 0
M  V30 4376 H 417.416 1.89219 0.294665 0
M  V30 4377 H 415.721 2.80325 2.73725 0
M  V30 4378 H 417.418 3.1244 2.51361 0
M  V30 4379 H 414.008 4.04564 1.41512 0
M  V30 4380 H 418.192 4.88059 0.90066 0
M  V30 4381 H 413.448 6.11057 0.204695 0
M  V30 4382 H 417.622 6.95741 -0.302936 0
M  V30 4383 H 415.249 7.57357 -0.656859 0
M  V30 4384 N 416.824 -0.551391 1.4764 0
M  V30 4385 C 418.24 -0.877887 1.33287 0
M  V30 4386 C 418.44 -1.98817 0.327721 0
M  V30 4387 O 417.496 -2.51171 -0.258695 0
M  V30 4388 C 418.809 -1.26563 2.72768 0
M  V30 4389 C 420.357 -1.37673 2.81097 0
M  V30 4390 C 420.832 -1.79799 4.21232 0
M  V30 4391 N 422.323 -1.8694 4.23802 0
M  V30 4392 C 423.058 -2.20876 5.29151 0
M  V30 4393 N 422.554 -2.53386 6.448 0
M  V30 4394 N 424.347 -2.217 5.16532 0
M  V30 4395 H 416.498 0.18153 2.11623 0
M  V30 4396 H 418.761 0.0185514 0.947818 0
M  V30 4397 H 418.467 -0.523591 3.47781 0
M  V30 4398 H 418.341 -2.22052 3.04915 0
M  V30 4399 H 420.728 -2.10956 2.06353 0
M  V30 4400 H 420.809 -0.40357 2.52596 0
M  V30 4401 H 420.453 -1.07083 4.96483 0
M  V30 4402 H 420.383 -2.78128 4.4716 0
M  V30 4403 H 422.874 -1.64179 3.40373 0
M  V30 4404 H 423.187 -2.78325 7.20941 0
M  V30 4405 H 421.532 -2.50953 6.48111 0
M  V30 4406 H 424.723 -1.95745 4.25207 0
M  V30 4407 H 424.896 -2.47818 5.98741 0
M  V30 4408 N 418.302 -1.35869 -0.798587 0
M  V30 4409 C 419.53 -1.32722 -1.58722 0
M  V30 4410 C 419.945 0.0935631 -1.88568 0
M  V30 4411 O 419.302 1.04784 -1.49421 0
M  V30 4412 C 419.353 -2.13974 -2.91371 0
M  V30 4413 O 419.074 -3.50514 -2.62815 0
M  V30 4414 C 420.575 -2.18504 -3.85708 0
M  V30 4415 H 417.795 -0.45562 -0.492596 0
M  V30 4416 H 420.339 -1.78837 -0.991843 0
M  V30 4417 H 418.494 -1.71438 -3.47402 0
M  V30 4418 H 418.908 -3.92806 -3.47568 0
M  V30 4419 H 420.382 -2.79732 -4.75872 0
M  V30 4420 H 420.859 -1.18597 -4.22885 0
M  V30 4421 H 421.465 -2.61236 -3.35612 0
M  V30 4422 N 419.78 1.02168 -1.19998 0
M  V30 4423 C 421.008 1.79296 -1.03249 0
M  V30 4424 C 421.423 1.84103 0.418502 0
M  V30 4425 O 420.78 1.29031 1.29063 0
M  V30 4426 C 420.831 3.24007 -1.60319 0
M  V30 4427 O 420.552 3.19512 -2.99739 0
M  V30 4428 C 422.053 4.17704 -1.48453 0
M  V30 4429 H 419.273 0.564016 -0.363493 0
M  V30 4430 H 421.817 1.28639 -1.58973 0
M  V30 4431 H 419.972 3.7183 -1.08727 0
M  V30 4432 H 420.386 4.10306 -3.26725 0
M  V30 4433 H 421.86 5.17104 -1.93153 0
M  V30 4434 H 422.337 4.37029 -0.436193 0
M  V30 4435 H 422.943 3.7576 -1.99211 0
M  V30 4436 N 421.258 1.00505 1.21394 0
M  V30 4437 C 422.488 0.705584 1.94178 0
M  V30 4438 C 422.896 -0.735846 1.74304 0
M  V30 4439 O 422.239 -1.50954 1.04683 0
M  V30 4440 C 422.301 0.94689 3.46806 0
M  V30 4441 C 421.965 2.37517 3.90429 0
M  V30 4442 C 422.962 3.35539 3.97127 0
M  V30 4443 C 420.647 2.71284 4.22742 0
M  V30 4444 C 422.641 4.65395 4.3553 0
M  V30 4445 C 420.328 4.01356 4.60822 0
M  V30 4446 C 421.326 4.98223 4.67186 0
M  V30 4447 O 421.014 6.25969 5.04399 0
M  V30 4448 H 420.746 0.259216 0.624326 0
M  V30 4449 H 423.3 1.34592 1.55159 0
M  V30 4450 H 421.53 0.249386 3.85895 0
M  V30 4451 H 423.219 0.640804 4.0081 0
M  V30 4452 H 423.985 3.10786 3.7234 0
M  V30 4453 H 419.864 1.96581 4.16985 0
M  V30 4454 H 423.408 5.41002 4.40412 0
M  V30 4455 H 419.305 4.25893 4.85063 0
M  V30 4456 H 420.073 6.30085 5.22431 0
M  V30 4457 N 422.737 -1.36956 0.779787 0
M  V30 4458 C 423.983 -1.99787 0.348281 0
M  V30 4459 C 424.316 -1.61756 -1.07465 0
M  V30 4460 O 423.591 -0.867639 -1.74075 0
M  V30 4461 C 423.874 -3.56597 0.50104 0
M  V30 4462 C 423.727 -4.04513 1.96697 0
M  V30 4463 C 425.046 -4.40008 -0.0898097 0
M  V30 4464 H 422.165 -0.725796 0.128022 0
M  V30 4465 H 424.807 -1.62514 0.984331 0
M  V30 4466 H 422.957 -3.88479 -0.0404347 0
M  V30 4467 H 424.629 -3.83161 2.56876 0
M  V30 4468 H 422.872 -3.56408 2.47297 0
M  V30 4469 H 423.543 -5.1352 2.02486 0
M  V30 4470 H 426.019 -4.14431 0.372293 0
M  V30 4471 H 424.895 -5.4888 0.0471605 0
M  V30 4472 H 425.156 -4.26035 -1.18096 0
M  V30 4473 N 424.215 -0.530993 -1.48385 0
M  V30 4474 C 425.44 0.000729535 -2.074 0
M  V30 4475 C 425.865 1.27298 -1.3848 0
M  V30 4476 O 425.223 1.75599 -0.451081 0
M  V30 4477 C 425.271 0.206697 -3.60007 0
M  V30 4478 O 424.375 1.27514 -3.92191 0
M  V30 4479 H 423.716 -0.039583 -0.662819 0
M  V30 4480 H 426.246 -0.739194 -1.9078 0
M  V30 4481 H 426.256 0.42904 -4.05738 0
M  V30 4482 H 424.931 -0.722675 -4.09573 0
M  V30 4483 H 423.508 1.03537 -3.58238 0
M  V30 4484 N 425.693 1.55336 -0.266172 0
M  V30 4485 C 426.625 2.19544 0.658247 0
M  V30 4486 C 427.638 1.17746 1.12427 0
M  V30 4487 O 428.827 1.44517 1.04772 0
M  V30 4488 C 425.927 2.80032 1.9088 0
M  V30 4489 C 425.1 4.07436 1.59106 0
M  V30 4490 C 424.159 4.52056 2.69317 0
M  V30 4491 O 423.185 5.18023 2.35883 0
M  V30 4492 N 424.387 4.21448 3.99201 0
M  V30 4493 H 427.152 2.99503 0.108754 0
M  V30 4494 H 424.713 1.61667 -0.0869059 0
M  V30 4495 H 426.705 3.06831 2.63888 0
M  V30 4496 H 425.275 2.04119 2.36758 0
M  V30 4497 H 424.495 3.88021 0.695243 0
M  V30 4498 H 425.783 4.90462 1.35367 0
M  V30 4499 H 425.181 3.68528 4.29189 0
M  V30 4500 H 423.738 4.53039 4.68614 0
M  V30 4501 N 427.171 -0.0066808 1.57599 0
M  V30 4502 C 428.396 -0.707738 1.94951 0
M  V30 4503 C 428.821 -1.66882 0.867868 0
M  V30 4504 O 428.179 -1.80457 -0.17458 0
M  V30 4505 C 428.227 -1.42162 3.31394 0
M  V30 4506 O 427.331 -2.53578 3.25226 0
M  V30 4507 H 426.672 -0.188752 0.636607 0
M  V30 4508 H 429.202 0.0445193 2.04552 0
M  V30 4509 H 429.212 -1.78655 3.66806 0
M  V30 4510 H 427.887 -0.716903 4.09675 0
M  V30 4511 H 426.464 -2.19463 3.01481 0
M  V30 4512 N 428.649 -1.55105 -0.279332 0
M  V30 4513 C 429.897 -1.75066 -1.00977 0
M  V30 4514 C 430.218 -0.551276 -1.87045 0
M  V30 4515 O 429.488 0.433984 -1.91032 0
M  V30 4516 H 428.068 -0.645578 -0.375816 0
M  V30 4517 H 430.73 -1.92497 -0.305089 0
M  V30 4518 H 429.826 -2.64894 -1.65038 0
M  V30 4519 N 430.127 0.543554 -1.4793 0
M  V30 4520 C 431.059 1.665 -1.57513 0
M  V30 4521 C 432.072 1.56156 -0.460333 0
M  V30 4522 O 433.261 1.62865 -0.730573 0
M  V30 4523 C 430.361 3.05063 -1.47614 0
M  V30 4524 C 429.534 3.41024 -2.739 0
M  V30 4525 C 428.593 4.58809 -2.57645 0
M  V30 4526 O 427.619 4.62707 -3.31498 0
M  V30 4527 N 428.821 5.56149 -1.66368 0
M  V30 4528 H 431.586 1.5872 -2.5422 0
M  V30 4529 H 429.147 0.730517 -1.44482 0
M  V30 4530 H 431.139 3.81712 -1.34455 0
M  V30 4531 H 429.709 3.06994 -0.589359 0
M  V30 4532 H 428.929 2.53687 -3.01723 0
M  V30 4533 H 430.217 3.61831 -3.57709 0
M  V30 4534 H 429.615 5.55767 -1.05543 0
M  V30 4535 H 428.172 6.32071 -1.59154 0
M  V30 4536 N 431.605 1.3629 0.791371 0
M  V30 4537 C 432.851 1.30605 1.55146 0
M  V30 4538 C 433.184 -0.115042 1.93859 0
M  V30 4539 O 432.459 -1.06798 1.62556 0
M  V30 4540 C 432.742 2.22692 2.82985 0
M  V30 4541 C 432.595 3.73489 2.50651 0
M  V30 4542 C 433.914 2.13588 3.84796 0
M  V30 4543 H 431.033 0.475761 0.562868 0
M  V30 4544 H 433.675 1.66825 0.909358 0
M  V30 4545 H 431.825 1.91933 3.37778 0
M  V30 4546 H 433.497 4.14758 2.01924 0
M  V30 4547 H 431.74 3.93021 1.83622 0
M  V30 4548 H 432.411 4.3333 3.41949 0
M  V30 4549 H 434.887 2.40659 3.39445 0
M  V30 4550 H 433.763 2.80195 4.71998 0
M  V30 4551 H 434.024 1.12256 4.27611 0
M  V30 4552 N 433.083 -1.0153 1.20538 0
M  V30 4553 C 434.332 -1.74558 1.01057 0
M  V30 4554 C 434.645 -1.90168 -0.457756 0
M  V30 4555 O 435.851 -2.60301 -0.771722 0
M  V30 4556 C 434.307 -3.13963 1.75941 0
M  V30 4557 C 433.915 -3.06361 3.26875 0
M  V30 4558 C 435.659 -3.91191 1.64832 0
M  V30 4559 C 433.566 -4.40782 3.94291 0
M  V30 4560 H 432.496 -0.654417 0.374505 0
M  V30 4561 H 435.147 -1.13521 1.44171 0
M  V30 4562 H 433.529 -3.75549 1.25614 0
M  V30 4563 H 434.703 -2.54074 3.84425 0
M  V30 4564 H 433.018 -2.42625 3.38411 0
M  V30 4565 H 435.615 -4.90644 2.12539 0
M  V30 4566 H 435.958 -4.11884 0.604745 0
M  V30 4567 H 436.491 -3.36236 2.12579 0
M  V30 4568 H 433.23 -4.25292 4.98805 0
M  V30 4569 H 432.75 -4.9307 3.41529 0
M  V30 4570 H 434.429 -5.09621 3.98617 0
M  V30 4571 N 434.561 -1.01147 -1.20859 0
M  V30 4572 C 435.786 -0.716698 -1.94623 0
M  V30 4573 C 436.211 0.715415 -1.73964 0
M  V30 4574 O 435.569 1.49157 -1.03062 0
M  V30 4575 C 435.617 -1.0513 -3.44935 0
M  V30 4576 O 434.721 -0.160131 -4.12089 0
M  V30 4577 H 434.062 -0.266404 -0.608214 0
M  V30 4578 H 436.592 -1.35346 -1.53436 0
M  V30 4579 H 436.602 -1.00086 -3.95533 0
M  V30 4580 H 435.277 -2.09475 -3.59295 0
M  V30 4581 H 433.854 -0.267657 -3.71938 0
M  V30 4582 N 436.039 1.36541 -0.78704 0
M  V30 4583 C 437.002 2.28413 -0.189778 0
M  V30 4584 C 438.002 1.48719 0.611499 0
M  V30 4585 O 439.192 1.68737 0.432842 0
M  V30 4586 C 436.324 3.32824 0.737638 0
M  V30 4587 H 437.517 2.82743 -0.999831 0
M  V30 4588 H 435.07 1.46065 -0.556298 0
M  V30 4589 H 435.805 2.83646 1.57212 0
M  V30 4590 H 435.59 3.91752 0.165044 0
M  V30 4591 H 437.08 4.0144 1.15047 0
M  V30 4592 N 437.518 0.538854 1.48102 0
M  V30 4593 C 438.929 0.100679 1.86428 0
M  V30 4594 C 439.28 -1.32447 1.44749 0
M  V30 4595 O 438.405 -1.99339 0.842199 0
M  V30 4596 C 439 0.175933 3.38343 0
M  V30 4597 C 437.559 -0.207098 3.7583 0
M  V30 4598 C 436.706 0.531741 2.72154 0
M  V30 4599 H 439.657 0.749614 1.3988 0
M  V30 4600 H 439.678 -0.610144 3.75576 0
M  V30 4601 H 439.19 1.21328 3.68648 0
M  V30 4602 H 437.291 -1.24626 3.5114 0
M  V30 4603 H 437.404 0.138687 4.78899 0
M  V30 4604 H 435.768 -0.0230462 2.5469 0
M  V30 4605 H 436.551 1.56989 3.05302 0
M  V30 4606 N 438.996 -1.55193 0.274407 0
M  V30 4607 C 440.412 -1.59401 -0.0797543 0
M  V30 4608 C 440.612 -1.29162 -1.54659 0
M  V30 4609 O 439.668 -1.05215 -2.29534 0
M  V30 4610 C 440.981 -2.99257 0.294238 0
M  V30 4611 C 442.529 -3.12072 0.240796 0
M  V30 4612 C 443.004 -4.54194 0.589218 0
M  V30 4613 N 444.495 -4.60033 0.540744 0
M  V30 4614 C 445.23 -5.68027 0.783147 0
M  V30 4615 N 444.726 -6.8417 1.09013 0
M  V30 4616 N 446.519 -5.57572 0.711993 0
M  V30 4617 H 438.67 -1.73113 1.23067 0
M  V30 4618 H 440.933 -0.807197 0.497129 0
M  V30 4619 H 440.639 -3.26217 1.31435 0
M  V30 4620 H 440.513 -3.75427 -0.365281 0
M  V30 4621 H 442.9 -2.84877 -0.770024 0
M  V30 4622 H 442.981 -2.38117 0.934563 0
M  V30 4623 H 442.625 -4.82115 1.59772 0
M  V30 4624 H 442.555 -5.26448 -0.126331 0
M  V30 4625 H 445.046 -3.76599 0.313327 0
M  V30 4626 H 445.359 -7.6243 1.26178 0
M  V30 4627 H 443.704 -6.85787 1.12789 0
M  V30 4628 H 446.895 -4.65714 0.472014 0
M  V30 4629 H 447.068 -6.41659 0.90429 0
M  V30 4630 N 440.474 -0.00167713 -1.576 0
M  V30 4631 C 441.699 0.69739 -1.95323 0
M  V30 4632 C 442.124 1.6642 -0.876706 0
M  V30 4633 O 441.482 1.80548 0.165007 0
M  V30 4634 C 441.53 1.40403 -3.32144 0
M  V30 4635 O 440.634 2.5185 -3.26566 0
M  V30 4636 H 439.975 0.185373 -0.637599 0
M  V30 4637 H 442.505 -0.0553665 -2.04525 0
M  V30 4638 H 442.515 1.76707 -3.67748 0
M  V30 4639 H 441.19 0.695167 -4.10049 0
M  V30 4640 H 439.767 2.17861 -3.0264 0
M  V30 4641 N 441.952 1.55251 0.271103 0
M  V30 4642 C 443.201 1.75151 1.00025 0
M  V30 4643 C 443.514 0.561041 1.87381 0
M  V30 4644 O 444.72 0.642506 2.63788 0
M  V30 4645 C 443.176 3.09999 1.82835 0
M  V30 4646 C 442.784 4.3662 1.00336 0
M  V30 4647 C 444.528 3.39249 2.55168 0
M  V30 4648 C 442.435 5.62506 1.82595 0
M  V30 4649 H 441.365 0.652877 0.377183 0
M  V30 4650 H 444.016 1.81708 0.255843 0
M  V30 4651 H 442.398 2.97485 2.61378 0
M  V30 4652 H 443.572 4.60055 0.261959 0
M  V30 4653 H 441.887 4.14527 0.394486 0
M  V30 4654 H 444.484 4.3051 3.1712 0
M  V30 4655 H 444.827 2.59467 3.2555 0
M  V30 4656 H 445.36 3.52869 1.83653 0
M  V30 4657 H 442.099 6.45041 1.16631 0
M  V30 4658 H 441.619 5.43211 2.54327 0
M  V30 4659 H 443.298 6.00875 2.39913 0
M  V30 4660 N 443.43 -0.535701 1.48216 0
M  V30 4661 C 444.678 -1.28928 1.55634 0
M  V30 4662 C 444.999 -1.93645 0.229514 0
M  V30 4663 O 444.269 -1.81038 -0.74846 0
M  V30 4664 H 442.849 -0.47884 0.573342 0
M  V30 4665 H 445.511 -0.623853 1.84646 0
M  V30 4666 H 444.607 -2.07157 2.33436 0
M  V30 4667 N 444.908 -1.36708 -0.784132 0
M  V30 4668 C 445.838 -1.34153 -1.91116 0
M  V30 4669 C 446.819 -0.212121 -1.68772 0
M  V30 4670 O 448.004 -0.410581 -1.8981 0
M  V30 4671 C 445.134 -1.13535 -3.28218 0
M  V30 4672 C 444.088 -2.23356 -3.65097 0
M  V30 4673 C 443.414 -1.87875 -5.00607 0
M  V30 4674 C 444.714 -3.65473 -3.73131 0
M  V30 4675 H 446.408 -2.28459 -1.93512 0
M  V30 4676 H 443.954 -1.09973 -0.929618 0
M  V30 4677 H 445.907 -1.10381 -4.06687 0
M  V30 4678 H 444.631 -0.156804 -3.26223 0
M  V30 4679 H 443.29 -2.25645 -2.88929 0
M  V30 4680 H 442.938 -0.885814 -4.95139 0
M  V30 4681 H 442.638 -2.61406 -5.26252 0
M  V30 4682 H 444.162 -1.86286 -5.81489 0
M  V30 4683 H 445.576 -3.65382 -4.41779 0
M  V30 4684 H 443.973 -4.37953 -4.10265 0
M  V30 4685 H 445.043 -3.99995 -2.74102 0
M  V30 4686 N 446.386 1.0089 -1.21074 0
M  V30 4687 C 447.336 2.0799 -0.934034 0
M  V30 4688 C 448.32 1.60529 0.10919 0
M  V30 4689 O 449.512 1.76722 -0.0992198 0
M  V30 4690 C 446.641 3.39693 -0.496334 0
M  V30 4691 C 445.727 3.93833 -1.57341 0
M  V30 4692 N 446.118 4.21388 -2.7976 0
M  V30 4693 C 444.416 4.22067 -1.44137 0
M  V30 4694 C 445.117 4.65156 -3.49292 0
M  V30 4695 N 444.093 4.67895 -2.76722 0
M  V30 4696 H 447.895 2.27213 -1.86417 0
M  V30 4697 H 445.409 1.18927 -1.10589 0
M  V30 4698 H 447.406 4.15962 -0.279471 0
M  V30 4699 H 446.066 3.21879 0.427084 0
M  V30 4700 H 447.077 4.10061 -3.1634 0
M  V30 4701 H 443.754 4.1341 -0.582947 0
M  V30 4702 H 445.144 4.95231 -4.54088 0
M  V30 4703 N 447.864 1.01787 1.20321 0
M  V30 4704 C 449.094 0.72614 1.93419 0
M  V30 4705 C 449.502 -0.717317 1.75075 0
M  V30 4706 O 448.845 -1.49836 1.06278 0
M  V30 4707 C 448.907 0.983621 3.45782 0
M  V30 4708 C 448.571 2.41645 3.87888 0
M  V30 4709 C 449.568 3.39732 3.93545 0
M  V30 4710 C 447.253 2.75752 4.19841 0
M  V30 4711 C 449.247 4.69988 4.30569 0
M  V30 4712 C 446.934 4.06221 4.56539 0
M  V30 4713 C 447.932 5.0315 4.61876 0
M  V30 4714 O 447.62 6.31284 4.97731 0
M  V30 4715 H 447.352 0.265824 0.621541 0
M  V30 4716 H 449.906 1.3623 1.53722 0
M  V30 4717 H 448.136 0.290301 3.85609 0
M  V30 4718 H 449.825 0.683279 4.00108 0
M  V30 4719 H 450.591 3.14718 3.69022 0
M  V30 4720 H 446.47 2.00993 4.14877 0
M  V30 4721 H 450.014 5.45642 4.3465 0
M  V30 4722 H 445.911 4.31013 4.80518 0
M  V30 4723 H 446.679 6.35591 5.15719 0
M  V30 4724 N 449.342 -1.36122 0.79427 0
M  V30 4725 C 450.272 -2.32551 0.210328 0
M  V30 4726 C 451.253 -1.56884 -0.657386 0
M  V30 4727 O 452.438 -1.85014 -0.590207 0
M  V30 4728 C 449.568 -3.41128 -0.651819 0
M  V30 4729 C 448.522 -4.27842 0.116395 0
M  V30 4730 C 447.848 -5.2763 -0.86666 0
M  V30 4731 C 449.148 -5.05647 1.30837 0
M  V30 4732 H 450.842 -2.81636 1.01594 0
M  V30 4733 H 448.388 -1.35407 0.489981 0
M  V30 4734 H 450.341 -4.07581 -1.07031 0
M  V30 4735 H 449.065 -2.90622 -1.49019 0
M  V30 4736 H 447.724 -3.62952 0.515915 0
M  V30 4737 H 447.372 -4.73395 -1.70019 0
M  V30 4738 H 447.072 -5.86514 -0.35705 0
M  V30 4739 H 448.596 -5.96955 -1.28361 0
M  V30 4740 H 450.01 -5.65113 0.965393 0
M  V30 4741 H 448.407 -5.73967 1.75161 0
M  V30 4742 H 449.477 -4.37006 2.10128 0
M  V30 4743 N 450.82 -0.546701 -1.47814 0
M  V30 4744 C 451.783 0.196287 -2.28358 0
M  V30 4745 C 452.783 0.852437 -1.36346 0
M  V30 4746 O 453.973 0.709913 -1.59078 0
M  V30 4747 C 451.105 1.28579 -3.15722 0
M  V30 4748 H 452.298 -0.511086 -2.95513 0
M  V30 4749 H 449.851 -0.303248 -1.5333 0
M  V30 4750 H 450.586 2.0259 -2.53235 0
M  V30 4751 H 450.371 0.820229 -3.83425 0
M  V30 4752 H 451.861 1.80793 -3.76435 0
M  V30 4753 N 452.299 1.55045 -0.282633 0
M  V30 4754 C 453.527 2.04168 0.33512 0
M  V30 4755 C 453.942 1.16071 1.48906 0
M  V30 4756 O 453.299 0.182391 1.81586 0
M  V30 4757 C 453.35 3.52332 0.808957 0
M  V30 4758 O 453.071 4.37078 -0.299038 0
M  V30 4759 C 454.572 4.17375 1.49375 0
M  V30 4760 H 451.792 0.666744 0.0754543 0
M  V30 4761 H 454.336 2.00205 -0.416918 0
M  V30 4762 H 452.491 3.56715 1.51106 0
M  V30 4763 H 452.905 5.24458 0.0665514 0
M  V30 4764 H 454.379 5.22627 1.77664 0
M  V30 4765 H 454.856 3.65999 2.42778 0
M  V30 4766 H 455.462 4.17016 0.835305 0
M  V30 4767 N 453.777 0.010035 1.57597 0
M  V30 4768 C 455.023 -0.668011 1.92118 0
M  V30 4769 C 455.378 -1.70821 0.885328 0
M  V30 4770 O 454.671 -1.91333 -0.101187 0
M  V30 4771 C 454.865 -1.34434 3.31153 0
M  V30 4772 C 454.694 -0.371176 4.48166 0
M  V30 4773 C 453.464 0.0220686 5.05295 0
M  V30 4774 C 455.662 0.366731 5.12991 0
M  V30 4775 N 453.644 0.9924 6.05826 0
M  V30 4776 C 455.015 1.19142 6.08445 0
M  V30 4777 C 457.07 0.429489 4.96044 0
M  V30 4778 C 455.773 2.07317 6.88776 0
M  V30 4779 C 457.799 1.2985 5.76969 0
M  V30 4780 C 457.161 2.11101 6.72023 0
M  V30 4781 H 453.26 -0.217337 0.751192 0
M  V30 4782 H 455.844 0.0727375 1.94564 0
M  V30 4783 H 454.015 -2.05533 3.29561 0
M  V30 4784 H 455.747 -1.97789 3.53075 0
M  V30 4785 H 452.502 -0.348409 4.72317 0
M  V30 4786 H 452.926 1.47324 6.60776 0
M  V30 4787 H 457.568 -0.18442 4.22398 0
M  V30 4788 H 455.286 2.69771 7.61741 0
M  V30 4789 H 458.872 1.3511 5.65894 0
M  V30 4790 H 457.752 2.77257 7.33552 0
M  V30 4791 N 455.255 -1.55392 -0.262866 0
M  V30 4792 C 456.502 -1.76476 -0.993109 0
M  V30 4793 C 456.83 -0.571479 -1.85915 0
M  V30 4794 O 456.085 0.445733 -1.90556 0
M  V30 4795 C 456.384 -3.02889 -1.89718 0
M  V30 4796 C 456.05 -4.34974 -1.18781 0
M  V30 4797 C 454.712 -4.7087 -0.991699 0
M  V30 4798 C 457.064 -5.16695 -0.683798 0
M  V30 4799 C 454.392 -5.86036 -0.279024 0
M  V30 4800 C 456.744 -6.32598 0.0153327 0
M  V30 4801 C 455.408 -6.67127 0.223062 0
M  V30 4802 H 454.678 -0.64577 -0.363404 0
M  V30 4803 H 457.325 -1.89664 -0.264525 0
M  V30 4804 H 455.63 -2.84644 -2.6923 0
M  V30 4805 H 457.327 -3.16399 -2.46359 0
M  V30 4806 H 453.917 -4.06765 -1.35058 0
M  V30 4807 H 458.101 -4.8943 -0.8229 0
M  V30 4808 H 453.357 -6.11306 -0.107456 0
M  V30 4809 H 457.531 -6.95171 0.413584 0
M  V30 4810 H 455.158 -7.56216 0.777265 0
M  V30 4811 N 456.733 0.527833 -1.48498 0
M  V30 4812 C 457.98 1.28354 -1.56625 0
M  V30 4813 C 458.308 1.93 -0.241096 0
M  V30 4814 O 457.563 1.79967 0.768798 0
M  V30 4815 C 457.862 2.39275 -2.65485 0
M  V30 4816 C 457.528 1.92268 -4.07853 0
M  V30 4817 C 456.19 1.79166 -4.46602 0
M  V30 4818 C 458.542 1.56771 -4.97064 0
M  V30 4819 C 455.87 1.28905 -5.72364 0
M  V30 4820 C 458.222 1.07972 -6.23318 0
M  V30 4821 C 456.886 0.934887 -6.60921 0
M  V30 4822 H 456.156 0.469682 -0.573131 0
M  V30 4823 H 458.803 0.588781 -1.82224 0
M  V30 4824 H 457.108 3.1443 -2.33754 0
M  V30 4825 H 458.805 2.974 -2.68988 0
M  V30 4826 H 455.395 2.03417 -3.77252 0
M  V30 4827 H 459.579 1.65753 -4.67803 0
M  V30 4828 H 454.835 1.16381 -6.00221 0
M  V30 4829 H 459.009 0.795775 -6.91838 0
M  V30 4830 H 456.636 0.543231 -7.58257 0
M  V30 4831 N 458.211 1.37122 0.776871 0
M  V30 4832 C 459.46 1.31373 1.53049 0
M  V30 4833 C 459.773 -0.101016 1.95339 0
M  V30 4834 O 460.979 -0.280953 2.70042 0
M  V30 4835 C 459.435 2.30567 2.76346 0
M  V30 4836 C 459.043 3.77543 2.41175 0
M  V30 4837 C 460.787 2.33818 3.54301 0
M  V30 4838 C 458.694 4.68481 3.60943 0
M  V30 4839 H 457.624 0.488234 0.574581 0
M  V30 4840 H 460.275 1.62554 0.851372 0
M  V30 4841 H 458.657 1.92396 3.46121 0
M  V30 4842 H 459.831 4.24521 1.79216 0
M  V30 4843 H 458.146 3.77187 1.76405 0
M  V30 4844 H 460.743 2.98965 4.4331 0
M  V30 4845 H 461.086 1.3503 3.93793 0
M  V30 4846 H 461.619 2.7067 2.91518 0
M  V30 4847 H 458.358 5.68378 3.26537 0
M  V30 4848 H 457.878 4.2621 4.22025 0
M  V30 4849 H 459.557 4.85366 4.27819 0
M  V30 4850 N 459.689 -1.00246 1.21608 0
M  V30 4851 C 460.966 -1.71336 0.943568 0
M  V30 4852 C 461.346 -2.03972 -0.543943 0
M  V30 4853 O 460.694 -1.71545 -1.50946 0
M  V30 4854 C 460.904 -2.97094 1.83128 0
M  V30 4855 C 462.252 -3.70071 2.08165 0
M  V30 4856 O 463.276 -3.07081 1.80498 0
M  V30 4857 O 462.135 -4.83376 2.54971 0
M  V30 4858 H 459.229 -0.747386 0.354039 0
M  V30 4859 H 461.775 -1.05967 1.32549 0
M  V30 4860 H 460.547 -2.69407 2.83788 0
M  V30 4861 H 460.17 -3.70204 1.45034 0
M  V30 4862 N 461.167 -1.02423 -1.1978 0
M  V30 4863 C 462.097 -0.62157 -2.25075 0
M  V30 4864 C 463.078 0.367148 -1.6609 0
M  V30 4865 O 464.263 0.250892 -1.92573 0
M  V30 4866 C 461.393 0.0331826 -3.47284 0
M  V30 4867 C 460.347 -0.877323 -4.18912 0
M  V30 4868 C 459.673 -0.0879296 -5.34628 0
M  V30 4869 C 460.973 -2.18892 -4.74219 0
M  V30 4870 H 462.667 -1.50179 -2.59011 0
M  V30 4871 H 460.213 -0.723547 -1.24502 0
M  V30 4872 H 462.166 0.326488 -4.20133 0
M  V30 4873 H 460.89 0.948164 -3.12534 0
M  V30 4874 H 459.549 -1.15475 -3.47938 0
M  V30 4875 H 459.197 0.828941 -4.96123 0
M  V30 4876 H 458.897 -0.694359 -5.83483 0
M  V30 4877 H 460.421 0.198743 -6.10276 0
M  V30 4878 H 461.835 -1.95746 -5.38847 0
M  V30 4879 H 460.232 -2.74686 -5.33542 0
M  V30 4880 H 461.302 -2.84674 -3.92541 0
M  V30 4881 N 462.645 1.35699 -0.801477 0
M  V30 4882 C 463.894 1.98165 -0.375979 0
M  V30 4883 C 464.207 1.64306 1.06127 0
M  V30 4884 O 465.413 2.20097 1.58964 0
M  V30 4885 C 463.869 3.54497 -0.621305 0
M  V30 4886 C 463.477 3.9727 -2.07076 0
M  V30 4887 C 465.221 4.23697 -0.26091 0
M  V30 4888 C 463.128 5.46427 -2.26211 0
M  V30 4889 H 462.058 0.741478 -0.136844 0
M  V30 4890 H 464.709 1.54834 -0.984814 0
M  V30 4891 H 463.091 3.95958 0.0574112 0
M  V30 4892 H 464.265 3.66974 -2.78687 0
M  V30 4893 H 462.58 3.40943 -2.39054 0
M  V30 4894 H 465.177 5.33334 -0.381994 0
M  V30 4895 H 465.52 4.0869 0.792344 0
M  V30 4896 H 466.053 3.87639 -0.893339 0
M  V30 4897 H 462.792 5.66396 -3.29963 0
M  V30 4898 H 462.312 5.78309 -1.59119 0
M  V30 4899 H 463.991 6.12819 -2.07513 0
M  V30 4900 N 464.123 0.554532 1.47522 0
M  V30 4901 C 465.086 -0.184174 2.28459 0
M  V30 4902 C 466.086 -0.845195 1.36796 0
M  V30 4903 O 467.276 -0.701467 1.59452 0
M  V30 4904 C 464.408 -1.26903 3.16399 0
M  V30 4905 H 465.601 0.526751 2.95238 0
M  V30 4906 H 463.154 0.311375 1.53167 0
M  V30 4907 H 463.889 -2.01244 2.54306 0
M  V30 4908 H 463.674 -0.799883 3.83854 0
M  V30 4909 H 465.164 -1.78794 3.77389 0
M  V30 4910 N 465.601 -1.54893 0.290851 0
M  V30 4911 C 466.564 -2.21824 -0.576784 0
M  V30 4912 C 467.564 -1.20104 -1.06919 0
M  V30 4913 O 468.754 -1.44906 -0.966843 0
M  V30 4914 C 465.886 -2.89662 -1.79747 0
M  V30 4915 H 467.079 -2.99899 0.00784051 0
M  V30 4916 H 464.632 -1.56245 0.0415934 0
M  V30 4917 H 465.367 -2.15639 -2.42219 0
M  V30 4918 H 465.152 -3.64219 -1.45214 0
M  V30 4919 H 466.642 -3.4075 -2.4141 0
M  V30 4920 N 467.08 -0.0183926 -1.57589 0
M  V30 4921 C 468.01 0.965596 -2.12599 0
M  V30 4922 C 468.991 1.34641 -1.0395 0
M  V30 4923 O 470.176 1.42693 -1.31729 0
M  V30 4924 C 467.306 2.25149 -2.64434 0
M  V30 4925 C 466.26 2.01175 -3.77773 0
M  V30 4926 C 465.586 3.35937 -4.15994 0
M  V30 4927 C 466.886 1.35953 -5.04296 0
M  V30 4928 H 468.58 0.507504 -2.95067 0
M  V30 4929 H 466.126 0.242671 -1.41941 0
M  V30 4930 H 468.079 2.94357 -3.01549 0
M  V30 4931 H 466.803 2.73105 -1.79112 0
M  V30 4932 H 465.462 1.34388 -3.4108 0
M  V30 4933 H 465.11 3.81631 -3.27669 0
M  V30 4934 H 464.81 3.20705 -4.92364 0
M  V30 4935 H 466.334 4.0643 -4.55683 0
M  V30 4936 H 467.748 1.95144 -5.39065 0
M  V30 4937 H 466.145 1.31152 -5.85593 0
M  V30 4938 H 467.215 0.331071 -4.83768 0
M  V30 4939 N 468.558 1.5553 0.254621 0
M  V30 4940 C 469.969 1.67518 0.824286 0
M  V30 4941 C 470.32 0.614429 1.86331 0
M  V30 4942 O 469.445 -0.240736 2.15057 0
M  V30 4943 C 470.04 3.03692 1.50189 0
M  V30 4944 C 468.599 3.17646 2.01935 0
M  V30 4945 C 467.746 2.63373 0.867746 0
M  V30 4946 H 470.697 1.58671 0.0305843 0
M  V30 4947 H 470.718 2.97706 2.36962 0
M  V30 4948 H 470.23 3.80874 0.745431 0
M  V30 4949 H 468.331 2.45273 2.80485 0
M  V30 4950 H 468.444 4.24455 2.22204 0
M  V30 4951 H 466.808 2.20999 1.26616 0
M  V30 4952 H 467.591 3.43074 0.124498 0
M  V30 4953 N 470.036 -0.519951 1.48776 0
M  V30 4954 C 471.283 -1.27522 1.57303 0
M  V30 4955 C 471.611 -1.92869 0.251328 0
M  V30 4956 O 470.866 -1.80372 -0.759243 0
M  V30 4957 C 471.165 -2.37864 2.6675 0
M  V30 4958 C 470.831 -1.90103 4.08867 0
M  V30 4959 C 469.493 -1.76795 4.47546 0
M  V30 4960 C 471.845 -1.54133 4.97888 0
M  V30 4961 C 469.173 -1.25868 5.73039 0
M  V30 4962 C 471.525 -1.04665 6.23881 0
M  V30 4963 C 470.189 -0.899823 6.61407 0
M  V30 4964 H 469.459 -0.466636 0.575614 0
M  V30 4965 H 472.106 -0.579109 1.82534 0
M  V30 4966 H 470.411 -3.13186 2.35418 0
M  V30 4967 H 472.108 -2.95969 2.70561 0
M  V30 4968 H 468.698 -2.01414 3.78326 0
M  V30 4969 H 472.882 -1.6327 4.68675 0
M  V30 4970 H 468.138 -1.13196 6.0083 0
M  V30 4971 H 472.312 -0.759074 6.92251 0
M  V30 4972 H 469.939 -0.503011 7.58534 0
M  V30 4973 N 471.514 -1.37532 -0.769588 0
M  V30 4974 C 472.791 -1.23392 -1.51768 0
M  V30 4975 C 473.171 0.17157 -2.10402 0
M  V30 4976 O 472.519 1.17943 -1.95708 0
M  V30 4977 C 472.729 -2.33163 -2.59685 0
M  V30 4978 C 474.077 -2.70809 -3.27028 0
M  V30 4979 O 475.101 -2.32355 -2.69981 0
M  V30 4980 O 473.96 -3.37066 -4.30173 0
M  V30 4981 H 471.054 -0.481617 -0.67229 0
M  V30 4982 H 473.6 -1.49318 -0.806368 0
M  V30 4983 H 472.372 -3.27273 -2.14494 0
M  V30 4984 H 471.995 -2.08713 -3.38415 0
M  V30 4985 N 472.992 0.995999 -1.22138 0
M  V30 4986 C 473.922 2.10387 -1.01289 0
M  V30 4987 C 474.903 1.69975 0.0651454 0
M  V30 4988 O 476.088 1.9396 -0.0964628 0
M  V30 4989 C 473.218 3.42312 -0.586517 0
M  V30 4990 C 472.172 3.96558 -1.61014 0
M  V30 4991 C 471.498 5.24494 -1.0397 0
M  V30 4992 C 472.798 4.27595 -2.99933 0
M  V30 4993 H 474.492 2.28086 -1.93951 0
M  V30 4994 H 472.038 1.09607 -0.933928 0
M  V30 4995 H 473.991 4.19223 -0.427793 0
M  V30 4996 H 472.715 3.24431 0.375761 0
M  V30 4997 H 471.374 3.21776 -1.75658 0
M  V30 4998 H 471.022 5.02953 -0.0688703 0
M  V30 4999 H 470.722 5.61755 -1.72352 0
M  V30 5000 H 472.246 6.04042 -0.892494 0
M  V30 5001 H 473.66 4.95315 -2.8868 0
M  V30 5002 H 472.057 4.76021 -3.6541 0
M  V30 5003 H 473.127 3.35498 -3.50099 0
M  V30 5004 N 474.47 1.03057 1.19235 0
M  V30 5005 C 475.4 0.633497 2.24742 0
M  V30 5006 C 476.381 -0.358335 1.66283 0
M  V30 5007 O 477.566 -0.240676 1.92703 0
M  V30 5008 C 474.696 -0.0147648 3.47297 0
M  V30 5009 C 473.65 0.899527 4.18441 0
M  V30 5010 C 472.976 0.116281 5.34574 0
M  V30 5011 C 474.276 2.21404 4.73051 0
M  V30 5012 H 475.97 1.5155 2.58211 0
M  V30 5013 H 473.516 0.73014 1.24117 0
M  V30 5014 H 475.469 -0.304202 4.20301 0
M  V30 5015 H 474.193 -0.931577 3.13032 0
M  V30 5016 H 472.852 1.17319 3.47321 0
M  V30 5017 H 472.5 -0.802619 4.96555 0
M  V30 5018 H 472.2 0.725293 5.83107 0
M  V30 5019 H 473.724 -0.166376 6.10373 0
M  V30 5020 H 475.138 1.98601 5.37802 0
M  V30 5021 H 473.535 2.77512 5.32078 0
M  V30 5022 H 474.605 2.86752 3.91026 0
M  V30 5023 N 475.948 -1.35272 0.808662 0
M  V30 5024 C 477.178 -2.02652 0.401953 0
M  V30 5025 C 477.586 -1.6108 -0.992462 0
M  V30 5026 O 476.929 -0.804984 -1.65123 0
M  V30 5027 C 476.991 -3.57174 0.408246 0
M  V30 5028 C 476.655 -4.22019 1.75353 0
M  V30 5029 C 477.652 -4.43552 2.71215 0
M  V30 5030 C 475.337 -4.59093 2.03811 0
M  V30 5031 C 477.331 -5.01264 3.93717 0
M  V30 5032 C 475.018 -5.16519 3.26576 0
M  V30 5033 C 476.016 -5.37546 4.21347 0
M  V30 5034 O 475.704 -5.93761 5.41944 0
M  V30 5035 H 475.436 -0.656495 0.161216 0
M  V30 5036 H 477.99 -1.73829 1.0942 0
M  V30 5037 H 476.22 -3.85197 -0.340608 0
M  V30 5038 H 477.909 -4.05893 0.0235623 0
M  V30 5039 H 478.675 -4.15288 2.50522 0
M  V30 5040 H 474.554 -4.42039 1.30854 0
M  V30 5041 H 478.098 -5.17592 4.67701 0
M  V30 5042 H 473.995 -5.4421 3.47139 0
M  V30 5043 H 474.763 -6.1221 5.43269 0
M  V30 5044 N 477.426 -0.562348 -1.47226 0
M  V30 5045 C 478.675 -0.038041 -2.01664 0
M  V30 5046 C 478.988 1.32199 -1.44162 0
M  V30 5047 O 480.194 1.9365 -1.90294 0
M  V30 5048 C 478.65 -0.0174958 -3.59896 0
M  V30 5049 C 478.258 -1.3746 -4.2639 0
M  V30 5050 C 480.002 0.453934 -4.22066 0
M  V30 5051 C 477.909 -1.31289 -5.76643 0
M  V30 5052 H 476.839 -0.0104511 -0.753928 0
M  V30 5053 H 479.49 -0.710966 -1.69167 0
M  V30 5054 H 477.872 0.721182 -3.89378 0
M  V30 5055 H 479.046 -2.1314 -4.08544 0
M  V30 5056 H 477.361 -1.78438 -3.7623 0
M  V30 5057 H 479.958 0.518584 -5.32179 0
M  V30 5058 H 480.301 1.46706 -3.89594 0
M  V30 5059 H 480.834 -0.230044 -3.97134 0
M  V30 5060 H 477.573 -2.30217 -6.13743 0
M  V30 5061 H 477.093 -0.597973 -5.96812 0
M  V30 5062 H 478.772 -1.01713 -6.38955 0
M  V30 5063 N 478.904 1.54736 -0.299062 0
M  V30 5064 C 480.151 2.00101 0.310784 0
M  V30 5065 C 480.479 1.18746 1.54045 0
M  V30 5066 O 479.734 0.251198 1.94081 0
M  V30 5067 C 480.033 3.50199 0.713835 0
M  V30 5068 C 479.699 4.48997 -0.413873 0
M  V30 5069 C 478.361 4.7573 -0.723462 0
M  V30 5070 C 480.713 5.07839 -1.17257 0
M  V30 5071 C 478.041 5.5857 -1.79491 0
M  V30 5072 C 480.393 5.91844 -2.23392 0
M  V30 5073 C 479.057 6.16889 -2.54959 0
M  V30 5074 H 478.327 0.732221 0.113724 0
M  V30 5075 H 480.974 1.86888 -0.417756 0
M  V30 5076 H 479.279 3.61012 1.52243 0
M  V30 5077 H 480.976 3.82723 1.19684 0
M  V30 5078 H 477.566 4.28292 -0.162476 0
M  V30 5079 H 481.75 4.87188 -0.946651 0
M  V30 5080 H 477.006 5.76213 -2.04423 0
M  V30 5081 H 481.18 6.36465 -2.8264 0
M  V30 5082 H 478.807 6.80869 -3.38114 0
M  V30 5083 N 480.382 0.0267497 1.57577 0
M  V30 5084 C 481.33 -0.973923 2.11229 0
M  V30 5085 C 482.324 -1.33849 1.03831 0
M  V30 5086 O 483.53 -1.321 1.22269 0
M  V30 5087 H 479.905 -0.331844 0.674821 0
M  V30 5088 H 481.876 -0.496092 2.94247 0
M  V30 5089 C 480.625 -2.24798 2.65257 0
M  V30 5090 H 479.948 -1.9762 3.47543 0
M  V30 5091 H 481.388 -2.93031 3.06445 0
M  V30 5092 C 479.847 -2.97611 1.57891 0
M  V30 5093 O 480.377 -3.89629 0.97735 0
M  V30 5094 N 478.583 -2.59905 1.29992 0
M  V30 5095 H 478.13 -1.85154 1.79097 0
M  V30 5096 H 478.088 -3.08932 0.583798 0
M  V30 5097 N 481.861 -1.55662 -0.24637 0
M  V30 5098 C 483.11 -1.7672 -0.972254 0
M  V30 5099 C 483.423 -0.59078 -1.86465 0
M  V30 5100 O 484.629 -0.684391 -2.62732 0
M  V30 5101 C 483.085 -3.12869 -1.7788 0
M  V30 5102 C 482.693 -4.38161 -0.933768 0
M  V30 5103 C 484.437 -3.43265 -2.49738 0
M  V30 5104 C 482.344 -5.6534 -1.73623 0
M  V30 5105 H 481.274 -0.658795 -0.366749 0
M  V30 5106 H 483.925 -1.82092 -0.226902 0
M  V30 5107 H 482.307 -3.01606 -2.56612 0
M  V30 5108 H 483.481 -4.60413 -0.188736 0
M  V30 5109 H 481.796 -4.15102 -0.328488 0
M  V30 5110 H 484.393 -4.35501 -3.10231 0
M  V30 5111 H 484.736 -2.64614 -3.2138 0
M  V30 5112 H 485.269 -3.55746 -1.78016 0
M  V30 5113 H 482.008 -6.46814 -1.06354 0
M  V30 5114 H 481.528 -5.47188 -2.45653 0
M  V30 5115 H 483.207 -6.04616 -2.30323 0
M  V30 5116 N 483.339 0.512053 -1.4905 0
M  V30 5117 C 484.567 1.29116 -1.61669 0
M  V30 5118 C 484.982 1.86655 -0.283787 0
M  V30 5119 O 484.339 1.67293 0.729331 0
M  V30 5120 C 484.39 2.4293 -2.67707 0
M  V30 5121 O 484.111 1.87758 -3.95826 0
M  V30 5122 C 485.612 3.34476 -2.90931 0
M  V30 5123 H 482.832 0.392009 -0.544583 0
M  V30 5124 H 485.376 0.615881 -1.95006 0
M  V30 5125 H 483.531 3.06308 -2.37179 0
M  V30 5126 H 483.945 2.62393 -4.54148 0
M  V30 5127 H 485.419 4.10642 -3.68886 0
M  V30 5128 H 485.896 3.90801 -2.00427 0
M  V30 5129 H 486.502 2.76874 -3.22832 0
M  V30 5130 N 484.817 1.37938 0.762283 0
M  V30 5131 C 486.063 1.33866 1.52341 0
M  V30 5132 C 486.396 -0.0738961 1.94059 0
M  V30 5133 O 485.671 -1.03326 1.64785 0
M  V30 5134 C 485.954 2.28644 2.78197 0
M  V30 5135 C 485.807 3.78722 2.42672 0
M  V30 5136 C 487.126 2.21702 3.80179 0
M  V30 5137 H 484.245 0.487593 0.55265 0
M  V30 5138 H 486.887 1.68717 0.873767 0
M  V30 5139 H 485.037 1.99055 3.33631 0
M  V30 5140 H 486.709 4.18948 1.93081 0
M  V30 5141 H 484.952 3.96827 1.75244 0
M  V30 5142 H 485.623 4.40486 3.3268 0
M  V30 5143 H 488.099 2.47805 3.34263 0
M  V30 5144 H 486.975 2.90143 4.65949 0
M  V30 5145 H 487.236 1.21301 4.25133 0
M  V30 5146 N 486.295 -0.989507 1.22664 0
M  V30 5147 C 487.523 -1.76496 1.07967 0
M  V30 5148 C 487.938 -1.85148 -0.369543 0
M  V30 5149 O 487.295 -1.32408 -1.25596 0
M  V30 5150 C 487.346 -3.19642 1.68853 0
M  V30 5151 O 487.067 -3.11453 3.08105 0
M  V30 5152 C 488.568 -4.13621 1.59475 0
M  V30 5153 H 485.788 -0.55418 0.378319 0
M  V30 5154 H 488.332 -1.24378 1.62328 0
M  V30 5155 H 486.487 -3.68816 1.18547 0
M  V30 5156 H 486.901 -4.01499 3.37489 0
M  V30 5157 H 488.375 -5.11801 2.06795 0
M  V30 5158 H 488.852 -4.35718 0.55191 0
M  V30 5159 H 489.458 -3.70346 2.09103 0
M  V30 5160 N 487.773 -1.03688 -1.18687 0
M  V30 5161 C 488.998 -0.757819 -1.93059 0
M  V30 5162 C 489.423 0.678353 -1.75442 0
M  V30 5163 O 488.781 1.46938 -1.06203 0
M  V30 5164 C 488.829 -1.12423 -3.42627 0
M  V30 5165 O 487.933 -0.247505 -4.11657 0
M  V30 5166 H 487.274 -0.279245 -0.602427 0
M  V30 5167 H 489.804 -1.3857 -1.5053 0
M  V30 5168 H 489.814 -1.08454 -3.93322 0
M  V30 5169 H 488.489 -2.17049 -3.54771 0
M  V30 5170 H 487.066 -0.34649 -3.71287 0
M  V30 5171 N 489.251 1.34841 -0.815825 0
M  V30 5172 C 490.181 2.32187 -0.247298 0
M  V30 5173 C 491.162 1.5791 0.632344 0
M  V30 5174 O 492.347 1.8593 0.560698 0
M  V30 5175 C 489.477 3.42122 0.597466 0
M  V30 5176 C 488.431 4.27602 -0.184446 0
M  V30 5177 C 487.757 5.28942 0.782609 0
M  V30 5178 C 489.057 5.03502 -1.38865 0
M  V30 5179 H 490.751 2.79985 -1.06061 0
M  V30 5180 H 488.297 1.34611 -0.511461 0
M  V30 5181 H 490.25 4.09232 1.00533 0
M  V30 5182 H 488.974 2.92956 1.44376 0
M  V30 5183 H 487.633 3.62085 -0.573592 0
M  V30 5184 H 487.281 4.7604 1.62466 0
M  V30 5185 H 486.981 5.87008 0.263695 0
M  V30 5186 H 488.505 5.98922 1.18848 0
M  V30 5187 H 489.919 5.63506 -1.05518 0
M  V30 5188 H 488.316 5.71108 -1.8427 0
M  V30 5189 H 489.386 4.33608 -2.17054 0
M  V30 5190 N 490.729 0.570148 1.46925 0
M  V30 5191 C 491.975 0.0510284 2.02736 0
M  V30 5192 C 492.308 -1.3006 1.44215 0
M  V30 5193 O 491.583 -1.84932 0.602521 0
M  V30 5194 C 491.866 -0.028215 3.60089 0
M  V30 5195 C 491.719 1.35142 4.29018 0
M  V30 5196 C 493.038 -0.735181 4.33916 0
M  V30 5197 H 490.157 0.0200178 0.736728 0
M  V30 5198 H 492.799 0.73493 1.75211 0
M  V30 5199 H 490.949 -0.610648 3.83671 0
M  V30 5200 H 492.621 1.97806 4.16738 0
M  V30 5201 H 490.864 1.9226 3.88868 0
M  V30 5202 H 491.535 1.24857 5.37694 0
M  V30 5203 H 494.011 -0.240519 4.15404 0
M  V30 5204 H 492.887 -0.759622 5.43618 0
M  V30 5205 H 493.148 -1.79397 4.04066 0
M  V30 5206 N 492.207 -1.54576 0.307264 0
M  V30 5207 C 493.157 -2.20467 -0.581249 0
M  V30 5208 C 494.141 -1.17972 -1.09414 0
M  V30 5209 O 495.333 -1.43667 -1.03387 0
M  V30 5210 C 492.462 -2.95369 -1.74963 0
M  V30 5211 C 491.548 -4.05186 -1.25241 0
M  V30 5212 N 491.939 -5.03577 -0.47364 0
M  V30 5213 C 490.237 -4.18841 -1.53259 0
M  V30 5214 C 490.938 -5.81328 -0.208083 0
M  V30 5215 N 489.914 -5.37834 -0.789651 0
M  V30 5216 H 493.716 -2.93892 0.0212221 0
M  V30 5217 H 491.23 -1.62011 0.112325 0
M  V30 5218 H 493.227 -3.41046 -2.39777 0
M  V30 5219 H 491.887 -2.23461 -2.35574 0
M  V30 5220 H 492.898 -5.17766 -0.117963 0
M  V30 5221 H 489.575 -3.58141 -2.14573 0
M  V30 5222 H 490.965 -6.706 0.417793 0
M  V30 5223 N 493.685 -0.035106 -1.57561 0
M  V30 5224 C 494.615 0.942993 -2.13612 0
M  V30 5225 C 495.596 1.33531 -1.05373 0
M  V30 5226 O 496.781 1.41287 -1.33235 0
M  V30 5227 C 493.911 2.22332 -2.66807 0
M  V30 5228 C 492.865 1.97156 -3.79886 0
M  V30 5229 C 492.191 3.31506 -4.19533 0
M  V30 5230 C 493.491 1.30596 -5.05709 0
M  V30 5231 H 495.185 0.476179 -2.95589 0
M  V30 5232 H 492.731 0.227602 -1.4219 0
M  V30 5233 H 494.684 2.91142 -3.04654 0
M  V30 5234 H 493.408 2.7119 -1.81999 0
M  V30 5235 H 492.067 1.30763 -3.42486 0
M  V30 5236 H 491.715 3.78134 -3.31698 0
M  V30 5237 H 491.415 3.15465 -4.95738 0
M  V30 5238 H 492.939 4.01574 -4.59968 0
M  V30 5239 H 494.353 1.89416 -5.41105 0
M  V30 5240 H 492.75 1.24934 -5.86951 0
M  V30 5241 H 493.82 0.279742 -4.84092 0
M  V30 5242 N 495.163 1.55791 0.238111 0
M  V30 5243 C 496.093 1.94068 1.29846 0
M  V30 5244 C 497.074 0.806726 1.49753 0
M  V30 5245 O 498.259 1.06772 1.62214 0
M  V30 5246 C 495.389 2.24302 2.65153 0
M  V30 5247 C 494.343 3.40032 2.59927 0
M  V30 5248 C 493.669 3.55829 3.99111 0
M  V30 5249 C 494.969 4.75476 2.16148 0
M  V30 5250 H 496.663 2.82887 0.980563 0
M  V30 5251 H 494.209 1.36105 0.470253 0
M  V30 5252 H 496.162 2.4967 3.39475 0
M  V30 5253 H 494.886 1.32318 2.98596 0
M  V30 5254 H 493.545 3.14687 1.88063 0
M  V30 5255 H 493.193 2.6125 4.29834 0
M  V30 5256 H 492.893 4.3366 3.96501 0
M  V30 5257 H 494.417 3.83528 4.7512 0
M  V30 5258 H 495.831 5.00158 2.80205 0
M  V30 5259 H 494.228 5.56472 2.24631 0
M  V30 5260 H 495.298 4.71946 1.11333 0
M  V30 5261 N 496.642 -0.504142 1.49319 0
M  V30 5262 C 497.589 -1.60603 1.65756 0
M  V30 5263 C 498.559 -1.58425 0.499082 0
M  V30 5264 O 499.744 -1.76459 0.725728 0
M  V30 5265 C 496.884 -2.98764 1.72726 0
M  V30 5266 C 495.997 -3.10982 2.99857 0
M  V30 5267 C 495.132 -4.39857 2.97824 0
M  V30 5268 C 494.171 -4.45697 4.19548 0
M  V30 5269 N 493.308 -5.65995 4.15444 0
M  V30 5270 H 498.148 -1.45895 2.59843 0
M  V30 5271 H 495.685 -0.709891 1.28837 0
M  V30 5272 H 497.643 -3.78839 1.74747 0
M  V30 5273 H 496.273 -3.12183 0.821075 0
M  V30 5274 H 495.325 -2.23991 3.07461 0
M  V30 5275 H 496.637 -3.11157 3.89849 0
M  V30 5276 H 495.791 -5.2825 2.98391 0
M  V30 5277 H 494.53 -4.42242 2.05604 0
M  V30 5278 H 493.535 -3.55707 4.19229 0
M  V30 5279 H 494.76 -4.4503 5.12957 0
M  V30 5280 H 492.706 -5.69229 3.26059 0
M  V30 5281 H 492.623 -5.67773 4.99169 0
M  V30 5282 H 493.891 -6.56604 4.20109 0
M  V30 5283 N 498.12 -1.38341 -0.754957 0
M  V30 5284 C 499.348 -1.37704 -1.54419 0
M  V30 5285 C 499.763 0.0335243 -1.8877 0
M  V30 5286 O 499.12 0.999773 -1.52679 0
M  V30 5287 C 499.171 -2.23136 -2.84416 0
M  V30 5288 O 498.892 -3.58697 -2.51531 0
M  V30 5289 C 500.393 -2.30664 -3.78562 0
M  V30 5290 H 497.613 -0.471061 -0.477852 0
M  V30 5291 H 500.157 -1.81902 -0.934446 0
M  V30 5292 H 498.312 -1.82403 -3.41772 0
M  V30 5293 H 498.726 -4.03665 -3.34896 0
M  V30 5294 H 500.2 -2.9473 -4.66732 0
M  V30 5295 H 500.677 -1.3199 -4.18898 0
M  V30 5296 H 501.283 -2.71781 -3.27131 0
M  V30 5297 N 499.598 0.982988 -1.23187 0
M  V30 5298 C 500.844 1.72648 -1.06398 0
M  V30 5299 C 501.177 1.90066 0.398561 0
M  V30 5300 O 500.452 1.45105 1.29518 0
M  V30 5301 C 500.735 3.12627 -1.78707 0
M  V30 5302 C 500.588 3.02795 -3.32618 0
M  V30 5303 C 501.907 4.11997 -1.54747 0
M  V30 5304 H 499.026 0.626649 -0.387918 0
M  V30 5305 H 501.668 1.14455 -1.51658 0
M  V30 5306 H 499.818 3.62308 -1.40234 0
M  V30 5307 H 501.49 2.60659 -3.80598 0
M  V30 5308 H 499.733 2.39362 -3.61785 0
M  V30 5309 H 500.404 4.01893 -3.78399 0
M  V30 5310 H 502.88 3.71114 -1.88186 0
M  V30 5311 H 501.756 5.08037 -2.07821 0
M  V30 5312 H 502.017 4.39462 -0.482249 0
M  V30 5313 N 501.076 1.04316 1.18135 0
M  V30 5314 C 502.492 0.762858 1.40188 0
M  V30 5315 C 502.692 -0.646547 1.90846 0
M  V30 5316 O 501.748 -1.41036 2.0944 0
M  V30 5317 C 503.061 1.81106 2.40044 0
M  V30 5318 C 504.609 1.83226 2.53766 0
M  V30 5319 C 505.084 2.87044 3.56889 0
M  V30 5320 N 506.575 2.85951 3.64398 0
M  V30 5321 C 507.31 3.62932 4.43923 0
M  V30 5322 N 506.806 4.49672 5.27036 0
M  V30 5323 N 508.599 3.51411 4.38711 0
M  V30 5324 H 500.75 1.95264 0.835805 0
M  V30 5325 H 503.013 0.845017 0.429709 0
M  V30 5326 H 502.719 2.82214 2.09876 0
M  V30 5327 H 502.593 1.64529 3.39426 0
M  V30 5328 H 504.98 0.827869 2.8325 0
M  V30 5329 H 505.061 2.03879 1.54489 0
M  V30 5330 H 504.705 3.87663 3.28145 0
M  V30 5331 H 504.635 2.63645 4.5585 0
M  V30 5332 H 507.126 2.23051 3.05052 0
M  V30 5333 H 507.439 5.05116 5.84874 0
M  V30 5334 H 505.784 4.53738 5.26447 0
M  V30 5335 H 508.975 2.83047 3.72829 0
M  V30 5336 H 509.148 4.11654 5.00445 0
M  V30 5337 N 502.554 -1.34406 0.822964 0
M  V30 5338 C 503.484 -2.32052 0.259608 0
M  V30 5339 C 504.465 -1.58243 -0.623961 0
M  V30 5340 O 505.65 -1.86224 -0.55083 0
M  V30 5341 C 502.78 -3.42434 -0.579314 0
M  V30 5342 C 501.734 -4.27499 0.20712 0
M  V30 5343 C 501.06 -5.29349 -0.754547 0
M  V30 5344 C 502.36 -5.02758 1.41533 0
M  V30 5345 H 504.054 -2.79418 1.07545 0
M  V30 5346 H 501.6 -1.34338 0.518593 0
M  V30 5347 H 503.553 -4.0976 -0.983612 0
M  V30 5348 H 502.277 -2.93717 -1.4282 0
M  V30 5349 H 500.936 -3.61776 0.592787 0
M  V30 5350 H 500.584 -4.76895 -1.59939 0
M  V30 5351 H 500.284 -5.8714 -0.232561 0
M  V30 5352 H 501.808 -5.99544 -1.1567 0
M  V30 5353 H 503.222 -5.62938 1.08504 0
M  V30 5354 H 501.619 -5.70123 1.87296 0
M  V30 5355 H 502.689 -4.32451 2.1935 0
M  V30 5356 N 504.032 -0.577932 -1.46621 0
M  V30 5357 C 504.962 0.145917 -2.33044 0
M  V30 5358 C 505.943 0.888412 -1.45056 0
M  V30 5359 O 507.128 0.864812 -1.73881 0
M  V30 5360 C 504.258 1.16322 -3.27241 0
M  V30 5361 C 503.212 0.535868 -4.24632 0
M  V30 5362 C 502.538 1.65929 -5.08303 0
M  V30 5363 C 503.838 -0.523861 -5.19666 0
M  V30 5364 H 505.532 -0.575636 -2.93814 0
M  V30 5365 H 503.078 -0.278272 -1.41286 0
M  V30 5366 H 505.031 1.67793 -3.86553 0
M  V30 5367 H 503.755 1.91498 -2.64567 0
M  V30 5368 H 502.414 0.0422759 -3.66576 0
M  V30 5369 H 502.062 2.40061 -4.42018 0
M  V30 5370 H 501.762 1.2452 -5.74255 0
M  V30 5371 H 503.286 2.17686 -5.70478 0
M  V30 5372 H 504.7 -0.0944059 -5.73222 0
M  V30 5373 H 503.097 -0.858 -5.93935 0
M  V30 5374 H 504.167 -1.41197 -4.63887 0
M  V30 5375 N 505.51 1.54411 -0.315457 0
M  V30 5376 C 506.926 1.59556 0.037464 0
M  V30 5377 C 507.126 1.33217 1.5118 0
M  V30 5378 O 506.182 1.11264 2.26664 0
M  V30 5379 C 507.495 2.98372 -0.373477 0
M  V30 5380 C 509.043 3.11324 -0.323452 0
M  V30 5381 C 509.518 4.52472 -0.709433 0
M  V30 5382 N 511.009 4.58437 -0.662524 0
M  V30 5383 C 511.744 5.65751 -0.933474 0
M  V30 5384 N 511.24 6.81039 -1.27114 0
M  V30 5385 N 513.033 5.55489 -0.859573 0
M  V30 5386 H 505.184 1.6979 -1.27614 0
M  V30 5387 H 507.447 0.793732 -0.518356 0
M  V30 5388 H 507.153 3.22618 -1.40037 0
M  V30 5389 H 507.027 3.76264 0.265615 0
M  V30 5390 H 509.414 2.86818 0.694223 0
M  V30 5391 H 509.495 2.35555 -0.997367 0
M  V30 5392 H 509.139 4.7771 -1.72498 0
M  V30 5393 H 509.069 5.26598 -0.0132923 0
M  V30 5394 H 511.56 3.75636 -0.413065 0
M  V30 5395 H 511.873 7.58816 -1.46348 0
M  V30 5396 H 510.218 6.82555 -1.30932 0
M  V30 5397 H 513.409 4.64299 -0.595324 0
M  V30 5398 H 513.582 6.39036 -1.0741 0
M  V30 5399 N 506.988 0.0434614 1.5754 0
M  V30 5400 C 507.918 -0.931651 2.14109 0
M  V30 5401 C 508.899 -1.32971 1.06079 0
M  V30 5402 O 510.084 -1.40579 1.33982 0
M  V30 5403 C 507.214 -2.20914 2.67982 0
M  V30 5404 C 506.168 -1.95139 3.80926 0
M  V30 5405 C 505.494 -3.29276 4.21285 0
M  V30 5406 C 506.794 -1.27913 5.06395 0
M  V30 5407 H 508.488 -0.460497 2.95837 0
M  V30 5408 H 506.034 -0.220058 1.42309 0
M  V30 5409 H 507.987 -2.89522 3.06194 0
M  V30 5410 H 506.711 -2.70221 1.83434 0
M  V30 5411 H 505.37 -1.28945 3.43175 0
M  V30 5412 H 505.018 -3.76369 3.33699 0
M  V30 5413 H 504.718 -3.12831 4.97404 0
M  V30 5414 H 506.242 -3.99129 4.62091 0
M  V30 5415 H 507.656 -1.86544 5.42102 0
M  V30 5416 H 506.053 -1.2182 5.87605 0
M  V30 5417 H 507.123 -0.254066 4.84234 0
M  V30 5418 N 508.466 -1.55915 -0.229846 0
M  V30 5419 C 509.396 -1.94754 -1.28815 0
M  V30 5420 C 510.377 -0.814657 -1.49323 0
M  V30 5421 O 511.562 -1.07631 -1.61645 0
M  V30 5422 C 508.692 -2.25705 -2.63959 0
M  V30 5423 C 507.646 -3.41406 -2.5812 0
M  V30 5424 C 506.972 -3.57941 -3.97218 0
M  V30 5425 C 508.272 -4.76616 -2.13623 0
M  V30 5426 H 509.966 -2.83404 -0.965547 0
M  V30 5427 H 507.512 -1.36353 -0.463028 0
M  V30 5428 H 509.465 -2.51467 -3.38146 0
M  V30 5429 H 508.189 -1.339 -2.9789 0
M  V30 5430 H 506.848 -3.1568 -1.86391 0
M  V30 5431 H 506.496 -2.63526 -4.28443 0
M  V30 5432 H 506.196 -4.35757 -3.94195 0
M  V30 5433 H 507.72 -3.86042 -4.73079 0
M  V30 5434 H 509.134 -5.01637 -2.77549 0
M  V30 5435 H 507.531 -5.57655 -2.21677 0
M  V30 5436 H 508.601 -4.7253 -1.08829 0
M  V30 5437 N 509.944 0.496216 -1.49584 0
M  V30 5438 C 511.36 0.827814 -1.36453 0
M  V30 5439 C 511.56 1.97464 -0.401285 0
M  V30 5440 O 510.616 2.51958 0.165296 0
M  V30 5441 C 511.929 1.16352 -2.77277 0
M  V30 5442 C 513.477 1.27145 -2.86013 0
M  V30 5443 C 513.952 1.64042 -4.27615 0
M  V30 5444 N 515.443 1.71082 -4.30448 0
M  V30 5445 C 516.178 2.01085 -5.36984 0
M  V30 5446 N 515.674 2.2928 -6.5376 0
M  V30 5447 N 517.467 2.02376 -5.24405 0
M  V30 5448 H 509.618 -0.259947 -2.10803 0
M  V30 5449 H 511.881 -0.0537163 -0.946477 0
M  V30 5450 H 511.587 0.394153 -3.49484 0
M  V30 5451 H 511.461 2.10582 -3.12946 0
M  V30 5452 H 513.848 2.03152 -2.1404 0
M  V30 5453 H 513.929 0.309542 -2.5392 0
M  V30 5454 H 513.573 0.88583 -5.00115 0
M  V30 5455 H 513.503 2.6134 -4.57175 0
M  V30 5456 H 515.994 1.51434 -3.46232 0
M  V30 5457 H 516.307 2.51376 -7.30774 0
M  V30 5458 H 514.652 2.26726 -6.56978 0
M  V30 5459 H 517.843 1.79829 -4.32179 0
M  V30 5460 H 518.016 2.25425 -6.07526 0
M  V30 5461 N 511.423 1.38739 0.74761 0
M  V30 5462 C 512.353 1.39173 1.87492 0
M  V30 5463 C 513.334 0.256794 1.6815 0
M  V30 5464 O 514.519 0.460762 1.88655 0
M  V30 5465 C 511.649 1.22197 3.25093 0
M  V30 5466 C 510.603 2.32957 3.59047 0
M  V30 5467 C 509.929 2.01082 4.95449 0
M  V30 5468 C 511.229 3.75237 3.6331 0
M  V30 5469 H 512.923 2.3351 1.87386 0
M  V30 5470 H 510.469 1.12399 0.900134 0
M  V30 5471 H 512.422 1.21124 4.03617 0
M  V30 5472 H 511.146 0.243241 3.25693 0
M  V30 5473 H 509.805 2.33226 2.82845 0
M  V30 5474 H 509.453 1.01678 4.92616 0
M  V30 5475 H 509.153 2.75267 5.19136 0
M  V30 5476 H 510.677 2.01638 5.76346 0
M  V30 5477 H 512.091 3.76966 4.31937 0
M  V30 5478 H 510.488 4.48677 3.98509 0
M  V30 5479 H 511.558 4.07122 2.634 0
M  V30 5480 N 512.901 -0.976442 1.23707 0
M  V30 5481 C 513.831 -2.08749 1.04624 0
M  V30 5482 C 514.812 -1.70057 -0.0380956 0
M  V30 5483 O 515.997 -1.93782 0.127308 0
M  V30 5484 C 513.127 -3.41335 0.640902 0
M  V30 5485 C 512.081 -3.93947 1.67302 0
M  V30 5486 C 511.407 -5.22774 1.12301 0
M  V30 5487 C 512.707 -4.22769 3.06697 0
M  V30 5488 H 514.401 -2.24972 1.97555 0
M  V30 5489 H 511.947 -1.08108 0.951247 0
M  V30 5490 H 513.9 -4.18489 0.494434 0
M  V30 5491 H 512.624 -3.24988 -0.324099 0
M  V30 5492 H 511.283 -3.18941 1.80755 0
M  V30 5493 H 510.931 -5.0278 0.148877 0
M  V30 5494 H 510.631 -5.58942 1.81267 0
M  V30 5495 H 512.155 -6.02546 0.988479 0
M  V30 5496 H 513.569 -4.90659 2.96524 0
M  V30 5497 H 511.966 -4.70147 3.72937 0
M  V30 5498 H 513.036 -3.29885 3.55392 0
M  V30 5499 N 514.379 -1.04941 -1.1758 0
M  V30 5500 C 515.311 -0.606174 -2.21039 0
M  V30 5501 C 516.324 0.328763 -1.59446 0
M  V30 5502 O 517.513 0.121895 -1.78083 0
M  V30 5503 C 514.613 0.133294 -3.38638 0
M  V30 5504 C 513.786 -0.811711 -4.29802 0
M  V30 5505 C 512.845 -0.113958 -5.26077 0
M  V30 5506 O 511.871 -0.747237 -5.64274 0
M  V30 5507 N 513.073 1.14953 -5.69004 0
M  V30 5508 H 515.838 -1.49606 -2.59689 0
M  V30 5509 H 513.399 -0.930997 -1.32454 0
M  V30 5510 H 515.391 0.610144 -4.00074 0
M  V30 5511 H 513.961 0.924816 -2.98607 0
M  V30 5512 H 513.181 -1.46824 -3.65837 0
M  V30 5513 H 514.469 -1.45326 -4.87604 0
M  V30 5514 H 513.867 1.68441 -5.40041 0
M  V30 5515 H 512.424 1.57049 -6.32597 0
M  V30 5516 N 515.857 1.33968 -0.830081 0
M  V30 5517 C 516.804 2.29387 -0.255008 0
M  V30 5518 C 517.774 1.53923 0.624243 0
M  V30 5519 O 518.959 1.82262 0.564372 0
M  V30 5520 C 516.099 3.4034 0.571209 0
M  V30 5521 C 515.212 4.30729 -0.331083 0
M  V30 5522 C 514.347 5.2879 0.505389 0
M  V30 5523 C 513.386 6.10819 -0.395843 0
M  V30 5524 N 512.523 7.00948 0.401979 0
M  V30 5525 H 517.363 2.77972 -1.07404 0
M  V30 5526 H 514.9 1.36785 -0.541133 0
M  V30 5527 H 516.858 4.03361 1.06562 0
M  V30 5528 H 515.488 2.9297 1.35529 0
M  V30 5529 H 514.54 3.68507 -0.943759 0
M  V30 5530 H 515.852 4.88181 -1.02377 0
M  V30 5531 H 515.006 5.97297 1.06399 0
M  V30 5532 H 513.745 4.71894 1.23155 0
M  V30 5533 H 512.75 5.41238 -0.966529 0
M  V30 5534 H 513.975 6.69797 -1.12023 0
M  V30 5535 H 511.921 6.46512 1.11168 0
M  V30 5536 H 511.838 7.55643 -0.232167 0
M  V30 5537 H 513.106 7.73774 0.943102 0
M  V30 5538 N 517.335 0.585699 1.46312 0
M  V30 5539 C 518.265 -0.133556 2.33118 0
M  V30 5540 C 519.246 -0.880707 1.45525 0
M  V30 5541 O 520.431 -0.855579 1.74337 0
M  V30 5542 C 517.561 -1.14585 3.27853 0
M  V30 5543 C 516.515 -0.513341 4.2491 0
M  V30 5544 C 515.841 -1.63231 5.09175 0
M  V30 5545 C 517.141 0.551413 5.19381 0
M  V30 5546 H 518.835 0.59121 2.93505 0
M  V30 5547 H 516.381 0.285761 1.41136 0
M  V30 5548 H 518.334 -1.65741 3.87438 0
M  V30 5549 H 517.058 -1.90093 2.65579 0
M  V30 5550 H 515.717 -0.0228349 3.66593 0
M  V30 5551 H 515.365 -2.37713 4.43285 0
M  V30 5552 H 515.065 -1.21473 5.74907 0
M  V30 5553 H 516.589 -2.14658 5.71624 0
M  V30 5554 H 518.003 0.124804 5.73164 0
M  V30 5555 H 516.4 0.889486 5.93471 0
M  V30 5556 H 517.47 1.43655 4.63132 0
M  V30 5557 N 518.813 -1.54241 0.323641 0
M  V30 5558 C 519.723 -2.28033 -0.551205 0
M  V30 5559 C 520.739 -1.32388 -1.12913 0
M  V30 5560 O 521.915 -1.65403 -1.14908 0
M  V30 5561 C 518.98 -3.02382 -1.69606 0
M  V30 5562 C 518.041 -4.13612 -1.14993 0
M  V30 5563 C 517.274 -4.84407 -2.24022 0
M  V30 5564 O 517.497 -4.54716 -3.44368 0
M  V30 5565 O 516.431 -5.71312 -1.89436 0
M  V30 5566 H 520.257 -3.03662 0.048066 0
M  V30 5567 H 517.842 -1.49133 0.0893289 0
M  V30 5568 H 519.724 -3.48941 -2.36259 0
M  V30 5569 H 518.399 -2.29628 -2.28151 0
M  V30 5570 H 517.306 -3.71402 -0.448484 0
M  V30 5571 H 518.639 -4.8841 -0.609608 0
M  V30 5572 N 520.291 -0.0518155 -1.57515 0
M  V30 5573 C 521.707 0.304735 -1.56664 0
M  V30 5574 C 521.907 1.71395 -1.05953 0
M  V30 5575 O 520.963 2.42123 -0.716414 0
M  V30 5576 C 522.276 0.132614 -3.00407 0
M  V30 5577 C 523.824 0.20367 -3.12337 0
M  V30 5578 C 524.299 0.0600706 -4.57961 0
M  V30 5579 N 525.79 0.116326 -4.63054 0
M  V30 5580 C 526.525 0.0293363 -5.73392 0
M  V30 5581 N 526.021 -0.110038 -6.92713 0
M  V30 5582 N 527.814 0.0849651 -5.62036 0
M  V30 5583 H 519.965 -0.973056 -1.888 0
M  V30 5584 H 522.228 -0.377781 -0.869474 0
M  V30 5585 H 521.934 -0.839019 -3.41546 0
M  V30 5586 H 521.808 0.893376 -3.66468 0
M  V30 5587 H 524.195 1.16578 -2.71097 0
M  V30 5588 H 524.276 -0.587857 -2.48954 0
M  V30 5589 H 523.92 -0.898715 -4.99886 0
M  V30 5590 H 523.85 0.87075 -5.19351 0
M  V30 5591 H 526.341 0.22327 -3.7724 0
M  V30 5592 H 526.654 -0.169104 -7.72615 0
M  V30 5593 H 524.999 -0.145132 -6.94848 0
M  V30 5594 H 528.19 0.192411 -4.67704 0
M  V30 5595 H 528.363 0.0137131 -6.47999 0
M  V30 5596 N 521.769 1.56035 0.221574 0
M  V30 5597 C 522.999 1.82864 0.961468 0
M  V30 5598 C 523.407 0.628703 1.78449 0
M  V30 5599 O 522.75 -0.412109 1.79018 0
M  V30 5600 C 522.812 3.03425 1.92804 0
M  V30 5601 C 522.476 4.38429 1.28954 0
M  V30 5602 C 523.473 5.15441 0.679431 0
M  V30 5603 C 521.158 4.85151 1.30131 0
M  V30 5604 C 523.152 6.37337 0.0896148 0
M  V30 5605 C 520.839 6.06989 0.707651 0
M  V30 5606 C 521.837 6.82923 0.102855 0
M  V30 5607 O 521.525 8.02456 -0.48157 0
M  V30 5608 H 521.257 0.611883 0.28736 0
M  V30 5609 H 523.811 2.0397 0.241932 0
M  V30 5610 H 522.041 2.78138 2.68656 0
M  V30 5611 H 523.73 3.17127 2.53348 0
M  V30 5612 H 524.496 4.80452 0.662661 0
M  V30 5613 H 520.375 4.26021 1.76145 0
M  V30 5614 H 523.919 6.96547 -0.383069 0
M  V30 5615 H 519.816 6.41451 0.721834 0
M  V30 5616 H 520.584 8.17636 -0.375887 0
M  V30 5617 N 523.247 -0.488276 1.49845 0
M  V30 5618 C 524.472 -1.26997 1.63971 0
M  V30 5619 C 524.897 -1.85427 0.315994 0
M  V30 5620 O 524.255 -1.66475 -0.718032 0
M  V30 5621 C 524.303 -2.36689 2.72049 0
M  V30 5622 O 523.407 -3.40882 2.32107 0
M  V30 5623 H 522.748 -0.374376 0.548396 0
M  V30 5624 H 525.278 -0.583104 1.96115 0
M  V30 5625 H 525.288 -2.82262 2.94605 0
M  V30 5626 H 523.963 -1.93529 3.68129 0
M  V30 5627 H 522.54 -3.01139 2.19931 0
M  V30 5628 N 524.725 -1.39134 -0.740242 0
M  V30 5629 C 525.657 -1.33332 -1.86428 0
M  V30 5630 C 526.67 -0.243042 -1.60976 0
M  V30 5631 O 527.859 -0.501608 -1.71307 0
M  V30 5632 C 524.959 -1.04626 -3.22346 0
M  V30 5633 C 524.132 -2.24826 -3.75196 0
M  V30 5634 C 523.191 -1.92659 -4.89662 0
M  V30 5635 O 522.217 -2.6529 -5.03597 0
M  V30 5636 N 523.419 -0.889575 -5.73643 0
M  V30 5637 H 526.184 -2.30196 -1.91911 0
M  V30 5638 H 523.745 -1.33168 -0.920756 0
M  V30 5639 H 525.737 -0.811347 -3.96484 0
M  V30 5640 H 524.307 -0.165129 -3.12164 0
M  V30 5641 H 523.527 -2.64301 -2.9247 0
M  V30 5642 H 524.815 -3.05015 -4.07239 0
M  V30 5643 H 524.213 -0.287529 -5.64969 0
M  V30 5644 H 522.77 -0.714557 -6.47871 0
M  V30 5645 N 526.204 0.969867 -1.24223 0
M  V30 5646 C 527.444 1.72754 -1.0925 0
M  V30 5647 C 527.808 1.88541 0.362787 0
M  V30 5648 O 529.009 2.61217 0.633969 0
M  V30 5649 C 527.28 3.08204 -1.80957 0
M  V30 5650 S 528.839 3.99418 -1.81688 0
M  V30 5651 H 525.657 0.593981 -0.390778 0
M  V30 5652 H 528.259 1.15792 -1.5752 0
M  V30 5653 H 526.963 2.94372 -2.85961 0
M  V30 5654 H 526.494 3.70232 -1.33012 0
M  V30 5655 H 528.509 4.8828 -0.883001 0
M  V30 5656 N 527.682 1.05563 1.17022 0
M  V30 5657 C 528.907 0.788437 1.91829 0
M  V30 5658 C 529.332 -0.650356 1.76499 0
M  V30 5659 O 528.69 -1.45229 1.08527 0
M  V30 5660 C 528.738 1.1786 3.40795 0
M  V30 5661 O 527.842 0.312965 4.11211 0
M  V30 5662 H 527.183 0.288794 0.597908 0
M  V30 5663 H 529.713 1.40948 1.48307 0
M  V30 5664 H 529.723 1.14697 3.91546 0
M  V30 5665 H 528.398 2.22666 3.51273 0
M  V30 5666 H 526.975 0.405515 3.70689 0
M  V30 5667 N 529.16 -1.33526 0.837174 0
M  V30 5668 C 530.123 -2.27551 0.274421 0
M  V30 5669 C 531.123 -1.50886 -0.555881 0
M  V30 5670 O 532.313 -1.70227 -0.369918 0
M  V30 5671 C 529.445 -3.35332 -0.613605 0
M  V30 5672 H 530.638 -2.78837 1.10408 0
M  V30 5673 H 528.191 -1.439 0.610126 0
M  V30 5674 H 528.926 -2.89285 -1.46577 0
M  V30 5675 H 528.711 -3.92095 -0.0195341 0
M  V30 5676 H 530.201 -4.05433 -1.00068 0
M  V30 5677 N 530.638 -0.59345 -1.46 0
M  V30 5678 C 531.884 -0.0832754 -2.02629 0
M  V30 5679 C 532.217 1.27749 -1.46266 0
M  V30 5680 O 531.492 1.8395 -0.631866 0
M  V30 5681 C 531.775 -0.0290756 -3.60088 0
M  V30 5682 C 531.628 -1.41951 -4.26814 0
M  V30 5683 C 532.947 0.666055 -4.35031 0
M  V30 5684 H 530.066 -0.031736 -0.736316 0
M  V30 5685 H 532.708 -0.762711 -1.74019 0
M  V30 5686 H 530.858 0.549532 -3.84594 0
M  V30 5687 H 532.53 -2.04411 -4.13538 0
M  V30 5688 H 530.773 -1.98422 -3.8576 0
M  V30 5689 H 531.444 -1.33395 -5.3564 0
M  V30 5690 H 533.92 0.174401 -4.15734 0
M  V30 5691 H 532.796 0.673041 -5.44758 0
M  V30 5692 H 533.057 1.72946 -4.06869 0
M  V30 5693 N 532.116 1.54067 -0.331816 0
M  V30 5694 C 533.362 2.01012 0.268667 0
M  V30 5695 C 533.695 1.2195 1.51136 0
M  V30 5696 O 532.97 0.303972 1.9211 0
M  V30 5697 C 533.253 3.55158 0.59456 0
M  V30 5698 C 533.106 4.4494 -0.659409 0
M  V30 5699 C 534.425 4.16939 1.4089 0
M  V30 5700 H 531.544 0.730698 0.0961756 0
M  V30 5701 H 534.186 1.84593 -0.450031 0
M  V30 5702 H 532.336 3.6928 1.20685 0
M  V30 5703 H 534.008 4.42675 -1.29756 0
M  V30 5704 H 532.251 4.1428 -1.28665 0
M  V30 5705 H 532.922 5.50643 -0.386804 0
M  V30 5706 H 535.398 4.06443 0.891272 0
M  V30 5707 H 534.274 5.24889 1.60569 0
M  V30 5708 H 534.535 3.70798 2.40752 0
M  V30 5709 N 533.594 0.0601682 1.57485 0
M  V30 5710 C 534.524 -0.90889 2.15085 0
M  V30 5711 C 535.505 -1.31838 1.07484 0
M  V30 5712 O 536.69 -1.3915 1.35466 0
M  V30 5713 C 533.82 -2.18059 2.7031 0
M  V30 5714 C 532.774 -1.91088 3.82974 0
M  V30 5715 C 532.1 -3.24789 4.24754 0
M  V30 5716 C 533.4 -1.22535 5.07723 0
M  V30 5717 H 535.094 -0.429093 2.96309 0
M  V30 5718 H 532.64 -0.204952 1.42534 0
M  V30 5719 H 534.593 -2.86258 3.09248 0
M  V30 5720 H 533.317 -2.6826 1.8629 0
M  V30 5721 H 531.976 -1.25297 3.44523 0
M  V30 5722 H 531.624 -3.72809 3.37672 0
M  V30 5723 H 531.324 -3.07538 5.00694 0
M  V30 5724 H 532.848 -3.94205 4.66299 0
M  V30 5725 H 534.262 -1.80783 5.4405 0
M  V30 5726 H 532.659 -1.1558 5.88864 0
M  V30 5727 H 533.729 -0.202692 4.84476 0
M  V30 5728 N 535.072 -1.5615 -0.213296 0
M  V30 5729 C 536.3 -1.83638 -0.953139 0
M  V30 5730 C 536.715 -0.640362 -1.77609 0
M  V30 5731 O 536.072 0.391071 -1.78261 0
M  V30 5732 C 536.123 -3.09735 -1.86405 0
M  V30 5733 O 535.844 -4.24723 -1.07435 0
M  V30 5734 C 537.345 -3.5027 -2.71709 0
M  V30 5735 H 534.565 -0.610263 -0.278962 0
M  V30 5736 H 537.109 -2.03247 -0.226035 0
M  V30 5737 H 535.264 -2.92077 -2.545 0
M  V30 5738 H 535.678 -4.9641 -1.69343 0
M  V30 5739 H 537.152 -4.41515 -3.31313 0
M  V30 5740 H 537.629 -2.72406 -3.44516 0
M  V30 5741 H 538.235 -3.70396 -2.09015 0
M  V30 5742 N 536.55 0.480323 -1.50102 0
M  V30 5743 C 537.48 1.58769 -1.71215 0
M  V30 5744 C 538.461 1.60583 -0.560997 0
M  V30 5745 O 539.646 1.76996 -0.799127 0
M  V30 5746 C 536.776 2.97148 -1.79778 0
M  V30 5747 C 535.73 3.10201 -2.94888 0
M  V30 5748 C 535.056 4.50137 -2.88584 0
M  V30 5749 C 536.356 2.88283 -4.35534 0
M  V30 5750 H 538.05 1.41354 -2.6393 0
M  V30 5751 H 535.596 0.678591 -1.27008 0
M  V30 5752 H 537.549 3.74536 -1.93133 0
M  V30 5753 H 536.273 3.15699 -0.836772 0
M  V30 5754 H 534.932 2.35244 -2.81169 0
M  V30 5755 H 534.58 4.65593 -1.90349 0
M  V30 5756 H 534.28 4.59808 -3.65856 0
M  V30 5757 H 535.804 5.29558 -3.03976 0
M  V30 5758 H 537.218 3.55427 -4.49827 0
M  V30 5759 H 535.615 3.09408 -5.14186 0
M  V30 5760 H 536.685 1.84219 -4.48544 0
M  V30 5761 N 538.028 1.39524 0.732853 0
M  V30 5762 C 538.958 1.41153 1.86005 0
M  V30 5763 C 539.939 0.274614 1.67869 0
M  V30 5764 O 541.124 0.480745 1.88155 0
M  V30 5765 C 538.254 1.25638 3.23778 0
M  V30 5766 C 537.208 2.36752 3.56556 0
M  V30 5767 C 536.534 2.06326 4.93289 0
M  V30 5768 C 537.834 3.79069 3.5931 0
M  V30 5769 H 539.528 2.35484 1.84899 0
M  V30 5770 H 537.074 1.13348 0.888162 0
M  V30 5771 H 539.027 1.25398 4.0231 0
M  V30 5772 H 537.751 0.277772 3.25417 0
M  V30 5773 H 536.41 2.36213 2.80355 0
M  V30 5774 H 536.058 1.06897 4.9151 0
M  V30 5775 H 535.758 2.80757 5.16187 0
M  V30 5776 H 537.282 2.07739 5.74175 0
M  V30 5777 H 538.696 3.81526 4.27914 0
M  V30 5778 H 537.093 4.52878 3.93728 0
M  V30 5779 H 538.163 4.09893 2.59068 0
M  V30 5780 N 539.506 -0.963266 1.24736 0
M  V30 5781 C 540.439 -2.05758 0.986852 0
M  V30 5782 C 541.417 -1.62398 -0.0809272 0
M  V30 5783 O 542.601 -1.88414 0.0569347 0
M  V30 5784 C 539.728 -3.35135 0.490095 0
M  V30 5785 C 538.774 -3.97451 1.54709 0
M  V30 5786 S 539.607 -4.34519 3.12976 0
M  V30 5787 C 540.763 -5.67026 2.65014 0
M  V30 5788 H 540.996 -2.27539 1.91346 0
M  V30 5789 H 538.529 -1.10176 1.08169 0
M  V30 5790 H 540.487 -4.09962 0.21012 0
M  V30 5791 H 539.148 -3.11335 -0.415873 0
M  V30 5792 H 538.341 -4.90704 1.15003 0
M  V30 5793 H 537.943 -3.29071 1.77731 0
M  V30 5794 H 540.235 -6.44748 2.08102 0
M  V30 5795 H 541.178 -6.11594 3.56873 0
M  V30 5796 H 541.586 -5.25847 2.05294 0
M  V30 5797 N 540.985 -1.06182 -1.16461 0
M  V30 5798 C 542.21 -0.798599 -1.91408 0
M  V30 5799 C 542.635 0.640987 -1.76842 0
M  V30 5800 O 541.993 1.44652 -1.09296 0
M  V30 5801 C 542.041 -1.19665 -3.40165 0
M  V30 5802 O 541.145 -0.334768 -4.11039 0
M  V30 5803 H 540.486 -0.291961 -0.596368 0
M  V30 5804 H 543.016 -1.41732 -1.47557 0
M  V30 5805 H 543.026 -1.16772 -3.90933 0
M  V30 5806 H 541.701 -2.24526 -3.50087 0
M  V30 5807 H 540.278 -0.425168 -3.70468 0
M  V30 5808 N 542.463 1.3308 -0.844243 0
M  V30 5809 C 543.709 1.97898 -0.443206 0
M  V30 5810 C 544.042 1.66699 0.99625 0
M  V30 5811 O 543.317 0.949704 1.69738 0
M  V30 5812 C 543.6 3.53801 -0.670606 0
M  V30 5813 C 543.453 3.94667 -2.15772 0
M  V30 5814 C 544.772 4.39936 -0.120226 0
M  V30 5815 H 541.891 0.718861 -0.162504 0
M  V30 5816 H 544.533 1.57633 -1.06075 0
M  V30 5817 H 542.683 3.88229 -0.14496 0
M  V30 5818 H 544.355 3.70469 -2.74865 0
M  V30 5819 H 542.598 3.44203 -2.6402 0
M  V30 5820 H 543.269 5.03275 -2.26757 0
M  V30 5821 H 545.745 4.12183 -0.5696 0
M  V30 5822 H 544.621 5.4803 -0.308984 0
M  V30 5823 H 544.882 4.31184 0.976347 0
M  V30 5824 N 543.941 0.601185 1.45683 0
M  V30 5825 C 545.188 0.0938811 2.02282 0
M  V30 5826 C 545.516 -1.27315 1.47041 0
M  V30 5827 O 544.771 -1.85193 0.632623 0
M  V30 5828 C 545.07 -0.00222425 3.574 0
M  V30 5829 C 544.736 1.29963 4.31764 0
M  V30 5830 C 543.398 1.65625 4.51798 0
M  V30 5831 C 545.75 2.1603 4.74321 0
M  V30 5832 C 543.078 2.87119 5.11644 0
M  V30 5833 C 545.43 3.36766 5.3551 0
M  V30 5834 C 544.094 3.72689 5.53768 0
M  V30 5835 H 543.364 0.0343535 0.740203 0
M  V30 5836 H 546.011 0.781522 1.74827 0
M  V30 5837 H 544.316 -0.773096 3.84097 0
M  V30 5838 H 546.013 -0.410794 3.9889 0
M  V30 5839 H 542.603 1.01204 4.1648 0
M  V30 5840 H 546.787 1.89778 4.58582 0
M  V30 5841 H 542.043 3.15065 5.2397 0
M  V30 5842 H 546.217 4.03713 5.67441 0
M  V30 5843 H 543.844 4.66918 5.99909 0
M  V30 5844 N 545.419 -1.53889 0.339982 0
M  V30 5845 C 546.382 -2.23547 -0.50592 0
M  V30 5846 C 547.382 -1.23445 -1.03044 0
M  V30 5847 O 548.572 -1.47909 -0.920253 0
M  V30 5848 C 545.704 -2.95234 -1.7044 0
M  V30 5849 H 546.897 -2.99722 0.103247 0
M  V30 5850 H 544.45 -1.56033 0.0912804 0
M  V30 5851 H 545.185 -2.23236 -2.35236 0
M  V30 5852 H 544.97 -3.68654 -1.33553 0
M  V30 5853 H 546.46 -3.48258 -2.30447 0
M  V30 5854 N 546.897 -0.0685191 -1.57451 0
M  V30 5855 C 547.827 0.89747 -2.15564 0
M  V30 5856 C 548.808 1.31266 -1.08181 0
M  V30 5857 O 549.993 1.38429 -1.36202 0
M  V30 5858 C 547.123 2.16623 -2.71463 0
M  V30 5859 C 546.077 1.89054 -3.83982 0
M  V30 5860 C 545.403 3.22532 -4.26471 0
M  V30 5861 C 546.703 1.1984 -5.08366 0
M  V30 5862 H 548.397 0.413373 -2.96533 0
M  V30 5863 H 545.943 0.197391 -1.42641 0
M  V30 5864 H 547.896 2.84614 -3.10761 0
M  V30 5865 H 546.62 2.67269 -1.8771 0
M  V30 5866 H 545.279 1.23469 -3.45183 0
M  V30 5867 H 544.927 3.71013 -3.39644 0
M  V30 5868 H 544.627 3.04879 -5.02317 0
M  V30 5869 H 546.151 3.91727 -4.68383 0
M  V30 5870 H 547.565 1.77896 -5.45001 0
M  V30 5871 H 545.962 1.12456 -5.89469 0
M  V30 5872 H 547.032 0.176996 -4.84577 0
M  V30 5873 N 548.375 1.56261 0.205012 0
M  V30 5874 C 549.305 1.96779 1.257 0
M  V30 5875 C 550.286 0.838309 1.48008 0
M  V30 5876 O 551.471 1.10189 1.59913 0
M  V30 5877 C 548.601 2.29876 2.60335 0
M  V30 5878 C 547.555 3.45469 2.52656 0
M  V30 5879 C 546.881 3.64215 3.91473 0
M  V30 5880 C 548.181 4.79954 2.06014 0
M  V30 5881 H 549.875 2.84904 0.920338 0
M  V30 5882 H 547.421 1.37072 0.441277 0
M  V30 5883 H 549.374 2.56814 3.34102 0
M  V30 5884 H 548.098 1.38622 2.95722 0
M  V30 5885 H 546.757 3.18605 1.81345 0
M  V30 5886 H 546.405 2.70309 4.24196 0
M  V30 5887 H 546.105 4.41973 3.87213 0
M  V30 5888 H 547.629 3.93519 4.66878 0
M  V30 5889 H 549.043 5.05989 2.69533 0
M  V30 5890 H 547.44 5.61111 2.12777 0
M  V30 5891 H 548.51 4.74201 1.01297 0
M  V30 5892 N 549.853 -0.472356 1.50355 0
M  V30 5893 C 550.816 -1.5529 1.68576 0
M  V30 5894 C 551.816 -1.50863 0.556511 0
M  V30 5895 O 553.006 -1.53505 0.823516 0
M  V30 5896 C 550.138 -2.94921 1.70981 0
M  V30 5897 H 551.331 -1.40451 2.64978 0
M  V30 5898 H 548.884 -0.698645 1.39816 0
M  V30 5899 H 549.619 -3.15204 0.762675 0
M  V30 5900 H 549.404 -2.99541 2.53017 0
M  V30 5901 H 550.894 -3.73372 1.87037 0
M  V30 5902 N 551.331 -1.39911 -0.725443 0
M  V30 5903 C 552.281 -1.35878 -1.83088 0
M  V30 5904 C 553.265 -0.237989 -1.5913 0
M  V30 5905 O 554.457 -0.476302 -1.70471 0
M  V30 5906 C 551.586 -1.21403 -3.21117 0
M  V30 5907 C 550.672 -2.38223 -3.50871 0
M  V30 5908 N 551.063 -3.63703 -3.51502 0
M  V30 5909 C 549.361 -2.31388 -3.81281 0
M  V30 5910 C 550.062 -4.4101 -3.79322 0
M  V30 5911 N 549.038 -3.7072 -3.97577 0
M  V30 5912 H 552.84 -2.3085 -1.81895 0
M  V30 5913 H 550.354 -1.33543 -0.924125 0
M  V30 5914 H 552.351 -1.16597 -4.00263 0
M  V30 5915 H 551.011 -0.273902 -3.23543 0
M  V30 5916 H 552.022 -3.96998 -3.32586 0
M  V30 5917 H 548.699 -1.45689 -3.91256 0
M  V30 5918 H 550.089 -5.49819 -3.86198 0
M  V30 5919 N 552.809 0.956637 -1.25245 0
M  V30 5920 C 554.055 1.70413 -1.11044 0
M  V30 5921 C 554.41 1.89275 0.345377 0
M  V30 5922 O 553.703 1.45116 1.25107 0
M  V30 5923 C 553.897 3.08996 -1.79601 0
M  V30 5924 C 553.726 3.03654 -3.317 0
M  V30 5925 C 552.496 3.07521 -4.00947 0
M  V30 5926 C 554.694 2.84975 -4.28128 0
M  V30 5927 N 552.676 2.92316 -5.39838 0
M  V30 5928 C 554.047 2.7818 -5.5409 0
M  V30 5929 C 556.102 2.6964 -4.18568 0
M  V30 5930 C 554.805 2.57616 -6.71585 0
M  V30 5931 C 556.831 2.50447 -5.35752 0
M  V30 5932 C 556.193 2.4437 -6.60653 0
M  V30 5933 H 552.292 0.631642 -0.461035 0
M  V30 5934 H 554.876 1.13331 -1.58317 0
M  V30 5935 H 553.047 3.64248 -1.34826 0
M  V30 5936 H 554.779 3.72515 -1.58161 0
M  V30 5937 H 551.534 3.16635 -3.52192 0
M  V30 5938 H 551.958 2.87923 -6.12723 0
M  V30 5939 H 556.6 2.73113 -3.22752 0
M  V30 5940 H 554.318 2.52885 -7.67512 0
M  V30 5941 H 557.904 2.39509 -5.30214 0
M  V30 5942 H 556.784 2.29712 -7.49801 0
M  V30 5943 N 554.287 1.06798 1.15896 0
M  V30 5944 C 555.22 0.627503 2.19403 0
M  V30 5945 C 556.198 -0.352352 1.58736 0
M  V30 5946 O 557.382 -0.260111 1.86697 0
M  V30 5947 C 554.509 -0.079356 3.38607 0
M  V30 5948 C 553.555 0.858057 4.17779 0
M  V30 5949 S 554.388 2.35605 4.80885 0
M  V30 5950 C 555.544 1.66083 6.03463 0
M  V30 5951 H 555.777 1.50441 2.56427 0
M  V30 5952 H 553.31 0.881427 1.26768 0
M  V30 5953 H 555.268 -0.48095 4.07673 0
M  V30 5954 H 553.929 -0.932524 2.99938 0
M  V30 5955 H 553.122 0.310108 5.03045 0
M  V30 5956 H 552.724 1.19977 3.54234 0
M  V30 5957 H 555.016 0.969337 6.7053 0
M  V30 5958 H 555.959 2.49159 6.62816 0
M  V30 5959 H 556.367 1.14122 5.52844 0
M  V30 5960 N 555.766 -1.3263 0.851289 0
M  V30 5961 C 556.729 -2.27247 0.298541 0
M  V30 5962 C 557.729 -1.51467 -0.539847 0
M  V30 5963 O 558.919 -1.7061 -0.351843 0
M  V30 5964 C 556.051 -3.35964 -0.578004 0
M  V30 5965 H 557.244 -2.7765 1.13359 0
M  V30 5966 H 554.797 -1.43245 0.625354 0
M  V30 5967 H 555.532 -2.90823 -1.435 0
M  V30 5968 H 555.317 -3.92094 0.0220539 0
M  V30 5969 H 556.807 -4.06472 -0.957626 0
M  V30 5970 N 557.244 -0.608902 -1.45362 0
M  V30 5971 C 558.484 -0.10763 -2.04116 0
M  V30 5972 C 558.848 1.23883 -1.46686 0
M  V30 5973 O 560.049 1.83091 -1.96803 0
M  V30 5974 C 558.32 -0.0703351 -3.57331 0
M  V30 5975 S 559.879 0.369554 -4.37241 0
M  V30 5976 H 556.697 -0.0502123 -0.709225 0
M  V30 5977 H 559.299 -0.8073 -1.78053 0
M  V30 5978 H 558.003 -1.05379 -3.9664 0
M  V30 5979 H 557.534 0.651287 -3.87971 0
M  V30 5980 H 559.549 1.61878 -4.69052 0
M  V30 5981 N 558.722 1.53707 -0.348139 0
M  V30 5982 C 559.971 2.0017 0.247992 0
M  V30 5983 C 560.284 1.23983 1.51286 0
M  V30 5984 O 561.49 1.60946 2.18652 0
M  V30 5985 C 559.946 3.56515 0.492459 0
M  V30 5986 C 559.554 4.41562 -0.756777 0
M  V30 5987 C 561.298 4.11381 1.0472 0
M  V30 5988 C 559.205 5.89426 -0.482856 0
M  V30 5989 H 558.135 0.747806 0.0964452 0
M  V30 5990 H 560.786 1.77532 -0.464179 0
M  V30 5991 H 559.168 3.75236 1.26545 0
M  V30 5992 H 560.342 4.34615 -1.53122 0
M  V30 5993 H 558.657 3.97711 -1.23348 0
M  V30 5994 H 561.254 5.19468 1.26717 0
M  V30 5995 H 561.597 3.64885 2.00411 0
M  V30 5996 H 562.13 3.96389 0.334801 0
M  V30 5997 H 558.869 6.40164 -1.40962 0
M  V30 5998 H 558.389 5.99264 0.253416 0
M  V30 5999 H 560.068 6.4692 -0.101816 0
M  V30 6000 N 560.2 0.0768682 1.57412 0
M  V30 6001 C 561.446 -0.585926 1.94778 0
M  V30 6002 C 561.801 -1.66912 0.956982 0
M  V30 6003 O 561.094 -1.9159 -0.0199454 0
M  V30 6004 C 561.288 -1.20268 3.36557 0
M  V30 6005 C 561.117 -0.18076 4.49337 0
M  V30 6006 C 559.887 0.236362 5.04747 0
M  V30 6007 C 562.085 0.583978 5.10974 0
M  V30 6008 N 560.067 1.24846 6.01071 0
M  V30 6009 C 561.438 1.44841 6.02844 0
M  V30 6010 C 563.493 0.639492 4.93776 0
M  V30 6011 C 562.196 2.36343 6.79363 0
M  V30 6012 C 564.222 1.54204 5.70942 0
M  V30 6013 C 563.584 2.39414 6.62465 0
M  V30 6014 H 559.683 -0.185281 0.759734 0
M  V30 6015 H 562.267 0.155193 1.9408 0
M  V30 6016 H 560.438 -1.9137 3.37982 0
M  V30 6017 H 562.17 -1.82636 3.61146 0
M  V30 6018 H 558.925 -0.14777 4.73369 0
M  V30 6019 H 559.349 1.75217 6.53933 0
M  V30 6020 H 563.991 -0.00510074 4.228 0
M  V30 6021 H 561.709 3.01836 7.49614 0
M  V30 6022 H 565.295 1.5899 5.59655 0
M  V30 6023 H 564.175 3.0812 7.21132 0
M  V30 6024 N 561.678 -1.56367 -0.196722 0
M  V30 6025 C 562.908 -1.84371 -0.932254 0
M  V30 6026 C 563.316 -0.657013 -1.77426 0
M  V30 6027 O 562.659 0.383576 -1.79651 0
M  V30 6028 C 562.721 -3.06454 -1.87952 0
M  V30 6029 C 562.385 -4.40425 -1.21962 0
M  V30 6030 C 563.382 -5.16457 -0.597343 0
M  V30 6031 C 561.067 -4.8716 -1.22396 0
M  V30 6032 C 563.061 -6.37399 0.0117913 0
M  V30 6033 C 560.748 -6.08038 -0.610995 0
M  V30 6034 C 561.746 -6.83 0.00580487 0
M  V30 6035 O 561.434 -8.01589 0.609173 0
M  V30 6036 H 561.166 -0.616377 -0.277589 0
M  V30 6037 H 563.72 -2.04329 -0.209452 0
M  V30 6038 H 561.95 -2.82377 -2.64197 0
M  V30 6039 H 563.639 -3.21118 -2.48271 0
M  V30 6040 H 564.405 -4.81445 -0.586142 0
M  V30 6041 H 560.284 -4.2877 -1.69345 0
M  V30 6042 H 563.828 -6.9585 0.493836 0
M  V30 6043 H 559.725 -6.42519 -0.619693 0
M  V30 6044 H 560.493 -8.16935 0.505919 0
M  V30 6045 N 563.156 0.464375 -1.50603 0
M  V30 6046 C 564.402 1.21776 -1.62168 0
M  V30 6047 C 564.735 1.91476 -0.324154 0
M  V30 6048 O 564.01 1.8242 0.674782 0
M  V30 6049 C 564.293 2.25614 -2.80661 0
M  V30 6050 C 564.146 1.60175 -4.20314 0
M  V30 6051 C 565.465 3.26862 -2.94702 0
M  V30 6052 H 562.584 0.44137 -0.590222 0
M  V30 6053 H 565.226 0.510623 -1.8301 0
M  V30 6054 H 563.376 2.85923 -2.63021 0
M  V30 6055 H 565.048 1.03411 -4.4956 0
M  V30 6056 H 563.291 0.904697 -4.24261 0
M  V30 6057 H 563.962 2.35665 -4.99165 0
M  V30 6058 H 566.438 2.76582 -3.10872 0
M  V30 6059 H 565.314 3.96839 -3.79223 0
M  V30 6060 H 565.575 3.91382 -2.05603 0
M  V30 6061 N 564.634 1.40294 0.718013 0
M  V30 6062 C 565.883 1.37746 1.4734 0
M  V30 6063 C 566.196 -0.0180754 1.95592 0
M  V30 6064 O 567.402 -0.166166 2.70991 0
M  V30 6065 C 565.858 2.4208 2.66318 0
M  V30 6066 C 565.466 3.87432 2.24945 0
M  V30 6067 C 567.21 2.48635 3.44065 0
M  V30 6068 C 565.117 4.83368 3.40748 0
M  V30 6069 H 564.047 0.512165 0.553356 0
M  V30 6070 H 566.698 1.66019 0.781661 0
M  V30 6071 H 565.08 2.06903 3.3765 0
M  V30 6072 H 566.254 4.3174 1.6105 0
M  V30 6073 H 564.569 3.8433 1.60249 0
M  V30 6074 H 567.166 3.17499 4.30231 0
M  V30 6075 H 567.509 1.51611 3.87711 0
M  V30 6076 H 568.042 2.82791 2.79775 0
M  V30 6077 H 564.781 5.81716 3.02136 0
M  V30 6078 H 564.301 4.43726 4.03568 0
M  V30 6079 H 565.98 5.03074 4.06848 0
M  V30 6080 N 566.112 -0.949982 1.2575 0
M  V30 6081 C 567.36 -1.6918 1.10555 0
M  V30 6082 C 567.681 -1.91773 -0.353298 0
M  V30 6083 O 566.951 -1.50814 -1.25027 0
M  V30 6084 H 565.531 -0.626952 0.406129 0
M  V30 6085 H 568.193 -1.1419 1.57945 0
M  V30 6086 H 567.289 -2.66915 1.61749 0
M  V30 6087 N 567.59 -1.07411 -1.15328 0
M  V30 6088 C 569.006 -0.799759 -1.38116 0
M  V30 6089 C 569.206 0.59572 -1.92493 0
M  V30 6090 O 568.262 1.35433 -2.13106 0
M  V30 6091 C 569.575 -1.87407 -2.35158 0
M  V30 6092 C 571.123 -1.89889 -2.48819 0
M  V30 6093 C 571.598 -2.96406 -3.49153 0
M  V30 6094 N 573.089 -2.95512 -3.56689 0
M  V30 6095 C 573.824 -3.74575 -4.34144 0
M  V30 6096 N 573.32 -4.63488 -5.14928 0
M  V30 6097 N 575.113 -3.62919 -4.29239 0
M  V30 6098 H 567.264 -1.97411 -0.78374 0
M  V30 6099 H 569.527 -0.856113 -0.407154 0
M  V30 6100 H 569.233 -2.8768 -2.0232 0
M  V30 6101 H 569.107 -1.73471 -3.34944 0
M  V30 6102 H 571.494 -0.902677 -2.80955 0
M  V30 6103 H 571.575 -2.07904 -1.49029 0
M  V30 6104 H 571.219 -3.96227 -3.17752 0
M  V30 6105 H 571.149 -2.75638 -4.48699 0
M  V30 6106 H 573.64 -2.31061 -2.99031 0
M  V30 6107 H 573.953 -5.20445 -5.71276 0
M  V30 6108 H 572.298 -4.67537 -5.14232 0
M  V30 6109 H 575.489 -2.92833 -3.65194 0
M  V30 6110 H 575.662 -4.24777 -4.89355 0
M  V30 6111 N 569.068 1.32177 -0.85831 0
M  V30 6112 C 570.484 1.49873 -0.548656 0
M  V30 6113 C 570.684 1.79278 0.919874 0
M  V30 6114 O 569.74 1.86451 1.70271 0
M  V30 6115 C 571.053 2.64043 -1.4388 0
M  V30 6116 C 572.601 2.77928 -1.43961 0
M  V30 6117 C 573.076 3.95182 -2.31506 0
M  V30 6118 N 574.567 4.0245 -2.29321 0
M  V30 6119 C 575.302 4.9242 -2.93786 0
M  V30 6120 N 574.798 5.87373 -3.67376 0
M  V30 6121 N 576.591 4.85572 -2.83155 0
M  V30 6122 H 568.742 1.11357 -1.80868 0
M  V30 6123 H 571.005 0.549175 -0.772729 0
M  V30 6124 H 570.711 2.49055 -2.48324 0
M  V30 6125 H 570.585 3.59912 -1.12885 0
M  V30 6126 H 572.972 2.92338 -0.402813 0
M  V30 6127 H 573.053 1.82762 -1.78974 0
M  V30 6128 H 572.697 3.81531 -3.35256 0
M  V30 6129 H 572.627 4.89633 -1.93823 0
M  V30 6130 H 575.118 3.34507 -1.75822 0
M  V30 6131 H 575.431 6.52728 -4.13722 0
M  V30 6132 H 573.776 5.87388 -3.71484 0
M  V30 6133 H 576.967 4.10363 -2.25211 0
M  V30 6134 H 577.14 5.55486 -3.33676 0
M  V30 6135 N 570.547 0.616602 1.45037 0
M  V30 6136 C 571.457 -0.0985401 2.34393 0
M  V30 6137 C 572.473 -0.850971 1.51771 0
M  V30 6138 O 573.649 -0.806521 1.84546 0
M  V30 6139 C 570.714 -1.07748 3.29532 0
M  V30 6140 C 569.775 -0.326022 4.2806 0
M  V30 6141 C 569.008 -1.25833 5.18654 0
M  V30 6142 O 569.231 -2.49652 5.12864 0
M  V30 6143 O 568.165 -0.750512 5.97203 0
M  V30 6144 H 571.991 0.636016 2.96966 0
M  V30 6145 H 569.576 0.376832 1.44569 0
M  V30 6146 H 571.458 -1.64107 3.88133 0
M  V30 6147 H 570.133 -1.79291 2.69512 0
M  V30 6148 H 569.04 0.280253 3.73049 0
M  V30 6149 H 570.373 0.349091 4.9096 0
M  V30 6150 N 572.025 -1.5352 0.356285 0
M  V30 6151 C 572.958 -2.2177 -0.537913 0
M  V30 6152 C 573.936 -1.20626 -1.09033 0
M  V30 6153 O 575.12 -1.49494 -1.1482 0
M  V30 6154 C 572.247 -2.90513 -1.74126 0
M  V30 6155 C 571.293 -4.05652 -1.31715 0
M  V30 6156 S 572.126 -5.34505 -0.326236 0
M  V30 6157 C 573.282 -6.06757 -1.53612 0
M  V30 6158 H 573.515 -2.97271 0.0417411 0
M  V30 6159 H 571.048 -1.53761 0.140372 0
M  V30 6160 H 573.006 -3.30735 -2.43155 0
M  V30 6161 H 571.667 -2.14754 -2.29215 0
M  V30 6162 H 570.86 -4.52733 -2.21471 0
M  V30 6163 H 570.462 -3.67272 -0.706183 0
M  V30 6164 H 572.754 -6.30924 -2.46863 0
M  V30 6165 H 573.697 -6.99395 -1.10687 0
M  V30 6166 H 574.105 -5.3708 -1.73796 0
M  V30 6167 N 573.503 -0.0852151 -1.57369 0
M  V30 6168 C 574.413 0.891712 -2.16992 0
M  V30 6169 C 575.429 1.3174 -1.13669 0
M  V30 6170 O 576.605 1.38735 -1.45995 0
M  V30 6171 C 573.67 2.13635 -2.73059 0
M  V30 6172 C 572.731 1.7658 -3.91303 0
M  V30 6173 C 571.964 2.95111 -4.44686 0
M  V30 6174 O 572.187 4.09539 -3.97032 0
M  V30 6175 O 571.121 2.74149 -5.35841 0
M  V30 6176 H 574.947 0.414477 -3.00858 0
M  V30 6177 H 572.532 0.138598 -1.48756 0
M  V30 6178 H 574.414 2.86595 -3.08935 0
M  V30 6179 H 573.089 2.6043 -1.92244 0
M  V30 6180 H 571.996 1.00831 -3.60255 0
M  V30 6181 H 573.329 1.34557 -4.7345 0
M  V30 6182 N 574.981 1.5647 0.188427 0
M  V30 6183 C 575.944 1.9421 1.21718 0
M  V30 6184 C 576.944 0.823901 1.38089 0
M  V30 6185 O 578.134 1.09122 1.35787 0
M  V30 6186 C 575.266 2.22197 2.58537 0
M  V30 6187 H 576.459 2.86252 0.894418 0
M  V30 6188 H 574.012 1.50263 0.430211 0
M  V30 6189 H 574.747 1.32814 2.95856 0
M  V30 6190 H 574.532 3.03688 2.48025 0
M  V30 6191 H 576.022 2.52376 3.3271 0
M  V30 6192 N 576.459 -0.456382 1.50847 0
M  V30 6193 C 577.407 -1.57318 1.71329 0
M  V30 6194 C 578.401 -1.59187 0.579287 0
M  V30 6195 O 579.607 -1.6316 0.76018 0
M  V30 6196 H 575.982 -0.5223 0.541024 0
M  V30 6197 H 577.953 -1.3721 2.64983 0
M  V30 6198 C 576.702 -2.95142 1.83811 0
M  V30 6199 H 576.025 -2.94428 2.70467 0
M  V30 6200 H 577.465 -3.72702 2.02161 0
M  V30 6201 C 575.924 -3.31636 0.593224 0
M  V30 6202 O 576.454 -4.00852 -0.260898 0
M  V30 6203 N 574.66 -2.87205 0.442902 0
M  V30 6204 H 574.207 -2.31051 1.13901 0
M  V30 6205 H 574.165 -3.11986 -0.38884 0
M  V30 6206 N 577.937 -1.40673 -0.710563 0
M  V30 6207 C 579.214 -1.29718 -1.46398 0
M  V30 6208 C 579.594 0.082177 -2.1094 0
M  V30 6209 O 578.942 1.09536 -2.00534 0
M  V30 6210 C 579.152 -2.43967 -2.49562 0
M  V30 6211 C 580.5 -2.84436 -3.15248 0
M  V30 6212 O 581.524 -2.43597 -2.59883 0
M  V30 6213 O 580.383 -3.55008 -4.1549 0
M  V30 6214 H 577.477 -0.509697 -0.651258 0
M  V30 6215 H 580.023 -1.52603 -0.742312 0
M  V30 6216 H 578.795 -3.36076 -2.0042 0
M  V30 6217 H 578.418 -2.22879 -3.29258 0
M  V30 6218 N 579.415 0.9433 -1.26252 0
M  V30 6219 C 580.826 1.50404 -1.10614 0
M  V30 6220 C 581.177 1.93666 0.31429 0
M  V30 6221 O 580.302 1.79709 1.20555 0
M  V30 6222 C 580.897 2.73336 -2.00182 0
M  V30 6223 C 579.456 3.25686 -1.88695 0
M  V30 6224 C 578.603 1.98474 -1.93658 0
M  V30 6225 H 581.554 0.759006 -1.39373 0
M  V30 6226 H 581.575 3.47567 -1.54847 0
M  V30 6227 H 581.087 2.41818 -3.03555 0
M  V30 6228 H 579.188 3.61998 -0.882489 0
M  V30 6229 H 579.301 3.92935 -2.74115 0
M  V30 6230 H 577.665 2.14278 -1.37684 0
M  V30 6231 H 578.448 1.6929 -2.98657 0
M  V30 6232 N 580.893 1.08022 1.14757 0
M  V30 6233 C 581.823 0.728248 2.21853 0
M  V30 6234 C 582.804 -0.287486 1.67653 0
M  V30 6235 O 583.989 -0.158727 1.9355 0
M  V30 6236 C 581.119 0.132549 3.47047 0
M  V30 6237 C 580.073 1.07619 4.14249 0
M  V30 6238 C 579.399 0.342907 5.33599 0
M  V30 6239 C 580.699 2.41268 4.63235 0
M  V30 6240 H 582.393 1.62365 2.51551 0
M  V30 6241 H 579.939 0.782125 1.20908 0
M  V30 6242 H 581.892 -0.125665 4.21213 0
M  V30 6243 H 580.616 -0.797971 3.16702 0
M  V30 6244 H 579.275 1.31944 3.42033 0
M  V30 6245 H 578.923 -0.59129 4.99513 0
M  V30 6246 H 578.623 0.971955 5.79506 0
M  V30 6247 H 580.147 0.0926538 6.1053 0
M  V30 6248 H 581.561 2.21232 5.28894 0
M  V30 6249 H 579.958 2.9983 5.19829 0
M  V30 6250 H 581.028 3.03079 3.78512 0
M  V30 6251 N 582.371 -1.3172 0.865308 0
M  V30 6252 C 583.301 -2.31109 0.333302 0
M  V30 6253 C 584.282 -1.60148 -0.573301 0
M  V30 6254 O 585.467 -1.87882 -0.491305 0
M  V30 6255 C 582.597 -3.44104 -0.470078 0
M  V30 6256 C 581.551 -4.26623 0.343021 0
M  V30 6257 C 580.877 -5.31482 -0.585756 0
M  V30 6258 C 582.177 -4.98001 1.57456 0
M  V30 6259 H 583.871 -2.75855 1.1638 0
M  V30 6260 H 581.417 -1.3262 0.561069 0
M  V30 6261 H 583.37 -4.12682 -0.852752 0
M  V30 6262 H 582.094 -2.98112 -1.33404 0
M  V30 6263 H 580.753 -3.59707 0.707583 0
M  V30 6264 H 580.401 -4.81741 -1.44686 0
M  V30 6265 H 580.101 -5.87582 -0.0456494 0
M  V30 6266 H 581.625 -6.0292 -0.965375 0
M  V30 6267 H 583.039 -5.59201 1.26359 0
M  V30 6268 H 581.436 -5.63876 2.05339 0
M  V30 6269 H 582.506 -4.25253 2.32997 0
M  V30 6270 N 583.85 -0.624285 -1.44708 0
M  V30 6271 C 585.096 -0.13473 -2.02953 0
M  V30 6272 C 585.451 1.22724 -1.48178 0
M  V30 6273 O 584.744 1.80109 -0.653542 0
M  V30 6274 C 584.938 -0.0546353 -3.57358 0
M  V30 6275 C 584.767 -1.40729 -4.27113 0
M  V30 6276 C 583.537 -1.99231 -4.64365 0
M  V30 6277 C 585.735 -2.33968 -4.58 0
M  V30 6278 N 583.716 -3.27803 -5.19055 0
M  V30 6279 C 585.088 -3.47149 -5.137 0
M  V30 6280 C 587.143 -2.33132 -4.39948 0
M  V30 6281 C 585.846 -4.59682 -5.53249 0
M  V30 6282 C 587.872 -3.44724 -4.8054 0
M  V30 6283 C 587.234 -4.56629 -5.36348 0
M  V30 6284 H 583.332 -0.0930617 -0.776443 0
M  V30 6285 H 585.917 -0.826286 -1.76297 0
M  V30 6286 H 584.088 0.606183 -3.8364 0
M  V30 6287 H 585.82 0.443116 -4.02267 0
M  V30 6288 H 582.575 -1.52251 -4.4846 0
M  V30 6289 H 582.999 -3.93519 -5.50883 0
M  V30 6290 H 587.641 -1.47868 -3.961 0
M  V30 6291 H 585.359 -5.4566 -5.96054 0
M  V30 6292 H 588.945 -3.45245 -4.68291 0
M  V30 6293 H 587.825 -5.41551 -5.67179 0
M  V30 6294 N 585.328 1.53329 -0.364422 0
M  V30 6295 C 586.605 1.93557 0.281962 0
M  V30 6296 C 586.985 1.29786 1.6649 0
M  V30 6297 O 586.333 0.456512 2.23893 0
M  V30 6298 C 586.543 3.47405 0.333331 0
M  V30 6299 C 587.891 4.20699 0.574231 0
M  V30 6300 O 588.915 3.53779 0.414588 0
M  V30 6301 O 587.774 5.39287 0.885002 0
M  V30 6302 H 584.868 0.809573 0.168881 0
M  V30 6303 H 587.414 1.64494 -0.417121 0
M  V30 6304 H 586.186 3.86091 -0.636326 0
M  V30 6305 H 585.809 3.82697 1.07836 0
M  V30 6306 N 586.806 0.0935595 1.57322 0
M  V30 6307 C 588.055 -0.570191 1.93473 0
M  V30 6308 C 588.368 -1.69434 0.977318 0
M  V30 6309 O 589.574 -2.41914 1.23248 0
M  V30 6310 C 588.03 -1.06564 3.43762 0
M  V30 6311 C 587.638 0.0286723 4.47991 0
M  V30 6312 C 589.382 -1.70221 3.88877 0
M  V30 6313 C 587.289 -0.482046 5.89432 0
M  V30 6314 H 586.219 -0.216764 0.72217 0
M  V30 6315 H 588.87 0.169313 1.82717 0
M  V30 6316 H 587.252 -1.85878 3.49664 0
M  V30 6317 H 588.426 0.804106 4.5373 0
M  V30 6318 H 586.741 0.570336 4.12476 0
M  V30 6319 H 589.338 -2.09502 4.91948 0
M  V30 6320 H 589.681 -2.57078 3.27439 0
M  V30 6321 H 590.214 -0.974919 3.85668 0
M  V30 6322 H 586.953 0.349871 6.54566 0
M  V30 6323 H 586.473 -1.22452 5.87167 0
M  V30 6324 H 588.152 -0.951508 6.39965 0
M  V30 6325 N 588.284 -1.56567 -0.180126 0
M  V30 6326 C 589.532 -1.81133 -0.896392 0
M  V30 6327 C 589.853 -0.669114 -1.83161 0
M  V30 6328 O 589.123 0.311616 -1.93406 0
M  V30 6329 H 587.703 -0.668172 -0.333999 0
M  V30 6330 H 590.365 -1.94048 -0.182051 0
M  V30 6331 H 589.461 -2.74854 -1.47857 0
M  V30 6332 N 589.762 0.448376 -1.51087 0
M  V30 6333 C 591.008 1.19748 -1.64414 0
M  V30 6334 C 591.363 1.89177 -0.350715 0
M  V30 6335 O 590.656 1.80135 0.652834 0
M  V30 6336 C 590.85 2.24866 -2.77795 0
M  V30 6337 C 590.679 1.65753 -4.18038 0
M  V30 6338 C 589.449 1.44728 -4.8413 0
M  V30 6339 C 591.647 1.13985 -5.0151 0
M  V30 6340 N 589.629 0.810962 -6.0852 0
M  V30 6341 C 591 0.628141 -6.1681 0
M  V30 6342 C 593.055 1.03055 -4.87118 0
M  V30 6343 C 591.758 0.0178906 -7.19298 0
M  V30 6344 C 593.784 0.434212 -5.89804 0
M  V30 6345 C 593.146 -0.0670069 -7.04368 0
M  V30 6346 H 589.245 0.426254 -0.655615 0
M  V30 6347 H 591.829 0.495806 -1.88281 0
M  V30 6348 H 590 2.92434 -2.55611 0
M  V30 6349 H 591.732 2.91857 -2.8036 0
M  V30 6350 H 588.487 1.70593 -4.41809 0
M  V30 6351 H 588.911 0.510563 -6.75072 0
M  V30 6352 H 593.553 1.40395 -3.9881 0
M  V30 6353 H 591.271 -0.367662 -8.07263 0
M  V30 6354 H 594.857 0.3517 -5.80736 0
M  V30 6355 H 593.737 -0.521209 -7.82466 0
M  V30 6356 N 591.24 1.41047 0.703093 0
M  V30 6357 C 592.17 1.45067 1.82969 0
M  V30 6358 C 593.151 0.31016 1.67248 0
M  V30 6359 O 594.336 0.520548 1.87093 0
M  V30 6360 C 591.466 1.32478 3.2104 0
M  V30 6361 C 590.42 2.44262 3.51454 0
M  V30 6362 C 589.746 2.16742 4.88801 0
M  V30 6363 C 591.046 3.86606 3.51189 0
M  V30 6364 H 592.74 2.39353 1.79863 0
M  V30 6365 H 590.286 1.15206 0.863919 0
M  V30 6366 H 592.239 1.33904 3.99559 0
M  V30 6367 H 590.963 0.346735 3.24754 0
M  V30 6368 H 589.622 2.42107 2.75282 0
M  V30 6369 H 589.27 1.17299 4.89132 0
M  V30 6370 H 588.97 2.91643 5.10116 0
M  V30 6371 H 590.494 2.19872 5.69639 0
M  V30 6372 H 591.908 3.90517 4.19725 0
M  V30 6373 H 590.305 4.61128 3.84033 0
M  V30 6374 H 591.375 4.15296 2.50315 0
M  V30 6375 N 592.718 -0.936591 1.26751 0
M  V30 6376 C 593.668 -2.0219 1.05371 0
M  V30 6377 C 594.652 -1.60893 -0.0154112 0
M  V30 6378 O 595.844 -1.75843 0.202085 0
M  V30 6379 C 592.973 -3.36222 0.693541 0
M  V30 6380 C 592.059 -3.8399 1.80035 0
M  V30 6381 N 592.45 -4.0436 3.03852 0
M  V30 6382 C 590.748 -4.12945 1.685 0
M  V30 6383 C 591.449 -4.44 3.75818 0
M  V30 6384 N 590.425 -4.50966 3.03531 0
M  V30 6385 H 594.227 -2.15958 1.99347 0
M  V30 6386 H 591.741 -1.12277 1.17335 0
M  V30 6387 H 593.738 -4.13625 0.521513 0
M  V30 6388 H 592.398 -3.23821 -0.238693 0
M  V30 6389 H 593.409 -3.9092 3.39709 0
M  V30 6390 H 590.086 -4.09308 0.822986 0
M  V30 6391 H 591.476 -4.67914 4.82189 0
M  V30 6392 N 594.196 -1.08629 -1.14182 0
M  V30 6393 C 595.106 -0.730126 -2.22949 0
M  V30 6394 C 596.122 0.26436 -1.7198 0
M  V30 6395 O 597.298 0.107742 -2.01112 0
M  V30 6396 C 594.363 -0.147227 -3.46387 0
M  V30 6397 C 593.424 -1.19662 -4.12286 0
M  V30 6398 C 592.657 -0.641437 -5.29831 0
M  V30 6399 O 592.88 0.538351 -5.67854 0
M  V30 6400 O 591.814 -1.39257 -5.85569 0
M  V30 6401 H 595.64 -1.63753 -2.55771 0
M  V30 6402 H 593.225 -0.860118 -1.22157 0
M  V30 6403 H 595.107 0.174923 -4.21037 0
M  V30 6404 H 593.782 0.733304 -3.15285 0
M  V30 6405 H 592.689 -1.57133 -3.395 0
M  V30 6406 H 594.022 -2.0495 -4.475 0
M  V30 6407 N 595.674 1.31259 -0.872281 0
M  V30 6408 C 596.604 2.30929 -0.345554 0
M  V30 6409 C 597.585 1.60449 0.5648 0
M  V30 6410 O 598.77 1.8814 0.481335 0
M  V30 6411 C 595.9 3.44348 0.451823 0
M  V30 6412 C 594.854 4.26435 -0.365641 0
M  V30 6413 C 594.18 5.31785 0.557562 0
M  V30 6414 C 595.48 4.97159 -1.60095 0
M  V30 6415 H 597.174 2.75234 -1.17841 0
M  V30 6416 H 594.72 1.3232 -0.568094 0
M  V30 6417 H 596.673 4.13128 0.830854 0
M  V30 6418 H 595.397 2.98816 1.31821 0
M  V30 6419 H 594.056 3.59326 -0.726649 0
M  V30 6420 H 593.704 4.82502 1.4213 0
M  V30 6421 H 593.404 5.87598 0.0144878 0
M  V30 6422 H 594.928 6.03424 0.933387 0
M  V30 6423 H 596.342 5.58523 -1.29323 0
M  V30 6424 H 594.739 5.62779 -2.08327 0
M  V30 6425 H 595.809 4.24012 -2.35249 0
M  V30 6426 N 597.152 0.631951 1.44375 0
M  V30 6427 C 598.4 0.136497 2.01639 0
M  V30 6428 C 598.721 -1.24637 1.49969 0
M  V30 6429 O 597.991 -1.82827 0.70363 0
M  V30 6430 H 596.571 0.0474703 0.74549 0
M  V30 6431 H 599.233 0.818837 1.76865 0
M  V30 6432 H 598.329 0.104817 3.11924 0
M  V30 6433 N 598.631 -1.53133 0.372548 0
M  V30 6434 C 599.578 -2.25951 -0.470631 0
M  V30 6435 C 600.548 -1.26895 -1.07176 0
M  V30 6436 O 601.733 -1.55691 -1.10294 0
M  V30 6437 C 598.873 -3.05726 -1.6008 0
M  V30 6438 C 597.986 -4.19684 -1.02416 0
M  V30 6439 C 597.121 -4.86888 -2.124 0
M  V30 6440 C 596.16 -5.92866 -1.52238 0
M  V30 6441 N 595.297 -6.53732 -2.56084 0
M  V30 6442 H 600.137 -2.97587 0.156816 0
M  V30 6443 H 597.674 -1.4683 0.0891571 0
M  V30 6444 H 599.632 -3.50258 -2.26661 0
M  V30 6445 H 598.262 -2.36331 -2.1988 0
M  V30 6446 H 597.314 -3.79588 -0.248426 0
M  V30 6447 H 598.626 -4.95821 -0.544366 0
M  V30 6448 H 597.78 -5.34638 -2.86787 0
M  V30 6449 H 596.519 -4.10239 -2.63734 0
M  V30 6450 H 595.524 -5.4447 -0.763685 0
M  V30 6451 H 596.749 -6.71439 -1.0172 0
M  V30 6452 H 594.695 -5.79932 -3.06618 0
M  V30 6453 H 594.612 -7.25429 -2.12811 0
M  V30 6454 H 595.88 -7.0613 -3.30152 0
M  V30 6455 N 600.109 -0.101901 -1.5727 0
M  V30 6456 C 601.525 0.254739 -1.57554 0
M  V30 6457 C 601.725 1.67937 -1.11352 0
M  V30 6458 O 600.781 2.39722 -0.793081 0
M  V30 6459 C 602.094 0.036975 -3.00677 0
M  V30 6460 C 603.642 0.104199 -3.12827 0
M  V30 6461 C 604.117 -0.0856565 -4.5792 0
M  V30 6462 N 605.608 -0.0310498 -4.6319 0
M  V30 6463 C 606.343 -0.153099 -5.73196 0
M  V30 6464 N 605.839 -0.330364 -6.92012 0
M  V30 6465 N 607.632 -0.0938854 -5.62022 0
M  V30 6466 H 599.783 -1.03263 -1.85609 0
M  V30 6467 H 602.046 -0.405251 -0.857016 0
M  V30 6468 H 601.752 -0.947254 -3.38703 0
M  V30 6469 H 601.626 0.776335 -3.69124 0
M  V30 6470 H 604.013 1.07894 -2.74669 0
M  V30 6471 H 604.094 -0.666762 -2.46957 0
M  V30 6472 H 603.738 -1.05729 -4.96773 0
M  V30 6473 H 603.668 0.705082 -5.21858 0
M  V30 6474 H 606.159 0.103141 -3.77759 0
M  V30 6475 H 606.472 -0.41482 -7.71686 0
M  V30 6476 H 604.817 -0.366119 -6.94035 0
M  V30 6477 H 608.008 0.0435168 -4.6808 0
M  V30 6478 H 608.181 -0.19245 -6.47714 0
M  V30 6479 N 601.587 1.56661 0.17182 0
M  V30 6480 C 602.517 1.99401 1.21498 0
M  V30 6481 C 603.498 0.869516 1.46197 0
M  V30 6482 O 604.683 1.13556 1.57539 0
M  V30 6483 C 601.813 2.35346 2.55401 0
M  V30 6484 C 600.767 3.5075 2.45272 0
M  V30 6485 C 600.093 3.72437 3.8366 0
M  V30 6486 C 601.393 4.84216 1.95787 0
M  V30 6487 H 603.087 2.86792 0.859699 0
M  V30 6488 H 600.633 1.37977 0.412103 0
M  V30 6489 H 602.586 2.63843 3.2858 0
M  V30 6490 H 601.31 1.44864 2.92715 0
M  V30 6491 H 599.969 3.2238 1.74547 0
M  V30 6492 H 599.617 2.79246 4.18367 0
M  V30 6493 H 599.317 4.50087 3.77751 0
M  V30 6494 H 600.841 4.03334 4.58426 0
M  V30 6495 H 602.255 5.11592 2.5874 0
M  V30 6496 H 600.652 5.65498 2.00827 0
M  V30 6497 H 601.722 4.76243 0.912159 0
M  V30 6498 N 603.065 -0.440357 1.51323 0
M  V30 6499 C 603.975 -1.55955 1.75258 0
M  V30 6500 C 604.991 -1.61933 0.636687 0
M  V30 6501 O 606.167 -1.79231 0.918593 0
M  V30 6502 C 603.232 -2.9196 1.86977 0
M  V30 6503 C 602.293 -2.96122 3.10822 0
M  V30 6504 C 601.526 -4.2564 3.21973 0
M  V30 6505 O 601.749 -5.17851 2.39137 0
M  V30 6506 O 600.683 -4.36025 4.14929 0
M  V30 6507 H 604.509 -1.38673 2.70191 0
M  V30 6508 H 602.094 -0.623055 1.35788 0
M  V30 6509 H 603.976 -3.72682 1.96688 0
M  V30 6510 H 602.651 -3.09375 0.952307 0
M  V30 6511 H 601.558 -2.14366 3.06591 0
M  V30 6512 H 602.891 -2.83651 4.02247 0
M  V30 6513 N 604.543 -1.41418 -0.695603 0
M  V30 6514 C 605.789 -1.40982 -1.4578 0
M  V30 6515 C 606.122 -0.0187763 -1.94191 0
M  V30 6516 O 605.397 0.95346 -1.69527 0
M  V30 6517 C 605.68 -2.41657 -2.66972 0
M  V30 6518 C 605.533 -3.89869 -2.24327 0
M  V30 6519 C 606.852 -2.39589 -3.69168 0
M  V30 6520 H 603.971 -0.513405 -0.528757 0
M  V30 6521 H 606.613 -1.72693 -0.792275 0
M  V30 6522 H 604.763 -2.14746 -3.23754 0
M  V30 6523 H 606.435 -4.27683 -1.72872 0
M  V30 6524 H 604.678 -4.04737 -1.56111 0
M  V30 6525 H 605.349 -4.55857 -3.11285 0
M  V30 6526 H 607.825 -2.63471 -3.2206 0
M  V30 6527 H 606.701 -3.12044 -4.51575 0
M  V30 6528 H 606.962 -1.41447 -4.18862 0
M  V30 6529 N 606.021 0.929856 -1.27246 0
M  V30 6530 C 607.432 1.49223 -1.12203 0
M  V30 6531 C 607.783 1.93989 0.293731 0
M  V30 6532 O 606.908 1.80978 1.18642 0
M  V30 6533 C 607.503 2.71198 -2.0307 0
M  V30 6534 C 606.062 3.23666 -1.92139 0
M  V30 6535 C 605.209 1.96409 -1.95752 0
M  V30 6536 H 608.16 0.744181 -1.4017 0
M  V30 6537 H 608.181 3.45905 -1.58524 0
M  V30 6538 H 607.693 2.38585 -3.06102 0
M  V30 6539 H 605.794 3.61042 -0.920834 0
M  V30 6540 H 605.907 3.90006 -2.78267 0
M  V30 6541 H 604.271 2.12806 -1.39949 0
M  V30 6542 H 605.054 1.66113 -3.00436 0
M  V30 6543 N 607.499 1.09233 1.13605 0
M  V30 6544 C 608.729 0.847677 1.88409 0
M  V30 6545 C 609.137 -0.604524 1.79282 0
M  V30 6546 O 608.48 -1.42773 1.15592 0
M  V30 6547 C 608.542 1.20153 3.38827 0
M  V30 6548 C 608.206 2.65824 3.71735 0
M  V30 6549 C 609.203 3.64072 3.71143 0
M  V30 6550 C 606.888 3.01894 4.01454 0
M  V30 6551 C 608.882 4.96419 3.99808 0
M  V30 6552 C 606.569 4.34433 4.29781 0
M  V30 6553 C 607.567 5.31505 4.28942 0
M  V30 6554 O 607.255 6.61659 4.56576 0
M  V30 6555 H 606.987 0.304813 0.603378 0
M  V30 6556 H 609.541 1.4573 1.44748 0
M  V30 6557 H 607.771 0.534946 3.82982 0
M  V30 6558 H 609.46 0.936349 3.94952 0
M  V30 6559 H 610.226 3.37549 3.4826 0
M  V30 6560 H 606.105 2.26971 4.01255 0
M  V30 6561 H 609.649 5.7218 3.99069 0
M  V30 6562 H 605.546 4.607 4.52135 0
M  V30 6563 H 606.314 6.67102 4.74254 0
M  V30 6564 N 608.977 -1.30795 0.87923 0
M  V30 6565 C 610.223 -1.96653 0.495519 0
M  V30 6566 C 610.556 -1.69282 -0.951703 0
M  V30 6567 O 609.831 -0.994374 -1.6716 0
M  V30 6568 C 610.114 -3.51898 0.764174 0
M  V30 6569 C 609.967 -3.88808 2.2616 0
M  V30 6570 C 611.286 -4.39462 0.236825 0
M  V30 6571 H 608.405 -0.7143 0.181507 0
M  V30 6572 H 611.047 -1.54765 1.10217 0
M  V30 6573 H 609.197 -3.87709 0.247841 0
M  V30 6574 H 610.869 -3.63051 2.8459 0
M  V30 6575 H 609.112 -3.37082 2.73053 0
M  V30 6576 H 609.783 -4.97086 2.4002 0
M  V30 6577 H 612.259 -4.10528 0.678683 0
M  V30 6578 H 611.135 -5.47018 0.454176 0
M  V30 6579 H 611.396 -4.33621 -0.861683 0
M  V30 6580 N 610.455 -0.639598 -1.44038 0
M  V30 6581 C 611.403 0.0723409 -2.32487 0
M  V30 6582 C 612.397 0.827129 -1.47834 0
M  V30 6583 O 613.603 0.73907 -1.64127 0
M  V30 6584 H 609.978 0.0421696 -0.750817 0
M  V30 6585 H 611.949 -0.691593 -2.90275 0
M  V30 6586 C 610.698 1.03452 -3.31953 0
M  V30 6587 H 610.021 0.46315 -3.97108 0
M  V30 6588 H 611.461 1.502 -3.96505 0
M  V30 6589 C 609.92 2.12392 -2.61518 0
M  V30 6590 O 610.45 3.2059 -2.42044 0
M  V30 6591 N 608.656 1.88563 -2.21116 0
M  V30 6592 H 608.203 1.00577 -2.37154 0
M  V30 6593 H 608.161 2.61651 -1.74316 0
M  V30 6594 N 611.933 1.52934 -0.380664 0
M  V30 6595 C 613.181 2.01069 0.203874 0
M  V30 6596 C 613.502 1.26922 1.4804 0
M  V30 6597 O 612.772 0.386787 1.92044 0
M  V30 6598 H 611.352 0.742882 0.0783279 0
M  V30 6599 H 614.014 1.88099 -0.510368 0
M  V30 6600 H 613.11 3.09258 0.42021 0
M  V30 6601 N 613.412 0.11024 1.57214 0
M  V30 6602 C 614.637 -0.561179 1.99664 0
M  V30 6603 C 615.062 -1.59985 0.989266 0
M  V30 6604 O 614.42 -1.81255 -0.0402399 0
M  V30 6605 C 614.468 -1.17189 3.41027 0
M  V30 6606 O 613.572 -2.28755 3.4314 0
M  V30 6607 H 612.913 -0.14101 0.648855 0
M  V30 6608 H 615.443 0.196128 2.03658 0
M  V30 6609 H 615.453 -1.50954 3.79047 0
M  V30 6610 H 614.128 -0.411041 4.13864 0
M  V30 6611 H 612.705 -1.96495 3.16929 0
M  V30 6612 N 614.89 -1.56749 -0.16351 0
M  V30 6613 C 616.136 -1.82704 -0.880168 0
M  V30 6614 C 616.469 -0.689311 -1.81555 0
M  V30 6615 O 615.744 0.308224 -1.92042 0
M  V30 6616 C 616.027 -3.19084 -1.66905 0
M  V30 6617 C 615.88 -4.43397 -0.756269 0
M  V30 6618 C 617.199 -3.52493 -2.63509 0
M  V30 6619 H 614.318 -0.664608 -0.318535 0
M  V30 6620 H 616.96 -1.89438 -0.146036 0
M  V30 6621 H 615.11 -3.13475 -2.2949 0
M  V30 6622 H 616.782 -4.61079 -0.14269 0
M  V30 6623 H 615.025 -4.33752 -0.0647944 0
M  V30 6624 H 615.696 -5.3539 -1.34393 0
M  V30 6625 H 618.172 -3.58606 -2.11047 0
M  V30 6626 H 617.048 -4.48979 -3.15767 0
M  V30 6627 H 617.309 -2.77597 -3.44082 0
M  V30 6628 N 616.368 0.432326 -1.51554 0
M  V30 6629 C 617.616 1.17901 -1.64146 0
M  V30 6630 C 617.937 1.91604 -0.362367 0
M  V30 6631 O 617.207 1.85764 0.621968 0
M  V30 6632 H 615.787 0.438206 -0.604966 0
M  V30 6633 H 618.449 0.495172 -1.88505 0
M  V30 6634 H 617.545 1.90584 -2.47152 0
M  V30 6635 N 617.846 1.41785 0.688094 0
M  V30 6636 C 619.094 1.41264 1.4453 0
M  V30 6637 C 619.415 0.0252946 1.94984 0
M  V30 6638 O 618.685 -0.934081 1.72197 0
M  V30 6639 H 617.265 0.519998 0.536294 0
M  V30 6640 H 619.927 1.7709 0.813941 0
M  V30 6641 H 619.023 2.10439 2.30482 0
M  V30 6642 N 619.324 -0.923095 1.27737 0
M  V30 6643 C 620.735 -1.48626 1.12993 0
M  V30 6644 C 621.086 -1.94142 -0.283439 0
M  V30 6645 O 620.211 -1.81605 -1.17681 0
M  V30 6646 C 620.806 -2.70117 2.04505 0
M  V30 6647 C 619.365 -3.22642 1.93853 0
M  V30 6648 C 618.512 -1.95368 1.96791 0
M  V30 6649 H 621.463 -0.736737 1.40563 0
M  V30 6650 H 621.484 -3.4506 1.60356 0
M  V30 6651 H 620.996 -2.36959 3.07363 0
M  V30 6652 H 619.097 -3.60549 0.939968 0
M  V30 6653 H 619.21 -3.88525 2.80331 0
M  V30 6654 H 617.574 -2.12061 1.41076 0
M  V30 6655 H 618.357 -1.64517 3.01312 0
M  V30 6656 N 620.802 -1.09834 -1.13024 0
M  V30 6657 C 622.027 -0.85909 -1.88771 0
M  V30 6658 C 622.452 0.584402 -1.78791 0
M  V30 6659 O 621.81 1.41101 -1.13842 0
M  V30 6660 C 621.858 -1.30427 -3.36186 0
M  V30 6661 O 620.962 -0.465368 -4.09766 0
M  V30 6662 H 620.303 -0.310786 -0.586778 0
M  V30 6663 H 622.833 -1.46355 -1.42973 0
M  V30 6664 H 622.843 -1.2915 -3.8702 0
M  V30 6665 H 621.518 -2.3555 -3.42767 0
M  V30 6666 H 620.095 -0.542814 -3.68928 0
M  V30 6667 N 622.28 1.30327 -0.886154 0
M  V30 6668 C 623.696 1.48676 -0.580323 0
M  V30 6669 C 623.896 1.81189 0.881639 0
M  V30 6670 O 622.952 1.90021 1.66278 0
M  V30 6671 C 624.265 2.60932 -1.49449 0
M  V30 6672 C 625.813 2.74812 -1.49824 0
M  V30 6673 C 626.288 3.90183 -2.39836 0
M  V30 6674 N 627.779 3.97495 -2.37806 0
M  V30 6675 C 628.514 4.86078 -3.04165 0
M  V30 6676 N 628.01 5.79448 -3.79753 0
M  V30 6677 N 629.803 4.79456 -2.93391 0
M  V30 6678 H 621.954 1.07495 -1.8319 0
M  V30 6679 H 624.217 0.532661 -0.784204 0
M  V30 6680 H 623.923 2.43731 -2.5355 0
M  V30 6681 H 623.797 3.57437 -1.20494 0
M  V30 6682 H 626.184 2.91418 -0.464731 0
M  V30 6683 H 626.265 1.78924 -1.82811 0
M  V30 6684 H 625.909 3.74334 -3.43273 0
M  V30 6685 H 625.839 4.85411 -2.04166 0
M  V30 6686 H 628.33 3.30703 -1.82877 0
M  V30 6687 H 628.643 6.43805 -4.27475 0
M  V30 6688 H 626.988 5.79376 -3.8386 0
M  V30 6689 H 630.179 4.05494 -2.33864 0
M  V30 6690 H 630.352 5.48283 -3.45383 0
M  V30 6691 N 623.758 0.647228 1.43697 0
M  V30 6692 C 625.174 0.314256 1.56476 0
M  V30 6693 C 625.374 -1.18191 1.63196 0
M  V30 6694 O 624.43 -1.96655 1.58376 0
M  V30 6695 C 625.743 1.02034 2.82859 0
M  V30 6696 C 627.291 1.00002 2.96595 0
M  V30 6697 C 627.766 1.68689 4.25803 0
M  V30 6698 N 629.257 1.65424 4.32654 0
M  V30 6699 C 629.992 2.1545 5.31384 0
M  V30 6700 N 629.488 2.73738 6.36427 0
M  V30 6701 N 631.281 2.05985 5.22998 0
M  V30 6702 H 623.432 1.61821 1.37578 0
M  V30 6703 H 625.695 0.680184 0.660344 0
M  V30 6704 H 625.401 2.07542 2.83935 0
M  V30 6705 H 625.275 0.568146 3.72897 0
M  V30 6706 H 627.662 -0.0466319 2.95063 0
M  V30 6707 H 627.743 1.49086 2.07863 0
M  V30 6708 H 627.387 2.73308 4.28095 0
M  V30 6709 H 627.317 1.17076 5.13421 0
M  V30 6710 H 629.808 1.22884 3.57363 0
M  V30 6711 H 630.121 3.09602 7.08072 0
M  V30 6712 H 628.466 2.77796 6.37067 0
M  V30 6713 H 631.657 1.60157 4.39849 0
M  V30 6714 H 631.83 2.45281 5.99784 0
M  V30 6715 N 625.236 -1.5273 0.388769 0
M  V30 6716 C 626.461 -2.0647 -0.19621 0
M  V30 6717 C 626.886 -1.25865 -1.39784 0
M  V30 6718 O 626.244 -0.283562 -1.79069 0
M  V30 6719 C 626.292 -3.56456 -0.5451 0
M  V30 6720 O 625.396 -3.78426 -1.63912 0
M  V30 6721 H 624.737 -0.663599 -0.023067 0
M  V30 6722 H 627.267 -1.96898 0.556084 0
M  V30 6723 H 627.277 -3.99888 -0.809557 0
M  V30 6724 H 625.952 -4.14561 0.333417 0
M  V30 6725 H 624.529 -3.46884 -1.36842 0
M  V30 6726 N 626.714 -0.118576 -1.57153 0
M  V30 6727 C 627.677 0.817464 -2.14127 0
M  V30 6728 C 628.677 1.1949 -1.07604 0
M  V30 6729 O 629.867 1.12048 -1.33382 0
M  V30 6730 C 626.999 2.10541 -2.68115 0
M  V30 6731 H 628.192 0.322339 -2.98163 0
M  V30 6732 H 625.745 0.130655 -1.55753 0
M  V30 6733 H 626.48 2.64485 -1.87665 0
M  V30 6734 H 626.265 1.84425 -3.4602 0
M  V30 6735 H 627.755 2.77453 -3.12105 0
M  V30 6736 N 628.193 1.56834 0.155195 0
M  V30 6737 C 629.423 1.86778 0.883044 0
M  V30 6738 C 629.831 0.703824 1.75622 0
M  V30 6739 O 629.174 -0.33581 1.80605 0
M  V30 6740 C 629.236 3.1133 1.79761 0
M  V30 6741 C 628.9 4.43504 1.10242 0
M  V30 6742 C 629.897 5.17859 0.460204 0
M  V30 6743 C 627.582 4.90233 1.09437 0
M  V30 6744 C 629.576 6.37144 -0.180782 0
M  V30 6745 C 627.263 6.09444 0.449569 0
M  V30 6746 C 628.261 6.82744 -0.186888 0
M  V30 6747 O 627.949 7.99692 -0.821486 0
M  V30 6748 H 627.681 0.62352 0.261149 0
M  V30 6749 H 630.235 2.04813 0.155204 0
M  V30 6750 H 628.465 2.89282 2.56618 0
M  V30 6751 H 630.154 3.27587 2.39669 0
M  V30 6752 H 630.92 4.8283 0.458289 0
M  V30 6753 H 626.799 4.33109 1.57917 0
M  V30 6754 H 630.343 6.94296 -0.678154 0
M  V30 6755 H 626.24 6.43936 0.449123 0
M  V30 6756 H 627.008 8.15306 -0.722337 0
M  V30 6757 N 629.671 -0.424282 1.51781 0
M  V30 6758 C 630.92 -1.16961 1.64326 0
M  V30 6759 C 631.233 -1.92035 0.371749 0
M  V30 6760 O 632.439 -2.68873 0.37676 0
M  V30 6761 C 630.895 -2.12782 2.90262 0
M  V30 6762 C 630.503 -1.43295 4.24465 0
M  V30 6763 C 632.247 -2.87667 3.12166 0
M  V30 6764 C 630.154 -2.37676 5.41538 0
M  V30 6765 H 629.084 -0.440293 0.612093 0
M  V30 6766 H 631.735 -0.435431 1.78259 0
M  V30 6767 H 630.117 -2.8969 2.69992 0
M  V30 6768 H 631.291 -0.718564 4.55163 0
M  V30 6769 H 629.606 -0.805118 4.08542 0
M  V30 6770 H 632.203 -3.58395 3.96808 0
M  V30 6771 H 632.546 -3.49758 2.25776 0
M  V30 6772 H 633.079 -2.17863 3.32837 0
M  V30 6773 H 629.818 -1.80255 6.30229 0
M  V30 6774 H 629.338 -3.07132 5.15199 0
M  V30 6775 H 631.017 -2.98529 5.74012 0
M  V30 6776 N 631.149 -1.42148 -0.680565 0
M  V30 6777 C 632.112 -1.4488 -1.77602 0
M  V30 6778 C 633.112 -0.337209 -1.57224 0
M  V30 6779 O 634.302 -0.597778 -1.63622 0
M  V30 6780 C 631.434 -1.27483 -3.16166 0
M  V30 6781 H 632.627 -2.42412 -1.76568 0
M  V30 6782 H 630.18 -1.28511 -0.889645 0
M  V30 6783 H 630.915 -0.30851 -3.22829 0
M  V30 6784 H 630.7 -2.08037 -3.3236 0
M  V30 6785 H 632.19 -1.32265 -3.96101 0
M  V30 6786 N 632.627 0.916307 -1.28225 0
M  V30 6787 C 633.59 1.99996 -1.11957 0
M  V30 6788 C 634.59 1.60688 -0.0600152 0
M  V30 6789 O 635.78 1.71499 -0.30558 0
M  V30 6790 C 632.912 3.33458 -0.708411 0
M  V30 6791 H 634.105 2.15858 -2.08196 0
M  V30 6792 H 631.658 1.09863 -1.11175 0
M  V30 6793 H 632.393 3.23297 0.254859 0
M  V30 6794 H 632.178 3.63349 -1.47377 0
M  V30 6795 H 633.668 4.13014 -0.617164 0
M  V30 6796 N 634.105 1.10431 1.1244 0
M  V30 6797 C 635.035 0.775143 2.20258 0
M  V30 6798 C 636.016 -0.25186 1.68225 0
M  V30 6799 O 637.201 -0.117637 1.93843 0
M  V30 6800 C 634.331 0.206133 3.46688 0
M  V30 6801 C 633.285 1.16382 4.11873 0
M  V30 6802 C 632.611 0.456014 5.32752 0
M  V30 6803 C 633.911 2.5104 4.58013 0
M  V30 6804 H 635.605 1.67665 2.4805 0
M  V30 6805 H 633.151 0.807595 1.19222 0
M  V30 6806 H 635.104 -0.036291 4.21384 0
M  V30 6807 H 633.828 -0.730614 3.18323 0
M  V30 6808 H 632.487 1.39169 3.39157 0
M  V30 6809 H 632.135 -0.485203 5.00654 0
M  V30 6810 H 631.835 1.09466 5.77314 0
M  V30 6811 H 633.359 0.222135 6.10196 0
M  V30 6812 H 634.773 2.32401 5.24083 0
M  V30 6813 H 633.17 3.10789 5.13352 0
M  V30 6814 H 634.24 3.11039 3.71998 0
M  V30 6815 N 635.583 -1.29855 0.893053 0
M  V30 6816 C 636.813 -1.99686 0.530019 0
M  V30 6817 C 637.221 -1.67066 -0.888012 0
M  V30 6818 O 636.564 -0.908366 -1.5967 0
M  V30 6819 C 636.626 -3.53855 0.63457 0
M  V30 6820 C 636.29 -4.10013 2.01837 0
M  V30 6821 C 637.287 -4.25406 2.98874 0
M  V30 6822 C 634.972 -4.45202 2.32595 0
M  V30 6823 C 636.966 -4.7521 4.24799 0
M  V30 6824 C 634.653 -4.94704 3.58763 0
M  V30 6825 C 635.651 -5.09662 4.5468 0
M  V30 6826 O 635.339 -5.58093 5.78608 0
M  V30 6827 H 635.071 -0.644913 0.20264 0
M  V30 6828 H 637.625 -1.66518 1.20253 0
M  V30 6829 H 635.855 -3.86583 -0.0949477 0
M  V30 6830 H 637.544 -4.04922 0.281648 0
M  V30 6831 H 638.31 -3.98515 2.76425 0
M  V30 6832 H 634.189 -4.32822 1.58701 0
M  V30 6833 H 637.733 -4.86801 4.99671 0
M  V30 6834 H 633.63 -5.21032 3.81046 0
M  V30 6835 H 634.398 -5.7642 5.81104 0
M  V30 6836 N 637.061 -0.65484 -1.43351 0
M  V30 6837 C 638.308 -0.168892 -2.01794 0
M  V30 6838 C 638.636 1.2177 -1.51665 0
M  V30 6839 O 637.891 1.82717 -0.70092 0
M  V30 6840 C 638.19 -0.130424 -3.57162 0
M  V30 6841 C 637.856 -1.45898 -4.26643 0
M  V30 6842 C 636.518 -1.82279 -4.4534 0
M  V30 6843 C 638.87 -2.33485 -4.65976 0
M  V30 6844 C 636.198 -3.0591 -5.00635 0
M  V30 6845 C 638.55 -3.5641 -5.22642 0
M  V30 6846 C 637.214 -3.92985 -5.39555 0
M  V30 6847 H 636.484 -0.061802 -0.738418 0
M  V30 6848 H 639.131 -0.845869 -1.71806 0
M  V30 6849 H 637.436 0.630008 -3.86702 0
M  V30 6850 H 639.133 0.262465 -4.0014 0
M  V30 6851 H 635.723 -1.16591 -4.12437 0
M  V30 6852 H 639.907 -2.06668 -4.51223 0
M  V30 6853 H 635.163 -3.34295 -5.11915 0
M  V30 6854 H 639.337 -4.24495 -5.52066 0
M  V30 6855 H 636.964 -4.88862 -5.82167 0
M  V30 6856 N 638.539 1.52521 -0.396863 0
M  V30 6857 C 639.767 2.06091 0.18275 0
M  V30 6858 C 640.182 1.26796 1.39886 0
M  V30 6859 O 639.539 0.316585 1.79733 0
M  V30 6860 C 639.59 3.57362 0.545377 0
M  V30 6861 O 639.311 4.33656 -0.622428 0
M  V30 6862 C 640.812 4.27305 1.18004 0
M  V30 6863 H 638.032 0.670504 0.025789 0
M  V30 6864 H 640.576 1.96561 -0.564276 0
M  V30 6865 H 638.731 3.66941 1.2423 0
M  V30 6866 H 639.145 5.23507 -0.322662 0
M  V30 6867 H 640.619 5.34366 1.38408 0
M  V30 6868 H 641.096 3.83 2.1496 0
M  V30 6869 H 641.702 4.22064 0.523671 0
M  V30 6870 N 640.017 0.126909 1.57088 0
M  V30 6871 C 640.947 -0.816847 2.18746 0
M  V30 6872 C 641.928 -1.27161 1.12979 0
M  V30 6873 O 643.113 -1.33279 1.41246 0
M  V30 6874 C 640.243 -2.06398 2.79315 0
M  V30 6875 C 639.197 -1.74673 3.90735 0
M  V30 6876 C 638.523 -3.06482 4.38147 0
M  V30 6877 C 639.823 -1.0089 5.12463 0
M  V30 6878 H 641.517 -0.303032 2.97863 0
M  V30 6879 H 639.063 -0.144314 1.43275 0
M  V30 6880 H 641.016 -2.72885 3.2111 0
M  V30 6881 H 639.74 -2.60118 1.975 0
M  V30 6882 H 638.399 -1.10572 3.49527 0
M  V30 6883 H 638.047 -3.58152 3.5318 0
M  V30 6884 H 637.747 -2.86025 5.13287 0
M  V30 6885 H 639.271 -3.74073 4.82599 0
M  V30 6886 H 640.685 -1.57546 5.51228 0
M  V30 6887 H 639.082 -0.905006 5.93237 0
M  V30 6888 H 640.152 0.00297335 4.849 0
M  V30 6889 N 641.495 -1.56914 -0.146875 0
M  V30 6890 C 642.72 -1.87881 -0.878386 0
M  V30 6891 C 643.145 -0.715945 -1.73942 0
M  V30 6892 O 642.503 0.334447 -1.78189 0
M  V30 6893 C 642.551 -3.17431 -1.71084 0
M  V30 6894 O 641.655 -3.01374 -2.81509 0
M  V30 6895 H 640.996 -0.617289 -0.244644 0
M  V30 6896 H 643.526 -2.04136 -0.137654 0
M  V30 6897 H 643.536 -3.49455 -2.10582 0
M  V30 6898 H 642.211 -4.01671 -1.07856 0
M  V30 6899 H 640.788 -2.80758 -2.45416 0
M  V30 6900 N 642.974 0.416227 -1.52004 0
M  V30 6901 C 644.199 1.19029 -1.69843 0
M  V30 6902 C 644.624 1.83708 -0.404103 0
M  V30 6903 O 643.982 1.69711 0.637787 0
M  V30 6904 C 644.03 2.23439 -2.83032 0
M  V30 6905 O 643.134 3.29419 -2.48106 0
M  V30 6906 H 642.475 0.347785 -0.565634 0
M  V30 6907 H 645.005 0.488871 -1.98674 0
M  V30 6908 H 645.015 2.67884 -3.07737 0
M  V30 6909 H 643.69 1.75745 -3.76944 0
M  V30 6910 H 642.267 2.90303 -2.34048 0
M  V30 6911 N 644.452 1.42507 0.673017 0
M  V30 6912 C 645.382 1.48916 1.79851 0
M  V30 6913 C 646.363 0.345566 1.66553 0
M  V30 6914 O 647.548 0.560116 1.85947 0
M  V30 6915 C 644.678 1.39258 3.18158 0
M  V30 6916 C 643.632 2.51662 3.46194 0
M  V30 6917 C 642.958 2.27062 4.84094 0
M  V30 6918 C 644.258 3.93968 3.42909 0
M  V30 6919 H 645.952 2.43114 1.74745 0
M  V30 6920 H 643.498 1.17013 0.839288 0
M  V30 6921 H 645.451 1.42349 3.96629 0
M  V30 6922 H 644.175 0.415542 3.23946 0
M  V30 6923 H 642.834 2.47891 2.70084 0
M  V30 6924 H 642.482 1.27648 4.86534 0
M  V30 6925 H 642.182 3.02398 5.03815 0
M  V30 6926 H 643.706 2.31905 5.64847 0
M  V30 6927 H 645.12 3.99332 4.11347 0
M  V30 6928 H 643.517 4.6917 3.74165 0
M  V30 6929 H 644.587 4.20512 2.41449 0
M  V30 6930 N 645.93 -0.909495 1.28709 0
M  V30 6931 C 647.158 -1.69272 1.18973 0
M  V30 6932 C 647.573 -1.87123 -0.251048 0
M  V30 6933 O 646.93 -1.40127 -1.16922 0
M  V30 6934 C 646.981 -3.08257 1.88839 0
M  V30 6935 O 646.702 -2.91228 3.27289 0
M  V30 6936 C 648.203 -4.02642 1.85457 0
M  V30 6937 H 645.423 -0.528999 0.412797 0
M  V30 6938 H 647.967 -1.13803 1.69909 0
M  V30 6939 H 646.122 -3.6053 1.41762 0
M  V30 6940 H 646.536 -3.79223 3.6234 0
M  V30 6941 H 648.01 -4.97613 2.38925 0
M  V30 6942 H 648.487 -4.31327 0.827893 0
M  V30 6943 H 649.093 -3.56298 2.32233 0
M  V30 6944 N 647.408 -1.11026 -1.11852 0
M  V30 6945 C 648.633 -0.879064 -1.87849 0
M  V30 6946 C 649.058 0.565406 -1.79401 0
M  V30 6947 O 648.416 1.39886 -1.15333 0
M  V30 6948 C 648.464 -1.33985 -3.34784 0
M  V30 6949 O 647.568 -0.508803 -4.09249 0
M  V30 6950 H 646.909 -0.316992 -0.583448 0
M  V30 6951 H 649.439 -1.47863 -1.41413 0
M  V30 6952 H 649.449 -1.33248 -3.85628 0
M  V30 6953 H 648.124 -2.39172 -3.40249 0
M  V30 6954 H 646.701 -0.581913 -3.68332 0
M  V30 6955 N 648.886 1.2938 -0.899927 0
M  V30 6956 C 650.132 1.9584 -0.526742 0
M  V30 6957 C 650.465 1.70774 0.924651 0
M  V30 6958 O 649.74 1.02084 1.65557 0
M  V30 6959 C 650.023 3.50638 -0.820062 0
M  V30 6960 C 649.876 3.85161 -2.32317 0
M  V30 6961 C 651.195 4.3903 -0.30671 0
M  V30 6962 H 648.314 0.711322 -0.192848 0
M  V30 6963 H 650.956 1.52992 -1.12665 0
M  V30 6964 H 649.106 3.87265 -0.309491 0
M  V30 6965 H 650.778 3.58477 -2.9033 0
M  V30 6966 H 649.021 3.32696 -2.78381 0
M  V30 6967 H 649.692 4.93204 -2.47898 0
M  V30 6968 H 652.168 4.09396 -0.743908 0
M  V30 6969 H 651.044 5.46226 -0.541144 0
M  V30 6970 H 651.305 4.34937 0.792588 0
M  V30 6971 N 650.364 0.662433 1.43002 0
M  V30 6972 C 651.612 0.179237 2.01304 0
M  V30 6973 C 651.933 -1.21428 1.52579 0
M  V30 6974 O 651.203 -1.81294 0.742252 0
M  V30 6975 H 649.783 0.0632725 0.744316 0
M  V30 6976 H 652.445 0.856169 1.75088 0
M  V30 6977 H 651.541 0.170957 3.11631 0
M  V30 6978 N 651.842 -1.52309 0.404946 0
M  V30 6979 C 653.089 -2.01767 -0.1722 0
M  V30 6980 C 653.417 -1.29075 -1.45498 0
M  V30 6981 O 652.672 -0.3843 -1.9189 0
M  V30 6982 C 652.971 -3.54284 -0.470895 0
M  V30 6983 C 652.637 -4.45079 0.722194 0
M  V30 6984 C 651.299 -4.69617 1.04946 0
M  V30 6985 C 653.651 -4.98555 1.51962 0
M  V30 6986 C 650.979 -5.44878 2.17543 0
M  V30 6987 C 653.331 -5.75049 2.63632 0
M  V30 6988 C 651.995 -5.9786 2.9685 0
M  V30 6989 H 651.265 -0.738316 -0.0630125 0
M  V30 6990 H 653.912 -1.83566 0.545506 0
M  V30 6991 H 652.217 -3.70642 -1.27012 0
M  V30 6992 H 653.914 -3.90058 -0.930346 0
M  V30 6993 H 650.504 -4.26155 0.457131 0
M  V30 6994 H 654.688 -4.79509 1.28002 0
M  V30 6995 H 649.944 -5.60762 2.43631 0
M  V30 6996 H 654.118 -6.15483 3.25813 0
M  V30 6997 H 651.745 -6.5596 3.84215 0
M  V30 6998 N 653.32 -0.135238 -1.57019 0
M  V30 6999 C 654.568 0.51777 -1.95355 0
M  V30 7000 C 654.889 1.6617 -1.02042 0
M  V30 7001 O 654.159 1.95738 -0.0797343 0
M  V30 7002 H 652.739 0.194264 -0.721298 0
M  V30 7003 H 655.401 -0.207983 -1.93787 0
M  V30 7004 H 654.497 0.901675 -2.98791 0
M  V30 7005 N 654.798 1.5699 0.138552 0
M  V30 7006 C 655.746 1.99858 1.18994 0
M  V30 7007 C 656.74 0.89231 1.43994 0
M  V30 7008 O 657.946 1.0775 1.44187 0
M  V30 7009 H 654.321 0.636325 0.400743 0
M  V30 7010 H 656.292 2.87427 0.801755 0
M  V30 7011 C 655.041 2.40235 2.51361 0
M  V30 7012 H 654.364 3.24917 2.32957 0
M  V30 7013 H 655.804 2.74045 3.23535 0
M  V30 7014 C 654.263 1.25829 3.1252 0
M  V30 7015 O 654.793 0.563604 3.97727 0
M  V30 7016 N 652.999 1.02036 2.72097 0
M  V30 7017 H 652.546 1.58705 2.02905 0
M  V30 7018 H 652.504 0.256796 3.1335 0
M  V30 7019 N 656.276 -0.40816 1.52223 0
M  V30 7020 C 657.522 -1.15673 1.66576 0
M  V30 7021 C 657.855 -1.90141 0.394996 0
M  V30 7022 O 657.13 -1.84798 -0.606613 0
M  V30 7023 C 657.413 -2.15042 2.88841 0
M  V30 7024 C 657.266 -1.44465 4.25969 0
M  V30 7025 C 658.585 -3.15699 3.0663 0
M  V30 7026 H 655.704 -0.41916 0.606196 0
M  V30 7027 H 658.346 -0.442348 1.84779 0
M  V30 7028 H 656.496 -2.75964 2.73452 0
M  V30 7029 H 658.168 -0.866544 4.53088 0
M  V30 7030 H 656.411 -0.746612 4.27327 0
M  V30 7031 H 657.082 -2.16976 5.07568 0
M  V30 7032 H 659.558 -2.64854 3.20923 0
M  V30 7033 H 658.434 -3.82491 3.9369 0
M  V30 7034 H 658.695 -3.83481 2.19987 0
M  V30 7035 N 657.755 -1.42862 -0.66545 0
M  V30 7036 C 658.995 -1.45323 -1.43738 0
M  V30 7037 C 659.359 -0.0707969 -1.91869 0
M  V30 7038 O 660.56 0.0298852 -2.68783 0
M  V30 7039 C 658.831 -2.45671 -2.59577 0
M  V30 7040 S 660.39 -2.6691 -3.48288 0
M  V30 7041 H 657.208 -0.51442 -0.490809 0
M  V30 7042 H 659.81 -1.79537 -0.773745 0
M  V30 7043 H 658.514 -3.44869 -2.22471 0
M  V30 7044 H 658.045 -2.12914 -3.30804 0
M  V30 7045 H 660.06 -1.95914 -4.55886 0
M  V30 7046 N 659.233 0.902656 -1.29189 0
M  V30 7047 C 660.196 1.98797 -1.14071 0
M  V30 7048 C 661.196 1.60615 -0.0770549 0
M  V30 7049 O 662.386 1.71165 -0.323753 0
M  V30 7050 C 659.518 3.32688 -0.743739 0
M  V30 7051 H 660.711 2.13637 -2.10473 0
M  V30 7052 H 658.264 1.08678 -1.12334 0
M  V30 7053 H 658.999 3.23549 0.220554 0
M  V30 7054 H 658.784 3.61765 -1.51223 0
M  V30 7055 H 660.274 4.12337 -0.660935 0
M  V30 7056 N 660.711 1.11618 1.11262 0
M  V30 7057 C 661.659 0.771291 2.1944 0
M  V30 7058 C 662.653 -0.238073 1.67719 0
M  V30 7059 O 663.859 -0.0971628 1.79738 0
M  V30 7060 H 660.234 0.231548 0.715465 0
M  V30 7061 H 662.205 1.69226 2.45775 0
M  V30 7062 C 660.954 0.232765 3.4692 0
M  V30 7063 H 660.277 1.00072 3.87073 0
M  V30 7064 H 661.717 0.0296561 4.2399 0
M  V30 7065 C 660.176 -1.03738 3.20531 0
M  V30 7066 O 660.706 -2.11675 3.41404 0
M  V30 7067 N 658.912 -0.960906 2.74253 0
M  V30 7068 H 658.459 -0.0824323 2.57468 0
M  V30 7069 H 658.417 -1.8114 2.56974 0
M  V30 7070 N 662.189 -1.289 0.906776 0
M  V30 7071 C 663.417 -1.99401 0.551969 0
M  V30 7072 C 663.832 -1.67816 -0.865048 0
M  V30 7073 O 663.189 -0.927078 -1.57199 0
M  V30 7074 C 663.24 -3.53779 0.743152 0
M  V30 7075 O 662.961 -3.84248 2.1044 0
M  V30 7076 C 664.462 -4.41543 0.39424 0
M  V30 7077 H 661.682 -0.636926 0.211106 0
M  V30 7078 H 664.226 -1.64266 1.21807 0
M  V30 7079 H 662.381 -3.87201 0.124143 0
M  V30 7080 H 662.795 -4.78904 2.13895 0
M  V30 7081 H 664.269 -5.48957 0.578814 0
M  V30 7082 H 664.746 -4.34073 -0.669137 0
M  V30 7083 H 665.352 -4.13605 0.990491 0
M  V30 7084 N 663.667 -0.670007 -1.42649 0
M  V30 7085 C 664.944 -0.119451 -1.95235 0
M  V30 7086 C 665.324 1.36461 -1.61064 0
M  V30 7087 O 664.672 2.09843 -0.904329 0
M  V30 7088 C 664.882 -0.383498 -3.46887 0
M  V30 7089 C 666.23 -0.297431 -4.23557 0
M  V30 7090 O 667.254 -0.31698 -3.54787 0
M  V30 7091 O 666.113 -0.235507 -5.45992 0
M  V30 7092 H 663.207 -8.85474e-05 -0.827 0
M  V30 7093 H 665.753 -0.744406 -1.52501 0
M  V30 7094 H 664.525 -1.41174 -3.64946 0
M  V30 7095 H 664.148 0.273702 -3.96657 0
M  V30 7096 N 665.145 1.52092 -0.413018 0
M  V30 7097 C 666.108 2.25706 0.398687 0
M  V30 7098 C 667.108 1.28221 0.970368 0
M  V30 7099 O 668.298 1.52131 0.848635 0
M  V30 7100 C 665.43 3.03029 1.5616 0
M  V30 7101 H 666.623 2.98888 -0.246131 0
M  V30 7102 H 664.176 1.5542 -0.165622 0
M  V30 7103 H 664.911 2.34205 2.24317 0
M  V30 7104 H 664.696 3.74606 1.15812 0
M  V30 7105 H 666.186 3.58857 2.13569 0
M  V30 7106 N 666.623 0.143563 1.56945 0
M  V30 7107 C 667.533 -0.810562 2.20152 0
M  V30 7108 C 668.549 -1.27431 1.1848 0
M  V30 7109 O 669.725 -1.33221 1.51044 0
M  V30 7110 C 666.79 -2.03353 2.80799 0
M  V30 7111 C 665.851 -1.61936 3.97587 0
M  V30 7112 C 665.084 -2.78403 4.55332 0
M  V30 7113 O 665.307 -3.94521 4.11958 0
M  V30 7114 O 664.241 -2.54073 5.45647 0
M  V30 7115 H 668.067 -0.30253 3.02189 0
M  V30 7116 H 665.652 -0.0832925 1.49168 0
M  V30 7117 H 667.534 -2.74932 3.19359 0
M  V30 7118 H 666.209 -2.53116 2.01777 0
M  V30 7119 H 665.116 -0.873904 3.6375 0
M  V30 7120 H 666.449 -1.16892 4.78118 0
M  V30 7121 N 668.101 -1.57061 -0.130224 0
M  V30 7122 C 669.048 -1.99517 -1.16024 0
M  V30 7123 C 670.018 -0.865452 -1.41771 0
M  V30 7124 O 671.203 -1.12882 -1.53826 0
M  V30 7125 C 668.343 -2.3951 -2.48453 0
M  V30 7126 C 667.456 -3.65848 -2.29737 0
M  V30 7127 C 666.591 -3.9487 -3.55318 0
M  V30 7128 C 665.63 -5.14426 -3.31711 0
M  V30 7129 N 664.767 -5.39375 -4.49466 0
M  V30 7130 H 669.607 -2.87305 -0.791194 0
M  V30 7131 H 667.144 -1.42129 -0.379195 0
M  V30 7132 H 669.102 -2.60731 -3.25692 0
M  V30 7133 H 667.732 -1.54779 -2.83272 0
M  V30 7134 H 666.784 -3.52307 -1.4347 0
M  V30 7135 H 668.096 -4.53241 -2.08263 0
M  V30 7136 H 667.25 -4.16679 -4.4098 0
M  V30 7137 H 665.989 -3.05931 -3.79813 0
M  V30 7138 H 664.994 -4.92473 -2.44439 0
M  V30 7139 H 666.219 -6.04933 -3.08598 0
M  V30 7140 H 664.165 -4.53391 -4.74102 0
M  V30 7141 H 664.082 -6.21069 -4.31055 0
M  V30 7142 H 665.35 -5.65694 -5.36293 0
M  V30 7143 N 669.579 0.400081 -1.52437 0
M  V30 7144 C 670.828 1.14332 -1.66166 0
M  V30 7145 C 671.141 1.91419 -0.402253 0
M  V30 7146 O 672.347 2.6824 -0.419487 0
M  V30 7147 C 670.803 2.08137 -2.9361 0
M  V30 7148 C 670.411 1.36524 -4.26691 0
M  V30 7149 C 672.155 2.82664 -3.16703 0
M  V30 7150 C 670.062 2.29031 -5.45251 0
M  V30 7151 H 668.992 0.430499 -0.61902 0
M  V30 7152 H 671.643 0.407017 -1.78929 0
M  V30 7153 H 670.025 2.85358 -2.74567 0
M  V30 7154 H 671.199 0.646061 -4.56249 0
M  V30 7155 H 669.514 0.74002 -4.09771 0
M  V30 7156 H 672.111 3.52037 -4.0246 0
M  V30 7157 H 672.454 3.46122 -2.31312 0
M  V30 7158 H 672.987 2.12541 -3.36261 0
M  V30 7159 H 669.726 1.70206 -6.33017 0
M  V30 7160 H 669.246 2.98896 -5.2002 0
M  V30 7161 H 670.925 2.89359 -5.78689 0
M  V30 7162 N 671.057 1.43213 0.657864 0
M  V30 7163 C 672.304 1.44584 1.41781 0
M  V30 7164 C 672.632 0.0684208 1.9438 0
M  V30 7165 O 671.887 -0.925872 1.72413 0
M  V30 7166 C 672.186 2.43143 2.61947 0
M  V30 7167 C 671.852 3.89128 2.27794 0
M  V30 7168 C 670.514 4.28889 2.18191 0
M  V30 7169 C 672.866 4.81144 2.00375 0
M  V30 7170 C 670.194 5.58625 1.79319 0
M  V30 7171 C 672.546 6.11239 1.63003 0
M  V30 7172 C 671.21 6.49981 1.51922 0
M  V30 7173 H 670.48 0.529069 0.518813 0
M  V30 7174 H 673.127 1.76263 0.748577 0
M  V30 7175 H 671.432 2.04851 3.33981 0
M  V30 7176 H 673.129 2.4146 3.20153 0
M  V30 7177 H 669.719 3.57657 2.36176 0
M  V30 7178 H 673.903 4.512 2.06718 0
M  V30 7179 H 669.159 5.87486 1.69323 0
M  V30 7180 H 673.333 6.82014 1.40817 0
M  V30 7181 H 670.96 7.50416 1.21572 0
M  V30 7182 N 672.536 -0.895792 1.29666 0
M  V30 7183 C 673.761 -1.68528 1.20885 0
M  V30 7184 C 674.186 -1.8673 -0.226595 0
M  V30 7185 O 673.544 -1.39044 -1.16347 0
M  V30 7186 C 673.592 -3.04512 1.93144 0
M  V30 7187 O 672.696 -3.92963 1.25115 0
M  V30 7188 H 672.037 -0.515371 0.418675 0
M  V30 7189 H 674.567 -1.11878 1.71302 0
M  V30 7190 H 674.577 -3.54628 2.0175 0
M  V30 7191 H 673.252 -2.90582 2.97548 0
M  V30 7192 H 671.829 -3.51399 1.24794 0
M  V30 7193 N 674.014 -1.12206 -1.10668 0
M  V30 7194 C 675.263 -0.870595 -1.81944 0
M  V30 7195 C 675.576 0.605447 -1.85994 0
M  V30 7196 O 676.782 0.973433 -2.53449 0
M  V30 7197 C 675.238 -1.50783 -3.26791 0
M  V30 7198 C 674.846 -3.01849 -3.31046 0
M  V30 7199 C 676.59 -1.33653 -4.02911 0
M  V30 7200 C 674.497 -3.58518 -4.70339 0
M  V30 7201 H 673.427 -0.322043 -0.681765 0
M  V30 7202 H 676.078 -1.34827 -1.24475 0
M  V30 7203 H 674.46 -0.957825 -3.84242 0
M  V30 7204 H 675.634 -3.63321 -2.83433 0
M  V30 7205 H 673.949 -3.18346 -2.68411 0
M  V30 7206 H 676.546 -1.73416 -5.05797 0
M  V30 7207 H 676.889 -0.279949 -4.15358 0
M  V30 7208 H 677.422 -1.85562 -3.51868 0
M  V30 7209 H 674.161 -4.63925 -4.63091 0
M  V30 7210 H 673.681 -3.01819 -5.18329 0
M  V30 7211 H 675.36 -3.57434 -5.39305 0
M  V30 7212 N 675.492 1.28418 -0.913599 0
M  V30 7213 C 676.732 1.96756 -0.553771 0
M  V30 7214 C 677.096 1.70334 0.886013 0
M  V30 7215 O 678.297 2.32242 1.35341 0
M  V30 7216 C 676.568 3.47041 -0.854249 0
M  V30 7217 S 678.127 4.34667 -0.600816 0
M  V30 7218 H 674.945 0.680831 -0.204915 0
M  V30 7219 H 677.547 1.55947 -1.17902 0
M  V30 7220 H 676.251 3.63766 -1.90007 0
M  V30 7221 H 675.782 3.92797 -0.217651 0
M  V30 7222 H 677.797 4.93166 0.547906 0
M  V30 7223 N 676.97 0.677563 1.42291 0
M  V30 7224 C 678.198 0.209459 2.05837 0
M  V30 7225 C 678.613 -1.13444 1.50917 0
M  V30 7226 O 677.97 -1.70529 0.65008 0
M  V30 7227 C 678.021 0.138819 3.61233 0
M  V30 7228 O 677.742 1.42962 4.14118 0
M  V30 7229 C 679.243 -0.352449 4.41897 0
M  V30 7230 H 676.463 0.101209 0.663323 0
M  V30 7231 H 679.007 0.925077 1.8238 0
M  V30 7232 H 677.162 -0.527505 3.83792 0
M  V30 7233 H 677.576 1.3048 5.08011 0
M  V30 7234 H 679.05 -0.350778 5.50884 0
M  V30 7235 H 679.527 -1.3882 4.16684 0
M  V30 7236 H 680.133 0.282236 4.24362 0
M  V30 7237 N 678.448 -1.51871 0.421078 0
M  V30 7238 C 679.381 -2.23851 -0.443369 0
M  V30 7239 C 680.359 -1.25142 -1.03818 0
M  V30 7240 O 681.543 -1.5423 -1.08377 0
M  V30 7241 C 678.67 -2.97637 -1.61648 0
M  V30 7242 C 677.716 -4.10873 -1.14391 0
M  V30 7243 S 678.549 -5.35408 -0.0992403 0
M  V30 7244 C 679.705 -6.12726 -1.27739 0
M  V30 7245 H 679.938 -2.96826 0.167786 0
M  V30 7246 H 677.471 -1.53027 0.205461 0
M  V30 7247 H 679.429 -3.40751 -2.28909 0
M  V30 7248 H 678.09 -2.24282 -2.199 0
M  V30 7249 H 677.283 -4.61718 -2.02069 0
M  V30 7250 H 676.885 -3.69937 -0.549775 0
M  V30 7251 H 679.177 -6.40827 -2.19881 0
M  V30 7252 H 680.12 -7.03461 -0.809239 0
M  V30 7253 H 680.528 -5.43968 -1.5086 0
M  V30 7254 N 679.926 -0.151884 -1.56866 0
M  V30 7255 C 680.856 0.781943 -2.20018 0
M  V30 7256 C 681.837 1.25347 -1.14987 0
M  V30 7257 O 683.022 1.31015 -1.43348 0
M  V30 7258 C 680.152 2.01928 -2.82564 0
M  V30 7259 C 679.106 1.68434 -3.93464 0
M  V30 7260 C 678.432 2.99472 -4.42968 0
M  V30 7261 C 679.732 0.927244 -5.14003 0
M  V30 7262 H 681.426 0.255607 -2.98307 0
M  V30 7263 H 678.972 0.121502 -1.43486 0
M  V30 7264 H 680.925 2.67741 -3.25411 0
M  V30 7265 H 679.649 2.56943 -2.01614 0
M  V30 7266 H 678.308 1.04998 -3.51242 0
M  V30 7267 H 677.956 3.52488 -3.58834 0
M  V30 7268 H 677.656 2.77823 -5.17772 0
M  V30 7269 H 679.18 3.66348 -4.88489 0
M  V30 7270 H 680.594 1.48756 -5.53665 0
M  V30 7271 H 678.991 0.810513 -5.94601 0
M  V30 7272 H 680.061 -0.0801163 -4.84834 0
M  V30 7273 N 681.404 1.57128 0.121893 0
M  V30 7274 C 682.653 1.83888 0.828748 0
M  V30 7275 C 682.966 0.737087 1.81181 0
M  V30 7276 O 684.172 0.891007 2.56463 0
M  V30 7277 C 682.628 3.26014 1.52455 0
M  V30 7278 C 682.236 4.44195 0.58263 0
M  V30 7279 C 683.98 3.62025 2.21671 0
M  V30 7280 C 681.887 5.77349 1.28149 0
M  V30 7281 H 680.817 0.685856 0.313238 0
M  V30 7282 H 683.468 1.83319 0.0814851 0
M  V30 7283 H 681.85 3.21044 2.31834 0
M  V30 7284 H 683.024 4.60457 -0.177729 0
M  V30 7285 H 681.339 4.164 -0.00241228 0
M  V30 7286 H 683.936 4.58776 2.74643 0
M  V30 7287 H 684.279 2.89315 2.99337 0
M  V30 7288 H 684.812 3.68767 1.49184 0
M  V30 7289 H 681.551 6.53221 0.546189 0
M  V30 7290 H 681.071 5.64978 2.01394 0
M  V30 7291 H 682.75 6.21006 1.81549 0
M  V30 7292 N 682.882 -0.391992 1.52647 0
M  V30 7293 C 684.13 -1.13507 1.67214 0
M  V30 7294 C 684.451 -1.90575 0.41304 0
M  V30 7295 O 683.721 -1.87348 -0.572498 0
M  V30 7296 H 682.301 -0.422013 0.616372 0
M  V30 7297 H 684.963 -0.44502 1.89751 0
M  V30 7298 H 684.059 -1.83964 2.52118 0
M  V30 7299 N 684.36 -1.4356 -0.65026 0
M  V30 7300 C 685.323 -1.48615 -1.74489 0
M  V30 7301 C 686.323 -0.370483 -1.56474 0
M  V30 7302 O 687.513 -0.632351 -1.62317 0
M  V30 7303 C 684.645 -1.34161 -3.13391 0
M  V30 7304 H 685.838 -2.46103 -1.71387 0
M  V30 7305 H 683.391 -1.30369 -0.862186 0
M  V30 7306 H 684.126 -0.376918 -3.22102 0
M  V30 7307 H 683.911 -2.1504 -3.27872 0
M  V30 7308 H 685.401 -1.40637 -3.93206 0
M  V30 7309 N 685.838 0.888903 -1.30139 0
M  V30 7310 C 686.768 2.01046 -1.18755 0
M  V30 7311 C 687.749 1.69916 -0.0791438 0
M  V30 7312 O 688.934 1.92445 -0.260498 0
M  V30 7313 C 686.064 3.36109 -0.874518 0
M  V30 7314 C 685.018 3.81486 -1.94043 0
M  V30 7315 C 684.344 5.13796 -1.48047 0
M  V30 7316 C 685.644 4.00637 -3.35093 0
M  V30 7317 H 687.338 2.10828 -2.12584 0
M  V30 7318 H 684.884 1.01298 -1.02346 0
M  V30 7319 H 686.837 4.14089 -0.781548 0
M  V30 7320 H 685.561 3.26449 0.0994519 0
M  V30 7321 H 684.22 3.05731 -2.02297 0
M  V30 7322 H 683.868 5.0056 -0.494878 0
M  V30 7323 H 683.568 5.45127 -2.19341 0
M  V30 7324 H 685.092 5.94305 -1.40121 0
M  V30 7325 H 686.506 4.69067 -3.2962 0
M  V30 7326 H 684.903 4.43339 -4.04438 0
M  V30 7327 H 685.973 3.0462 -3.77273 0
M  V30 7328 N 687.317 1.12792 1.10072 0
M  V30 7329 C 688.25 0.742921 2.15768 0
M  V30 7330 C 689.228 -0.267714 1.60381 0
M  V30 7331 O 690.412 -0.160782 1.87813 0
M  V30 7332 C 687.539 0.100244 3.38552 0
M  V30 7333 C 686.585 1.07831 4.12644 0
M  V30 7334 S 687.418 2.60765 4.6772 0
M  V30 7335 C 688.574 1.97838 5.9381 0
M  V30 7336 H 688.807 1.63822 2.48092 0
M  V30 7337 H 686.34 0.947385 1.21918 0
M  V30 7338 H 688.298 -0.264175 4.09649 0
M  V30 7339 H 686.959 -0.772223 3.04459 0
M  V30 7340 H 686.152 0.576325 5.00694 0
M  V30 7341 H 685.754 1.38586 3.47376 0
M  V30 7342 H 688.046 1.32341 6.64449 0
M  V30 7343 H 688.989 2.83943 6.48677 0
M  V30 7344 H 689.397 1.43267 5.46017 0
M  V30 7345 N 688.795 -1.27931 0.920396 0
M  V30 7346 C 689.745 -2.24727 0.384966 0
M  V30 7347 C 690.729 -1.52715 -0.506661 0
M  V30 7348 O 691.921 -1.73599 -0.345298 0
M  V30 7349 C 689.05 -3.41324 -0.3678 0
M  V30 7350 C 688.136 -4.20649 0.539925 0
M  V30 7351 N 688.527 -4.77906 1.6565 0
M  V30 7352 C 686.825 -4.4469 0.341557 0
M  V30 7353 C 687.526 -5.37652 2.22047 0
M  V30 7354 N 686.502 -5.2218 1.51093 0
M  V30 7355 H 690.304 -2.66572 1.23761 0
M  V30 7356 H 687.818 -1.42779 0.773819 0
M  V30 7357 H 689.815 -4.0976 -0.768277 0
M  V30 7358 H 688.475 -3.01012 -1.21746 0
M  V30 7359 H 689.486 -4.76073 2.03899 0
M  V30 7360 H 686.163 -4.14868 -0.468045 0
M  V30 7361 H 687.553 -5.92948 3.1601 0
M  V30 7362 N 690.273 -0.685099 -1.4193 0
M  V30 7363 C 691.236 -0.0222632 -2.29189 0
M  V30 7364 C 692.236 0.7186 -1.4385 0
M  V30 7365 O 693.426 0.555058 -1.6512 0
M  V30 7366 C 690.558 0.979013 -3.2654 0
M  V30 7367 H 691.751 -0.790424 -2.89296 0
M  V30 7368 H 689.304 -0.448012 -1.49742 0
M  V30 7369 H 690.039 1.77531 -2.71392 0
M  V30 7370 H 689.824 0.451037 -3.89497 0
M  V30 7371 H 691.314 1.44091 -3.91954 0
M  V30 7372 N 691.751 1.51645 -0.429126 0
M  V30 7373 C 692.997 2.02314 0.140286 0
M  V30 7374 C 693.33 1.31314 1.43074 0
M  V30 7375 O 692.605 0.425531 1.89788 0
M  V30 7376 C 692.888 3.5822 0.36749 0
M  V30 7377 C 692.741 4.39846 -0.941039 0
M  V30 7378 C 694.06 4.25055 1.14089 0
M  V30 7379 H 691.179 0.735335 0.0495112 0
M  V30 7380 H 693.821 1.81358 -0.566514 0
M  V30 7381 H 691.971 3.76207 0.969556 0
M  V30 7382 H 693.643 4.33527 -1.57646 0
M  V30 7383 H 691.886 4.05259 -1.54751 0
M  V30 7384 H 692.557 5.47069 -0.73621 0
M  V30 7385 H 695.033 4.11288 0.630986 0
M  V30 7386 H 693.909 5.34038 1.26863 0
M  V30 7387 H 694.17 3.85358 2.16683 0
M  V30 7388 N 693.229 0.160201 1.56784 0
M  V30 7389 C 694.475 -0.48831 1.96833 0
M  V30 7390 C 694.808 -1.63641 1.04571 0
M  V30 7391 O 694.083 -1.94289 0.0906481 0
M  V30 7392 C 694.366 -0.981908 3.46454 0
M  V30 7393 C 694.219 0.165607 4.49495 0
M  V30 7394 C 695.538 -1.85931 3.98896 0
M  V30 7395 H 692.657 -0.176027 0.71567 0
M  V30 7396 H 695.299 0.244093 1.88426 0
M  V30 7397 H 693.449 -1.60602 3.5375 0
M  V30 7398 H 695.121 0.802372 4.54268 0
M  V30 7399 H 693.364 0.822789 4.25926 0
M  V30 7400 H 694.035 -0.221699 5.51555 0
M  V30 7401 H 696.511 -1.33327 3.94161 0
M  V30 7402 H 695.387 -2.17373 5.04024 0
M  V30 7403 H 695.648 -2.80106 3.42042 0
M  V30 7404 N 694.707 -1.5719 -0.113559 0
M  V30 7405 C 695.954 -1.85138 -0.820382 0
M  V30 7406 C 696.282 -0.74608 -1.79622 0
M  V30 7407 O 695.537 0.262077 -1.93937 0
M  V30 7408 C 695.836 -3.19593 -1.59984 0
M  V30 7409 C 695.502 -4.44315 -0.767809 0
M  V30 7410 C 694.164 -4.78179 -0.538379 0
M  V30 7411 C 696.516 -5.2086 -0.188203 0
M  V30 7412 C 693.844 -5.86028 0.28082 0
M  V30 7413 C 696.196 -6.29572 0.618217 0
M  V30 7414 C 694.86 -6.61964 0.857912 0
M  V30 7415 H 694.13 -0.677467 -0.300199 0
M  V30 7416 H 696.777 -1.91322 -0.0825443 0
M  V30 7417 H 695.082 -3.0901 -2.40874 0
M  V30 7418 H 696.779 -3.3844 -2.1508 0
M  V30 7419 H 693.369 -4.17786 -0.956724 0
M  V30 7420 H 697.553 -4.95045 -0.352658 0
M  V30 7421 H 692.809 -6.09547 0.475693 0
M  V30 7422 H 696.983 -6.88064 1.0743 0
M  V30 7423 H 694.61 -7.45365 1.49451 0
M  V30 7424 N 696.185 0.383891 -1.52853 0
M  V30 7425 C 697.433 1.12619 -1.67814 0
M  V30 7426 C 697.754 1.90354 -0.423141 0
M  V30 7427 O 697.024 1.87649 0.562554 0
M  V30 7428 H 695.604 0.418738 -0.618601 0
M  V30 7429 H 698.266 0.43495 -1.89985 0
M  V30 7430 H 697.362 1.82624 -2.5309 0
M  V30 7431 N 697.663 1.43903 0.642637 0
M  V30 7432 C 698.611 1.50164 1.77634 0
M  V30 7433 C 699.605 0.374294 1.65213 0
M  V30 7434 O 700.811 0.548748 1.71431 0
M  V30 7435 H 697.186 0.470974 0.586249 0
M  V30 7436 H 699.157 2.45603 1.69474 0
M  V30 7437 C 697.906 1.45196 3.15933 0
M  V30 7438 H 697.229 2.31253 3.26132 0
M  V30 7439 H 698.669 1.53638 3.95185 0
M  V30 7440 C 697.128 0.171043 3.36466 0
M  V30 7441 O 697.658 -0.763413 3.94379 0
M  V30 7442 N 695.864 0.077847 2.90496 0
M  V30 7443 H 695.411 0.8391 2.43551 0
M  V30 7444 H 695.369 -0.778473 3.0461 0
M  V30 7445 N 699.141 -0.881989 1.30609 0
M  V30 7446 C 700.387 -1.63647 1.19781 0
M  V30 7447 C 700.72 -1.92632 -0.246265 0
M  V30 7448 O 699.995 -1.54938 -1.17577 0
M  V30 7449 C 700.278 -2.97437 2.02985 0
M  V30 7450 C 700.131 -2.75406 3.55628 0
M  V30 7451 C 701.45 -3.98397 1.86997 0
M  V30 7452 H 698.569 -0.593841 0.436488 0
M  V30 7453 H 701.211 -1.02041 1.60273 0
M  V30 7454 H 699.361 -3.50018 1.68581 0
M  V30 7455 H 701.033 -2.2959 4.00107 0
M  V30 7456 H 699.276 -2.09856 3.79662 0
M  V30 7457 H 699.947 -3.70552 4.09139 0
M  V30 7458 H 702.423 -3.54986 2.17081 0
M  V30 7459 H 701.299 -4.89916 2.47536 0
M  V30 7460 H 701.56 -4.3424 0.829943 0
M  V30 7461 N 700.619 -1.13374 -1.09472 0
M  V30 7462 C 701.847 -0.918351 -1.85402 0
M  V30 7463 C 702.262 0.53281 -1.81126 0
M  V30 7464 O 701.619 1.36879 -1.20708 0
M  V30 7465 C 701.67 -1.39743 -3.33398 0
M  V30 7466 O 701.391 -2.79172 -3.37631 0
M  V30 7467 C 702.892 -1.22042 -4.2617 0
M  V30 7468 H 700.112 -0.327511 -0.585643 0
M  V30 7469 H 702.656 -1.50617 -1.38328 0
M  V30 7470 H 700.811 -0.852619 -3.77901 0
M  V30 7471 H 701.225 -3.00428 -4.29934 0
M  V30 7472 H 702.699 -1.60438 -5.2817 0
M  V30 7473 H 703.176 -0.162047 -4.38901 0
M  V30 7474 H 703.782 -1.75323 -3.87482 0
M  V30 7475 N 702.098 1.27442 -0.927168 0
M  V30 7476 C 703.061 2.2512 -0.430525 0
M  V30 7477 C 704.061 1.54357 0.450619 0
M  V30 7478 O 705.251 1.72371 0.251774 0
M  V30 7479 C 702.383 3.38763 0.381144 0
M  V30 7480 H 703.576 2.70569 -1.29354 0
M  V30 7481 H 701.129 1.39355 -0.707806 0
M  V30 7482 H 701.864 2.98695 1.263 0
M  V30 7483 H 701.649 3.91298 -0.250618 0
M  V30 7484 H 703.139 4.11364 0.719012 0
M  V30 7485 N 703.576 0.692616 1.41565 0
M  V30 7486 C 704.825 0.219452 2.00503 0
M  V30 7487 C 705.138 -1.18683 1.55479 0
M  V30 7488 O 706.344 -1.75731 2.06956 0
M  V30 7489 C 704.8 0.341451 3.58277 0
M  V30 7490 C 704.408 1.75291 4.12283 0
M  V30 7491 C 706.152 -0.0720899 4.24439 0
M  V30 7492 C 704.059 1.82673 5.62481 0
M  V30 7493 H 702.989 0.0782874 0.749925 0
M  V30 7494 H 705.64 0.860386 1.62079 0
M  V30 7495 H 704.022 -0.367683 3.94289 0
M  V30 7496 H 705.196 2.49057 3.87695 0
M  V30 7497 H 703.511 2.11587 3.58636 0
M  V30 7498 H 706.108 -0.0373385 5.34687 0
M  V30 7499 H 706.451 -1.11034 4.0122 0
M  V30 7500 H 706.984 0.586663 3.9345 0
M  V30 7501 H 703.723 2.84539 5.90523 0
M  V30 7502 H 703.243 1.13288 5.89004 0
M  V30 7503 H 704.922 1.58827 6.27203 0
M  V30 7504 N 705.054 -1.51416 0.437162 0
M  V30 7505 C 706.303 -2.01275 -0.130865 0
M  V30 7506 C 706.616 -1.32593 -1.438 0
M  V30 7507 O 707.822 -1.7342 -2.08897 0
M  V30 7508 C 706.278 -3.5878 -0.283763 0
M  V30 7509 C 705.886 -4.36399 1.01293 0
M  V30 7510 C 707.63 -4.16786 -0.805569 0
M  V30 7511 C 705.537 -5.85608 0.825687 0
M  V30 7512 H 704.467 -0.752157 -0.0526818 0
M  V30 7513 H 707.118 -1.74524 0.566896 0
M  V30 7514 H 705.5 -3.81976 -1.04452 0
M  V30 7515 H 706.674 -4.24948 1.78201 0
M  V30 7516 H 704.989 -3.89843 1.46326 0
M  V30 7517 H 707.586 -5.25972 -0.962146 0
M  V30 7518 H 707.929 -3.75949 -1.78796 0
M  V30 7519 H 708.462 -3.97666 -0.103125 0
M  V30 7520 H 705.201 -6.30857 1.78045 0
M  V30 7521 H 704.721 -5.99723 0.0964029 0
M  V30 7522 H 706.4 -6.45226 0.478815 0
M  V30 7523 N 706.532 -0.168513 -1.56696 0
M  V30 7524 C 707.464 0.794249 -2.14998 0
M  V30 7525 C 708.477 1.1957 -1.10485 0
M  V30 7526 O 709.666 1.13604 -1.37682 0
M  V30 7527 C 706.766 2.08018 -2.67547 0
M  V30 7528 C 705.939 1.84274 -3.96689 0
M  V30 7529 C 704.998 2.97059 -4.3433 0
M  V30 7530 O 704.024 2.67815 -5.02259 0
M  V30 7531 N 705.226 4.24775 -3.9566 0
M  V30 7532 H 707.991 0.295832 -2.98236 0
M  V30 7533 H 705.552 0.0143611 -1.61894 0
M  V30 7534 H 707.544 2.82559 -2.89729 0
M  V30 7535 H 706.114 2.49059 -1.88914 0
M  V30 7536 H 705.334 0.936528 -3.82914 0
M  V30 7537 H 706.622 1.65773 -4.81037 0
M  V30 7538 H 706.02 4.51395 -3.40968 0
M  V30 7539 H 704.577 4.96027 -4.22848 0
M  V30 7540 N 708.01 1.57248 0.105221 0
M  V30 7541 C 709.426 1.52853 0.459153 0
M  V30 7542 C 709.626 0.883674 1.8109 0
M  V30 7543 O 708.682 0.471864 2.48052 0
M  V30 7544 C 709.995 2.97596 0.43096 0
M  V30 7545 C 711.543 3.08758 0.513536 0
M  V30 7546 C 712.018 4.55089 0.515593 0
M  V30 7547 N 713.509 4.59597 0.576639 0
M  V30 7548 C 714.244 5.70253 0.599904 0
M  V30 7549 N 713.74 6.90368 0.579985 0
M  V30 7550 N 715.533 5.58399 0.643953 0
M  V30 7551 H 707.684 1.97547 -0.780306 0
M  V30 7552 H 709.947 0.902758 -0.289363 0
M  V30 7553 H 709.653 3.48201 -0.494903 0
M  V30 7554 H 709.527 3.55756 1.2537 0
M  V30 7555 H 711.914 2.58148 1.42982 0
M  V30 7556 H 711.995 2.53568 -0.337148 0
M  V30 7557 H 711.639 5.06348 -0.396701 0
M  V30 7558 H 711.569 5.08105 1.38335 0
M  V30 7559 H 714.06 3.73144 0.597639 0
M  V30 7560 H 714.373 7.70462 0.600741 0
M  V30 7561 H 712.718 6.92843 0.547191 0
M  V30 7562 H 715.909 4.63467 0.656975 0
M  V30 7563 H 716.082 6.44644 0.658616 0
M  V30 7564 N 709.488 -0.375779 1.53054 0
M  V30 7565 C 710.421 -1.48187 1.7354 0
M  V30 7566 C 711.399 -1.5177 0.583495 0
M  V30 7567 O 712.583 -1.69976 0.81488 0
M  V30 7568 C 709.71 -2.86598 1.80497 0
M  V30 7569 C 708.756 -3.00784 3.02376 0
M  V30 7570 S 709.589 -2.70601 4.62099 0
M  V30 7571 C 710.745 -4.11181 4.71891 0
M  V30 7572 H 710.978 -1.30587 2.67085 0
M  V30 7573 H 708.511 -0.569485 1.43514 0
M  V30 7574 H 710.469 -3.66353 1.85192 0
M  V30 7575 H 709.13 -3.01514 0.880217 0
M  V30 7576 H 708.323 -4.02128 3.03824 0
M  V30 7577 H 707.925 -2.28939 2.95742 0
M  V30 7578 H 710.217 -5.0529 4.51319 0
M  V30 7579 H 711.16 -4.14742 5.73929 0
M  V30 7580 H 711.568 -3.97706 4.00612 0
M  V30 7581 N 710.966 -1.44241 -0.634997 0
M  V30 7582 C 712.196 -1.50078 -1.41987 0
M  V30 7583 C 712.604 -0.123072 -1.88799 0
M  V30 7584 O 711.947 0.880552 -1.6122 0
M  V30 7585 C 712.009 -2.40033 -2.67628 0
M  V30 7586 C 711.673 -3.87268 -2.42637 0
M  V30 7587 C 712.67 -4.77902 -2.04708 0
M  V30 7588 C 710.355 -4.31933 -2.56396 0
M  V30 7589 C 712.349 -6.11202 -1.80862 0
M  V30 7590 C 710.036 -5.65281 -2.32164 0
M  V30 7591 C 711.034 -6.54734 -1.94455 0
M  V30 7592 O 710.722 -7.85613 -1.7049 0
M  V30 7593 H 710.454 -0.51146 -0.442023 0
M  V30 7594 H 713.008 -1.89843 -0.784138 0
M  V30 7595 H 711.238 -1.95188 -3.33824 0
M  V30 7596 H 712.927 -2.36863 -3.29622 0
M  V30 7597 H 713.693 -4.44668 -1.93638 0
M  V30 7598 H 709.572 -3.62569 -2.84719 0
M  V30 7599 H 713.116 -6.80983 -1.51353 0
M  V30 7600 H 709.013 -5.98078 -2.42843 0
M  V30 7601 H 709.781 -7.97373 -1.84767 0
M  V30 7602 N 712.444 0.87505 -1.31075 0
M  V30 7603 C 713.669 1.66583 -1.23551 0
M  V30 7604 C 714.094 1.87067 0.19686 0
M  V30 7605 O 713.452 1.40877 1.1412 0
M  V30 7606 C 713.5 3.01401 -1.97965 0
M  V30 7607 O 712.604 3.90923 -1.31351 0
M  V30 7608 H 711.945 0.508645 -0.426821 0
M  V30 7609 H 714.475 1.09139 -1.7306 0
M  V30 7610 H 714.485 3.51374 -2.07366 0
M  V30 7611 H 713.16 2.85812 -3.02133 0
M  V30 7612 H 711.737 3.49369 -1.30368 0
M  V30 7613 N 713.922 1.13953 1.08869 0
M  V30 7614 C 715.338 0.878924 1.33218 0
M  V30 7615 C 715.538 -0.482478 1.95638 0
M  V30 7616 O 714.594 -1.22778 2.2064 0
M  V30 7617 C 715.907 2.00798 2.23832 0
M  V30 7618 C 717.455 2.04073 2.37325 0
M  V30 7619 C 717.93 3.16258 3.31278 0
M  V30 7620 N 719.421 3.15805 3.38853 0
M  V30 7621 C 720.156 3.99249 4.11567 0
M  V30 7622 N 719.652 4.92721 4.87029 0
M  V30 7623 N 721.445 3.87327 4.0735 0
M  V30 7624 H 713.596 2.01645 0.66731 0
M  V30 7625 H 715.859 0.878395 0.356547 0
M  V30 7626 H 715.565 2.98986 1.85203 0
M  V30 7627 H 715.439 1.92704 3.24261 0
M  V30 7628 H 717.826 1.06495 2.75214 0
M  V30 7629 H 717.907 2.16239 1.36654 0
M  V30 7630 H 717.551 4.14079 2.9411 0
M  V30 7631 H 717.481 3.0133 4.31866 0
M  V30 7632 H 719.972 2.48102 2.8505 0
M  V30 7633 H 720.285 5.52867 5.39961 0
M  V30 7634 H 718.63 4.96723 4.86098 0
M  V30 7635 H 721.821 3.13627 3.475 0
M  V30 7636 H 721.994 4.52585 4.63757 0
M  V30 7637 N 715.4 -1.26948 0.933913 0
M  V30 7638 C 716.816 -1.46419 0.635103 0
M  V30 7639 C 717.016 -1.84336 -0.813785 0
M  V30 7640 O 716.072 -1.96061 -1.59111 0
M  V30 7641 C 717.385 -2.55206 1.5903 0
M  V30 7642 C 718.933 -2.69062 1.5992 0
M  V30 7643 C 719.408 -3.81013 2.54152 0
M  V30 7644 N 720.899 -3.88395 2.52395 0
M  V30 7645 C 721.634 -4.74454 3.21996 0
M  V30 7646 N 721.13 -5.64954 4.00997 0
M  V30 7647 N 722.923 -4.68237 3.10983 0
M  V30 7648 H 715.074 -1.00622 1.87053 0
M  V30 7649 H 717.337 -0.503189 0.803433 0
M  V30 7650 H 717.043 -2.34153 2.62422 0
M  V30 7651 H 716.917 -3.52719 1.33677 0
M  V30 7652 H 719.304 -2.89492 0.572569 0
M  V30 7653 H 719.385 -1.72016 1.89325 0
M  V30 7654 H 719.029 -3.61336 3.5693 0
M  V30 7655 H 718.959 -4.77499 2.22041 0
M  V30 7656 H 721.45 -3.23687 1.95025 0
M  V30 7657 H 721.763 -6.27496 4.51074 0
M  V30 7658 H 720.108 -5.6473 4.05099 0
M  V30 7659 H 723.299 -3.96535 2.48753 0
M  V30 7660 H 723.472 -5.35087 3.65494 0
M  V30 7661 N 716.879 -0.700114 -1.41195 0
M  V30 7662 C 718.104 -0.240704 -2.05998 0
M  V30 7663 C 718.529 1.10313 -1.52357 0
M  V30 7664 O 717.887 1.69154 -0.652424 0
M  V30 7665 C 717.935 -0.213783 -3.59966 0
M  V30 7666 O 717.039 0.809933 -4.04368 0
M  V30 7667 H 716.38 -0.116471 -0.653705 0
M  V30 7668 H 718.91 -0.956251 -1.80878 0
M  V30 7669 H 718.92 -0.0461852 -4.07974 0
M  V30 7670 H 717.595 -1.19454 -3.98376 0
M  V30 7671 H 716.172 0.611319 -3.67855 0
M  V30 7672 N 718.357 1.51182 -0.445186 0
M  V30 7673 C 719.287 2.30821 0.352686 0
M  V30 7674 C 720.268 1.36576 1.01395 0
M  V30 7675 O 721.453 1.65497 1.01609 0
M  V30 7676 C 718.583 3.15593 1.44976 0
M  V30 7677 C 717.537 4.1818 0.911553 0
M  V30 7678 C 716.863 4.91523 2.10497 0
M  V30 7679 C 718.163 5.22266 -0.059418 0
M  V30 7680 H 719.857 2.97771 -0.311936 0
M  V30 7681 H 717.403 1.43201 -0.151461 0
M  V30 7682 H 719.356 3.70091 2.01521 0
M  V30 7683 H 718.08 2.4648 2.14278 0
M  V30 7684 H 716.739 3.64746 0.368264 0
M  V30 7685 H 716.387 4.18906 2.78437 0
M  V30 7686 H 716.087 5.60898 1.7512 0
M  V30 7687 H 717.611 5.48847 2.6758 0
M  V30 7688 H 719.025 5.71789 0.415985 0
M  V30 7689 H 717.422 5.99213 -0.326152 0
M  V30 7690 H 718.492 4.7461 -0.993631 0
M  V30 7691 N 719.835 0.176821 1.56605 0
M  V30 7692 C 721.065 -0.472142 2.01133 0
M  V30 7693 C 721.473 -1.56979 1.05614 0
M  V30 7694 O 720.816 -1.83632 0.0500137 0
M  V30 7695 C 720.878 -1.10547 3.42081 0
M  V30 7696 C 720.542 -0.148806 4.56758 0
M  V30 7697 C 721.539 0.634939 5.16008 0
M  V30 7698 C 719.224 -0.0430325 5.02282 0
M  V30 7699 C 721.218 1.5116 6.19217 0
M  V30 7700 C 718.905 0.83721 6.05338 0
M  V30 7701 C 719.903 1.61311 6.63677 0
M  V30 7702 O 719.591 2.47863 7.64735 0
M  V30 7703 H 719.323 -0.124725 0.664394 0
M  V30 7704 H 721.877 0.277329 2.03519 0
M  V30 7705 H 720.107 -1.90318 3.36625 0
M  V30 7706 H 721.796 -1.6572 3.70529 0
M  V30 7707 H 722.562 0.563424 4.81716 0
M  V30 7708 H 718.441 -0.636753 4.56581 0
M  V30 7709 H 721.985 2.11767 6.64681 0
M  V30 7710 H 717.882 0.909908 6.39055 0
M  V30 7711 H 718.65 2.4144 7.8208 0
M  V30 7712 N 721.313 -1.57302 -0.09688 0
M  V30 7713 C 722.263 -1.98369 -1.12399 0
M  V30 7714 C 723.247 -0.861872 -1.3587 0
M  V30 7715 O 724.439 -1.1257 -1.36591 0
M  V30 7716 C 721.568 -2.41017 -2.4447 0
M  V30 7717 C 720.654 -3.59881 -2.24381 0
M  V30 7718 N 721.045 -4.74872 -1.74155 0
M  V30 7719 C 719.343 -3.65943 -2.54954 0
M  V30 7720 C 720.044 -5.56823 -1.68294 0
M  V30 7721 N 719.02 -4.99942 -2.13444 0
M  V30 7722 H 722.822 -2.84726 -0.728575 0
M  V30 7723 H 720.336 -1.59523 -0.304332 0
M  V30 7724 H 722.333 -2.68665 -3.18786 0
M  V30 7725 H 720.993 -1.56036 -2.84751 0
M  V30 7726 H 722.004 -4.97657 -1.43379 0
M  V30 7727 H 718.681 -2.9162 -2.98771 0
M  V30 7728 H 720.071 -6.59099 -1.30528 0
M  V30 7729 N 722.791 0.367657 -1.53252 0
M  V30 7730 C 724.016 1.13566 -1.73544 0
M  V30 7731 C 724.441 1.82329 -0.462344 0
M  V30 7732 O 723.799 1.71655 0.583472 0
M  V30 7733 C 723.847 2.14322 -2.89997 0
M  V30 7734 O 722.951 3.21359 -2.58461 0
M  V30 7735 H 722.292 0.329614 -0.576412 0
M  V30 7736 H 724.822 0.425417 -2.00128 0
M  V30 7737 H 724.832 2.57958 -3.16104 0
M  V30 7738 H 723.507 1.63664 -3.82344 0
M  V30 7739 H 722.084 2.8271 -2.43165 0
M  V30 7740 N 724.269 1.44576 0.627338 0
M  V30 7741 C 725.685 1.28546 0.945938 0
M  V30 7742 C 725.885 0.224003 2.00251 0
M  V30 7743 O 724.941 -0.388817 2.49488 0
M  V30 7744 C 726.254 2.65825 1.40561 0
M  V30 7745 C 727.802 2.73566 1.52088 0
M  V30 7746 C 728.277 4.11323 2.01438 0
M  V30 7747 N 729.768 4.13519 2.08702 0
M  V30 7748 C 730.503 5.16964 2.48065 0
M  V30 7749 N 729.999 6.30768 2.86538 0
M  V30 7750 N 731.792 5.04319 2.48232 0
M  V30 7751 H 723.943 2.1228 -0.0713567 0
M  V30 7752 H 726.206 0.947503 0.0307081 0
M  V30 7753 H 725.912 3.44591 0.703539 0
M  V30 7754 H 725.786 2.92969 2.37591 0
M  V30 7755 H 728.173 1.95116 2.21391 0
M  V30 7756 H 728.254 2.50159 0.534237 0
M  V30 7757 H 727.898 4.9025 1.32729 0
M  V30 7758 H 727.828 4.32109 3.0098 0
M  V30 7759 H 730.319 3.31385 1.81638 0
M  V30 7760 H 730.632 7.0551 3.15398 0
M  V30 7761 H 728.977 6.342 2.84281 0
M  V30 7762 H 732.168 4.14465 2.17569 0
M  V30 7763 H 732.341 5.85059 2.78585 0
M  V30 7764 N 725.747 -0.868086 1.31537 0
M  V30 7765 C 726.68 -1.97871 1.13676 0
M  V30 7766 C 727.658 -1.62551 0.0397589 0
M  V30 7767 O 728.842 -1.87473 0.196539 0
M  V30 7768 C 725.969 -3.30577 0.73734 0
M  V30 7769 C 725.015 -3.8488 1.83765 0
M  V30 7770 S 725.848 -4.10106 3.44345 0
M  V30 7771 C 727.004 -5.45806 3.06344 0
M  V30 7772 H 727.237 -2.12719 2.07697 0
M  V30 7773 H 724.77 -1.01849 1.16044 0
M  V30 7774 H 726.728 -4.07274 0.513641 0
M  V30 7775 H 725.389 -3.13562 -0.183787 0
M  V30 7776 H 724.582 -4.80821 1.51085 0
M  V30 7777 H 724.184 -3.14981 2.01651 0
M  V30 7778 H 726.476 -6.27535 2.55354 0
M  V30 7779 H 727.419 -5.83437 4.01257 0
M  V30 7780 H 727.827 -5.0917 2.43734 0
M  V30 7781 N 727.225 -1.14528 -1.08264 0
M  V30 7782 C 728.172 -0.833556 -2.15222 0
M  V30 7783 C 729.142 0.209539 -1.64773 0
M  V30 7784 O 730.327 0.0791388 -1.90636 0
M  V30 7785 C 727.467 -0.318799 -3.43624 0
M  V30 7786 C 726.58 -1.42237 -4.07913 0
M  V30 7787 C 725.715 -0.864704 -5.24115 0
M  V30 7788 C 724.754 -1.94585 -5.80347 0
M  V30 7789 N 723.891 -1.40525 -6.87893 0
M  V30 7790 H 728.731 -1.74965 -2.41228 0
M  V30 7791 H 726.268 -0.873169 -1.18381 0
M  V30 7792 H 728.226 -0.00213088 -4.172 0
M  V30 7793 H 726.856 0.560397 -3.17898 0
M  V30 7794 H 725.908 -1.8554 -3.32083 0
M  V30 7795 H 727.22 -2.23901 -4.45724 0
M  V30 7796 H 726.374 -0.500025 -6.04636 0
M  V30 7797 H 725.113 -0.0171219 -4.87697 0
M  V30 7798 H 724.118 -2.31946 -4.98479 0
M  V30 7799 H 725.343 -2.79704 -6.18823 0
M  V30 7800 H 723.289 -0.579873 -6.53432 0
M  V30 7801 H 723.206 -2.15825 -7.24538 0
M  V30 7802 H 724.474 -1.06852 -7.72142 0
M  V30 7803 N 728.703 1.26451 -0.940633 0
M  V30 7804 C 729.98 1.88947 -0.505811 0
M  V30 7805 C 730.36 1.85011 1.01657 0
M  V30 7806 O 729.708 1.30406 1.87634 0
M  V30 7807 C 729.918 3.32304 -1.06654 0
M  V30 7808 C 731.266 4.09153 -1.13486 0
M  V30 7809 O 732.29 3.41371 -1.01708 0
M  V30 7810 O 731.149 5.30369 -1.31797 0
M  V30 7811 H 728.243 0.810422 -0.164759 0
M  V30 7812 H 730.789 1.34625 -1.03316 0
M  V30 7813 H 729.561 3.29527 -2.11015 0
M  V30 7814 H 729.184 3.94164 -0.521603 0
M  V30 7815 N 730.181 0.707592 1.40822 0
M  V30 7816 C 731.111 0.0644925 2.33411 0
M  V30 7817 C 732.092 -0.754205 1.52466 0
M  V30 7818 O 733.277 -0.704749 1.80961 0
M  V30 7819 C 730.407 -0.863865 3.36385 0
M  V30 7820 C 729.361 -0.15138 4.27732 0
M  V30 7821 C 728.687 -1.19491 5.21177 0
M  V30 7822 C 729.987 0.989607 5.12839 0
M  V30 7823 H 731.681 0.837829 2.87438 0
M  V30 7824 H 729.227 0.404346 1.38207 0
M  V30 7825 H 731.18 -1.32309 4.0009 0
M  V30 7826 H 729.904 -1.66901 2.80734 0
M  V30 7827 H 728.563 0.287937 3.65467 0
M  V30 7828 H 728.211 -1.9929 4.61836 0
M  V30 7829 H 727.911 -0.723123 5.83134 0
M  V30 7830 H 729.435 -1.6544 5.8776 0
M  V30 7831 H 730.849 0.610114 5.70044 0
M  V30 7832 H 729.246 1.38926 5.83798 0
M  V30 7833 H 730.316 1.82389 4.49291 0
M  V30 7834 N 731.66 -1.50943 0.453197 0
M  V30 7835 C 732.607 -2.28128 -0.350197 0
M  V30 7836 C 733.577 -1.32398 -1.00299 0
M  V30 7837 O 734.762 -1.61319 -1.01887 0
M  V30 7838 C 731.902 -3.13782 -1.43649 0
M  V30 7839 C 731.015 -4.24523 -0.800255 0
M  V30 7840 C 730.15 -4.97462 -1.86293 0
M  V30 7841 C 729.189 -6.00102 -1.20598 0
M  V30 7842 N 728.326 -6.66387 -2.21071 0
M  V30 7843 H 733.166 -2.96337 0.31434 0
M  V30 7844 H 730.703 -1.46151 0.166863 0
M  V30 7845 H 732.661 -3.6178 -2.07776 0
M  V30 7846 H 731.291 -2.47655 -2.07044 0
M  V30 7847 H 730.343 -3.80371 -0.0468651 0
M  V30 7848 H 731.655 -4.98009 -0.280777 0
M  V30 7849 H 730.809 -5.49088 -2.58044 0
M  V30 7850 H 729.548 -4.23642 -2.41617 0
M  V30 7851 H 728.553 -5.47753 -0.474 0
M  V30 7852 H 729.778 -6.75887 -0.659859 0
M  V30 7853 H 727.724 -5.9537 -2.75446 0
M  V30 7854 H 727.641 -7.3569 -1.74058 0
M  V30 7855 H 728.909 -7.22638 -2.92257 0
M  V30 7856 N 733.138 -0.185124 -1.56509 0
M  V30 7857 C 734.415 0.503348 -1.89013 0
M  V30 7858 C 734.795 1.80349 -1.09715 0
M  V30 7859 O 734.143 2.27665 -0.195203 0
M  V30 7860 C 734.353 0.731839 -3.41241 0
M  V30 7861 C 735.701 1.05568 -4.11267 0
M  V30 7862 O 736.725 0.819906 -3.46635 0
M  V30 7863 O 735.584 1.50116 -5.25478 0
M  V30 7864 H 732.678 0.261139 -0.784688 0
M  V30 7865 H 735.224 -0.224592 -1.68207 0
M  V30 7866 H 733.996 -0.18672 -3.90854 0
M  V30 7867 H 733.619 1.5126 -3.67704 0
M  V30 7868 N 734.616 1.57351 0.0885366 0
M  V30 7869 C 735.863 1.86419 0.790824 0
M  V30 7870 C 736.191 0.774561 1.78412 0
M  V30 7871 O 735.446 -0.23119 1.9433 0
M  V30 7872 C 735.745 3.22098 1.5488 0
M  V30 7873 C 735.411 4.4548 0.697025 0
M  V30 7874 C 734.073 4.78975 0.462237 0
M  V30 7875 C 736.425 5.21094 0.105315 0
M  V30 7876 C 733.753 5.85507 -0.374016 0
M  V30 7877 C 736.105 6.28509 -0.718298 0
M  V30 7878 C 734.769 6.60515 -0.963116 0
M  V30 7879 H 734.039 0.682157 0.289383 0
M  V30 7880 H 736.686 1.91429 0.0520961 0
M  V30 7881 H 734.991 3.12803 2.35927 0
M  V30 7882 H 736.688 3.41819 2.09669 0
M  V30 7883 H 733.278 4.19255 0.890137 0
M  V30 7884 H 737.462 4.95544 0.273856 0
M  V30 7885 H 732.718 6.08713 -0.572606 0
M  V30 7886 H 736.892 6.86268 -1.18362 0
M  V30 7887 H 734.519 7.42893 -1.6129 0
M  V30 7888 N 736.094 -0.359525 1.53444 0
M  V30 7889 C 737.343 -1.09886 1.69139 0
M  V30 7890 C 737.656 -1.90285 0.452863 0
M  V30 7891 O 738.862 -2.67033 0.490459 0
M  V30 7892 C 737.318 -2.0028 2.99025 0
M  V30 7893 C 736.926 -1.25164 4.30161 0
M  V30 7894 C 738.67 -2.74168 3.24086 0
M  V30 7895 C 736.577 -2.14494 5.51132 0
M  V30 7896 H 735.507 -0.413936 0.630217 0
M  V30 7897 H 738.158 -0.359434 1.79945 0
M  V30 7898 H 736.54 -2.77978 2.82036 0
M  V30 7899 H 737.714 -0.524867 4.57801 0
M  V30 7900 H 736.029 -0.631116 4.11589 0
M  V30 7901 H 738.626 -3.41243 4.11652 0
M  V30 7902 H 738.969 -3.39868 2.40407 0
M  V30 7903 H 739.502 -2.0355 3.41778 0
M  V30 7904 H 736.241 -1.53362 6.37307 0
M  V30 7905 H 735.761 -2.85004 5.27762 0
M  V30 7906 H 737.44 -2.73914 5.86157 0
M  V30 7907 N 737.572 -1.44907 -0.619662 0
M  V30 7908 C 738.988 -1.29046 -0.939107 0
M  V30 7909 C 739.188 -0.23462 -2.00129 0
M  V30 7910 O 738.244 0.37558 -2.49691 0
M  V30 7911 C 739.557 -2.66567 -1.39149 0
M  V30 7912 C 741.105 -2.74368 -1.50635 0
M  V30 7913 C 741.58 -4.12386 -1.99253 0
M  V30 7914 N 743.071 -4.1462 -2.06506 0
M  V30 7915 C 743.806 -5.18272 -2.4532 0
M  V30 7916 N 743.302 -6.32278 -2.83189 0
M  V30 7917 N 745.095 -5.05628 -2.45554 0
M  V30 7918 H 737.246 -2.12239 0.0826135 0
M  V30 7919 H 739.509 -0.947652 -0.0256829 0
M  V30 7920 H 739.215 -3.4496 -0.685254 0
M  V30 7921 H 739.089 -2.94224 -2.36034 0
M  V30 7922 H 741.476 -1.96287 -2.20353 0
M  V30 7923 H 741.557 -2.50439 -0.520963 0
M  V30 7924 H 741.201 -4.90947 -1.30127 0
M  V30 7925 H 741.131 -4.33699 -2.98684 0
M  V30 7926 H 743.622 -3.32343 -1.79878 0
M  V30 7927 H 743.935 -7.07172 -3.11652 0
M  V30 7928 H 742.28 -6.35699 -2.80913 0
M  V30 7929 H 745.471 -4.15613 -2.15367 0
M  V30 7930 H 745.644 -5.86529 -2.75478 0
M  V30 7931 N 739.05 0.861098 -1.31996 0
M  V30 7932 C 740.296 1.61721 -1.22369 0
M  V30 7933 C 740.629 1.93 0.215587 0
M  V30 7934 O 739.904 1.56789 1.15098 0
M  V30 7935 C 740.187 2.9417 -2.07691 0
M  V30 7936 C 740.04 2.69714 -3.59965 0
M  V30 7937 C 741.359 3.95372 -1.93312 0
M  V30 7938 H 738.478 0.586822 -0.44588 0
M  V30 7939 H 741.12 0.994788 -1.61876 0
M  V30 7940 H 739.27 3.47292 -1.74128 0
M  V30 7941 H 740.942 2.23196 -4.03709 0
M  V30 7942 H 739.185 2.03789 -3.82952 0
M  V30 7943 H 739.856 3.63996 -4.14983 0
M  V30 7944 H 742.332 3.51487 -2.22701 0
M  V30 7945 H 741.208 4.85916 -2.55298 0
M  V30 7946 H 741.469 4.32865 -0.898922 0
M  V30 7947 N 740.528 1.15101 1.07655 0
M  V30 7948 C 741.478 0.813448 2.12995 0
M  V30 7949 C 742.462 -0.200899 1.59641 0
M  V30 7950 O 743.654 -0.00209918 1.77 0
M  V30 7951 C 740.783 0.301078 3.41977 0
M  V30 7952 C 739.869 1.3454 4.02194 0
M  V30 7953 N 740.26 2.55181 4.36711 0
M  V30 7954 C 738.558 1.19742 4.29625 0
M  V30 7955 C 739.259 3.22094 4.84387 0
M  V30 7956 N 738.235 2.49486 4.82968 0
M  V30 7957 H 742.037 1.73105 2.37511 0
M  V30 7958 H 739.551 1.03601 1.25063 0
M  V30 7959 H 741.548 0.040914 4.1688 0
M  V30 7960 H 740.208 -0.610629 3.18907 0
M  V30 7961 H 741.219 2.92349 4.27496 0
M  V30 7962 H 737.896 0.345353 4.16069 0
M  V30 7963 H 739.286 4.24996 5.20411 0
M  V30 7964 N 742.006 -1.2595 0.947325 0
M  V30 7965 C 743.422 -1.45737 0.650597 0
M  V30 7966 C 743.622 -1.85189 -0.794188 0
M  V30 7967 O 742.678 -1.97738 -1.57022 0
M  V30 7968 C 743.991 -2.53505 1.61728 0
M  V30 7969 C 745.539 -2.67351 1.62765 0
M  V30 7970 C 746.014 -3.78296 2.58179 0
M  V30 7971 N 747.505 -3.85696 2.56501 0
M  V30 7972 C 748.24 -4.71012 3.2701 0
M  V30 7973 N 747.736 -5.60669 4.06966 0
M  V30 7974 N 749.529 -4.64912 3.15932 0
M  V30 7975 H 741.68 -0.986327 1.8811 0
M  V30 7976 H 743.943 -0.494639 0.808725 0
M  V30 7977 H 743.649 -2.31357 2.6489 0
M  V30 7978 H 743.523 -3.51281 1.3741 0
M  V30 7979 H 745.91 -2.88869 0.603241 0
M  V30 7980 H 745.991 -1.69998 1.91139 0
M  V30 7981 H 745.635 -3.5753 3.60742 0
M  V30 7982 H 745.565 -4.75117 2.27093 0
M  V30 7983 H 748.056 -3.21601 1.98447 0
M  V30 7984 H 748.369 -6.22677 4.57704 0
M  V30 7985 H 746.714 -5.60402 4.11066 0
M  V30 7986 H 749.905 -3.93874 2.52945 0
M  V30 7987 H 750.078 -5.3118 3.71149 0
M  V30 7988 N 743.484 -0.715051 -1.40445 0
M  V30 7989 C 744.414 -0.0768699 -2.33373 0
M  V30 7990 C 745.395 0.746109 -1.52863 0
M  V30 7991 O 746.58 0.695142 -1.81332 0
M  V30 7992 C 743.71 0.846014 -3.36838 0
M  V30 7993 C 742.664 0.128694 -4.27806 0
M  V30 7994 C 741.99 1.16726 -5.21804 0
M  V30 7995 C 743.29 -1.01679 -5.12307 0
M  V30 7996 H 744.984 -0.853061 -2.8699 0
M  V30 7997 H 742.53 -0.41167 -1.3799 0
M  V30 7998 H 744.483 1.30185 -4.00786 0
M  V30 7999 H 743.207 1.6541 -2.81615 0
M  V30 8000 H 741.866 -0.307314 -3.6531 0
M  V30 8001 H 741.514 1.96838 -4.62887 0
M  V30 8002 H 741.214 0.692188 -5.83509 0
M  V30 8003 H 742.738 1.62321 -5.88629 0
M  V30 8004 H 744.152 -0.640337 -5.69713 0
M  V30 8005 H 742.549 -1.4202 -5.83053 0
M  V30 8006 H 743.619 -1.84769 -4.48317 0
M  V30 8007 N 744.962 1.50701 -0.461195 0
M  V30 8008 C 746.373 1.867 -0.00370227 0
M  V30 8009 C 746.724 1.37673 1.39787 0
M  V30 8010 O 745.849 0.737515 2.03445 0
M  V30 8011 C 746.444 3.388 5.75786e-05 0
M  V30 8012 C 745.003 3.74247 0.402044 0
M  V30 8013 C 744.15 2.74549 -0.389652 0
M  V30 8014 H 747.101 1.43585 -0.675942 0
M  V30 8015 H 747.122 3.719 0.804414 0
M  V30 8016 H 746.634 3.74452 -1.02015 0
M  V30 8017 H 744.735 3.44192 1.42697 0
M  V30 8018 H 744.848 4.78973 0.110265 0
M  V30 8019 H 743.212 2.54226 0.155314 0
M  V30 8020 H 743.995 3.13044 -1.40919 0
M  V30 8021 N 746.441 0.193421 1.56409 0
M  V30 8022 C 747.857 -0.162447 1.58771 0
M  V30 8023 C 748.057 -1.6116 1.20954 0
M  V30 8024 O 747.113 -2.3469 0.931497 0
M  V30 8025 C 748.426 0.138391 3.00381 0
M  V30 8026 C 749.974 0.0783649 3.12902 0
M  V30 8027 C 750.449 0.352491 4.56642 0
M  V30 8028 N 751.94 0.30105 4.62221 0
M  V30 8029 C 752.675 0.487028 5.71328 0
M  V30 8030 N 752.171 0.733265 6.88909 0
M  V30 8031 N 753.964 0.4214 5.60518 0
M  V30 8032 H 746.115 1.13909 1.79272 0
M  V30 8033 H 748.378 0.454528 0.83193 0
M  V30 8034 H 748.084 1.14312 3.32604 0
M  V30 8035 H 747.958 -0.559804 3.73023 0
M  V30 8036 H 750.345 -0.916963 2.80492 0
M  V30 8037 H 750.426 0.809611 2.4265 0
M  V30 8038 H 750.07 1.34513 4.89764 0
M  V30 8039 H 750 -0.399624 5.25081 0
M  V30 8040 H 752.491 0.117279 3.77718 0
M  V30 8041 H 752.804 0.86403 7.67955 0
M  V30 8042 H 751.149 0.770138 6.9072 0
M  V30 8043 H 754.34 0.229461 4.67537 0
M  V30 8044 H 754.513 0.569758 6.4549 0
M  V30 8045 N 747.919 -1.57396 -0.0801906 0
M  V30 8046 C 749.33 -1.75642 -0.633002 0
M  V30 8047 C 749.681 -0.817708 -1.78348 0
M  V30 8048 O 748.806 0.000233743 -2.164 0
M  V30 8049 C 749.401 -3.18502 -1.15507 0
M  V30 8050 C 747.96 -3.38121 -1.65381 0
M  V30 8051 C 747.107 -2.71386 -0.569661 0
M  V30 8052 H 750.058 -1.58027 0.145949 0
M  V30 8053 H 750.079 -3.22198 -2.02408 0
M  V30 8054 H 749.591 -3.86799 -0.317515 0
M  V30 8055 H 747.692 -2.74926 -2.51488 0
M  V30 8056 H 747.805 -4.46521 -1.73654 0
M  V30 8057 H 746.169 -2.33702 -1.0127 0
M  V30 8058 H 746.952 -3.42332 0.257561 0
M  V30 8059 N 749.397 0.351382 -1.53633 0
M  V30 8060 C 750.327 1.43688 -1.84055 0
M  V30 8061 C 751.308 1.55251 -0.695073 0
M  V30 8062 O 752.493 1.69587 -0.946257 0
M  V30 8063 C 749.623 2.80843 -2.04315 0
M  V30 8064 C 748.577 2.84094 -3.20117 0
M  V30 8065 C 747.903 4.2406 -3.25696 0
M  V30 8066 C 749.203 2.50334 -4.58399 0
M  V30 8067 H 750.897 1.18478 -2.74961 0
M  V30 8068 H 748.443 0.568509 -1.32303 0
M  V30 8069 H 750.396 3.56821 -2.2418 0
M  V30 8070 H 749.12 3.07471 -1.10132 0
M  V30 8071 H 747.779 2.10568 -3.00094 0
M  V30 8072 H 747.427 4.47785 -2.29123 0
M  V30 8073 H 747.127 4.27147 -4.03509 0
M  V30 8074 H 748.651 5.0189 -3.47762 0
M  V30 8075 H 750.065 3.16025 -4.78332 0
M  V30 8076 H 748.462 2.64717 -5.38558 0
M  V30 8077 H 749.532 1.45542 -4.62543 0
M  V30 8078 N 750.875 1.45233 0.611969 0
M  V30 8079 C 751.822 1.5357 1.72293 0
M  V30 8080 C 752.792 0.381912 1.6165 0
M  V30 8081 O 753.977 0.594765 1.81293 0
M  V30 8082 C 751.117 1.50419 3.10593 0
M  V30 8083 C 750.23 2.76316 3.32074 0
M  V30 8084 C 749.365 2.64866 4.60456 0
M  V30 8085 C 748.404 3.85838 4.7518 0
M  V30 8086 N 747.541 3.72949 5.94856 0
M  V30 8087 H 752.381 2.4848 1.64504 0
M  V30 8088 H 749.918 1.23302 0.802191 0
M  V30 8089 H 751.876 1.4658 3.90602 0
M  V30 8090 H 750.506 0.590621 3.17351 0
M  V30 8091 H 749.558 2.90261 2.45872 0
M  V30 8092 H 750.87 3.66055 3.38829 0
M  V30 8093 H 750.024 2.58969 5.48653 0
M  V30 8094 H 748.763 1.72719 4.56092 0
M  V30 8095 H 747.768 3.92099 3.85407 0
M  V30 8096 H 748.993 4.79045 4.81344 0
M  V30 8097 H 746.939 2.83567 5.91545 0
M  V30 8098 H 746.856 4.56319 6.02751 0
M  V30 8099 H 748.124 3.70976 6.85563 0
M  V30 8100 N 752.353 -0.854086 1.3245 0
M  V30 8101 C 753.285 -1.96932 1.17262 0
M  V30 8102 C 754.298 -1.62445 0.107469 0
M  V30 8103 O 755.487 -1.74904 0.356481 0
M  V30 8104 C 752.587 -3.29971 0.772817 0
M  V30 8105 C 751.76 -3.92695 1.92638 0
M  V30 8106 C 750.819 -5.04068 1.51003 0
M  V30 8107 O 749.845 -5.24032 2.22213 0
M  V30 8108 N 751.047 -5.79076 0.406371 0
M  V30 8109 H 753.812 -2.10503 2.13327 0
M  V30 8110 H 751.373 -1.02897 1.24995 0
M  V30 8111 H 753.365 -4.01883 0.476684 0
M  V30 8112 H 751.935 -3.1245 -0.0967 0
M  V30 8113 H 751.155 -3.13563 2.38897 0
M  V30 8114 H 752.443 -4.31337 2.69863 0
M  V30 8115 H 751.841 -5.65393 -0.186302 0
M  V30 8116 H 750.398 -6.51579 0.169846 0
M  V30 8117 N 753.831 -1.1567 -1.07043 0
M  V30 8118 C 755.247 -0.900006 -1.31803 0
M  V30 8119 C 755.447 0.451293 -1.96381 0
M  V30 8120 O 754.503 1.19252 -2.22565 0
M  V30 8121 C 755.816 -2.04334 -2.20609 0
M  V30 8122 C 757.364 -2.07823 -2.34048 0
M  V30 8123 C 757.839 -3.21488 -3.26204 0
M  V30 8124 N 759.33 -3.21156 -3.33786 0
M  V30 8125 C 760.065 -4.05746 -4.05163 0
M  V30 8126 N 759.561 -5.00407 -4.79129 0
M  V30 8127 N 761.354 -3.93759 -4.01136 0
M  V30 8128 H 753.505 -2.02681 -0.635146 0
M  V30 8129 H 755.768 -0.883956 -0.342528 0
M  V30 8130 H 755.474 -3.01895 -1.80423 0
M  V30 8131 H 755.348 -1.97838 -3.21154 0
M  V30 8132 H 757.735 -1.1086 -2.73485 0
M  V30 8133 H 757.816 -2.18386 -1.33197 0
M  V30 8134 H 757.46 -4.18706 -2.87485 0
M  V30 8135 H 757.39 -3.08162 -4.27017 0
M  V30 8136 H 759.881 -2.52606 -2.81067 0
M  V30 8137 H 760.194 -5.61387 -5.31097 0
M  V30 8138 H 758.539 -5.04393 -4.78135 0
M  V30 8139 H 761.73 -3.19115 -3.42466 0
M  V30 8140 H 761.903 -4.59906 -4.56498 0
M  V30 8141 N 755.309 1.25446 -0.953992 0
M  V30 8142 C 756.242 2.24341 -0.417912 0
M  V30 8143 C 757.22 1.54709 0.5004 0
M  V30 8144 O 758.404 1.83414 0.434923 0
M  V30 8145 C 755.531 3.36352 0.398155 0
M  V30 8146 C 754.577 4.24007 -0.460461 0
M  V30 8147 S 755.41 5.00951 -1.89231 0
M  V30 8148 C 756.566 6.1643 -1.08465 0
M  V30 8149 H 756.799 2.69465 -1.25602 0
M  V30 8150 H 754.332 1.34512 -0.758018 0
M  V30 8151 H 756.29 4.01325 0.863059 0
M  V30 8152 H 754.951 2.89813 1.21108 0
M  V30 8153 H 754.144 5.03728 0.165415 0
M  V30 8154 H 753.746 3.63965 -0.860549 0
M  V30 8155 H 756.038 6.76681 -0.333017 0
M  V30 8156 H 756.981 6.8335 -1.85577 0
M  V30 8157 H 757.389 5.61139 -0.615062 0
M  V30 8158 N 756.787 0.722489 1.40064 0
M  V30 8159 C 757.717 0.0892452 2.33329 0
M  V30 8160 C 758.698 -0.737992 1.53257 0
M  V30 8161 O 759.883 -0.685516 1.81698 0
M  V30 8162 C 757.013 -0.828139 3.37282 0
M  V30 8163 C 755.967 -0.106005 4.27869 0
M  V30 8164 C 755.293 -1.13957 5.22415 0
M  V30 8165 C 756.593 1.04395 5.11761 0
M  V30 8166 H 758.287 0.868269 2.86534 0
M  V30 8167 H 755.833 0.418982 1.3777 0
M  V30 8168 H 757.786 -1.28058 4.01471 0
M  V30 8169 H 756.51 -1.63914 2.82489 0
M  V30 8170 H 755.169 0.326683 3.65142 0
M  V30 8171 H 754.817 -1.9438 4.63924 0
M  V30 8172 H 754.517 -0.661233 5.83868 0
M  V30 8173 H 756.041 -1.59197 5.89482 0
M  V30 8174 H 757.455 0.670541 5.69365 0
M  V30 8175 H 755.852 1.4511 5.82291 0
M  V30 8176 H 756.922 1.87144 4.47331 0
M  V30 8177 N 758.265 -1.50454 0.469181 0
M  V30 8178 C 759.175 -2.32248 -0.331349 0
M  V30 8179 C 760.191 -1.42548 -0.997807 0
M  V30 8180 O 761.367 -1.75602 -0.9862 0
M  V30 8181 C 758.432 -3.17171 -1.40012 0
M  V30 8182 C 757.493 -4.2269 -0.750463 0
M  V30 8183 C 756.726 -5.03554 -1.76831 0
M  V30 8184 O 756.949 -4.85469 -2.99459 0
M  V30 8185 O 755.883 -5.86767 -1.3412 0
M  V30 8186 H 759.709 -3.01821 0.337279 0
M  V30 8187 H 757.294 -1.47602 0.231066 0
M  V30 8188 H 759.176 -3.69871 -2.01924 0
M  V30 8189 H 757.851 -2.50328 -2.05226 0
M  V30 8190 H 756.758 -3.73986 -0.0924446 0
M  V30 8191 H 758.091 -4.91997 -0.14131 0
M  V30 8192 N 759.743 -0.201713 -1.56304 0
M  V30 8193 C 760.973 0.440084 -2.01858 0
M  V30 8194 C 761.381 1.55279 -1.08098 0
M  V30 8195 O 760.724 1.83529 -0.0792216 0
M  V30 8196 C 760.786 1.05091 -3.43797 0
M  V30 8197 C 760.45 0.0761208 -4.56937 0
M  V30 8198 C 761.447 -0.716951 -5.14933 0
M  V30 8199 C 759.132 -0.0368815 -5.02286 0
M  V30 8200 C 761.126 -1.60993 -6.16733 0
M  V30 8201 C 758.813 -0.933409 -6.03929 0
M  V30 8202 C 759.811 -1.71849 -6.61027 0
M  V30 8203 O 759.499 -2.59998 -7.60695 0
M  V30 8204 H 759.231 0.114139 -0.666294 0
M  V30 8205 H 761.785 -0.309672 -2.03052 0
M  V30 8206 H 760.015 1.84938 -3.3961 0
M  V30 8207 H 761.704 1.59804 -3.73118 0
M  V30 8208 H 762.47 -0.63999 -4.80759 0
M  V30 8209 H 758.349 0.564034 -4.57537 0
M  V30 8210 H 761.893 -2.22315 -6.61227 0
M  V30 8211 H 757.79 -1.01146 -6.37526 0
M  V30 8212 H 758.558 -2.53851 -7.7814 0
M  V30 8213 N 761.222 1.57436 0.0718424 0
M  V30 8214 C 762.469 1.87248 0.771007 0
M  V30 8215 C 762.797 0.793441 1.7758 0
M  V30 8216 O 762.052 -0.210565 1.94564 0
M  V30 8217 C 762.351 3.23723 1.51455 0
M  V30 8218 C 762.017 4.46194 0.649736 0
M  V30 8219 C 760.679 4.79438 0.411409 0
M  V30 8220 C 763.031 5.21176 0.05004 0
M  V30 8221 C 760.359 5.85077 -0.436096 0
M  V30 8222 C 762.711 6.27712 -0.784919 0
M  V30 8223 C 761.375 6.59457 -1.03312 0
M  V30 8224 H 760.645 0.685188 0.282132 0
M  V30 8225 H 763.292 1.91474 0.0317896 0
M  V30 8226 H 761.597 3.15287 2.32597 0
M  V30 8227 H 763.294 3.44023 2.06031 0
M  V30 8228 H 759.884 4.20175 0.84562 0
M  V30 8229 H 764.068 4.95806 0.221282 0
M  V30 8230 H 759.324 6.08071 -0.637136 0
M  V30 8231 H 763.498 6.84974 -1.25635 0
M  V30 8232 H 761.125 7.4114 -1.6916 0
M  V30 8233 N 762.7 -0.34323 1.53817 0
M  V30 8234 C 763.632 -1.44216 1.78141 0
M  V30 8235 C 764.645 -1.48701 0.662721 0
M  V30 8236 O 765.834 -1.51778 0.939458 0
M  V30 8237 C 762.934 -2.82872 1.86646 0
M  V30 8238 C 762.107 -3.01824 3.16577 0
M  V30 8239 C 761.166 -4.20723 3.16036 0
M  V30 8240 O 760.192 -4.14824 3.89756 0
M  V30 8241 N 761.394 -5.29276 2.38427 0
M  V30 8242 H 764.159 -1.23721 2.72971 0
M  V30 8243 H 761.72 -0.53311 1.52871 0
M  V30 8244 H 763.712 -3.60588 1.83735 0
M  V30 8245 H 762.282 -2.96509 0.990014 0
M  V30 8246 H 761.502 -2.11575 3.3261 0
M  V30 8247 H 762.79 -3.11369 4.02402 0
M  V30 8248 H 762.188 -5.36938 1.78085 0
M  V30 8249 H 760.745 -6.05484 2.41313 0
M  V30 8250 N 764.178 -1.45556 -0.604258 0
M  V30 8251 C 765.406 -1.53278 -1.38973 0
M  V30 8252 C 765.821 -0.166509 -1.88064 0
M  V30 8253 O 765.178 0.832519 -1.62405 0
M  V30 8254 C 765.229 -2.51992 -2.59195 0
M  V30 8255 O 764.95 -3.8331 -2.12143 0
M  V30 8256 C 766.451 -2.69445 -3.52015 0
M  V30 8257 H 763.671 -0.519003 -0.425297 0
M  V30 8258 H 766.215 -1.90773 -0.736621 0
M  V30 8259 H 764.37 -2.17561 -3.2054 0
M  V30 8260 H 764.784 -4.3685 -2.90279 0
M  V30 8261 H 766.258 -3.42485 -4.32907 0
M  V30 8262 H 766.735 -1.75596 -4.0257 0
M  V30 8263 H 767.341 -3.04886 -2.9652 0
M  V30 8264 N 765.656 0.84705 -1.32902 0
M  V30 8265 C 766.884 1.63403 -1.26913 0
M  V30 8266 C 767.299 1.88108 0.161483 0
M  V30 8267 O 766.656 1.45546 1.10103 0
M  V30 8268 C 766.707 2.98896 -2.03331 0
M  V30 8269 O 766.428 2.75281 -3.40811 0
M  V30 8270 C 767.929 3.93335 -2.04457 0
M  V30 8271 H 765.149 0.508701 -0.437566 0
M  V30 8272 H 767.693 1.05567 -1.75145 0
M  V30 8273 H 765.848 3.53356 -1.58802 0
M  V30 8274 H 766.262 3.61504 -3.8002 0
M  V30 8275 H 767.736 4.85647 -2.62394 0
M  V30 8276 H 768.213 4.26885 -1.03274 0
M  V30 8277 H 768.819 3.44812 -2.48967 0
M  V30 8278 N 767.134 1.16236 1.06428 0
M  V30 8279 C 768.38 0.954417 1.79617 0
M  V30 8280 C 768.735 -0.512411 1.85451 0
M  V30 8281 O 768.028 -1.37523 1.33409 0
M  V30 8282 C 768.222 1.51396 3.2375 0
M  V30 8283 C 768.051 3.03367 3.31962 0
M  V30 8284 C 766.821 3.71996 3.41975 0
M  V30 8285 C 769.019 4.01075 3.21937 0
M  V30 8286 N 767.001 5.11688 3.39187 0
M  V30 8287 C 768.372 5.27142 3.26376 0
M  V30 8288 C 770.427 3.92917 3.05812 0
M  V30 8289 C 769.13 6.46 3.16348 0
M  V30 8290 C 771.156 5.11344 2.97121 0
M  V30 8291 C 770.518 6.36291 3.02181 0
M  V30 8292 H 766.617 0.403007 0.670156 0
M  V30 8293 H 769.201 1.47605 1.26968 0
M  V30 8294 H 767.372 1.01883 3.74799 0
M  V30 8295 H 769.104 1.2439 3.85109 0
M  V30 8296 H 765.859 3.22623 3.46715 0
M  V30 8297 H 766.283 5.84676 3.41297 0
M  V30 8298 H 770.925 2.97172 3.00746 0
M  V30 8299 H 768.643 7.41968 3.2017 0
M  V30 8300 H 772.229 5.06801 2.85734 0
M  V30 8301 H 771.109 7.26389 2.95513 0
M  V30 8302 N 768.612 -1.24939 0.960631 0
M  V30 8303 C 769.575 -2.239 0.49006 0
M  V30 8304 C 770.575 -1.55497 -0.409535 0
M  V30 8305 O 771.765 -1.72978 -0.205984 0
M  V30 8306 C 768.897 -3.39654 -0.291193 0
M  V30 8307 H 770.09 -2.67044 1.36482 0
M  V30 8308 H 767.643 -1.37429 0.744505 0
M  V30 8309 H 768.378 -3.01939 -1.18336 0
M  V30 8310 H 768.163 -3.90496 0.354276 0
M  V30 8311 H 769.653 -4.13125 -0.609693 0
M  V30 8312 N 770.09 -0.729906 -1.39679 0
M  V30 8313 C 771.336 -0.27603 -2.00913 0
M  V30 8314 C 771.669 1.13227 -1.57776 0
M  V30 8315 O 770.944 1.7709 -0.804319 0
M  V30 8316 C 771.227 -0.372157 -3.58172 0
M  V30 8317 C 771.08 -1.81986 -4.11341 0
M  V30 8318 C 772.399 0.248378 -4.39399 0
M  V30 8319 H 769.518 -0.101773 -0.729939 0
M  V30 8320 H 772.16 -0.925104 -1.65957 0
M  V30 8321 H 770.31 0.180459 -3.88081 0
M  V30 8322 H 771.982 -2.42896 -3.92172 0
M  V30 8323 H 770.225 -2.34287 -3.65092 0
M  V30 8324 H 770.896 -1.83842 -5.20486 0
M  V30 8325 H 773.372 -0.222645 -4.15504 0
M  V30 8326 H 772.248 0.150746 -5.48693 0
M  V30 8327 H 772.509 1.33378 -4.21501 0
M  V30 8328 N 771.568 1.50203 -0.477153 0
M  V30 8329 C 772.516 2.30278 0.327826 0
M  V30 8330 C 773.51 1.37831 0.984839 0
M  V30 8331 O 774.716 1.54994 0.915251 0
M  V30 8332 H 771.091 0.741612 0.124564 0
M  V30 8333 H 773.062 2.96124 -0.367853 0
M  V30 8334 C 771.811 3.18548 1.39365 0
M  V30 8335 H 771.134 3.89596 0.897475 0
M  V30 8336 H 772.574 3.77561 1.92934 0
M  V30 8337 C 771.033 2.36548 2.39889 0
M  V30 8338 O 771.563 2.05282 3.45286 0
M  V30 8339 N 769.769 1.99015 2.11758 0
M  V30 8340 H 769.316 2.24641 1.26071 0
M  V30 8341 H 769.274 1.44454 2.7925 0
M  V30 8342 N 773.046 0.209999 1.56195 0
M  V30 8343 C 774.271 -0.433064 2.02828 0
M  V30 8344 C 774.696 -1.5337 1.08901 0
M  V30 8345 O 774.054 -1.81144 0.0751132 0
M  V30 8346 C 774.102 -0.952635 3.47789 0
M  V30 8347 O 773.206 -2.0647 3.56993 0
M  V30 8348 H 772.547 -0.0994594 0.656509 0
M  V30 8349 H 775.077 0.32525 2.01998 0
M  V30 8350 H 775.087 -1.26542 3.8788 0
M  V30 8351 H 773.762 -0.147007 4.1564 0
M  V30 8352 H 772.339 -1.75942 3.28784 0
M  V30 8353 N 774.524 -1.57472 -0.0634922 0
M  V30 8354 C 775.772 -1.87283 -0.759563 0
M  V30 8355 C 776.093 -0.803135 -1.77693 0
M  V30 8356 O 775.363 0.167293 -1.95184 0
M  V30 8357 H 773.943 -0.691106 -0.283516 0
M  V30 8358 H 776.605 -1.94864 -0.0376091 0
M  V30 8359 H 775.701 -2.85064 -1.27062 0
M  V30 8360 N 776.003 0.335068 -1.53997 0
M  V30 8361 C 777.252 1.07182 -1.70865 0
M  V30 8362 C 777.565 1.89541 -0.483078 0
M  V30 8363 O 778.771 2.66219 -0.532879 0
M  V30 8364 C 777.227 1.95497 -3.02174 0
M  V30 8365 C 776.835 1.18304 -4.32097 0
M  V30 8366 C 778.579 2.68978 -3.28407 0
M  V30 8367 C 776.486 2.05699 -5.54474 0
M  V30 8368 H 775.416 0.403857 -0.636722 0
M  V30 8369 H 778.067 0.33076 -1.80494 0
M  V30 8370 H 776.449 2.73456 -2.86423 0
M  V30 8371 H 777.623 0.451969 -4.58578 0
M  V30 8372 H 775.938 0.565556 -4.12541 0
M  V30 8373 H 778.535 3.34651 -4.17029 0
M  V30 8374 H 778.878 3.36 -2.45784 0
M  V30 8375 H 779.411 1.98087 -3.44973 0
M  V30 8376 H 776.15 1.43204 -6.39666 0
M  V30 8377 H 775.67 2.76572 -5.32229 0
M  V30 8378 H 777.349 2.64554 -5.90441 0
M  V30 8379 N 777.481 1.45874 0.596531 0
M  V30 8380 C 778.758 1.40942 1.35627 0
M  V30 8381 C 779.138 0.0857066 2.10926 0
M  V30 8382 O 778.486 -0.932544 2.08605 0
M  V30 8383 C 778.696 2.63027 2.29386 0
M  V30 8384 C 780.044 3.08588 2.91649 0
M  V30 8385 O 781.068 2.63478 2.39704 0
M  V30 8386 O 779.927 3.86902 3.85965 0
M  V30 8387 H 777.021 0.559838 0.608696 0
M  V30 8388 H 779.567 1.5802 0.618698 0
M  V30 8389 H 778.339 3.5094 1.7308 0
M  V30 8390 H 777.962 2.48338 3.10506 0
M  V30 8391 N 778.959 -0.83999 1.33349 0
M  V30 8392 C 779.922 -1.93128 1.23426 0
M  V30 8393 C 780.922 -1.60065 0.153599 0
M  V30 8394 O 782.112 -1.69425 0.405049 0
M  V30 8395 C 779.244 -3.28761 0.901622 0
M  V30 8396 H 780.437 -2.03352 2.20427 0
M  V30 8397 H 777.99 -1.03194 1.17391 0
M  V30 8398 H 778.725 -3.24233 -0.0659337 0
M  V30 8399 H 778.51 -3.54138 1.68311 0
M  V30 8400 H 780 -4.08714 0.856913 0
M  V30 8401 N 780.437 -1.16799 -1.0581 0
M  V30 8402 C 781.385 -0.875111 -2.1551 0
M  V30 8403 C 782.379 0.157781 -1.68664 0
M  V30 8404 O 783.585 0.011297 -1.79996 0
M  V30 8405 H 779.96 -0.26542 -0.703602 0
M  V30 8406 H 781.931 -1.8076 -2.37421 0
M  V30 8407 C 780.68 -0.39802 -3.45414 0
M  V30 8408 H 780.003 -1.18425 -3.81858 0
M  V30 8409 H 781.443 -0.231913 -4.23365 0
M  V30 8410 C 779.902 0.88327 -3.25115 0
M  V30 8411 O 780.432 1.95145 -3.51114 0
M  V30 8412 N 778.638 0.828961 -2.78526 0
M  V30 8413 H 778.185 -0.0405029 -2.57568 0
M  V30 8414 H 778.143 1.68673 -2.65324 0
M  V30 8415 N 781.915 1.24427 -0.967243 0
M  V30 8416 C 782.825 2.29109 -0.504592 0
M  V30 8417 C 783.841 1.68495 0.434224 0
M  V30 8418 O 785.017 1.99041 0.307379 0
M  V30 8419 C 782.082 3.46133 0.198273 0
M  V30 8420 C 781.143 4.22149 -0.780313 0
M  V30 8421 C 780.376 5.33585 -0.110896 0
M  V30 8422 O 780.599 5.59676 1.10088 0
M  V30 8423 O 779.533 5.96522 -0.802823 0
M  V30 8424 H 783.359 2.708 -1.37482 0
M  V30 8425 H 780.944 1.30111 -0.73426 0
M  V30 8426 H 782.826 4.17205 0.593124 0
M  V30 8427 H 781.501 3.0642 1.04347 0
M  V30 8428 H 780.408 3.53454 -1.22561 0
M  V30 8429 H 781.741 4.65677 -1.59392 0
M  V30 8430 N 783.393 0.737304 1.3929 0
M  V30 8431 C 784.323 0.113988 2.33222 0
M  V30 8432 C 785.304 -0.721695 1.54031 0
M  V30 8433 O 786.489 -0.666206 1.82415 0
M  V30 8434 C 783.619 -0.792319 3.38141 0
M  V30 8435 C 782.573 -0.0606178 4.27957 0
M  V30 8436 C 781.899 -1.08409 5.23595 0
M  V30 8437 C 783.199 1.09817 5.10625 0
M  V30 8438 H 784.893 0.898611 2.85596 0
M  V30 8439 H 782.439 0.433571 1.37318 0
M  V30 8440 H 784.392 -1.23793 4.02807 0
M  V30 8441 H 783.116 -1.60908 2.84211 0
M  V30 8442 H 781.775 0.365393 3.64775 0
M  V30 8443 H 781.423 -1.89449 4.6596 0
M  V30 8444 H 781.123 -0.599269 5.84536 0
M  V30 8445 H 782.647 -1.52936 5.91137 0
M  V30 8446 H 784.061 0.730892 5.68622 0
M  V30 8447 H 782.458 1.51278 5.80719 0
M  V30 8448 H 783.528 1.91878 4.45321 0
M  V30 8449 N 784.871 -1.49948 0.485112 0
M  V30 8450 C 785.801 -2.31675 -0.291364 0
M  V30 8451 C 786.782 -1.39216 -0.977383 0
M  V30 8452 O 787.967 -1.68133 -0.971855 0
M  V30 8453 C 785.097 -3.19326 -1.36558 0
M  V30 8454 C 784.051 -4.2045 -0.800359 0
M  V30 8455 C 783.377 -4.96931 -1.97391 0
M  V30 8456 C 784.677 -5.21925 0.197867 0
M  V30 8457 H 786.371 -2.96839 0.390775 0
M  V30 8458 H 783.917 -1.42749 0.189375 0
M  V30 8459 H 785.87 -3.75304 -1.91638 0
M  V30 8460 H 784.594 -2.52074 -2.07668 0
M  V30 8461 H 783.253 -3.65594 -0.271428 0
M  V30 8462 H 782.901 -4.26141 -2.67232 0
M  V30 8463 H 782.601 -5.65344 -1.60187 0
M  V30 8464 H 784.125 -5.55749 -2.52935 0
M  V30 8465 H 785.539 -5.72691 -0.264239 0
M  V30 8466 H 783.936 -5.98138 0.484908 0
M  V30 8467 H 785.006 -4.71809 1.11912 0
M  V30 8468 N 786.349 -0.21828 -1.56081 0
M  V30 8469 C 787.765 0.137168 -1.59009 0
M  V30 8470 C 787.965 1.59215 -1.23503 0
M  V30 8471 O 787.021 2.33178 -0.968716 0
M  V30 8472 C 788.334 -0.186162 -3.00123 0
M  V30 8473 C 789.882 -0.128135 -3.12738 0
M  V30 8474 C 790.357 -0.425094 -4.56023 0
M  V30 8475 N 791.848 -0.374547 -4.61683 0
M  V30 8476 C 792.583 -0.57786 -5.70481 0
M  V30 8477 N 792.079 -0.842771 -6.87655 0
M  V30 8478 N 793.872 -0.510521 -5.59777 0
M  V30 8479 H 786.023 -1.16746 -1.77437 0
M  V30 8480 H 788.286 -0.467706 -0.824594 0
M  V30 8481 H 787.992 -1.19589 -3.30744 0
M  V30 8482 H 787.866 0.500388 -3.73866 0
M  V30 8483 H 790.253 0.872224 -2.81915 0
M  V30 8484 H 790.334 -0.848112 -2.41331 0
M  V30 8485 H 789.978 -1.42288 -4.87562 0
M  V30 8486 H 789.908 0.316038 -5.25651 0
M  V30 8487 H 792.399 -0.177356 -3.77484 0
M  V30 8488 H 792.712 -0.986095 -7.66483 0
M  V30 8489 H 791.057 -0.879929 -6.89407 0
M  V30 8490 H 794.248 -0.303813 -4.67113 0
M  V30 8491 H 794.421 -0.672378 -6.44502 0
M  V30 8492 N 787.827 1.57504 0.0551401 0
M  V30 8493 C 789.104 1.79155 0.785048 0
M  V30 8494 C 789.484 0.809995 1.94942 0
M  V30 8495 O 788.832 -0.153432 2.27984 0
M  V30 8496 C 789.042 3.26134 1.24247 0
M  V30 8497 C 790.39 3.90419 1.66908 0
M  V30 8498 O 791.414 3.30126 1.33772 0
M  V30 8499 O 790.273 4.96523 2.28314 0
M  V30 8500 H 787.367 0.735825 0.377479 0
M  V30 8501 H 789.913 1.69666 0.0339285 0
M  V30 8502 H 788.685 3.89145 0.410089 0
M  V30 8503 H 788.308 3.40411 2.05441 0
M  V30 8504 N 789.305 -0.326896 1.54172 0
M  V30 8505 C 790.552 -1.06523 1.72218 0
M  V30 8506 C 790.88 -1.88119 0.494114 0
M  V30 8507 O 790.135 -1.8855 -0.524147 0
M  V30 8508 C 790.434 -2.0208 2.94785 0
M  V30 8509 C 790.1 -1.36665 4.2969 0
M  V30 8510 C 788.762 -1.18556 4.66367 0
M  V30 8511 C 791.114 -0.896868 5.13425 0
M  V30 8512 C 788.442 -0.521113 5.84381 0
M  V30 8513 C 790.794 -0.246261 6.3212 0
M  V30 8514 C 789.458 -0.052987 6.67479 0
M  V30 8515 H 788.728 -0.389796 0.63019 0
M  V30 8516 H 791.375 -0.342725 1.88408 0
M  V30 8517 H 789.68 -2.8077 2.73268 0
M  V30 8518 H 791.377 -2.59231 3.05941 0
M  V30 8519 H 787.967 -1.51762 4.00832 0
M  V30 8520 H 792.151 -1.02458 4.85609 0
M  V30 8521 H 787.407 -0.36014 6.10338 0
M  V30 8522 H 791.581 0.125775 6.96286 0
M  V30 8523 H 789.208 0.463903 7.58783 0
M  V30 8524 N 790.784 -1.46188 -0.588786 0
M  V30 8525 C 792.195 -1.45421 -1.17088 0
M  V30 8526 C 792.546 -0.191801 -1.9526 0
M  V30 8527 O 791.671 0.705497 -2.04577 0
M  V30 8528 C 792.266 -2.63467 -2.13004 0
M  V30 8529 C 790.825 -2.6576 -2.6655 0
M  V30 8530 C 789.972 -2.38002 -1.42304 0
M  V30 8531 H 792.923 -1.54156 -0.377052 0
M  V30 8532 H 792.944 -2.38638 -2.96365 0
M  V30 8533 H 792.456 -3.55331 -1.56081 0
M  V30 8534 H 790.557 -1.77952 -3.27359 0
M  V30 8535 H 790.67 -3.65545 -3.09699 0
M  V30 8536 H 789.034 -1.87936 -1.71907 0
M  V30 8537 H 789.817 -3.32035 -0.872209 0
M  V30 8538 N 792.262 0.832906 -1.33792 0
M  V30 8539 C 793.539 1.57359 -1.16178 0
M  V30 8540 C 793.919 2.09372 0.269532 0
M  V30 8541 O 793.267 1.89993 1.26944 0
M  V30 8542 C 793.477 2.70279 -2.20795 0
M  V30 8543 C 794.825 3.39305 -2.55259 0
M  V30 8544 O 795.849 2.80526 -2.19508 0
M  V30 8545 O 794.708 4.45428 -3.16632 0
M  V30 8546 H 791.802 0.694025 -0.449731 0
M  V30 8547 H 794.348 0.875144 -1.45394 0
M  V30 8548 H 793.12 2.29527 -3.16911 0
M  V30 8549 H 792.743 3.47782 -1.927 0
M  V30 8550 N 793.74 1.17359 1.05189 0
M  V30 8551 C 794.65 0.904984 2.16442 0
M  V30 8552 C 795.666 -0.12686 1.73537 0
M  V30 8553 O 796.842 0.0524127 2.01332 0
M  V30 8554 C 793.907 0.422019 3.44122 0
M  V30 8555 C 792.968 1.52045 4.01473 0
M  V30 8556 C 792.201 1.06044 5.23059 0
M  V30 8557 O 792.424 -0.0854023 5.70336 0
M  V30 8558 O 791.358 1.85349 5.72651 0
M  V30 8559 H 795.184 1.8356 2.41949 0
M  V30 8560 H 792.769 0.95447 1.14936 0
M  V30 8561 H 794.651 0.160208 4.21095 0
M  V30 8562 H 793.326 -0.480444 3.20115 0
M  V30 8563 H 792.233 1.83615 3.25939 0
M  V30 8564 H 793.566 2.39863 4.29798 0
M  V30 8565 N 795.218 -1.23913 0.973828 0
M  V30 8566 C 796.148 -2.27453 0.527969 0
M  V30 8567 C 797.129 -1.6443 -0.435513 0
M  V30 8568 O 798.314 -1.9137 -0.330306 0
M  V30 8569 C 795.444 -3.4685 -0.176757 0
M  V30 8570 C 794.398 -4.22181 0.703352 0
M  V30 8571 C 793.724 -5.34534 -0.133215 0
M  V30 8572 C 795.024 -4.82865 1.99096 0
M  V30 8573 H 796.718 -2.65 1.3934 0
M  V30 8574 H 794.264 -1.27388 0.671446 0
M  V30 8575 H 796.217 -4.18424 -0.499934 0
M  V30 8576 H 794.941 -3.08346 -1.07659 0
M  V30 8577 H 793.6 -3.52416 1.00989 0
M  V30 8578 H 793.248 -4.92271 -1.03338 0
M  V30 8579 H 792.948 -5.85855 0.452494 0
M  V30 8580 H 794.472 -6.08933 -0.450924 0
M  V30 8581 H 795.886 -5.46481 1.73297 0
M  V30 8582 H 794.283 -5.44444 2.52389 0
M  V30 8583 H 795.353 -4.03977 2.68199 0
M  V30 8584 N 796.696 -0.74468 -1.38897 0
M  V30 8585 C 798.112 -0.421302 -1.53939 0
M  V30 8586 C 798.312 1.06668 -1.70951 0
M  V30 8587 O 797.368 1.85278 -1.71547 0
M  V30 8588 C 798.681 -1.21278 -2.75159 0
M  V30 8589 C 800.229 -1.20196 -2.89001 0
M  V30 8590 C 800.704 -1.97621 -4.13171 0
M  V30 8591 N 802.195 -1.94836 -4.2023 0
M  V30 8592 C 802.93 -2.51545 -5.15279 0
M  V30 8593 N 802.426 -3.1693 -6.16058 0
M  V30 8594 N 804.219 -2.41524 -5.07565 0
M  V30 8595 H 796.37 -1.70914 -1.26103 0
M  V30 8596 H 798.633 -0.724058 -0.611919 0
M  V30 8597 H 798.339 -2.26609 -2.68963 0
M  V30 8598 H 798.213 -0.823677 -3.68097 0
M  V30 8599 H 800.6 -0.156742 -2.94683 0
M  V30 8600 H 800.681 -1.63051 -1.97099 0
M  V30 8601 H 800.325 -3.02149 -4.0825 0
M  V30 8602 H 800.255 -1.52166 -5.04136 0
M  V30 8603 H 802.746 -1.4721 -3.48048 0
M  V30 8604 H 803.059 -3.57644 -6.85062 0
M  V30 8605 H 801.404 -3.21023 -6.16417 0
M  V30 8606 H 804.595 -1.90077 -4.27771 0
M  V30 8607 H 804.768 -2.86016 -5.81462 0
M  V30 8608 N 798.174 1.49689 -0.493057 0
M  V30 8609 C 799.137 2.27502 0.278485 0
M  V30 8610 C 800.137 1.33184 0.901037 0
M  V30 8611 O 801.327 1.56415 0.766801 0
M  V30 8612 C 798.459 3.10881 1.39878 0
M  V30 8613 H 799.652 2.97163 -0.404219 0
M  V30 8614 H 797.205 1.54324 -0.247774 0
M  V30 8615 H 797.94 2.45767 2.11587 0
M  V30 8616 H 797.725 3.80219 0.957924 0
M  V30 8617 H 799.215 3.69673 1.94247 0
M  V30 8618 N 799.652 0.226554 1.55963 0
M  V30 8619 C 800.929 -0.453058 1.90281 0
M  V30 8620 C 801.309 -1.77377 1.14458 0
M  V30 8621 O 800.657 -2.27067 0.255496 0
M  V30 8622 C 800.867 -0.641108 3.43061 0
M  V30 8623 C 802.215 -0.946265 4.13921 0
M  V30 8624 O 803.239 -0.727713 3.48687 0
M  V30 8625 O 802.098 -1.36131 5.29274 0
M  V30 8626 H 799.192 -0.240242 0.791336 0
M  V30 8627 H 801.738 0.26911 1.67553 0
M  V30 8628 H 800.51 0.290283 3.90222 0
M  V30 8629 H 800.133 -1.41458 3.71585 0
M  V30 8630 N 801.13 -1.57531 -0.0467866 0
M  V30 8631 C 802.379 -1.87632 -0.740069 0
M  V30 8632 C 802.692 -0.822691 -1.77457 0
M  V30 8633 O 803.898 -1.01235 -2.5192 0
M  V30 8634 C 802.354 -3.32917 -1.36727 0
M  V30 8635 C 801.962 -4.46469 -0.370035 0
M  V30 8636 C 803.706 -3.72189 -2.04146 0
M  V30 8637 C 801.613 -5.82806 -1.00457 0
M  V30 8638 H 800.543 -0.70002 -0.280158 0
M  V30 8639 H 803.194 -1.83499 0.00607151 0
M  V30 8640 H 801.576 -3.31739 -2.16252 0
M  V30 8641 H 802.75 -4.59085 0.397217 0
M  V30 8642 H 801.065 -4.15914 0.201079 0
M  V30 8643 H 803.662 -4.71357 -2.52441 0
M  V30 8644 H 804.005 -3.03268 -2.85192 0
M  V30 8645 H 804.538 -3.75465 -1.3142 0
M  V30 8646 H 801.277 -6.55083 -0.233907 0
M  V30 8647 H 800.797 -5.73944 -1.74209 0
M  V30 8648 H 802.476 -6.28961 -1.51713 0
M  V30 8649 N 802.608 0.318715 -1.54344 0
M  V30 8650 C 803.571 1.37545 -1.83342 0
M  V30 8651 C 804.571 1.445 -0.705444 0
M  V30 8652 O 805.761 1.44443 -0.973752 0
M  V30 8653 C 802.893 2.76225 -1.99781 0
M  V30 8654 H 804.086 1.13084 -2.77762 0
M  V30 8655 H 801.639 0.554457 -1.46135 0
M  V30 8656 H 802.374 3.05934 -1.07588 0
M  V30 8657 H 802.159 2.7257 -2.81865 0
M  V30 8658 H 803.649 3.52664 -2.23647 0
M  V30 8659 N 804.086 1.46499 0.581025 0
M  V30 8660 C 805.019 1.51706 1.70472 0
M  V30 8661 C 805.997 0.371036 1.5831 0
M  V30 8662 O 807.181 0.575426 1.79502 0
M  V30 8663 C 804.308 1.3972 3.08538 0
M  V30 8664 C 803.354 2.58525 3.39215 0
M  V30 8665 S 804.187 4.20872 3.311 0
M  V30 8666 C 805.343 4.11398 4.71702 0
M  V30 8667 H 805.576 2.46777 1.65796 0
M  V30 8668 H 803.109 1.34405 0.759908 0
M  V30 8669 H 805.067 1.33492 3.88188 0
M  V30 8670 H 803.728 0.460742 3.10702 0
M  V30 8671 H 802.921 2.46137 4.3981 0
M  V30 8672 H 802.523 2.61752 2.67136 0
M  V30 8673 H 804.815 3.78182 5.62125 0
M  V30 8674 H 805.758 5.11997 4.89147 0
M  V30 8675 H 806.166 3.42624 4.48631 0
M  V30 8676 N 805.565 -0.825799 1.34232 0
M  V30 8677 C 806.515 -1.92533 1.22128 0
M  V30 8678 C 807.499 -1.60444 0.121002 0
M  V30 8679 O 808.691 -1.73497 0.350385 0
M  V30 8680 C 805.82 -3.29134 0.975995 0
M  V30 8681 C 804.906 -3.6735 2.11931 0
M  V30 8682 N 805.297 -3.77154 3.37029 0
M  V30 8683 C 803.595 -3.97179 2.02891 0
M  V30 8684 C 804.296 -4.10552 4.12095 0
M  V30 8685 N 803.272 -4.23619 3.40658 0
M  V30 8686 H 807.074 -1.98287 2.16932 0
M  V30 8687 H 804.588 -1.01929 1.26429 0
M  V30 8688 H 806.585 -4.07717 0.870187 0
M  V30 8689 H 805.245 -3.24679 0.036606 0
M  V30 8690 H 806.256 -3.60723 3.71618 0
M  V30 8691 H 802.933 -4.00861 1.16692 0
M  V30 8692 H 804.323 -4.25365 5.2011 0
M  V30 8693 N 807.043 -1.17915 -1.04565 0
M  V30 8694 C 807.973 -0.925033 -2.14395 0
M  V30 8695 C 808.954 0.135375 -1.6956 0
M  V30 8696 O 810.139 -0.0161774 -1.94193 0
M  V30 8697 C 807.269 -0.444469 -3.44444 0
M  V30 8698 C 806.223 -1.44478 -4.02877 0
M  V30 8699 C 805.549 -0.821933 -5.28345 0
M  V30 8700 C 806.849 -2.81995 -4.39632 0
M  V30 8701 H 808.543 -1.84354 -2.35911 0
M  V30 8702 H 806.089 -0.887806 -1.13375 0
M  V30 8703 H 808.042 -0.254078 -4.20633 0
M  V30 8704 H 806.766 0.509592 -3.226 0
M  V30 8705 H 805.425 -1.62203 -3.28764 0
M  V30 8706 H 805.073 0.139161 -5.02807 0
M  V30 8707 H 804.773 -1.48976 -5.68401 0
M  V30 8708 H 806.297 -0.641959 -6.07216 0
M  V30 8709 H 807.711 -2.67952 -5.06828 0
M  V30 8710 H 806.108 -3.45414 -4.90723 0
M  V30 8711 H 807.178 -3.35927 -3.49687 0
M  V30 8712 N 808.521 1.23394 -0.980386 0
M  V30 8713 C 809.469 2.26872 -0.513018 0
M  V30 8714 C 810.463 1.63853 0.429948 0
M  V30 8715 O 811.669 1.77417 0.303842 0
M  V30 8716 H 808.044 0.737398 -0.147473 0
M  V30 8717 H 810.015 2.63654 -1.39746 0
M  V30 8718 C 808.764 3.47289 0.168962 0
M  V30 8719 H 808.087 3.96033 -0.547546 0
M  V30 8720 H 809.527 4.21502 0.459616 0
M  V30 8721 C 807.986 3.06425 1.40019 0
M  V30 8722 O 808.516 3.14708 2.49643 0
M  V30 8723 N 806.722 2.61339 1.27084 0
M  V30 8724 H 806.269 2.54799 0.378872 0
M  V30 8725 H 806.227 2.34364 2.09573 0
M  V30 8726 N 809.999 0.752036 1.385 0
M  V30 8727 C 811.415 0.42946 1.53713 0
M  V30 8728 C 811.615 -1.0576 1.71514 0
M  V30 8729 O 810.671 -1.84366 1.72527 0
M  V30 8730 C 811.984 1.22735 2.74511 0
M  V30 8731 C 813.532 1.21727 2.8836 0
M  V30 8732 C 814.007 1.99809 4.12117 0
M  V30 8733 N 815.498 1.97062 4.19191 0
M  V30 8734 C 816.233 2.54274 5.13938 0
M  V30 8735 N 815.729 3.20193 6.14368 0
M  V30 8736 N 817.522 2.44212 5.06277 0
M  V30 8737 H 809.673 1.71581 1.25195 0
M  V30 8738 H 811.936 0.727293 0.60807 0
M  V30 8739 H 811.642 2.28032 2.67758 0
M  V30 8740 H 811.516 0.843186 3.67655 0
M  V30 8741 H 813.903 0.172367 2.94596 0
M  V30 8742 H 813.984 1.64094 1.96232 0
M  V30 8743 H 813.628 3.0431 4.06642 0
M  V30 8744 H 813.558 1.54837 5.03322 0
M  V30 8745 H 816.049 1.49054 3.47263 0
M  V30 8746 H 816.362 3.61272 6.83156 0
M  V30 8747 H 814.707 3.24287 6.14705 0
M  V30 8748 H 817.898 1.92343 4.26757 0
M  V30 8749 H 818.071 2.89096 5.79937 0
M  V30 8750 N 811.477 -1.49425 0.500989 0
M  V30 8751 C 812.387 -2.32899 -0.282011 0
M  V30 8752 C 813.403 -1.44632 -0.967346 0
M  V30 8753 O 814.579 -1.77654 -0.94873 0
M  V30 8754 C 811.644 -3.20069 -1.33253 0
M  V30 8755 C 810.705 -4.24186 -0.660636 0
M  V30 8756 C 809.938 -5.07191 -1.6611 0
M  V30 8757 O 810.161 -4.91712 -2.89094 0
M  V30 8758 O 809.095 -5.8948 -1.21643 0
M  V30 8759 H 812.921 -3.01038 0.401224 0
M  V30 8760 H 810.506 -1.47079 0.262323 0
M  V30 8761 H 812.388 -3.74071 -1.94033 0
M  V30 8762 H 811.063 -2.54625 -1.9987 0
M  V30 8763 H 809.97 -3.74098 -0.0130959 0
M  V30 8764 H 811.303 -4.92186 -0.0369179 0
M  V30 8765 N 812.955 -0.234822 -1.55841 0
M  V30 8766 C 814.204 0.393685 -1.97821 0
M  V30 8767 C 814.517 1.59947 -1.1259 0
M  V30 8768 O 815.723 2.29835 -1.44528 0
M  V30 8769 C 814.179 0.751811 -3.5196 0
M  V30 8770 C 813.787 -0.431898 -4.45913 0
M  V30 8771 C 815.531 1.34518 -4.02623 0
M  V30 8772 C 813.438 -0.0505976 -5.91378 0
M  V30 8773 H 812.368 0.150864 -0.738753 0
M  V30 8774 H 815.019 -0.333132 -1.80451 0
M  V30 8775 H 813.401 1.53642 -3.6498 0
M  V30 8776 H 814.575 -1.20935 -4.44647 0
M  V30 8777 H 812.89 -0.939385 -4.05666 0
M  V30 8778 H 815.487 1.64359 -5.08813 0
M  V30 8779 H 815.83 2.26554 -3.49255 0
M  V30 8780 H 816.363 0.623729 -3.9288 0
M  V30 8781 H 813.102 -0.937779 -6.48757 0
M  V30 8782 H 812.622 0.690898 -5.95808 0
M  V30 8783 H 814.301 0.37146 -6.45933 0
M  V30 8784 N 814.433 1.57553 0.0384317 0
M  V30 8785 C 815.363 2.0898 1.04161 0
M  V30 8786 C 816.344 0.99029 1.38301 0
M  V30 8787 O 817.529 1.26499 1.47349 0
M  V30 8788 C 814.659 2.56145 2.34536 0
M  V30 8789 C 813.613 3.70275 2.14663 0
M  V30 8790 C 812.939 4.03612 3.50715 0
M  V30 8791 C 814.239 4.99067 1.54045 0
M  V30 8792 H 815.933 2.93046 0.613548 0
M  V30 8793 H 813.479 1.40973 0.293684 0
M  V30 8794 H 815.432 2.90741 3.05037 0
M  V30 8795 H 814.156 1.6915 2.79385 0
M  V30 8796 H 812.815 3.36013 1.46597 0
M  V30 8797 H 812.463 3.13698 3.93195 0
M  V30 8798 H 812.163 4.80482 3.38247 0
M  V30 8799 H 813.687 4.40735 4.22593 0
M  V30 8800 H 815.101 5.3168 2.14451 0
M  V30 8801 H 813.498 5.80484 1.52178 0
M  V30 8802 H 814.568 4.8226 0.505259 0
M  V30 8803 N 815.911 -0.310526 1.54511 0
M  V30 8804 C 816.843 -1.40405 1.8116 0
M  V30 8805 C 817.856 -1.47261 0.694114 0
M  V30 8806 O 819.045 -1.49751 0.971441 0
M  V30 8807 C 816.145 -2.78849 1.92604 0
M  V30 8808 C 815.318 -2.95041 3.22908 0
M  V30 8809 C 814.377 -4.13925 3.24889 0
M  V30 8810 O 813.403 -4.06463 3.98467 0
M  V30 8811 N 814.605 -5.24099 2.496 0
M  V30 8812 H 817.37 -1.17903 2.75534 0
M  V30 8813 H 814.931 -0.500564 1.53967 0
M  V30 8814 H 816.923 -3.5661 1.91342 0
M  V30 8815 H 815.493 -2.94342 1.05268 0
M  V30 8816 H 814.713 -2.04472 3.37023 0
M  V30 8817 H 816.001 -3.02763 4.08916 0
M  V30 8818 H 815.399 -5.33039 1.89435 0
M  V30 8819 H 813.956 -6.0023 2.54102 0
M  V30 8820 N 817.389 -1.46805 -0.573248 0
M  V30 8821 C 818.319 -1.60951 -1.69165 0
M  V30 8822 C 819.3 -0.45948 -1.63777 0
M  V30 8823 O 820.485 -0.68688 -1.81647 0
M  V30 8824 C 817.615 -1.60844 -3.07809 0
M  V30 8825 C 816.569 -2.74913 -3.28035 0
M  V30 8826 C 815.895 -2.59871 -4.67302 0
M  V30 8827 C 817.195 -4.16654 -3.14955 0
M  V30 8828 H 818.889 -2.54574 -1.57582 0
M  V30 8829 H 816.435 -1.22516 -0.756686 0
M  V30 8830 H 818.388 -1.69334 -3.85881 0
M  V30 8831 H 817.112 -0.637714 -3.20314 0
M  V30 8832 H 815.771 -2.65908 -2.52366 0
M  V30 8833 H 815.419 -1.60861 -4.76585 0
M  V30 8834 H 815.119 -3.36386 -4.81786 0
M  V30 8835 H 816.643 -2.70265 -5.4753 0
M  V30 8836 H 818.057 -4.26721 -3.82861 0
M  V30 8837 H 816.454 -4.93831 -3.40956 0
M  V30 8838 H 817.524 -4.36146 -2.11908 0
M  V30 8839 N 818.867 0.818669 -1.34668 0
M  V30 8840 C 820.278 1.39177 -1.24446 0
M  V30 8841 C 820.629 1.9578 0.128268 0
M  V30 8842 O 819.754 1.90382 1.02877 0
M  V30 8843 C 820.349 2.53012 -2.25323 0
M  V30 8844 C 818.908 3.06218 -2.18878 0
M  V30 8845 C 818.055 1.79112 -2.11694 0
M  V30 8846 H 821.006 0.622709 -1.45973 0
M  V30 8847 H 821.027 3.31226 -1.8727 0
M  V30 8848 H 820.539 2.11784 -3.25221 0
M  V30 8849 H 818.64 3.51939 -1.22351 0
M  V30 8850 H 818.753 3.65019 -3.10319 0
M  V30 8851 H 817.117 2.0018 -1.57481 0
M  V30 8852 H 817.9 1.40053 -3.13433 0
M  V30 8853 N 820.346 1.18468 1.03938 0
M  V30 8854 C 821.276 0.936389 2.13902 0
M  V30 8855 C 822.257 -0.126381 1.6963 0
M  V30 8856 O 823.442 0.0264757 1.94182 0
M  V30 8857 C 820.572 0.462729 3.44204 0
M  V30 8858 C 819.526 1.46613 4.02105 0
M  V30 8859 C 818.852 0.84994 5.27902 0
M  V30 8860 C 820.152 2.84323 4.3813 0
M  V30 8861 H 821.846 1.85602 2.3493 0
M  V30 8862 H 819.392 0.893806 1.12903 0
M  V30 8863 H 821.345 0.276382 4.20493 0
M  V30 8864 H 820.069 -0.492477 3.22866 0
M  V30 8865 H 818.728 1.63944 3.27899 0
M  V30 8866 H 818.376 -0.112493 5.02874 0
M  V30 8867 H 818.076 1.51988 5.67603 0
M  V30 8868 H 819.6 0.674152 6.06867 0
M  V30 8869 H 821.014 2.70636 5.054 0
M  V30 8870 H 819.411 3.48012 4.88884 0
M  V30 8871 H 820.481 3.37776 3.47901 0
M  V30 8872 N 821.824 -1.22873 0.986916 0
M  V30 8873 C 823.071 -1.91462 0.659424 0
M  V30 8874 C 823.399 -1.76931 -0.807825 0
M  V30 8875 O 822.654 -1.12829 -1.59901 0
M  V30 8876 C 822.953 -3.43014 1.00379 0
M  V30 8877 C 822.619 -3.77731 2.46232 0
M  V30 8878 C 821.281 -3.86918 2.86091 0
M  V30 8879 C 823.633 -3.94343 3.40798 0
M  V30 8880 C 820.961 -4.10149 4.19518 0
M  V30 8881 C 823.313 -4.19076 4.73875 0
M  V30 8882 C 821.977 -4.26486 5.13484 0
M  V30 8883 H 821.247 -0.700611 0.2413 0
M  V30 8884 H 823.894 -1.45763 1.24199 0
M  V30 8885 H 822.199 -3.90329 0.339226 0
M  V30 8886 H 823.896 -3.94327 0.728518 0
M  V30 8887 H 820.486 -3.71159 2.14334 0
M  V30 8888 H 824.67 -3.86629 3.11178 0
M  V30 8889 H 819.926 -4.1411 4.49803 0
M  V30 8890 H 824.1 -4.30873 5.47102 0
M  V30 8891 H 821.727 -4.4424 6.16891 0
M  V30 8892 N 823.302 -0.75937 -1.38099 0
M  V30 8893 C 824.55 -0.317485 -1.99591 0
M  V30 8894 C 824.871 1.10628 -1.60581 0
M  V30 8895 O 824.141 1.7575 -0.865378 0
M  V30 8896 H 822.721 -0.114397 -0.738189 0
M  V30 8897 H 825.383 -0.974749 -1.68774 0
M  V30 8898 H 824.479 -0.385227 -3.09713 0
M  V30 8899 N 824.78 1.49157 -0.508906 0
M  V30 8900 C 825.743 2.27784 0.25434 0
M  V30 8901 C 826.743 1.34132 0.88686 0
M  V30 8902 O 827.933 1.5722 0.750168 0
M  V30 8903 C 825.065 3.12347 1.36573 0
M  V30 8904 H 826.258 2.96718 -0.435714 0
M  V30 8905 H 823.811 1.54052 -0.264128 0
M  V30 8906 H 824.546 2.47997 2.08969 0
M  V30 8907 H 824.331 3.81213 0.917543 0
M  V30 8908 H 825.821 3.71712 1.90315 0
M  V30 8909 N 826.258 0.243083 1.55714 0
M  V30 8910 C 827.221 -0.644723 2.19945 0
M  V30 8911 C 828.221 -1.10562 1.16759 0
M  V30 8912 O 829.411 -1.01095 1.41865 0
M  V30 8913 C 826.543 -1.88569 2.83997 0
M  V30 8914 H 827.736 -0.0843839 2.99781 0
M  V30 8915 H 825.289 -0.00647246 1.56299 0
M  V30 8916 H 826.024 -2.48736 2.08089 0
M  V30 8917 H 825.809 -1.56345 3.59581 0
M  V30 8918 H 827.299 -2.51774 3.33166 0
M  V30 8919 N 827.736 -1.57571 -0.0300757 0
M  V30 8920 C 828.961 -1.93879 -0.736601 0
M  V30 8921 C 829.386 -0.842998 -1.68152 0
M  V30 8922 O 828.744 0.20135 -1.80178 0
M  V30 8923 C 828.792 -3.29247 -1.47066 0
M  V30 8924 O 827.896 -3.21426 -2.58378 0
M  V30 8925 H 827.237 -0.633735 -0.198181 0
M  V30 8926 H 829.767 -2.04595 0.0141485 0
M  V30 8927 H 829.777 -3.64113 -1.84081 0
M  V30 8928 H 828.452 -4.08565 -0.77764 0
M  V30 8929 H 827.029 -2.98189 -2.23914 0
M  V30 8930 N 829.214 0.302327 -1.54673 0
M  V30 8931 C 830.63 0.647911 -1.45857 0
M  V30 8932 C 830.83 1.90773 -0.64869 0
M  V30 8933 O 829.886 2.52018 -0.155865 0
M  V30 8934 C 831.199 0.802144 -2.89804 0
M  V30 8935 C 832.747 0.898114 -2.99838 0
M  V30 8936 C 833.222 1.08436 -4.44978 0
M  V30 8937 N 834.713 1.15059 -4.48682 0
M  V30 8938 C 835.448 1.31296 -5.58166 0
M  V30 8939 N 834.944 1.4444 -6.77576 0
M  V30 8940 N 836.737 1.34174 -5.45851 0
M  V30 8941 H 828.888 -0.525428 -2.05798 0
M  V30 8942 H 831.151 -0.173423 -0.932002 0
M  V30 8943 H 830.857 -0.0526531 -3.51661 0
M  V30 8944 H 830.731 1.69155 -3.37145 0
M  V30 8945 H 833.118 1.7434 -2.38096 0
M  V30 8946 H 833.199 -0.0152752 -2.55795 0
M  V30 8947 H 832.843 0.243843 -5.07314 0
M  V30 8948 H 832.773 2.01195 -4.8665 0
M  V30 8949 H 835.264 1.0626 -3.62653 0
M  V30 8950 H 835.577 1.56582 -7.56771 0
M  V30 8951 H 833.922 1.41499 -6.80443 0
M  V30 8952 H 837.113 1.23516 -4.5151 0
M  V30 8953 H 837.286 1.46485 -6.31226 0
M  V30 8954 N 830.692 1.47107 0.565454 0
M  V30 8955 C 831.94 1.53005 1.32038 0
M  V30 8956 C 832.261 0.190453 1.94068 0
M  V30 8957 O 831.531 -0.784783 1.79494 0
M  V30 8958 H 830.111 0.563578 0.490294 0
M  V30 8959 H 832.773 1.83351 0.660928 0
M  V30 8960 H 831.869 2.29215 2.11818 0
M  V30 8961 N 832.17 -0.811516 1.35101 0
M  V30 8962 C 833.41 -1.58177 1.29458 0
M  V30 8963 C 833.774 -1.91555 -0.130688 0
M  V30 8964 O 834.975 -2.6699 -0.311428 0
M  V30 8965 C 833.246 -2.83896 2.17112 0
M  V30 8966 S 834.805 -3.74344 2.28936 0
M  V30 8967 H 831.623 -0.542021 0.460146 0
M  V30 8968 H 834.225 -0.957653 1.70438 0
M  V30 8969 H 832.929 -2.57391 3.19653 0
M  V30 8970 H 832.46 -3.51297 1.7707 0
M  V30 8971 H 834.475 -4.73909 1.47054 0
M  V30 8972 N 833.648 -1.19017 -1.03309 0
M  V30 8973 C 834.578 -0.94772 -2.13402 0
M  V30 8974 C 835.559 0.117383 -1.69694 0
M  V30 8975 O 836.744 -0.0367733 -1.94165 0
M  V30 8976 C 833.874 -0.480977 -3.43953 0
M  V30 8977 C 832.828 -1.48743 -4.01322 0
M  V30 8978 C 832.154 -0.877924 -5.27443 0
M  V30 8979 C 833.454 -2.86642 -4.36616 0
M  V30 8980 H 835.148 -1.86846 -2.33942 0
M  V30 8981 H 832.694 -0.899781 -1.12427 0
M  V30 8982 H 834.647 -0.298677 -4.2034 0
M  V30 8983 H 833.371 0.475348 -3.23122 0
M  V30 8984 H 832.03 -1.65681 -3.27025 0
M  V30 8985 H 831.678 0.0858232 -5.02927 0
M  V30 8986 H 831.378 -1.54996 -5.66789 0
M  V30 8987 H 832.902 -0.706326 -6.06501 0
M  V30 8988 H 834.316 -2.73312 -5.03958 0
M  V30 8989 H 832.713 -3.50599 -4.87032 0
M  V30 8990 H 833.783 -3.39617 -3.46105 0
M  V30 8991 N 835.127 1.22348 -0.993418 0
M  V30 8992 C 836.543 1.43222 -0.704238 0
M  V30 8993 C 836.743 1.88009 0.724909 0
M  V30 8994 O 835.799 2.03429 1.49575 0
M  V30 8995 C 837.112 2.47328 -1.71025 0
M  V30 8996 C 838.66 2.61126 -1.72576 0
M  V30 8997 C 839.135 3.68453 -2.72041 0
M  V30 8998 N 840.626 3.75911 -2.70639 0
M  V30 8999 C 841.361 4.58551 -3.44266 0
M  V30 9000 N 840.857 5.45179 -4.27495 0
M  V30 9001 N 842.65 4.52866 -3.32969 0
M  V30 9002 H 834.801 0.915832 -1.91641 0
M  V30 9003 H 837.064 0.464283 -0.826526 0
M  V30 9004 H 836.77 2.21366 -2.73295 0
M  V30 9005 H 836.644 3.45939 -1.50353 0
M  V30 9006 H 839.031 2.86431 -0.710037 0
M  V30 9007 H 839.112 1.62787 -1.97317 0
M  V30 9008 H 838.756 3.43895 -3.73763 0
M  V30 9009 H 838.686 4.66362 -2.4457 0
M  V30 9010 H 841.177 3.14014 -2.10247 0
M  V30 9011 H 841.49 6.0526 -4.80499 0
M  V30 9012 H 839.835 5.44759 -4.31582 0
M  V30 9013 H 843.026 3.84215 -2.67389 0
M  V30 9014 H 843.199 5.17039 -3.90608 0
M  V30 9015 N 836.605 0.766683 1.37694 0
M  V30 9016 C 837.568 0.155849 2.2867 0
M  V30 9017 C 838.568 -0.633509 1.47795 0
M  V30 9018 O 839.758 -0.457844 1.68076 0
M  V30 9019 C 836.89 -0.786965 3.31692 0
M  V30 9020 H 838.083 0.957748 2.84196 0
M  V30 9021 H 835.636 0.534554 1.46875 0
M  V30 9022 H 836.371 -1.61406 2.8128 0
M  V30 9023 H 836.156 -0.223182 3.91464 0
M  V30 9024 H 837.646 -1.20994 3.99688 0
M  V30 9025 N 838.083 -1.48885 0.516809 0
M  V30 9026 C 839.013 -2.32241 -0.242157 0
M  V30 9027 C 839.994 -1.41258 -0.947633 0
M  V30 9028 O 841.179 -1.70156 -0.935973 0
M  V30 9029 C 838.309 -3.22151 -1.29754 0
M  V30 9030 C 837.263 -4.22053 -0.710995 0
M  V30 9031 C 836.589 -5.01007 -1.86806 0
M  V30 9032 C 837.889 -5.21388 0.30853 0
M  V30 9033 H 839.583 -2.95943 0.453651 0
M  V30 9034 H 837.129 -1.42316 0.219612 0
M  V30 9035 H 839.082 -3.79284 -1.83634 0
M  V30 9036 H 837.806 -2.56423 -2.02274 0
M  V30 9037 H 836.465 -3.66087 -0.193819 0
M  V30 9038 H 836.113 -4.31713 -2.58133 0
M  V30 9039 H 835.813 -5.68615 -1.48159 0
M  V30 9040 H 837.337 -5.60989 -2.4109 0
M  V30 9041 H 838.751 -5.73122 -0.142703 0
M  V30 9042 H 837.148 -5.96975 0.611673 0
M  V30 9043 H 838.218 -4.69329 1.21894 0
M  V30 9044 N 839.561 -0.251338 -1.55583 0
M  V30 9045 C 840.786 0.379136 -2.03905 0
M  V30 9046 C 841.211 1.50428 -1.12929 0
M  V30 9047 O 840.569 1.80882 -0.123114 0
M  V30 9048 C 840.617 0.86009 -3.50193 0
M  V30 9049 O 839.721 1.96932 -3.62342 0
M  V30 9050 H 839.062 0.0820183 -0.658915 0
M  V30 9051 H 841.592 -0.378692 -2.01065 0
M  V30 9052 H 841.602 1.16214 -3.91099 0
M  V30 9053 H 840.277 0.0367559 -4.15884 0
M  V30 9054 H 838.854 1.67163 -3.33333 0
M  V30 9055 N 841.039 1.57585 0.0217189 0
M  V30 9056 C 841.969 2.10073 1.01939 0
M  V30 9057 C 842.95 1.0049 1.37243 0
M  V30 9058 O 844.135 1.28055 1.45999 0
M  V30 9059 C 841.265 2.58618 2.31806 0
M  V30 9060 C 840.219 3.72531 2.10724 0
M  V30 9061 C 839.545 4.07309 3.46415 0
M  V30 9062 C 840.845 5.00672 1.48743 0
M  V30 9063 H 842.539 2.9368 0.582432 0
M  V30 9064 H 840.085 1.41277 0.278715 0
M  V30 9065 H 842.038 2.9396 3.01936 0
M  V30 9066 H 840.762 1.72104 2.77575 0
M  V30 9067 H 839.421 3.37549 1.43025 0
M  V30 9068 H 839.069 3.17851 3.89846 0
M  V30 9069 H 838.769 4.84042 3.33132 0
M  V30 9070 H 840.293 4.45192 4.17895 0
M  V30 9071 H 841.707 5.33925 2.088 0
M  V30 9072 H 840.104 5.82065 1.46013 0
M  V30 9073 H 841.174 4.82769 0.45408 0
M  V30 9074 N 842.517 -0.29412 1.54831 0
M  V30 9075 C 843.467 -1.36476 1.82643 0
M  V30 9076 C 844.451 -1.45638 0.683984 0
M  V30 9077 O 845.643 -1.49675 0.944801 0
M  V30 9078 C 842.772 -2.72865 2.08326 0
M  V30 9079 C 841.858 -2.67898 3.28773 0
M  V30 9080 N 842.249 -2.32547 4.49172 0
M  V30 9081 C 840.547 -2.98991 3.30939 0
M  V30 9082 C 841.248 -2.37048 5.31209 0
M  V30 9083 N 840.224 -2.74679 4.69097 0
M  V30 9084 H 844.026 -1.08119 2.7329 0
M  V30 9085 H 841.54 -0.502718 1.54423 0
M  V30 9086 H 843.537 -3.5007 2.264 0
M  V30 9087 H 842.197 -3.02127 1.1895 0
M  V30 9088 H 843.208 -2.04883 4.7565 0
M  V30 9089 H 839.885 -3.33104 2.51691 0
M  V30 9090 H 841.275 -2.12457 6.37426 0
M  V30 9091 N 843.995 -1.47404 -0.557645 0
M  V30 9092 C 845.244 -1.53268 -1.31118 0
M  V30 9093 C 845.557 -0.199414 -1.94581 0
M  V30 9094 O 846.763 -0.136039 -2.71159 0
M  V30 9095 C 845.219 -2.70178 -2.37764 0
M  V30 9096 C 844.827 -4.10032 -1.80493 0
M  V30 9097 C 846.571 -2.85334 -3.14301 0
M  V30 9098 C 844.478 -5.18244 -2.84916 0
M  V30 9099 H 843.408 -0.570491 -0.493007 0
M  V30 9100 H 846.059 -1.73678 -0.592308 0
M  V30 9101 H 844.441 -2.43147 -3.12563 0
M  V30 9102 H 845.615 -4.46964 -1.12069 0
M  V30 9103 H 843.93 -3.99759 -1.16542 0
M  V30 9104 H 846.527 -3.63347 -3.92279 0
M  V30 9105 H 846.87 -1.93761 -3.68459 0
M  V30 9106 H 847.403 -3.12133 -2.46613 0
M  V30 9107 H 844.142 -6.11691 -2.35614 0
M  V30 9108 H 843.662 -4.85829 -3.51753 0
M  V30 9109 H 845.341 -5.45174 -3.48417 0
M  V30 9110 N 845.473 0.80434 -1.35529 0
M  V30 9111 C 846.42 1.91629 -1.28635 0
M  V30 9112 C 847.39 1.65348 -0.157862 0
M  V30 9113 O 848.575 1.87711 -0.341934 0
M  V30 9114 C 845.715 3.28207 -1.0665 0
M  V30 9115 C 844.828 3.66659 -2.28441 0
M  V30 9116 C 843.963 4.92279 -1.99588 0
M  V30 9117 C 843.002 5.23365 -3.1742 0
M  V30 9118 N 842.139 6.40165 -2.88328 0
M  V30 9119 H 846.979 1.96858 -2.23721 0
M  V30 9120 H 844.516 0.962871 -1.11208 0
M  V30 9121 H 846.474 4.06945 -0.919343 0
M  V30 9122 H 845.104 3.22441 -0.152253 0
M  V30 9123 H 844.156 2.83164 -2.54013 0
M  V30 9124 H 845.468 3.8559 -3.1642 0
M  V30 9125 H 844.622 5.78847 -1.81715 0
M  V30 9126 H 843.361 4.75387 -1.08896 0
M  V30 9127 H 842.366 4.35285 -3.35867 0
M  V30 9128 H 843.591 5.42185 -4.08916 0
M  V30 9129 H 841.537 6.24694 -2.00233 0
M  V30 9130 H 841.454 6.59357 -3.69843 0
M  V30 9131 H 842.722 7.29755 -2.74002 0
M  V30 9132 N 846.951 1.19563 1.02676 0
M  V30 9133 C 848.179 1.02488 1.79732 0
M  V30 9134 C 848.594 -0.426302 1.83924 0
M  V30 9135 O 847.951 -1.29609 1.28483 0
M  V30 9136 C 848.002 1.58944 3.24683 0
M  V30 9137 O 847.723 2.98382 3.2078 0
M  V30 9138 C 849.224 1.46681 4.1833 0
M  V30 9139 H 846.444 0.361098 0.565552 0
M  V30 9140 H 848.988 1.58426 1.29311 0
M  V30 9141 H 847.143 1.0715 3.72287 0
M  V30 9142 H 847.557 3.24983 4.11687 0
M  V30 9143 H 849.031 1.90959 5.17918 0
M  V30 9144 H 849.508 0.417663 4.3721 0
M  V30 9145 H 850.114 1.97616 3.76601 0
M  V30 9146 N 848.429 -1.21819 0.999893 0
M  V30 9147 C 849.654 -1.95298 0.698094 0
M  V30 9148 C 850.079 -1.73273 -0.731982 0
M  V30 9149 O 849.437 -1.01634 -1.50134 0
M  V30 9150 C 849.485 -3.45922 1.01834 0
M  V30 9151 O 848.589 -4.12223 0.120801 0
M  V30 9152 H 847.93 -0.610729 0.260588 0
M  V30 9153 H 850.46 -1.5472 1.33876 0
M  V30 9154 H 850.47 -3.96471 0.963074 0
M  V30 9155 H 849.145 -3.61278 2.06037 0
M  V30 9156 H 847.722 -3.72177 0.232153 0
M  V30 9157 N 849.908 -0.773975 -1.37286 0
M  V30 9158 C 851.155 -0.339306 -1.99637 0
M  V30 9159 C 851.483 1.08478 -1.61439 0
M  V30 9160 O 850.738 1.7612 -0.853252 0
M  V30 9161 C 851.037 -0.432651 -3.54772 0
M  V30 9162 C 850.703 -1.81531 -4.12744 0
M  V30 9163 C 849.365 -2.19366 -4.2829 0
M  V30 9164 C 851.717 -2.72137 -4.44512 0
M  V30 9165 C 849.045 -3.47239 -4.72908 0
M  V30 9166 C 851.397 -3.99421 -4.90556 0
M  V30 9167 C 850.061 -4.37298 -5.04308 0
M  V30 9168 H 849.331 -0.124161 -0.730524 0
M  V30 9169 H 851.978 -0.988432 -1.64019 0
M  V30 9170 H 850.283 0.30001 -3.9065 0
M  V30 9171 H 851.98 -0.0776 -4.00925 0
M  V30 9172 H 848.57 -1.51126 -4.01072 0
M  V30 9173 H 852.754 -2.44165 -4.32084 0
M  V30 9174 H 848.01 -3.76477 -4.81742 0
M  V30 9175 H 852.184 -4.69756 -5.14104 0
M  V30 9176 H 849.811 -5.36442 -5.38641 0
M  V30 9177 N 851.386 1.48609 -0.524698 0
M  V30 9178 C 852.626 2.04398 0.00938367 0
M  V30 9179 C 852.99 1.39355 1.32077 0
M  V30 9180 O 854.191 1.86 1.94055 0
M  V30 9181 C 852.462 3.57148 0.134318 0
M  V30 9182 S 854.021 4.34409 0.619227 0
M  V30 9183 H 850.839 0.710936 -0.00953362 0
M  V30 9184 H 853.441 1.82382 -0.704058 0
M  V30 9185 H 852.145 4.02022 -0.825027 0
M  V30 9186 H 851.676 3.83607 0.872296 0
M  V30 9187 H 853.691 4.59017 1.88462 0
M  V30 9188 N 852.864 0.259585 1.55447 0
M  V30 9189 C 853.827 -0.621359 2.20617 0
M  V30 9190 C 854.827 -1.09317 1.17925 0
M  V30 9191 O 856.017 -0.995842 1.42929 0
M  V30 9192 C 853.149 -1.85546 2.85982 0
M  V30 9193 H 854.342 -0.0525833 2.99854 0
M  V30 9194 H 851.895 0.0101055 1.56297 0
M  V30 9195 H 852.63 -2.46515 2.10715 0
M  V30 9196 H 852.415 -1.52523 3.61219 0
M  V30 9197 H 853.905 -2.48227 3.35817 0
M  V30 9198 N 854.342 -1.57594 -0.0133615 0
M  V30 9199 C 855.753 -1.78168 -0.557937 0
M  V30 9200 C 856.104 -0.892616 -1.74719 0
M  V30 9201 O 855.229 -0.0915491 -2.16206 0
M  V30 9202 C 855.824 -3.23115 -1.01894 0
M  V30 9203 C 854.383 -3.44831 -1.50892 0
M  V30 9204 C 853.53 -2.73558 -0.454044 0
M  V30 9205 H 856.481 -1.57266 0.212843 0
M  V30 9206 H 856.502 -3.30493 -1.8856 0
M  V30 9207 H 856.014 -3.87798 -0.153175 0
M  V30 9208 H 854.115 -2.85345 -2.39602 0
M  V30 9209 H 854.228 -4.53485 -1.54559 0
M  V30 9210 H 852.592 -2.37787 -0.912666 0
M  V30 9211 H 853.375 -3.40932 0.402524 0
M  V30 9212 N 855.82 0.285905 -1.54985 0
M  V30 9213 C 857.068 1.01718 -1.74636 0
M  V30 9214 C 857.389 1.87277 -0.543342 0
M  V30 9215 O 856.659 1.90847 0.442078 0
M  V30 9216 H 855.239 0.378549 -0.643979 0
M  V30 9217 H 857.901 0.313247 -1.92366 0
M  V30 9218 H 856.997 1.66159 -2.64192 0
M  V30 9219 N 857.298 1.47698 0.54982 0
M  V30 9220 C 858.208 1.63386 1.68351 0
M  V30 9221 C 859.224 0.516583 1.66155 0
M  V30 9222 O 860.4 0.785088 1.85468 0
M  V30 9223 C 857.465 1.6513 3.04849 0
M  V30 9224 C 856.526 2.88338 3.18056 0
M  V30 9225 C 855.759 2.8999 4.48042 0
M  V30 9226 O 855.982 2.00633 5.3395 0
M  V30 9227 O 854.916 3.81938 4.65196 0
M  V30 9228 H 858.742 2.59329 1.58057 0
M  V30 9229 H 856.327 1.30869 0.72067 0
M  V30 9230 H 858.209 1.68913 3.86065 0
M  V30 9231 H 856.884 0.723555 3.1551 0
M  V30 9232 H 855.791 2.90097 2.36209 0
M  V30 9233 H 857.124 3.80431 3.12302 0
M  V30 9234 N 858.776 -0.797141 1.35954 0
M  V30 9235 C 860.006 -1.5835 1.32698 0
M  V30 9236 C 860.414 -1.88959 -0.0955298 0
M  V30 9237 O 859.757 -1.49987 -1.06064 0
M  V30 9238 C 859.819 -2.93529 2.0756 0
M  V30 9239 C 859.483 -2.85688 3.56695 0
M  V30 9240 C 860.48 -2.58467 4.51099 0
M  V30 9241 C 858.165 -3.04508 3.99475 0
M  V30 9242 C 860.159 -2.50157 5.8626 0
M  V30 9243 C 857.846 -2.9582 5.34728 0
M  V30 9244 C 858.844 -2.68681 6.27933 0
M  V30 9245 O 858.532 -2.59973 7.60703 0
M  V30 9246 H 858.264 -0.49807 0.457059 0
M  V30 9247 H 860.818 -0.997889 1.79531 0
M  V30 9248 H 859.048 -3.54111 1.55378 0
M  V30 9249 H 860.737 -3.54744 1.9726 0
M  V30 9250 H 861.503 -2.43638 4.19363 0
M  V30 9251 H 857.382 -3.24641 3.27306 0
M  V30 9252 H 860.926 -2.28894 6.58979 0
M  V30 9253 H 856.823 -3.10211 5.66074 0
M  V30 9254 H 857.591 -2.75511 7.70737 0
M  V30 9255 N 860.254 -1.20106 -1.0204 0
M  V30 9256 C 861.184 -0.970301 -2.12385 0
M  V30 9257 C 862.165 0.099378 -1.69809 0
M  V30 9258 O 863.35 -0.057365 -1.94115 0
M  V30 9259 C 860.48 -0.517431 -3.43424 0
M  V30 9260 C 859.434 -1.52992 -3.99722 0
M  V30 9261 C 858.76 -0.933817 -5.26483 0
M  V30 9262 C 860.06 -2.91257 -4.33551 0
M  V30 9263 H 861.754 -1.89316 -2.31948 0
M  V30 9264 H 859.3 -0.911655 -1.11467 0
M  V30 9265 H 861.253 -0.343243 -4.2 0
M  V30 9266 H 859.977 0.441049 -3.23608 0
M  V30 9267 H 858.636 -1.6914 -3.2525 0
M  V30 9268 H 858.284 0.0324763 -5.0299 0
M  V30 9269 H 857.984 -1.60999 -5.65113 0
M  V30 9270 H 859.508 -0.770614 -6.05718 0
M  V30 9271 H 860.922 -2.78642 -5.0103 0
M  V30 9272 H 859.319 -3.55745 -4.83286 0
M  V30 9273 H 860.389 -3.43269 -3.42483 0
M  V30 9274 N 861.732 1.21287 -1.00634 0
M  V30 9275 C 862.662 2.25973 -0.588089 0
M  V30 9276 C 863.643 1.65527 0.391764 0
M  V30 9277 O 864.828 1.92179 0.279452 0
M  V30 9278 C 861.958 3.47197 0.0847336 0
M  V30 9279 C 860.912 4.20168 -0.815039 0
M  V30 9280 C 860.238 5.34699 -0.00855393 0
M  V30 9281 C 861.538 4.77416 -2.11828 0
M  V30 9282 H 863.232 2.61212 -1.46317 0
M  V30 9283 H 860.778 1.25563 -0.704985 0
M  V30 9284 H 862.731 4.19602 0.388821 0
M  V30 9285 H 861.455 3.11092 0.994456 0
M  V30 9286 H 860.114 3.49614 -1.10297 0
M  V30 9287 H 859.762 4.94837 0.902499 0
M  V30 9288 H 859.462 5.84449 -0.607664 0
M  V30 9289 H 860.986 6.09914 0.289317 0
M  V30 9290 H 862.4 5.41694 -1.87725 0
M  V30 9291 H 860.797 5.37561 -2.66736 0
M  V30 9292 H 861.867 3.96724 -2.78816 0
M  V30 9293 N 863.21 0.781244 1.36873 0
M  V30 9294 C 864.626 0.461968 1.52768 0
M  V30 9295 C 864.826 -1.02099 1.73719 0
M  V30 9296 O 863.882 -1.80665 1.76399 0
M  V30 9297 C 865.195 1.2853 2.71846 0
M  V30 9298 C 866.743 1.27817 2.85713 0
M  V30 9299 C 867.218 2.08506 4.07786 0
M  V30 9300 N 868.709 2.05909 4.14917 0
M  V30 9301 C 869.444 2.65118 5.08429 0
M  V30 9302 N 868.94 3.33152 6.07438 0
M  V30 9303 N 870.733 2.54896 5.00983 0
M  V30 9304 H 862.884 1.74198 1.21527 0
M  V30 9305 H 865.147 0.740027 0.592506 0
M  V30 9306 H 864.853 2.3366 2.62861 0
M  V30 9307 H 864.727 0.920981 3.65784 0
M  V30 9308 H 867.114 0.234817 2.94164 0
M  V30 9309 H 867.195 1.68219 1.92707 0
M  V30 9310 H 866.839 3.12867 4.00096 0
M  V30 9311 H 866.769 1.65479 4.99924 0
M  V30 9312 H 869.26 1.56386 3.44023 0
M  V30 9313 H 869.573 3.75681 6.75339 0
M  V30 9314 H 867.918 3.37253 6.07689 0
M  V30 9315 H 871.109 2.01352 4.22581 0
M  V30 9316 H 871.282 3.01332 5.73675 0
M  V30 9317 N 864.689 -1.48329 0.532571 0
M  V30 9318 C 866.105 -1.58458 0.190605 0
M  V30 9319 C 866.305 -1.53427 -1.30623 0
M  V30 9320 O 865.361 -1.4247 -2.08467 0
M  V30 9321 C 866.674 -2.89989 0.79543 0
M  V30 9322 C 868.222 -3.03523 0.7644 0
M  V30 9323 C 868.697 -4.37718 1.34785 0
M  V30 9324 N 870.188 -4.44292 1.30993 0
M  V30 9325 C 870.923 -5.4664 1.73124 0
M  V30 9326 N 870.419 -6.5593 2.22997 0
M  V30 9327 N 872.212 -5.37538 1.64346 0
M  V30 9328 H 864.363 -1.49842 1.50537 0
M  V30 9329 H 866.626 -0.71164 0.626316 0
M  V30 9330 H 866.332 -2.99333 1.84642 0
M  V30 9331 H 866.206 -3.76203 0.27403 0
M  V30 9332 H 868.593 -2.93789 -0.277831 0
M  V30 9333 H 868.674 -2.18912 1.3233 0
M  V30 9334 H 868.318 -4.48206 2.38902 0
M  V30 9335 H 868.248 -5.21019 0.764609 0
M  V30 9336 H 870.739 -3.65897 0.944868 0
M  V30 9337 H 871.052 -7.30167 2.53133 0
M  V30 9338 H 869.397 -6.56886 2.26992 0
M  V30 9339 H 872.588 -4.51052 1.25178 0
M  V30 9340 H 872.761 -6.17169 1.97501 0
M  V30 9341 N 866.167 -0.267825 -1.55308 0
M  V30 9342 C 867.415 0.350343 -1.9904 0
M  V30 9343 C 867.736 1.56924 -1.15758 0
M  V30 9344 O 867.006 1.94358 -0.245336 0
M  V30 9345 H 865.586 0.132435 -0.735167 0
M  V30 9346 H 868.248 -0.371471 -1.91327 0
M  V30 9347 H 867.344 0.645203 -3.05358 0
M  V30 9348 N 867.645 1.57599 0.00500368 0
M  V30 9349 C 868.922 1.81561 0.727654 0
M  V30 9350 C 869.302 0.871604 1.92266 0
M  V30 9351 O 868.65 -0.0808232 2.28357 0
M  V30 9352 C 868.86 3.29922 1.13809 0
M  V30 9353 C 870.208 3.95531 1.54403 0
M  V30 9354 O 871.232 3.34215 1.23202 0
M  V30 9355 O 870.091 5.03535 2.12402 0
M  V30 9356 H 867.185 0.747462 0.353878 0
M  V30 9357 H 869.731 1.69688 -0.0200667 0
M  V30 9358 H 868.503 3.90253 0.286078 0
M  V30 9359 H 868.126 3.46775 1.94507 0
M  V30 9360 N 869.123 -0.277682 1.55134 0
M  V30 9361 C 870.086 -1.32635 1.86924 0
M  V30 9362 C 871.086 -1.42578 0.743507 0
M  V30 9363 O 872.276 -1.4181 1.01171 0
M  V30 9364 C 869.408 -2.70832 2.07034 0
M  V30 9365 H 870.601 -1.0568 2.80663 0
M  V30 9366 H 868.154 -0.515517 1.47554 0
M  V30 9367 H 868.889 -3.02974 1.15661 0
M  V30 9368 H 868.674 -2.65001 2.88993 0
M  V30 9369 H 870.164 -3.46611 2.32918 0
M  V30 9370 N 870.601 -1.47988 -0.541979 0
M  V30 9371 C 871.531 -1.64503 -1.65713 0
M  V30 9372 C 872.512 -0.494116 -1.62765 0
M  V30 9373 O 873.697 -0.725256 -1.80149 0
M  V30 9374 C 870.827 -1.67337 -3.04328 0
M  V30 9375 C 869.781 -2.81809 -3.2213 0
M  V30 9376 C 869.107 -2.69724 -4.61685 0
M  V30 9377 C 870.407 -4.23241 -3.06046 0
M  V30 9378 H 872.101 -2.5786 -1.52147 0
M  V30 9379 H 869.647 -1.24094 -0.730529 0
M  V30 9380 H 871.6 -1.77481 -3.82202 0
M  V30 9381 H 870.324 -0.705514 -3.18889 0
M  V30 9382 H 868.983 -2.71201 -2.46669 0
M  V30 9383 H 868.631 -1.70934 -4.73065 0
M  V30 9384 H 868.331 -3.4653 -4.74543 0
M  V30 9385 H 869.855 -2.81818 -5.41674 0
M  V30 9386 H 871.269 -4.34746 -3.73723 0
M  V30 9387 H 869.666 -5.00952 -3.30405 0
M  V30 9388 H 870.736 -4.40543 -2.02609 0
M  V30 9389 N 872.079 0.78992 -1.36375 0
M  V30 9390 C 873.011 1.91113 -1.26524 0
M  V30 9391 C 874.024 1.61747 -0.184851 0
M  V30 9392 O 875.213 1.73004 -0.439524 0
M  V30 9393 C 872.313 3.25908 -0.92937 0
M  V30 9394 C 871.486 3.83057 -2.11154 0
M  V30 9395 C 870.545 4.96289 -1.74881 0
M  V30 9396 O 869.571 5.12834 -2.46962 0
M  V30 9397 N 870.773 5.76478 -0.682193 0
M  V30 9398 H 873.538 2.00085 -2.23128 0
M  V30 9399 H 871.099 0.968165 -1.29762 0
M  V30 9400 H 873.091 3.99151 -0.667884 0
M  V30 9401 H 871.661 3.12556 -0.0524843 0
M  V30 9402 H 870.881 3.01808 -2.53586 0
M  V30 9403 H 872.169 4.1797 -2.90135 0
M  V30 9404 H 871.567 5.65638 -0.0836661 0
M  V30 9405 H 870.124 6.50026 -0.480529 0
M  V30 9406 N 873.557 1.20646 1.01402 0
M  V30 9407 C 874.52 0.959314 2.08158 0
M  V30 9408 C 875.52 -0.0661558 1.60664 0
M  V30 9409 O 876.71 0.170177 1.73367 0
M  V30 9410 C 873.842 0.444785 3.37986 0
M  V30 9411 H 875.035 1.90631 2.31517 0
M  V30 9412 H 872.588 1.02219 1.18241 0
M  V30 9413 H 873.323 -0.507553 3.20304 0
M  V30 9414 H 873.108 1.18435 3.73785 0
M  V30 9415 H 874.598 0.291443 4.16582 0
M  V30 9416 N 875.035 -1.20752 1.01276 0
M  V30 9417 C 875.985 -2.21252 0.550602 0
M  V30 9418 C 876.969 -1.56052 -0.391985 0
M  V30 9419 O 878.161 -1.75682 -0.215575 0
M  V30 9420 C 875.29 -3.43112 -0.113601 0
M  V30 9421 C 874.376 -4.15485 0.850465 0
M  V30 9422 N 874.767 -4.64301 2.00643 0
M  V30 9423 C 873.065 -4.40932 0.670476 0
M  V30 9424 C 873.766 -5.197 2.61317 0
M  V30 9425 N 872.742 -5.09534 1.8941 0
M  V30 9426 H 876.544 -2.56657 1.43194 0
M  V30 9427 H 874.058 -1.36646 0.877597 0
M  V30 9428 H 876.055 -4.1433 -0.462211 0
M  V30 9429 H 874.715 -3.09213 -0.990825 0
M  V30 9430 H 875.726 -4.59637 2.38651 0
M  V30 9431 H 872.403 -4.17197 -0.159016 0
M  V30 9432 H 873.793 -5.67873 3.59123 0
M  V30 9433 N 876.513 -0.788492 -1.36457 0
M  V30 9434 C 877.743 -0.371825 -2.03227 0
M  V30 9435 C 878.151 1.01627 -1.59589 0
M  V30 9436 O 877.494 1.663 -0.780382 0
M  V30 9437 C 877.556 -0.355179 -3.57741 0
M  V30 9438 C 877.22 -1.69069 -4.24576 0
M  V30 9439 C 878.217 -2.64601 -4.47529 0
M  V30 9440 C 875.902 -1.96973 -4.62068 0
M  V30 9441 C 877.896 -3.86232 -5.07054 0
M  V30 9442 C 875.583 -3.18872 -5.2131 0
M  V30 9443 C 876.581 -4.1332 -5.43742 0
M  V30 9444 O 876.269 -5.3307 -6.0174 0
M  V30 9445 H 876.001 -0.151452 -0.658816 0
M  V30 9446 H 878.555 -1.06827 -1.75434 0
M  V30 9447 H 876.785 0.397753 -3.84649 0
M  V30 9448 H 878.474 0.0366955 -4.05883 0
M  V30 9449 H 879.24 -2.44329 -4.18961 0
M  V30 9450 H 875.119 -1.24277 -4.43933 0
M  V30 9451 H 878.663 -4.59965 -5.24478 0
M  V30 9452 H 874.56 -3.39022 -5.49304 0
M  V30 9453 H 875.328 -5.34121 -6.20207 0
M  V30 9454 N 877.991 1.48044 -0.54043 0
M  V30 9455 C 879.221 2.06595 -0.0144943 0
M  V30 9456 C 879.629 1.39593 1.27713 0
M  V30 9457 O 878.972 0.480794 1.77297 0
M  V30 9458 C 879.034 3.5849 0.269316 0
M  V30 9459 C 878.698 4.47429 -0.930372 0
M  V30 9460 C 879.695 4.8657 -1.83155 0
M  V30 9461 C 877.38 4.89185 -1.14032 0
M  V30 9462 C 879.374 5.66246 -2.92649 0
M  V30 9463 C 877.061 5.6863 -2.23838 0
M  V30 9464 C 878.059 6.07069 -3.12979 0
M  V30 9465 O 877.747 6.84917 -4.20884 0
M  V30 9466 H 877.479 0.675086 -0.0351467 0
M  V30 9467 H 880.033 1.91275 -0.74853 0
M  V30 9468 H 878.263 3.71961 1.05745 0
M  V30 9469 H 879.952 3.99124 0.738595 0
M  V30 9470 H 880.718 4.54924 -1.68134 0
M  V30 9471 H 876.597 4.58742 -0.455717 0
M  V30 9472 H 880.141 5.96169 -3.62254 0
M  V30 9473 H 876.038 5.99688 -2.38839 0
M  V30 9474 H 876.806 7.03287 -4.18723 0
M  V30 9475 N 879.47 0.276058 1.55163 0
M  V30 9476 C 880.716 -0.340959 1.99913 0
M  V30 9477 C 881.049 -1.55434 1.16422 0
M  V30 9478 O 880.324 -1.93081 0.234517 0
M  V30 9479 C 880.607 -0.722211 3.52783 0
M  V30 9480 C 880.46 0.498575 4.47028 0
M  V30 9481 C 881.779 -1.5583 4.11589 0
M  V30 9482 H 878.898 -0.122455 0.726756 0
M  V30 9483 H 881.54 0.38319 1.86096 0
M  V30 9484 H 879.69 -1.33919 3.64689 0
M  V30 9485 H 881.362 1.13713 4.47065 0
M  V30 9486 H 879.605 1.13646 4.18649 0
M  V30 9487 H 880.276 0.188041 5.5168 0
M  V30 9488 H 882.752 -1.03722 4.02965 0
M  V30 9489 H 881.628 -1.79387 5.1876 0
M  V30 9490 H 881.889 -2.53963 3.61877 0
M  V30 9491 N 880.948 -1.576 0.00335426 0
M  V30 9492 C 882.188 -1.92571 -0.685253 0
M  V30 9493 C 882.552 -0.877961 -1.70751 0
M  V30 9494 O 883.753 -1.11303 -2.44673 0
M  V30 9495 C 882.024 -3.3258 -1.30863 0
M  V30 9496 S 883.583 -3.89442 -2.02189 0
M  V30 9497 H 880.401 -0.674035 -0.226268 0
M  V30 9498 H 883.003 -1.95405 0.0608461 0
M  V30 9499 H 881.707 -4.06673 -0.551837 0
M  V30 9500 H 881.238 -3.33128 -2.09259 0
M  V30 9501 H 883.253 -3.70789 -3.29742 0
M  V30 9502 N 882.426 0.269451 -1.5528 0
M  V30 9503 C 883.651 1.02299 -1.80415 0
M  V30 9504 C 884.076 1.7902 -0.577363 0
M  V30 9505 O 883.434 1.75018 0.473125 0
M  V30 9506 C 883.482 1.95445 -3.0304 0
M  V30 9507 O 882.586 3.04271 -2.78375 0
M  V30 9508 H 881.927 0.292289 -0.596207 0
M  V30 9509 H 884.457 0.297282 -2.02429 0
M  V30 9510 H 884.467 2.37333 -3.31869 0
M  V30 9511 H 883.142 1.39017 -3.91978 0
M  V30 9512 H 881.719 2.66673 -2.60653 0
M  V30 9513 N 883.904 1.48273 0.534124 0
M  V30 9514 C 885.152 1.55771 1.28762 0
M  V30 9515 C 885.473 0.231575 1.9362 0
M  V30 9516 O 884.743 -0.746533 1.81118 0
M  V30 9517 H 883.323 0.573851 0.47823 0
M  V30 9518 H 885.985 1.84712 0.621888 0
M  V30 9519 H 885.081 2.33657 2.06908 0
M  V30 9520 N 885.382 -0.782676 1.36792 0
M  V30 9521 C 886.607 -1.57676 1.34733 0
M  V30 9522 C 887.032 -1.87979 -0.0675253 0
M  V30 9523 O 886.39 -1.48404 -1.04144 0
M  V30 9524 C 886.438 -2.87047 2.18257 0
M  V30 9525 O 885.542 -3.80946 1.57969 0
M  V30 9526 H 884.883 -0.478034 0.460846 0
M  V30 9527 H 887.413 -0.969578 1.80168 0
M  V30 9528 H 887.423 -3.36254 2.31079 0
M  V30 9529 H 886.098 -2.64319 3.21104 0
M  V30 9530 H 884.675 -3.39558 1.54126 0
M  V30 9531 N 886.86 -1.21182 -1.00761 0
M  V30 9532 C 887.79 -0.992773 -2.11344 0
M  V30 9533 C 888.771 0.0813618 -1.69905 0
M  V30 9534 O 889.956 -0.0779503 -1.94043 0
M  V30 9535 C 887.086 -0.553826 -3.42856 0
M  V30 9536 C 886.04 -1.57223 -3.98077 0
M  V30 9537 C 885.366 -0.989605 -5.25463 0
M  V30 9538 C 886.666 -2.95839 -4.30438 0
M  V30 9539 H 888.36 -1.91766 -2.29927 0
M  V30 9540 H 885.906 -0.923426 -1.10494 0
M  V30 9541 H 887.859 -0.387771 -4.19612 0
M  V30 9542 H 886.583 0.406702 -3.24058 0
M  V30 9543 H 885.242 -1.7258 -3.23437 0
M  V30 9544 H 884.89 -0.0208743 -5.02996 0
M  V30 9545 H 884.59 -1.66984 -5.63374 0
M  V30 9546 H 886.114 -0.834815 -6.04866 0
M  V30 9547 H 887.528 -2.8394 -4.98047 0
M  V30 9548 H 885.925 -3.60851 -4.79486 0
M  V30 9549 H 886.995 -3.46882 -3.38823 0
M  V30 9550 N 888.338 1.20213 -1.01915 0
M  V30 9551 C 889.248 2.26763 -0.601311 0
M  V30 9552 C 890.264 1.70185 0.362369 0
M  V30 9553 O 891.44 2.00165 0.222682 0
M  V30 9554 C 888.505 3.46662 0.0512879 0
M  V30 9555 C 887.566 4.18459 -0.958659 0
M  V30 9556 C 886.799 5.32634 -0.337107 0
M  V30 9557 O 887.022 5.63841 0.86251 0
M  V30 9558 O 885.956 5.9258 -1.05511 0
M  V30 9559 H 889.782 2.64725 -1.48844 0
M  V30 9560 H 887.367 1.2688 -0.788784 0
M  V30 9561 H 889.249 4.19345 0.41564 0
M  V30 9562 H 887.924 3.1057 0.912572 0
M  V30 9563 H 886.831 3.47937 -1.37442 0
M  V30 9564 H 888.164 4.58498 -1.78999 0
M  V30 9565 N 889.816 0.795718 1.36037 0
M  V30 9566 C 891.062 0.371574 1.99367 0
M  V30 9567 C 891.395 -1.0557 1.62999 0
M  V30 9568 O 890.67 -1.73051 0.887895 0
M  V30 9569 C 890.953 0.542622 3.55988 0
M  V30 9570 C 890.806 2.01404 4.0219 0
M  V30 9571 C 892.125 -0.0384527 4.40083 0
M  V30 9572 H 889.244 0.136483 0.724252 0
M  V30 9573 H 891.886 1.00323 1.61355 0
M  V30 9574 H 890.036 0.0049053 3.885 0
M  V30 9575 H 891.708 2.6133 3.80137 0
M  V30 9576 H 889.951 2.51439 3.53498 0
M  V30 9577 H 890.622 2.08466 5.11122 0
M  V30 9578 H 893.098 0.420634 4.13968 0
M  V30 9579 H 891.974 0.111214 5.48787 0
M  V30 9580 H 892.235 -1.13116 4.27384 0
M  V30 9581 N 891.294 -1.47756 0.548274 0
M  V30 9582 C 892.224 -2.32702 -0.19284 0
M  V30 9583 C 893.205 -1.43237 -0.917457 0
M  V30 9584 O 894.39 -1.72103 -0.89967 0
M  V30 9585 C 891.52 -3.24831 -1.22891 0
M  V30 9586 C 890.474 -4.23466 -0.621312 0
M  V30 9587 C 889.8 -5.04856 -1.76137 0
M  V30 9588 C 891.1 -5.20616 0.419055 0
M  V30 9589 H 892.794 -2.94914 0.516323 0
M  V30 9590 H 890.34 -1.41818 0.24975 0
M  V30 9591 H 892.293 -3.83094 -1.75547 0
M  V30 9592 H 891.017 -2.60656 -1.9679 0
M  V30 9593 H 889.676 -3.66416 -0.116123 0
M  V30 9594 H 889.324 -4.37091 -2.48918 0
M  V30 9595 H 889.024 -5.71629 -1.36065 0
M  V30 9596 H 890.548 -5.65976 -2.29136 0
M  V30 9597 H 891.962 -5.73296 -0.0211034 0
M  V30 9598 H 890.359 -5.95543 0.738163 0
M  V30 9599 H 891.429 -4.66638 1.31822 0
M  V30 9600 N 892.772 -0.284283 -1.55015 0
M  V30 9601 C 894.188 0.069603 -1.59448 0
M  V30 9602 C 894.388 1.53833 -1.30144 0
M  V30 9603 O 893.444 2.2886 -1.06674 0
M  V30 9604 C 894.757 -0.313287 -2.99064 0
M  V30 9605 C 896.305 -0.260662 -3.11913 0
M  V30 9606 C 896.78 -0.618127 -4.5381 0
M  V30 9607 N 898.271 -0.570026 -4.59679 0
M  V30 9608 C 899.006 -0.8193 -5.67517 0
M  V30 9609 N 898.502 -1.13367 -6.83462 0
M  V30 9610 N 900.295 -0.747482 -5.57108 0
M  V30 9611 H 892.446 -1.24167 -1.72326 0
M  V30 9612 H 894.709 -0.502259 -0.804015 0
M  V30 9613 H 894.415 -1.33509 -3.25374 0
M  V30 9614 H 894.289 0.341369 -3.75652 0
M  V30 9615 H 896.676 0.751869 -2.85361 0
M  V30 9616 H 896.757 -0.949706 -2.37517 0
M  V30 9617 H 896.401 -1.62839 -4.81088 0
M  V30 9618 H 896.331 0.092807 -5.26518 0
M  V30 9619 H 898.822 -0.3373 -3.76392 0
M  V30 9620 H 899.135 -1.3103 -7.61611 0
M  V30 9621 H 897.48 -1.17154 -6.85055 0
M  V30 9622 H 900.671 -0.501658 -4.65404 0
M  V30 9623 H 900.844 -0.945128 -6.4107 0
M  V30 9624 N 894.251 1.57596 -0.0117121 0
M  V30 9625 C 895.528 1.82323 0.708356 0
M  V30 9626 C 895.908 0.891947 1.91331 0
M  V30 9627 O 895.256 -0.0565984 2.2843 0
M  V30 9628 C 895.466 3.31111 1.10303 0
M  V30 9629 C 896.814 3.97147 1.50199 0
M  V30 9630 O 897.838 3.35503 1.1965 0
M  V30 9631 O 896.697 5.0576 2.07049 0
M  V30 9632 H 893.791 0.751173 0.345931 0
M  V30 9633 H 896.337 1.69657 -0.0380632 0
M  V30 9634 H 895.109 3.90534 0.24467 0
M  V30 9635 H 894.732 3.48818 1.90818 0
M  V30 9636 N 895.729 -0.261212 1.5542 0
M  V30 9637 C 896.677 -1.34298 1.89913 0
M  V30 9638 C 897.671 -1.50547 0.776665 0
M  V30 9639 O 898.877 -1.52191 0.961139 0
M  V30 9640 H 895.252 -0.4494 0.602946 0
M  V30 9641 H 897.223 -1.02464 2.80256 0
M  V30 9642 C 895.972 -2.69423 2.19788 0
M  V30 9643 H 895.295 -2.57715 3.05652 0
M  V30 9644 H 896.735 -3.44026 2.47835 0
M  V30 9645 C 895.194 -3.21423 1.00939 0
M  V30 9646 O 895.724 -4.00921 0.250034 0
M  V30 9647 N 893.93 -2.7926 0.803883 0
M  V30 9648 H 893.477 -2.14724 1.42308 0
M  V30 9649 H 893.435 -3.14398 0.0103257 0
M  V30 9650 N 897.207 -1.48554 -0.526253 0
M  V30 9651 C 898.14 -1.57928 -1.64724 0
M  V30 9652 C 899.118 -0.429536 -1.56824 0
M  V30 9653 O 900.302 -0.641651 -1.77243 0
M  V30 9654 C 897.429 -1.51075 -3.0314 0
M  V30 9655 C 896.475 -2.70937 -3.29386 0
M  V30 9656 S 897.308 -4.3287 -3.15251 0
M  V30 9657 C 898.464 -4.28622 -4.56108 0
M  V30 9658 H 898.697 -2.52761 -1.56523 0
M  V30 9659 H 896.23 -1.37133 -0.7095 0
M  V30 9660 H 898.188 -1.47808 -3.82966 0
M  V30 9661 H 896.849 -0.57574 -3.08778 0
M  V30 9662 H 896.042 -2.62291 -4.30371 0
M  V30 9663 H 895.644 -2.71486 -2.57238 0
M  V30 9664 H 897.936 -3.98784 -5.47702 0
M  V30 9665 H 898.879 -5.29798 -4.69808 0
M  V30 9666 H 899.287 -3.59038 -4.35605 0
M  V30 9667 N 898.685 0.775411 -1.37205 0
M  V30 9668 C 899.931 1.53611 -1.32407 0
M  V30 9669 C 900.264 1.9398 0.0924103 0
M  V30 9670 O 899.539 1.63791 1.04893 0
M  V30 9671 C 899.822 2.80367 -2.25979 0
M  V30 9672 C 899.675 2.46275 -3.76389 0
M  V30 9673 C 900.994 3.82277 -2.18064 0
M  V30 9674 H 898.113 0.557278 -0.482297 0
M  V30 9675 H 900.755 0.889826 -1.67875 0
M  V30 9676 H 898.905 3.35515 -1.95862 0
M  V30 9677 H 900.577 1.9707 -4.17087 0
M  V30 9678 H 898.82 1.79023 -3.95137 0
M  V30 9679 H 899.491 3.36868 -4.37291 0
M  V30 9680 H 901.967 3.36613 -2.44604 0
M  V30 9681 H 900.843 4.68696 -2.85684 0
M  V30 9682 H 901.104 4.26272 -1.17239 0
M  V30 9683 N 900.163 1.21714 1.00117 0
M  V30 9684 C 901.093 1.00397 2.10815 0
M  V30 9685 C 902.074 -0.0723502 1.69946 0
M  V30 9686 O 903.259 0.0882398 1.93999 0
M  V30 9687 C 900.389 0.572001 3.42557 0
M  V30 9688 C 899.343 1.59331 3.97237 0
M  V30 9689 C 898.669 1.01746 5.2493 0
M  V30 9690 C 899.969 2.98117 4.28863 0
M  V30 9691 H 901.663 1.92983 2.28906 0
M  V30 9692 H 899.209 0.929273 1.10002 0
M  V30 9693 H 901.162 0.410018 4.19401 0
M  V30 9694 H 899.886 -0.38951 3.24269 0
M  V30 9695 H 898.545 1.74293 3.22518 0
M  V30 9696 H 898.193 0.0475491 5.02978 0
M  V30 9697 H 897.893 1.69969 5.62481 0
M  V30 9698 H 899.417 0.866881 6.04415 0
M  V30 9699 H 900.831 2.86578 4.96534 0
M  V30 9700 H 899.228 3.63389 4.77565 0
M  V30 9701 H 900.298 3.48674 3.36979 0
M  V30 9702 N 901.641 -1.19671 1.02551 0
M  V30 9703 C 902.604 -2.20987 0.608055 0
M  V30 9704 C 903.604 -1.5745 -0.326534 0
M  V30 9705 O 904.794 -1.73827 -0.114003 0
M  V30 9706 C 901.926 -3.4072 -0.11074 0
M  V30 9707 H 903.119 -2.59434 1.50446 0
M  V30 9708 H 900.672 -1.3329 0.816307 0
M  V30 9709 H 901.407 -3.07787 -1.02165 0
M  V30 9710 H 901.192 -3.88069 0.560772 0
M  V30 9711 H 902.682 -4.15776 -0.389848 0
M  V30 9712 N 903.119 -0.802921 -1.35613 0
M  V30 9713 C 904.368 -0.378087 -1.98125 0
M  V30 9714 C 904.681 1.05953 -1.64418 0
M  V30 9715 O 905.887 1.58729 -2.20266 0
M  V30 9716 C 904.343 -0.625077 -3.5443 0
M  V30 9717 C 903.951 -2.07499 -3.97049 0
M  V30 9718 C 905.695 -0.265419 -4.23669 0
M  V30 9719 C 903.602 -2.26793 -5.46186 0
M  V30 9720 H 902.532 -0.137633 -0.741332 0
M  V30 9721 H 905.183 -0.986461 -1.54729 0
M  V30 9722 H 903.565 0.0531975 -3.95964 0
M  V30 9723 H 904.739 -2.79077 -3.66678 0
M  V30 9724 H 903.054 -2.39417 -3.40688 0
M  V30 9725 H 905.651 -0.387669 -5.33293 0
M  V30 9726 H 905.994 0.787994 -4.08774 0
M  V30 9727 H 906.527 -0.897464 -3.87544 0
M  V30 9728 H 903.266 -3.30566 -5.66045 0
M  V30 9729 H 902.786 -1.59735 -5.78139 0
M  V30 9730 H 904.465 -2.08165 -6.12598 0
M  V30 9731 N 904.597 1.47463 -0.556102 0
M  V30 9732 C 905.527 2.32801 0.180497 0
M  V30 9733 C 906.508 1.43721 0.909848 0
M  V30 9734 O 907.693 1.72578 0.89053 0
M  V30 9735 C 904.823 3.25478 1.21167 0
M  V30 9736 C 903.777 4.2379 0.598846 0
M  V30 9737 C 903.103 5.05783 1.73457 0
M  V30 9738 C 904.403 5.20387 -0.446659 0
M  V30 9739 H 906.097 2.94636 -0.531956 0
M  V30 9740 H 903.643 1.41683 -0.257267 0
M  V30 9741 H 905.596 3.8402 1.73513 0
M  V30 9742 H 904.32 2.61695 1.95405 0
M  V30 9743 H 902.979 3.66472 0.0966897 0
M  V30 9744 H 902.627 4.38405 2.46596 0
M  V30 9745 H 902.327 5.72343 1.33031 0
M  V30 9746 H 903.851 5.67183 2.26131 0
M  V30 9747 H 905.265 5.73299 -0.00930019 0
M  V30 9748 H 903.662 5.95143 -0.769735 0
M  V30 9749 H 904.732 4.65932 -1.34295 0
M  V30 9750 N 906.075 0.2925 1.54862 0
M  V30 9751 C 907.323 -0.318633 1.99572 0
M  V30 9752 C 907.644 -1.55062 1.1824 0
M  V30 9753 O 906.914 -1.93943 0.276226 0
M  V30 9754 H 905.494 -0.120722 0.737181 0
M  V30 9755 H 908.156 0.401862 1.90712 0
M  V30 9756 H 907.252 -0.596542 3.06346 0
M  V30 9757 N 907.553 -1.57587 0.0200696 0
M  V30 9758 C 908.5 -2.09667 -0.964791 0
M  V30 9759 C 909.47 -0.99664 -1.32877 0
M  V30 9760 O 910.655 -1.2703 -1.42366 0
M  V30 9761 C 907.795 -2.62101 -2.24493 0
M  V30 9762 C 906.908 -3.8608 -1.93821 0
M  V30 9763 C 906.043 -4.26939 -3.16064 0
M  V30 9764 C 905.082 -5.43701 -2.81169 0
M  V30 9765 N 904.219 -5.79759 -3.9601 0
M  V30 9766 H 909.059 -2.93538 -0.513751 0
M  V30 9767 H 906.596 -1.45096 -0.242 0
M  V30 9768 H 908.554 -2.90587 -2.99358 0
M  V30 9769 H 907.184 -1.81074 -2.6723 0
M  V30 9770 H 906.236 -3.64378 -1.09237 0
M  V30 9771 H 907.548 -4.71028 -1.64115 0
M  V30 9772 H 906.702 -4.56814 -3.99257 0
M  V30 9773 H 905.441 -3.40739 -3.48924 0
M  V30 9774 H 904.446 -5.13529 -1.96387 0
M  V30 9775 H 905.671 -6.31593 -2.49535 0
M  V30 9776 H 903.617 -4.96516 -4.28729 0
M  V30 9777 H 903.534 -6.59327 -3.69896 0
M  V30 9778 H 904.802 -6.14235 -4.79933 0
M  V30 9779 N 909.032 0.252966 -1.55557 0
M  V30 9780 C 910.28 0.979912 -1.76754 0
M  V30 9781 C 910.601 1.86083 -0.582944 0
M  V30 9782 O 909.871 1.91742 0.401497 0
M  V30 9783 H 908.451 0.364805 -0.651864 0
M  V30 9784 H 911.113 0.272372 -1.92987 0
M  V30 9785 H 910.209 1.60518 -2.67657 0
M  V30 9786 N 910.51 1.48831 0.518367 0
M  V30 9787 C 911.787 1.47933 1.27966 0
M  V30 9788 C 912.167 0.197393 2.10175 0
M  V30 9789 O 911.515 -0.820656 2.13255 0
M  V30 9790 C 911.725 2.74816 2.15121 0
M  V30 9791 C 913.073 3.23613 2.74881 0
M  V30 9792 O 914.097 2.75814 2.254 0
M  V30 9793 O 912.956 4.06818 3.64913 0
M  V30 9794 H 910.05 0.591316 0.578164 0
M  V30 9795 H 912.596 1.61077 0.534065 0
M  V30 9796 H 911.368 3.59621 1.54234 0
M  V30 9797 H 910.991 2.64449 2.96905 0
M  V30 9798 N 911.988 -0.768124 1.37614 0
M  V30 9799 C 912.918 -1.89537 1.36374 0
M  V30 9800 C 913.899 -1.68513 0.231803 0
M  V30 9801 O 915.084 -1.89318 0.432705 0
M  V30 9802 C 912.214 -3.26871 1.17358 0
M  V30 9803 C 911.168 -3.62466 2.27602 0
M  V30 9804 C 910.494 -4.9838 1.93705 0
M  V30 9805 C 911.794 -3.68841 3.69802 0
M  V30 9806 H 913.488 -1.90832 2.30702 0
M  V30 9807 H 911.034 -0.91672 1.11051 0
M  V30 9808 H 912.987 -4.05371 1.15119 0
M  V30 9809 H 911.711 -3.26018 0.194865 0
M  V30 9810 H 910.37 -2.86276 2.29002 0
M  V30 9811 H 910.018 -4.94071 0.943539 0
M  V30 9812 H 909.718 -5.23165 2.6753 0
M  V30 9813 H 911.242 -5.79276 1.93059 0
M  V30 9814 H 912.656 -4.37485 3.70513 0
M  V30 9815 H 911.053 -4.05126 4.42711 0
M  V30 9816 H 912.123 -2.69415 4.03167 0
M  V30 9817 N 913.466 -1.22244 -0.994698 0
M  V30 9818 C 914.715 -1.04005 -1.72817 0
M  V30 9819 C 915.028 0.425413 -1.90918 0
M  V30 9820 O 916.234 0.727429 -2.61574 0
M  V30 9821 C 914.69 -1.81244 -3.10932 0
M  V30 9822 C 914.298 -3.32028 -3.00768 0
M  V30 9823 C 916.042 -1.71448 -3.88337 0
M  V30 9824 C 913.949 -4.01716 -4.34026 0
M  V30 9825 H 912.879 -0.385559 -0.647966 0
M  V30 9826 H 915.53 -1.46077 -1.11058 0
M  V30 9827 H 913.912 -1.3197 -3.73363 0
M  V30 9828 H 915.086 -3.88682 -2.47513 0
M  V30 9829 H 913.401 -3.4248 -2.36846 0
M  V30 9830 H 915.998 -2.20836 -4.86965 0
M  V30 9831 H 916.341 -0.674568 -4.10798 0
M  V30 9832 H 916.874 -2.18256 -3.3258 0
M  V30 9833 H 913.613 -5.05952 -4.16765 0
M  V30 9834 H 913.133 -3.49849 -4.87202 0
M  V30 9835 H 914.812 -4.0721 -5.02782 0
M  V30 9836 N 914.944 1.19125 -1.03184 0
M  V30 9837 C 916.192 1.8851 -0.728587 0
M  V30 9838 C 916.513 1.80195 0.74531 0
M  V30 9839 O 915.783 1.21437 1.5372 0
M  V30 9840 H 914.363 0.69784 -0.266511 0
M  V30 9841 H 917.025 1.44607 -1.3067 0
M  V30 9842 H 916.121 2.9477 -1.02554 0
M  V30 9843 N 916.422 0.810101 1.35185 0
M  V30 9844 C 917.385 0.22852 2.28058 0
M  V30 9845 C 918.385 -0.586168 1.49735 0
M  V30 9846 O 919.575 -0.40414 1.69447 0
M  V30 9847 C 916.707 -0.681041 3.34028 0
M  V30 9848 H 917.9 1.04768 2.81005 0
M  V30 9849 H 915.453 0.58101 1.451 0
M  V30 9850 H 916.188 -1.52375 2.86273 0
M  V30 9851 H 915.973 -0.0985276 3.91976 0
M  V30 9852 H 917.463 -1.08217 4.03335 0
M  V30 9853 N 917.9 -1.47166 0.563914 0
M  V30 9854 C 919.177 -1.95586 -0.0236172 0
M  V30 9855 C 919.557 -1.50655 -1.47872 0
M  V30 9856 O 918.905 -0.748479 -2.15894 0
M  V30 9857 C 919.115 -3.48762 0.128841 0
M  V30 9858 C 920.463 -4.24598 -0.0130544 0
M  V30 9859 O 921.487 -3.56155 0.0567242 0
M  V30 9860 O 920.346 -5.46253 -0.164332 0
M  V30 9861 H 917.44 -0.824793 -0.0603789 0
M  V30 9862 H 919.986 -1.57536 0.63091 0
M  V30 9863 H 918.758 -3.74291 1.14113 0
M  V30 9864 H 918.381 -3.93594 -0.56299 0
M  V30 9865 N 919.378 -0.300708 -1.54705 0
M  V30 9866 C 920.627 0.309428 -1.99312 0
M  V30 9867 C 920.94 1.55027 -1.19272 0
M  V30 9868 O 922.146 2.23498 -1.54146 0
M  V30 9869 C 920.602 0.601856 -3.54832 0
M  V30 9870 C 920.21 -0.620636 -4.4368 0
M  V30 9871 C 921.954 1.1732 -4.07966 0
M  V30 9872 C 919.861 -0.301376 -5.90632 0
M  V30 9873 H 918.791 0.119395 -0.744487 0
M  V30 9874 H 921.442 -0.409368 -1.78875 0
M  V30 9875 H 919.824 1.38024 -3.71168 0
M  V30 9876 H 920.998 -1.39685 -4.39118 0
M  V30 9877 H 919.313 -1.1106 -4.01316 0
M  V30 9878 H 921.91 1.42631 -5.15326 0
M  V30 9879 H 922.253 2.11537 -3.5855 0
M  V30 9880 H 922.786 0.456534 -3.95172 0
M  V30 9881 H 919.525 -1.21209 -6.44196 0
M  V30 9882 H 919.045 0.437574 -5.98202 0
M  V30 9883 H 920.724 0.097164 -6.46927 0
M  V30 9884 N 920.856 1.57574 -0.0284266 0
M  V30 9885 C 922.267 1.79585 0.510502 0
M  V30 9886 C 922.618 0.938625 1.72291 0
M  V30 9887 O 921.743 0.14884 2.15888 0
M  V30 9888 C 922.338 3.25703 0.932912 0
M  V30 9889 C 920.897 3.48711 1.41696 0
M  V30 9890 C 920.044 2.74665 0.381356 0
M  V30 9891 H 922.995 1.56647 -0.254464 0
M  V30 9892 H 923.016 3.35376 1.79731 0
M  V30 9893 H 922.528 3.88067 0.0503036 0
M  V30 9894 H 920.629 2.91597 2.31952 0
M  V30 9895 H 920.742 4.57423 1.42481 0
M  V30 9896 H 919.106 2.40123 0.8493 0
M  V30 9897 H 919.889 3.39745 -0.492775 0
M  V30 9898 N 922.334 -0.244713 1.55689 0
M  V30 9899 C 923.244 -1.32447 1.93636 0
M  V30 9900 C 924.26 -1.52541 0.837086 0
M  V30 9901 O 925.436 -1.66121 1.13867 0
M  V30 9902 C 922.501 -2.65864 2.22525 0
M  V30 9903 C 921.562 -2.54273 3.45896 0
M  V30 9904 C 920.795 -3.81327 3.73397 0
M  V30 9905 O 921.018 -4.83307 3.02936 0
M  V30 9906 O 919.952 -3.79829 4.66919 0
M  V30 9907 H 923.778 -1.03255 2.85608 0
M  V30 9908 H 921.363 -0.445652 1.42598 0
M  V30 9909 H 923.245 -3.447 2.42404 0
M  V30 9910 H 921.92 -2.94784 1.33731 0
M  V30 9911 H 920.827 -1.73715 3.31321 0
M  V30 9912 H 922.16 -2.30297 4.34999 0
M  V30 9913 N 923.813 -1.49104 -0.510467 0
M  V30 9914 C 925.224 -1.51423 -1.09215 0
M  V30 9915 C 925.575 -0.295035 -1.93969 0
M  V30 9916 O 924.7 0.596064 -2.08029 0
M  V30 9917 C 925.295 -2.74387 -1.98739 0
M  V30 9918 C 923.854 -2.79515 -2.52088 0
M  V30 9919 C 923.001 -2.4521 -1.29488 0
M  V30 9920 H 925.952 -1.55938 -0.294807 0
M  V30 9921 H 925.973 -2.54012 -2.83298 0
M  V30 9922 H 925.485 -3.63105 -1.37026 0
M  V30 9923 H 923.586 -1.95054 -3.17466 0
M  V30 9924 H 923.699 -3.81447 -2.89887 0
M  V30 9925 H 922.063 -1.96785 -1.61703 0
M  V30 9926 H 922.846 -3.36192 -0.694978 0
M  V30 9927 N 925.291 0.760815 -1.38019 0
M  V30 9928 C 926.539 1.51673 -1.33566 0
M  V30 9929 C 926.86 1.94852 0.076024 0
M  V30 9930 O 926.13 1.67112 1.02227 0
M  V30 9931 H 924.71 0.562581 -0.491438 0
M  V30 9932 H 927.372 0.904832 -1.72623 0
M  V30 9933 H 926.468 2.41102 -1.98182 0
M  V30 9934 N 926.769 1.22769 0.988202 0
M  V30 9935 C 927.701 0.959757 2.08138 0
M  V30 9936 C 928.714 -0.0633787 1.62677 0
M  V30 9937 O 929.903 0.171203 1.77677 0
M  V30 9938 C 927.003 0.422724 3.36253 0
M  V30 9939 C 926.176 1.50419 4.10722 0
M  V30 9940 C 925.235 0.973407 5.17118 0
M  V30 9941 O 924.261 1.66066 5.44436 0
M  V30 9942 N 925.463 -0.202787 5.80146 0
M  V30 9943 H 928.228 1.9009 2.31702 0
M  V30 9944 H 925.789 1.13522 1.15431 0
M  V30 9945 H 927.781 0.0528514 4.04665 0
M  V30 9946 H 926.351 -0.423642 3.09716 0
M  V30 9947 H 925.571 2.04718 3.36874 0
M  V30 9948 H 926.859 2.23169 4.57245 0
M  V30 9949 H 926.257 -0.777856 5.60327 0
M  V30 9950 H 924.814 -0.513998 6.4977 0
M  V30 9951 N 928.247 -1.18576 1.03814 0
M  V30 9952 C 929.157 -2.25778 0.637311 0
M  V30 9953 C 930.173 -1.7074 -0.335248 0
M  V30 9954 O 931.349 -2.00494 -0.19081 0
M  V30 9955 C 928.414 -3.467 0.00386953 0
M  V30 9956 C 927.475 -4.16881 1.02511 0
M  V30 9957 C 926.708 -5.32031 0.421802 0
M  V30 9958 O 926.931 -5.65142 -0.772699 0
M  V30 9959 O 925.865 -5.90826 1.14925 0
M  V30 9960 H 929.691 -2.62323 1.53037 0
M  V30 9961 H 927.276 -1.25609 0.80887 0
M  V30 9962 H 929.158 -4.19953 -0.348873 0
M  V30 9963 H 927.833 -3.11983 -0.863047 0
M  V30 9964 H 926.74 -3.45707 1.4296 0
M  V30 9965 H 928.073 -4.55592 1.86271 0
M  V30 9966 N 929.725 -0.817259 -1.34754 0
M  V30 9967 C 931.136 -0.462215 -1.80888 0
M  V30 9968 C 931.487 1.01685 -1.67794 0
M  V30 9969 O 930.612 1.79094 -1.21468 0
M  V30 9970 C 931.207 -0.832204 -3.2842 0
M  V30 9971 C 929.766 -0.52961 -3.72655 0
M  V30 9972 C 928.913 -1.05214 -2.56564 0
M  V30 9973 H 931.864 -1.00795 -1.22581 0
M  V30 9974 H 931.885 -0.133804 -3.80265 0
M  V30 9975 H 931.397 -1.90873 -3.37919 0
M  V30 9976 H 929.498 0.537743 -3.68699 0
M  V30 9977 H 929.611 -1.06971 -4.67005 0
M  V30 9978 H 927.975 -0.473949 -2.50251 0
M  V30 9979 H 928.758 -2.135 -2.68836 0
M  V30 9980 N 931.203 1.46865 -0.571711 0
M  V30 9981 C 932.451 2.0203 -0.0530022 0
M  V30 9982 C 932.772 1.44687 1.30731 0
M  V30 9983 O 932.042 0.627429 1.85581 0
M  V30 9984 H 930.622 0.746815 -0.0166035 0
M  V30 9985 H 933.284 1.80099 -0.745003 0
M  V30 9986 H 932.38 3.12091 0.0242538 0
M  V30 9987 N 932.681 0.308908 1.54543 0
M  V30 9988 C 933.611 -0.556657 2.26768 0
M  V30 9989 C 934.592 -1.13145 1.27013 0
M  V30 9990 O 935.777 -1.15931 1.558 0
M  V30 9991 C 932.907 -1.72481 3.01443 0
M  V30 9992 C 931.861 -1.28001 4.08411 0
M  V30 9993 C 931.187 -2.53395 4.70845 0
M  V30 9994 C 932.487 -0.405497 5.20724 0
M  V30 9995 H 934.181 0.0457618 2.99365 0
M  V30 9996 H 931.727 0.0234495 1.43981 0
M  V30 9997 H 933.68 -2.3365 3.50693 0
M  V30 9998 H 932.404 -2.35359 2.26437 0
M  V30 9999 H 931.063 -0.69133 3.60022 0
M  V30 10000 H 930.711 -3.14604 3.92471 0
M  V30 10001 H 930.411 -2.2433 5.43093 0
M  V30 10002 H 931.935 -3.15352 5.22863 0
M  V30 10003 H 933.349 -0.923076 5.6582 0
M  V30 10004 H 931.746 -0.208282 5.99738 0
M  V30 10005 H 932.816 0.567412 4.81569 0
M  V30 10006 N 934.159 -1.57557 0.0367827 0
M  V30 10007 C 935.407 -1.91735 -0.63892 0
M  V30 10008 C 935.728 -0.914515 -1.72226 0
M  V30 10009 O 934.998 0.0428248 -1.95853 0
M  V30 10010 H 933.578 -0.707738 -0.23899 0
M  V30 10011 H 936.24 -1.94708 0.0863931 0
M  V30 10012 H 935.336 -2.92568 -1.08676 0
M  V30 10013 N 935.637 0.236453 -1.55816 0
M  V30 10014 C 936.6 1.27633 -1.90375 0
M  V30 10015 C 937.6 1.40557 -0.781048 0
M  V30 10016 O 938.79 1.39078 -1.04895 0
M  V30 10017 C 935.922 2.65247 -2.14142 0
M  V30 10018 H 937.115 0.982019 -2.83366 0
M  V30 10019 H 934.668 0.476215 -1.48869 0
M  V30 10020 H 935.403 2.99801 -1.23653 0
M  V30 10021 H 935.188 2.57246 -2.95917 0
M  V30 10022 H 936.678 3.40313 -2.42026 0
M  V30 10023 N 937.115 1.49373 0.502552 0
M  V30 10024 C 938.392 1.49282 1.26389 0
M  V30 10025 C 938.772 0.219674 2.09954 0
M  V30 10026 O 938.12 -0.797991 2.14113 0
M  V30 10027 C 938.33 2.77083 2.12194 0
M  V30 10028 C 939.678 3.26511 2.71433 0
M  V30 10029 O 940.702 2.78189 2.22462 0
M  V30 10030 O 939.561 4.10665 3.60578 0
M  V30 10031 H 936.655 0.597415 0.57186 0
M  V30 10032 H 939.201 1.61634 0.516951 0
M  V30 10033 H 937.973 3.61237 1.50411 0
M  V30 10034 H 937.596 2.67583 2.94084 0
M  V30 10035 N 938.594 -0.753485 1.38421 0
M  V30 10036 C 940.005 -1.33081 1.30944 0
M  V30 10037 C 940.356 -1.96169 -0.0347124 0
M  V30 10038 O 939.481 -1.95073 -0.936768 0
M  V30 10039 C 940.076 -2.41973 2.37138 0
M  V30 10040 C 938.635 -2.95426 2.33239 0
M  V30 10041 C 937.782 -1.68808 2.19998 0
M  V30 10042 H 940.733 -0.552354 1.48777 0
M  V30 10043 H 940.754 -3.21913 2.02859 0
M  V30 10044 H 940.266 -1.96027 3.34956 0
M  V30 10045 H 938.367 -3.45701 1.39003 0
M  V30 10046 H 938.48 -3.49798 3.27381 0
M  V30 10047 H 936.844 -1.92438 1.66852 0
M  V30 10048 H 937.627 -1.24939 3.19758 0
M  V30 10049 N 940.072 -1.23292 -0.981677 0
M  V30 10050 C 941.02 -1.0104 -2.09508 0
M  V30 10051 C 942.014 0.0501977 -1.69326 0
M  V30 10052 O 943.22 -0.103197 -1.79704 0
M  V30 10053 H 939.595 -0.309629 -0.685298 0
M  V30 10054 H 941.566 -1.95493 -2.25444 0
M  V30 10055 C 940.315 -0.616885 -3.42184 0
M  V30 10056 H 939.638 -1.4247 -3.73554 0
M  V30 10057 H 941.078 -0.500688 -4.21033 0
M  V30 10058 C 939.537 0.674721 -3.30074 0
M  V30 10059 O 940.067 1.72421 -3.62814 0
M  V30 10060 N 938.273 0.650151 -2.83234 0
M  V30 10061 H 937.82 -0.204225 -2.56789 0
M  V30 10062 H 937.778 1.51458 -2.75514 0
M  V30 10063 N 941.55 1.18024 -1.04442 0
M  V30 10064 C 942.797 1.88098 -0.750022 0
M  V30 10065 C 943.125 1.80583 0.722489 0
M  V30 10066 O 942.38 1.20329 1.54335 0
M  V30 10067 C 942.679 3.37834 -1.16631 0
M  V30 10068 C 942.345 3.65553 -2.63974 0
M  V30 10069 C 941.007 3.72827 -3.04226 0
M  V30 10070 C 943.359 3.77634 -3.59224 0
M  V30 10071 C 940.687 3.89666 -4.38608 0
M  V30 10072 C 943.039 3.9599 -4.9333 0
M  V30 10073 C 941.703 4.01501 -5.33248 0
M  V30 10074 H 940.973 0.6883 -0.274452 0
M  V30 10075 H 943.62 1.39671 -1.31012 0
M  V30 10076 H 941.925 3.88266 -0.525071 0
M  V30 10077 H 943.622 3.90402 -0.915827 0
M  V30 10078 H 940.212 3.6051 -2.31798 0
M  V30 10079 H 944.396 3.71342 -3.2927 0
M  V30 10080 H 939.652 3.92178 -4.69048 0
M  V30 10081 H 943.826 4.0428 -5.67037 0
M  V30 10082 H 941.453 4.14301 -6.37384 0
M  V30 10083 N 943.028 0.824394 1.34319 0
M  V30 10084 C 944.274 0.413779 1.98534 0
M  V30 10085 C 944.607 -1.02089 1.65201 0
M  V30 10086 O 943.882 -1.71129 0.924402 0
M  V30 10087 C 944.165 0.61801 3.54757 0
M  V30 10088 C 944.018 2.0989 3.97827 0
M  V30 10089 C 945.337 0.0549041 4.40066 0
M  V30 10090 H 942.456 0.151815 0.721194 0
M  V30 10091 H 945.098 1.03723 1.5919 0
M  V30 10092 H 943.248 0.0873107 3.88402 0
M  V30 10093 H 944.92 2.69335 3.74508 0
M  V30 10094 H 943.163 2.58881 3.48085 0
M  V30 10095 H 943.834 2.1926 5.06586 0
M  V30 10096 H 946.31 0.508348 4.12983 0
M  V30 10097 H 945.186 0.227595 5.48428 0
M  V30 10098 H 945.447 -1.04025 4.29687 0
M  V30 10099 N 944.506 -1.46559 0.579492 0
M  V30 10100 C 945.436 -2.33059 -0.143437 0
M  V30 10101 C 946.417 -1.4515 -0.886868 0
M  V30 10102 O 947.602 -1.73973 -0.862961 0
M  V30 10103 C 944.732 -3.27364 -1.15973 0
M  V30 10104 C 943.686 -4.24689 -0.531348 0
M  V30 10105 C 943.012 -5.08479 -1.65388 0
M  V30 10106 C 944.312 -5.1961 0.529391 0
M  V30 10107 H 946.006 -2.93753 0.578762 0
M  V30 10108 H 943.552 -1.41256 0.279775 0
M  V30 10109 H 945.505 -3.86732 -1.67382 0
M  V30 10110 H 944.229 -2.64771 -1.91217 0
M  V30 10111 H 942.888 -3.6658 -0.0383749 0
M  V30 10112 H 942.536 -4.42273 -2.3959 0
M  V30 10113 H 942.236 -5.74387 -1.23909 0
M  V30 10114 H 943.76 -5.70709 -2.17079 0
M  V30 10115 H 945.174 -5.73212 0.100506 0
M  V30 10116 H 943.571 -5.93843 0.86432 0
M  V30 10117 H 944.641 -4.63737 1.4169 0
M  V30 10118 N 945.984 -0.3171 -1.54377 0
M  V30 10119 C 946.931 0.551782 -2.24107 0
M  V30 10120 C 947.901 1.11681 -1.22949 0
M  V30 10121 O 949.086 1.15836 -1.51614 0
M  V30 10122 C 946.226 1.70997 -2.99756 0
M  V30 10123 C 945.339 1.17479 -4.15719 0
M  V30 10124 C 944.474 2.29815 -4.78914 0
M  V30 10125 C 943.513 1.73513 -5.86992 0
M  V30 10126 N 942.65 2.79485 -6.44075 0
M  V30 10127 H 947.49 -0.049431 -2.97959 0
M  V30 10128 H 945.027 -0.0361658 -1.47056 0
M  V30 10129 H 946.985 2.39141 -3.41859 0
M  V30 10130 H 945.615 2.28257 -2.28251 0
M  V30 10131 H 944.667 0.385109 -3.78446 0
M  V30 10132 H 945.979 0.72276 -4.93536 0
M  V30 10133 H 945.133 3.05875 -5.23952 0
M  V30 10134 H 943.872 2.78352 -4.00464 0
M  V30 10135 H 942.877 0.959475 -5.41363 0
M  V30 10136 H 944.102 1.2586 -6.67335 0
M  V30 10137 H 942.048 3.27325 -5.68502 0
M  V30 10138 H 941.965 2.38825 -7.17286 0
M  V30 10139 H 943.233 3.55394 -6.93769 0
M  V30 10140 N 947.462 1.57535 -0.0451378 0
M  V30 10141 C 948.69 1.96761 0.639742 0
M  V30 10142 C 949.105 0.922405 1.64734 0
M  V30 10143 O 948.462 -0.0940535 1.82257 0
M  V30 10144 C 948.513 3.36066 1.33199 0
M  V30 10145 O 948.234 4.36579 0.364757 0
M  V30 10146 C 949.735 3.90015 2.1072 0
M  V30 10147 H 946.955 0.64769 0.175324 0
M  V30 10148 H 949.499 2.04206 -0.109651 0
M  V30 10149 H 947.654 3.2979 2.03266 0
M  V30 10150 H 948.068 5.17432 0.858168 0
M  V30 10151 H 949.542 4.89785 2.54586 0
M  V30 10152 H 950.019 3.25117 2.95288 0
M  V30 10153 H 950.625 3.99609 1.45577 0
M  V30 10154 N 948.94 -0.228186 1.55939 0
M  V30 10155 C 950.165 -0.974795 1.83064 0
M  V30 10156 C 950.59 -1.77426 0.624624 0
M  V30 10157 O 949.948 -1.76211 -0.426556 0
M  V30 10158 C 949.996 -1.87342 3.08116 0
M  V30 10159 O 949.1 -2.96784 2.86344 0
M  V30 10160 H 948.441 -0.276379 0.603747 0
M  V30 10161 H 950.971 -0.243507 2.03146 0
M  V30 10162 H 950.981 -2.28451 3.38045 0
M  V30 10163 H 949.656 -1.28575 3.95526 0
M  V30 10164 H 948.233 -2.59669 2.67631 0
M  V30 10165 N 950.418 -1.49637 -0.494624 0
M  V30 10166 C 951.381 -1.66252 -1.57775 0
M  V30 10167 C 952.381 -0.534054 -1.51672 0
M  V30 10168 O 953.571 -0.800637 -1.54711 0
M  V30 10169 C 950.703 -1.66584 -2.97426 0
M  V30 10170 H 951.896 -2.62864 -1.4437 0
M  V30 10171 H 949.449 -1.38764 -0.719323 0
M  V30 10172 H 950.184 -0.715798 -3.16302 0
M  V30 10173 H 949.969 -2.48543 -3.03264 0
M  V30 10174 H 951.459 -1.81474 -3.76108 0
M  V30 10175 N 951.896 0.746133 -1.38819 0
M  V30 10176 C 953.173 1.49652 -1.25951 0
M  V30 10177 C 953.553 2.10663 0.135833 0
M  V30 10178 O 952.901 1.97682 1.14604 0
M  V30 10179 C 953.111 2.5569 -2.37537 0
M  V30 10180 C 954.459 3.22385 -2.76321 0
M  V30 10181 O 955.483 2.65998 -2.36904 0
M  V30 10182 O 954.342 4.2439 -3.44319 0
M  V30 10183 H 951.436 0.664019 -0.492958 0
M  V30 10184 H 953.982 0.780908 -1.50665 0
M  V30 10185 H 952.754 2.08908 -3.30867 0
M  V30 10186 H 952.377 3.34823 -2.14427 0
M  V30 10187 N 953.375 1.23811 0.975125 0
M  V30 10188 C 954.621 1.07495 1.71967 0
M  V30 10189 C 954.954 -0.386451 1.90316 0
M  V30 10190 O 954.229 -1.28591 1.45927 0
M  V30 10191 C 954.512 1.80694 3.11483 0
M  V30 10192 C 954.365 3.3454 3.00671 0
M  V30 10193 C 955.684 1.57367 4.11003 0
M  V30 10194 H 952.803 0.3919 0.624166 0
M  V30 10195 H 955.445 1.52383 1.13487 0
M  V30 10196 H 953.595 1.42538 3.61407 0
M  V30 10197 H 955.267 3.8225 2.5823 0
M  V30 10198 H 953.51 3.63301 2.37054 0
M  V30 10199 H 954.181 3.80951 3.99475 0
M  V30 10200 H 956.657 1.90545 3.69908 0
M  V30 10201 H 955.533 2.11052 5.06703 0
M  V30 10202 H 955.794 0.510221 4.39146 0
M  V30 10203 N 954.853 -1.17469 1.05066 0
M  V30 10204 C 955.8 -2.21443 0.650512 0
M  V30 10205 C 956.77 -1.62441 -0.346702 0
M  V30 10206 O 957.955 -1.89305 -0.238404 0
M  V30 10207 C 955.095 -3.45087 0.0301014 0
M  V30 10208 C 954.208 -4.18385 1.07599 0
M  V30 10209 C 953.343 -5.29513 0.423038 0
M  V30 10210 C 952.382 -5.94596 1.45333 0
M  V30 10211 N 951.519 -6.97241 0.824623 0
M  V30 10212 H 956.359 -2.55025 1.54163 0
M  V30 10213 H 953.896 -1.25274 0.771032 0
M  V30 10214 H 955.854 -4.15754 -0.347032 0
M  V30 10215 H 954.484 -3.12093 -0.824481 0
M  V30 10216 H 953.536 -3.46446 1.57097 0
M  V30 10217 H 954.848 -4.62899 1.85813 0
M  V30 10218 H 954.002 -6.067 -0.00774975 0
M  V30 10219 H 952.741 -4.86129 -0.391092 0
M  V30 10220 H 951.746 -5.16142 1.89415 0
M  V30 10221 H 952.971 -6.40061 2.26934 0
M  V30 10222 H 950.917 -6.55993 0.0309804 0
M  V30 10223 H 950.834 -7.40059 1.54432 0
M  V30 10224 H 952.102 -7.78375 0.418567 0
M  V30 10225 N 956.331 -0.831506 -1.3388 0
M  V30 10226 C 957.294 -0.264773 -2.27666 0
M  V30 10227 C 958.294 0.562273 -1.50649 0
M  V30 10228 O 959.484 0.377131 -1.70069 0
M  V30 10229 C 956.616 0.627814 -3.35069 0
M  V30 10230 H 957.809 -1.09225 -2.79303 0
M  V30 10231 H 955.362 -0.604021 -1.44157 0
M  V30 10232 H 956.097 1.47802 -2.88661 0
M  V30 10233 H 955.882 0.0361552 -3.92083 0
M  V30 10234 H 957.372 1.01786 -4.05005 0
M  V30 10235 N 957.809 1.4625 -0.587256 0
M  V30 10236 C 958.739 2.33132 0.131076 0
M  V30 10237 C 959.72 1.45619 0.879158 0
M  V30 10238 O 960.905 1.74428 0.853723 0
M  V30 10239 C 958.035 3.27975 1.14236 0
M  V30 10240 C 956.989 4.24965 0.508819 0
M  V30 10241 C 956.315 5.09349 1.62689 0
M  V30 10242 C 957.615 5.19322 -0.55694 0
M  V30 10243 H 959.309 2.93442 -0.594333 0
M  V30 10244 H 956.855 1.41106 -0.287263 0
M  V30 10245 H 958.808 3.87614 1.65328 0
M  V30 10246 H 957.532 2.65781 1.8981 0
M  V30 10247 H 956.191 3.66595 0.0189337 0
M  V30 10248 H 955.839 4.43537 2.37242 0
M  V30 10249 H 955.539 5.75036 1.20861 0
M  V30 10250 H 957.063 5.71852 2.14049 0
M  V30 10251 H 958.477 5.73151 -0.130903 0
M  V30 10252 H 956.874 5.93376 -0.895801 0
M  V30 10253 H 957.944 4.62979 -1.44148 0
M  V30 10254 N 959.287 0.325282 1.54207 0
M  V30 10255 C 960.515 -0.27869 2.05014 0
M  V30 10256 C 960.93 -1.45649 1.20133 0
M  V30 10257 O 960.287 -1.81014 0.232398 0
M  V30 10258 C 960.338 -0.711486 3.54429 0
M  V30 10259 O 960.059 0.419458 4.36087 0
M  V30 10260 C 961.56 -1.37809 4.21336 0
M  V30 10261 H 958.78 -0.0570388 0.668571 0
M  V30 10262 H 961.324 0.47197 1.98979 0
M  V30 10263 H 959.479 -1.41212 3.60746 0
M  V30 10264 H 959.893 0.0781037 5.24442 0
M  V30 10265 H 961.367 -1.63184 5.27328 0
M  V30 10266 H 961.844 -2.32593 3.72555 0
M  V30 10267 H 962.45 -0.719987 4.19161 0
M  V30 10268 N 960.765 -1.57509 0.0534917 0
M  V30 10269 C 961.995 -1.96812 -0.628386 0
M  V30 10270 C 962.403 -0.929808 -1.64776 0
M  V30 10271 O 961.746 0.0941155 -1.83459 0
M  V30 10272 C 961.808 -3.32361 -1.37027 0
M  V30 10273 C 961.472 -4.54185 -0.506465 0
M  V30 10274 C 962.469 -5.19398 0.228412 0
M  V30 10275 C 960.154 -5.00398 -0.43671 0
M  V30 10276 C 962.148 -6.29162 1.02146 0
M  V30 10277 C 959.835 -6.10039 0.360022 0
M  V30 10278 C 960.833 -6.74282 1.08779 0
M  V30 10279 O 960.521 -7.81814 1.87142 0
M  V30 10280 H 960.253 -0.65257 -0.176432 0
M  V30 10281 H 962.807 -2.05067 0.116908 0
M  V30 10282 H 961.037 -3.20667 -2.16125 0
M  V30 10283 H 962.726 -3.56395 -1.94261 0
M  V30 10284 H 963.492 -4.84651 0.184003 0
M  V30 10285 H 959.371 -4.50183 -0.992772 0
M  V30 10286 H 962.915 -6.79238 1.59002 0
M  V30 10287 H 958.812 -6.44222 0.406061 0
M  V30 10288 H 959.58 -7.98602 1.79378 0
M  V30 10289 N 962.243 0.219913 -1.56058 0
M  V30 10290 C 963.483 0.951113 -1.80923 0
M  V30 10291 C 963.847 1.81465 -0.627247 0
M  V30 10292 O 965.048 2.57972 -0.755237 0
M  V30 10293 C 963.319 1.76652 -3.10691 0
M  V30 10294 S 964.878 2.55314 -3.56876 0
M  V30 10295 H 961.696 0.319461 -0.635189 0
M  V30 10296 H 964.298 0.216551 -1.94297 0
M  V30 10297 H 963.002 1.12231 -3.94756 0
M  V30 10298 H 962.533 2.54335 -3.00128 0
M  V30 10299 H 964.548 3.78938 -3.20344 0
M  V30 10300 N 963.721 1.49897 0.486681 0
M  V30 10301 C 964.969 1.59789 1.23742 0
M  V30 10302 C 965.29 0.293056 1.92785 0
M  V30 10303 O 964.56 -0.688534 1.83401 0
M  V30 10304 H 963.14 0.588775 0.459731 0
M  V30 10305 H 965.802 1.86597 0.562808 0
M  V30 10306 H 964.898 2.40121 1.9937 0
M  V30 10307 N 965.199 -0.738761 1.39212 0
M  V30 10308 C 966.129 -1.86602 1.40364 0
M  V30 10309 C 967.11 -1.67984 0.267495 0
M  V30 10310 O 968.295 -1.88358 0.472765 0
M  V30 10311 C 965.425 -3.24308 1.24265 0
M  V30 10312 C 964.379 -3.57557 2.35239 0
M  V30 10313 C 963.705 -4.94159 2.04233 0
M  V30 10314 C 965.005 -3.60914 3.77543 0
M  V30 10315 H 966.699 -1.85896 2.34698 0
M  V30 10316 H 964.245 -0.892959 1.1297 0
M  V30 10317 H 966.198 -4.02838 1.23692 0
M  V30 10318 H 964.922 -3.25531 0.263974 0
M  V30 10319 H 963.581 -2.81354 2.35022 0
M  V30 10320 H 963.229 -4.91959 1.04813 0
M  V30 10321 H 962.929 -5.17373 2.78567 0
M  V30 10322 H 964.453 -5.7505 2.05303 0
M  V30 10323 H 965.867 -4.29528 3.79709 0
M  V30 10324 H 964.264 -3.95644 4.51205 0
M  V30 10325 H 965.334 -2.60803 4.08791 0
M  V30 10326 N 966.677 -1.24326 -0.968545 0
M  V30 10327 C 967.609 -0.992749 -2.06584 0
M  V30 10328 C 968.622 0.0374902 -1.62757 0
M  V30 10329 O 969.811 -0.199448 -1.77382 0
M  V30 10330 C 966.911 -0.476165 -3.35538 0
M  V30 10331 C 966.084 -1.56934 -4.08277 0
M  V30 10332 C 965.143 -1.05555 -5.15504 0
M  V30 10333 O 964.169 -1.74707 -5.41725 0
M  V30 10334 N 965.371 0.110465 -5.80395 0
M  V30 10335 H 968.136 -1.93752 -2.28649 0
M  V30 10336 H 965.697 -1.15344 -1.13611 0
M  V30 10337 H 967.689 -0.117223 -4.0453 0
M  V30 10338 H 966.259 0.374315 -3.10351 0
M  V30 10339 H 965.479 -2.10051 -3.33575 0
M  V30 10340 H 966.767 -2.30415 -4.53637 0
M  V30 10341 H 966.165 0.688614 -5.61493 0
M  V30 10342 H 964.722 0.41056 -6.50506 0
M  V30 10343 N 968.156 1.1691 -1.05688 0
M  V30 10344 C 969.088 2.20648 -0.620237 0
M  V30 10345 C 970.101 1.59652 0.318604 0
M  V30 10346 O 971.29 1.78157 0.110553 0
M  V30 10347 C 968.39 3.38716 0.111729 0
M  V30 10348 C 967.563 4.29277 -0.839062 0
M  V30 10349 C 966.622 5.25993 -0.147453 0
M  V30 10350 O 965.648 5.63787 -0.783151 0
M  V30 10351 N 966.85 5.69725 1.11327 0
M  V30 10352 H 969.615 2.58731 -1.51256 0
M  V30 10353 H 967.176 1.31858 -0.939412 0
M  V30 10354 H 969.168 4.00455 0.584657 0
M  V30 10355 H 967.738 2.99189 0.905784 0
M  V30 10356 H 966.958 3.64894 -1.4915 0
M  V30 10357 H 968.246 4.86669 -1.48428 0
M  V30 10358 H 967.644 5.41103 1.64999 0
M  V30 10359 H 966.201 6.33584 1.53018 0
M  V30 10360 N 969.634 0.838594 1.33437 0
M  V30 10361 C 970.564 0.286672 2.31734 0
M  V30 10362 C 971.545 -0.605451 1.5896 0
M  V30 10363 O 972.73 -0.529059 1.86854 0
M  V30 10364 C 969.86 -0.539311 3.43087 0
M  V30 10365 C 968.814 0.256997 4.27228 0
M  V30 10366 C 968.14 -0.692718 5.30194 0
M  V30 10367 C 969.44 1.47391 5.01072 0
M  V30 10368 H 971.134 1.10798 2.78144 0
M  V30 10369 H 968.68 0.534235 1.33723 0
M  V30 10370 H 970.633 -0.935724 4.1088 0
M  V30 10371 H 969.357 -1.39383 2.95364 0
M  V30 10372 H 968.016 0.634967 3.61059 0
M  V30 10373 H 967.664 -1.54363 4.78729 0
M  V30 10374 H 967.364 -0.164023 5.87371 0
M  V30 10375 H 968.888 -1.08665 6.00853 0
M  V30 10376 H 970.302 1.15067 5.61634 0
M  V30 10377 H 968.699 1.93937 5.67898 0
M  V30 10378 H 969.769 2.24382 4.29861 0
M  V30 10379 N 971.112 -1.45937 0.595003 0
M  V30 10380 C 972.337 -2.07207 0.0894416 0
M  V30 10381 C 972.762 -1.43884 -1.21157 0
M  V30 10382 O 972.12 -0.526998 -1.73472 0
M  V30 10383 C 972.168 -3.60565 -0.0499828 0
M  V30 10384 O 971.272 -3.97364 -1.10342 0
M  V30 10385 H 970.613 -0.660471 0.0683627 0
M  V30 10386 H 973.143 -1.87386 0.82144 0
M  V30 10387 H 973.153 -4.0722 -0.252234 0
M  V30 10388 H 971.828 -4.06044 0.90006 0
M  V30 10389 H 970.405 -3.62401 -0.878645 0
M  V30 10390 N 972.59 -0.333456 -1.54032 0
M  V30 10391 C 973.815 0.270517 -2.05628 0
M  V30 10392 C 974.24 1.44231 -1.20744 0
M  V30 10393 O 973.598 1.79975 -0.218822 0
M  V30 10394 C 973.646 0.673251 -3.54259 0
M  V30 10395 O 972.75 1.77448 -3.72271 0
M  V30 10396 H 972.091 0.0469753 -0.662336 0
M  V30 10397 H 974.621 -0.484739 -1.98775 0
M  V30 10398 H 974.631 0.953194 -3.96709 0
M  V30 10399 H 973.306 -0.183747 -4.15494 0
M  V30 10400 H 971.883 1.49259 -3.41725 0
M  V30 10401 N 974.068 1.57479 -0.061844 0
M  V30 10402 C 975.484 1.56855 0.294753 0
M  V30 10403 C 975.684 1.07042 1.70717 0
M  V30 10404 O 974.74 0.731817 2.41662 0
M  V30 10405 C 976.053 3.00486 0.113484 0
M  V30 10406 C 977.601 3.1246 0.183778 0
M  V30 10407 C 978.076 4.5799 0.0309092 0
M  V30 10408 N 979.567 4.63119 0.0868393 0
M  V30 10409 C 980.302 5.734 -0.00717446 0
M  V30 10410 N 979.798 6.92628 -0.154144 0
M  V30 10411 N 981.591 5.62078 0.0491763 0
M  V30 10412 H 973.742 1.88176 -0.985058 0
M  V30 10413 H 976.005 0.867051 -0.383309 0
M  V30 10414 H 975.711 3.41004 -0.86075 0
M  V30 10415 H 975.585 3.67029 0.870023 0
M  V30 10416 H 977.972 2.71834 1.14849 0
M  V30 10417 H 978.053 2.48574 -0.603697 0
M  V30 10418 H 977.697 4.99303 -0.930526 0
M  V30 10419 H 977.627 5.19895 0.837664 0
M  V30 10420 H 980.118 3.77374 0.199245 0
M  V30 10421 H 980.431 7.72492 -0.218296 0
M  V30 10422 H 978.776 6.94742 -0.189372 0
M  V30 10423 H 981.967 4.67817 0.162626 0
M  V30 10424 H 982.14 6.47994 -0.0275478 0
M  V30 10425 N 975.546 -0.211634 1.56173 0
M  V30 10426 C 976.794 -0.932704 1.7929 0
M  V30 10427 C 977.115 -1.84472 0.632076 0
M  V30 10428 O 976.385 -1.92739 -0.350519 0
M  V30 10429 H 974.965 -0.347393 0.661307 0
M  V30 10430 H 977.627 -0.22111 1.93642 0
M  V30 10431 H 976.723 -1.53365 2.71819 0
M  V30 10432 N 977.024 -1.50153 -0.478725 0
M  V30 10433 C 977.954 -1.71384 -1.58587 0
M  V30 10434 C 978.935 -0.562705 -1.60523 0
M  V30 10435 O 980.12 -0.80101 -1.76911 0
M  V30 10436 C 977.25 -1.80094 -2.96957 0
M  V30 10437 C 976.204 -2.95218 -3.09888 0
M  V30 10438 C 975.53 -2.89063 -4.49829 0
M  V30 10439 C 976.83 -4.35841 -2.8782 0
M  V30 10440 H 978.524 -2.64081 -1.41073 0
M  V30 10441 H 976.07 -1.27081 -0.677239 0
M  V30 10442 H 978.023 -1.93531 -3.74331 0
M  V30 10443 H 976.747 -0.840131 -3.1561 0
M  V30 10444 H 975.406 -2.81419 -2.34944 0
M  V30 10445 H 975.054 -1.90844 -4.6539 0
M  V30 10446 H 974.754 -3.66345 -4.59418 0
M  V30 10447 H 976.278 -3.04539 -5.29234 0
M  V30 10448 H 977.692 -4.50205 -3.54948 0
M  V30 10449 H 976.089 -5.14515 -3.0886 0
M  V30 10450 H 977.159 -4.48739 -1.83742 0
M  V30 10451 N 978.502 0.731368 -1.39602 0
M  V30 10452 C 979.465 1.8271 -1.38383 0
M  V30 10453 C 980.465 1.58338 -0.280309 0
M  V30 10454 O 981.655 1.65671 -0.538402 0
M  V30 10455 C 978.787 3.20556 -1.16002 0
M  V30 10456 H 979.98 1.85193 -2.35889 0
M  V30 10457 H 977.533 0.935396 -1.2522 0
M  V30 10458 H 978.268 3.23732 -0.191927 0
M  V30 10459 H 978.053 3.39643 -1.9592 0
M  V30 10460 H 979.543 4.00612 -1.17899 0
M  V30 10461 N 979.98 1.24838 0.961938 0
M  V30 10462 C 980.89 1.06304 2.09133 0
M  V30 10463 C 981.906 0.00221475 1.74 0
M  V30 10464 O 983.082 0.201611 2.00388 0
M  V30 10465 C 980.147 0.676117 3.40043 0
M  V30 10466 C 979.208 1.81407 3.89089 0
M  V30 10467 C 978.441 1.44551 5.13752 0
M  V30 10468 O 978.664 0.337894 5.69398 0
M  V30 10469 O 977.598 2.27316 5.57325 0
M  V30 10470 H 981.424 2.01001 2.27667 0
M  V30 10471 H 979.009 1.0371 1.07539 0
M  V30 10472 H 980.891 0.472124 4.18747 0
M  V30 10473 H 979.566 -0.241667 3.22797 0
M  V30 10474 H 978.473 2.07286 3.11421 0
M  V30 10475 H 979.806 2.71083 4.10822 0
M  V30 10476 N 981.458 -1.16348 1.06306 0
M  V30 10477 C 982.704 -1.87158 0.781007 0
M  V30 10478 C 983.037 -1.81499 -0.690784 0
M  V30 10479 O 982.312 -1.23074 -1.50609 0
M  V30 10480 C 982.595 -3.3672 1.27639 0
M  V30 10481 C 982.448 -3.51069 2.81194 0
M  V30 10482 C 983.767 -4.31122 0.884388 0
M  V30 10483 H 980.886 -0.679586 0.285187 0
M  V30 10484 H 983.528 -1.36756 1.31901 0
M  V30 10485 H 981.678 -3.79775 0.818715 0
M  V30 10486 H 983.35 -3.16952 3.35171 0
M  V30 10487 H 981.593 -2.92976 3.19918 0
M  V30 10488 H 982.264 -4.56105 3.10921 0
M  V30 10489 H 984.74 -3.95969 1.27858 0
M  V30 10490 H 983.616 -5.34279 1.25847 0
M  V30 10491 H 983.877 -4.41598 -0.210673 0
M  V30 10492 N 982.937 -0.845659 -1.3299 0
M  V30 10493 C 983.867 -0.298957 -2.31578 0
M  V30 10494 C 984.848 0.597012 -1.59279 0
M  V30 10495 O 986.033 0.519142 -1.87132 0
M  V30 10496 C 983.163 0.521109 -3.43368 0
M  V30 10497 C 982.117 -0.279651 -4.27085 0
M  V30 10498 C 981.443 0.664591 -5.30554 0
M  V30 10499 C 982.743 -1.50046 -5.00283 0
M  V30 10500 H 984.437 -1.12272 -2.77552 0
M  V30 10501 H 981.983 -0.54132 -1.33438 0
M  V30 10502 H 983.936 0.913921 -4.1137 0
M  V30 10503 H 982.66 1.37815 -2.96099 0
M  V30 10504 H 981.319 -0.654106 -3.60717 0
M  V30 10505 H 980.967 1.51822 -4.79541 0
M  V30 10506 H 980.667 0.132871 -5.8745 0
M  V30 10507 H 982.191 1.05477 -6.01421 0
M  V30 10508 H 983.605 -1.18044 -5.61016 0
M  V30 10509 H 982.002 -1.96946 -5.66862 0
M  V30 10510 H 983.072 -2.26659 -4.28665 0
M  V30 10511 N 984.415 1.45619 -0.602734 0
M  V30 10512 C 985.831 1.57368 -0.26599 0
M  V30 10513 C 986.031 1.59485 1.23154 0
M  V30 10514 O 985.087 1.52254 2.01432 0
M  V30 10515 C 986.4 2.85863 -0.932881 0
M  V30 10516 C 987.948 2.9953 -0.908344 0
M  V30 10517 C 988.423 4.30789 -1.55515 0
M  V30 10518 N 989.914 4.37536 -1.52042 0
M  V30 10519 C 990.649 5.37758 -1.99008 0
M  V30 10520 N 990.145 6.44544 -2.54038 0
M  V30 10521 N 991.938 5.29085 -1.89805 0
M  V30 10522 H 984.089 1.42489 -1.57514 0
M  V30 10523 H 986.352 0.680948 -0.659556 0
M  V30 10524 H 986.058 2.90183 -1.98713 0
M  V30 10525 H 985.932 3.74467 -0.453209 0
M  V30 10526 H 988.319 2.9478 0.137344 0
M  V30 10527 H 988.4 2.12349 -1.42623 0
M  V30 10528 H 988.044 4.36297 -2.60014 0
M  V30 10529 H 987.974 5.16778 -1.01232 0
M  V30 10530 H 990.465 3.60972 -1.11837 0
M  V30 10531 H 990.778 7.17258 -2.87682 0
M  V30 10532 H 989.123 6.45308 -2.58075 0
M  V30 10533 H 992.314 4.44566 -1.46556 0
M  V30 10534 H 992.487 6.07043 -2.26722 0
M  V30 10535 N 985.893 0.34162 1.53853 0
M  V30 10536 C 986.823 -0.508431 2.27897 0
M  V30 10537 C 987.804 -1.10425 1.29384 0
M  V30 10538 O 988.989 -1.126 1.58224 0
M  V30 10539 C 986.119 -1.66048 3.05034 0
M  V30 10540 C 985.073 -1.19309 4.11035 0
M  V30 10541 C 984.399 -2.4335 4.76114 0
M  V30 10542 C 985.699 -0.294952 5.21467 0
M  V30 10543 H 987.393 0.109251 2.99201 0
M  V30 10544 H 984.939 0.0539847 1.43899 0
M  V30 10545 H 986.892 -2.26158 3.5557 0
M  V30 10546 H 985.616 -2.30503 2.31379 0
M  V30 10547 H 984.275 -0.614809 3.61408 0
M  V30 10548 H 983.923 -3.06208 3.99056 0
M  V30 10549 H 983.623 -2.1276 5.47729 0
M  V30 10550 H 985.147 -3.0419 5.29434 0
M  V30 10551 H 986.561 -0.80285 5.67651 0
M  V30 10552 H 984.958 -0.0810221 6.00045 0
M  V30 10553 H 986.028 0.669433 4.80257 0
M  V30 10554 N 987.371 -1.57444 0.0701946 0
M  V30 10555 C 988.601 -1.97467 -0.607476 0
M  V30 10556 C 989.009 -0.947232 -1.63781 0
M  V30 10557 O 988.352 0.074652 -1.83548 0
M  V30 10558 C 988.414 -3.33795 -1.33495 0
M  V30 10559 C 988.078 -4.54697 -0.458265 0
M  V30 10560 C 989.075 -5.19127 0.283488 0
M  V30 10561 C 986.76 -5.00833 -0.383612 0
M  V30 10562 C 988.754 -6.28043 1.08813 0
M  V30 10563 C 986.441 -6.09622 0.424705 0
M  V30 10564 C 987.439 -6.7309 1.15925 0
M  V30 10565 O 987.127 -7.79785 1.95423 0
M  V30 10566 H 986.859 -0.654405 -0.169501 0
M  V30 10567 H 989.413 -2.04931 0.138651 0
M  V30 10568 H 987.643 -3.22941 -2.12711 0
M  V30 10569 H 989.332 -3.58435 -1.9047 0
M  V30 10570 H 990.098 -4.84428 0.235397 0
M  V30 10571 H 985.977 -4.51211 -0.944968 0
M  V30 10572 H 989.521 -6.77513 1.66197 0
M  V30 10573 H 985.418 -6.43755 0.474366 0
M  V30 10574 H 986.186 -7.96655 1.87838 0
M  V30 10575 N 988.849 0.203349 -1.56283 0
M  V30 10576 C 990.26 0.768764 -1.70138 0
M  V30 10577 C 990.611 1.8421 -0.675358 0
M  V30 10578 O 989.736 2.15732 0.1699 0
M  V30 10579 C 990.331 1.40123 -3.08466 0
M  V30 10580 C 988.89 1.91382 -3.24114 0
M  V30 10581 C 988.037 0.780685 -2.66084 0
M  V30 10582 H 990.988 -0.0215997 -1.58685 0
M  V30 10583 H 991.009 2.27046 -3.05336 0
M  V30 10584 H 990.521 0.619805 -3.83119 0
M  V30 10585 H 988.622 2.7227 -2.54362 0
M  V30 10586 H 988.735 2.08128 -4.31531 0
M  V30 10587 H 987.099 1.19281 -2.25042 0
M  V30 10588 H 987.882 0.0116351 -3.43298 0
M  V30 10589 N 990.327 1.50405 0.470755 0
M  V30 10590 C 991.237 1.7208 1.59454 0
M  V30 10591 C 992.253 0.603932 1.63183 0
M  V30 10592 O 993.429 0.882296 1.81046 0
M  V30 10593 C 990.494 1.81057 2.95667 0
M  V30 10594 C 989.555 3.04792 3.02324 0
M  V30 10595 C 988.788 3.13332 4.3204 0
M  V30 10596 O 989.011 2.28655 5.22564 0
M  V30 10597 O 987.945 4.0606 4.44296 0
M  V30 10598 H 991.771 2.67343 1.44089 0
M  V30 10599 H 989.356 1.34505 0.650286 0
M  V30 10600 H 991.238 1.8914 3.76569 0
M  V30 10601 H 989.913 0.889782 3.11231 0
M  V30 10602 H 988.82 3.0221 2.205 0
M  V30 10603 H 990.153 3.96451 2.91698 0
M  V30 10604 N 991.805 -0.723954 1.39988 0
M  V30 10605 C 993.035 -1.51094 1.40905 0
M  V30 10606 C 993.443 -1.89199 0.00476744 0
M  V30 10607 O 992.786 -1.55398 -0.979646 0
M  V30 10608 C 992.848 -2.82114 2.22827 0
M  V30 10609 C 992.512 -2.66379 3.71337 0
M  V30 10610 C 993.509 -2.34192 4.64166 0
M  V30 10611 C 991.194 -2.82905 4.15054 0
M  V30 10612 C 993.188 -2.18729 5.98696 0
M  V30 10613 C 990.875 -2.67059 5.49657 0
M  V30 10614 C 991.873 -2.35018 6.41292 0
M  V30 10615 O 991.561 -2.19284 7.73414 0
M  V30 10616 H 991.293 -0.473142 0.482818 0
M  V30 10617 H 993.847 -0.901321 1.84568 0
M  V30 10618 H 992.077 -3.45377 1.7393 0
M  V30 10619 H 993.766 -3.43789 2.15787 0
M  V30 10620 H 994.532 -2.21065 4.31689 0
M  V30 10621 H 990.411 -3.06834 3.44055 0
M  V30 10622 H 993.955 -1.93641 6.70186 0
M  V30 10623 H 989.852 -2.79768 5.81722 0
M  V30 10624 H 990.62 -2.34269 7.84258 0
M  V30 10625 N 993.283 -1.25346 -0.955304 0
M  V30 10626 C 994.531 -1.09837 -1.69647 0
M  V30 10627 C 994.852 0.361425 -1.91621 0
M  V30 10628 O 994.122 1.25666 -1.50283 0
M  V30 10629 H 992.702 -0.403467 -0.628668 0
M  V30 10630 H 995.364 -1.57459 -1.14859 0
M  V30 10631 H 994.46 -1.60616 -2.67598 0
M  V30 10632 N 994.761 1.15782 -1.06922 0
M  V30 10633 C 995.724 2.18578 -0.689654 0
M  V30 10634 C 996.724 1.58553 0.267872 0
M  V30 10635 O 997.914 1.7413 0.0494097 0
M  V30 10636 C 995.046 3.40896 -0.0157919 0
M  V30 10637 H 996.239 2.53672 -1.59971 0
M  V30 10638 H 993.792 1.30168 -0.865214 0
M  V30 10639 H 994.527 3.11367 0.906712 0
M  V30 10640 H 994.312 3.85721 -0.704415 0
M  V30 10641 H 995.802 4.16937 0.235266 0
M  V30 10642 N 996.239 0.8527 1.3254 0
M  V30 10643 C 997.202 0.300959 2.27215 0
M  V30 10644 C 998.202 -0.538235 1.51525 0
M  V30 10645 O 999.392 -0.350027 1.70647 0
M  V30 10646 C 996.524 -0.574428 3.36025 0
M  V30 10647 H 997.717 1.13655 2.77529 0
M  V30 10648 H 995.27 0.626878 1.43178 0
M  V30 10649 H 996.005 -1.43191 2.90976 0
M  V30 10650 H 995.79 0.0262265 3.92091 0
M  V30 10651 H 997.28 -0.9533 4.06573 0
M  V30 10652 N 997.718 -1.45297 0.610449 0
M  V30 10653 C 998.965 -2.02218 0.106759 0
M  V30 10654 C 999.293 -1.47849 -1.26376 0
M  V30 10655 O 998.548 -0.644402 -1.84786 0
M  V30 10656 C 998.847 -3.57394 0.0205329 0
M  V30 10657 C 998.513 -4.30928 1.32709 0
M  V30 10658 C 997.175 -4.50735 1.68498 0
M  V30 10659 C 999.527 -4.72936 2.19046 0
M  V30 10660 C 996.855 -5.09806 2.90371 0
M  V30 10661 C 999.207 -5.33355 3.40169 0
M  V30 10662 C 997.871 -5.51384 3.76207 0
M  V30 10663 H 997.141 -0.739969 0.039066 0
M  V30 10664 H 999.788 -1.74326 0.792638 0
M  V30 10665 H 998.093 -3.84581 -0.748623 0
M  V30 10666 H 999.79 -3.99144 -0.385386 0
M  V30 10667 H 996.38 -4.15827 1.03854 0
M  V30 10668 H 1000.56 -4.57365 1.92695 0
M  V30 10669 H 995.82 -5.21953 3.18395 0
M  V30 10670 H 999.994 -5.64859 4.07318 0
M  V30 10671 H 997.621 -5.96924 4.70729 0
M  V30 10672 N 999.196 -0.349774 -1.5367 0
M  V30 10673 C 1000.61 0.00191293 -1.596 0
M  V30 10674 C 1000.81 1.48175 -1.36552 0
M  V30 10675 O 999.868 2.24129 -1.16285 0
M  V30 10676 C 1001.18 -0.439848 -2.97466 0
M  V30 10677 C 1002.73 -0.392721 -3.10526 0
M  V30 10678 C 1003.2 -0.810047 -4.5078 0
M  V30 10679 N 1004.69 -0.764478 -4.56848 0
M  V30 10680 C 1005.43 -1.05927 -5.63531 0
M  V30 10681 N 1004.93 -1.42253 -6.78038 0
M  V30 10682 N 1006.72 -0.983098 -5.53436 0
M  V30 10683 H 998.87 -1.31364 -1.66905 0
M  V30 10684 H 1001.13 -0.535908 -0.781989 0
M  V30 10685 H 1000.84 -1.47189 -3.19419 0
M  V30 10686 H 1000.71 0.181735 -3.76762 0
M  V30 10687 H 1003.1 0.630161 -2.88293 0
M  V30 10688 H 1003.18 -1.04959 -2.33275 0
M  V30 10689 H 1002.82 -1.83097 -4.73749 0
M  V30 10690 H 1002.75 -0.130591 -5.26438 0
M  V30 10691 H 1005.25 -0.496637 -3.74622 0
M  V30 10692 H 1005.56 -1.63215 -7.55368 0
M  V30 10693 H 1003.9 -1.46104 -6.79469 0
M  V30 10694 H 1007.09 -0.698601 -4.62858 0
M  V30 10695 H 1007.27 -1.21618 -6.36485 0
M  V30 10696 N 1000.67 1.57404 -0.0785433 0
M  V30 10697 C 1001.64 2.11977 0.871693 0
M  V30 10698 C 1002.64 1.04529 1.2219 0
M  V30 10699 O 1003.83 1.30488 1.15406 0
M  V30 10700 C 1000.96 2.6267 2.17296 0
M  V30 10701 H 1002.15 2.97246 0.398115 0
M  V30 10702 H 999.705 1.5537 0.170251 0
M  V30 10703 H 1000.44 1.80873 2.69175 0
M  V30 10704 H 1000.22 3.41214 1.93171 0
M  V30 10705 H 1001.71 3.04943 2.85306 0
M  V30 10706 N 1002.15 -0.195058 1.56388 0
M  V30 10707 C 1003.4 -0.913636 1.8027 0
M  V30 10708 C 1003.72 -1.83791 0.651606 0
M  V30 10709 O 1002.99 -1.931 -0.330057 0
M  V30 10710 H 1001.57 -0.34036 0.664954 0
M  V30 10711 H 1004.23 -0.200559 1.93865 0
M  V30 10712 H 1003.33 -1.50473 2.7343 0
M  V30 10713 N 1003.63 -1.50653 -0.462772 0
M  V30 10714 C 1004.56 -1.73056 -1.5676 0
M  V30 10715 C 1005.54 -0.579699 -1.59917 0
M  V30 10716 O 1006.73 -0.819729 -1.76051 0
M  V30 10717 C 1003.86 -1.83234 -2.9503 0
M  V30 10718 C 1002.81 -2.98488 -3.06739 0
M  V30 10719 C 1002.14 -2.93818 -4.46738 0
M  V30 10720 C 1003.44 -4.38869 -2.83181 0
M  V30 10721 H 1005.13 -2.65562 -1.38265 0
M  V30 10722 H 1002.68 -1.27792 -0.663722 0
M  V30 10723 H 1004.63 -1.97491 -3.72257 0
M  V30 10724 H 1003.35 -0.873558 -3.14701 0
M  V30 10725 H 1002.01 -2.83895 -2.31946 0
M  V30 10726 H 1001.66 -1.95769 -4.63339 0
M  V30 10727 H 1001.36 -3.71197 -4.55507 0
M  V30 10728 H 1002.88 -3.10135 -5.25974 0
M  V30 10729 H 1004.3 -4.53945 -3.50153 0
M  V30 10730 H 1002.69 -5.17762 -3.03386 0
M  V30 10731 H 1003.76 -4.50663 -1.78972 0
M  V30 10732 N 1005.11 0.71652 -1.4037 0
M  V30 10733 C 1006.52 1.29562 -1.34427 0
M  V30 10734 C 1006.87 1.96192 -0.0173106 0
M  V30 10735 O 1006 1.97488 0.884719 0
M  V30 10736 C 1006.59 2.35601 -2.4347 0
M  V30 10737 C 1005.15 2.89138 -2.4099 0
M  V30 10738 C 1004.3 1.62915 -2.24397 0
M  V30 10739 H 1007.25 0.512715 -1.5019 0
M  V30 10740 H 1007.27 3.16422 -2.11323 0
M  V30 10741 H 1006.78 1.87077 -3.40035 0
M  V30 10742 H 1004.88 3.41894 -1.4812 0
M  V30 10743 H 1004.99 3.40995 -3.3654 0
M  V30 10744 H 1003.36 1.87947 -1.71896 0
M  V30 10745 H 1004.14 1.16417 -3.22958 0
M  V30 10746 N 1006.59 1.25851 0.948643 0
M  V30 10747 C 1008 1.02802 1.22081 0
M  V30 10748 C 1008.2 -0.251461 1.99925 0
M  V30 10749 O 1007.26 -0.962592 2.33432 0
M  V30 10750 C 1008.57 2.25489 1.98936 0
M  V30 10751 C 1010.12 2.30312 2.11956 0
M  V30 10752 C 1010.59 3.52671 2.92211 0
M  V30 10753 N 1012.09 3.53103 2.99787 0
M  V30 10754 C 1012.82 4.44445 3.62294 0
M  V30 10755 N 1012.32 5.46065 4.26362 0
M  V30 10756 N 1014.11 4.32113 3.59493 0
M  V30 10757 H 1006.26 2.08042 0.428044 0
M  V30 10758 H 1008.52 0.913928 0.251872 0
M  V30 10759 H 1008.23 3.18513 1.4914 0
M  V30 10760 H 1008.1 2.2914 2.99624 0
M  V30 10761 H 1010.49 1.37808 2.60946 0
M  V30 10762 H 1010.57 2.30676 1.10554 0
M  V30 10763 H 1010.22 4.45501 2.43909 0
M  V30 10764 H 1010.15 3.49554 3.93853 0
M  V30 10765 H 1012.64 2.79597 2.54232 0
M  V30 10766 H 1012.95 6.11964 4.71932 0
M  V30 10767 H 1011.29 5.49931 4.24972 0
M  V30 10768 H 1014.49 3.51946 3.08629 0
M  V30 10769 H 1014.66 5.03493 4.0792 0
M  V30 10770 N 1008.06 -1.15214 1.07534 0
M  V30 10771 C 1009.34 -1.82155 0.71267 0
M  V30 10772 C 1009.72 -1.95163 -0.804655 0
M  V30 10773 O 1009.07 -1.50451 -1.71979 0
M  V30 10774 C 1009.28 -3.18392 1.42925 0
M  V30 10775 C 1010.63 -3.94005 1.58256 0
M  V30 10776 O 1011.65 -3.27952 1.39018 0
M  V30 10777 O 1010.51 -5.12436 1.89925 0
M  V30 10778 H 1007.6 -0.78709 0.253808 0
M  V30 10779 H 1010.15 -1.22309 1.17638 0
M  V30 10780 H 1008.92 -3.04034 2.46331 0
M  V30 10781 H 1008.55 -3.85925 0.956439 0
M  V30 10782 N 1009.54 -0.859717 -1.32086 0
M  V30 10783 C 1010.47 -0.323502 -2.31248 0
M  V30 10784 C 1011.45 0.580085 -1.59903 0
M  V30 10785 O 1012.64 0.499265 -1.87673 0
M  V30 10786 C 1009.77 0.484661 -3.43902 0
M  V30 10787 C 1008.72 -0.324933 -4.26765 0
M  V30 10788 C 1008.05 0.608281 -5.31229 0
M  V30 10789 C 1009.35 -1.55344 -4.98664 0
M  V30 10790 H 1011.04 -1.15209 -2.76346 0
M  V30 10791 H 1008.59 -0.555442 -1.32856 0
M  V30 10792 H 1010.54 0.870238 -4.12316 0
M  V30 10793 H 1009.27 1.34666 -2.97544 0
M  V30 10794 H 1007.92 -0.692328 -3.60003 0
M  V30 10795 H 1007.57 1.46727 -4.81124 0
M  V30 10796 H 1007.27 0.0705571 -5.87558 0
M  V30 10797 H 1008.8 0.990925 -6.02506 0
M  V30 10798 H 1010.21 -1.23987 -5.59732 0
M  V30 10799 H 1008.61 -2.02947 -5.64741 0
M  V30 10800 H 1009.68 -2.31192 -4.26237 0
M  V30 10801 N 1011.02 1.44971 -0.618145 0
M  V30 10802 C 1012.25 2.06527 -0.124165 0
M  V30 10803 C 1012.66 1.46097 1.19588 0
M  V30 10804 O 1012.02 0.57901 1.73071 0
M  V30 10805 C 1012.07 3.61498 0.0106701 0
M  V30 10806 O 1011.79 4.19675 -1.25716 0
M  V30 10807 C 1013.29 4.40061 0.534872 0
M  V30 10808 H 1010.51 0.666941 -0.0736935 0
M  V30 10809 H 1013.06 1.8605 -0.848871 0
M  V30 10810 H 1011.21 3.81282 0.685752 0
M  V30 10811 H 1011.63 5.12972 -1.09362 0
M  V30 10812 H 1013.1 5.48963 0.57827 0
M  V30 10813 H 1013.58 4.10587 1.55931 0
M  V30 10814 H 1014.18 4.25167 -0.10652 0
M  V30 10815 N 1012.5 0.357919 1.53482 0
M  V30 10816 C 1013.75 -0.234163 2.01142 0
M  V30 10817 C 1014.07 -1.49399 1.2454 0
M  V30 10818 O 1013.33 -1.92981 0.325111 0
M  V30 10819 C 1013.63 -0.579617 3.52669 0
M  V30 10820 C 1013.29 0.584988 4.47089 0
M  V30 10821 C 1011.96 0.904558 4.72622 0
M  V30 10822 C 1014.31 1.3656 5.02992 0
M  V30 10823 C 1011.64 2.00685 5.5131 0
M  V30 10824 C 1013.99 2.45824 5.82884 0
M  V30 10825 C 1012.65 2.78325 6.06706 0
M  V30 10826 H 1011.92 -0.0856863 0.736029 0
M  V30 10827 H 1014.57 0.488801 1.85157 0
M  V30 10828 H 1012.87 -1.38349 3.66561 0
M  V30 10829 H 1014.57 -1.04985 3.87013 0
M  V30 10830 H 1011.16 0.32587 4.27359 0
M  V30 10831 H 1015.34 1.13196 4.83219 0
M  V30 10832 H 1010.6 2.26272 5.67988 0
M  V30 10833 H 1014.77 3.06732 6.25211 0
M  V30 10834 H 1012.4 3.63862 6.67464 0
M  V30 10835 N 1013.98 -1.5736 0.0868897 0
M  V30 10836 C 1014.92 -2.14793 -0.892571 0
M  V30 10837 C 1015.92 -1.08866 -1.29787 0
M  V30 10838 O 1017.12 -1.27223 -1.27335 0
M  V30 10839 H 1013.5 -0.686998 -0.305838 0
M  V30 10840 H 1015.47 -2.95927 -0.383393 0
M  V30 10841 C 1014.22 -2.73646 -2.14507 0
M  V30 10842 H 1013.54 -3.54835 -1.84207 0
M  V30 10843 H 1014.98 -3.17409 -2.81118 0
M  V30 10844 C 1013.44 -1.69138 -2.91366 0
M  V30 10845 O 1013.97 -1.12539 -3.85614 0
M  V30 10846 N 1012.18 -1.3982 -2.54752 0
M  V30 10847 H 1011.72 -1.86035 -1.78182 0
M  V30 10848 H 1011.68 -0.701316 -3.06478 0
M  V30 10849 N 1015.45 0.186762 -1.56489 0
M  V30 10850 C 1016.38 1.23395 -1.98232 0
M  V30 10851 C 1017.37 1.4702 -0.855526 0
M  V30 10852 O 1018.55 1.58616 -1.12048 0
M  V30 10853 C 1015.68 2.57635 -2.32898 0
M  V30 10854 C 1014.63 2.48607 -3.48394 0
M  V30 10855 C 1013.96 3.87196 -3.68759 0
M  V30 10856 C 1015.26 2.00398 -4.82325 0
M  V30 10857 H 1016.95 0.887026 -2.85958 0
M  V30 10858 H 1014.5 0.42525 -1.37578 0
M  V30 10859 H 1016.45 3.31082 -2.60696 0
M  V30 10860 H 1015.18 2.94084 -1.42064 0
M  V30 10861 H 1013.84 1.77615 -3.207 0
M  V30 10862 H 1013.48 4.21012 -2.75241 0
M  V30 10863 H 1013.18 3.82029 -4.46462 0
M  V30 10864 H 1014.71 4.62253 -3.98941 0
M  V30 10865 H 1016.12 2.6361 -5.091 0
M  V30 10866 H 1014.52 2.06214 -5.63556 0
M  V30 10867 H 1015.59 0.957562 -4.75351 0
M  V30 10868 N 1016.93 1.50896 0.454776 0
M  V30 10869 C 1018.35 1.38684 0.78987 0
M  V30 10870 C 1018.55 0.455587 1.96282 0
M  V30 10871 O 1017.6 -0.0957503 2.52318 0
M  V30 10872 C 1018.92 2.80381 1.08661 0
M  V30 10873 C 1020.47 2.8941 1.19209 0
M  V30 10874 C 1020.94 4.31976 1.52187 0
M  V30 10875 N 1022.43 4.35002 1.59146 0
M  V30 10876 C 1023.17 5.42326 1.862 0
M  V30 10877 N 1022.66 6.59835 2.11164 0
M  V30 10878 N 1024.46 5.29786 1.87838 0
M  V30 10879 H 1016.61 2.10006 -0.317981 0
M  V30 10880 H 1018.87 0.944636 -0.0797969 0
M  V30 10881 H 1018.58 3.50438 0.297626 0
M  V30 10882 H 1018.45 3.18634 2.01872 0
M  V30 10883 H 1020.84 2.19561 1.97173 0
M  V30 10884 H 1020.92 2.54677 0.239401 0
M  V30 10885 H 1020.56 5.02368 0.747576 0
M  V30 10886 H 1020.49 4.64208 2.48633 0
M  V30 10887 H 1022.98 3.50276 1.41828 0
M  V30 10888 H 1023.3 7.37428 2.31128 0
M  V30 10889 H 1021.64 6.62981 2.08522 0
M  V30 10890 H 1024.83 4.36974 1.67843 0
M  V30 10891 H 1025 6.13511 2.08585 0
M  V30 10892 N 1018.41 -0.709066 1.40748 0
M  V30 10893 C 1019.34 -1.83412 1.37451 0
M  V30 10894 C 1020.36 -1.60394 0.27884 0
M  V30 10895 O 1021.54 -1.70147 0.539642 0
M  V30 10896 C 1018.64 -3.19935 1.1178 0
M  V30 10897 C 1017.82 -3.70095 2.33128 0
M  V30 10898 C 1016.88 -4.85249 2.03518 0
M  V30 10899 O 1015.9 -4.97563 2.76442 0
M  V30 10900 N 1017.1 -5.7152 1.01714 0
M  V30 10901 H 1019.87 -1.86736 2.34414 0
M  V30 10902 H 1017.43 -0.890863 1.35186 0
M  V30 10903 H 1019.42 -3.94578 0.899464 0
M  V30 10904 H 1017.99 -3.11718 0.234624 0
M  V30 10905 H 1017.21 -2.8651 2.70751 0
M  V30 10906 H 1018.5 -4.00344 3.1401 0
M  V30 10907 H 1017.9 -5.64188 0.413307 0
M  V30 10908 H 1016.46 -6.46119 0.858696 0
M  V30 10909 N 1019.89 -1.26353 -0.941956 0
M  V30 10910 C 1021.14 -1.1163 -1.68473 0
M  V30 10911 C 1021.46 0.34108 -1.91994 0
M  V30 10912 O 1020.73 1.24065 -1.51607 0
M  V30 10913 H 1019.31 -0.410113 -0.624353 0
M  V30 10914 H 1021.97 -1.58669 -1.13182 0
M  V30 10915 H 1021.07 -1.63445 -2.6588 0
M  V30 10916 N 1021.37 1.14642 -1.08144 0
M  V30 10917 C 1022.59 1.90025 -0.830972 0
M  V30 10918 C 1023.02 1.77904 0.610879 0
M  V30 10919 O 1022.38 1.11735 1.42776 0
M  V30 10920 C 1022.42 3.38085 -1.25422 0
M  V30 10921 O 1021.53 4.10412 -0.404486 0
M  V30 10922 H 1020.87 0.591327 -0.302041 0
M  V30 10923 H 1023.4 1.4513 -1.44216 0
M  V30 10924 H 1023.41 3.88894 -1.23391 0
M  V30 10925 H 1022.08 3.46226 -2.30435 0
M  V30 10926 H 1020.66 3.69693 -0.487987 0
M  V30 10927 N 1022.85 0.866709 1.31628 0
M  V30 10928 C 1024.12 0.396828 1.91532 0
M  V30 10929 C 1024.5 -1.12081 1.78889 0
M  V30 10930 O 1023.85 -1.94791 1.19452 0
M  V30 10931 C 1024.06 0.874578 3.37864 0
M  V30 10932 C 1025.41 0.8988 4.14978 0
M  V30 10933 O 1026.43 0.820014 3.46633 0
M  V30 10934 O 1025.29 1.01223 5.37044 0
M  V30 10935 H 1022.39 0.1181 0.818524 0
M  V30 10936 H 1024.93 0.954407 1.40318 0
M  V30 10937 H 1023.7 1.91807 3.41066 0
M  V30 10938 H 1023.33 0.295126 3.96503 0
M  V30 10939 N 1024.32 -1.44642 0.625825 0
M  V30 10940 C 1025.55 -2.06458 0.135116 0
M  V30 10941 C 1025.97 -1.46729 -1.18811 0
M  V30 10942 O 1025.32 -0.58818 -1.72762 0
M  V30 10943 C 1025.37 -3.61499 0.00850114 0
M  V30 10944 O 1025.1 -4.19002 1.2794 0
M  V30 10945 C 1026.6 -4.40339 -0.511527 0
M  V30 10946 H 1023.82 -0.666541 0.0772294 0
M  V30 10947 H 1026.36 -1.85597 0.858726 0
M  V30 10948 H 1024.52 -3.81641 -0.665522 0
M  V30 10949 H 1024.93 -5.12385 1.12081 0
M  V30 10950 H 1026.4 -5.49262 -0.549149 0
M  V30 10951 H 1026.88 -4.11409 -1.53752 0
M  V30 10952 H 1027.49 -4.25104 0.129066 0
M  V30 10953 N 1025.8 -0.366053 -1.5329 0
M  V30 10954 C 1027.03 0.226839 -2.06156 0
M  V30 10955 C 1027.45 1.41637 -1.23776 0
M  V30 10956 O 1026.81 1.7947 -0.256948 0
M  V30 10957 C 1026.86 0.597956 -3.55608 0
M  V30 10958 O 1025.96 1.69512 -3.75951 0
M  V30 10959 H 1025.3 0.0329156 -0.663184 0
M  V30 10960 H 1027.83 -0.526793 -1.97702 0
M  V30 10961 H 1027.84 0.868831 -3.98642 0
M  V30 10962 H 1026.52 -0.271838 -4.15011 0
M  V30 10963 H 1025.09 1.41976 -3.44815 0
M  V30 10964 N 1027.28 1.57312 -0.0952337 0
M  V30 10965 C 1028.53 1.93974 0.567319 0
M  V30 10966 C 1028.85 0.977805 1.68713 0
M  V30 10967 O 1028.12 0.0298944 1.95877 0
M  V30 10968 H 1026.7 0.71612 0.212558 0
M  V30 10969 H 1029.36 1.94254 -0.158598 0
M  V30 10970 H 1028.46 2.964 0.977423 0
M  V30 10971 N 1028.76 -0.17846 1.56586 0
M  V30 10972 C 1029.69 -1.22342 1.98884 0
M  V30 10973 C 1030.67 -1.46564 0.86331 0
M  V30 10974 O 1031.85 -1.58019 1.12887 0
M  V30 10975 C 1028.98 -2.56396 2.34261 0
M  V30 10976 C 1027.94 -2.46756 3.49708 0
M  V30 10977 C 1027.26 -3.85235 3.70807 0
M  V30 10978 C 1028.56 -1.97838 4.83381 0
M  V30 10979 H 1030.26 -0.871848 2.86425 0
M  V30 10980 H 1027.8 -0.417948 1.37801 0
M  V30 10981 H 1029.76 -3.29695 2.62448 0
M  V30 10982 H 1028.48 -2.93327 1.43621 0
M  V30 10983 H 1027.14 -1.75912 3.21637 0
M  V30 10984 H 1026.79 -4.19547 2.7747 0
M  V30 10985 H 1026.49 -3.79655 4.48481 0
M  V30 10986 H 1028.01 -4.60131 4.01387 0
M  V30 10987 H 1029.43 -2.60906 5.10491 0
M  V30 10988 H 1027.82 -2.03223 5.64642 0
M  V30 10989 H 1028.89 -0.932339 4.75852 0
M  V30 10990 N 1030.24 -1.51135 -0.446768 0
M  V30 10991 C 1031.46 -1.67411 -1.22427 0
M  V30 10992 C 1031.89 -0.367009 -1.84485 0
M  V30 10993 O 1031.24 0.67185 -1.68392 0
M  V30 10994 C 1031.29 -2.78473 -2.29096 0
M  V30 10995 O 1030.4 -2.41419 -3.34351 0
M  V30 10996 H 1029.74 -0.558512 -0.359111 0
M  V30 10997 H 1032.27 -1.97648 -0.5288 0
M  V30 10998 H 1032.28 -3.02277 -2.7403 0
M  V30 10999 H 1030.95 -3.73326 -1.83304 0
M  V30 11000 H 1029.53 -2.28152 -2.9496 0
M  V30 11001 N 1031.71 0.701592 -1.41122 0
M  V30 11002 C 1033.13 1.01143 -1.23459 0
M  V30 11003 C 1033.33 2.01144 -0.11968 0
M  V30 11004 O 1032.39 2.47132 0.517889 0
M  V30 11005 C 1033.7 1.54179 -2.58165 0
M  V30 11006 C 1035.25 1.66093 -2.65296 0
M  V30 11007 C 1035.72 2.22532 -4.00304 0
M  V30 11008 N 1037.21 2.299 -4.0212 0
M  V30 11009 C 1037.95 2.74584 -5.0338 0
M  V30 11010 N 1037.44 3.18917 -6.15032 0
M  V30 11011 N 1039.24 2.74094 -4.90743 0
M  V30 11012 H 1031.39 0.0390087 -2.12364 0
M  V30 11013 H 1033.65 0.0798848 -0.944628 0
M  V30 11014 H 1033.36 0.881587 -3.40472 0
M  V30 11015 H 1033.23 2.52488 -2.80231 0
M  V30 11016 H 1035.62 2.31227 -1.83352 0
M  V30 11017 H 1035.7 0.663461 -2.47046 0
M  V30 11018 H 1035.34 1.58016 -4.82694 0
M  V30 11019 H 1035.27 3.2302 -4.15891 0
M  V30 11020 H 1037.76 1.98607 -3.21502 0
M  V30 11021 H 1038.08 3.5162 -6.88174 0
M  V30 11022 H 1036.42 3.1684 -6.18577 0
M  V30 11023 H 1039.61 2.38804 -4.02604 0
M  V30 11024 H 1039.79 3.086 -5.69798 0
M  V30 11025 N 1033.19 1.2685 0.935242 0
M  V30 11026 C 1034.44 1.12745 1.68211 0
M  V30 11027 C 1034.77 -0.328128 1.91712 0
M  V30 11028 O 1034.02 -1.25701 1.49993 0
M  V30 11029 C 1034.32 1.8482 3.05903 0
M  V30 11030 C 1033.99 3.347 3.02137 0
M  V30 11031 C 1032.65 3.75583 3.00817 0
M  V30 11032 C 1035 4.30368 2.93995 0
M  V30 11033 C 1032.33 5.10511 2.89129 0
M  V30 11034 C 1034.68 5.65343 2.83848 0
M  V30 11035 C 1033.34 6.0553 2.80874 0
M  V30 11036 H 1032.61 0.412563 0.615527 0
M  V30 11037 H 1035.26 1.57366 1.09124 0
M  V30 11038 H 1033.57 1.32685 3.68649 0
M  V30 11039 H 1035.26 1.71341 3.62551 0
M  V30 11040 H 1031.85 3.02182 3.03947 0
M  V30 11041 H 1036.04 3.9976 2.94118 0
M  V30 11042 H 1031.29 5.40802 2.85208 0
M  V30 11043 H 1035.47 6.39151 2.76512 0
M  V30 11044 H 1033.09 7.10037 2.71573 0
M  V30 11045 N 1034.67 -1.14067 1.0875 0
M  V30 11046 C 1035.9 -1.89582 0.841038 0
M  V30 11047 C 1036.32 -1.78226 -0.601436 0
M  V30 11048 O 1035.68 -1.12491 -1.42181 0
M  V30 11049 C 1035.73 -3.37415 1.27213 0
M  V30 11050 O 1034.83 -4.10191 0.426246 0
M  V30 11051 H 1034.17 -0.589716 0.305173 0
M  V30 11052 H 1036.7 -1.44364 1.44984 0
M  V30 11053 H 1036.71 -3.88234 1.25451 0
M  V30 11054 H 1035.39 -3.44999 2.32268 0
M  V30 11055 H 1033.96 -3.69429 0.507585 0
M  V30 11056 N 1036.15 -0.873678 -1.31166 0
M  V30 11057 C 1037.56 -0.566109 -1.49223 0
M  V30 11058 C 1037.76 0.898889 -1.80339 0
M  V30 11059 O 1036.82 1.68084 -1.88425 0
M  V30 11060 C 1038.13 -1.46952 -2.62346 0
M  V30 11061 C 1039.68 -1.47195 -2.76229 0
M  V30 11062 C 1040.16 -2.36102 -3.92454 0
M  V30 11063 N 1041.65 -2.34003 -3.99746 0
M  V30 11064 C 1042.38 -2.99513 -4.88958 0
M  V30 11065 N 1041.88 -3.74206 -5.83045 0
M  V30 11066 N 1043.67 -2.88802 -4.82234 0
M  V30 11067 H 1035.82 -1.82156 -1.09239 0
M  V30 11068 H 1038.09 -0.779086 -0.54012 0
M  V30 11069 H 1037.79 -2.51213 -2.4614 0
M  V30 11070 H 1037.67 -1.17077 -3.5857 0
M  V30 11071 H 1040.05 -0.436902 -2.91848 0
M  V30 11072 H 1040.13 -1.81095 -1.80661 0
M  V30 11073 H 1039.78 -3.39685 -3.77593 0
M  V30 11074 H 1039.71 -1.99524 -4.87337 0
M  V30 11075 H 1042.2 -1.79713 -3.32433 0
M  V30 11076 H 1042.51 -4.21312 -6.47855 0
M  V30 11077 H 1040.86 -3.78314 -5.83012 0
M  V30 11078 H 1044.05 -2.29984 -4.07707 0
M  V30 11079 H 1044.22 -3.40136 -5.51554 0
M  V30 11080 N 1037.63 1.44308 -0.633487 0
M  V30 11081 C 1038.85 2.06897 -0.144347 0
M  V30 11082 C 1039.28 1.47045 1.173 0
M  V30 11083 O 1038.63 0.572806 1.72013 0
M  V30 11084 C 1038.68 3.60571 -0.0456324 0
M  V30 11085 O 1037.79 4.0015 0.997682 0
M  V30 11086 H 1037.13 0.658427 -0.0858499 0
M  V30 11087 H 1039.66 1.85142 -0.870833 0
M  V30 11088 H 1039.67 4.07745 0.144178 0
M  V30 11089 H 1038.34 4.03515 -1.0074 0
M  V30 11090 H 1036.92 3.64603 0.782252 0
M  V30 11091 N 1039.1 0.374177 1.53094 0
M  V30 11092 C 1040.52 -0.103172 1.86415 0
M  V30 11093 C 1040.87 -1.47439 1.29446 0
M  V30 11094 O 1039.99 -2.07333 0.619853 0
M  V30 11095 C 1040.59 -0.193988 3.38244 0
M  V30 11096 C 1039.15 -0.615605 3.71332 0
M  V30 11097 C 1038.29 0.23186 2.76329 0
M  V30 11098 H 1041.24 0.592644 1.47219 0
M  V30 11099 H 1041.26 -1.01597 3.66686 0
M  V30 11100 H 1040.78 0.80414 3.79678 0
M  V30 11101 H 1038.88 -1.62165 3.3546 0
M  V30 11102 H 1038.99 -0.38425 4.77557 0
M  V30 11103 H 1037.35 -0.300579 2.5292 0
M  V30 11104 H 1038.14 1.22769 3.20597 0
M  V30 11105 N 1040.58 -1.57259 0.103575 0
M  V30 11106 C 1042 -1.57581 -0.253062 0
M  V30 11107 C 1042.2 -1.11531 -1.67819 0
M  V30 11108 O 1041.25 -0.795632 -2.39637 0
M  V30 11109 C 1042.57 -3.00681 -0.0337753 0
M  V30 11110 C 1044.12 -3.12837 -0.10087 0
M  V30 11111 C 1044.59 -4.57911 0.0905295 0
M  V30 11112 N 1046.08 -4.63186 0.0359789 0
M  V30 11113 C 1046.82 -5.73179 0.159199 0
M  V30 11114 N 1046.31 -6.91976 0.337728 0
M  V30 11115 N 1048.11 -5.62011 0.0998662 0
M  V30 11116 H 1040.26 -1.85499 1.0346 0
M  V30 11117 H 1042.52 -0.856584 0.406163 0
M  V30 11118 H 1042.23 -3.38602 0.950858 0
M  V30 11119 H 1042.1 -3.69207 -0.772406 0
M  V30 11120 H 1044.49 -2.74783 -1.07601 0
M  V30 11121 H 1044.57 -2.46886 0.66939 0
M  V30 11122 H 1044.21 -4.9666 1.06258 0
M  V30 11123 H 1044.14 -5.21933 -0.699528 0
M  V30 11124 H 1046.63 -3.7777 -0.099121 0
M  V30 11125 H 1046.95 -7.71641 0.423032 0
M  V30 11126 H 1045.29 -6.93996 0.373504 0
M  V30 11127 H 1048.48 -4.68084 -0.0385356 0
M  V30 11128 H 1048.65 -6.47693 0.199342 0
M  V30 11129 N 1042.06 0.170153 -1.56679 0
M  V30 11130 C 1042.99 1.21285 -1.9953 0
M  V30 11131 C 1043.97 1.46104 -0.871071 0
M  V30 11132 O 1045.16 1.57419 -1.13724 0
M  V30 11133 C 1042.29 2.5515 -2.35618 0
M  V30 11134 C 1041.24 2.44898 -3.51011 0
M  V30 11135 C 1040.57 3.83263 -3.72845 0
M  V30 11136 C 1041.87 1.95271 -4.84424 0
M  V30 11137 H 1043.56 0.856646 -2.86883 0
M  V30 11138 H 1041.11 0.410634 -1.38021 0
M  V30 11139 H 1043.06 3.28299 -2.64193 0
M  V30 11140 H 1041.78 2.92561 -1.45175 0
M  V30 11141 H 1040.44 1.74203 -3.22566 0
M  V30 11142 H 1040.09 4.18069 -2.79691 0
M  V30 11143 H 1039.79 3.77272 -4.50488 0
M  V30 11144 H 1041.31 4.57996 -4.03822 0
M  V30 11145 H 1042.73 2.58195 -5.11867 0
M  V30 11146 H 1041.13 2.00225 -5.65712 0
M  V30 11147 H 1042.2 0.90709 -4.7634 0
M  V30 11148 N 1043.54 1.5137 0.438746 0
M  V30 11149 C 1044.76 1.68058 1.21537 0
M  V30 11150 C 1045.19 0.376787 1.84288 0
M  V30 11151 O 1044.55 -0.662911 1.68746 0
M  V30 11152 C 1044.59 2.79684 2.27616 0
M  V30 11153 O 1043.7 2.43189 3.33066 0
M  V30 11154 H 1043.04 0.560408 0.356144 0
M  V30 11155 H 1045.57 1.97926 0.518311 0
M  V30 11156 H 1045.58 3.03726 2.72423 0
M  V30 11157 H 1044.25 3.74293 1.81321 0
M  V30 11158 H 1042.83 2.29713 2.93746 0
M  V30 11159 N 1045.02 -0.694098 1.41492 0
M  V30 11160 C 1045.95 -1.81943 1.39389 0
M  V30 11161 C 1046.96 -1.6009 0.295836 0
M  V30 11162 O 1048.15 -1.69565 0.557658 0
M  V30 11163 C 1045.25 -3.18731 1.15167 0
M  V30 11164 C 1044.42 -3.67601 2.37041 0
M  V30 11165 C 1043.48 -4.83063 2.08654 0
M  V30 11166 O 1042.51 -4.94603 2.81704 0
M  V30 11167 N 1043.71 -5.70409 1.0777 0
M  V30 11168 H 1046.48 -1.84239 2.36381 0
M  V30 11169 H 1044.04 -0.876475 1.36123 0
M  V30 11170 H 1046.03 -3.93602 0.941264 0
M  V30 11171 H 1044.6 -3.11452 0.267673 0
M  V30 11172 H 1043.82 -2.83622 2.73774 0
M  V30 11173 H 1045.11 -3.96991 3.18239 0
M  V30 11174 H 1044.5 -5.63718 0.473123 0
M  V30 11175 H 1043.06 -6.45172 0.927177 0
M  V30 11176 N 1046.49 -1.27344 -0.928501 0
M  V30 11177 C 1047.91 -1.12361 -1.49103 0
M  V30 11178 C 1048.26 0.291667 -1.9402 0
M  V30 11179 O 1047.38 1.18449 -1.81104 0
M  V30 11180 C 1047.98 -2.03358 -2.70981 0
M  V30 11181 C 1046.54 -1.92483 -3.23461 0
M  V30 11182 C 1045.68 -1.95961 -1.962 0
M  V30 11183 H 1048.63 -1.40249 -0.742689 0
M  V30 11184 H 1048.65 -1.58892 -3.45736 0
M  V30 11185 H 1048.17 -3.06356 -2.38259 0
M  V30 11186 H 1046.27 -0.924676 -3.60944 0
M  V30 11187 H 1046.38 -2.78682 -3.89709 0
M  V30 11188 H 1044.74 -1.40175 -2.12657 0
M  V30 11189 H 1045.53 -3.00612 -1.65793 0
M  V30 11190 N 1047.97 1.13488 -1.09353 0
M  V30 11191 C 1049.39 1.36739 -0.823086 0
M  V30 11192 C 1049.59 1.93476 0.562963 0
M  V30 11193 O 1048.64 2.15374 1.31796 0
M  V30 11194 C 1049.96 2.31943 -1.91371 0
M  V30 11195 C 1051.51 2.4556 -1.94085 0
M  V30 11196 C 1051.98 3.44072 -3.02289 0
M  V30 11197 N 1053.47 3.51622 -3.01524 0
M  V30 11198 C 1054.21 4.27724 -3.8189 0
M  V30 11199 N 1053.7 5.06987 -4.72161 0
M  V30 11200 N 1055.5 4.23018 -3.70152 0
M  V30 11201 H 1047.65 0.75012 -1.98713 0
M  V30 11202 H 1049.91 0.392564 -0.862901 0
M  V30 11203 H 1049.62 1.97408 -2.91072 0
M  V30 11204 H 1049.49 3.31952 -1.79131 0
M  V30 11205 H 1051.88 2.79382 -0.950234 0
M  V30 11206 H 1051.96 1.45479 -2.10403 0
M  V30 11207 H 1051.6 3.10981 -4.01564 0
M  V30 11208 H 1051.53 4.43956 -2.83214 0
M  V30 11209 H 1054.02 2.95066 -2.36103 0
M  V30 11210 H 1054.34 5.6236 -5.30067 0
M  V30 11211 H 1052.68 5.06222 -4.76197 0
M  V30 11212 H 1055.87 3.60171 -2.98989 0
M  V30 11213 H 1056.04 4.82075 -4.33022 0
M  V30 11214 N 1049.45 0.880621 1.30701 0
M  V30 11215 C 1050.68 0.510909 2.01009 0
M  V30 11216 C 1051.1 -0.892041 1.65603 0
M  V30 11217 O 1050.46 -1.59045 0.870309 0
M  V30 11218 C 1050.51 0.687759 3.53981 0
M  V30 11219 O 1049.61 -0.268275 4.11526 0
M  V30 11220 H 1048.95 0.201864 0.632572 0
M  V30 11221 H 1051.48 1.18697 1.6665 0
M  V30 11222 H 1051.49 0.585095 4.03783 0
M  V30 11223 H 1050.17 1.71068 3.79089 0
M  V30 11224 H 1048.74 -0.119673 3.72708 0
M  V30 11225 N 1050.93 -1.4397 0.641131 0
M  V30 11226 C 1051.84 -2.34526 -0.058742 0
M  V30 11227 C 1052.86 -1.53194 -0.825088 0
M  V30 11228 O 1054.03 -1.85888 -0.775081 0
M  V30 11229 C 1051.1 -3.31313 -1.02139 0
M  V30 11230 C 1050.16 -4.28552 -0.253319 0
M  V30 11231 C 1049.39 -5.20715 -1.17012 0
M  V30 11232 O 1049.61 -5.17028 -2.40911 0
M  V30 11233 O 1048.55 -5.9839 -0.649039 0
M  V30 11234 H 1052.37 -2.95843 0.686329 0
M  V30 11235 H 1049.96 -1.43909 0.401316 0
M  V30 11236 H 1051.84 -3.90862 -1.57496 0
M  V30 11237 H 1050.52 -2.72516 -1.7469 0
M  V30 11238 H 1049.42 -3.72519 0.343531 0
M  V30 11239 H 1050.76 -4.90297 0.432372 0
M  V30 11240 N 1052.41 -0.382291 -1.52893 0
M  V30 11241 C 1053.63 0.204961 -2.06385 0
M  V30 11242 C 1054.06 1.40316 -1.25271 0
M  V30 11243 O 1053.42 1.79187 -0.275969 0
M  V30 11244 C 1053.46 0.560205 -3.56222 0
M  V30 11245 O 1052.57 1.65515 -3.77728 0
M  V30 11246 H 1051.91 0.0258798 -0.663495 0
M  V30 11247 H 1054.44 -0.547733 -1.97132 0
M  V30 11248 H 1054.45 0.826501 -3.99541 0
M  V30 11249 H 1053.12 -0.31584 -4.14699 0
M  V30 11250 H 1051.7 1.38311 -3.46301 0
M  V30 11251 N 1053.89 1.57202 -0.111913 0
M  V30 11252 C 1054.82 2.17957 0.837683 0
M  V30 11253 C 1055.8 1.1176 1.28233 0
M  V30 11254 O 1056.98 1.39967 1.34621 0
M  V30 11255 C 1054.11 2.77333 2.09054 0
M  V30 11256 C 1053.07 3.8905 1.78393 0
M  V30 11257 C 1052.39 4.35203 3.10649 0
M  V30 11258 C 1053.69 5.11477 1.05775 0
M  V30 11259 H 1055.39 2.9756 0.331441 0
M  V30 11260 H 1052.93 1.43131 0.157979 0
M  V30 11261 H 1054.88 3.18492 2.75936 0
M  V30 11262 H 1053.61 1.95009 2.6199 0
M  V30 11263 H 1052.27 3.48456 1.13903 0
M  V30 11264 H 1051.92 3.49747 3.61506 0
M  V30 11265 H 1051.62 5.10534 2.9091 0
M  V30 11266 H 1053.14 4.79007 3.78661 0
M  V30 11267 H 1054.55 5.497 1.62798 0
M  V30 11268 H 1052.95 5.92346 0.961573 0
M  V30 11269 H 1054.02 4.84881 0.043297 0
M  V30 11270 N 1055.36 -0.161842 1.56767 0
M  V30 11271 C 1056.61 -0.875192 1.82167 0
M  V30 11272 C 1056.93 -1.82367 0.690444 0
M  V30 11273 O 1056.2 -1.93756 -0.289023 0
M  V30 11274 H 1054.78 -0.326178 0.672024 0
M  V30 11275 H 1057.44 -0.159392 1.94247 0
M  V30 11276 H 1056.54 -1.44639 2.76561 0
M  V30 11277 N 1056.84 -1.516 -0.430713 0
M  V30 11278 C 1058.07 -1.687 -1.20644 0
M  V30 11279 C 1058.49 -0.386555 -1.84085 0
M  V30 11280 O 1057.85 0.653952 -1.69095 0
M  V30 11281 C 1057.9 -2.80887 -2.2613 0
M  V30 11282 O 1057 -2.44952 -3.31772 0
M  V30 11283 H 1056.34 -0.562289 -0.353167 0
M  V30 11284 H 1058.87 -1.98198 -0.507807 0
M  V30 11285 H 1058.88 -3.05167 -2.70809 0
M  V30 11286 H 1057.56 -3.75249 -1.79334 0
M  V30 11287 H 1056.13 -2.31267 -2.92523 0
M  V30 11288 N 1058.32 0.686584 -1.41858 0
M  V30 11289 C 1059.54 1.4802 -1.45275 0
M  V30 11290 C 1059.97 1.87997 -0.0621297 0
M  V30 11291 O 1059.33 1.55226 0.936733 0
M  V30 11292 C 1059.38 2.7133 -2.37513 0
M  V30 11293 O 1058.48 3.69159 -1.83836 0
M  V30 11294 H 1057.82 0.445152 -0.492682 0
M  V30 11295 H 1060.35 0.843161 -1.86419 0
M  V30 11296 H 1060.36 3.19537 -2.53693 0
M  V30 11297 H 1059.04 2.41571 -3.3855 0
M  V30 11298 H 1057.61 3.28134 -1.77151 0
M  V30 11299 N 1059.8 1.27835 0.921735 0
M  V30 11300 C 1061.02 1.17465 1.70929 0
M  V30 11301 C 1061.45 -0.264171 1.86236 0
M  V30 11302 O 1060.81 -1.19124 1.36671 0
M  V30 11303 C 1060.85 1.8697 3.08342 0
M  V30 11304 O 1059.96 1.17173 3.95404 0
M  V30 11305 H 1059.3 0.408206 0.523702 0
M  V30 11306 H 1061.83 1.69013 1.15307 0
M  V30 11307 H 1061.84 1.94564 3.58621 0
M  V30 11308 H 1060.51 2.91633 2.96518 0
M  V30 11309 H 1059.09 1.17688 3.53842 0
M  V30 11310 N 1061.28 -1.12907 1.09954 0
M  V30 11311 C 1062.55 -1.80602 0.751148 0
M  V30 11312 C 1062.93 -1.96826 -0.763077 0
M  V30 11313 O 1062.28 -1.54066 -1.68749 0
M  V30 11314 C 1062.49 -3.15289 1.49646 0
M  V30 11315 C 1063.84 -3.9056 1.66578 0
M  V30 11316 O 1064.86 -3.24929 1.45943 0
M  V30 11317 O 1063.72 -5.08292 2.00752 0
M  V30 11318 H 1060.82 -0.781529 0.270446 0
M  V30 11319 H 1063.36 -1.19786 1.20206 0
M  V30 11320 H 1062.13 -2.9874 2.52725 0
M  V30 11321 H 1061.76 -3.83809 1.03808 0
M  V30 11322 N 1062.75 -0.88754 -1.30232 0
M  V30 11323 C 1063.7 -0.354497 -2.28061 0
M  V30 11324 C 1064.67 0.556732 -1.56492 0
M  V30 11325 O 1065.86 0.484597 -1.84543 0
M  V30 11326 C 1063 0.422701 -3.42501 0
M  V30 11327 C 1062.11 -0.518036 -4.28883 0
M  V30 11328 C 1061.24 0.275011 -5.30488 0
M  V30 11329 C 1060.28 -0.661032 -6.0852 0
M  V30 11330 N 1059.42 0.0968509 -7.02033 0
M  V30 11331 H 1064.26 -1.19388 -2.73039 0
M  V30 11332 H 1061.8 -0.600091 -1.34303 0
M  V30 11333 H 1063.75 0.889249 -4.07613 0
M  V30 11334 H 1062.38 1.22664 -2.98586 0
M  V30 11335 H 1061.44 -1.10308 -3.64055 0
M  V30 11336 H 1062.75 -1.23504 -4.83268 0
M  V30 11337 H 1061.9 0.803301 -6.01358 0
M  V30 11338 H 1060.64 1.02522 -4.76802 0
M  V30 11339 H 1059.65 -1.20093 -5.36524 0
M  V30 11340 H 1060.87 -1.41037 -6.64293 0
M  V30 11341 H 1058.82 0.829548 -6.50734 0
M  V30 11342 H 1058.73 -0.560476 -7.5392 0
M  V30 11343 H 1060 0.6058 -7.77142 0
M  V30 11344 N 1064.23 1.43628 -0.648757 0
M  V30 11345 C 1065.46 2.06217 -0.167945 0
M  V30 11346 C 1065.88 1.486 1.16462 0
M  V30 11347 O 1065.23 0.61559 1.71804 0
M  V30 11348 C 1065.28 3.6144 -0.0660114 0
M  V30 11349 O 1065 4.16914 -1.34589 0
M  V30 11350 C 1066.51 4.41097 0.441408 0
M  V30 11351 H 1063.73 0.665228 -0.0878237 0
M  V30 11352 H 1066.27 1.84207 -0.888144 0
M  V30 11353 H 1064.42 3.82651 0.604722 0
M  V30 11354 H 1064.84 5.10537 -1.20218 0
M  V30 11355 H 1066.31 5.50066 0.461697 0
M  V30 11356 H 1066.79 4.13803 1.47187 0
M  V30 11357 H 1067.4 4.24845 -0.19668 0
M  V30 11358 N 1065.71 0.390394 1.52688 0
M  V30 11359 C 1066.64 -0.43567 2.294 0
M  V30 11360 C 1067.62 -1.06253 1.32832 0
M  V30 11361 O 1068.81 -1.07509 1.61726 0
M  V30 11362 C 1065.94 -1.56259 3.10162 0
M  V30 11363 C 1064.89 -1.06172 4.14622 0
M  V30 11364 C 1064.22 -2.2808 4.83615 0
M  V30 11365 C 1065.52 -0.128902 5.22141 0
M  V30 11366 H 1067.21 0.204384 2.98702 0
M  V30 11367 H 1064.76 0.0997377 1.43654 0
M  V30 11368 H 1066.71 -2.14732 3.62585 0
M  V30 11369 H 1065.43 -2.23025 2.38595 0
M  V30 11370 H 1064.09 -0.499518 3.63181 0
M  V30 11371 H 1063.74 -2.93358 4.08595 0
M  V30 11372 H 1063.44 -1.95227 5.5422 0
M  V30 11373 H 1064.96 -2.87193 5.38844 0
M  V30 11374 H 1066.38 -0.621849 5.69917 0
M  V30 11375 H 1064.78 0.109919 5.99999 0
M  V30 11376 H 1065.85 0.821884 4.77884 0
M  V30 11377 N 1067.19 -1.57141 0.120249 0
M  V30 11378 C 1068.6 -1.82256 -0.404931 0
M  V30 11379 C 1068.95 -1.03748 -1.66526 0
M  V30 11380 O 1068.08 -0.274456 -2.14653 0
M  V30 11381 C 1068.67 -3.30588 -0.741431 0
M  V30 11382 C 1067.23 -3.56379 -1.21124 0
M  V30 11383 C 1066.38 -2.76421 -0.220569 0
M  V30 11384 H 1069.33 -1.54897 0.345361 0
M  V30 11385 H 1069.35 -3.45284 -1.59872 0
M  V30 11386 H 1068.86 -3.87701 0.176036 0
M  V30 11387 H 1066.96 -3.04625 -2.14556 0
M  V30 11388 H 1067.07 -4.64952 -1.1557 0
M  V30 11389 H 1065.44 -2.44666 -0.707857 0
M  V30 11390 H 1066.22 -3.36294 0.690018 0
M  V30 11391 N 1068.67 0.153526 -1.5685 0
M  V30 11392 C 1069.89 0.886343 -1.87507 0
M  V30 11393 C 1070.32 1.74244 -0.708565 0
M  V30 11394 O 1069.67 1.78045 0.341997 0
M  V30 11395 C 1069.72 1.72428 -3.16703 0
M  V30 11396 O 1068.83 2.82784 -3.00178 0
M  V30 11397 H 1068.17 0.247259 -0.616246 0
M  V30 11398 H 1070.7 0.146306 -2.04076 0
M  V30 11399 H 1070.71 2.12062 -3.4856 0
M  V30 11400 H 1069.38 1.09558 -4.01211 0
M  V30 11401 H 1067.96 2.46604 -2.79716 0
M  V30 11402 N 1070.14 1.51827 0.422667 0
M  V30 11403 C 1071.39 1.6445 1.16786 0
M  V30 11404 C 1071.71 0.373792 1.91995 0
M  V30 11405 O 1072.91 0.379621 2.68833 0
M  V30 11406 C 1071.37 2.90488 2.12473 0
M  V30 11407 C 1070.98 4.24617 1.42844 0
M  V30 11408 C 1072.72 3.12472 2.87335 0
M  V30 11409 C 1070.63 5.41791 2.371 0
M  V30 11410 H 1069.56 0.612561 0.439641 0
M  V30 11411 H 1072.21 1.78305 0.433534 0
M  V30 11412 H 1070.59 2.703 2.89402 0
M  V30 11413 H 1071.76 4.55239 0.71372 0
M  V30 11414 H 1070.08 4.08628 0.800769 0
M  V30 11415 H 1072.68 3.9719 3.57973 0
M  V30 11416 H 1073.02 2.26148 3.49518 0
M  V30 11417 H 1073.55 3.33069 2.17509 0
M  V30 11418 H 1070.29 6.3042 1.79584 0
M  V30 11419 H 1069.81 5.15526 3.06583 0
M  V30 11420 H 1071.49 5.74329 2.97918 0
M  V30 11421 N 1071.62 -0.679052 1.4222 0
M  V30 11422 C 1072.85 -1.46747 1.45852 0
M  V30 11423 C 1073.27 -1.88675 0.0685937 0
M  V30 11424 O 1072.62 -1.57861 -0.915757 0
M  V30 11425 C 1072.67 -2.71935 2.38188 0
M  V30 11426 O 1072.39 -2.31768 3.71773 0
M  V30 11427 C 1073.9 -3.65536 2.50796 0
M  V30 11428 H 1071.12 -0.451682 0.49621 0
M  V30 11429 H 1073.66 -0.834723 1.86689 0
M  V30 11430 H 1071.81 -3.31409 2.00616 0
M  V30 11431 H 1072.23 -3.12579 4.21182 0
M  V30 11432 H 1073.7 -4.50113 3.19535 0
M  V30 11433 H 1074.18 -4.11148 1.54447 0
M  V30 11434 H 1074.79 -3.11957 2.89072 0
M  V30 11435 N 1073.1 -1.28322 -0.914942 0
M  V30 11436 C 1074.01 -1.13993 -2.05043 0
M  V30 11437 C 1075.03 -0.0667921 -1.73872 0
M  V30 11438 O 1076.2 -0.275845 -1.99502 0
M  V30 11439 C 1073.27 -0.801856 -3.373 0
M  V30 11440 C 1072.33 -1.95723 -3.82088 0
M  V30 11441 C 1071.56 -1.63519 -5.08033 0
M  V30 11442 O 1071.78 -0.54899 -5.67752 0
M  V30 11443 O 1070.72 -2.47844 -5.48504 0
M  V30 11444 H 1074.54 -2.09313 -2.2005 0
M  V30 11445 H 1072.13 -1.0763 -1.03616 0
M  V30 11446 H 1074.01 -0.627214 -4.16706 0
M  V30 11447 H 1072.69 0.121696 -3.23471 0
M  V30 11448 H 1071.59 -2.18702 -3.03514 0
M  V30 11449 H 1072.93 -2.86144 -4.00478 0
M  V30 11450 N 1074.58 1.12322 -1.10551 0
M  V30 11451 C 1075.54 2.16273 -0.758844 0
M  V30 11452 C 1076.54 1.59325 0.217294 0
M  V30 11453 O 1077.73 1.74199 -0.00601346 0
M  V30 11454 C 1074.86 3.40674 -0.124238 0
M  V30 11455 H 1076.06 2.48454 -1.6796 0
M  V30 11456 H 1073.61 1.2735 -0.906188 0
M  V30 11457 H 1074.34 3.14094 0.807194 0
M  V30 11458 H 1074.13 3.83284 -0.826772 0
M  V30 11459 H 1075.62 4.17474 0.102502 0
M  V30 11460 N 1076.06 0.894434 1.2976 0
M  V30 11461 C 1076.97 0.372622 2.31622 0
M  V30 11462 C 1077.98 -0.52996 1.65733 0
M  V30 11463 O 1079.16 -0.420807 1.96955 0
M  V30 11464 C 1076.22 -0.396076 3.4443 0
M  V30 11465 C 1075.28 0.537394 4.25923 0
M  V30 11466 C 1074.52 -0.194713 5.33345 0
M  V30 11467 O 1074.74 -1.41943 5.52457 0
M  V30 11468 O 1073.67 0.460055 6.00139 0
M  V30 11469 H 1077.5 1.21756 2.78225 0
M  V30 11470 H 1075.09 0.65858 1.34101 0
M  V30 11471 H 1076.97 -0.830962 4.13126 0
M  V30 11472 H 1075.64 -1.21716 2.99945 0
M  V30 11473 H 1074.55 1.02129 3.5989 0
M  V30 11474 H 1075.88 1.32475 4.74037 0
M  V30 11475 N 1077.53 -1.43282 0.656365 0
M  V30 11476 C 1078.76 -2.06641 0.177245 0
M  V30 11477 C 1079.18 -1.48893 -1.14946 0
M  V30 11478 O 1078.54 -0.600099 -1.7108 0
M  V30 11479 C 1078.59 -3.60453 0.10299 0
M  V30 11480 O 1077.69 -4.01687 -0.933895 0
M  V30 11481 H 1077.04 -0.656978 0.096314 0
M  V30 11482 H 1079.57 -1.83733 0.900178 0
M  V30 11483 H 1079.58 -4.07923 -0.079291 0
M  V30 11484 H 1078.25 -4.01861 1.07147 0
M  V30 11485 H 1076.83 -3.65801 -0.724148 0
M  V30 11486 N 1079.01 -0.398486 -1.52479 0
M  V30 11487 C 1080.26 0.180394 -2.01293 0
M  V30 11488 C 1080.58 1.46548 -1.28641 0
M  V30 11489 O 1079.85 1.91579 -0.409173 0
M  V30 11490 H 1078.43 0.0696528 -0.743746 0
M  V30 11491 H 1081.09 -0.532285 -1.87491 0
M  V30 11492 H 1080.19 0.38409 -3.09728 0
M  V30 11493 N 1080.49 1.57075 -0.12858 0
M  V30 11494 C 1081.45 2.14643 0.803813 0
M  V30 11495 C 1082.45 1.08363 1.18803 0
M  V30 11496 O 1083.64 1.34093 1.11197 0
M  V30 11497 C 1080.78 2.6945 2.08829 0
M  V30 11498 H 1081.97 2.98362 0.303347 0
M  V30 11499 H 1079.52 1.55833 0.120735 0
M  V30 11500 H 1080.26 1.89345 2.63285 0
M  V30 11501 H 1080.04 3.47187 1.82218 0
M  V30 11502 H 1081.53 3.13865 2.7546 0
M  V30 11503 N 1081.97 -0.145205 1.5693 0
M  V30 11504 C 1082.88 -1.19864 2.01667 0
M  V30 11505 C 1083.9 -1.46909 0.932402 0
M  V30 11506 O 1085.07 -1.58543 1.24201 0
M  V30 11507 C 1082.14 -2.51174 2.38982 0
M  V30 11508 C 1081.2 -2.3176 3.61366 0
M  V30 11509 C 1080.43 -3.56809 3.96892 0
M  V30 11510 O 1080.65 -4.63063 3.33059 0
M  V30 11511 O 1079.59 -3.49366 4.9013 0
M  V30 11512 H 1083.41 -0.848821 2.91597 0
M  V30 11513 H 1081 -0.354063 1.45144 0
M  V30 11514 H 1082.88 -3.28587 2.63835 0
M  V30 11515 H 1081.56 -2.85683 1.52207 0
M  V30 11516 H 1080.46 -1.52293 3.41698 0
M  V30 11517 H 1081.8 -2.02167 4.48764 0
M  V30 11518 N 1083.45 -1.52049 -0.414609 0
M  V30 11519 C 1084.86 -1.58062 -0.993638 0
M  V30 11520 C 1085.21 -0.417795 -1.917 0
M  V30 11521 O 1084.33 0.462558 -2.11399 0
M  V30 11522 C 1084.93 -2.86471 -1.80886 0
M  V30 11523 C 1083.49 -2.94981 -2.33801 0
M  V30 11524 C 1082.64 -2.52949 -1.13631 0
M  V30 11525 H 1085.59 -1.57497 -0.19504 0
M  V30 11526 H 1085.61 -2.71515 -2.66571 0
M  V30 11527 H 1085.12 -3.71085 -1.13657 0
M  V30 11528 H 1083.22 -2.14849 -3.04419 0
M  V30 11529 H 1083.33 -3.99111 -2.65042 0
M  V30 11530 H 1081.7 -2.0667 -1.48861 0
M  V30 11531 H 1082.48 -3.39931 -0.479765 0
M  V30 11532 N 1084.93 0.6715 -1.42579 0
M  V30 11533 C 1086.17 1.42871 -1.42941 0
M  V30 11534 C 1086.49 1.94941 -0.0480483 0
M  V30 11535 O 1085.76 1.73275 0.913921 0
M  V30 11536 H 1084.34 0.530189 -0.526221 0
M  V30 11537 H 1087.01 0.793219 -1.78028 0
M  V30 11538 H 1086.1 2.2801 -2.13114 0
M  V30 11539 N 1086.4 1.28806 0.908124 0
M  V30 11540 C 1087.65 1.16058 1.65454 0
M  V30 11541 C 1087.97 -0.290057 1.92831 0
M  V30 11542 O 1087.24 -1.20001 1.54843 0
M  V30 11543 H 1085.82 0.426522 0.61326 0
M  V30 11544 H 1088.48 1.61614 1.08936 0
M  V30 11545 H 1087.58 1.70437 2.61453 0
M  V30 11546 N 1087.88 -1.11734 1.11145 0
M  V30 11547 C 1089.13 -1.83043 0.856717 0
M  V30 11548 C 1089.45 -1.84901 -0.619407 0
M  V30 11549 O 1088.72 -1.31738 -1.44989 0
M  V30 11550 H 1087.3 -0.677823 0.31395 0
M  V30 11551 H 1089.96 -1.35262 1.40322 0
M  V30 11552 H 1089.06 -2.87005 1.22616 0
M  V30 11553 N 1089.36 -0.901303 -1.29284 0
M  V30 11554 C 1090.77 -0.576317 -1.77582 0
M  V30 11555 C 1091.12 0.908078 -1.73921 0
M  V30 11556 O 1090.25 1.71006 -1.32611 0
M  V30 11557 C 1090.84 -1.03938 -3.22463 0
M  V30 11558 C 1089.4 -0.765533 -3.68533 0
M  V30 11559 C 1088.55 -1.21318 -2.49354 0
M  V30 11560 H 1091.5 -1.08386 -1.15923 0
M  V30 11561 H 1091.52 -0.375367 -3.78644 0
M  V30 11562 H 1091.03 -2.11977 -3.25096 0
M  V30 11563 H 1089.13 0.302176 -3.71373 0
M  V30 11564 H 1089.25 -1.36454 -4.59257 0
M  V30 11565 H 1087.61 -0.632141 -2.46731 0
M  V30 11566 H 1088.39 -2.30165 -2.54714 0
M  V30 11567 N 1090.84 1.42931 -0.663954 0
M  V30 11568 C 1092.25 1.56098 -0.332496 0
M  V30 11569 C 1092.45 1.64564 1.16279 0
M  V30 11570 O 1091.51 1.6066 1.94794 0
M  V30 11571 C 1092.82 2.81649 -1.05329 0
M  V30 11572 C 1094.37 2.95408 -1.03457 0
M  V30 11573 C 1094.85 4.23805 -1.73647 0
M  V30 11574 N 1096.34 4.30693 -1.70462 0
M  V30 11575 C 1097.07 5.28833 -2.21637 0
M  V30 11576 N 1096.57 6.33189 -2.81147 0
M  V30 11577 N 1098.36 5.20558 -2.12075 0
M  V30 11578 H 1090.51 1.3568 -1.63416 0
M  V30 11579 H 1092.77 0.652361 -0.687844 0
M  V30 11580 H 1092.48 2.81494 -2.10842 0
M  V30 11581 H 1092.35 3.72208 -0.611626 0
M  V30 11582 H 1094.74 2.95097 0.0121936 0
M  V30 11583 H 1094.82 2.06109 -1.51502 0
M  V30 11584 H 1094.47 4.24876 -2.78285 0
M  V30 11585 H 1094.4 5.12019 -1.2306 0
M  V30 11586 H 1096.89 3.55904 -1.27046 0
M  V30 11587 H 1097.2 7.04411 -3.17844 0
M  V30 11588 H 1095.55 6.33781 -2.85212 0
M  V30 11589 H 1098.74 4.3795 -1.6528 0
M  V30 11590 H 1098.91 5.96881 -2.52264 0
M  V30 11591 N 1092.32 0.406567 1.52266 0
M  V30 11592 C 1093.73 -0.063607 1.86592 0
M  V30 11593 C 1094.08 -1.4466 1.32544 0
M  V30 11594 O 1093.2 -2.05971 0.663692 0
M  V30 11595 C 1093.8 -0.122198 3.3858 0
M  V30 11596 C 1092.36 -0.536701 3.72554 0
M  V30 11597 C 1091.5 0.290422 2.75775 0
M  V30 11598 H 1094.45 0.623738 1.45929 0
M  V30 11599 H 1094.48 -0.937964 3.68758 0
M  V30 11600 H 1093.99 0.884495 3.77887 0
M  V30 11601 H 1092.09 -1.55013 3.38824 0
M  V30 11602 H 1092.2 -0.282867 4.78264 0
M  V30 11603 H 1090.57 -0.246864 2.53501 0
M  V30 11604 H 1091.35 1.29541 3.17921 0
M  V30 11605 N 1093.79 -1.57004 0.136909 0
M  V30 11606 C 1095.21 -1.58082 -0.21958 0
M  V30 11607 C 1095.41 -1.15065 -1.65415 0
M  V30 11608 O 1094.47 -0.846284 -2.37896 0
M  V30 11609 C 1095.78 -3.00685 0.0300112 0
M  V30 11610 C 1097.33 -3.12981 -0.0344899 0
M  V30 11611 C 1097.8 -4.57615 0.187639 0
M  V30 11612 N 1099.29 -4.63005 0.134219 0
M  V30 11613 C 1100.03 -5.72712 0.280743 0
M  V30 11614 N 1099.52 -6.91104 0.48443 0
M  V30 11615 N 1101.32 -5.61673 0.219055 0
M  V30 11616 H 1093.47 -1.83262 1.07372 0
M  V30 11617 H 1095.73 -0.847776 0.424241 0
M  V30 11618 H 1095.44 -3.36509 1.02247 0
M  V30 11619 H 1095.31 -3.70762 -0.693918 0
M  V30 11620 H 1097.7 -2.77004 -1.01749 0
M  V30 11621 H 1097.78 -2.45411 0.721608 0
M  V30 11622 H 1097.42 -4.94295 1.16769 0
M  V30 11623 H 1097.35 -5.23299 -0.588661 0
M  V30 11624 H 1099.84 -3.77895 -0.0189681 0
M  V30 11625 H 1100.16 -7.7057 0.586613 0
M  V30 11626 H 1098.5 -6.93047 0.520627 0
M  V30 11627 H 1101.69 -4.68061 0.0607606 0
M  V30 11628 H 1101.87 -6.47125 0.336683 0
M  V30 11629 N 1095.27 0.136881 -1.57004 0
M  V30 11630 C 1096.69 0.489856 -1.51897 0
M  V30 11631 C 1096.89 1.82833 -0.847009 0
M  V30 11632 O 1095.94 2.48952 -0.421792 0
M  V30 11633 C 1097.26 0.490831 -2.96667 0
M  V30 11634 C 1098.81 0.575639 -3.07661 0
M  V30 11635 C 1099.28 0.607178 -4.53957 0
M  V30 11636 N 1100.77 0.66912 -4.58342 0
M  V30 11637 C 1101.51 0.714675 -5.68929 0
M  V30 11638 N 1101 0.718959 -6.89059 0
M  V30 11639 N 1102.8 0.756326 -5.56988 0
M  V30 11640 H 1094.95 -0.740347 -1.99079 0
M  V30 11641 H 1097.21 -0.271116 -0.908405 0
M  V30 11642 H 1096.92 -0.424648 -3.49127 0
M  V30 11643 H 1096.79 1.32512 -3.53158 0
M  V30 11644 H 1099.18 1.48154 -2.55215 0
M  V30 11645 H 1099.26 -0.285991 -2.54196 0
M  V30 11646 H 1098.9 -0.294604 -5.07045 0
M  V30 11647 H 1098.83 1.48544 -5.05215 0
M  V30 11648 H 1101.32 0.672697 -3.71864 0
M  V30 11649 H 1101.64 0.755848 -7.69095 0
M  V30 11650 H 1099.98 0.686671 -6.91599 0
M  V30 11651 H 1103.17 0.750219 -4.62049 0
M  V30 11652 H 1103.34 0.788363 -6.43186 0
M  V30 11653 N 1096.75 1.52266 0.40654 0
M  V30 11654 C 1098.16 1.58587 0.985241 0
M  V30 11655 C 1098.51 0.427955 1.91476 0
M  V30 11656 O 1097.64 -0.451341 2.11641 0
M  V30 11657 C 1098.23 2.87426 1.79365 0
M  V30 11658 C 1096.79 2.96217 2.32233 0
M  V30 11659 C 1095.94 2.53548 1.12288 0
M  V30 11660 H 1098.89 1.57598 0.186685 0
M  V30 11661 H 1098.91 2.72925 2.65127 0
M  V30 11662 H 1098.42 3.71682 1.11687 0
M  V30 11663 H 1096.52 2.1646 3.03275 0
M  V30 11664 H 1096.64 4.00511 2.62922 0
M  V30 11665 H 1095 2.07457 1.47763 0
M  V30 11666 H 1095.78 3.40181 0.461731 0
M  V30 11667 N 1098.23 -0.663929 1.42933 0
M  V30 11668 C 1099.16 -1.78899 1.50058 0
M  V30 11669 C 1100.14 -1.66329 0.356164 0
M  V30 11670 O 1101.32 -1.85587 0.571944 0
M  V30 11671 C 1098.45 -3.17265 1.41281 0
M  V30 11672 C 1097.41 -3.44584 2.53861 0
M  V30 11673 C 1096.73 -4.82638 2.3014 0
M  V30 11674 C 1098.03 -3.40394 3.96143 0
M  V30 11675 H 1099.73 -1.73194 2.44222 0
M  V30 11676 H 1097.27 -0.83182 1.17545 0
M  V30 11677 H 1099.23 -3.95715 1.44872 0
M  V30 11678 H 1097.95 -3.23675 0.43616 0
M  V30 11679 H 1096.61 -2.685 2.49606 0
M  V30 11680 H 1096.26 -4.85711 1.30743 0
M  V30 11681 H 1095.96 -5.01879 3.056 0
M  V30 11682 H 1097.48 -5.63359 2.35497 0
M  V30 11683 H 1098.9 -4.08796 4.01943 0
M  V30 11684 H 1097.29 -3.7117 4.71543 0
M  V30 11685 H 1098.36 -2.38767 4.22041 0
M  V30 11686 N 1099.71 -1.29285 -0.901281 0
M  V30 11687 C 1100.64 -1.16832 -2.0217 0
M  V30 11688 C 1101.62 -0.0629265 -1.69984 0
M  V30 11689 O 1102.8 -0.242123 -1.92685 0
M  V30 11690 C 1099.93 -0.842406 -3.36929 0
M  V30 11691 C 1098.89 -1.90394 -3.8332 0
M  V30 11692 C 1098.21 -1.43138 -5.15185 0
M  V30 11693 C 1099.51 -3.31254 -4.03817 0
M  V30 11694 H 1101.21 -2.10562 -2.12847 0
M  V30 11695 H 1098.75 -1.01375 -1.0227 0
M  V30 11696 H 1100.71 -0.741999 -4.14816 0
M  V30 11697 H 1099.43 0.130598 -3.26339 0
M  V30 11698 H 1098.09 -1.99371 -3.07647 0
M  V30 11699 H 1097.74 -0.447091 -5.01009 0
M  V30 11700 H 1097.44 -2.14129 -5.47195 0
M  V30 11701 H 1098.96 -1.34444 -5.95615 0
M  V30 11702 H 1100.37 -3.25129 -4.72191 0
M  V30 11703 H 1098.77 -4.00189 -4.47178 0
M  V30 11704 H 1099.84 -3.74349 -3.08206 0
M  V30 11705 N 1101.18 1.11143 -1.11736 0
M  V30 11706 C 1102.11 2.19339 -0.800795 0
M  V30 11707 C 1103.1 1.68508 0.23221 0
M  V30 11708 O 1104.28 1.93967 0.0950063 0
M  V30 11709 C 1101.41 3.46424 -0.246579 0
M  V30 11710 C 1100.36 4.10487 -1.21181 0
M  V30 11711 C 1099.69 5.32183 -0.518158 0
M  V30 11712 C 1100.99 4.55052 -2.56368 0
M  V30 11713 H 1102.68 2.46077 -1.70548 0
M  V30 11714 H 1100.23 1.18271 -0.821454 0
M  V30 11715 H 1102.18 4.21398 -0.0128889 0
M  V30 11716 H 1100.91 3.19154 0.693415 0
M  V30 11717 H 1099.57 3.3751 -1.43118 0
M  V30 11718 H 1099.21 5.01187 0.426742 0
M  V30 11719 H 1098.91 5.75997 -1.16196 0
M  V30 11720 H 1100.44 6.09895 -0.293333 0
M  V30 11721 H 1101.85 5.21335 -2.38501 0
M  V30 11722 H 1100.25 5.0969 -3.16758 0
M  V30 11723 H 1101.32 3.68343 -3.1536 0
M  V30 11724 N 1102.66 0.908147 1.28804 0
M  V30 11725 C 1104.07 0.585727 1.77274 0
M  V30 11726 C 1104.42 -0.898842 1.744 0
M  V30 11727 O 1103.55 -1.70301 1.33516 0
M  V30 11728 C 1104.14 1.05647 3.21907 0
M  V30 11729 C 1102.7 0.785066 3.68122 0
M  V30 11730 C 1101.85 1.22638 2.48707 0
M  V30 11731 H 1104.8 1.09 1.15346 0
M  V30 11732 H 1104.82 0.395442 3.7844 0
M  V30 11733 H 1104.33 2.13698 3.23967 0
M  V30 11734 H 1102.44 -0.282477 3.71528 0
M  V30 11735 H 1102.55 1.38888 4.58527 0
M  V30 11736 H 1100.91 0.645217 2.46392 0
M  V30 11737 H 1101.7 2.31512 2.5349 0
M  V30 11738 N 1104.14 -1.42577 0.671525 0
M  V30 11739 C 1105.09 -2.32591 -0.0205354 0
M  V30 11740 C 1106.08 -1.4964 -0.793993 0
M  V30 11741 O 1107.29 -1.65733 -0.702327 0
M  V30 11742 H 1103.66 -0.75157 -0.0254344 0
M  V30 11743 H 1105.63 -2.88662 0.756082 0
M  V30 11744 C 1104.38 -3.34175 -0.960316 0
M  V30 11745 H 1103.71 -3.98041 -0.374577 0
M  V30 11746 H 1105.15 -3.99752 -1.4133 0
M  V30 11747 C 1103.61 -2.66184 -2.06513 0
M  V30 11748 O 1104.14 -2.49125 -3.15119 0
M  V30 11749 N 1102.34 -2.25261 -1.83591 0
M  V30 11750 H 1101.89 -2.39336 -0.952689 0
M  V30 11751 H 1101.85 -1.80101 -2.57703 0
M  V30 11752 N 1105.62 -0.414636 -1.52048 0
M  V30 11753 C 1106.55 0.399119 -2.30064 0
M  V30 11754 C 1107.53 1.04126 -1.34506 0
M  V30 11755 O 1108.71 1.04923 -1.63416 0
M  V30 11756 C 1105.84 1.51305 -3.12608 0
M  V30 11757 C 1104.8 0.995621 -4.16259 0
M  V30 11758 C 1104.12 2.20357 -4.87183 0
M  V30 11759 C 1105.42 0.0458178 -5.2228 0
M  V30 11760 H 1107.12 -0.251879 -2.98339 0
M  V30 11761 H 1104.66 -0.122579 -1.43477 0
M  V30 11762 H 1106.62 2.08936 -3.65956 0
M  V30 11763 H 1105.34 2.19201 -2.42113 0
M  V30 11764 H 1104 0.441676 -3.6393 0
M  V30 11765 H 1103.65 2.8682 -4.13211 0
M  V30 11766 H 1103.35 1.86385 -5.57256 0
M  V30 11767 H 1104.87 2.78584 -5.43345 0
M  V30 11768 H 1106.29 0.531102 -5.70835 0
M  V30 11769 H 1104.68 -0.20536 -5.99749 0
M  V30 11770 H 1105.75 -0.897807 -4.76516 0
M  V30 11771 N 1107.1 1.56929 -0.145233 0
M  V30 11772 C 1108.32 2.00864 0.516564 0
M  V30 11773 C 1108.75 1.02466 1.57741 0
M  V30 11774 O 1108.1 0.000145439 1.813 0
M  V30 11775 C 1108.15 3.43552 1.09563 0
M  V30 11776 O 1107.26 3.4815 2.21055 0
M  V30 11777 H 1106.6 0.651835 0.126521 0
M  V30 11778 H 1109.13 2.0317 -0.241445 0
M  V30 11779 H 1109.14 3.82316 1.42473 0
M  V30 11780 H 1107.81 4.14677 0.318749 0
M  V30 11781 H 1106.39 3.21228 1.89387 0
M  V30 11782 N 1108.58 -0.128553 1.57075 0
M  V30 11783 C 1109.99 -0.686713 1.73612 0
M  V30 11784 C 1110.34 -1.80778 0.762478 0
M  V30 11785 O 1109.46 -2.16297 -0.0667779 0
M  V30 11786 C 1110.06 -1.25246 3.148 0
M  V30 11787 C 1108.62 -1.757 3.32876 0
M  V30 11788 C 1107.76 -0.652844 2.69506 0
M  V30 11789 H 1110.71 0.0972859 1.58402 0
M  V30 11790 H 1110.74 -2.1222 3.15821 0
M  V30 11791 H 1110.25 -0.436308 3.8564 0
M  V30 11792 H 1108.35 -2.59824 2.67063 0
M  V30 11793 H 1108.46 -1.87302 4.4097 0
M  V30 11794 H 1106.83 -1.08408 2.30477 0
M  V30 11795 H 1107.61 0.15217 3.42963 0
M  V30 11796 N 1110.05 -1.5248 -0.398459 0
M  V30 11797 C 1111.02 -1.75949 -1.46883 0
M  V30 11798 C 1112.02 -0.629431 -1.47969 0
M  V30 11799 O 1113.21 -0.897407 -1.49306 0
M  V30 11800 C 1110.34 -1.85162 -2.8623 0
M  V30 11801 H 1111.53 -2.71513 -1.2736 0
M  V30 11802 H 1109.08 -1.43058 -0.629619 0
M  V30 11803 H 1109.82 -0.915505 -3.11109 0
M  V30 11804 H 1109.6 -2.67326 -2.86844 0
M  V30 11805 H 1111.09 -2.05025 -3.63805 0
M  V30 11806 N 1111.53 0.65634 -1.43283 0
M  V30 11807 C 1112.95 0.971645 -1.26614 0
M  V30 11808 C 1113.15 2.00662 -0.183612 0
M  V30 11809 O 1112.2 2.48654 0.439003 0
M  V30 11810 C 1113.52 1.45888 -2.6294 0
M  V30 11811 C 1115.06 1.57569 -2.70446 0
M  V30 11812 C 1115.54 2.09684 -4.07181 0
M  V30 11813 N 1117.03 2.16991 -4.0923 0
M  V30 11814 C 1117.77 2.5843 -5.11861 0
M  V30 11815 N 1117.26 2.99188 -6.24867 0
M  V30 11816 N 1119.05 2.58342 -4.99215 0
M  V30 11817 H 1111.21 -0.028573 -2.12381 0
M  V30 11818 H 1113.47 0.0497918 -0.946691 0
M  V30 11819 H 1113.17 0.772823 -3.43104 0
M  V30 11820 H 1113.05 2.43445 -2.88122 0
M  V30 11821 H 1115.44 2.25277 -1.90616 0
M  V30 11822 H 1115.52 0.584529 -2.49032 0
M  V30 11823 H 1115.16 1.42579 -4.87477 0
M  V30 11824 H 1115.09 3.09625 -4.25958 0
M  V30 11825 H 1117.58 1.88278 -3.27658 0
M  V30 11826 H 1117.89 3.29549 -6.99012 0
M  V30 11827 H 1116.24 2.97 -6.28344 0
M  V30 11828 H 1119.43 2.25875 -4.09998 0
M  V30 11829 H 1119.6 2.90316 -5.79328 0
M  V30 11830 N 1113.01 1.29761 0.894412 0
M  V30 11831 C 1114.42 1.16275 1.46072 0
M  V30 11832 C 1114.77 -0.240123 1.94725 0
M  V30 11833 O 1113.9 -1.13606 1.84181 0
M  V30 11834 C 1114.49 2.10471 2.65494 0
M  V30 11835 C 1113.05 2.00992 3.18244 0
M  V30 11836 C 1112.2 2.01094 1.90936 0
M  V30 11837 H 1115.15 1.42169 0.705243 0
M  V30 11838 H 1115.17 1.68003 3.41402 0
M  V30 11839 H 1114.68 3.12566 2.30053 0
M  V30 11840 H 1112.78 1.02005 3.58365 0
M  V30 11841 H 1112.9 2.88916 3.82184 0
M  V30 11842 H 1111.26 1.45764 2.08866 0
M  V30 11843 H 1112.04 3.04902 1.57764 0
M  V30 11844 N 1114.49 -1.10549 1.12324 0
M  V30 11845 C 1115.9 -1.34508 0.85905 0
M  V30 11846 C 1116.1 -1.94901 -0.511468 0
M  V30 11847 O 1115.16 -2.18793 -1.2604 0
M  V30 11848 C 1116.47 -2.26788 1.97453 0
M  V30 11849 C 1118.02 -2.40328 2.00528 0
M  V30 11850 C 1118.5 -3.35936 3.11305 0
M  V30 11851 N 1119.99 -3.43504 3.1074 0
M  V30 11852 C 1120.72 -4.17449 3.93096 0
M  V30 11853 N 1120.22 -4.9429 4.85437 0
M  V30 11854 N 1122.01 -4.13055 3.81237 0
M  V30 11855 H 1114.16 -0.697171 2.00632 0
M  V30 11856 H 1116.42 -0.369548 0.873005 0
M  V30 11857 H 1116.13 -1.89621 2.96204 0
M  V30 11858 H 1116 -3.27086 1.87869 0
M  V30 11859 H 1118.39 -2.76765 1.02397 0
M  V30 11860 H 1118.47 -1.39849 2.14186 0
M  V30 11861 H 1118.12 -3.00225 4.09667 0
M  V30 11862 H 1118.05 -4.36291 2.94886 0
M  V30 11863 H 1120.54 -2.88702 2.43843 0
M  V30 11864 H 1120.85 -5.48109 5.4479 0
M  V30 11865 H 1119.2 -4.93419 4.89452 0
M  V30 11866 H 1122.39 -3.52117 3.08433 0
M  V30 11867 H 1122.56 -4.70424 4.45651 0
M  V30 11868 N 1115.97 -0.914965 -1.28321 0
M  V30 11869 C 1117.21 -0.547665 -1.94538 0
M  V30 11870 C 1117.53 0.911834 -1.72368 0
M  V30 11871 O 1116.8 1.64481 -1.06408 0
M  V30 11872 H 1115.38 -0.199549 -0.719853 0
M  V30 11873 H 1118.05 -1.16459 -1.5628 0
M  V30 11874 H 1117.14 -0.743138 -3.03124 0
M  V30 11875 N 1117.44 1.42219 -0.679077 0
M  V30 11876 C 1118.67 2.06333 -0.210097 0
M  V30 11877 C 1119.09 1.50703 1.12562 0
M  V30 11878 O 1118.45 0.627241 1.70104 0
M  V30 11879 C 1118.5 3.60243 -0.160322 0
M  V30 11880 O 1117.6 4.03122 0.869872 0
M  V30 11881 H 1116.94 0.655362 -0.106754 0
M  V30 11882 H 1119.47 1.82278 -0.929294 0
M  V30 11883 H 1119.48 4.07997 0.014384 0
M  V30 11884 H 1118.16 4.00106 -1.13526 0
M  V30 11885 H 1116.74 3.66907 0.66586 0
M  V30 11886 N 1118.92 0.422693 1.51826 0
M  V30 11887 C 1119.85 -0.386913 2.30272 0
M  V30 11888 C 1120.83 -1.03411 1.35056 0
M  V30 11889 O 1122.02 -1.04055 1.6397 0
M  V30 11890 C 1119.15 -1.49645 3.13407 0
M  V30 11891 C 1118.1 -0.973532 4.16781 0
M  V30 11892 C 1117.43 -2.1777 4.88344 0
M  V30 11893 C 1118.73 -0.0181194 5.22297 0
M  V30 11894 H 1120.42 0.267697 2.98201 0
M  V30 11895 H 1117.97 0.130186 1.4341 0
M  V30 11896 H 1119.92 -2.06993 3.67059 0
M  V30 11897 H 1118.64 -2.17914 2.43272 0
M  V30 11898 H 1117.3 -0.42237 3.64159 0
M  V30 11899 H 1116.95 -2.84625 4.14726 0
M  V30 11900 H 1116.65 -1.83427 5.58237 0
M  V30 11901 H 1118.18 -2.75699 5.44814 0
M  V30 11902 H 1119.59 -0.500822 5.71108 0
M  V30 11903 H 1117.99 0.237163 5.99631 0
M  V30 11904 H 1119.06 0.923065 4.76033 0
M  V30 11905 N 1120.4 -1.5685 0.153553 0
M  V30 11906 C 1121.65 -1.96625 -0.49665 0
M  V30 11907 C 1121.98 -1.03877 -1.64083 0
M  V30 11908 O 1121.25 -0.0824112 -1.94325 0
M  V30 11909 C 1121.54 -3.46035 -0.996585 0
M  V30 11910 C 1121.39 -4.49561 0.146551 0
M  V30 11911 C 1122.71 -3.98104 -1.8762 0
M  V30 11912 H 1119.83 -0.714917 -0.179059 0
M  V30 11913 H 1122.47 -1.88527 0.236104 0
M  V30 11914 H 1120.62 -3.53066 -1.621 0
M  V30 11915 H 1122.29 -4.54604 0.783108 0
M  V30 11916 H 1120.53 -4.26271 0.804727 0
M  V30 11917 H 1121.21 -5.51456 -0.245078 0
M  V30 11918 H 1123.68 -3.93593 -1.34997 0
M  V30 11919 H 1122.56 -5.03098 -2.19508 0
M  V30 11920 H 1122.82 -3.40852 -2.81554 0
M  V30 11921 N 1121.88 0.120221 -1.57141 0
M  V30 11922 C 1123.1 0.84637 -1.89344 0
M  V30 11923 C 1123.53 1.72702 -0.745365 0
M  V30 11924 O 1122.89 1.7873 0.304155 0
M  V30 11925 C 1122.93 1.65671 -3.20289 0
M  V30 11926 O 1122.04 2.76353 -3.06109 0
M  V30 11927 H 1121.38 0.234132 -0.621352 0
M  V30 11928 H 1123.91 0.102986 -2.04341 0
M  V30 11929 H 1123.92 2.04621 -3.52979 0
M  V30 11930 H 1122.59 1.01023 -4.03444 0
M  V30 11931 H 1121.17 2.40615 -2.84884 0
M  V30 11932 N 1123.36 1.52689 0.390367 0
M  V30 11933 C 1124.29 1.80338 1.48325 0
M  V30 11934 C 1125.27 0.655338 1.56969 0
M  V30 11935 O 1126.45 0.902792 1.7194 0
M  V30 11936 C 1123.58 1.97101 2.85952 0
M  V30 11937 C 1122.54 3.12783 2.92148 0
M  V30 11938 C 1121.86 3.14798 4.32211 0
M  V30 11939 C 1123.16 4.5188 2.61919 0
M  V30 11940 H 1124.86 2.71857 1.25437 0
M  V30 11941 H 1122.4 1.30813 0.601995 0
M  V30 11942 H 1124.36 2.15027 3.62411 0
M  V30 11943 H 1123.08 1.02271 3.10174 0
M  V30 11944 H 1121.74 2.94638 2.18137 0
M  V30 11945 H 1121.39 2.17653 4.53471 0
M  V30 11946 H 1121.09 3.92507 4.37278 0
M  V30 11947 H 1122.61 3.34877 5.10578 0
M  V30 11948 H 1124.02 4.70134 3.28096 0
M  V30 11949 H 1122.42 5.31647 2.78337 0
M  V30 11950 H 1123.49 4.58689 1.57266 0
M  V30 11951 N 1124.83 -0.648732 1.43629 0
M  V30 11952 C 1125.76 -1.77298 1.51947 0
M  V30 11953 C 1126.75 -1.65942 0.373785 0
M  V30 11954 O 1127.93 -1.8497 0.591596 0
M  V30 11955 C 1125.06 -3.15749 1.44638 0
M  V30 11956 C 1124.01 -3.41872 2.57502 0
M  V30 11957 C 1123.34 -4.8017 2.35246 0
M  V30 11958 C 1124.64 -3.36173 3.99731 0
M  V30 11959 H 1126.33 -1.70594 2.46045 0
M  V30 11960 H 1123.88 -0.819306 1.1842 0
M  V30 11961 H 1125.83 -3.94156 1.4906 0
M  V30 11962 H 1124.56 -3.23194 0.470466 0
M  V30 11963 H 1123.22 -2.65838 2.5244 0
M  V30 11964 H 1122.86 -4.84297 1.35887 0
M  V30 11965 H 1122.56 -4.9861 3.10906 0
M  V30 11966 H 1124.09 -5.6083 2.41459 0
M  V30 11967 H 1125.5 -4.0451 4.06257 0
M  V30 11968 H 1123.9 -3.66148 4.75453 0
M  V30 11969 H 1124.97 -2.34277 4.24549 0
M  V30 11970 N 1126.31 -1.30234 -0.887518 0
M  V30 11971 C 1127.56 -1.18675 -1.63587 0
M  V30 11972 C 1127.88 0.259342 -1.93268 0
M  V30 11973 O 1127.15 1.17523 -1.56733 0
M  V30 11974 H 1125.73 -0.436224 -0.606397 0
M  V30 11975 H 1128.39 -1.63326 -1.06351 0
M  V30 11976 H 1127.49 -1.74575 -2.58708 0
M  V30 11977 N 1127.79 1.09952 -1.12909 0
M  V30 11978 C 1128.7 2.19999 -0.81471 0
M  V30 11979 C 1129.72 1.72864 0.19851 0
M  V30 11980 O 1130.89 2.01376 0.0308832 0
M  V30 11981 C 1127.96 3.45573 -0.279363 0
M  V30 11982 C 1127.02 4.07417 -1.35314 0
M  V30 11983 C 1126.25 5.26996 -0.843247 0
M  V30 11984 O 1126.47 5.69495 0.321164 0
M  V30 11985 O 1125.41 5.79826 -1.61511 0
M  V30 11986 H 1129.23 2.49333 -1.73398 0
M  V30 11987 H 1126.82 1.18784 -0.906128 0
M  V30 11988 H 1128.7 4.21398 0.0140531 0
M  V30 11989 H 1127.38 3.17854 0.612401 0
M  V30 11990 H 1126.28 3.33253 -1.6998 0
M  V30 11991 H 1127.62 4.39349 -2.21885 0
M  V30 11992 N 1129.27 0.921757 1.27833 0
M  V30 11993 C 1130.18 0.421668 2.30779 0
M  V30 11994 C 1131.19 -0.494686 1.6682 0
M  V30 11995 O 1132.37 -0.378935 1.97803 0
M  V30 11996 C 1129.44 -0.322928 3.45193 0
M  V30 11997 C 1128.5 0.627618 4.24687 0
M  V30 11998 C 1127.73 -0.0815385 5.33638 0
M  V30 11999 O 1127.95 -1.30193 5.55343 0
M  V30 12000 O 1126.89 0.58725 5.99028 0
M  V30 12001 H 1130.71 1.2763 2.7558 0
M  V30 12002 H 1128.3 0.686877 1.32674 0
M  V30 12003 H 1130.18 -0.743145 4.14796 0
M  V30 12004 H 1128.85 -1.15326 3.02459 0
M  V30 12005 H 1127.76 1.09739 3.57642 0
M  V30 12006 H 1129.09 1.425 4.71121 0
M  V30 12007 N 1130.75 -1.41857 0.686609 0
M  V30 12008 C 1131.68 -2.33481 0.0298353 0
M  V30 12009 C 1132.66 -1.51329 -0.776756 0
M  V30 12010 O 1133.84 -1.79895 -0.731535 0
M  V30 12011 C 1130.97 -3.35065 -0.913707 0
M  V30 12012 C 1129.93 -4.2746 -0.214861 0
M  V30 12013 C 1129.25 -5.19346 -1.27215 0
M  V30 12014 C 1130.55 -5.14252 0.913367 0
M  V30 12015 H 1132.25 -2.8865 0.795067 0
M  V30 12016 H 1129.79 -1.38792 0.383785 0
M  V30 12017 H 1131.75 -3.98082 -1.38234 0
M  V30 12018 H 1130.47 -2.78226 -1.7105 0
M  V30 12019 H 1129.13 -3.65855 0.233651 0
M  V30 12020 H 1128.78 -4.58827 -2.06124 0
M  V30 12021 H 1128.48 -5.81996 -0.80961 0
M  V30 12022 H 1130 -5.85239 -1.74147 0
M  V30 12023 H 1131.41 -5.70887 0.525424 0
M  V30 12024 H 1129.81 -5.85796 1.30244 0
M  V30 12025 H 1130.88 -4.51949 1.75699 0
M  V30 12026 N 1132.22 -0.430739 -1.51599 0
M  V30 12027 C 1133.64 0.0339139 -1.86669 0
M  V30 12028 C 1133.99 1.42533 -1.34829 0
M  V30 12029 O 1133.11 2.04889 -0.696376 0
M  V30 12030 C 1133.71 0.0683174 -3.38731 0
M  V30 12031 C 1132.27 0.477363 -3.73361 0
M  V30 12032 C 1131.41 -0.334258 -2.75278 0
M  V30 12033 H 1134.36 -0.646875 -1.44918 0
M  V30 12034 H 1134.38 0.879179 -3.70204 0
M  V30 12035 H 1133.9 -0.944501 -3.76432 0
M  V30 12036 H 1132 1.49603 -3.41247 0
M  V30 12037 H 1132.11 0.206744 -4.78654 0
M  V30 12038 H 1130.47 0.206503 -2.53861 0
M  V30 12039 H 1131.26 -1.34583 -3.1582 0
M  V30 12040 N 1133.7 1.56767 -0.161869 0
M  V30 12041 C 1135.11 1.83265 0.356466 0
M  V30 12042 C 1135.46 1.08127 1.63716 0
M  V30 12043 O 1134.59 0.33127 2.13849 0
M  V30 12044 C 1135.18 3.32437 0.653521 0
M  V30 12045 C 1133.74 3.59465 1.11633 0
M  V30 12046 C 1132.89 2.76909 0.147204 0
M  V30 12047 H 1135.84 1.53926 -0.386308 0
M  V30 12048 H 1135.86 3.49401 1.50662 0
M  V30 12049 H 1135.37 3.87098 -0.278766 0
M  V30 12050 H 1133.48 3.10206 2.06404 0
M  V30 12051 H 1133.59 4.67853 1.03202 0
M  V30 12052 H 1131.95 2.46457 0.642739 0
M  V30 12053 H 1132.74 3.34346 -0.778938 0
M  V30 12054 N 1135.18 -0.111886 1.57202 0
M  V30 12055 C 1136.43 -0.818411 1.85225 0
M  V30 12056 C 1136.76 -1.79542 0.747991 0
M  V30 12057 O 1136.01 -1.93965 -0.260013 0
M  V30 12058 C 1136.31 -1.59644 3.19763 0
M  V30 12059 C 1135.98 -0.76308 4.44396 0
M  V30 12060 C 1134.64 -0.53329 4.78236 0
M  V30 12061 C 1136.99 -0.18266 5.2088 0
M  V30 12062 C 1134.32 0.287056 5.85997 0
M  V30 12063 C 1136.67 0.624916 6.29506 0
M  V30 12064 C 1135.33 0.864955 6.61872 0
M  V30 12065 H 1134.6 -0.299478 0.677786 0
M  V30 12066 H 1137.25 -0.0805082 1.91331 0
M  V30 12067 H 1135.56 -2.40545 3.09266 0
M  V30 12068 H 1137.25 -2.1472 3.38669 0
M  V30 12069 H 1133.84 -0.952278 4.17887 0
M  V30 12070 H 1138.03 -0.34739 4.95083 0
M  V30 12071 H 1133.28 0.482179 6.09496 0
M  V30 12072 H 1137.46 1.08162 6.87949 0
M  V30 12073 H 1135.08 1.50244 7.45205 0
M  V30 12074 N 1136.66 -1.52894 -0.382264 0
M  V30 12075 C 1137.88 -1.72453 -1.15216 0
M  V30 12076 C 1138.31 -0.444925 -1.82762 0
M  V30 12077 O 1137.67 0.599825 -1.7109 0
M  V30 12078 C 1137.71 -2.87939 -2.17079 0
M  V30 12079 O 1136.82 -2.55383 -3.23811 0
M  V30 12080 H 1136.16 -0.57324 -0.335099 0
M  V30 12081 H 1138.69 -1.99713 -0.444495 0
M  V30 12082 H 1138.7 -3.13628 -2.60963 0
M  V30 12083 H 1137.37 -3.80765 -1.67305 0
M  V30 12084 H 1135.95 -2.40457 -2.85018 0
M  V30 12085 N 1138.14 0.641106 -1.43971 0
M  V30 12086 C 1139.1 1.73539 -1.49723 0
M  V30 12087 C 1140.1 1.56235 -0.380438 0
M  V30 12088 O 1141.29 1.61912 -0.642673 0
M  V30 12089 C 1138.42 3.1253 -1.36153 0
M  V30 12090 H 1139.62 1.69816 -2.47189 0
M  V30 12091 H 1137.17 0.853867 -1.30915 0
M  V30 12092 H 1137.9 3.21856 -0.39742 0
M  V30 12093 H 1137.69 3.26496 -2.17124 0
M  V30 12094 H 1139.18 3.92303 -1.43138 0
M  V30 12095 N 1139.62 1.30703 0.880598 0
M  V30 12096 C 1140.55 1.20033 2.00286 0
M  V30 12097 C 1141.53 0.0899614 1.69862 0
M  V30 12098 O 1142.71 0.272747 1.92275 0
M  V30 12099 C 1139.84 0.895902 3.35546 0
M  V30 12100 C 1138.8 1.96468 3.80242 0
M  V30 12101 C 1138.12 1.51316 5.12843 0
M  V30 12102 C 1139.42 3.37637 3.98496 0
M  V30 12103 H 1141.12 2.13922 2.0947 0
M  V30 12104 H 1138.66 1.02989 1.00644 0
M  V30 12105 H 1140.61 0.807899 4.13583 0
M  V30 12106 H 1139.34 -0.0786636 3.26505 0
M  V30 12107 H 1138 2.0424 3.04437 0
M  V30 12108 H 1137.65 0.52674 5.00234 0
M  V30 12109 H 1137.35 2.22807 5.43719 0
M  V30 12110 H 1138.87 1.43903 5.93401 0
M  V30 12111 H 1140.28 3.326 4.66959 0
M  V30 12112 H 1138.68 4.07253 4.40755 0
M  V30 12113 H 1139.75 3.79205 3.02211 0
M  V30 12114 N 1141.09 -1.09351 1.1349 0
M  V30 12115 C 1142.34 -1.81812 0.898452 0
M  V30 12116 C 1142.67 -1.85525 -0.573959 0
M  V30 12117 O 1141.95 -1.32403 -1.42477 0
M  V30 12118 C 1142.23 -3.27921 1.48794 0
M  V30 12119 C 1142.08 -3.32476 3.02952 0
M  V30 12120 C 1143.4 -4.24625 1.15678 0
M  V30 12121 H 1140.52 -0.660074 0.327829 0
M  V30 12122 H 1143.16 -1.28091 1.40331 0
M  V30 12123 H 1141.31 -3.738 1.05858 0
M  V30 12124 H 1142.99 -2.94994 3.54649 0
M  V30 12125 H 1141.23 -2.72037 3.37903 0
M  V30 12126 H 1141.9 -4.35409 3.39298 0
M  V30 12127 H 1144.38 -3.87036 1.52781 0
M  V30 12128 H 1143.25 -5.25194 1.59571 0
M  V30 12129 H 1143.51 -4.42044 0.0705933 0
M  V30 12130 N 1142.57 -0.928524 -1.27343 0
M  V30 12131 C 1143.8 -0.58516 -1.98974 0
M  V30 12132 C 1144.22 0.829964 -1.68799 0
M  V30 12133 O 1143.58 1.55705 -0.928738 0
M  V30 12134 C 1143.63 -0.818662 -3.51184 0
M  V30 12135 O 1142.73 0.115355 -4.12239 0
M  V30 12136 H 1142.07 -0.225203 -0.624644 0
M  V30 12137 H 1144.6 -1.248 -1.6213 0
M  V30 12138 H 1144.61 -0.734554 -4.01333 0
M  V30 12139 H 1143.29 -1.8502 -3.72479 0
M  V30 12140 H 1141.86 -0.0187371 -3.72895 0
M  V30 12141 N 1144.05 1.41491 -0.694123 0
M  V30 12142 C 1145.27 2.06099 -0.23197 0
M  V30 12143 C 1145.7 1.51888 1.10958 0
M  V30 12144 O 1145.06 0.645247 1.69429 0
M  V30 12145 C 1145.11 3.60053 -0.198522 0
M  V30 12146 O 1144.21 4.04021 0.827067 0
M  V30 12147 H 1143.55 0.654193 -0.113699 0
M  V30 12148 H 1146.08 1.81282 -0.948575 0
M  V30 12149 H 1146.09 4.0799 -0.0288904 0
M  V30 12150 H 1144.77 3.98879 -1.17764 0
M  V30 12151 H 1143.34 3.67593 0.626908 0
M  V30 12152 N 1145.53 0.438773 1.51369 0
M  V30 12153 C 1146.94 -0.0240139 1.86685 0
M  V30 12154 C 1147.29 -1.41816 1.35583 0
M  V30 12155 O 1146.41 -2.04517 0.707232 0
M  V30 12156 C 1147.01 -0.0503527 3.38763 0
M  V30 12157 C 1145.57 -0.457556 3.73609 0
M  V30 12158 C 1144.72 0.348852 2.75097 0
M  V30 12159 H 1147.67 0.654552 1.44573 0
M  V30 12160 H 1147.69 -0.859534 3.70665 0
M  V30 12161 H 1147.2 0.964451 3.75925 0
M  V30 12162 H 1145.3 -1.47791 3.42036 0
M  V30 12163 H 1145.41 -0.181357 4.78757 0
M  V30 12164 H 1143.78 -0.193037 2.53967 0
M  V30 12165 H 1144.56 1.36256 3.15102 0
M  V30 12166 N 1147.01 -1.56678 0.170181 0
M  V30 12167 C 1148.23 -2.0166 -0.484543 0
M  V30 12168 C 1148.66 -1.04962 -1.56091 0
M  V30 12169 O 1148.01 -0.0289887 -1.81277 0
M  V30 12170 C 1148.06 -3.45252 -1.04084 0
M  V30 12171 O 1147.17 -3.51623 -2.15488 0
M  V30 12172 H 1146.51 -0.653765 -0.116135 0
M  V30 12173 H 1149.04 -2.02761 0.273737 0
M  V30 12174 H 1149.05 -3.84534 -1.36373 0
M  V30 12175 H 1147.72 -4.15131 -0.252738 0
M  V30 12176 H 1146.3 -3.242 -1.84252 0
M  V30 12177 N 1148.48 0.103547 -1.57259 0
M  V30 12178 C 1149.41 1.12714 -2.04494 0
M  V30 12179 C 1150.39 1.42278 -0.932255 0
M  V30 12180 O 1151.58 1.52453 -1.20298 0
M  V30 12181 C 1148.71 2.44927 -2.46228 0
M  V30 12182 C 1147.66 2.2979 -3.61082 0
M  V30 12183 C 1146.99 3.67105 -3.88765 0
M  V30 12184 C 1148.29 1.7455 -4.9227 0
M  V30 12185 H 1149.98 0.734198 -2.90258 0
M  V30 12186 H 1147.53 0.351725 -1.39638 0
M  V30 12187 H 1149.48 3.16798 -2.77879 0
M  V30 12188 H 1148.21 2.8614 -1.57453 0
M  V30 12189 H 1146.87 1.60366 -3.29664 0
M  V30 12190 H 1146.51 4.05831 -2.97171 0
M  V30 12191 H 1146.21 3.57825 -4.66084 0
M  V30 12192 H 1147.74 4.40456 -4.22884 0
M  V30 12193 H 1149.15 2.36253 -5.22358 0
M  V30 12194 H 1147.55 1.76051 -5.73695 0
M  V30 12195 H 1148.62 0.704242 -4.79759 0
M  V30 12196 N 1149.96 1.53094 0.37415 0
M  V30 12197 C 1151.19 1.73061 1.143 0
M  V30 12198 C 1151.61 0.454611 1.82524 0
M  V30 12199 O 1150.97 -0.590743 1.71406 0
M  V30 12200 C 1151.02 2.89086 2.15549 0
M  V30 12201 O 1150.12 2.57096 3.22452 0
M  V30 12202 H 1149.46 0.575009 0.332055 0
M  V30 12203 H 1151.99 1.99946 0.433897 0
M  V30 12204 H 1152 3.15007 2.59296 0
M  V30 12205 H 1150.68 3.81647 1.65283 0
M  V30 12206 H 1149.25 2.41965 2.83738 0
M  V30 12207 N 1151.44 -0.633461 1.44309 0
M  V30 12208 C 1152.85 -1.21504 1.41752 0
M  V30 12209 C 1153.2 -1.95758 0.131667 0
M  V30 12210 O 1152.33 -2.02311 -0.768072 0
M  V30 12211 C 1152.92 -2.21005 2.56792 0
M  V30 12212 C 1151.48 -2.74596 2.57438 0
M  V30 12213 C 1150.63 -1.49555 2.33513 0
M  V30 12214 H 1153.58 -0.424277 1.52923 0
M  V30 12215 H 1153.6 -3.03563 2.29412 0
M  V30 12216 H 1153.11 -1.66934 3.50364 0
M  V30 12217 H 1151.21 -3.32676 1.67801 0
M  V30 12218 H 1151.33 -3.20794 3.55849 0
M  V30 12219 H 1149.69 -1.77605 1.82561 0
M  V30 12220 H 1150.47 -0.973899 3.29196 0
M  V30 12221 N 1152.92 -1.31168 -0.873655 0
M  V30 12222 C 1154.14 -1.23728 -1.66452 0
M  V30 12223 C 1154.57 0.194869 -1.87088 0
M  V30 12224 O 1153.93 1.1397 -1.40998 0
M  V30 12225 C 1153.97 -1.98285 -3.0119 0
M  V30 12226 O 1153.08 -1.31767 -3.90783 0
M  V30 12227 H 1152.42 -0.427362 -0.508191 0
M  V30 12228 H 1154.95 -1.73176 -1.08955 0
M  V30 12229 H 1154.96 -2.0774 -3.51153 0
M  V30 12230 H 1153.63 -3.02437 -2.8549 0
M  V30 12231 H 1152.21 -1.3074 -3.4923 0
M  V30 12232 N 1154.4 1.08748 -1.14068 0
M  V30 12233 C 1155.33 2.17591 -0.84714 0
M  V30 12234 C 1156.31 1.68962 0.196415 0
M  V30 12235 O 1157.49 1.94125 0.0538415 0
M  V30 12236 C 1154.62 3.45823 -0.320005 0
M  V30 12237 C 1153.58 4.07824 -1.2986 0
M  V30 12238 C 1152.9 5.30965 -0.630925 0
M  V30 12239 C 1154.2 4.49512 -2.65963 0
M  V30 12240 H 1155.9 2.42404 -1.75729 0
M  V30 12241 H 1153.44 1.16502 -0.846356 0
M  V30 12242 H 1155.4 4.21276 -0.102271 0
M  V30 12243 H 1154.12 3.20553 0.625561 0
M  V30 12244 H 1152.78 3.34398 -1.50245 0
M  V30 12245 H 1152.43 5.01979 0.320337 0
M  V30 12246 H 1152.13 5.73402 -1.28388 0
M  V30 12247 H 1153.65 6.09136 -0.422635 0
M  V30 12248 H 1155.06 5.16159 -2.49506 0
M  V30 12249 H 1153.46 5.02857 -3.27498 0
M  V30 12250 H 1154.53 3.6157 -3.23102 0
M  V30 12251 N 1155.87 0.935264 1.26849 0
M  V30 12252 C 1157.1 0.595704 1.98661 0
M  V30 12253 C 1157.52 -0.821001 1.69237 0
M  V30 12254 O 1156.88 -1.55211 0.936982 0
M  V30 12255 C 1156.93 0.837275 3.50745 0
M  V30 12256 O 1156.03 -0.0934914 4.12294 0
M  V30 12257 H 1155.38 0.228512 0.623441 0
M  V30 12258 H 1157.91 1.25658 1.61466 0
M  V30 12259 H 1157.92 0.755827 4.00938 0
M  V30 12260 H 1156.59 1.86993 3.71492 0
M  V30 12261 H 1155.17 0.0385124 3.7288 0
M  V30 12262 N 1157.35 -1.41121 0.701616 0
M  V30 12263 C 1158.76 -1.84122 0.309208 0
M  V30 12264 C 1159.11 -1.58695 -1.15371 0
M  V30 12265 O 1158.24 -1.06053 -1.88631 0
M  V30 12266 C 1158.83 -3.34233 0.554429 0
M  V30 12267 C 1157.39 -3.7578 0.215876 0
M  V30 12268 C 1156.54 -2.6447 0.833729 0
M  V30 12269 H 1159.49 -1.30587 0.901822 0
M  V30 12270 H 1159.51 -3.8005 -0.18491 0
M  V30 12271 H 1159.02 -3.52707 1.61923 0
M  V30 12272 H 1157.13 -3.62905 -0.844421 0
M  V30 12273 H 1157.24 -4.74319 0.675118 0
M  V30 12274 H 1155.6 -2.5334 0.262851 0
M  V30 12275 H 1156.39 -2.85761 1.90252 0
M  V30 12276 N 1158.83 -0.446794 -1.51134 0
M  V30 12277 C 1159.79 0.348311 -2.26538 0
M  V30 12278 C 1160.79 0.941566 -1.3035 0
M  V30 12279 O 1161.98 0.814537 -1.53984 0
M  V30 12280 C 1159.12 1.49371 -3.06433 0
M  V30 12281 H 1160.31 -0.312648 -2.98266 0
M  V30 12282 H 1157.86 -0.200201 -1.55013 0
M  V30 12283 H 1158.6 2.19045 -2.39144 0
M  V30 12284 H 1158.38 1.07439 -3.77093 0
M  V30 12285 H 1159.87 2.05522 -3.63525 0
M  V30 12286 N 1160.31 1.56586 -0.178487 0
M  V30 12287 C 1161.24 2.21313 0.744486 0
M  V30 12288 C 1162.22 1.17098 1.23377 0
M  V30 12289 O 1163.4 1.45551 1.28563 0
M  V30 12290 C 1160.53 2.8595 1.97103 0
M  V30 12291 C 1159.49 3.96266 1.61732 0
M  V30 12292 C 1158.81 4.47987 2.91911 0
M  V30 12293 C 1160.11 5.15503 0.839868 0
M  V30 12294 H 1161.81 2.98698 0.204938 0
M  V30 12295 H 1159.35 1.43672 0.0971306 0
M  V30 12296 H 1161.31 3.29909 2.6218 0
M  V30 12297 H 1160.03 2.05946 2.53484 0
M  V30 12298 H 1158.69 3.52974 0.990208 0
M  V30 12299 H 1158.34 3.64765 3.46346 0
M  V30 12300 H 1158.04 5.22413 2.68995 0
M  V30 12301 H 1159.56 4.94637 3.58004 0
M  V30 12302 H 1160.98 5.5611 1.39337 0
M  V30 12303 H 1159.37 5.95891 0.709473 0
M  V30 12304 H 1160.44 4.84628 -0.162396 0
M  V30 12305 N 1161.79 -0.095206 1.57312 0
M  V30 12306 C 1162.75 -1.09974 2.01093 0
M  V30 12307 C 1163.75 -1.32954 0.904424 0
M  V30 12308 O 1164.94 -1.29069 1.16991 0
M  V30 12309 C 1162.07 -2.4489 2.37153 0
M  V30 12310 H 1163.26 -0.722906 2.91057 0
M  V30 12311 H 1160.82 -0.340249 1.52552 0
M  V30 12312 H 1161.55 -2.8745 1.50143 0
M  V30 12313 H 1161.34 -2.29559 3.17876 0
M  V30 12314 H 1162.83 -3.17141 2.71683 0
M  V30 12315 N 1163.26 -1.53291 -0.366026 0
M  V30 12316 C 1164.51 -1.69117 -1.10653 0
M  V30 12317 C 1164.83 -0.445327 -1.89847 0
M  V30 12318 O 1164.1 0.540616 -1.88293 0
M  V30 12319 H 1162.68 -0.623446 -0.41149 0
M  V30 12320 H 1165.35 -1.90479 -0.412749 0
M  V30 12321 H 1164.44 -2.55205 -1.79658 0
M  V30 12322 N 1164.74 0.6258 -1.44643 0
M  V30 12323 C 1165.67 1.75086 -1.47911 0
M  V30 12324 C 1166.69 1.58496 -0.37188 0
M  V30 12325 O 1167.88 1.66712 -0.637925 0
M  V30 12326 C 1164.98 3.12874 -1.30243 0
M  V30 12327 C 1164.15 3.55873 -2.54309 0
M  V30 12328 C 1163.21 4.72558 -2.31464 0
M  V30 12329 O 1162.23 4.80599 -3.04981 0
M  V30 12330 N 1163.44 5.64617 -1.34862 0
M  V30 12331 H 1166.2 1.72751 -2.44902 0
M  V30 12332 H 1163.76 0.810531 -1.4015 0
M  V30 12333 H 1165.75 3.88663 -1.12798 0
M  V30 12334 H 1164.32 3.0982 -0.415966 0
M  V30 12335 H 1163.54 2.70237 -2.86994 0
M  V30 12336 H 1164.83 3.81355 -3.36817 0
M  V30 12337 H 1164.23 5.60819 -0.741542 0
M  V30 12338 H 1162.79 6.40013 -1.23394 0
M  V30 12339 N 1166.22 1.31629 0.866686 0
M  V30 12340 C 1167.47 1.21263 1.61678 0
M  V30 12341 C 1167.79 -0.228562 1.93656 0
M  V30 12342 O 1167.06 -1.15014 1.58583 0
M  V30 12343 H 1165.64 0.445817 0.59938 0
M  V30 12344 H 1168.3 1.64998 1.03739 0
M  V30 12345 H 1167.4 1.78669 2.55898 0
M  V30 12346 N 1167.7 -1.08142 1.14644 0
M  V30 12347 C 1168.65 -2.13338 0.804412 0
M  V30 12348 C 1169.63 -1.59554 -0.207664 0
M  V30 12349 O 1170.83 -1.76997 -0.00960233 0
M  V30 12350 C 1167.95 -3.42102 0.286579 0
M  V30 12351 C 1167.04 -4.0276 1.32834 0
M  V30 12352 N 1167.43 -4.37789 2.53327 0
M  V30 12353 C 1165.73 -4.30129 1.17919 0
M  V30 12354 C 1166.43 -4.85748 3.20037 0
M  V30 12355 N 1165.41 -4.84021 2.47436 0
M  V30 12356 H 1169.21 -2.38243 1.72097 0
M  V30 12357 H 1166.72 -1.25501 1.0307 0
M  V30 12358 H 1168.72 -4.16894 0.0232417 0
M  V30 12359 H 1167.38 -3.18645 -0.624142 0
M  V30 12360 H 1168.39 -4.28731 2.90534 0
M  V30 12361 H 1165.07 -4.16212 0.327713 0
M  V30 12362 H 1166.46 -5.22208 4.22786 0
M  V30 12363 N 1169.18 -0.941978 -1.26351 0
M  V30 12364 C 1170.4 -0.606231 -1.98342 0
M  V30 12365 C 1170.83 0.812014 -1.6967 0
M  V30 12366 O 1170.19 1.54712 -0.9452 0
M  V30 12367 C 1170.23 -0.855864 -3.50296 0
M  V30 12368 O 1169.34 0.0716251 -4.12338 0
M  V30 12369 H 1168.68 -0.231815 -0.62222 0
M  V30 12370 H 1171.21 -1.26513 -1.60797 0
M  V30 12371 H 1171.22 -0.777079 -4.00531 0
M  V30 12372 H 1169.89 -1.8896 -3.70496 0
M  V30 12373 H 1168.47 -0.0582866 -3.72854 0
M  V30 12374 N 1170.66 1.40747 -0.709091 0
M  V30 12375 C 1171.62 2.29118 -0.0611607 0
M  V30 12376 C 1172.62 1.45049 0.694081 0
M  V30 12377 O 1173.81 1.66039 0.526952 0
M  V30 12378 C 1170.94 3.28154 0.923447 0
M  V30 12379 H 1172.13 2.87913 -0.839413 0
M  V30 12380 H 1169.69 1.4896 -0.473363 0
M  V30 12381 H 1170.42 2.74366 1.72899 0
M  V30 12382 H 1170.21 3.90207 0.384862 0
M  V30 12383 H 1171.7 3.94343 1.37417 0
M  V30 12384 N 1172.13 0.454803 1.50895 0
M  V30 12385 C 1173.36 -0.106259 2.07128 0
M  V30 12386 C 1173.78 -1.3418 1.31823 0
M  V30 12387 O 1173.14 -1.77667 0.361147 0
M  V30 12388 C 1173.19 -0.389609 3.58489 0
M  V30 12389 O 1172.29 -1.47305 3.85195 0
M  V30 12390 H 1171.63 0.00580588 0.663975 0
M  V30 12391 H 1174.16 0.641163 1.94294 0
M  V30 12392 H 1174.17 -0.634934 4.03029 0
M  V30 12393 H 1172.85 0.513338 4.1272 0
M  V30 12394 H 1171.43 -1.21631 3.52506 0
M  V30 12395 N 1173.61 -1.56489 0.186789 0
M  V30 12396 C 1175.02 -1.83809 -0.327265 0
M  V30 12397 C 1175.37 -1.10718 -1.61976 0
M  V30 12398 O 1174.5 -0.36525 -2.13295 0
M  V30 12399 C 1175.09 -3.33435 -0.600551 0
M  V30 12400 C 1173.65 -3.61195 -1.059 0
M  V30 12401 C 1172.8 -2.77108 -0.103131 0
M  V30 12402 H 1175.75 -1.53292 0.410747 0
M  V30 12403 H 1175.77 -3.51754 -1.45084 0
M  V30 12404 H 1175.28 -3.86605 0.340315 0
M  V30 12405 H 1173.38 -3.13451 -2.01443 0
M  V30 12406 H 1173.5 -4.69435 -0.957458 0
M  V30 12407 H 1171.86 -2.47448 -0.603449 0
M  V30 12408 H 1172.64 -3.33065 0.832031 0
M  V30 12409 N 1175.09 0.086862 -1.5736 0
M  V30 12410 C 1176.04 1.11134 -1.99081 0
M  V30 12411 C 1177.02 1.35318 -0.870506 0
M  V30 12412 O 1178.22 1.35871 -1.13437 0
M  V30 12413 C 1175.34 2.42931 -2.42569 0
M  V30 12414 C 1174.43 2.22085 -3.61302 0
M  V30 12415 N 1174.82 1.71128 -4.75971 0
M  V30 12416 C 1173.12 2.52619 -3.67559 0
M  V30 12417 C 1173.82 1.64745 -5.57883 0
M  V30 12418 N 1172.8 2.10257 -5.01291 0
M  V30 12419 H 1176.6 0.710431 -2.85184 0
M  V30 12420 H 1174.11 0.294168 -1.59714 0
M  V30 12421 H 1176.11 3.17069 -2.7069 0
M  V30 12422 H 1174.77 2.83751 -1.57846 0
M  V30 12423 H 1175.78 1.40207 -4.9856 0
M  V30 12424 H 1172.46 2.96908 -2.93516 0
M  V30 12425 H 1173.85 1.26329 -6.59917 0
M  V30 12426 N 1176.57 1.53483 0.357892 0
M  V30 12427 C 1177.82 1.69701 1.09754 0
M  V30 12428 C 1178.14 0.455389 1.89608 0
M  V30 12429 O 1177.41 -0.530623 1.88577 0
M  V30 12430 H 1175.99 0.62562 0.408178 0
M  V30 12431 H 1178.65 1.90696 0.402641 0
M  V30 12432 H 1177.74 2.56154 1.78302 0
M  V30 12433 N 1178.05 -0.61812 1.44973 0
M  V30 12434 C 1179.46 -1.19994 1.43033 0
M  V30 12435 C 1179.81 -1.95607 0.152422 0
M  V30 12436 O 1178.93 -2.03114 -0.746571 0
M  V30 12437 C 1179.53 -2.18269 2.59122 0
M  V30 12438 C 1178.09 -2.7185 2.60336 0
M  V30 12439 C 1177.23 -1.4707 2.35086 0
M  V30 12440 H 1180.18 -0.408034 1.53365 0
M  V30 12441 H 1180.21 -3.01113 2.32619 0
M  V30 12442 H 1179.72 -1.63208 3.52115 0
M  V30 12443 H 1177.82 -3.30878 1.7132 0
M  V30 12444 H 1177.93 -3.17001 3.59231 0
M  V30 12445 H 1176.3 -1.75658 1.84435 0
M  V30 12446 H 1177.08 -0.938928 3.30211 0
M  V30 12447 N 1179.52 -1.32087 -0.859693 0
M  V30 12448 C 1180.93 -1.20107 -1.42938 0
M  V30 12449 C 1181.29 0.188411 -1.95293 0
M  V30 12450 O 1180.41 1.08683 -1.87128 0
M  V30 12451 C 1181.01 -2.17436 -2.59821 0
M  V30 12452 C 1179.56 -2.09359 -3.12803 0
M  V30 12453 C 1178.71 -2.06086 -1.85537 0
M  V30 12454 H 1181.66 -1.43989 -0.667302 0
M  V30 12455 H 1181.68 -1.76996 -3.36828 0
M  V30 12456 H 1181.2 -3.18555 -2.21685 0
M  V30 12457 H 1179.3 -1.1147 -3.55535 0
M  V30 12458 H 1179.41 -2.98947 -3.74389 0
M  V30 12459 H 1177.77 -1.51251 -2.04928 0
M  V30 12460 H 1178.56 -3.08978 -1.49625 0
M  V30 12461 N 1181 1.07532 -1.15215 0
M  V30 12462 C 1182.42 1.32183 -0.894411 0
M  V30 12463 C 1182.62 1.96188 0.459614 0
M  V30 12464 O 1181.67 2.22057 1.20195 0
M  V30 12465 C 1182.99 2.21473 -2.03397 0
M  V30 12466 C 1184.53 2.34927 -2.06829 0
M  V30 12467 C 1185.01 3.27564 -3.20103 0
M  V30 12468 N 1186.5 3.35144 -3.19738 0
M  V30 12469 C 1187.24 4.0688 -4.04025 0
M  V30 12470 N 1186.73 4.81246 -4.98371 0
M  V30 12471 N 1188.52 4.02802 -3.92055 0
M  V30 12472 H 1180.68 0.643732 -2.0241 0
M  V30 12473 H 1182.94 0.346272 -0.882496 0
M  V30 12474 H 1182.64 1.81701 -3.01127 0
M  V30 12475 H 1182.52 3.2199 -1.96475 0
M  V30 12476 H 1184.91 2.73953 -1.09699 0
M  V30 12477 H 1184.99 1.34121 -2.17819 0
M  V30 12478 H 1184.63 2.89258 -4.17483 0
M  V30 12479 H 1184.56 4.2832 -3.06349 0
M  V30 12480 H 1187.05 2.82135 -2.51412 0
M  V30 12481 H 1187.36 5.33472 -5.59131 0
M  V30 12482 H 1185.71 4.80268 -5.02362 0
M  V30 12483 H 1188.9 3.43816 -3.17661 0
M  V30 12484 H 1189.07 4.58443 -4.57967 0
M  V30 12485 N 1182.48 0.948665 1.2585 0
M  V30 12486 C 1183.72 0.60782 1.95154 0
M  V30 12487 C 1184.08 -0.838703 1.72713 0
M  V30 12488 O 1185.29 -1.28885 2.35886 0
M  V30 12489 C 1183.56 0.949628 3.44553 0
M  V30 12490 S 1185.12 0.720456 4.32845 0
M  V30 12491 H 1181.93 0.223613 0.674921 0
M  V30 12492 H 1184.54 1.22157 1.52636 0
M  V30 12493 H 1183.24 1.99966 3.58388 0
M  V30 12494 H 1182.77 0.325891 3.92048 0
M  V30 12495 H 1184.79 -0.411697 4.94489 0
M  V30 12496 N 1183.96 -1.40369 0.716545 0
M  V30 12497 C 1185.18 -2.05704 0.264729 0
M  V30 12498 C 1185.61 -1.53634 -1.08527 0
M  V30 12499 O 1184.97 -0.67212 -1.68381 0
M  V30 12500 C 1185.01 -3.59692 0.255778 0
M  V30 12501 O 1184.12 -4.05286 -0.762686 0
M  V30 12502 H 1183.46 -0.652301 0.124092 0
M  V30 12503 H 1185.99 -1.7975 0.977295 0
M  V30 12504 H 1186 -4.07892 0.0937944 0
M  V30 12505 H 1184.67 -3.96955 1.24095 0
M  V30 12506 H 1183.25 -3.68543 -0.568347 0
M  V30 12507 N 1185.44 -0.462799 -1.50652 0
M  V30 12508 C 1186.4 0.324264 -2.26895 0
M  V30 12509 C 1187.4 0.927687 -1.31342 0
M  V30 12510 O 1188.59 0.798159 -1.54839 0
M  V30 12511 C 1185.72 1.46113 -3.08 0
M  V30 12512 H 1186.91 -0.344266 -2.97917 0
M  V30 12513 H 1184.47 -0.216631 -1.54791 0
M  V30 12514 H 1185.2 2.16496 -2.41454 0
M  V30 12515 H 1184.99 1.03433 -3.78212 0
M  V30 12516 H 1186.48 2.01655 -3.65684 0
M  V30 12517 N 1186.91 1.56388 -0.195085 0
M  V30 12518 C 1187.88 2.17859 0.712053 0
M  V30 12519 C 1188.88 1.13304 1.141 0
M  V30 12520 O 1190.07 1.38689 1.05409 0
M  V30 12521 C 1187.2 2.78065 1.97213 0
M  V30 12522 H 1188.39 2.9938 0.176529 0
M  V30 12523 H 1185.95 1.56205 0.0545322 0
M  V30 12524 H 1186.68 2.00342 2.55017 0
M  V30 12525 H 1186.47 3.54603 1.67329 0
M  V30 12526 H 1187.96 3.25266 2.619 0
M  V30 12527 N 1188.39 -0.0785156 1.57404 0
M  V30 12528 C 1189.64 -0.774884 1.88061 0
M  V30 12529 C 1189.99 -1.75525 0.787966 0
M  V30 12530 O 1189.29 -1.90462 -0.208514 0
M  V30 12531 C 1189.48 -1.52826 3.23078 0
M  V30 12532 C 1189.31 -0.62236 4.45373 0
M  V30 12533 C 1188.08 -0.261831 5.04621 0
M  V30 12534 C 1190.28 0.077964 5.14241 0
M  V30 12535 N 1188.26 0.650492 6.10444 0
M  V30 12536 C 1189.63 0.847727 6.14177 0
M  V30 12537 C 1191.69 0.150143 4.97674 0
M  V30 12538 C 1190.39 1.68295 6.99335 0
M  V30 12539 C 1192.41 0.972321 5.83352 0
M  V30 12540 C 1191.78 1.73015 6.82821 0
M  V30 12541 H 1187.88 -0.259194 0.737796 0
M  V30 12542 H 1190.46 -0.0366796 1.94665 0
M  V30 12543 H 1188.63 -2.23723 3.17494 0
M  V30 12544 H 1190.36 -2.17311 3.41406 0
M  V30 12545 H 1187.12 -0.613197 4.69614 0
M  V30 12546 H 1187.54 1.0997 6.68009 0
M  V30 12547 H 1192.18 -0.421423 4.20695 0
M  V30 12548 H 1189.9 2.26552 7.75693 0
M  V30 12549 H 1193.49 1.03106 5.72591 0
M  V30 12550 H 1192.37 2.35609 7.47969 0
M  V30 12551 N 1189.87 -1.5367 -0.349747 0
M  V30 12552 C 1190.82 -1.81223 -1.42922 0
M  V30 12553 C 1191.79 -0.657536 -1.52531 0
M  V30 12554 O 1192.97 -0.90134 -1.68168 0
M  V30 12555 C 1190.11 -2.022 -2.79659 0
M  V30 12556 C 1189.23 -3.29915 -2.78891 0
M  V30 12557 C 1188.36 -3.40993 -4.07305 0
M  V30 12558 C 1187.4 -4.6268 -4.00741 0
M  V30 12559 N 1186.54 -4.70826 -5.20833 0
M  V30 12560 H 1191.38 -2.73328 -1.18727 0
M  V30 12561 H 1188.91 -1.35386 -0.57525 0
M  V30 12562 H 1190.87 -2.12351 -3.59114 0
M  V30 12563 H 1189.5 -1.13416 -3.0222 0
M  V30 12564 H 1188.55 -3.28637 -1.91577 0
M  V30 12565 H 1189.87 -4.19459 -2.69917 0
M  V30 12566 H 1189.02 -3.50542 -4.95182 0
M  V30 12567 H 1187.76 -2.49493 -4.19052 0
M  V30 12568 H 1186.76 -4.53215 -3.11249 0
M  V30 12569 H 1187.99 -5.55538 -3.90582 0
M  V30 12570 H 1185.93 -3.82233 -5.33136 0
M  V30 12571 H 1185.85 -5.54297 -5.14092 0
M  V30 12572 H 1187.12 -4.84677 -6.10499 0
M  V30 12573 N 1191.35 0.610423 -1.45298 0
M  V30 12574 C 1192.76 1.19234 -1.43667 0
M  V30 12575 C 1193.11 1.95523 -0.162794 0
M  V30 12576 O 1192.24 2.03507 0.735789 0
M  V30 12577 C 1192.83 2.16892 -2.60276 0
M  V30 12578 C 1191.39 2.70465 -2.61774 0
M  V30 12579 C 1190.54 1.45821 -2.35863 0
M  V30 12580 H 1193.49 0.399895 -1.53579 0
M  V30 12581 H 1193.51 2.99875 -2.34212 0
M  V30 12582 H 1193.02 1.61339 -3.52975 0
M  V30 12583 H 1191.12 3.29965 -1.73072 0
M  V30 12584 H 1191.23 3.15092 -3.60907 0
M  V30 12585 H 1189.6 1.74678 -1.85364 0
M  V30 12586 H 1190.38 0.921403 -3.30704 0
M  V30 12587 N 1192.83 1.32541 0.852676 0
M  V30 12588 C 1194.24 1.20863 1.42299 0
M  V30 12589 C 1194.59 -0.178051 1.9539 0
M  V30 12590 O 1193.71 -1.07689 1.87702 0
M  V30 12591 C 1194.31 2.18811 2.58664 0
M  V30 12592 C 1192.87 2.11015 3.11689 0
M  V30 12593 C 1192.01 2.07067 1.84441 0
M  V30 12594 H 1194.97 1.44341 0.659657 0
M  V30 12595 H 1194.99 1.78779 3.35884 0
M  V30 12596 H 1194.5 3.19726 2.19993 0
M  V30 12597 H 1192.6 1.13354 3.54939 0
M  V30 12598 H 1192.71 3.00929 3.72799 0
M  V30 12599 H 1191.08 1.52335 2.04123 0
M  V30 12600 H 1191.86 3.09767 1.47984 0
M  V30 12601 N 1194.3 -1.0692 1.15784 0
M  V30 12602 C 1195.24 -2.14168 0.816375 0
M  V30 12603 C 1196.25 -1.61872 -0.17357 0
M  V30 12604 O 1197.44 -1.78429 0.0502973 0
M  V30 12605 C 1194.54 -3.38346 0.193682 0
M  V30 12606 C 1193.71 -4.19979 1.22215 0
M  V30 12607 C 1192.77 -5.2253 0.620424 0
M  V30 12608 O 1191.8 -5.54446 1.28757 0
M  V30 12609 N 1193 -5.77434 -0.595811 0
M  V30 12610 H 1195.76 -2.44062 1.73937 0
M  V30 12611 H 1193.32 -1.22865 1.05431 0
M  V30 12612 H 1195.32 -4.04092 -0.22174 0
M  V30 12613 H 1193.89 -3.06129 -0.632735 0
M  V30 12614 H 1193.11 -3.49984 1.81397 0
M  V30 12615 H 1194.39 -4.71329 1.91641 0
M  V30 12616 H 1193.79 -5.5376 -1.15611 0
M  V30 12617 H 1192.35 -6.44788 -0.953529 0
M  V30 12618 N 1195.78 -0.955326 -1.25345 0
M  V30 12619 C 1196.71 -0.494145 -2.28211 0
M  V30 12620 C 1197.69 0.459875 -1.63766 0
M  V30 12621 O 1198.88 0.358679 -1.90859 0
M  V30 12622 C 1196.01 0.228228 -3.46549 0
M  V30 12623 C 1194.96 -0.640601 -4.23179 0
M  V30 12624 C 1194.29 0.212553 -5.34277 0
M  V30 12625 C 1195.59 -1.91906 -4.85767 0
M  V30 12626 H 1197.28 -1.35391 -2.67039 0
M  V30 12627 H 1194.83 -0.652462 -1.2837 0
M  V30 12628 H 1196.78 0.561995 -4.17636 0
M  V30 12629 H 1195.51 1.12224 -3.06714 0
M  V30 12630 H 1194.16 -0.957462 -3.53876 0
M  V30 12631 H 1193.81 1.10634 -4.90682 0
M  V30 12632 H 1193.51 -0.365473 -5.86462 0
M  V30 12633 H 1195.04 0.541271 -6.08196 0
M  V30 12634 H 1196.45 -1.65165 -5.48993 0
M  V30 12635 H 1194.85 -2.44279 -5.48131 0
M  V30 12636 H 1195.92 -2.62173 -4.07914 0
M  V30 12637 N 1197.26 1.39987 -0.723979 0
M  V30 12638 C 1198.19 2.3332 -0.0917282 0
M  V30 12639 C 1199.17 1.53335 0.736361 0
M  V30 12640 O 1200.36 1.81771 0.683582 0
M  V30 12641 C 1197.49 3.3737 0.824549 0
M  V30 12642 C 1196.44 4.2788 0.101452 0
M  V30 12643 C 1195.77 5.22536 1.13401 0
M  V30 12644 C 1197.07 5.11649 -1.04939 0
M  V30 12645 H 1198.76 2.86441 -0.871318 0
M  V30 12646 H 1196.31 1.37725 -0.420448 0
M  V30 12647 H 1198.26 4.01607 1.27631 0
M  V30 12648 H 1196.98 2.82663 1.63613 0
M  V30 12649 H 1195.64 3.65107 -0.330569 0
M  V30 12650 H 1195.29 4.64131 1.93886 0
M  V30 12651 H 1194.99 5.83938 0.65502 0
M  V30 12652 H 1196.52 5.89651 1.58569 0
M  V30 12653 H 1197.93 5.69293 -0.6766 0
M  V30 12654 H 1196.33 5.82137 -1.45729 0
M  V30 12655 H 1197.4 4.47132 -1.8762 0
M  V30 12656 N 1198.74 0.470782 1.50404 0
M  V30 12657 C 1199.99 -0.0859981 2.01517 0
M  V30 12658 C 1200.3 -1.40811 1.35763 0
M  V30 12659 O 1201.51 -2.04982 1.7803 0
M  V30 12660 C 1199.96 -0.203773 3.59323 0
M  V30 12661 C 1199.57 1.10989 4.34034 0
M  V30 12662 C 1201.32 -0.712528 4.18477 0
M  V30 12663 C 1199.22 0.955928 5.83623 0
M  V30 12664 H 1198.15 -0.0359142 0.753144 0
M  V30 12665 H 1200.8 0.605631 1.73218 0
M  V30 12666 H 1199.19 -0.959177 3.84208 0
M  V30 12667 H 1200.36 1.87623 4.20873 0
M  V30 12668 H 1198.67 1.54973 3.86487 0
M  V30 12669 H 1201.27 -0.844745 5.27985 0
M  V30 12670 H 1201.61 -1.70377 3.79838 0
M  V30 12671 H 1202.15 -0.0145179 3.97797 0
M  V30 12672 H 1198.89 1.92054 6.26734 0
M  V30 12673 H 1198.41 0.22997 5.99359 0
M  V30 12674 H 1200.09 0.622423 6.43999 0
M  V30 12675 N 1200.22 -1.56282 0.203376 0
M  V30 12676 C 1201.63 -1.84146 -0.307752 0
M  V30 12677 C 1201.98 -1.12429 -1.60792 0
M  V30 12678 O 1201.1 -0.387852 -2.12896 0
M  V30 12679 C 1201.7 -3.34053 -0.565152 0
M  V30 12680 C 1200.26 -3.62298 -1.02063 0
M  V30 12681 C 1199.41 -2.77202 -0.0737343 0
M  V30 12682 H 1202.36 -1.52848 0.426983 0
M  V30 12683 H 1202.38 -3.53273 -1.41345 0
M  V30 12684 H 1201.89 -3.86222 0.381301 0
M  V30 12685 H 1199.99 -3.1557 -1.98107 0
M  V30 12686 H 1200.1 -4.70424 -0.907614 0
M  V30 12687 H 1198.47 -2.48074 -0.577169 0
M  V30 12688 H 1199.25 -3.32164 0.86731 0
M  V30 12689 N 1201.7 0.070167 -1.57444 0
M  V30 12690 C 1203.11 0.621805 -1.76041 0
M  V30 12691 C 1203.46 1.77824 -0.829047 0
M  V30 12692 O 1202.58 2.16396 -0.0135453 0
M  V30 12693 C 1203.18 1.13476 -3.19231 0
M  V30 12694 C 1201.74 1.63225 -3.39167 0
M  V30 12695 C 1200.88 0.552369 -2.71743 0
M  V30 12696 H 1203.83 -0.156009 -1.57931 0
M  V30 12697 H 1203.86 2.00352 -3.2348 0
M  V30 12698 H 1203.37 0.29288 -3.86993 0
M  V30 12699 H 1201.47 2.49733 -2.76522 0
M  V30 12700 H 1201.58 1.70807 -4.47618 0
M  V30 12701 H 1199.95 0.997797 -2.34342 0
M  V30 12702 H 1200.73 -0.279354 -3.42162 0
M  V30 12703 N 1203.17 1.53854 0.341593 0
M  V30 12704 C 1204.1 1.84966 1.42513 0
M  V30 12705 C 1205.08 0.704944 1.54805 0
M  V30 12706 O 1206.27 0.957036 1.68981 0
M  V30 12707 C 1203.4 2.06099 2.79536 0
M  V30 12708 C 1202.35 3.21919 2.82049 0
M  V30 12709 C 1201.68 3.28389 4.21977 0
M  V30 12710 C 1202.98 4.59984 2.4741 0
M  V30 12711 H 1204.67 2.7571 1.16724 0
M  V30 12712 H 1202.22 1.32662 0.560073 0
M  V30 12713 H 1204.17 2.26448 3.55386 0
M  V30 12714 H 1202.9 1.12087 3.06764 0
M  V30 12715 H 1201.56 3.01429 2.08653 0
M  V30 12716 H 1201.2 2.3197 4.46317 0
M  V30 12717 H 1200.9 4.0622 4.24569 0
M  V30 12718 H 1202.43 3.50951 4.99666 0
M  V30 12719 H 1203.84 4.80334 3.12973 0
M  V30 12720 H 1202.24 5.40233 2.61282 0
M  V30 12721 H 1203.31 4.6346 1.42594 0
M  V30 12722 N 1204.65 -0.602709 1.4562 0
M  V30 12723 C 1205.9 -1.35889 1.49595 0
M  V30 12724 C 1206.22 -1.9449 0.141002 0
M  V30 12725 O 1205.49 -1.77438 -0.830209 0
M  V30 12726 H 1204.07 -0.504478 0.550918 0
M  V30 12727 H 1206.73 -0.707376 1.8161 0
M  V30 12728 H 1205.83 -2.17583 2.2375 0
M  V30 12729 N 1206.13 -1.32992 -0.845635 0
M  V30 12730 C 1207.36 -1.27087 -1.63268 0
M  V30 12731 C 1207.77 0.159481 -1.88125 0
M  V30 12732 O 1207.13 1.09948 -1.45663 0
M  V30 12733 C 1207.18 -2.03649 -2.98679 0
M  V30 12734 O 1206.9 -3.41104 -2.74918 0
M  V30 12735 C 1208.4 -2.04875 -3.93117 0
M  V30 12736 H 1205.62 -0.438107 -0.508236 0
M  V30 12737 H 1208.17 -1.75257 -1.05381 0
M  V30 12738 H 1206.32 -1.59178 -3.53187 0
M  V30 12739 H 1206.74 -3.80405 -3.61099 0
M  V30 12740 H 1208.21 -2.62911 -4.85368 0
M  V30 12741 H 1208.69 -1.03728 -4.26775 0
M  V30 12742 H 1209.29 -2.49334 -3.44547 0
M  V30 12743 N 1207.61 1.06304 -1.1635 0
M  V30 12744 C 1208.85 1.79101 -0.94494 0
M  V30 12745 C 1209.18 1.87217 0.527251 0
M  V30 12746 O 1208.44 1.35992 1.40729 0
M  V30 12747 C 1208.74 3.23589 -1.51741 0
M  V30 12748 C 1208.4 3.35552 -3.0119 0
M  V30 12749 C 1207.06 3.38525 -3.41986 0
M  V30 12750 C 1209.42 3.37482 -3.97184 0
M  V30 12751 C 1206.74 3.41042 -4.77396 0
M  V30 12752 C 1209.1 3.41537 -5.3248 0
M  V30 12753 C 1207.76 3.42792 -5.72757 0
M  V30 12754 H 1207.03 0.655377 -0.345778 0
M  V30 12755 H 1209.68 1.25017 -1.45062 0
M  V30 12756 H 1207.98 3.80525 -0.933164 0
M  V30 12757 H 1209.68 3.78512 -1.32399 0
M  V30 12758 H 1206.27 3.33944 -2.68662 0
M  V30 12759 H 1210.45 3.34397 -3.66732 0
M  V30 12760 H 1205.71 3.40317 -5.07931 0
M  V30 12761 H 1209.88 3.41977 -6.0665 0
M  V30 12762 H 1207.51 3.44495 -6.77663 0
M  V30 12763 N 1209.09 0.96196 1.24836 0
M  V30 12764 C 1210.33 0.619489 1.92371 0
M  V30 12765 C 1210.65 -0.847233 1.75633 0
M  V30 12766 O 1209.92 -1.60419 1.12439 0
M  V30 12767 H 1208.5 0.226129 0.711951 0
M  V30 12768 H 1211.17 1.22179 1.5185 0
M  V30 12769 H 1210.26 0.855128 3.00157 0
M  V30 12770 N 1210.56 -1.39601 0.731392 0
M  V30 12771 C 1211.97 -1.83424 0.348194 0
M  V30 12772 C 1212.33 -1.61106 -1.11979 0
M  V30 12773 O 1211.45 -1.1003 -1.86339 0
M  V30 12774 C 1212.05 -3.32982 0.6252 0
M  V30 12775 C 1210.6 -3.75238 0.295536 0
M  V30 12776 C 1209.75 -2.62642 0.88964 0
M  V30 12777 H 1212.7 -1.28644 0.929318 0
M  V30 12778 H 1212.72 -3.80357 -0.104254 0
M  V30 12779 H 1212.24 -3.49193 1.69368 0
M  V30 12780 H 1210.34 -3.64615 -0.767254 0
M  V30 12781 H 1210.45 -4.72781 0.775576 0
M  V30 12782 H 1208.81 -2.52726 0.316529 0
M  V30 12783 H 1209.6 -2.81661 1.96271 0
M  V30 12784 N 1212.04 -0.478751 -1.50152 0
M  V30 12785 C 1213.45 -0.0254907 -1.86683 0
M  V30 12786 C 1213.8 1.38171 -1.39295 0
M  V30 12787 O 1212.93 2.0257 -0.761207 0
M  V30 12788 C 1213.52 -0.0394819 -3.38777 0
M  V30 12789 C 1212.08 0.35834 -3.7469 0
M  V30 12790 C 1211.23 -0.421667 -2.74075 0
M  V30 12791 H 1214.18 -0.692653 -1.42787 0
M  V30 12792 H 1214.2 0.760957 -3.72813 0
M  V30 12793 H 1213.71 -1.06378 -3.73236 0
M  V30 12794 H 1211.82 1.38671 -3.45834 0
M  V30 12795 H 1211.93 0.0543589 -4.79069 0
M  V30 12796 H 1210.29 0.125634 -2.5439 0
M  V30 12797 H 1211.08 -1.44562 -3.11379 0
M  V30 12798 N 1213.52 1.56172 -0.211661 0
M  V30 12799 C 1214.8 1.8984 0.471195 0
M  V30 12800 C 1215.18 1.1276 1.78461 0
M  V30 12801 O 1214.53 0.233817 2.27301 0
M  V30 12802 C 1214.74 3.42434 0.673814 0
M  V30 12803 C 1216.08 4.13 0.985719 0
M  V30 12804 O 1217.11 3.47977 0.760953 0
M  V30 12805 O 1215.97 5.2795 1.41176 0
M  V30 12806 H 1213.06 0.789008 0.247782 0
M  V30 12807 H 1215.61 1.67802 -0.25311 0
M  V30 12808 H 1214.38 3.90481 -0.253034 0
M  V30 12809 H 1214 3.70218 1.44997 0
M  V30 12810 N 1215 -0.0618163 1.57479 0
M  V30 12811 C 1215.93 -1.07252 2.07411 0
M  V30 12812 C 1216.91 -1.39756 0.969649 0
M  V30 12813 O 1218.09 -1.4921 1.24298 0
M  V30 12814 C 1215.22 -2.38313 2.52635 0
M  V30 12815 C 1214.18 -2.20136 3.67048 0
M  V30 12816 C 1213.5 -3.56668 3.98361 0
M  V30 12817 C 1214.8 -1.61437 4.96725 0
M  V30 12818 H 1216.5 -0.656983 2.92103 0
M  V30 12819 H 1214.04 -0.314579 1.40522 0
M  V30 12820 H 1216 -3.09319 2.86181 0
M  V30 12821 H 1214.72 -2.81865 1.64984 0
M  V30 12822 H 1213.38 -1.51569 3.338 0
M  V30 12823 H 1213.03 -3.97809 3.07826 0
M  V30 12824 H 1212.73 -3.45342 4.75408 0
M  V30 12825 H 1214.25 -4.2909 4.34413 0
M  V30 12826 H 1215.67 -2.2232 5.28438 0
M  V30 12827 H 1214.06 -1.60779 5.78161 0
M  V30 12828 H 1215.13 -0.576795 4.81457 0
M  V30 12829 N 1216.48 -1.54033 -0.333429 0
M  V30 12830 C 1217.7 -1.76031 -1.09672 0
M  V30 12831 C 1218.13 -0.502844 -1.81254 0
M  V30 12832 O 1217.48 0.54509 -1.72912 0
M  V30 12833 C 1217.53 -2.947 -2.07809 0
M  V30 12834 O 1216.64 -2.65555 -3.15522 0
M  V30 12835 H 1215.98 -0.583611 -0.316692 0
M  V30 12836 H 1218.51 -2.01026 -0.380732 0
M  V30 12837 H 1218.52 -3.21771 -2.50853 0
M  V30 12838 H 1217.19 -3.85895 -1.55106 0
M  V30 12839 H 1215.77 -2.49403 -2.77223 0
M  V30 12840 N 1217.95 0.594978 -1.45938 0
M  V30 12841 C 1219.37 1.17703 -1.44924 0
M  V30 12842 C 1219.72 1.9534 -0.183522 0
M  V30 12843 O 1218.84 2.04276 0.714163 0
M  V30 12844 C 1219.44 2.14119 -2.62561 0
M  V30 12845 C 1218 2.67674 -2.64627 0
M  V30 12846 C 1217.14 1.43312 -2.37397 0
M  V30 12847 H 1220.09 0.383583 -1.53995 0
M  V30 12848 H 1220.11 2.97374 -2.3738 0
M  V30 12849 H 1219.63 1.57586 -3.54667 0
M  V30 12850 H 1217.73 3.28111 -1.76562 0
M  V30 12851 H 1217.84 3.11246 -3.64229 0
M  V30 12852 H 1216.2 1.72702 -1.87206 0
M  V30 12853 H 1216.99 0.886276 -3.31663 0
M  V30 12854 N 1219.43 1.33438 0.838571 0
M  V30 12855 C 1220.85 1.12779 1.12929 0
M  V30 12856 C 1221.05 -0.0811188 2.01337 0
M  V30 12857 O 1220.1 -0.761294 2.4075 0
M  V30 12858 C 1221.42 2.41537 1.7911 0
M  V30 12859 C 1222.97 2.47447 1.91674 0
M  V30 12860 C 1223.44 3.76167 2.6127 0
M  V30 12861 N 1224.93 3.7724 2.68783 0
M  V30 12862 C 1225.67 4.7355 3.23323 0
M  V30 12863 N 1225.16 5.80235 3.78549 0
M  V30 12864 N 1226.96 4.61025 3.21578 0
M  V30 12865 H 1219.11 2.10921 0.250187 0
M  V30 12866 H 1221.37 0.931986 0.17351 0
M  V30 12867 H 1221.08 3.30006 1.21609 0
M  V30 12868 H 1220.95 2.53709 2.79127 0
M  V30 12869 H 1223.34 1.59427 2.48328 0
M  V30 12870 H 1223.42 2.39216 0.906058 0
M  V30 12871 H 1223.06 4.64569 2.05275 0
M  V30 12872 H 1222.99 3.81675 3.62811 0
M  V30 12873 H 1225.48 3.00138 2.29621 0
M  V30 12874 H 1225.8 6.49759 4.1837 0
M  V30 12875 H 1224.14 5.83969 3.76836 0
M  V30 12876 H 1227.33 3.76836 2.77691 0
M  V30 12877 H 1227.5 5.36253 3.63781 0
M  V30 12878 N 1220.91 -1.05686 1.16912 0
M  V30 12879 C 1222.16 -1.77987 0.948875 0
M  V30 12880 C 1222.47 -1.8845 -0.524011 0
M  V30 12881 O 1223.68 -2.57442 -0.862322 0
M  V30 12882 C 1222.13 -3.19927 1.64848 0
M  V30 12883 C 1221.74 -3.1761 3.15956 0
M  V30 12884 C 1223.49 -3.96719 1.51044 0
M  V30 12885 C 1221.39 -4.54307 3.78628 0
M  V30 12886 H 1220.32 -0.667119 0.35138 0
M  V30 12887 H 1222.97 -1.18496 1.40111 0
M  V30 12888 H 1221.36 -3.79714 1.12397 0
M  V30 12889 H 1222.53 -2.67369 3.75301 0
M  V30 12890 H 1220.85 -2.54317 3.29715 0
M  V30 12891 H 1223.44 -4.97779 1.95243 0
M  V30 12892 H 1223.79 -4.13748 0.460268 0
M  V30 12893 H 1224.32 -3.43468 2.00685 0
M  V30 12894 H 1221.06 -4.42484 4.8362 0
M  V30 12895 H 1220.58 -5.04717 3.24069 0
M  V30 12896 H 1222.26 -5.23255 3.80543 0
M  V30 12897 N 1222.39 -0.968567 -1.24324 0
M  V30 12898 C 1223.63 -0.631863 -1.92705 0
M  V30 12899 C 1223.97 0.83096 -1.75524 0
M  V30 12900 O 1223.24 1.59795 -1.10887 0
M  V30 12901 C 1223.53 -1.00845 -3.45691 0
M  V30 12902 C 1223.38 -2.52803 -3.72036 0
M  V30 12903 C 1224.7 -0.543647 -4.36729 0
M  V30 12904 H 1221.82 -0.231027 -0.699854 0
M  V30 12905 H 1224.46 -1.20773 -1.46676 0
M  V30 12906 H 1222.61 -0.518434 -3.85025 0
M  V30 12907 H 1224.28 -3.09289 -3.42255 0
M  V30 12908 H 1222.52 -2.95963 -3.17157 0
M  V30 12909 H 1223.19 -2.74203 -4.79079 0
M  V30 12910 H 1225.67 -0.964182 -4.04775 0
M  V30 12911 H 1224.55 -0.8357 -5.42501 0
M  V30 12912 H 1224.81 0.556256 -4.38587 0
M  V30 12913 N 1223.87 1.39211 -0.738786 0
M  V30 12914 C 1225.14 1.9442 -0.214533 0
M  V30 12915 C 1225.52 1.67528 1.28443 0
M  V30 12916 O 1224.87 1.0056 2.05183 0
M  V30 12917 C 1225.08 3.44603 -0.552232 0
M  V30 12918 C 1226.43 4.21602 -0.503663 0
M  V30 12919 O 1227.45 3.52819 -0.489647 0
M  V30 12920 O 1226.31 5.44194 -0.50153 0
M  V30 12921 H 1223.41 0.826011 -0.0404247 0
M  V30 12922 H 1225.95 1.48689 -0.817902 0
M  V30 12923 H 1224.72 3.57626 -1.58806 0
M  V30 12924 H 1224.35 3.9752 0.0799096 0
M  V30 12925 N 1225.34 0.486708 1.49896 0
M  V30 12926 C 1226.59 -0.0627279 2.02003 0
M  V30 12927 C 1226.91 -1.38799 1.36967 0
M  V30 12928 O 1226.18 -1.88868 0.520173 0
M  V30 12929 H 1224.76 -0.0261718 0.746541 0
M  V30 12930 H 1227.43 0.640692 1.84068 0
M  V30 12931 H 1226.52 -0.202856 3.1144 0
M  V30 12932 N 1226.82 -1.56058 0.219941 0
M  V30 12933 C 1228.07 -1.97436 -0.412543 0
M  V30 12934 C 1228.39 -1.11058 -1.61014 0
M  V30 12935 O 1229.59 -1.42328 -2.31203 0
M  V30 12936 C 1228.05 -3.51227 -0.785362 0
M  V30 12937 C 1227.66 -4.46305 0.389328 0
M  V30 12938 C 1229.4 -4.01321 -1.38354 0
M  V30 12939 C 1227.31 -5.914 -0.00583531 0
M  V30 12940 H 1226.24 -0.73728 -0.157906 0
M  V30 12941 H 1228.89 -1.8076 0.315898 0
M  V30 12942 H 1227.27 -3.63497 -1.57118 0
M  V30 12943 H 1228.44 -4.45781 1.16686 0
M  V30 12944 H 1226.76 -4.06543 0.900633 0
M  V30 12945 H 1229.36 -5.07221 -1.69207 0
M  V30 12946 H 1229.7 -3.47077 -2.29876 0
M  V30 12947 H 1230.23 -3.92267 -0.66119 0
M  V30 12948 H 1226.97 -6.49623 0.87583 0
M  V30 12949 H 1226.49 -5.95121 -0.74772 0
M  V30 12950 H 1228.17 -6.45549 -0.43308 0
M  V30 12951 N 1228.3 0.053464 -1.57509 0
M  V30 12952 C 1229.21 1.07902 -2.08313 0
M  V30 12953 C 1230.23 1.41223 -1.01647 0
M  V30 12954 O 1231.4 1.51032 -1.33233 0
M  V30 12955 C 1228.47 2.36813 -2.5322 0
M  V30 12956 C 1227.53 2.10297 -3.74264 0
M  V30 12957 C 1226.76 3.33062 -4.1702 0
M  V30 12958 O 1226.99 4.42857 -3.59491 0
M  V30 12959 O 1225.92 3.20195 -5.09665 0
M  V30 12960 H 1229.75 0.677368 -2.9605 0
M  V30 12961 H 1227.33 0.268838 -1.46961 0
M  V30 12962 H 1229.21 3.12645 -2.82544 0
M  V30 12963 H 1227.89 2.76323 -1.68605 0
M  V30 12964 H 1226.79 1.32111 -3.49996 0
M  V30 12965 H 1228.13 1.75658 -4.59788 0
M  V30 12966 N 1229.78 1.54207 0.325255 0
M  V30 12967 C 1231.06 1.6298 1.08153 0
M  V30 12968 C 1231.44 0.462583 2.05969 0
M  V30 12969 O 1230.78 -0.543323 2.21947 0
M  V30 12970 C 1230.99 2.999 1.78497 0
M  V30 12971 C 1232.34 3.55888 2.3158 0
M  V30 12972 O 1233.37 3.02194 1.88566 0
M  V30 12973 O 1232.23 4.49847 3.10322 0
M  V30 12974 H 1229.32 0.659923 0.498429 0
M  V30 12975 H 1231.87 1.66553 0.325282 0
M  V30 12976 H 1230.64 3.7629 1.07338 0
M  V30 12977 H 1230.26 2.99997 2.60936 0
M  V30 12978 N 1231.26 -0.58723 1.46251 0
M  V30 12979 C 1232.48 -1.37661 1.55126 0
M  V30 12980 C 1232.91 -1.87123 0.191489 0
M  V30 12981 O 1232.27 -1.6131 -0.827576 0
M  V30 12982 C 1232.31 -2.54324 2.5564 0
M  V30 12983 O 1231.42 -3.55617 2.0883 0
M  V30 12984 H 1230.76 -0.410154 0.522178 0
M  V30 12985 H 1233.29 -0.712738 1.91784 0
M  V30 12986 H 1233.3 -3.01301 2.75103 0
M  V30 12987 H 1231.97 -2.17675 3.54387 0
M  V30 12988 H 1230.55 -3.15151 1.99335 0
M  V30 12989 N 1232.74 -1.33881 -0.831482 0
M  V30 12990 C 1233.98 -1.25507 -1.58406 0
M  V30 12991 C 1234.3 0.177137 -1.94194 0
M  V30 12992 O 1233.57 1.10769 -1.61576 0
M  V30 12993 H 1232.15 -0.461551 -0.587349 0
M  V30 12994 H 1234.82 -1.6769 -0.99328 0
M  V30 12995 H 1233.91 -1.85391 -2.51071 0
M  V30 12996 N 1234.21 1.05064 -1.1747 0
M  V30 12997 C 1235.44 1.82299 -0.98903 0
M  V30 12998 C 1235.86 1.82441 0.457907 0
M  V30 12999 O 1235.22 1.23433 1.32793 0
M  V30 13000 C 1235.27 3.26239 -1.53624 0
M  V30 13001 O 1234.37 4.05507 -0.750857 0
M  V30 13002 H 1233.71 0.563601 -0.35107 0
M  V30 13003 H 1236.24 1.32386 -1.55997 0
M  V30 13004 H 1236.25 3.77038 -1.55906 0
M  V30 13005 H 1234.93 3.25451 -2.58949 0
M  V30 13006 H 1233.51 3.64227 -0.799548 0
M  V30 13007 N 1235.69 0.975146 1.23809 0
M  V30 13008 C 1236.92 0.658978 1.96125 0
M  V30 13009 C 1237.33 -0.773044 1.72248 0
M  V30 13010 O 1236.69 -1.51956 1.01072 0
M  V30 13011 C 1236.74 0.933355 3.49243 0
M  V30 13012 O 1236.46 2.30909 3.72307 0
M  V30 13013 C 1237.96 0.632408 4.38766 0
M  V30 13014 H 1235.18 0.245237 0.62458 0
M  V30 13015 H 1237.73 1.3051 1.5744 0
M  V30 13016 H 1235.88 0.333323 3.85963 0
M  V30 13017 H 1236.3 2.39476 4.66638 0
M  V30 13018 H 1237.77 0.874791 5.45024 0
M  V30 13019 H 1238.25 -0.433453 4.37056 0
M  V30 13020 H 1238.85 1.21268 4.07645 0
M  V30 13021 N 1237.17 -1.38817 0.746158 0
M  V30 13022 C 1238.13 -2.28876 0.121886 0
M  V30 13023 C 1239.13 -1.46838 -0.655379 0
M  V30 13024 O 1240.32 -1.67377 -0.482744 0
M  V30 13025 C 1237.45 -3.30487 -0.836118 0
M  V30 13026 H 1238.65 -2.85586 0.915453 0
M  V30 13027 H 1236.2 -1.47652 0.512691 0
M  V30 13028 H 1236.94 -2.78853 -1.65563 0
M  V30 13029 H 1236.72 -3.9109 -0.281271 0
M  V30 13030 H 1238.21 -3.97848 -1.26914 0
M  V30 13031 N 1238.65 -0.49465 -1.49636 0
M  V30 13032 C 1239.56 0.291881 -2.32777 0
M  V30 13033 C 1240.57 0.973468 -1.44221 0
M  V30 13034 O 1241.75 0.956252 -1.77251 0
M  V30 13035 C 1238.81 1.34609 -3.19502 0
M  V30 13036 C 1237.88 0.678611 -4.23903 0
M  V30 13037 C 1237.11 1.68259 -5.06483 0
M  V30 13038 O 1237.33 2.91176 -4.90482 0
M  V30 13039 O 1236.27 1.24141 -5.88959 0
M  V30 13040 H 1240.09 -0.388459 -3.01205 0
M  V30 13041 H 1237.68 -0.256086 -1.47189 0
M  V30 13042 H 1239.56 1.95617 -3.73245 0
M  V30 13043 H 1238.23 2.00947 -2.53775 0
M  V30 13044 H 1237.14 0.0289541 -3.74089 0
M  V30 13045 H 1238.47 0.0577817 -4.92166 0
M  V30 13046 N 1240.13 1.55939 -0.228214 0
M  V30 13047 C 1241.09 2.1932 0.665681 0
M  V30 13048 C 1242.09 1.15699 1.11671 0
M  V30 13049 O 1243.28 1.40893 1.02444 0
M  V30 13050 C 1240.41 2.82185 1.9127 0
M  V30 13051 H 1241.6 2.99687 0.112986 0
M  V30 13052 H 1239.16 1.56285 0.0213865 0
M  V30 13053 H 1239.89 2.05706 2.5071 0
M  V30 13054 H 1239.68 3.58073 1.5977 0
M  V30 13055 H 1241.17 3.30748 2.54942 0
M  V30 13056 N 1241.6 -0.0451101 1.57535 0
M  V30 13057 C 1243.02 -0.59372 1.77008 0
M  V30 13058 C 1243.37 -1.76482 0.857233 0
M  V30 13059 O 1242.49 -2.16347 0.0479703 0
M  V30 13060 C 1243.09 -1.08383 3.20996 0
M  V30 13061 C 1241.65 -1.57808 3.41721 0
M  V30 13062 C 1240.79 -0.509067 2.72587 0
M  V30 13063 H 1243.74 0.181114 1.57663 0
M  V30 13064 H 1243.76 -1.95181 3.26626 0
M  V30 13065 H 1243.28 -0.231276 3.8741 0
M  V30 13066 H 1241.38 -2.45302 2.8046 0
M  V30 13067 H 1241.49 -1.63664 4.50279 0
M  V30 13068 H 1239.85 -0.960389 2.359 0
M  V30 13069 H 1240.64 0.333753 3.41674 0
M  V30 13070 N 1243.08 -1.54377 -0.317073 0
M  V30 13071 C 1244.31 -1.77184 -1.07798 0
M  V30 13072 C 1244.73 -0.52204 -1.80711 0
M  V30 13073 O 1244.09 0.52672 -1.7348 0
M  V30 13074 C 1244.14 -2.96887 -2.04671 0
M  V30 13075 O 1243.24 -2.68887 -3.12688 0
M  V30 13076 H 1242.58 -0.586937 -0.310485 0
M  V30 13077 H 1245.11 -2.01419 -0.35939 0
M  V30 13078 H 1245.12 -3.24414 -2.47426 0
M  V30 13079 H 1243.8 -3.87518 -1.51005 0
M  V30 13080 H 1242.38 -2.52329 -2.74562 0
M  V30 13081 N 1244.56 0.579466 -1.4656 0
M  V30 13082 C 1245.81 1.33756 -1.52038 0
M  V30 13083 C 1246.14 1.93725 -0.173423 0
M  V30 13084 O 1245.39 1.77167 0.831293 0
M  V30 13085 C 1245.69 2.48417 -2.56951 0
M  V30 13086 C 1245.36 2.0642 -4.00876 0
M  V30 13087 C 1244.02 1.94682 -4.4006 0
M  V30 13088 C 1246.37 1.74066 -4.91274 0
M  V30 13089 C 1243.7 1.48852 -5.67503 0
M  V30 13090 C 1246.05 1.29714 -6.19158 0
M  V30 13091 C 1244.71 1.16555 -6.57245 0
M  V30 13092 H 1243.98 0.489447 -0.556347 0
M  V30 13093 H 1246.63 0.652176 -1.80053 0
M  V30 13094 H 1244.94 3.22416 -2.2261 0
M  V30 13095 H 1246.63 3.06629 -2.58418 0
M  V30 13096 H 1243.22 2.16492 -3.69904 0
M  V30 13097 H 1247.41 1.82019 -4.61717 0
M  V30 13098 H 1242.66 1.3731 -5.95782 0
M  V30 13099 H 1246.84 1.03734 -6.88631 0
M  V30 13100 H 1244.46 0.808193 -7.55892 0
M  V30 13101 N 1246.04 1.3432 0.824371 0
M  V30 13102 C 1247.45 1.1397 1.11727 0
M  V30 13103 C 1247.65 -0.0597597 2.01411 0
M  V30 13104 O 1246.71 -0.735717 2.41544 0
M  V30 13105 C 1248.02 2.43423 1.76538 0
M  V30 13106 C 1249.57 2.49466 1.89039 0
M  V30 13107 C 1250.05 3.78917 2.57266 0
M  V30 13108 N 1251.54 3.8007 2.64767 0
M  V30 13109 C 1252.27 4.76953 3.18282 0
M  V30 13110 N 1251.77 5.84217 3.72373 0
M  V30 13111 N 1253.56 4.6441 3.1667 0
M  V30 13112 H 1245.71 2.11175 0.227802 0
M  V30 13113 H 1247.98 0.933774 0.163615 0
M  V30 13114 H 1247.68 3.31278 1.18102 0
M  V30 13115 H 1247.56 2.56655 2.7642 0
M  V30 13116 H 1249.94 1.62052 2.46623 0
M  V30 13117 H 1250.02 2.40163 0.880635 0
M  V30 13118 H 1249.67 4.6672 2.00336 0
M  V30 13119 H 1249.6 3.85502 3.58742 0
M  V30 13120 H 1252.09 3.02556 2.26425 0
M  V30 13121 H 1252.4 6.54159 4.11455 0
M  V30 13122 H 1250.75 5.87933 3.70621 0
M  V30 13123 H 1253.94 3.7976 2.73678 0
M  V30 13124 H 1254.11 5.40081 3.58073 0
M  V30 13125 N 1247.52 -1.0444 1.18026 0
M  V30 13126 C 1248.76 -1.77575 0.973314 0
M  V30 13127 C 1249.09 -1.88032 -0.4974 0
M  V30 13128 O 1248.35 -1.38214 -1.38548 0
M  V30 13129 C 1248.65 -3.21134 1.56869 0
M  V30 13130 C 1248.31 -3.30718 3.0649 0
M  V30 13131 C 1246.97 -3.33041 3.47328 0
M  V30 13132 C 1249.33 -3.3112 4.02503 0
M  V30 13133 C 1246.65 -3.33404 4.82762 0
M  V30 13134 C 1249.01 -3.33023 5.37846 0
M  V30 13135 C 1247.67 -3.33636 5.78138 0
M  V30 13136 H 1246.94 -0.649793 0.356161 0
M  V30 13137 H 1249.59 -1.22693 1.47033 0
M  V30 13138 H 1247.89 -3.78992 0.993584 0
M  V30 13139 H 1249.59 -3.76358 1.38404 0
M  V30 13140 H 1246.18 -3.29628 2.7394 0
M  V30 13141 H 1250.36 -3.2852 3.72006 0
M  V30 13142 H 1245.62 -3.32194 5.13281 0
M  V30 13143 H 1249.79 -3.32283 6.12014 0
M  V30 13144 H 1247.42 -3.33671 6.83058 0
M  V30 13145 N 1248.99 -0.981699 -1.2329 0
M  V30 13146 C 1250.22 -0.669025 -1.96313 0
M  V30 13147 C 1250.64 0.757624 -1.72168 0
M  V30 13148 O 1250 1.51626 -0.993942 0
M  V30 13149 C 1250.05 -0.966875 -3.47396 0
M  V30 13150 O 1249.15 -0.0595933 -4.12357 0
M  V30 13151 H 1248.5 -0.251493 -0.61453 0
M  V30 13152 H 1251.03 -1.31564 -1.56691 0
M  V30 13153 H 1251.04 -0.904112 -3.97857 0
M  V30 13154 H 1249.71 -2.00651 -3.64296 0
M  V30 13155 H 1248.29 -0.176878 -3.7248 0
M  V30 13156 N 1250.47 1.3842 -0.753509 0
M  V30 13157 C 1251.89 1.53668 -0.431095 0
M  V30 13158 C 1252.09 1.71626 1.05578 0
M  V30 13159 O 1251.14 1.72723 1.84182 0
M  V30 13160 C 1252.46 2.74381 -1.23027 0
M  V30 13161 C 1254.01 2.8823 -1.22034 0
M  V30 13162 C 1254.48 4.11904 -2.00248 0
M  V30 13163 N 1255.97 4.18981 -1.97508 0
M  V30 13164 C 1256.71 5.13667 -2.5482 0
M  V30 13165 N 1256.2 6.14027 -3.20846 0
M  V30 13166 N 1258 5.06017 -2.44751 0
M  V30 13167 H 1250.15 1.25012 -1.71714 0
M  V30 13168 H 1252.41 0.607296 -0.727939 0
M  V30 13169 H 1252.12 2.67515 -2.28317 0
M  V30 13170 H 1251.99 3.67565 -0.847098 0
M  V30 13171 H 1254.38 2.94578 -0.175502 0
M  V30 13172 H 1254.46 1.96057 -1.64303 0
M  V30 13173 H 1254.1 4.06318 -3.04742 0
M  V30 13174 H 1254.03 5.03157 -1.55373 0
M  V30 13175 H 1256.52 3.47104 -1.49423 0
M  V30 13176 H 1256.84 6.82771 -3.61999 0
M  V30 13177 H 1255.18 6.1436 -3.24941 0
M  V30 13178 H 1258.37 4.26552 -1.92797 0
M  V30 13179 H 1258.54 5.7963 -2.89713 0
M  V30 13180 N 1251.95 0.502579 1.49372 0
M  V30 13181 C 1253.37 0.158641 1.5881 0
M  V30 13182 C 1253.57 -1.33688 1.50764 0
M  V30 13183 O 1252.62 -2.11295 1.38241 0
M  V30 13184 C 1253.94 0.736843 2.91532 0
M  V30 13185 C 1255.48 0.703093 3.05001 0
M  V30 13186 C 1255.96 1.25938 4.40345 0
M  V30 13187 N 1257.45 1.22015 4.46841 0
M  V30 13188 C 1258.18 1.62076 5.50017 0
M  V30 13189 N 1257.68 2.09736 6.6029 0
M  V30 13190 N 1259.47 1.53482 5.4074 0
M  V30 13191 H 1251.62 1.47487 1.52844 0
M  V30 13192 H 1253.89 0.611851 0.724115 0
M  V30 13193 H 1253.59 1.78573 3.02992 0
M  V30 13194 H 1253.47 0.198178 3.76679 0
M  V30 13195 H 1255.85 -0.336965 2.9317 0
M  V30 13196 H 1255.94 1.27892 2.21534 0
M  V30 13197 H 1255.58 2.29823 4.52928 0
M  V30 13198 H 1255.51 0.659481 5.22454 0
M  V30 13199 H 1258 0.870957 3.67726 0
M  V30 13200 H 1258.31 2.3837 7.35119 0
M  V30 13201 H 1256.66 2.13712 6.61326 0
M  V30 13202 H 1259.85 1.16065 4.53483 0
M  V30 13203 H 1260.02 1.85026 6.21023 0
M  V30 13204 N 1253.43 -1.55816 0.23648 0
M  V30 13205 C 1254.84 -1.84757 -0.268622 0
M  V30 13206 C 1255.19 -1.15815 -1.58371 0
M  V30 13207 O 1254.32 -0.432923 -2.12025 0
M  V30 13208 C 1254.91 -3.35177 -0.494167 0
M  V30 13209 C 1253.47 -3.64382 -0.943551 0
M  V30 13210 C 1252.62 -2.77296 -0.0149191 0
M  V30 13211 H 1255.57 -1.51908 0.459308 0
M  V30 13212 H 1255.59 -3.56192 -1.3382 0
M  V30 13213 H 1255.1 -3.85327 0.463138 0
M  V30 13214 H 1253.2 -3.19701 -1.91369 0
M  V30 13215 H 1253.31 -4.72244 -0.807626 0
M  V30 13216 H 1251.68 -2.49243 -0.524419 0
M  V30 13217 H 1252.46 -3.30249 0.937571 0
M  V30 13218 N 1254.91 0.036755 -1.57557 0
M  V30 13219 C 1255.82 1.05687 -2.09446 0
M  V30 13220 C 1256.83 1.40137 -1.03139 0
M  V30 13221 O 1258.01 1.49611 -1.34828 0
M  V30 13222 C 1255.07 2.34114 -2.55717 0
M  V30 13223 C 1254.13 2.06316 -3.76473 0
M  V30 13224 C 1253.37 3.2862 -4.20529 0
M  V30 13225 O 1253.59 4.3902 -3.64167 0
M  V30 13226 O 1252.52 3.14772 -5.13033 0
M  V30 13227 H 1256.35 0.64593 -2.96751 0
M  V30 13228 H 1253.94 0.253235 -1.47238 0
M  V30 13229 H 1255.82 3.09631 -2.85844 0
M  V30 13230 H 1254.49 2.74519 -1.71526 0
M  V30 13231 H 1253.4 1.28392 -3.51378 0
M  V30 13232 H 1254.73 1.70772 -4.61625 0
M  V30 13233 N 1256.39 1.54543 0.308881 0
M  V30 13234 C 1257.32 1.87947 1.38557 0
M  V30 13235 C 1258.3 0.737622 1.53275 0
M  V30 13236 O 1259.48 0.992664 1.66913 0
M  V30 13237 C 1256.61 2.11982 2.75102 0
M  V30 13238 C 1255.57 3.2783 2.75158 0
M  V30 13239 C 1254.89 3.37266 4.14917 0
M  V30 13240 C 1256.19 4.65129 2.37598 0
M  V30 13241 H 1257.89 2.78123 1.1085 0
M  V30 13242 H 1255.43 1.3382 0.531808 0
M  V30 13243 H 1257.38 2.33935 3.50503 0
M  V30 13244 H 1256.11 1.18569 3.04317 0
M  V30 13245 H 1254.77 3.05787 2.02212 0
M  V30 13246 H 1254.42 2.41384 4.41296 0
M  V30 13247 H 1254.12 4.15135 4.15857 0
M  V30 13248 H 1255.64 3.61471 4.92109 0
M  V30 13249 H 1257.05 4.86865 3.02714 0
M  V30 13250 H 1255.45 5.45653 2.49765 0
M  V30 13251 H 1256.52 4.6638 1.32731 0
M  V30 13252 N 1257.86 -0.571685 1.46866 0
M  V30 13253 C 1259.27 -1.15383 1.46778 0
M  V30 13254 C 1259.63 -1.95023 0.214576 0
M  V30 13255 O 1258.75 -2.05386 -0.681574 0
M  V30 13256 C 1259.35 -2.09915 2.65935 0
M  V30 13257 C 1257.9 -2.6343 2.68852 0
M  V30 13258 C 1257.05 -1.39517 2.39646 0
M  V30 13259 H 1260 -0.359036 1.54585 0
M  V30 13260 H 1260.02 -2.9356 2.42081 0
M  V30 13261 H 1259.54 -1.51923 3.57129 0
M  V30 13262 H 1257.64 -3.2526 1.8176 0
M  V30 13263 H 1257.75 -3.05412 3.69134 0
M  V30 13264 H 1256.11 -1.69702 1.8993 0
M  V30 13265 H 1256.9 -0.833399 3.33031 0
M  V30 13266 N 1259.34 -1.34755 -0.817236 0
M  V30 13267 C 1260.76 -1.14561 -1.11121 0
M  V30 13268 C 1260.96 0.0490776 -2.0144 0
M  V30 13269 O 1260.01 0.722897 -2.41931 0
M  V30 13270 C 1261.33 -2.44356 -1.75244 0
M  V30 13271 C 1262.87 -2.50465 -1.87713 0
M  V30 13272 C 1263.35 -3.80276 -2.55253 0
M  V30 13273 N 1264.84 -3.81468 -2.62747 0
M  V30 13274 C 1265.58 -4.78634 -3.15749 0
M  V30 13275 N 1265.07 -5.86184 -3.6927 0
M  V30 13276 N 1266.86 -4.66083 -3.14203 0
M  V30 13277 H 1259.02 -2.11293 -0.2166 0
M  V30 13278 H 1261.28 -0.934629 -0.158661 0
M  V30 13279 H 1260.98 -3.31899 -1.16344 0
M  V30 13280 H 1260.86 -2.58117 -2.75055 0
M  V30 13281 H 1263.25 -1.63358 -2.45761 0
M  V30 13282 H 1263.33 -2.40627 -0.867887 0
M  V30 13283 H 1262.97 -4.67776 -1.97858 0
M  V30 13284 H 1262.9 -3.87399 -3.56693 0
M  V30 13285 H 1265.39 -3.03753 -2.24817 0
M  V30 13286 H 1265.7 -6.56332 -4.0798 0
M  V30 13287 H 1264.05 -5.8989 -3.67498 0
M  V30 13288 H 1267.24 -3.81206 -2.7166 0
M  V30 13289 H 1267.41 -5.41973 -3.55203 0
M  V30 13290 N 1260.82 1.03812 -1.18578 0
M  V30 13291 C 1262.23 1.58509 -0.986496 0
M  V30 13292 C 1262.58 1.90655 0.463136 0
M  V30 13293 O 1261.71 1.69847 1.34093 0
M  V30 13294 C 1262.3 2.88 -1.78441 0
M  V30 13295 C 1260.86 3.39304 -1.6294 0
M  V30 13296 C 1260.01 2.12857 -1.77727 0
M  V30 13297 H 1262.96 0.864528 -1.33085 0
M  V30 13298 H 1262.98 3.58502 -1.27501 0
M  V30 13299 H 1262.49 2.64572 -2.83942 0
M  V30 13300 H 1260.59 3.6774 -0.599864 0
M  V30 13301 H 1260.71 4.12959 -2.42902 0
M  V30 13302 H 1259.07 2.24285 -1.20699 0
M  V30 13303 H 1259.85 1.91882 -2.84669 0
M  V30 13304 N 1262.3 0.988223 1.22768 0
M  V30 13305 C 1263.71 0.69816 1.4352 0
M  V30 13306 C 1263.91 -0.732872 1.877 0
M  V30 13307 O 1262.97 -1.50436 2.02793 0
M  V30 13308 C 1264.28 1.69975 2.4805 0
M  V30 13309 C 1265.83 1.71467 2.61855 0
M  V30 13310 C 1266.31 2.70477 3.69603 0
M  V30 13311 N 1267.8 2.69043 3.77055 0
M  V30 13312 C 1268.53 3.42319 4.60006 0
M  V30 13313 N 1268.03 4.2518 5.46986 0
M  V30 13314 N 1269.82 3.31047 4.54274 0
M  V30 13315 H 1261.97 1.91251 0.923948 0
M  V30 13316 H 1264.23 0.82455 0.467783 0
M  V30 13317 H 1263.94 2.72354 2.22523 0
M  V30 13318 H 1263.81 1.48885 3.46573 0
M  V30 13319 H 1266.2 0.697889 2.86729 0
M  V30 13320 H 1266.28 1.96625 1.63622 0
M  V30 13321 H 1265.93 3.72302 3.45476 0
M  V30 13322 H 1265.86 2.42591 4.67394 0
M  V30 13323 H 1268.35 2.08914 3.14902 0
M  V30 13324 H 1268.66 4.77929 6.07292 0
M  V30 13325 H 1267.01 4.29268 5.46584 0
M  V30 13326 H 1270.2 2.65758 3.85345 0
M  V30 13327 H 1270.37 3.88413 5.1869 0
M  V30 13328 N 1263.78 -1.38018 0.760839 0
M  V30 13329 C 1265 -2.04757 0.330038 0
M  V30 13330 C 1265.43 -1.57009 -1.03585 0
M  V30 13331 O 1264.78 -0.725349 -1.66158 0
M  V30 13332 C 1264.83 -3.58696 0.370082 0
M  V30 13333 O 1263.94 -4.07507 -0.633361 0
M  V30 13334 H 1263.28 -0.648023 0.144782 0
M  V30 13335 H 1265.81 -1.7655 1.03399 0
M  V30 13336 H 1265.82 -4.07387 0.223515 0
M  V30 13337 H 1264.49 -3.92806 1.36661 0
M  V30 13338 H 1263.07 -3.70165 -0.45081 0
M  V30 13339 N 1265.25 -0.510493 -1.49103 0
M  V30 13340 C 1266.19 0.299697 -2.27232 0
M  V30 13341 C 1267.2 0.922102 -1.34168 0
M  V30 13342 O 1268.39 0.803836 -1.59376 0
M  V30 13343 C 1265.49 1.43778 -3.06889 0
M  V30 13344 C 1264.66 0.920927 -4.27595 0
M  V30 13345 C 1263.72 1.93777 -4.89221 0
M  V30 13346 O 1262.75 1.5025 -5.49011 0
M  V30 13347 N 1263.95 3.2688 -4.79718 0
M  V30 13348 H 1266.71 -0.37028 -2.97404 0
M  V30 13349 H 1264.27 -0.343617 -1.58212 0
M  V30 13350 H 1266.27 2.11577 -3.44988 0
M  V30 13351 H 1264.84 2.01175 -2.39264 0
M  V30 13352 H 1264.06 0.0675358 -3.94142 0
M  V30 13353 H 1265.34 0.554168 -5.05773 0
M  V30 13354 H 1264.74 3.64924 -4.32258 0
M  V30 13355 H 1263.3 3.90366 -5.21974 0
M  V30 13356 N 1266.73 1.55688 -0.24474 0
M  V30 13357 C 1267.69 2.20014 0.642382 0
M  V30 13358 C 1268.69 1.16877 1.10437 0
M  V30 13359 O 1269.88 1.41972 1.00943 0
M  V30 13360 C 1267.02 2.84198 1.88267 0
M  V30 13361 H 1268.21 2.9979 0.0811937 0
M  V30 13362 H 1265.76 1.56299 0.00480917 0
M  V30 13363 H 1266.5 2.08354 2.48514 0
M  V30 13364 H 1266.28 3.59747 1.55963 0
M  V30 13365 H 1267.77 3.33434 2.5142 0
M  V30 13366 N 1268.21 -0.0283989 1.57574 0
M  V30 13367 C 1269.62 -0.574912 1.77628 0
M  V30 13368 C 1269.97 -1.75563 0.875903 0
M  V30 13369 O 1269.1 -2.16284 0.0709141 0
M  V30 13370 C 1269.69 -1.04972 3.22128 0
M  V30 13371 C 1268.25 -1.54175 3.43376 0
M  V30 13372 C 1267.4 -0.480127 2.73112 0
M  V30 13373 H 1270.35 0.197826 1.57462 0
M  V30 13374 H 1270.37 -1.91705 3.28678 0
M  V30 13375 H 1269.88 -0.190173 3.87634 0
M  V30 13376 H 1267.98 -2.42313 2.83046 0
M  V30 13377 H 1268.1 -1.58879 4.51989 0
M  V30 13378 H 1266.46 -0.935314 2.36905 0
M  V30 13379 H 1267.24 0.369973 3.41301 0
M  V30 13380 N 1269.69 -1.54705 -0.300681 0
M  V30 13381 C 1271.1 -1.64998 -0.873654 0
M  V30 13382 C 1271.45 -0.558842 -1.88073 0
M  V30 13383 O 1270.57 0.304474 -2.14247 0
M  V30 13384 C 1271.17 -2.99099 -1.59138 0
M  V30 13385 C 1269.73 -3.11512 -2.11276 0
M  V30 13386 C 1268.88 -2.60681 -0.945551 0
M  V30 13387 H 1271.83 -1.5851 -0.0776752 0
M  V30 13388 H 1271.85 -2.9054 -2.45696 0
M  V30 13389 H 1271.36 -3.78493 -0.858172 0
M  V30 13390 H 1269.46 -2.36838 -2.87643 0
M  V30 13391 H 1269.57 -4.17672 -2.34707 0
M  V30 13392 H 1267.94 -2.17143 -1.33121 0
M  V30 13393 H 1268.72 -3.42553 -0.226291 0
M  V30 13394 N 1271.17 0.563888 -1.47167 0
M  V30 13395 C 1272.39 1.34693 -1.57052 0
M  V30 13396 C 1272.81 1.87534 -0.218308 0
M  V30 13397 O 1272.17 1.64639 0.787416 0
M  V30 13398 C 1272.22 2.52148 -2.59044 0
M  V30 13399 O 1271.94 2.01492 -3.89015 0
M  V30 13400 C 1273.44 3.4445 -2.7905 0
M  V30 13401 H 1270.66 0.410822 -0.530534 0
M  V30 13402 H 1273.2 0.683731 -1.92731 0
M  V30 13403 H 1271.36 3.14419 -2.26317 0
M  V30 13404 H 1271.77 2.78122 -4.44689 0
M  V30 13405 H 1273.25 4.23297 -3.54293 0
M  V30 13406 H 1273.72 3.97575 -1.86631 0
M  V30 13407 H 1274.33 2.88 -3.12948 0
M  V30 13408 N 1272.64 1.35187 0.810078 0
M  V30 13409 C 1273.89 1.28011 1.56389 0
M  V30 13410 C 1274.21 -0.14622 1.94451 0
M  V30 13411 O 1273.48 -1.08185 1.63318 0
M  V30 13412 H 1272.06 0.470837 0.579932 0
M  V30 13413 H 1274.73 1.69249 0.966476 0
M  V30 13414 H 1273.82 1.89362 2.4809 0
M  V30 13415 N 1274.12 -1.03182 1.19127 0
M  V30 13416 C 1275.35 -1.80165 1.01726 0
M  V30 13417 C 1275.77 -1.83742 -0.434095 0
M  V30 13418 O 1275.12 -1.27932 -1.30152 0
M  V30 13419 C 1275.17 -3.25354 1.57566 0
M  V30 13420 O 1274.89 -3.22042 2.9702 0
M  V30 13421 C 1276.4 -4.18948 1.44906 0
M  V30 13422 H 1273.62 -0.567078 0.358698 0
M  V30 13423 H 1276.16 -1.29982 1.57877 0
M  V30 13424 H 1274.31 -3.72738 1.0557 0
M  V30 13425 H 1274.73 -4.13061 3.23235 0
M  V30 13426 H 1276.2 -5.18723 1.88762 0
M  V30 13427 H 1276.68 -4.37383 0.399125 0
M  V30 13428 H 1277.29 -3.77435 1.96018 0
M  V30 13429 N 1275.6 -0.99472 -1.22242 0
M  V30 13430 C 1277.02 -0.705762 -1.43147 0
M  V30 13431 C 1277.22 0.722908 -1.88086 0
M  V30 13432 O 1276.27 1.49359 -2.03588 0
M  V30 13433 C 1277.59 -1.71288 -2.47145 0
M  V30 13434 C 1279.13 -1.72853 -2.60942 0
M  V30 13435 C 1279.61 -2.72433 -3.68163 0
M  V30 13436 N 1281.1 -2.71039 -3.75623 0
M  V30 13437 C 1281.83 -3.44753 -4.58184 0
M  V30 13438 N 1281.33 -4.28075 -5.44724 0
M  V30 13439 N 1283.12 -3.33451 -4.52512 0
M  V30 13440 H 1275.27 -1.91738 -0.913792 0
M  V30 13441 H 1277.54 -0.82702 -0.463403 0
M  V30 13442 H 1277.24 -2.7353 -2.21075 0
M  V30 13443 H 1277.12 -1.50721 -3.45779 0
M  V30 13444 H 1279.5 -0.713085 -2.86355 0
M  V30 13445 H 1279.59 -1.9749 -1.62577 0
M  V30 13446 H 1279.23 -3.74129 -3.43497 0
M  V30 13447 H 1279.16 -2.45066 -4.66101 0
M  V30 13448 H 1281.65 -2.10581 -3.1379 0
M  V30 13449 H 1281.96 -4.81143 -6.04749 0
M  V30 13450 H 1280.31 -4.32161 -5.44299 0
M  V30 13451 H 1283.5 -2.67797 -3.8393 0
M  V30 13452 H 1283.67 -3.91158 -5.16623 0
M  V30 13453 N 1277.08 1.37613 -0.768148 0
M  V30 13454 C 1278.49 1.82437 -0.396703 0
M  V30 13455 C 1278.84 1.64019 1.07668 0
M  V30 13456 O 1277.97 1.14932 1.83356 0
M  V30 13457 C 1278.56 3.31207 -0.713265 0
M  V30 13458 C 1277.12 3.74323 -0.39492 0
M  V30 13459 C 1276.27 2.60191 -0.958962 0
M  V30 13460 H 1279.22 1.26135 -0.963099 0
M  V30 13461 H 1279.24 3.805 0.00337228 0
M  V30 13462 H 1278.75 3.4458 -1.78567 0
M  V30 13463 H 1276.85 3.66521 0.670313 0
M  V30 13464 H 1276.96 4.70558 -0.900653 0
M  V30 13465 H 1275.33 2.51797 -0.383423 0
M  V30 13466 H 1276.11 2.76358 -2.03669 0
M  V30 13467 N 1278.56 0.518393 1.4883 0
M  V30 13468 C 1279.78 -0.0183131 2.07392 0
M  V30 13469 C 1280.21 -1.28468 1.37396 0
M  V30 13470 O 1279.56 -1.75975 0.436177 0
M  V30 13471 C 1279.61 -0.237211 3.59819 0
M  V30 13472 O 1278.72 -1.30835 3.91096 0
M  V30 13473 H 1278.06 0.0339621 0.663131 0
M  V30 13474 H 1280.59 0.722993 1.914 0
M  V30 13475 H 1280.6 -0.463424 4.0536 0
M  V30 13476 H 1279.27 0.687925 4.10171 0
M  V30 13477 H 1277.85 -1.06571 3.57347 0
M  V30 13478 N 1280.03 -1.55556 0.252993 0
M  V30 13479 C 1281.45 -1.85032 -0.249011 0
M  V30 13480 C 1281.8 -1.17488 -1.57134 0
M  V30 13481 O 1280.92 -0.455387 -2.11554 0
M  V30 13482 C 1281.52 -3.35682 -0.458589 0
M  V30 13483 C 1280.08 -3.65362 -0.90485 0
M  V30 13484 C 1279.22 -2.77296 0.0144927 0
M  V30 13485 H 1282.17 -1.51412 0.475394 0
M  V30 13486 H 1282.19 -3.57591 -1.30034 0
M  V30 13487 H 1281.71 -3.84814 0.503981 0
M  V30 13488 H 1279.81 -3.21713 -1.87967 0
M  V30 13489 H 1279.92 -4.73074 -0.757492 0
M  V30 13490 H 1278.28 -2.49785 -0.497954 0
M  V30 13491 H 1279.07 -3.29236 0.972546 0
M  V30 13492 N 1281.51 0.0200419 -1.57587 0
M  V30 13493 C 1282.42 1.0346 -2.10555 0
M  V30 13494 C 1283.44 1.39035 -1.0462 0
M  V30 13495 O 1284.61 1.48172 -1.36407 0
M  V30 13496 C 1281.68 2.31389 -2.58186 0
M  V30 13497 C 1280.74 2.02311 -3.7864 0
M  V30 13498 C 1279.97 3.24141 -4.23991 0
M  V30 13499 O 1280.2 4.35132 -3.68803 0
M  V30 13500 O 1279.13 3.09312 -5.16342 0
M  V30 13501 H 1282.96 0.614419 -2.9742 0
M  V30 13502 H 1280.54 0.237604 -1.47498 0
M  V30 13503 H 1282.42 3.06582 -2.89112 0
M  V30 13504 H 1281.1 2.72684 -1.74428 0
M  V30 13505 H 1280.01 1.24658 -3.5272 0
M  V30 13506 H 1281.34 1.65866 -4.6341 0
M  V30 13507 N 1282.99 1.54862 0.292472 0
M  V30 13508 C 1283.92 1.89406 1.36556 0
M  V30 13509 C 1284.9 0.753838 1.52484 0
M  V30 13510 O 1286.09 1.01031 1.6585 0
M  V30 13511 C 1283.22 2.14888 2.72838 0
M  V30 13512 C 1282.17 3.3073 2.71665 0
M  V30 13513 C 1281.5 3.41648 4.11316 0
M  V30 13514 C 1282.8 4.67622 2.32651 0
M  V30 13515 H 1284.49 2.79284 1.07894 0
M  V30 13516 H 1282.04 1.34377 0.517585 0
M  V30 13517 H 1283.99 2.3764 3.48002 0
M  V30 13518 H 1282.71 1.2179 3.03042 0
M  V30 13519 H 1281.37 3.07915 1.98958 0
M  V30 13520 H 1281.02 2.46051 4.38711 0
M  V30 13521 H 1280.72 4.19522 4.11431 0
M  V30 13522 H 1282.24 3.6667 4.88248 0
M  V30 13523 H 1283.66 4.90048 2.97533 0
M  V30 13524 H 1282.06 5.48272 2.43963 0
M  V30 13525 H 1283.13 4.67762 1.27777 0
M  V30 13526 N 1284.47 -0.556076 1.47464 0
M  V30 13527 C 1285.43 -1.64515 1.59586 0
M  V30 13528 C 1286.43 -1.53751 0.470881 0
M  V30 13529 O 1287.62 -1.57889 0.735979 0
M  V30 13530 C 1284.75 -3.0406 1.54143 0
M  V30 13531 H 1285.95 -1.55116 2.56669 0
M  V30 13532 H 1283.5 -0.776087 1.35671 0
M  V30 13533 H 1284.23 -3.18991 0.584395 0
M  V30 13534 H 1284.02 -3.13282 2.3579 0
M  V30 13535 H 1285.51 -3.8329 1.65766 0
M  V30 13536 N 1285.95 -1.35615 -0.802897 0
M  V30 13537 C 1287.17 -1.32377 -1.59659 0
M  V30 13538 C 1287.6 0.0954235 -1.87858 0
M  V30 13539 O 1286.96 1.06336 -1.46842 0
M  V30 13540 C 1287 -2.13972 -2.90256 0
M  V30 13541 O 1286.11 -1.52296 -3.83249 0
M  V30 13542 H 1285.45 -0.453699 -0.484823 0
M  V30 13543 H 1287.98 -1.78708 -0.996217 0
M  V30 13544 H 1287.99 -2.26061 -3.39647 0
M  V30 13545 H 1286.66 -3.17145 -2.69057 0
M  V30 13546 H 1285.24 -1.49068 -3.41809 0
M  V30 13547 N 1287.43 1.02549 -1.19673 0
M  V30 13548 C 1288.34 2.14373 -0.952972 0
M  V30 13549 C 1289.35 1.73776 0.0881727 0
M  V30 13550 O 1290.53 2.01165 -0.0972471 0
M  V30 13551 C 1287.59 3.43096 -0.498569 0
M  V30 13552 C 1286.65 3.97987 -1.60951 0
M  V30 13553 C 1285.89 5.20567 -1.17669 0
M  V30 13554 O 1286.11 5.70385 -0.0416636 0
M  V30 13555 O 1285.04 5.6838 -1.98059 0
M  V30 13556 H 1288.87 2.378 -1.88904 0
M  V30 13557 H 1286.45 1.12781 -0.979836 0
M  V30 13558 H 1288.34 4.20634 -0.253968 0
M  V30 13559 H 1287.01 3.21105 0.409018 0
M  V30 13560 H 1285.92 3.21768 -1.90829 0
M  V30 13561 H 1287.25 4.24349 -2.49377 0
M  V30 13562 N 1288.9 1.00119 1.21713 0
M  V30 13563 C 1289.87 0.563409 2.22167 0
M  V30 13564 C 1290.87 -0.35819 1.5676 0
M  V30 13565 O 1292.06 -0.149001 1.73562 0
M  V30 13566 C 1289.19 -0.179365 3.40428 0
M  V30 13567 H 1290.38 1.45189 2.62412 0
M  V30 13568 H 1287.93 0.789286 1.34907 0
M  V30 13569 H 1288.67 -1.08345 3.05666 0
M  V30 13570 H 1288.45 0.482471 3.8912 0
M  V30 13571 H 1289.94 -0.473537 4.14906 0
M  V30 13572 N 1290.38 -1.37203 0.775435 0
M  V30 13573 C 1291.29 -2.34019 0.165062 0
M  V30 13574 C 1292.31 -1.6036 -0.675316 0
M  V30 13575 O 1293.48 -1.9243 -0.594375 0
M  V30 13576 C 1290.55 -3.3954 -0.700957 0
M  V30 13577 C 1289.61 -4.29015 0.156304 0
M  V30 13578 C 1288.84 -5.29497 -0.668476 0
M  V30 13579 O 1289.07 -5.37636 -1.90535 0
M  V30 13580 O 1288 -6.01852 -0.0757351 0
M  V30 13581 H 1291.83 -2.87955 0.965184 0
M  V30 13582 H 1289.41 -1.39429 0.536654 0
M  V30 13583 H 1291.29 -4.04094 -1.19524 0
M  V30 13584 H 1289.97 -2.87926 -1.4792 0
M  V30 13585 H 1288.87 -3.67549 0.69703 0
M  V30 13586 H 1290.21 -4.83944 0.897725 0
M  V30 13587 N 1291.86 -0.526279 -1.48553 0
M  V30 13588 C 1292.77 0.24244 -2.33344 0
M  V30 13589 C 1293.79 0.942658 -1.46253 0
M  V30 13590 O 1294.96 0.91844 -1.79239 0
M  V30 13591 C 1292.03 1.27801 -3.22285 0
M  V30 13592 C 1291.09 0.588543 -4.25247 0
M  V30 13593 C 1290.32 1.57478 -5.09938 0
M  V30 13594 O 1290.54 2.80707 -4.96548 0
M  V30 13595 O 1289.48 1.11621 -5.9146 0
M  V30 13596 H 1293.3 -0.452262 -3.00314 0
M  V30 13597 H 1290.89 -0.287249 -1.46613 0
M  V30 13598 H 1292.77 1.87656 -3.7731 0
M  V30 13599 H 1291.45 1.95519 -2.57981 0
M  V30 13600 H 1290.35 -0.0504022 -3.74066 0
M  V30 13601 H 1291.69 -0.046627 -4.92178 0
M  V30 13602 N 1293.34 1.5542 -0.261239 0
M  V30 13603 C 1294.58 1.99579 0.36002 0
M  V30 13604 C 1294.92 1.14933 1.56538 0
M  V30 13605 O 1294.19 0.216082 1.93296 0
M  V30 13606 C 1294.47 3.52078 0.755842 0
M  V30 13607 C 1294.33 4.47484 -0.455896 0
M  V30 13608 C 1295.65 4.10083 1.5975 0
M  V30 13609 H 1292.77 0.725554 0.129385 0
M  V30 13610 H 1295.41 1.86453 -0.365415 0
M  V30 13611 H 1293.56 3.63394 1.37393 0
M  V30 13612 H 1295.23 4.4813 -1.09441 0
M  V30 13613 H 1293.47 4.19714 -1.09646 0
M  V30 13614 H 1294.14 5.51834 -0.13539 0
M  V30 13615 H 1296.62 4.01957 1.07562 0
M  V30 13616 H 1295.5 5.17024 1.84329 0
M  V30 13617 H 1295.76 3.59438 2.57404 0
M  V30 13618 N 1294.82 -0.0116844 1.57596 0
M  V30 13619 C 1295.76 -1.00684 2.07681 0
M  V30 13620 C 1296.73 -1.34858 0.969666 0
M  V30 13621 O 1297.92 -1.44896 1.24136 0
M  V30 13622 C 1295.06 -2.29729 2.57524 0
M  V30 13623 C 1294.17 -2.0156 3.82096 0
M  V30 13624 C 1293.31 -3.24601 4.20485 0
M  V30 13625 C 1292.34 -2.92066 5.37925 0
M  V30 13626 N 1291.48 -4.0761 5.71663 0
M  V30 13627 H 1296.32 -0.572787 2.92443 0
M  V30 13628 H 1293.86 -0.271184 1.44579 0
M  V30 13629 H 1295.82 -3.05152 2.84496 0
M  V30 13630 H 1294.45 -2.70824 1.75653 0
M  V30 13631 H 1293.5 -1.16556 3.62103 0
M  V30 13632 H 1294.81 -1.73572 4.67626 0
M  V30 13633 H 1293.96 -4.08379 4.48677 0
M  V30 13634 H 1292.7 -3.55718 3.3364 0
M  V30 13635 H 1291.71 -2.06693 5.09468 0
M  V30 13636 H 1292.93 -2.62209 6.26437 0
M  V30 13637 H 1290.88 -4.38645 4.87777 0
M  V30 13638 H 1290.8 -3.83105 6.51741 0
M  V30 13639 H 1292.06 -4.92211 6.04441 0
M  V30 13640 N 1296.29 -1.55015 -0.284256 0
M  V30 13641 C 1297.2 -1.90203 -1.37332 0
M  V30 13642 C 1298.22 -0.797994 -1.54622 0
M  V30 13643 O 1299.4 -1.09602 -1.68965 0
M  V30 13644 C 1296.46 -2.15687 -2.71441 0
M  V30 13645 C 1295.52 -3.39313 -2.62993 0
M  V30 13646 C 1294.75 -3.63571 -3.90707 0
M  V30 13647 O 1294.98 -2.90538 -4.9086 0
M  V30 13648 O 1293.91 -4.57102 -3.91589 0
M  V30 13649 H 1297.74 -2.82888 -1.1049 0
M  V30 13650 H 1295.32 -1.41418 -0.481798 0
M  V30 13651 H 1297.2 -2.33553 -3.50758 0
M  V30 13652 H 1295.88 -1.26185 -2.98092 0
M  V30 13653 H 1294.79 -3.26793 -1.82091 0
M  V30 13654 H 1296.12 -4.28997 -2.41293 0
M  V30 13655 N 1297.77 0.548248 -1.47757 0
M  V30 13656 C 1298.72 1.65453 -1.60916 0
M  V30 13657 C 1299.69 1.59836 -0.451831 0
M  V30 13658 O 1300.87 1.78536 -0.673023 0
M  V30 13659 C 1298.01 3.0376 -1.6378 0
M  V30 13660 C 1297.13 3.19747 -2.90492 0
M  V30 13661 C 1296.26 4.48505 -2.84635 0
M  V30 13662 C 1295.3 4.57956 -4.06132 0
M  V30 13663 N 1294.44 5.78079 -3.98458 0
M  V30 13664 H 1299.28 1.53545 -2.55398 0
M  V30 13665 H 1296.81 0.747826 -1.26673 0
M  V30 13666 H 1298.77 3.8386 -1.63424 0
M  V30 13667 H 1297.4 3.14483 -0.728036 0
M  V30 13668 H 1296.45 2.3302 -3.00676 0
M  V30 13669 H 1297.77 3.22594 -3.8044 0
M  V30 13670 H 1296.92 5.36875 -2.82577 0
M  V30 13671 H 1295.66 4.48151 -1.92385 0
M  V30 13672 H 1294.66 3.67995 -4.08484 0
M  V30 13673 H 1295.89 4.60062 -4.9952 0
M  V30 13674 H 1293.84 5.78657 -3.09017 0
M  V30 13675 H 1293.75 5.82342 -4.82093 0
M  V30 13676 H 1295.02 6.68786 -4.00431 0
M  V30 13677 N 1299.25 1.36039 0.795694 0
M  V30 13678 C 1300.5 1.30112 1.5556 0
M  V30 13679 C 1300.83 -0.121197 1.93821 0
M  V30 13680 O 1300.1 -1.07313 1.62216 0
M  V30 13681 C 1300.39 2.21792 2.8369 0
M  V30 13682 C 1300.24 3.72691 2.51836 0
M  V30 13683 C 1301.56 2.12365 3.85472 0
M  V30 13684 H 1298.68 0.473971 0.564376 0
M  V30 13685 H 1301.32 1.66536 0.91465 0
M  V30 13686 H 1299.47 1.9086 3.38386 0
M  V30 13687 H 1301.14 4.14115 2.0324 0
M  V30 13688 H 1299.38 3.92436 1.84869 0
M  V30 13689 H 1300.06 4.32242 3.43323 0
M  V30 13690 H 1302.53 2.3958 3.40207 0
M  V30 13691 H 1301.41 2.78695 4.72885 0
M  V30 13692 H 1301.67 1.10898 4.27965 0
M  V30 13693 N 1300.73 -1.01913 1.20215 0
M  V30 13694 C 1301.97 -1.77015 1.02202 0
M  V30 13695 C 1302.33 -1.86927 -0.43845 0
M  V30 13696 O 1303.53 -2.58451 -0.73869 0
M  V30 13697 C 1301.8 -3.15244 1.68393 0
M  V30 13698 S 1303.36 -4.06414 1.65449 0
M  V30 13699 H 1300.18 -0.609242 0.366531 0
M  V30 13700 H 1302.78 -1.22044 1.52727 0
M  V30 13701 H 1301.49 -3.05653 2.73869 0
M  V30 13702 H 1301.02 -3.7529 1.17988 0
M  V30 13703 H 1303.03 -4.91441 0.685571 0
M  V30 13704 N 1302.21 -1.00763 -1.2118 0
M  V30 13705 C 1303.62 -0.720905 -1.42391 0
M  V30 13706 C 1303.82 0.702918 -1.88842 0
M  V30 13707 O 1302.88 1.47191 -2.05161 0
M  V30 13708 C 1304.19 -1.739 -2.45315 0
M  V30 13709 C 1305.74 -1.75611 -2.59094 0
M  V30 13710 C 1306.21 -2.76323 -3.65253 0
M  V30 13711 N 1307.71 -2.75007 -3.72727 0
M  V30 13712 C 1308.44 -3.49594 -4.54502 0
M  V30 13713 N 1307.94 -4.33828 -5.40153 0
M  V30 13714 N 1309.73 -3.38232 -4.4895 0
M  V30 13715 H 1301.88 -1.92697 -0.893404 0
M  V30 13716 H 1304.14 -0.831888 -0.454606 0
M  V30 13717 H 1303.85 -2.75859 -2.18162 0
M  V30 13718 H 1303.72 -1.5438 -3.44161 0
M  V30 13719 H 1306.11 -0.743416 -2.85582 0
M  V30 13720 H 1306.19 -1.99203 -1.60474 0
M  V30 13721 H 1305.84 -3.77751 -3.39509 0
M  V30 13722 H 1305.77 -2.49996 -4.63476 0
M  V30 13723 H 1308.26 -2.13897 -3.11539 0
M  V30 13724 H 1308.57 -4.8753 -5.99612 0
M  V30 13725 H 1306.91 -4.3791 -5.39685 0
M  V30 13726 H 1310.11 -2.71855 -3.81068 0
M  V30 13727 H 1310.28 -3.96615 -5.12445 0
M  V30 13728 N 1303.68 1.3679 -0.7827 0
M  V30 13729 C 1304.61 2.32721 -0.190604 0
M  V30 13730 C 1305.6 1.56321 0.670663 0
M  V30 13731 O 1306.78 1.84507 0.605871 0
M  V30 13732 C 1303.91 3.40564 0.680717 0
M  V30 13733 C 1302.86 4.27925 -0.080118 0
M  V30 13734 C 1302.19 5.26876 0.911361 0
M  V30 13735 C 1303.49 5.06738 -1.26545 0
M  V30 13736 H 1305.18 2.82488 -0.992023 0
M  V30 13737 H 1302.73 1.35818 -0.478484 0
M  V30 13738 H 1304.68 4.06659 1.10482 0
M  V30 13739 H 1303.41 2.89348 1.51477 0
M  V30 13740 H 1302.07 3.63376 -0.485125 0
M  V30 13741 H 1301.71 4.71936 1.74026 0
M  V30 13742 H 1301.41 5.8619 0.406762 0
M  V30 13743 H 1302.94 5.95846 1.33418 0
M  V30 13744 H 1304.35 5.65911 -0.917448 0
M  V30 13745 H 1302.75 5.75432 -1.70289 0
M  V30 13746 H 1303.82 4.38772 -2.06415 0
M  V30 13747 N 1305.16 0.53415 1.48272 0
M  V30 13748 C 1306.11 -0.239672 2.31362 0
M  V30 13749 C 1307.1 -0.931501 1.4149 0
M  V30 13750 O 1308.31 -0.855411 1.58375 0
M  V30 13751 H 1304.69 -0.09616 0.745827 0
M  V30 13752 H 1306.66 0.480638 2.94504 0
M  V30 13753 C 1305.41 -1.27102 3.23636 0
M  V30 13754 H 1304.73 -0.748082 3.92739 0
M  V30 13755 H 1306.17 -1.78379 3.84652 0
M  V30 13756 C 1304.63 -2.30683 2.45534 0
M  V30 13757 O 1305.16 -3.37197 2.18314 0
M  V30 13758 N 1303.36 -2.04006 2.06954 0
M  V30 13759 H 1302.91 -1.17403 2.29291 0
M  V30 13760 H 1302.87 -2.73531 1.5501 0
M  V30 13761 N 1306.64 -1.55279 0.269478 0
M  V30 13762 C 1307.57 -2.19684 -0.653573 0
M  V30 13763 C 1308.59 -1.17985 -1.12176 0
M  V30 13764 O 1309.77 -1.44739 -1.04464 0
M  V30 13765 C 1306.87 -2.80438 -1.90284 0
M  V30 13766 C 1306.05 -4.07774 -1.58239 0
M  V30 13767 C 1305.11 -4.52629 -2.68354 0
M  V30 13768 O 1304.13 -5.18524 -2.3478 0
M  V30 13769 N 1305.33 -4.22297 -3.98303 0
M  V30 13770 H 1308.1 -2.99525 -0.102379 0
M  V30 13771 H 1305.66 -1.61648 0.0903465 0
M  V30 13772 H 1307.65 -3.07392 -2.63234 0
M  V30 13773 H 1306.22 -2.04622 -2.36323 0
M  V30 13774 H 1305.44 -3.88168 -0.686983 0
M  V30 13775 H 1306.73 -4.90749 -1.34323 0
M  V30 13776 H 1306.13 -3.69441 -4.28404 0
M  V30 13777 H 1304.69 -4.54035 -4.67649 0
M  V30 13778 N 1308.12 0.00332656 -1.576 0
M  V30 13779 C 1309.03 1.01221 -2.1164 0
M  V30 13780 C 1310.04 1.37918 -1.06088 0
M  V30 13781 O 1311.22 1.46717 -1.37971 0
M  V30 13782 C 1308.29 2.28638 -2.60626 0
M  V30 13783 C 1307.35 1.98284 -3.80765 0
M  V30 13784 C 1306.58 3.19626 -4.27405 0
M  V30 13785 O 1306.8 4.31196 -3.73398 0
M  V30 13786 O 1305.74 3.03819 -5.19594 0
M  V30 13787 H 1309.56 0.582839 -2.98055 0
M  V30 13788 H 1307.15 0.221947 -1.47742 0
M  V30 13789 H 1309.03 3.03498 -2.92347 0
M  V30 13790 H 1307.7 2.70819 -1.7731 0
M  V30 13791 H 1306.61 1.2091 -3.54022 0
M  V30 13792 H 1307.94 1.60942 -4.65144 0
M  V30 13793 N 1309.6 1.55164 0.276031 0
M  V30 13794 C 1310.85 1.74833 1.0058 0
M  V30 13795 C 1311.16 0.555089 1.87558 0
M  V30 13796 O 1312.36 0.634127 2.63991 0
M  V30 13797 C 1310.82 3.09417 1.83818 0
M  V30 13798 C 1310.43 4.36299 1.01721 0
M  V30 13799 C 1312.17 3.38437 2.56244 0
M  V30 13800 C 1310.08 5.61923 1.8438 0
M  V30 13801 H 1309.01 0.651676 0.379254 0
M  V30 13802 H 1311.66 1.81626 0.26161 0
M  V30 13803 H 1310.04 2.96654 2.62321 0
M  V30 13804 H 1311.22 4.59969 0.276565 0
M  V30 13805 H 1309.53 4.144 0.407645 0
M  V30 13806 H 1312.13 4.29501 3.18485 0
M  V30 13807 H 1312.47 2.58432 3.26372 0
M  V30 13808 H 1313 3.52284 1.84773 0
M  V30 13809 H 1309.74 6.44667 1.18679 0
M  V30 13810 H 1309.26 5.424 2.56051 0
M  V30 13811 H 1310.94 6.0011 2.4182 0
M  V30 13812 N 1311.07 -0.540404 1.48045 0
M  V30 13813 C 1312.3 -1.32656 1.59427 0
M  V30 13814 C 1312.72 -1.86419 0.250924 0
M  V30 13815 O 1312.08 -1.63861 -0.775838 0
M  V30 13816 C 1312.13 -2.46062 2.63602 0
M  V30 13817 O 1311.23 -3.48794 2.20038 0
M  V30 13818 H 1310.58 -0.393334 0.534962 0
M  V30 13819 H 1313.11 -0.651363 1.93955 0
M  V30 13820 H 1313.12 -2.92396 2.84549 0
M  V30 13821 H 1311.79 -2.06291 3.61133 0
M  V30 13822 H 1310.37 -3.0865 2.0926 0
M  V30 13823 N 1312.55 -1.36459 -0.788468 0
M  V30 13824 C 1313.97 -1.16893 -1.08666 0
M  V30 13825 C 1314.17 0.00633808 -2.01499 0
M  V30 13826 O 1313.22 0.671417 -2.4341 0
M  V30 13827 C 1314.54 -2.48018 -1.70022 0
M  V30 13828 C 1316.09 -2.5439 -1.82358 0
M  V30 13829 C 1316.56 -3.85605 -2.47129 0
M  V30 13830 N 1318.05 -3.86956 -2.54597 0
M  V30 13831 C 1318.79 -4.85224 -3.05525 0
M  V30 13832 N 1318.28 -5.93885 -3.56753 0
M  V30 13833 N 1320.08 -4.72643 -3.04246 0
M  V30 13834 H 1312.23 -2.11705 -0.171733 0
M  V30 13835 H 1314.49 -0.937784 -0.1388 0
M  V30 13836 H 1314.2 -3.34292 -1.09277 0
M  V30 13837 H 1314.07 -2.63894 -2.69518 0
M  V30 13838 H 1316.46 -1.68534 -2.4224 0
M  V30 13839 H 1316.54 -2.42414 -0.816651 0
M  V30 13840 H 1316.18 -4.71868 -1.87891 0
M  V30 13841 H 1316.11 -3.94878 -3.48395 0
M  V30 13842 H 1318.6 -3.08453 -2.18323 0
M  V30 13843 H 1318.92 -6.64839 -3.93966 0
M  V30 13844 H 1317.26 -5.97553 -3.54902 0
M  V30 13845 H 1320.45 -3.86883 -2.63513 0
M  V30 13846 H 1320.62 -5.49385 -3.43627 0
M  V30 13847 N 1314.03 1.01274 -1.20754 0
M  V30 13848 C 1314.96 2.11763 -0.983805 0
M  V30 13849 C 1315.94 1.69869 0.0885635 0
M  V30 13850 O 1317.13 1.94075 -0.0697239 0
M  V30 13851 C 1314.26 3.43087 -0.539287 0
M  V30 13852 C 1313.21 3.9874 -1.55534 0
M  V30 13853 C 1312.54 5.25877 -0.967322 0
M  V30 13854 C 1313.84 4.31688 -2.94012 0
M  V30 13855 H 1315.53 2.30737 -1.90789 0
M  V30 13856 H 1313.08 1.10884 -0.918734 0
M  V30 13857 H 1315.03 4.19773 -0.369979 0
M  V30 13858 H 1313.75 3.23883 0.420435 0
M  V30 13859 H 1312.41 3.24166 -1.71207 0
M  V30 13860 H 1312.06 5.03 0.000448307 0
M  V30 13861 H 1311.76 5.64077 -1.64594 0
M  V30 13862 H 1313.28 6.05215 -0.809167 0
M  V30 13863 H 1314.7 4.99246 -2.81827 0
M  V30 13864 H 1313.1 4.81011 -3.58815 0
M  V30 13865 H 1314.17 3.4029 -3.45442 0
M  V30 13866 N 1315.51 1.01404 1.20644 0
M  V30 13867 C 1316.46 0.575388 2.25371 0
M  V30 13868 C 1317.45 -0.384598 1.64976 0
M  V30 13869 O 1318.66 -0.2548 1.78187 0
M  V30 13870 H 1315.03 0.167752 0.733051 0
M  V30 13871 H 1317 1.46964 2.597 0
M  V30 13872 C 1315.75 -0.0731257 3.47623 0
M  V30 13873 H 1315.08 0.656551 3.94372 0
M  V30 13874 H 1316.52 -0.343203 4.22609 0
M  V30 13875 C 1314.97 -1.31515 3.1017 0
M  V30 13876 O 1315.5 -2.40869 3.21473 0
M  V30 13877 N 1313.71 -1.19829 2.64744 0
M  V30 13878 H 1313.26 -0.308463 2.55746 0
M  V30 13879 H 1313.22 -2.0303 2.40054 0
M  V30 13880 N 1316.99 -1.36373 0.789944 0
M  V30 13881 C 1317.92 -2.2873 0.146642 0
M  V30 13882 C 1318.93 -1.49503 -0.644419 0
M  V30 13883 O 1320.12 -1.71939 -0.479515 0
M  V30 13884 C 1317.22 -3.28945 -0.815369 0
M  V30 13885 C 1316.39 -4.37337 -0.0742515 0
M  V30 13886 C 1315.45 -5.17511 -0.952284 0
M  V30 13887 O 1314.48 -5.67726 -0.409336 0
M  V30 13888 N 1315.68 -5.34001 -2.27648 0
M  V30 13889 H 1318.45 -2.84578 0.939978 0
M  V30 13890 H 1316.01 -1.48545 0.643898 0
M  V30 13891 H 1318 -3.79469 -1.40661 0
M  V30 13892 H 1316.57 -2.73734 -1.50958 0
M  V30 13893 H 1315.79 -3.8797 0.698068 0
M  V30 13894 H 1317.08 -5.06919 0.437148 0
M  V30 13895 H 1316.48 -4.94819 -2.74173 0
M  V30 13896 H 1315.03 -5.87766 -2.81735 0
M  V30 13897 N 1318.47 -0.542005 -1.47987 0
M  V30 13898 C 1319.38 0.217677 -2.33588 0
M  V30 13899 C 1320.39 0.927093 -1.47245 0
M  V30 13900 O 1321.57 0.899378 -1.80203 0
M  V30 13901 C 1318.63 1.24376 -3.23622 0
M  V30 13902 C 1317.69 0.543407 -4.25847 0
M  V30 13903 C 1316.93 1.5206 -5.11579 0
M  V30 13904 O 1317.15 2.75425 -4.99497 0
M  V30 13905 O 1316.08 1.05341 -5.9261 0
M  V30 13906 H 1319.91 -0.484089 -2.99817 0
M  V30 13907 H 1317.49 -0.302783 -1.463 0
M  V30 13908 H 1319.38 1.83644 -3.7928 0
M  V30 13909 H 1318.05 1.92772 -2.6004 0
M  V30 13910 H 1316.96 -0.090074 -3.73992 0
M  V30 13911 H 1318.29 -0.0988264 -4.92101 0
M  V30 13912 N 1319.94 1.55134 -0.277709 0
M  V30 13913 C 1321.19 1.99949 0.338831 0
M  V30 13914 C 1321.52 1.16587 1.5531 0
M  V30 13915 O 1320.8 0.236572 1.93056 0
M  V30 13916 C 1321.08 3.5286 0.718457 0
M  V30 13917 C 1320.93 4.46975 -0.503332 0
M  V30 13918 C 1322.25 4.11754 1.55392 0
M  V30 13919 H 1319.37 0.726885 0.121682 0
M  V30 13920 H 1322.01 1.86055 -0.385171 0
M  V30 13921 H 1320.16 3.64831 1.33531 0
M  V30 13922 H 1321.84 4.46944 -1.14188 0
M  V30 13923 H 1320.08 4.18528 -1.14092 0
M  V30 13924 H 1320.75 5.51659 -0.193912 0
M  V30 13925 H 1323.23 4.03075 1.03293 0
M  V30 13926 H 1322.1 5.1895 1.78835 0
M  V30 13927 H 1322.36 3.62147 2.53578 0
M  V30 13928 N 1321.42 0.00503138 1.57599 0
M  V30 13929 C 1322.65 -0.693231 1.95471 0
M  V30 13930 C 1323.07 -1.66233 0.880246 0
M  V30 13931 O 1322.43 -1.80582 -0.161164 0
M  V30 13932 C 1322.48 -1.39696 3.32442 0
M  V30 13933 O 1321.58 -2.51154 3.27101 0
M  V30 13934 H 1320.92 -0.184015 0.637992 0
M  V30 13935 H 1323.45 0.0597194 2.04513 0
M  V30 13936 H 1323.46 -1.75924 3.68123 0
M  V30 13937 H 1322.14 -0.686438 4.10196 0
M  V30 13938 H 1320.71 -2.17216 3.03103 0
M  V30 13939 N 1322.9 -1.55308 -0.267798 0
M  V30 13940 C 1323.83 -1.84963 -1.35356 0
M  V30 13941 C 1324.84 -0.73446 -1.45291 0
M  V30 13942 O 1326.03 -1.01237 -1.47015 0
M  V30 13943 C 1323.13 -2.00221 -2.73432 0
M  V30 13944 C 1322.31 -3.30922 -2.86024 0
M  V30 13945 C 1321.37 -3.3618 -4.04808 0
M  V30 13946 O 1320.39 -4.09525 -3.9532 0
M  V30 13947 N 1321.59 -2.63958 -5.17017 0
M  V30 13948 H 1324.36 -2.7868 -1.1026 0
M  V30 13949 H 1321.92 -1.55289 -0.457914 0
M  V30 13950 H 1323.91 -2.01103 -3.51197 0
M  V30 13951 H 1322.48 -1.13346 -2.91327 0
M  V30 13952 H 1321.7 -3.42534 -1.951 0
M  V30 13953 H 1322.99 -4.17109 -2.91371 0
M  V30 13954 H 1322.39 -2.04062 -5.27613 0
M  V30 13955 H 1320.94 -2.70558 -5.92994 0
M  V30 13956 N 1324.38 0.532545 -1.4833 0
M  V30 13957 C 1325.31 1.64662 -1.65555 0
M  V30 13958 C 1326.29 1.62447 -0.50447 0
M  V30 13959 O 1327.47 1.79684 -0.736712 0
M  V30 13960 C 1324.6 3.03256 -1.69272 0
M  V30 13961 C 1323.56 3.20329 -2.83854 0
M  V30 13962 C 1322.88 4.59958 -2.72659 0
M  V30 13963 C 1324.18 3.03345 -4.25181 0
M  V30 13964 H 1325.88 1.50502 -2.58823 0
M  V30 13965 H 1323.42 0.722612 -1.24556 0
M  V30 13966 H 1325.38 3.81064 -1.79911 0
M  V30 13967 H 1324.1 3.18433 -0.725805 0
M  V30 13968 H 1322.76 2.44937 -2.72766 0
M  V30 13969 H 1322.41 4.71967 -1.73942 0
M  V30 13970 H 1322.11 4.72327 -3.49544 0
M  V30 13971 H 1323.63 5.39869 -2.85262 0
M  V30 13972 H 1325.05 3.70948 -4.37116 0
M  V30 13973 H 1323.44 3.27208 -5.03045 0
M  V30 13974 H 1324.51 1.998 -4.41824 0
M  V30 13975 N 1325.86 1.36875 0.78122 0
M  V30 13976 C 1327.08 1.349 1.57533 0
M  V30 13977 C 1327.51 -0.0655249 1.87986 0
M  V30 13978 O 1326.86 -1.03986 1.48515 0
M  V30 13979 C 1326.91 2.18562 2.86815 0
M  V30 13980 O 1326.02 1.58374 3.80777 0
M  V30 13981 H 1325.36 0.461355 0.477543 0
M  V30 13982 H 1327.89 1.80271 0.96766 0
M  V30 13983 H 1327.9 2.31436 3.36008 0
M  V30 13984 H 1326.57 3.21385 2.63978 0
M  V30 13985 H 1325.15 1.54487 3.39394 0
M  V30 13986 N 1327.33 -1.00632 1.21289 0
M  V30 13987 C 1328.75 -1.26744 0.969956 0
M  V30 13988 C 1328.95 -1.98534 -0.344449 0
M  V30 13989 O 1328.01 -2.28687 -1.07044 0
M  V30 13990 C 1329.32 -2.09238 2.15963 0
M  V30 13991 C 1330.87 -2.22469 2.20174 0
M  V30 13992 C 1331.34 -3.08344 3.38656 0
M  V30 13993 N 1332.83 -3.15932 3.38734 0
M  V30 13994 C 1333.57 -3.82632 4.2706 0
M  V30 13995 N 1333.06 -4.51371 5.25582 0
M  V30 13996 N 1334.86 -3.79259 4.14872 0
M  V30 13997 H 1327.01 -0.524626 2.05819 0
M  V30 13998 H 1329.27 -0.294231 0.901184 0
M  V30 13999 H 1328.98 -1.63835 3.11209 0
M  V30 14000 H 1328.85 -3.09987 2.14914 0
M  V30 14001 H 1331.24 -2.67091 1.25485 0
M  V30 14002 H 1331.32 -1.21194 2.25268 0
M  V30 14003 H 1330.96 -2.64425 4.33638 0
M  V30 14004 H 1330.89 -4.0973 3.30801 0
M  V30 14005 H 1333.38 -2.66998 2.67434 0
M  V30 14006 H 1333.7 -4.99966 5.89283 0
M  V30 14007 H 1332.04 -4.50162 5.29508 0
M  V30 14008 H 1335.23 -3.2471 3.37166 0
M  V30 14009 H 1335.41 -4.30963 4.83916 0
M  V30 14010 N 1328.81 -1.02043 -1.20104 0
M  V30 14011 C 1329.72 -0.603724 -2.26699 0
M  V30 14012 C 1330.74 0.360558 -1.70223 0
M  V30 14013 O 1331.91 0.220552 -2.00189 0
M  V30 14014 C 1328.98 0.0475988 -3.46667 0
M  V30 14015 C 1328.04 -0.963111 -4.18357 0
M  V30 14016 C 1327.27 -0.342775 -5.32598 0
M  V30 14017 O 1327.5 0.856509 -5.63933 0
M  V30 14018 O 1326.43 -1.06141 -5.92467 0
M  V30 14019 H 1330.26 -1.49125 -2.64566 0
M  V30 14020 H 1327.84 -0.790134 -1.26796 0
M  V30 14021 H 1329.72 0.411177 -4.19389 0
M  V30 14022 H 1328.4 0.909266 -3.10667 0
M  V30 14023 H 1327.3 -1.37813 -3.47791 0
M  V30 14024 H 1328.64 -1.79487 -4.58307 0
M  V30 14025 N 1330.29 1.35952 -0.797165 0
M  V30 14026 C 1331.22 2.32506 -0.215277 0
M  V30 14027 C 1332.2 1.57023 0.654046 0
M  V30 14028 O 1333.39 1.85139 0.586268 0
M  V30 14029 C 1330.52 3.41266 0.644557 0
M  V30 14030 C 1329.47 4.27816 -0.125501 0
M  V30 14031 C 1328.8 5.27813 0.855428 0
M  V30 14032 C 1330.1 5.05367 -1.31913 0
M  V30 14033 H 1331.79 2.8142 -1.02193 0
M  V30 14034 H 1329.34 1.35303 -0.492862 0
M  V30 14035 H 1331.29 4.07808 1.06163 0
M  V30 14036 H 1330.01 2.90938 1.484 0
M  V30 14037 H 1328.67 3.62841 -0.523639 0
M  V30 14038 H 1328.32 4.73755 1.69011 0
M  V30 14039 H 1328.02 5.86589 0.344566 0
M  V30 14040 H 1329.54 5.97227 1.2709 0
M  V30 14041 H 1330.96 5.64907 -0.977418 0
M  V30 14042 H 1329.36 5.73593 -1.76382 0
M  V30 14043 H 1330.43 4.36558 -2.11057 0
M  V30 14044 N 1331.77 0.549846 1.47697 0
M  V30 14045 C 1333.18 0.209085 1.58225 0
M  V30 14046 C 1333.38 -1.28823 1.54941 0
M  V30 14047 O 1332.44 -2.0679 1.44893 0
M  V30 14048 C 1333.75 0.829219 2.89041 0
M  V30 14049 C 1335.3 0.79977 3.0261 0
M  V30 14050 C 1335.78 1.39884 4.36115 0
M  V30 14051 N 1337.27 1.36169 4.42733 0
M  V30 14052 C 1338 1.79492 5.44583 0
M  V30 14053 N 1337.5 2.30637 6.53283 0
M  V30 14054 N 1339.29 1.70608 5.35583 0
M  V30 14055 H 1331.44 1.52275 1.48074 0
M  V30 14056 H 1333.71 0.634579 0.704283 0
M  V30 14057 H 1333.41 1.88122 2.97158 0
M  V30 14058 H 1333.29 0.317916 3.75858 0
M  V30 14059 H 1335.67 -0.243525 2.94093 0
M  V30 14060 H 1335.75 1.34875 2.17353 0
M  V30 14061 H 1335.4 2.44116 4.45387 0
M  V30 14062 H 1335.33 0.825362 5.20092 0
M  V30 14063 H 1337.82 0.987505 3.64769 0
M  V30 14064 H 1338.13 2.61637 7.27163 0
M  V30 14065 H 1336.48 2.34643 6.54192 0
M  V30 14066 H 1339.67 1.30434 4.4956 0
M  V30 14067 H 1339.84 2.0469 6.14822 0
M  V30 14068 N 1333.25 -1.54984 0.285932 0
M  V30 14069 C 1334.2 -2.19645 -0.611576 0
M  V30 14070 C 1335.18 -1.16453 -1.11029 0
M  V30 14071 O 1336.37 -1.42228 -1.05357 0
M  V30 14072 C 1333.5 -2.9293 -1.79017 0
M  V30 14073 C 1332.59 -4.03421 -1.30813 0
M  V30 14074 N 1332.98 -5.02877 -0.542993 0
M  V30 14075 C 1331.28 -4.16689 -1.59016 0
M  V30 14076 C 1331.98 -5.80986 -0.288176 0
M  V30 14077 N 1330.95 -5.36695 -0.863695 0
M  V30 14078 H 1334.76 -2.93894 -0.0192813 0
M  V30 14079 H 1332.27 -1.6215 0.0899876 0
M  V30 14080 H 1334.27 -3.37709 -2.44454 0
M  V30 14081 H 1332.93 -2.20194 -2.38631 0
M  V30 14082 H 1333.94 -5.17554 -0.189305 0
M  V30 14083 H 1330.61 -3.5515 -2.19488 0
M  V30 14084 H 1332 -6.71112 0.325337 0
M  V30 14085 N 1334.72 -0.0133892 -1.57594 0
M  V30 14086 C 1335.97 0.667896 -1.90321 0
M  V30 14087 C 1336.29 1.74187 -0.88984 0
M  V30 14088 O 1337.49 2.47871 -1.10779 0
M  V30 14089 C 1335.95 1.23917 -3.37894 0
M  V30 14090 C 1335.56 0.199313 -4.47556 0
M  V30 14091 C 1337.3 1.89788 -3.79712 0
M  V30 14092 C 1335.21 0.781339 -5.86216 0
M  V30 14093 H 1334.14 0.253229 -0.710205 0
M  V30 14094 H 1336.79 -0.0761229 -1.83342 0
M  V30 14095 H 1335.17 2.03429 -3.39754 0
M  V30 14096 H 1336.34 -0.572196 -4.57234 0
M  V30 14097 H 1334.66 -0.359719 -4.14843 0
M  V30 14098 H 1337.26 2.34262 -4.80651 0
M  V30 14099 H 1337.6 2.73406 -3.13934 0
M  V30 14100 H 1338.13 1.16989 -3.80208 0
M  V30 14101 H 1334.87 -0.0163598 -6.55498 0
M  V30 14102 H 1334.39 1.5217 -5.80176 0
M  V30 14103 H 1336.07 1.2759 -6.34295 0
M  V30 14104 N 1336.2 1.55448 0.259558 0
M  V30 14105 C 1337.14 1.84197 1.3471 0
M  V30 14106 C 1338.11 0.69603 1.4695 0
M  V30 14107 O 1339.3 0.940458 1.63364 0
M  V30 14108 C 1336.42 2.01549 2.72205 0
M  V30 14109 C 1335.47 3.2415 2.77181 0
M  V30 14110 S 1336.3 4.81149 2.35066 0
M  V30 14111 C 1337.46 5.0149 3.74511 0
M  V30 14112 H 1337.69 2.76153 1.10122 0
M  V30 14113 H 1335.23 1.47392 0.459893 0
M  V30 14114 H 1337.18 2.12231 3.51381 0
M  V30 14115 H 1335.84 1.10458 2.94037 0
M  V30 14116 H 1335.04 3.33219 3.78129 0
M  V30 14117 H 1334.64 3.12128 2.06038 0
M  V30 14118 H 1336.93 4.88057 4.69901 0
M  V30 14119 H 1337.87 6.03507 3.70385 0
M  V30 14120 H 1338.28 4.294 3.66437 0
M  V30 14121 N 1337.68 -0.524672 1.4861 0
M  V30 14122 C 1338.93 -1.27768 1.56588 0
M  V30 14123 C 1339.25 -1.93469 0.243899 0
M  V30 14124 O 1338.52 -1.8159 -0.734985 0
M  V30 14125 H 1337.1 -0.474566 0.576885 0
M  V30 14126 H 1339.76 -0.610114 1.85104 0
M  V30 14127 H 1338.86 -2.05416 2.34969 0
M  V30 14128 N 1339.16 -1.37287 -0.77395 0
M  V30 14129 C 1340.09 -1.35569 -1.90114 0
M  V30 14130 C 1341.07 -0.224658 -1.6861 0
M  V30 14131 O 1342.25 -0.424676 -1.895 0
M  V30 14132 C 1339.38 -1.15971 -3.27365 0
M  V30 14133 C 1338.34 -2.26063 -3.63427 0
M  V30 14134 C 1337.66 -1.9159 -4.99197 0
M  V30 14135 C 1338.96 -3.68236 -3.70405 0
M  V30 14136 H 1340.66 -2.29891 -1.91808 0
M  V30 14137 H 1338.2 -1.10661 -0.92142 0
M  V30 14138 H 1340.16 -1.134 -4.05855 0
M  V30 14139 H 1338.88 -0.181043 -3.26098 0
M  V30 14140 H 1337.54 -2.27786 -2.87244 0
M  V30 14141 H 1337.19 -0.922586 -4.94467 0
M  V30 14142 H 1336.89 -2.65309 -5.24294 0
M  V30 14143 H 1338.41 -1.90602 -5.80089 0
M  V30 14144 H 1339.83 -3.68655 -4.39052 0
M  V30 14145 H 1338.22 -4.4099 -4.06999 0
M  V30 14146 H 1339.29 -4.02021 -2.71122 0
M  V30 14147 N 1340.64 0.999871 -1.21821 0
M  V30 14148 C 1341.57 2.10708 -1.00621 0
M  V30 14149 C 1342.55 1.69954 0.0705417 0
M  V30 14150 O 1343.73 1.9399 -0.0903042 0
M  V30 14151 C 1340.86 3.42496 -0.575646 0
M  V30 14152 C 1339.82 3.97068 -1.59754 0
M  V30 14153 C 1339.14 5.24822 -1.02304 0
M  V30 14154 C 1340.44 4.28545 -2.98574 0
M  V30 14155 H 1342.14 2.28701 -1.93226 0
M  V30 14156 H 1339.68 1.09903 -0.930443 0
M  V30 14157 H 1341.64 4.19357 -0.414481 0
M  V30 14158 H 1340.36 3.2431 0.386059 0
M  V30 14159 H 1339.02 3.22332 -1.74636 0
M  V30 14160 H 1338.67 5.02972 -0.0529016 0
M  V30 14161 H 1338.37 5.62299 -1.70567 0
M  V30 14162 H 1339.89 6.04322 -0.873312 0
M  V30 14163 H 1341.3 4.96229 -2.87106 0
M  V30 14164 H 1339.7 4.77178 -3.63897 0
M  V30 14165 H 1340.77 3.36607 -3.49032 0
M  V30 14166 N 1342.11 1.02678 1.19562 0
M  V30 14167 C 1343.05 0.563882 2.22155 0
M  V30 14168 C 1344.06 -0.359132 1.58789 0
M  V30 14169 O 1345.25 -0.155857 1.77818 0
M  V30 14170 C 1342.35 -0.197894 3.38322 0
M  V30 14171 C 1341.52 0.729542 4.31273 0
M  V30 14172 C 1340.58 0.013543 5.26198 0
M  V30 14173 O 1339.61 0.639417 5.65597 0
M  V30 14174 N 1340.81 -1.25791 5.66707 0
M  V30 14175 H 1343.57 1.44623 2.62496 0
M  V30 14176 H 1341.13 0.90555 1.34207 0
M  V30 14177 H 1343.13 -0.686381 3.98837 0
M  V30 14178 H 1341.7 -0.981632 2.96787 0
M  V30 14179 H 1340.92 1.39816 3.68572 0
M  V30 14180 H 1342.2 1.35994 4.90289 0
M  V30 14181 H 1341.6 -1.78716 5.36728 0
M  V30 14182 H 1340.16 -1.69093 6.29485 0
M  V30 14183 N 1343.59 -1.35528 0.804364 0
M  V30 14184 C 1344.56 -2.28153 0.21885 0
M  V30 14185 C 1345.56 -1.49486 -0.592511 0
M  V30 14186 O 1346.75 -1.69274 -0.411319 0
M  V30 14187 C 1343.88 -3.33736 -0.695195 0
M  V30 14188 H 1345.07 -2.81446 1.03576 0
M  V30 14189 H 1342.62 -1.45345 0.574854 0
M  V30 14190 H 1343.36 -2.85625 -1.53587 0
M  V30 14191 H 1343.14 -3.91931 -0.115143 0
M  V30 14192 H 1344.63 -4.02872 -1.09925 0
M  V30 14193 N 1345.07 -0.557671 -1.47404 0
M  V30 14194 C 1346.49 -0.217473 -1.58111 0
M  V30 14195 C 1346.69 1.28 -1.55622 0
M  V30 14196 O 1345.74 2.06019 -1.45988 0
M  V30 14197 C 1347.06 -0.844535 -2.88597 0
M  V30 14198 C 1348.6 -0.815807 -3.02181 0
M  V30 14199 C 1349.08 -1.42195 -4.35367 0
M  V30 14200 N 1350.57 -1.38515 -4.42004 0
M  V30 14201 C 1351.31 -1.82378 -5.43623 0
M  V30 14202 N 1350.8 -2.34098 -6.52051 0
M  V30 14203 N 1352.59 -1.73446 -5.34671 0
M  V30 14204 H 1344.75 -1.53058 -1.47265 0
M  V30 14205 H 1347.01 -0.638305 -0.700907 0
M  V30 14206 H 1346.71 -1.89696 -2.96156 0
M  V30 14207 H 1346.59 -0.337844 -3.75684 0
M  V30 14208 H 1348.98 0.227925 -2.94218 0
M  V30 14209 H 1349.06 -1.36026 -2.16635 0
M  V30 14210 H 1348.7 -2.46475 -4.44086 0
M  V30 14211 H 1348.63 -0.852932 -5.19647 0
M  V30 14212 H 1351.12 -1.00684 -3.64241 0
M  V30 14213 H 1351.43 -2.6549 -7.25765 0
M  V30 14214 H 1349.78 -2.38109 -6.52939 0
M  V30 14215 H 1352.97 -1.32816 -4.48862 0
M  V30 14216 H 1353.14 -2.07947 -6.13728 0
M  V30 14217 N 1346.55 1.54831 -0.294147 0
M  V30 14218 C 1347.48 2.26226 0.57827 0
M  V30 14219 C 1348.46 1.25928 1.14351 0
M  V30 14220 O 1349.65 1.54687 1.17412 0
M  V30 14221 C 1346.78 2.99783 1.75349 0
M  V30 14222 C 1345.73 4.07171 1.31892 0
M  V30 14223 C 1345.06 4.68406 2.57876 0
M  V30 14224 C 1346.36 5.20313 0.455167 0
M  V30 14225 H 1348.05 2.99395 -0.0171936 0
M  V30 14226 H 1345.6 1.43997 -0.00970944 0
M  V30 14227 H 1347.55 3.48448 2.36986 0
M  V30 14228 H 1346.27 2.24181 2.37509 0
M  V30 14229 H 1344.93 3.59346 0.725653 0
M  V30 14230 H 1344.58 3.89451 3.18335 0
M  V30 14231 H 1344.28 5.40927 2.29502 0
M  V30 14232 H 1345.8 5.1983 3.20327 0
M  V30 14233 H 1347.22 5.64913 0.977026 0
M  V30 14234 H 1345.61 5.99512 0.265501 0
M  V30 14235 H 1346.68 4.82088 -0.521434 0
M  V30 14236 N 1348.03 0.0217466 1.57585 0
M  V30 14237 C 1349.28 -0.657187 1.91116 0
M  V30 14238 C 1349.6 -1.7309 0.898039 0
M  V30 14239 O 1348.87 -1.95803 -0.0615116 0
M  V30 14240 H 1347.45 -0.245732 0.705425 0
M  V30 14241 H 1350.11 0.0678096 1.94782 0
M  V30 14242 H 1349.2 -1.11462 2.91518 0
M  V30 14243 N 1349.51 -1.55583 -0.251311 0
M  V30 14244 C 1350.92 -1.67693 -0.820719 0
M  V30 14245 C 1351.27 -0.618393 -1.862 0
M  V30 14246 O 1350.39 0.236158 -2.15108 0
M  V30 14247 C 1350.99 -3.04011 -1.49542 0
M  V30 14248 C 1349.55 -3.18075 -2.01259 0
M  V30 14249 C 1348.69 -2.63557 -0.862138 0
M  V30 14250 H 1351.64 -1.58677 -0.0272072 0
M  V30 14251 H 1351.67 -2.9821 -2.36328 0
M  V30 14252 H 1351.18 -3.81032 -0.737323 0
M  V30 14253 H 1349.28 -2.45869 -2.79963 0
M  V30 14254 H 1349.39 -4.24927 -2.213 0
M  V30 14255 H 1347.76 -2.21268 -1.26145 0
M  V30 14256 H 1348.54 -3.431 -0.117196 0
M  V30 14257 N 1350.98 0.516783 -1.48886 0
M  V30 14258 C 1352.39 1.09856 -1.50959 0
M  V30 14259 C 1352.75 1.94092 -0.28681 0
M  V30 14260 O 1351.87 2.07774 0.604877 0
M  V30 14261 C 1352.47 1.999 -2.73542 0
M  V30 14262 C 1351.02 2.5327 -2.78444 0
M  V30 14263 C 1350.17 1.30526 -2.44659 0
M  V30 14264 H 1353.12 0.301415 -1.55811 0
M  V30 14265 H 1353.14 2.84373 -2.52809 0
M  V30 14266 H 1352.66 1.38564 -3.62521 0
M  V30 14267 H 1350.76 3.1829 -1.93707 0
M  V30 14268 H 1350.87 2.91502 -3.80215 0
M  V30 14269 H 1349.23 1.62536 -1.96097 0
M  V30 14270 H 1350.02 0.709223 -3.35894 0
M  V30 14271 N 1352.46 1.37696 0.766659 0
M  V30 14272 C 1353.71 1.32922 1.52237 0
M  V30 14273 C 1354.03 -0.0842833 1.94818 0
M  V30 14274 O 1353.3 -1.02934 1.66677 0
M  V30 14275 H 1351.88 0.489049 0.564659 0
M  V30 14276 H 1354.54 1.72238 0.912142 0
M  V30 14277 H 1353.64 1.97158 2.4194 0
M  V30 14278 N 1353.94 -0.993397 1.22349 0
M  V30 14279 C 1354.89 -2.06784 0.960445 0
M  V30 14280 C 1355.87 -1.60655 -0.0887385 0
M  V30 14281 O 1357.07 -1.76581 0.121716 0
M  V30 14282 C 1354.19 -3.39034 0.539552 0
M  V30 14283 C 1353.28 -3.91798 1.62344 0
M  V30 14284 N 1353.67 -4.17791 2.85104 0
M  V30 14285 C 1351.97 -4.20197 1.49501 0
M  V30 14286 C 1352.67 -4.6067 3.55187 0
M  V30 14287 N 1351.65 -4.64333 2.82658 0
M  V30 14288 H 1355.45 -2.24821 1.89295 0
M  V30 14289 H 1352.96 -1.17509 1.12095 0
M  V30 14290 H 1354.96 -4.15573 0.332419 0
M  V30 14291 H 1353.62 -3.22397 -0.38606 0
M  V30 14292 H 1354.63 -4.05999 3.21536 0
M  V30 14293 H 1351.31 -4.12634 0.635546 0
M  V30 14294 H 1352.7 -4.89408 4.60358 0
M  V30 14295 N 1355.42 -1.03311 -1.19015 0
M  V30 14296 C 1356.83 -0.761079 -1.70483 0
M  V30 14297 C 1357.18 0.718851 -1.82557 0
M  V30 14298 O 1356.3 1.56006 -1.4997 0
M  V30 14299 C 1356.9 -1.37492 -3.09647 0
M  V30 14300 C 1355.46 -1.15138 -3.58358 0
M  V30 14301 C 1354.61 -1.47034 -2.35109 0
M  V30 14302 H 1357.56 -1.2005 -1.03797 0
M  V30 14303 H 1357.58 -0.774115 -3.72542 0
M  V30 14304 H 1357.09 -2.45203 -3.00828 0
M  V30 14305 H 1355.19 -0.0926822 -3.72485 0
M  V30 14306 H 1355.3 -1.84307 -4.4223 0
M  V30 14307 H 1353.67 -0.889794 -2.38652 0
M  V30 14308 H 1354.45 -2.55837 -2.28916 0
M  V30 14309 N 1356.9 1.35099 -0.81154 0
M  V30 14310 C 1357.86 2.28033 -0.230947 0
M  V30 14311 C 1358.86 1.49798 0.584575 0
M  V30 14312 O 1360.05 1.6949 0.402336 0
M  V30 14313 C 1357.18 3.341 0.677486 0
M  V30 14314 H 1358.37 2.80893 -1.05067 0
M  V30 14315 H 1355.93 1.45038 -0.582554 0
M  V30 14316 H 1356.66 2.86435 1.5207 0
M  V30 14317 H 1356.45 3.91986 0.0943563 0
M  V30 14318 H 1357.94 4.0345 1.07787 0
M  V30 14319 N 1358.37 0.56548 1.47106 0
M  V30 14320 C 1359.62 0.0444375 2.02051 0
M  V30 14321 C 1359.94 -1.31344 1.44131 0
M  V30 14322 O 1359.21 -1.85845 0.619556 0
M  V30 14323 H 1357.79 0.0134375 0.746879 0
M  V30 14324 H 1360.45 0.737362 1.80413 0
M  V30 14325 H 1359.55 -0.0374834 3.12077 0
M  V30 14326 N 1359.85 -1.54672 0.302354 0
M  V30 14327 C 1361.08 -2.05041 -0.311891 0
M  V30 14328 C 1361.5 -1.17814 -1.46634 0
M  V30 14329 O 1360.86 -0.182517 -1.80379 0
M  V30 14330 C 1360.91 -3.52831 -0.744489 0
M  V30 14331 O 1360.01 -3.68621 -1.84913 0
M  V30 14332 H 1359.35 -0.661255 -0.0603102 0
M  V30 14333 H 1361.88 -1.99711 0.444593 0
M  V30 14334 H 1361.89 -3.94708 -1.03293 0
M  V30 14335 H 1360.57 -4.1578 0.0999976 0
M  V30 14336 H 1359.15 -3.38649 -1.56113 0
M  V30 14337 N 1361.33 -0.0301034 -1.57571 0
M  V30 14338 C 1362.29 0.936465 -2.09196 0
M  V30 14339 C 1363.29 1.25347 -1.00722 0
M  V30 14340 O 1364.48 1.19364 -1.26877 0
M  V30 14341 C 1361.62 2.2527 -2.55864 0
M  V30 14342 H 1362.81 0.489332 -2.95881 0
M  V30 14343 H 1360.36 0.217948 -1.54773 0
M  V30 14344 H 1361.1 2.7461 -1.72511 0
M  V30 14345 H 1360.88 2.03573 -3.35113 0
M  V30 14346 H 1362.37 2.94549 -2.96025 0
M  V30 14347 N 1362.81 1.55714 0.243056 0
M  V30 14348 C 1364.05 1.78904 0.96772 0
M  V30 14349 C 1364.41 0.599662 1.82816 0
M  V30 14350 O 1363.7 -0.406986 1.87228 0
M  V30 14351 C 1363.9 3.05281 1.85845 0
M  V30 14352 C 1363.73 4.36397 1.08572 0
M  V30 14353 C 1362.5 4.99098 0.789274 0
M  V30 14354 C 1364.69 5.12226 0.461433 0
M  V30 14355 N 1362.68 6.139 -0.00711288 0
M  V30 14356 C 1364.05 6.19679 -0.199349 0
M  V30 14357 C 1366.1 4.96506 0.372287 0
M  V30 14358 C 1364.8 7.13122 -0.940722 0
M  V30 14359 C 1366.83 5.9033 -0.355564 0
M  V30 14360 C 1366.19 6.97194 -1.00497 0
M  V30 14361 H 1362.29 0.706567 0.335094 0
M  V30 14362 H 1364.88 1.93209 0.240503 0
M  V30 14363 H 1363.05 2.92298 2.55767 0
M  V30 14364 H 1364.78 3.16749 2.51897 0
M  V30 14365 H 1361.53 4.606 1.10201 0
M  V30 14366 H 1361.96 6.75855 -0.393512 0
M  V30 14367 H 1366.6 4.13961 0.860025 0
M  V30 14368 H 1364.32 7.95166 -1.44005 0
M  V30 14369 H 1367.9 5.80244 -0.425257 0
M  V30 14370 H 1366.78 7.68543 -1.55918 0
M  V30 14371 N 1364.29 -0.50888 1.49158 0
M  V30 14372 C 1365.51 -1.28771 1.61943 0
M  V30 14373 C 1365.93 -1.86594 0.287759 0
M  V30 14374 O 1365.29 -1.67448 -0.725769 0
M  V30 14375 C 1365.34 -2.4236 2.68224 0
M  V30 14376 O 1365.06 -1.86915 3.96225 0
M  V30 14377 C 1366.56 -3.33856 2.91642 0
M  V30 14378 H 1363.78 -0.390849 0.545416 0
M  V30 14379 H 1366.32 -0.611729 1.95136 0
M  V30 14380 H 1364.48 -3.05803 2.37831 0
M  V30 14381 H 1364.89 -2.61426 4.54705 0
M  V30 14382 H 1366.37 -4.09856 3.69759 0
M  V30 14383 H 1366.84 -3.90374 2.01258 0
M  V30 14384 H 1367.45 -2.76187 3.23421 0
M  V30 14385 N 1365.76 -1.381 -0.759346 0
M  V30 14386 C 1367.18 -1.30379 -1.33635 0
M  V30 14387 C 1367.53 0.0430279 -1.96153 0
M  V30 14388 O 1366.65 0.945029 -1.94675 0
M  V30 14389 C 1367.25 -2.3611 -2.42976 0
M  V30 14390 C 1365.81 -2.31985 -2.96412 0
M  V30 14391 C 1364.95 -2.19281 -1.69739 0
M  V30 14392 H 1367.9 -1.48542 -0.558656 0
M  V30 14393 H 1367.92 -2.01493 -3.22771 0
M  V30 14394 H 1367.44 -3.34122 -1.97445 0
M  V30 14395 H 1365.54 -1.37536 -3.46287 0
M  V30 14396 H 1365.65 -3.25895 -3.51183 0
M  V30 14397 H 1364.01 -1.66035 -1.93144 0
M  V30 14398 H 1364.8 -3.19225 -1.26293 0
M  V30 14399 N 1367.24 0.986894 -1.22875 0
M  V30 14400 C 1368.52 1.70121 -0.965311 0
M  V30 14401 C 1368.9 2.04648 0.517924 0
M  V30 14402 O 1368.25 1.73453 1.48749 0
M  V30 14403 C 1368.46 2.94738 -1.86897 0
M  V30 14404 C 1369.81 3.6739 -2.12861 0
M  V30 14405 O 1370.83 3.04758 -1.84394 0
M  V30 14406 O 1369.69 4.8009 -2.61106 0
M  V30 14407 H 1366.78 0.742817 -0.363527 0
M  V30 14408 H 1369.33 1.0427 -1.33887 0
M  V30 14409 H 1368.1 2.65771 -2.87196 0
M  V30 14410 H 1367.72 3.68327 -1.49736 0
M  V30 14411 N 1368.72 1.0394 1.18466 0
M  V30 14412 C 1370.13 0.77011 1.70077 0
M  V30 14413 C 1370.48 -0.70916 1.82935 0
M  V30 14414 O 1369.61 -1.55209 1.50795 0
M  V30 14415 C 1370.2 1.39132 3.08914 0
M  V30 14416 C 1368.76 1.17037 3.57742 0
M  V30 14417 C 1367.91 1.48279 2.34326 0
M  V30 14418 H 1370.86 1.20598 1.03159 0
M  V30 14419 H 1370.88 0.793861 3.72126 0
M  V30 14420 H 1370.39 2.46795 2.99523 0
M  V30 14421 H 1368.49 0.112435 3.7243 0
M  V30 14422 H 1368.61 1.8665 4.41247 0
M  V30 14423 H 1366.97 0.902438 2.38177 0
M  V30 14424 H 1367.75 2.57047 2.27556 0
M  V30 14425 N 1370.2 -1.34667 0.818693 0
M  V30 14426 C 1371.61 -1.80839 0.46414 0
M  V30 14427 C 1371.96 -1.67902 -1.01506 0
M  V30 14428 O 1371.09 -1.21658 -1.78964 0
M  V30 14429 C 1371.68 -3.28331 0.835698 0
M  V30 14430 C 1370.24 -3.72599 0.533575 0
M  V30 14431 C 1369.39 -2.56452 1.05487 0
M  V30 14432 H 1372.34 -1.22474 1.00925 0
M  V30 14433 H 1372.36 -3.8025 0.13785 0
M  V30 14434 H 1371.87 -3.37715 1.91233 0
M  V30 14435 H 1369.97 -3.68756 -0.533819 0
M  V30 14436 H 1370.08 -4.66891 1.07468 0
M  V30 14437 H 1368.45 -2.50201 0.476612 0
M  V30 14438 H 1369.23 -2.68608 2.13786 0
M  V30 14439 N 1371.68 -0.573274 -1.46804 0
M  V30 14440 C 1372.92 -0.057823 -2.04318 0
M  V30 14441 C 1373.28 1.27424 -1.43622 0
M  V30 14442 O 1374.48 1.87835 -1.92279 0
M  V30 14443 C 1372.75 0.016823 -3.57396 0
M  V30 14444 S 1374.31 0.476068 -4.3621 0
M  V30 14445 H 1371.13 -0.0329025 -0.710238 0
M  V30 14446 H 1373.73 -0.76364 -1.79969 0
M  V30 14447 H 1372.44 -0.956757 -3.99092 0
M  V30 14448 H 1371.97 0.745702 -3.86268 0
M  V30 14449 H 1373.98 1.73268 -4.64965 0
M  V30 14450 N 1373.15 1.5451 -0.310553 0
M  V30 14451 C 1374.57 1.85829 0.180166 0
M  V30 14452 C 1374.92 1.23239 1.52665 0
M  V30 14453 O 1374.04 0.53359 2.09718 0
M  V30 14454 C 1374.64 3.37153 0.333687 0
M  V30 14455 C 1373.2 3.68469 0.768625 0
M  V30 14456 C 1372.34 2.77051 -0.117399 0
M  V30 14457 H 1375.29 1.49544 -0.531262 0
M  V30 14458 H 1375.31 3.62171 1.16673 0
M  V30 14459 H 1374.83 3.82678 -0.646455 0
M  V30 14460 H 1372.93 3.28467 1.75898 0
M  V30 14461 H 1373.04 4.75559 0.581392 0
M  V30 14462 H 1371.4 2.51461 0.404905 0
M  V30 14463 H 1372.19 3.254 -1.09407 0
M  V30 14464 N 1374.63 0.0384594 1.57553 0
M  V30 14465 C 1375.57 -0.969185 2.077 0
M  V30 14466 C 1376.58 -1.2829 1.00227 0
M  V30 14467 O 1377.77 -1.24592 1.27824 0
M  V30 14468 C 1374.87 -2.29414 2.49444 0
M  V30 14469 C 1374.04 -2.16422 3.80106 0
M  V30 14470 C 1373.1 -3.31931 4.08299 0
M  V30 14471 O 1372.13 -3.08401 4.78412 0
M  V30 14472 N 1373.33 -4.56015 3.59208 0
M  V30 14473 H 1376.09 -0.541252 2.94772 0
M  V30 14474 H 1373.65 -0.148084 1.61221 0
M  V30 14475 H 1375.65 -3.05533 2.6539 0
M  V30 14476 H 1374.22 -2.63817 1.67688 0
M  V30 14477 H 1373.44 -1.24973 3.73866 0
M  V30 14478 H 1374.72 -2.04954 4.65694 0
M  V30 14479 H 1374.12 -4.78025 3.02503 0
M  V30 14480 H 1372.68 -5.29271 3.80415 0
M  V30 14481 N 1376.11 -1.55841 -0.234795 0
M  V30 14482 C 1377.04 -1.94344 -1.29432 0
M  V30 14483 C 1378.02 -0.809912 -1.49581 0
M  V30 14484 O 1379.21 -1.07117 -1.61986 0
M  V30 14485 C 1376.34 -2.24866 -2.64675 0
M  V30 14486 C 1375.29 -3.40584 -2.59203 0
M  V30 14487 C 1374.62 -3.56678 -3.98353 0
M  V30 14488 C 1375.92 -4.75935 -2.15135 0
M  V30 14489 H 1377.61 -2.83096 -0.97454 0
M  V30 14490 H 1375.16 -1.36205 -0.467355 0
M  V30 14491 H 1377.11 -2.50392 -3.38942 0
M  V30 14492 H 1375.83 -1.32953 -2.98314 0
M  V30 14493 H 1374.49 -3.15087 -1.87393 0
M  V30 14494 H 1374.14 -2.62164 -4.29277 0
M  V30 14495 H 1373.84 -4.34503 -3.95577 0
M  V30 14496 H 1375.37 -3.84538 -4.74302 0
M  V30 14497 H 1376.78 -5.00753 -2.7914 0
M  V30 14498 H 1375.18 -5.56949 -2.23446 0
M  V30 14499 H 1376.25 -4.72182 -1.10328 0
M  V30 14500 N 1377.59 0.500963 -1.49426 0
M  V30 14501 C 1379.01 0.832142 -1.36189 0
M  V30 14502 C 1379.21 1.9759 -0.395014 0
M  V30 14503 O 1378.26 2.51905 0.173294 0
M  V30 14504 C 1379.57 1.17232 -2.76907 0
M  V30 14505 C 1381.12 1.28052 -2.85607 0
M  V30 14506 C 1381.6 1.65399 -4.27092 0
M  V30 14507 N 1383.09 1.72448 -4.29902 0
M  V30 14508 C 1383.82 2.02789 -5.36343 0
M  V30 14509 N 1383.32 2.31354 -6.53029 0
M  V30 14510 N 1385.11 2.0404 -5.23759 0
M  V30 14511 H 1377.26 -0.253253 -2.10885 0
M  V30 14512 H 1379.53 -0.0507111 -0.946643 0
M  V30 14513 H 1379.23 0.405247 -3.49357 0
M  V30 14514 H 1379.11 2.11574 -3.12276 0
M  V30 14515 H 1381.49 2.03831 -2.13394 0
M  V30 14516 H 1381.57 0.317603 -2.53821 0
M  V30 14517 H 1381.22 0.901704 -4.99832 0
M  V30 14518 H 1381.15 2.6279 -4.56343 0
M  V30 14519 H 1383.64 1.52532 -3.45749 0
M  V30 14520 H 1383.95 2.53695 -7.29972 0
M  V30 14521 H 1382.3 2.28811 -6.56255 0
M  V30 14522 H 1385.49 1.812 -4.31606 0
M  V30 14523 H 1385.66 2.27353 -6.06807 0
M  V30 14524 N 1379.07 1.38501 0.752011 0
M  V30 14525 C 1380.48 1.31086 1.32941 0
M  V30 14526 C 1380.83 -0.0326248 1.96173 0
M  V30 14527 O 1379.95 -0.934692 1.95173 0
M  V30 14528 C 1380.55 2.37395 2.41721 0
M  V30 14529 C 1379.11 2.33553 2.95177 0
M  V30 14530 C 1378.26 2.20178 1.68573 0
M  V30 14531 H 1381.21 1.48836 0.550771 0
M  V30 14532 H 1381.23 2.03202 3.21697 0
M  V30 14533 H 1380.74 3.35164 1.9567 0
M  V30 14534 H 1378.84 1.39371 3.45553 0
M  V30 14535 H 1378.95 3.27753 3.49449 0
M  V30 14536 H 1377.32 1.67057 1.9226 0
M  V30 14537 H 1378.1 3.19891 1.24599 0
M  V30 14538 N 1380.55 -0.980364 1.23396 0
M  V30 14539 C 1381.96 -1.53622 1.061 0
M  V30 14540 C 1382.31 -1.92648 -0.371645 0
M  V30 14541 O 1381.43 -1.76051 -1.25837 0
M  V30 14542 C 1382.03 -2.79159 1.91979 0
M  V30 14543 C 1380.59 -3.31144 1.78943 0
M  V30 14544 C 1379.73 -2.04135 1.87681 0
M  V30 14545 H 1382.68 -0.800047 1.37058 0
M  V30 14546 H 1382.71 -3.52011 1.4446 0
M  V30 14547 H 1382.22 -2.50723 2.96242 0
M  V30 14548 H 1380.32 -3.64459 0.774634 0
M  V30 14549 H 1380.43 -4.009 2.62329 0
M  V30 14550 H 1378.8 -2.18271 1.31262 0
M  V30 14551 H 1379.58 -1.78081 2.93499 0
M  V30 14552 N 1382.02 -1.04567 -1.17913 0
M  V30 14553 C 1383.26 -0.760977 -1.89706 0
M  V30 14554 C 1383.63 0.698804 -1.78832 0
M  V30 14555 O 1384.83 1.09733 -2.45382 0
M  V30 14556 C 1383.1 -1.22042 -3.35917 0
M  V30 14557 S 1384.66 -1.06214 -4.25751 0
M  V30 14558 H 1381.48 -0.276538 -0.655017 0
M  V30 14559 H 1384.08 -1.339 -1.42446 0
M  V30 14560 H 1382.78 -2.27813 -3.41364 0
M  V30 14561 H 1382.31 -0.636401 -3.88218 0
M  V30 14562 H 1384.33 0.0174486 -4.96197 0
M  V30 14563 N 1383.5 1.34231 -0.825823 0
M  V30 14564 C 1384.43 2.31997 -0.264546 0
M  V30 14565 C 1385.41 1.58375 0.620592 0
M  V30 14566 O 1386.6 1.86341 0.546865 0
M  V30 14567 C 1383.73 3.42557 0.572025 0
M  V30 14568 C 1382.68 4.27454 -0.216219 0
M  V30 14569 C 1382.01 5.29509 0.743279 0
M  V30 14570 C 1383.31 5.02456 -1.42603 0
M  V30 14571 H 1385 2.79189 -1.08139 0
M  V30 14572 H 1382.55 1.34227 -0.521451 0
M  V30 14573 H 1384.5 4.09968 0.974889 0
M  V30 14574 H 1383.22 2.94021 1.42195 0
M  V30 14575 H 1381.88 3.61649 -0.600485 0
M  V30 14576 H 1381.53 4.77234 1.58924 0
M  V30 14577 H 1381.23 5.87188 0.220064 0
M  V30 14578 H 1382.76 5.99789 1.14394 0
M  V30 14579 H 1384.17 5.62706 -1.09702 0
M  V30 14580 H 1382.57 5.69723 -1.88509 0
M  V30 14581 H 1383.64 4.31983 -2.2027 0
M  V30 14582 N 1384.98 0.581051 1.46498 0
M  V30 14583 C 1386.2 0.0696654 2.07283 0
M  V30 14584 C 1386.63 -1.22525 1.42721 0
M  V30 14585 O 1385.99 -1.73967 0.510421 0
M  V30 14586 C 1386.04 -0.0843864 3.60501 0
M  V30 14587 O 1385.14 -1.14129 3.96293 0
M  V30 14588 H 1384.48 0.0620572 0.661094 0
M  V30 14589 H 1387.01 0.803522 1.88161 0
M  V30 14590 H 1387.02 -0.29108 4.0696 0
M  V30 14591 H 1385.7 0.861274 4.06884 0
M  V30 14592 H 1384.27 -0.913186 3.61546 0
M  V30 14593 N 1386.46 -1.54343 0.318742 0
M  V30 14594 C 1387.87 -1.85922 -0.170309 0
M  V30 14595 C 1388.22 -1.24047 -1.52009 0
M  V30 14596 O 1387.34 -0.544705 -2.09432 0
M  V30 14597 C 1387.94 -3.37325 -0.315802 0
M  V30 14598 C 1386.5 -3.68871 -0.749073 0
M  V30 14599 C 1385.65 -2.76985 0.13209 0
M  V30 14600 H 1388.6 -1.4926 0.539185 0
M  V30 14601 H 1388.62 -3.62784 -1.14751 0
M  V30 14602 H 1388.13 -3.8233 0.66674 0
M  V30 14603 H 1386.23 -3.29396 -1.74153 0
M  V30 14604 H 1386.34 -4.75861 -0.556164 0
M  V30 14605 H 1384.71 -2.51672 -0.391564 0
M  V30 14606 H 1385.49 -3.24815 1.11131 0
M  V30 14607 N 1387.94 -0.0468143 -1.5753 0
M  V30 14608 C 1389.18 0.631887 -1.94388 0
M  V30 14609 C 1389.54 1.68265 -0.924715 0
M  V30 14610 O 1390.74 2.41511 -1.18008 0
M  V30 14611 C 1389.01 1.21642 -3.36063 0
M  V30 14612 S 1390.57 1.91373 -3.94869 0
M  V30 14613 H 1387.39 0.207594 -0.680019 0
M  V30 14614 H 1389.99 -0.11471 -1.95163 0
M  V30 14615 H 1388.69 0.439479 -4.0804 0
M  V30 14616 H 1388.23 1.99993 -3.38772 0
M  V30 14617 H 1390.24 3.19392 -3.79741 0
M  V30 14618 N 1389.41 1.55964 0.226527 0
M  V30 14619 C 1390.38 1.91184 1.26418 0
M  V30 14620 C 1391.38 0.789982 1.40057 0
M  V30 14621 O 1392.57 1.05778 1.38407 0
M  V30 14622 C 1389.7 2.15826 2.63878 0
M  V30 14623 H 1390.89 2.83986 0.963956 0
M  V30 14624 H 1388.45 1.49169 0.466726 0
M  V30 14625 H 1389.18 1.2556 2.99007 0
M  V30 14626 H 1388.97 2.97549 2.55356 0
M  V30 14627 H 1390.46 2.44188 3.38765 0
M  V30 14628 N 1390.89 -0.493031 1.4969 0
M  V30 14629 C 1392.12 -1.27517 1.63567 0
M  V30 14630 C 1392.54 -1.85526 0.310105 0
M  V30 14631 O 1391.9 -1.66246 -0.723314 0
M  V30 14632 C 1391.95 -2.37551 2.71296 0
M  V30 14633 O 1391.05 -3.41617 2.31023 0
M  V30 14634 H 1390.39 -0.376116 0.547205 0
M  V30 14635 H 1392.92 -0.589328 1.95929 0
M  V30 14636 H 1392.93 -2.83196 2.93708 0
M  V30 14637 H 1391.61 -1.94697 3.67513 0
M  V30 14638 H 1390.19 -3.01836 2.18974 0
M  V30 14639 N 1392.37 -1.38898 -0.744656 0
M  V30 14640 C 1393.79 -1.20291 -1.04892 0
M  V30 14641 C 1393.99 -0.0577705 -2.01417 0
M  V30 14642 O 1393.04 0.593638 -2.45422 0
M  V30 14643 C 1394.36 -2.53302 -1.62045 0
M  V30 14644 C 1395.9 -2.60063 -1.74173 0
M  V30 14645 C 1396.38 -3.93272 -2.34736 0
M  V30 14646 N 1397.87 -3.9486 -2.42157 0
M  V30 14647 C 1398.6 -4.94698 -2.89933 0
M  V30 14648 N 1398.1 -6.04934 -3.37678 0
M  V30 14649 N 1399.89 -4.82083 -2.89055 0
M  V30 14650 H 1392.04 -2.12144 -0.104294 0
M  V30 14651 H 1394.31 -0.941725 -0.108895 0
M  V30 14652 H 1394.01 -3.376 -0.985868 0
M  V30 14653 H 1393.89 -2.72335 -2.60986 0
M  V30 14654 H 1396.27 -1.76155 -2.36756 0
M  V30 14655 H 1396.36 -2.44889 -0.739115 0
M  V30 14656 H 1396 -4.77607 -1.72784 0
M  V30 14657 H 1395.93 -4.05762 -3.35656 0
M  V30 14658 H 1398.42 -3.15243 -2.08399 0
M  V30 14659 H 1398.73 -6.77036 -3.72616 0
M  V30 14660 H 1397.08 -6.08541 -3.35712 0
M  V30 14661 H 1400.27 -3.9507 -2.51072 0
M  V30 14662 H 1400.44 -5.60039 -3.25975 0
M  V30 14663 N 1393.85 0.973806 -1.23914 0
M  V30 14664 C 1395.26 1.53057 -1.06913 0
M  V30 14665 C 1395.61 1.92842 0.361423 0
M  V30 14666 O 1394.74 1.76716 1.24901 0
M  V30 14667 C 1395.33 2.78137 -1.93457 0
M  V30 14668 C 1393.89 3.3019 -1.80697 0
M  V30 14669 C 1393.04 2.03137 -1.88761 0
M  V30 14670 H 1395.99 0.792767 -1.37481 0
M  V30 14671 H 1396.01 3.5124 -1.46325 0
M  V30 14672 H 1395.52 2.49149 -2.97568 0
M  V30 14673 H 1393.62 3.64043 -0.793951 0
M  V30 14674 H 1393.73 3.99503 -2.64451 0
M  V30 14675 H 1392.1 2.17572 -1.32418 0
M  V30 14676 H 1392.88 1.76522 -2.9444 0
M  V30 14677 N 1395.33 1.05191 1.17357 0
M  V30 14678 C 1396.74 0.788105 1.69251 0
M  V30 14679 C 1397.09 -0.689717 1.83677 0
M  V30 14680 O 1396.21 -1.53601 1.52433 0
M  V30 14681 C 1396.81 1.42401 3.07421 0
M  V30 14682 C 1395.37 1.20825 3.5648 0
M  V30 14683 C 1394.51 1.50756 2.3274 0
M  V30 14684 H 1397.47 1.21686 1.01874 0
M  V30 14685 H 1397.49 0.833285 3.71264 0
M  V30 14686 H 1397 2.49958 2.96889 0
M  V30 14687 H 1395.1 0.15193 3.7229 0
M  V30 14688 H 1395.21 1.91319 4.39242 0
M  V30 14689 H 1393.58 0.927649 2.37206 0
M  V30 14690 H 1394.36 2.59446 2.24817 0
M  V30 14691 N 1396.8 -1.33791 0.83293 0
M  V30 14692 C 1398.22 -1.80336 0.483294 0
M  V30 14693 C 1398.57 -1.68969 -0.997195 0
M  V30 14694 O 1397.69 -1.23549 -1.77664 0
M  V30 14695 C 1398.29 -3.27427 0.870475 0
M  V30 14696 C 1396.85 -3.72012 0.573064 0
M  V30 14697 C 1395.99 -2.55319 1.08201 0
M  V30 14698 H 1398.94 -1.21396 1.02218 0
M  V30 14699 H 1398.96 -3.80083 0.178173 0
M  V30 14700 H 1398.48 -3.35668 1.94804 0
M  V30 14701 H 1396.58 -3.69302 -0.494678 0
M  V30 14702 H 1396.69 -4.65725 1.12414 0
M  V30 14703 H 1395.05 -2.49681 0.503123 0
M  V30 14704 H 1395.84 -2.66326 2.16623 0
M  V30 14705 N 1398.28 -0.588812 -1.46187 0
M  V30 14706 C 1399.51 -0.0806571 -2.07243 0
M  V30 14707 C 1399.93 1.21766 -1.43369 0
M  V30 14708 O 1399.29 1.73694 -0.51964 0
M  V30 14709 C 1399.34 0.065267 -3.60541 0
M  V30 14710 O 1398.44 1.12026 -3.96893 0
M  V30 14711 H 1397.78 -0.0655622 -0.660755 0
M  V30 14712 H 1400.31 -0.813489 -1.87733 0
M  V30 14713 H 1400.32 0.269494 -4.07109 0
M  V30 14714 H 1399 -0.88284 -4.06422 0
M  V30 14715 H 1397.58 0.894 -3.62025 0
M  V30 14716 N 1399.76 1.54172 -0.326923 0
M  V30 14717 C 1400.69 2.27402 0.530154 0
M  V30 14718 C 1401.67 1.28325 1.11655 0
M  V30 14719 O 1402.86 1.57142 1.14105 0
M  V30 14720 C 1399.99 3.03435 1.68951 0
M  V30 14721 C 1398.94 4.09877 1.23226 0
M  V30 14722 C 1398.27 4.7377 2.47882 0
M  V30 14723 C 1399.57 5.21161 0.344698 0
M  V30 14724 H 1401.26 2.99291 -0.0806959 0
M  V30 14725 H 1398.81 1.43944 -0.0402511 0
M  V30 14726 H 1400.76 3.53396 2.29541 0
M  V30 14727 H 1399.48 2.29169 2.327 0
M  V30 14728 H 1398.14 3.60805 0.649267 0
M  V30 14729 H 1397.79 3.96116 3.10002 0
M  V30 14730 H 1397.49 5.45674 2.17977 0
M  V30 14731 H 1399.01 5.26507 3.09229 0
M  V30 14732 H 1400.43 5.66859 0.856979 0
M  V30 14733 H 1398.83 5.99941 0.138276 0
M  V30 14734 H 1399.9 4.80874 -0.623575 0
M  V30 14735 N 1401.24 0.0551678 1.57503 0
M  V30 14736 C 1402.17 -0.947102 2.08717 0
M  V30 14737 C 1403.18 -1.2722 1.01582 0
M  V30 14738 O 1404.37 -1.23229 1.29139 0
M  V30 14739 C 1401.47 -2.26756 2.51863 0
M  V30 14740 C 1400.65 -2.12378 3.8238 0
M  V30 14741 C 1399.7 -3.27582 4.11797 0
M  V30 14742 O 1398.73 -3.03309 4.81656 0
M  V30 14743 N 1399.93 -4.5218 3.64024 0
M  V30 14744 H 1402.7 -0.509957 2.9533 0
M  V30 14745 H 1400.26 -0.130976 1.61369 0
M  V30 14746 H 1402.25 -3.02701 2.68616 0
M  V30 14747 H 1400.82 -2.62024 1.70477 0
M  V30 14748 H 1400.04 -1.21 3.7517 0
M  V30 14749 H 1401.33 -2.00003 4.67842 0
M  V30 14750 H 1400.73 -4.7479 3.07556 0
M  V30 14751 H 1399.28 -5.25206 3.86008 0
M  V30 14752 N 1402.72 -1.56081 -0.218252 0
M  V30 14753 C 1403.99 -1.70043 -0.966684 0
M  V30 14754 C 1404.37 -0.603372 -2.02293 0
M  V30 14755 O 1403.72 0.389138 -2.25162 0
M  V30 14756 C 1403.93 -3.11484 -1.57413 0
M  V30 14757 C 1405.28 -3.70995 -2.06513 0
M  V30 14758 O 1406.3 -3.14466 -1.67301 0
M  V30 14759 O 1405.16 -4.70156 -2.78596 0
M  V30 14760 H 1402.26 -0.692691 -0.451784 0
M  V30 14761 H 1404.8 -1.68398 -0.209774 0
M  V30 14762 H 1403.57 -3.8279 -0.811614 0
M  V30 14763 H 1403.2 -3.1726 -2.3965 0
M  V30 14764 N 1404.2 0.485086 -1.49949 0
M  V30 14765 C 1405.42 1.26179 -1.63971 0
M  V30 14766 C 1405.84 1.86113 -0.317408 0
M  V30 14767 O 1405.2 1.68581 0.699038 0
M  V30 14768 C 1405.25 2.38062 -2.72046 0
M  V30 14769 O 1404.97 1.80588 -3.99149 0
M  V30 14770 C 1406.47 3.29174 -2.96916 0
M  V30 14771 H 1403.69 0.382122 -0.551565 0
M  V30 14772 H 1406.23 0.580607 -1.96085 0
M  V30 14773 H 1404.39 3.0198 -2.42666 0
M  V30 14774 H 1404.8 2.54159 -4.58807 0
M  V30 14775 H 1406.28 4.03922 -3.76233 0
M  V30 14776 H 1406.75 3.87123 -2.07443 0
M  V30 14777 H 1407.36 2.71006 -3.27774 0
M  V30 14778 N 1405.67 1.39291 0.737279 0
M  V30 14779 C 1406.9 1.39659 1.52653 0
M  V30 14780 C 1407.32 -0.00948259 1.88798 0
M  V30 14781 O 1406.67 -0.980249 1.53939 0
M  V30 14782 C 1406.72 2.2674 2.81552 0
M  V30 14783 O 1406.45 3.61871 2.46943 0
M  V30 14784 C 1407.95 2.35466 3.75594 0
M  V30 14785 H 1405.17 0.477108 0.471814 0
M  V30 14786 H 1407.71 1.83077 0.911205 0
M  V30 14787 H 1405.87 1.86741 3.39421 0
M  V30 14788 H 1406.28 4.07897 3.29728 0
M  V30 14789 H 1407.75 3.00649 4.62941 0
M  V30 14790 H 1408.23 1.37314 4.17183 0
M  V30 14791 H 1408.84 2.75925 3.23644 0
M  V30 14792 N 1407.15 -0.967221 1.24429 0
M  V30 14793 C 1408.08 -2.07966 1.06172 0
M  V30 14794 C 1409.06 -1.70081 -0.0254566 0
M  V30 14795 O 1410.25 -1.93682 0.141705 0
M  V30 14796 C 1407.38 -3.4085 0.666251 0
M  V30 14797 C 1406.33 -3.92692 1.70225 0
M  V30 14798 C 1405.66 -5.21925 1.16183 0
M  V30 14799 C 1406.96 -4.20478 3.09831 0
M  V30 14800 H 1408.65 -2.23497 1.99222 0
M  V30 14801 H 1406.2 -1.07398 0.959255 0
M  V30 14802 H 1408.15 -4.1811 0.52552 0
M  V30 14803 H 1406.87 -3.2522 -0.299939 0
M  V30 14804 H 1405.53 -3.17588 1.83121 0
M  V30 14805 H 1405.18 -5.02655 0.186237 0
M  V30 14806 H 1404.88 -5.57579 1.85416 0
M  V30 14807 H 1406.41 -6.01795 1.03323 0
M  V30 14808 H 1407.82 -4.88442 3.00162 0
M  V30 14809 H 1406.22 -4.67362 3.7642 0
M  V30 14810 H 1407.29 -3.27235 3.57834 0
M  V30 14811 N 1408.63 -1.05812 -1.16797 0
M  V30 14812 C 1409.59 -0.668766 -2.19226 0
M  V30 14813 C 1410.59 0.28299 -1.5829 0
M  V30 14814 O 1411.78 0.0660233 -1.74075 0
M  V30 14815 C 1408.91 0.0167379 -3.40896 0
M  V30 14816 H 1410.11 -1.57543 -2.55187 0
M  V30 14817 H 1407.66 -0.852753 -1.30988 0
M  V30 14818 H 1408.4 0.936382 -3.10487 0
M  V30 14819 H 1408.18 -0.667576 -3.86375 0
M  V30 14820 H 1409.67 0.275041 -4.16693 0
M  V30 14821 N 1410.11 1.33347 -0.840014 0
M  V30 14822 C 1411.02 2.32965 -0.276527 0
M  V30 14823 C 1412.03 1.634 0.598037 0
M  V30 14824 O 1413.21 1.95046 0.501888 0
M  V30 14825 C 1410.27 3.42498 0.53816 0
M  V30 14826 C 1409.34 4.27781 -0.360814 0
M  V30 14827 C 1408.57 5.32083 0.415085 0
M  V30 14828 O 1408.79 5.46115 1.64666 0
M  V30 14829 O 1407.73 6.01528 -0.211503 0
M  V30 14830 H 1411.55 2.83022 -1.10147 0
M  V30 14831 H 1409.14 1.3671 -0.602566 0
M  V30 14832 H 1411.02 4.09336 1.00108 0
M  V30 14833 H 1409.69 2.94655 1.34015 0
M  V30 14834 H 1408.6 3.63805 -0.871598 0
M  V30 14835 H 1409.93 4.7911 -1.1276 0
M  V30 14836 N 1411.59 0.596556 1.45873 0
M  V30 14837 C 1412.83 0.0875879 2.02611 0
M  V30 14838 C 1413.16 -1.27438 1.46538 0
M  V30 14839 O 1412.44 -1.83815 0.635779 0
M  V30 14840 C 1412.72 0.0367394 3.60081 0
M  V30 14841 C 1412.58 1.42859 4.26511 0
M  V30 14842 C 1413.89 -0.656795 4.35171 0
M  V30 14843 H 1411.01 0.0333031 0.736247 0
M  V30 14844 H 1413.66 0.766413 1.73857 0
M  V30 14845 H 1411.81 -0.541345 3.8471 0
M  V30 14846 H 1413.48 2.0529 4.13102 0
M  V30 14847 H 1411.72 1.99243 3.85337 0
M  V30 14848 H 1412.39 1.34535 5.35354 0
M  V30 14849 H 1414.87 -0.165553 4.15771 0
M  V30 14850 H 1413.74 -0.661445 5.449 0
M  V30 14851 H 1414 -1.72079 4.07236 0
M  V30 14852 N 1413.06 -1.53996 0.335095 0
M  V30 14853 C 1414.01 -2.21479 -0.541388 0
M  V30 14854 C 1415 -1.19926 -1.07268 0
M  V30 14855 O 1416.19 -1.45508 -1.00779 0
M  V30 14856 C 1413.32 -2.98477 -1.69607 0
M  V30 14857 C 1412.4 -4.07379 -1.17912 0
M  V30 14858 N 1412.8 -5.0435 -0.382732 0
M  V30 14859 C 1411.09 -4.21537 -1.45679 0
M  V30 14860 C 1411.79 -5.81608 -0.103194 0
M  V30 14861 N 1410.77 -5.39171 -0.692513 0
M  V30 14862 H 1414.57 -2.93806 0.0742285 0
M  V30 14863 H 1412.09 -1.61782 0.141529 0
M  V30 14864 H 1414.08 -3.45316 -2.33587 0
M  V30 14865 H 1412.74 -2.27674 -2.31505 0
M  V30 14866 H 1413.75 -5.17894 -0.0245533 0
M  V30 14867 H 1410.43 -3.61953 -2.08078 0
M  V30 14868 H 1411.82 -6.69737 0.538682 0
M  V30 14869 N 1414.54 -0.0635198 -1.57472 0
M  V30 14870 C 1415.78 0.611234 -1.95047 0
M  V30 14871 C 1416.15 1.67274 -0.94251 0
M  V30 14872 O 1417.35 2.40246 -1.20563 0
M  V30 14873 C 1415.62 1.18071 -3.37334 0
M  V30 14874 S 1417.18 1.87174 -3.96877 0
M  V30 14875 H 1413.99 0.20037 -0.682182 0
M  V30 14876 H 1416.6 -0.135403 -1.95031 0
M  V30 14877 H 1415.3 0.396176 -4.08483 0
M  V30 14878 H 1414.83 1.96388 -3.40874 0
M  V30 14879 H 1416.85 3.15346 -3.83107 0
M  V30 14880 N 1416.02 1.56195 0.209972 0
M  V30 14881 C 1417.43 1.69811 0.775969 0
M  V30 14882 C 1417.78 0.667543 1.84495 0
M  V30 14883 O 1416.91 -0.179043 2.15658 0
M  V30 14884 C 1417.5 3.07869 1.41429 0
M  V30 14885 C 1416.06 3.233 1.92755 0
M  V30 14886 C 1415.21 2.6575 0.791958 0
M  V30 14887 H 1418.16 1.58693 -0.0148727 0
M  V30 14888 H 1418.18 3.04371 2.28339 0
M  V30 14889 H 1417.69 3.82853 0.63604 0
M  V30 14890 H 1415.79 2.53206 2.73345 0
M  V30 14891 H 1415.91 4.30645 2.09956 0
M  V30 14892 H 1414.27 2.24535 1.20234 0
M  V30 14893 H 1415.05 3.4329 0.0261877 0
M  V30 14894 N 1417.5 -0.477127 1.50204 0
M  V30 14895 C 1418.46 -1.55824 1.68082 0
M  V30 14896 C 1419.46 -1.51039 0.551719 0
M  V30 14897 O 1420.65 -1.53766 0.818638 0
M  V30 14898 C 1417.78 -2.95462 1.70044 0
M  V30 14899 H 1418.98 -1.41292 2.64531 0
M  V30 14900 H 1416.53 -0.70308 1.39594 0
M  V30 14901 H 1417.26 -3.15445 0.752663 0
M  V30 14902 H 1417.05 -3.00343 2.52065 0
M  V30 14903 H 1418.54 -3.73964 1.85851 0
M  V30 14904 N 1418.98 -1.3968 -0.729882 0
M  V30 14905 C 1420.2 -1.40654 -1.52418 0
M  V30 14906 C 1420.63 -0.00428997 -1.881 0
M  V30 14907 O 1419.98 0.984023 -1.52272 0
M  V30 14908 C 1420.03 -2.29057 -2.78506 0
M  V30 14909 O 1419.14 -1.72397 -3.74637 0
M  V30 14910 H 1418.48 -0.478761 -0.460091 0
M  V30 14911 H 1421.01 -1.83738 -0.900087 0
M  V30 14912 H 1421.02 -2.43748 -3.27187 0
M  V30 14913 H 1419.69 -3.30961 -2.51868 0
M  V30 14914 H 1418.27 -1.66977 -3.33426 0
M  V30 14915 N 1420.45 0.960609 -1.2494 0
M  V30 14916 C 1421.7 1.70701 -1.09495 0
M  V30 14917 C 1422.03 1.90754 0.364214 0
M  V30 14918 O 1421.31 1.47417 1.26879 0
M  V30 14919 C 1421.59 3.09353 -1.84317 0
M  V30 14920 C 1421.44 2.96747 -3.38026 0
M  V30 14921 C 1422.76 4.09139 -1.62153 0
M  V30 14922 H 1419.88 0.61955 -0.399158 0
M  V30 14923 H 1422.52 1.11701 -1.53698 0
M  V30 14924 H 1420.67 3.59719 -1.46746 0
M  V30 14925 H 1422.35 2.53752 -3.85237 0
M  V30 14926 H 1420.59 2.32798 -3.66043 0
M  V30 14927 H 1421.26 3.95002 -3.85587 0
M  V30 14928 H 1423.74 3.67659 -1.94849 0
M  V30 14929 H 1422.61 5.04206 -2.16951 0
M  V30 14930 H 1422.87 4.38521 -0.561437 0
M  V30 14931 N 1421.93 1.0643 1.16234 0
M  V30 14932 C 1423.18 0.780296 1.86429 0
M  V30 14933 C 1423.5 -0.695335 1.82181 0
M  V30 14934 O 1422.77 -1.50312 1.2563 0
M  V30 14935 H 1421.35 0.285654 0.690225 0
M  V30 14936 H 1424.01 1.34609 1.40949 0
M  V30 14937 H 1423.11 1.10644 2.91829 0
M  V30 14938 N 1423.41 -1.329 0.847073 0
M  V30 14939 C 1424.64 -2.0171 0.460497 0
M  V30 14940 C 1425.05 -1.63699 -0.940649 0
M  V30 14941 O 1424.41 -0.854454 -1.61262 0
M  V30 14942 C 1424.46 -3.56799 0.581108 0
M  V30 14943 O 1424.18 -3.93442 1.92705 0
M  V30 14944 C 1425.68 -4.42882 0.192552 0
M  V30 14945 H 1422.9 -0.645887 0.181853 0
M  V30 14946 H 1425.45 -1.69648 1.14192 0
M  V30 14947 H 1423.6 -3.87364 -0.0524924 0
M  V30 14948 H 1424.02 -4.88157 1.91841 0
M  V30 14949 H 1425.49 -5.51025 0.327969 0
M  V30 14950 H 1425.97 -4.30571 -0.866315 0
M  V30 14951 H 1426.57 -4.17691 0.800918 0
M  V30 14952 N 1424.89 -0.604284 -1.45555 0
M  V30 14953 C 1425.82 0.165286 -2.27601 0
M  V30 14954 C 1426.8 0.876749 -1.36937 0
M  V30 14955 O 1427.98 0.886288 -1.66365 0
M  V30 14956 C 1425.11 1.23897 -3.15226 0
M  V30 14957 C 1424.16 0.631002 -4.21806 0
M  V30 14958 S 1424.99 -0.558612 -5.32578 0
M  V30 14959 C 1426.15 0.515745 -6.23772 0
M  V30 14960 H 1426.38 -0.53081 -2.92523 0
M  V30 14961 H 1423.91 -0.391717 -1.49348 0
M  V30 14962 H 1425.87 1.85358 -3.66268 0
M  V30 14963 H 1424.53 1.90712 -2.49575 0
M  V30 14964 H 1423.72 1.43876 -4.83028 0
M  V30 14965 H 1423.33 0.0915984 -3.73888 0
M  V30 14966 H 1425.62 1.39571 -6.62968 0
M  V30 14967 H 1426.56 -0.0602302 -7.08074 0
M  V30 14968 H 1426.97 0.829588 -5.58371 0
M  V30 14969 N 1426.37 1.53816 -0.343257 0
M  V30 14970 C 1427.28 2.28716 0.522121 0
M  V30 14971 C 1428.29 1.33815 1.11218 0
M  V30 14972 O 1429.47 1.66853 1.12793 0
M  V30 14973 C 1426.53 3.04517 1.65741 0
M  V30 14974 C 1425.59 4.15043 1.09716 0
M  V30 14975 C 1424.83 4.8722 2.17835 0
M  V30 14976 O 1425.05 4.59065 3.38549 0
M  V30 14977 O 1423.98 5.73678 1.82145 0
M  V30 14978 H 1427.81 3.03576 -0.086732 0
M  V30 14979 H 1425.4 1.49007 -0.108313 0
M  V30 14980 H 1427.28 3.51921 2.31796 0
M  V30 14981 H 1425.95 2.32514 2.25208 0
M  V30 14982 H 1424.86 3.71943 0.401152 0
M  V30 14983 H 1426.19 4.89147 0.547362 0
M  V30 14984 N 1427.84 0.0718701 1.57436 0
M  V30 14985 C 1429.07 -0.606253 1.97819 0
M  V30 14986 C 1429.49 -1.63144 0.950233 0
M  V30 14987 O 1428.84 -1.82391 -0.0631051 0
M  V30 14988 C 1428.9 -1.27476 3.38278 0
M  V30 14989 O 1428.62 -0.290603 4.37135 0
M  V30 14990 C 1430.12 -2.0407 3.93536 0
M  V30 14991 H 1427.34 -0.164305 0.650573 0
M  V30 14992 H 1429.88 0.144295 2.0399 0
M  V30 14993 H 1428.04 -1.97639 3.33193 0
M  V30 14994 H 1428.45 -0.77022 5.18814 0
M  V30 14995 H 1429.92 -2.46237 4.94036 0
M  V30 14996 H 1430.4 -2.89728 3.30083 0
M  V30 14997 H 1431.01 -1.38773 4.02022 0
M  V30 14998 N 1429.32 -1.56304 -0.201686 0
M  V30 14999 C 1430.57 -1.79881 -0.921269 0
M  V30 15000 C 1430.89 -0.643809 -1.84065 0
M  V30 15001 O 1430.16 0.338239 -1.92958 0
M  V30 15002 H 1428.74 -0.663506 -0.343175 0
M  V30 15003 H 1431.4 -1.93779 -0.208775 0
M  V30 15004 H 1430.5 -2.7279 -1.51631 0
M  V30 15005 N 1430.8 0.469154 -1.50455 0
M  V30 15006 C 1432.03 1.24432 -1.653 0
M  V30 15007 C 1432.44 1.85766 -0.33713 0
M  V30 15008 O 1431.8 1.69313 0.681118 0
M  V30 15009 C 1431.85 2.35163 -2.74555 0
M  V30 15010 O 1431.57 1.76344 -4.01042 0
M  V30 15011 C 1433.07 3.26006 -3.00391 0
M  V30 15012 H 1430.29 0.376251 -0.555587 0
M  V30 15013 H 1432.84 0.559777 -1.96689 0
M  V30 15014 H 1430.99 2.99389 -2.45855 0
M  V30 15015 H 1431.41 2.49278 -4.61477 0
M  V30 15016 H 1432.88 3.99909 -3.80496 0
M  V30 15017 H 1433.36 3.84901 -2.11537 0
M  V30 15018 H 1433.96 2.67515 -3.3063 0
M  V30 15019 N 1432.28 1.40065 0.722464 0
M  V30 15020 C 1433.24 1.39544 1.81825 0
M  V30 15021 C 1434.24 0.290385 1.58156 0
M  V30 15022 O 1435.43 0.54894 1.65325 0
M  V30 15023 C 1432.56 1.18041 3.19811 0
M  V30 15024 H 1433.76 2.37063 1.83687 0
M  V30 15025 H 1431.31 1.25813 0.927404 0
M  V30 15026 H 1432.04 0.212536 3.23603 0
M  V30 15027 H 1431.83 1.98079 3.38389 0
M  V30 15028 H 1433.32 1.20447 3.99853 0
M  V30 15029 N 1433.76 -0.95397 1.25448 0
M  V30 15030 C 1434.69 -2.06828 1.08372 0
M  V30 15031 C 1435.67 -1.70098 -0.00741585 0
M  V30 15032 O 1436.85 -1.93521 0.16224 0
M  V30 15033 C 1433.98 -3.40124 0.702365 0
M  V30 15034 C 1432.94 -3.90865 1.74381 0
M  V30 15035 C 1432.26 -5.20663 1.21712 0
M  V30 15036 C 1433.56 -4.17169 3.14273 0
M  V30 15037 H 1435.26 -2.21372 2.01581 0
M  V30 15038 H 1432.8 -1.06374 0.970592 0
M  V30 15039 H 1434.76 -4.17529 0.569837 0
M  V30 15040 H 1433.48 -3.2552 -0.265428 0
M  V30 15041 H 1432.14 -3.15628 1.86479 0
M  V30 15042 H 1431.79 -5.02429 0.23954 0
M  V30 15043 H 1431.49 -5.55581 1.91319 0
M  V30 15044 H 1433.01 -6.00665 1.097 0
M  V30 15045 H 1434.43 -4.85231 3.05325 0
M  V30 15046 H 1432.82 -4.63344 3.81356 0
M  V30 15047 H 1433.89 -3.23421 3.61285 0
M  V30 15048 N 1435.24 -1.07045 -1.15668 0
M  V30 15049 C 1436.17 -0.709413 -2.22463 0
M  V30 15050 C 1437.15 0.30169 -1.67403 0
M  V30 15051 O 1438.33 0.175131 -1.93409 0
M  V30 15052 C 1435.46 -0.103121 -3.47147 0
M  V30 15053 C 1434.42 -1.04103 -4.15146 0
M  V30 15054 C 1433.74 -0.297656 -5.33871 0
M  V30 15055 C 1435.04 -2.37332 -4.65264 0
M  V30 15056 H 1436.74 -1.60227 -2.52918 0
M  V30 15057 H 1434.28 -0.771846 -1.21567 0
M  V30 15058 H 1436.23 0.161371 -4.21091 0
M  V30 15059 H 1434.96 0.824792 -3.16014 0
M  V30 15060 H 1433.62 -1.2904 -3.43139 0
M  V30 15061 H 1433.27 0.633618 -4.98993 0
M  V30 15062 H 1432.97 -0.922789 -5.80309 0
M  V30 15063 H 1434.49 -0.0408892 -6.10586 0
M  V30 15064 H 1435.9 -2.1674 -5.30751 0
M  V30 15065 H 1434.3 -2.95412 -5.22352 0
M  V30 15066 H 1435.37 -2.99859 -3.81068 0
M  V30 15067 N 1436.71 1.32449 -0.85411 0
M  V30 15068 C 1437.99 1.91902 -0.378533 0
M  V30 15069 C 1438.37 1.77811 1.13782 0
M  V30 15070 O 1437.72 1.17588 1.95922 0
M  V30 15071 C 1437.93 3.38683 -0.842299 0
M  V30 15072 C 1439.28 4.15817 -0.859161 0
M  V30 15073 O 1440.3 3.47399 -0.786901 0
M  V30 15074 O 1439.16 5.37985 -0.960933 0
M  V30 15075 H 1436.25 0.819614 -0.110284 0
M  V30 15076 H 1438.8 1.41222 -0.940974 0
M  V30 15077 H 1437.57 3.4288 -1.88544 0
M  V30 15078 H 1437.19 3.96767 -0.257278 0
M  V30 15079 N 1438.19 0.611994 1.45232 0
M  V30 15080 C 1439.12 -0.0914869 2.33321 0
M  V30 15081 C 1440.1 -0.854315 1.4709 0
M  V30 15082 O 1441.29 -0.823994 1.75852 0
M  V30 15083 C 1438.42 -1.08652 3.29867 0
M  V30 15084 C 1437.37 -0.436615 4.25767 0
M  V30 15085 C 1436.7 -1.54021 5.12037 0
M  V30 15086 C 1438 0.645005 5.18302 0
M  V30 15087 H 1439.69 0.644053 2.92391 0
M  V30 15088 H 1437.24 0.311171 1.40598 0
M  V30 15089 H 1439.19 -1.58726 3.90364 0
M  V30 15090 H 1437.91 -1.85271 2.68965 0
M  V30 15091 H 1436.57 0.0432918 3.66574 0
M  V30 15092 H 1436.22 -2.29679 4.475 0
M  V30 15093 H 1435.92 -1.11084 5.77005 0
M  V30 15094 H 1437.45 -2.04313 5.75403 0
M  V30 15095 H 1438.86 0.228166 5.72846 0
M  V30 15096 H 1437.26 0.996387 5.9177 0
M  V30 15097 H 1438.33 1.51985 4.60466 0
M  V30 15098 N 1439.67 -1.53632 0.351409 0
M  V30 15099 C 1441.09 -1.596 -0.000214515 0
M  V30 15100 C 1441.29 -1.36709 -1.4803 0
M  V30 15101 O 1440.34 -1.16524 -2.24006 0
M  V30 15102 C 1441.65 -2.97419 0.443013 0
M  V30 15103 C 1443.2 -3.10485 0.396025 0
M  V30 15104 C 1443.68 -4.50693 0.814843 0
M  V30 15105 N 1445.17 -4.56766 0.76934 0
M  V30 15106 C 1445.9 -5.63418 1.06526 0
M  V30 15107 N 1445.4 -6.77887 1.42974 0
M  V30 15108 N 1447.19 -5.53331 0.988986 0
M  V30 15109 H 1439.34 -1.66765 1.31542 0
M  V30 15110 H 1441.61 -0.781418 0.53674 0
M  V30 15111 H 1441.31 -3.19262 1.47529 0
M  V30 15112 H 1441.19 -3.76781 -0.177725 0
M  V30 15113 H 1443.57 -2.8836 -0.627092 0
M  V30 15114 H 1443.65 -2.33163 1.05207 0
M  V30 15115 H 1443.3 -4.73554 1.83601 0
M  V30 15116 H 1443.23 -5.26424 0.136193 0
M  V30 15117 H 1445.72 -3.74569 0.500623 0
M  V30 15118 H 1446.03 -7.55194 1.64018 0
M  V30 15119 H 1444.38 -6.79314 1.46827 0
M  V30 15120 H 1447.57 -4.62783 0.703526 0
M  V30 15121 H 1447.74 -6.36355 1.22295 0
M  V30 15122 N 1441.15 -0.0802183 -1.57396 0
M  V30 15123 C 1442.56 0.451183 -1.81166 0
M  V30 15124 C 1442.91 1.69112 -0.994764 0
M  V30 15125 O 1442.03 2.15281 -0.219739 0
M  V30 15126 C 1442.63 0.825324 -3.28594 0
M  V30 15127 C 1441.19 1.30154 -3.53181 0
M  V30 15128 C 1440.34 0.290846 -2.75771 0
M  V30 15129 H 1443.29 -0.305829 -1.55725 0
M  V30 15130 H 1443.31 1.68608 -3.41104 0
M  V30 15131 H 1442.82 -0.0773119 -3.88023 0
M  V30 15132 H 1440.92 2.22239 -2.99066 0
M  V30 15133 H 1441.03 1.27365 -4.6186 0
M  V30 15134 H 1439.4 0.769894 -2.42785 0
M  V30 15135 H 1440.18 -0.604209 -3.37941 0
M  V30 15136 N 1442.63 1.56409 0.193394 0
M  V30 15137 C 1443.85 1.8519 0.933775 0
M  V30 15138 C 1444.28 0.663991 1.75991 0
M  V30 15139 O 1443.63 -0.387198 1.77117 0
M  V30 15140 C 1443.68 3.12212 1.80432 0
M  V30 15141 O 1442.79 2.92884 2.90332 0
M  V30 15142 H 1442.13 0.609754 0.262862 0
M  V30 15143 H 1444.66 2.03638 0.198195 0
M  V30 15144 H 1444.67 3.4305 2.20864 0
M  V30 15145 H 1443.34 3.98292 1.19733 0
M  V30 15146 H 1441.92 2.73349 2.53643 0
M  V30 15147 N 1444.1 -0.461169 1.50702 0
M  V30 15148 C 1445.35 -1.20934 1.61425 0
M  V30 15149 C 1445.67 -1.92884 0.32481 0
M  V30 15150 O 1446.87 -2.69712 0.311081 0
M  V30 15151 C 1445.33 -2.19797 2.84987 0
M  V30 15152 C 1444.94 -1.53604 4.20844 0
M  V30 15153 C 1446.68 -2.95194 3.05059 0
M  V30 15154 C 1444.59 -2.50811 5.35582 0
M  V30 15155 H 1443.52 -0.455088 0.601174 0
M  V30 15156 H 1446.17 -0.478771 1.77144 0
M  V30 15157 H 1444.55 -2.96187 2.62848 0
M  V30 15158 H 1445.72 -0.829345 4.53275 0
M  V30 15159 H 1444.04 -0.904504 4.06457 0
M  V30 15160 H 1446.64 -3.67965 3.87951 0
M  V30 15161 H 1446.98 -3.5516 2.1718 0
M  V30 15162 H 1447.51 -2.25915 3.27425 0
M  V30 15163 H 1444.25 -1.9557 6.25646 0
M  V30 15164 H 1443.77 -3.19604 5.07556 0
M  V30 15165 H 1445.45 -3.12437 5.66561 0
M  V30 15166 N 1445.58 -1.40446 -0.715026 0
M  V30 15167 C 1446.51 -1.43511 -1.84193 0
M  V30 15168 C 1447.49 -0.295969 -1.67505 0
M  V30 15169 O 1448.68 -0.504667 -1.87528 0
M  V30 15170 C 1445.81 -1.29751 -3.22152 0
M  V30 15171 C 1444.76 -2.41274 -3.53512 0
M  V30 15172 C 1444.09 -2.12591 -4.90621 0
M  V30 15173 C 1445.39 -3.83614 -3.54454 0
M  V30 15174 H 1447.08 -2.37819 -1.81885 0
M  V30 15175 H 1444.63 -1.14469 -0.873655 0
M  V30 15176 H 1446.58 -1.30511 -4.0068 0
M  V30 15177 H 1445.3 -0.319189 -3.25037 0
M  V30 15178 H 1443.96 -2.39764 -2.77324 0
M  V30 15179 H 1443.61 -1.13148 -4.90109 0
M  V30 15180 H 1443.31 -2.87308 -5.1257 0
M  V30 15181 H 1444.84 -2.15034 -5.71483 0
M  V30 15182 H 1446.25 -3.86945 -4.23021 0
M  V30 15183 H 1444.65 -4.57855 -3.87929 0
M  V30 15184 H 1445.72 -4.13159 -2.53827 0
M  V30 15185 N 1447.06 0.947303 -1.25952 0
M  V30 15186 C 1448.47 1.50755 -1.10136 0
M  V30 15187 C 1448.82 1.93566 0.320437 0
M  V30 15188 O 1447.95 1.79326 1.21125 0
M  V30 15189 C 1448.54 2.7397 -1.99313 0
M  V30 15190 C 1447.1 3.26283 -1.8766 0
M  V30 15191 C 1446.25 1.99088 -1.93027 0
M  V30 15192 H 1449.2 0.763427 -1.39131 0
M  V30 15193 H 1449.22 3.48057 -1.53742 0
M  V30 15194 H 1448.73 2.42781 -3.02785 0
M  V30 15195 H 1446.83 3.62277 -0.870992 0
M  V30 15196 H 1446.95 3.93803 -2.72866 0
M  V30 15197 H 1445.31 2.14714 -1.37003 0
M  V30 15198 H 1446.09 1.70237 -2.98118 0
M  V30 15199 N 1448.54 1.07657 1.15099 0
M  V30 15200 C 1449.95 0.823828 1.67541 0
M  V30 15201 C 1450.3 -0.650601 1.85099 0
M  V30 15202 O 1449.43 -1.50333 1.55657 0
M  V30 15203 C 1450.02 1.4889 3.04331 0
M  V30 15204 C 1448.58 1.28359 3.53837 0
M  V30 15205 C 1447.73 1.55659 2.2949 0
M  V30 15206 H 1450.68 1.23819 0.992699 0
M  V30 15207 H 1450.7 0.911848 3.69412 0
M  V30 15208 H 1450.21 2.56199 2.9152 0
M  V30 15209 H 1448.31 0.230864 3.71884 0
M  V30 15210 H 1448.42 2.00593 4.35085 0
M  V30 15211 H 1446.79 0.977755 2.35185 0
M  V30 15212 H 1447.57 2.64157 2.19263 0
M  V30 15213 N 1450.02 -1.31994 0.861122 0
M  V30 15214 C 1451.25 -2.00919 0.481167 0
M  V30 15215 C 1451.65 -1.64851 -0.928488 0
M  V30 15216 O 1451 -0.86916 -1.61837 0
M  V30 15217 C 1451.06 -3.55297 0.548091 0
M  V30 15218 C 1450.72 -4.14813 1.91779 0
M  V30 15219 C 1451.72 -4.32567 2.88412 0
M  V30 15220 C 1449.41 -4.50742 2.21669 0
M  V30 15221 C 1451.4 -4.85428 4.13084 0
M  V30 15222 C 1449.09 -5.03306 3.46593 0
M  V30 15223 C 1450.08 -5.20598 4.42116 0
M  V30 15224 O 1449.77 -5.72037 5.64827 0
M  V30 15225 H 1449.5 -0.649663 0.186853 0
M  V30 15226 H 1452.06 -1.69401 1.16157 0
M  V30 15227 H 1450.29 -3.86237 -0.18919 0
M  V30 15228 H 1451.98 -4.05488 0.182821 0
M  V30 15229 H 1452.74 -4.05137 2.66625 0
M  V30 15230 H 1448.62 -4.36563 1.48099 0
M  V30 15231 H 1452.17 -4.98841 4.87651 0
M  V30 15232 H 1448.06 -5.30169 3.68227 0
M  V30 15233 H 1448.83 -5.9042 5.66875 0
M  V30 15234 N 1451.49 -0.619688 -1.44906 0
M  V30 15235 C 1452.91 -0.203309 -1.8559 0
M  V30 15236 C 1453.26 1.24265 -1.51831 0
M  V30 15237 O 1452.38 1.94392 -0.950819 0
M  V30 15238 C 1452.98 -0.362204 -3.36858 0
M  V30 15239 C 1451.54 -0.000423575 -3.764 0
M  V30 15240 C 1450.68 -0.680979 -2.68808 0
M  V30 15241 H 1453.63 -0.825595 -1.35535 0
M  V30 15242 H 1453.65 0.402149 -3.78369 0
M  V30 15243 H 1453.17 -1.41468 -3.61398 0
M  V30 15244 H 1451.27 1.05077 -3.57477 0
M  V30 15245 H 1451.38 -0.402508 -4.77406 0
M  V30 15246 H 1449.74 -0.117407 -2.54429 0
M  V30 15247 H 1450.53 -1.73583 -2.96182 0
M  V30 15248 N 1452.97 1.53444 -0.359552 0
M  V30 15249 C 1454.2 2.06058 0.235576 0
M  V30 15250 C 1454.62 1.23175 1.42161 0
M  V30 15251 O 1453.98 0.249338 1.79577 0
M  V30 15252 C 1454.03 3.55351 0.613025 0
M  V30 15253 O 1453.13 3.75229 1.71104 0
M  V30 15254 H 1452.47 0.663038 0.0357266 0
M  V30 15255 H 1455 1.97923 -0.518408 0
M  V30 15256 H 1455.01 3.9827 0.885722 0
M  V30 15257 H 1453.69 4.15122 -0.254243 0
M  V30 15258 H 1452.27 3.4421 1.43437 0
M  V30 15259 N 1454.45 0.0885642 1.57351 0
M  V30 15260 C 1455.36 -0.887092 2.17182 0
M  V30 15261 C 1456.38 -1.31498 1.13949 0
M  V30 15262 O 1457.55 -1.38424 1.4629 0
M  V30 15263 C 1454.62 -2.13053 2.73513 0
M  V30 15264 C 1453.68 -1.75747 3.91678 0
M  V30 15265 C 1452.91 -2.94163 4.45313 0
M  V30 15266 O 1453.13 -4.08693 3.97903 0
M  V30 15267 O 1452.07 -2.73008 5.36424 0
M  V30 15268 H 1455.89 -0.408073 3.00946 0
M  V30 15269 H 1453.48 -0.135431 1.48785 0
M  V30 15270 H 1455.36 -2.85937 3.09545 0
M  V30 15271 H 1454.04 -2.6002 1.92798 0
M  V30 15272 H 1452.94 -1.00064 3.60469 0
M  V30 15273 H 1454.28 -1.33549 4.73736 0
M  V30 15274 N 1455.93 -1.56509 -0.185096 0
M  V30 15275 C 1457.34 -1.71024 -0.748856 0
M  V30 15276 C 1457.69 -0.69681 -1.83409 0
M  V30 15277 O 1456.82 0.144711 -2.15916 0
M  V30 15278 C 1457.41 -3.1008 -1.36513 0
M  V30 15279 C 1455.97 -3.26325 -1.87587 0
M  V30 15280 C 1455.12 -2.66977 -0.749579 0
M  V30 15281 H 1458.07 -1.58649 0.0401175 0
M  V30 15282 H 1458.09 -3.07965 -2.23468 0
M  V30 15283 H 1457.6 -3.83816 -0.575051 0
M  V30 15284 H 1455.7 -2.57522 -2.69283 0
M  V30 15285 H 1455.81 -4.33931 -2.03078 0
M  V30 15286 H 1454.18 -2.26419 -1.16647 0
M  V30 15287 H 1454.96 -3.43288 0.0284301 0
M  V30 15288 N 1457.41 0.45317 -1.50944 0
M  V30 15289 C 1458.68 1.21413 -1.53357 0
M  V30 15290 C 1459.06 2.09118 -0.288584 0
M  V30 15291 O 1458.41 2.16621 0.727164 0
M  V30 15292 C 1458.62 2.02969 -2.83909 0
M  V30 15293 C 1459.97 2.60551 -3.35258 0
M  V30 15294 O 1460.99 2.13196 -2.85353 0
M  V30 15295 O 1459.85 3.46881 -4.22298 0
M  V30 15296 H 1456.95 0.551909 -0.615894 0
M  V30 15297 H 1459.49 0.463529 -1.63247 0
M  V30 15298 H 1458.26 1.38453 -3.65987 0
M  V30 15299 H 1457.89 2.85127 -2.77107 0
M  V30 15300 N 1458.88 1.40823 0.707568 0
M  V30 15301 C 1460.3 1.35249 1.28704 0
M  V30 15302 C 1460.65 0.0298026 1.96177 0
M  V30 15303 O 1459.77 -0.872126 1.98048 0
M  V30 15304 C 1460.37 2.44965 2.34046 0
M  V30 15305 C 1458.93 2.42826 2.87598 0
M  V30 15306 C 1458.07 2.25429 1.61483 0
M  V30 15307 H 1461.02 1.50513 0.503141 0
M  V30 15308 H 1461.04 2.13334 3.1507 0
M  V30 15309 H 1460.56 3.41219 1.84908 0
M  V30 15310 H 1458.66 1.50294 3.40944 0
M  V30 15311 H 1458.77 3.38704 3.38845 0
M  V30 15312 H 1457.13 1.73089 1.86848 0
M  V30 15313 H 1457.92 3.23693 1.14359 0
M  V30 15314 N 1460.36 -0.94061 1.26453 0
M  V30 15315 C 1461.29 -2.05667 1.10559 0
M  V30 15316 C 1462.27 -1.70097 0.0106258 0
M  V30 15317 O 1463.46 -1.93338 0.182756 0
M  V30 15318 C 1460.59 -3.3936 0.7384 0
M  V30 15319 C 1459.54 -3.88993 1.78517 0
M  V30 15320 C 1458.87 -5.19343 1.27228 0
M  V30 15321 C 1460.17 -4.13812 3.1868 0
M  V30 15322 H 1461.86 -2.19221 2.03918 0
M  V30 15323 H 1459.41 -1.05339 0.98182 0
M  V30 15324 H 1461.36 -4.16902 0.61409 0
M  V30 15325 H 1460.09 -3.25783 -0.230887 0
M  V30 15326 H 1458.74 -3.13633 1.89816 0
M  V30 15327 H 1458.39 -5.02147 0.292816 0
M  V30 15328 H 1458.09 -5.53521 1.97201 0
M  V30 15329 H 1459.62 -5.99468 1.16065 0
M  V30 15330 H 1461.03 -4.81966 3.10455 0
M  V30 15331 H 1459.43 -4.59273 3.86249 0
M  V30 15332 H 1460.5 -3.19571 3.64695 0
M  V30 15333 N 1461.84 -1.08266 -1.14527 0
M  V30 15334 C 1463.09 -0.809856 -1.85164 0
M  V30 15335 C 1463.41 0.666263 -1.83265 0
M  V30 15336 O 1462.68 1.48295 -1.28006 0
M  V30 15337 H 1461.26 -0.296598 -0.685594 0
M  V30 15338 H 1463.92 -1.36834 -1.38789 0
M  V30 15339 H 1463.02 -1.15272 -2.90032 0
M  V30 15340 N 1463.32 1.31536 -0.86811 0
M  V30 15341 C 1464.73 1.78991 -0.530937 0
M  V30 15342 C 1465.08 1.71553 0.952046 0
M  V30 15343 O 1464.21 1.28216 1.74326 0
M  V30 15344 C 1464.8 3.25004 -0.956981 0
M  V30 15345 C 1463.36 3.70362 -0.671495 0
M  V30 15346 C 1462.51 2.52361 -1.14932 0
M  V30 15347 H 1465.46 1.18644 -1.05401 0
M  V30 15348 H 1465.48 3.79477 -0.278883 0
M  V30 15349 H 1464.99 3.30385 -2.03635 0
M  V30 15350 H 1463.09 3.70483 0.39659 0
M  V30 15351 H 1463.21 4.62581 -1.24722 0
M  V30 15352 H 1461.57 2.4826 -0.569144 0
M  V30 15353 H 1462.35 2.60489 -2.23608 0
M  V30 15354 N 1464.8 0.627364 1.44575 0
M  V30 15355 C 1466.02 0.135576 2.06956 0
M  V30 15356 C 1466.45 -1.17922 1.46547 0
M  V30 15357 O 1465.81 -1.72255 0.565509 0
M  V30 15358 C 1465.85 0.030347 3.60587 0
M  V30 15359 O 1464.96 -1.01464 3.99724 0
M  V30 15360 H 1464.3 0.083058 0.658785 0
M  V30 15361 H 1466.83 0.862977 1.8551 0
M  V30 15362 H 1466.84 -0.161461 4.0768 0
M  V30 15363 H 1465.51 0.990285 4.03938 0
M  V30 15364 H 1464.09 -0.797701 3.64268 0
M  V30 15365 N 1466.28 -1.53251 0.367684 0
M  V30 15366 C 1467.69 -1.86369 -0.111073 0
M  V30 15367 C 1468.04 -1.2882 -1.47986 0
M  V30 15368 O 1467.16 -0.611058 -2.07593 0
M  V30 15369 C 1467.76 -3.38159 -0.208325 0
M  V30 15370 C 1466.32 -3.71067 -0.63134 0
M  V30 15371 C 1465.46 -2.76425 0.220144 0
M  V30 15372 H 1468.41 -1.47469 0.586398 0
M  V30 15373 H 1468.44 -3.66252 -1.03151 0
M  V30 15374 H 1467.95 -3.80015 0.788038 0
M  V30 15375 H 1466.05 -3.34769 -1.63586 0
M  V30 15376 H 1466.16 -4.77389 -0.404491 0
M  V30 15377 H 1464.53 -2.5279 -0.311298 0
M  V30 15378 H 1465.31 -3.21115 1.21409 0
M  V30 15379 N 1467.75 -0.0969077 -1.57302 0
M  V30 15380 C 1469 0.567212 -1.94706 0
M  V30 15381 C 1469.33 1.67721 -0.978937 0
M  V30 15382 O 1468.61 1.94496 -0.0123016 0
M  V30 15383 C 1468.89 1.12069 -3.42217 0
M  V30 15384 C 1468.74 0.015615 -4.49797 0
M  V30 15385 C 1470.06 2.0185 -3.91081 0
M  V30 15386 H 1467.18 0.204716 -0.707997 0
M  V30 15387 H 1469.82 -0.167984 -1.89256 0
M  V30 15388 H 1467.97 1.74723 -3.46993 0
M  V30 15389 H 1469.65 -0.61871 -4.57132 0
M  V30 15390 H 1467.89 -0.650529 -4.28895 0
M  V30 15391 H 1468.56 0.443724 -5.50214 0
M  V30 15392 H 1471.04 1.49098 -3.8847 0
M  V30 15393 H 1469.91 2.37502 -4.94858 0
M  V30 15394 H 1470.17 2.93659 -3.3048 0
M  V30 15395 N 1469.23 1.56605 0.176793 0
M  V30 15396 C 1470.64 1.71418 0.739775 0
M  V30 15397 C 1470.99 0.706527 1.83037 0
M  V30 15398 O 1470.12 -0.133259 2.15989 0
M  V30 15399 C 1470.71 3.10799 1.34867 0
M  V30 15400 C 1469.27 3.27315 1.85854 0
M  V30 15401 C 1468.42 2.67371 0.73541 0
M  V30 15402 H 1471.37 1.58626 -0.0485305 0
M  V30 15403 H 1471.39 3.09146 2.21831 0
M  V30 15404 H 1470.9 3.84116 0.554688 0
M  V30 15405 H 1469 2.58947 2.67913 0
M  V30 15406 H 1469.12 4.35002 2.00774 0
M  V30 15407 H 1467.48 2.27035 1.15444 0
M  V30 15408 H 1468.26 3.43268 -0.0466351 0
M  V30 15409 N 1470.71 -0.445159 1.51182 0
M  V30 15410 C 1471.62 -1.5651 1.74762 0
M  V30 15411 C 1472.64 -1.62134 0.631542 0
M  V30 15412 O 1473.81 -1.79522 0.912898 0
M  V30 15413 C 1470.88 -2.92552 1.86049 0
M  V30 15414 C 1469.94 -2.97108 3.0988 0
M  V30 15415 C 1469.17 -4.2666 3.2062 0
M  V30 15416 O 1469.39 -5.18608 2.37491 0
M  V30 15417 O 1468.33 -4.3734 4.13542 0
M  V30 15418 H 1472.15 -1.3953 2.6975 0
M  V30 15419 H 1469.74 -0.627363 1.3559 0
M  V30 15420 H 1471.62 -3.73304 1.95504 0
M  V30 15421 H 1470.3 -3.09676 0.94248 0
M  V30 15422 H 1469.2 -2.15338 3.05909 0
M  V30 15423 H 1470.54 -2.84927 4.01345 0
M  V30 15424 N 1472.19 -1.41197 -0.700089 0
M  V30 15425 C 1473.15 -1.42419 -1.79582 0
M  V30 15426 C 1474.15 -0.31551 -1.57674 0
M  V30 15427 O 1475.34 -0.575173 -1.64431 0
M  V30 15428 C 1472.47 -1.23114 -3.17893 0
M  V30 15429 H 1473.67 -2.39956 -1.79892 0
M  V30 15430 H 1471.22 -1.27273 -0.907271 0
M  V30 15431 H 1471.95 -0.263992 -3.23224 0
M  V30 15432 H 1471.74 -2.03437 -3.35195 0
M  V30 15433 H 1473.23 -1.26793 -3.97886 0
M  V30 15434 N 1473.67 0.933891 -1.2695 0
M  V30 15435 C 1474.89 1.72042 -1.15828 0
M  V30 15436 C 1475.32 1.85975 0.28193 0
M  V30 15437 O 1474.67 1.35528 1.20423 0
M  V30 15438 C 1474.72 3.10112 -1.84019 0
M  V30 15439 O 1473.83 3.96504 -1.13394 0
M  V30 15440 H 1473.17 0.527573 -0.40319 0
M  V30 15441 H 1475.7 1.16914 -1.67905 0
M  V30 15442 H 1475.71 3.60461 -1.91133 0
M  V30 15443 H 1474.38 2.99287 -2.8879 0
M  V30 15444 H 1472.96 3.54948 -1.14307 0
M  V30 15445 N 1475.14 1.08871 1.13951 0
M  V30 15446 C 1476.55 0.841552 1.66658 0
M  V30 15447 C 1476.91 -0.630932 1.85779 0
M  V30 15448 O 1476.03 -1.48673 1.57243 0
M  V30 15449 C 1476.63 1.52109 3.02735 0
M  V30 15450 C 1475.18 1.32105 3.52456 0
M  V30 15451 C 1474.33 1.58084 2.27826 0
M  V30 15452 H 1477.28 1.24865 0.97951 0
M  V30 15453 H 1477.3 0.950978 3.68425 0
M  V30 15454 H 1476.82 2.59276 2.88786 0
M  V30 15455 H 1474.92 0.270294 3.71618 0
M  V30 15456 H 1475.03 2.05197 4.32933 0
M  V30 15457 H 1473.39 1.00264 2.34135 0
M  V30 15458 H 1474.18 2.66467 2.16449 0
M  V30 15459 N 1476.62 -1.31073 0.875073 0
M  V30 15460 C 1478.03 -1.78707 0.540422 0
M  V30 15461 C 1478.38 -1.72056 -0.942935 0
M  V30 15462 O 1477.51 -1.29139 -1.73643 0
M  V30 15463 C 1478.1 -3.24491 0.974203 0
M  V30 15464 C 1476.66 -3.70001 0.691127 0
M  V30 15465 C 1475.81 -2.51748 1.16269 0
M  V30 15466 H 1478.76 -1.18083 1.06029 0
M  V30 15467 H 1478.78 -3.79323 0.299003 0
M  V30 15468 H 1478.29 -3.29301 2.05384 0
M  V30 15469 H 1476.39 -3.70688 -0.376937 0
M  V30 15470 H 1476.51 -4.61913 1.27173 0
M  V30 15471 H 1474.87 -2.47954 0.582302 0
M  V30 15472 H 1475.65 -2.59299 2.24986 0
M  V30 15473 N 1478.1 -0.635022 -1.4424 0
M  V30 15474 C 1479.33 -0.14826 -2.06368 0
M  V30 15475 C 1479.74 1.17875 -1.47482 0
M  V30 15476 O 1479.1 1.72384 -0.599168 0
M  V30 15477 C 1479.15 -0.031519 -3.61486 0
M  V30 15478 O 1478.87 -1.30605 -4.18179 0
M  V30 15479 C 1480.37 0.483479 -4.40656 0
M  V30 15480 H 1477.59 -0.081472 -0.666036 0
M  V30 15481 H 1480.14 -0.870526 -1.85046 0
M  V30 15482 H 1478.29 0.641208 -3.82057 0
M  V30 15483 H 1478.71 -1.15341 -5.11661 0
M  V30 15484 H 1480.18 0.514164 -5.496 0
M  V30 15485 H 1480.66 1.51129 -4.12379 0
M  V30 15486 H 1481.26 -0.156131 -4.25013 0
M  V30 15487 N 1479.58 1.53054 -0.375806 0
M  V30 15488 C 1480.99 1.86426 0.101188 0
M  V30 15489 C 1481.34 1.29603 1.47301 0
M  V30 15490 O 1480.47 0.622059 2.07266 0
M  V30 15491 C 1481.06 3.38265 0.190389 0
M  V30 15492 C 1479.62 3.71397 0.611653 0
M  V30 15493 C 1478.77 2.76304 -0.234801 0
M  V30 15494 H 1481.72 1.47156 -0.594211 0
M  V30 15495 H 1481.74 3.66793 1.01207 0
M  V30 15496 H 1481.25 3.79592 -0.80818 0
M  V30 15497 H 1479.35 3.35632 1.61808 0
M  V30 15498 H 1479.46 4.77597 0.379168 0
M  V30 15499 H 1477.83 2.52952 0.297888 0
M  V30 15500 H 1478.61 3.20467 -1.2311 0
M  V30 15501 N 1481.06 0.105248 1.57248 0
M  V30 15502 C 1482.28 -0.567515 1.99484 0
M  V30 15503 C 1482.71 -1.60298 0.984182 0
M  V30 15504 O 1482.06 -1.81242 -0.0459944 0
M  V30 15505 C 1482.11 -1.18271 3.40653 0
M  V30 15506 O 1481.22 -2.29843 3.42412 0
M  V30 15507 H 1480.56 -0.143069 0.648404 0
M  V30 15508 H 1483.09 0.189661 2.03719 0
M  V30 15509 H 1483.1 -1.52157 3.78566 0
M  V30 15510 H 1481.77 -0.424179 4.13731 0
M  V30 15511 H 1480.35 -1.975 3.16304 0
M  V30 15512 N 1482.53 -1.56697 -0.168486 0
M  V30 15513 C 1483.46 -1.99659 -1.21073 0
M  V30 15514 C 1484.45 -0.872625 -1.46011 0
M  V30 15515 O 1485.63 -1.13891 -1.57297 0
M  V30 15516 C 1482.76 -2.35889 -2.54899 0
M  V30 15517 C 1481.71 -3.51272 -2.44524 0
M  V30 15518 C 1481.04 -3.73253 -3.82866 0
M  V30 15519 C 1482.34 -4.84631 -1.94756 0
M  V30 15520 H 1484.03 -2.86974 -0.853593 0
M  V30 15521 H 1481.58 -1.38065 -0.409165 0
M  V30 15522 H 1483.53 -2.64542 -3.28017 0
M  V30 15523 H 1482.26 -1.45486 -2.92406 0
M  V30 15524 H 1480.92 -3.22751 -1.7386 0
M  V30 15525 H 1480.56 -2.80136 -4.17772 0
M  V30 15526 H 1480.26 -4.5089 -3.76792 0
M  V30 15527 H 1481.79 -4.04309 -4.57566 0
M  V30 15528 H 1483.2 -5.12142 -2.5765 0
M  V30 15529 H 1481.6 -5.65925 -1.99623 0
M  V30 15530 H 1482.67 -4.76436 -0.902021 0
M  V30 15531 N 1484.01 0.437135 -1.51416 0
M  V30 15532 C 1484.94 1.538 -1.75692 0
M  V30 15533 C 1485.92 1.5891 -0.606759 0
M  V30 15534 O 1487.11 1.74635 -0.849492 0
M  V30 15535 C 1484.24 2.91877 -1.88215 0
M  V30 15536 C 1483.19 3.01628 -3.03652 0
M  V30 15537 C 1482.52 4.41687 -3.01358 0
M  V30 15538 C 1483.82 2.75691 -4.43612 0
M  V30 15539 H 1485.51 1.33737 -2.67871 0
M  V30 15540 H 1483.06 0.641936 -1.289 0
M  V30 15541 H 1485.01 3.68851 -2.03781 0
M  V30 15542 H 1483.74 3.13173 -0.926847 0
M  V30 15543 H 1482.39 2.27094 -2.87791 0
M  V30 15544 H 1482.04 4.5995 -2.03605 0
M  V30 15545 H 1481.74 4.49141 -3.78875 0
M  V30 15546 H 1483.27 5.20634 -3.19018 0
M  V30 15547 H 1484.68 3.42398 -4.59822 0
M  V30 15548 H 1483.08 2.94554 -5.22836 0
M  V30 15549 H 1484.15 1.71297 -4.53636 0
M  V30 15550 N 1485.49 1.41566 0.692592 0
M  V30 15551 C 1486.91 1.24101 1.00355 0
M  V30 15552 C 1487.11 0.132485 2.01064 0
M  V30 15553 O 1486.16 -0.502142 2.47457 0
M  V30 15554 C 1487.48 2.59142 1.52532 0
M  V30 15555 C 1489.02 2.66348 1.64401 0
M  V30 15556 C 1489.5 4.01713 2.19978 0
M  V30 15557 N 1490.99 4.03575 2.27335 0
M  V30 15558 C 1491.72 5.05118 2.71373 0
M  V30 15559 N 1491.22 6.1705 3.14994 0
M  V30 15560 N 1493.01 4.92479 2.70963 0
M  V30 15561 H 1485.16 2.12385 0.0254859 0
M  V30 15562 H 1487.43 0.945118 0.0738684 0
M  V30 15563 H 1487.13 3.41026 0.85989 0
M  V30 15564 H 1487.01 2.81833 2.50699 0
M  V30 15565 H 1489.39 1.84821 2.30055 0
M  V30 15566 H 1489.48 2.47464 0.647717 0
M  V30 15567 H 1489.12 4.8369 1.54939 0
M  V30 15568 H 1489.05 4.1794 3.20365 0
M  V30 15569 H 1491.54 3.2276 1.96556 0
M  V30 15570 H 1491.85 6.90399 3.47231 0
M  V30 15571 H 1490.2 6.20582 3.12895 0
M  V30 15572 H 1493.39 4.04117 2.36236 0
M  V30 15573 H 1493.56 5.71752 3.04965 0
M  V30 15574 N 1486.97 -0.927146 1.27443 0
M  V30 15575 C 1487.92 -2.01402 1.06871 0
M  V30 15576 C 1488.9 -1.609 -0.00345395 0
M  V30 15577 O 1490.09 -1.75688 0.215147 0
M  V30 15578 C 1487.22 -3.35697 0.718508 0
M  V30 15579 C 1486.31 -3.82641 1.82884 0
M  V30 15580 N 1486.7 -4.02091 3.06849 0
M  V30 15581 C 1485 -4.11682 1.71564 0
M  V30 15582 C 1485.7 -4.41195 3.79107 0
M  V30 15583 N 1484.68 -4.48697 3.06874 0
M  V30 15584 H 1488.48 -2.14471 2.00946 0
M  V30 15585 H 1485.99 -1.11402 1.18166 0
M  V30 15586 H 1487.99 -4.13226 0.552238 0
M  V30 15587 H 1486.65 -3.2399 -0.214622 0
M  V30 15588 H 1487.66 -3.88384 3.42605 0
M  V30 15589 H 1484.34 -4.08685 0.853381 0
M  V30 15590 H 1485.73 -4.64318 4.85653 0
M  V30 15591 N 1488.45 -1.09474 -1.13372 0
M  V30 15592 C 1489.67 -0.853093 -1.89043 0
M  V30 15593 C 1490.1 0.590075 -1.78605 0
M  V30 15594 O 1489.45 1.41462 -1.13394 0
M  V30 15595 C 1489.5 -1.29359 -3.36599 0
M  V30 15596 O 1488.61 -0.452355 -4.09912 0
M  V30 15597 H 1487.95 -0.308922 -0.587761 0
M  V30 15598 H 1490.48 -1.459 -1.43437 0
M  V30 15599 H 1490.49 -1.27921 -3.87428 0
M  V30 15600 H 1489.16 -2.3446 -3.43513 0
M  V30 15601 H 1487.74 -0.531098 -3.69099 0
M  V30 15602 N 1489.92 1.30607 -0.882012 0
M  V30 15603 C 1491.17 1.96256 -0.498964 0
M  V30 15604 C 1491.5 1.69651 0.951259 0
M  V30 15605 O 1490.75 0.992303 1.68677 0
M  V30 15606 C 1491.05 3.50136 -0.716929 0
M  V30 15607 C 1490.72 3.96785 -2.14178 0
M  V30 15608 C 1489.38 4.09234 -2.53142 0
M  V30 15609 C 1491.73 4.21154 -3.07048 0
M  V30 15610 C 1489.06 4.43411 -3.84192 0
M  V30 15611 C 1491.41 4.56799 -4.37627 0
M  V30 15612 C 1490.08 4.67456 -4.76488 0
M  V30 15613 H 1489.35 0.718153 -0.182584 0
M  V30 15614 H 1491.99 1.55527 -1.1173 0
M  V30 15615 H 1490.3 3.91797 -0.0155388 0
M  V30 15616 H 1492 3.98998 -0.400196 0
M  V30 15617 H 1488.59 3.876 -1.82932 0
M  V30 15618 H 1492.77 4.1102 -2.78167 0
M  V30 15619 H 1488.03 4.49861 -4.14047 0
M  V30 15620 H 1492.2 4.74607 -5.09629 0
M  V30 15621 H 1489.83 4.93694 -5.78074 0
M  V30 15622 N 1491.4 0.642663 1.43901 0
M  V30 15623 C 1492.33 -0.0938945 2.29008 0
M  V30 15624 C 1493.35 -0.797561 1.41925 0
M  V30 15625 O 1494.54 -0.65708 1.65966 0
M  V30 15626 C 1491.64 -1.15564 3.18588 0
M  V30 15627 C 1490.81 -0.532208 4.3415 0
M  V30 15628 C 1489.87 -1.48943 5.0468 0
M  V30 15629 O 1488.89 -1.00211 5.60309 0
M  V30 15630 N 1490.1 -2.82362 5.072 0
M  V30 15631 H 1492.86 0.636539 2.92862 0
M  V30 15632 H 1490.42 0.484665 1.54475 0
M  V30 15633 H 1492.41 -1.79658 3.62636 0
M  V30 15634 H 1490.98 -1.78816 2.56405 0
M  V30 15635 H 1490.2 0.287598 3.93149 0
M  V30 15636 H 1491.49 -0.0965526 5.08708 0
M  V30 15637 H 1490.89 -3.24524 4.63358 0
M  V30 15638 H 1489.45 -3.41786 5.55001 0
M  V30 15639 N 1492.88 -1.52852 0.383918 0
M  V30 15640 C 1494.11 -2.06406 -0.202764 0
M  V30 15641 C 1494.53 -1.25421 -1.40183 0
M  V30 15642 O 1493.89 -0.277876 -1.79158 0
M  V30 15643 C 1493.94 -3.56281 -0.556414 0
M  V30 15644 O 1493.04 -3.77904 -1.65113 0
M  V30 15645 H 1492.38 -0.663523 -0.0251737 0
M  V30 15646 H 1494.91 -1.97074 0.54983 0
M  V30 15647 H 1494.92 -3.99629 -0.822249 0
M  V30 15648 H 1493.6 -4.14665 0.320253 0
M  V30 15649 H 1492.17 -3.46448 -1.37943 0
M  V30 15650 N 1494.36 -0.113586 -1.5719 0
M  V30 15651 C 1495.78 0.243023 -1.57739 0
M  V30 15652 C 1495.98 1.67105 -1.12597 0
M  V30 15653 O 1495.03 2.39126 -0.810874 0
M  V30 15654 C 1496.34 0.014629 -3.00696 0
M  V30 15655 C 1497.89 0.0809485 -3.12895 0
M  V30 15656 C 1498.37 -0.119685 -4.57844 0
M  V30 15657 N 1499.86 -0.0654711 -4.63154 0
M  V30 15658 C 1500.59 -0.195692 -5.73066 0
M  V30 15659 N 1500.09 -0.381782 -6.91747 0
M  V30 15660 N 1501.88 -0.13565 -5.61936 0
M  V30 15661 H 1494.03 -1.04639 -1.84836 0
M  V30 15662 H 1496.3 -0.411609 -0.85398 0
M  V30 15663 H 1496 -0.972399 -3.3799 0
M  V30 15664 H 1495.88 0.748882 -3.69691 0
M  V30 15665 H 1498.26 1.0585 -2.75463 0
M  V30 15666 H 1498.34 -0.685097 -2.46455 0
M  V30 15667 H 1497.99 -1.09418 -4.95974 0
M  V30 15668 H 1497.92 0.666281 -5.22368 0
M  V30 15669 H 1500.41 0.0750649 -3.77825 0
M  V30 15670 H 1500.72 -0.472157 -7.71356 0
M  V30 15671 H 1499.07 -0.417686 -6.93744 0
M  V30 15672 H 1502.26 0.0087301 -4.68099 0
M  V30 15673 H 1502.43 -0.240579 -6.47553 0
M  V30 15674 N 1495.84 1.56784 0.160173 0
M  V30 15675 C 1497.06 1.87129 0.894283 0
M  V30 15676 C 1497.49 0.701172 1.74543 0
M  V30 15677 O 1496.85 -0.349542 1.77899 0
M  V30 15678 C 1496.89 3.15969 1.73769 0
M  V30 15679 O 1496 2.98977 2.84054 0
M  V30 15680 H 1495.34 0.615192 0.249869 0
M  V30 15681 H 1497.87 2.04012 0.154956 0
M  V30 15682 H 1497.88 3.47657 2.13538 0
M  V30 15683 H 1496.55 4.00742 1.11258 0
M  V30 15684 H 1495.13 2.78668 2.47788 0
M  V30 15685 N 1497.32 -0.429099 1.51646 0
M  V30 15686 C 1498.59 -1.18958 1.55269 0
M  V30 15687 C 1498.97 -2.08633 0.321816 0
M  V30 15688 O 1498.32 -2.1775 -0.69261 0
M  V30 15689 C 1498.53 -1.98427 2.87102 0
M  V30 15690 C 1499.88 -2.55185 3.39361 0
M  V30 15691 O 1500.9 -2.08629 2.88708 0
M  V30 15692 O 1499.76 -3.40119 4.27763 0
M  V30 15693 H 1496.86 -0.542041 0.624596 0
M  V30 15694 H 1499.4 -0.437499 1.63964 0
M  V30 15695 H 1498.17 -1.32613 3.68143 0
M  V30 15696 H 1497.8 -2.80683 2.81608 0
M  V30 15697 N 1498.79 -1.41931 -0.685074 0
M  V30 15698 C 1500.02 -1.45229 -1.47364 0
M  V30 15699 C 1500.44 -0.060595 -1.88703 0
M  V30 15700 O 1499.79 0.92244 -1.57472 0
M  V30 15701 C 1499.84 -2.37033 -2.72942 0
M  V30 15702 O 1499.57 -3.70787 -2.33342 0
M  V30 15703 C 1501.07 -2.49244 -3.66596 0
M  V30 15704 H 1498.29 -0.494291 -0.453781 0
M  V30 15705 H 1500.83 -1.86333 -0.84263 0
M  V30 15706 H 1498.99 -1.9921 -3.32256 0
M  V30 15707 H 1499.4 -4.19853 -3.14362 0
M  V30 15708 H 1500.87 -3.17624 -4.51463 0
M  V30 15709 H 1501.35 -1.52703 -4.11799 0
M  V30 15710 H 1501.96 -2.87747 -3.1318 0
M  V30 15711 N 1500.27 0.920374 -1.27933 0
M  V30 15712 C 1501.52 1.66883 -1.147 0
M  V30 15713 C 1501.85 1.92082 0.305732 0
M  V30 15714 O 1501.1 1.51449 1.23942 0
M  V30 15715 C 1501.4 3.03725 -1.88377 0
M  V30 15716 C 1501.07 2.9821 -3.38203 0
M  V30 15717 C 1499.73 2.96413 -3.79068 0
M  V30 15718 C 1502.08 2.88952 -4.3377 0
M  V30 15719 C 1499.41 2.83151 -5.13851 0
M  V30 15720 C 1501.76 2.77231 -5.68618 0
M  V30 15721 C 1500.42 2.73788 -6.08766 0
M  V30 15722 H 1499.69 0.61067 -0.419718 0
M  V30 15723 H 1502.34 1.0728 -1.58629 0
M  V30 15724 H 1500.65 3.67075 -1.36978 0
M  V30 15725 H 1502.34 3.60527 -1.7556 0
M  V30 15726 H 1498.93 3.004 -3.05709 0
M  V30 15727 H 1503.12 2.89433 -4.03165 0
M  V30 15728 H 1498.37 2.78877 -5.44093 0
M  V30 15729 H 1502.55 2.69034 -6.42335 0
M  V30 15730 H 1500.17 2.63268 -7.13158 0
M  V30 15731 N 1501.75 1.10074 1.1279 0
M  V30 15732 C 1502.7 0.715508 2.16482 0
M  V30 15733 C 1503.68 -0.273462 1.58559 0
M  V30 15734 O 1504.88 -0.0827829 1.76806 0
M  V30 15735 C 1502 0.144874 3.42994 0
M  V30 15736 C 1501.09 1.16066 4.07909 0
M  V30 15737 N 1501.48 2.35008 4.47889 0
M  V30 15738 C 1499.78 1.00033 4.34637 0
M  V30 15739 C 1500.48 2.99678 4.98566 0
M  V30 15740 N 1499.46 2.2721 4.93839 0
M  V30 15741 H 1503.26 1.62098 2.45156 0
M  V30 15742 H 1500.77 0.97792 1.29655 0
M  V30 15743 H 1502.77 -0.149164 4.16633 0
M  V30 15744 H 1501.43 -0.755369 3.15791 0
M  V30 15745 H 1502.44 2.72557 4.40378 0
M  V30 15746 H 1499.12 0.155328 4.17211 0
M  V30 15747 H 1500.51 4.00831 5.39244 0
M  V30 15748 O 1503.27 -1.25068 1.02178 0
M  V30 15749 H 1503.96 -1.81214 0.684184 0
M  V30 END ATOM
M  V30 BEGIN BOND
M  V30 END BOND
M  V30 END CTAB
M  END
$$$$
