drugbank_target|O15145 Actin-related protein 2/3 complex subunit 3 (DB08235; DB08236)
 OpenBabel12092120503D

  0  0  0     0  0            999 V3000
M  V30 BEGIN CTAB
M  V30 COUNTS 2889 2924 0 0 0
M  V30 BEGIN ATOM
M  V30 1 H -0.908 1.98254 -0.117106 0
M  V30 2 N 0 1.576 0 0
M  V30 3 C 0.933 2.03868 1.02534 0
M  V30 4 C 1.911 0.928543 1.3348 0
M  V30 5 O 3.095 1.19667 1.45644 0
M  V30 6 C 0.222 2.43627 2.35294 0
M  V30 7 C -0.732 3.65373 2.2001 0
M  V30 8 S 0.101 5.13292 1.52614 0
M  V30 9 C 1.257 5.56322 2.86805 0
M  V30 10 H 1.49 2.90518 0.631377 0
M  V30 11 H -0.977 1.52953 0.210867 0
M  V30 12 H 0.981 2.67203 3.11629 0
M  V30 13 H -0.358 1.57376 2.7183 0
M  V30 14 H -1.165 3.90944 3.18086 0
M  V30 15 H -1.563 3.418 1.51819 0
M  V30 16 H 0.729 5.58782 3.83104 0
M  V30 17 H 1.672 6.56266 2.65933 0
M  V30 18 H 2.08 4.83886 2.90714 0
M  V30 19 N 1.4781 -0.272755 1.55222 0
M  V30 20 C 2.8891 -0.84378 1.66545 0
M  V30 21 C 3.2401 -1.87035 0.592641 0
M  V30 22 O 2.3651 -2.14761 -0.265818 0
M  V30 23 C 2.9601 -1.53723 3.01918 0
M  V30 24 C 1.5191 -2.05628 3.15268 0
M  V30 25 C 0.6661 -0.898424 2.62343 0
M  V30 26 H 3.6171 -0.0490998 1.58624 0
M  V30 27 H 3.6381 -2.40421 2.94921 0
M  V30 28 H 3.1501 -0.78983 3.79978 0
M  V30 29 H 1.2511 -2.83329 2.41983 0
M  V30 30 H 1.3641 -2.27142 4.21833 0
M  V30 31 H -0.2719 -1.29186 2.19506 0
M  V30 32 H 0.5111 -0.164528 3.42906 0
M  V30 33 N 2.9562 -1.48159 -0.537278 0
M  V30 34 C 3.9192 -1.61665 -1.62472 0
M  V30 35 C 4.9192 -0.490395 -1.5314 0
M  V30 36 O 6.1092 -0.755998 -1.5694 0
M  V30 37 C 3.2412 -1.57997 -3.02076 0
M  V30 38 H 4.4342 -2.58621 -1.51839 0
M  V30 39 H 1.9872 -1.36647 -0.758771 0
M  V30 40 H 2.7222 -0.624913 -3.18222 0
M  V30 41 H 2.5072 -2.39755 -3.10258 0
M  V30 42 H 3.9972 -1.70627 -3.81151 0
M  V30 43 N 4.4343 0.785586 -1.36625 0
M  V30 44 C 5.6643 1.5722 -1.34036 0
M  V30 45 C 6.0723 1.89033 0.0795062 0
M  V30 46 O 5.4153 1.50881 1.04789 0
M  V30 47 C 5.4773 2.91759 -2.10041 0
M  V30 48 C 5.1413 2.82654 -3.59104 0
M  V30 49 C 6.1383 2.54634 -4.53274 0
M  V30 50 C 3.8233 3.01111 -4.02042 0
M  V30 51 C 5.8173 2.45177 -5.88359 0
M  V30 52 C 3.5043 2.91276 -5.37216 0
M  V30 53 C 4.5023 2.63348 -6.30188 0
M  V30 54 O 4.1903 2.53514 -7.6288 0
M  V30 55 H 3.9223 0.494177 -0.461265 0
M  V30 56 H 6.4763 0.982632 -1.8037 0
M  V30 57 H 4.7063 3.52781 -1.58375 0
M  V30 58 H 6.3953 3.53059 -2.00261 0
M  V30 59 H 7.1613 2.40073 -4.21414 0
M  V30 60 H 3.0403 3.21854 -3.30047 0
M  V30 61 H 6.5843 2.23299 -6.60896 0
M  V30 62 H 2.4813 3.054 -5.68684 0
M  V30 63 H 3.2493 2.68967 -7.73045 0
M  V30 64 N 5.9124 1.20967 1.01018 0
M  V30 65 C 6.8624 0.93182 2.08089 0
M  V30 66 C 7.8464 -0.110898 1.60517 0
M  V30 67 O 9.0384 0.0973392 1.76732 0
M  V30 68 C 6.1674 0.492719 3.39746 0
M  V30 69 C 5.2534 1.56922 3.94 0
M  V30 70 N 5.6444 2.79312 4.21686 0
M  V30 71 C 3.9424 1.43688 4.2222 0
M  V30 72 C 4.6434 3.48797 4.65527 0
M  V30 73 N 3.6194 2.76224 4.68189 0
M  V30 74 H 7.4214 1.86175 2.27412 0
M  V30 75 H 4.9354 1.10463 1.19045 0
M  V30 76 H 6.9324 0.275044 4.15992 0
M  V30 77 H 5.5924 -0.430509 3.21833 0
M  V30 78 H 6.6034 3.15903 4.10397 0
M  V30 79 H 3.2804 0.578548 4.13472 0
M  V30 80 H 4.6704 4.53561 4.95714 0
M  V30 81 N 7.3905 -1.2043 1.01659 0
M  V30 82 C 8.6155 -1.94318 0.724942 0
M  V30 83 C 9.0405 -1.74266 -0.708034 0
M  V30 84 O 8.3985 -1.03694 -1.48719 0
M  V30 85 C 8.4465 -3.44486 1.06591 0
M  V30 86 O 7.5505 -4.12017 0.177599 0
M  V30 87 H 6.8915 -0.60708 0.26898 0
M  V30 88 H 9.4215 -1.52861 1.35995 0
M  V30 89 H 9.4315 -3.95106 1.01762 0
M  V30 90 H 8.1065 -3.58404 2.10997 0
M  V30 91 H 6.6835 -3.71821 0.283421 0
M  V30 92 N 8.8686 -0.792821 -1.36206 0
M  V30 93 C 10.0936 -0.377701 -2.03932 0
M  V30 94 C 10.5186 0.998947 -1.59382 0
M  V30 95 O 9.8766 1.64421 -0.763903 0
M  V30 96 C 9.9246 -0.453635 -3.57735 0
M  V30 97 O 9.0286 0.538151 -4.08874 0
M  V30 98 H 8.3696 -0.159855 -0.644471 0
M  V30 99 H 10.8996 -1.07488 -1.7409 0
M  V30 100 H 10.9096 -0.318464 -4.06755 0
M  V30 101 H 9.5846 -1.45784 -3.89512 0
M  V30 102 H 8.1616 0.364359 -3.71116 0
M  V30 103 N 10.3467 1.47872 -0.545128 0
M  V30 104 C 11.2767 2.32661 0.197793 0
M  V30 105 C 12.2577 1.43041 0.920504 0
M  V30 106 O 13.4427 1.71912 0.90333 0
M  V30 107 C 10.5727 3.24569 1.23582 0
M  V30 108 C 9.5267 4.23333 0.630323 0
M  V30 109 C 8.8527 5.0448 1.77211 0
M  V30 110 C 10.1527 5.20704 -0.407974 0
M  V30 111 H 11.8467 2.95024 -0.510045 0
M  V30 112 H 9.3927 1.4187 -0.246731 0
M  V30 113 H 11.3457 3.8272 1.76362 0
M  V30 114 H 10.0697 2.60236 1.97344 0
M  V30 115 H 8.7287 3.6639 0.123922 0
M  V30 116 H 8.3767 4.36561 2.49847 0
M  V30 117 H 8.0767 5.71339 1.37281 0
M  V30 118 H 9.6007 5.65487 2.3034 0
M  V30 119 H 11.0147 5.7329 0.033305 0
M  V30 120 H 9.4117 5.95699 -0.725486 0
M  V30 121 H 10.4817 4.66917 -1.30828 0
M  V30 122 N 11.8248 0.280983 1.55075 0
M  V30 123 C 12.7578 -0.645439 2.18882 0
M  V30 124 C 13.7358 -1.14786 1.15165 0
M  V30 125 O 14.9198 -1.21975 1.43716 0
M  V30 126 C 12.0468 -1.88088 2.81674 0
M  V30 127 C 11.0928 -1.51343 3.98745 0
M  V30 128 S 11.9258 -0.586548 5.32278 0
M  V30 129 C 13.0818 -1.83024 5.98543 0
M  V30 130 H 13.3148 -0.1033 2.9712 0
M  V30 131 H 10.8478 0.0652099 1.54262 0
M  V30 132 H 12.8058 -2.58997 3.18482 0
M  V30 133 H 11.4668 -2.39417 2.03318 0
M  V30 134 H 10.6598 -2.43289 4.41392 0
M  V30 135 H 10.2618 -0.884477 3.63391 0
M  V30 136 H 12.5538 -2.77342 6.18133 0
M  V30 137 H 13.4968 -1.44668 6.93164 0
M  V30 138 H 13.9048 -1.99785 5.27964 0
M  V30 139 N 13.3029 -1.57598 0.00835791 0
M  V30 140 C 14.5799 -1.82172 -0.712235 0
M  V30 141 C 14.9599 -0.887873 -1.9152 0
M  V30 142 O 14.3079 0.06146 -2.28417 0
M  V30 143 C 14.5179 -3.30875 -1.11008 0
M  V30 144 C 15.8659 -3.96826 -1.51044 0
M  V30 145 O 16.8899 -3.35248 -1.20364 0
M  V30 146 O 15.7489 -5.05318 -2.08125 0
M  V30 147 H 12.8429 -0.750435 -0.347529 0
M  V30 148 H 15.3889 -1.69665 0.0344523 0
M  V30 149 H 14.1609 -3.90481 -0.252982 0
M  V30 150 H 13.7839 -3.48412 -1.9156 0
M  V30 151 N 14.781 0.264519 -1.55364 0
M  V30 152 C 16.192 0.834936 -1.6699 0
M  V30 153 C 16.543 1.86718 -0.602552 0
M  V30 154 O 15.668 2.14899 0.254425 0
M  V30 155 C 16.263 1.5212 -3.02729 0
M  V30 156 C 14.822 2.03954 -3.16354 0
M  V30 157 C 13.969 0.884498 -2.62815 0
M  V30 158 H 16.92 0.0406869 -1.58648 0
M  V30 159 H 16.941 2.38853 -2.96191 0
M  V30 160 H 16.453 0.769668 -3.80392 0
M  V30 161 H 14.554 2.82041 -2.43482 0
M  V30 162 H 14.667 2.24902 -4.23032 0
M  V30 163 H 13.031 1.2802 -2.20188 0
M  V30 164 H 13.814 0.14634 -3.42988 0
M  V30 165 N 16.2591 1.48442 0.529413 0
M  V30 166 C 17.5361 1.46978 1.29062 0
M  V30 167 C 17.9161 0.181769 2.10316 0
M  V30 168 O 17.2641 -0.836481 2.12639 0
M  V30 169 C 17.4741 2.7321 2.17157 0
M  V30 170 C 18.8221 3.21562 2.77278 0
M  V30 171 O 19.8461 2.74131 2.27444 0
M  V30 172 O 18.7051 4.04094 3.67927 0
M  V30 173 H 15.7991 0.587003 0.582543 0
M  V30 174 H 18.3451 1.60676 0.546021 0
M  V30 175 H 17.1171 3.58465 1.56903 0
M  V30 176 H 16.7401 2.62235 2.98862 0
M  V30 177 N 17.7372 -0.778329 1.37039 0
M  V30 178 C 18.9652 -1.56734 1.35063 0
M  V30 179 C 19.3802 -1.88686 -0.0655597 0
M  V30 180 O 18.7372 -1.5096 -1.02554 0
M  V30 181 C 18.7882 -2.88163 2.18276 0
M  V30 182 O 18.5092 -2.57583 3.54376 0
M  V30 183 C 20.0102 -3.82422 2.24206 0
M  V30 184 H 17.2302 -0.485778 0.462883 0
M  V30 185 H 19.7742 -0.965185 1.8029 0
M  V30 186 H 17.9292 -3.44818 1.76576 0
M  V30 187 H 18.3432 -3.41699 3.97922 0
M  V30 188 H 19.8172 -4.71667 2.86765 0
M  V30 189 H 20.2942 -4.21078 1.24861 0
M  V30 190 H 20.9002 -3.31697 2.6619 0
M  V30 191 N 19.2153 -1.21501 -1.00376 0
M  V30 192 C 20.1623 -0.975387 -2.09177 0
M  V30 193 C 21.1323 0.0990615 -1.65804 0
M  V30 194 O 22.3173 -0.0483147 -1.90739 0
M  V30 195 C 19.4573 -0.547507 -3.40729 0
M  V30 196 C 18.5703 -1.69153 -3.97506 0
M  V30 197 C 17.7053 -1.2127 -5.17172 0
M  V30 198 C 16.7443 -2.32897 -5.66061 0
M  V30 199 N 15.8813 -1.86138 -6.76976 0
M  V30 200 H 20.7213 -1.9068 -2.29009 0
M  V30 201 H 18.2583 -0.950257 -1.12288 0
M  V30 202 H 20.2163 -0.280667 -4.16255 0
M  V30 203 H 18.8463 0.346904 -3.20931 0
M  V30 204 H 17.8983 -2.07298 -3.18954 0
M  V30 205 H 19.2103 -2.5316 -4.29781 0
M  V30 206 H 18.3643 -0.902591 -5.99948 0
M  V30 207 H 17.1033 -0.342692 -4.86495 0
M  V30 208 H 16.1083 -2.64709 -4.81881 0
M  V30 209 H 17.3333 -3.20396 -5.98768 0
M  V30 210 H 15.2793 -1.01484 -6.48103 0
M  V30 211 H 15.1963 -2.63717 -7.08512 0
M  V30 212 H 16.4643 -1.58165 -7.63285 0
M  V30 213 N 20.6934 1.19889 -1.02296 0
M  V30 214 C 21.6234 2.25141 -0.619174 0
M  V30 215 C 22.6044 1.66051 0.368915 0
M  V30 216 O 23.7894 1.92546 0.252941 0
M  V30 217 C 20.9194 3.4728 0.0368783 0
M  V30 218 C 19.8734 4.19005 -0.872865 0
M  V30 219 C 19.1994 5.34637 -0.0822402 0
M  V30 220 C 20.4994 4.74452 -2.18387 0
M  V30 221 H 22.1934 2.59171 -1.49903 0
M  V30 222 H 19.7394 1.24579 -0.722222 0
M  V30 223 H 21.6924 4.20098 0.330958 0
M  V30 224 H 20.4164 3.12433 0.95149 0
M  V30 225 H 19.0754 3.48061 -1.15105 0
M  V30 226 H 18.7234 4.96034 0.83422 0
M  V30 227 H 18.4234 5.83557 -0.688149 0
M  V30 228 H 19.9474 6.10255 0.205238 0
M  V30 229 H 21.3614 5.39055 -1.95172 0
M  V30 230 H 19.7584 5.33834 -2.74119 0
M  V30 231 H 20.8284 3.92844 -2.84257 0
M  V30 232 N 22.1715 0.800033 1.35784 0
M  V30 233 C 23.4205 0.37387 1.98205 0
M  V30 234 C 23.7335 -1.06302 1.64193 0
M  V30 235 O 24.9395 -1.59198 2.19928 0
M  V30 236 C 23.3955 0.617532 3.54562 0
M  V30 237 C 23.0035 2.06654 3.9749 0
M  V30 238 C 24.7475 0.256401 4.23725 0
M  V30 239 C 22.6545 2.2563 5.46667 0
M  V30 240 H 21.5845 0.136055 0.741623 0
M  V30 241 H 24.2355 0.983166 1.54939 0
M  V30 242 H 22.6175 -0.0616248 3.95952 0
M  V30 243 H 23.7915 2.78296 3.67271 0
M  V30 244 H 22.1065 2.38691 3.41197 0
M  V30 245 H 24.7035 0.376318 5.33374 0
M  V30 246 H 25.0465 -0.796692 4.08606 0
M  V30 247 H 25.5795 0.889214 3.87734 0
M  V30 248 H 22.3185 3.2936 5.66747 0
M  V30 249 H 21.8385 1.58504 5.78478 0
M  V30 250 H 23.5175 2.06861 6.1304 0
M  V30 251 N 23.6496 -1.47581 0.552962 0
M  V30 252 C 24.8976 -2.02082 0.0272703 0
M  V30 253 C 25.2186 -1.4301 -1.32563 0
M  V30 254 O 24.4886 -0.603745 -1.86365 0
M  V30 255 H 23.0686 -0.746966 0.00709182 0
M  V30 256 H 25.7306 -1.81033 0.722008 0
M  V30 257 H 24.8266 -3.12034 -0.0639951 0
M  V30 258 N 25.1277 -0.289203 -1.54924 0
M  V30 259 C 26.0757 0.607966 -2.24514 0
M  V30 260 C 27.0697 1.14655 -1.24702 0
M  V30 261 O 28.2757 1.09856 -1.4259 0
M  V30 262 H 24.6507 0.21464 -0.720718 0
M  V30 263 H 26.6217 -0.00164182 -2.984 0
M  V30 264 C 25.3707 1.77406 -2.99036 0
M  V30 265 H 24.6937 1.36884 -3.75637 0
M  V30 266 H 26.1337 2.37814 -3.51028 0
M  V30 267 C 24.5927 2.67107 -2.05318 0
M  V30 268 O 25.1227 3.6787 -1.61353 0
M  V30 269 N 23.3287 2.34582 -1.71521 0
M  V30 270 H 22.8757 1.52688 -2.07471 0
M  V30 271 H 22.8337 2.94867 -1.0909 0
M  V30 272 N 26.6058 1.57591 -0.0167156 0
M  V30 273 C 27.5388 2.04944 1.00366 0
M  V30 274 C 28.5168 0.942648 1.32487 0
M  V30 275 O 29.7008 1.21205 1.44367 0
M  V30 276 C 26.8278 2.46109 2.32697 0
M  V30 277 C 25.8738 3.67686 2.16123 0
M  V30 278 S 26.7068 5.14882 1.47161 0
M  V30 279 C 27.8628 5.59332 2.80888 0
M  V30 280 H 28.0958 2.91172 0.600528 0
M  V30 281 H 25.6288 1.53168 0.194632 0
M  V30 282 H 27.5868 2.70493 3.08778 0
M  V30 283 H 26.2478 1.6025 2.70146 0
M  V30 284 H 25.4408 3.94296 3.13922 0
M  V30 285 H 25.0428 3.43391 1.48185 0
M  V30 286 H 27.3348 5.62814 3.77156 0
M  V30 287 H 28.2778 6.5905 2.58958 0
M  V30 288 H 28.6858 4.86942 2.85565 0
M  V30 289 N 28.0839 -0.256276 1.55502 0
M  V30 290 C 29.0469 -1.30047 1.88734 0
M  V30 291 C 30.0469 -1.4154 0.763086 0
M  V30 292 O 31.2369 -1.40403 1.03115 0
M  V30 293 C 28.3689 -2.67953 2.10747 0
M  V30 294 H 29.5619 -1.01802 2.82093 0
M  V30 295 H 27.1149 -0.495134 1.4825 0
M  V30 296 H 27.8499 -3.01351 1.19825 0
M  V30 297 H 27.6349 -2.60993 2.92617 0
M  V30 298 H 29.1249 -3.43368 2.37673 0
M  V30 299 N 29.562 -1.4872 -0.521534 0
M  V30 300 C 30.492 -1.66771 -1.63431 0
M  V30 301 C 31.473 -0.516499 -1.62069 0
M  V30 302 O 32.658 -0.750013 -1.79132 0
M  V30 303 C 29.788 -1.71515 -3.01993 0
M  V30 304 C 28.742 -2.86222 -3.18216 0
M  V30 305 C 28.068 -2.76061 -4.57924 0
M  V30 306 C 29.368 -4.27419 -3.00184 0
M  V30 307 H 31.062 -2.59932 -1.48579 0
M  V30 308 H 28.608 -1.25089 -0.713358 0
M  V30 309 H 30.561 -1.82731 -3.7972 0
M  V30 310 H 29.285 -0.749393 -3.17886 0
M  V30 311 H 27.944 -2.74575 -2.42908 0
M  V30 312 H 27.592 -1.77437 -4.70665 0
M  V30 313 H 27.292 -3.53037 -4.69722 0
M  V30 314 H 28.816 -2.89256 -5.37739 0
M  V30 315 H 30.23 -4.39855 -3.67697 0
M  V30 316 H 28.627 -5.05458 -3.2347 0
M  V30 317 H 29.697 -4.43293 -1.96518 0
M  V30 318 N 31.0401 0.771051 -1.3745 0
M  V30 319 C 31.9701 1.89827 -1.3597 0
M  V30 320 C 32.9511 1.68562 -0.228216 0
M  V30 321 O 34.1361 1.8941 -0.428675 0
M  V30 322 C 31.2661 3.2712 -1.16662 0
M  V30 323 C 30.2201 3.6295 -2.2683 0
M  V30 324 C 29.5461 4.98791 -1.92644 0
M  V30 325 C 30.8461 3.69627 -3.69017 0
M  V30 326 H 32.5401 1.91323 -2.30295 0
M  V30 327 H 30.0861 0.919082 -1.10855 0
M  V30 328 H 32.0391 4.05615 -1.14256 0
M  V30 329 H 30.7631 3.26059 -0.187926 0
M  V30 330 H 29.4221 2.86763 -2.28392 0
M  V30 331 H 29.0701 4.94271 -0.933021 0
M  V30 332 H 28.7701 5.23733 -2.66416 0
M  V30 333 H 30.2941 5.79685 -1.91826 0
M  V30 334 H 31.7081 4.38273 -3.69581 0
M  V30 335 H 30.1051 4.06067 -4.41848 0
M  V30 336 H 31.1751 2.70273 -4.02592 0
M  V30 337 N 32.5182 1.22032 0.997298 0
M  V30 338 C 33.9292 1.0397 1.55071 0
M  V30 339 C 34.2802 -0.398192 1.92117 0
M  V30 340 O 33.4052 -1.28254 1.74298 0
M  V30 341 C 34.0002 1.88109 2.81781 0
M  V30 342 C 32.5592 1.74357 3.33581 0
M  V30 343 C 31.7062 1.84846 2.06706 0
M  V30 344 H 34.6572 1.35941 0.818883 0
M  V30 345 H 34.6782 1.39589 3.53971 0
M  V30 346 H 34.1902 2.92754 2.54787 0
M  V30 347 H 32.2912 0.72427 3.65493 0
M  V30 348 H 32.4042 2.56772 4.04481 0
M  V30 349 H 30.7682 1.28238 2.20062 0
M  V30 350 H 31.5512 2.91014 1.82114 0
M  V30 351 N 33.9963 -1.19345 1.0293 0
M  V30 352 C 35.2453 -1.88363 0.721256 0
M  V30 353 C 35.5583 -1.80514 -0.753254 0
M  V30 354 O 36.7643 -2.44788 -1.17436 0
M  V30 355 C 35.2203 -3.37872 1.23978 0
M  V30 356 C 34.8283 -3.54278 2.74211 0
M  V30 357 C 36.5723 -4.12365 1.00775 0
M  V30 358 C 34.4793 -4.97682 3.19479 0
M  V30 359 H 33.4093 -0.705484 0.266098 0
M  V30 360 H 36.0603 -1.34928 1.24365 0
M  V30 361 H 34.4423 -3.90707 0.6453 0
M  V30 362 H 35.6163 -3.11769 3.39318 0
M  V30 363 H 33.9313 -2.93174 2.95699 0
M  V30 364 H 36.5283 -5.18119 1.32123 0
M  V30 365 H 36.8713 -4.16263 -0.0554308 0
M  V30 366 H 37.4043 -3.65668 1.56625 0
M  V30 367 H 34.1433 -4.98945 4.25128 0
M  V30 368 H 33.6633 -5.4095 2.591 0
M  V30 369 H 35.3423 -5.66337 3.12845 0
M  V30 370 N 35.4744 -0.807222 -1.35358 0
M  V30 371 C 36.8904 -0.491038 -1.51858 0
M  V30 372 C 37.0904 0.987648 -1.75635 0
M  V30 373 O 36.1464 1.77265 -1.79815 0
M  V30 374 C 37.4594 -1.33695 -2.69344 0
M  V30 375 C 39.0074 -1.33246 -2.83222 0
M  V30 376 C 39.4824 -2.1625 -4.03733 0
M  V30 377 N 40.9734 -2.1379 -4.10911 0
M  V30 378 C 41.7084 -2.74772 -5.03277 0
M  V30 379 N 41.2044 -3.44684 -6.0097 0
M  V30 380 N 42.9974 -2.6441 -4.96028 0
M  V30 381 H 35.1484 -1.76485 -1.18181 0
M  V30 382 H 37.4114 -0.751199 -0.578276 0
M  V30 383 H 37.1174 -2.38634 -2.58354 0
M  V30 384 H 36.9914 -0.990618 -3.6396 0
M  V30 385 H 39.3784 -0.290911 -2.93663 0
M  V30 386 H 39.4594 -1.71866 -1.89461 0
M  V30 387 H 39.1034 -3.20445 -3.94052 0
M  V30 388 H 39.0334 -1.74989 -4.96675 0
M  V30 389 H 41.5244 -1.62923 -3.40976 0
M  V30 390 H 41.8374 -3.88501 -6.68047 0
M  V30 391 H 40.1824 -3.48788 -6.01142 0
M  V30 392 H 43.3734 -2.0938 -4.18662 0
M  V30 393 H 43.5464 -3.12225 -5.6782 0
M  V30 394 N 36.9525 1.47285 -0.560781 0
M  V30 395 C 38.1775 2.07359 -0.0410566 0
M  V30 396 C 38.6025 1.41017 1.24483 0
M  V30 397 O 37.9605 0.486368 1.74654 0
M  V30 398 C 38.0085 3.6035 0.134123 0
M  V30 399 O 37.1125 3.94681 1.19587 0
M  V30 400 H 36.4535 0.661887 -0.0529291 0
M  V30 401 H 38.9835 1.89252 -0.777482 0
M  V30 402 H 38.9935 4.0652 0.347207 0
M  V30 403 H 37.6685 4.08034 -0.805047 0
M  V30 404 H 36.2455 3.60251 0.962987 0
M  V30 405 N 38.4306 0.297415 1.54768 0
M  V30 406 C 39.3626 -0.613881 2.20826 0
M  V30 407 C 40.3756 -1.10032 1.19987 0
M  V30 408 O 41.5646 -1.01839 1.46598 0
M  V30 409 C 38.6646 -1.852 2.83821 0
M  V30 410 C 37.8376 -1.50865 4.10559 0
M  V30 411 C 36.8966 -2.60154 4.57391 0
M  V30 412 O 35.9226 -2.25398 5.2267 0
M  V30 413 N 37.1246 -3.90629 4.29406 0
M  V30 414 H 39.8896 -0.048389 2.99661 0
M  V30 415 H 37.4506 0.11946 1.61459 0
M  V30 416 H 39.4426 -2.57652 3.12086 0
M  V30 417 H 38.0126 -2.32597 2.08847 0
M  V30 418 H 37.2326 -0.616925 3.89343 0
M  V30 419 H 38.5206 -1.25458 4.9309 0
M  V30 420 H 37.9186 -4.21677 3.77101 0
M  V30 421 H 36.4756 -4.59391 4.62388 0
M  V30 422 N 39.9087 -1.5758 0.0250728 0
M  V30 423 C 41.1557 -1.91633 -0.654444 0
M  V30 424 C 41.4837 -0.901103 -1.72367 0
M  V30 425 O 40.7387 0.0905647 -1.9549 0
M  V30 426 C 41.0377 -3.32421 -1.31268 0
M  V30 427 C 40.7037 -4.49344 -0.374223 0
M  V30 428 C 39.3657 -4.8106 -0.115911 0
M  V30 429 C 41.7177 -5.20498 0.270432 0
M  V30 430 C 39.0457 -5.8129 0.79493 0
M  V30 431 C 41.3977 -6.21699 1.1693 0
M  V30 432 C 40.0617 -6.51859 1.43655 0
M  V30 433 H 39.3317 -0.701236 -0.239478 0
M  V30 434 H 41.9787 -1.91307 0.0859734 0
M  V30 435 H 40.2837 -3.28989 -2.12775 0
M  V30 436 H 41.9807 -3.56038 -1.84494 0
M  V30 437 H 38.5707 -4.24579 -0.58573 0
M  V30 438 H 42.7547 -4.96229 0.0839194 0
M  V30 439 H 38.0107 -6.03005 1.00973 0
M  V30 440 H 42.1847 -6.75955 1.67504 0
M  V30 441 H 39.8117 -7.2934 2.144 0
M  V30 442 N 41.3868 0.248026 -1.55636 0
M  V30 443 C 42.3338 1.30707 -1.90222 0
M  V30 444 C 43.3038 1.47881 -0.756332 0
M  V30 445 O 44.4888 1.61883 -1.00988 0
M  V30 446 C 41.6288 2.65769 -2.20138 0
M  V30 447 C 40.7418 2.56612 -3.47526 0
M  V30 448 C 39.8768 3.8402 -3.67017 0
M  V30 449 C 38.9158 3.69476 -4.8801 0
M  V30 450 N 38.0528 4.88774 -5.04029 0
M  V30 451 H 42.8928 1.00512 -2.80538 0
M  V30 452 H 40.4298 0.485055 -1.38873 0
M  V30 453 H 42.3878 3.44386 -2.35487 0
M  V30 454 H 41.0178 2.94115 -1.33027 0
M  V30 455 H 40.0698 1.69571 -3.40514 0
M  V30 456 H 41.3818 2.41774 -4.36287 0
M  V30 457 H 40.5358 4.7108 -3.8232 0
M  V30 458 H 39.2748 4.01754 -2.76487 0
M  V30 459 H 38.2798 2.80799 -4.72686 0
M  V30 460 H 39.5048 3.53238 -5.8 0
M  V30 461 H 37.4508 5.0687 -4.16435 0
M  V30 462 H 37.3678 4.76562 -5.86877 0
M  V30 463 H 38.6358 5.77335 -5.23741 0
M  V30 464 N 42.8649 1.48995 0.513639 0
M  V30 465 C 44.1129 1.57531 1.26604 0
M  V30 466 C 44.4339 0.258236 1.93283 0
M  V30 467 O 43.7039 -0.721502 1.8213 0
M  V30 468 H 42.2839 0.580387 0.470276 0
M  V30 469 H 44.9459 1.85552 0.596373 0
M  V30 470 H 44.0419 2.36486 2.03669 0
M  V30 471 N 44.343 -0.763751 1.37857 0
M  V30 472 C 45.754 -1.3405 1.29952 0
M  V30 473 C 46.105 -1.96138 -0.0492898 0
M  V30 474 O 45.23 -1.94372 -0.951239 0
M  V30 475 C 45.825 -2.43729 2.35333 0
M  V30 476 C 44.384 -2.97151 2.31037 0
M  V30 477 C 43.531 -1.70438 2.18738 0
M  V30 478 H 46.482 -0.563396 1.48363 0
M  V30 479 H 46.503 -3.23412 2.00462 0
M  V30 480 H 46.015 -1.9851 3.33489 0
M  V30 481 H 44.116 -3.46724 1.3643 0
M  V30 482 H 44.229 -3.52221 3.24772 0
M  V30 483 H 42.593 -1.93673 1.65418 0
M  V30 484 H 43.376 -1.27312 3.18821 0
M  V30 485 N 45.8211 -1.22559 -0.990812 0
M  V30 486 C 46.7841 -0.998863 -2.0629 0
M  V30 487 C 47.7841 0.0354834 -1.60761 0
M  V30 488 O 48.9741 -0.203231 -1.7301 0
M  V30 489 C 46.1061 -0.509203 -3.37076 0
M  V30 490 H 47.2991 -1.95014 -2.27837 0
M  V30 491 H 44.8521 -1.04456 -1.16269 0
M  V30 492 H 45.5871 0.446335 -3.21214 0
M  V30 493 H 45.3721 -1.25547 -3.71457 0
M  V30 494 H 46.8621 -0.370888 -4.1595 0
M  V30 495 N 47.2992 1.18797 -1.03562 0
M  V30 496 C 48.7102 1.70322 -0.764676 0
M  V30 497 C 49.0612 1.82708 0.714996 0
M  V30 498 O 48.1862 1.50299 1.55689 0
M  V30 499 C 48.7812 3.09356 -1.38145 0
M  V30 500 C 47.3402 3.58114 -1.15895 0
M  V30 501 C 46.4872 2.34798 -1.4753 0
M  V30 502 H 49.4382 1.03543 -1.20268 0
M  V30 503 H 49.4592 3.72378 -0.781977 0
M  V30 504 H 48.9712 3.00309 -2.45837 0
M  V30 505 H 47.0722 3.72464 -0.100544 0
M  V30 506 H 47.1852 4.4184 -1.8524 0
M  V30 507 H 45.5492 2.38464 -0.894829 0
M  V30 508 H 46.3322 2.28375 -2.56319 0
M  V30 509 N 48.7773 0.814389 1.34928 0
M  V30 510 C 50.1933 0.499084 1.51596 0
M  V30 511 C 50.3933 -0.978319 1.76157 0
M  V30 512 O 49.4493 -1.76309 1.80752 0
M  V30 513 C 50.7623 1.35121 2.68631 0
M  V30 514 C 52.3103 1.34746 2.82511 0
M  V30 515 C 52.7853 2.18388 4.0258 0
M  V30 516 N 54.2763 2.15966 4.09772 0
M  V30 517 C 55.0113 2.77437 5.01813 0
M  V30 518 N 54.5073 3.47866 5.99134 0
M  V30 519 N 56.3003 2.67037 4.94619 0
M  V30 520 H 48.4513 1.7711 1.17243 0
M  V30 521 H 50.7143 0.754256 0.574284 0
M  V30 522 H 50.4203 2.40001 2.57085 0
M  V30 523 H 50.2943 1.00991 3.63429 0
M  V30 524 H 52.6813 0.30648 2.93504 0
M  V30 525 H 52.7623 1.72869 1.88547 0
M  V30 526 H 52.4063 3.2253 3.92347 0
M  V30 527 H 52.3363 1.77621 4.9574 0
M  V30 528 H 54.8273 1.64729 3.40107 0
M  V30 529 H 55.1403 3.92038 6.65977 0
M  V30 530 H 53.4853 3.51972 5.99284 0
M  V30 531 H 56.6763 2.11597 4.17546 0
M  V30 532 H 56.8493 3.15232 5.66156 0
M  V30 533 N 50.2554 -1.46986 0.568584 0
M  V30 534 C 51.1654 -2.33942 -0.17555 0
M  V30 535 C 52.1814 -1.48891 -0.90041 0
M  V30 536 O 53.3574 -1.81794 -0.86676 0
M  V30 537 C 50.4224 -3.25811 -1.18524 0
M  V30 538 C 49.4834 -4.26757 -0.466582 0
M  V30 539 C 48.7164 -5.14236 -1.42817 0
M  V30 540 O 48.9394 -5.04379 -2.66379 0
M  V30 541 O 47.8734 -5.94412 -0.946453 0
M  V30 542 H 51.6994 -2.98896 0.538036 0
M  V30 543 H 49.2844 -1.4573 0.329097 0
M  V30 544 H 51.1664 -3.82527 -1.76779 0
M  V30 545 H 49.8414 -2.63471 -1.88055 0
M  V30 546 H 48.7484 -3.73769 0.157451 0
M  V30 547 H 50.0814 -4.91843 0.187485 0
M  V30 548 N 51.7335 -0.305618 -1.54608 0
M  V30 549 C 52.9615 0.304775 -2.04643 0
M  V30 550 C 53.3765 1.47167 -1.18268 0
M  V30 551 O 52.7335 1.81296 -0.209328 0
M  V30 552 C 52.7845 0.756564 -3.53495 0
M  V30 553 O 52.5055 -0.36389 -4.36586 0
M  V30 554 C 54.0065 1.43163 -4.19546 0
M  V30 555 H 51.2265 0.0655481 -0.667791 0
M  V30 556 H 53.7705 -0.446592 -1.99564 0
M  V30 557 H 51.9255 1.45794 -3.58919 0
M  V30 558 H 52.3395 -0.0113121 -5.24499 0
M  V30 559 H 53.8135 1.69886 -5.25207 0
M  V30 560 H 54.2905 2.37318 -3.69563 0
M  V30 561 H 54.8965 0.773307 -4.18211 0
M  V30 562 N 53.2116 1.57565 -0.0334293 0
M  V30 563 C 54.1586 2.10478 0.946981 0
M  V30 564 C 55.1286 1.00787 1.32027 0
M  V30 565 O 56.3136 1.28232 1.41284 0
M  V30 566 C 53.4536 2.63994 2.22263 0
M  V30 567 C 52.5666 3.87709 1.90541 0
M  V30 568 C 51.7016 4.29604 3.12433 0
M  V30 569 C 50.7406 5.46065 2.76549 0
M  V30 570 N 49.8776 5.83096 3.9108 0
M  V30 571 H 54.7176 2.93963 0.488846 0
M  V30 572 H 52.2546 1.45296 0.22969 0
M  V30 573 H 54.2126 2.93114 2.96884 0
M  V30 574 H 52.8426 1.83333 2.65685 0
M  V30 575 H 51.8946 3.65291 1.06144 0
M  V30 576 H 53.2066 4.72403 1.60116 0
M  V30 577 H 52.3606 4.60182 3.9537 0
M  V30 578 H 51.0996 3.43685 3.46023 0
M  V30 579 H 50.1046 5.15176 1.92026 0
M  V30 580 H 51.3296 6.33685 2.44171 0
M  V30 581 H 49.2756 5.00132 4.24504 0
M  V30 582 H 49.1926 6.6244 3.64293 0
M  V30 583 H 50.4606 6.18282 4.74708 0
M  V30 584 N 54.6897 -0.239769 1.55765 0
M  V30 585 C 55.9667 -0.990056 1.68693 0
M  V30 586 C 56.3467 -2.03107 0.5754 0
M  V30 587 O 55.6947 -2.24604 -0.42017 0
M  V30 588 C 55.9047 -1.61696 3.09282 0
M  V30 589 C 57.2527 -2.11613 3.6811 0
M  V30 590 O 58.2767 -1.71624 3.12127 0
M  V30 591 O 57.1357 -2.85057 4.66267 0
M  V30 592 H 54.2297 -0.461299 0.686391 0
M  V30 593 H 56.7757 -0.232991 1.68093 0
M  V30 594 H 55.5477 -0.864357 3.81634 0
M  V30 595 H 55.1707 -2.44005 3.13923 0
M  V30 596 N 56.1678 -1.49265 -0.50573 0
M  V30 597 C 57.3958 -1.62215 -1.28429 0
M  V30 598 C 57.8108 -0.291697 -1.86533 0
M  V30 599 O 57.1678 0.722233 -1.67601 0
M  V30 600 C 57.2188 -2.68735 -2.41793 0
M  V30 601 O 56.9398 -3.96619 -1.86078 0
M  V30 602 C 58.4408 -2.92346 -3.3324 0
M  V30 603 H 55.6608 -0.546239 -0.389697 0
M  V30 604 H 58.2048 -1.95265 -0.607609 0
M  V30 605 H 56.3598 -2.38476 -3.053 0
M  V30 606 H 56.7738 -4.55256 -2.60465 0
M  V30 607 H 58.2478 -3.70623 -4.09075 0
M  V30 608 H 58.7248 -2.02081 -3.89948 0
M  V30 609 H 59.3308 -3.24003 -2.75503 0
M  V30 610 N 57.6459 0.756429 -1.3826 0
M  V30 611 C 58.9229 1.50584 -1.24835 0
M  V30 612 C 59.3029 2.10556 0.151485 0
M  V30 613 O 58.6509 1.96825 1.1607 0
M  V30 614 C 58.8609 2.57448 -2.3563 0
M  V30 615 C 60.2089 3.24429 -2.73917 0
M  V30 616 O 61.2329 2.67751 -2.34921 0
M  V30 617 O 60.0919 4.26937 -3.41156 0
M  V30 618 H 57.1859 0.667664 -0.48801 0
M  V30 619 H 59.7319 0.792083 -1.5008 0
M  V30 620 H 58.5039 2.11362 -3.29305 0
M  V30 621 H 58.1269 3.36408 -2.11933 0
M  V30 622 N 59.124 1.23083 0.984299 0
M  V30 623 C 60.373 1.05466 1.71929 0
M  V30 624 C 60.686 -0.409211 1.91272 0
M  V30 625 O 61.892 -0.705226 2.62181 0
M  V30 626 C 60.348 1.83874 3.09384 0
M  V30 627 C 59.956 3.34566 2.97943 0
M  V30 628 C 61.7 1.74734 3.8687 0
M  V30 629 C 59.607 4.05381 4.30605 0
M  V30 630 H 58.537 0.391039 0.644674 0
M  V30 631 H 61.188 1.47013 1.09815 0
M  V30 632 H 59.57 1.35131 3.72231 0
M  V30 633 H 60.744 3.90767 2.44209 0
M  V30 634 H 59.059 3.44476 2.33934 0
M  V30 635 H 61.656 2.24957 4.85076 0
M  V30 636 H 61.999 0.709372 4.10212 0
M  V30 637 H 62.532 2.21067 3.30717 0
M  V30 638 H 59.271 5.09467 4.1246 0
M  V30 639 H 58.791 3.53967 4.84218 0
M  V30 640 H 60.47 4.11458 4.99311 0
M  V30 641 N 60.6021 -1.18246 1.0419 0
M  V30 642 C 61.8481 -1.88536 0.747122 0
M  V30 643 C 62.1811 -1.80223 -0.723409 0
M  V30 644 O 61.4561 -1.20337 -1.52804 0
M  V30 645 C 61.7391 -3.38968 1.21544 0
M  V30 646 C 61.5921 -3.56084 2.74816 0
M  V30 647 C 62.9111 -4.32648 0.806482 0
M  V30 648 H 60.0301 -0.684619 0.272883 0
M  V30 649 H 62.6721 -1.39113 1.29413 0
M  V30 650 H 60.8221 -3.8119 0.750081 0
M  V30 651 H 62.4941 -3.22946 3.29399 0
M  V30 652 H 60.7371 -2.98699 3.14582 0
M  V30 653 H 61.4081 -4.61639 3.02644 0
M  V30 654 H 63.8841 -3.98211 1.20695 0
M  V30 655 H 62.7601 -5.36462 1.1619 0
M  V30 656 H 63.0211 -4.41146 -0.29029 0
M  V30 657 N 62.0802 -0.821533 -1.34494 0
M  V30 658 C 63.3572 -0.33159 -1.92769 0
M  V30 659 C 63.7372 1.18088 -1.74981 0
M  V30 660 O 63.0852 1.98733 -1.12772 0
M  V30 661 C 63.2952 -0.759398 -3.40638 0
M  V30 662 C 64.6432 -0.757433 -4.1779 0
M  V30 663 O 65.6672 -0.70189 -3.49216 0
M  V30 664 O 64.5262 -0.829361 -5.4017 0
M  V30 665 H 61.6202 -0.0902502 -0.822061 0
M  V30 666 H 64.1662 -0.906231 -1.43477 0
M  V30 667 H 62.9382 -1.8012 -3.47379 0
M  V30 668 H 62.5612 -0.160378 -3.97276 0
M  V30 669 N 63.5583 1.46682 -0.576371 0
M  V30 670 C 64.4683 2.34032 0.163141 0
M  V30 671 C 65.4843 1.49367 0.892501 0
M  V30 672 O 66.6603 1.82252 0.857106 0
M  V30 673 C 63.7253 3.26435 1.16795 0
M  V30 674 C 62.7863 4.26998 0.443944 0
M  V30 675 C 62.0193 5.14986 1.40088 0
M  V30 676 O 62.2423 5.05785 2.637 0
M  V30 677 O 61.1763 5.94906 0.914917 0
M  V30 678 H 65.0023 2.98607 -0.55388 0
M  V30 679 H 62.5873 1.45554 -0.336821 0
M  V30 680 H 64.4693 3.83459 1.74748 0
M  V30 681 H 63.1443 2.64465 1.86655 0
M  V30 682 H 62.0513 3.7368 -0.177271 0
M  V30 683 H 63.3843 4.91736 -0.213566 0
M  V30 684 N 65.0364 0.313813 1.54444 0
M  V30 685 C 65.9994 -0.54379 2.22656 0
M  V30 686 C 66.9994 -1.05124 1.21678 0
M  V30 687 O 68.1894 -0.945225 1.46325 0
M  V30 688 C 65.3214 -1.75427 2.92298 0
M  V30 689 H 66.5144 0.0523599 2.99854 0
M  V30 690 H 64.0674 0.0647834 1.56166 0
M  V30 691 H 64.8024 -2.38991 2.19211 0
M  V30 692 H 64.5874 -1.39791 3.66334 0
M  V30 693 H 66.0774 -2.36325 3.44297 0
M  V30 694 N 66.5145 -1.57545 0.0417849 0
M  V30 695 C 67.7635 -1.91494 -0.633492 0
M  V30 696 C 68.0765 -0.921084 -1.72556 0
M  V30 697 O 69.2825 -1.15228 -2.45835 0
M  V30 698 C 67.7385 -3.40072 -1.17808 0
M  V30 699 C 67.3465 -4.47843 -0.118633 0
M  V30 700 C 69.0905 -3.8307 -1.82915 0
M  V30 701 C 66.9975 -5.87529 -0.675578 0
M  V30 702 H 65.9275 -0.714653 -0.24039 0
M  V30 703 H 68.5785 -1.83175 0.109148 0
M  V30 704 H 66.9605 -3.43364 -1.97274 0
M  V30 705 H 68.1345 -4.56128 0.654494 0
M  V30 706 H 66.4495 -4.14128 0.434414 0
M  V30 707 H 69.0465 -4.84794 -2.25563 0
M  V30 708 H 69.3895 -3.1881 -2.67705 0
M  V30 709 H 69.9225 -3.82255 -1.10119 0
M  V30 710 H 66.6615 -6.55362 0.134475 0
M  V30 711 H 66.1815 -5.82824 -1.4169 0
M  V30 712 H 67.8605 -6.36491 -1.1614 0
M  V30 713 N 67.9926 0.231505 -1.5589 0
M  V30 714 C 69.2226 0.973092 -1.82248 0
M  V30 715 C 69.6306 1.78845 -0.617328 0
M  V30 716 O 68.9736 1.78752 0.423499 0
M  V30 717 C 69.0356 1.94732 -3.02192 0
M  V30 718 C 68.6996 1.31743 -4.37599 0
M  V30 719 C 69.6966 0.712238 -5.14998 0
M  V30 720 C 67.3816 1.33218 -4.84312 0
M  V30 721 C 69.3756 0.130195 -6.37267 0
M  V30 722 C 67.0626 0.746286 -6.06526 0
M  V30 723 C 68.0606 0.146337 -6.82843 0
M  V30 724 O 67.7486 -0.430465 -8.02747 0
M  V30 725 H 67.4806 0.29125 -0.61004 0
M  V30 726 H 70.0346 0.254915 -2.03812 0
M  V30 727 H 68.2646 2.70422 -2.76422 0
M  V30 728 H 69.9536 2.55362 -3.15508 0
M  V30 729 H 70.7196 0.69324 -4.8002 0
M  V30 730 H 66.5986 1.78854 -4.24891 0
M  V30 731 H 70.1426 -0.33871 -6.96777 0
M  V30 732 H 66.0396 0.762663 -6.40979 0
M  V30 733 H 66.8076 -0.323818 -8.17859 0
M  V30 734 N 69.4707 1.49531 0.497807 0
M  V30 735 C 70.7007 1.62657 1.27382 0
M  V30 736 C 71.1087 0.298488 1.86831 0
M  V30 737 O 70.4517 -0.72647 1.68725 0
M  V30 738 C 70.5137 2.6393 2.44093 0
M  V30 739 C 70.1777 4.08195 2.05489 0
M  V30 740 C 71.1747 4.949 1.59279 0
M  V30 741 C 68.8597 4.53948 2.15026 0
M  V30 742 C 70.8537 6.25397 1.23113 0
M  V30 743 C 68.5407 5.84458 1.78473 0
M  V30 744 C 69.5387 6.70006 1.32591 0
M  V30 745 O 69.2267 7.98083 0.965327 0
M  V30 746 H 68.9587 0.550429 0.392434 0
M  V30 747 H 71.5127 1.96325 0.603801 0
M  V30 748 H 69.7427 2.25449 3.14181 0
M  V30 749 H 71.4317 2.66552 3.06113 0
M  V30 750 H 72.1977 4.60779 1.51354 0
M  V30 751 H 68.0767 3.87525 2.4969 0
M  V30 752 H 71.6207 6.92125 0.872299 0
M  V30 753 H 67.5177 6.18107 1.86048 0
M  V30 754 H 68.2857 8.11122 1.09652 0
M  V30 755 N 70.9488 -0.749086 1.3866 0
M  V30 756 C 72.1958 -1.50833 1.35114 0
M  V30 757 C 72.5238 -1.94415 -0.0574049 0
M  V30 758 O 71.7788 -1.66065 -1.03541 0
M  V30 759 C 72.0778 -2.7712 2.25697 0
M  V30 760 C 71.7438 -2.52477 3.73585 0
M  V30 761 C 70.4058 -2.45466 4.13884 0
M  V30 762 C 72.7578 -2.31066 4.67181 0
M  V30 763 C 70.0858 -2.15064 5.45861 0
M  V30 764 C 72.4378 -2.02183 5.9942 0
M  V30 765 C 71.1018 -1.93631 6.38798 0
M  V30 766 H 70.3718 -0.551936 0.494416 0
M  V30 767 H 73.0188 -0.860979 1.71054 0
M  V30 768 H 71.3238 -3.46528 1.82827 0
M  V30 769 H 73.0208 -3.35096 2.20254 0
M  V30 770 H 69.6108 -2.58807 3.41638 0
M  V30 771 H 73.7948 -2.35459 4.3689 0
M  V30 772 H 69.0508 -2.06954 5.75308 0
M  V30 773 H 73.2248 -1.8462 6.71482 0
M  V30 774 H 70.8518 -1.69839 7.40985 0
M  V30 775 N 72.4269 -1.23603 -0.977757 0
M  V30 776 C 73.3739 -1.01954 -2.07061 0
M  V30 777 C 74.3439 0.0638697 -1.65977 0
M  V30 778 O 75.5289 -0.0887624 -1.90593 0
M  V30 779 C 72.6689 -0.619658 -3.39491 0
M  V30 780 C 71.7819 -1.77547 -3.93829 0
M  V30 781 C 70.9169 -1.32212 -5.14484 0
M  V30 782 C 69.9559 -2.44852 -5.60994 0
M  V30 783 N 69.0929 -2.00456 -6.72876 0
M  V30 784 H 73.9329 -1.95495 -2.24913 0
M  V30 785 H 71.4699 -0.973861 -1.10247 0
M  V30 786 H 73.4279 -0.368898 -4.15566 0
M  V30 787 H 72.0579 0.278752 -3.21594 0
M  V30 788 H 71.1099 -2.14016 -3.14486 0
M  V30 789 H 72.4219 -2.62219 -4.24314 0
M  V30 790 H 71.5759 -1.02965 -5.97899 0
M  V30 791 H 70.3149 -0.445808 -4.85658 0
M  V30 792 H 69.3199 -2.74871 -4.76157 0
M  V30 793 H 70.5449 -3.33024 -5.91837 0
M  V30 794 H 68.4909 -1.15208 -6.45804 0
M  V30 795 H 68.4079 -2.78687 -7.02759 0
M  V30 796 H 69.6759 -1.7432 -7.59758 0
M  V30 797 N 73.905 1.17692 -1.04816 0
M  V30 798 C 74.868 2.19787 -0.650117 0
M  V30 799 C 75.868 1.58044 0.296427 0
M  V30 800 O 77.058 1.74012 0.0808097 0
M  V30 801 C 74.19 3.40869 0.0456987 0
M  V30 802 H 75.383 2.56516 -1.5537 0
M  V30 803 H 72.936 1.31708 -0.841594 0
M  V30 804 H 73.671 3.09681 0.962726 0
M  V30 805 H 73.456 3.86928 -0.634727 0
M  V30 806 H 74.946 4.16445 0.310432 0
M  V30 807 N 75.3831 0.828654 1.34056 0
M  V30 808 C 76.3311 0.242973 2.31327 0
M  V30 809 C 77.3251 -0.61944 1.57668 0
M  V30 810 O 78.5311 -0.51014 1.7262 0
M  V30 811 H 74.9061 0.059834 0.749616 0
M  V30 812 H 76.8771 1.07809 2.78244 0
M  V30 813 C 75.6261 -0.575733 3.429 0
M  V30 814 H 74.9491 0.0785582 3.99723 0
M  V30 815 H 76.3891 -0.951547 4.13185 0
M  V30 816 C 74.8481 -1.75044 2.87856 0
M  V30 817 O 75.3781 -2.84882 2.83205 0
M  V30 818 N 73.5841 -1.56903 2.44602 0
M  V30 819 H 73.1311 -0.675547 2.48584 0
M  V30 820 H 73.0891 -2.35652 2.08124 0
M  V30 821 N 76.8612 -1.46375 0.584142 0
M  V30 822 C 78.1072 -2.02678 0.0703716 0
M  V30 823 C 78.4402 -1.4545 -1.28678 0
M  V30 824 O 77.7152 -0.62014 -1.84349 0
M  V30 825 C 77.9982 -3.60099 0.00614674 0
M  V30 826 C 77.8512 -4.27709 1.3923 0
M  V30 827 C 79.1702 -4.34598 -0.693742 0
M  V30 828 H 76.2892 -0.736504 0.027047 0
M  V30 829 H 78.9312 -1.74501 0.751615 0
M  V30 830 H 77.0812 -3.84236 -0.574009 0
M  V30 831 H 78.7532 -4.14832 2.01773 0
M  V30 832 H 76.9962 -3.87016 1.95962 0
M  V30 833 H 77.6672 -5.36478 1.29982 0
M  V30 834 H 80.1432 -4.15615 -0.200869 0
M  V30 835 H 79.0192 -5.44318 -0.707714 0
M  V30 836 H 79.2802 -4.05759 -1.75533 0
M  V30 837 N 78.3393 -0.321999 -1.54275 0
M  V30 838 C 79.5863 0.281044 -2.0054 0
M  V30 839 C 79.9143 1.52265 -1.21019 0
M  V30 840 O 79.1693 1.93687 -0.279982 0
M  V30 841 C 79.4683 0.661769 -3.5122 0
M  V30 842 C 79.1343 -0.480482 -4.48333 0
M  V30 843 C 77.7963 -0.794005 -4.74604 0
M  V30 844 C 80.1483 -1.24783 -5.06042 0
M  V30 845 C 77.4763 -1.87763 -5.55844 0
M  V30 846 C 79.8283 -2.32153 -5.88462 0
M  V30 847 C 78.4923 -2.64089 -6.13036 0
M  V30 848 H 77.7623 0.102841 -0.733829 0
M  V30 849 H 80.4093 -0.445453 -1.86247 0
M  V30 850 H 78.7143 1.46867 -3.63232 0
M  V30 851 H 80.4113 1.13989 -3.84457 0
M  V30 852 H 77.0013 -0.226039 -4.28004 0
M  V30 853 H 81.1853 -1.01887 -4.85729 0
M  V30 854 H 76.4413 -2.12954 -5.73115 0
M  V30 855 H 80.6153 -2.92057 -6.32199 0
M  V30 856 H 78.2423 -3.48185 -6.75775 0
M  V30 857 N 79.8174 1.5752 -0.0501392 0
M  V30 858 C 81.0644 1.9265 0.623874 0
M  V30 859 C 81.3924 0.928411 1.70912 0
M  V30 860 O 80.6474 -0.0594525 1.9561 0
M  V30 861 C 80.9464 3.34467 1.25963 0
M  V30 862 C 80.6124 4.49883 0.302689 0
M  V30 863 C 79.2744 4.81184 0.0393636 0
M  V30 864 C 81.6264 5.20002 -0.353205 0
M  V30 865 C 78.9544 5.79951 -0.887308 0
M  V30 866 C 81.3064 6.1976 -1.26806 0
M  V30 867 C 79.9704 6.49491 -1.54007 0
M  V30 868 H 79.2404 0.704957 0.228292 0
M  V30 869 H 81.8874 1.91146 -0.116398 0
M  V30 870 H 80.1924 3.32333 2.07514 0
M  V30 871 H 81.8894 3.58928 1.78806 0
M  V30 872 H 78.4794 4.25457 0.518109 0
M  V30 873 H 82.6634 4.96033 -0.162854 0
M  V30 874 H 77.9194 6.01322 -1.10553 0
M  V30 875 H 82.0934 6.73205 -1.78236 0
M  V30 876 H 79.7204 7.25837 -2.25976 0
M  V30 877 N 81.2955 -0.223234 1.56011 0
M  V30 878 C 82.2425 -1.27664 1.92277 0
M  V30 879 C 83.2125 -1.46659 0.779763 0
M  V30 880 O 84.3975 -1.60256 1.03551 0
M  V30 881 C 81.5375 -2.62234 2.24338 0
M  V30 882 C 80.6505 -2.51051 3.51564 0
M  V30 883 C 79.7855 -3.78133 3.7308 0
M  V30 884 C 78.8245 -3.61665 4.93827 0
M  V30 885 N 77.9615 -4.80693 5.11741 0
M  V30 886 H 82.8015 -0.960358 2.82101 0
M  V30 887 H 80.3385 -0.462901 1.39627 0
M  V30 888 H 82.2965 -3.40596 2.40936 0
M  V30 889 H 80.9265 -2.91961 1.3769 0
M  V30 890 H 79.9785 -1.64132 3.43169 0
M  V30 891 H 81.2905 -2.34803 4.40079 0
M  V30 892 H 80.4445 -4.64938 3.89766 0
M  V30 893 H 79.1835 -3.97304 2.82844 0
M  V30 894 H 78.1885 -2.73244 4.77093 0
M  V30 895 H 79.4135 -3.43966 5.85546 0
M  V30 896 H 77.3595 -5.00181 4.24446 0
M  V30 897 H 77.2765 -4.67165 5.94384 0
M  V30 898 H 78.5445 -5.6893 5.3286 0
M  V30 899 N 82.7736 -1.49793 -0.48987 0
M  V30 900 C 83.7216 -1.67783 -1.61095 0
M  V30 901 C 84.7156 -0.543683 -1.60438 0
M  V30 902 O 85.9216 -0.723647 -1.64813 0
M  V30 903 H 82.2966 -0.529255 -0.534222 0
M  V30 904 H 84.2676 -2.61861 -1.43078 0
M  V30 905 C 83.0166 -1.77191 -2.99164 0
M  V30 906 H 82.3396 -2.63841 -3.0038 0
M  V30 907 H 83.7796 -1.93809 -3.77113 0
M  V30 908 C 82.2386 -0.519203 -3.32875 0
M  V30 909 O 82.7686 0.350124 -4.00171 0
M  V30 910 N 80.9746 -0.378816 -2.8812 0
M  V30 911 H 80.5216 -1.08725 -2.33531 0
M  V30 912 H 80.4796 0.458239 -3.11043 0
M  V30 913 N 84.2517 0.741722 -1.39055 0
M  V30 914 C 85.4817 1.52876 -1.3897 0
M  V30 915 C 85.8897 1.8919 0.0193266 0
M  V30 916 O 85.2327 1.54138 0.999356 0
M  V30 917 C 85.2947 2.84929 -2.19216 0
M  V30 918 C 84.9587 2.71086 -3.67915 0
M  V30 919 C 85.9557 2.40084 -4.61146 0
M  V30 920 C 83.6407 2.88168 -4.11418 0
M  V30 921 C 85.6347 2.26335 -5.95862 0
M  V30 922 C 83.3217 2.74037 -5.46211 0
M  V30 923 C 84.3197 2.43166 -6.38247 0
M  V30 924 O 84.0077 2.29115 -7.70559 0
M  V30 925 H 83.7397 0.479252 -0.476753 0
M  V30 926 H 86.2937 0.924751 -1.83405 0
M  V30 927 H 84.5237 3.47564 -1.69518 0
M  V30 928 H 86.2127 3.46509 -2.11392 0
M  V30 929 H 86.9787 2.26545 -4.28838 0
M  V30 930 H 82.8577 3.11191 -3.40119 0
M  V30 931 H 86.4017 2.0216 -6.67665 0
M  V30 932 H 82.2987 2.87153 -5.78112 0
M  V30 933 H 83.0667 2.44237 -7.81211 0
M  V30 934 N 85.7298 1.2412 0.971189 0
M  V30 935 C 86.6398 1.04747 2.09917 0
M  V30 936 C 87.6558 -0.0107162 1.73997 0
M  V30 937 O 88.8318 0.186714 2.00533 0
M  V30 938 C 85.8968 0.650828 3.40537 0
M  V30 939 C 84.9578 1.7851 3.90426 0
M  V30 940 C 84.1908 1.40729 5.14812 0
M  V30 941 O 84.4138 0.29557 5.69634 0
M  V30 942 O 83.3478 2.23168 5.58999 0
M  V30 943 H 87.1738 1.99304 2.29154 0
M  V30 944 H 84.7588 1.02908 1.08307 0
M  V30 945 H 86.6408 0.440992 4.19086 0
M  V30 946 H 85.3158 -0.265649 3.22608 0
M  V30 947 H 84.2228 2.04966 3.12953 0
M  V30 948 H 85.5558 2.68023 4.12825 0
M  V30 949 N 87.2079 -1.17134 1.05439 0
M  V30 950 C 88.4569 -1.86791 0.761049 0
M  V30 951 C 88.7699 -1.82072 -0.714795 0
M  V30 952 O 89.9759 -2.47223 -1.12218 0
M  V30 953 C 88.4319 -3.35166 1.31117 0
M  V30 954 C 88.0399 -3.48381 2.81664 0
M  V30 955 C 89.7839 -4.10134 1.09499 0
M  V30 956 C 87.6909 -4.90793 3.29964 0
M  V30 957 H 86.6209 -0.699681 0.281002 0
M  V30 958 H 89.2719 -1.3226 1.27199 0
M  V30 959 H 87.6539 -3.8925 0.72803 0
M  V30 960 H 88.8279 -3.04502 3.45855 0
M  V30 961 H 87.1429 -2.86836 3.01851 0
M  V30 962 H 89.7399 -5.152 1.43084 0
M  V30 963 H 90.0829 -4.16287 0.0328772 0
M  V30 964 H 90.6159 -3.62264 1.64346 0
M  V30 965 H 87.3549 -4.89816 4.35616 0
M  V30 966 H 86.8749 -5.35333 2.70516 0
M  V30 967 H 88.5539 -5.59573 3.24787 0
M  V30 968 N 88.686 -0.835752 -1.33615 0
M  V30 969 C 89.633 -0.26473 -2.29277 0
M  V30 970 C 90.603 0.617712 -1.54187 0
M  V30 971 O 91.788 0.556641 -1.825 0
M  V30 972 C 88.928 0.556777 -3.40579 0
M  V30 973 C 88.041 -0.349339 -4.30585 0
M  V30 974 C 87.176 0.482969 -5.29 0
M  V30 975 C 86.215 -0.421732 -6.10645 0
M  V30 976 N 85.352 0.372262 -7.01112 0
M  V30 977 H 90.192 -1.08582 -2.77514 0
M  V30 978 H 87.729 -0.546927 -1.36554 0
M  V30 979 H 89.687 1.04852 -4.03809 0
M  V30 980 H 88.317 1.34286 -2.93542 0
M  V30 981 H 87.369 -0.959372 -3.68104 0
M  V30 982 H 88.681 -1.04445 -4.87742 0
M  V30 983 H 87.835 1.03866 -5.97743 0
M  V30 984 H 86.574 1.21153 -4.72412 0
M  V30 985 H 85.579 -0.989464 -5.40823 0
M  V30 986 H 86.804 -1.14861 -6.69316 0
M  V30 987 H 84.75 1.08426 -6.46977 0
M  V30 988 H 84.667 -0.264198 -7.55538 0
M  V30 989 H 85.935 0.910293 -7.74167 0
M  V30 990 N 90.1641 1.46063 -0.591896 0
M  V30 991 C 91.1121 2.32124 0.148739 0
M  V30 992 C 92.1061 1.45035 0.875286 0
M  V30 993 O 93.3121 1.61609 0.792632 0
M  V30 994 H 89.6871 0.749024 0.066832 0
M  V30 995 H 91.6581 2.92392 -0.595783 0
M  V30 996 C 90.4071 3.28373 1.1431 0
M  V30 997 H 89.7301 3.95371 0.59346 0
M  V30 998 H 91.1701 3.91352 1.63155 0
M  V30 999 C 89.6291 2.54393 2.20875 0
M  V30 1000 O 90.1591 2.31373 3.28374 0
M  V30 1001 N 88.3651 2.14797 1.95731 0
M  V30 1002 H 87.9121 2.33719 1.08319 0
M  V30 1003 H 87.8701 1.65619 2.67241 0
M  V30 1004 N 91.6422 0.330177 1.54103 0
M  V30 1005 C 92.5522 -0.541534 2.28264 0
M  V30 1006 C 93.5682 -1.12351 1.32866 0
M  V30 1007 O 94.7442 -1.14206 1.65888 0
M  V30 1008 C 91.8092 -1.68322 3.03098 0
M  V30 1009 C 90.8702 -1.13238 4.14096 0
M  V30 1010 C 90.1032 -2.21966 4.85352 0
M  V30 1011 O 90.3262 -3.42437 4.56172 0
M  V30 1012 O 89.2602 -1.87013 5.7211 0
M  V30 1013 H 93.0862 0.060938 3.03639 0
M  V30 1014 H 90.6712 0.09565 1.49093 0
M  V30 1015 H 92.5532 -2.34777 3.49939 0
M  V30 1016 H 91.2282 -2.27176 2.30593 0
M  V30 1017 H 90.1352 -0.432736 3.71589 0
M  V30 1018 H 91.4682 -0.588898 4.88664 0
M  V30 1019 N 93.1203 -1.57491 0.0584922 0
M  V30 1020 C 94.0833 -2.1085 -0.898617 0
M  V30 1021 C 95.0833 -1.02964 -1.23511 0
M  V30 1022 O 96.2733 -1.29007 -1.17059 0
M  V30 1023 C 93.4053 -2.59881 -2.20623 0
M  V30 1024 H 94.5983 -2.96715 -0.435936 0
M  V30 1025 H 92.1513 -1.55141 -0.190023 0
M  V30 1026 H 92.8863 -1.77431 -2.71457 0
M  V30 1027 H 92.6713 -3.38727 -1.97501 0
M  V30 1028 H 94.1613 -3.01285 -2.89166 0
M  V30 1029 N 94.5984 0.214957 -1.56127 0
M  V30 1030 C 95.8754 0.963093 -1.70247 0
M  V30 1031 C 96.2554 2.02166 -0.60764 0
M  V30 1032 O 95.6034 2.25244 0.384385 0
M  V30 1033 C 95.8134 1.56756 -3.11815 0
M  V30 1034 C 97.1614 2.0573 -3.7143 0
M  V30 1035 O 98.1854 1.66637 -3.14818 0
M  V30 1036 O 97.0444 2.77603 -4.70743 0
M  V30 1037 H 94.1384 0.450321 -0.693643 0
M  V30 1038 H 96.6844 0.206219 -1.68442 0
M  V30 1039 H 95.4564 0.803533 -3.82961 0
M  V30 1040 H 95.0794 2.3898 -3.17765 0
M  V30 1041 N 96.0765 1.50051 0.48192 0
M  V30 1042 C 97.4925 1.37237 0.814756 0
M  V30 1043 C 97.6925 0.420109 1.97072 0
M  V30 1044 O 96.7485 -0.141246 2.52105 0
M  V30 1045 C 98.0615 2.78375 1.13701 0
M  V30 1046 C 99.6095 2.87213 1.2441 0
M  V30 1047 C 100.084 4.29161 1.59954 0
M  V30 1048 N 101.575 4.32061 1.66967 0
M  V30 1049 C 102.31 5.38879 1.95952 0
M  V30 1050 N 101.806 6.55918 2.23031 0
M  V30 1051 N 103.599 5.26312 1.97363 0
M  V30 1052 H 95.7505 2.10546 -0.28005 0
M  V30 1053 H 98.0135 0.945921 -0.0627454 0
M  V30 1054 H 97.7195 3.49845 0.360787 0
M  V30 1055 H 97.5935 3.14941 2.07586 0
M  V30 1056 H 99.9805 2.15969 2.01101 0
M  V30 1057 H 100.061 2.54204 0.285299 0
M  V30 1058 H 99.7055 5.00938 0.838067 0
M  V30 1059 H 99.6355 4.59648 2.56966 0
M  V30 1060 H 102.126 3.47661 1.48123 0
M  V30 1061 H 102.439 7.33139 2.44391 0
M  V30 1062 H 100.784 6.59112 2.20447 0
M  V30 1063 H 103.975 4.33876 1.75697 0
M  V30 1064 H 104.148 6.09649 2.19618 0
M  V30 1065 N 97.5546 -0.734337 1.39446 0
M  V30 1066 C 98.7826 -1.52358 1.39981 0
M  V30 1067 C 99.1976 -1.88799 -0.0054975 0
M  V30 1068 O 98.5546 -1.54146 -0.976998 0
M  V30 1069 C 98.6056 -2.81072 2.27333 0
M  V30 1070 O 98.3266 -2.46178 3.62392 0
M  V30 1071 C 99.8276 -3.75096 2.36259 0
M  V30 1072 H 97.0476 -0.470806 0.478103 0
M  V30 1073 H 99.5916 -0.907339 1.83269 0
M  V30 1074 H 97.7466 -3.39026 1.87457 0
M  V30 1075 H 98.1606 -3.28866 4.08592 0
M  V30 1076 H 99.6346 -4.62305 3.01626 0
M  V30 1077 H 100.112 -4.16892 1.38194 0
M  V30 1078 H 100.718 -3.23061 2.76608 0
M  V30 1079 N 99.0327 -1.24633 -0.964593 0
M  V30 1080 C 99.9627 -1.06611 -2.07741 0
M  V30 1081 C 100.944 0.0218666 -1.70086 0
M  V30 1082 O 102.129 -0.145793 -1.93652 0
M  V30 1083 C 99.2587 -0.673444 -3.40708 0
M  V30 1084 C 98.2127 -1.71054 -3.92332 0
M  V30 1085 C 97.5387 -1.17285 -5.21678 0
M  V30 1086 C 98.8387 -3.10718 -4.19824 0
M  V30 1087 H 100.533 -1.99693 -2.23076 0
M  V30 1088 H 98.0787 -0.96152 -1.07195 0
M  V30 1089 H 100.032 -0.534345 -4.17998 0
M  V30 1090 H 98.7557 0.293073 -3.25282 0
M  V30 1091 H 97.4147 -1.83791 -3.17201 0
M  V30 1092 H 97.0627 -0.196847 -5.02615 0
M  V30 1093 H 96.7627 -1.86592 -5.57187 0
M  V30 1094 H 98.2867 -1.04593 -6.01575 0
M  V30 1095 H 99.7007 -3.01192 -4.87808 0
M  V30 1096 H 98.0977 -3.77406 -4.66567 0
M  V30 1097 H 99.1677 -3.58524 -3.26479 0
M  V30 1098 N 100.511 1.16574 -1.06058 0
M  V30 1099 C 101.76 1.86385 -0.770944 0
M  V30 1100 C 102.073 1.82448 0.705129 0
M  V30 1101 O 103.279 2.47815 1.10905 0
M  V30 1102 C 101.735 3.34466 -1.32893 0
M  V30 1103 C 101.343 3.46883 -2.83507 0
M  V30 1104 C 103.087 4.09548 -1.11672 0
M  V30 1105 C 100.994 4.89036 -3.32562 0
M  V30 1106 H 99.9238 0.698181 -0.284709 0
M  V30 1107 H 102.575 1.31583 -1.27899 0
M  V30 1108 H 100.957 3.88859 -0.748662 0
M  V30 1109 H 102.131 3.02663 -3.47465 0
M  V30 1110 H 100.446 2.85232 -3.03368 0
M  V30 1111 H 103.043 5.14434 -1.45814 0
M  V30 1112 H 103.386 4.16264 -0.0549535 0
M  V30 1113 H 103.919 3.61387 -1.66265 0
M  V30 1114 H 100.658 4.87499 -4.38207 0
M  V30 1115 H 100.178 5.3389 -2.73351 0
M  V30 1116 H 101.857 5.57843 -3.2775 0
M  V30 1117 N 101.989 0.842826 1.3317 0
M  V30 1118 C 103.219 0.453397 2.01564 0
M  V30 1119 C 103.627 -0.951147 1.63554 0
M  V30 1120 O 102.97 -1.63021 0.846746 0
M  V30 1121 C 103.032 0.499013 3.5602 0
M  V30 1122 C 102.696 1.86037 4.1742 0
M  V30 1123 C 103.693 2.82416 4.36506 0
M  V30 1124 C 101.378 2.15428 4.53757 0
M  V30 1125 C 103.372 4.06346 4.91082 0
M  V30 1126 C 101.059 3.39615 5.0804 0
M  V30 1127 C 102.057 4.3489 5.26649 0
M  V30 1128 O 101.745 5.5688 5.79776 0
M  V30 1129 H 101.477 0.177871 0.652179 0
M  V30 1130 H 104.031 1.13808 1.70988 0
M  V30 1131 H 102.261 -0.242467 3.85939 0
M  V30 1132 H 103.95 0.126852 4.05702 0
M  V30 1133 H 104.716 2.6101 4.08777 0
M  V30 1134 H 100.595 1.42061 4.38565 0
M  V30 1135 H 104.139 4.80722 5.05522 0
M  V30 1136 H 100.036 3.60876 5.352 0
M  V30 1137 H 100.804 5.58674 5.98185 0
M  V30 1138 N 103.467 -1.45747 0.599634 0
M  V30 1139 C 104.716 -2.01502 0.0893511 0
M  V30 1140 C 105.029 -1.4748 -1.28488 0
M  V30 1141 O 106.235 -1.95161 -1.88745 0
M  V30 1142 C 104.691 -3.59735 0.109082 0
M  V30 1143 C 104.299 -4.22754 1.48267 0
M  V30 1144 C 106.043 -4.23085 -0.346374 0
M  V30 1145 C 103.95 -5.73115 1.45921 0
M  V30 1146 H 102.88 -0.753417 0.0296347 0
M  V30 1147 H 105.531 -1.67303 0.753788 0
M  V30 1148 H 103.913 -3.91087 -0.621854 0
M  V30 1149 H 105.087 -4.02987 2.23468 0
M  V30 1150 H 103.402 -3.71567 1.87955 0
M  V30 1151 H 105.999 -5.33327 -0.38298 0
M  V30 1152 H 106.342 -3.93201 -1.36743 0
M  V30 1153 H 106.875 -3.9642 0.331038 0
M  V30 1154 H 103.614 -6.07685 2.45762 0
M  V30 1155 H 103.134 -5.95097 0.749665 0
M  V30 1156 H 104.813 -6.3616 1.17941 0
M  V30 1157 N 104.945 -0.338344 -1.53925 0
M  V30 1158 C 106.173 0.261298 -2.05243 0
M  V30 1159 C 106.588 1.44625 -1.21363 0
M  V30 1160 O 105.945 1.80811 -0.247736 0
M  V30 1161 C 105.996 0.681412 -3.5502 0
M  V30 1162 O 105.717 -0.456414 -4.35716 0
M  V30 1163 C 107.218 1.34232 -4.22489 0
M  V30 1164 H 104.438 0.0513685 -0.669031 0
M  V30 1165 H 106.982 -0.488822 -1.98572 0
M  V30 1166 H 105.137 1.38148 -3.61931 0
M  V30 1167 H 105.551 -0.122564 -5.24357 0
M  V30 1168 H 107.025 1.58708 -5.28693 0
M  V30 1169 H 107.502 2.29426 -3.74514 0
M  V30 1170 H 108.108 0.684424 -4.19757 0
M  V30 1171 N 106.423 1.57458 -0.0668435 0
M  V30 1172 C 107.353 2.15468 0.899764 0
M  V30 1173 C 108.334 1.08042 1.31381 0
M  V30 1174 O 109.519 1.36054 1.38574 0
M  V30 1175 C 106.649 2.71232 2.16911 0
M  V30 1176 C 105.603 3.83781 1.89463 0
M  V30 1177 C 104.929 4.26127 3.22986 0
M  V30 1178 C 106.229 5.08238 1.20381 0
M  V30 1179 H 107.923 2.96488 0.416529 0
M  V30 1180 H 105.469 1.4262 0.198908 0
M  V30 1181 H 107.422 3.10458 2.84945 0
M  V30 1182 H 106.146 1.87426 2.67468 0
M  V30 1183 H 104.805 3.45051 1.23836 0
M  V30 1184 H 104.453 3.39249 3.71374 0
M  V30 1185 H 104.153 5.01993 3.05413 0
M  V30 1186 H 105.677 4.67966 3.92225 0
M  V30 1187 H 107.091 5.44811 1.78475 0
M  V30 1188 H 105.488 5.89349 1.13083 0
M  V30 1189 H 106.558 4.84558 0.182153 0
M  V30 1190 N 107.901 -0.206675 1.56239 0
M  V30 1191 C 109.131 -0.943975 1.83773 0
M  V30 1192 C 109.539 -1.77841 0.645703 0
M  V30 1193 O 108.882 -1.79403 -0.395008 0
M  V30 1194 C 108.944 -1.899 3.05251 0
M  V30 1195 C 108.608 -1.24764 4.39639 0
M  V30 1196 C 109.605 -0.630216 5.16066 0
M  V30 1197 C 107.29 -1.25496 4.8637 0
M  V30 1198 C 109.284 -0.0287946 6.37393 0
M  V30 1199 C 106.971 -0.649698 6.07637 0
M  V30 1200 C 107.969 -0.0376845 6.8299 0
M  V30 1201 O 107.657 0.55812 8.0196 0
M  V30 1202 H 107.389 -0.281508 0.614597 0
M  V30 1203 H 109.943 -0.222458 2.04192 0
M  V30 1204 H 108.173 -2.6599 2.80689 0
M  V30 1205 H 109.862 -2.5031 3.1953 0
M  V30 1206 H 110.628 -0.616785 4.81062 0
M  V30 1207 H 106.507 -1.72072 4.27683 0
M  V30 1208 H 110.051 0.449518 6.9615 0
M  V30 1209 H 105.948 -0.660592 6.42111 0
M  V30 1210 H 106.716 0.453891 8.17241 0
M  V30 1211 N 109.379 -1.50304 -0.473955 0
M  V30 1212 C 110.628 -1.60392 -1.22301 0
M  V30 1213 C 110.941 -0.308411 -1.93153 0
M  V30 1214 O 112.147 -0.288156 -2.69966 0
M  V30 1215 C 110.603 -2.83109 -2.2221 0
M  V30 1216 C 110.211 -4.19524 -1.57173 0
M  V30 1217 C 111.955 -3.0254 -2.97775 0
M  V30 1218 C 109.862 -5.33431 -2.55353 0
M  V30 1219 H 108.792 -0.597286 -0.460179 0
M  V30 1220 H 111.443 -1.76731 -0.493803 0
M  V30 1221 H 109.825 -2.60322 -2.9841 0
M  V30 1222 H 110.999 -4.52554 -0.867824 0
M  V30 1223 H 109.314 -4.05674 -0.939002 0
M  V30 1224 H 111.911 -3.84811 -3.71248 0
M  V30 1225 H 112.254 -2.14154 -3.56992 0
M  V30 1226 H 112.787 -3.25494 -2.28688 0
M  V30 1227 H 109.526 -6.23962 -2.00878 0
M  V30 1228 H 109.046 -5.04823 -3.23904 0
M  V30 1229 H 110.725 -5.63887 -3.17239 0
M  V30 1230 N 110.857 0.726932 -1.39834 0
M  V30 1231 C 112.082 1.52121 -1.40976 0
M  V30 1232 C 112.507 1.88098 -0.00826029 0
M  V30 1233 O 111.865 1.52479 0.980807 0
M  V30 1234 C 111.913 2.78021 -2.29644 0
M  V30 1235 O 111.017 3.74272 -1.73188 0
M  V30 1236 H 110.358 0.45908 -0.479731 0
M  V30 1237 H 112.888 0.896207 -1.83927 0
M  V30 1238 H 112.898 3.26671 -2.44438 0
M  V30 1239 H 111.573 2.51169 -3.31492 0
M  V30 1240 H 110.15 3.33073 -1.6768 0
M  V30 1241 N 112.336 1.25143 0.95797 0
M  V30 1242 C 113.246 1.06968 2.08794 0
M  V30 1243 C 114.262 0.00773911 1.73998 0
M  V30 1244 O 115.438 0.207972 2.00323 0
M  V30 1245 C 112.503 0.68691 3.39827 0
M  V30 1246 C 111.564 1.82641 3.88511 0
M  V30 1247 C 110.797 1.46181 5.1329 0
M  V30 1248 O 111.02 0.355971 5.69288 0
M  V30 1249 O 109.954 2.29085 5.566 0
M  V30 1250 H 113.78 2.01723 2.27027 0
M  V30 1251 H 111.365 1.04051 1.07209 0
M  V30 1252 H 113.247 0.485417 4.18595 0
M  V30 1253 H 111.922 -0.231417 3.22872 0
M  V30 1254 H 110.829 2.08274 3.10762 0
M  V30 1255 H 112.162 2.72386 4.09959 0
M  V30 1256 N 113.814 -1.1601 1.06675 0
M  V30 1257 C 115.054 -1.88304 0.795037 0
M  V30 1258 C 115.418 -1.80062 -0.666466 0
M  V30 1259 O 116.619 -2.47319 -1.05293 0
M  V30 1260 C 114.89 -3.33664 1.28076 0
M  V30 1261 S 116.449 -4.23768 1.13868 0
M  V30 1262 H 113.267 -0.649928 0.288296 0
M  V30 1263 H 115.869 -1.4001 1.36445 0
M  V30 1264 H 114.573 -3.37203 2.33927 0
M  V30 1265 H 114.104 -3.87009 0.706253 0
M  V30 1266 H 116.119 -4.96148 0.0719668 0
M  V30 1267 N 115.292 -0.849877 -1.32721 0
M  V30 1268 C 116.222 -0.306308 -2.31482 0
M  V30 1269 C 117.203 0.591952 -1.59468 0
M  V30 1270 O 118.388 0.513199 -1.87296 0
M  V30 1271 C 115.518 0.510204 -3.43532 0
M  V30 1272 C 114.472 -0.293209 -4.26994 0
M  V30 1273 C 113.798 0.647743 -5.30762 0
M  V30 1274 C 115.098 -1.51634 -4.99804 0
M  V30 1275 H 116.792 -1.13153 -2.77195 0
M  V30 1276 H 114.338 -0.545553 -1.33266 0
M  V30 1277 H 116.291 0.900856 -4.11658 0
M  V30 1278 H 115.015 1.36874 -2.96535 0
M  V30 1279 H 113.674 -0.665555 -3.60508 0
M  V30 1280 H 113.322 1.50299 -4.8002 0
M  V30 1281 H 113.022 0.11422 -5.87489 0
M  V30 1282 H 114.546 1.03567 -6.01753 0
M  V30 1283 H 115.96 -1.19824 -5.60638 0
M  V30 1284 H 114.357 -1.98745 -5.66234 0
M  V30 1285 H 115.427 -2.28018 -4.27943 0
M  V30 1286 N 116.77 1.45427 -0.607355 0
M  V30 1287 C 117.717 2.3053 0.111625 0
M  V30 1288 C 118.687 1.4209 0.860216 0
M  V30 1289 O 119.872 1.71019 0.845998 0
M  V30 1290 C 117.012 3.26992 1.10319 0
M  V30 1291 C 116.125 4.30535 0.355493 0
M  V30 1292 C 115.26 5.14105 1.33676 0
M  V30 1293 C 114.299 6.09376 0.576862 0
M  V30 1294 N 113.436 6.85727 1.5074 0
M  V30 1295 H 118.276 2.91477 -0.620093 0
M  V30 1296 H 115.813 1.43631 -0.317594 0
M  V30 1297 H 117.771 3.81385 1.6912 0
M  V30 1298 H 116.401 2.67799 1.80232 0
M  V30 1299 H 115.453 3.78805 -0.348023 0
M  V30 1300 H 116.765 4.98235 -0.237423 0
M  V30 1301 H 115.919 5.72897 1.99684 0
M  V30 1302 H 114.658 4.46423 1.9636 0
M  V30 1303 H 113.663 5.49715 -0.0968519 0
M  V30 1304 H 114.888 6.79085 -0.0449341 0
M  V30 1305 H 112.834 6.20735 2.12189 0
M  V30 1306 H 112.751 7.49778 0.967913 0
M  V30 1307 H 114.019 7.4906 2.15706 0
M  V30 1308 N 118.248 0.346503 1.53744 0
M  V30 1309 C 119.195 -0.508914 2.25119 0
M  V30 1310 C 120.165 -1.09315 1.25058 0
M  V30 1311 O 121.35 -1.12921 1.53797 0
M  V30 1312 C 118.49 -1.65246 3.02965 0
M  V30 1313 C 117.603 -1.09525 4.17886 0
M  V30 1314 C 116.738 -2.20634 4.83212 0
M  V30 1315 C 115.777 -1.62279 5.90196 0
M  V30 1316 N 114.914 -2.67143 6.49291 0
M  V30 1317 H 119.754 0.106283 2.9781 0
M  V30 1318 H 117.291 0.0642227 1.4696 0
M  V30 1319 H 119.249 -2.32574 3.4636 0
M  V30 1320 H 117.879 -2.2386 2.32565 0
M  V30 1321 H 116.931 -0.312818 3.79112 0
M  V30 1322 H 118.243 -0.628444 4.94825 0
M  V30 1323 H 117.397 -2.95821 5.29693 0
M  V30 1324 H 116.136 -2.70659 4.05703 0
M  V30 1325 H 115.141 -0.855989 5.43096 0
M  V30 1326 H 116.366 -1.13102 6.69615 0
M  V30 1327 H 114.312 -3.16417 5.74645 0
M  V30 1328 H 114.229 -2.25093 7.21713 0
M  V30 1329 H 115.497 -3.4209 7.00425 0
M  V30 1330 N 119.726 -1.57421 0.075193 0
M  V30 1331 C 120.656 -2.15942 -0.888324 0
M  V30 1332 C 121.637 -1.08737 -1.30806 0
M  V30 1333 O 122.822 -1.36787 -1.37851 0
M  V30 1334 C 119.952 -2.72379 -2.1547 0
M  V30 1335 C 118.906 -3.8478 -1.87425 0
M  V30 1336 C 118.232 -4.27834 -3.20721 0
M  V30 1337 C 119.532 -5.08869 -1.17684 0
M  V30 1338 H 121.226 -2.96705 -0.400799 0
M  V30 1339 H 118.772 -1.42723 -0.191342 0
M  V30 1340 H 120.725 -3.11965 -2.83295 0
M  V30 1341 H 119.449 -1.88841 -2.6647 0
M  V30 1342 H 118.108 -3.45703 -1.22004 0
M  V30 1343 H 117.756 -3.41214 -3.6957 0
M  V30 1344 H 117.456 -5.03605 -3.02746 0
M  V30 1345 H 118.98 -4.70039 -3.89738 0
M  V30 1346 H 120.394 -5.4575 -1.75584 0
M  V30 1347 H 118.791 -5.8994 -1.09956 0
M  V30 1348 H 119.861 -4.84648 -0.156453 0
M  V30 1349 N 121.204 0.198386 -1.56346 0
M  V30 1350 C 122.136 1.26987 -1.90806 0
M  V30 1351 C 123.149 1.41877 -0.798419 0
M  V30 1352 O 124.338 1.42362 -1.07682 0
M  V30 1353 C 121.438 2.64246 -2.12196 0
M  V30 1354 C 120.611 2.71007 -3.43328 0
M  V30 1355 C 119.67 3.89439 -3.5387 0
M  V30 1356 O 118.696 3.76695 -4.26719 0
M  V30 1357 N 119.898 5.04752 -2.86715 0
M  V30 1358 H 122.663 0.977433 -2.83313 0
M  V30 1359 H 120.224 0.388322 -1.57174 0
M  V30 1360 H 122.216 3.41896 -2.1654 0
M  V30 1361 H 120.786 2.85992 -1.26204 0
M  V30 1362 H 120.006 1.79657 -3.50881 0
M  V30 1363 H 121.294 2.72512 -4.29668 0
M  V30 1364 H 120.692 5.18004 -2.2735 0
M  V30 1365 H 119.249 5.8036 -2.96691 0
M  V30 1366 N 122.682 1.50554 0.465978 0
M  V30 1367 C 123.629 1.6979 1.56333 0
M  V30 1368 C 124.599 0.539239 1.57103 0
M  V30 1369 O 125.784 0.770401 1.74555 0
M  V30 1370 C 122.924 1.80273 2.94271 0
M  V30 1371 C 122.037 3.07674 3.0325 0
M  V30 1372 C 121.172 3.08922 4.32135 0
M  V30 1373 C 120.211 4.30755 4.34875 0
M  V30 1374 N 119.348 4.29714 5.55239 0
M  V30 1375 H 124.188 2.63472 1.39235 0
M  V30 1376 H 121.725 1.30602 0.676873 0
M  V30 1377 H 123.683 1.84332 3.74269 0
M  V30 1378 H 122.313 0.900258 3.09992 0
M  V30 1379 H 121.365 3.13062 2.16094 0
M  V30 1380 H 122.677 3.97642 3.01135 0
M  V30 1381 H 121.831 3.11738 5.20485 0
M  V30 1382 H 120.57 2.16792 4.36866 0
M  V30 1383 H 119.575 4.28146 3.44922 0
M  V30 1384 H 120.8 5.24117 4.31831 0
M  V30 1385 H 118.746 3.4044 5.60746 0
M  V30 1386 H 118.663 5.13456 5.54886 0
M  V30 1387 H 119.931 4.36683 6.457 0
M  V30 1388 N 124.16 -0.719506 1.40217 0
M  V30 1389 C 125.4 -1.49181 1.39729 0
M  V30 1390 C 125.764 -1.92 -0.00250614 0
M  V30 1391 O 126.965 -2.68473 -0.132479 0
M  V30 1392 C 125.236 -2.68767 2.35582 0
M  V30 1393 S 126.795 -3.58224 2.53418 0
M  V30 1394 H 123.613 -0.510091 0.495307 0
M  V30 1395 H 126.215 -0.841724 1.76452 0
M  V30 1396 H 124.919 -2.35475 3.36124 0
M  V30 1397 H 124.45 -3.38691 2.0013 0
M  V30 1398 H 126.465 -4.63033 1.78367 0
M  V30 1399 N 125.638 -1.25649 -0.95132 0
M  V30 1400 C 126.586 -1.06118 -2.06982 0
M  V30 1401 C 127.58 0.00889169 -1.69398 0
M  V30 1402 O 128.786 -0.146988 -1.79399 0
M  V30 1403 H 125.161 -0.326248 -0.677544 0
M  V30 1404 H 127.132 -2.00932 -2.2061 0
M  V30 1405 C 125.881 -0.700145 -3.40578 0
M  V30 1406 H 125.204 -1.51537 -3.69968 0
M  V30 1407 H 126.644 -0.603211 -4.19687 0
M  V30 1408 C 125.103 0.59403 -3.31622 0
M  V30 1409 O 125.633 1.63522 -3.66911 0
M  V30 1410 N 123.839 0.58089 -2.84735 0
M  V30 1411 H 123.386 -0.266783 -2.56215 0
M  V30 1412 H 123.344 1.44695 -2.79125 0
M  V30 1413 N 127.117 1.15442 -1.07289 0
M  V30 1414 C 128.342 1.90638 -0.816828 0
M  V30 1415 C 128.767 1.77445 0.624083 0
M  V30 1416 O 128.125 1.10671 1.43602 0
M  V30 1417 C 128.173 3.39008 -1.22906 0
M  V30 1418 O 127.277 4.10701 -0.373975 0
M  V30 1419 H 126.618 0.593555 -0.297638 0
M  V30 1420 H 129.148 1.46198 -1.43134 0
M  V30 1421 H 129.158 3.89801 -1.20497 0
M  V30 1422 H 127.833 3.47929 -2.27856 0
M  V30 1423 H 126.41 3.70046 -0.460499 0
M  V30 1424 N 128.595 0.856903 1.32268 0
M  V30 1425 C 129.542 0.301172 2.28827 0
M  V30 1426 C 130.512 -0.593104 1.5515 0
M  V30 1427 O 131.697 -0.527537 1.83362 0
M  V30 1428 C 128.837 -0.502523 3.41422 0
M  V30 1429 C 127.95 0.417797 4.29975 0
M  V30 1430 C 127.085 -0.398749 5.29701 0
M  V30 1431 C 126.124 0.518827 6.09897 0
M  V30 1432 N 125.261 -0.260674 7.01616 0
M  V30 1433 H 130.101 1.12983 2.75751 0
M  V30 1434 H 127.638 0.568582 1.35667 0
M  V30 1435 H 129.596 -0.984141 4.05426 0
M  V30 1436 H 128.226 -1.29599 2.95642 0
M  V30 1437 H 127.278 1.01781 3.66531 0
M  V30 1438 H 128.59 1.12191 4.86019 0
M  V30 1439 H 127.744 -0.943435 5.9932 0
M  V30 1440 H 126.483 -1.13622 4.7428 0
M  V30 1441 H 125.488 1.07538 5.39181 0
M  V30 1442 H 126.713 1.25495 6.67404 0
M  V30 1443 H 124.659 -0.981198 6.4862 0
M  V30 1444 H 124.576 0.384364 7.55022 0
M  V30 1445 H 125.844 -0.787014 7.75517 0
M  V30 1446 N 130.073 -1.45103 0.615059 0
M  V30 1447 C 131.298 -2.07064 0.117988 0
M  V30 1448 C 131.723 -1.4554 -1.19163 0
M  V30 1449 O 131.081 -0.550855 -1.72729 0
M  V30 1450 C 131.129 -3.606 -0.000288387 0
M  V30 1451 O 130.233 -3.98847 -1.04856 0
M  V30 1452 H 129.574 -0.659467 0.0774581 0
M  V30 1453 H 132.104 -1.86236 0.847186 0
M  V30 1454 H 132.114 -4.07529 -0.196091 0
M  V30 1455 H 130.789 -4.04765 0.955932 0
M  V30 1456 H 129.366 -3.63577 -0.828619 0
M  V30 1457 N 131.551 -0.354651 -1.53558 0
M  V30 1458 C 132.483 0.5315 -2.22952 0
M  V30 1459 C 133.496 1.05503 -1.23988 0
M  V30 1460 O 134.685 0.963279 -1.50277 0
M  V30 1461 C 131.785 1.74538 -2.90499 0
M  V30 1462 C 130.958 1.35524 -4.15875 0
M  V30 1463 C 130.017 2.42999 -4.66731 0
M  V30 1464 O 129.043 2.05844 -5.30676 0
M  V30 1465 N 130.245 3.74423 -4.43608 0
M  V30 1466 H 133.01 -0.0628615 -2.99634 0
M  V30 1467 H 130.571 -0.179302 -1.60904 0
M  V30 1468 H 132.563 2.45892 -3.21433 0
M  V30 1469 H 131.133 2.24686 -2.17336 0
M  V30 1470 H 130.353 0.471998 -3.91364 0
M  V30 1471 H 131.641 1.07071 -4.97406 0
M  V30 1472 H 131.039 4.07391 -3.92491 0
M  V30 1473 H 129.596 4.41913 -4.7912 0
M  V30 1474 N 133.029 1.57378 -0.0835403 0
M  V30 1475 C 134.277 1.93547 0.581718 0
M  V30 1476 C 134.598 0.96524 1.69435 0
M  V30 1477 O 133.868 0.0153369 1.95894 0
M  V30 1478 H 132.448 0.714521 0.217874 0
M  V30 1479 H 135.11 1.94366 -0.144158 0
M  V30 1480 H 134.206 2.95665 0.999423 0
M  V30 1481 N 134.507 -0.190092 1.56449 0
M  V30 1482 C 135.417 -1.25591 1.98152 0
M  V30 1483 C 136.433 -1.49519 0.889944 0
M  V30 1484 O 137.609 -1.62036 1.19609 0
M  V30 1485 C 134.674 -2.57916 2.3169 0
M  V30 1486 C 133.735 -2.42015 3.5458 0
M  V30 1487 C 132.968 -3.6803 3.8651 0
M  V30 1488 O 133.191 -4.72413 3.1966 0
M  V30 1489 O 132.125 -3.6326 4.79923 0
M  V30 1490 H 135.951 -0.931988 2.89046 0
M  V30 1491 H 133.536 -0.395488 1.4407 0
M  V30 1492 H 135.418 -3.36008 2.54316 0
M  V30 1493 H 134.093 -2.89925 1.43963 0
M  V30 1494 H 133 -1.62017 3.37196 0
M  V30 1495 H 134.333 -2.14937 4.4279 0
M  V30 1496 N 135.985 -1.50799 -0.457987 0
M  V30 1497 C 136.932 -1.70617 -1.5543 0
M  V30 1498 C 137.902 -0.547562 -1.56815 0
M  V30 1499 O 139.087 -0.779647 -1.74144 0
M  V30 1500 C 136.227 -1.81831 -2.93311 0
M  V30 1501 C 135.34 -3.09278 -3.01615 0
M  V30 1502 C 134.475 -3.11209 -4.30491 0
M  V30 1503 C 133.514 -4.33055 -4.32585 0
M  V30 1504 N 132.651 -4.32652 -5.52952 0
M  V30 1505 H 137.491 -2.64207 -1.37836 0
M  V30 1506 H 135.028 -1.30959 -0.669937 0
M  V30 1507 H 136.986 -1.86314 -3.73287 0
M  V30 1508 H 135.616 -0.916685 -3.0951 0
M  V30 1509 H 134.668 -3.14203 -2.1443 0
M  V30 1510 H 135.98 -3.99233 -2.99022 0
M  V30 1511 H 135.134 -3.14494 -5.18824 0
M  V30 1512 H 133.873 -2.19106 -4.35711 0
M  V30 1513 H 132.878 -4.29969 -3.42647 0
M  V30 1514 H 134.103 -5.264 -4.29046 0
M  V30 1515 H 132.049 -3.43409 -5.58933 0
M  V30 1516 H 131.966 -5.16392 -5.52155 0
M  V30 1517 H 133.234 -4.40101 -6.43375 0
M  V30 1518 N 137.463 0.71206 -1.40597 0
M  V30 1519 C 138.373 1.8562 -1.43466 0
M  V30 1520 C 139.389 1.70902 -0.326902 0
M  V30 1521 O 140.565 1.93105 -0.572043 0
M  V30 1522 C 137.63 3.21451 -1.29884 0
M  V30 1523 C 136.691 3.48398 -2.50833 0
M  V30 1524 C 135.924 4.77749 -2.3789 0
M  V30 1525 O 136.147 5.53089 -1.39459 0
M  V30 1526 O 135.081 5.05111 -3.27333 0
M  V30 1527 H 138.907 1.86155 -2.39958 0
M  V30 1528 H 136.492 0.86295 -1.21957 0
M  V30 1529 H 138.374 4.02579 -1.24531 0
M  V30 1530 H 137.049 3.21636 -0.364997 0
M  V30 1531 H 135.956 2.67265 -2.61763 0
M  V30 1532 H 137.289 3.53014 -3.4299 0
M  V30 1533 N 138.941 1.26152 0.944643 0
M  V30 1534 C 139.874 1.01729 2.04271 0
M  V30 1535 C 140.852 -0.0568101 1.62501 0
M  V30 1536 O 142.036 0.0848987 1.88309 0
M  V30 1537 C 139.163 0.539792 3.34371 0
M  V30 1538 C 138.209 1.60593 3.9511 0
M  V30 1539 S 139.042 3.19392 4.29825 0
M  V30 1540 C 140.198 2.73402 5.63029 0
M  V30 1541 H 140.431 1.94703 2.24673 0
M  V30 1542 H 137.964 1.09793 1.08558 0
M  V30 1543 H 139.922 0.270956 4.09605 0
M  V30 1544 H 138.583 -0.369609 3.11918 0
M  V30 1545 H 137.776 1.22275 4.88943 0
M  V30 1546 H 137.378 1.82596 3.26397 0
M  V30 1547 H 139.67 2.1765 6.41588 0
M  V30 1548 H 140.613 3.65913 6.06229 0
M  V30 1549 H 141.021 2.13077 5.22741 0
M  V30 1550 N 140.419 -1.14872 1.07899 0
M  V30 1551 C 141.649 -1.89386 0.825631 0
M  V30 1552 C 142.057 -1.78565 -0.625406 0
M  V30 1553 O 141.4 -1.13918 -1.44113 0
M  V30 1554 C 141.462 -3.40206 1.16191 0
M  V30 1555 C 141.126 -3.74812 2.61467 0
M  V30 1556 C 142.123 -3.75367 3.59716 0
M  V30 1557 C 139.808 -4.0495 2.97189 0
M  V30 1558 C 141.802 -4.05574 4.9172 0
M  V30 1559 C 139.489 -4.34821 4.29388 0
M  V30 1560 C 140.487 -4.35116 5.26463 0
M  V30 1561 O 140.175 -4.64267 6.56286 0
M  V30 1562 H 139.907 -0.606894 0.297751 0
M  V30 1563 H 142.461 -1.46438 1.44031 0
M  V30 1564 H 140.691 -3.8358 0.490214 0
M  V30 1565 H 142.38 -3.96018 0.890193 0
M  V30 1566 H 143.146 -3.52176 3.33462 0
M  V30 1567 H 139.025 -4.03876 2.22273 0
M  V30 1568 H 142.569 -4.05719 5.67484 0
M  V30 1569 H 138.466 -4.5748 4.55392 0
M  V30 1570 H 139.234 -4.82007 6.61522 0
M  V30 1571 N 141.898 -0.863906 -1.31812 0
M  V30 1572 C 143.126 -0.486111 -2.01108 0
M  V30 1573 C 143.541 0.919755 -1.64882 0
M  V30 1574 O 142.898 1.60162 -0.874893 0
M  V30 1575 C 142.949 -0.626435 -3.56031 0
M  V30 1576 O 142.67 -1.97693 -3.90959 0
M  V30 1577 C 144.171 -0.248857 -4.42601 0
M  V30 1578 H 141.391 -0.190052 -0.643523 0
M  V30 1579 H 143.935 -1.1634 -1.68182 0
M  V30 1580 H 142.09 0.00322717 -3.874 0
M  V30 1581 H 142.504 -1.98034 -4.85678 0
M  V30 1582 H 143.978 -0.398016 -5.50563 0
M  V30 1583 H 144.455 0.811489 -4.31638 0
M  V30 1584 H 145.061 -0.853971 -4.16638 0
M  V30 1585 N 143.376 1.44774 -0.622745 0
M  V30 1586 C 144.306 2.33382 0.0741861 0
M  V30 1587 C 145.287 1.47719 0.843387 0
M  V30 1588 O 146.472 1.76458 0.810934 0
M  V30 1589 C 143.602 3.30663 1.06204 0
M  V30 1590 C 142.556 4.26079 0.405037 0
M  V30 1591 C 141.882 5.13165 1.5022 0
M  V30 1592 C 143.182 5.1781 -0.683414 0
M  V30 1593 H 144.876 2.91905 -0.665713 0
M  V30 1594 H 142.422 1.40363 -0.321587 0
M  V30 1595 H 144.375 3.9153 1.55827 0
M  V30 1596 H 143.099 2.70331 1.83272 0
M  V30 1597 H 141.758 3.66532 -0.0704683 0
M  V30 1598 H 141.406 4.49191 2.26355 0
M  V30 1599 H 141.106 5.77812 1.06803 0
M  V30 1600 H 142.63 5.76902 2.00041 0
M  V30 1601 H 144.044 5.72661 -0.270631 0
M  V30 1602 H 142.441 5.91015 -1.04023 0
M  V30 1603 H 143.511 4.59326 -1.55395 0
M  V30 1604 N 144.854 0.36279 1.53368 0
M  V30 1605 C 146.102 -0.227326 2.00817 0
M  V30 1606 C 146.423 -1.49511 1.25186 0
M  V30 1607 O 145.693 -1.92482 0.364348 0
M  V30 1608 H 144.273 -0.0869923 0.741917 0
M  V30 1609 H 146.935 0.488381 1.88682 0
M  V30 1610 H 146.031 -0.456273 3.08747 0
M  V30 1611 N 146.332 -1.57332 0.0918853 0
M  V30 1612 C 147.581 -1.93412 -0.572249 0
M  V30 1613 C 147.894 -0.975515 -1.69538 0
M  V30 1614 O 149.1 -1.22991 -2.42045 0
M  V30 1615 C 147.556 -3.43648 -1.0693 0
M  V30 1616 C 147.164 -4.47994 0.0239049 0
M  V30 1617 C 148.908 -3.88695 -1.70635 0
M  V30 1618 C 146.815 -5.89381 -0.488319 0
M  V30 1619 H 145.745 -0.721939 -0.217532 0
M  V30 1620 H 148.396 -1.82735 0.167369 0
M  V30 1621 H 146.778 -3.49466 -1.8625 0
M  V30 1622 H 147.952 -4.53815 0.799277 0
M  V30 1623 H 146.267 -4.12536 0.565946 0
M  V30 1624 H 148.864 -4.91725 -2.10025 0
M  V30 1625 H 149.207 -3.27166 -2.57426 0
M  V30 1626 H 149.74 -3.85564 -0.979023 0
M  V30 1627 H 146.479 -6.54602 0.342906 0
M  V30 1628 H 145.999 -5.87037 -1.23077 0
M  V30 1629 H 147.678 -6.39863 -0.958317 0
M  V30 1630 N 147.81 0.181792 -1.56548 0
M  V30 1631 C 149.038 0.915947 -1.85521 0
M  V30 1632 C 149.453 1.76282 -0.676016 0
M  V30 1633 O 148.81 1.79012 0.355077 0
M  V30 1634 C 148.861 1.80126 -3.13427 0
M  V30 1635 O 148.582 0.988562 -4.26801 0
M  V30 1636 C 150.083 2.64597 -3.55673 0
M  V30 1637 H 147.303 0.26661 -0.61576 0
M  V30 1638 H 149.847 0.185039 -2.03661 0
M  V30 1639 H 148.002 2.48563 -2.97145 0
M  V30 1640 H 148.416 1.59308 -4.99721 0
M  V30 1641 H 149.89 3.2235 -4.48101 0
M  V30 1642 H 150.367 3.38958 -2.79292 0
M  V30 1643 H 150.973 2.0151 -3.74532 0
M  V30 1644 N 149.288 1.51039 0.449983 0
M  V30 1645 C 150.236 1.71995 1.5659 0
M  V30 1646 C 151.23 0.586029 1.5894 0
M  V30 1647 O 152.436 0.76709 1.62837 0
M  V30 1648 H 148.811 0.543233 0.520001 0
M  V30 1649 H 150.782 2.65562 1.36085 0
M  V30 1650 C 149.531 1.8506 2.9436 0
M  V30 1651 H 148.854 2.71712 2.93279 0
M  V30 1652 H 150.294 2.0374 3.71842 0
M  V30 1653 C 148.753 0.607277 3.31382 0
M  V30 1654 O 149.283 -0.243903 4.00959 0
M  V30 1655 N 147.489 0.455073 2.87015 0
M  V30 1656 H 147.036 1.14879 2.30566 0
M  V30 1657 H 146.994 -0.375611 3.12148 0
M  V30 1658 N 150.766 -0.704594 1.40972 0
M  V30 1659 C 152.013 -1.46458 1.39844 0
M  V30 1660 C 152.341 -1.94499 0.00447594 0
M  V30 1661 O 151.596 -1.69275 -0.982057 0
M  V30 1662 C 151.895 -2.698 2.34399 0
M  V30 1663 C 151.561 -2.40464 3.81429 0
M  V30 1664 C 150.223 -2.32174 4.21484 0
M  V30 1665 C 152.575 -2.16086 4.74296 0
M  V30 1666 C 149.903 -1.97589 5.52427 0
M  V30 1667 C 152.255 -1.83011 6.05549 0
M  V30 1668 C 150.919 -1.7321 6.44635 0
M  V30 1669 H 150.189 -0.535927 0.511725 0
M  V30 1670 H 152.836 -0.806124 1.73706 0
M  V30 1671 H 151.141 -3.40536 1.93759 0
M  V30 1672 H 152.838 -3.27919 2.30804 0
M  V30 1673 H 149.428 -2.47808 3.49699 0
M  V30 1674 H 153.612 -2.2144 4.4416 0
M  V30 1675 H 148.868 -1.88547 5.81601 0
M  V30 1676 H 153.042 -1.63164 6.77016 0
M  V30 1677 H 150.669 -1.46179 7.46013 0
M  V30 1678 N 152.244 -1.26651 -0.937939 0
M  V30 1679 C 153.655 -1.1125 -1.49934 0
M  V30 1680 C 154.006 0.306077 -1.93798 0
M  V30 1681 O 153.131 1.19792 -1.80219 0
M  V30 1682 C 153.726 -2.01339 -2.72485 0
M  V30 1683 C 152.285 -1.90074 -3.24883 0
M  V30 1684 C 151.432 -1.94498 -1.97651 0
M  V30 1685 H 154.383 -1.39693 -0.753091 0
M  V30 1686 H 154.404 -1.56319 -3.46907 0
M  V30 1687 H 153.916 -3.04577 -2.40529 0
M  V30 1688 H 152.017 -0.897827 -3.61621 0
M  V30 1689 H 152.13 -2.75778 -3.9177 0
M  V30 1690 H 150.494 -1.38591 -2.13693 0
M  V30 1691 H 151.277 -2.99372 -1.68022 0
M  V30 1692 N 153.722 1.14298 -1.08507 0
M  V30 1693 C 154.971 1.84708 -0.810305 0
M  V30 1694 C 155.284 1.83903 0.666271 0
M  V30 1695 O 156.49 2.50112 1.05624 0
M  V30 1696 C 154.946 3.31572 -1.39957 0
M  V30 1697 C 154.554 3.40791 -2.90801 0
M  V30 1698 C 156.298 4.07087 -1.20334 0
M  V30 1699 C 154.205 4.81872 -3.4286 0
M  V30 1700 H 153.135 0.691985 -0.299454 0
M  V30 1701 H 155.786 1.28841 -1.30661 0
M  V30 1702 H 154.168 3.87183 -0.830976 0
M  V30 1703 H 155.342 2.95225 -3.53806 0
M  V30 1704 H 153.657 2.78732 -3.0935 0
M  V30 1705 H 156.254 5.11225 -1.56693 0
M  V30 1706 H 156.597 4.16054 -0.143237 0
M  V30 1707 H 157.13 3.57779 -1.73893 0
M  V30 1708 H 153.869 4.78094 -4.48449 0
M  V30 1709 H 153.389 5.27972 -2.84615 0
M  V30 1710 H 155.068 5.50765 -3.39509 0
M  V30 1711 N 155.201 0.870884 1.31352 0
M  V30 1712 C 156.612 0.534714 1.78879 0
M  V30 1713 C 156.963 -0.948423 1.71754 0
M  V30 1714 O 156.088 -1.74055 1.28584 0
M  V30 1715 C 156.683 0.963839 3.24801 0
M  V30 1716 C 155.242 0.679311 3.70219 0
M  V30 1717 C 154.389 1.15465 2.52117 0
M  V30 1718 H 157.34 1.05651 1.18421 0
M  V30 1719 H 157.361 0.286892 3.79417 0
M  V30 1720 H 156.873 2.04332 3.29955 0
M  V30 1721 H 154.974 -0.388769 3.70566 0
M  V30 1722 H 155.087 1.25698 4.62317 0
M  V30 1723 H 153.451 0.574383 2.48139 0
M  V30 1724 H 154.234 2.24157 2.60016 0
M  V30 1725 N 156.679 -1.44442 0.630414 0
M  V30 1726 C 157.927 -2.01653 0.134351 0
M  V30 1727 C 158.248 -1.49836 -1.24796 0
M  V30 1728 O 157.518 -0.701684 -1.82902 0
M  V30 1729 H 156.098 -0.74554 0.0466769 0
M  V30 1730 H 158.76 -1.76952 0.816955 0
M  V30 1731 H 157.856 -3.11935 0.101498 0
M  V30 1732 N 158.157 -0.370918 -1.53173 0
M  V30 1733 C 159.067 0.480823 -2.2962 0
M  V30 1734 C 160.083 1.08789 -1.35798 0
M  V30 1735 O 161.259 1.09768 -1.68858 0
M  V30 1736 C 158.324 1.60227 -3.07454 0
M  V30 1737 C 157.385 1.0222 -4.16953 0
M  V30 1738 C 156.618 2.0902 -4.91066 0
M  V30 1739 O 156.841 3.30222 -4.65091 0
M  V30 1740 O 155.775 1.71778 -5.76867 0
M  V30 1741 H 159.601 -0.141421 -3.03371 0
M  V30 1742 H 157.186 -0.135146 -1.48787 0
M  V30 1743 H 159.068 2.25417 -3.56041 0
M  V30 1744 H 157.743 2.20982 -2.36535 0
M  V30 1745 H 156.65 0.334064 -3.72605 0
M  V30 1746 H 157.983 0.459131 -4.90054 0
M  V30 1747 N 159.635 1.57281 -0.100228 0
M  V30 1748 C 161.046 1.81725 0.428107 0
M  V30 1749 C 161.397 1.01619 1.67833 0
M  V30 1750 O 160.522 0.247098 2.14985 0
M  V30 1751 C 161.117 3.29617 0.78347 0
M  V30 1752 C 159.676 3.54808 1.25653 0
M  V30 1753 C 158.823 2.76118 0.255752 0
M  V30 1754 H 161.774 1.55324 -0.325608 0
M  V30 1755 H 161.795 3.4322 1.64256 0
M  V30 1756 H 161.307 3.87893 -0.12665 0
M  V30 1757 H 159.408 3.01868 2.18418 0
M  V30 1758 H 159.521 4.63443 1.21482 0
M  V30 1759 H 157.885 2.43745 0.738956 0
M  V30 1760 H 158.668 3.37145 -0.647136 0
M  V30 1761 N 161.113 -0.173488 1.56642 0
M  V30 1762 C 162.361 -0.888706 1.81512 0
M  V30 1763 C 162.682 -1.82875 0.676872 0
M  V30 1764 O 161.952 -1.93536 -0.303414 0
M  V30 1765 H 160.532 -0.331164 0.669582 0
M  V30 1766 H 163.194 -0.173823 1.94123 0
M  V30 1767 H 162.29 -1.46691 2.75478 0
M  V30 1768 N 162.591 -1.51276 -0.441967 0
M  V30 1769 C 163.838 -1.63715 -1.19179 0
M  V30 1770 C 164.166 -0.351175 -1.91303 0
M  V30 1771 O 163.421 0.664524 -1.84072 0
M  V30 1772 C 163.72 -2.78746 -2.23686 0
M  V30 1773 C 163.386 -4.18189 -1.68607 0
M  V30 1774 C 162.048 -4.56125 -1.53308 0
M  V30 1775 C 164.4 -5.05222 -1.28062 0
M  V30 1776 C 161.728 -5.78804 -0.959317 0
M  V30 1777 C 164.08 -6.28476 -0.721162 0
M  V30 1778 C 162.744 -6.65188 -0.55504 0
M  V30 1779 H 162.014 -0.599076 -0.436106 0
M  V30 1780 H 164.661 -1.85296 -0.48351 0
M  V30 1781 H 162.966 -2.51369 -3.00535 0
M  V30 1782 H 164.663 -2.8557 -2.81515 0
M  V30 1783 H 161.253 -3.88277 -1.8149 0
M  V30 1784 H 165.437 -4.76524 -1.38704 0
M  V30 1785 H 160.693 -6.05899 -0.81833 0
M  V30 1786 H 164.867 -6.95259 -0.398458 0
M  V30 1787 H 162.494 -7.60123 -0.108311 0
M  V30 1788 N 164.069 0.697108 -1.41344 0
M  V30 1789 C 165.48 1.27697 -1.36199 0
M  V30 1790 C 165.831 1.9615 -0.0443463 0
M  V30 1791 O 164.956 1.98689 0.857419 0
M  V30 1792 C 165.551 2.32223 -2.46694 0
M  V30 1793 C 164.11 2.8579 -2.44952 0
M  V30 1794 C 163.257 1.59807 -2.26621 0
M  V30 1795 H 166.208 0.491968 -1.50882 0
M  V30 1796 H 166.229 3.1348 -2.15664 0
M  V30 1797 H 165.741 1.82373 -3.42581 0
M  V30 1798 H 163.842 3.3982 -1.52817 0
M  V30 1799 H 163.955 3.36325 -3.41207 0
M  V30 1800 H 162.319 1.8556 -1.7447 0
M  V30 1801 H 163.102 1.11956 -3.24532 0
M  V30 1802 N 165.547 1.27147 0.931209 0
M  V30 1803 C 166.477 1.12081 2.04842 0
M  V30 1804 C 167.458 0.0232364 1.70084 0
M  V30 1805 O 168.643 0.197085 1.93197 0
M  V30 1806 C 165.773 0.76354 3.38803 0
M  V30 1807 C 164.727 1.81396 3.87659 0
M  V30 1808 C 164.053 1.31075 5.18385 0
M  V30 1809 C 165.353 3.21739 4.11438 0
M  V30 1810 H 167.047 2.05537 2.17703 0
M  V30 1811 H 164.593 0.989603 1.04608 0
M  V30 1812 H 166.546 0.644982 4.16435 0
M  V30 1813 H 165.27 -0.206727 3.25945 0
M  V30 1814 H 163.929 1.92136 3.12217 0
M  V30 1815 H 163.577 0.330037 5.01916 0
M  V30 1816 H 163.277 2.013 5.52044 0
M  V30 1817 H 164.801 1.20506 5.98591 0
M  V30 1818 H 166.215 3.14019 4.79651 0
M  V30 1819 H 164.612 3.89644 4.56397 0
M  V30 1820 H 165.682 3.67054 3.16859 0
M  V30 1821 N 167.025 -1.13721 1.09112 0
M  V30 1822 C 167.973 -2.21103 0.722219 0
M  V30 1823 C 168.967 -1.67147 -0.275374 0
M  V30 1824 O 170.173 -1.79477 -0.137176 0
M  V30 1825 H 166.548 -0.720445 0.215553 0
M  V30 1826 H 168.519 -2.49483 1.63709 0
M  V30 1827 C 167.268 -3.47352 0.15543 0
M  V30 1828 H 166.591 -3.89206 0.914246 0
M  V30 1829 H 168.031 -4.2395 -0.0647967 0
M  V30 1830 C 166.49 -3.1814 -1.10852 0
M  V30 1831 O 167.02 -3.36604 -2.19227 0
M  V30 1832 N 165.226 -2.72045 -1.02176 0
M  V30 1833 H 164.773 -2.57221 -0.139764 0
M  V30 1834 H 164.731 -2.52875 -1.8682 0
M  V30 1835 N 168.503 -0.877838 -1.30888 0
M  V30 1836 C 169.466 -0.344265 -2.266 0
M  V30 1837 C 170.466 0.50922 -1.52524 0
M  V30 1838 O 171.656 0.317398 -1.71284 0
M  V30 1839 C 168.788 0.510198 -3.37061 0
M  V30 1840 H 169.981 -1.1893 -2.7531 0
M  V30 1841 H 167.534 -0.654088 -1.41956 0
M  V30 1842 H 168.269 1.37612 -2.93655 0
M  V30 1843 H 168.054 -0.101047 -3.9197 0
M  V30 1844 H 169.544 0.875537 -4.08319 0
M  V30 1845 N 169.982 1.44106 -0.638065 0
M  V30 1846 C 171.231 2.01194 -0.142744 0
M  V30 1847 C 171.544 1.50835 1.24532 0
M  V30 1848 O 172.75 2.00096 1.83504 0
M  V30 1849 C 171.206 3.59319 -0.20442 0
M  V30 1850 C 170.814 4.18674 -1.59423 0
M  V30 1851 C 172.558 4.23854 0.234079 0
M  V30 1852 C 170.465 5.69045 -1.61065 0
M  V30 1853 H 169.395 0.752367 -0.0495998 0
M  V30 1854 H 172.046 1.65246 -0.797881 0
M  V30 1855 H 170.428 3.92598 0.517946 0
M  V30 1856 H 171.602 3.96921 -2.34074 0
M  V30 1857 H 169.917 3.66453 -1.97741 0
M  V30 1858 H 172.514 5.34155 0.241443 0
M  V30 1859 H 172.857 3.96688 1.2627 0
M  V30 1860 H 173.39 3.95403 -0.436025 0
M  V30 1861 H 170.129 6.00956 -2.61787 0
M  V30 1862 H 169.649 5.929 -0.90718 0
M  V30 1863 H 171.328 6.32809 -1.34766 0
M  V30 1864 N 171.46 0.379036 1.52974 0
M  V30 1865 C 172.69 -0.20649 2.05566 0
M  V30 1866 C 173.098 -1.41906 1.25137 0
M  V30 1867 O 172.441 -1.81421 0.288464 0
M  V30 1868 C 172.503 -0.651086 3.53555 0
M  V30 1869 C 172.167 0.446626 4.54812 0
M  V30 1870 C 173.164 1.30079 5.03364 0
M  V30 1871 C 170.849 0.610719 4.98573 0
M  V30 1872 C 172.843 2.30426 5.94292 0
M  V30 1873 C 170.53 1.61754 5.89304 0
M  V30 1874 C 171.528 2.46274 6.37054 0
M  V30 1875 O 171.216 3.45237 7.25994 0
M  V30 1876 H 170.948 -0.0372381 0.674974 0
M  V30 1877 H 173.502 0.539718 1.98182 0
M  V30 1878 H 171.732 -1.44911 3.58522 0
M  V30 1879 H 173.421 -1.16112 3.88938 0
M  V30 1880 H 174.187 1.18527 4.70294 0
M  V30 1881 H 170.066 -0.0374044 4.60985 0
M  V30 1882 H 173.61 2.96432 6.31485 0
M  V30 1883 H 169.507 1.73348 6.21788 0
M  V30 1884 H 170.275 3.41124 7.44027 0
M  V30 1885 N 172.938 -1.57226 0.108567 0
M  V30 1886 C 173.901 -2.13602 -0.831082 0
M  V30 1887 C 174.901 -1.06841 -1.20173 0
M  V30 1888 O 176.091 -1.32666 -1.12895 0
M  V30 1889 C 173.223 -2.66769 -2.12243 0
M  V30 1890 H 174.416 -2.97951 -0.341317 0
M  V30 1891 H 171.969 -1.55667 -0.14057 0
M  V30 1892 H 172.704 -1.85977 -2.65675 0
M  V30 1893 H 172.489 -3.44839 -1.86625 0
M  V30 1894 H 173.979 -3.10332 -2.79435 0
M  V30 1895 N 174.416 0.165178 -1.56732 0
M  V30 1896 C 175.363 1.2044 -1.96883 0
M  V30 1897 C 176.333 1.43664 -0.833657 0
M  V30 1898 O 177.518 1.56302 -1.09427 0
M  V30 1899 C 174.658 2.53727 -2.33916 0
M  V30 1900 C 173.771 2.3783 -3.6064 0
M  V30 1901 C 172.906 3.64026 -3.86857 0
M  V30 1902 C 171.945 3.43088 -5.06909 0
M  V30 1903 N 171.082 4.61369 -5.29229 0
M  V30 1904 H 175.922 0.854996 -2.85471 0
M  V30 1905 H 173.459 0.41076 -1.41249 0
M  V30 1906 H 175.417 3.31419 -2.53411 0
M  V30 1907 H 174.047 2.8665 -1.48431 0
M  V30 1908 H 173.099 1.51282 -3.49024 0
M  V30 1909 H 174.411 2.18308 -4.4849 0
M  V30 1910 H 173.565 4.50152 -4.06753 0
M  V30 1911 H 172.304 3.86533 -2.97394 0
M  V30 1912 H 171.309 2.55349 -4.86906 0
M  V30 1913 H 172.534 3.21997 -5.97909 0
M  V30 1914 H 170.48 4.84084 -4.42718 0
M  V30 1915 H 170.397 4.44783 -6.11313 0
M  V30 1916 H 171.665 5.48761 -5.53608 0
M  V30 1917 N 175.894 1.51508 0.433938 0
M  V30 1918 C 177.305 1.56784 1.01369 0
M  V30 1919 C 177.656 0.393349 1.92217 0
M  V30 1920 O 176.781 -0.489441 2.10792 0
M  V30 1921 C 177.376 2.84144 1.8452 0
M  V30 1922 C 175.935 2.9198 2.37539 0
M  V30 1923 C 175.082 2.51482 1.16843 0
M  V30 1924 H 178.033 1.57236 0.215081 0
M  V30 1925 H 178.054 2.68098 2.70007 0
M  V30 1926 H 177.566 3.69607 1.18373 0
M  V30 1927 H 175.667 2.10955 3.0713 0
M  V30 1928 H 175.78 3.95704 2.70103 0
M  V30 1929 H 174.144 2.04758 1.51481 0
M  V30 1930 H 174.927 3.39293 0.523015 0
M  V30 1931 N 177.372 -0.689602 1.41712 0
M  V30 1932 C 178.335 -1.78521 1.43746 0
M  V30 1933 C 179.335 -1.57436 0.327191 0
M  V30 1934 O 180.525 -1.64 0.587348 0
M  V30 1935 C 177.657 -3.16971 1.25467 0
M  V30 1936 H 178.85 -1.78108 2.41283 0
M  V30 1937 H 176.403 -0.89781 1.27942 0
M  V30 1938 H 177.138 -3.23019 0.287948 0
M  V30 1939 H 176.923 -3.33678 2.05917 0
M  V30 1940 H 178.413 -3.96935 1.2974 0
M  V30 1941 N 178.85 -1.27639 -0.924453 0
M  V30 1942 C 179.798 -1.10485 -2.04685 0
M  V30 1943 C 180.792 -0.0270421 -1.69378 0
M  V30 1944 O 181.998 -0.185008 -1.79047 0
M  V30 1945 H 178.373 -0.340546 -0.670472 0
M  V30 1946 H 180.344 -2.05566 -2.16298 0
M  V30 1947 C 179.093 -0.772229 -3.39016 0
M  V30 1948 H 178.416 -1.59351 -3.66671 0
M  V30 1949 H 179.856 -0.692097 -4.18313 0
M  V30 1950 C 178.315 0.523554 -3.32807 0
M  V30 1951 O 178.845 1.55702 -3.70297 0
M  V30 1952 N 177.051 0.520363 -2.85903 0
M  V30 1953 H 176.598 -0.32107 -2.55591 0
M  V30 1954 H 176.556 1.38742 -2.82131 0
M  V30 1955 N 180.328 1.1314 -1.09713 0
M  V30 1956 C 181.275 2.18642 -0.739196 0
M  V30 1957 C 182.245 1.63706 0.280978 0
M  V30 1958 O 183.43 1.90111 0.161946 0
M  V30 1959 C 180.57 3.44685 -0.169102 0
M  V30 1960 C 179.683 4.13711 -1.24367 0
M  V30 1961 C 178.818 5.27379 -0.636019 0
M  V30 1962 C 177.857 5.88259 -1.69169 0
M  V30 1963 N 176.994 6.93352 -1.10485 0
M  V30 1964 H 181.834 2.48607 -1.64312 0
M  V30 1965 H 179.371 1.22066 -0.820875 0
M  V30 1966 H 181.329 4.16815 0.179256 0
M  V30 1967 H 179.959 3.15161 0.698079 0
M  V30 1968 H 179.011 3.39835 -1.70927 0
M  V30 1969 H 180.323 4.55037 -2.04311 0
M  V30 1970 H 179.477 6.06238 -0.236677 0
M  V30 1971 H 178.216 4.8731 0.194928 0
M  V30 1972 H 177.221 5.08092 -2.10055 0
M  V30 1973 H 178.446 6.30399 -2.52536 0
M  V30 1974 H 176.392 6.55335 -0.295234 0
M  V30 1975 H 176.309 7.33236 -1.84121 0
M  V30 1976 H 177.577 7.76057 -0.73181 0
M  V30 1977 N 181.806 0.884767 1.30421 0
M  V30 1978 C 182.738 0.308655 2.27112 0
M  V30 1979 C 183.751 -0.536655 1.53701 0
M  V30 1980 O 184.94 -0.35624 1.74909 0
M  V30 1981 C 182.04 -0.579782 3.33904 0
M  V30 1982 C 181.213 0.236417 4.36761 0
M  V30 1983 C 180.272 -0.582482 5.22966 0
M  V30 1984 O 179.298 -0.00525502 5.692 0
M  V30 1985 N 180.5 -1.89163 5.48815 0
M  V30 1986 H 183.265 1.13964 2.77186 0
M  V30 1987 H 180.826 0.747731 1.43599 0
M  V30 1988 H 182.818 -1.13366 3.88497 0
M  V30 1989 H 181.388 -1.31144 2.83761 0
M  V30 1990 H 180.608 0.97174 3.82035 0
M  V30 1991 H 181.896 0.795924 5.02536 0
M  V30 1992 H 181.294 -2.38352 5.13035 0
M  V30 1993 H 179.851 -2.39296 6.06284 0
M  V30 1994 N 183.284 -1.43765 0.645699 0
M  V30 1995 C 184.194 -2.34544 -0.0512957 0
M  V30 1996 C 185.21 -1.53455 -0.82022 0
M  V30 1997 O 186.386 -1.86133 -0.769176 0
M  V30 1998 C 183.451 -3.31636 -1.01087 0
M  V30 1999 C 182.512 -4.2863 -0.239712 0
M  V30 2000 C 181.745 -5.21084 -1.15358 0
M  V30 2001 O 181.968 -5.1779 -2.39269 0
M  V30 2002 O 180.902 -5.98593 -0.630038 0
M  V30 2003 H 184.728 -2.95624 0.695718 0
M  V30 2004 H 182.313 -1.43781 0.405882 0
M  V30 2005 H 184.195 -3.9136 -1.56254 0
M  V30 2006 H 182.87 -2.73069 -1.73824 0
M  V30 2007 H 181.777 -3.72408 0.355356 0
M  V30 2008 H 183.11 -4.90157 0.447936 0
M  V30 2009 N 184.763 -0.387143 -1.52771 0
M  V30 2010 C 186.04 0.253197 -1.93954 0
M  V30 2011 C 186.42 1.64545 -1.32243 0
M  V30 2012 O 185.768 2.23191 -0.489699 0
M  V30 2013 C 185.978 0.281722 -3.47861 0
M  V30 2014 C 187.326 0.511715 -4.21505 0
M  V30 2015 O 188.35 0.362023 -3.54356 0
M  V30 2016 O 187.209 0.804847 -5.40541 0
M  V30 2017 H 184.303 0.156845 -0.811991 0
M  V30 2018 H 186.849 -0.441494 -1.63856 0
M  V30 2019 H 185.621 -0.693571 -3.85104 0
M  V30 2020 H 185.244 1.02142 -3.84256 0
M  V30 2021 N 186.241 1.57166 -0.116904 0
M  V30 2022 C 187.151 2.18745 0.847812 0
M  V30 2023 C 188.167 1.163 1.29423 0
M  V30 2024 O 189.343 1.48761 1.35765 0
M  V30 2025 C 186.408 2.77307 2.0809 0
M  V30 2026 C 185.469 3.94781 1.68661 0
M  V30 2027 C 184.702 4.50541 2.86091 0
M  V30 2028 O 184.925 4.05202 4.01456 0
M  V30 2029 O 183.859 5.41256 2.63298 0
M  V30 2030 H 187.685 3.01632 0.353778 0
M  V30 2031 H 185.27 1.49005 0.108599 0
M  V30 2032 H 187.152 3.14647 2.80313 0
M  V30 2033 H 185.827 1.97452 2.56504 0
M  V30 2034 H 184.734 3.62214 0.935518 0
M  V30 2035 H 186.067 4.76065 1.24991 0
M  V30 2036 N 187.719 -0.156864 1.56817 0
M  V30 2037 C 188.965 -0.872416 1.83076 0
M  V30 2038 C 189.298 -1.81261 0.697001 0
M  V30 2039 O 188.573 -1.92171 -0.30008 0
M  V30 2040 C 188.856 -1.65551 3.19789 0
M  V30 2041 C 188.709 -0.737467 4.43713 0
M  V30 2042 C 190.028 -2.62012 3.53606 0
M  V30 2043 H 187.147 -0.315715 0.665953 0
M  V30 2044 H 189.789 -0.138004 1.89498 0
M  V30 2045 H 187.939 -2.28159 3.14445 0
M  V30 2046 H 189.611 -0.123143 4.61136 0
M  V30 2047 H 187.854 -0.0464067 4.33775 0
M  V30 2048 H 188.525 -1.32122 5.35955 0
M  V30 2049 H 191.001 -2.09525 3.59497 0
M  V30 2050 H 189.877 -3.13861 4.50314 0
M  V30 2051 H 190.138 -3.42902 2.79053 0
M  V30 2052 N 189.197 -1.51736 -0.425897 0
M  V30 2053 C 190.13 -1.68574 -1.53812 0
M  V30 2054 C 191.108 -0.53328 -1.53606 0
M  V30 2055 O 192.292 -0.758555 -1.72564 0
M  V30 2056 C 189.419 -1.70977 -2.92377 0
M  V30 2057 C 188.465 -2.92324 -3.10563 0
M  V30 2058 S 189.298 -4.52952 -2.85648 0
M  V30 2059 C 190.454 -4.58117 -4.26474 0
M  V30 2060 H 190.687 -2.62647 -1.39298 0
M  V30 2061 H 188.22 -1.41564 -0.616361 0
M  V30 2062 H 190.178 -1.73047 -3.72243 0
M  V30 2063 H 188.839 -0.78061 -3.04245 0
M  V30 2064 H 188.032 -2.90439 -4.11899 0
M  V30 2065 H 187.634 -2.88055 -2.38538 0
M  V30 2066 H 189.926 -4.34462 -5.19855 0
M  V30 2067 H 190.869 -5.59983 -4.33388 0
M  V30 2068 H 191.277 -3.8732 -4.10662 0
M  V30 2069 N 190.675 0.682077 -1.42076 0
M  V30 2070 C 192.091 0.994324 -1.24841 0
M  V30 2071 C 192.291 2.0096 -0.147389 0
M  V30 2072 O 191.347 2.47822 0.483782 0
M  V30 2073 C 192.66 1.50607 -2.60265 0
M  V30 2074 C 194.208 1.62421 -2.6756 0
M  V30 2075 C 194.683 2.16994 -4.03333 0
M  V30 2076 N 196.174 2.24337 -4.0525 0
M  V30 2077 C 196.909 2.67621 -5.07116 0
M  V30 2078 N 196.405 3.1041 -6.19368 0
M  V30 2079 N 198.198 2.67305 -4.94474 0
M  V30 2080 H 190.349 0.00973908 -2.12398 0
M  V30 2081 H 192.612 0.0668593 -0.945639 0
M  V30 2082 H 192.318 0.834583 -3.41654 0
M  V30 2083 H 192.192 2.48602 -2.83684 0
M  V30 2084 H 194.579 2.28678 -1.86521 0
M  V30 2085 H 194.66 0.629352 -2.47937 0
M  V30 2086 H 194.304 1.51349 -4.84826 0
M  V30 2087 H 194.234 3.17258 -4.20304 0
M  V30 2088 H 196.725 1.94158 -3.24209 0
M  V30 2089 H 197.038 3.42103 -6.92954 0
M  V30 2090 H 195.383 3.08286 -6.22884 0
M  V30 2091 H 198.574 2.33233 -4.05857 0
M  V30 2092 H 198.747 3.00718 -5.73997 0
M  V30 2093 N 192.153 1.28127 0.917671 0
M  V30 2094 C 193.116 1.11744 2.00115 0
M  V30 2095 C 194.116 0.0583052 1.60694 0
M  V30 2096 O 195.306 0.303755 1.71531 0
M  V30 2097 C 192.438 0.704862 3.33533 0
M  V30 2098 H 193.631 2.07966 2.16079 0
M  V30 2099 H 191.184 1.11058 1.09981 0
M  V30 2100 H 191.919 -0.258299 3.2327 0
M  V30 2101 H 191.704 1.4699 3.63505 0
M  V30 2102 H 193.194 0.612768 4.1308 0
M  V30 2103 N 193.631 -1.12557 1.10312 0
M  V30 2104 C 194.861 -1.87592 0.865617 0
M  V30 2105 C 195.269 -1.79851 -0.587389 0
M  V30 2106 O 194.612 -1.16949 -1.41664 0
M  V30 2107 C 194.674 -3.37665 1.23381 0
M  V30 2108 C 194.338 -3.69181 2.69359 0
M  V30 2109 C 195.335 -3.67652 3.67597 0
M  V30 2110 C 193.02 -3.98555 3.05711 0
M  V30 2111 C 195.014 -3.95053 5.00212 0
M  V30 2112 C 192.701 -4.25616 4.38514 0
M  V30 2113 C 193.699 -4.23851 5.35574 0
M  V30 2114 O 193.387 -4.50242 6.65986 0
M  V30 2115 H 193.119 -0.600442 0.310557 0
M  V30 2116 H 195.673 -1.4335 1.47105 0
M  V30 2117 H 193.903 -3.82454 0.571467 0
M  V30 2118 H 195.592 -3.94041 0.973994 0
M  V30 2119 H 196.358 -3.45024 3.40857 0
M  V30 2120 H 192.237 -3.99071 2.30789 0
M  V30 2121 H 195.781 -3.93591 5.75962 0
M  V30 2122 H 191.678 -4.47718 4.64994 0
M  V30 2123 H 192.446 -4.67867 6.71597 0
M  V30 2124 N 195.109 -0.891671 -1.2995 0
M  V30 2125 C 196.039 -0.379797 -2.30391 0
M  V30 2126 C 197.02 0.540919 -1.6127 0
M  V30 2127 O 198.205 0.453352 -1.88834 0
M  V30 2128 C 195.335 0.400654 -3.44981 0
M  V30 2129 C 194.289 -0.428905 -4.25846 0
M  V30 2130 C 193.615 0.478557 -5.32554 0
M  V30 2131 C 194.915 -1.67458 -4.94727 0
M  V30 2132 H 196.609 -1.21914 -2.73454 0
M  V30 2133 H 194.155 -0.587675 -1.31462 0
M  V30 2134 H 196.108 0.769434 -4.14316 0
M  V30 2135 H 194.832 1.27371 -3.0074 0
M  V30 2136 H 193.491 -0.779911 -3.58208 0
M  V30 2137 H 193.139 1.34951 -4.84559 0
M  V30 2138 H 192.839 -0.0727433 -5.87555 0
M  V30 2139 H 194.363 0.843705 -6.04743 0
M  V30 2140 H 195.777 -1.376 -5.56542 0
M  V30 2141 H 194.174 -2.16659 -5.59624 0
M  V30 2142 H 195.244 -2.41518 -4.20473 0
M  V30 2143 N 196.587 1.43421 -0.653314 0
M  V30 2144 C 197.519 2.29071 0.0769134 0
M  V30 2145 C 198.532 1.42513 0.787017 0
M  V30 2146 O 199.721 1.66449 0.644757 0
M  V30 2147 C 196.821 3.19436 1.13199 0
M  V30 2148 C 195.994 4.34533 0.500006 0
M  V30 2149 C 195.053 5.05771 1.45198 0
M  V30 2150 O 194.079 5.61037 0.960538 0
M  V30 2151 N 195.281 5.0928 2.78594 0
M  V30 2152 H 198.046 2.92382 -0.658235 0
M  V30 2153 H 195.607 1.54112 -0.496104 0
M  V30 2154 H 197.599 3.63958 1.76964 0
M  V30 2155 H 196.169 2.57724 1.7691 0
M  V30 2156 H 195.389 3.92925 -0.316738 0
M  V30 2157 H 196.677 5.08766 0.0588345 0
M  V30 2158 H 196.075 4.65751 3.2108 0
M  V30 2159 H 194.632 5.57519 3.37662 0
M  V30 2160 N 198.065 0.39524 1.52563 0
M  V30 2161 C 198.997 -0.472201 2.24283 0
M  V30 2162 C 200.01 -1.02178 1.26742 0
M  V30 2163 O 201.199 -0.923097 1.52778 0
M  V30 2164 C 198.299 -1.66775 2.95024 0
M  V30 2165 C 197.472 -1.2445 4.19322 0
M  V30 2166 C 196.531 -2.30539 4.7301 0
M  V30 2167 O 195.557 -1.91702 5.35947 0
M  V30 2168 N 196.759 -3.6253 4.53379 0
M  V30 2169 H 199.524 0.142282 2.99362 0
M  V30 2170 H 197.085 0.2219 1.60372 0
M  V30 2171 H 199.077 -2.37283 3.27839 0
M  V30 2172 H 197.647 -2.18845 2.23217 0
M  V30 2173 H 196.867 -0.368069 3.92478 0
M  V30 2174 H 198.155 -0.938457 5.0007 0
M  V30 2175 H 197.553 -3.96841 4.03154 0
M  V30 2176 H 196.11 -4.29055 4.90668 0
M  V30 2177 N 199.544 -1.57102 0.125237 0
M  V30 2178 C 200.474 -2.18659 -0.819174 0
M  V30 2179 C 201.455 -1.12843 -1.27281 0
M  V30 2180 O 202.64 -1.41104 -1.33429 0
M  V30 2181 C 199.77 -2.79096 -2.06695 0
M  V30 2182 C 198.724 -3.90548 -1.75088 0
M  V30 2183 C 198.05 -4.37821 -3.06948 0
M  V30 2184 C 199.35 -5.12356 -1.01435 0
M  V30 2185 H 201.044 -2.9783 -0.306202 0
M  V30 2186 H 198.59 -1.4326 -0.145839 0
M  V30 2187 H 200.543 -3.2082 -2.73226 0
M  V30 2188 H 199.267 -1.97223 -2.60328 0
M  V30 2189 H 197.926 -3.49409 -1.10944 0
M  V30 2190 H 197.574 -3.52799 -3.58527 0
M  V30 2191 H 197.274 -5.12982 -2.86571 0
M  V30 2192 H 198.798 -4.822 -3.74587 0
M  V30 2193 H 200.212 -5.5106 -1.58132 0
M  V30 2194 H 198.609 -5.9314 -0.911319 0
M  V30 2195 H 199.679 -4.849 -0.00218681 0
M  V30 2196 N 201.022 0.148545 -1.56898 0
M  V30 2197 C 202.438 0.501131 -1.51528 0
M  V30 2198 C 202.638 1.83458 -0.833399 0
M  V30 2199 O 201.694 2.49259 -0.40328 0
M  V30 2200 C 203.007 0.512864 -2.96294 0
M  V30 2201 C 204.555 0.598487 -3.07225 0
M  V30 2202 C 205.03 0.640897 -4.53494 0
M  V30 2203 N 206.521 0.703163 -4.57832 0
M  V30 2204 C 207.256 0.756935 -5.68382 0
M  V30 2205 N 206.752 0.770147 -6.88506 0
M  V30 2206 N 208.545 0.797698 -5.56411 0
M  V30 2207 H 200.696 -0.725532 -1.99624 0
M  V30 2208 H 202.959 -0.264358 -0.910395 0
M  V30 2209 H 202.665 -0.398691 -3.49433 0
M  V30 2210 H 202.539 1.35133 -3.52163 0
M  V30 2211 H 204.926 1.50046 -2.54106 0
M  V30 2212 H 205.007 -0.267093 -2.54402 0
M  V30 2213 H 204.651 -0.256915 -5.0725 0
M  V30 2214 H 204.581 1.52295 -5.04097 0
M  V30 2215 H 207.072 0.700314 -3.71354 0
M  V30 2216 H 207.385 0.812983 -7.68512 0
M  V30 2217 H 205.73 0.738049 -6.9107 0
M  V30 2218 H 208.921 0.784535 -4.61479 0
M  V30 2219 H 209.094 0.83614 -6.42583 0
M  V30 2220 N 202.5 1.5196 0.417844 0
M  V30 2221 C 203.432 1.70895 1.52733 0
M  V30 2222 C 204.445 0.589405 1.51756 0
M  V30 2223 O 205.634 0.864312 1.56179 0
M  V30 2224 C 202.734 1.72627 2.91639 0
M  V30 2225 C 201.907 3.01479 3.16905 0
M  V30 2226 C 200.966 2.95139 4.35637 0
M  V30 2227 O 199.992 3.69059 4.3334 0
M  V30 2228 N 201.194 2.12328 5.40275 0
M  V30 2229 H 203.959 2.66612 1.36888 0
M  V30 2230 H 201.52 1.50089 0.607037 0
M  V30 2231 H 203.512 1.65928 3.6912 0
M  V30 2232 H 202.082 0.844216 3.00985 0
M  V30 2233 H 201.302 3.21895 2.27546 0
M  V30 2234 H 202.59 3.86736 3.30625 0
M  V30 2235 H 201.988 1.51685 5.44985 0
M  V30 2236 H 200.545 2.11494 6.16534 0
M  V30 2237 N 203.978 -0.674533 1.42435 0
M  V30 2238 C 204.888 -1.81751 1.48337 0
M  V30 2239 C 205.904 -1.69975 0.372099 0
M  V30 2240 O 207.08 -1.91521 0.62304 0
M  V30 2241 C 204.145 -3.17895 1.38361 0
M  V30 2242 C 203.206 -3.41625 2.59982 0
M  V30 2243 C 202.439 -4.71274 2.50473 0
M  V30 2244 O 202.662 -5.49197 1.54075 0
M  V30 2245 O 201.596 -4.96254 3.4061 0
M  V30 2246 H 205.422 -1.79728 2.44809 0
M  V30 2247 H 203.007 -0.830312 1.24202 0
M  V30 2248 H 204.889 -3.99136 1.35161 0
M  V30 2249 H 203.564 -3.20555 0.450144 0
M  V30 2250 H 202.471 -2.60231 2.68757 0
M  V30 2251 H 203.804 -3.43796 3.52229 0
M  V30 2252 N 205.456 -1.28612 -0.910864 0
M  V30 2253 C 206.684 -1.18792 -1.69399 0
M  V30 2254 C 207.099 0.253039 -1.87097 0
M  V30 2255 O 206.456 1.17071 -1.40003 0
M  V30 2256 C 206.507 -1.88511 -3.08457 0
M  V30 2257 O 206.228 -3.26979 -2.91576 0
M  V30 2258 C 207.729 -1.85029 -4.02839 0
M  V30 2259 H 204.949 -0.412233 -0.529438 0
M  V30 2260 H 207.493 -1.69788 -1.13984 0
M  V30 2261 H 205.648 -1.41379 -3.60681 0
M  V30 2262 H 206.062 -3.61936 -3.79608 0
M  V30 2263 H 207.536 -2.38395 -4.97867 0
M  V30 2264 H 208.013 -0.823303 -4.31414 0
M  V30 2265 H 208.619 -2.31853 -3.56545 0
M  V30 2266 N 206.934 1.1197 -1.10907 0
M  V30 2267 C 208.182 1.83225 -0.852819 0
M  V30 2268 C 208.503 1.84769 0.623341 0
M  V30 2269 O 207.773 1.3143 1.45269 0
M  V30 2270 H 206.353 0.67849 -0.312507 0
M  V30 2271 H 209.015 1.3556 -1.40033 0
M  V30 2272 H 208.111 2.87265 -1.22005 0
M  V30 2273 N 208.412 0.89855 1.29475 0
M  V30 2274 C 209.342 0.39201 2.30186 0
M  V30 2275 C 210.323 -0.532359 1.61555 0
M  V30 2276 O 211.508 -0.443331 1.89072 0
M  V30 2277 C 208.638 -0.382353 3.45189 0
M  V30 2278 C 207.592 0.451483 4.25612 0
M  V30 2279 C 206.918 -0.450307 5.328 0
M  V30 2280 C 208.218 1.70079 4.93832 0
M  V30 2281 H 209.912 1.23362 2.72804 0
M  V30 2282 H 207.458 0.594638 1.31149 0
M  V30 2283 H 209.411 -0.747451 4.14718 0
M  V30 2284 H 208.135 -1.25774 3.01411 0
M  V30 2285 H 206.794 0.798897 3.57789 0
M  V30 2286 H 206.442 -1.32379 4.85268 0
M  V30 2287 H 206.142 0.103902 5.87508 0
M  V30 2288 H 207.666 -0.811623 6.05182 0
M  V30 2289 H 209.08 1.40549 5.55805 0
M  V30 2290 H 207.477 2.19623 5.58467 0
M  V30 2291 H 208.547 2.43744 4.19186 0
M  V30 2292 N 209.89 -1.43072 0.660911 0
M  V30 2293 C 211.306 -1.56169 0.329173 0
M  V30 2294 C 211.506 -1.64317 -1.16629 0
M  V30 2295 O 210.562 -1.60245 -1.95135 0
M  V30 2296 C 211.875 -2.81873 1.04729 0
M  V30 2297 C 213.423 -2.95627 1.02828 0
M  V30 2298 C 213.898 -4.24174 1.72744 0
M  V30 2299 N 215.389 -4.31055 1.69545 0
M  V30 2300 C 216.124 -5.29304 2.20511 0
M  V30 2301 N 215.62 -6.33786 2.79799 0
M  V30 2302 N 217.413 -5.21008 2.10966 0
M  V30 2303 H 209.564 -1.36027 1.63127 0
M  V30 2304 H 211.827 -0.653823 0.686454 0
M  V30 2305 H 211.533 -2.81942 2.10242 0
M  V30 2306 H 211.407 -3.72338 0.603702 0
M  V30 2307 H 213.794 -2.95094 -0.0184742 0
M  V30 2308 H 213.875 -2.06431 1.51063 0
M  V30 2309 H 213.519 -4.25467 2.7738 0
M  V30 2310 H 213.449 -5.1228 1.2197 0
M  V30 2311 H 215.94 -3.56174 1.26288 0
M  V30 2312 H 216.253 -7.05086 3.16344 0
M  V30 2313 H 214.598 -6.34387 2.83863 0
M  V30 2314 H 217.789 -4.38301 1.64347 0
M  V30 2315 H 217.962 -5.97416 2.50993 0
M  V30 2316 N 211.368 -0.403325 -1.52352 0
M  V30 2317 C 212.298 0.416205 -2.29761 0
M  V30 2318 C 213.279 1.05123 -1.33728 0
M  V30 2319 O 214.464 1.06134 -1.62632 0
M  V30 2320 C 211.594 1.53624 -3.11475 0
M  V30 2321 C 210.548 1.02653 -4.15507 0
M  V30 2322 C 209.874 2.23971 -4.85532 0
M  V30 2323 C 211.174 0.08463 -5.22231 0
M  V30 2324 H 212.868 -0.229701 -2.98518 0
M  V30 2325 H 210.414 -0.111913 -1.43564 0
M  V30 2326 H 212.367 2.1165 -3.64393 0
M  V30 2327 H 211.091 2.20994 -2.40477 0
M  V30 2328 H 209.75 0.46871 -3.63591 0
M  V30 2329 H 209.398 2.89883 -4.11068 0
M  V30 2330 H 209.098 1.90521 -5.55856 0
M  V30 2331 H 210.622 2.82614 -5.41259 0
M  V30 2332 H 212.036 0.573509 -5.70424 0
M  V30 2333 H 210.433 -0.160783 -5.99885 0
M  V30 2334 H 211.503 -0.86237 -4.7717 0
M  V30 2335 N 212.846 1.57033 -0.133567 0
M  V30 2336 C 214.086 1.97575 0.523789 0
M  V30 2337 C 214.45 1.01605 1.62912 0
M  V30 2338 O 215.651 1.3114 2.3464 0
M  V30 2339 C 213.922 3.42256 1.02935 0
M  V30 2340 S 215.481 4.04817 1.69319 0
M  V30 2341 H 212.299 0.690427 0.169799 0
M  V30 2342 H 214.901 1.94234 -0.222101 0
M  V30 2343 H 213.605 4.09842 0.213917 0
M  V30 2344 H 213.136 3.4928 1.81017 0
M  V30 2345 H 215.151 3.96767 2.97977 0
M  V30 2346 N 214.325 -0.140222 1.56975 0
M  V30 2347 C 215.235 -1.19223 2.02047 0
M  V30 2348 C 216.251 -1.46612 0.937062 0
M  V30 2349 O 217.427 -1.58148 1.24704 0
M  V30 2350 C 214.492 -2.50414 2.39778 0
M  V30 2351 C 213.553 -2.30612 3.621 0
M  V30 2352 C 212.786 -3.55547 3.98023 0
M  V30 2353 O 213.009 -4.62004 3.34528 0
M  V30 2354 O 211.943 -3.47808 4.91237 0
M  V30 2355 H 215.769 -0.839559 2.91865 0
M  V30 2356 H 213.354 -0.349453 1.45256 0
M  V30 2357 H 215.236 -3.27747 2.64877 0
M  V30 2358 H 213.911 -2.85198 1.53114 0
M  V30 2359 H 212.818 -1.51207 3.4218 0
M  V30 2360 H 214.151 -2.00741 4.49404 0
M  V30 2361 N 215.803 -1.52179 -0.40978 0
M  V30 2362 C 216.75 -1.75475 -1.49924 0
M  V30 2363 C 217.72 -0.597175 -1.54994 0
M  V30 2364 O 218.905 -0.834655 -1.71575 0
M  V30 2365 C 216.045 -1.9107 -2.87378 0
M  V30 2366 C 215.158 -3.18717 -2.91622 0
M  V30 2367 C 214.293 -3.24747 -4.20372 0
M  V30 2368 C 213.332 -4.46598 -4.18588 0
M  V30 2369 N 212.469 -4.50025 -5.38908 0
M  V30 2370 H 217.309 -2.68458 -1.29361 0
M  V30 2371 H 214.846 -1.33024 -0.627934 0
M  V30 2372 H 216.804 -1.98096 -3.6717 0
M  V30 2373 H 215.434 -1.01469 -3.06437 0
M  V30 2374 H 214.486 -3.20866 -2.04326 0
M  V30 2375 H 215.798 -4.08544 -2.86169 0
M  V30 2376 H 214.952 -3.30841 -5.08556 0
M  V30 2377 H 213.691 -2.32857 -4.28519 0
M  V30 2378 H 212.696 -4.40652 -3.28794 0
M  V30 2379 H 213.921 -5.39783 -4.12081 0
M  V30 2380 H 211.867 -3.61017 -5.47725 0
M  V30 2381 H 211.784 -5.33697 -5.35447 0
M  V30 2382 H 213.052 -4.60347 -6.29048 0
M  V30 2383 N 217.281 0.66697 -1.42791 0
M  V30 2384 C 218.527 1.4291 -1.43891 0
M  V30 2385 C 218.86 1.94114 -0.0578972 0
M  V30 2386 O 218.135 1.71414 0.91911 0
M  V30 2387 C 218.418 2.62049 -2.46987 0
M  V30 2388 C 218.271 2.16426 -3.94309 0
M  V30 2389 C 219.59 3.64266 -2.46978 0
M  V30 2390 H 216.709 0.518306 -0.523954 0
M  V30 2391 H 219.351 0.757321 -1.74255 0
M  V30 2392 H 217.501 3.19361 -2.21225 0
M  V30 2393 H 219.173 1.64221 -4.31079 0
M  V30 2394 H 217.416 1.47925 -4.078 0
M  V30 2395 H 218.087 3.02038 -4.62036 0
M  V30 2396 H 220.563 3.16686 -2.69906 0
M  V30 2397 H 219.439 4.45196 -3.21079 0
M  V30 2398 H 219.7 4.15927 -1.49857 0
M  V30 2399 N 218.759 1.29093 0.90403 0
M  V30 2400 C 220.006 1.16813 1.65411 0
M  V30 2401 C 220.334 -0.28128 1.92455 0
M  V30 2402 O 219.589 -1.22006 1.53013 0
M  V30 2403 C 219.888 1.92224 3.01305 0
M  V30 2404 C 219.554 3.41968 2.93885 0
M  V30 2405 C 218.216 3.82807 2.91569 0
M  V30 2406 C 220.568 4.37409 2.83413 0
M  V30 2407 C 217.896 5.1741 2.76594 0
M  V30 2408 C 220.248 5.72097 2.69977 0
M  V30 2409 C 218.912 6.12199 2.66024 0
M  V30 2410 H 218.182 0.42745 0.605283 0
M  V30 2411 H 220.829 1.59981 1.05254 0
M  V30 2412 H 219.134 1.41635 3.65304 0
M  V30 2413 H 220.831 1.80131 3.58265 0
M  V30 2414 H 217.421 3.09504 2.96488 0
M  V30 2415 H 221.605 4.06813 2.84283 0
M  V30 2416 H 216.861 5.47596 2.71935 0
M  V30 2417 H 221.035 6.45704 2.60844 0
M  V30 2418 H 218.662 7.16448 2.54178 0
M  V30 2419 N 220.237 -1.11381 1.11499 0
M  V30 2420 C 221.514 -1.7955 0.775965 0
M  V30 2421 C 221.894 -1.97859 -0.73588 0
M  V30 2422 O 221.242 -1.56376 -1.66609 0
M  V30 2423 C 221.452 -3.13196 1.53977 0
M  V30 2424 C 222.8 -3.88227 1.71944 0
M  V30 2425 O 223.824 -3.22887 1.50407 0
M  V30 2426 O 222.683 -5.05477 2.07738 0
M  V30 2427 H 219.777 -0.777728 0.28119 0
M  V30 2428 H 222.323 -1.18118 1.21845 0
M  V30 2429 H 221.095 -2.95229 2.56818 0
M  V30 2430 H 220.718 -3.82342 1.09088 0
M  V30 2431 N 221.715 -0.905404 -1.28997 0
M  V30 2432 C 223.126 -0.581953 -1.77398 0
M  V30 2433 C 223.477 0.902552 -1.74208 0
M  V30 2434 O 222.602 1.70584 -1.33154 0
M  V30 2435 C 223.197 -1.04961 -3.22131 0
M  V30 2436 C 221.756 -0.777229 -3.68288 0
M  V30 2437 C 220.903 -1.22109 -2.48967 0
M  V30 2438 H 223.854 -1.08754 -1.15578 0
M  V30 2439 H 223.875 -0.387387 -3.78523 0
M  V30 2440 H 223.387 -2.13008 -3.24421 0
M  V30 2441 H 221.488 0.290383 -3.71467 0
M  V30 2442 H 221.601 -1.37911 -4.58822 0
M  V30 2443 H 219.965 -0.639971 -2.46529 0
M  V30 2444 H 220.748 -2.30972 -2.53982 0
M  V30 2445 N 223.193 1.4272 -0.668489 0
M  V30 2446 C 224.125 2.2914 0.052613 0
M  V30 2447 C 225.138 1.43339 0.771857 0
M  V30 2448 O 226.327 1.67123 0.627067 0
M  V30 2449 C 223.427 3.20618 1.09804 0
M  V30 2450 C 222.6 4.35039 0.45389 0
M  V30 2451 C 221.659 5.07282 1.39825 0
M  V30 2452 O 220.685 5.62024 0.900978 0
M  V30 2453 N 221.887 5.12206 2.73176 0
M  V30 2454 H 224.652 2.91668 -0.689209 0
M  V30 2455 H 222.213 1.53577 -0.512422 0
M  V30 2456 H 224.205 3.65815 1.73094 0
M  V30 2457 H 222.775 2.59585 1.74167 0
M  V30 2458 H 221.995 3.92567 -0.358396 0
M  V30 2459 H 223.283 5.088 0.00486972 0
M  V30 2460 H 222.681 4.6913 3.16122 0
M  V30 2461 H 221.238 5.61069 3.31729 0
M  V30 2462 N 224.671 0.411399 1.52136 0
M  V30 2463 C 225.619 -0.427633 2.28635 0
M  V30 2464 C 226.613 -1.04383 1.33419 0
M  V30 2465 O 227.819 -0.981772 1.50868 0
M  V30 2466 H 224.194 -0.156689 0.735495 0
M  V30 2467 H 226.165 0.238761 2.97443 0
M  V30 2468 C 224.914 -1.53082 3.12188 0
M  V30 2469 H 224.237 -1.06601 3.85326 0
M  V30 2470 H 225.677 -2.09167 3.68816 0
M  V30 2471 C 224.136 -2.49946 2.25895 0
M  V30 2472 O 224.666 -3.53884 1.90076 0
M  V30 2473 N 222.872 -2.2021 1.8962 0
M  V30 2474 H 222.419 -1.35719 2.18948 0
M  V30 2475 H 222.377 -2.85266 1.32176 0
M  V30 2476 N 226.149 -1.5696 0.141893 0
M  V30 2477 C 227.426 -1.87553 -0.555281 0
M  V30 2478 C 227.806 -1.04699 -1.83306 0
M  V30 2479 O 227.154 -0.132346 -2.28116 0
M  V30 2480 C 227.364 -3.39093 -0.825664 0
M  V30 2481 C 228.712 -4.08199 -1.16869 0
M  V30 2482 O 229.736 -3.44242 -0.915185 0
M  V30 2483 O 228.595 -5.21139 -1.6455 0
M  V30 2484 H 225.689 -0.777188 -0.282679 0
M  V30 2485 H 228.235 -1.68763 0.17812 0
M  V30 2486 H 227.007 -3.91221 0.0788633 0
M  V30 2487 H 226.63 -3.63393 -1.61343 0
M  V30 2488 N 227.627 0.131896 -1.57047 0
M  V30 2489 C 228.574 1.16236 -1.99393 0
M  V30 2490 C 229.544 1.41863 -0.863943 0
M  V30 2491 O 230.729 1.53946 -1.12718 0
M  V30 2492 C 227.869 2.48708 -2.39245 0
M  V30 2493 C 226.982 2.30127 -3.65603 0
M  V30 2494 C 226.117 3.55738 -3.94492 0
M  V30 2495 C 225.156 3.32259 -5.14073 0
M  V30 2496 N 224.293 4.50039 -5.38896 0
M  V30 2497 H 229.133 0.794251 -2.87221 0
M  V30 2498 H 226.67 0.380707 -1.42088 0
M  V30 2499 H 228.628 3.25969 -2.60384 0
M  V30 2500 H 227.258 2.83437 -1.54478 0
M  V30 2501 H 226.31 1.43845 -3.52154 0
M  V30 2502 H 227.622 2.08746 -4.5302 0
M  V30 2503 H 226.776 4.41423 -4.1621 0
M  V30 2504 H 225.515 3.80138 -3.05526 0
M  V30 2505 H 224.52 2.44963 -4.92212 0
M  V30 2506 H 225.745 3.09242 -6.04604 0
M  V30 2507 H 223.691 4.74584 -4.52886 0
M  V30 2508 H 223.608 4.31716 -6.2061 0
M  V30 2509 H 224.876 5.36895 -5.65123 0
M  V30 2510 N 229.106 1.52395 0.401703 0
M  V30 2511 C 230.517 1.58899 0.980202 0
M  V30 2512 C 230.868 0.434032 1.91339 0
M  V30 2513 O 229.993 -0.444619 2.11783 0
M  V30 2514 C 230.588 2.87994 1.78451 0
M  V30 2515 C 229.147 2.96953 2.31292 0
M  V30 2516 C 228.294 2.53903 1.11483 0
M  V30 2517 H 231.245 1.57657 0.18168 0
M  V30 2518 H 231.266 2.73765 2.64259 0
M  V30 2519 H 230.778 3.72035 1.10506 0
M  V30 2520 H 228.879 2.17422 3.02586 0
M  V30 2521 H 228.992 4.01344 2.61649 0
M  V30 2522 H 227.356 2.07925 1.47104 0
M  V30 2523 H 228.139 3.40326 0.450928 0
M  V30 2524 N 230.584 -0.659388 1.43143 0
M  V30 2525 C 231.809 -1.45221 1.48073 0
M  V30 2526 C 232.234 -1.87845 0.097995 0
M  V30 2527 O 231.592 -1.56985 -0.90694 0
M  V30 2528 C 231.64 -2.66748 2.42647 0
M  V30 2529 O 230.744 -3.65583 1.90848 0
M  V30 2530 H 230.085 -0.435669 0.501088 0
M  V30 2531 H 232.615 -0.807432 1.87994 0
M  V30 2532 H 232.625 -3.14637 2.59745 0
M  V30 2533 H 231.3 -2.35067 3.43098 0
M  V30 2534 H 229.877 -3.24693 1.83381 0
M  V30 2535 N 232.062 -1.29571 -0.897171 0
M  V30 2536 C 233.009 -1.14916 -2.00158 0
M  V30 2537 C 233.979 -0.0418149 -1.66047 0
M  V30 2538 O 235.164 -0.209793 -1.89643 0
M  V30 2539 C 232.304 -0.834307 -3.34863 0
M  V30 2540 C 231.417 -2.02234 -3.8174 0
M  V30 2541 C 230.552 -1.64664 -5.05034 0
M  V30 2542 C 229.591 -2.80033 -5.44286 0
M  V30 2543 N 228.728 -2.42843 -6.58765 0
M  V30 2544 H 233.568 -2.09403 -2.12025 0
M  V30 2545 H 231.105 -1.042 -1.0383 0
M  V30 2546 H 233.063 -0.632436 -4.12379 0
M  V30 2547 H 231.693 0.0736656 -3.22716 0
M  V30 2548 H 230.745 -2.33583 -3.00238 0
M  V30 2549 H 232.057 -2.88673 -4.06779 0
M  V30 2550 H 231.211 -1.4078 -5.9014 0
M  V30 2551 H 229.95 -0.753766 -4.8184 0
M  V30 2552 H 228.955 -3.04596 -4.57713 0
M  V30 2553 H 230.18 -3.69989 -5.6946 0
M  V30 2554 H 228.126 -1.56046 -6.3717 0
M  V30 2555 H 228.043 -3.22815 -6.83613 0
M  V30 2556 H 229.311 -2.22285 -7.47134 0
M  V30 2557 N 233.54 1.10788 -1.12088 0
M  V30 2558 C 234.786 1.8313 -0.885148 0
M  V30 2559 C 235.141 1.8336 0.582839 0
M  V30 2560 O 234.434 1.28062 1.42516 0
M  V30 2561 C 234.628 3.29294 -1.38926 0
M  V30 2562 C 234.457 3.43302 -2.90472 0
M  V30 2563 C 233.227 3.55928 -3.58669 0
M  V30 2564 C 235.425 3.37014 -3.88492 0
M  V30 2565 N 233.407 3.58475 -4.98366 0
M  V30 2566 C 234.778 3.46263 -5.14298 0
M  V30 2567 C 236.833 3.20589 -3.80955 0
M  V30 2568 C 235.536 3.4078 -6.33452 0
M  V30 2569 C 237.562 3.16427 -4.99628 0
M  V30 2570 C 236.924 3.26253 -6.2429 0
M  V30 2571 H 233.023 0.685054 -0.377128 0
M  V30 2572 H 235.607 1.3251 -1.4265 0
M  V30 2573 H 233.778 3.78416 -0.874999 0
M  V30 2574 H 235.51 3.89578 -1.09596 0
M  V30 2575 H 232.265 3.58779 -3.09151 0
M  V30 2576 H 232.689 3.6337 -5.71219 0
M  V30 2577 H 237.331 3.11873 -2.85474 0
M  V30 2578 H 235.049 3.48263 -7.29204 0
M  V30 2579 H 238.635 3.04874 -4.95523 0
M  V30 2580 H 237.515 3.2303 -7.14578 0
M  V30 2581 N 235.018 0.912232 1.28515 0
M  V30 2582 C 236.264 0.554851 1.95686 0
M  V30 2583 C 236.619 -0.89138 1.70506 0
M  V30 2584 O 235.912 -1.62529 1.01464 0
M  V30 2585 C 236.106 0.798392 3.48368 0
M  V30 2586 C 235.935 2.26674 3.88393 0
M  V30 2587 C 234.705 2.91657 4.12631 0
M  V30 2588 C 236.903 3.24303 3.99164 0
M  V30 2589 N 234.885 4.28805 4.39317 0
M  V30 2590 C 236.256 4.4661 4.30046 0
M  V30 2591 C 238.311 3.19723 3.81683 0
M  V30 2592 C 237.014 5.64915 4.45268 0
M  V30 2593 C 239.04 4.37325 3.98121 0
M  V30 2594 C 238.402 5.58406 4.29375 0
M  V30 2595 H 234.501 0.252876 0.739985 0
M  V30 2596 H 237.085 1.17565 1.55199 0
M  V30 2597 H 235.256 0.20688 3.87849 0
M  V30 2598 H 236.988 0.405193 4.02666 0
M  V30 2599 H 233.743 2.42393 4.06869 0
M  V30 2600 H 234.167 4.99712 4.56746 0
M  V30 2601 H 238.809 2.27191 3.56573 0
M  V30 2602 H 236.527 6.57927 4.6921 0
M  V30 2603 H 240.113 4.35282 3.86033 0
M  V30 2604 H 238.993 6.47889 4.41825 0
M  V30 2605 N 236.496 -1.42363 0.676048 0
M  V30 2606 C 237.724 -2.05859 0.207268 0
M  V30 2607 C 238.139 -1.50796 -1.13605 0
M  V30 2608 O 237.496 -0.648265 -1.70598 0
M  V30 2609 C 237.547 -3.61248 0.134975 0
M  V30 2610 O 237.268 -4.1427 1.42521 0
M  V30 2611 C 238.769 -4.41859 -0.357151 0
M  V30 2612 H 235.989 -0.663431 0.100503 0
M  V30 2613 H 238.533 -1.82479 0.923136 0
M  V30 2614 H 236.688 -3.83735 -0.531588 0
M  V30 2615 H 237.102 -5.0815 1.29939 0
M  V30 2616 H 238.576 -5.50847 -0.356641 0
M  V30 2617 H 239.053 -4.16536 -1.39264 0
M  V30 2618 H 239.659 -4.24392 0.27772 0
M  V30 2619 N 237.974 -0.419461 -1.51915 0
M  V30 2620 C 239.214 0.152336 -2.03832 0
M  V30 2621 C 239.578 1.41501 -1.29775 0
M  V30 2622 O 240.779 2.06591 -1.7197 0
M  V30 2623 C 239.05 0.383812 -3.55333 0
M  V30 2624 S 240.609 0.921577 -4.29013 0
M  V30 2625 H 237.427 0.0402193 -0.709862 0
M  V30 2626 H 240.029 -0.574758 -1.8686 0
M  V30 2627 H 238.733 -0.541794 -4.06808 0
M  V30 2628 H 238.264 1.13849 -3.76566 0
M  V30 2629 H 240.279 2.20108 -4.4471 0
M  V30 2630 N 239.452 1.56882 -0.150215 0
M  V30 2631 C 240.699 1.96228 0.500093 0
M  V30 2632 C 241.027 1.03522 1.64661 0
M  V30 2633 O 240.282 0.0650683 1.95592 0
M  V30 2634 C 240.581 3.41801 1.04437 0
M  V30 2635 C 240.247 4.50897 0.0159671 0
M  V30 2636 C 238.909 4.8046 -0.266731 0
M  V30 2637 C 241.261 5.16703 -0.683192 0
M  V30 2638 C 238.589 5.73135 -1.25434 0
M  V30 2639 C 240.941 6.10441 -1.65964 0
M  V30 2640 C 239.605 6.38382 -1.95 0
M  V30 2641 H 238.875 0.718048 0.182997 0
M  V30 2642 H 241.522 1.90019 -0.237724 0
M  V30 2643 H 239.827 3.44857 1.85959 0
M  V30 2644 H 241.524 3.69573 1.55618 0
M  V30 2645 H 238.114 4.27891 0.246485 0
M  V30 2646 H 242.298 4.93993 -0.477983 0
M  V30 2647 H 237.554 5.93074 -1.48571 0
M  V30 2648 H 241.728 6.60507 -2.20689 0
M  V30 2649 H 239.355 7.09996 -2.71679 0
M  V30 2650 N 240.93 -0.123565 1.57115 0
M  V30 2651 C 242.176 -0.833386 1.84885 0
M  V30 2652 C 242.509 -1.79742 0.735292 0
M  V30 2653 O 241.784 -1.92764 -0.25925 0
M  V30 2654 C 242.067 -1.5873 3.23228 0
M  V30 2655 C 241.92 -0.643183 4.45178 0
M  V30 2656 C 243.239 -2.54453 3.59085 0
M  V30 2657 H 240.358 -0.301518 0.6725 0
M  V30 2658 H 243 -0.097778 1.89748 0
M  V30 2659 H 241.15 -2.21438 3.19214 0
M  V30 2660 H 242.822 -0.0253015 4.61293 0
M  V30 2661 H 241.065 0.0456139 4.33776 0
M  V30 2662 H 241.736 -1.20724 5.38637 0
M  V30 2663 H 244.212 -2.01853 3.63861 0
M  V30 2664 H 243.088 -3.04238 4.5687 0
M  V30 2665 H 243.349 -3.36906 2.86264 0
M  V30 2666 N 242.408 -1.52605 -0.393616 0
M  V30 2667 C 243.355 -1.77055 -1.48054 0
M  V30 2668 C 244.325 -0.61358 -1.54352 0
M  V30 2669 O 245.51 -0.852806 -1.70681 0
M  V30 2670 C 242.65 -1.94108 -2.85335 0
M  V30 2671 C 241.763 -3.21792 -2.88226 0
M  V30 2672 C 240.898 -3.29188 -4.16904 0
M  V30 2673 C 239.937 -4.51013 -4.13828 0
M  V30 2674 N 239.074 -4.55716 -5.34105 0
M  V30 2675 H 243.914 -2.69815 -1.26506 0
M  V30 2676 H 241.451 -1.33683 -0.61379 0
M  V30 2677 H 243.409 -2.01979 -3.65049 0
M  V30 2678 H 242.039 -1.04713 -3.05344 0
M  V30 2679 H 241.091 -3.23015 -2.00911 0
M  V30 2680 H 242.403 -4.11557 -2.8182 0
M  V30 2681 H 241.557 -3.36216 -5.05018 0
M  V30 2682 H 240.296 -2.37389 -4.26026 0
M  V30 2683 H 239.301 -4.44115 -3.24102 0
M  V30 2684 H 240.526 -5.44123 -4.06333 0
M  V30 2685 H 238.472 -3.66807 -5.43865 0
M  V30 2686 H 238.389 -5.39346 -5.29756 0
M  V30 2687 H 239.657 -4.66993 -6.2413 0
M  V30 2688 N 243.887 0.651787 -1.4349 0
M  V30 2689 C 245.303 0.96762 -1.26922 0
M  V30 2690 C 245.503 2.00602 -0.189982 0
M  V30 2691 O 244.559 2.48793 0.431107 0
M  V30 2692 C 245.872 1.45052 -2.63401 0
M  V30 2693 C 247.42 1.5671 -2.70945 0
M  V30 2694 C 247.895 2.0839 -4.07845 0
M  V30 2695 N 249.386 2.1569 -4.09917 0
M  V30 2696 C 250.121 2.56804 -5.12679 0
M  V30 2697 N 249.617 2.97203 -6.25813 0
M  V30 2698 N 251.41 2.56756 -5.00033 0
M  V30 2699 H 243.561 -0.0353158 -2.12371 0
M  V30 2700 H 245.824 0.0467858 -0.946845 0
M  V30 2701 H 245.53 0.761926 -3.43348 0
M  V30 2702 H 245.404 2.42529 -2.88894 0
M  V30 2703 H 247.791 2.2467 -1.9133 0
M  V30 2704 H 247.872 0.57662 -2.49216 0
M  V30 2705 H 247.516 1.41031 -4.87927 0
M  V30 2706 H 247.446 3.08271 -4.26938 0
M  V30 2707 H 249.937 1.87237 -3.28254 0
M  V30 2708 H 250.25 3.27328 -7.00055 0
M  V30 2709 H 248.595 2.95004 -6.29283 0
M  V30 2710 H 251.786 2.24572 -4.10713 0
M  V30 2711 H 251.959 2.88475 -5.80247 0
M  V30 2712 N 245.365 1.30045 0.890287 0
M  V30 2713 C 246.297 1.11786 2.00091 0
M  V30 2714 C 247.31 0.0626307 1.62679 0
M  V30 2715 O 248.499 0.308112 1.75821 0
M  V30 2716 C 245.599 0.681527 3.31977 0
M  V30 2717 C 244.772 1.81735 3.97858 0
M  V30 2718 C 243.831 1.37045 5.08041 0
M  V30 2719 O 242.857 2.07677 5.29961 0
M  V30 2720 N 244.059 0.246525 5.79976 0
M  V30 2721 H 246.824 2.07441 2.16306 0
M  V30 2722 H 244.385 1.2211 1.06305 0
M  V30 2723 H 246.377 0.365675 4.03045 0
M  V30 2724 H 244.947 -0.182828 3.12065 0
M  V30 2725 H 244.167 2.30159 3.20032 0
M  V30 2726 H 245.455 2.57865 4.38615 0
M  V30 2727 H 244.853 -0.34215 5.64664 0
M  V30 2728 H 243.41 -0.00990438 6.51799 0
M  V30 2729 N 246.843 -1.10192 1.12674 0
M  V30 2730 C 248.09 -1.82205 0.883606 0
M  V30 2731 C 248.418 -1.8532 -0.590492 0
M  V30 2732 O 247.673 -1.31137 -1.45264 0
M  V30 2733 C 247.972 -3.28552 1.4067 0
M  V30 2734 C 247.638 -3.45582 2.89627 0
M  V30 2735 C 246.3 -3.49937 3.30299 0
M  V30 2736 C 248.652 -3.50768 3.85501 0
M  V30 2737 C 245.98 -3.57049 4.65546 0
M  V30 2738 C 248.332 -3.59414 5.20581 0
M  V30 2739 C 246.996 -3.62034 5.60792 0
M  V30 2740 H 246.266 -0.666735 0.323334 0
M  V30 2741 H 248.913 -1.29868 1.40736 0
M  V30 2742 H 247.218 -3.83473 0.80347 0
M  V30 2743 H 248.915 -3.82788 1.19475 0
M  V30 2744 H 245.505 -3.42871 2.57172 0
M  V30 2745 H 249.689 -3.46651 3.55171 0
M  V30 2746 H 244.945 -3.57361 4.96088 0
M  V30 2747 H 249.119 -3.62371 5.94693 0
M  V30 2748 H 246.746 -3.67298 6.6558 0
M  V30 2749 N 248.321 -0.919034 -1.28029 0
M  V30 2750 C 249.254 -0.355887 -2.25408 0
M  V30 2751 C 250.232 0.542874 -1.5327 0
M  V30 2752 O 251.416 0.485338 -1.82145 0
M  V30 2753 C 248.543 0.490759 -3.35126 0
M  V30 2754 C 247.589 -0.343358 -4.25116 0
M  V30 2755 S 248.422 -1.75344 -5.05979 0
M  V30 2756 C 249.578 -0.914244 -6.19187 0
M  V30 2757 H 249.811 -1.18123 -2.72826 0
M  V30 2758 H 247.344 -0.720636 -1.36551 0
M  V30 2759 H 249.302 0.973404 -3.98792 0
M  V30 2760 H 247.963 1.29054 -2.86363 0
M  V30 2761 H 247.156 0.304266 -5.03081 0
M  V30 2762 H 246.758 -0.759851 -3.662 0
M  V30 2763 H 249.05 -0.146282 -6.77342 0
M  V30 2764 H 249.993 -1.66661 -6.88208 0
M  V30 2765 H 250.401 -0.460082 -5.62622 0
M  V30 2766 N 249.799 1.42003 -0.683588 0
M  V30 2767 C 250.747 2.326 0.000815408 0
M  V30 2768 C 251.741 1.50308 0.781278 0
M  V30 2769 O 252.947 1.66322 0.688251 0
M  V30 2770 H 249.322 0.751758 0.0190616 0
M  V30 2771 H 251.293 2.88011 -0.780528 0
M  V30 2772 C 250.042 3.34978 0.93195 0
M  V30 2773 H 249.365 3.98345 0.340817 0
M  V30 2774 H 250.805 4.00936 1.37936 0
M  V30 2775 C 249.264 2.67925 2.04249 0
M  V30 2776 O 249.794 2.51788 3.12995 0
M  V30 2777 N 248 2.2681 1.81675 0
M  V30 2778 H 247.547 2.40135 0.932363 0
M  V30 2779 H 247.505 1.8228 2.56167 0
M  V30 2780 N 251.277 0.427512 1.51691 0
M  V30 2781 C 252.224 -0.388867 2.275 0
M  V30 2782 C 253.194 -1.02532 1.30677 0
M  V30 2783 O 254.379 -1.0461 1.59566 0
M  V30 2784 C 251.519 -1.48954 3.11298 0
M  V30 2785 C 250.632 -0.872194 4.23104 0
M  V30 2786 C 249.767 -1.94709 4.94228 0
M  V30 2787 C 248.806 -1.30766 5.97969 0
M  V30 2788 N 247.943 -2.32349 6.62539 0
M  V30 2789 H 252.783 0.263997 2.96828 0
M  V30 2790 H 250.32 0.142033 1.46413 0
M  V30 2791 H 252.278 -2.13887 3.58201 0
M  V30 2792 H 250.908 -2.11217 2.44105 0
M  V30 2793 H 249.96 -0.111419 3.80237 0
M  V30 2794 H 251.272 -0.365264 4.97461 0
M  V30 2795 H 250.426 -2.67327 5.44629 0
M  V30 2796 H 249.165 -2.48773 4.1948 0
M  V30 2797 H 248.17 -0.566902 5.4687 0
M  V30 2798 H 249.395 -0.774483 6.74669 0
M  V30 2799 H 247.341 -2.85511 5.90609 0
M  V30 2800 H 247.258 -1.8652 7.3263 0
M  V30 2801 H 248.526 -3.04481 7.17574 0
M  V30 2802 N 252.755 -1.56801 0.158532 0
M  V30 2803 C 253.98 -2.01295 -0.499516 0
M  V30 2804 C 254.405 -1.03799 -1.56867 0
M  V30 2805 O 253.763 -0.0155162 -1.81293 0
M  V30 2806 C 253.811 -3.44469 -1.06647 0
M  V30 2807 O 252.915 -3.50012 -2.18095 0
M  V30 2808 H 252.256 -0.652884 -0.12099 0
M  V30 2809 H 254.786 -2.02958 0.258661 0
M  V30 2810 H 254.796 -3.8351 -1.39227 0
M  V30 2811 H 253.471 -4.14932 -0.283581 0
M  V30 2812 H 252.048 -3.22822 -1.86656 0
M  V30 2813 N 254.233 0.115231 -1.57178 0
M  V30 2814 C 255.163 1.1423 -2.03651 0
M  V30 2815 C 256.144 1.42967 -0.921655 0
M  V30 2816 O 257.329 1.53343 -1.19162 0
M  V30 2817 C 254.459 2.4675 -2.44401 0
M  V30 2818 C 253.413 2.32467 -3.59365 0
M  V30 2819 C 252.739 3.69984 -3.86026 0
M  V30 2820 C 254.039 1.78203 -4.90959 0
M  V30 2821 H 255.733 0.755749 -2.89705 0
M  V30 2822 H 253.279 0.362093 -1.39373 0
M  V30 2823 H 255.232 3.18854 -2.75517 0
M  V30 2824 H 253.956 2.87302 -1.55322 0
M  V30 2825 H 252.615 1.62811 -3.28463 0
M  V30 2826 H 252.263 4.08028 -2.94147 0
M  V30 2827 H 251.963 3.61279 -4.63412 0
M  V30 2828 H 253.487 4.43587 -4.19599 0
M  V30 2829 H 254.901 2.40128 -5.20587 0
M  V30 2830 H 253.298 1.8031 -5.72371 0
M  V30 2831 H 254.368 0.739876 -4.79222 0
M  V30 2832 N 255.711 1.52812 0.385517 0
M  V30 2833 C 256.936 1.72207 1.15583 0
M  V30 2834 C 257.361 0.441034 1.82857 0
M  V30 2835 O 256.719 -0.603465 1.70962 0
M  V30 2836 C 256.767 2.87476 2.17692 0
M  V30 2837 O 255.871 2.54693 3.24354 0
M  V30 2838 H 255.212 0.572526 0.336319 0
M  V30 2839 H 257.742 1.99618 0.448744 0
M  V30 2840 H 257.752 3.13072 2.6163 0
M  V30 2841 H 256.427 3.80408 1.68115 0
M  V30 2842 H 255.004 2.3985 2.85529 0
M  V30 2843 N 257.189 -0.644168 1.43834 0
M  V30 2844 C 258.437 -1.40117 1.45642 0
M  V30 2845 C 258.758 -1.94814 0.0852413 0
M  V30 2846 O 258.028 -1.74988 -0.880688 0
M  V30 2847 H 256.608 -0.52005 0.536243 0
M  V30 2848 H 259.27 -0.7591 1.7951 0
M  V30 2849 H 258.366 -2.23902 2.17427 0
M  V30 2850 N 258.668 -1.30515 -0.883378 0
M  V30 2851 C 260.079 -1.17509 -1.45081 0
M  V30 2852 C 260.43 0.223605 -1.94922 0
M  V30 2853 O 259.555 1.12041 -1.85137 0
M  V30 2854 C 260.15 -2.12715 -2.63701 0
M  V30 2855 C 258.709 -2.03682 -3.16529 0
M  V30 2856 C 257.856 -2.02706 -1.89224 0
M  V30 2857 H 260.807 -1.42762 -0.693165 0
M  V30 2858 H 260.828 -1.70891 -3.39965 0
M  V30 2859 H 260.34 -3.14505 -2.27395 0
M  V30 2860 H 258.441 -1.05039 -3.57488 0
M  V30 2861 H 258.554 -2.92146 -3.7972 0
M  V30 2862 H 256.918 -1.4753 -2.07622 0
M  V30 2863 H 257.701 -3.06229 -1.55174 0
M  V30 2864 N 260.146 1.09593 -1.13257 0
M  V30 2865 C 261.394 1.81375 -0.891492 0
M  V30 2866 C 261.715 1.86049 0.584009 0
M  V30 2867 O 260.985 1.34481 1.42449 0
M  V30 2868 H 259.565 0.671708 -0.326828 0
M  V30 2869 H 262.227 1.3256 -1.42877 0
M  V30 2870 H 261.323 2.84612 -1.28071 0
M  V30 2871 N 261.624 0.925811 1.2754 0
M  V30 2872 C 262.556 0.380753 2.26015 0
M  V30 2873 C 263.569 -0.487485 1.5533 0
M  V30 2874 O 264.758 -0.300413 1.75954 0
M  V30 2875 C 261.858 -0.473259 3.35579 0
M  V30 2876 C 261.031 0.375249 4.35787 0
M  V30 2877 C 260.09 -0.415809 5.24555 0
M  V30 2878 O 259.116 0.175834 5.68928 0
M  V30 2879 N 260.318 -1.71607 5.54555 0
M  V30 2880 H 263.083 1.22725 2.73421 0
M  V30 2881 H 260.644 0.793037 1.41147 0
M  V30 2882 H 262.636 -1.00949 3.91907 0
M  V30 2883 H 261.206 -1.2205 2.87789 0
M  V30 2884 H 260.426 1.09279 3.7875 0
M  V30 2885 H 261.714 0.955399 4.99749 0
M  V30 2886 H 261.112 -2.2191 5.20358 0
M  V30 2887 H 259.669 -2.19887 6.1359 0
M  V30 2888 O 263.141 -1.38545 0.829904 0
M  V30 2889 H 263.832 -1.89212 0.414565 0
M  V30 END ATOM
M  V30 BEGIN BOND
M  V30 END BOND
M  V30 END CTAB
M  END
$$$$
