drugbank_target|P27169 Serum paraoxonase/arylesterase 1 (DB01327; DB01593; DB09130; DB14487; DB14533; DB14548)
 OpenBabel12092119433D

  0  0  0     0  0            999 V3000
M  V30 BEGIN CTAB
M  V30 COUNTS 5576 5648 0 0 0
M  V30 BEGIN ATOM
M  V30 1 H -0.908 1.98254 -0.117106 0
M  V30 2 N 0 1.576 0 0
M  V30 3 C 0.933 2.03868 1.02534 0
M  V30 4 C 1.911 0.928543 1.3348 0
M  V30 5 O 3.095 1.19667 1.45644 0
M  V30 6 C 0.222 2.43627 2.35294 0
M  V30 7 C -0.732 3.65373 2.2001 0
M  V30 8 S 0.101 5.13292 1.52614 0
M  V30 9 C 1.257 5.56322 2.86805 0
M  V30 10 H 1.49 2.90518 0.631377 0
M  V30 11 H -0.977 1.52953 0.210867 0
M  V30 12 H 0.981 2.67203 3.11629 0
M  V30 13 H -0.358 1.57376 2.7183 0
M  V30 14 H -1.165 3.90944 3.18086 0
M  V30 15 H -1.563 3.418 1.51819 0
M  V30 16 H 0.729 5.58782 3.83104 0
M  V30 17 H 1.672 6.56266 2.65933 0
M  V30 18 H 2.08 4.83886 2.90714 0
M  V30 19 N 1.4781 -0.272755 1.55222 0
M  V30 20 C 2.4411 -1.32041 1.87344 0
M  V30 21 C 3.4411 -1.42342 0.74803 0
M  V30 22 O 4.6311 -1.41488 1.0162 0
M  V30 23 C 1.7631 -2.70173 2.07893 0
M  V30 24 H 2.9561 -1.04789 2.80997 0
M  V30 25 H 0.5091 -0.51083 1.47717 0
M  V30 26 H 1.2441 -3.02605 1.16622 0
M  V30 27 H 1.0291 -2.64082 2.89833 0
M  V30 28 H 2.5191 -3.45869 2.34017 0
M  V30 29 N 2.9562 -1.48159 -0.537278 0
M  V30 30 C 3.9032 -1.62138 -1.64256 0
M  V30 31 C 4.8732 -0.463668 -1.59497 0
M  V30 32 O 6.0582 -0.686241 -1.78032 0
M  V30 33 C 3.1982 -1.66028 -3.02537 0
M  V30 34 C 2.3112 -2.92855 -3.17585 0
M  V30 35 C 1.4462 -2.87952 -4.46382 0
M  V30 36 C 0.4852 -4.09516 -4.54932 0
M  V30 37 N -0.3778 -4.02733 -5.75109 0
M  V30 38 H 4.4622 -2.56529 -1.51647 0
M  V30 39 H 1.9992 -1.27224 -0.738414 0
M  V30 40 H 3.9572 -1.66265 -3.82638 0
M  V30 41 H 2.5872 -0.751331 -3.13934 0
M  V30 42 H 1.6392 -3.02395 -2.30784 0
M  V30 43 H 2.9512 -3.82822 -3.19764 0
M  V30 44 H 2.1052 -2.8655 -5.34765 0
M  V30 45 H 0.8442 -1.95702 -4.46712 0
M  V30 46 H -0.1508 -4.11201 -3.64957 0
M  V30 47 H 1.0742 -5.02917 -4.56346 0
M  V30 48 H -0.9798 -3.13299 -5.76351 0
M  V30 49 H -1.0628 -4.86397 -5.78752 0
M  V30 50 H 0.2052 -4.05379 -6.65799 0
M  V30 51 N 4.4343 0.785586 -1.36625 0
M  V30 52 C 5.3643 1.91259 -1.33949 0
M  V30 53 C 6.3453 1.68795 -0.210325 0
M  V30 54 O 7.5303 1.89854 -0.408561 0
M  V30 55 C 4.6603 3.28339 -1.13186 0
M  V30 56 C 3.6143 3.65335 -2.22967 0
M  V30 57 C 2.9403 5.00806 -1.87342 0
M  V30 58 C 4.2403 3.7352 -3.65075 0
M  V30 59 H 5.9343 1.93755 -2.28253 0
M  V30 60 H 3.4803 0.930788 -1.09874 0
M  V30 61 H 5.4333 4.06804 -1.09948 0
M  V30 62 H 4.1573 3.2624 -0.153332 0
M  V30 63 H 2.8163 2.89169 -2.25337 0
M  V30 64 H 2.4643 4.95233 -0.880545 0
M  V30 65 H 2.1643 5.26529 -2.60846 0
M  V30 66 H 3.6883 5.81687 -1.85667 0
M  V30 67 H 5.1023 4.42168 -3.64911 0
M  V30 68 H 3.4993 4.10731 -4.37516 0
M  V30 69 H 4.5693 2.74527 -3.99703 0
M  V30 70 N 5.9124 1.20967 1.01018 0
M  V30 71 C 7.1614 1.01796 1.74128 0
M  V30 72 C 7.4744 -0.449691 1.90361 0
M  V30 73 O 8.6804 -0.76068 2.60626 0
M  V30 74 C 7.1364 1.7727 3.13215 0
M  V30 75 C 6.7444 3.28171 3.04972 0
M  V30 76 C 8.4884 1.66489 3.90489 0
M  V30 77 C 6.3954 3.96156 4.39107 0
M  V30 78 H 5.3254 0.377276 0.652824 0
M  V30 79 H 7.9764 1.44651 1.12909 0
M  V30 80 H 6.3584 1.27205 3.75013 0
M  V30 81 H 7.5324 3.85499 2.52443 0
M  V30 82 H 5.8474 3.39437 2.41188 0
M  V30 83 H 8.4444 2.14617 4.89738 0
M  V30 84 H 8.7874 0.6222 4.11624 0
M  V30 85 H 9.3204 2.14003 3.35332 0
M  V30 86 H 6.0594 5.00604 4.23174 0
M  V30 87 H 5.5794 3.43617 4.91617 0
M  V30 88 H 7.2584 4.00774 5.07926 0
M  V30 89 N 7.3905 -1.2043 1.01659 0
M  V30 90 C 8.3535 -2.21433 0.591616 0
M  V30 91 C 9.3535 -1.57203 -0.338226 0
M  V30 92 O 10.5435 -1.73737 -0.126918 0
M  V30 93 C 7.6755 -3.40628 -0.136058 0
M  V30 94 H 8.8685 -2.60545 1.48514 0
M  V30 95 H 6.4215 -1.33893 0.806379 0
M  V30 96 H 7.1565 -3.07019 -1.04449 0
M  V30 97 H 6.9415 -3.88475 0.531917 0
M  V30 98 H 8.4315 -4.15475 -0.420735 0
M  V30 99 N 8.8686 -0.792821 -1.36206 0
M  V30 100 C 9.7986 -0.207853 -2.32573 0
M  V30 101 C 10.7796 0.659055 -1.56813 0
M  V30 102 O 11.9646 0.592176 -1.84951 0
M  V30 103 C 9.0946 0.655449 -3.41059 0
M  V30 104 C 8.0486 -0.111842 -4.27854 0
M  V30 105 C 7.3746 0.872274 -5.27537 0
M  V30 106 C 8.6746 -1.30299 -5.05786 0
M  V30 107 H 10.3686 -1.01294 -2.81744 0
M  V30 108 H 7.9146 -0.48854 -1.3546 0
M  V30 109 H 9.8676 1.07464 -4.07467 0
M  V30 110 H 8.5916 1.49328 -2.90463 0
M  V30 111 H 7.2506 -0.512053 -3.63006 0
M  V30 112 H 6.8986 1.70523 -4.73214 0
M  V30 113 H 6.5986 0.363291 -5.86476 0
M  V30 114 H 8.1226 1.28996 -5.96818 0
M  V30 115 H 9.5366 -0.959379 -5.65216 0
M  V30 116 H 7.9336 -1.7455 -5.74154 0
M  V30 117 H 9.0036 -2.09663 -4.37229 0
M  V30 118 N 10.3467 1.47872 -0.545128 0
M  V30 119 C 11.5747 2.06889 -0.021084 0
M  V30 120 C 11.9897 1.39955 1.2672 0
M  V30 121 O 11.3467 0.492036 1.75742 0
M  V30 122 C 11.3977 3.60996 0.190817 0
M  V30 123 O 11.1187 4.25419 -1.04644 0
M  V30 124 C 12.6197 4.36849 0.753521 0
M  V30 125 H 9.8397 0.669785 -0.0403635 0
M  V30 126 H 12.3837 1.90049 -0.755095 0
M  V30 127 H 10.5387 3.77391 0.87492 0
M  V30 128 H 10.9527 5.17785 -0.836611 0
M  V30 129 H 12.4267 5.45399 0.851139 0
M  V30 130 H 12.9037 4.02306 1.762 0
M  V30 131 H 13.5097 4.25169 0.105503 0
M  V30 132 N 11.8248 0.280983 1.55075 0
M  V30 133 C 12.7548 -0.597469 2.25727 0
M  V30 134 C 13.7358 -1.15417 1.24952 0
M  V30 135 O 14.9208 -1.18722 1.53684 0
M  V30 136 C 12.0508 -1.7789 2.98283 0
M  V30 137 C 11.0048 -1.35347 4.06036 0
M  V30 138 C 10.3308 -2.61846 4.66198 0
M  V30 139 C 11.6308 -0.499354 5.19907 0
M  V30 140 H 13.3248 -0.00824265 2.99399 0
M  V30 141 H 10.8708 -0.0025244 1.44 0
M  V30 142 H 12.8238 -2.39937 3.46422 0
M  V30 143 H 11.5478 -2.39405 2.22155 0
M  V30 144 H 10.2068 -0.756156 3.58717 0
M  V30 145 H 9.8548 -3.21632 3.86732 0
M  V30 146 H 9.5548 -2.3409 5.38958 0
M  V30 147 H 11.0788 -3.24732 5.1709 0
M  V30 148 H 12.4928 -1.02498 5.64063 0
M  V30 149 H 10.8898 -0.316424 5.99265 0
M  V30 150 H 11.9598 0.480459 4.82514 0
M  V30 151 N 13.3029 -1.57598 0.00835791 0
M  V30 152 C 14.2329 -2.1198 -0.979113 0
M  V30 153 C 15.2139 -1.03091 -1.35301 0
M  V30 154 O 16.3989 -1.30818 -1.43528 0
M  V30 155 C 13.5289 -2.62995 -2.26828 0
M  V30 156 C 12.4829 -3.76485 -2.03576 0
M  V30 157 C 11.8089 -4.13846 -3.38579 0
M  V30 158 C 13.1089 -5.0342 -1.39161 0
M  V30 159 H 14.8029 -2.94738 -0.526281 0
M  V30 160 H 12.3489 -1.41783 -0.251704 0
M  V30 161 H 14.3019 -2.99669 -2.96271 0
M  V30 162 H 13.0259 -1.7737 -2.7424 0
M  V30 163 H 11.6849 -3.40217 -1.36557 0
M  V30 164 H 11.3329 -3.25232 -3.83709 0
M  V30 165 H 11.0329 -4.90312 -3.23834 0
M  V30 166 H 12.5569 -4.53086 -4.09323 0
M  V30 167 H 13.9709 -5.37812 -1.98573 0
M  V30 168 H 12.3679 -5.84746 -1.34878 0
M  V30 169 H 13.4379 -4.83548 -0.361868 0
M  V30 170 N 14.781 0.264519 -1.55364 0
M  V30 171 C 16.029 0.993021 -1.76021 0
M  V30 172 C 16.35 1.86511 -0.569099 0
M  V30 173 O 15.62 1.91438 0.415735 0
M  V30 174 H 14.2 0.369639 -0.649135 0
M  V30 175 H 16.862 0.286707 -1.9278 0
M  V30 176 H 15.958 1.62502 -2.66457 0
M  V30 177 N 16.2591 1.48442 0.529413 0
M  V30 178 C 17.1921 1.57577 1.65059 0
M  V30 179 C 18.1701 0.426198 1.56915 0
M  V30 180 O 19.3541 0.637877 1.77379 0
M  V30 181 C 16.4811 1.5043 3.03461 0
M  V30 182 C 15.5271 2.70235 3.29962 0
M  V30 183 S 16.3601 4.32198 3.16172 0
M  V30 184 C 17.5161 4.2765 4.57019 0
M  V30 185 H 17.7491 2.52427 1.5706 0
M  V30 186 H 15.2821 1.36982 0.712417 0
M  V30 187 H 17.2401 1.46992 3.8328 0
M  V30 188 H 15.9011 0.569167 3.089 0
M  V30 189 H 15.0941 2.61374 4.30929 0
M  V30 190 H 14.6961 2.70938 2.57815 0
M  V30 191 H 16.9881 3.97618 5.48549 0
M  V30 192 H 17.9311 5.28797 4.70934 0
M  V30 193 H 18.3391 3.5811 4.36368 0
M  V30 194 N 17.7372 -0.778329 1.37039 0
M  V30 195 C 18.9852 -1.53361 1.31623 0
M  V30 196 C 19.3062 -1.94739 -0.100831 0
M  V30 197 O 18.5762 -1.65797 -1.04347 0
M  V30 198 H 17.1562 -0.568794 0.484234 0
M  V30 199 H 19.8182 -0.926742 1.71457 0
M  V30 200 H 18.9142 -2.43606 1.95096 0
M  V30 201 N 19.2153 -1.21501 -1.00376 0
M  V30 202 C 20.1453 -0.999478 -2.11028 0
M  V30 203 C 21.1263 0.0759671 -1.6993 0
M  V30 204 O 22.3113 -0.0841106 -1.94018 0
M  V30 205 C 19.4413 -0.564709 -3.42678 0
M  V30 206 C 18.3953 -1.58486 -3.97576 0
M  V30 207 C 17.7213 -1.00628 -5.25146 0
M  V30 208 C 19.0213 -2.97204 -4.29496 0
M  V30 209 H 20.7153 -1.92495 -2.29317 0
M  V30 210 H 18.2613 -0.92693 -1.102 0
M  V30 211 H 20.2143 -0.401091 -4.19487 0
M  V30 212 H 18.9383 0.396411 -3.24185 0
M  V30 213 H 17.5973 -1.73606 -3.22888 0
M  V30 214 H 17.2453 -0.0368439 -5.02987 0
M  V30 215 H 16.9453 -1.68771 -5.62841 0
M  V30 216 H 18.4693 -0.854015 -6.04598 0
M  V30 217 H 19.8833 -2.8552 -4.97143 0
M  V30 218 H 18.2803 -3.62372 -4.78338 0
M  V30 219 H 19.3503 -3.47956 -3.3772 0
M  V30 220 N 20.6934 1.19889 -1.02296 0
M  V30 221 C 21.6564 2.21116 -0.603351 0
M  V30 222 C 22.6564 1.5738 0.329884 0
M  V30 223 O 23.8464 1.73802 0.117702 0
M  V30 224 C 20.9784 3.40696 0.117992 0
M  V30 225 H 22.1714 2.59754 -1.49893 0
M  V30 226 H 19.7244 1.33463 -0.813468 0
M  V30 227 H 20.4594 3.07569 1.0282 0
M  V30 228 H 20.2444 3.88188 -0.552511 0
M  V30 229 H 21.7344 4.15692 0.398696 0
M  V30 230 N 22.1715 0.800033 1.35784 0
M  V30 231 C 23.1015 0.220184 2.3246 0
M  V30 232 C 24.0825 -0.65073 1.57161 0
M  V30 233 O 25.2675 -0.582359 1.85263 0
M  V30 234 C 22.3975 -0.637353 3.41402 0
M  V30 235 C 21.3515 0.134531 4.27789 0
M  V30 236 C 20.6775 -0.844285 5.27992 0
M  V30 237 C 21.9775 1.32979 5.05088 0
M  V30 238 H 23.6715 1.02787 2.81203 0
M  V30 239 H 21.2175 0.495717 1.35199 0
M  V30 240 H 23.1705 -1.05302 4.08031 0
M  V30 241 H 21.8945 -1.47785 2.91251 0
M  V30 242 H 20.5535 0.531296 3.6273 0
M  V30 243 H 20.2015 -1.68011 4.74111 0
M  V30 244 H 19.9015 -0.332184 5.8666 0
M  V30 245 H 21.4255 -1.2583 5.97494 0
M  V30 246 H 22.8395 0.98934 5.64699 0
M  V30 247 H 21.2365 1.77593 5.7322 0
M  V30 248 H 22.3065 2.11978 4.36111 0
M  V30 249 N 23.6496 -1.47581 0.552962 0
M  V30 250 C 24.8966 -2.02482 0.0273243 0
M  V30 251 C 25.2246 -1.42776 -1.32081 0
M  V30 252 O 24.4796 -0.571393 -1.87173 0
M  V30 253 C 24.7786 -3.57199 -0.119728 0
M  V30 254 C 24.4446 -4.35804 1.15697 0
M  V30 255 C 23.1066 -4.57 1.50681 0
M  V30 256 C 25.4586 -4.81167 2.00319 0
M  V30 257 C 22.7866 -5.20807 2.70142 0
M  V30 258 C 25.1386 -5.46293 3.18978 0
M  V30 259 C 23.8026 -5.65722 3.54281 0
M  V30 260 H 23.0726 -0.740933 0.00999866 0
M  V30 261 H 25.7196 -1.77302 0.72362 0
M  V30 262 H 24.0246 -3.81348 -0.89896 0
M  V30 263 H 25.7216 -3.97324 -0.541718 0
M  V30 264 H 22.3116 -4.19582 0.874561 0
M  V30 265 H 26.4956 -4.64574 1.74599 0
M  V30 266 H 21.7516 -5.34045 2.97668 0
M  V30 267 H 25.9256 -5.80407 3.84838 0
M  V30 268 H 23.5526 -6.14936 4.46942 0
M  V30 269 N 25.1277 -0.289203 -1.54924 0
M  V30 270 C 26.5437 0.0645403 -1.59469 0
M  V30 271 C 26.7437 1.53419 -1.30632 0
M  V30 272 O 25.7997 2.2852 -1.074 0
M  V30 273 C 27.1127 -0.32278 -2.98963 0
M  V30 274 C 28.6607 -0.270564 -3.11828 0
M  V30 275 C 29.1357 -0.632532 -4.53611 0
M  V30 276 N 30.6267 -0.584617 -4.59496 0
M  V30 277 C 31.3617 -0.837314 -5.67254 0
M  V30 278 N 30.8577 -1.15536 -6.83098 0
M  V30 279 N 32.6507 -0.765166 -5.56868 0
M  V30 280 H 24.8017 -1.24714 -1.71931 0
M  V30 281 H 27.0647 -0.504809 -0.802416 0
M  V30 282 H 26.7707 -1.34541 -3.24948 0
M  V30 283 H 26.6447 0.32944 -3.75759 0
M  V30 284 H 29.0317 0.742805 -2.85598 0
M  V30 285 H 29.1127 -0.957242 -2.37214 0
M  V30 286 H 28.7567 -1.64365 -4.80569 0
M  V30 287 H 28.6867 0.07609 -5.26545 0
M  V30 288 H 31.1777 -0.349248 -3.76283 0
M  V30 289 H 31.4907 -1.33447 -7.61191 0
M  V30 290 H 29.8357 -1.19328 -6.84679 0
M  V30 291 H 33.0267 -0.516432 -4.65243 0
M  V30 292 H 33.1997 -0.965477 -6.40767 0
M  V30 293 N 26.6058 1.57591 -0.0167156 0
M  V30 294 C 27.5538 2.10604 0.987353 0
M  V30 295 C 28.5478 1.02977 1.34507 0
M  V30 296 O 29.7538 1.21425 1.32875 0
M  V30 297 H 26.1288 0.672695 0.336134 0
M  V30 298 H 28.0998 2.93925 0.514817 0
M  V30 299 C 26.8488 2.6382 2.26483 0
M  V30 300 H 26.1718 3.46278 1.99829 0
M  V30 301 H 27.6118 3.04573 2.94977 0
M  V30 302 C 26.0708 1.55992 2.9861 0
M  V30 303 O 26.6008 0.952521 3.90243 0
M  V30 304 N 24.8068 1.28335 2.60727 0
M  V30 305 H 24.3538 1.77914 1.86291 0
M  V30 306 H 24.3118 0.564115 3.09298 0
M  V30 307 N 28.0839 -0.256276 1.55502 0
M  V30 308 C 29.0339 -1.31981 1.85916 0
M  V30 309 C 30.0179 -1.43927 0.719296 0
M  V30 310 O 31.2099 -1.47326 0.981019 0
M  V30 311 C 28.3389 -2.67703 2.14918 0
M  V30 312 C 27.4249 -2.59801 3.35208 0
M  V30 313 N 27.8159 -2.21524 4.54709 0
M  V30 314 C 26.1139 -2.90832 3.38131 0
M  V30 315 C 26.8149 -2.24024 5.36832 0
M  V30 316 N 25.7909 -2.63158 4.75656 0
M  V30 317 H 29.5929 -1.01423 2.75845 0
M  V30 318 H 27.1069 -0.464911 1.55603 0
M  V30 319 H 29.1039 -3.44445 2.34869 0
M  V30 320 H 27.7639 -2.99137 1.26282 0
M  V30 321 H 28.7749 -1.93223 4.80505 0
M  V30 322 H 25.4519 -3.26867 2.59739 0
M  V30 323 H 26.8419 -1.9685 6.42417 0
M  V30 324 N 29.562 -1.4872 -0.521534 0
M  V30 325 C 30.494 -1.59968 -1.64143 0
M  V30 326 C 31.507 -0.483463 -1.55456 0
M  V30 327 O 32.696 -0.75467 -1.61762 0
M  V30 328 C 29.796 -1.52127 -3.02838 0
M  V30 329 C 28.969 -2.78932 -3.36921 0
M  V30 330 C 28.028 -2.64428 -4.54933 0
M  V30 331 O 27.054 -3.38331 -4.57735 0
M  V30 332 N 28.256 -1.74606 -5.53618 0
M  V30 333 H 31.021 -2.56548 -1.54929 0
M  V30 334 H 28.582 -1.45551 -0.708988 0
M  V30 335 H 30.574 -1.40106 -3.79674 0
M  V30 336 H 29.144 -0.634868 -3.06085 0
M  V30 337 H 28.364 -3.05455 -2.4918 0
M  V30 338 H 29.652 -3.63041 -3.56481 0
M  V30 339 H 29.05 -1.13782 -5.54139 0
M  V30 340 H 27.607 -1.6852 -6.29638 0
M  V30 341 N 31.0401 0.771051 -1.3745 0
M  V30 342 C 32.2651 1.56529 -1.36065 0
M  V30 343 C 32.6901 1.88029 0.0515859 0
M  V30 344 O 32.0481 1.49282 1.02882 0
M  V30 345 C 32.0961 2.85187 -2.20683 0
M  V30 346 O 31.2001 3.79593 -1.61193 0
M  V30 347 H 30.5411 0.47411 -0.464883 0
M  V30 348 H 33.0711 0.954269 -1.80983 0
M  V30 349 H 33.0811 3.34283 -2.33921 0
M  V30 350 H 31.7561 2.61588 -3.23334 0
M  V30 351 H 30.3331 3.38239 -1.56999 0
M  V30 352 N 32.5182 1.22032 0.997298 0
M  V30 353 C 33.7432 1.06921 1.77715 0
M  V30 354 C 34.1682 -0.376226 1.84299 0
M  V30 355 O 33.5262 -1.27165 1.29223 0
M  V30 356 C 33.5742 1.67996 3.19076 0
M  V30 357 O 32.6782 0.930653 4.01762 0
M  V30 358 H 32.0192 0.375814 0.547412 0
M  V30 359 H 34.5492 1.61737 1.25309 0
M  V30 360 H 34.5592 1.72538 3.69723 0
M  V30 361 H 33.2342 2.73182 3.13599 0
M  V30 362 H 31.8112 0.960917 3.60307 0
M  V30 363 N 33.9963 -1.19345 1.0293 0
M  V30 364 C 35.2263 -1.92717 0.744563 0
M  V30 365 C 35.6343 -1.75751 -0.700579 0
M  V30 366 O 34.9773 -1.07703 -1.48815 0
M  V30 367 C 35.0393 -3.44828 1.01657 0
M  V30 368 C 34.7033 -3.85564 2.45335 0
M  V30 369 C 35.7003 -3.90286 3.43472 0
M  V30 370 C 33.3853 -4.1719 2.79746 0
M  V30 371 C 35.3793 -4.26065 4.74075 0
M  V30 372 C 33.0663 -4.52642 4.10559 0
M  V30 373 C 34.0643 -4.57054 5.07534 0
M  V30 374 O 33.7523 -4.91685 6.36004 0
M  V30 375 H 33.4843 -0.618977 0.271742 0
M  V30 376 H 36.0383 -1.52415 1.37691 0
M  V30 377 H 34.2683 -3.85314 0.327084 0
M  V30 378 H 35.9573 -3.99437 0.721427 0
M  V30 379 H 36.7233 -3.66002 3.18225 0
M  V30 380 H 32.6023 -4.1294 2.04943 0
M  V30 381 H 36.1463 -4.29423 5.49765 0
M  V30 382 H 32.0433 -4.76383 4.35579 0
M  V30 383 H 32.8113 -5.09631 6.40483 0
M  V30 384 N 35.4744 -0.807222 -1.35358 0
M  V30 385 C 36.4064 -0.175717 -2.28525 0
M  V30 386 C 37.4194 0.625354 -1.5031 0
M  V30 387 O 38.6084 0.457611 -1.72535 0
M  V30 388 C 35.7084 0.773471 -3.29956 0
M  V30 389 C 34.8814 0.0186296 -4.37396 0
M  V30 390 C 33.9404 0.886395 -5.18681 0
M  V30 391 O 32.9664 0.337106 -5.68201 0
M  V30 392 N 34.1684 2.20839 -5.36852 0
M  V30 393 H 36.9334 -0.976091 -2.83359 0
M  V30 394 H 34.4944 -0.662737 -1.47714 0
M  V30 395 H 36.4864 1.35824 -3.81227 0
M  V30 396 H 35.0564 1.47465 -2.75632 0
M  V30 397 H 34.2764 -0.747349 -3.87051 0
M  V30 398 H 35.5644 -0.501577 -5.06322 0
M  V30 399 H 34.9624 2.67858 -4.98265 0
M  V30 400 H 33.5194 2.74237 -5.91301 0
M  V30 401 N 36.9525 1.47285 -0.560781 0
M  V30 402 C 38.1805 2.06855 -0.0430262 0
M  V30 403 C 38.5955 1.41291 1.25229 0
M  V30 404 O 37.9525 0.510648 1.7521 0
M  V30 405 C 38.0035 3.61178 0.152518 0
M  V30 406 O 37.7245 4.24285 -1.0915 0
M  V30 407 C 39.2255 4.37624 0.707145 0
M  V30 408 H 36.4455 0.669319 -0.0474652 0
M  V30 409 H 38.9895 1.89237 -0.77521 0
M  V30 410 H 37.1445 3.78298 0.834843 0
M  V30 411 H 37.5585 5.16868 -0.891482 0
M  V30 412 H 39.0325 5.46271 0.793244 0
M  V30 413 H 39.5095 4.04152 1.71923 0
M  V30 414 H 40.1155 4.25257 0.0604027 0
M  V30 415 N 38.4306 0.297415 1.54768 0
M  V30 416 C 39.8466 -0.0560823 1.59501 0
M  V30 417 C 40.0466 -1.52725 1.31444 0
M  V30 418 O 39.1026 -2.27947 1.08611 0
M  V30 419 C 40.4156 0.338631 2.98787 0
M  V30 420 C 41.9636 0.287097 3.11681 0
M  V30 421 C 42.4386 0.656579 4.53269 0
M  V30 422 N 43.9296 0.608977 4.59179 0
M  V30 423 C 44.6646 0.867385 5.66802 0
M  V30 424 N 44.1606 1.19157 6.82476 0
M  V30 425 N 45.9536 0.794687 5.56454 0
M  V30 426 H 38.1046 1.25624 1.71267 0
M  V30 427 H 40.3676 0.509057 0.799728 0
M  V30 428 H 40.0736 1.36263 3.2423 0
M  V30 429 H 39.9476 -0.309508 3.75928 0
M  V30 430 H 42.3346 -0.727649 2.85988 0
M  V30 431 H 42.4156 0.969809 2.36703 0
M  V30 432 H 42.0596 1.66912 4.7969 0
M  V30 433 H 41.9896 -0.0481649 5.26578 0
M  V30 434 H 44.4806 0.369198 3.76092 0
M  V30 435 H 44.7936 1.37482 7.60473 0
M  V30 436 H 43.1386 1.22958 6.84037 0
M  V30 437 H 46.3296 0.541098 4.64962 0
M  V30 438 H 46.5026 0.999445 6.40246 0
M  V30 439 N 39.9087 -1.5758 0.0250728 0
M  V30 440 C 40.8387 -2.13007 -0.956575 0
M  V30 441 C 41.8197 -1.0452 -1.342 0
M  V30 442 O 43.0047 -1.32332 -1.42133 0
M  V30 443 C 40.1347 -2.65386 -2.24026 0
M  V30 444 C 39.0887 -3.78623 -1.99571 0
M  V30 445 C 38.4147 -4.17414 -3.3417 0
M  V30 446 C 39.7147 -5.04867 -1.33814 0
M  V30 447 H 41.4087 -2.9528 -0.494991 0
M  V30 448 H 38.9547 -1.42042 -0.236651 0
M  V30 449 H 40.9077 -3.02794 -2.93076 0
M  V30 450 H 39.6317 -1.80268 -2.72343 0
M  V30 451 H 38.2907 -3.41646 -1.32941 0
M  V30 452 H 37.9387 -3.29284 -3.80238 0
M  V30 453 H 37.6387 -4.93719 -3.18615 0
M  V30 454 H 39.1627 -4.57402 -4.04495 0
M  V30 455 H 40.5767 -5.39888 -1.92857 0
M  V30 456 H 38.9737 -5.86144 -1.28669 0
M  V30 457 H 40.0437 -4.83904 -0.310561 0
M  V30 458 N 41.3868 0.248026 -1.55636 0
M  V30 459 C 42.3348 1.32683 -1.91045 0
M  V30 460 C 43.3288 1.49883 -0.789401 0
M  V30 461 O 44.5348 1.51371 -0.974007 0
M  V30 462 H 40.9098 0.444272 -0.606734 0
M  V30 463 H 42.8808 1.00085 -2.81115 0
M  V30 464 C 41.6298 2.6755 -2.22064 0
M  V30 465 H 40.9528 2.55114 -3.07826 0
M  V30 466 H 42.3928 3.41912 -2.50743 0
M  V30 467 C 40.8518 3.20556 -1.0366 0
M  V30 468 O 41.3818 4.00695 -0.284016 0
M  V30 469 N 39.5878 2.78568 -0.82753 0
M  V30 470 H 39.1348 2.1351 -1.44123 0
M  V30 471 H 39.0928 3.14378 -0.0369803 0
M  V30 472 N 42.8649 1.48995 0.513639 0
M  V30 473 C 43.8279 1.64229 1.59879 0
M  V30 474 C 44.8279 0.514696 1.5234 0
M  V30 475 O 46.0179 0.78087 1.55718 0
M  V30 476 C 43.1499 1.62783 2.99524 0
M  V30 477 H 44.3429 2.61004 1.47705 0
M  V30 478 H 41.8959 1.37837 0.736936 0
M  V30 479 H 42.6309 0.675461 3.17188 0
M  V30 480 H 42.4159 2.4466 3.06404 0
M  V30 481 H 43.9059 1.76669 3.78388 0
M  V30 482 N 44.343 -0.763751 1.37857 0
M  V30 483 C 45.273 -1.89103 1.36975 0
M  V30 484 C 46.254 -1.68439 0.237152 0
M  V30 485 O 47.439 -1.8918 0.438713 0
M  V30 486 C 44.569 -3.26496 1.18395 0
M  V30 487 C 43.523 -3.61741 2.28751 0
M  V30 488 C 42.849 -4.97762 1.95286 0
M  V30 489 C 44.149 -3.67665 3.70972 0
M  V30 490 H 45.843 -1.90099 2.31307 0
M  V30 491 H 43.389 -0.91319 1.11341 0
M  V30 492 H 45.342 -4.05003 1.16406 0
M  V30 493 H 44.066 -3.25955 0.205215 0
M  V30 494 H 42.725 -2.85547 2.29909 0
M  V30 495 H 42.373 -4.93769 0.959221 0
M  V30 496 H 42.073 -5.22313 2.69189 0
M  V30 497 H 43.597 -5.7866 1.94898 0
M  V30 498 H 45.011 -4.36307 3.719 0
M  V30 499 H 43.408 -4.03718 4.43995 0
M  V30 500 H 44.478 -2.68134 4.0402 0
M  V30 501 N 45.8211 -1.22559 -0.990812 0
M  V30 502 C 47.2371 -0.985996 -1.255 0
M  V30 503 C 47.4371 0.319173 -1.98956 0
M  V30 504 O 46.4931 1.04127 -2.3003 0
M  V30 505 C 47.8061 -2.18607 -2.06474 0
M  V30 506 C 49.3541 -2.22985 -2.19651 0
M  V30 507 C 49.8291 -3.4255 -3.04012 0
M  V30 508 N 51.3201 -3.42725 -3.11599 0
M  V30 509 C 52.0551 -4.31892 -3.7717 0
M  V30 510 N 51.5511 -5.31279 -4.44651 0
M  V30 511 N 53.3441 -4.19662 -3.73952 0
M  V30 512 H 45.4951 -2.06469 -0.49841 0
M  V30 513 H 47.7581 -0.904853 -0.282747 0
M  V30 514 H 47.4641 -3.13267 -1.59865 0
M  V30 515 H 47.3381 -2.18838 -3.07229 0
M  V30 516 H 49.7251 -1.28871 -2.65474 0
M  V30 517 H 49.8061 -2.26791 -1.18319 0
M  V30 518 H 49.4501 -4.36965 -2.58889 0
M  V30 519 H 49.3801 -3.35984 -4.0549 0
M  V30 520 H 51.8711 -2.70807 -2.63575 0
M  V30 521 H 52.1841 -5.95593 -4.92431 0
M  V30 522 H 50.5291 -5.3519 -4.43392 0
M  V30 523 H 53.7201 -3.41268 -3.20396 0
M  V30 524 H 53.8931 -4.89358 -4.24774 0
M  V30 525 N 47.2992 1.18797 -1.03562 0
M  V30 526 C 48.2092 2.25913 -0.632505 0
M  V30 527 C 49.2252 1.70668 0.338882 0
M  V30 528 O 50.4012 2.00453 0.195076 0
M  V30 529 C 47.4662 3.467 0.00350942 0
M  V30 530 C 46.5272 4.17098 -1.01624 0
M  V30 531 C 45.7602 5.32119 -0.410478 0
M  V30 532 O 45.9832 5.64976 0.784725 0
M  V30 533 O 44.9172 5.9107 -1.13667 0
M  V30 534 H 48.7432 2.62648 -1.52478 0
M  V30 535 H 46.3282 1.25781 -0.806195 0
M  V30 536 H 48.2102 4.19878 0.35781 0
M  V30 537 H 46.8852 3.11798 0.869686 0
M  V30 538 H 45.7922 3.4601 -1.42224 0
M  V30 539 H 47.1252 4.55987 -1.85301 0
M  V30 540 N 48.7773 0.814389 1.34928 0
M  V30 541 C 50.0233 0.399013 1.98836 0
M  V30 542 C 50.3563 -1.03314 1.64438 0
M  V30 543 O 49.6313 -1.71811 0.911659 0
M  V30 544 C 49.9143 0.591629 3.55207 0
M  V30 545 C 49.7673 2.06928 3.99376 0
M  V30 546 C 51.0863 0.022199 4.40094 0
M  V30 547 H 48.2053 0.146451 0.722303 0
M  V30 548 H 50.8473 1.02537 1.59957 0
M  V30 549 H 48.9973 0.0584441 3.88456 0
M  V30 550 H 50.6693 2.66544 3.76499 0
M  V30 551 H 48.9123 2.56287 3.49999 0
M  V30 552 H 49.5833 2.1549 5.08201 0
M  V30 553 H 52.0593 0.477643 4.13349 0
M  V30 554 H 50.9353 0.186832 5.48582 0
M  V30 555 H 51.1963 -1.07215 4.28902 0
M  V30 556 N 50.2554 -1.46986 0.568584 0
M  V30 557 C 51.1874 -2.28233 -0.210337 0
M  V30 558 C 52.2004 -1.37682 -0.868767 0
M  V30 559 O 53.3894 -1.62406 -0.740705 0
M  V30 560 C 50.4894 -3.12293 -1.3163 0
M  V30 561 C 49.6624 -4.30878 -0.7525 0
M  V30 562 C 48.7214 -4.96445 -1.74439 0
M  V30 563 O 47.7474 -5.54482 -1.286 0
M  V30 564 N 48.9494 -4.92171 -3.07812 0
M  V30 565 H 51.7144 -2.95723 0.486648 0
M  V30 566 H 49.2754 -1.56742 0.405409 0
M  V30 567 H 51.2674 -3.53022 -1.97883 0
M  V30 568 H 49.8374 -2.46971 -1.91636 0
M  V30 569 H 49.0574 -3.94104 0.0871128 0
M  V30 570 H 50.3454 -5.07558 -0.35536 0
M  V30 571 H 49.7434 -4.46239 -3.47688 0
M  V30 572 H 48.3004 -5.36884 -3.69592 0
M  V30 573 N 51.7335 -0.305618 -1.54608 0
M  V30 574 C 53.1445 0.186098 -1.8577 0
M  V30 575 C 53.4955 1.53058 -1.22751 0
M  V30 576 O 52.6205 2.09888 -0.526893 0
M  V30 577 C 53.2155 0.344449 -3.37044 0
M  V30 578 C 51.7745 0.780384 -3.68221 0
M  V30 579 C 50.9215 -0.108554 -2.77087 0
M  V30 580 H 53.8725 -0.526485 -1.49712 0
M  V30 581 H 53.8935 1.17828 -3.61796 0
M  V30 582 H 53.4055 -0.634235 -3.82883 0
M  V30 583 H 51.5065 1.76945 -3.27904 0
M  V30 584 H 51.6195 0.596572 -4.75371 0
M  V30 585 H 49.9835 0.412931 -2.5133 0
M  V30 586 H 50.7665 -1.08368 -3.25747 0
M  V30 587 N 53.2116 1.57565 -0.0334293 0
M  V30 588 C 54.4576 1.92262 0.645226 0
M  V30 589 C 54.7906 0.910543 1.71531 0
M  V30 590 O 54.0656 -0.066099 1.94388 0
M  V30 591 C 54.3486 3.37422 1.2577 0
M  V30 592 C 54.2016 4.49369 0.196891 0
M  V30 593 C 55.5206 3.82628 2.17449 0
M  V30 594 H 52.6396 0.699171 0.233085 0
M  V30 595 H 55.2816 1.89779 -0.0915694 0
M  V30 596 H 53.4316 3.39669 1.88566 0
M  V30 597 H 55.1036 4.59254 -0.433962 0
M  V30 598 H 53.3466 4.31168 -0.477137 0
M  V30 599 H 54.0176 5.47978 0.665124 0
M  V30 600 H 56.4936 3.82145 1.64634 0
M  V30 601 H 55.3696 4.84883 2.57254 0
M  V30 602 H 55.6306 3.18376 3.0674 0
M  V30 603 N 54.6897 -0.239769 1.55765 0
M  V30 604 C 55.5997 -1.31831 1.94056 0
M  V30 605 C 56.6157 -1.52275 0.841925 0
M  V30 606 O 57.7917 -1.65759 1.14394 0
M  V30 607 C 54.8567 -2.65156 2.23368 0
M  V30 608 C 53.9177 -2.53173 3.46701 0
M  V30 609 C 53.1507 -3.8014 3.74606 0
M  V30 610 O 53.3737 -4.82343 3.04469 0
M  V30 611 O 52.3077 -3.78344 4.68123 0
M  V30 612 H 56.1337 -1.02347 2.85935 0
M  V30 613 H 53.7187 -0.441123 1.42739 0
M  V30 614 H 55.6007 -3.43929 2.43497 0
M  V30 615 H 54.2757 -2.94358 1.34666 0
M  V30 616 H 53.1827 -1.72662 3.31871 0
M  V30 617 H 54.5157 -2.28915 4.35728 0
M  V30 618 N 56.1678 -1.49265 -0.50573 0
M  V30 619 C 57.0978 -1.68495 -1.61653 0
M  V30 620 C 58.0788 -0.53366 -1.61512 0
M  V30 621 O 59.2638 -0.76897 -1.78327 0
M  V30 622 C 56.3938 -1.74709 -3.00157 0
M  V30 623 C 55.3478 -2.89581 -3.15162 0
M  V30 624 C 54.6738 -2.80903 -4.5497 0
M  V30 625 C 55.9738 -4.30578 -2.95634 0
M  V30 626 H 57.6678 -2.61493 -1.45814 0
M  V30 627 H 55.2138 -1.25838 -0.70005 0
M  V30 628 H 57.1668 -1.86748 -3.77761 0
M  V30 629 H 55.8908 -0.783067 -3.17074 0
M  V30 630 H 54.5498 -2.77136 -2.39982 0
M  V30 631 H 54.1978 -1.82419 -4.68756 0
M  V30 632 H 53.8978 -3.57999 -4.65951 0
M  V30 633 H 55.4218 -2.94944 -5.34641 0
M  V30 634 H 56.8358 -4.4373 -3.63011 0
M  V30 635 H 55.2328 -5.0886 -3.18091 0
M  V30 636 H 56.3028 -4.45352 -1.91806 0
M  V30 637 N 57.6459 0.756429 -1.3826 0
M  V30 638 C 59.0569 1.33359 -1.30661 0
M  V30 639 C 59.4079 1.96161 0.0388875 0
M  V30 640 O 58.5329 1.94874 0.940918 0
M  V30 641 C 59.1279 2.42477 -2.36622 0
M  V30 642 C 57.6869 2.95922 -2.3261 0
M  V30 643 C 56.8339 1.69275 -2.19639 0
M  V30 644 H 59.7849 0.55552 -1.4866 0
M  V30 645 H 59.8059 3.22345 -2.02174 0
M  V30 646 H 59.3179 1.96739 -3.34538 0
M  V30 647 H 57.4189 3.45996 -1.38267 0
M  V30 648 H 57.5319 3.50494 -3.26636 0
M  V30 649 H 55.8959 1.92793 -1.66442 0
M  V30 650 H 56.6789 1.25619 -3.19491 0
M  V30 651 N 59.124 1.23083 0.984299 0
M  V30 652 C 60.072 1.00593 2.09723 0
M  V30 653 C 61.066 -0.0538014 1.69315 0
M  V30 654 O 62.272 0.0993719 1.79725 0
M  V30 655 H 58.647 0.30817 0.685956 0
M  V30 656 H 60.618 1.95012 2.2586 0
M  V30 657 C 59.367 0.609601 3.42314 0
M  V30 658 H 58.69 1.41675 3.73856 0
M  V30 659 H 60.13 0.491726 4.21139 0
M  V30 660 C 58.589 -0.681745 3.2993 0
M  V30 661 O 59.119 -1.73192 3.62446 0
M  V30 662 N 57.325 -0.656178 2.83095 0
M  V30 663 H 56.872 0.198759 2.56832 0
M  V30 664 H 56.83 -1.52044 2.75191 0
M  V30 665 N 60.6021 -1.18246 1.0419 0
M  V30 666 C 61.8421 -1.89948 0.754916 0
M  V30 667 C 62.2061 -1.78608 -0.70451 0
M  V30 668 O 63.4071 -2.4503 -1.10516 0
M  V30 669 C 61.6781 -3.36305 1.20969 0
M  V30 670 S 63.2371 -4.26088 1.04854 0
M  V30 671 H 60.0551 -0.655897 0.274446 0
M  V30 672 H 62.6571 -1.42873 1.33445 0
M  V30 673 H 61.3611 -3.42089 2.26722 0
M  V30 674 H 60.8921 -3.8842 0.624004 0
M  V30 675 H 62.9071 -4.96189 -0.0332896 0
M  V30 676 N 62.0802 -0.821533 -1.34494 0
M  V30 677 C 63.0282 -0.230702 -2.31453 0
M  V30 678 C 64.0222 0.627793 -1.57338 0
M  V30 679 O 65.2282 0.519288 -1.72347 0
M  V30 680 H 61.6032 -0.0558577 -0.749923 0
M  V30 681 H 63.5742 -1.06332 -2.78812 0
M  V30 682 C 62.3232 0.59391 -3.4259 0
M  V30 683 H 61.6462 -0.0573588 -3.99759 0
M  V30 684 H 63.0862 0.973446 -4.12674 0
M  V30 685 C 61.5452 1.76568 -2.86924 0
M  V30 686 O 62.0752 2.8638 -2.81691 0
M  V30 687 N 60.2812 1.58198 -2.43766 0
M  V30 688 H 59.8282 0.68872 -2.48222 0
M  V30 689 H 59.7862 2.36752 -2.06871 0
M  V30 690 N 63.5583 1.46682 -0.576371 0
M  V30 691 C 64.4883 2.33028 0.148397 0
M  V30 692 C 65.4693 1.44961 0.889956 0
M  V30 693 O 66.6543 1.73789 0.866662 0
M  V30 694 C 63.7843 3.27117 1.1667 0
M  V30 695 C 62.7383 4.24575 0.540386 0
M  V30 696 C 62.0643 5.08126 1.6647 0
M  V30 697 C 63.3643 5.19722 -0.518331 0
M  V30 698 H 65.0583 2.93875 -0.572509 0
M  V30 699 H 62.6043 1.41315 -0.276768 0
M  V30 700 H 64.5573 3.86374 1.68204 0
M  V30 701 H 63.2813 2.64364 1.9178 0
M  V30 702 H 61.9403 3.66571 0.0461769 0
M  V30 703 H 61.5883 4.41762 2.40531 0
M  V30 704 H 61.2883 5.74122 1.25131 0
M  V30 705 H 62.8123 5.70246 2.18293 0
M  V30 706 H 64.2263 5.73232 -0.0883058 0
M  V30 707 H 62.6233 5.94026 -0.851679 0
M  V30 708 H 63.6933 4.64037 -1.40703 0
M  V30 709 N 65.0364 0.313813 1.54444 0
M  V30 710 C 66.2824 -0.292108 2.00685 0
M  V30 711 C 66.6154 -1.52548 1.20177 0
M  V30 712 O 65.8904 -1.92452 0.281531 0
M  V30 713 C 66.1734 -0.635968 3.5444 0
M  V30 714 C 66.0264 0.607437 4.4568 0
M  V30 715 C 67.3454 -1.45747 4.15266 0
M  V30 716 H 64.4644 -0.104697 0.729526 0
M  V30 717 H 67.1064 0.428457 1.85106 0
M  V30 718 H 65.2564 -1.24986 3.67846 0
M  V30 719 H 66.9284 1.24581 4.44159 0
M  V30 720 H 65.1714 1.23822 4.15753 0
M  V30 721 H 65.8424 0.322515 5.51057 0
M  V30 722 H 68.3184 -0.938645 4.05375 0
M  V30 723 H 67.1944 -1.66683 5.2298 0
M  V30 724 H 67.4554 -2.45063 3.67963 0
M  V30 725 N 66.5145 -1.57545 0.0417849 0
M  V30 726 C 67.4615 -2.10977 -0.935805 0
M  V30 727 C 68.4315 -1.01486 -1.31491 0
M  V30 728 O 69.6165 -1.2898 -1.40602 0
M  V30 729 C 66.7565 -2.65169 -2.2086 0
M  V30 730 C 65.8695 -3.88714 -1.88482 0
M  V30 731 C 65.0045 -4.31254 -3.1015 0
M  V30 732 C 64.0435 -5.47524 -2.7365 0
M  V30 733 N 63.1805 -5.85162 -3.87982 0
M  V30 734 H 68.0205 -2.94218 -0.473249 0
M  V30 735 H 65.5575 -1.45415 -0.221981 0
M  V30 736 H 67.5155 -2.94685 -2.95325 0
M  V30 737 H 66.1455 -1.8474 -2.64709 0
M  V30 738 H 65.1975 -3.65849 -1.04205 0
M  V30 739 H 66.5095 -4.73245 -1.57608 0
M  V30 740 H 65.6635 -4.62273 -3.92923 0
M  V30 741 H 64.4025 -3.45516 -3.44195 0
M  V30 742 H 63.4075 -5.16187 -1.89291 0
M  V30 743 H 64.6325 -6.34971 -2.40807 0
M  V30 744 H 62.5785 -5.02377 -4.21846 0
M  V30 745 H 62.4955 -6.64362 -3.60775 0
M  V30 746 H 63.7635 -6.20791 -4.71422 0
M  V30 747 N 67.9926 0.231505 -1.5589 0
M  V30 748 C 69.2406 0.955461 -1.78088 0
M  V30 749 C 69.5616 1.85262 -0.608533 0
M  V30 750 O 68.8316 1.92277 0.375035 0
M  V30 751 H 67.4116 0.355787 -0.656829 0
M  V30 752 H 70.0736 0.245751 -1.93344 0
M  V30 753 H 69.1696 1.56814 -2.69844 0
M  V30 754 N 69.4707 1.49531 0.497807 0
M  V30 755 C 70.7197 1.58426 1.24837 0
M  V30 756 C 71.0327 0.277643 1.93619 0
M  V30 757 O 72.2387 0.24517 2.70391 0
M  V30 758 C 70.6947 2.79538 2.26686 0
M  V30 759 C 70.3027 4.16971 1.63828 0
M  V30 760 C 72.0467 2.97764 3.0255 0
M  V30 761 C 69.9537 5.29301 2.63807 0
M  V30 762 H 68.8837 0.58989 0.469623 0
M  V30 763 H 71.5347 1.75923 0.521857 0
M  V30 764 H 69.9167 2.55542 3.02514 0
M  V30 765 H 71.0907 4.51116 0.939711 0
M  V30 766 H 69.4057 4.04129 1.00342 0
M  V30 767 H 72.0027 3.78856 3.77323 0
M  V30 768 H 72.3457 2.08448 3.60354 0
M  V30 769 H 72.8787 3.21815 2.33838 0
M  V30 770 H 69.6177 6.20687 2.10779 0
M  V30 771 H 69.1377 4.99606 3.31894 0
M  V30 772 H 70.8167 5.58768 3.2617 0
M  V30 773 N 70.9488 -0.749086 1.3866 0
M  V30 774 C 71.8588 -1.89358 1.38494 0
M  V30 775 C 72.8748 -1.71708 0.281476 0
M  V30 776 O 74.0508 -1.94554 0.520643 0
M  V30 777 C 71.1158 -3.24782 1.21316 0
M  V30 778 C 70.1768 -3.54926 2.41508 0
M  V30 779 C 69.4098 -4.83888 2.2514 0
M  V30 780 O 69.6328 -5.56592 1.24746 0
M  V30 781 O 68.5668 -5.13612 3.13826 0
M  V30 782 H 72.3928 -1.92452 2.34938 0
M  V30 783 H 69.9778 -0.894981 1.19626 0
M  V30 784 H 71.8598 -4.05739 1.13814 0
M  V30 785 H 70.5348 -3.2249 0.279592 0
M  V30 786 H 69.4418 -2.74112 2.54585 0
M  V30 787 H 70.7748 -3.61983 3.3351 0
M  V30 788 N 72.4269 -1.23603 -0.977757 0
M  V30 789 C 73.6549 -1.09646 -1.75458 0
M  V30 790 C 74.0699 0.351859 -1.85492 0
M  V30 791 O 73.4269 1.24327 -1.336 0
M  V30 792 C 73.4779 -1.71895 -3.18016 0
M  V30 793 O 73.1989 -3.11063 -3.08498 0
M  V30 794 C 74.6999 -1.63415 -4.12081 0
M  V30 795 H 71.9199 -0.38359 -0.550545 0
M  V30 796 H 74.4639 -1.63507 -1.22824 0
M  V30 797 H 72.6189 -1.22061 -3.67668 0
M  V30 798 H 73.0329 -3.41305 -3.9826 0
M  V30 799 H 74.5069 -2.11669 -5.09804 0
M  V30 800 H 74.9839 -0.593462 -4.35172 0
M  V30 801 H 75.5899 -2.12628 -3.68334 0
M  V30 802 N 73.905 1.17692 -1.04816 0
M  V30 803 C 75.153 1.87488 -0.754497 0
M  V30 804 C 75.474 1.81205 0.720407 0
M  V30 805 O 74.744 1.23544 1.52032 0
M  V30 806 H 73.324 0.694101 -0.276102 0
M  V30 807 H 75.986 1.42793 -1.32651 0
M  V30 808 H 75.082 2.93328 -1.06606 0
M  V30 809 N 75.3831 0.828654 1.34056 0
M  V30 810 C 76.6081 0.431637 2.02859 0
M  V30 811 C 77.0331 -0.956339 1.61975 0
M  V30 812 O 76.3911 -1.62338 0.807228 0
M  V30 813 C 76.4391 0.548323 3.56407 0
M  V30 814 O 75.5431 -0.429556 4.10157 0
M  V30 815 H 74.8841 0.176886 0.640006 0
M  V30 816 H 77.4141 1.12066 1.71179 0
M  V30 817 H 77.4241 0.426196 4.05768 0
M  V30 818 H 76.0991 1.5606 3.8551 0
M  V30 819 H 74.6761 -0.265836 3.71951 0
M  V30 820 N 76.8612 -1.46375 0.584142 0
M  V30 821 C 77.7712 -2.34115 -0.150728 0
M  V30 822 C 78.7872 -1.49838 -0.884567 0
M  V30 823 O 79.9632 -1.82704 -0.847429 0
M  V30 824 C 77.0282 -3.2705 -1.15062 0
M  V30 825 C 76.0892 -4.27228 -0.421293 0
M  V30 826 C 75.3222 -5.15722 -1.37355 0
M  V30 827 O 75.5452 -5.07176 -2.61014 0
M  V30 828 O 74.4792 -5.95383 -0.883355 0
M  V30 829 H 78.3052 -2.98309 0.569708 0
M  V30 830 H 75.8902 -1.45373 0.344535 0
M  V30 831 H 77.7722 -3.84381 -1.72712 0
M  V30 832 H 76.4472 -2.65451 -1.8525 0
M  V30 833 H 75.3542 -3.7358 0.197085 0
M  V30 834 H 76.6872 -4.91616 0.239641 0
M  V30 835 N 78.3393 -0.321999 -1.54275 0
M  V30 836 C 79.6163 0.335232 -1.92706 0
M  V30 837 C 79.9963 1.70006 -1.25145 0
M  V30 838 O 79.3443 2.25067 -0.394596 0
M  V30 839 C 79.5543 0.429008 -3.46353 0
M  V30 840 C 80.9023 0.690029 -4.18956 0
M  V30 841 O 81.9263 0.511992 -3.52501 0
M  V30 842 O 80.7853 1.03338 -5.36641 0
M  V30 843 H 77.8793 0.191143 -0.804608 0
M  V30 844 H 80.4253 -0.3716 -1.65581 0
M  V30 845 H 79.1973 -0.529611 -3.87699 0
M  V30 846 H 78.8203 1.18348 -3.79578 0
M  V30 847 N 79.8174 1.5752 -0.0501392 0
M  V30 848 C 80.7474 2.14502 0.922566 0
M  V30 849 C 81.7284 1.06642 1.3252 0
M  V30 850 O 82.9134 1.34577 1.4001 0
M  V30 851 C 80.0434 2.68916 2.19776 0
M  V30 852 C 78.9974 3.8175 1.93523 0
M  V30 853 C 78.3234 4.22677 3.27487 0
M  V30 854 C 79.6234 5.06932 1.25765 0
M  V30 855 H 81.3174 2.9603 0.447952 0
M  V30 856 H 78.8634 1.42401 0.214024 0
M  V30 857 H 80.8164 3.07419 2.88222 0
M  V30 858 H 79.5404 1.84578 2.69441 0
M  V30 859 H 78.1994 3.43718 1.27489 0
M  V30 860 H 77.8474 3.35291 3.74952 0
M  V30 861 H 77.5474 4.98725 3.1072 0
M  V30 862 H 79.0714 4.63779 3.97166 0
M  V30 863 H 80.4854 5.42888 1.84244 0
M  V30 864 H 78.8824 5.88116 1.19328 0
M  V30 865 H 79.9524 4.84337 0.233536 0
M  V30 866 N 81.2955 -0.223234 1.56011 0
M  V30 867 C 82.2055 -1.29766 1.95443 0
M  V30 868 C 83.2215 -1.51373 0.858028 0
M  V30 869 O 84.3975 -1.64536 1.16146 0
M  V30 870 C 81.4625 -2.62772 2.26167 0
M  V30 871 C 80.5235 -2.49482 3.49367 0
M  V30 872 C 79.7565 -3.76145 3.78616 0
M  V30 873 O 79.9795 -4.79087 3.09568 0
M  V30 874 O 78.9135 -3.73358 4.72109 0
M  V30 875 H 82.7395 -0.99309 2.87004 0
M  V30 876 H 80.3245 -0.425958 1.43199 0
M  V30 877 H 82.2065 -3.41327 2.47131 0
M  V30 878 H 80.8815 -2.92913 1.37781 0
M  V30 879 H 79.7885 -1.69133 3.33684 0
M  V30 880 H 81.1215 -2.2428 4.38131 0
M  V30 881 N 82.7736 -1.49793 -0.48987 0
M  V30 882 C 84.0226 -1.59085 -1.23995 0
M  V30 883 C 84.3356 -0.287907 -1.9347 0
M  V30 884 O 85.5416 -0.259506 -2.70257 0
M  V30 885 C 83.9976 -2.80736 -2.252 0
M  V30 886 C 83.6056 -4.17833 -1.61614 0
M  V30 887 C 85.3496 -2.99364 -3.00967 0
M  V30 888 C 83.2566 -5.30693 -2.60996 0
M  V30 889 H 82.1866 -0.592372 -0.466488 0
M  V30 890 H 84.8376 -1.76197 -0.51252 0
M  V30 891 H 83.2196 -2.57142 -3.01154 0
M  V30 892 H 84.3936 -4.51608 -0.915774 0
M  V30 893 H 82.7086 -4.04656 -0.981977 0
M  V30 894 H 85.3056 -3.80851 -3.75308 0
M  V30 895 H 85.6486 -2.10356 -3.59244 0
M  V30 896 H 86.1816 -3.2305 -2.32128 0
M  V30 897 H 82.9206 -6.21796 -2.07485 0
M  V30 898 H 82.4406 -5.01359 -3.2924 0
M  V30 899 H 84.1196 -5.6049 -3.23202 0
M  V30 900 N 84.2517 0.741722 -1.39055 0
M  V30 901 C 85.1817 1.869 -1.39966 0
M  V30 902 C 86.1627 1.6804 -0.26392 0
M  V30 903 O 87.3477 1.88458 -0.468755 0
M  V30 904 C 84.4777 3.24572 -1.23574 0
M  V30 905 C 83.4317 3.58056 -2.34477 0
M  V30 906 C 82.7577 4.94593 -2.0318 0
M  V30 907 C 84.0577 3.61716 -3.76774 0
M  V30 908 H 85.7517 1.86395 -2.34302 0
M  V30 909 H 83.2977 0.895361 -1.1278 0
M  V30 910 H 85.2507 4.031 -1.22834 0
M  V30 911 H 83.9747 3.25587 -0.257045 0
M  V30 912 H 82.6337 2.81854 -2.34423 0
M  V30 913 H 82.2817 4.92181 -1.03765 0
M  V30 914 H 81.9817 5.17964 -2.77465 0
M  V30 915 H 83.5057 5.75486 -2.04079 0
M  V30 916 H 84.9197 4.30335 -3.78794 0
M  V30 917 H 83.3167 3.96603 -4.50362 0
M  V30 918 H 84.3867 2.61672 -4.08235 0
M  V30 919 N 85.7298 1.2412 0.971189 0
M  V30 920 C 87.1408 1.07236 1.52831 0
M  V30 921 C 87.4918 -0.357352 1.92918 0
M  V30 922 O 86.6168 -1.24528 1.76979 0
M  V30 923 C 87.2118 1.94043 2.77728 0
M  V30 924 C 85.7708 1.81394 3.29808 0
M  V30 925 C 84.9178 1.89189 2.02738 0
M  V30 926 H 87.8688 1.37648 0.789864 0
M  V30 927 H 87.8898 1.47066 3.5093 0
M  V30 928 H 87.4018 2.98093 2.4852 0
M  V30 929 H 85.5028 0.801634 3.63874 0
M  V30 930 H 85.6158 2.65294 3.98944 0
M  V30 931 H 83.9798 1.32877 2.17292 0
M  V30 932 H 84.7628 2.94812 1.759 0
M  V30 933 N 87.2079 -1.17134 1.05439 0
M  V30 934 C 88.1559 -2.23289 0.651511 0
M  V30 935 C 89.1499 -1.66186 -0.328411 0
M  V30 936 O 90.3559 -1.78949 -0.194206 0
M  V30 937 H 86.7309 -0.726938 0.192523 0
M  V30 938 H 88.7019 -2.54565 1.55689 0
M  V30 939 C 87.4509 -3.47671 0.0448436 0
M  V30 940 H 86.7739 -3.91918 0.78996 0
M  V30 941 H 88.2139 -4.2353 -0.19964 0
M  V30 942 C 86.6729 -3.14453 -1.20918 0
M  V30 943 O 87.2029 -3.29459 -2.29825 0
M  V30 944 N 85.4089 -2.68657 -1.10779 0
M  V30 945 H 84.9559 -2.56646 -0.221526 0
M  V30 946 H 84.9139 -2.46804 -1.9477 0
M  V30 947 N 88.686 -0.835752 -1.33615 0
M  V30 948 C 89.934 -0.429109 -1.97492 0
M  V30 949 C 90.255 1.01433 -1.66543 0
M  V30 950 O 89.525 1.70611 -0.962744 0
M  V30 951 H 88.105 -0.155686 -0.730596 0
M  V30 952 H 90.767 -1.06802 -1.63031 0
M  V30 953 H 89.863 -0.55861 -3.0706 0
M  V30 954 N 90.1641 1.46063 -0.591896 0
M  V30 955 C 91.0941 2.33172 0.123673 0
M  V30 956 C 92.0751 1.45897 0.87453 0
M  V30 957 O 93.2601 1.74698 0.848181 0
M  V30 958 C 90.3901 3.28336 1.13194 0
M  V30 959 C 89.3441 4.25124 0.495324 0
M  V30 960 C 88.6701 5.09863 1.61071 0
M  V30 961 C 89.9701 5.19143 -0.573425 0
M  V30 962 H 91.6641 2.93252 -0.603646 0
M  V30 963 H 89.2101 1.41014 -0.291741 0
M  V30 964 H 91.1631 3.88137 1.64097 0
M  V30 965 H 89.8871 2.66383 1.88965 0
M  V30 966 H 88.5461 3.66599 0.00729452 0
M  V30 967 H 88.1941 4.44288 2.35832 0
M  V30 968 H 87.8941 5.75417 1.19035 0
M  V30 969 H 89.4181 5.72529 2.12233 0
M  V30 970 H 90.8321 5.73106 -0.1491 0
M  V30 971 H 89.2291 5.93089 -0.914636 0
M  V30 972 H 90.2991 4.62519 -1.45617 0
M  V30 973 N 91.6422 0.330177 1.54103 0
M  V30 974 C 92.6052 -0.520144 2.2322 0
M  V30 975 C 93.6052 -1.03828 1.22786 0
M  V30 976 O 94.7952 -0.929652 1.4732 0
M  V30 977 C 91.9272 -1.72317 2.94142 0
M  V30 978 H 93.1202 0.0841605 2.99782 0
M  V30 979 H 90.6732 0.0813433 1.56088 0
M  V30 980 H 91.4082 -2.36653 2.21734 0
M  V30 981 H 91.1932 -1.35898 3.67796 0
M  V30 982 H 92.6832 -2.3266 3.46784 0
M  V30 983 N 93.1203 -1.57491 0.0584922 0
M  V30 984 C 94.3673 -1.92978 -0.613648 0
M  V30 985 C 94.6953 -0.937461 -1.70417 0
M  V30 986 O 93.9503 0.049078 -1.95638 0
M  V30 987 C 94.2493 -3.3513 -1.24188 0
M  V30 988 C 93.9153 -4.50037 -0.278826 0
M  V30 989 C 92.5773 -4.81198 -0.0138447 0
M  V30 990 C 94.9293 -5.19807 0.380777 0
M  V30 991 C 92.2573 -5.79473 0.918052 0
M  V30 992 C 94.6093 -6.19079 1.30091 0
M  V30 993 C 93.2733 -6.48665 1.57449 0
M  V30 994 H 92.5433 -0.706157 -0.22455 0
M  V30 995 H 95.1903 -1.91082 0.126533 0
M  V30 996 H 93.4953 -3.33429 -2.05749 0
M  V30 997 H 95.1923 -3.59871 -1.769 0
M  V30 998 H 91.7823 -4.25726 -0.495539 0
M  V30 999 H 95.9663 -4.95939 0.189158 0
M  V30 1000 H 91.2223 -6.00727 1.1374 0
M  V30 1001 H 95.3963 -6.7225 1.81804 0
M  V30 1002 H 93.0233 -7.24628 2.29822 0
M  V30 1003 N 94.5984 0.214957 -1.56127 0
M  V30 1004 C 95.8474 0.936451 -1.78643 0
M  V30 1005 C 96.1604 1.85237 -0.628229 0
M  V30 1006 O 97.3664 2.613 -0.737186 0
M  V30 1007 C 95.8224 1.7154 -3.16389 0
M  V30 1008 C 95.4304 0.845299 -4.39953 0
M  V30 1009 C 97.1744 2.42772 -3.48227 0
M  V30 1010 C 95.0814 1.62198 -5.68723 0
M  V30 1011 H 94.0114 0.353401 -0.666051 0
M  V30 1012 H 96.6624 0.190169 -1.82512 0
M  V30 1013 H 95.0444 2.50484 -3.06715 0
M  V30 1014 H 96.2184 0.0959353 -4.607 0
M  V30 1015 H 94.5334 0.244789 -4.1568 0
M  V30 1016 H 97.1304 3.01394 -4.41663 0
M  V30 1017 H 97.4734 3.15984 -2.71035 0
M  V30 1018 H 98.0064 1.70813 -3.5926 0
M  V30 1019 H 94.7454 0.933011 -6.48826 0
M  V30 1020 H 94.2654 2.34579 -5.52026 0
M  V30 1021 H 95.9444 2.18095 -6.09133 0
M  V30 1022 N 96.0765 1.50051 0.48192 0
M  V30 1023 C 97.3015 1.64508 1.26301 0
M  V30 1024 C 97.7265 0.323851 1.85291 0
M  V30 1025 O 97.0845 -0.710969 1.66778 0
M  V30 1026 C 97.1325 2.7305 2.35533 0
M  V30 1027 O 96.2365 2.3355 3.39895 0
M  V30 1028 H 95.5775 0.549978 0.372048 0
M  V30 1029 H 98.1075 1.9636 0.574786 0
M  V30 1030 H 98.1175 2.95799 2.8101 0
M  V30 1031 H 96.7925 3.68946 1.91967 0
M  V30 1032 H 95.3695 2.21205 3.00204 0
M  V30 1033 N 97.5546 -0.734337 1.39446 0
M  V30 1034 C 98.7796 -1.52866 1.40167 0
M  V30 1035 C 99.2046 -1.881 -0.00171513 0
M  V30 1036 O 98.5626 -1.51957 -0.988879 0
M  V30 1037 C 98.6106 -2.79235 2.28167 0
M  V30 1038 O 97.7146 -3.75185 1.71201 0
M  V30 1039 H 97.0556 -0.461618 0.477289 0
M  V30 1040 H 99.5856 -0.905949 1.8345 0
M  V30 1041 H 99.5956 -3.27963 2.42702 0
M  V30 1042 H 98.2706 -2.52923 3.30156 0
M  V30 1043 H 96.8476 -3.33958 1.65912 0
M  V30 1044 N 99.0327 -1.24633 -0.964593 0
M  V30 1045 C 100.281 -1.08573 -1.70459 0
M  V30 1046 C 100.602 0.375655 -1.91347 0
M  V30 1047 O 99.8717 1.26779 -1.49345 0
M  V30 1048 H 98.4517 -0.398784 -0.631649 0
M  V30 1049 H 101.114 -1.56601 -1.16026 0
M  V30 1050 H 100.21 -1.58623 -2.68785 0
M  V30 1051 N 100.511 1.16574 -1.06058 0
M  V30 1052 C 101.441 2.23057 -0.690488 0
M  V30 1053 C 102.422 1.67141 0.315901 0
M  V30 1054 O 103.607 1.93253 0.191556 0
M  V30 1055 C 100.737 3.47222 -0.073625 0
M  V30 1056 C 99.6908 4.16016 -1.00573 0
M  V30 1057 C 99.0168 5.34104 -0.252289 0
M  V30 1058 C 100.317 4.67264 -2.33371 0
M  V30 1059 H 102.011 2.54271 -1.58072 0
M  V30 1060 H 99.5568 1.22218 -0.76149 0
M  V30 1061 H 101.51 4.20939 0.19714 0
M  V30 1062 H 100.234 3.15302 0.85161 0
M  V30 1063 H 98.8928 3.44223 -1.2612 0
M  V30 1064 H 98.5408 4.98437 0.675988 0
M  V30 1065 H 98.2408 5.81072 -0.873455 0
M  V30 1066 H 99.7648 6.10599 0.0109857 0
M  V30 1067 H 101.179 5.32573 -2.12223 0
M  V30 1068 H 99.5758 5.24843 -2.90963 0
M  V30 1069 H 100.646 3.83602 -2.96611 0
M  V30 1070 N 101.989 0.842826 1.3317 0
M  V30 1071 C 102.936 0.276885 2.29133 0
M  V30 1072 C 103.906 -0.609527 1.54512 0
M  V30 1073 O 105.091 -0.546955 1.82792 0
M  V30 1074 C 102.231 -0.538707 3.40869 0
M  V30 1075 C 101.344 0.372169 4.30394 0
M  V30 1076 C 100.479 -0.454908 5.29249 0
M  V30 1077 C 99.5179 0.45411 6.10413 0
M  V30 1078 N 98.6549 -0.335075 7.013 0
M  V30 1079 H 103.495 1.10052 2.76934 0
M  V30 1080 H 101.032 0.554161 1.36262 0
M  V30 1081 H 102.99 -1.02709 4.0436 0
M  V30 1082 H 101.62 -1.32727 2.9425 0
M  V30 1083 H 100.672 0.97888 3.6759 0
M  V30 1084 H 101.984 1.0703 4.87182 0
M  V30 1085 H 101.138 -1.00695 5.98285 0
M  V30 1086 H 99.8769 -1.18646 4.73048 0
M  V30 1087 H 98.8819 1.01813 5.40291 0
M  V30 1088 H 100.107 1.18409 6.68697 0
M  V30 1089 H 98.0529 -1.04994 6.47543 0
M  V30 1090 H 97.9699 0.304262 7.55387 0
M  V30 1091 H 99.2379 -0.869224 7.74638 0
M  V30 1092 N 103.467 -1.45747 0.599634 0
M  V30 1093 C 104.697 -2.06369 0.0977132 0
M  V30 1094 C 105.105 -1.44624 -1.21985 0
M  V30 1095 O 104.448 -0.551831 -1.75216 0
M  V30 1096 C 104.51 -3.59284 -0.124673 0
M  V30 1097 C 104.174 -4.43318 1.10987 0
M  V30 1098 C 105.171 -4.78796 2.02609 0
M  V30 1099 C 102.856 -4.84194 1.33647 0
M  V30 1100 C 104.85 -5.53997 3.15224 0
M  V30 1101 C 102.537 -5.5915 2.46565 0
M  V30 1102 C 103.535 -5.93968 3.37182 0
M  V30 1103 O 103.223 -6.67405 4.48136 0
M  V30 1104 H 102.955 -0.673122 0.0623153 0
M  V30 1105 H 105.509 -1.88104 0.824981 0
M  V30 1106 H 103.739 -3.75919 -0.906745 0
M  V30 1107 H 105.428 -4.01775 -0.577201 0
M  V30 1108 H 106.194 -4.47781 1.86325 0
M  V30 1109 H 102.073 -4.56534 0.64016 0
M  V30 1110 H 105.617 -5.81091 3.85978 0
M  V30 1111 H 101.514 -5.89579 2.62805 0
M  V30 1112 H 102.282 -6.85847 4.46717 0
M  V30 1113 N 104.945 -0.338344 -1.53925 0
M  V30 1114 C 106.356 0.146651 -1.86123 0
M  V30 1115 C 106.707 1.5042 -1.2597 0
M  V30 1116 O 105.832 2.08723 -0.571294 0
M  V30 1117 C 106.427 0.272879 -3.37699 0
M  V30 1118 C 104.986 0.702103 -3.69794 0
M  V30 1119 C 104.133 -0.167304 -2.76795 0
M  V30 1120 H 107.084 -0.558123 -1.48562 0
M  V30 1121 H 107.105 1.10128 -3.64214 0
M  V30 1122 H 106.617 -0.715307 -3.81451 0
M  V30 1123 H 104.718 1.6995 -3.31584 0
M  V30 1124 H 104.831 0.495604 -4.7653 0
M  V30 1125 H 103.195 0.359527 -2.5215 0
M  V30 1126 H 103.978 -1.15253 -3.23375 0
M  V30 1127 N 106.423 1.57458 -0.0668435 0
M  V30 1128 C 107.671 1.92919 0.602214 0
M  V30 1129 C 107.992 0.947215 1.70449 0
M  V30 1130 O 107.262 -0.00544117 1.95899 0
M  V30 1131 H 105.842 0.71217 0.22544 0
M  V30 1132 H 108.504 1.94508 -0.123535 0
M  V30 1133 H 107.6 2.94589 1.03073 0
M  V30 1134 N 107.901 -0.206675 1.56239 0
M  V30 1135 C 109.15 -0.926964 1.79138 0
M  V30 1136 C 109.463 -1.84901 0.638043 0
M  V30 1137 O 110.669 -2.60906 0.751033 0
M  V30 1138 C 109.125 -1.6986 3.17294 0
M  V30 1139 C 108.733 -0.821956 4.40395 0
M  V30 1140 C 110.477 -2.40922 3.4951 0
M  V30 1141 C 108.384 -1.59179 5.69575 0
M  V30 1142 H 107.314 -0.349864 0.667915 0
M  V30 1143 H 109.965 -0.180487 1.8261 0
M  V30 1144 H 108.347 -2.48853 3.08039 0
M  V30 1145 H 109.521 -0.0715019 4.60745 0
M  V30 1146 H 107.836 -0.222741 4.15804 0
M  V30 1147 H 110.433 -2.99047 4.43255 0
M  V30 1148 H 110.776 -3.14542 2.72707 0
M  V30 1149 H 111.309 -1.68905 3.60161 0
M  V30 1150 H 108.048 -0.898589 6.49312 0
M  V30 1151 H 107.568 -2.31648 5.53262 0
M  V30 1152 H 109.247 -2.14862 6.10281 0
M  V30 1153 N 109.379 -1.50304 -0.473955 0
M  V30 1154 C 110.326 -1.68959 -1.57231 0
M  V30 1155 C 111.296 -0.530899 -1.57387 0
M  V30 1156 O 112.481 -0.761133 -1.74961 0
M  V30 1157 C 109.621 -1.7871 -2.95223 0
M  V30 1158 C 108.734 -3.06061 -3.04878 0
M  V30 1159 C 107.869 -3.06626 -4.33767 0
M  V30 1160 C 106.908 -4.28443 -4.37154 0
M  V30 1161 N 106.045 -4.26763 -5.5751 0
M  V30 1162 H 110.885 -2.6273 -1.40631 0
M  V30 1163 H 108.422 -1.30241 -0.683789 0
M  V30 1164 H 110.38 -1.82344 -3.75242 0
M  V30 1165 H 109.01 -0.883806 -3.10465 0
M  V30 1166 H 108.062 -3.11911 -2.17751 0
M  V30 1167 H 109.374 -3.96039 -3.0324 0
M  V30 1168 H 108.528 -3.08973 -5.22131 0
M  V30 1169 H 107.267 -2.14473 -4.3801 0
M  V30 1170 H 106.272 -4.2631 -3.47188 0
M  V30 1171 H 107.497 -5.2182 -4.34605 0
M  V30 1172 H 105.443 -3.37462 -5.62544 0
M  V30 1173 H 105.36 -5.10507 -5.57601 0
M  V30 1174 H 106.628 -4.33253 -6.48006 0
M  V30 1175 N 110.857 0.726932 -1.39834 0
M  V30 1176 C 112.082 1.52121 -1.40976 0
M  V30 1177 C 112.507 1.88098 -0.00826029 0
M  V30 1178 O 111.865 1.52479 0.980807 0
M  V30 1179 C 111.913 2.78021 -2.29644 0
M  V30 1180 O 111.017 3.74272 -1.73188 0
M  V30 1181 H 110.358 0.45908 -0.479731 0
M  V30 1182 H 112.888 0.896207 -1.83927 0
M  V30 1183 H 112.898 3.26671 -2.44438 0
M  V30 1184 H 111.573 2.51169 -3.31492 0
M  V30 1185 H 110.15 3.33073 -1.6768 0
M  V30 1186 N 112.336 1.25143 0.95797 0
M  V30 1187 C 113.583 1.09692 1.70217 0
M  V30 1188 C 113.911 -0.362654 1.91089 0
M  V30 1189 O 113.166 -1.28386 1.47701 0
M  V30 1190 C 113.465 1.79272 3.09187 0
M  V30 1191 C 113.131 3.29196 3.08125 0
M  V30 1192 C 111.793 3.70096 3.07543 0
M  V30 1193 C 114.145 4.24995 3.0171 0
M  V30 1194 C 111.473 5.05213 2.9829 0
M  V30 1195 C 113.825 5.60132 2.93999 0
M  V30 1196 C 112.489 6.00365 2.9175 0
M  V30 1197 H 111.759 0.401393 0.622868 0
M  V30 1198 H 114.406 1.55372 1.11945 0
M  V30 1199 H 112.711 1.26014 3.70982 0
M  V30 1200 H 114.408 1.64773 3.65583 0
M  V30 1201 H 110.998 2.96651 3.09348 0
M  V30 1202 H 115.182 3.9439 3.01281 0
M  V30 1203 H 110.438 5.35569 2.94916 0
M  V30 1204 H 114.612 6.3406 2.87996 0
M  V30 1205 H 112.239 7.05023 2.84336 0
M  V30 1206 N 113.814 -1.1601 1.06675 0
M  V30 1207 C 114.762 -2.22586 0.675157 0
M  V30 1208 C 115.756 -1.66525 -0.310766 0
M  V30 1209 O 116.962 -1.79145 -0.175215 0
M  V30 1210 H 113.337 -0.724855 0.200223 0
M  V30 1211 H 115.308 -2.52899 1.58381 0
M  V30 1212 C 114.057 -3.47604 0.0817162 0
M  V30 1213 H 113.38 -3.91058 0.831484 0
M  V30 1214 H 114.82 -4.23718 -0.154708 0
M  V30 1215 C 113.279 -3.15718 -1.17576 0
M  V30 1216 O 113.809 -3.31878 -2.26318 0
M  V30 1217 N 112.015 -2.69816 -1.07923 0
M  V30 1218 H 111.562 -2.56866 -0.194293 0
M  V30 1219 H 111.52 -2.48855 -1.92141 0
M  V30 1220 N 115.292 -0.849877 -1.32721 0
M  V30 1221 C 116.703 -0.506188 -1.79707 0
M  V30 1222 C 117.054 0.975627 -1.70223 0
M  V30 1223 O 116.179 1.76078 -1.25799 0
M  V30 1224 C 116.774 -0.912044 -3.26293 0
M  V30 1225 C 115.333 -0.620326 -3.71253 0
M  V30 1226 C 114.48 -1.11439 -2.53922 0
M  V30 1227 H 117.431 -1.03754 -1.20087 0
M  V30 1228 H 117.452 -0.226493 -3.79825 0
M  V30 1229 H 116.964 -1.99057 -3.33164 0
M  V30 1230 H 115.065 0.447674 -3.69901 0
M  V30 1231 H 115.178 -1.18327 -4.64258 0
M  V30 1232 H 113.542 -0.534834 -2.49021 0
M  V30 1233 H 114.325 -2.19992 -2.6355 0
M  V30 1234 N 116.77 1.45427 -0.607355 0
M  V30 1235 C 117.718 2.32269 0.12411 0
M  V30 1236 C 118.712 1.45955 0.859854 0
M  V30 1237 O 119.918 1.6244 0.775447 0
M  V30 1238 H 116.293 0.749691 0.0588839 0
M  V30 1239 H 118.264 2.91743 -0.626762 0
M  V30 1240 C 117.013 3.29567 1.1082 0
M  V30 1241 H 116.336 3.95978 0.551492 0
M  V30 1242 H 117.776 3.93061 1.58995 0
M  V30 1243 C 116.235 2.56722 2.18164 0
M  V30 1244 O 116.765 2.34842 3.25902 0
M  V30 1245 N 114.971 2.16861 1.93442 0
M  V30 1246 H 114.518 2.34855 1.05834 0
M  V30 1247 H 114.476 1.68444 2.65469 0
M  V30 1248 N 118.248 0.346503 1.53744 0
M  V30 1249 C 119.473 -0.253074 2.0585 0
M  V30 1250 C 119.898 -1.43202 1.21962 0
M  V30 1251 O 119.256 -1.79783 0.234073 0
M  V30 1252 C 119.304 -0.643193 3.54817 0
M  V30 1253 O 118.408 -1.74286 3.73762 0
M  V30 1254 H 117.749 -0.0413583 0.662711 0
M  V30 1255 H 120.279 0.501574 1.98357 0
M  V30 1256 H 120.289 -0.919526 3.97503 0
M  V30 1257 H 118.964 0.218966 4.15323 0
M  V30 1258 H 117.541 -1.46356 3.42979 0
M  V30 1259 N 119.726 -1.57421 0.075193 0
M  V30 1260 C 121.137 -1.81021 -0.456964 0
M  V30 1261 C 121.488 -0.98936 -1.69429 0
M  V30 1262 O 120.613 -0.212865 -2.15351 0
M  V30 1263 C 121.208 -3.28329 -0.83581 0
M  V30 1264 C 119.767 -3.52764 -1.31281 0
M  V30 1265 C 118.914 -2.75676 -0.299648 0
M  V30 1266 H 121.865 -1.55822 0.300856 0
M  V30 1267 H 121.886 -3.40564 -1.69696 0
M  V30 1268 H 121.398 -3.88046 0.0649238 0
M  V30 1269 H 119.499 -2.98355 -2.23193 0
M  V30 1270 H 119.612 -4.61451 -1.28839 0
M  V30 1271 H 117.976 -2.42538 -0.777641 0
M  V30 1272 H 118.759 -3.38132 0.593417 0
M  V30 1273 N 121.204 0.198386 -1.56346 0
M  V30 1274 C 122.452 0.91747 -1.80075 0
M  V30 1275 C 122.773 1.83929 -0.647692 0
M  V30 1276 O 122.043 1.93029 0.334166 0
M  V30 1277 H 120.623 0.341774 -0.664228 0
M  V30 1278 H 123.285 0.204684 -1.93822 0
M  V30 1279 H 122.381 1.51055 -2.7311 0
M  V30 1280 N 122.682 1.50554 0.465978 0
M  V30 1281 C 123.629 1.6979 1.56333 0
M  V30 1282 C 124.599 0.539239 1.57103 0
M  V30 1283 O 125.784 0.770401 1.74555 0
M  V30 1284 C 122.924 1.80273 2.94271 0
M  V30 1285 C 122.037 3.07674 3.0325 0
M  V30 1286 C 121.172 3.08922 4.32135 0
M  V30 1287 C 120.211 4.30755 4.34875 0
M  V30 1288 N 119.348 4.29714 5.55239 0
M  V30 1289 H 124.188 2.63472 1.39235 0
M  V30 1290 H 121.725 1.30602 0.676873 0
M  V30 1291 H 123.683 1.84332 3.74269 0
M  V30 1292 H 122.313 0.900258 3.09992 0
M  V30 1293 H 121.365 3.13062 2.16094 0
M  V30 1294 H 122.677 3.97642 3.01135 0
M  V30 1295 H 121.831 3.11738 5.20485 0
M  V30 1296 H 120.57 2.16792 4.36866 0
M  V30 1297 H 119.575 4.28146 3.44922 0
M  V30 1298 H 120.8 5.24117 4.31831 0
M  V30 1299 H 118.746 3.4044 5.60746 0
M  V30 1300 H 118.663 5.13456 5.54886 0
M  V30 1301 H 119.931 4.36683 6.457 0
M  V30 1302 N 124.16 -0.719506 1.40217 0
M  V30 1303 C 125.409 -1.47486 1.37589 0
M  V30 1304 C 125.722 -1.9559 -0.0201568 0
M  V30 1305 O 126.928 -2.70973 -0.169049 0
M  V30 1306 C 125.384 -2.66575 2.41796 0
M  V30 1307 C 124.992 -2.25358 3.87192 0
M  V30 1308 C 126.736 -3.4433 2.48269 0
M  V30 1309 C 124.643 -3.41262 4.83005 0
M  V30 1310 H 123.573 -0.553901 0.511576 0
M  V30 1311 H 126.224 -0.783427 1.65936 0
M  V30 1312 H 124.606 -3.3787 2.06543 0
M  V30 1313 H 125.78 -1.61509 4.31569 0
M  V30 1314 H 124.095 -1.60657 3.84159 0
M  V30 1315 H 126.692 -4.30569 3.17041 0
M  V30 1316 H 127.035 -3.87872 1.51198 0
M  V30 1317 H 127.568 -2.80076 2.82493 0
M  V30 1318 H 124.307 -3.02755 5.81394 0
M  V30 1319 H 123.827 -4.0404 4.43297 0
M  V30 1320 H 125.506 -4.07383 5.02641 0
M  V30 1321 N 125.638 -1.25649 -0.95132 0
M  V30 1322 C 126.568 -1.08808 -2.06599 0
M  V30 1323 C 127.549 0.00382547 -1.701 0
M  V30 1324 O 128.734 -0.166325 -1.93486 0
M  V30 1325 C 125.864 -0.709542 -3.39975 0
M  V30 1326 C 124.818 -1.75206 -3.90496 0
M  V30 1327 C 124.144 -1.22811 -5.20405 0
M  V30 1328 C 125.444 -3.15153 -4.16504 0
M  V30 1329 H 127.138 -2.02048 -2.20946 0
M  V30 1330 H 124.684 -0.972835 -1.06169 0
M  V30 1331 H 126.637 -0.578649 -4.17408 0
M  V30 1332 H 125.361 0.258556 -3.25575 0
M  V30 1333 H 124.02 -1.87145 -3.15234 0
M  V30 1334 H 123.668 -0.250145 -5.02378 0
M  V30 1335 H 123.368 -1.92492 -5.55176 0
M  V30 1336 H 124.892 -1.10968 -6.00432 0
M  V30 1337 H 126.306 -3.06349 -4.84586 0
M  V30 1338 H 124.703 -3.82333 -4.62538 0
M  V30 1339 H 125.773 -3.61966 -3.22658 0
M  V30 1340 N 127.117 1.15442 -1.07289 0
M  V30 1341 C 128.047 2.22312 -0.714107 0
M  V30 1342 C 129.028 1.67467 0.298155 0
M  V30 1343 O 130.213 1.93445 0.171048 0
M  V30 1344 C 127.343 3.47124 -0.110448 0
M  V30 1345 C 126.297 4.14926 -1.04979 0
M  V30 1346 C 125.623 5.33807 -0.308924 0
M  V30 1347 C 126.923 4.64762 -2.38314 0
M  V30 1348 H 128.617 2.5258 -1.6076 0
M  V30 1349 H 126.163 1.21404 -0.77441 0
M  V30 1350 H 128.116 4.21124 0.152482 0
M  V30 1351 H 126.84 3.16187 0.81812 0
M  V30 1352 H 125.499 3.42866 -1.29764 0
M  V30 1353 H 125.147 4.99126 0.623084 0
M  V30 1354 H 124.847 5.80113 -0.935036 0
M  V30 1355 H 126.371 6.10576 -0.0537771 0
M  V30 1356 H 127.785 5.30292 -2.1786 0
M  V30 1357 H 126.182 5.21728 -2.96514 0
M  V30 1358 H 127.252 3.80434 -3.00663 0
M  V30 1359 N 128.595 0.856903 1.32268 0
M  V30 1360 C 129.528 0.247937 2.26849 0
M  V30 1361 C 130.506 -0.615382 1.50505 0
M  V30 1362 O 131.69 -0.571689 1.79622 0
M  V30 1363 C 128.817 -0.650093 3.32403 0
M  V30 1364 C 127.863 0.140138 4.2627 0
M  V30 1365 S 128.696 1.51004 5.13769 0
M  V30 1366 C 129.852 0.61778 6.22844 0
M  V30 1367 H 130.085 1.04971 2.78152 0
M  V30 1368 H 127.618 0.654665 1.39834 0
M  V30 1369 H 129.576 -1.16256 3.93694 0
M  V30 1370 H 128.237 -1.4257 2.7988 0
M  V30 1371 H 127.43 -0.543945 5.01056 0
M  V30 1372 H 127.032 0.584267 3.69408 0
M  V30 1373 H 129.324 -0.177053 6.77269 0
M  V30 1374 H 130.267 1.33636 6.95375 0
M  V30 1375 H 130.675 0.191124 5.64176 0
M  V30 1376 N 130.073 -1.45103 0.615059 0
M  V30 1377 C 131.35 -1.95549 0.0448276 0
M  V30 1378 C 131.73 -1.55737 -1.4251 0
M  V30 1379 O 131.078 -0.823556 -2.13143 0
M  V30 1380 C 131.288 -3.48098 0.250785 0
M  V30 1381 C 132.636 -4.24384 0.135509 0
M  V30 1382 O 133.66 -3.55738 0.181299 0
M  V30 1383 O 132.519 -5.46493 0.0268878 0
M  V30 1384 H 129.613 -0.8264 -0.0314845 0
M  V30 1385 H 132.159 -1.55232 0.685642 0
M  V30 1386 H 130.931 -3.7007 1.27139 0
M  V30 1387 H 130.554 -3.95323 -0.424937 0
M  V30 1388 N 131.551 -0.354651 -1.53558 0
M  V30 1389 C 132.481 0.489091 -2.2832 0
M  V30 1390 C 133.462 1.09324 -1.30316 0
M  V30 1391 O 134.647 1.11255 -1.59173 0
M  V30 1392 C 131.777 1.63456 -3.0643 0
M  V30 1393 C 130.731 1.1582 -4.12031 0
M  V30 1394 C 130.057 2.39305 -4.7816 0
M  V30 1395 C 131.357 0.250731 -5.21698 0
M  V30 1396 H 133.051 -0.134614 -2.99097 0
M  V30 1397 H 130.597 -0.0661826 -1.43848 0
M  V30 1398 H 132.55 2.23136 -3.57475 0
M  V30 1399 H 131.274 2.28533 -2.33325 0
M  V30 1400 H 129.933 0.584146 -3.61916 0
M  V30 1401 H 129.581 3.02814 -4.01637 0
M  V30 1402 H 129.281 2.08109 -5.49513 0
M  V30 1403 H 130.805 2.99691 -5.31994 0
M  V30 1404 H 132.219 0.754695 -5.68311 0
M  V30 1405 H 130.616 0.0301468 -6.00092 0
M  V30 1406 H 131.686 -0.710125 -4.79672 0
M  V30 1407 N 133.029 1.57378 -0.0835403 0
M  V30 1408 C 133.977 2.14602 0.89714 0
M  V30 1409 C 134.971 1.08589 1.30018 0
M  V30 1410 O 136.177 1.26952 1.27606 0
M  V30 1411 H 132.552 0.686346 0.3073 0
M  V30 1412 H 134.523 2.95845 0.38969 0
M  V30 1413 C 133.272 2.73188 2.15089 0
M  V30 1414 H 132.595 3.54442 1.84962 0
M  V30 1415 H 134.035 3.1681 2.81793 0
M  V30 1416 C 132.494 1.68517 2.91725 0
M  V30 1417 O 133.024 1.11718 3.85852 0
M  V30 1418 N 131.23 1.39277 2.55049 0
M  V30 1419 H 130.777 1.85655 1.78577 0
M  V30 1420 H 130.735 0.694791 3.06627 0
M  V30 1421 N 134.507 -0.190092 1.56449 0
M  V30 1422 C 135.417 -1.25591 1.98152 0
M  V30 1423 C 136.433 -1.49519 0.889944 0
M  V30 1424 O 137.609 -1.62036 1.19609 0
M  V30 1425 C 134.674 -2.57916 2.3169 0
M  V30 1426 C 133.735 -2.42015 3.5458 0
M  V30 1427 C 132.968 -3.6803 3.8651 0
M  V30 1428 O 133.191 -4.72413 3.1966 0
M  V30 1429 O 132.125 -3.6326 4.79923 0
M  V30 1430 H 135.951 -0.931988 2.89046 0
M  V30 1431 H 133.536 -0.395488 1.4407 0
M  V30 1432 H 135.418 -3.36008 2.54316 0
M  V30 1433 H 134.093 -2.89925 1.43963 0
M  V30 1434 H 133 -1.62017 3.37196 0
M  V30 1435 H 134.333 -2.14937 4.4279 0
M  V30 1436 N 135.985 -1.50799 -0.457987 0
M  V30 1437 C 136.895 -1.73426 -1.57989 0
M  V30 1438 C 137.911 -0.617745 -1.62665 0
M  V30 1439 O 139.087 -0.897614 -1.80291 0
M  V30 1440 C 136.152 -1.83557 -2.94122 0
M  V30 1441 C 135.213 -3.07345 -2.99729 0
M  V30 1442 C 134.446 -3.16983 -4.29368 0
M  V30 1443 O 134.669 -2.33077 -5.20607 0
M  V30 1444 O 133.603 -4.09812 -4.40837 0
M  V30 1445 H 137.429 -2.68555 -1.41817 0
M  V30 1446 H 135.014 -1.35052 -0.638859 0
M  V30 1447 H 136.896 -1.92326 -3.74952 0
M  V30 1448 H 135.571 -0.916137 -3.10465 0
M  V30 1449 H 134.478 -3.04068 -2.1793 0
M  V30 1450 H 135.811 -3.9891 -2.88326 0
M  V30 1451 N 137.463 0.71206 -1.40597 0
M  V30 1452 C 138.74 1.46536 -1.29563 0
M  V30 1453 C 139.12 2.10931 0.0844217 0
M  V30 1454 O 138.468 2.00418 1.0975 0
M  V30 1455 C 138.678 2.49821 -2.43701 0
M  V30 1456 C 140.026 3.15551 -2.841 0
M  V30 1457 O 141.05 2.60142 -2.4332 0
M  V30 1458 O 139.909 4.15867 -3.54566 0
M  V30 1459 H 137.003 0.651801 -0.509004 0
M  V30 1460 H 139.549 0.743935 -1.52524 0
M  V30 1461 H 138.321 2.00778 -3.35863 0
M  V30 1462 H 137.944 3.29495 -2.22528 0
M  V30 1463 N 138.941 1.26152 0.944643 0
M  V30 1464 C 140.352 1.10454 1.50522 0
M  V30 1465 C 140.703 -0.31635 1.93633 0
M  V30 1466 O 139.828 -1.20746 1.79581 0
M  V30 1467 C 140.423 1.99891 2.73549 0
M  V30 1468 C 138.982 1.88348 3.25886 0
M  V30 1469 C 138.129 1.93447 1.9868 0
M  V30 1470 H 141.08 1.39292 0.760489 0
M  V30 1471 H 141.101 1.54477 3.47732 0
M  V30 1472 H 140.613 3.03297 2.42141 0
M  V30 1473 H 138.714 0.878636 3.62092 0
M  V30 1474 H 138.827 2.73696 3.93227 0
M  V30 1475 H 137.191 1.37456 2.14425 0
M  V30 1476 H 137.974 2.98476 1.69607 0
M  V30 1477 N 140.419 -1.14872 1.07899 0
M  V30 1478 C 141.647 -1.89661 0.82683 0
M  V30 1479 C 142.062 -1.78312 -0.620519 0
M  V30 1480 O 141.419 -1.13888 -1.42604 0
M  V30 1481 C 141.47 -3.39817 1.23316 0
M  V30 1482 O 141.191 -3.50845 2.62372 0
M  V30 1483 C 142.692 -4.31615 1.0111 0
M  V30 1484 H 139.912 -0.60092 0.298557 0
M  V30 1485 H 142.456 -1.4551 1.43691 0
M  V30 1486 H 140.611 -3.8161 0.667286 0
M  V30 1487 H 141.025 -4.44076 2.79101 0
M  V30 1488 H 142.499 -5.35367 1.34486 0
M  V30 1489 H 142.976 -4.39169 -0.0522168 0
M  V30 1490 H 143.582 -3.95572 1.56215 0
M  V30 1491 N 141.898 -0.863906 -1.31812 0
M  V30 1492 C 143.144 -0.472535 -1.97218 0
M  V30 1493 C 143.477 0.971394 -1.68159 0
M  V30 1494 O 142.752 1.68309 -0.974798 0
M  V30 1495 C 143.035 -0.723054 -3.52766 0
M  V30 1496 C 142.888 -2.21608 -3.91421 0
M  V30 1497 C 144.207 -0.185522 -4.39709 0
M  V30 1498 H 141.326 -0.173158 -0.71637 0
M  V30 1499 H 143.968 -1.08403 -1.56041 0
M  V30 1500 H 142.118 -0.202577 -3.87971 0
M  V30 1501 H 143.79 -2.80334 -3.66347 0
M  V30 1502 H 142.033 -2.691 -3.40246 0
M  V30 1503 H 142.704 -2.34203 -4.99853 0
M  V30 1504 H 145.18 -0.630726 -4.11292 0
M  V30 1505 H 144.056 -0.390306 -5.47511 0
M  V30 1506 H 144.317 0.912229 -4.32586 0
M  V30 1507 N 143.376 1.44774 -0.622745 0
M  V30 1508 C 144.306 2.33382 0.0741861 0
M  V30 1509 C 145.287 1.47719 0.843387 0
M  V30 1510 O 146.472 1.76458 0.810934 0
M  V30 1511 C 143.602 3.30663 1.06204 0
M  V30 1512 C 142.556 4.26079 0.405037 0
M  V30 1513 C 141.882 5.13165 1.5022 0
M  V30 1514 C 143.182 5.1781 -0.683414 0
M  V30 1515 H 144.876 2.91905 -0.665713 0
M  V30 1516 H 142.422 1.40363 -0.321587 0
M  V30 1517 H 144.375 3.9153 1.55827 0
M  V30 1518 H 143.099 2.70331 1.83272 0
M  V30 1519 H 141.758 3.66532 -0.0704683 0
M  V30 1520 H 141.406 4.49191 2.26355 0
M  V30 1521 H 141.106 5.77812 1.06803 0
M  V30 1522 H 142.63 5.76902 2.00041 0
M  V30 1523 H 144.044 5.72661 -0.270631 0
M  V30 1524 H 142.441 5.91015 -1.04023 0
M  V30 1525 H 143.511 4.59326 -1.55395 0
M  V30 1526 N 144.854 0.36279 1.53368 0
M  V30 1527 C 145.764 -0.492994 2.29362 0
M  V30 1528 C 146.78 -1.09507 1.35219 0
M  V30 1529 O 147.956 -1.10662 1.68273 0
M  V30 1530 C 145.021 -1.61855 3.066 0
M  V30 1531 C 144.082 -1.04429 4.16405 0
M  V30 1532 C 143.315 -2.11621 4.89951 0
M  V30 1533 O 143.538 -3.32684 4.63333 0
M  V30 1534 O 142.472 -1.74835 5.75948 0
M  V30 1535 H 146.298 0.125331 3.03441 0
M  V30 1536 H 143.883 0.127253 1.48857 0
M  V30 1537 H 145.765 -2.27302 3.54841 0
M  V30 1538 H 144.44 -2.22233 2.3536 0
M  V30 1539 H 143.347 -0.353819 3.72423 0
M  V30 1540 H 144.68 -0.485113 4.89804 0
M  V30 1541 N 146.332 -1.57332 0.0918853 0
M  V30 1542 C 147.262 -2.16872 -0.865371 0
M  V30 1543 C 148.243 -1.10118 -1.29646 0
M  V30 1544 O 149.428 -1.38242 -1.36392 0
M  V30 1545 C 146.558 -2.74649 -2.12569 0
M  V30 1546 C 145.512 -3.86747 -1.83333 0
M  V30 1547 C 144.838 -4.31212 -3.16166 0
M  V30 1548 C 146.138 -5.10089 -1.1228 0
M  V30 1549 H 147.832 -2.97114 -0.369307 0
M  V30 1550 H 145.378 -1.42918 -0.176194 0
M  V30 1551 H 147.331 -3.14952 -2.7997 0
M  V30 1552 H 146.055 -1.91657 -2.64452 0
M  V30 1553 H 144.714 -3.46978 -1.18331 0
M  V30 1554 H 144.362 -3.45115 -3.6593 0
M  V30 1555 H 144.062 -5.06788 -2.97388 0
M  V30 1556 H 145.586 -4.74146 -3.84731 0
M  V30 1557 H 147 -5.47582 -1.69785 0
M  V30 1558 H 145.397 -5.91073 -1.03693 0
M  V30 1559 H 146.467 -4.84786 -0.105041 0
M  V30 1560 N 147.81 0.181792 -1.56548 0
M  V30 1561 C 149.058 0.89832 -1.81038 0
M  V30 1562 C 149.379 1.83232 -0.667164 0
M  V30 1563 O 148.649 1.93372 0.313673 0
M  V30 1564 H 147.229 0.33471 -0.667816 0
M  V30 1565 H 149.891 0.184116 -1.94028 0
M  V30 1566 H 148.987 1.4815 -2.74696 0
M  V30 1567 N 149.288 1.51039 0.449983 0
M  V30 1568 C 150.537 1.62317 1.19733 0
M  V30 1569 C 150.85 0.339101 1.92638 0
M  V30 1570 O 152.056 0.331069 2.69474 0
M  V30 1571 C 150.512 2.86608 2.17678 0
M  V30 1572 C 150.12 4.21972 1.50479 0
M  V30 1573 C 151.864 3.07239 2.92924 0
M  V30 1574 C 149.771 5.37426 2.46834 0
M  V30 1575 H 148.701 0.604532 0.450619 0
M  V30 1576 H 151.352 1.77494 0.465625 0
M  V30 1577 H 149.734 2.65037 2.94231 0
M  V30 1578 H 150.908 4.53878 0.795716 0
M  V30 1579 H 149.223 4.07117 0.874344 0
M  V30 1580 H 151.82 3.90668 3.65079 0
M  V30 1581 H 152.163 2.19807 3.5354 0
M  V30 1582 H 152.696 3.29091 2.23481 0
M  V30 1583 H 149.435 6.27079 1.90926 0
M  V30 1584 H 148.955 5.09912 3.15832 0
M  V30 1585 H 150.634 5.68862 3.08228 0
M  V30 1586 N 150.766 -0.704594 1.40972 0
M  V30 1587 C 151.994 -1.49354 1.43182 0
M  V30 1588 C 152.409 -1.88768 0.0345508 0
M  V30 1589 O 151.766 -1.56184 -0.944081 0
M  V30 1590 C 151.817 -2.76187 2.33244 0
M  V30 1591 O 151.538 -2.38436 3.67532 0
M  V30 1592 C 153.039 -3.7 2.44162 0
M  V30 1593 H 150.259 -0.460559 0.487982 0
M  V30 1594 H 152.803 -0.868261 1.85153 0
M  V30 1595 H 150.958 -3.34974 1.94606 0
M  V30 1596 H 151.372 -3.20126 4.15475 0
M  V30 1597 H 152.846 -4.55803 3.11364 0
M  V30 1598 H 153.323 -4.13867 1.47006 0
M  V30 1599 H 153.929 -3.17121 2.83398 0
M  V30 1600 N 152.244 -1.26651 -0.937939 0
M  V30 1601 C 153.492 -1.12165 -1.68118 0
M  V30 1602 C 153.813 0.334983 -1.92101 0
M  V30 1603 O 153.083 1.23583 -1.52 0
M  V30 1604 H 151.663 -0.412093 -0.623048 0
M  V30 1605 H 154.325 -1.59027 -1.12678 0
M  V30 1606 H 153.421 -1.64289 -2.6536 0
M  V30 1607 N 153.722 1.14298 -1.08507 0
M  V30 1608 C 154.947 1.8976 -0.837001 0
M  V30 1609 C 155.372 1.78097 0.605228 0
M  V30 1610 O 154.73 1.12188 1.4242 0
M  V30 1611 C 154.778 3.37685 -1.26495 0
M  V30 1612 O 153.882 4.10281 -0.417514 0
M  V30 1613 H 153.223 0.590365 -0.303917 0
M  V30 1614 H 155.753 1.44672 -1.44676 0
M  V30 1615 H 155.763 3.88501 -1.24625 0
M  V30 1616 H 154.438 3.45492 -2.31534 0
M  V30 1617 H 153.015 3.69536 -0.499722 0
M  V30 1618 N 155.201 0.870884 1.31352 0
M  V30 1619 C 156.148 0.325425 2.28494 0
M  V30 1620 C 157.118 -0.576615 1.5577 0
M  V30 1621 O 158.303 -0.508059 1.83911 0
M  V30 1622 C 155.443 -0.466283 3.41935 0
M  V30 1623 C 154.556 0.463378 4.29508 0
M  V30 1624 C 153.691 -0.342544 5.30094 0
M  V30 1625 C 152.73 0.583486 6.09313 0
M  V30 1626 N 151.867 -0.186244 7.01853 0
M  V30 1627 H 156.707 1.15901 2.74538 0
M  V30 1628 H 154.244 0.58294 1.35056 0
M  V30 1629 H 156.202 -0.941085 4.06447 0
M  V30 1630 H 154.832 -1.26456 2.97 0
M  V30 1631 H 153.884 1.05663 3.65431 0
M  V30 1632 H 155.196 1.1734 4.84802 0
M  V30 1633 H 154.35 -0.879816 6.00287 0
M  V30 1634 H 153.089 -1.08585 4.75458 0
M  V30 1635 H 152.094 1.13251 5.3801 0
M  V30 1636 H 153.319 1.32566 6.66035 0
M  V30 1637 H 151.265 -0.912348 6.49625 0
M  V30 1638 H 151.182 0.464422 7.54572 0
M  V30 1639 H 152.45 -0.704716 7.76308 0
M  V30 1640 N 156.679 -1.44442 0.630414 0
M  V30 1641 C 157.926 -2.02052 0.134617 0
M  V30 1642 C 158.254 -1.49576 -1.24327 0
M  V30 1643 O 157.509 -0.669806 -1.83881 0
M  V30 1644 C 157.808 -3.57332 0.0697835 0
M  V30 1645 C 157.474 -4.29058 1.38635 0
M  V30 1646 C 156.136 -4.4837 1.74694 0
M  V30 1647 C 158.488 -4.69872 2.25543 0
M  V30 1648 C 155.816 -5.05756 2.97369 0
M  V30 1649 C 158.168 -5.28616 3.47487 0
M  V30 1650 C 156.832 -5.46147 3.8377 0
M  V30 1651 H 156.102 -0.739361 0.0492598 0
M  V30 1652 H 158.749 -1.73217 0.816586 0
M  V30 1653 H 157.054 -3.85577 -0.695553 0
M  V30 1654 H 158.751 -3.99637 -0.330344 0
M  V30 1655 H 155.341 -4.14357 1.09574 0
M  V30 1656 H 159.525 -4.54666 1.98979 0
M  V30 1657 H 154.781 -5.17515 3.25558 0
M  V30 1658 H 158.955 -5.59192 4.15063 0
M  V30 1659 H 156.582 -5.9038 4.7891 0
M  V30 1660 N 158.157 -0.370918 -1.53173 0
M  V30 1661 C 159.434 0.273754 -1.93675 0
M  V30 1662 C 159.814 1.65938 -1.3049 0
M  V30 1663 O 159.162 2.23698 -0.465999 0
M  V30 1664 C 159.372 0.318602 -3.47543 0
M  V30 1665 C 160.72 0.556392 -4.20939 0
M  V30 1666 O 161.744 0.399587 -3.53952 0
M  V30 1667 O 160.603 0.862133 -5.39657 0
M  V30 1668 H 157.697 0.165448 -0.810281 0
M  V30 1669 H 160.243 -0.42409 -1.64315 0
M  V30 1670 H 159.015 -0.652687 -3.85818 0
M  V30 1671 H 158.638 1.06212 -3.83151 0
M  V30 1672 N 159.635 1.57281 -0.100228 0
M  V30 1673 C 160.881 1.94826 0.563101 0
M  V30 1674 C 161.214 0.982475 1.67514 0
M  V30 1675 O 160.489 0.0164069 1.94493 0
M  V30 1676 C 160.772 3.42453 1.11346 0
M  V30 1677 C 160.625 4.498 0.00612081 0
M  V30 1678 C 161.944 3.91506 2.01024 0
M  V30 1679 H 159.063 0.708428 0.203221 0
M  V30 1680 H 161.705 1.8922 -0.171979 0
M  V30 1681 H 159.855 3.47361 1.7399 0
M  V30 1682 H 161.527 4.57 -0.628357 0
M  V30 1683 H 159.77 4.28756 -0.659581 0
M  V30 1684 H 160.441 5.50306 0.432109 0
M  V30 1685 H 162.917 3.88784 1.48278 0
M  V30 1686 H 161.793 4.95358 2.36457 0
M  V30 1687 H 162.054 3.31099 2.92961 0
M  V30 1688 N 161.113 -0.173488 1.56642 0
M  V30 1689 C 162.338 -0.910149 1.86363 0
M  V30 1690 C 162.763 -1.75132 0.686318 0
M  V30 1691 O 162.121 -1.77595 -0.364643 0
M  V30 1692 C 162.169 -1.76447 3.14482 0
M  V30 1693 O 161.273 -2.86584 2.96553 0
M  V30 1694 H 160.614 -0.255086 0.613047 0
M  V30 1695 H 163.144 -0.172283 2.03873 0
M  V30 1696 H 163.154 -2.16483 3.45831 0
M  V30 1697 H 161.829 -1.14658 3.99783 0
M  V30 1698 H 160.406 -2.50146 2.76553 0
M  V30 1699 N 162.591 -1.51276 -0.441967 0
M  V30 1700 C 163.816 -1.67799 -1.21895 0
M  V30 1701 C 164.241 -0.372864 -1.84367 0
M  V30 1702 O 163.599 0.666501 -1.68604 0
M  V30 1703 C 163.647 -2.79199 -2.28211 0
M  V30 1704 O 162.751 -2.42479 -3.33583 0
M  V30 1705 H 162.092 -0.559649 -0.357336 0
M  V30 1706 H 164.622 -1.97815 -0.522522 0
M  V30 1707 H 164.632 -3.03146 -2.73069 0
M  V30 1708 H 163.307 -3.73906 -1.82118 0
M  V30 1709 H 161.884 -2.29087 -2.94234 0
M  V30 1710 N 164.069 0.697108 -1.41344 0
M  V30 1711 C 165.316 1.45714 -1.40619 0
M  V30 1712 C 165.644 1.94494 -0.0147907 0
M  V30 1713 O 164.899 1.69794 0.973066 0
M  V30 1714 C 165.198 2.68553 -2.35826 0
M  V30 1715 C 164.864 2.38438 -3.82698 0
M  V30 1716 C 163.526 2.29936 -4.22709 0
M  V30 1717 C 165.878 2.13567 -4.75435 0
M  V30 1718 C 163.206 1.94656 -5.53467 0
M  V30 1719 C 165.558 1.79797 -6.06511 0
M  V30 1720 C 164.222 1.69789 -6.45545 0
M  V30 1721 H 163.492 0.533206 -0.51456 0
M  V30 1722 H 166.139 0.796901 -1.74131 0
M  V30 1723 H 164.444 3.39503 -1.95563 0
M  V30 1724 H 166.141 3.2669 -2.32539 0
M  V30 1725 H 162.731 2.4595 -3.51008 0
M  V30 1726 H 166.915 2.19082 -4.45328 0
M  V30 1727 H 162.171 1.8546 -5.82593 0
M  V30 1728 H 166.345 1.59572 -6.77872 0
M  V30 1729 H 163.972 1.4222 -7.46778 0
M  V30 1730 N 165.547 1.27147 0.931209 0
M  V30 1731 C 166.495 1.09398 2.05268 0
M  V30 1732 C 167.489 0.0180591 1.6939 0
M  V30 1733 O 168.695 0.17551 1.79142 0
M  V30 1734 H 165.07 0.336986 0.672268 0
M  V30 1735 H 167.041 2.04416 2.17386 0
M  V30 1736 C 165.79 0.75424 3.39421 0
M  V30 1737 H 165.113 1.57404 3.67511 0
M  V30 1738 H 166.553 0.669903 4.18674 0
M  V30 1739 C 165.012 -0.541197 3.32525 0
M  V30 1740 O 165.542 -1.57664 3.69466 0
M  V30 1741 N 163.748 -0.535517 2.85623 0
M  V30 1742 H 163.295 0.307511 2.55758 0
M  V30 1743 H 163.253 -1.40236 2.81392 0
M  V30 1744 N 167.025 -1.13721 1.09112 0
M  V30 1745 C 168.436 -1.6648 0.845068 0
M  V30 1746 C 168.787 -1.85911 -0.62701 0
M  V30 1747 O 167.912 -1.57556 -1.48341 0
M  V30 1748 C 168.507 -3.02413 1.52748 0
M  V30 1749 C 167.066 -3.52176 1.32849 0
M  V30 1750 C 166.213 -2.27492 1.58564 0
M  V30 1751 H 169.164 -0.976872 1.25072 0
M  V30 1752 H 169.185 -3.68223 0.958752 0
M  V30 1753 H 168.697 -2.88238 2.59885 0
M  V30 1754 H 166.798 -3.7156 0.278137 0
M  V30 1755 H 166.911 -4.32499 2.0611 0
M  V30 1756 H 165.275 -2.33923 1.00758 0
M  V30 1757 H 166.058 -2.15886 2.66924 0
M  V30 1758 N 168.503 -0.877838 -1.30888 0
M  V30 1759 C 169.453 -0.310872 -2.25871 0
M  V30 1760 C 170.437 0.556596 -1.50966 0
M  V30 1761 O 171.629 0.402187 -1.7237 0
M  V30 1762 C 168.758 0.479821 -3.3993 0
M  V30 1763 C 167.844 -0.401333 -4.22197 0
M  V30 1764 N 168.235 -1.49848 -4.83093 0
M  V30 1765 C 166.533 -0.195167 -4.45573 0
M  V30 1766 C 167.234 -2.0425 -5.44662 0
M  V30 1767 N 166.21 -1.33843 -5.26865 0
M  V30 1768 H 170.012 -1.1493 -2.70496 0
M  V30 1769 H 167.526 -0.726458 -1.45246 0
M  V30 1770 H 169.523 0.902582 -4.07012 0
M  V30 1771 H 168.183 1.31577 -2.96846 0
M  V30 1772 H 169.194 -1.88137 -4.82519 0
M  V30 1773 H 165.871 0.604192 -4.13105 0
M  V30 1774 H 167.261 -2.96345 -6.03017 0
M  V30 1775 N 169.982 1.44106 -0.638065 0
M  V30 1776 C 171.23 2.01579 -0.145043 0
M  V30 1777 C 171.551 1.50496 1.24 0
M  V30 1778 O 170.821 0.711374 1.82527 0
M  V30 1779 H 169.401 0.745282 -0.05063 0
M  V30 1780 H 172.063 1.76516 -0.826327 0
M  V30 1781 H 171.159 3.11877 -0.118039 0
M  V30 1782 N 171.46 0.379036 1.52974 0
M  V30 1783 C 172.709 -0.207612 2.00629 0
M  V30 1784 C 173.022 -1.48758 1.27006 0
M  V30 1785 O 174.228 -2.15365 1.65318 0
M  V30 1786 C 172.684 -0.42053 3.57435 0
M  V30 1787 C 172.292 0.845587 4.39948 0
M  V30 1788 C 174.036 -0.964102 4.13407 0
M  V30 1789 C 171.943 0.601513 5.88333 0
M  V30 1790 H 170.873 -0.0813591 0.749598 0
M  V30 1791 H 173.524 0.499853 1.76561 0
M  V30 1792 H 171.906 -1.18959 3.7771 0
M  V30 1793 H 173.08 1.61848 4.31442 0
M  V30 1794 H 171.395 1.31336 3.95145 0
M  V30 1795 H 173.992 -1.16225 5.21916 0
M  V30 1796 H 174.335 -1.93019 3.68849 0
M  V30 1797 H 174.868 -0.25487 3.96983 0
M  V30 1798 H 171.607 1.53831 6.37194 0
M  V30 1799 H 171.127 -0.132628 5.99653 0
M  V30 1800 H 172.806 0.232134 6.46583 0
M  V30 1801 N 172.938 -1.57226 0.108567 0
M  V30 1802 C 174.163 -1.99604 -0.563303 0
M  V30 1803 C 174.588 -0.987563 -1.6009 0
M  V30 1804 O 173.946 0.0421687 -1.81251 0
M  V30 1805 C 173.994 -3.40902 -1.17552 0
M  V30 1806 O 173.098 -3.42896 -2.2912 0
M  V30 1807 H 172.439 -0.648704 -0.1417 0
M  V30 1808 H 174.969 -2.03679 0.193961 0
M  V30 1809 H 174.979 -3.78886 -1.51357 0
M  V30 1810 H 173.654 -4.1382 -0.415445 0
M  V30 1811 H 172.231 -3.1672 -1.96832 0
M  V30 1812 N 174.416 0.165178 -1.56732 0
M  V30 1813 C 175.644 0.896218 -1.86482 0
M  V30 1814 C 176.059 1.75555 -0.694675 0
M  V30 1815 O 175.416 1.79379 0.33607 0
M  V30 1816 C 175.467 1.76792 -3.1532 0
M  V30 1817 O 175.188 0.943239 -4.27825 0
M  V30 1818 C 176.689 2.6081 -3.58459 0
M  V30 1819 H 173.909 0.260064 -0.618553 0
M  V30 1820 H 176.453 0.163428 -2.03846 0
M  V30 1821 H 174.608 2.45398 -2.99764 0
M  V30 1822 H 175.022 1.53998 -5.01383 0
M  V30 1823 H 176.496 3.17579 -4.51495 0
M  V30 1824 H 176.973 3.35977 -2.82872 0
M  V30 1825 H 177.579 1.97526 -3.76648 0
M  V30 1826 N 175.894 1.51508 0.433938 0
M  V30 1827 C 177.141 1.64345 1.18309 0
M  V30 1828 C 177.469 0.361315 1.91115 0
M  V30 1829 O 176.724 -0.654753 1.84422 0
M  V30 1830 C 177.023 2.79928 2.22205 0
M  V30 1831 C 176.689 4.19078 1.66387 0
M  V30 1832 C 175.351 4.56932 1.50887 0
M  V30 1833 C 177.703 5.05894 1.25381 0
M  V30 1834 C 175.031 5.79305 0.928608 0
M  V30 1835 C 177.383 6.2885 0.687823 0
M  V30 1836 C 176.047 6.65473 0.519755 0
M  V30 1837 H 175.317 0.601381 0.432923 0
M  V30 1838 H 177.964 1.85549 0.473676 0
M  V30 1839 H 176.269 2.52959 2.99197 0
M  V30 1840 H 177.966 2.87059 2.79997 0
M  V30 1841 H 174.556 3.89234 1.79428 0
M  V30 1842 H 178.74 4.77253 1.36175 0
M  V30 1843 H 173.996 6.06324 0.786186 0
M  V30 1844 H 178.17 6.95461 0.361581 0
M  V30 1845 H 175.797 7.6017 0.0679979 0
M  V30 1846 N 177.372 -0.689602 1.41712 0
M  V30 1847 C 178.6 -1.47827 1.44758 0
M  V30 1848 C 179.015 -1.88721 0.0545703 0
M  V30 1849 O 178.372 -1.57176 -0.927463 0
M  V30 1850 C 178.423 -2.73698 2.3616 0
M  V30 1851 O 178.144 -2.34524 3.7004 0
M  V30 1852 C 179.645 -3.67389 2.48072 0
M  V30 1853 H 176.865 -0.455357 0.49284 0
M  V30 1854 H 179.409 -0.848574 1.86063 0
M  V30 1855 H 177.564 -3.32891 1.98148 0
M  V30 1856 H 177.978 -3.15701 4.18847 0
M  V30 1857 H 179.452 -4.52475 3.16181 0
M  V30 1858 H 179.929 -4.12284 1.51388 0
M  V30 1859 H 180.535 -3.14097 2.86746 0
M  V30 1860 N 178.85 -1.27639 -0.924453 0
M  V30 1861 C 180.127 -1.04887 -1.651 0
M  V30 1862 C 180.507 0.415327 -2.06974 0
M  V30 1863 O 179.855 1.39923 -1.80648 0
M  V30 1864 C 180.065 -2.01348 -2.85061 0
M  V30 1865 C 181.413 -2.30899 -3.56329 0
M  V30 1866 O 182.437 -1.99348 -2.95193 0
M  V30 1867 O 181.296 -2.84699 -4.66485 0
M  V30 1868 H 178.39 -0.400083 -0.723784 0
M  V30 1869 H 180.936 -1.38916 -0.974703 0
M  V30 1870 H 179.708 -3.0008 -2.51133 0
M  V30 1871 H 179.331 -1.679 -3.6041 0
M  V30 1872 N 180.328 1.1314 -1.09713 0
M  V30 1873 C 181.238 2.22242 -0.751367 0
M  V30 1874 C 182.254 1.72224 0.247938 0
M  V30 1875 O 183.43 2.01205 0.0885463 0
M  V30 1876 C 180.495 3.46231 -0.180274 0
M  V30 1877 C 179.556 4.11125 -1.2359 0
M  V30 1878 C 178.789 5.29195 -0.691966 0
M  V30 1879 O 179.012 5.68342 0.48414 0
M  V30 1880 O 177.946 5.84214 -1.44838 0
M  V30 1881 H 181.772 2.54197 -1.66186 0
M  V30 1882 H 179.357 1.21331 -0.871735 0
M  V30 1883 H 181.239 4.21185 0.134739 0
M  V30 1884 H 179.914 3.1597 0.703185 0
M  V30 1885 H 178.821 3.37985 -1.60366 0
M  V30 1886 H 180.154 4.45524 -2.09211 0
M  V30 1887 N 181.806 0.884767 1.30421 0
M  V30 1888 C 183.083 0.423185 1.90967 0
M  V30 1889 C 183.463 -1.09605 1.80416 0
M  V30 1890 O 182.811 -1.93126 1.22125 0
M  V30 1891 C 183.021 0.921056 3.36627 0
M  V30 1892 C 184.369 0.955903 4.137 0
M  V30 1893 O 185.393 0.867706 3.4547 0
M  V30 1894 O 184.252 1.08614 5.35598 0
M  V30 1895 H 181.346 0.129369 0.816819 0
M  V30 1896 H 183.892 0.973653 1.3899 0
M  V30 1897 H 182.664 1.96489 3.3839 0
M  V30 1898 H 182.287 0.349741 3.96059 0
M  V30 1899 N 183.284 -1.43765 0.645699 0
M  V30 1900 C 184.232 -2.32516 -0.0624849 0
M  V30 1901 C 185.226 -1.48183 -0.820855 0
M  V30 1902 O 186.432 -1.64439 -0.732106 0
M  V30 1903 H 182.807 -0.750989 -0.0389864 0
M  V30 1904 H 184.778 -2.89979 0.703892 0
M  V30 1905 C 183.527 -3.32389 -1.02044 0
M  V30 1906 H 182.85 -3.97301 -0.446312 0
M  V30 1907 H 184.29 -3.97138 -1.48517 0
M  V30 1908 C 182.749 -2.62416 -2.11281 0
M  V30 1909 O 183.279 -2.434 -3.19561 0
M  V30 1910 N 181.485 -2.21913 -1.87624 0
M  V30 1911 H 181.032 -2.37578 -0.995703 0
M  V30 1912 H 180.99 -1.75424 -2.6091 0
M  V30 1913 N 184.763 -0.387143 -1.52771 0
M  V30 1914 C 185.726 0.436939 -2.24997 0
M  V30 1915 C 186.726 0.991991 -1.26555 0
M  V30 1916 O 187.916 0.874335 -1.50669 0
M  V30 1917 C 185.048 1.61281 -3.00335 0
M  V30 1918 H 186.241 -0.195365 -2.99263 0
M  V30 1919 H 183.794 -0.139218 -1.55679 0
M  V30 1920 H 184.529 2.2826 -2.30364 0
M  V30 1921 H 184.314 1.22154 -3.72587 0
M  V30 1922 H 185.804 2.19629 -3.5518 0
M  V30 1923 N 186.241 1.57166 -0.116904 0
M  V30 1924 C 187.174 2.10912 0.871291 0
M  V30 1925 C 188.152 1.025 1.26224 0
M  V30 1926 O 189.336 1.3014 1.36366 0
M  V30 1927 C 186.463 2.6041 2.16574 0
M  V30 1928 C 185.509 3.80687 1.92302 0
M  V30 1929 S 186.342 5.23199 1.14119 0
M  V30 1930 C 187.498 5.76064 2.44748 0
M  V30 1931 H 187.731 2.94401 0.414138 0
M  V30 1932 H 185.264 1.54096 0.096829 0
M  V30 1933 H 187.222 2.89583 2.9095 0
M  V30 1934 H 185.883 1.77106 2.59408 0
M  V30 1935 H 185.076 4.13462 2.8821 0
M  V30 1936 H 184.678 3.5212 1.26047 0
M  V30 1937 H 186.97 5.8566 3.406 0
M  V30 1938 H 187.913 6.74184 2.16521 0
M  V30 1939 H 188.321 5.04117 2.54019 0
M  V30 1940 N 187.719 -0.156864 1.56817 0
M  V30 1941 C 188.949 -0.885031 1.86684 0
M  V30 1942 C 189.357 -1.75696 0.701954 0
M  V30 1943 O 188.7 -1.80569 -0.337732 0
M  V30 1944 C 188.762 -1.80092 3.11138 0
M  V30 1945 C 188.426 -1.10714 4.43386 0
M  V30 1946 C 189.423 -0.465714 5.1781 0
M  V30 1947 C 187.108 -1.09959 4.90117 0
M  V30 1948 C 189.102 0.174002 6.37162 0
M  V30 1949 C 186.789 -0.456055 6.09396 0
M  V30 1950 C 187.787 0.179622 6.82764 0
M  V30 1951 O 187.475 0.812975 7.99779 0
M  V30 1952 H 187.207 -0.261813 0.623242 0
M  V30 1953 H 189.761 -0.157383 2.04796 0
M  V30 1954 H 187.991 -2.56926 2.89009 0
M  V30 1955 H 189.68 -2.40018 3.27332 0
M  V30 1956 H 190.446 -0.463427 4.82781 0
M  V30 1957 H 186.325 -1.58378 4.3294 0
M  V30 1958 H 189.869 0.670765 6.94368 0
M  V30 1959 H 185.766 -0.455975 6.43888 0
M  V30 1960 H 186.534 0.71366 8.15383 0
M  V30 1961 N 189.197 -1.51736 -0.425897 0
M  V30 1962 C 190.127 -1.76827 -1.52494 0
M  V30 1963 C 191.108 -0.618524 -1.58456 0
M  V30 1964 O 192.293 -0.862416 -1.74 0
M  V30 1965 C 189.423 -1.90374 -2.90474 0
M  V30 1966 C 188.377 -3.0588 -2.99369 0
M  V30 1967 C 187.703 -3.04625 -4.3944 0
M  V30 1968 C 189.003 -4.45644 -2.72394 0
M  V30 1969 H 190.697 -2.68855 -1.31748 0
M  V30 1970 H 188.243 -1.29372 -0.632362 0
M  V30 1971 H 190.196 -2.0651 -3.6733 0
M  V30 1972 H 188.92 -0.95004 -3.12477 0
M  V30 1973 H 187.579 -2.89467 -2.24954 0
M  V30 1974 H 187.227 -2.0701 -4.58428 0
M  V30 1975 H 186.927 -3.82195 -4.46319 0
M  V30 1976 H 188.451 -3.22869 -5.18255 0
M  V30 1977 H 189.865 -4.62348 -3.38979 0
M  V30 1978 H 188.262 -5.25006 -2.9067 0
M  V30 1979 H 189.332 -4.54893 -1.67929 0
M  V30 1980 N 190.675 0.682077 -1.42076 0
M  V30 1981 C 191.605 1.80796 -1.47767 0
M  V30 1982 C 192.586 1.6677 -0.334954 0
M  V30 1983 O 193.771 1.863 -0.548264 0
M  V30 1984 C 190.901 3.19038 -1.37229 0
M  V30 1985 C 189.855 3.47789 -2.49453 0
M  V30 1986 C 189.181 4.8553 -2.23975 0
M  V30 1987 C 190.481 3.45411 -3.91776 0
M  V30 1988 H 192.175 1.7629 -2.41997 0
M  V30 1989 H 189.721 0.846721 -1.16476 0
M  V30 1990 H 191.674 3.97528 -1.39821 0
M  V30 1991 H 190.398 3.24204 -0.394907 0
M  V30 1992 H 189.057 2.71657 -2.46166 0
M  V30 1993 H 188.705 4.87337 -1.24547 0
M  V30 1994 H 188.405 5.0573 -2.99184 0
M  V30 1995 H 189.929 5.66312 -2.28304 0
M  V30 1996 H 191.343 4.13882 -3.96705 0
M  V30 1997 H 189.74 3.77145 -4.66778 0
M  V30 1998 H 190.81 2.44122 -4.18966 0
M  V30 1999 N 192.153 1.28127 0.917671 0
M  V30 2000 C 193.399 1.15223 1.66888 0
M  V30 2001 C 193.732 -0.299293 1.9188 0
M  V30 2002 O 193.007 -1.21805 1.51637 0
M  V30 2003 C 193.29 1.94706 3.02922 0
M  V30 2004 C 193.143 3.47898 2.85109 0
M  V30 2005 C 194.462 1.75939 4.03402 0
M  V30 2006 H 191.581 0.419946 0.605652 0
M  V30 2007 H 194.223 1.57398 1.06423 0
M  V30 2008 H 192.373 1.58864 3.54534 0
M  V30 2009 H 194.045 3.93624 2.40537 0
M  V30 2010 H 192.288 3.7373 2.20246 0
M  V30 2011 H 192.959 3.98765 3.81694 0
M  V30 2012 H 195.435 2.07209 3.60837 0
M  V30 2013 H 194.311 2.33931 4.96556 0
M  V30 2014 H 194.572 0.709877 4.36364 0
M  V30 2015 N 193.631 -1.12557 1.10312 0
M  V30 2016 C 194.877 -1.84311 0.846011 0
M  V30 2017 C 195.21 -1.83805 -0.626859 0
M  V30 2018 O 194.485 -1.28268 -1.46211 0
M  V30 2019 C 194.768 -3.32048 1.39341 0
M  V30 2020 C 194.621 -3.41016 2.93305 0
M  V30 2021 C 195.94 -4.27764 1.03468 0
M  V30 2022 H 193.059 -0.669192 0.30879 0
M  V30 2023 H 195.701 -1.32057 1.36605 0
M  V30 2024 H 193.851 -3.76678 0.951087 0
M  V30 2025 H 195.523 -3.05031 3.46055 0
M  V30 2026 H 193.766 -2.81603 3.29973 0
M  V30 2027 H 194.437 -4.44948 3.26689 0
M  V30 2028 H 196.913 -3.91253 1.41633 0
M  V30 2029 H 195.789 -5.29549 1.44463 0
M  V30 2030 H 196.05 -4.42064 -0.0560404 0
M  V30 2031 N 195.109 -0.891671 -1.2995 0
M  V30 2032 C 196.057 -0.353066 -2.29905 0
M  V30 2033 C 197.051 0.543509 -1.60444 0
M  V30 2034 O 198.257 0.4272 -1.74857 0
M  V30 2035 H 194.632 -0.095531 -0.745907 0
M  V30 2036 H 196.603 -1.20961 -2.72784 0
M  V30 2037 C 195.352 0.411475 -3.45257 0
M  V30 2038 H 194.675 -0.269182 -3.98893 0
M  V30 2039 H 196.115 0.753328 -4.17254 0
M  V30 2040 C 194.574 1.6111 -2.9588 0
M  V30 2041 O 195.104 2.71045 -2.96475 0
M  V30 2042 N 193.31 1.45054 -2.51809 0
M  V30 2043 H 192.857 0.556175 -2.51524 0
M  V30 2044 H 192.815 2.25453 -2.1913 0
M  V30 2045 N 196.587 1.43421 -0.653314 0
M  V30 2046 C 197.537 2.2792 0.060558 0
M  V30 2047 C 198.521 1.39906 0.794677 0
M  V30 2048 O 199.713 1.63536 0.677128 0
M  V30 2049 C 196.842 3.27603 1.0262 0
M  V30 2050 C 195.928 4.23104 0.290551 0
M  V30 2051 N 196.319 5.01031 -0.692967 0
M  V30 2052 C 194.617 4.42816 0.531984 0
M  V30 2053 C 195.318 5.70626 -1.12963 0
M  V30 2054 N 194.294 5.41617 -0.463867 0
M  V30 2055 H 198.096 2.85585 -0.694143 0
M  V30 2056 H 195.61 1.55126 -0.480602 0
M  V30 2057 H 197.607 3.86918 1.55242 0
M  V30 2058 H 196.267 2.71499 1.78096 0
M  V30 2059 H 197.278 5.0669 -1.07169 0
M  V30 2060 H 193.955 3.97782 1.26791 0
M  V30 2061 H 195.345 6.4318 -1.94343 0
M  V30 2062 N 198.065 0.39524 1.52563 0
M  V30 2063 C 199.476 -0.0774719 1.86539 0
M  V30 2064 C 199.827 -1.45641 1.31466 0
M  V30 2065 O 198.952 -2.06459 0.648367 0
M  V30 2066 C 199.547 -0.147356 3.38479 0
M  V30 2067 C 198.106 -0.564373 3.72145 0
M  V30 2068 C 197.253 0.269919 2.75983 0
M  V30 2069 H 200.204 0.612876 1.46388 0
M  V30 2070 H 200.225 -0.965343 3.68051 0
M  V30 2071 H 199.737 0.856387 3.78534 0
M  V30 2072 H 197.838 -1.57527 3.37663 0
M  V30 2073 H 197.951 -0.318402 4.78041 0
M  V30 2074 H 196.315 -0.265696 2.5331 0
M  V30 2075 H 197.098 1.27175 3.18875 0
M  V30 2076 N 199.544 -1.57102 0.125237 0
M  V30 2077 C 200.821 -1.86953 -0.575142 0
M  V30 2078 C 201.201 -1.02749 -1.84407 0
M  V30 2079 O 200.549 -0.108144 -2.28244 0
M  V30 2080 C 200.759 -3.38198 -0.861583 0
M  V30 2081 C 202.107 -4.06937 -1.21192 0
M  V30 2082 O 203.131 -3.43252 -0.951645 0
M  V30 2083 O 201.99 -5.19364 -1.70068 0
M  V30 2084 H 199.084 -0.774147 -0.290906 0
M  V30 2085 H 201.63 -1.68942 0.160211 0
M  V30 2086 H 200.402 -3.91282 0.0373647 0
M  V30 2087 H 200.025 -3.61661 -1.65188 0
M  V30 2088 N 201.022 0.148545 -1.56898 0
M  V30 2089 C 201.985 1.16736 -1.97244 0
M  V30 2090 C 202.985 1.35947 -0.858777 0
M  V30 2091 O 204.175 1.32966 -1.12542 0
M  V30 2092 C 201.307 2.52798 -2.28705 0
M  V30 2093 H 202.5 0.821279 -2.88435 0
M  V30 2094 H 200.053 0.391831 -1.51309 0
M  V30 2095 H 200.788 2.92381 -1.403 0
M  V30 2096 H 200.573 2.40216 -3.09901 0
M  V30 2097 H 202.063 3.26179 -2.60762 0
M  V30 2098 N 202.5 1.5196 0.417844 0
M  V30 2099 C 203.447 1.74678 1.50852 0
M  V30 2100 C 204.417 0.588947 1.55308 0
M  V30 2101 O 205.602 0.825544 1.72016 0
M  V30 2102 C 202.742 1.89544 2.88387 0
M  V30 2103 C 201.855 3.17166 2.93309 0
M  V30 2104 C 200.99 3.22513 4.22088 0
M  V30 2105 C 200.029 4.44372 4.20951 0
M  V30 2106 N 199.166 4.47161 5.41287 0
M  V30 2107 H 204.006 2.67768 1.30783 0
M  V30 2108 H 201.543 1.32689 0.63498 0
M  V30 2109 H 203.501 1.96146 3.68216 0
M  V30 2110 H 202.131 0.998424 3.06971 0
M  V30 2111 H 201.183 3.19778 2.06024 0
M  V30 2112 H 202.495 4.07021 2.88332 0
M  V30 2113 H 201.649 3.28139 5.10303 0
M  V30 2114 H 200.388 2.30581 4.29748 0
M  V30 2115 H 199.393 4.38902 3.31127 0
M  V30 2116 H 200.618 5.3759 4.14938 0
M  V30 2117 H 198.564 3.58108 5.49632 0
M  V30 2118 H 198.481 5.3085 5.3827 0
M  V30 2119 H 199.749 4.57005 6.3148 0
M  V30 2120 N 203.978 -0.674533 1.42435 0
M  V30 2121 C 205.203 -1.46784 1.46524 0
M  V30 2122 C 205.628 -1.87938 0.078066 0
M  V30 2123 O 204.986 -1.56014 -0.92354 0
M  V30 2124 C 205.034 -2.69307 2.39805 0
M  V30 2125 O 204.138 -3.67587 1.86959 0
M  V30 2126 H 203.479 -0.440959 0.496439 0
M  V30 2127 H 206.009 -0.827326 1.87127 0
M  V30 2128 H 206.019 -3.17374 2.56393 0
M  V30 2129 H 204.694 -2.38692 3.40586 0
M  V30 2130 H 203.271 -3.2662 1.79927 0
M  V30 2131 N 205.456 -1.28612 -0.910864 0
M  V30 2132 C 206.684 -1.18792 -1.69399 0
M  V30 2133 C 207.099 0.253039 -1.87097 0
M  V30 2134 O 206.456 1.17071 -1.40003 0
M  V30 2135 C 206.507 -1.88511 -3.08457 0
M  V30 2136 O 206.228 -3.26979 -2.91576 0
M  V30 2137 C 207.729 -1.85029 -4.02839 0
M  V30 2138 H 204.949 -0.412233 -0.529438 0
M  V30 2139 H 207.493 -1.69788 -1.13984 0
M  V30 2140 H 205.648 -1.41379 -3.60681 0
M  V30 2141 H 206.062 -3.61936 -3.79608 0
M  V30 2142 H 207.536 -2.38395 -4.97867 0
M  V30 2143 H 208.013 -0.823303 -4.31414 0
M  V30 2144 H 208.619 -2.31853 -3.56545 0
M  V30 2145 N 206.934 1.1197 -1.10907 0
M  V30 2146 C 208.18 1.8386 -0.855773 0
M  V30 2147 C 208.513 1.84134 0.617103 0
M  V30 2148 O 207.788 1.29041 1.45529 0
M  V30 2149 C 208.071 3.31305 -1.411 0
M  V30 2150 C 207.924 3.39456 -2.9511 0
M  V30 2151 C 209.243 4.2721 -1.05736 0
M  V30 2152 H 206.362 0.667545 -0.312334 0
M  V30 2153 H 209.004 1.31331 -1.37303 0
M  V30 2154 H 207.154 3.76169 -0.97105 0
M  V30 2155 H 208.826 3.03191 -3.47668 0
M  V30 2156 H 207.069 2.79849 -3.31462 0
M  V30 2157 H 207.74 4.43209 -3.29044 0
M  V30 2158 H 210.216 3.90497 -1.43706 0
M  V30 2159 H 209.092 5.28775 -1.47269 0
M  V30 2160 H 209.353 4.42088 0.0325958 0
M  V30 2161 N 208.412 0.89855 1.29475 0
M  V30 2162 C 209.322 0.379974 2.31502 0
M  V30 2163 C 210.338 -0.524695 1.659 0
M  V30 2164 O 211.514 -0.414551 1.97087 0
M  V30 2165 C 208.579 -0.385138 3.44554 0
M  V30 2166 C 207.64 0.550914 4.2575 0
M  V30 2167 C 206.873 -0.177778 5.33404 0
M  V30 2168 O 207.096 -1.40189 5.52904 0
M  V30 2169 O 206.03 0.479106 5.9999 0
M  V30 2170 H 209.856 1.22639 2.77837 0
M  V30 2171 H 207.441 0.662834 1.33891 0
M  V30 2172 H 209.323 -0.817841 4.13388 0
M  V30 2173 H 207.998 -1.20763 3.0033 0
M  V30 2174 H 206.905 1.03271 3.59564 0
M  V30 2175 H 208.238 1.33979 4.73614 0
M  V30 2176 N 209.89 -1.43072 0.660911 0
M  V30 2177 C 210.82 -2.33497 -0.0122829 0
M  V30 2178 C 211.801 -1.49903 -0.803925 0
M  V30 2179 O 212.986 -1.78546 -0.763864 0
M  V30 2180 C 210.116 -3.33363 -0.973994 0
M  V30 2181 C 209.07 -4.27003 -0.291928 0
M  V30 2182 C 208.396 -5.16967 -1.36562 0
M  V30 2183 C 209.696 -5.15816 0.820462 0
M  V30 2184 H 211.39 -2.90038 0.742873 0
M  V30 2185 H 208.936 -1.39461 0.358688 0
M  V30 2186 H 210.889 -3.95524 -1.45392 0
M  V30 2187 H 209.613 -2.75095 -1.7604 0
M  V30 2188 H 208.272 -3.66217 0.167623 0
M  V30 2189 H 207.92 -4.55034 -2.14366 0
M  V30 2190 H 207.62 -5.80441 -0.914454 0
M  V30 2191 H 209.144 -5.82003 -1.84675 0
M  V30 2192 H 210.558 -5.71742 0.422366 0
M  V30 2193 H 208.955 -5.8805 1.19656 0
M  V30 2194 H 210.025 -4.55045 1.67518 0
M  V30 2195 N 211.368 -0.403325 -1.52352 0
M  V30 2196 C 212.615 0.174347 -2.01748 0
M  V30 2197 C 212.943 1.45636 -1.2892 0
M  V30 2198 O 212.198 1.9193 -0.382258 0
M  V30 2199 C 212.497 0.474665 -3.54234 0
M  V30 2200 C 212.163 -0.717458 -4.45155 0
M  V30 2201 C 210.825 -1.04447 -4.69728 0
M  V30 2202 C 213.177 -1.51432 -4.98716 0
M  V30 2203 C 210.505 -2.16963 -5.45109 0
M  V30 2204 C 212.857 -2.6302 -5.75329 0
M  V30 2205 C 211.521 -2.96213 -5.98175 0
M  V30 2206 H 210.791 0.0637981 -0.738248 0
M  V30 2207 H 213.438 -0.543553 -1.83624 0
M  V30 2208 H 211.743 1.27406 -3.70506 0
M  V30 2209 H 213.44 0.934496 -3.89959 0
M  V30 2210 H 210.03 -0.452596 -4.26204 0
M  V30 2211 H 214.214 -1.27491 -4.79645 0
M  V30 2212 H 209.47 -2.43034 -5.61021 0
M  V30 2213 H 213.644 -3.25158 -6.15829 0
M  V30 2214 H 211.271 -3.83516 -6.56368 0
M  V30 2215 N 212.846 1.57033 -0.133567 0
M  V30 2216 C 213.793 2.16074 0.811208 0
M  V30 2217 C 214.763 1.08979 1.2535 0
M  V30 2218 O 215.948 1.36958 1.32843 0
M  V30 2219 C 213.088 2.77595 2.05024 0
M  V30 2220 C 212.201 3.99042 1.65498 0
M  V30 2221 C 211.336 4.48603 2.84479 0
M  V30 2222 C 210.375 5.62547 2.41262 0
M  V30 2223 N 209.512 6.06787 3.53206 0
M  V30 2224 H 214.352 2.96477 0.300906 0
M  V30 2225 H 211.889 1.46462 0.136822 0
M  V30 2226 H 213.847 3.11402 2.77642 0
M  V30 2227 H 212.477 1.99859 2.53488 0
M  V30 2228 H 211.529 3.71302 0.826981 0
M  V30 2229 H 212.841 4.81629 1.29748 0
M  V30 2230 H 211.995 4.84395 3.65303 0
M  V30 2231 H 210.734 3.64995 3.23465 0
M  V30 2232 H 209.739 5.26345 1.58874 0
M  V30 2233 H 210.964 6.47931 2.03377 0
M  V30 2234 H 208.91 5.26117 3.91838 0
M  V30 2235 H 208.827 6.84266 3.21427 0
M  V30 2236 H 210.095 6.4722 4.34427 0
M  V30 2237 N 214.325 -0.140222 1.56975 0
M  V30 2238 C 215.572 -0.851687 1.83719 0
M  V30 2239 C 215.9 -1.80862 0.715485 0
M  V30 2240 O 215.155 -1.93464 -0.294956 0
M  V30 2241 C 215.454 -1.65386 3.16832 0
M  V30 2242 C 215.12 -0.843112 4.42947 0
M  V30 2243 C 213.782 -0.619464 4.77196 0
M  V30 2244 C 216.134 -0.276582 5.20466 0
M  V30 2245 C 213.462 0.181312 5.8642 0
M  V30 2246 C 215.814 0.51127 6.30531 0
M  V30 2247 C 214.478 0.745432 6.63325 0
M  V30 2248 H 213.748 -0.311654 0.672274 0
M  V30 2249 H 216.395 -0.115006 1.91154 0
M  V30 2250 H 214.7 -2.46084 3.04877 0
M  V30 2251 H 216.397 -2.20793 3.34741 0
M  V30 2252 H 212.987 -1.0275 4.16101 0
M  V30 2253 H 217.171 -0.436632 4.94376 0
M  V30 2254 H 212.427 0.372165 6.10266 0
M  V30 2255 H 216.601 0.957354 6.89788 0
M  V30 2256 H 214.228 1.36778 7.47794 0
M  V30 2257 N 215.803 -1.52179 -0.40978 0
M  V30 2258 C 216.735 -1.71703 -1.51825 0
M  V30 2259 C 217.748 -0.597445 -1.51441 0
M  V30 2260 O 218.937 -0.872582 -1.55719 0
M  V30 2261 C 216.037 -1.74171 -2.90719 0
M  V30 2262 C 215.21 -3.03156 -3.15302 0
M  V30 2263 C 214.269 -2.97445 -4.34065 0
M  V30 2264 O 213.295 -3.71352 -4.31377 0
M  V30 2265 N 214.497 -2.15191 -5.39141 0
M  V30 2266 H 217.262 -2.67334 -1.35472 0
M  V30 2267 H 214.823 -1.50409 -0.599069 0
M  V30 2268 H 216.815 -1.67884 -3.68235 0
M  V30 2269 H 215.385 -0.860166 -3.00533 0
M  V30 2270 H 214.605 -3.23097 -2.25836 0
M  V30 2271 H 215.893 -3.88484 -3.28569 0
M  V30 2272 H 215.291 -1.54573 -5.44173 0
M  V30 2273 H 213.848 -2.1476 -6.15403 0
M  V30 2274 N 217.281 0.66697 -1.42791 0
M  V30 2275 C 218.191 1.80962 -1.49299 0
M  V30 2276 C 219.207 1.69775 -0.381108 0
M  V30 2277 O 220.383 1.91188 -0.633188 0
M  V30 2278 C 217.448 3.17156 -1.40045 0
M  V30 2279 C 216.509 3.40242 -2.6179 0
M  V30 2280 C 215.742 4.69939 -2.52969 0
M  V30 2281 O 215.965 5.48372 -1.56985 0
M  V30 2282 O 214.899 4.94441 -3.43237 0
M  V30 2283 H 218.725 1.78427 -2.45759 0
M  V30 2284 H 216.31 0.823713 -1.24641 0
M  V30 2285 H 218.192 3.98413 -1.37276 0
M  V30 2286 H 216.867 3.20312 -0.467138 0
M  V30 2287 H 215.774 2.58802 -2.70134 0
M  V30 2288 H 217.107 3.41923 -3.54047 0
M  V30 2289 N 218.759 1.29093 0.90403 0
M  V30 2290 C 219.669 1.15727 2.0407 0
M  V30 2291 C 220.685 0.0815308 1.73809 0
M  V30 2292 O 221.861 0.292749 1.99261 0
M  V30 2293 C 218.926 0.830424 3.36608 0
M  V30 2294 C 217.987 1.98955 3.80415 0
M  V30 2295 C 217.22 1.6782 5.06628 0
M  V30 2296 O 217.443 0.597105 5.67266 0
M  V30 2297 O 216.377 2.52486 5.46383 0
M  V30 2298 H 220.203 2.11171 2.18267 0
M  V30 2299 H 217.788 1.08504 1.027 0
M  V30 2300 H 219.67 0.662521 4.16159 0
M  V30 2301 H 218.345 -0.0942678 3.23563 0
M  V30 2302 H 217.252 2.21267 3.01648 0
M  V30 2303 H 218.585 2.89529 3.98037 0
M  V30 2304 N 220.237 -1.11381 1.11499 0
M  V30 2305 C 221.147 -2.21019 0.786628 0
M  V30 2306 C 222.163 -1.72597 -0.220507 0
M  V30 2307 O 223.339 -2.01321 -0.0565251 0
M  V30 2308 C 220.404 -3.459 0.235333 0
M  V30 2309 C 219.465 -4.09107 1.30115 0
M  V30 2310 C 218.698 -5.28027 0.776068 0
M  V30 2311 O 218.921 -5.6904 -0.393661 0
M  V30 2312 O 217.855 -5.81835 1.54114 0
M  V30 2313 H 221.681 -2.51521 1.70209 0
M  V30 2314 H 219.266 -1.19928 0.890928 0
M  V30 2315 H 221.148 -4.21346 -0.067715 0
M  V30 2316 H 219.823 -3.17049 -0.652828 0
M  V30 2317 H 218.73 -3.35391 1.65722 0
M  V30 2318 H 220.063 -4.42139 2.16273 0
M  V30 2319 N 221.715 -0.905404 -1.28997 0
M  V30 2320 C 222.662 -0.385892 -2.27551 0
M  V30 2321 C 223.632 0.535113 -1.57244 0
M  V30 2322 O 224.817 0.459119 -1.85194 0
M  V30 2323 C 221.957 0.375461 -3.43051 0
M  V30 2324 C 221.07 -0.577092 -4.28128 0
M  V30 2325 C 220.205 0.201879 -5.30816 0
M  V30 2326 C 219.244 -0.744829 -6.07551 0
M  V30 2327 N 218.381 9.42587e-05 -7.021 0
M  V30 2328 H 223.221 -1.23139 -2.71368 0
M  V30 2329 H 220.758 -0.618542 -1.33463 0
M  V30 2330 H 222.716 0.832992 -4.088 0
M  V30 2331 H 221.346 1.18537 -3.00248 0
M  V30 2332 H 220.398 -1.15315 -3.62501 0
M  V30 2333 H 221.71 -1.30152 -4.8152 0
M  V30 2334 H 220.864 0.720351 -6.02408 0
M  V30 2335 H 219.603 0.959413 -4.7817 0
M  V30 2336 H 218.608 -1.27475 -5.34818 0
M  V30 2337 H 219.833 -1.50178 -6.62286 0
M  V30 2338 H 217.779 0.739791 -6.51815 0
M  V30 2339 H 217.696 -0.664321 -7.53076 0
M  V30 2340 H 218.964 0.498644 -7.77903 0
M  V30 2341 N 223.193 1.4272 -0.668489 0
M  V30 2342 C 224.418 2.06484 -0.194758 0
M  V30 2343 C 224.843 1.49862 1.13679 0
M  V30 2344 O 224.201 0.614582 1.70565 0
M  V30 2345 C 224.249 3.60353 -0.133546 0
M  V30 2346 O 223.353 4.02464 0.899806 0
M  V30 2347 H 222.694 0.656137 -0.10188 0
M  V30 2348 H 225.224 1.82964 -0.915722 0
M  V30 2349 H 225.234 4.07976 0.0447041 0
M  V30 2350 H 223.909 4.00938 -1.1055 0
M  V30 2351 H 222.486 3.66402 0.693109 0
M  V30 2352 N 224.671 0.411399 1.52136 0
M  V30 2353 C 225.601 -0.404015 2.29978 0
M  V30 2354 C 226.582 -1.04412 1.34284 0
M  V30 2355 O 227.767 -1.0527 1.63192 0
M  V30 2356 C 224.897 -1.5197 3.12286 0
M  V30 2357 C 223.851 -1.00448 4.16046 0
M  V30 2358 C 223.177 -2.21393 4.86712 0
M  V30 2359 C 224.477 -0.0569336 5.22269 0
M  V30 2360 H 226.171 0.245529 2.98392 0
M  V30 2361 H 223.717 0.119525 1.43503 0
M  V30 2362 H 225.67 -2.09715 3.6551 0
M  V30 2363 H 224.394 -2.19716 2.41646 0
M  V30 2364 H 223.053 -0.449421 3.63835 0
M  V30 2365 H 222.701 -2.87699 4.12599 0
M  V30 2366 H 222.401 -1.87571 5.56858 0
M  V30 2367 H 223.925 -2.7974 5.4275 0
M  V30 2368 H 225.339 -0.54325 5.7072 0
M  V30 2369 H 223.736 0.192594 5.99791 0
M  V30 2370 H 224.806 0.887663 4.76706 0
M  V30 2371 N 226.149 -1.5696 0.141893 0
M  V30 2372 C 227.079 -2.19516 -0.795936 0
M  V30 2373 C 228.06 -1.14187 -1.26077 0
M  V30 2374 O 229.245 -1.42511 -1.31925 0
M  V30 2375 C 226.375 -2.81272 -2.03723 0
M  V30 2376 C 225.329 -3.92384 -1.70936 0
M  V30 2377 C 224.655 -4.41052 -3.02287 0
M  V30 2378 C 225.955 -5.13403 -0.959954 0
M  V30 2379 H 227.649 -2.98138 -0.274596 0
M  V30 2380 H 225.195 -1.43406 -0.130636 0
M  V30 2381 H 227.148 -3.237 -2.69808 0
M  V30 2382 H 225.872 -1.99973 -2.58221 0
M  V30 2383 H 224.531 -3.50566 -1.07232 0
M  V30 2384 H 224.179 -3.56582 -3.54765 0
M  V30 2385 H 223.879 -5.15993 -2.81114 0
M  V30 2386 H 225.403 -4.86146 -3.69451 0
M  V30 2387 H 226.817 -5.52706 -1.52279 0
M  V30 2388 H 225.214 -5.94073 -0.848357 0
M  V30 2389 H 226.284 -4.84875 0.0492434 0
M  V30 2390 N 227.627 0.131896 -1.57047 0
M  V30 2391 C 228.577 1.1679 -1.95816 0
M  V30 2392 C 229.561 1.37756 -0.831393 0
M  V30 2393 O 230.753 1.39065 -1.09499 0
M  V30 2394 C 227.882 2.49778 -2.35512 0
M  V30 2395 C 226.968 2.32342 -3.54793 0
M  V30 2396 N 227.359 1.8469 -4.70875 0
M  V30 2397 C 225.657 2.63043 -3.60173 0
M  V30 2398 C 226.358 1.80656 -5.52936 0
M  V30 2399 N 225.334 2.24528 -4.95064 0
M  V30 2400 H 229.136 0.791818 -2.83033 0
M  V30 2401 H 226.65 0.339791 -1.58805 0
M  V30 2402 H 228.647 3.24692 -2.61498 0
M  V30 2403 H 227.307 2.88156 -1.49654 0
M  V30 2404 H 228.318 1.54429 -4.9434 0
M  V30 2405 H 224.995 3.05193 -2.84892 0
M  V30 2406 H 226.385 1.45178 -6.56028 0
M  V30 2407 N 229.106 1.52395 0.401703 0
M  V30 2408 C 230.036 1.79231 1.49661 0
M  V30 2409 C 231.017 0.643654 1.57452 0
M  V30 2410 O 232.202 0.889989 1.72606 0
M  V30 2411 C 229.332 1.94971 2.87409 0
M  V30 2412 C 228.286 3.10604 2.94465 0
M  V30 2413 C 227.612 3.11577 4.34538 0
M  V30 2414 C 228.912 4.49921 2.6527 0
M  V30 2415 H 230.606 2.70917 1.27454 0
M  V30 2416 H 228.152 1.30362 0.6117 0
M  V30 2417 H 230.105 2.12328 3.63999 0
M  V30 2418 H 228.829 0.999632 3.10926 0
M  V30 2419 H 227.488 2.93009 2.20321 0
M  V30 2420 H 227.136 2.14277 4.55076 0
M  V30 2421 H 226.836 3.89247 4.40183 0
M  V30 2422 H 228.36 3.31073 5.13053 0
M  V30 2423 H 229.774 4.67683 3.31581 0
M  V30 2424 H 228.171 5.29564 2.82281 0
M  V30 2425 H 229.241 4.57507 1.60671 0
M  V30 2426 N 230.584 -0.659388 1.43143 0
M  V30 2427 C 231.531 -1.77249 1.47822 0
M  V30 2428 C 232.501 -1.62818 0.328558 0
M  V30 2429 O 233.686 -1.83151 0.534838 0
M  V30 2430 C 230.826 -3.15371 1.40126 0
M  V30 2431 C 229.939 -3.4098 2.65249 0
M  V30 2432 C 229.074 -4.68915 2.49584 0
M  V30 2433 C 228.113 -4.87608 3.70006 0
M  V30 2434 N 227.25 -6.06796 3.53189 0
M  V30 2435 H 232.09 -1.72584 2.42938 0
M  V30 2436 H 229.627 -0.842297 1.20598 0
M  V30 2437 H 231.585 -3.9521 1.33659 0
M  V30 2438 H 230.215 -3.19121 0.485964 0
M  V30 2439 H 229.267 -2.55282 2.8202 0
M  V30 2440 H 230.579 -3.50681 3.54717 0
M  V30 2441 H 229.733 -5.56871 2.4079 0
M  V30 2442 H 228.472 -4.61524 1.5763 0
M  V30 2443 H 227.477 -3.9809 3.79215 0
M  V30 2444 H 228.702 -4.96834 4.62961 0
M  V30 2445 H 226.648 -6.00549 2.63965 0
M  V30 2446 H 226.565 -6.17428 4.36255 0
M  V30 2447 H 227.833 -6.9739 3.48236 0
M  V30 2448 N 232.062 -1.29571 -0.897171 0
M  V30 2449 C 233.29 -1.20583 -1.68129 0
M  V30 2450 C 233.705 0.233181 -1.87354 0
M  V30 2451 O 233.062 1.15579 -1.41236 0
M  V30 2452 C 233.113 -1.91772 -3.06441 0
M  V30 2453 O 232.834 -3.30053 -2.88091 0
M  V30 2454 C 234.335 -1.89291 -4.00854 0
M  V30 2455 H 231.555 -0.417826 -0.525036 0
M  V30 2456 H 234.099 -1.70987 -1.12177 0
M  V30 2457 H 232.254 -1.45196 -3.59161 0
M  V30 2458 H 232.668 -3.65942 -3.75748 0
M  V30 2459 H 234.142 -2.43662 -4.95311 0
M  V30 2460 H 234.619 -0.869014 -4.30517 0
M  V30 2461 H 235.225 -2.35622 -3.54066 0
M  V30 2462 N 233.54 1.10788 -1.12088 0
M  V30 2463 C 234.789 1.82036 -0.868659 0
M  V30 2464 C 235.102 1.85929 0.607426 0
M  V30 2465 O 236.308 2.53346 0.97613 0
M  V30 2466 C 234.764 3.26951 -1.50435 0
M  V30 2467 C 234.372 3.31367 -3.01496 0
M  V30 2468 C 236.116 4.03053 -1.33225 0
M  V30 2469 C 234.023 4.7072 -3.58017 0
M  V30 2470 H 232.953 0.682108 -0.321318 0
M  V30 2471 H 235.604 1.24618 -1.34694 0
M  V30 2472 H 233.986 3.84343 -0.953735 0
M  V30 2473 H 235.16 2.83819 -3.6302 0
M  V30 2474 H 233.475 2.6875 -3.18061 0
M  V30 2475 H 236.072 5.05981 -1.72878 0
M  V30 2476 H 236.415 4.15387 -0.275529 0
M  V30 2477 H 236.948 3.52066 -1.85188 0
M  V30 2478 H 233.687 4.63585 -4.63432 0
M  V30 2479 H 233.207 5.1865 -3.01268 0
M  V30 2480 H 234.886 5.39685 -3.56859 0
M  V30 2481 N 235.018 0.912232 1.28515 0
M  V30 2482 C 236.434 0.610159 1.47476 0
M  V30 2483 C 236.634 -0.844955 1.82928 0
M  V30 2484 O 235.69 -1.62416 1.93332 0
M  V30 2485 C 237.003 1.54675 2.57868 0
M  V30 2486 C 238.551 1.55331 2.71738 0
M  V30 2487 C 239.026 2.47649 3.85272 0
M  V30 2488 N 240.517 2.45767 3.92623 0
M  V30 2489 C 241.252 3.13896 4.79851 0
M  V30 2490 N 240.748 3.9135 5.71679 0
M  V30 2491 N 242.541 3.02991 4.73448 0
M  V30 2492 H 234.692 1.85318 1.03783 0
M  V30 2493 H 236.955 0.794777 0.516753 0
M  V30 2494 H 236.661 2.5841 2.38574 0
M  V30 2495 H 236.535 1.27671 3.54937 0
M  V30 2496 H 238.922 0.52335 2.90422 0
M  V30 2497 H 239.003 1.86378 1.75205 0
M  V30 2498 H 238.647 3.50745 3.67342 0
M  V30 2499 H 238.577 2.13904 4.81199 0
M  V30 2500 H 241.068 1.89503 3.26951 0
M  V30 2501 H 241.381 4.40359 6.35062 0
M  V30 2502 H 239.726 3.95455 5.71524 0
M  V30 2503 H 242.917 2.41987 4.007 0
M  V30 2504 H 243.09 3.5636 5.41213 0
M  V30 2505 N 236.496 -1.42363 0.676048 0
M  V30 2506 C 237.446 -2.27987 -0.0242903 0
M  V30 2507 C 238.43 -1.41153 -0.772319 0
M  V30 2508 O 239.622 -1.64592 -0.651025 0
M  V30 2509 C 236.751 -3.29195 -0.973953 0
M  V30 2510 C 235.837 -4.23512 -0.223202 0
M  V30 2511 N 236.228 -4.99865 0.772589 0
M  V30 2512 C 234.526 -4.43606 -0.461469 0
M  V30 2513 C 235.227 -5.68757 1.22027 0
M  V30 2514 N 234.203 -5.40811 0.549975 0
M  V30 2515 H 238.005 -2.84445 0.73949 0
M  V30 2516 H 235.519 -1.54341 0.50522 0
M  V30 2517 H 237.516 -3.89339 -1.49067 0
M  V30 2518 H 236.176 -2.74298 -1.73755 0
M  V30 2519 H 237.187 -5.04921 1.15217 0
M  V30 2520 H 233.864 -3.99749 -1.20446 0
M  V30 2521 H 235.254 -6.40007 2.0455 0
M  V30 2522 N 237.974 -0.419461 -1.51915 0
M  V30 2523 C 238.921 0.400927 -2.27291 0
M  V30 2524 C 239.891 1.03224 -1.30131 0
M  V30 2525 O 241.076 1.05455 -1.59009 0
M  V30 2526 C 238.216 1.50603 -3.10504 0
M  V30 2527 C 237.329 0.89462 -4.22635 0
M  V30 2528 C 236.464 1.97328 -4.93189 0
M  V30 2529 C 235.503 1.33935 -5.97267 0
M  V30 2530 N 234.64 2.3586 -6.61298 0
M  V30 2531 H 239.48 -0.248251 -2.96964 0
M  V30 2532 H 237.017 -0.134266 -1.46486 0
M  V30 2533 H 238.975 2.15783 -3.57062 0
M  V30 2534 H 237.605 2.12509 -2.42981 0
M  V30 2535 H 236.657 0.131583 -3.80172 0
M  V30 2536 H 237.969 0.391641 -4.9726 0
M  V30 2537 H 237.123 2.70211 -5.43204 0
M  V30 2538 H 235.862 2.50994 -4.18155 0
M  V30 2539 H 234.867 0.595896 -5.46561 0
M  V30 2540 H 236.092 0.810252 -6.74249 0
M  V30 2541 H 234.038 2.88639 -5.89087 0
M  V30 2542 H 233.955 1.90403 -7.3163 0
M  V30 2543 H 235.223 3.08282 -7.15949 0
M  V30 2544 N 239.452 1.56882 -0.150215 0
M  V30 2545 C 240.382 2.19935 0.784284 0
M  V30 2546 C 241.363 1.14854 1.25469 0
M  V30 2547 O 242.548 1.43209 1.31168 0
M  V30 2548 C 239.678 2.82349 2.02229 0
M  V30 2549 C 238.632 3.93285 1.68853 0
M  V30 2550 C 237.958 4.42649 2.99944 0
M  V30 2551 C 239.258 5.13904 0.932714 0
M  V30 2552 H 240.952 2.9828 0.258781 0
M  V30 2553 H 238.498 1.43473 0.123029 0
M  V30 2554 H 240.451 3.25126 2.68088 0
M  V30 2555 H 239.175 2.0134 2.57157 0
M  V30 2556 H 237.834 3.5113 1.05371 0
M  V30 2557 H 237.482 3.58458 3.52869 0
M  V30 2558 H 237.182 5.17476 2.78374 0
M  V30 2559 H 238.706 4.88099 3.66868 0
M  V30 2560 H 240.12 5.53506 1.49345 0
M  V30 2561 H 238.517 5.94515 0.81684 0
M  V30 2562 H 239.587 4.84842 -0.0749568 0
M  V30 2563 N 240.93 -0.123565 1.57115 0
M  V30 2564 C 241.86 -1.15309 2.03042 0
M  V30 2565 C 242.841 -1.43454 0.914061 0
M  V30 2566 O 244.026 -1.53973 1.18347 0
M  V30 2567 C 241.156 -2.48043 2.43089 0
M  V30 2568 C 240.11 -2.3437 3.58127 0
M  V30 2569 C 239.436 -3.72026 3.84059 0
M  V30 2570 C 240.736 -1.80804 4.90007 0
M  V30 2571 H 242.43 -0.771102 2.893 0
M  V30 2572 H 239.976 -0.369479 1.39179 0
M  V30 2573 H 241.929 -3.20311 2.73823 0
M  V30 2574 H 240.653 -2.88122 1.53796 0
M  V30 2575 H 239.312 -1.64551 3.27595 0
M  V30 2576 H 238.96 -4.09582 2.91979 0
M  V30 2577 H 238.66 -3.63732 4.6149 0
M  V30 2578 H 240.184 -4.45806 4.1724 0
M  V30 2579 H 241.598 -2.42886 5.19307 0
M  V30 2580 H 239.995 -1.83343 5.71407 0
M  V30 2581 H 241.065 -0.76528 4.78823 0
M  V30 2582 N 242.408 -1.52605 -0.393616 0
M  V30 2583 C 243.819 -1.59417 -0.971761 0
M  V30 2584 C 244.17 -0.444173 -1.91106 0
M  V30 2585 O 243.295 0.433382 -2.12016 0
M  V30 2586 C 243.89 -2.88936 -1.76921 0
M  V30 2587 C 242.449 -2.98175 -2.29714 0
M  V30 2588 C 241.596 -2.54491 -1.10135 0
M  V30 2589 H 244.547 -1.57751 -0.173317 0
M  V30 2590 H 244.568 -2.75163 -2.62804 0
M  V30 2591 H 244.08 -3.72616 -1.08532 0
M  V30 2592 H 242.181 -2.19024 -3.01429 0
M  V30 2593 H 242.294 -4.02726 -2.59517 0
M  V30 2594 H 240.658 -2.08702 -1.45999 0
M  V30 2595 H 241.441 -3.4056 -0.432874 0
M  V30 2596 N 243.887 0.651787 -1.4349 0
M  V30 2597 C 244.835 1.78586 -1.49029 0
M  V30 2598 C 245.829 1.65448 -0.363767 0
M  V30 2599 O 247.035 1.71777 -0.537821 0
M  V30 2600 H 243.41 0.589236 -0.467231 0
M  V30 2601 H 245.381 1.71035 -2.44519 0
M  V30 2602 C 244.13 3.16851 -1.43181 0
M  V30 2603 H 243.453 3.27598 -2.29171 0
M  V30 2604 H 244.893 3.96156 -1.51118 0
M  V30 2605 C 243.352 3.36568 -0.149616 0
M  V30 2606 O 243.882 3.93885 0.788509 0
M  V30 2607 N 242.088 2.90539 -0.0593484 0
M  V30 2608 H 241.635 2.4408 -0.823575 0
M  V30 2609 H 241.593 3.04108 0.797853 0
M  V30 2610 N 245.365 1.30045 0.890287 0
M  V30 2611 C 246.295 1.18541 2.01172 0
M  V30 2612 C 247.276 0.0773356 1.69924 0
M  V30 2613 O 248.461 0.25845 1.92473 0
M  V30 2614 C 245.591 0.870941 3.36202 0
M  V30 2615 C 244.545 1.93637 3.81692 0
M  V30 2616 C 243.871 1.475 5.13953 0
M  V30 2617 C 245.171 3.34666 4.00994 0
M  V30 2618 H 246.865 2.12359 2.11054 0
M  V30 2619 H 244.411 1.02238 1.01407 0
M  V30 2620 H 246.364 0.777141 4.14172 0
M  V30 2621 H 245.088 -0.102926 3.26438 0
M  V30 2622 H 243.747 2.01972 3.05946 0
M  V30 2623 H 243.395 0.489551 5.00612 0
M  V30 2624 H 243.095 2.1876 5.4536 0
M  V30 2625 H 244.619 1.39489 5.94454 0
M  V30 2626 H 246.033 3.2912 4.69417 0
M  V30 2627 H 244.43 4.03966 4.43769 0
M  V30 2628 H 245.5 3.76949 3.05021 0
M  V30 2629 N 246.843 -1.10192 1.12674 0
M  V30 2630 C 247.791 -2.18694 0.792196 0
M  V30 2631 C 248.785 -1.67938 -0.222058 0
M  V30 2632 O 249.991 -1.79822 -0.0800074 0
M  V30 2633 H 246.366 -0.713223 0.238364 0
M  V30 2634 H 248.337 -2.44149 1.71564 0
M  V30 2635 C 247.086 -3.46682 0.265859 0
M  V30 2636 H 246.409 -3.86101 1.03761 0
M  V30 2637 H 247.849 -4.23942 0.0701128 0
M  V30 2638 C 246.308 -3.21506 -1.00675 0
M  V30 2639 O 246.838 -3.43408 -2.08408 0
M  V30 2640 N 245.044 -2.75158 -0.934692 0
M  V30 2641 H 244.591 -2.57535 -0.0578604 0
M  V30 2642 H 244.549 -2.58691 -1.7868 0
M  V30 2643 N 248.321 -0.919034 -1.28029 0
M  V30 2644 C 249.598 -0.473668 -1.89778 0
M  V30 2645 C 249.978 1.04783 -1.83259 0
M  V30 2646 O 249.326 1.8982 -1.27202 0
M  V30 2647 C 249.536 -1.00998 -3.34066 0
M  V30 2648 C 250.884 -1.06525 -4.1102 0
M  V30 2649 O 251.908 -0.958996 -3.43048 0
M  V30 2650 O 250.767 -1.22776 -5.3253 0
M  V30 2651 H 247.861 -0.15098 -0.813101 0
M  V30 2652 H 250.407 -1.01016 -1.36359 0
M  V30 2653 H 249.179 -2.05392 -3.33061 0
M  V30 2654 H 248.802 -0.454626 -3.94992 0
M  V30 2655 N 249.799 1.42003 -0.683588 0
M  V30 2656 C 251.048 2.00638 -0.206681 0
M  V30 2657 C 251.361 1.5472 1.19671 0
M  V30 2658 O 252.567 2.05833 1.77045 0
M  V30 2659 C 251.023 3.58487 -0.318632 0
M  V30 2660 C 250.631 4.1339 -1.72663 0
M  V30 2661 C 252.375 4.24384 0.0991141 0
M  V30 2662 C 250.282 5.63633 -1.79087 0
M  V30 2663 H 249.212 0.750408 -0.0735107 0
M  V30 2664 H 251.863 1.62624 -0.850048 0
M  V30 2665 H 250.245 3.94047 0.392781 0
M  V30 2666 H 251.419 3.89273 -2.46583 0
M  V30 2667 H 249.734 3.59976 -2.09299 0
M  V30 2668 H 252.331 5.34652 0.0713833 0
M  V30 2669 H 252.674 4.00505 1.13586 0
M  V30 2670 H 253.207 3.93816 -0.561599 0
M  V30 2671 H 249.946 5.92323 -2.80774 0
M  V30 2672 H 249.466 5.89714 -1.09535 0
M  V30 2673 H 251.145 6.28201 -1.5483 0
M  V30 2674 N 251.277 0.427512 1.51691 0
M  V30 2675 C 252.523 -0.142439 2.02299 0
M  V30 2676 C 252.856 -1.43214 1.31162 0
M  V30 2677 O 252.131 -1.89833 0.423511 0
M  V30 2678 C 252.414 -0.371301 3.58181 0
M  V30 2679 C 252.267 0.936358 4.39946 0
M  V30 2680 C 253.586 -1.14542 4.24933 0
M  V30 2681 H 250.705 -0.0502937 0.735282 0
M  V30 2682 H 253.347 0.564584 1.81418 0
M  V30 2683 H 251.497 -0.973559 3.76104 0
M  V30 2684 H 253.169 1.57184 4.33694 0
M  V30 2685 H 251.412 1.5432 4.05423 0
M  V30 2686 H 252.083 0.730388 5.47147 0
M  V30 2687 H 254.559 -0.635362 4.11221 0
M  V30 2688 H 253.435 -1.27431 5.33903 0
M  V30 2689 H 253.696 -2.17093 3.85127 0
M  V30 2690 N 252.755 -1.56801 0.158532 0
M  V30 2691 C 253.718 -2.16138 -0.762705 0
M  V30 2692 C 254.718 -1.1061 -1.16713 0
M  V30 2693 O 255.908 -1.36191 -1.08617 0
M  V30 2694 C 253.04 -2.73386 -2.03649 0
M  V30 2695 H 254.233 -2.98886 -0.246354 0
M  V30 2696 H 251.786 -1.56035 -0.0909744 0
M  V30 2697 H 252.521 -1.94335 -2.59623 0
M  V30 2698 H 252.306 -3.50601 -1.75559 0
M  V30 2699 H 253.796 -3.19065 -2.6942 0
M  V30 2700 N 254.233 0.115231 -1.57178 0
M  V30 2701 C 255.479 0.82357 -1.85325 0
M  V30 2702 C 255.812 1.79349 -0.744814 0
M  V30 2703 O 255.087 1.92899 0.249024 0
M  V30 2704 C 255.37 1.57014 -3.24066 0
M  V30 2705 C 255.223 0.619565 -4.45513 0
M  V30 2706 C 256.542 2.52545 -3.60429 0
M  V30 2707 H 253.661 0.297948 -0.674089 0
M  V30 2708 H 256.303 0.0877138 -1.89797 0
M  V30 2709 H 254.453 2.19742 -3.20383 0
M  V30 2710 H 256.125 0.000837639 -4.613 0
M  V30 2711 H 254.368 -0.0686174 -4.33746 0
M  V30 2712 H 255.039 1.17866 -5.3927 0
M  V30 2713 H 257.515 1.9992 -3.64926 0
M  V30 2714 H 256.391 3.01811 -4.58477 0
M  V30 2715 H 256.652 3.35383 -2.88047 0
M  V30 2716 N 255.711 1.52812 0.385517 0
M  V30 2717 C 256.959 1.67694 1.12797 0
M  V30 2718 C 257.28 0.421115 1.90399 0
M  V30 2719 O 256.55 -0.564551 1.87589 0
M  V30 2720 H 255.13 0.618155 0.419396 0
M  V30 2721 H 257.792 1.89938 0.436972 0
M  V30 2722 H 256.888 2.52896 1.82894 0
M  V30 2723 N 257.189 -0.644168 1.43834 0
M  V30 2724 C 258.6 -1.22554 1.40845 0
M  V30 2725 C 258.951 -1.9585 0.117115 0
M  V30 2726 O 258.076 -2.01734 -0.783086 0
M  V30 2727 C 258.671 -2.22907 2.55143 0
M  V30 2728 C 257.23 -2.76501 2.5539 0
M  V30 2729 C 256.377 -1.51287 2.32396 0
M  V30 2730 H 259.328 -0.43563 1.52604 0
M  V30 2731 H 259.349 -3.05259 2.2715 0
M  V30 2732 H 258.861 -1.69533 3.49114 0
M  V30 2733 H 256.962 -3.33914 1.65324 0
M  V30 2734 H 257.075 -3.23429 3.53455 0
M  V30 2735 H 255.439 -1.78957 1.81236 0
M  V30 2736 H 256.222 -0.998336 3.28463 0
M  V30 2737 N 258.668 -1.30515 -0.883378 0
M  V30 2738 C 259.578 -1.18959 -2.02203 0
M  V30 2739 C 260.594 -0.109172 -1.73657 0
M  V30 2740 O 261.77 -0.324413 -1.9877 0
M  V30 2741 C 258.835 -0.883871 -3.35244 0
M  V30 2742 C 257.896 -2.04982 -3.77201 0
M  V30 2743 C 257.129 -1.75859 -5.03894 0
M  V30 2744 O 257.352 -0.687276 -5.66244 0
M  V30 2745 O 256.286 -2.61146 -5.42297 0
M  V30 2746 H 260.112 -2.14616 -2.1488 0
M  V30 2747 H 257.697 -1.10124 -1.0096 0
M  V30 2748 H 259.579 -0.728644 -4.15053 0
M  V30 2749 H 258.254 0.0427798 -3.23672 0
M  V30 2750 H 257.161 -2.26038 -2.9809 0
M  V30 2751 H 258.494 -2.95825 -3.93381 0
M  V30 2752 N 260.146 1.09593 -1.13257 0
M  V30 2753 C 261.096 2.14345 -0.777179 0
M  V30 2754 C 262.08 1.59277 0.227966 0
M  V30 2755 O 263.272 1.76971 0.0321413 0
M  V30 2756 C 260.401 3.42439 -0.242991 0
M  V30 2757 C 259.487 4.04419 -1.27694 0
M  V30 2758 N 259.878 4.40979 -2.47732 0
M  V30 2759 C 258.176 4.31596 -1.12432 0
M  V30 2760 C 258.877 4.89784 -3.13826 0
M  V30 2761 N 257.853 4.87133 -2.41252 0
M  V30 2762 H 261.655 2.40415 -1.69049 0
M  V30 2763 H 259.169 1.26803 -1.01463 0
M  V30 2764 H 261.166 4.16889 0.0298496 0
M  V30 2765 H 259.826 3.17824 0.66467 0
M  V30 2766 H 260.837 4.32396 -2.85051 0
M  V30 2767 H 257.514 4.16595 -0.274684 0
M  V30 2768 H 258.904 5.2755 -4.16102 0
M  V30 2769 N 261.624 0.925811 1.2754 0
M  V30 2770 C 262.871 0.565255 1.94451 0
M  V30 2771 C 263.199 -0.89316 1.7278 0
M  V30 2772 O 262.454 -1.65213 1.04895 0
M  V30 2773 C 262.753 0.835296 3.47502 0
M  V30 2774 C 262.419 2.27515 3.89291 0
M  V30 2775 C 261.081 2.66879 4.00411 0
M  V30 2776 C 263.433 3.21158 4.10496 0
M  V30 2777 C 260.761 3.99014 4.30122 0
M  V30 2778 C 263.113 4.52871 4.4169 0
M  V30 2779 C 261.777 4.92072 4.51023 0
M  V30 2780 H 261.047 0.206841 0.711546 0
M  V30 2781 H 263.694 1.16942 1.51647 0
M  V30 2782 H 261.999 0.148442 3.91519 0
M  V30 2783 H 263.696 0.535322 3.97411 0
M  V30 2784 H 260.286 1.95976 3.81171 0
M  V30 2785 H 264.47 2.9195 4.01346 0
M  V30 2786 H 259.726 4.2907 4.35556 0
M  V30 2787 H 263.9 5.25436 4.57045 0
M  V30 2788 H 261.527 5.9449 4.738 0
M  V30 2789 N 263.102 -1.41638 0.69111 0
M  V30 2790 C 264.332 -2.0533 0.228758 0
M  V30 2791 C 264.74 -1.52089 -1.12541 0
M  V30 2792 O 264.083 -0.662145 -1.71351 0
M  V30 2793 C 264.145 -3.59349 0.10407 0
M  V30 2794 C 263.809 -4.35362 1.38956 0
M  V30 2795 C 264.806 -4.64942 2.32648 0
M  V30 2796 C 262.491 -4.74714 1.64169 0
M  V30 2797 C 264.485 -5.32828 3.49818 0
M  V30 2798 C 262.172 -5.42338 2.81625 0
M  V30 2799 C 263.17 -5.71322 3.74273 0
M  V30 2800 O 262.858 -6.37554 4.89673 0
M  V30 2801 H 262.59 -0.667796 0.104997 0
M  V30 2802 H 265.144 -1.82477 0.942938 0
M  V30 2803 H 263.374 -3.80924 -0.665839 0
M  V30 2804 H 265.063 -4.04633 -0.320519 0
M  V30 2805 H 265.829 -4.35025 2.14425 0
M  V30 2806 H 261.708 -4.51538 0.929202 0
M  V30 2807 H 265.252 -5.55368 4.22152 0
M  V30 2808 H 261.149 -5.71673 2.99768 0
M  V30 2809 H 261.917 -6.56049 4.8943 0
M  V30 2810 N 264.58 -0.43555 -1.51462 0
M  V30 2811 C 265.828 0.131254 -2.01673 0
M  V30 2812 C 266.149 1.43368 -1.32177 0
M  V30 2813 O 265.419 1.90524 -0.455769 0
M  V30 2814 H 263.999 0.0514954 -0.745223 0
M  V30 2815 H 266.661 -0.577847 -1.86137 0
M  V30 2816 H 265.757 0.308446 -3.10572 0
M  V30 2817 N 266.058 1.56714 -0.166846 0
M  V30 2818 C 267.286 2.0112 0.485644 0
M  V30 2819 C 267.701 1.04705 1.57106 0
M  V30 2820 O 267.058 0.0471923 1.82439 0
M  V30 2821 C 267.109 3.45361 1.06808 0
M  V30 2822 O 266.83 4.38092 0.0259995 0
M  V30 2823 C 268.331 4.05145 1.79924 0
M  V30 2824 H 265.551 0.65931 0.124704 0
M  V30 2825 H 268.095 2.02746 -0.267262 0
M  V30 2826 H 266.25 3.44524 1.7715 0
M  V30 2827 H 266.664 5.22519 0.455398 0
M  V30 2828 H 268.138 5.08009 2.15942 0
M  V30 2829 H 268.615 3.46982 2.69258 0
M  V30 2830 H 269.221 4.09672 1.14234 0
M  V30 2831 N 267.536 -0.106894 1.57237 0
M  V30 2832 C 268.484 -1.14944 2.02215 0
M  V30 2833 C 269.478 -1.42167 0.92114 0
M  V30 2834 O 270.684 -1.41987 1.10634 0
M  V30 2835 H 267.059 -0.387841 0.64427 0
M  V30 2836 H 269.03 -0.743683 2.88984 0
M  V30 2837 C 267.779 -2.4647 2.4525 0
M  V30 2838 H 267.102 -2.26363 3.29545 0
M  V30 2839 H 268.542 -3.17948 2.80508 0
M  V30 2840 C 267.001 -3.09921 1.321 0
M  V30 2841 O 267.531 -3.9651 0.643622 0
M  V30 2842 N 265.737 -2.69986 1.07497 0
M  V30 2843 H 265.284 -1.99667 1.62761 0
M  V30 2844 H 265.242 -3.12769 0.319876 0
M  V30 2845 N 269.014 -1.53014 -0.377408 0
M  V30 2846 C 270.291 -1.59215 -1.13622 0
M  V30 2847 C 270.671 -0.392407 -2.07421 0
M  V30 2848 O 270.019 0.618342 -2.19975 0
M  V30 2849 C 270.229 -2.93669 -1.88573 0
M  V30 2850 C 271.577 -3.47822 -2.43526 0
M  V30 2851 O 272.601 -2.9562 -1.98715 0
M  V30 2852 O 271.46 -4.39055 -3.25412 0
M  V30 2853 H 268.554 -0.642625 -0.52054 0
M  V30 2854 H 271.1 -1.65353 -0.381625 0
M  V30 2855 H 269.872 -3.7243 -1.20048 0
M  V30 2856 H 269.495 -2.90968 -2.70968 0
M  V30 2857 N 270.492 0.636531 -1.44174 0
M  V30 2858 C 271.442 1.74233 -1.47061 0
M  V30 2859 C 272.426 1.57331 -0.337034 0
M  V30 2860 O 273.618 1.67159 -0.581973 0
M  V30 2861 C 270.747 3.12897 -1.41246 0
M  V30 2862 C 269.833 3.35288 -2.59698 0
M  V30 2863 N 270.224 3.2807 -3.84972 0
M  V30 2864 C 268.522 3.66065 -2.54778 0
M  V30 2865 C 269.223 3.51001 -4.63867 0
M  V30 2866 N 268.199 3.73616 -3.94857 0
M  V30 2867 H 272.001 1.67103 -2.41773 0
M  V30 2868 H 269.515 0.838806 -1.3906 0
M  V30 2869 H 271.512 3.92189 -1.41398 0
M  V30 2870 H 270.172 3.21197 -0.47569 0
M  V30 2871 H 271.183 3.07109 -4.17019 0
M  V30 2872 H 267.86 3.81379 -1.6987 0
M  V30 2873 H 269.25 3.51059 -5.72894 0
M  V30 2874 N 271.97 1.30982 0.876444 0
M  V30 2875 C 273.2 1.23063 1.65949 0
M  V30 2876 C 273.608 -0.207537 1.88058 0
M  V30 2877 O 272.951 -1.14781 1.43426 0
M  V30 2878 C 273.013 1.89768 3.05333 0
M  V30 2879 C 272.677 3.39106 3.0636 0
M  V30 2880 C 273.674 4.3496 2.84791 0
M  V30 2881 C 271.359 3.80693 3.27686 0
M  V30 2882 C 273.353 5.70375 2.84519 0
M  V30 2883 C 271.04 5.16223 3.27043 0
M  V30 2884 C 272.038 6.10875 3.05485 0
M  V30 2885 O 271.726 7.43928 3.04674 0
M  V30 2886 H 271.458 0.426685 0.524324 0
M  V30 2887 H 274.012 1.7329 1.10271 0
M  V30 2888 H 272.242 1.34082 3.6271 0
M  V30 2889 H 273.931 1.75853 3.65829 0
M  V30 2890 H 274.697 4.0416 2.68103 0
M  V30 2891 H 270.576 3.07457 3.43499 0
M  V30 2892 H 274.12 6.44228 2.67611 0
M  V30 2893 H 270.017 5.4666 3.43269 0
M  V30 2894 H 270.785 7.53022 3.2078 0
M  V30 2895 N 273.449 -1.08991 1.13837 0
M  V30 2896 C 274.696 -1.81258 0.902882 0
M  V30 2897 C 275.024 -1.85936 -0.570803 0
M  V30 2898 O 274.279 -1.3267 -1.43865 0
M  V30 2899 C 274.578 -3.27042 1.44147 0
M  V30 2900 C 274.244 -3.4249 2.93276 0
M  V30 2901 C 272.906 -3.46414 3.33992 0
M  V30 2902 C 275.258 -3.4666 3.892 0
M  V30 2903 C 272.586 -3.52091 4.69307 0
M  V30 2904 C 274.938 -3.53872 5.24364 0
M  V30 2905 C 273.602 -3.56066 5.646 0
M  V30 2906 H 272.872 -0.663268 0.330388 0
M  V30 2907 H 275.519 -1.28368 1.42105 0
M  V30 2908 H 273.824 -3.82599 0.844097 0
M  V30 2909 H 275.521 -3.81499 1.23528 0
M  V30 2910 H 272.111 -3.40124 2.60794 0
M  V30 2911 H 276.295 -3.42865 3.58828 0
M  V30 2912 H 271.551 -3.52079 4.9985 0
M  V30 2913 H 275.725 -3.56043 5.98503 0
M  V30 2914 H 273.352 -3.60218 6.69438 0
M  V30 2915 N 274.927 -0.932562 -1.27047 0
M  V30 2916 C 275.857 -0.452902 -2.29066 0
M  V30 2917 C 276.838 0.489338 -1.62909 0
M  V30 2918 O 278.023 0.393046 -1.90181 0
M  V30 2919 C 275.153 0.290698 -3.46081 0
M  V30 2920 C 274.107 -0.564168 -4.24265 0
M  V30 2921 C 273.433 0.308886 -5.33807 0
M  V30 2922 C 274.733 -1.83112 -4.89149 0
M  V30 2923 H 276.427 -1.30552 -2.69437 0
M  V30 2924 H 273.973 -0.629201 -1.29526 0
M  V30 2925 H 275.926 0.637233 -4.16554 0
M  V30 2926 H 274.65 1.17738 -3.0464 0
M  V30 2927 H 273.309 -0.893477 -3.55545 0
M  V30 2928 H 272.957 1.19467 -4.88607 0
M  V30 2929 H 272.657 -0.259633 -5.87026 0
M  V30 2930 H 274.181 0.650884 -6.07121 0
M  V30 2931 H 275.595 -1.55236 -5.51883 0
M  V30 2932 H 273.992 -2.34353 -5.52448 0
M  V30 2933 H 275.062 -2.54772 -4.12576 0
M  V30 2934 N 276.405 1.4127 -0.698611 0
M  V30 2935 C 277.682 1.94955 -0.158762 0
M  V30 2936 C 278.062 1.63781 1.33188 0
M  V30 2937 O 277.41 0.946423 2.07979 0
M  V30 2938 C 277.62 3.46044 -0.453309 0
M  V30 2939 C 278.968 4.22872 -0.382707 0
M  V30 2940 O 279.992 3.54076 -0.388396 0
M  V30 2941 O 278.851 5.45407 -0.345463 0
M  V30 2942 H 275.945 0.82683 -0.0167505 0
M  V30 2943 H 278.491 1.50971 -0.77498 0
M  V30 2944 H 277.263 3.62028 -1.48498 0
M  V30 2945 H 276.886 3.97128 0.19373 0
M  V30 2946 N 277.883 0.443576 1.51229 0
M  V30 2947 C 279.294 -0.0180867 1.86691 0
M  V30 2948 C 279.645 -1.41384 1.36033 0
M  V30 2949 O 278.77 -2.04291 0.713722 0
M  V30 2950 C 279.365 -0.039597 3.38777 0
M  V30 2951 C 277.924 -0.445692 3.73752 0
M  V30 2952 C 277.071 0.357584 2.74985 0
M  V30 2953 H 280.022 0.659138 1.44364 0
M  V30 2954 H 280.043 -0.847761 3.70936 0
M  V30 2955 H 279.555 0.976382 3.75617 0
M  V30 2956 H 277.656 -1.46704 3.42503 0
M  V30 2957 H 277.769 -0.166155 4.78812 0
M  V30 2958 H 276.133 -0.184973 2.54027 0
M  V30 2959 H 276.916 1.37256 3.14668 0
M  V30 2960 N 279.361 -1.56624 0.175154 0
M  V30 2961 C 280.591 -2.01082 -0.474283 0
M  V30 2962 C 280.999 -1.05447 -1.57091 0
M  V30 2963 O 280.342 -0.0480595 -1.83637 0
M  V30 2964 C 280.404 -3.41963 -1.10911 0
M  V30 2965 C 280.068 -4.56742 -0.153666 0
M  V30 2966 C 281.065 -5.16076 0.629448 0
M  V30 2967 C 278.75 -5.02277 -0.0483776 0
M  V30 2968 C 280.744 -6.19377 1.50501 0
M  V30 2969 C 278.431 -6.05427 0.830768 0
M  V30 2970 C 279.429 -6.63849 1.60605 0
M  V30 2971 O 279.117 -7.64998 2.47049 0
M  V30 2972 H 278.849 -0.664261 -0.125432 0
M  V30 2973 H 281.403 -2.03549 0.275163 0
M  V30 2974 H 279.633 -3.36422 -1.90676 0
M  V30 2975 H 281.322 -3.70352 -1.66114 0
M  V30 2976 H 282.088 -4.81776 0.558297 0
M  V30 2977 H 277.967 -4.56513 -0.641611 0
M  V30 2978 H 281.511 -6.64906 2.1106 0
M  V30 2979 H 277.408 -6.39151 0.903107 0
M  V30 2980 H 278.176 -7.82336 2.40607 0
M  V30 2981 N 280.839 0.0985539 -1.57292 0
M  V30 2982 C 281.769 1.12064 -2.04851 0
M  V30 2983 C 282.75 1.41981 -0.936767 0
M  V30 2984 O 283.935 1.52071 -1.20781 0
M  V30 2985 C 281.065 2.44144 -2.47004 0
M  V30 2986 C 280.019 2.28643 -3.6181 0
M  V30 2987 C 279.345 3.65869 -3.89929 0
M  V30 2988 C 280.645 1.72986 -4.92822 0
M  V30 2989 H 282.339 0.724979 -2.9049 0
M  V30 2990 H 279.885 0.34729 -1.39749 0
M  V30 2991 H 281.838 3.15914 -2.78884 0
M  V30 2992 H 280.562 2.85639 -1.5836 0
M  V30 2993 H 279.221 1.59318 -3.30172 0
M  V30 2994 H 278.869 4.04885 -2.98458 0
M  V30 2995 H 278.569 3.56344 -4.67218 0
M  V30 2996 H 280.093 4.39112 -4.2428 0
M  V30 2997 H 281.507 2.34593 -5.23105 0
M  V30 2998 H 279.904 1.74229 -5.74251 0
M  V30 2999 H 280.974 0.689007 -4.7998 0
M  V30 3000 N 282.317 1.53212 0.369288 0
M  V30 3001 C 283.249 1.75668 1.47219 0
M  V30 3002 C 284.262 0.637387 1.49804 0
M  V30 3003 O 285.451 0.913561 1.5335 0
M  V30 3004 C 282.551 1.81818 2.85999 0
M  V30 3005 C 281.724 3.11409 3.07153 0
M  V30 3006 C 280.783 3.08849 4.26026 0
M  V30 3007 O 279.809 3.82659 4.2138 0
M  V30 3008 N 281.011 2.29409 5.33246 0
M  V30 3009 H 283.776 2.70832 1.28337 0
M  V30 3010 H 281.337 1.51944 0.55898 0
M  V30 3011 H 283.329 1.77588 3.63655 0
M  V30 3012 H 281.899 0.939544 2.98146 0
M  V30 3013 H 281.119 3.28971 2.1719 0
M  V30 3014 H 282.407 3.97059 3.18154 0
M  V30 3015 H 281.805 1.68946 5.39883 0
M  V30 3016 H 280.362 2.31001 6.09493 0
M  V30 3017 N 283.795 -0.628877 1.44509 0
M  V30 3018 C 285.02 -1.42048 1.5112 0
M  V30 3019 C 285.445 -1.87594 0.137818 0
M  V30 3020 O 284.803 -1.58873 -0.873437 0
M  V30 3021 C 284.851 -2.61541 2.48251 0
M  V30 3022 O 283.955 -3.61453 1.98559 0
M  V30 3023 H 283.296 -0.424942 0.510216 0
M  V30 3024 H 285.826 -0.767374 1.89664 0
M  V30 3025 H 285.836 -3.09057 2.66361 0
M  V30 3026 H 284.511 -2.27736 3.48007 0
M  V30 3027 H 283.088 -3.20731 1.90227 0
M  V30 3028 N 285.273 -1.31445 -0.869486 0
M  V30 3029 C 286.519 -1.22347 -1.62489 0
M  V30 3030 C 286.874 0.216204 -1.91181 0
M  V30 3031 O 286.167 1.14977 -1.53268 0
M  V30 3032 C 286.361 -2.00145 -2.96102 0
M  V30 3033 C 286.19 -3.51531 -2.80456 0
M  V30 3034 C 284.96 -4.20882 -2.79618 0
M  V30 3035 C 287.158 -4.46471 -2.5528 0
M  V30 3036 N 285.14 -5.58421 -2.55027 0
M  V30 3037 C 286.511 -5.71682 -2.39957 0
M  V30 3038 C 288.566 -4.35892 -2.40629 0
M  V30 3039 C 287.269 -6.87511 -2.11472 0
M  V30 3040 C 289.295 -5.51505 -2.13532 0
M  V30 3041 C 288.657 -6.75707 -1.98998 0
M  V30 3042 H 284.756 -0.502815 -0.598917 0
M  V30 3043 H 287.34 -1.65639 -1.02332 0
M  V30 3044 H 285.511 -1.59221 -3.54264 0
M  V30 3045 H 287.243 -1.83063 -3.60929 0
M  V30 3046 H 283.998 -3.72857 -2.92018 0
M  V30 3047 H 284.422 -6.30841 -2.45701 0
M  V30 3048 H 289.064 -3.40533 -2.50593 0
M  V30 3049 H 286.782 -7.82897 -2.00245 0
M  V30 3050 H 290.368 -5.45238 -2.02995 0
M  V30 3051 H 289.248 -7.63655 -1.78326 0
M  V30 3052 N 286.751 1.08385 -1.14413 0
M  V30 3053 C 287.661 2.18856 -0.844951 0
M  V30 3054 C 288.677 1.73121 0.174668 0
M  V30 3055 O 289.853 2.014 0.00312857 0
M  V30 3056 C 286.918 3.45155 -0.32696 0
M  V30 3057 C 285.979 4.05513 -1.40916 0
M  V30 3058 C 285.212 5.25784 -0.915793 0
M  V30 3059 O 285.435 5.69884 0.242651 0
M  V30 3060 O 284.369 5.77545 -1.69487 0
M  V30 3061 H 288.195 2.46919 -1.76818 0
M  V30 3062 H 285.78 1.17524 -0.922411 0
M  V30 3063 H 287.662 4.21377 -0.0440211 0
M  V30 3064 H 286.337 3.18668 0.568539 0
M  V30 3065 H 285.244 3.30879 -1.74556 0
M  V30 3066 H 286.577 4.3625 -2.27919 0
M  V30 3067 N 288.23 0.939286 1.26551 0
M  V30 3068 C 289.163 0.391702 2.24813 0
M  V30 3069 C 290.141 -0.518421 1.54114 0
M  V30 3070 O 291.325 -0.456299 1.82894 0
M  V30 3071 C 288.452 -0.437382 3.35864 0
M  V30 3072 C 287.498 0.410946 4.24516 0
M  V30 3073 S 288.331 1.83372 5.03125 0
M  V30 3074 C 289.487 1.01264 6.17654 0
M  V30 3075 H 289.72 1.22448 2.70913 0
M  V30 3076 H 287.253 0.742269 1.35387 0
M  V30 3077 H 289.211 -0.909837 4.0029 0
M  V30 3078 H 287.872 -1.24482 2.8838 0
M  V30 3079 H 287.065 -0.224191 5.03501 0
M  V30 3080 H 286.667 0.818014 3.64945 0
M  V30 3081 H 288.959 0.254023 6.77024 0
M  V30 3082 H 289.902 1.77589 6.85469 0
M  V30 3083 H 290.31 0.549532 5.61819 0
M  V30 3084 N 289.708 -1.40897 0.706093 0
M  V30 3085 C 290.938 -2.05075 0.250523 0
M  V30 3086 C 291.346 -1.53275 -1.10921 0
M  V30 3087 O 290.689 -0.680281 -1.7064 0
M  V30 3088 C 290.751 -3.59219 0.142178 0
M  V30 3089 C 290.415 -4.33864 1.43566 0
M  V30 3090 C 291.412 -4.62448 2.37566 0
M  V30 3091 C 289.097 -4.72946 1.69195 0
M  V30 3092 C 291.091 -5.29088 3.5545 0
M  V30 3093 C 288.778 -5.3932 2.87362 0
M  V30 3094 C 289.776 -5.6732 3.80312 0
M  V30 3095 O 289.464 -6.32325 4.96408 0
M  V30 3096 H 289.196 -0.666645 0.112074 0
M  V30 3097 H 291.75 -1.81467 0.962239 0
M  V30 3098 H 289.98 -3.81609 -0.6254 0
M  V30 3099 H 291.669 -4.0495 -0.277584 0
M  V30 3100 H 292.435 -4.32727 2.19027 0
M  V30 3101 H 288.314 -4.50527 0.977042 0
M  V30 3102 H 291.858 -5.50859 4.28018 0
M  V30 3103 H 287.755 -5.68461 3.05814 0
M  V30 3104 H 288.523 -6.50821 4.9636 0
M  V30 3105 N 291.186 -0.45159 -1.50991 0
M  V30 3106 C 292.116 0.342898 -2.30969 0
M  V30 3107 C 293.097 1.00815 -1.37005 0
M  V30 3108 O 294.282 1.00907 -1.65926 0
M  V30 3109 C 291.412 1.43637 -3.16205 0
M  V30 3110 C 290.366 0.893818 -4.18563 0
M  V30 3111 C 289.692 2.08411 -4.92411 0
M  V30 3112 C 290.992 -0.0815568 -5.22236 0
M  V30 3113 H 292.686 -0.324556 -2.97636 0
M  V30 3114 H 290.232 -0.157531 -1.43136 0
M  V30 3115 H 292.185 1.9995 -3.70942 0
M  V30 3116 H 290.909 2.13232 -2.47386 0
M  V30 3117 H 289.568 0.352798 -3.64898 0
M  V30 3118 H 289.216 2.76658 -4.20082 0
M  V30 3119 H 288.916 1.72741 -5.61636 0
M  V30 3120 H 290.44 2.65251 -5.49976 0
M  V30 3121 H 291.854 0.391742 -5.7196 0
M  V30 3122 H 290.251 -0.351551 -5.99069 0
M  V30 3123 H 291.321 -1.01374 -4.74185 0
M  V30 3124 N 292.664 1.56529 -0.183458 0
M  V30 3125 C 293.912 1.96855 0.457452 0
M  V30 3126 C 294.233 1.07104 1.62953 0
M  V30 3127 O 293.503 0.139887 1.954 0
M  V30 3128 H 292.083 0.72693 0.171992 0
M  V30 3129 H 294.745 1.93056 -0.267476 0
M  V30 3130 H 293.841 3.01423 0.809368 0
M  V30 3131 N 294.142 -0.090211 1.57342 0
M  V30 3132 C 295.072 -1.10976 2.05443 0
M  V30 3133 C 296.053 -1.41482 0.944284 0
M  V30 3134 O 297.238 -1.51428 1.21586 0
M  V30 3135 C 294.368 -2.42831 2.48295 0
M  V30 3136 C 293.322 -2.26721 3.63018 0
M  V30 3137 C 292.648 -3.63796 3.91863 0
M  V30 3138 C 293.948 -1.7037 4.93732 0
M  V30 3139 H 295.642 -0.709564 2.9087 0
M  V30 3140 H 293.188 -0.339874 1.39932 0
M  V30 3141 H 295.141 -3.14431 2.80555 0
M  V30 3142 H 293.865 -2.84795 1.59873 0
M  V30 3143 H 292.524 -1.57565 3.31012 0
M  V30 3144 H 292.172 -4.03297 3.00601 0
M  V30 3145 H 291.872 -3.53861 4.69101 0
M  V30 3146 H 293.396 -4.36855 4.26603 0
M  V30 3147 H 294.81 -2.31816 5.24342 0
M  V30 3148 H 293.207 -1.71181 5.75167 0
M  V30 3149 H 294.277 -0.663542 4.80339 0
M  V30 3150 N 295.62 -1.53406 -0.361157 0
M  V30 3151 C 296.583 -1.79479 -1.42548 0
M  V30 3152 C 297.583 -0.665327 -1.4639 0
M  V30 3153 O 298.773 -0.933549 -1.47073 0
M  V30 3154 C 295.905 -1.92087 -2.8163 0
M  V30 3155 H 297.098 -2.74538 -1.20701 0
M  V30 3156 H 294.651 -1.4455 -0.594546 0
M  V30 3157 H 295.386 -0.991099 -3.08784 0
M  V30 3158 H 295.171 -2.74241 -2.80239 0
M  V30 3159 H 296.661 -2.13836 -3.58697 0
M  V30 3160 N 297.098 0.621204 -1.44841 0
M  V30 3161 C 298.344 1.38073 -1.49357 0
M  V30 3162 C 298.699 1.91973 -0.128115 0
M  V30 3163 O 297.992 1.71311 0.858087 0
M  V30 3164 C 298.186 2.55675 -2.4973 0
M  V30 3165 C 298.015 2.13289 -3.95901 0
M  V30 3166 C 296.785 2.001 -4.63991 0
M  V30 3167 C 298.983 1.7159 -4.84831 0
M  V30 3168 N 296.965 1.51381 -5.94943 0
M  V30 3169 C 298.336 1.34188 -6.05304 0
M  V30 3170 C 300.391 1.59059 -4.7181 0
M  V30 3171 C 299.094 0.855085 -7.14199 0
M  V30 3172 C 301.12 1.11784 -5.8074 0
M  V30 3173 C 300.482 0.753385 -7.0036 0
M  V30 3174 H 296.581 0.499675 -0.601539 0
M  V30 3175 H 299.165 0.711609 -1.8123 0
M  V30 3176 H 297.336 3.20201 -2.19832 0
M  V30 3177 H 299.068 3.22509 -2.4448 0
M  V30 3178 H 295.823 2.20863 -4.18947 0
M  V30 3179 H 296.247 1.29293 -6.64539 0
M  V30 3180 H 300.889 1.85865 -3.79755 0
M  V30 3181 H 298.607 0.574552 -8.06055 0
M  V30 3182 H 302.193 1.02533 -5.72694 0
M  V30 3183 H 301.073 0.393183 -7.83214 0
M  V30 3184 N 298.576 1.31904 0.862503 0
M  V30 3185 C 299.801 1.25135 1.65397 0
M  V30 3186 C 300.226 -0.179 1.87246 0
M  V30 3187 O 299.584 -1.1277 1.4196 0
M  V30 3188 C 299.632 2.00832 2.99498 0
M  V30 3189 O 298.736 1.35075 3.89652 0
M  V30 3190 H 298.077 0.431655 0.504549 0
M  V30 3191 H 300.607 1.74094 1.07483 0
M  V30 3192 H 300.617 2.10709 3.49379 0
M  V30 3193 H 299.292 3.04847 2.82916 0
M  V30 3194 H 297.869 1.33696 3.48109 0
M  V30 3195 N 300.054 -1.07777 1.14986 0
M  V30 3196 C 301.284 -1.83752 0.944402 0
M  V30 3197 C 301.692 -1.8218 -0.51058 0
M  V30 3198 O 301.035 -1.22852 -1.36576 0
M  V30 3199 C 301.097 -3.32128 1.37592 0
M  V30 3200 C 300.761 -3.57425 2.84775 0
M  V30 3201 C 301.758 -3.5173 3.8286 0
M  V30 3202 C 299.443 -3.8523 3.2234 0
M  V30 3203 C 301.437 -3.73482 5.16517 0
M  V30 3204 C 299.124 -4.06634 4.56171 0
M  V30 3205 C 300.122 -4.00754 5.53069 0
M  V30 3206 O 299.81 -4.2159 6.84483 0
M  V30 3207 H 299.542 -0.58673 0.335744 0
M  V30 3208 H 302.096 -1.36982 1.53052 0
M  V30 3209 H 300.326 -3.79686 0.733165 0
M  V30 3210 H 302.015 -3.89555 1.14024 0
M  V30 3211 H 302.781 -3.30256 3.55184 0
M  V30 3212 H 298.66 -3.88923 2.47508 0
M  V30 3213 H 302.204 -3.68808 5.92137 0
M  V30 3214 H 298.101 -4.27593 4.83564 0
M  V30 3215 H 298.869 -4.38961 6.90837 0
M  V30 3216 N 301.532 -0.945985 -1.26051 0
M  V30 3217 C 302.778 -0.597002 -1.93814 0
M  V30 3218 C 303.111 0.862484 -1.73997 0
M  V30 3219 O 302.386 1.61769 -1.07986 0
M  V30 3220 C 302.669 -0.945937 -3.47454 0
M  V30 3221 C 302.522 -2.46052 -3.76535 0
M  V30 3222 C 303.841 -0.464785 -4.37639 0
M  V30 3223 H 300.96 -0.218366 -0.703907 0
M  V30 3224 H 303.602 -1.18107 -1.48831 0
M  V30 3225 H 301.752 -0.448902 -3.85898 0
M  V30 3226 H 303.424 -3.03065 -3.47778 0
M  V30 3227 H 301.667 -2.90194 -3.22444 0
M  V30 3228 H 302.338 -2.65517 -4.83947 0
M  V30 3229 H 304.814 -0.891016 -4.06448 0
M  V30 3230 H 303.69 -0.737712 -5.4392 0
M  V30 3231 H 303.951 0.635274 -4.37512 0
M  V30 3232 N 303.011 1.40521 -0.713556 0
M  V30 3233 C 304.257 2.01221 -0.252564 0
M  V30 3234 C 304.59 1.56444 1.1506 0
M  V30 3235 O 303.865 0.783597 1.78017 0
M  V30 3236 C 304.148 3.58582 -0.330332 0
M  V30 3237 C 304.001 4.13437 -1.77173 0
M  V30 3238 C 305.32 4.39079 0.299641 0
M  V30 3239 H 302.439 0.731077 -0.0932471 0
M  V30 3240 H 305.081 1.67026 -0.905673 0
M  V30 3241 H 303.231 3.87844 0.225737 0
M  V30 3242 H 304.903 3.9498 -2.38303 0
M  V30 3243 H 303.146 3.67801 -2.3001 0
M  V30 3244 H 303.817 5.22597 -1.77755 0
M  V30 3245 H 306.293 4.15735 -0.174139 0
M  V30 3246 H 305.169 5.4848 0.214771 0
M  V30 3247 H 305.43 4.19915 1.38288 0
M  V30 3248 N 304.489 0.459591 1.5075 0
M  V30 3249 C 305.719 -0.0972338 2.06371 0
M  V30 3250 C 306.127 -1.35074 1.32483 0
M  V30 3251 O 305.47 -1.79637 0.384226 0
M  V30 3252 C 305.532 -0.462759 3.56509 0
M  V30 3253 C 305.196 0.687084 4.51805 0
M  V30 3254 C 306.193 1.56578 4.95761 0
M  V30 3255 C 303.878 0.874144 4.94635 0
M  V30 3256 C 305.872 2.61604 5.81242 0
M  V30 3257 C 303.559 1.92765 5.79901 0
M  V30 3258 C 304.557 2.79697 6.23104 0
M  V30 3259 O 304.245 3.83235 7.06673 0
M  V30 3260 H 303.977 -0.00140687 0.675999 0
M  V30 3261 H 306.531 0.644011 1.95043 0
M  V30 3262 H 304.761 -1.25703 3.65699 0
M  V30 3263 H 306.45 -0.953323 3.94546 0
M  V30 3264 H 307.216 1.4329 4.6335 0
M  V30 3265 H 303.095 0.207006 4.60535 0
M  V30 3266 H 306.639 3.29489 6.14884 0
M  V30 3267 H 302.536 2.06064 6.11725 0
M  V30 3268 H 303.304 3.80084 7.24899 0
M  V30 3269 N 305.967 -1.56429 0.191757 0
M  V30 3270 C 307.197 -2.01574 -0.452928 0
M  V30 3271 C 307.605 -1.07107 -1.55964 0
M  V30 3272 O 306.948 -0.067534 -1.83576 0
M  V30 3273 C 307.01 -3.43121 -1.07278 0
M  V30 3274 C 306.674 -4.56879 -0.105214 0
M  V30 3275 C 307.671 -5.15379 0.684149 0
M  V30 3276 C 305.356 -5.023 0.00489824 0
M  V30 3277 C 307.35 -6.17746 1.57062 0
M  V30 3278 C 305.037 -6.04511 0.894935 0
M  V30 3279 C 306.035 -6.62108 1.67637 0
M  V30 3280 O 305.723 -7.62335 2.55149 0
M  V30 3281 H 305.455 -0.665554 -0.118379 0
M  V30 3282 H 308.009 -2.03245 0.296737 0
M  V30 3283 H 306.239 -3.38425 -1.87097 0
M  V30 3284 H 307.928 -3.72093 -1.62177 0
M  V30 3285 H 308.694 -4.81157 0.609365 0
M  V30 3286 H 304.573 -4.57168 -0.593156 0
M  V30 3287 H 308.117 -6.6263 2.181 0
M  V30 3288 H 304.014 -6.38157 0.970847 0
M  V30 3289 H 304.782 -7.79741 2.48892 0
M  V30 3290 N 307.445 0.0818655 -1.57387 0
M  V30 3291 C 308.67 0.799946 -1.91352 0
M  V30 3292 C 309.095 1.70833 -0.787258 0
M  V30 3293 O 308.453 1.79419 0.26048 0
M  V30 3294 C 308.501 1.57812 -3.24234 0
M  V30 3295 O 307.605 2.68806 -3.12757 0
M  V30 3296 H 306.946 0.21891 -0.626877 0
M  V30 3297 H 309.476 0.0531256 -2.04531 0
M  V30 3298 H 309.486 1.95952 -3.57864 0
M  V30 3299 H 308.161 0.911548 -4.05788 0
M  V30 3300 H 306.738 2.33597 -2.90666 0
M  V30 3301 N 308.923 1.53595 0.353017 0
M  V30 3302 C 310.334 1.61937 0.929153 0
M  V30 3303 C 310.685 0.494686 1.89861 0
M  V30 3304 O 309.81 -0.377017 2.1309 0
M  V30 3305 C 310.405 2.93526 1.69199 0
M  V30 3306 C 308.964 3.04161 2.21727 0
M  V30 3307 C 308.111 2.57322 1.03348 0
M  V30 3308 H 311.062 1.58155 0.131431 0
M  V30 3309 H 311.083 2.82034 2.55416 0
M  V30 3310 H 310.595 3.75362 0.986144 0
M  V30 3311 H 308.696 2.26938 2.95516 0
M  V30 3312 H 308.809 4.09465 2.48748 0
M  V30 3313 H 307.173 2.12499 1.40414 0
M  V30 3314 H 307.956 3.41588 0.342428 0
M  V30 3315 N 310.401 -0.613514 1.45168 0
M  V30 3316 C 311.626 -1.40437 1.52618 0
M  V30 3317 C 312.051 -1.87438 0.157707 0
M  V30 3318 O 311.409 -1.59791 -0.856537 0
M  V30 3319 C 311.457 -2.58894 2.51011 0
M  V30 3320 O 310.561 -3.59326 2.02382 0
M  V30 3321 H 309.902 -0.419506 0.514695 0
M  V30 3322 H 312.432 -0.747215 1.90467 0
M  V30 3323 H 312.442 -3.06214 2.69624 0
M  V30 3324 H 311.117 -2.24032 3.50403 0
M  V30 3325 H 309.694 -3.18695 1.93618 0
M  V30 3326 N 311.879 -1.3236 -0.855495 0
M  V30 3327 C 312.789 -1.23221 -1.99634 0
M  V30 3328 C 313.805 -0.145983 -1.73387 0
M  V30 3329 O 314.981 -0.366502 -1.98037 0
M  V30 3330 C 312.046 -0.954782 -3.33294 0
M  V30 3331 C 311.107 -2.12937 -3.72769 0
M  V30 3332 C 310.34 -1.86508 -5.00051 0
M  V30 3333 O 310.563 -0.807231 -5.64659 0
M  V30 3334 O 309.497 -2.72591 -5.36636 0
M  V30 3335 H 313.323 -2.19126 -2.1028 0
M  V30 3336 H 310.908 -1.12241 -0.986018 0
M  V30 3337 H 312.79 -0.816519 -4.13414 0
M  V30 3338 H 311.465 -0.0258854 -3.2369 0
M  V30 3339 H 310.372 -2.3231 -2.93228 0
M  V30 3340 H 311.705 -3.04102 -3.87018 0
M  V30 3341 N 313.357 1.07166 -1.15556 0
M  V30 3342 C 314.603 1.80065 -0.932984 0
M  V30 3343 C 314.936 1.86586 0.53845 0
M  V30 3344 O 314.211 1.35098 1.39924 0
M  V30 3345 C 314.494 3.25022 -1.55025 0
M  V30 3346 C 314.347 3.26634 -3.09242 0
M  V30 3347 C 315.666 4.22341 -1.2376 0
M  V30 3348 H 312.785 0.653697 -0.340366 0
M  V30 3349 H 315.427 1.25389 -1.4275 0
M  V30 3350 H 313.577 3.71712 -1.12972 0
M  V30 3351 H 315.249 2.88173 -3.60214 0
M  V30 3352 H 313.492 2.65539 -3.43033 0
M  V30 3353 H 314.163 4.28854 -3.47546 0
M  V30 3354 H 316.639 3.8405 -1.60139 0
M  V30 3355 H 315.515 5.22053 -1.69564 0
M  V30 3356 H 315.776 4.41828 -0.154938 0
M  V30 3357 N 314.835 0.952656 1.25548 0
M  V30 3358 C 316.251 0.656769 1.4546 0
M  V30 3359 C 316.451 -0.78633 1.85524 0
M  V30 3360 O 315.507 -1.56183 1.98402 0
M  V30 3361 C 316.82 1.62801 2.52817 0
M  V30 3362 C 318.368 1.63897 2.66659 0
M  V30 3363 C 318.843 2.5978 3.77198 0
M  V30 3364 N 320.334 2.58133 3.84606 0
M  V30 3365 C 321.069 3.29003 4.69621 0
M  V30 3366 N 320.565 4.09339 5.58939 0
M  V30 3367 N 322.358 3.179 4.63569 0
M  V30 3368 H 314.509 1.88526 0.978344 0
M  V30 3369 H 316.772 0.810815 0.491206 0
M  V30 3370 H 316.478 2.65869 2.30232 0
M  V30 3371 H 316.352 1.38898 3.50695 0
M  V30 3372 H 318.739 0.615481 2.8861 0
M  V30 3373 H 318.82 1.91858 1.69187 0
M  V30 3374 H 318.464 3.62254 3.55997 0
M  V30 3375 H 318.394 2.29105 4.7415 0
M  V30 3376 H 320.885 1.99809 3.20757 0
M  V30 3377 H 321.198 4.6034 6.20731 0
M  V30 3378 H 319.543 4.13438 5.58654 0
M  V30 3379 H 322.734 2.54612 3.92798 0
M  V30 3380 H 322.907 3.73398 5.29602 0
M  V30 3381 N 316.313 -1.40141 0.720998 0
M  V30 3382 C 317.559 -2.01084 0.263231 0
M  V30 3383 C 317.892 -1.57052 -1.14229 0
M  V30 3384 O 317.167 -0.793027 -1.77599 0
M  V30 3385 C 317.45 -3.58401 0.349344 0
M  V30 3386 C 317.303 -4.12491 1.79363 0
M  V30 3387 C 318.622 -4.39231 -0.276351 0
M  V30 3388 H 315.741 -0.730572 0.0971228 0
M  V30 3389 H 318.383 -1.66543 0.914518 0
M  V30 3390 H 316.533 -3.87958 -0.205165 0
M  V30 3391 H 318.205 -3.93711 2.40394 0
M  V30 3392 H 316.448 -3.66576 2.31958 0
M  V30 3393 H 317.119 -5.21646 1.80524 0
M  V30 3394 H 319.595 -4.15637 0.196184 0
M  V30 3395 H 318.471 -5.48586 -0.185681 0
M  V30 3396 H 318.732 -4.20643 -1.36059 0
M  V30 3397 N 317.792 -0.46758 -1.50504 0
M  V30 3398 C 319.038 0.0887532 -2.02606 0
M  V30 3399 C 319.371 1.39686 -1.34913 0
M  V30 3400 O 318.646 1.88644 -0.473694 0
M  V30 3401 C 318.929 0.276206 -3.59039 0
M  V30 3402 C 318.782 -1.05267 -4.37309 0
M  V30 3403 C 320.101 1.03235 -4.27821 0
M  V30 3404 H 317.22 0.0307814 -0.736357 0
M  V30 3405 H 319.862 -0.612485 -1.79857 0
M  V30 3406 H 318.012 0.8735 -3.78553 0
M  V30 3407 H 319.684 -1.68628 -4.29374 0
M  V30 3408 H 317.927 -1.65015 -4.01189 0
M  V30 3409 H 318.598 -0.875197 -5.45018 0
M  V30 3410 H 321.074 0.526111 -4.12761 0
M  V30 3411 H 319.95 1.1323 -5.37094 0
M  V30 3412 H 320.211 2.06806 -3.90748 0
M  V30 3413 N 319.27 1.56325 -0.20005 0
M  V30 3414 C 320.233 2.18084 0.705132 0
M  V30 3415 C 321.233 1.13666 1.1374 0
M  V30 3416 O 322.423 1.39023 1.04968 0
M  V30 3417 C 319.555 2.78689 1.96329 0
M  V30 3418 H 320.748 2.99435 0.167023 0
M  V30 3419 H 318.301 1.56221 0.0495725 0
M  V30 3420 H 319.036 2.0115 2.5438 0
M  V30 3421 H 318.821 3.55133 1.66202 0
M  V30 3422 H 320.311 3.26096 2.60866 0
M  V30 3423 N 320.748 -0.0735177 1.57428 0
M  V30 3424 C 321.658 -1.10547 2.06922 0
M  V30 3425 C 322.674 -1.42506 0.998402 0
M  V30 3426 O 323.85 -1.52717 1.31299 0
M  V30 3427 C 320.915 -2.40019 2.50184 0
M  V30 3428 C 319.976 -2.15046 3.71556 0
M  V30 3429 C 319.209 -3.38345 4.12745 0
M  V30 3430 O 319.432 -4.47399 3.53822 0
M  V30 3431 O 318.366 -3.2666 5.05546 0
M  V30 3432 H 322.192 -0.715013 2.95163 0
M  V30 3433 H 319.777 -0.287531 1.46607 0
M  V30 3434 H 321.659 -3.16218 2.78539 0
M  V30 3435 H 320.334 -2.78447 1.65072 0
M  V30 3436 H 319.241 -1.36558 3.48285 0
M  V30 3437 H 320.574 -1.81499 4.57514 0
M  V30 3438 N 322.226 -1.5378 -0.344866 0
M  V30 3439 C 323.474 -1.70625 -1.08311 0
M  V30 3440 C 323.795 -0.471447 -1.89215 0
M  V30 3441 O 323.065 0.514616 -1.8902 0
M  V30 3442 H 321.645 -0.629058 -0.402859 0
M  V30 3443 H 324.307 -1.9103 -0.386459 0
M  V30 3444 H 323.403 -2.57656 -1.76124 0
M  V30 3445 N 323.704 0.605807 -1.45491 0
M  V30 3446 C 324.951 1.36476 -1.49601 0
M  V30 3447 C 325.279 1.94007 -0.138452 0
M  V30 3448 O 324.534 1.75638 0.863114 0
M  V30 3449 C 324.833 2.53012 -2.52428 0
M  V30 3450 C 324.499 2.13617 -3.97087 0
M  V30 3451 C 323.161 2.02587 -4.36477 0
M  V30 3452 C 325.513 1.82899 -4.88055 0
M  V30 3453 C 322.841 1.59064 -5.64726 0
M  V30 3454 C 325.193 1.40861 -6.16718 0
M  V30 3455 C 323.857 1.28391 -6.55036 0
M  V30 3456 H 323.127 0.499402 -0.547429 0
M  V30 3457 H 325.774 0.684546 -1.78847 0
M  V30 3458 H 324.079 3.26379 -2.16758 0
M  V30 3459 H 325.776 3.1124 -2.52845 0
M  V30 3460 H 322.366 2.23129 -3.65939 0
M  V30 3461 H 326.55 1.90317 -4.58359 0
M  V30 3462 H 321.806 1.48034 -5.93208 0
M  V30 3463 H 325.98 1.16138 -6.86648 0
M  V30 3464 H 323.607 0.944403 -7.54311 0
M  V30 3465 N 325.182 1.32811 0.848464 0
M  V30 3466 C 326.459 1.14334 1.58704 0
M  V30 3467 C 326.839 -0.293948 2.09043 0
M  V30 3468 O 326.187 -1.29153 1.88499 0
M  V30 3469 C 326.397 2.17626 2.72837 0
M  V30 3470 C 327.745 2.51282 3.42261 0
M  V30 3471 O 328.769 2.16219 2.83068 0
M  V30 3472 O 327.628 3.11413 4.49093 0
M  V30 3473 H 324.722 0.441601 0.699226 0
M  V30 3474 H 327.268 1.44362 0.892053 0
M  V30 3475 H 326.04 3.14211 2.3321 0
M  V30 3476 H 325.663 1.88628 3.50008 0
M  V30 3477 N 326.66 -1.06551 1.16123 0
M  V30 3478 C 327.907 -1.79302 0.941126 0
M  V30 3479 C 328.235 -1.87105 -0.531235 0
M  V30 3480 O 327.49 -1.35692 -1.41018 0
M  V30 3481 C 327.789 -3.23911 1.51052 0
M  V30 3482 C 327.455 -3.36193 3.00475 0
M  V30 3483 C 326.117 -3.39252 3.41265 0
M  V30 3484 C 328.469 -3.38326 3.96465 0
M  V30 3485 C 325.797 -3.42057 4.76669 0
M  V30 3486 C 328.149 -3.4267 5.31752 0
M  V30 3487 C 326.813 -3.4401 5.72026 0
M  V30 3488 H 326.083 -0.656111 0.344382 0
M  V30 3489 H 328.73 -1.25325 1.44796 0
M  V30 3490 H 327.035 -3.80723 0.925063 0
M  V30 3491 H 328.732 -3.78793 1.31593 0
M  V30 3492 H 325.322 -3.34516 2.6795 0
M  V30 3493 H 329.506 -3.35176 3.6602 0
M  V30 3494 H 324.762 -3.41398 5.07206 0
M  V30 3495 H 328.936 -3.43268 6.05921 0
M  V30 3496 H 326.563 -3.45937 6.76928 0
M  V30 3497 N 328.138 -0.959301 -1.25041 0
M  V30 3498 C 329.101 -0.487677 -2.23952 0
M  V30 3499 C 330.101 0.41119 -1.55454 0
M  V30 3500 O 331.291 0.207825 -1.72956 0
M  V30 3501 C 328.423 0.294807 -3.39623 0
M  V30 3502 H 329.616 -1.36198 -2.67189 0
M  V30 3503 H 327.169 -0.743042 -1.37508 0
M  V30 3504 H 327.904 1.18658 -3.01813 0
M  V30 3505 H 327.689 -0.35012 -3.90534 0
M  V30 3506 H 329.179 0.614089 -4.1306 0
M  V30 3507 N 329.616 1.39756 -0.72842 0
M  V30 3508 C 330.564 2.32485 -0.0731849 0
M  V30 3509 C 331.558 1.52717 0.733063 0
M  V30 3510 O 332.764 1.68428 0.634988 0
M  V30 3511 H 329.139 0.751984 -0.00486469 0
M  V30 3512 H 331.11 2.85382 -0.871761 0
M  V30 3513 C 329.859 3.37773 0.824908 0
M  V30 3514 H 329.182 3.99227 0.213915 0
M  V30 3515 H 330.622 4.05121 1.25111 0
M  V30 3516 C 329.081 2.74287 1.95622 0
M  V30 3517 O 329.611 2.61618 3.04826 0
M  V30 3518 N 327.817 2.32475 1.74367 0
M  V30 3519 H 327.364 2.4298 0.855494 0
M  V30 3520 H 327.322 1.90337 2.50238 0
M  V30 3521 N 331.094 0.475555 1.50254 0
M  V30 3522 C 332.342 -0.077738 2.0195 0
M  V30 3523 C 332.663 -1.39813 1.35931 0
M  V30 3524 O 331.933 -1.89249 0.506123 0
M  V30 3525 H 330.513 -0.031719 0.746326 0
M  V30 3526 H 333.175 0.626995 1.84539 0
M  V30 3527 H 332.271 -0.225995 3.11281 0
M  V30 3528 N 332.573 -1.56217 0.208337 0
M  V30 3529 C 333.822 -1.97124 -0.427204 0
M  V30 3530 C 334.135 -1.09859 -1.61835 0
M  V30 3531 O 335.341 -1.40606 -2.32255 0
M  V30 3532 C 333.797 -3.50633 -0.811442 0
M  V30 3533 C 333.405 -4.46582 0.35615 0
M  V30 3534 C 335.149 -4.00282 -1.41332 0
M  V30 3535 C 333.056 -5.91379 -0.0497852 0
M  V30 3536 H 331.986 -0.736086 -0.163381 0
M  V30 3537 H 334.637 -1.8099 0.302456 0
M  V30 3538 H 333.019 -3.62319 -1.59815 0
M  V30 3539 H 334.193 -4.46636 1.1337 0
M  V30 3540 H 332.508 -4.07202 0.870396 0
M  V30 3541 H 335.105 -5.0595 -1.72972 0
M  V30 3542 H 335.448 -3.45359 -2.32449 0
M  V30 3543 H 335.981 -3.91764 -0.690323 0
M  V30 3544 H 332.72 -6.50255 0.827529 0
M  V30 3545 H 332.24 -5.94549 -0.791926 0
M  V30 3546 H 333.919 -6.45209 -0.481042 0
M  V30 3547 N 334.051 0.0651679 -1.57465 0
M  V30 3548 C 334.999 1.09542 -2.05191 0
M  V30 3549 C 335.993 1.39675 -0.958509 0
M  V30 3550 O 337.199 1.39003 -1.14359 0
M  V30 3551 H 333.574 0.370623 -0.654326 0
M  V30 3552 H 335.545 0.666802 -2.90854 0
M  V30 3553 C 334.294 2.39881 -2.51699 0
M  V30 3554 H 333.617 2.17547 -3.3543 0
M  V30 3555 H 335.057 3.104 -2.88839 0
M  V30 3556 C 333.516 3.0631 -1.40271 0
M  V30 3557 O 334.046 3.94664 -0.748523 0
M  V30 3558 N 332.252 2.67041 -1.14618 0
M  V30 3559 H 331.799 1.95281 -1.67997 0
M  V30 3560 H 331.757 3.1181 -0.402688 0
M  V30 3561 N 335.529 1.53961 0.336706 0
M  V30 3562 C 336.778 1.70751 1.07363 0
M  V30 3563 C 337.091 0.481061 1.89592 0
M  V30 3564 O 338.297 0.530046 2.66276 0
M  V30 3565 C 336.753 3.01965 1.95818 0
M  V30 3566 C 336.361 4.31971 1.18764 0
M  V30 3567 C 338.105 3.28121 2.69327 0
M  V30 3568 C 336.012 5.54255 2.06289 0
M  V30 3569 H 334.942 0.636292 0.404535 0
M  V30 3570 H 337.593 1.80459 0.332681 0
M  V30 3571 H 335.975 2.86132 2.7376 0
M  V30 3572 H 337.149 4.5853 0.456849 0
M  V30 3573 H 335.464 4.12481 0.569946 0
M  V30 3574 H 338.061 4.16673 3.35094 0
M  V30 3575 H 338.404 2.45426 3.36261 0
M  V30 3576 H 338.937 3.44762 1.98454 0
M  V30 3577 H 335.676 6.39513 1.43885 0
M  V30 3578 H 335.196 5.31935 2.77138 0
M  V30 3579 H 336.875 5.90159 2.65182 0
M  V30 3580 N 337.007 -0.598083 1.45811 0
M  V30 3581 C 338.232 -1.3881 1.54099 0
M  V30 3582 C 338.657 -1.8726 0.177578 0
M  V30 3583 O 338.015 -1.6069 -0.839541 0
M  V30 3584 C 338.063 -2.56217 2.53743 0
M  V30 3585 O 337.167 -3.5716 2.06182 0
M  V30 3586 H 336.508 -0.414024 0.519115 0
M  V30 3587 H 339.038 -0.726971 1.91249 0
M  V30 3588 H 339.048 -3.03337 2.72856 0
M  V30 3589 H 337.723 -2.20303 3.5276 0
M  V30 3590 H 336.3 -3.16624 1.96987 0
M  V30 3591 N 338.485 -1.33259 -0.841409 0
M  V30 3592 C 339.896 -1.22066 -1.41269 0
M  V30 3593 C 340.247 0.161479 -1.95534 0
M  V30 3594 O 339.372 1.06094 -1.88608 0
M  V30 3595 C 339.967 -2.20996 -2.568 0
M  V30 3596 C 338.526 -2.13649 -3.09888 0
M  V30 3597 C 337.673 -2.08623 -1.82679 0
M  V30 3598 H 340.624 -1.44895 -0.647395 0
M  V30 3599 H 340.645 -1.81621 -3.34356 0
M  V30 3600 H 340.157 -3.2158 -2.17274 0
M  V30 3601 H 338.258 -1.16359 -3.53965 0
M  V30 3602 H 338.371 -3.04079 -3.70234 0
M  V30 3603 H 336.735 -1.54061 -2.02824 0
M  V30 3604 H 337.518 -3.1101 -1.45353 0
M  V30 3605 N 339.963 1.05934 -1.16686 0
M  V30 3606 C 341.24 1.75643 -0.860747 0
M  V30 3607 C 341.62 2.01144 0.640641 0
M  V30 3608 O 340.968 1.64147 1.58959 0
M  V30 3609 C 341.178 3.05493 -1.68745 0
M  V30 3610 C 342.526 3.79581 -1.90271 0
M  V30 3611 O 343.55 3.15344 -1.65641 0
M  V30 3612 O 342.409 4.9499 -2.31618 0
M  V30 3613 H 339.503 0.763426 -0.317977 0
M  V30 3614 H 342.049 1.1217 -1.27342 0
M  V30 3615 H 340.821 2.8264 -2.70611 0
M  V30 3616 H 340.444 3.76702 -1.27206 0
M  V30 3617 N 341.441 0.965919 1.2453 0
M  V30 3618 C 342.689 0.625593 1.92174 0
M  V30 3619 C 343.01 -0.841652 1.75901 0
M  V30 3620 O 342.28 -1.60061 1.12948 0
M  V30 3621 H 340.86 0.228388 0.71123 0
M  V30 3622 H 343.522 1.2266 1.51461 0
M  V30 3623 H 342.618 0.864653 2.99884 0
M  V30 3624 N 342.919 -1.39368 0.735821 0
M  V30 3625 C 343.866 -2.30599 0.0963825 0
M  V30 3626 C 344.836 -1.49257 -0.728794 0
M  V30 3627 O 346.021 -1.77941 -0.688588 0
M  V30 3628 C 343.161 -3.35596 -0.804305 0
M  V30 3629 C 342.274 -4.31987 0.0335761 0
M  V30 3630 C 341.409 -5.24053 -0.868461 0
M  V30 3631 C 340.448 -6.12095 -0.0258776 0
M  V30 3632 N 339.585 -6.96514 -0.883893 0
M  V30 3633 H 344.425 -2.8471 0.880002 0
M  V30 3634 H 341.962 -1.40188 0.445619 0
M  V30 3635 H 343.92 -3.95062 -1.34096 0
M  V30 3636 H 342.55 -2.82938 -1.55389 0
M  V30 3637 H 341.602 -3.74133 0.68766 0
M  V30 3638 H 342.914 -4.94074 0.685036 0
M  V30 3639 H 342.068 -5.88549 -1.47293 0
M  V30 3640 H 340.807 -4.62289 -1.5537 0
M  V30 3641 H 339.812 -5.4661 0.591386 0
M  V30 3642 H 341.037 -6.75923 0.656156 0
M  V30 3643 H 338.983 -6.37318 -1.55441 0
M  V30 3644 H 338.9 -7.55448 -0.288931 0
M  V30 3645 H 340.168 -7.65439 -1.4739 0
M  V30 3646 N 344.397 -0.483516 -1.5 0
M  V30 3647 C 345.627 0.0643896 -2.065 0
M  V30 3648 C 346.035 1.32949 -1.34615 0
M  V30 3649 O 345.378 1.79003 -0.412756 0
M  V30 3650 C 345.44 0.405983 -3.572 0
M  V30 3651 C 345.104 -0.758875 -4.50655 0
M  V30 3652 C 346.101 -1.64445 -4.93208 0
M  V30 3653 C 343.786 -0.952725 -4.93182 0
M  V30 3654 C 345.78 -2.70818 -5.77006 0
M  V30 3655 C 343.467 -2.01966 -5.76761 0
M  V30 3656 C 344.465 -2.89574 -6.18576 0
M  V30 3657 O 344.153 -3.94429 -7.00486 0
M  V30 3658 H 343.885 -0.00934786 -0.675935 0
M  V30 3659 H 346.439 -0.674959 -1.93993 0
M  V30 3660 H 344.669 1.19869 -3.67652 0
M  V30 3661 H 346.358 0.890433 -3.96013 0
M  V30 3662 H 347.124 -1.50643 -4.61012 0
M  V30 3663 H 343.003 -0.280247 -4.60147 0
M  V30 3664 H 346.547 -3.3923 -6.09565 0
M  V30 3665 H 342.444 -2.1577 -6.0837 0
M  V30 3666 H 343.212 -3.91568 -7.1876 0
M  V30 3667 N 345.875 1.56104 -0.216619 0
M  V30 3668 C 347.121 1.98466 0.417033 0
M  V30 3669 C 347.454 1.10403 1.59765 0
M  V30 3670 O 346.729 0.160632 1.93836 0
M  V30 3671 C 347.012 3.49769 0.85637 0
M  V30 3672 C 346.865 4.48606 -0.327546 0
M  V30 3673 C 348.184 4.05339 1.7143 0
M  V30 3674 H 345.303 0.721551 0.150112 0
M  V30 3675 H 347.945 1.87423 -0.311864 0
M  V30 3676 H 346.095 3.5931 1.47745 0
M  V30 3677 H 347.767 4.5108 -0.965618 0
M  V30 3678 H 346.01 4.22682 -0.975805 0
M  V30 3679 H 346.681 5.51995 0.0227149 0
M  V30 3680 H 349.157 3.98712 1.19031 0
M  V30 3681 H 348.033 5.11533 1.99061 0
M  V30 3682 H 348.294 3.51918 2.67593 0
M  V30 3683 N 347.353 -0.0568162 1.57498 0
M  V30 3684 C 348.583 -0.764515 1.91934 0
M  V30 3685 C 348.991 -1.70877 0.81227 0
M  V30 3686 O 348.334 -1.82351 -0.222213 0
M  V30 3687 C 348.396 -1.5994 3.21962 0
M  V30 3688 C 348.06 -0.822925 4.4953 0
M  V30 3689 C 349.057 -0.135464 5.19723 0
M  V30 3690 C 346.742 -0.785666 4.96117 0
M  V30 3691 C 348.736 0.578861 6.34766 0
M  V30 3692 C 346.423 -0.0675784 6.11063 0
M  V30 3693 C 347.421 0.613471 6.80239 0
M  V30 3694 O 347.109 1.31996 7.92989 0
M  V30 3695 H 346.841 -0.221647 0.63863 0
M  V30 3696 H 349.395 -0.0268218 2.05382 0
M  V30 3697 H 347.625 -2.38026 3.04763 0
M  V30 3698 H 349.314 -2.18715 3.41934 0
M  V30 3699 H 350.08 -0.155458 4.84751 0
M  V30 3700 H 345.959 -1.30524 4.42136 0
M  V30 3701 H 349.503 1.111 6.88696 0
M  V30 3702 H 345.4 -0.0455636 6.45484 0
M  V30 3703 H 346.168 1.23077 8.09194 0
M  V30 3704 N 348.832 -1.54138 -0.328536 0
M  V30 3705 C 350.081 -1.71318 -1.06456 0
M  V30 3706 C 350.394 -0.491109 -1.89334 0
M  V30 3707 O 351.6 -0.54416 -2.65991 0
M  V30 3708 C 350.056 -3.03 -1.94214 0
M  V30 3709 C 349.664 -4.32595 -1.16471 0
M  V30 3710 C 351.408 -3.29544 -2.67583 0
M  V30 3711 C 349.315 -5.55341 -2.03347 0
M  V30 3712 H 348.245 -0.638429 -0.401155 0
M  V30 3713 H 350.896 -1.80633 -0.323106 0
M  V30 3714 H 349.278 -2.87579 -2.72239 0
M  V30 3715 H 350.452 -4.58766 -0.432525 0
M  V30 3716 H 348.767 -4.12777 -0.548063 0
M  V30 3717 H 351.364 -4.18444 -3.3288 0
M  V30 3718 H 351.707 -2.47206 -3.34955 0
M  V30 3719 H 352.24 -3.45809 -1.96623 0
M  V30 3720 H 348.979 -6.40268 -1.40491 0
M  V30 3721 H 348.499 -5.33397 -2.74313 0
M  V30 3722 H 350.178 -5.91557 -2.62049 0
M  V30 3723 N 350.31 0.590341 -1.46126 0
M  V30 3724 C 351.273 1.68194 -1.55703 0
M  V30 3725 C 352.273 1.54808 -0.434868 0
M  V30 3726 O 353.463 1.59564 -0.698928 0
M  V30 3727 C 350.595 3.07575 -1.47005 0
M  V30 3728 H 351.788 1.61064 -2.52979 0
M  V30 3729 H 349.341 0.807541 -1.33823 0
M  V30 3730 H 350.076 3.20268 -0.509785 0
M  V30 3731 H 349.861 3.187 -2.28414 0
M  V30 3732 H 351.351 3.87055 -1.56776 0
M  V30 3733 N 351.788 1.33704 0.83433 0
M  V30 3734 C 352.698 1.26382 1.97648 0
M  V30 3735 C 353.714 0.173548 1.73132 0
M  V30 3736 O 354.89 0.397962 1.97429 0
M  V30 3737 C 351.955 1.00769 3.31733 0
M  V30 3738 C 351.016 2.1884 3.69334 0
M  V30 3739 C 350.249 1.9444 4.9702 0
M  V30 3740 O 350.472 0.896961 5.63303 0
M  V30 3741 O 349.406 2.81093 5.32231 0
M  V30 3742 H 353.232 2.22444 2.06767 0
M  V30 3743 H 350.817 1.13795 0.968037 0
M  V30 3744 H 352.699 0.882186 4.12062 0
M  V30 3745 H 351.374 0.0773783 3.23608 0
M  V30 3746 H 350.281 2.36946 2.89495 0
M  V30 3747 H 351.614 3.10221 3.82131 0
M  V30 3748 N 353.266 -1.05314 1.17247 0
M  V30 3749 C 354.196 -2.1498 0.911362 0
M  V30 3750 C 355.177 -1.69471 -0.146169 0
M  V30 3751 O 356.362 -1.942 0.003812 0
M  V30 3752 C 353.492 -3.4472 0.422528 0
M  V30 3753 C 352.446 -4.03789 1.4191 0
M  V30 3754 C 351.772 -5.28858 0.788274 0
M  V30 3755 C 353.072 -4.41418 2.7919 0
M  V30 3756 H 354.766 -2.3708 1.82848 0
M  V30 3757 H 352.312 -1.13938 0.880569 0
M  V30 3758 H 354.265 -4.20787 0.227289 0
M  V30 3759 H 352.989 -3.22269 -0.530123 0
M  V30 3760 H 351.648 -3.2979 1.60106 0
M  V30 3761 H 351.296 -5.02709 -0.171173 0
M  V30 3762 H 350.996 -5.69338 1.45353 0
M  V30 3763 H 352.52 -6.07612 0.603282 0
M  V30 3764 H 353.934 -5.08524 2.64719 0
M  V30 3765 H 352.331 -4.92913 3.42282 0
M  V30 3766 H 353.401 -3.51819 3.33693 0
M  V30 3767 N 354.744 -0.972509 -1.24016 0
M  V30 3768 C 355.674 -0.525548 -2.27509 0
M  V30 3769 C 356.655 0.437262 -1.64384 0
M  V30 3770 O 357.84 0.332343 -1.91335 0
M  V30 3771 C 354.97 0.180448 -3.46831 0
M  V30 3772 C 353.924 -0.698859 -4.22256 0
M  V30 3773 C 353.25 0.138903 -5.3452 0
M  V30 3774 C 354.55 -1.98582 -4.83076 0
M  V30 3775 H 356.244 -1.39058 -2.65148 0
M  V30 3776 H 353.79 -0.67009 -1.27459 0
M  V30 3777 H 355.743 0.504387 -4.18371 0
M  V30 3778 H 354.467 1.07987 -3.08231 0
M  V30 3779 H 353.126 -1.00614 -3.52523 0
M  V30 3780 H 352.774 1.03862 -4.9216 0
M  V30 3781 H 352.474 -0.446259 -5.85903 0
M  V30 3782 H 353.998 0.457404 -6.08884 0
M  V30 3783 H 355.412 -1.72715 -5.46665 0
M  V30 3784 H 353.809 -2.5181 -5.44713 0
M  V30 3785 H 354.879 -2.67769 -4.04262 0
M  V30 3786 N 356.222 1.38976 -0.743202 0
M  V30 3787 C 357.185 2.28901 -0.117014 0
M  V30 3788 C 358.185 1.46698 0.658503 0
M  V30 3789 O 359.375 1.67274 0.486305 0
M  V30 3790 C 356.507 3.30309 0.84315 0
M  V30 3791 H 357.7 2.8578 -0.909373 0
M  V30 3792 H 355.253 1.47761 -0.509547 0
M  V30 3793 H 355.988 2.785 1.66157 0
M  V30 3794 H 355.773 3.91029 0.289594 0
M  V30 3795 H 357.263 3.97577 1.2776 0
M  V30 3796 N 357.7 0.491464 1.49741 0
M  V30 3797 C 358.65 -0.311086 2.25868 0
M  V30 3798 C 359.634 -0.943857 1.30308 0
M  V30 3799 O 360.826 -0.853035 1.55088 0
M  V30 3800 C 357.955 -1.38059 3.14316 0
M  V30 3801 C 357.041 -0.754541 4.17334 0
M  V30 3802 N 357.432 0.137216 5.05614 0
M  V30 3803 C 355.73 -1.01621 4.34269 0
M  V30 3804 C 356.431 0.494614 5.79593 0
M  V30 3805 N 355.407 -0.135169 5.43432 0
M  V30 3806 H 359.209 0.37555 2.91491 0
M  V30 3807 H 356.723 0.306917 1.59473 0
M  V30 3808 H 358.72 -1.96891 3.67477 0
M  V30 3809 H 357.38 -2.06901 2.50244 0
M  V30 3810 H 358.391 0.50741 5.15408 0
M  V30 3811 H 355.068 -1.69808 3.81407 0
M  V30 3812 H 356.458 1.2236 6.60665 0
M  V30 3813 N 359.178 -1.55987 0.224894 0
M  V30 3814 C 360.125 -2.20436 -0.68385 0
M  V30 3815 C 361.095 -1.16102 -1.18783 0
M  V30 3816 O 362.28 -1.4447 -1.24632 0
M  V30 3817 C 359.42 -2.89076 -1.88491 0
M  V30 3818 C 358.533 -4.08012 -1.41951 0
M  V30 3819 C 357.668 -4.64426 -2.5784 0
M  V30 3820 C 356.707 -5.75656 -2.08053 0
M  V30 3821 N 355.844 -6.26347 -3.17227 0
M  V30 3822 H 360.684 -2.97727 -0.12754 0
M  V30 3823 H 358.221 -1.47011 -0.0511978 0
M  V30 3824 H 360.179 -3.27059 -2.59014 0
M  V30 3825 H 358.809 -2.14298 -2.41405 0
M  V30 3826 H 357.861 -3.75492 -0.609095 0
M  V30 3827 H 359.173 -4.88375 -1.01447 0
M  V30 3828 H 358.327 -5.04869 -3.3644 0
M  V30 3829 H 357.066 -3.83233 -3.01635 0
M  V30 3830 H 356.071 -5.34712 -1.27916 0
M  V30 3831 H 357.296 -6.58686 -1.65255 0
M  V30 3832 H 355.242 -5.48067 -3.60497 0
M  V30 3833 H 355.159 -7.01843 -2.80986 0
M  V30 3834 H 356.427 -6.71447 -3.95953 0
M  V30 3835 N 360.656 0.0484629 -1.57525 0
M  V30 3836 C 361.905 0.742065 -1.87553 0
M  V30 3837 C 362.218 1.77545 -0.820802 0
M  V30 3838 O 363.424 2.52027 -1.00967 0
M  V30 3839 C 361.88 1.37081 -3.32771 0
M  V30 3840 C 361.488 0.374786 -4.4643 0
M  V30 3841 C 363.232 2.04542 -3.71972 0
M  V30 3842 C 361.139 1.01077 -5.82698 0
M  V30 3843 H 360.069 0.280903 -0.699721 0
M  V30 3844 H 362.72 -0.00411877 -1.835 0
M  V30 3845 H 361.102 2.16605 -3.31509 0
M  V30 3846 H 362.276 -0.392331 -4.59127 0
M  V30 3847 H 360.591 -0.196653 -4.15935 0
M  V30 3848 H 363.188 2.52943 -4.71088 0
M  V30 3849 H 363.531 2.85515 -3.02964 0
M  V30 3850 H 364.064 1.31819 -3.75325 0
M  V30 3851 H 360.803 0.240878 -6.55057 0
M  V30 3852 H 360.323 1.74819 -5.73758 0
M  V30 3853 H 362.002 1.52383 -6.28799 0
M  V30 3854 N 362.134 1.5431 0.320358 0
M  V30 3855 C 363.084 1.803 1.39556 0
M  V30 3856 C 364.068 0.659166 1.46778 0
M  V30 3857 O 365.26 0.91926 1.51257 0
M  V30 3858 C 362.389 2.03665 2.76361 0
M  V30 3859 C 361.475 3.24178 2.73439 0
M  V30 3860 N 361.866 4.4516 2.40137 0
M  V30 3861 C 360.164 3.25816 3.04565 0
M  V30 3862 C 360.865 5.27109 2.4603 0
M  V30 3863 N 359.841 4.64368 2.82601 0
M  V30 3864 H 363.643 2.71416 1.12742 0
M  V30 3865 H 361.157 1.53548 0.528856 0
M  V30 3866 H 363.154 2.20425 3.53862 0
M  V30 3867 H 361.814 1.13805 3.04103 0
M  V30 3868 H 362.825 4.72104 2.12927 0
M  V30 3869 H 359.502 2.46001 3.37328 0
M  V30 3870 H 360.892 6.33728 2.23246 0
M  V30 3871 N 363.613 -0.582584 1.46437 0
M  V30 3872 C 364.859 -1.34278 1.51978 0
M  V30 3873 C 365.192 -1.93446 0.170973 0
M  V30 3874 O 364.467 -1.76481 -0.817608 0
M  V30 3875 C 364.75 -2.47203 2.61845 0
M  V30 3876 C 364.603 -1.93069 4.06257 0
M  V30 3877 C 365.922 -3.49247 2.67795 0
M  V30 3878 H 363.041 -0.486876 0.553282 0
M  V30 3879 H 365.683 -0.654437 1.78374 0
M  V30 3880 H 363.833 -3.0592 2.39469 0
M  V30 3881 H 365.505 -1.38808 4.3992 0
M  V30 3882 H 363.748 -1.23898 4.1573 0
M  V30 3883 H 364.419 -2.74586 4.7886 0
M  V30 3884 H 366.895 -3.00411 2.8791 0
M  V30 3885 H 365.771 -4.25719 3.46489 0
M  V30 3886 H 366.032 -4.06482 1.73852 0
M  V30 3887 N 365.091 -1.34144 -0.827227 0
M  V30 3888 C 366.321 -1.29138 -1.61267 0
M  V30 3889 C 366.729 0.137597 -1.88699 0
M  V30 3890 O 366.072 1.09379 -1.47587 0
M  V30 3891 C 366.134 -2.0097 -2.9808 0
M  V30 3892 C 365.798 -3.50242 -2.93563 0
M  V30 3893 C 366.795 -4.4523 -2.68452 0
M  V30 3894 C 364.48 -3.92592 -3.13331 0
M  V30 3895 C 366.474 -5.80542 -2.63154 0
M  V30 3896 C 364.161 -5.28005 -3.07658 0
M  V30 3897 C 365.159 -6.21792 -2.82602 0
M  V30 3898 O 364.847 -7.54723 -2.76853 0
M  V30 3899 H 364.579 -0.445851 -0.508127 0
M  V30 3900 H 367.133 -1.77263 -1.03763 0
M  V30 3901 H 365.363 -1.47451 -3.57484 0
M  V30 3902 H 367.052 -1.89309 -3.5905 0
M  V30 3903 H 367.818 -4.13832 -2.52919 0
M  V30 3904 H 363.697 -3.19994 -3.31851 0
M  V30 3905 H 367.241 -6.53717 -2.43516 0
M  V30 3906 H 363.138 -5.59023 -3.22743 0
M  V30 3907 H 363.906 -7.64409 -2.92611 0
M  V30 3908 N 366.569 1.04691 -1.17803 0
M  V30 3909 C 367.479 2.16057 -0.914151 0
M  V30 3910 C 368.495 1.73589 0.119503 0
M  V30 3911 O 369.671 2.01308 -0.0609468 0
M  V30 3912 C 366.736 3.4394 -0.436603 0
M  V30 3913 C 365.797 4.00825 -1.53746 0
M  V30 3914 C 365.03 5.22604 -1.0826 0
M  V30 3915 O 365.253 5.70367 0.0612244 0
M  V30 3916 O 364.187 5.7186 -1.87775 0
M  V30 3917 H 368.013 2.41169 -1.84584 0
M  V30 3918 H 365.598 1.1453 -0.959334 0
M  V30 3919 H 367.48 4.21024 -0.178057 0
M  V30 3920 H 366.155 3.20316 0.466869 0
M  V30 3921 H 365.062 3.25158 -1.84995 0
M  V30 3922 H 366.395 4.28778 -2.41683 0
M  V30 3923 N 368.047 0.979072 1.23499 0
M  V30 3924 C 368.994 0.517904 2.24914 0
M  V30 3925 C 369.964 -0.442525 1.60097 0
M  V30 3926 O 371.149 -0.350365 1.87556 0
M  V30 3927 C 368.289 -0.174813 3.44657 0
M  V30 3928 C 367.402 0.825721 4.24035 0
M  V30 3929 C 366.537 0.107946 5.3109 0
M  V30 3930 C 365.576 1.09778 6.02175 0
M  V30 3931 N 364.713 0.40925 7.00906 0
M  V30 3932 H 369.553 1.38751 2.63727 0
M  V30 3933 H 367.09 0.695303 1.2963 0
M  V30 3934 H 369.048 -0.593233 4.12961 0
M  V30 3935 H 367.678 -1.0083 3.06648 0
M  V30 3936 H 366.73 1.36253 3.55161 0
M  V30 3937 H 368.042 1.58005 4.73113 0
M  V30 3938 H 367.196 -0.367904 6.05583 0
M  V30 3939 H 365.935 -0.678994 4.8295 0
M  V30 3940 H 364.94 1.5844 5.26476 0
M  V30 3941 H 366.165 1.88536 6.52404 0
M  V30 3942 H 364.111 -0.358506 6.5502 0
M  V30 3943 H 364.028 1.10226 7.47921 0
M  V30 3944 H 365.296 -0.0442557 7.79487 0
M  V30 3945 N 369.525 -1.3858 0.750561 0
M  V30 3946 C 370.475 -2.27795 0.0965949 0
M  V30 3947 C 371.459 -1.45048 -0.696411 0
M  V30 3948 O 372.651 -1.67812 -0.562863 0
M  V30 3949 C 369.78 -3.33894 -0.798085 0
M  V30 3950 C 368.866 -4.241 0.0016067 0
M  V30 3951 N 369.257 -4.95067 1.03647 0
M  V30 3952 C 367.555 -4.45429 -0.225674 0
M  V30 3953 C 368.256 -5.61489 1.52004 0
M  V30 3954 N 367.232 -5.37135 0.835874 0
M  V30 3955 H 371.034 -2.80125 0.889228 0
M  V30 3956 H 368.548 -1.51446 0.586323 0
M  V30 3957 H 370.545 -3.96693 -1.28219 0
M  V30 3958 H 369.205 -2.83123 -1.5897 0
M  V30 3959 H 370.216 -4.98104 1.41819 0
M  V30 3960 H 366.893 -4.05571 -0.990872 0
M  V30 3961 H 368.283 -6.28264 2.38188 0
M  V30 3962 N 371.003 -0.499398 -1.49478 0
M  V30 3963 C 371.966 0.268838 -2.27618 0
M  V30 3964 C 372.966 0.895383 -1.33565 0
M  V30 3965 O 374.156 0.760164 -1.56739 0
M  V30 3966 C 371.288 1.38559 -3.11471 0
M  V30 3967 H 372.481 -0.416812 -2.96989 0
M  V30 3968 H 370.034 -0.254313 -1.54217 0
M  V30 3969 H 370.769 2.10544 -2.46661 0
M  V30 3970 H 370.554 0.941797 -3.80621 0
M  V30 3971 H 372.044 1.92678 -3.70493 0
M  V30 3972 N 372.481 1.55866 -0.233164 0
M  V30 3973 C 373.429 2.22176 0.68851 0
M  V30 3974 C 374.423 1.20487 1.19076 0
M  V30 3975 O 375.629 1.38536 1.14925 0
M  V30 3976 H 372.004 0.712511 0.240483 0
M  V30 3977 H 373.975 2.98212 0.105935 0
M  V30 3978 C 372.724 2.92446 1.88071 0
M  V30 3979 H 372.047 3.70458 1.50337 0
M  V30 3980 H 373.487 3.42226 2.50314 0
M  V30 3981 C 371.946 1.95555 2.74335 0
M  V30 3982 O 372.476 1.47986 3.73447 0
M  V30 3983 N 370.682 1.62953 2.40613 0
M  V30 3984 H 370.229 2.01831 1.60069 0
M  V30 3985 H 370.187 0.983886 2.98609 0
M  V30 3986 N 373.959 -0.0401083 1.57549 0
M  V30 3987 C 375.205 -0.728793 1.89895 0
M  V30 3988 C 375.56 -1.73551 0.830535 0
M  V30 3989 O 374.853 -1.90914 -0.162007 0
M  V30 3990 C 375.047 -1.44902 3.26708 0
M  V30 3991 C 374.876 -0.513568 4.46758 0
M  V30 3992 C 373.646 -0.138698 5.0511 0
M  V30 3993 C 375.844 0.203341 5.13898 0
M  V30 3994 N 373.826 0.799159 6.08676 0
M  V30 3995 C 375.197 0.997246 6.11927 0
M  V30 3996 C 377.252 0.271459 4.97159 0
M  V30 3997 C 375.955 1.85299 6.95023 0
M  V30 3998 C 377.981 1.11429 5.80808 0
M  V30 3999 C 377.343 1.89615 6.78399 0
M  V30 4000 H 373.442 -0.241125 0.743897 0
M  V30 4001 H 376.026 0.0108016 1.94697 0
M  V30 4002 H 374.197 -2.15914 3.22856 0
M  V30 4003 H 375.929 -2.08921 3.46603 0
M  V30 4004 H 372.684 -0.498496 4.70969 0
M  V30 4005 H 373.108 1.26227 6.65128 0
M  V30 4006 H 377.75 -0.318709 4.21597 0
M  V30 4007 H 375.468 2.454 7.69938 0
M  V30 4008 H 379.054 1.17038 5.69906 0
M  V30 4009 H 377.934 2.53779 7.42001 0
M  V30 4010 N 375.437 -1.54477 -0.31217 0
M  V30 4011 C 376.665 -1.77205 -1.068 0
M  V30 4012 C 377.08 -0.526114 -1.81321 0
M  V30 4013 O 376.437 0.503647 -1.75413 0
M  V30 4014 C 376.488 -2.97253 -2.05725 0
M  V30 4015 O 376.209 -4.1703 -1.34228 0
M  V30 4016 C 377.71 -3.32281 -2.93435 0
M  V30 4017 H 374.93 -0.591287 -0.317208 0
M  V30 4018 H 377.474 -2.01398 -0.354834 0
M  V30 4019 H 375.629 -2.753 -2.72559 0
M  V30 4020 H 376.043 -4.84636 -2.00571 0
M  V30 4021 H 377.517 -4.19551 -3.58721 0
M  V30 4022 H 377.994 -2.49945 -3.61143 0
M  V30 4023 H 378.6 -3.56353 -2.32147 0
M  V30 4024 N 376.915 0.57481 -1.46744 0
M  V30 4025 C 377.845 1.69337 -1.60771 0
M  V30 4026 C 378.826 1.63825 -0.457736 0
M  V30 4027 O 380.011 1.8172 -0.684947 0
M  V30 4028 C 377.141 3.0798 -1.60517 0
M  V30 4029 C 376.095 3.28327 -2.74564 0
M  V30 4030 C 375.421 4.67578 -2.59373 0
M  V30 4031 C 376.721 3.15398 -4.16319 0
M  V30 4032 H 378.415 1.57853 -2.54407 0
M  V30 4033 H 375.961 0.75799 -1.22436 0
M  V30 4034 H 377.914 3.86061 -1.68923 0
M  V30 4035 H 376.638 3.20381 -0.634305 0
M  V30 4036 H 375.297 2.52649 -2.65639 0
M  V30 4037 H 374.945 4.76755 -1.60353 0
M  V30 4038 H 374.645 4.82144 -3.35873 0
M  V30 4039 H 376.169 5.47817 -2.69682 0
M  V30 4040 H 377.583 3.83315 -4.26313 0
M  V30 4041 H 375.98 3.41482 -4.93468 0
M  V30 4042 H 377.05 2.12372 -4.3592 0
M  V30 4043 N 378.394 1.34581 0.820102 0
M  V30 4044 C 379.622 1.3018 1.60813 0
M  V30 4045 C 380.037 -0.123551 1.88395 0
M  V30 4046 O 379.394 -1.07148 1.47735 0
M  V30 4047 C 379.445 2.09312 2.94739 0
M  V30 4048 O 379.166 3.46288 2.68358 0
M  V30 4049 C 380.667 2.1234 3.89136 0
M  V30 4050 H 377.887 0.447726 0.499782 0
M  V30 4051 H 380.431 1.77237 1.02017 0
M  V30 4052 H 378.586 1.65889 3.50085 0
M  V30 4053 H 379 3.87227 3.53774 0
M  V30 4054 H 380.474 2.72126 4.80262 0
M  V30 4055 H 380.951 1.11854 4.24718 0
M  V30 4056 H 381.557 2.55864 3.39726 0
M  V30 4057 N 379.872 -1.04064 1.18357 0
M  V30 4058 C 381.283 -1.58719 0.98312 0
M  V30 4059 C 381.634 -1.90556 -0.467193 0
M  V30 4060 O 380.759 -1.69561 -1.34454 0
M  V30 4061 C 381.354 -2.88379 1.77828 0
M  V30 4062 C 379.913 -3.3965 1.62218 0
M  V30 4063 C 379.06 -2.13235 1.77274 0
M  V30 4064 H 382.011 -0.867359 1.32901 0
M  V30 4065 H 382.032 -3.58773 1.26737 0
M  V30 4066 H 381.544 -2.65176 2.83379 0
M  V30 4067 H 379.645 -3.67866 0.592036 0
M  V30 4068 H 379.758 -4.13475 2.42023 0
M  V30 4069 H 378.122 -2.24542 1.20221 0
M  V30 4070 H 378.905 -1.92487 2.8426 0
M  V30 4071 N 381.35 -0.985608 -1.22978 0
M  V30 4072 C 382.28 -0.549649 -2.26939 0
M  V30 4073 C 383.261 0.419803 -1.64838 0
M  V30 4074 O 384.446 0.31203 -1.91677 0
M  V30 4075 C 381.576 0.143652 -3.47003 0
M  V30 4076 C 380.53 -0.743606 -4.21491 0
M  V30 4077 C 379.856 0.0822027 -5.34637 0
M  V30 4078 C 381.156 -2.03694 -4.80943 0
M  V30 4079 H 382.85 -1.41862 -2.63658 0
M  V30 4080 H 380.396 -0.683571 -1.26741 0
M  V30 4081 H 382.349 0.459985 -4.18882 0
M  V30 4082 H 381.073 1.04711 -3.09359 0
M  V30 4083 H 379.732 -1.04347 -3.51436 0
M  V30 4084 H 379.38 0.986359 -4.93234 0
M  V30 4085 H 379.08 -0.508377 -5.85397 0
M  V30 4086 H 380.604 0.392797 -6.09335 0
M  V30 4087 H 382.018 -1.78504 -5.44802 0
M  V30 4088 H 380.415 -2.57573 -5.42011 0
M  V30 4089 H 381.485 -2.72042 -4.01399 0
M  V30 4090 N 382.828 1.3818 -0.7579 0
M  V30 4091 C 383.775 2.30416 -0.133057 0
M  V30 4092 C 384.745 1.50398 0.704957 0
M  V30 4093 O 385.93 1.79014 0.660192 0
M  V30 4094 C 383.07 3.36834 0.750813 0
M  V30 4095 C 382.183 4.31879 -0.102297 0
M  V30 4096 C 381.318 5.25368 0.784979 0
M  V30 4097 C 380.357 6.12058 -0.0715046 0
M  V30 4098 N 379.494 6.97832 0.772972 0
M  V30 4099 H 384.334 2.83274 -0.925186 0
M  V30 4100 H 381.871 1.39461 -0.467866 0
M  V30 4101 H 383.829 3.97145 1.27794 0
M  V30 4102 H 382.459 2.85374 1.50868 0
M  V30 4103 H 381.511 3.72991 -0.747095 0
M  V30 4104 H 382.823 4.92921 -0.763552 0
M  V30 4105 H 381.977 5.90818 1.37911 0
M  V30 4106 H 380.716 4.64703 1.47996 0
M  V30 4107 H 379.721 5.456 -0.678272 0
M  V30 4108 H 380.946 6.74793 -0.763606 0
M  V30 4109 H 378.892 6.3971 1.45282 0
M  V30 4110 H 378.809 7.55812 0.168709 0
M  V30 4111 H 380.077 7.67687 1.35194 0
M  V30 4112 N 384.306 0.507319 1.49211 0
M  V30 4113 C 385.531 -0.033725 2.07373 0
M  V30 4114 C 385.956 -1.29485 1.36437 0
M  V30 4115 O 385.314 -1.76294 0.423087 0
M  V30 4116 C 385.362 -0.263945 3.59633 0
M  V30 4117 O 384.466 -1.33737 3.90113 0
M  V30 4118 H 383.807 0.0290331 0.663365 0
M  V30 4119 H 386.337 0.708749 1.91932 0
M  V30 4120 H 386.347 -0.493536 4.05004 0
M  V30 4121 H 385.022 0.657424 4.10671 0
M  V30 4122 H 383.599 -1.09224 3.56545 0
M  V30 4123 N 385.784 -1.5574 0.241426 0
M  V30 4124 C 386.714 -2.24133 -0.654722 0
M  V30 4125 C 387.695 -1.21974 -1.1856 0
M  V30 4126 O 388.88 -1.50612 -1.22595 0
M  V30 4127 C 386.01 -2.93659 -1.85423 0
M  V30 4128 C 384.964 -4.0246 -1.45636 0
M  V30 4129 C 384.29 -4.59383 -2.73626 0
M  V30 4130 C 385.59 -5.18468 -0.631506 0
M  V30 4131 H 387.284 -2.99281 -0.0844353 0
M  V30 4132 H 384.83 -1.43947 -0.0391707 0
M  V30 4133 H 386.783 -3.40203 -2.48676 0
M  V30 4134 H 385.507 -2.15991 -2.44981 0
M  V30 4135 H 384.166 -3.56676 -0.847202 0
M  V30 4136 H 383.814 -3.78422 -3.3137 0
M  V30 4137 H 383.514 -5.32826 -2.4773 0
M  V30 4138 H 385.038 -5.08658 -3.37786 0
M  V30 4139 H 386.452 -5.61272 -1.1682 0
M  V30 4140 H 384.849 -5.98266 -0.468831 0
M  V30 4141 H 385.919 -4.8358 0.357506 0
M  V30 4142 N 387.262 0.0317525 -1.57568 0
M  V30 4143 C 388.539 0.758366 -1.803 0
M  V30 4144 C 388.919 1.93718 -0.838845 0
M  V30 4145 O 388.267 2.28187 0.119571 0
M  V30 4146 C 388.477 1.19392 -3.27943 0
M  V30 4147 C 389.825 1.61094 -3.92854 0
M  V30 4148 O 390.849 1.28857 -3.32076 0
M  V30 4149 O 389.708 2.20918 -4.99858 0
M  V30 4150 H 386.802 0.366514 -0.741348 0
M  V30 4151 H 389.348 0.00873765 -1.69698 0
M  V30 4152 H 388.12 0.352275 -3.89711 0
M  V30 4153 H 387.743 2.00365 -3.43424 0
M  V30 4154 N 388.74 1.54641 0.303973 0
M  V30 4155 C 389.987 1.7378 1.03955 0
M  V30 4156 C 390.315 0.521986 1.87365 0
M  V30 4157 O 389.57 -0.496099 1.89308 0
M  V30 4158 C 389.869 2.97753 1.97681 0
M  V30 4159 C 389.535 4.31671 1.30271 0
M  V30 4160 C 388.197 4.68075 1.11619 0
M  V30 4161 C 390.549 5.147 0.82055 0
M  V30 4162 C 387.877 5.8509 0.434304 0
M  V30 4163 C 390.229 6.32416 0.152395 0
M  V30 4164 C 388.893 6.67484 -0.0461067 0
M  V30 4165 H 388.163 0.635908 0.380398 0
M  V30 4166 H 390.81 1.88896 0.314718 0
M  V30 4167 H 389.115 2.77406 2.76682 0
M  V30 4168 H 390.812 3.09756 2.54661 0
M  V30 4169 H 387.402 4.03041 1.45795 0
M  V30 4170 H 391.586 4.87077 0.952374 0
M  V30 4171 H 386.842 6.10806 0.269495 0
M  V30 4172 H 391.016 6.96023 -0.229126 0
M  V30 4173 H 388.643 7.58011 -0.576494 0
M  V30 4174 N 390.218 -0.567019 1.47046 0
M  V30 4175 C 391.166 -1.69593 1.59188 0
M  V30 4176 C 392.16 -1.63046 0.459609 0
M  V30 4177 O 393.366 -1.6835 0.637058 0
M  V30 4178 H 389.741 -0.560993 0.500791 0
M  V30 4179 H 391.712 -1.56488 2.54075 0
M  V30 4180 C 390.461 -3.07964 1.61411 0
M  V30 4181 H 389.784 -3.13679 2.47881 0
M  V30 4182 H 391.224 -3.86671 1.73958 0
M  V30 4183 C 389.683 -3.35123 0.34559 0
M  V30 4184 O 390.213 -3.97812 -0.557521 0
M  V30 4185 N 388.419 -2.89699 0.22864 0
M  V30 4186 H 387.966 -2.38863 0.964479 0
M  V30 4187 H 387.924 -3.08242 -0.619192 0
M  V30 4188 N 391.696 -1.35014 -0.812953 0
M  V30 4189 C 392.924 -1.31031 -1.6012 0
M  V30 4190 C 393.339 0.113558 -1.88458 0
M  V30 4191 O 392.696 1.06363 -1.48301 0
M  V30 4192 C 392.747 -2.10872 -2.93624 0
M  V30 4193 O 392.468 -3.47706 -2.66518 0
M  V30 4194 C 393.969 -2.14401 -3.88004 0
M  V30 4195 H 391.189 -0.45037 -0.497401 0
M  V30 4196 H 393.733 -1.77775 -1.01076 0
M  V30 4197 H 391.888 -1.67744 -3.492 0
M  V30 4198 H 392.302 -3.89097 -3.51715 0
M  V30 4199 H 393.776 -2.74669 -4.78812 0
M  V30 4200 H 394.253 -1.14105 -4.24119 0
M  V30 4201 H 394.859 -2.57662 -3.38364 0
M  V30 4202 N 393.175 1.03435 -1.18907 0
M  V30 4203 C 394.105 2.13503 -0.945448 0
M  V30 4204 C 395.086 1.69682 0.119189 0
M  V30 4205 O 396.271 1.94169 -0.034707 0
M  V30 4206 C 393.401 3.44004 -0.477316 0
M  V30 4207 C 392.355 4.0148 -1.48316 0
M  V30 4208 C 391.681 5.27537 -0.872311 0
M  V30 4209 C 392.981 4.36921 -2.86177 0
M  V30 4210 H 394.675 2.34141 -1.86597 0
M  V30 4211 H 392.221 1.12523 -0.898584 0
M  V30 4212 H 394.174 4.20372 -0.294204 0
M  V30 4213 H 392.898 3.23072 0.478786 0
M  V30 4214 H 391.557 3.27201 -1.65332 0
M  V30 4215 H 391.205 5.02917 0.0911752 0
M  V30 4216 H 390.905 5.66954 -1.54393 0
M  V30 4217 H 392.429 6.06576 -0.699871 0
M  V30 4218 H 393.843 5.04248 -2.72776 0
M  V30 4219 H 392.24 4.87405 -3.50081 0
M  V30 4220 H 393.31 3.46466 -3.39248 0
M  V30 4221 N 394.653 0.992116 1.22453 0
M  V30 4222 C 395.899 0.668523 1.91464 0
M  V30 4223 C 396.232 -0.797313 1.77078 0
M  V30 4224 O 395.507 -1.5765 1.13916 0
M  V30 4225 C 395.79 1.07424 3.43703 0
M  V30 4226 C 395.643 2.59857 3.67143 0
M  V30 4227 C 396.962 0.626891 4.35612 0
M  V30 4228 H 394.081 0.244341 0.695318 0
M  V30 4229 H 396.723 1.2355 1.44345 0
M  V30 4230 H 394.873 0.591816 3.83966 0
M  V30 4231 H 396.545 3.15764 3.3629 0
M  V30 4232 H 394.788 3.01961 3.11451 0
M  V30 4233 H 395.459 2.83296 4.73759 0
M  V30 4234 H 397.935 1.04125 4.02861 0
M  V30 4235 H 396.811 0.939076 5.40807 0
M  V30 4236 H 397.072 -0.472457 4.39568 0
M  V30 4237 N 396.131 -1.37776 0.765217 0
M  V30 4238 C 397.408 -1.93975 0.251596 0
M  V30 4239 C 397.788 -1.69949 -1.25222 0
M  V30 4240 O 397.136 -1.04457 -2.03226 0
M  V30 4241 C 397.346 -3.43487 0.617895 0
M  V30 4242 C 398.694 -4.20564 0.584029 0
M  V30 4243 O 399.718 -3.5182 0.556888 0
M  V30 4244 O 398.577 -5.43138 0.605291 0
M  V30 4245 H 395.671 -0.82509 0.0561806 0
M  V30 4246 H 398.217 -1.47101 0.846128 0
M  V30 4247 H 396.989 -3.5453 1.65602 0
M  V30 4248 H 396.612 -3.976 -0.00403411 0
M  V30 4249 N 397.609 -0.515225 -1.4894 0
M  V30 4250 C 398.557 0.269115 -2.31038 0
M  V30 4251 C 399.551 0.949443 -1.40292 0
M  V30 4252 O 400.757 0.87551 -1.57273 0
M  V30 4253 H 397.132 0.10565 -0.744542 0
M  V30 4254 H 399.103 -0.443096 -2.95092 0
M  V30 4255 C 397.852 1.31213 -3.21991 0
M  V30 4256 H 397.175 0.798034 -3.91754 0
M  V30 4257 H 398.615 1.83263 -3.82349 0
M  V30 4258 C 397.074 2.33791 -2.42576 0
M  V30 4259 O 397.604 3.3995 -2.14003 0
M  V30 4260 N 395.81 2.06625 -2.0434 0
M  V30 4261 H 395.357 1.20314 -2.27777 0
M  V30 4262 H 395.315 2.75483 -1.51514 0
M  V30 4263 N 399.087 1.5561 -0.249682 0
M  V30 4264 C 400.336 1.98187 0.37479 0
M  V30 4265 C 400.649 1.14111 1.58865 0
M  V30 4266 O 401.855 1.46714 2.28445 0
M  V30 4267 C 400.311 3.52661 0.718192 0
M  V30 4268 C 399.919 4.45481 -0.474428 0
M  V30 4269 C 401.663 4.03888 1.3067 0
M  V30 4270 C 399.57 5.91303 -0.107026 0
M  V30 4271 H 398.5 0.740159 0.143808 0
M  V30 4272 H 401.151 1.80125 -0.350336 0
M  V30 4273 H 399.533 3.66429 1.50152 0
M  V30 4274 H 400.707 4.43473 -1.25172 0
M  V30 4275 H 399.022 4.04751 -0.978052 0
M  V30 4276 H 401.619 5.10358 1.59496 0
M  V30 4277 H 401.962 3.51401 2.23211 0
M  V30 4278 H 402.495 3.93457 0.586211 0
M  V30 4279 H 399.234 6.47833 -0.999642 0
M  V30 4280 H 398.754 5.9644 0.634013 0
M  V30 4281 H 400.433 6.46258 0.309807 0
M  V30 4282 N 400.565 -0.0233959 1.57583 0
M  V30 4283 C 401.79 -0.728376 1.94189 0
M  V30 4284 C 402.215 -1.67793 0.850119 0
M  V30 4285 O 401.573 -1.80262 -0.19371 0
M  V30 4286 C 401.621 -1.45669 3.29868 0
M  V30 4287 O 400.725 -2.57013 3.22518 0
M  V30 4288 H 400.066 -0.195493 0.63457 0
M  V30 4289 H 402.596 0.0228214 2.04587 0
M  V30 4290 H 402.606 -1.82535 3.6489 0
M  V30 4291 H 401.281 -0.760314 4.08891 0
M  V30 4292 H 399.858 -2.22648 2.99136 0
M  V30 4293 N 402.043 -1.548 -0.295768 0
M  V30 4294 C 403.289 -1.74588 -1.03184 0
M  V30 4295 C 403.622 -0.532962 -1.86744 0
M  V30 4296 O 402.897 0.469872 -1.88739 0
M  V30 4297 C 403.18 -3.03791 -1.93347 0
M  V30 4298 C 403.033 -4.35392 -1.12933 0
M  V30 4299 C 404.352 -3.28892 -2.92435 0
M  V30 4300 H 401.471 -0.635221 -0.373715 0
M  V30 4301 H 404.113 -1.87519 -0.30606 0
M  V30 4302 H 402.263 -2.92898 -2.55232 0
M  V30 4303 H 403.935 -4.58211 -0.532943 0
M  V30 4304 H 402.178 -4.31642 -0.432168 0
M  V30 4305 H 402.849 -5.22074 -1.79284 0
M  V30 4306 H 405.325 -3.39429 -2.4068 0
M  V30 4307 H 404.201 -4.20603 -3.52682 0
M  V30 4308 H 404.462 -2.47437 -3.6637 0
M  V30 4309 N 403.521 0.559213 -1.47345 0
M  V30 4310 C 404.798 1.31997 -1.44348 0
M  V30 4311 C 405.178 2.1064 -0.139358 0
M  V30 4312 O 404.526 2.1091 0.879153 0
M  V30 4313 C 404.736 2.22618 -2.68779 0
M  V30 4314 C 406.084 2.83701 -3.1591 0
M  V30 4315 O 407.108 2.32921 -2.69493 0
M  V30 4316 O 405.967 3.75993 -3.966 0
M  V30 4317 H 403.061 0.594251 -0.575147 0
M  V30 4318 H 405.607 0.578282 -1.59543 0
M  V30 4319 H 404.379 1.64093 -3.55231 0
M  V30 4320 H 404.002 3.04085 -2.5616 0
M  V30 4321 N 404.999 1.35443 0.805782 0
M  V30 4322 C 406.41 1.25768 1.37983 0
M  V30 4323 C 406.761 -0.10958 1.95894 0
M  V30 4324 O 405.886 -1.01056 1.91355 0
M  V30 4325 C 406.481 2.27727 2.5085 0
M  V30 4326 C 405.04 2.2179 3.04115 0
M  V30 4327 C 404.187 2.13393 1.77084 0
M  V30 4328 H 407.138 1.4656 0.608752 0
M  V30 4329 H 407.159 1.90422 3.29424 0
M  V30 4330 H 406.671 3.27227 2.08671 0
M  V30 4331 H 404.772 1.25703 3.50756 0
M  V30 4332 H 404.885 3.13788 3.62042 0
M  V30 4333 H 403.249 1.59384 1.98668 0
M  V30 4334 H 404.032 3.14755 1.37056 0
M  V30 4335 N 406.477 -1.02803 1.19454 0
M  V30 4336 C 407.387 -2.14575 0.948408 0
M  V30 4337 C 408.403 -1.73757 -0.091871 0
M  V30 4338 O 409.579 -2.01185 0.0929654 0
M  V30 4339 C 406.644 -3.43202 0.491265 0
M  V30 4340 C 405.705 -3.98328 1.60103 0
M  V30 4341 C 404.938 -5.20816 1.16561 0
M  V30 4342 O 405.161 -5.70392 0.0295238 0
M  V30 4343 O 404.095 -5.68801 1.96849 0
M  V30 4344 H 407.921 -2.38202 1.88397 0
M  V30 4345 H 405.506 -1.12989 0.977433 0
M  V30 4346 H 407.388 -4.20687 0.245015 0
M  V30 4347 H 406.063 -3.21018 -0.415851 0
M  V30 4348 H 404.97 -3.22174 1.90144 0
M  V30 4349 H 406.303 -4.24879 2.48473 0
M  V30 4350 N 407.956 -0.998596 -1.21925 0
M  V30 4351 C 409.184 -0.696286 -1.94832 0
M  V30 4352 C 409.599 0.740032 -1.73692 0
M  V30 4353 O 408.956 1.5 -1.03953 0
M  V30 4354 C 409.007 -0.999833 -3.47398 0
M  V30 4355 O 408.728 -2.37972 -3.67833 0
M  V30 4356 C 410.229 -0.716025 -4.37479 0
M  V30 4357 H 407.449 -0.257111 -0.619786 0
M  V30 4358 H 409.993 -1.33491 -1.54921 0
M  V30 4359 H 408.148 -0.406918 -3.85257 0
M  V30 4360 H 408.562 -2.48338 -4.61983 0
M  V30 4361 H 410.036 -0.978642 -5.43256 0
M  V30 4362 H 410.513 0.349968 -4.37803 0
M  V30 4363 H 411.119 -1.29025 -4.05256 0
M  V30 4364 N 409.434 1.37368 -0.772513 0
M  V30 4365 C 410.682 1.99279 -0.336516 0
M  V30 4366 C 411.003 1.6163 1.09091 0
M  V30 4367 O 410.273 0.882109 1.74916 0
M  V30 4368 H 408.853 0.737063 -0.121435 0
M  V30 4369 H 411.515 1.67836 -0.990809 0
M  V30 4370 H 410.611 3.09332 -0.414763 0
M  V30 4371 N 410.912 0.523116 1.48665 0
M  V30 4372 C 412.189 -0.0775449 1.95446 0
M  V30 4373 C 412.569 -1.5197 1.4652 0
M  V30 4374 O 411.917 -2.17876 0.688657 0
M  V30 4375 C 412.127 0.0326135 3.48985 0
M  V30 4376 C 413.475 -0.130141 4.24401 0
M  V30 4377 O 414.499 -0.0415142 3.56176 0
M  V30 4378 O 413.358 -0.31491 5.45592 0
M  V30 4379 H 410.452 -0.0831012 0.822814 0
M  V30 4380 H 412.998 0.587227 1.59216 0
M  V30 4381 H 411.77 1.03748 3.77296 0
M  V30 4382 H 411.393 -0.671317 3.91892 0
M  V30 4383 N 412.39 -1.55475 0.257931 0
M  V30 4384 C 413.32 -2.24815 -0.630912 0
M  V30 4385 C 414.301 -1.23224 -1.17259 0
M  V30 4386 O 415.486 -1.51904 -1.20991 0
M  V30 4387 C 412.616 -2.95609 -1.82298 0
M  V30 4388 C 411.57 -4.03982 -1.41359 0
M  V30 4389 C 410.896 -4.6226 -2.68738 0
M  V30 4390 C 412.196 -5.19109 -0.57648 0
M  V30 4391 H 413.89 -2.99354 -0.0526878 0
M  V30 4392 H 411.436 -1.4398 -0.023901 0
M  V30 4393 H 413.389 -3.42822 -2.45054 0
M  V30 4394 H 412.113 -2.18577 -2.42676 0
M  V30 4395 H 410.772 -3.57555 -0.809324 0
M  V30 4396 H 410.42 -3.81915 -3.27338 0
M  V30 4397 H 410.12 -5.35424 -2.42065 0
M  V30 4398 H 411.644 -5.12212 -3.32372 0
M  V30 4399 H 413.058 -5.62479 -1.10861 0
M  V30 4400 H 411.455 -5.98729 -0.405351 0
M  V30 4401 H 412.525 -4.83174 0.408776 0
M  V30 4402 N 413.868 0.0150385 -1.57593 0
M  V30 4403 C 415.114 0.69849 -1.91031 0
M  V30 4404 C 415.469 1.72208 -0.85804 0
M  V30 4405 O 414.762 1.91147 0.131614 0
M  V30 4406 C 414.956 1.39686 -3.28972 0
M  V30 4407 C 414.785 0.442428 -4.47518 0
M  V30 4408 C 413.555 0.0583223 -5.05266 0
M  V30 4409 C 415.753 -0.285072 -5.13509 0
M  V30 4410 N 413.735 -0.895893 -6.07328 0
M  V30 4411 C 415.106 -1.09447 -6.10263 0
M  V30 4412 C 417.161 -0.350518 -4.96665 0
M  V30 4413 C 415.864 -1.96333 -6.91987 0
M  V30 4414 C 417.89 -1.20655 -5.78962 0
M  V30 4415 C 417.252 -2.00383 -6.75297 0
M  V30 4416 H 413.351 0.22926 -0.747639 0
M  V30 4417 H 415.935 -0.0417748 -1.94655 0
M  V30 4418 H 414.106 2.1075 -3.2625 0
M  V30 4419 H 415.838 2.03381 -3.49883 0
M  V30 4420 H 412.593 0.423506 -4.71703 0
M  V30 4421 H 413.017 -1.36792 -6.63036 0
M  V30 4422 H 417.659 0.251596 -4.22051 0
M  V30 4423 H 415.377 -2.57618 -7.65936 0
M  V30 4424 H 418.963 -1.2609 -5.67972 0
M  V30 4425 H 417.843 -2.65552 -7.3787 0
M  V30 4426 N 415.346 1.54954 0.287554 0
M  V30 4427 C 416.592 1.75132 1.02257 0
M  V30 4428 C 416.925 0.542858 1.86458 0
M  V30 4429 O 416.2 -0.459856 1.88986 0
M  V30 4430 C 416.483 3.04812 1.91733 0
M  V30 4431 C 416.336 4.35985 1.10622 0
M  V30 4432 C 417.655 3.30438 2.90687 0
M  V30 4433 H 414.774 0.637194 0.370341 0
M  V30 4434 H 417.416 1.87678 0.296111 0
M  V30 4435 H 415.566 2.94247 2.53675 0
M  V30 4436 H 417.238 4.58487 0.508636 0
M  V30 4437 H 415.481 4.31865 0.409271 0
M  V30 4438 H 416.152 5.23017 1.76513 0
M  V30 4439 H 418.628 3.40701 2.38877 0
M  V30 4440 H 417.504 4.22467 3.50447 0
M  V30 4441 H 417.765 2.49377 3.65053 0
M  V30 4442 N 416.824 -0.551391 1.4764 0
M  V30 4443 C 418.072 -1.30572 1.54258 0
M  V30 4444 C 418.393 -1.93877 0.208963 0
M  V30 4445 O 417.663 -1.80234 -0.767619 0
M  V30 4446 H 416.243 -0.484894 0.568231 0
M  V30 4447 H 418.905 -0.643402 1.83974 0
M  V30 4448 H 418.001 -2.09621 2.31226 0
M  V30 4449 N 418.302 -1.35869 -0.798587 0
M  V30 4450 C 419.542 -1.30961 -1.56935 0
M  V30 4451 C 419.906 0.112404 -1.91671 0
M  V30 4452 O 421.107 0.285937 -2.67275 0
M  V30 4453 C 419.378 -2.19811 -2.81811 0
M  V30 4454 S 420.937 -2.32498 -3.72143 0
M  V30 4455 H 417.755 -0.465297 -0.537606 0
M  V30 4456 H 420.357 -1.71344 -0.941346 0
M  V30 4457 H 419.061 -3.22095 -2.54329 0
M  V30 4458 H 418.592 -1.80415 -3.49591 0
M  V30 4459 H 420.607 -1.5157 -4.72484 0
M  V30 4460 N 419.78 1.02168 -1.19998 0
M  V30 4461 C 420.73 2.08969 -0.911921 0
M  V30 4462 C 421.714 1.60404 0.12621 0
M  V30 4463 O 422.906 1.76817 -0.0804706 0
M  V30 4464 C 420.035 3.402 -0.460277 0
M  V30 4465 C 419.121 3.9548 -1.53155 0
M  V30 4466 N 419.512 4.24332 -2.75275 0
M  V30 4467 C 417.81 4.23572 -1.39653 0
M  V30 4468 C 418.511 4.68834 -3.44339 0
M  V30 4469 N 417.487 4.70804 -2.71744 0
M  V30 4470 H 421.289 2.29178 -1.83997 0
M  V30 4471 H 418.803 1.20094 -1.09322 0
M  V30 4472 H 420.8 4.16235 -0.235337 0
M  V30 4473 H 419.46 3.21408 0.4612 0
M  V30 4474 H 420.471 4.13393 -3.11973 0
M  V30 4475 H 417.148 4.14005 -0.539067 0
M  V30 4476 H 418.538 5.00019 -4.4881 0
M  V30 4477 N 421.258 1.00505 1.21394 0
M  V30 4478 C 422.669 0.721082 1.72213 0
M  V30 4479 C 423.02 -0.761263 1.80829 0
M  V30 4480 O 422.145 -1.59464 1.46288 0
M  V30 4481 C 422.74 1.30228 3.12772 0
M  V30 4482 C 421.299 1.06743 3.60947 0
M  V30 4483 C 420.446 1.41507 2.38477 0
M  V30 4484 H 423.397 1.17594 1.06571 0
M  V30 4485 H 423.418 0.686955 3.74247 0
M  V30 4486 H 422.93 2.38115 3.06468 0
M  V30 4487 H 421.031 0.00572162 3.726 0
M  V30 4488 H 421.144 1.73936 4.46411 0
M  V30 4489 H 419.508 0.833852 2.40664 0
M  V30 4490 H 420.291 2.50424 2.34824 0
M  V30 4491 N 422.737 -1.36956 0.779787 0
M  V30 4492 C 423.685 -2.32053 0.15942 0
M  V30 4493 C 424.679 -1.55333 -0.675878 0
M  V30 4494 O 425.885 -1.70668 -0.57204 0
M  V30 4495 H 422.26 -0.751286 0.0327707 0
M  V30 4496 H 424.231 -2.8195 0.977078 0
M  V30 4497 C 422.98 -3.40602 -0.698977 0
M  V30 4498 H 422.303 -3.99746 -0.0655966 0
M  V30 4499 H 423.743 -4.09486 -1.09989 0
M  V30 4500 C 422.202 -2.81359 -1.85307 0
M  V30 4501 O 422.732 -2.72751 -2.94906 0
M  V30 4502 N 420.938 -2.38786 -1.65619 0
M  V30 4503 H 420.485 -2.45987 -0.764725 0
M  V30 4504 H 420.443 -1.99493 -2.43002 0
M  V30 4505 N 424.215 -0.530993 -1.48385 0
M  V30 4506 C 425.463 0.00273189 -2.021 0
M  V30 4507 C 425.784 1.34672 -1.41027 0
M  V30 4508 O 425.054 1.8724 -0.576012 0
M  V30 4509 H 423.634 0.00399774 -0.746989 0
M  V30 4510 H 426.296 -0.695054 -1.82085 0
M  V30 4511 H 425.392 0.11031 -3.11905 0
M  V30 4512 N 425.693 1.55336 -0.266172 0
M  V30 4513 C 426.626 2.18256 0.666296 0
M  V30 4514 C 427.604 1.14064 1.1588 0
M  V30 4515 O 428.788 1.42546 1.23341 0
M  V30 4516 C 425.915 2.79867 1.90768 0
M  V30 4517 C 424.961 3.97283 1.55141 0
M  V30 4518 S 425.794 5.31694 0.637313 0
M  V30 4519 C 426.95 5.96769 1.88727 0
M  V30 4520 H 427.183 2.97008 0.131647 0
M  V30 4521 H 424.716 1.54317 -0.0504869 0
M  V30 4522 H 426.674 3.15996 2.62025 0
M  V30 4523 H 425.335 2.01025 2.41346 0
M  V30 4524 H 424.528 4.3905 2.4749 0
M  V30 4525 H 424.13 3.6253 0.919113 0
M  V30 4526 H 426.422 6.15458 2.83227 0
M  V30 4527 H 427.365 6.91752 1.51276 0
M  V30 4528 H 427.773 5.26034 2.04814 0
M  V30 4529 N 427.171 -0.0066808 1.57599 0
M  V30 4530 C 428.118 -1.00024 2.08 0
M  V30 4531 C 429.088 -1.34549 0.973943 0
M  V30 4532 O 430.273 -1.44502 1.24595 0
M  V30 4533 C 427.413 -2.2891 2.58252 0
M  V30 4534 C 426.526 -2.00346 3.82734 0
M  V30 4535 C 425.661 -3.23265 4.21513 0
M  V30 4536 C 424.7 -2.90357 5.3885 0
M  V30 4537 N 423.837 -4.05793 5.72954 0
M  V30 4538 H 428.677 -0.563499 2.92624 0
M  V30 4539 H 426.214 -0.266592 1.44664 0
M  V30 4540 H 428.172 -3.04247 2.85464 0
M  V30 4541 H 426.802 -2.70265 1.76512 0
M  V30 4542 H 425.854 -1.15406 3.62471 0
M  V30 4543 H 427.166 -1.72086 4.68175 0
M  V30 4544 H 426.32 -4.06953 4.49971 0
M  V30 4545 H 425.059 -3.54657 3.34768 0
M  V30 4546 H 424.064 -2.05075 5.10122 0
M  V30 4547 H 425.289 -2.60219 6.27266 0
M  V30 4548 H 423.235 -4.37094 4.89167 0
M  V30 4549 H 423.152 -3.81034 6.52954 0
M  V30 4550 H 424.42 -4.90289 6.06001 0
M  V30 4551 N 428.649 -1.55105 -0.279332 0
M  V30 4552 C 429.898 -1.74618 -1.00952 0
M  V30 4553 C 430.211 -0.551096 -1.87676 0
M  V30 4554 O 431.417 -0.628507 -2.64125 0
M  V30 4555 C 429.873 -3.09025 -1.84476 0
M  V30 4556 C 429.481 -4.36081 -1.0265 0
M  V30 4557 C 431.225 -3.37891 -2.56963 0
M  V30 4558 C 429.132 -5.6153 -1.85576 0
M  V30 4559 H 428.062 -0.650868 -0.38064 0
M  V30 4560 H 430.713 -1.81569 -0.265475 0
M  V30 4561 H 429.095 -2.96095 -2.62952 0
M  V30 4562 H 430.269 -4.59909 -0.286354 0
M  V30 4563 H 428.584 -4.14312 -0.416464 0
M  V30 4564 H 431.181 -4.28822 -3.19399 0
M  V30 4565 H 431.524 -2.57737 -3.26921 0
M  V30 4566 H 432.057 -3.5189 -1.85522 0
M  V30 4567 H 428.796 -6.44413 -1.2005 0
M  V30 4568 H 428.316 -5.41854 -2.57204 0
M  V30 4569 H 429.995 -5.99594 -2.43096 0
M  V30 4570 N 430.127 0.543554 -1.4793 0
M  V30 4571 C 431.374 1.30008 -1.55255 0
M  V30 4572 C 431.702 1.93245 -0.220612 0
M  V30 4573 O 430.957 1.79141 0.787843 0
M  V30 4574 C 431.256 2.42078 -2.62932 0
M  V30 4575 C 430.922 1.96583 -4.0579 0
M  V30 4576 C 429.584 1.83893 -4.44676 0
M  V30 4577 C 431.936 1.62034 -4.95373 0
M  V30 4578 C 429.264 1.34969 -5.70964 0
M  V30 4579 C 431.616 1.14577 -6.22137 0
M  V30 4580 C 430.28 1.00493 -6.59892 0
M  V30 4581 H 429.55 0.475735 -0.568117 0
M  V30 4582 H 432.197 0.608075 -1.81589 0
M  V30 4583 H 430.502 3.16892 -2.30406 0
M  V30 4584 H 432.199 3.00236 -2.65818 0
M  V30 4585 H 428.789 2.07407 -3.75074 0
M  V30 4586 H 432.973 1.70705 -4.66019 0
M  V30 4587 H 428.229 1.2274 -5.98953 0
M  V30 4588 H 432.403 0.869109 -6.90955 0
M  V30 4589 H 430.03 0.623624 -7.57638 0
M  V30 4590 N 431.605 1.3629 0.791371 0
M  V30 4591 C 432.852 1.30412 1.54916 0
M  V30 4592 C 433.18 -0.117162 1.94147 0
M  V30 4593 O 432.435 -1.08599 1.62803 0
M  V30 4594 C 432.734 2.17068 2.8393 0
M  V30 4595 C 432.4 3.65645 2.63846 0
M  V30 4596 C 431.062 4.0614 2.58077 0
M  V30 4597 C 433.414 4.59855 2.45322 0
M  V30 4598 C 430.742 5.3899 2.31748 0
M  V30 4599 C 433.094 5.9292 2.2052 0
M  V30 4600 C 431.758 6.32542 2.13183 0
M  V30 4601 H 431.028 0.47721 0.566879 0
M  V30 4602 H 433.675 1.68325 0.913172 0
M  V30 4603 H 431.98 1.72085 3.51986 0
M  V30 4604 H 433.677 2.09846 3.4171 0
M  V30 4605 H 430.267 3.33518 2.69191 0
M  V30 4606 H 434.451 4.29443 2.48782 0
M  V30 4607 H 429.707 5.68672 2.24548 0
M  V30 4608 H 433.881 6.65487 2.05182 0
M  V30 4609 H 431.508 7.35412 1.92544 0
M  V30 4610 N 433.083 -1.0153 1.20538 0
M  V30 4611 C 434.313 -1.78487 1.04048 0
M  V30 4612 C 434.721 -1.84631 -0.413292 0
M  V30 4613 O 434.064 -1.29919 -1.29872 0
M  V30 4614 C 434.126 -3.24367 1.55003 0
M  V30 4615 C 433.79 -3.41827 3.0332 0
M  V30 4616 C 434.787 -3.30941 4.00966 0
M  V30 4617 C 432.472 -3.67602 3.42307 0
M  V30 4618 C 434.466 -3.45577 5.35589 0
M  V30 4619 C 432.153 -3.81881 4.77085 0
M  V30 4620 C 433.151 -3.70874 5.73534 0
M  V30 4621 O 432.839 -3.84714 7.05868 0
M  V30 4622 H 432.571 -0.568108 0.366373 0
M  V30 4623 H 435.125 -1.28677 1.60098 0
M  V30 4624 H 433.355 -3.75266 0.933397 0
M  V30 4625 H 435.044 -3.82963 1.34514 0
M  V30 4626 H 435.81 -3.10964 3.72191 0
M  V30 4627 H 431.689 -3.75256 2.67776 0
M  V30 4628 H 435.233 -3.36902 6.10854 0
M  V30 4629 H 431.13 -4.01359 5.0555 0
M  V30 4630 H 431.898 -4.01724 7.13134 0
M  V30 4631 N 434.561 -1.01147 -1.20859 0
M  V30 4632 C 435.838 -0.613136 -1.85742 0
M  V30 4633 C 436.218 0.909004 -1.90526 0
M  V30 4634 O 435.566 1.79862 -1.40932 0
M  V30 4635 C 435.776 -1.255 -3.25654 0
M  V30 4636 C 437.124 -1.3672 -4.01986 0
M  V30 4637 O 438.148 -1.21082 -3.34989 0
M  V30 4638 O 437.007 -1.6194 -5.21956 0
M  V30 4639 H 434.101 -0.210878 -0.799662 0
M  V30 4640 H 436.647 -1.10853 -1.2849 0
M  V30 4641 H 435.419 -2.29532 -3.16908 0
M  V30 4642 H 435.042 -0.746369 -3.90532 0
M  V30 4643 N 436.039 1.36541 -0.78704 0
M  V30 4644 C 437.264 2.0409 -0.369053 0
M  V30 4645 C 437.689 1.58957 1.00569 0
M  V30 4646 O 437.047 0.756926 1.64743 0
M  V30 4647 C 437.095 3.57924 -0.438466 0
M  V30 4648 O 436.199 4.08642 0.555479 0
M  V30 4649 H 435.54 0.645142 -0.157122 0
M  V30 4650 H 438.07 1.74545 -1.06749 0
M  V30 4651 H 438.08 4.06887 -0.301218 0
M  V30 4652 H 436.755 3.90127 -1.44132 0
M  V30 4653 H 435.332 3.70958 0.380088 0
M  V30 4654 N 437.518 0.538854 1.48102 0
M  V30 4655 C 438.428 -0.222648 2.33541 0
M  V30 4656 C 439.444 -0.930225 1.47047 0
M  V30 4657 O 440.62 -0.903211 1.80011 0
M  V30 4658 C 437.685 -1.25064 3.23357 0
M  V30 4659 C 436.746 -0.552469 4.2573 0
M  V30 4660 C 435.979 -1.53149 5.11254 0
M  V30 4661 O 436.202 -2.76487 4.9891 0
M  V30 4662 O 435.136 -1.06602 5.92385 0
M  V30 4663 H 438.962 0.477707 2.99919 0
M  V30 4664 H 436.547 0.299669 1.46364 0
M  V30 4665 H 438.429 -1.8445 3.78888 0
M  V30 4666 H 437.104 -1.93325 2.59629 0
M  V30 4667 H 436.011 0.082114 3.7401 0
M  V30 4668 H 437.344 0.0883526 4.92121 0
M  V30 4669 N 438.996 -1.55193 0.274407 0
M  V30 4670 C 439.944 -2.23924 -0.629362 0
M  V30 4671 C 440.938 -1.23602 -1.1584 0
M  V30 4672 O 442.144 -1.41535 -1.11211 0
M  V30 4673 H 438.519 -0.718637 -0.221507 0
M  V30 4674 H 440.49 -2.98388 -0.0268322 0
M  V30 4675 C 439.239 -2.97329 -1.80252 0
M  V30 4676 H 438.562 -3.74313 -1.40462 0
M  V30 4677 H 440.002 -3.48743 -2.41152 0
M  V30 4678 C 438.461 -2.0276 -2.69054 0
M  V30 4679 O 438.991 -1.57836 -3.69392 0
M  V30 4680 N 437.197 -1.69275 -2.36208 0
M  V30 4681 H 436.744 -2.06004 -1.54661 0
M  V30 4682 H 436.702 -1.06271 -2.95895 0
M  V30 4683 N 440.474 -0.00167713 -1.576 0
M  V30 4684 C 441.885 0.54091 -1.78693 0
M  V30 4685 C 442.236 1.7386 -0.909247 0
M  V30 4686 O 441.361 2.16109 -0.112176 0
M  V30 4687 C 441.956 0.98806 -3.24072 0
M  V30 4688 C 440.515 1.47594 -3.46256 0
M  V30 4689 C 439.662 0.42792 -2.73978 0
M  V30 4690 H 442.613 -0.22784 -1.57056 0
M  V30 4691 H 442.634 1.85398 -3.32277 0
M  V30 4692 H 442.146 0.116164 -3.87926 0
M  V30 4693 H 440.247 2.36868 -2.87618 0
M  V30 4694 H 440.36 1.50225 -4.54939 0
M  V30 4695 H 438.724 0.889934 -2.38647 0
M  V30 4696 H 439.507 -0.435038 -3.40532 0
M  V30 4697 N 441.952 1.55251 0.271103 0
M  V30 4698 C 443.363 1.66635 0.842007 0
M  V30 4699 C 443.714 0.594631 1.86972 0
M  V30 4700 O 442.839 -0.263532 2.14789 0
M  V30 4701 C 443.434 3.02082 1.53401 0
M  V30 4702 C 441.993 3.15487 2.05293 0
M  V30 4703 C 441.14 2.62438 0.895631 0
M  V30 4704 H 444.091 1.58629 0.0474117 0
M  V30 4705 H 444.112 2.95176 2.40107 0
M  V30 4706 H 443.624 3.80062 0.785786 0
M  V30 4707 H 441.725 2.42284 2.83071 0
M  V30 4708 H 441.838 4.22075 2.26693 0
M  V30 4709 H 440.202 2.19644 1.28953 0
M  V30 4710 H 440.985 3.42923 0.160878 0
M  V30 4711 N 443.43 -0.535701 1.48216 0
M  V30 4712 C 444.393 -1.623 1.61838 0
M  V30 4713 C 445.393 -1.53087 0.492024 0
M  V30 4714 O 446.583 -1.5686 0.757668 0
M  V30 4715 C 443.715 -3.01907 1.58319 0
M  V30 4716 H 444.908 -1.51564 2.58783 0
M  V30 4717 H 442.461 -0.757317 1.36727 0
M  V30 4718 H 443.196 -3.18155 0.628299 0
M  V30 4719 H 442.981 -3.10003 2.40085 0
M  V30 4720 H 444.471 -3.80969 1.71033 0
M  V30 4721 N 444.908 -1.36708 -0.784132 0
M  V30 4722 C 446.133 -1.34565 -1.5782 0
M  V30 4723 C 446.558 0.0695257 -1.87971 0
M  V30 4724 O 445.916 1.04302 -1.48293 0
M  V30 4725 C 445.964 -2.17952 -2.87279 0
M  V30 4726 O 445.068 -1.57563 -3.81114 0
M  V30 4727 H 444.409 -0.460337 -0.478524 0
M  V30 4728 H 446.939 -1.80064 -0.971495 0
M  V30 4729 H 446.949 -2.30721 -3.365 0
M  V30 4730 H 445.624 -3.20823 -2.64661 0
M  V30 4731 H 444.201 -1.53764 -3.39722 0
M  V30 4732 N 446.386 1.0089 -1.21074 0
M  V30 4733 C 447.296 2.13039 -0.982425 0
M  V30 4734 C 448.312 1.73881 0.0642161 0
M  V30 4735 O 449.488 2.01012 -0.12496 0
M  V30 4736 C 446.553 3.42377 -0.545803 0
M  V30 4737 C 445.614 3.95731 -1.6642 0
M  V30 4738 C 444.847 5.18896 -1.24832 0
M  V30 4739 O 445.07 5.70273 -0.120265 0
M  V30 4740 O 444.004 5.65597 -2.05873 0
M  V30 4741 H 447.83 2.35175 -1.92163 0
M  V30 4742 H 445.415 1.1142 -0.995285 0
M  V30 4743 H 447.297 4.20244 -0.311912 0
M  V30 4744 H 445.972 3.21639 0.364727 0
M  V30 4745 H 444.879 3.19108 -1.95246 0
M  V30 4746 H 446.212 4.20872 -2.55201 0
M  V30 4747 N 447.864 1.01787 1.20321 0
M  V30 4748 C 449.11 0.708985 1.90003 0
M  V30 4749 C 449.443 -0.759572 1.78729 0
M  V30 4750 O 448.718 -1.55198 1.17234 0
M  V30 4751 C 449.001 1.1469 3.41348 0
M  V30 4752 C 448.854 2.67586 3.61549 0
M  V30 4753 C 450.173 0.71915 4.34185 0
M  V30 4754 H 447.292 0.259034 0.689978 0
M  V30 4755 H 449.934 1.26584 1.41692 0
M  V30 4756 H 448.084 0.673128 3.82624 0
M  V30 4757 H 449.756 3.22826 3.29517 0
M  V30 4758 H 447.999 3.085 3.04976 0
M  V30 4759 H 448.67 2.93281 4.67643 0
M  V30 4760 H 451.146 1.12647 4.00562 0
M  V30 4761 H 450.022 1.05358 5.38694 0
M  V30 4762 H 450.283 -0.379111 4.40472 0
M  V30 4763 N 449.342 -1.36122 0.79427 0
M  V30 4764 C 450.272 -2.32551 0.210328 0
M  V30 4765 C 451.253 -1.56884 -0.657386 0
M  V30 4766 O 452.438 -1.85014 -0.590207 0
M  V30 4767 C 449.568 -3.41128 -0.651819 0
M  V30 4768 C 448.522 -4.27842 0.116395 0
M  V30 4769 C 447.848 -5.2763 -0.86666 0
M  V30 4770 C 449.148 -5.05647 1.30837 0
M  V30 4771 H 450.842 -2.81636 1.01594 0
M  V30 4772 H 448.388 -1.35407 0.489981 0
M  V30 4773 H 450.341 -4.07581 -1.07031 0
M  V30 4774 H 449.065 -2.90622 -1.49019 0
M  V30 4775 H 447.724 -3.62952 0.515915 0
M  V30 4776 H 447.372 -4.73395 -1.70019 0
M  V30 4777 H 447.072 -5.86514 -0.35705 0
M  V30 4778 H 448.596 -5.96955 -1.28361 0
M  V30 4779 H 450.01 -5.65113 0.965393 0
M  V30 4780 H 448.407 -5.73967 1.75161 0
M  V30 4781 H 449.477 -4.37006 2.10128 0
M  V30 4782 N 450.82 -0.546701 -1.47814 0
M  V30 4783 C 452.236 -0.205717 -1.58269 0
M  V30 4784 C 452.436 1.29153 -1.54667 0
M  V30 4785 O 451.492 2.07098 -1.44453 0
M  V30 4786 C 452.805 -0.823065 -2.89216 0
M  V30 4787 C 454.353 -0.793328 -3.02779 0
M  V30 4788 C 454.828 -1.38955 -4.36412 0
M  V30 4789 N 456.319 -1.35227 -4.43021 0
M  V30 4790 C 457.054 -1.78333 -5.44963 0
M  V30 4791 N 456.55 -2.29246 -6.53772 0
M  V30 4792 N 458.343 -1.69467 -5.35945 0
M  V30 4793 H 450.494 -1.5196 -1.48398 0
M  V30 4794 H 452.757 -0.633078 -0.705632 0
M  V30 4795 H 452.463 -1.8749 -2.97558 0
M  V30 4796 H 452.337 -0.309915 -3.75925 0
M  V30 4797 H 454.724 0.249784 -2.94041 0
M  V30 4798 H 454.805 -1.34412 -2.17639 0
M  V30 4799 H 454.449 -2.43168 -4.45906 0
M  V30 4800 H 454.379 -0.814291 -5.20266 0
M  V30 4801 H 456.87 -0.979739 -3.64979 0
M  V30 4802 H 457.183 -2.60089 -7.27718 0
M  V30 4803 H 455.528 -2.3325 -6.5469 0
M  V30 4804 H 458.719 -1.29477 -4.49837 0
M  V30 4805 H 458.892 -2.03381 -6.15256 0
M  V30 4806 N 452.299 1.55045 -0.282633 0
M  V30 4807 C 453.548 1.98938 0.332667 0
M  V30 4808 C 453.861 1.17455 1.56409 0
M  V30 4809 O 455.067 1.51527 2.25282 0
M  V30 4810 C 453.523 3.54105 0.643226 0
M  V30 4811 C 453.131 4.44374 -0.568814 0
M  V30 4812 C 454.875 4.06569 1.22074 0
M  V30 4813 C 452.782 5.90943 -0.232426 0
M  V30 4814 H 451.712 0.743043 0.128075 0
M  V30 4815 H 454.363 1.79341 -0.388464 0
M  V30 4816 H 452.745 3.69532 1.42346 0
M  V30 4817 H 453.919 4.40718 -1.34551 0
M  V30 4818 H 452.234 4.02585 -1.06369 0
M  V30 4819 H 454.831 5.13626 1.48635 0
M  V30 4820 H 455.174 3.56057 2.15707 0
M  V30 4821 H 455.707 3.94612 0.502621 0
M  V30 4822 H 452.446 6.45567 -1.13683 0
M  V30 4823 H 451.966 5.9765 0.507357 0
M  V30 4824 H 453.645 6.4677 0.172657 0
M  V30 4825 N 453.777 0.010035 1.57597 0
M  V30 4826 C 454.709 -1.00649 2.05918 0
M  V30 4827 C 455.722 -1.30077 0.978964 0
M  V30 4828 O 456.911 -1.26878 1.25556 0
M  V30 4829 C 454.011 -2.33876 2.45265 0
M  V30 4830 C 453.184 -2.23242 3.7614 0
M  V30 4831 C 452.243 -3.39242 4.02245 0
M  V30 4832 O 451.269 -3.1698 4.72771 0
M  V30 4833 N 452.471 -4.6242 3.50924 0
M  V30 4834 H 455.236 -0.594333 2.93748 0
M  V30 4835 H 452.797 -0.17714 1.60928 0
M  V30 4836 H 454.789 -3.1027 2.59836 0
M  V30 4837 H 453.359 -2.66799 1.62902 0
M  V30 4838 H 452.579 -1.31696 3.71551 0
M  V30 4839 H 453.867 -2.13321 4.61922 0
M  V30 4840 H 453.265 -4.83404 2.93832 0
M  V30 4841 H 451.822 -5.36046 3.70807 0
M  V30 4842 N 455.255 -1.55392 -0.262866 0
M  V30 4843 C 456.203 -1.8977 -1.345 0
M  V30 4844 C 457.197 -0.775063 -1.50629 0
M  V30 4845 O 458.403 -0.959519 -1.52293 0
M  V30 4846 H 454.778 -0.602467 -0.450041 0
M  V30 4847 H 456.749 -2.80147 -1.02762 0
M  V30 4848 C 455.498 -2.19501 -2.69657 0
M  V30 4849 H 454.821 -3.05378 -2.5804 0
M  V30 4850 H 456.261 -2.47469 -3.44289 0
M  V30 4851 C 454.72 -1.00597 -3.21531 0
M  V30 4852 O 455.25 -0.245768 -4.00947 0
M  V30 4853 N 453.456 -0.800911 -2.79345 0
M  V30 4854 H 453.003 -1.42079 -2.14875 0
M  V30 4855 H 452.961 -0.00697996 -3.14399 0
M  V30 4856 N 456.733 0.527833 -1.48498 0
M  V30 4857 C 457.982 1.28003 -1.55878 0
M  V30 4858 C 458.295 1.9414 -0.238577 0
M  V30 4859 O 459.501 2.7083 -0.190643 0
M  V30 4860 C 457.957 2.32272 -2.74914 0
M  V30 4861 C 457.565 1.72196 -4.13585 0
M  V30 4862 C 459.309 3.08488 -2.91608 0
M  V30 4863 C 457.216 2.74417 -5.23879 0
M  V30 4864 H 456.146 0.481413 -0.580308 0
M  V30 4865 H 458.797 0.557195 -1.74836 0
M  V30 4866 H 457.179 3.07601 -2.49395 0
M  V30 4867 H 458.353 1.03041 -4.49132 0
M  V30 4868 H 456.668 1.08464 -4.02025 0
M  V30 4869 H 459.265 3.84879 -3.71177 0
M  V30 4870 H 459.608 3.64481 -2.01145 0
M  V30 4871 H 460.141 2.40274 -3.17038 0
M  V30 4872 H 456.88 2.23242 -6.16314 0
M  V30 4873 H 456.4 3.41893 -4.92818 0
M  V30 4874 H 458.079 3.37362 -5.52083 0
M  V30 4875 N 458.211 1.37122 0.776871 0
M  V30 4876 C 459.141 1.35164 1.90402 0
M  V30 4877 C 460.122 0.221069 1.68657 0
M  V30 4878 O 461.307 0.420642 1.8959 0
M  V30 4879 C 458.437 1.15274 3.27611 0
M  V30 4880 C 457.391 2.25289 3.63908 0
M  V30 4881 C 456.717 1.90527 4.99603 0
M  V30 4882 C 458.017 3.67446 3.71188 0
M  V30 4883 H 459.711 2.29482 1.92297 0
M  V30 4884 H 457.257 1.10465 0.923773 0
M  V30 4885 H 459.21 1.12536 4.06096 0
M  V30 4886 H 457.934 0.174102 3.26136 0
M  V30 4887 H 456.593 2.27174 2.87728 0
M  V30 4888 H 456.241 0.91206 4.94662 0
M  V30 4889 H 455.941 2.64193 5.24858 0
M  V30 4890 H 457.465 1.89367 5.80493 0
M  V30 4891 H 458.879 3.67719 4.39836 0
M  V30 4892 H 457.276 4.40123 4.07936 0
M  V30 4893 H 458.346 4.01443 2.71977 0
M  V30 4894 N 459.689 -1.00246 1.21608 0
M  V30 4895 C 460.917 -1.77631 1.06089 0
M  V30 4896 C 461.332 -1.84746 -0.38916 0
M  V30 4897 O 460.689 -1.31068 -1.26994 0
M  V30 4898 C 460.74 -3.21415 1.65453 0
M  V30 4899 O 460.461 -3.14703 3.04785 0
M  V30 4900 C 461.962 -4.15289 1.55079 0
M  V30 4901 H 459.182 -0.558162 0.37242 0
M  V30 4902 H 461.726 -1.26093 1.60999 0
M  V30 4903 H 459.881 -3.70053 1.14629 0
M  V30 4904 H 460.295 -4.05056 3.33212 0
M  V30 4905 H 461.769 -5.13965 2.01355 0
M  V30 4906 H 462.246 -4.36279 0.505665 0
M  V30 4907 H 462.852 -3.72543 2.05163 0
M  V30 4908 N 461.167 -1.02423 -1.1978 0
M  V30 4909 C 462.077 -0.610919 -2.26506 0
M  V30 4910 C 463.093 0.355152 -1.70337 0
M  V30 4911 O 464.269 0.214195 -2.00258 0
M  V30 4912 C 461.334 0.0365921 -3.46681 0
M  V30 4913 C 460.395 -0.976389 -4.18049 0
M  V30 4914 C 459.628 -0.359683 -5.32487 0
M  V30 4915 O 459.851 0.838601 -5.64202 0
M  V30 4916 O 458.785 -1.08022 -5.92127 0
M  V30 4917 H 462.611 -1.49965 -2.64091 0
M  V30 4918 H 460.196 -0.794156 -1.26545 0
M  V30 4919 H 462.078 0.39786 -4.19518 0
M  V30 4920 H 460.753 0.899398 -3.10954 0
M  V30 4921 H 459.66 -1.38916 -3.47352 0
M  V30 4922 H 460.993 -1.80941 -4.57735 0
M  V30 4923 N 462.645 1.35699 -0.801477 0
M  V30 4924 C 463.555 2.33661 -0.209691 0
M  V30 4925 C 464.571 1.6162 0.644591 0
M  V30 4926 O 465.747 1.93529 0.557545 0
M  V30 4927 C 462.812 3.40816 0.636033 0
M  V30 4928 C 461.873 4.28639 -0.238147 0
M  V30 4929 C 461.106 5.30676 0.567307 0
M  V30 4930 O 461.329 5.41174 1.8024 0
M  V30 4931 O 460.263 6.01887 -0.0391336 0
M  V30 4932 H 464.089 2.8606 -1.01996 0
M  V30 4933 H 461.674 1.38379 -0.563164 0
M  V30 4934 H 463.556 4.06301 1.11791 0
M  V30 4935 H 462.231 2.90696 1.42399 0
M  V30 4936 H 461.138 3.66152 -0.767044 0
M  V30 4937 H 462.471 4.82143 -0.989915 0
M  V30 4938 N 464.123 0.554532 1.47522 0
M  V30 4939 C 465.534 0.120446 1.86311 0
M  V30 4940 C 465.885 -1.30904 1.46145 0
M  V30 4941 O 465.01 -1.98434 0.863294 0
M  V30 4942 C 465.605 0.211808 3.38137 0
M  V30 4943 C 464.164 -0.167224 3.76028 0
M  V30 4944 C 463.311 0.560576 2.71575 0
M  V30 4945 H 466.262 0.764408 1.39077 0
M  V30 4946 H 466.283 -0.570275 3.76202 0
M  V30 4947 H 465.795 1.25232 3.6734 0
M  V30 4948 H 463.896 -1.20894 3.52442 0
M  V30 4949 H 464.009 0.189473 4.78725 0
M  V30 4950 H 462.373 0.00396836 2.547 0
M  V30 4951 H 463.156 1.60219 3.0362 0
M  V30 4952 N 465.601 -1.54893 0.290851 0
M  V30 4953 C 466.548 -2.23138 -0.58974 0
M  V30 4954 C 467.518 -1.21036 -1.13752 0
M  V30 4955 O 468.703 -1.49626 -1.18392 0
M  V30 4956 C 465.843 -2.96811 -1.76061 0
M  V30 4957 C 464.956 -4.13665 -1.24519 0
M  V30 4958 C 464.091 -4.74944 -2.3791 0
M  V30 4959 C 463.13 -5.83963 -1.83451 0
M  V30 4960 N 462.267 -6.39239 -2.90376 0
M  V30 4961 H 467.107 -2.98 -0.00114915 0
M  V30 4962 H 464.644 -1.47096 0.0112006 0
M  V30 4963 H 466.602 -3.37751 -2.44909 0
M  V30 4964 H 465.232 -2.24344 -2.32098 0
M  V30 4965 H 464.284 -3.77737 -0.449288 0
M  V30 4966 H 465.596 -4.92238 -0.806424 0
M  V30 4967 H 464.75 -5.18684 -3.14724 0
M  V30 4968 H 463.489 -3.95682 -2.85109 0
M  V30 4969 H 462.494 -5.39657 -1.05122 0
M  V30 4970 H 463.719 -6.65103 -1.37169 0
M  V30 4971 H 461.665 -5.62864 -3.36927 0
M  V30 4972 H 461.582 -7.13129 -2.50965 0
M  V30 4973 H 462.85 -6.87637 -3.67118 0
M  V30 4974 N 467.08 -0.0183926 -1.57589 0
M  V30 4975 C 468.326 0.663543 -1.91638 0
M  V30 4976 C 468.659 1.72392 -0.894134 0
M  V30 4977 O 467.934 1.94316 0.0846449 0
M  V30 4978 C 468.217 1.28984 -3.36207 0
M  V30 4979 C 468.07 0.239761 -4.49161 0
M  V30 4980 C 469.389 2.2109 -3.80536 0
M  V30 4981 H 466.508 0.239746 -0.696915 0
M  V30 4982 H 469.15 -0.073456 -1.89858 0
M  V30 4983 H 467.3 1.91799 -3.37854 0
M  V30 4984 H 468.972 -0.390119 -4.59647 0
M  V30 4985 H 467.215 -0.435972 -4.31604 0
M  V30 4986 H 467.886 0.717383 -5.47319 0
M  V30 4987 H 470.362 1.68273 -3.80557 0
M  V30 4988 H 469.238 2.61869 -4.82406 0
M  V30 4989 H 469.499 3.09764 -3.15434 0
M  V30 4990 N 468.558 1.5553 0.254621 0
M  V30 4991 C 469.786 1.81046 1.00149 0
M  V30 4992 C 470.201 0.593047 1.79244 0
M  V30 4993 O 469.558 -0.438196 1.77161 0
M  V30 4994 C 469.609 3.04684 1.94551 0
M  V30 4995 O 469.33 4.21725 1.18658 0
M  V30 4996 C 470.831 3.42943 2.80901 0
M  V30 4997 H 468.051 0.602653 0.295044 0
M  V30 4998 H 470.595 2.02576 0.279842 0
M  V30 4999 H 468.75 2.85226 2.62154 0
M  V30 5000 H 469.164 4.91746 1.82445 0
M  V30 5001 H 470.638 4.32576 3.42902 0
M  V30 5002 H 471.115 2.63176 3.51617 0
M  V30 5003 H 471.721 3.64724 2.18762 0
M  V30 5004 N 470.036 -0.519951 1.48776 0
M  V30 5005 C 470.968 -1.63973 1.60142 0
M  V30 5006 C 471.981 -1.55404 0.485117 0
M  V30 5007 O 473.17 -1.61682 0.756391 0
M  V30 5008 C 470.27 -3.02676 1.52449 0
M  V30 5009 C 469.443 -3.36624 2.79291 0
M  V30 5010 C 468.502 -4.54652 2.64912 0
M  V30 5011 O 467.528 -4.57374 3.38818 0
M  V30 5012 N 468.73 -5.53432 1.75195 0
M  V30 5013 H 471.495 -1.54656 2.56713 0
M  V30 5014 H 469.056 -0.707439 1.45626 0
M  V30 5015 H 471.048 -3.79525 1.4051 0
M  V30 5016 H 469.618 -3.06018 0.638125 0
M  V30 5017 H 468.838 -2.48855 3.0572 0
M  V30 5018 H 470.126 -3.56094 3.6342 0
M  V30 5019 H 469.524 -5.54018 1.14371 0
M  V30 5020 H 468.081 -6.29459 1.69189 0
M  V30 5021 N 471.514 -1.37532 -0.769588 0
M  V30 5022 C 472.76 -1.33057 -1.53048 0
M  V30 5023 C 473.093 0.0841865 -1.94017 0
M  V30 5024 O 472.368 1.04198 -1.64235 0
M  V30 5025 C 472.651 -2.27166 -2.79406 0
M  V30 5026 C 472.504 -3.77429 -2.44677 0
M  V30 5027 C 473.823 -2.19683 -3.81349 0
M  V30 5028 H 470.942 -0.484655 -0.555228 0
M  V30 5029 H 473.584 -1.68251 -0.882702 0
M  V30 5030 H 471.734 -1.97283 -3.34682 0
M  V30 5031 H 473.406 -4.17918 -1.953 0
M  V30 5032 H 471.649 -3.95892 -1.77346 0
M  V30 5033 H 472.32 -4.38716 -3.35011 0
M  V30 5034 H 474.796 -2.46029 -3.35573 0
M  V30 5035 H 473.672 -2.87668 -4.67481 0
M  V30 5036 H 473.933 -1.19045 -4.25771 0
M  V30 5037 N 472.992 0.995999 -1.22138 0
M  V30 5038 C 474.222 1.76809 -1.06874 0
M  V30 5039 C 474.63 1.85265 0.383866 0
M  V30 5040 O 473.973 1.31969 1.27789 0
M  V30 5041 C 474.035 3.2186 -1.60144 0
M  V30 5042 C 473.699 3.36958 -3.0872 0
M  V30 5043 C 474.696 3.2452 -4.0618 0
M  V30 5044 C 472.381 3.62109 -3.48112 0
M  V30 5045 C 474.375 3.37013 -5.41019 0
M  V30 5046 C 472.062 3.74243 -4.831 0
M  V30 5047 C 473.06 3.61702 -5.79362 0
M  V30 5048 O 472.748 3.73436 -7.119 0
M  V30 5049 H 472.48 0.562207 -0.375365 0
M  V30 5050 H 475.034 1.26113 -1.62125 0
M  V30 5051 H 473.264 3.73734 -0.992981 0
M  V30 5052 H 474.953 3.80775 -1.40589 0
M  V30 5053 H 475.719 3.05004 -3.77091 0
M  V30 5054 H 471.598 3.70949 -2.73712 0
M  V30 5055 H 475.142 3.27141 -6.16137 0
M  V30 5056 H 471.039 3.93266 -5.11872 0
M  V30 5057 H 471.807 3.90328 -7.19435 0
M  V30 5058 N 474.47 1.03057 1.19235 0
M  V30 5059 C 475.433 0.617418 2.20727 0
M  V30 5060 C 476.433 -0.319856 1.57587 0
M  V30 5061 O 477.623 -0.106633 1.73873 0
M  V30 5062 C 474.755 -0.096296 3.40764 0
M  V30 5063 H 475.948 1.51544 2.58794 0
M  V30 5064 H 473.501 0.821949 1.32942 0
M  V30 5065 H 474.236 -1.00859 3.08217 0
M  V30 5066 H 474.021 0.577217 3.87828 0
M  V30 5067 H 475.511 -0.372219 4.15938 0
M  V30 5068 N 475.948 -1.35272 0.808662 0
M  V30 5069 C 476.858 -2.33546 0.222079 0
M  V30 5070 C 477.874 -1.6196 -0.636011 0
M  V30 5071 O 479.05 -1.93822 -0.547274 0
M  V30 5072 C 476.115 -3.41148 -0.61795 0
M  V30 5073 C 475.176 -4.28507 0.260875 0
M  V30 5074 C 474.409 -5.3097 -0.539156 0
M  V30 5075 O 474.632 -5.42123 -1.77367 0
M  V30 5076 O 473.566 -6.01858 0.0710526 0
M  V30 5077 H 477.392 -2.85515 1.03512 0
M  V30 5078 H 474.977 -1.38079 0.570495 0
M  V30 5079 H 476.859 -4.06889 -1.09634 0
M  V30 5080 H 475.534 -2.91447 -1.40855 0
M  V30 5081 H 474.441 -3.6574 0.786451 0
M  V30 5082 H 475.774 -4.81611 1.01547 0
M  V30 5083 N 477.426 -0.562348 -1.47226 0
M  V30 5084 C 478.374 0.195476 -2.31777 0
M  V30 5085 C 479.368 0.90433 -1.43242 0
M  V30 5086 O 480.574 0.825031 -1.59979 0
M  V30 5087 H 476.949 0.0819095 -0.747526 0
M  V30 5088 H 478.92 -0.536753 -2.93533 0
M  V30 5089 C 477.669 1.20902 -3.26003 0
M  V30 5090 H 476.992 0.672997 -3.94095 0
M  V30 5091 H 478.432 1.71006 -3.87986 0
M  V30 5092 C 476.891 2.25955 -2.49891 0
M  V30 5093 O 477.421 3.32969 -2.2471 0
M  V30 5094 N 475.627 2.00019 -2.1081 0
M  V30 5095 H 475.174 1.13006 -2.31489 0
M  V30 5096 H 475.132 2.70523 -1.60201 0
M  V30 5097 N 478.904 1.54736 -0.299062 0
M  V30 5098 C 480.152 1.99706 0.31017 0
M  V30 5099 C 480.473 1.18896 1.54559 0
M  V30 5100 O 479.743 0.284445 1.93824 0
M  V30 5101 H 478.323 0.737686 0.117596 0
M  V30 5102 H 480.985 1.9054 -0.409943 0
M  V30 5103 H 480.081 3.06596 0.58355 0
M  V30 5104 N 480.382 0.0267497 1.57577 0
M  V30 5105 C 481.61 -0.662661 1.96001 0
M  V30 5106 C 482.025 -1.65799 0.903117 0
M  V30 5107 O 481.382 -1.82135 -0.115317 0
M  V30 5108 C 481.433 -1.37112 3.34488 0
M  V30 5109 O 481.154 -0.415683 4.36123 0
M  V30 5110 C 482.655 -2.15257 3.8753 0
M  V30 5111 H 479.875 -0.18287 0.6456 0
M  V30 5112 H 482.419 0.0858116 2.0432 0
M  V30 5113 H 480.574 -2.07101 3.27395 0
M  V30 5114 H 480.988 -0.918496 5.16395 0
M  V30 5115 H 482.462 -2.60285 4.86781 0
M  V30 5116 H 482.939 -2.99063 3.21649 0
M  V30 5117 H 483.545 -1.50231 3.97883 0
M  V30 5118 N 481.861 -1.55662 -0.24637 0
M  V30 5119 C 483.107 -1.77782 -0.975779 0
M  V30 5120 C 483.44 -0.592103 -1.84953 0
M  V30 5121 O 482.715 0.409588 -1.90138 0
M  V30 5122 C 482.998 -3.09788 -1.83584 0
M  V30 5123 C 482.851 -4.38764 -0.990241 0
M  V30 5124 C 484.17 -3.38029 -2.81823 0
M  V30 5125 H 481.289 -0.646789 -0.353317 0
M  V30 5126 H 483.931 -1.88398 -0.246248 0
M  V30 5127 H 482.081 -3.00869 -2.45784 0
M  V30 5128 H 483.753 -4.59675 -0.386897 0
M  V30 5129 H 481.996 -4.32798 -0.294626 0
M  V30 5130 H 482.667 -5.27514 -1.62584 0
M  V30 5131 H 485.143 -3.46915 -2.2976 0
M  V30 5132 H 484.019 -4.3161 -3.39122 0
M  V30 5133 H 484.28 -2.58968 -3.58313 0
M  V30 5134 N 483.339 0.512053 -1.4905 0
M  V30 5135 C 484.269 1.62365 -1.67809 0
M  V30 5136 C 485.25 1.61737 -0.526809 0
M  V30 5137 O 486.435 1.78651 -0.761404 0
M  V30 5138 C 483.565 3.00895 -1.73435 0
M  V30 5139 C 482.519 3.16387 -2.88242 0
M  V30 5140 C 481.845 4.56157 -2.78971 0
M  V30 5141 C 483.145 2.97457 -4.29321 0
M  V30 5142 H 484.839 1.46921 -2.60873 0
M  V30 5143 H 482.385 0.705379 -1.2554 0
M  V30 5144 H 484.338 3.78549 -1.85145 0
M  V30 5145 H 483.062 3.17403 -0.769619 0
M  V30 5146 H 481.721 2.41155 -2.76116 0
M  V30 5147 H 481.369 4.69525 -1.8043 0
M  V30 5148 H 481.069 4.67465 -3.5602 0
M  V30 5149 H 482.593 5.35886 -2.92675 0
M  V30 5150 H 484.007 3.64888 -4.42187 0
M  V30 5151 H 482.404 3.20245 -5.07507 0
M  V30 5152 H 483.474 1.93692 -4.44535 0
M  V30 5153 N 484.817 1.37938 0.762283 0
M  V30 5154 C 485.749 1.30349 1.88525 0
M  V30 5155 C 486.762 0.217402 1.61342 0
M  V30 5156 O 487.951 0.474291 1.72084 0
M  V30 5157 C 485.051 0.994844 3.23969 0
M  V30 5158 C 484.224 2.18829 3.78725 0
M  V30 5159 C 483.283 1.84844 4.92665 0
M  V30 5160 O 482.309 2.57244 5.07754 0
M  V30 5161 N 483.511 0.798201 5.74986 0
M  V30 5162 H 486.276 2.27114 1.95549 0
M  V30 5163 H 483.837 1.31686 0.941825 0
M  V30 5164 H 485.829 0.748168 3.97724 0
M  V30 5165 H 484.399 0.115446 3.12387 0
M  V30 5166 H 483.619 2.59615 2.96637 0
M  V30 5167 H 484.907 2.98497 4.1204 0
M  V30 5168 H 484.305 0.197611 5.65355 0
M  V30 5169 H 482.862 0.611396 6.48926 0
M  V30 5170 N 486.295 -0.989507 1.22664 0
M  V30 5171 C 487.543 -1.72612 1.05117 0
M  V30 5172 C 487.864 -1.90552 -0.414131 0
M  V30 5173 O 487.134 -1.4676 -1.29762 0
M  V30 5174 H 485.714 -0.639555 0.385977 0
M  V30 5175 H 488.376 -1.19158 1.54232 0
M  V30 5176 H 487.472 -2.71926 1.53175 0
M  V30 5177 N 487.773 -1.03688 -1.18687 0
M  V30 5178 C 488.998 -0.757819 -1.93059 0
M  V30 5179 C 489.423 0.678353 -1.75442 0
M  V30 5180 O 488.781 1.46938 -1.06203 0
M  V30 5181 C 488.829 -1.12423 -3.42627 0
M  V30 5182 O 487.933 -0.247505 -4.11657 0
M  V30 5183 H 487.274 -0.279245 -0.602427 0
M  V30 5184 H 489.804 -1.3857 -1.5053 0
M  V30 5185 H 489.814 -1.08454 -3.93322 0
M  V30 5186 H 488.489 -2.17049 -3.54771 0
M  V30 5187 H 487.066 -0.34649 -3.71287 0
M  V30 5188 N 489.251 1.34841 -0.815825 0
M  V30 5189 C 490.479 2.0273 -0.413294 0
M  V30 5190 C 490.894 1.61459 0.978599 0
M  V30 5191 O 490.251 0.816584 1.63212 0
M  V30 5192 C 490.302 3.58058 -0.497676 0
M  V30 5193 O 490.023 3.97832 -1.8347 0
M  V30 5194 C 491.524 4.4321 -0.0891339 0
M  V30 5195 H 488.744 0.649956 -0.166728 0
M  V30 5196 H 491.288 1.72267 -1.10201 0
M  V30 5197 H 489.443 3.87136 0.142886 0
M  V30 5198 H 489.857 4.92501 -1.80396 0
M  V30 5199 H 491.331 5.5164 -0.199274 0
M  V30 5200 H 491.808 4.28432 0.966571 0
M  V30 5201 H 492.414 4.19446 -0.703214 0
M  V30 5202 N 490.729 0.570148 1.46925 0
M  V30 5203 C 491.975 0.0510284 2.02736 0
M  V30 5204 C 492.308 -1.3006 1.44215 0
M  V30 5205 O 491.583 -1.84932 0.602521 0
M  V30 5206 C 491.866 -0.028215 3.60089 0
M  V30 5207 C 491.719 1.35142 4.29018 0
M  V30 5208 C 493.038 -0.735181 4.33916 0
M  V30 5209 H 490.157 0.0200178 0.736728 0
M  V30 5210 H 492.799 0.73493 1.75211 0
M  V30 5211 H 490.949 -0.610648 3.83671 0
M  V30 5212 H 492.621 1.97806 4.16738 0
M  V30 5213 H 490.864 1.9226 3.88868 0
M  V30 5214 H 491.535 1.24857 5.37694 0
M  V30 5215 H 494.011 -0.240519 4.15404 0
M  V30 5216 H 492.887 -0.759622 5.43618 0
M  V30 5217 H 493.148 -1.79397 4.04066 0
M  V30 5218 N 492.207 -1.54576 0.307264 0
M  V30 5219 C 493.17 -2.22423 -0.553224 0
M  V30 5220 C 494.17 -1.21231 -1.05639 0
M  V30 5221 O 495.36 -1.45923 -0.951419 0
M  V30 5222 C 492.492 -2.91552 -1.76664 0
M  V30 5223 H 493.685 -2.99874 0.0396484 0
M  V30 5224 H 491.238 -1.56192 0.0581629 0
M  V30 5225 H 491.973 -2.18196 -2.39918 0
M  V30 5226 H 491.758 -3.65738 -1.41343 0
M  V30 5227 H 493.248 -3.43292 -2.37783 0
M  V30 5228 N 493.685 -0.035106 -1.57561 0
M  V30 5229 C 494.91 0.655802 -1.96759 0
M  V30 5230 C 495.335 1.64523 -0.911809 0
M  V30 5231 O 494.693 1.80857 0.126673 0
M  V30 5232 C 494.741 1.33326 -3.35047 0
M  V30 5233 O 493.845 2.44866 -3.31835 0
M  V30 5234 H 493.186 0.171807 -0.641388 0
M  V30 5235 H 495.716 -0.0987369 -2.04362 0
M  V30 5236 H 495.726 1.68867 -3.71413 0
M  V30 5237 H 494.401 0.608033 -4.11431 0
M  V30 5238 H 492.978 2.11392 -3.07193 0
M  V30 5239 N 495.163 1.55791 0.238111 0
M  V30 5240 C 496.409 1.78297 0.966337 0
M  V30 5241 C 496.742 0.601903 1.84637 0
M  V30 5242 O 496.017 -0.399499 1.90353 0
M  V30 5243 C 496.3 3.10758 1.81939 0
M  V30 5244 C 496.153 4.39283 0.966958 0
M  V30 5245 C 497.472 3.39519 2.80027 0
M  V30 5246 H 494.591 0.648654 0.349882 0
M  V30 5247 H 497.233 1.88525 0.236253 0
M  V30 5248 H 495.383 3.02168 2.44185 0
M  V30 5249 H 497.055 4.59873 0.362514 0
M  V30 5250 H 495.298 4.32948 0.271669 0
M  V30 5251 H 495.969 5.28368 1.59784 0
M  V30 5252 H 498.445 3.48128 2.27917 0
M  V30 5253 H 497.321 4.33402 3.36829 0
M  V30 5254 H 497.582 2.60864 3.56934 0
M  V30 5255 N 496.642 -0.504142 1.49319 0
M  V30 5256 C 497.872 -1.28071 1.62116 0
M  V30 5257 C 498.28 -1.86955 0.290566 0
M  V30 5258 O 497.623 -1.68415 -0.733616 0
M  V30 5259 C 497.685 -2.4521 2.62893 0
M  V30 5260 C 497.349 -2.07218 4.0732 0
M  V30 5261 C 498.346 -1.61375 4.94221 0
M  V30 5262 C 496.031 -2.16949 4.53033 0
M  V30 5263 C 498.025 -1.25763 6.2487 0
M  V30 5264 C 495.712 -1.80949 5.83696 0
M  V30 5265 C 496.71 -1.3543 6.69438 0
M  V30 5266 O 496.398 -0.99915 7.97667 0
M  V30 5267 H 496.13 -0.394763 0.54876 0
M  V30 5268 H 498.684 -0.612118 1.96067 0
M  V30 5269 H 496.914 -3.15134 2.24115 0
M  V30 5270 H 498.603 -3.0724 2.65252 0
M  V30 5271 H 499.369 -1.53306 4.60133 0
M  V30 5272 H 495.248 -2.5133 3.86463 0
M  V30 5273 H 498.792 -0.901631 6.91749 0
M  V30 5274 H 494.689 -1.88667 6.17313 0
M  V30 5275 H 495.457 -1.13089 8.1065 0
M  V30 5276 N 498.12 -1.38341 -0.754957 0
M  V30 5277 C 499.067 -1.3546 -1.86867 0
M  V30 5278 C 500.037 -0.217369 -1.64672 0
M  V30 5279 O 501.222 -0.409383 -1.86356 0
M  V30 5280 C 498.362 -1.18413 -3.24149 0
M  V30 5281 C 497.475 -2.41511 -3.58185 0
M  V30 5282 C 496.61 -2.17205 -4.84763 0
M  V30 5283 C 495.649 -3.36081 -5.11582 0
M  V30 5284 N 494.786 -3.11219 -6.29354 0
M  V30 5285 H 499.626 -2.30672 -1.88664 0
M  V30 5286 H 497.163 -1.14607 -0.922154 0
M  V30 5287 H 499.121 -1.06545 -4.03366 0
M  V30 5288 H 497.751 -0.268397 -3.21682 0
M  V30 5289 H 496.803 -2.64056 -2.73822 0
M  V30 5290 H 498.115 -3.30115 -3.73932 0
M  V30 5291 H 497.269 -2.02465 -5.7192 0
M  V30 5292 H 496.008 -1.25964 -4.71152 0
M  V30 5293 H 495.013 -3.51341 -4.22894 0
M  V30 5294 H 496.238 -4.28196 -5.27091 0
M  V30 5295 H 494.184 -2.22624 -6.17069 0
M  V30 5296 H 494.101 -3.93373 -6.45596 0
M  V30 5297 H 495.369 -3.00132 -7.19403 0
M  V30 5298 N 499.598 0.982988 -1.23187 0
M  V30 5299 C 500.846 1.72052 -1.06031 0
M  V30 5300 C 501.167 1.90769 0.404019 0
M  V30 5301 O 500.437 1.47446 1.28982 0
M  V30 5302 H 499.017 0.637499 -0.389363 0
M  V30 5303 H 501.679 1.18338 -1.54862 0
M  V30 5304 H 500.775 2.7111 -1.54615 0
M  V30 5305 N 501.076 1.04316 1.18135 0
M  V30 5306 C 502.023 0.636398 2.21853 0
M  V30 5307 C 502.993 -0.357039 1.62217 0
M  V30 5308 O 504.178 -0.250453 1.89149 0
M  V30 5309 C 501.318 0.00812779 3.45099 0
M  V30 5310 C 500.431 1.04933 4.19062 0
M  V30 5311 C 499.566 0.389313 5.29771 0
M  V30 5312 C 498.605 1.41544 5.9551 0
M  V30 5313 N 497.742 0.78021 6.97751 0
M  V30 5314 H 502.582 1.52536 2.56002 0
M  V30 5315 H 500.119 0.76304 1.25762 0
M  V30 5316 H 502.077 -0.373497 4.15525 0
M  V30 5317 H 500.707 -0.844336 3.11562 0
M  V30 5318 H 499.759 1.54888 3.47439 0
M  V30 5319 H 501.071 1.82862 4.64072 0
M  V30 5320 H 500.225 -0.0463805 6.06682 0
M  V30 5321 H 498.964 -0.422038 4.8587 0
M  V30 5322 H 497.969 1.86124 5.17337 0
M  V30 5323 H 499.194 2.22854 6.41493 0
M  V30 5324 H 497.14 -0.0107899 6.55999 0
M  V30 5325 H 497.057 1.49716 7.41027 0
M  V30 5326 H 498.325 0.368996 7.78626 0
M  V30 5327 N 502.554 -1.34406 0.822964 0
M  V30 5328 C 503.484 -2.32052 0.259608 0
M  V30 5329 C 504.465 -1.58243 -0.623961 0
M  V30 5330 O 505.65 -1.86224 -0.55083 0
M  V30 5331 C 502.78 -3.42434 -0.579314 0
M  V30 5332 C 501.734 -4.27499 0.20712 0
M  V30 5333 C 501.06 -5.29349 -0.754547 0
M  V30 5334 C 502.36 -5.02758 1.41533 0
M  V30 5335 H 504.054 -2.79418 1.07545 0
M  V30 5336 H 501.6 -1.34338 0.518593 0
M  V30 5337 H 503.553 -4.0976 -0.983612 0
M  V30 5338 H 502.277 -2.93717 -1.4282 0
M  V30 5339 H 500.936 -3.61776 0.592787 0
M  V30 5340 H 500.584 -4.76895 -1.59939 0
M  V30 5341 H 500.284 -5.8714 -0.232561 0
M  V30 5342 H 501.808 -5.99544 -1.1567 0
M  V30 5343 H 503.222 -5.62938 1.08504 0
M  V30 5344 H 501.619 -5.70123 1.87296 0
M  V30 5345 H 502.689 -4.32451 2.1935 0
M  V30 5346 N 504.032 -0.577932 -1.46621 0
M  V30 5347 C 504.962 0.145917 -2.33044 0
M  V30 5348 C 505.943 0.888412 -1.45056 0
M  V30 5349 O 507.128 0.864812 -1.73881 0
M  V30 5350 C 504.258 1.16322 -3.27241 0
M  V30 5351 C 503.212 0.535868 -4.24632 0
M  V30 5352 C 502.538 1.65929 -5.08303 0
M  V30 5353 C 503.838 -0.523861 -5.19666 0
M  V30 5354 H 505.532 -0.575636 -2.93814 0
M  V30 5355 H 503.078 -0.278272 -1.41286 0
M  V30 5356 H 505.031 1.67793 -3.86553 0
M  V30 5357 H 503.755 1.91498 -2.64567 0
M  V30 5358 H 502.414 0.0422759 -3.66576 0
M  V30 5359 H 502.062 2.40061 -4.42018 0
M  V30 5360 H 501.762 1.2452 -5.74255 0
M  V30 5361 H 503.286 2.17686 -5.70478 0
M  V30 5362 H 504.7 -0.0944059 -5.73222 0
M  V30 5363 H 503.097 -0.858 -5.93935 0
M  V30 5364 H 504.167 -1.41197 -4.63887 0
M  V30 5365 N 505.51 1.54411 -0.315457 0
M  V30 5366 C 506.759 1.99599 0.290395 0
M  V30 5367 C 507.072 1.20746 1.53882 0
M  V30 5368 O 508.278 1.56272 2.22017 0
M  V30 5369 C 506.734 3.5539 0.56797 0
M  V30 5370 C 506.342 4.43068 -0.662945 0
M  V30 5371 C 508.086 4.09067 1.13422 0
M  V30 5372 C 505.993 5.90317 -0.357722 0
M  V30 5373 H 504.923 0.745592 0.112286 0
M  V30 5374 H 507.574 1.78477 -0.426418 0
M  V30 5375 H 505.956 3.72468 1.34476 0
M  V30 5376 H 507.13 4.37765 -1.43869 0
M  V30 5377 H 505.445 4.00238 -1.14884 0
M  V30 5378 H 508.042 5.16663 1.37707 0
M  V30 5379 H 508.385 3.60552 2.08106 0
M  V30 5380 H 508.918 3.95589 0.418805 0
M  V30 5381 H 505.657 6.4301 -1.27351 0
M  V30 5382 H 505.177 5.98592 0.380472 0
M  V30 5383 H 506.856 6.4699 0.0354284 0
M  V30 5384 N 506.988 0.0434614 1.5754 0
M  V30 5385 C 508.236 -0.630786 1.92004 0
M  V30 5386 C 508.557 -1.71836 0.921807 0
M  V30 5387 O 507.827 -1.9587 -0.034522 0
M  V30 5388 H 506.407 -0.235988 0.708745 0
M  V30 5389 H 509.069 0.0946462 1.9467 0
M  V30 5390 H 508.165 -1.07434 2.93026 0
M  V30 5391 N 508.466 -1.55915 -0.229846 0
M  V30 5392 C 509.694 -1.82617 -0.972562 0
M  V30 5393 C 510.109 -0.621488 -1.78278 0
M  V30 5394 O 509.466 0.409956 -1.77836 0
M  V30 5395 C 509.517 -3.0774 -1.89679 0
M  V30 5396 O 509.238 -4.23559 -1.11934 0
M  V30 5397 C 510.739 -3.47368 -2.75409 0
M  V30 5398 H 507.959 -0.60727 -0.285419 0
M  V30 5399 H 510.503 -2.02996 -0.247579 0
M  V30 5400 H 508.658 -2.89361 -2.57583 0
M  V30 5401 H 509.072 -4.94586 -1.74599 0
M  V30 5402 H 510.546 -4.37977 -3.35977 0
M  V30 5403 H 511.023 -2.68737 -3.47386 0
M  V30 5404 H 511.629 -3.68158 -2.12931 0
M  V30 5405 N 509.944 0.496216 -1.49584 0
M  V30 5406 C 511.19 1.25189 -1.59548 0
M  V30 5407 C 511.523 1.9212 -0.283466 0
M  V30 5408 O 510.798 1.80947 0.713324 0
M  V30 5409 C 511.081 2.31516 -2.75812 0
M  V30 5410 C 510.934 1.69054 -4.16822 0
M  V30 5411 C 512.253 3.3304 -2.87702 0
M  V30 5412 H 509.372 0.45379 -0.580727 0
M  V30 5413 H 512.014 0.549327 -1.81886 0
M  V30 5414 H 510.164 2.91438 -2.56897 0
M  V30 5415 H 511.836 1.12923 -4.47265 0
M  V30 5416 H 510.079 0.994485 -4.22247 0
M  V30 5417 H 510.75 2.462 -4.94054 0
M  V30 5418 H 513.226 2.83114 -3.04936 0
M  V30 5419 H 512.102 4.04794 -3.7072 0
M  V30 5420 H 512.363 3.95655 -1.97255 0
M  V30 5421 N 511.423 1.38739 0.74761 0
M  V30 5422 C 512.67 1.35274 1.50689 0
M  V30 5423 C 512.998 -0.0553359 1.94421 0
M  V30 5424 O 512.253 -1.03365 1.66175 0
M  V30 5425 C 512.552 2.25992 2.7688 0
M  V30 5426 C 512.218 3.73854 2.5208 0
M  V30 5427 C 510.88 4.14145 2.45025 0
M  V30 5428 C 513.232 4.67427 2.30568 0
M  V30 5429 C 510.56 5.4609 2.14483 0
M  V30 5430 C 512.912 5.99635 2.01545 0
M  V30 5431 C 511.576 6.39004 1.92951 0
M  V30 5432 H 510.846 0.495003 0.55141 0
M  V30 5433 H 513.493 1.71145 0.859158 0
M  V30 5434 H 511.798 1.83196 3.46333 0
M  V30 5435 H 513.495 2.20611 3.34861 0
M  V30 5436 H 510.085 3.41913 2.58444 0
M  V30 5437 H 514.269 4.3714 2.34994 0
M  V30 5438 H 509.525 5.75528 2.06342 0
M  V30 5439 H 513.699 6.71678 1.83906 0
M  V30 5440 H 511.326 7.41165 1.6905 0
M  V30 5441 N 512.901 -0.976442 1.23707 0
M  V30 5442 C 513.851 -2.0544 0.988851 0
M  V30 5443 C 514.835 -1.60762 -0.0665901 0
M  V30 5444 O 516.027 -1.76396 0.14604 0
M  V30 5445 C 513.156 -3.38258 0.586223 0
M  V30 5446 C 512.242 -3.89523 1.67728 0
M  V30 5447 N 512.633 -4.13823 2.90834 0
M  V30 5448 C 510.931 -4.18097 1.55277 0
M  V30 5449 C 511.632 -4.55731 3.61502 0
M  V30 5450 N 510.608 -4.60394 2.8903 0
M  V30 5451 H 514.41 -2.22191 1.92376 0
M  V30 5452 H 511.924 -1.15954 1.13704 0
M  V30 5453 H 513.921 -4.15075 0.389658 0
M  V30 5454 H 512.581 -3.22898 -0.341594 0
M  V30 5455 H 513.592 -4.01529 3.271 0
M  V30 5456 H 510.269 -4.11719 0.692351 0
M  V30 5457 H 511.659 -4.83018 4.67059 0
M  V30 5458 N 514.379 -1.04941 -1.1758 0
M  V30 5459 C 515.326 -0.648155 -2.21512 0
M  V30 5460 C 516.296 0.348431 -1.62404 0
M  V30 5461 O 517.481 0.240419 -1.89279 0
M  V30 5462 C 514.621 -0.0264291 -3.4509 0
M  V30 5463 C 513.734 -1.07154 -4.185 0
M  V30 5464 C 512.869 -0.417403 -5.29558 0
M  V30 5465 C 511.908 -1.447 -5.94751 0
M  V30 5466 N 511.045 -0.817203 -6.97328 0
M  V30 5467 H 515.885 -1.53891 -2.55189 0
M  V30 5468 H 513.422 -0.769699 -1.25356 0
M  V30 5469 H 515.38 0.351456 -4.15717 0
M  V30 5470 H 514.01 0.827802 -3.12005 0
M  V30 5471 H 513.062 -1.56728 -3.46613 0
M  V30 5472 H 514.374 -1.8532 -4.63096 0
M  V30 5473 H 513.528 0.0142061 -6.06698 0
M  V30 5474 H 512.267 0.396265 -4.86087 0
M  V30 5475 H 511.272 -1.88865 -5.16343 0
M  V30 5476 H 512.497 -2.26252 -6.40302 0
M  V30 5477 H 510.443 -0.0239995 -6.55996 0
M  V30 5478 H 510.36 -1.53644 -7.40223 0
M  V30 5479 H 511.628 -0.410283 -7.7842 0
M  V30 5480 N 515.857 1.33968 -0.830081 0
M  V30 5481 C 516.82 2.27694 -0.26235 0
M  V30 5482 C 517.82 1.50589 0.563876 0
M  V30 5483 O 519.01 1.70028 0.378941 0
M  V30 5484 C 516.142 3.35002 0.63138 0
M  V30 5485 H 517.335 2.79419 -1.08928 0
M  V30 5486 H 514.888 1.44221 -0.602486 0
M  V30 5487 H 515.623 2.88504 1.48109 0
M  V30 5488 H 515.408 3.92079 0.0403276 0
M  V30 5489 H 516.898 4.04897 1.02217 0
M  V30 5490 N 517.335 0.585699 1.46312 0
M  V30 5491 C 518.265 -0.133556 2.33118 0
M  V30 5492 C 519.246 -0.880707 1.45525 0
M  V30 5493 O 520.431 -0.855579 1.74337 0
M  V30 5494 C 517.561 -1.14585 3.27853 0
M  V30 5495 C 516.515 -0.513341 4.2491 0
M  V30 5496 C 515.841 -1.63231 5.09175 0
M  V30 5497 C 517.141 0.551413 5.19381 0
M  V30 5498 H 518.835 0.59121 2.93505 0
M  V30 5499 H 516.381 0.285761 1.41136 0
M  V30 5500 H 518.334 -1.65741 3.87438 0
M  V30 5501 H 517.058 -1.90093 2.65579 0
M  V30 5502 H 515.717 -0.0228349 3.66593 0
M  V30 5503 H 515.365 -2.37713 4.43285 0
M  V30 5504 H 515.065 -1.21473 5.74907 0
M  V30 5505 H 516.589 -2.14658 5.71624 0
M  V30 5506 H 518.003 0.124804 5.73164 0
M  V30 5507 H 516.4 0.889486 5.93471 0
M  V30 5508 H 517.47 1.43655 4.63132 0
M  V30 5509 N 518.813 -1.54241 0.323641 0
M  V30 5510 C 520.043 -2.04687 -0.280464 0
M  V30 5511 C 520.451 -1.19939 -1.46326 0
M  V30 5512 O 519.794 -0.222872 -1.82343 0
M  V30 5513 C 519.856 -3.50978 -0.778123 0
M  V30 5514 C 519.52 -4.56127 0.282371 0
M  V30 5515 C 520.517 -5.07726 1.11847 0
M  V30 5516 C 518.202 -5.00451 0.430582 0
M  V30 5517 C 520.196 -6.02212 2.08851 0
M  V30 5518 C 517.883 -5.94752 1.40404 0
M  V30 5519 C 518.881 -6.45519 2.23147 0
M  V30 5520 O 518.569 -7.37968 3.1884 0
M  V30 5521 H 518.301 -0.673192 -0.0615473 0
M  V30 5522 H 520.855 -1.99999 0.467921 0
M  V30 5523 H 519.085 -3.53064 -1.57742 0
M  V30 5524 H 520.774 -3.84499 -1.30058 0
M  V30 5525 H 521.54 -4.74261 1.01496 0
M  V30 5526 H 517.419 -4.6055 -0.203569 0
M  V30 5527 H 520.963 -6.41761 2.73474 0
M  V30 5528 H 516.86 -6.27633 1.5082 0
M  V30 5529 H 517.628 -7.55841 3.14079 0
M  V30 5530 N 520.291 -0.0518155 -1.57515 0
M  V30 5531 C 521.531 0.625712 -1.94587 0
M  V30 5532 C 521.895 1.6797 -0.930053 0
M  V30 5533 O 523.096 2.41135 -1.18774 0
M  V30 5534 C 521.367 1.20574 -3.36447 0
M  V30 5535 S 522.926 1.90118 -3.95475 0
M  V30 5536 H 519.744 0.205434 -0.680675 0
M  V30 5537 H 522.346 -0.120906 -1.95126 0
M  V30 5538 H 521.05 0.426521 -4.08178 0
M  V30 5539 H 520.581 1.98916 -3.39405 0
M  V30 5540 H 522.596 3.18184 -3.80753 0
M  V30 5541 N 521.769 1.56035 0.221574 0
M  V30 5542 C 522.679 1.95581 1.29558 0
M  V30 5543 C 523.695 0.859639 1.51282 0
M  V30 5544 O 524.871 1.16321 1.64413 0
M  V30 5545 C 521.936 2.26447 2.62531 0
M  V30 5546 C 520.997 3.49632 2.4911 0
M  V30 5547 C 520.23 3.79017 3.75742 0
M  V30 5548 O 520.453 3.10077 4.78757 0
M  V30 5549 O 519.387 4.72507 3.72855 0
M  V30 5550 H 523.213 2.8711 0.990035 0
M  V30 5551 H 520.798 1.43244 0.424434 0
M  V30 5552 H 522.68 2.47494 3.41064 0
M  V30 5553 H 521.355 1.38092 2.92766 0
M  V30 5554 H 520.262 3.33864 1.68777 0
M  V30 5555 H 521.595 4.3837 2.23814 0
M  V30 5556 N 523.247 -0.488276 1.49845 0
M  V30 5557 C 524.177 -1.59675 1.70371 0
M  V30 5558 C 525.158 -1.60878 0.552473 0
M  V30 5559 O 526.343 -1.77417 0.78973 0
M  V30 5560 C 523.473 -2.98098 1.782 0
M  V30 5561 C 522.427 -3.11761 2.93239 0
M  V30 5562 C 521.753 -4.51661 2.86193 0
M  V30 5563 C 523.053 -2.90589 4.33999 0
M  V30 5564 H 524.747 -1.42752 2.63177 0
M  V30 5565 H 522.293 -0.685317 1.26647 0
M  V30 5566 H 524.246 -3.75555 1.91144 0
M  V30 5567 H 522.97 -3.16138 0.820018 0
M  V30 5568 H 521.629 -2.36732 2.79917 0
M  V30 5569 H 521.277 -4.66595 1.87877 0
M  V30 5570 H 520.977 -4.61742 3.63412 0
M  V30 5571 H 522.501 -5.31162 3.01163 0
M  V30 5572 H 523.915 -3.57807 4.47936 0
M  V30 5573 H 522.312 -3.1213 5.12538 0
M  V30 5574 H 523.382 -1.86595 4.4756 0
M  V30 5575 O 524.764 -1.48549 -0.633678 0
M  V30 5576 H 525.455 -1.447 -1.28769 0
M  V30 END ATOM
M  V30 BEGIN BOND
M  V30 END BOND
M  V30 END CTAB
M  END
$$$$
