drugbank_target|Q03403 Trefoil factor 2 (DB03088)
 OpenBabel12092120533D

  0  0  0     0  0            999 V3000
M  V30 BEGIN CTAB
M  V30 COUNTS 1925 1953 0 0 0
M  V30 BEGIN ATOM
M  V30 1 H -0.908 1.98254 -0.117106 0
M  V30 2 N 0 1.576 0 0
M  V30 3 C 0.933 2.03868 1.02534 0
M  V30 4 C 1.911 0.928543 1.3348 0
M  V30 5 O 3.095 1.19667 1.45644 0
M  V30 6 C 0.222 2.43627 2.35294 0
M  V30 7 C -0.732 3.65373 2.2001 0
M  V30 8 S 0.101 5.13292 1.52614 0
M  V30 9 C 1.257 5.56322 2.86805 0
M  V30 10 H 1.49 2.90518 0.631377 0
M  V30 11 H -0.977 1.52953 0.210867 0
M  V30 12 H 0.981 2.67203 3.11629 0
M  V30 13 H -0.358 1.57376 2.7183 0
M  V30 14 H -1.165 3.90944 3.18086 0
M  V30 15 H -1.563 3.418 1.51819 0
M  V30 16 H 0.729 5.58782 3.83104 0
M  V30 17 H 1.672 6.56266 2.65933 0
M  V30 18 H 2.08 4.83886 2.90714 0
M  V30 19 N 1.4781 -0.272755 1.55222 0
M  V30 20 C 2.7261 -1.00234 1.75492 0
M  V30 21 C 3.0471 -1.8681 0.5592 0
M  V30 22 O 2.3171 -1.91215 -0.425882 0
M  V30 23 H 0.8971 -0.373076 0.647166 0
M  V30 24 H 3.5591 -0.296926 1.92625 0
M  V30 25 H 2.6551 -1.63913 2.65592 0
M  V30 26 N 2.9562 -1.48159 -0.537278 0
M  V30 27 C 4.3722 -1.34118 -0.865129 0
M  V30 28 C 4.5722 -0.346678 -1.98495 0
M  V30 29 O 3.6282 0.234715 -2.51407 0
M  V30 30 C 4.9412 -2.73963 -1.23954 0
M  V30 31 C 6.4892 -2.82397 -1.34984 0
M  V30 32 C 6.9642 -4.22928 -1.75772 0
M  V30 33 N 8.4552 -4.25566 -1.82887 0
M  V30 34 C 9.1902 -5.31235 -2.15817 0
M  V30 35 N 8.6862 -6.47189 -2.47222 0
M  V30 36 N 10.4792 -5.18624 -2.16761 0
M  V30 37 H 2.6302 -2.1144 0.201715 0
M  V30 38 H 4.8932 -0.947598 0.0275949 0
M  V30 39 H 4.5992 -3.48264 -0.490381 0
M  V30 40 H 4.4732 -3.0702 -2.19132 0
M  V30 41 H 6.8602 -2.08356 -2.08978 0
M  V30 42 H 6.9412 -2.5297 -0.379448 0
M  V30 43 H 6.5852 -4.97482 -1.02341 0
M  V30 44 H 6.5152 -4.49794 -2.73848 0
M  V30 45 H 9.0062 -3.41924 -1.60924 0
M  V30 46 H 9.3192 -7.23564 -2.71433 0
M  V30 47 H 7.6642 -6.50476 -2.44757 0
M  V30 48 H 10.8552 -4.27056 -1.91679 0
M  V30 49 H 11.0282 -6.01078 -2.42093 0
M  V30 50 N 4.4343 0.785586 -1.36625 0
M  V30 51 C 5.8503 1.08419 -1.17122 0
M  V30 52 C 6.0503 2.015 0.00208491 0
M  V30 53 O 5.1063 2.43551 0.666278 0
M  V30 54 C 6.4193 1.69498 -2.48377 0
M  V30 55 C 7.9673 1.81821 -2.54775 0
M  V30 56 C 8.4423 2.46315 -3.86126 0
M  V30 57 N 9.9333 2.53779 -3.87492 0
M  V30 58 C 10.6683 3.045 -4.85868 0
M  V30 59 N 10.1643 3.55499 -5.94637 0
M  V30 60 N 11.9573 3.03247 -4.73284 0
M  V30 61 H 4.1083 0.167264 -2.1174 0
M  V30 62 H 6.3713 0.13682 -0.938075 0
M  V30 63 H 6.0773 1.08571 -3.34522 0
M  V30 64 H 5.9513 2.6896 -2.64462 0
M  V30 65 H 8.3383 2.41884 -1.69045 0
M  V30 66 H 8.4193 0.811532 -2.42586 0
M  V30 67 H 8.0633 1.86895 -4.72263 0
M  V30 68 H 7.9933 3.47561 -3.95612 0
M  V30 69 H 10.4843 2.17672 -3.08913 0
M  V30 70 H 10.7973 3.92562 -6.65669 0
M  V30 71 H 9.1423 3.5364 -5.98301 0
M  V30 72 H 12.3333 2.62696 -3.87438 0
M  V30 73 H 12.5063 3.42467 -5.50109 0
M  V30 74 N 5.9124 1.20967 1.01018 0
M  V30 75 C 7.1894 0.93264 1.71934 0
M  V30 76 C 7.5694 -0.55692 2.03621 0
M  V30 77 O 6.9174 -1.52035 1.7058 0
M  V30 78 C 7.1274 1.81233 2.98254 0
M  V30 79 C 8.4754 2.05804 3.71389 0
M  V30 80 O 9.4994 1.78539 3.08225 0
M  V30 81 O 8.3584 2.51888 4.84989 0
M  V30 82 H 5.4524 0.349272 0.749625 0
M  V30 83 H 7.9984 1.31871 1.06808 0
M  V30 84 H 6.7704 2.82067 2.71208 0
M  V30 85 H 6.3934 1.42674 3.7112 0
M  V30 86 N 7.3905 -1.2043 1.01659 0
M  V30 87 C 8.3535 -2.21433 0.591616 0
M  V30 88 C 9.3535 -1.57203 -0.338226 0
M  V30 89 O 10.5435 -1.73737 -0.126918 0
M  V30 90 C 7.6755 -3.40628 -0.136058 0
M  V30 91 H 8.8685 -2.60545 1.48514 0
M  V30 92 H 6.4215 -1.33893 0.806379 0
M  V30 93 H 7.1565 -3.07019 -1.04449 0
M  V30 94 H 6.9415 -3.88475 0.531917 0
M  V30 95 H 8.4315 -4.15475 -0.420735 0
M  V30 96 N 8.8686 -0.792821 -1.36206 0
M  V30 97 C 9.8006 -0.151469 -2.28699 0
M  V30 98 C 10.8136 0.641262 -1.49638 0
M  V30 99 O 12.0026 0.475885 -1.72039 0
M  V30 100 C 9.1026 0.808424 -3.29117 0
M  V30 101 C 8.2756 0.0650202 -4.37352 0
M  V30 102 C 7.3346 0.941358 -5.17711 0
M  V30 103 O 6.3606 0.397352 -5.67811 0
M  V30 104 N 7.5626 2.2652 -5.3448 0
M  V30 105 H 10.3276 -0.945982 -2.84379 0
M  V30 106 H 7.8886 -0.647032 -1.48409 0
M  V30 107 H 9.8806 1.3986 -3.79765 0
M  V30 108 H 8.4506 1.5038 -2.74052 0
M  V30 109 H 7.6706 -0.706255 -3.87822 0
M  V30 110 H 8.9586 -0.447847 -5.06825 0
M  V30 111 H 8.3566 2.73128 -4.95396 0
M  V30 112 H 6.9136 2.80493 -5.88359 0
M  V30 113 N 10.3467 1.47872 -0.545128 0
M  V30 114 C 11.2767 2.32661 0.197793 0
M  V30 115 C 12.2577 1.43041 0.920504 0
M  V30 116 O 13.4427 1.71912 0.90333 0
M  V30 117 C 10.5727 3.24569 1.23582 0
M  V30 118 C 9.5267 4.23333 0.630323 0
M  V30 119 C 8.8527 5.0448 1.77211 0
M  V30 120 C 10.1527 5.20704 -0.407974 0
M  V30 121 H 11.8467 2.95024 -0.510045 0
M  V30 122 H 9.3927 1.4187 -0.246731 0
M  V30 123 H 11.3457 3.8272 1.76362 0
M  V30 124 H 10.0697 2.60236 1.97344 0
M  V30 125 H 8.7287 3.6639 0.123922 0
M  V30 126 H 8.3767 4.36561 2.49847 0
M  V30 127 H 8.0767 5.71339 1.37281 0
M  V30 128 H 9.6007 5.65487 2.3034 0
M  V30 129 H 11.0147 5.7329 0.033305 0
M  V30 130 H 9.4117 5.95699 -0.725486 0
M  V30 131 H 10.4817 4.66917 -1.30828 0
M  V30 132 N 11.8248 0.280983 1.55075 0
M  V30 133 C 12.7548 -0.597469 2.25727 0
M  V30 134 C 13.7358 -1.15417 1.24952 0
M  V30 135 O 14.9208 -1.18722 1.53684 0
M  V30 136 C 12.0508 -1.7789 2.98283 0
M  V30 137 C 11.0048 -1.35347 4.06036 0
M  V30 138 C 10.3308 -2.61846 4.66198 0
M  V30 139 C 11.6308 -0.499354 5.19907 0
M  V30 140 H 13.3248 -0.00824265 2.99399 0
M  V30 141 H 10.8708 -0.0025244 1.44 0
M  V30 142 H 12.8238 -2.39937 3.46422 0
M  V30 143 H 11.5478 -2.39405 2.22155 0
M  V30 144 H 10.2068 -0.756156 3.58717 0
M  V30 145 H 9.8548 -3.21632 3.86732 0
M  V30 146 H 9.5548 -2.3409 5.38958 0
M  V30 147 H 11.0788 -3.24732 5.1709 0
M  V30 148 H 12.4928 -1.02498 5.64063 0
M  V30 149 H 10.8898 -0.316424 5.99265 0
M  V30 150 H 11.9598 0.480459 4.82514 0
M  V30 151 N 13.3029 -1.57598 0.00835791 0
M  V30 152 C 14.2659 -2.07884 -0.965242 0
M  V30 153 C 15.2659 -0.989825 -1.26725 0
M  V30 154 O 16.4559 -1.25218 -1.21104 0
M  V30 155 C 13.5879 -2.52731 -2.28779 0
M  V30 156 H 14.7809 -2.95178 -0.530112 0
M  V30 157 H 12.3339 -1.54458 -0.239283 0
M  V30 158 H 13.0689 -1.68705 -2.76964 0
M  V30 159 H 12.8539 -3.32272 -2.08177 0
M  V30 160 H 14.3439 -2.91933 -2.98605 0
M  V30 161 N 14.781 0.264519 -1.55364 0
M  V30 162 C 15.744 1.31046 -1.88042 0
M  V30 163 C 16.744 1.41943 -0.755569 0
M  V30 164 O 17.934 1.40947 -1.02369 0
M  V30 165 C 15.066 2.69067 -2.09323 0
M  V30 166 H 16.259 1.03297 -2.81549 0
M  V30 167 H 13.812 0.502989 -1.47986 0
M  V30 168 H 14.547 3.01982 -1.18226 0
M  V30 169 H 14.332 2.62542 -2.91229 0
M  V30 170 H 15.822 3.44623 -2.35848 0
M  V30 171 N 16.2591 1.48442 0.529413 0
M  V30 172 C 17.1891 1.65902 1.64313 0
M  V30 173 C 18.1701 0.507897 1.6234 0
M  V30 174 O 19.3551 0.740503 1.79528 0
M  V30 175 C 16.4851 1.69911 3.02898 0
M  V30 176 C 15.4391 2.8453 3.19729 0
M  V30 177 C 14.7651 2.73629 4.59381 0
M  V30 178 C 16.0651 4.25821 3.02447 0
M  V30 179 H 17.7591 2.5914 1.49955 0
M  V30 180 H 15.3051 1.24709 0.719982 0
M  V30 181 H 17.2581 1.80715 3.80684 0
M  V30 182 H 15.9821 0.732524 3.18279 0
M  V30 183 H 14.6411 2.73283 2.44361 0
M  V30 184 H 14.2891 1.74938 4.71599 0
M  V30 185 H 13.9891 3.50541 4.71588 0
M  V30 186 H 15.5131 2.86401 5.39265 0
M  V30 187 H 16.9271 4.37898 3.70024 0
M  V30 188 H 15.3241 5.03735 3.26146 0
M  V30 189 H 16.3941 4.42244 1.98867 0
M  V30 190 N 17.7372 -0.778329 1.37039 0
M  V30 191 C 18.6672 -1.90546 1.34962 0
M  V30 192 C 19.6482 -1.68681 0.219274 0
M  V30 193 O 20.8332 -1.89634 0.418624 0
M  V30 194 C 17.9632 -3.27734 1.14925 0
M  V30 195 C 16.9172 -3.64147 2.24902 0
M  V30 196 C 16.2432 -4.99806 1.89996 0
M  V30 197 C 17.5432 -3.71579 3.67051 0
M  V30 198 H 19.2372 -1.92541 2.29277 0
M  V30 199 H 16.7832 -0.924948 1.10366 0
M  V30 200 H 18.7362 -4.06215 1.12104 0
M  V30 201 H 17.4602 -3.26154 0.170631 0
M  V30 202 H 16.1192 -2.8797 2.26868 0
M  V30 203 H 15.7672 -4.94759 0.906796 0
M  V30 204 H 15.4672 -5.25139 2.63634 0
M  V30 205 H 16.9912 -5.80694 1.88749 0
M  V30 206 H 18.4052 -4.40227 3.67251 0
M  V30 207 H 16.8022 -4.08405 4.39688 0
M  V30 208 H 17.8722 -2.72404 4.01154 0
M  V30 209 N 19.2153 -1.21501 -1.00376 0
M  V30 210 C 20.4613 -1.03452 -1.74429 0
M  V30 211 C 20.7943 0.430764 -1.89362 0
M  V30 212 O 20.0693 1.31962 -1.42886 0
M  V30 213 C 20.3523 -1.73375 -3.15615 0
M  V30 214 C 20.2053 -3.27431 -3.08397 0
M  V30 215 C 21.5243 -1.47732 -4.14564 0
M  V30 216 H 18.6433 -0.377226 -0.633143 0
M  V30 217 H 21.2853 -1.49693 -1.17013 0
M  V30 218 H 19.4353 -1.34064 -3.64636 0
M  V30 219 H 21.1073 -3.76119 -2.67081 0
M  V30 220 H 19.3503 -3.5767 -2.45468 0
M  V30 221 H 20.0213 -3.71524 -4.08258 0
M  V30 222 H 22.4973 -1.8186 -3.74254 0
M  V30 223 H 21.3733 -1.99169 -5.11491 0
M  V30 224 H 21.6343 -0.407589 -4.40217 0
M  V30 225 N 20.6934 1.19889 -1.02296 0
M  V30 226 C 21.6234 2.25141 -0.619174 0
M  V30 227 C 22.6044 1.66051 0.368915 0
M  V30 228 O 23.7894 1.92546 0.252941 0
M  V30 229 C 20.9194 3.4728 0.0368783 0
M  V30 230 C 19.8734 4.19005 -0.872865 0
M  V30 231 C 19.1994 5.34637 -0.0822402 0
M  V30 232 C 20.4994 4.74452 -2.18387 0
M  V30 233 H 22.1934 2.59171 -1.49903 0
M  V30 234 H 19.7394 1.24579 -0.722222 0
M  V30 235 H 21.6924 4.20098 0.330958 0
M  V30 236 H 20.4164 3.12433 0.95149 0
M  V30 237 H 19.0754 3.48061 -1.15105 0
M  V30 238 H 18.7234 4.96034 0.83422 0
M  V30 239 H 18.4234 5.83557 -0.688149 0
M  V30 240 H 19.9474 6.10255 0.205238 0
M  V30 241 H 21.3614 5.39055 -1.95172 0
M  V30 242 H 19.7584 5.33834 -2.74119 0
M  V30 243 H 20.8284 3.92844 -2.84257 0
M  V30 244 N 22.1715 0.800033 1.35784 0
M  V30 245 C 23.4195 0.376597 1.9856 0
M  V30 246 C 23.7405 -1.05812 1.63795 0
M  V30 247 O 23.0105 -1.73103 0.917171 0
M  V30 248 H 21.5905 0.136261 0.734467 0
M  V30 249 H 24.2525 1.02442 1.65806 0
M  V30 250 H 23.3485 0.477002 3.08433 0
M  V30 251 N 23.6496 -1.47581 0.552962 0
M  V30 252 C 24.5796 -2.32762 -0.185451 0
M  V30 253 C 25.5606 -1.43527 -0.912905 0
M  V30 254 O 26.7456 -1.72388 -0.894201 0
M  V30 255 C 23.8756 -3.25219 -1.21859 0
M  V30 256 C 22.8296 -4.23661 -0.607864 0
M  V30 257 C 22.1556 -5.05413 -1.74533 0
M  V30 258 C 23.4556 -5.20481 0.435582 0
M  V30 259 H 25.1496 -2.94749 0.525684 0
M  V30 260 H 22.6956 -1.41738 0.254251 0
M  V30 261 H 24.6486 -3.8365 -1.7433 0
M  V30 262 H 23.3726 -2.61279 -1.95961 0
M  V30 263 H 22.0316 -3.66451 -0.104489 0
M  V30 264 H 21.6796 -4.3788 -2.47529 0
M  V30 265 H 21.3796 -5.72059 -1.34249 0
M  V30 266 H 22.9036 -5.66701 -2.27338 0
M  V30 267 H 24.3176 -5.733 -0.00290157 0
M  V30 268 H 22.7146 -5.95305 0.757067 0
M  V30 269 H 23.7846 -4.66217 1.33303 0
M  V30 270 N 25.1277 -0.289203 -1.54924 0
M  V30 271 C 26.3677 0.324536 -2.01807 0
M  V30 272 C 26.7317 1.5199 -1.17316 0
M  V30 273 O 27.9327 2.20422 -1.53843 0
M  V30 274 C 26.2037 0.683578 -3.50802 0
M  V30 275 S 27.7627 1.28185 -4.19659 0
M  V30 276 H 24.5807 0.100236 -0.703899 0
M  V30 277 H 27.1827 -0.414325 -1.91059 0
M  V30 278 H 25.8867 -0.195073 -4.09936 0
M  V30 279 H 25.4177 1.45354 -3.65562 0
M  V30 280 H 27.4327 2.57006 -4.24456 0
M  V30 281 N 26.6058 1.57591 -0.0167156 0
M  V30 282 C 27.5688 2.08393 0.954204 0
M  V30 283 C 28.5688 0.996531 1.26198 0
M  V30 284 O 29.7588 1.25858 1.20438 0
M  V30 285 C 26.8908 2.5394 2.27436 0
M  V30 286 H 28.0838 2.95455 0.514451 0
M  V30 287 H 25.6368 1.54582 0.231089 0
M  V30 288 H 26.3718 1.70171 2.76066 0
M  V30 289 H 26.1568 3.33371 2.06412 0
M  V30 290 H 27.6468 2.93512 2.97053 0
M  V30 291 N 28.0839 -0.256276 1.55502 0
M  V30 292 C 29.0139 -1.32102 1.92539 0
M  V30 293 C 29.9949 -1.50684 0.789194 0
M  V30 294 O 31.1799 -1.63449 1.04872 0
M  V30 295 C 28.3099 -2.67752 2.21192 0
M  V30 296 C 27.2639 -2.63878 3.36975 0
M  V30 297 C 26.5899 -4.03236 3.51147 0
M  V30 298 C 27.8899 -2.21682 4.72921 0
M  V30 299 H 29.5839 -1.01351 2.81724 0
M  V30 300 H 27.1299 -0.486105 1.35547 0
M  V30 301 H 29.0829 -3.42365 2.45691 0
M  V30 302 H 27.8069 -3.0012 1.28824 0
M  V30 303 H 26.4659 -1.91722 3.12471 0
M  V30 304 H 26.1139 -4.32854 2.56216 0
M  V30 305 H 25.8139 -4.01535 4.29003 0
M  V30 306 H 27.3379 -4.79563 3.77957 0
M  V30 307 H 28.7519 -2.86023 4.96854 0
M  V30 308 H 27.1489 -2.3111 5.53812 0
M  V30 309 H 28.2189 -1.16833 4.70615 0
M  V30 310 N 29.562 -1.4872 -0.521534 0
M  V30 311 C 30.525 -1.63379 -1.60748 0
M  V30 312 C 31.525 -0.50661 -1.52611 0
M  V30 313 O 32.715 -0.772601 -1.5613 0
M  V30 314 C 29.847 -1.61192 -3.00383 0
M  V30 315 H 31.04 -2.60217 -1.49087 0
M  V30 316 H 28.593 -1.37444 -0.744235 0
M  V30 317 H 29.328 -0.65863 -3.17541 0
M  V30 318 H 29.113 -2.43032 -3.07698 0
M  V30 319 H 30.603 -1.7466 -3.7932 0
M  V30 320 N 31.0401 0.771051 -1.3745 0
M  V30 321 C 32.2881 1.52661 -1.32435 0
M  V30 322 C 32.6091 1.9479 0.0905024 0
M  V30 323 O 31.8791 1.66348 1.03466 0
M  V30 324 H 30.4591 0.566218 -0.487244 0
M  V30 325 H 33.1211 0.917636 -1.71946 0
M  V30 326 H 32.2171 2.42568 -1.96385 0
M  V30 327 N 32.5182 1.22032 0.997298 0
M  V30 328 C 33.7432 1.06921 1.77715 0
M  V30 329 C 34.1682 -0.376226 1.84299 0
M  V30 330 O 33.5262 -1.27165 1.29223 0
M  V30 331 C 33.5742 1.67996 3.19076 0
M  V30 332 O 32.6782 0.930653 4.01762 0
M  V30 333 H 32.0192 0.375814 0.547412 0
M  V30 334 H 34.5492 1.61737 1.25309 0
M  V30 335 H 34.5592 1.72538 3.69723 0
M  V30 336 H 33.2342 2.73182 3.13599 0
M  V30 337 H 31.8112 0.960917 3.60307 0
M  V30 338 N 33.9963 -1.19345 1.0293 0
M  V30 339 C 34.9063 -2.26245 0.620515 0
M  V30 340 C 35.9223 -1.70486 -0.347928 0
M  V30 341 O 37.0983 -2.00347 -0.205704 0
M  V30 342 C 34.1633 -3.46693 -0.0218957 0
M  V30 343 C 33.2243 -4.17632 0.994102 0
M  V30 344 C 32.4573 -5.32329 0.382253 0
M  V30 345 O 32.6803 -5.64552 -0.814676 0
M  V30 346 O 31.6143 -5.91664 1.10531 0
M  V30 347 H 35.4403 -2.63453 1.51083 0
M  V30 348 H 33.0253 -1.26207 0.799513 0
M  V30 349 H 34.9073 -4.19683 -0.380072 0
M  V30 350 H 33.5823 -3.11333 -0.886209 0
M  V30 351 H 32.4893 -3.4676 1.40387 0
M  V30 352 H 33.8223 -4.56964 1.8288 0
M  V30 353 N 35.4744 -0.807222 -1.35358 0
M  V30 354 C 36.4214 -0.216037 -2.29787 0
M  V30 355 C 37.3914 0.650278 -1.52842 0
M  V30 356 O 38.5764 0.595227 -1.81278 0
M  V30 357 C 35.7164 0.628893 -3.39321 0
M  V30 358 C 34.8294 -0.257927 -4.31229 0
M  V30 359 C 33.9644 0.595069 -5.27856 0
M  V30 360 C 33.0034 -0.292111 -6.11403 0
M  V30 361 N 32.1404 0.520895 -7.00165 0
M  V30 362 H 36.9804 -1.02671 -2.79755 0
M  V30 363 H 34.5174 -0.517839 -1.37684 0
M  V30 364 H 36.4754 1.13393 -4.01494 0
M  V30 365 H 35.1054 1.40482 -2.90628 0
M  V30 366 H 34.1574 -0.881076 -3.70056 0
M  V30 367 H 35.4694 -0.940759 -4.89848 0
M  V30 368 H 34.6234 1.16522 -5.95405 0
M  V30 369 H 33.3624 1.31146 -4.69736 0
M  V30 370 H 32.3674 -0.874525 -5.428 0
M  V30 371 H 33.5924 -1.00638 -6.71602 0
M  V30 372 H 31.5384 1.22125 -6.44532 0
M  V30 373 H 31.4554 -0.103877 -7.55929 0
M  V30 374 H 32.7234 1.0743 -7.72062 0
M  V30 375 N 36.9525 1.47285 -0.560781 0
M  V30 376 C 38.3635 1.86258 -0.128343 0
M  V30 377 C 38.7145 1.46699 1.30284 0
M  V30 378 O 37.8395 0.871698 1.98067 0
M  V30 379 C 38.4345 3.38044 -0.22614 0
M  V30 380 C 36.9935 3.76096 0.151283 0
M  V30 381 C 36.1405 2.71335 -0.572084 0
M  V30 382 H 39.0915 1.38752 -0.770297 0
M  V30 383 H 39.1125 3.76441 0.554322 0
M  V30 384 H 38.6245 3.66806 -1.26788 0
M  V30 385 H 36.7255 3.52951 1.19399 0
M  V30 386 H 36.8385 4.78641 -0.209765 0
M  V30 387 H 35.2025 2.54696 -0.0147653 0
M  V30 388 H 35.9855 3.02938 -1.61504 0
M  V30 389 N 38.4306 0.297415 1.54768 0
M  V30 390 C 39.6556 -0.318435 2.04941 0
M  V30 391 C 40.0806 -1.4701 1.17345 0
M  V30 392 O 39.4386 -1.80436 0.176758 0
M  V30 393 C 39.4866 -0.755749 3.52592 0
M  V30 394 O 38.5906 -1.86088 3.68028 0
M  V30 395 H 37.9316 -0.062421 0.661059 0
M  V30 396 H 40.4616 0.438215 1.99852 0
M  V30 397 H 40.4716 -1.04552 3.94376 0
M  V30 398 H 39.1466 0.0867233 4.1581 0
M  V30 399 H 37.7236 -1.57193 3.38149 0
M  V30 400 N 39.9087 -1.5758 0.0250728 0
M  V30 401 C 41.3197 -1.79476 -0.514323 0
M  V30 402 C 41.6707 -0.934956 -1.72491 0
M  V30 403 O 40.7957 -0.144245 -2.15919 0
M  V30 404 C 41.3907 -3.25503 -0.939842 0
M  V30 405 C 39.9497 -3.48408 -1.42438 0
M  V30 406 C 39.0967 -2.74583 -0.387201 0
M  V30 407 H 42.0477 -1.567 0.25113 0
M  V30 408 H 42.0687 -3.34992 -1.80445 0
M  V30 409 H 41.5807 -3.88056 -0.0585628 0
M  V30 410 H 39.6817 -2.91103 -2.32572 0
M  V30 411 H 39.7947 -4.57119 -1.43455 0
M  V30 412 H 38.1587 -2.39942 -0.854409 0
M  V30 413 H 38.9417 -3.39849 0.485543 0
M  V30 414 N 41.3868 0.248026 -1.55636 0
M  V30 415 C 42.6268 0.983592 -1.79178 0
M  V30 416 C 42.9908 1.82567 -0.594414 0
M  V30 417 O 44.1918 2.59292 -0.708583 0
M  V30 418 C 42.4628 1.82228 -3.07454 0
M  V30 419 S 44.0218 2.61709 -3.52213 0
M  V30 420 H 40.8398 0.330866 -0.629324 0
M  V30 421 H 43.4418 0.251562 -1.93875 0
M  V30 422 H 42.1458 1.19333 -3.92668 0
M  V30 423 H 41.6768 2.59708 -2.95492 0
M  V30 424 H 43.6918 3.84655 -3.13457 0
M  V30 425 N 42.8649 1.48995 0.513639 0
M  V30 426 C 43.7969 1.60836 1.63293 0
M  V30 427 C 44.8099 0.491701 1.55197 0
M  V30 428 O 45.9989 0.763238 1.6136 0
M  V30 429 C 43.0989 1.53731 3.02027 0
M  V30 430 C 42.2719 2.80715 3.35437 0
M  V30 431 C 41.3309 2.66837 4.53525 0
M  V30 432 O 40.3569 3.40753 4.55934 0
M  V30 433 N 41.5589 1.77539 5.52684 0
M  V30 434 H 44.3239 2.57366 1.53566 0
M  V30 435 H 41.8849 1.45925 0.701259 0
M  V30 436 H 43.8769 1.42118 3.78926 0
M  V30 437 H 42.4469 0.651092 3.05744 0
M  V30 438 H 41.6669 3.06772 2.47557 0
M  V30 439 H 42.9549 3.64927 3.54551 0
M  V30 440 H 42.3529 1.16719 5.53528 0
M  V30 441 H 40.9099 1.71856 6.28736 0
M  V30 442 N 44.343 -0.763751 1.37857 0
M  V30 443 C 45.583 -1.53551 1.34913 0
M  V30 444 C 45.947 -1.91895 -0.0635882 0
M  V30 445 O 47.148 -2.67916 -0.217825 0
M  V30 446 C 45.419 -2.76126 2.26912 0
M  V30 447 S 46.978 -3.66105 2.41893 0
M  V30 448 H 43.796 -0.52559 0.478828 0
M  V30 449 H 46.398 -0.897435 1.73685 0
M  V30 450 H 45.102 -2.4605 3.28463 0
M  V30 451 H 44.633 -3.44887 1.89253 0
M  V30 452 H 46.648 -4.68473 1.63545 0
M  V30 453 N 45.8211 -1.22559 -0.990812 0
M  V30 454 C 47.0461 -1.07862 -1.77145 0
M  V30 455 C 47.4711 0.366447 -1.84496 0
M  V30 456 O 46.8291 1.26478 -1.29896 0
M  V30 457 C 46.8771 -1.69686 -3.18181 0
M  V30 458 O 45.9811 -0.951946 -4.01263 0
M  V30 459 H 45.3221 -0.378712 -0.545411 0
M  V30 460 H 47.8521 -1.62399 -1.2445 0
M  V30 461 H 47.8621 -1.74496 -3.68802 0
M  V30 462 H 46.5371 -2.74841 -3.12146 0
M  V30 463 H 45.1141 -0.980011 -3.59792 0
M  V30 464 N 47.2992 1.18797 -1.03562 0
M  V30 465 C 48.7152 1.40671 -0.753917 0
M  V30 466 C 48.9152 1.9043 0.658686 0
M  V30 467 O 47.9712 2.08538 1.42366 0
M  V30 468 C 49.2842 2.41192 -1.79574 0
M  V30 469 C 50.8322 2.54928 -1.81606 0
M  V30 470 C 51.3072 3.58709 -2.84766 0
M  V30 471 N 52.7982 3.66212 -2.83625 0
M  V30 472 C 53.5332 4.46225 -3.60098 0
M  V30 473 N 53.0292 5.29888 -4.46308 0
M  V30 474 N 54.8222 4.40939 -3.4861 0
M  V30 475 H 46.9732 0.848221 -1.94728 0
M  V30 476 H 49.2362 0.435081 -0.842264 0
M  V30 477 H 48.9422 2.11669 -2.80872 0
M  V30 478 H 48.8162 3.40467 -1.62365 0
M  V30 479 H 51.2032 2.83771 -0.809817 0
M  V30 480 H 51.2842 1.55784 -2.02891 0
M  V30 481 H 50.9282 3.30607 -3.85566 0
M  V30 482 H 50.8582 4.57519 -2.60737 0
M  V30 483 H 53.3492 3.06466 -2.21105 0
M  V30 484 H 53.6622 5.88078 -5.01382 0
M  V30 485 H 52.0072 5.29326 -4.50377 0
M  V30 486 H 55.1982 3.74624 -2.80668 0
M  V30 487 H 55.3712 5.03056 -4.08459 0
M  V30 488 N 48.7773 0.814389 1.34928 0
M  V30 489 C 49.7073 0.244827 2.32213 0
M  V30 490 C 50.6883 -0.634024 1.57842 0
M  V30 491 O 51.8733 -0.562676 1.8587 0
M  V30 492 C 49.0033 -0.601106 3.42058 0
M  V30 493 C 47.9573 0.179896 4.27622 0
M  V30 494 C 47.2833 -0.788237 5.28858 0
M  V30 495 C 48.5833 1.38329 5.03649 0
M  V30 496 H 50.2773 1.05763 2.80097 0
M  V30 497 H 47.8233 0.510029 1.34665 0
M  V30 498 H 49.7763 -1.00968 4.09125 0
M  V30 499 H 48.5003 -1.44688 2.92802 0
M  V30 500 H 47.1593 0.569739 3.62146 0
M  V30 501 H 46.8073 -1.62973 4.75866 0
M  V30 502 H 46.5073 -0.269942 5.8698 0
M  V30 503 H 48.0313 -1.19485 5.98795 0
M  V30 504 H 49.4453 1.04918 5.63618 0
M  V30 505 H 47.8423 1.83662 5.71304 0
M  V30 506 H 48.9123 2.16592 4.33839 0
M  V30 507 N 50.2554 -1.46986 0.568584 0
M  V30 508 C 51.4804 -2.07335 0.0520528 0
M  V30 509 C 51.9054 -1.41675 -1.23733 0
M  V30 510 O 51.2634 -0.495623 -1.74394 0
M  V30 511 C 51.3114 -3.60417 -0.11501 0
M  V30 512 O 50.4154 -3.95309 -1.17492 0
M  V30 513 H 49.7564 -0.661597 0.0564385 0
M  V30 514 H 52.2864 -1.88837 0.787507 0
M  V30 515 H 52.2964 -4.06698 -0.325644 0
M  V30 516 H 50.9714 -4.07601 0.826675 0
M  V30 517 H 49.5484 -3.60757 -0.943869 0
M  V30 518 N 51.7335 -0.305618 -1.54608 0
M  V30 519 C 53.1445 0.186098 -1.8577 0
M  V30 520 C 53.4955 1.53058 -1.22751 0
M  V30 521 O 52.6205 2.09888 -0.526893 0
M  V30 522 C 53.2155 0.344449 -3.37044 0
M  V30 523 C 51.7745 0.780384 -3.68221 0
M  V30 524 C 50.9215 -0.108554 -2.77087 0
M  V30 525 H 53.8725 -0.526485 -1.49712 0
M  V30 526 H 53.8935 1.17828 -3.61796 0
M  V30 527 H 53.4055 -0.634235 -3.82883 0
M  V30 528 H 51.5065 1.76945 -3.27904 0
M  V30 529 H 51.6195 0.596572 -4.75371 0
M  V30 530 H 49.9835 0.412931 -2.5133 0
M  V30 531 H 50.7665 -1.08368 -3.25747 0
M  V30 532 N 53.2116 1.57565 -0.0334293 0
M  V30 533 C 54.1616 2.06978 0.956237 0
M  V30 534 C 55.1456 0.971193 1.28283 0
M  V30 535 O 56.3376 1.23471 1.26822 0
M  V30 536 C 53.4666 2.60393 2.23719 0
M  V30 537 C 52.5526 3.7719 1.93877 0
M  V30 538 N 52.9436 4.87639 1.34321 0
M  V30 539 C 51.2416 3.85758 2.23845 0
M  V30 540 C 51.9426 5.68825 1.21709 0
M  V30 541 N 50.9186 5.1587 1.71404 0
M  V30 542 H 54.7206 2.89773 0.490815 0
M  V30 543 H 52.2346 1.61492 0.171478 0
M  V30 544 H 54.2316 2.94088 2.95496 0
M  V30 545 H 52.8916 1.79031 2.70884 0
M  V30 546 H 53.9026 5.07803 1.01767 0
M  V30 547 H 50.5796 3.1531 2.73653 0
M  V30 548 H 51.9696 6.67631 0.75621 0
M  V30 549 N 54.6897 -0.239769 1.55765 0
M  V30 550 C 55.6377 -1.31668 1.91745 0
M  V30 551 C 56.6317 -1.49462 0.797338 0
M  V30 552 O 57.8377 -1.50852 0.982021 0
M  V30 553 H 54.2127 -0.441048 0.609082 0
M  V30 554 H 56.1837 -0.985923 2.81642 0
M  V30 555 C 54.9327 -2.66368 2.2348 0
M  V30 556 H 54.2557 -2.53478 3.09175 0
M  V30 557 H 55.6957 -3.40578 2.52553 0
M  V30 558 C 54.1547 -3.20002 1.05359 0
M  V30 559 O 54.6847 -4.00538 0.305261 0
M  V30 560 N 52.8907 -2.78126 0.842292 0
M  V30 561 H 52.4377 -2.12742 1.45253 0
M  V30 562 H 52.3957 -3.14354 0.053652 0
M  V30 563 N 56.1678 -1.49265 -0.50573 0
M  V30 564 C 57.5838 -1.35923 -0.836486 0
M  V30 565 C 57.7838 -0.388704 -1.97715 0
M  V30 566 O 56.8398 0.181336 -2.51848 0
M  V30 567 C 58.1528 -2.76531 -1.18115 0
M  V30 568 C 59.7008 -2.85197 -1.28964 0
M  V30 569 C 60.1758 -4.26561 -1.66761 0
M  V30 570 N 61.6668 -4.2935 -1.73819 0
M  V30 571 C 62.4018 -5.35693 -2.045 0
M  V30 572 N 61.8978 -6.52287 -2.33438 0
M  V30 573 N 63.6908 -5.23105 -2.05711 0
M  V30 574 H 55.8418 -2.10965 0.246519 0
M  V30 575 H 58.1048 -0.9468 0.0476887 0
M  V30 576 H 57.8108 -3.49226 -0.416398 0
M  V30 577 H 57.6848 -3.11599 -2.1257 0
M  V30 578 H 60.0718 -2.12742 -2.04511 0
M  V30 579 H 60.1528 -2.53718 -0.325704 0
M  V30 580 H 59.7968 -4.99541 -0.917656 0
M  V30 581 H 59.7268 -4.55502 -2.64246 0
M  V30 582 H 62.2178 -3.4526 -1.53635 0
M  V30 583 H 62.5308 -7.29158 -2.56024 0
M  V30 584 H 60.8758 -6.55521 -2.30905 0
M  V30 585 H 64.0668 -4.31026 -1.82577 0
M  V30 586 H 64.2398 -6.06078 -2.29289 0
M  V30 587 N 57.6459 0.756429 -1.3826 0
M  V30 588 C 58.8739 1.54565 -1.3754 0
M  V30 589 C 59.2889 1.88767 0.0355331 0
M  V30 590 O 58.6459 1.52572 1.0014 0
M  V30 591 C 58.6969 2.84654 -2.22833 0
M  V30 592 O 58.4179 2.51912 -3.5843 0
M  V30 593 C 59.9189 3.78807 -2.30261 0
M  V30 594 H 57.1389 0.478353 -0.470553 0
M  V30 595 H 59.6829 0.936381 -1.81803 0
M  V30 596 H 57.8379 3.41965 -1.8204 0
M  V30 597 H 58.2519 3.35325 -4.03308 0
M  V30 598 H 59.7259 4.67045 -2.94233 0
M  V30 599 H 60.2029 4.19038 -1.31545 0
M  V30 600 H 60.8089 3.2742 -2.71433 0
M  V30 601 N 59.124 1.23083 0.984299 0
M  V30 602 C 60.072 1.00593 2.09723 0
M  V30 603 C 61.066 -0.0538014 1.69315 0
M  V30 604 O 62.272 0.0993719 1.79725 0
M  V30 605 H 58.647 0.30817 0.685956 0
M  V30 606 H 60.618 1.95012 2.2586 0
M  V30 607 C 59.367 0.609601 3.42314 0
M  V30 608 H 58.69 1.41675 3.73856 0
M  V30 609 H 60.13 0.491726 4.21139 0
M  V30 610 C 58.589 -0.681745 3.2993 0
M  V30 611 O 59.119 -1.73192 3.62446 0
M  V30 612 N 57.325 -0.656178 2.83095 0
M  V30 613 H 56.872 0.198759 2.56832 0
M  V30 614 H 56.83 -1.52044 2.75191 0
M  V30 615 N 60.6021 -1.18246 1.0419 0
M  V30 616 C 61.8421 -1.89948 0.754916 0
M  V30 617 C 62.2061 -1.78608 -0.70451 0
M  V30 618 O 63.4071 -2.4503 -1.10516 0
M  V30 619 C 61.6781 -3.36305 1.20969 0
M  V30 620 S 63.2371 -4.26088 1.04854 0
M  V30 621 H 60.0551 -0.655897 0.274446 0
M  V30 622 H 62.6571 -1.42873 1.33445 0
M  V30 623 H 61.3611 -3.42089 2.26722 0
M  V30 624 H 60.8921 -3.8842 0.624004 0
M  V30 625 H 62.9071 -4.96189 -0.0332896 0
M  V30 626 N 62.0802 -0.821533 -1.34494 0
M  V30 627 C 63.3282 -0.408139 -1.97936 0
M  V30 628 C 63.6492 1.03193 -1.65457 0
M  V30 629 O 62.9192 1.71622 -0.944595 0
M  V30 630 H 61.4992 -0.147928 -0.732206 0
M  V30 631 H 64.1612 -1.05067 -1.64155 0
M  V30 632 H 63.2572 -0.52601 -3.07635 0
M  V30 633 N 63.5583 1.46682 -0.576371 0
M  V30 634 C 64.8053 2.02412 -0.0595339 0
M  V30 635 C 65.1333 1.44859 1.29793 0
M  V30 636 O 64.3883 0.601099 1.8624 0
M  V30 637 C 64.6873 3.57345 0.062886 0
M  V30 638 C 64.3533 4.33908 -1.22616 0
M  V30 639 C 63.0153 4.54544 -1.57933 0
M  V30 640 C 65.3673 4.77919 -2.07948 0
M  V30 641 C 62.6953 5.16444 -2.78393 0
M  V30 642 C 65.0473 5.41149 -3.27629 0
M  V30 643 C 63.7113 5.60014 -3.63236 0
M  V30 644 H 62.9813 0.74068 -0.021785 0
M  V30 645 H 65.6283 1.76128 -0.751735 0
M  V30 646 H 63.9333 3.82729 0.838178 0
M  V30 647 H 65.6303 3.98136 0.478439 0
M  V30 648 H 62.2203 4.18138 -0.941202 0
M  V30 649 H 66.4043 4.61738 -1.81967 0
M  V30 650 H 61.6603 5.29242 -3.06126 0
M  V30 651 H 65.8343 5.74211 -3.94023 0
M  V30 652 H 63.4613 6.07748 -4.56669 0
M  V30 653 N 65.0364 0.313813 1.54444 0
M  V30 654 C 66.4474 -0.176243 1.85866 0
M  V30 655 C 66.7984 -1.52405 1.23561 0
M  V30 656 O 65.9234 -2.09605 0.538016 0
M  V30 657 C 66.5184 -0.32657 3.37222 0
M  V30 658 C 65.0774 -0.760846 3.6863 0
M  V30 659 C 64.2244 0.123247 2.77026 0
M  V30 660 H 67.1754 0.534418 1.49431 0
M  V30 661 H 67.1964 -1.15908 3.62416 0
M  V30 662 H 66.7084 0.654531 3.82541 0
M  V30 663 H 64.8094 -1.75204 3.28838 0
M  V30 664 H 64.9224 -0.571353 4.75681 0
M  V30 665 H 63.2864 -0.399597 2.51546 0
M  V30 666 H 64.0694 1.10094 3.25168 0
M  V30 667 N 66.5145 -1.57545 0.0417849 0
M  V30 668 C 67.7625 -1.91937 -0.632829 0
M  V30 669 C 68.0835 -0.919978 -1.71934 0
M  V30 670 O 67.3535 0.0366064 -1.95866 0
M  V30 671 H 65.9335 -0.708493 -0.236742 0
M  V30 672 H 68.5955 -1.9468 0.0925745 0
M  V30 673 H 67.6915 -2.92912 -1.07746 0
M  V30 674 N 67.9926 0.231505 -1.5589 0
M  V30 675 C 69.2416 0.955346 -1.7764 0
M  V30 676 C 69.5546 1.85893 -0.608546 0
M  V30 677 O 70.7606 2.62067 -0.70943 0
M  V30 678 C 69.2166 1.74886 -3.14552 0
M  V30 679 C 68.8246 0.891915 -4.39032 0
M  V30 680 C 70.5686 2.46452 -3.45633 0
M  V30 681 C 68.4756 1.68221 -5.66971 0
M  V30 682 H 67.4056 0.360446 -0.662265 0
M  V30 683 H 70.0566 0.209516 -1.823 0
M  V30 684 H 68.4386 2.53723 -3.04041 0
M  V30 685 H 69.6126 0.144793 -4.60572 0
M  V30 686 H 67.9276 0.288863 -4.15397 0
M  V30 687 H 70.5246 3.06061 -4.38441 0
M  V30 688 H 70.8676 3.18841 -2.67668 0
M  V30 689 H 71.4006 1.74613 -3.57428 0
M  V30 690 H 68.1396 1.00178 -6.478 0
M  V30 691 H 67.6596 2.4042 -5.49507 0
M  V30 692 H 69.3386 2.24544 -6.06786 0
M  V30 693 N 69.4707 1.49531 0.497807 0
M  V30 694 C 70.6987 1.62893 1.27567 0
M  V30 695 C 71.1137 0.301585 1.86376 0
M  V30 696 O 70.4707 -0.713335 1.67982 0
M  V30 697 C 70.5217 2.70013 2.40364 0
M  V30 698 O 70.2427 3.976 1.83972 0
M  V30 699 C 71.7437 2.94109 3.31685 0
M  V30 700 H 68.9637 0.548298 0.386794 0
M  V30 701 H 71.5077 1.95584 0.597245 0
M  V30 702 H 69.6627 2.40092 3.04031 0
M  V30 703 H 70.0767 4.56631 2.58047 0
M  V30 704 H 71.5507 3.72788 4.07104 0
M  V30 705 H 72.0277 2.04147 3.88871 0
M  V30 706 H 72.6337 3.2546 2.73781 0
M  V30 707 N 70.9488 -0.749086 1.3866 0
M  V30 708 C 72.1738 -1.54344 1.38538 0
M  V30 709 C 72.5988 -1.88088 -0.0216655 0
M  V30 710 O 71.9568 -1.50899 -1.00494 0
M  V30 711 C 72.0048 -2.8164 2.25192 0
M  V30 712 O 71.1088 -3.7698 1.67212 0
M  V30 713 H 70.4498 -0.466654 0.472367 0
M  V30 714 H 72.9798 -0.925355 1.82478 0
M  V30 715 H 72.9898 -3.30519 2.3921 0
M  V30 716 H 71.6648 -2.56411 3.27454 0
M  V30 717 H 70.2418 -3.35699 1.6236 0
M  V30 718 N 72.4269 -1.23603 -0.977757 0
M  V30 719 C 73.7039 -0.977897 -1.69401 0
M  V30 720 C 74.0839 0.502738 -2.05026 0
M  V30 721 O 73.4319 1.47459 -1.74551 0
M  V30 722 C 73.6419 -1.89077 -2.93345 0
M  V30 723 C 74.9899 -2.15579 -3.65802 0
M  V30 724 O 76.0139 -1.86648 -3.03383 0
M  V30 725 O 74.8729 -2.64658 -4.78141 0
M  V30 726 H 71.9669 -0.369025 -0.740101 0
M  V30 727 H 74.5129 -1.34657 -1.03274 0
M  V30 728 H 73.2849 -2.89158 -2.63634 0
M  V30 729 H 72.9079 -1.52463 -3.67207 0
M  V30 730 N 73.905 1.17692 -1.04816 0
M  V30 731 C 74.837 2.21103 -0.603822 0
M  V30 732 C 75.85 1.59411 0.33046 0
M  V30 733 O 77.039 1.7807 0.12379 0
M  V30 734 C 74.139 3.38623 0.136898 0
M  V30 735 C 73.312 4.29888 -0.807137 0
M  V30 736 C 72.371 5.26088 -0.10836 0
M  V30 737 O 71.397 5.64353 -0.741232 0
M  V30 738 N 72.599 5.68882 1.15558 0
M  V30 739 H 75.364 2.59848 -1.49329 0
M  V30 740 H 72.925 1.32553 -0.929587 0
M  V30 741 H 74.917 4.00009 0.614401 0
M  V30 742 H 73.487 2.98508 0.927993 0
M  V30 743 H 72.707 3.65993 -1.46434 0
M  V30 744 H 73.995 4.87759 -1.44807 0
M  V30 745 H 73.393 5.39861 1.69015 0
M  V30 746 H 71.95 6.32429 1.57722 0
M  V30 747 N 75.3831 0.828654 1.34056 0
M  V30 748 C 76.6231 0.425394 1.99924 0
M  V30 749 C 76.9871 -0.994294 1.64249 0
M  V30 750 O 78.1881 -1.50074 2.23005 0
M  V30 751 C 76.4591 0.628071 3.51838 0
M  V30 752 S 78.0181 0.318511 4.37642 0
M  V30 753 H 74.8361 0.160465 0.692656 0
M  V30 754 H 77.4381 1.07572 1.63244 0
M  V30 755 H 76.1421 1.66089 3.7529 0
M  V30 756 H 75.6731 -0.0367799 3.93383 0
M  V30 757 H 77.6881 -0.865632 4.88591 0
M  V30 758 N 76.8612 -1.46375 0.584142 0
M  V30 759 C 78.1082 -2.02378 0.0702675 0
M  V30 760 C 78.4362 -1.45545 -1.29023 0
M  V30 761 O 77.6912 -0.610967 -1.85918 0
M  V30 762 C 77.9902 -3.57373 -0.0439342 0
M  V30 763 C 77.6562 -4.33252 1.24915 0
M  V30 764 C 76.3182 -4.53701 1.60341 0
M  V30 765 C 78.6702 -4.7681 2.1048 0
M  V30 766 C 75.9982 -5.1496 2.81128 0
M  V30 767 C 78.3502 -5.39404 3.30494 0
M  V30 768 C 77.0142 -5.5808 3.66201 0
M  V30 769 H 76.2842 -0.740554 0.0257127 0
M  V30 770 H 78.9312 -1.75727 0.761065 0
M  V30 771 H 77.2362 -3.83169 -0.817869 0
M  V30 772 H 78.9332 -3.98384 -0.457318 0
M  V30 773 H 75.5232 -4.17633 0.963364 0
M  V30 774 H 79.7072 -4.60766 1.84414 0
M  V30 775 H 74.9632 -5.27611 3.08928 0
M  V30 776 H 79.1372 -5.72114 3.97063 0
M  V30 777 H 76.7642 -6.05318 4.59885 0
M  V30 778 N 78.3393 -0.321999 -1.54275 0
M  V30 779 C 79.6163 0.335232 -1.92706 0
M  V30 780 C 79.9963 1.70006 -1.25145 0
M  V30 781 O 79.3443 2.25067 -0.394596 0
M  V30 782 C 79.5543 0.429008 -3.46353 0
M  V30 783 C 80.9023 0.690029 -4.18956 0
M  V30 784 O 81.9263 0.511992 -3.52501 0
M  V30 785 O 80.7853 1.03338 -5.36641 0
M  V30 786 H 77.8793 0.191143 -0.804608 0
M  V30 787 H 80.4253 -0.3716 -1.65581 0
M  V30 788 H 79.1973 -0.529611 -3.87699 0
M  V30 789 H 78.8203 1.18348 -3.79578 0
M  V30 790 N 79.8174 1.5752 -0.0501392 0
M  V30 791 C 80.7654 2.12651 0.942459 0
M  V30 792 C 81.7594 1.05807 1.32292 0
M  V30 793 O 82.9654 1.24217 1.3027 0
M  V30 794 H 79.3404 0.679673 0.321789 0
M  V30 795 H 81.3114 2.94951 0.452356 0
M  V30 796 C 80.0604 2.68565 2.20836 0
M  V30 797 H 79.3834 3.50439 1.92439 0
M  V30 798 H 80.8234 3.10761 2.8845 0
M  V30 799 C 79.2824 1.62291 2.95234 0
M  V30 800 O 79.8124 1.03508 3.88135 0
M  V30 801 N 78.0184 1.33836 2.57946 0
M  V30 802 H 77.5654 1.81826 1.82475 0
M  V30 803 H 77.5234 0.629595 3.08032 0
M  V30 804 N 81.2955 -0.223234 1.56011 0
M  V30 805 C 82.5435 -0.946003 1.78592 0
M  V30 806 C 82.8645 -1.84936 0.618349 0
M  V30 807 O 82.1345 -1.92473 -0.364833 0
M  V30 808 H 80.7145 -0.352298 0.658707 0
M  V30 809 H 83.3765 -0.235494 1.93472 0
M  V30 810 H 82.4725 -1.55381 2.70672 0
M  V30 811 N 82.7736 -1.49793 -0.48987 0
M  V30 812 C 84.0136 -1.61466 -1.25332 0
M  V30 813 C 84.3776 -0.299688 -1.89647 0
M  V30 814 O 85.5786 -0.291687 -2.67213 0
M  V30 815 C 83.8496 -2.74944 -2.28343 0
M  V30 816 S 85.4086 -3.06637 -3.13878 0
M  V30 817 H 82.2266 -0.569411 -0.425784 0
M  V30 818 H 84.8286 -1.875 -0.553541 0
M  V30 819 H 83.5326 -3.68994 -1.79643 0
M  V30 820 H 83.0636 -2.50938 -3.02975 0
M  V30 821 H 85.0786 -2.49015 -4.29192 0
M  V30 822 N 84.2517 0.741722 -1.39055 0
M  V30 823 C 85.4917 1.51385 -1.37338 0
M  V30 824 C 85.8557 1.91972 0.0330513 0
M  V30 825 O 87.0567 2.68229 0.175174 0
M  V30 826 C 85.3277 2.72481 -2.31276 0
M  V30 827 S 86.8867 3.62211 -2.47687 0
M  V30 828 H 83.7047 0.517906 -0.487129 0
M  V30 829 H 86.3067 0.86969 -1.7509 0
M  V30 830 H 85.0107 2.40793 -3.32336 0
M  V30 831 H 84.5417 3.41832 -1.94716 0
M  V30 832 H 86.5567 4.65812 -1.70978 0
M  V30 833 N 85.7298 1.2412 0.971189 0
M  V30 834 C 86.9768 1.07881 1.71371 0
M  V30 835 C 87.3048 -0.382901 1.90694 0
M  V30 836 O 86.5598 -1.29945 1.46331 0
M  V30 837 C 86.8588 1.75983 3.11071 0
M  V30 838 C 86.5248 3.25909 3.11599 0
M  V30 839 C 85.1868 3.66813 3.11451 0
M  V30 840 C 87.5388 4.21771 3.062 0
M  V30 841 C 84.8668 5.02021 3.03631 0
M  V30 842 C 87.2188 5.56982 2.99923 0
M  V30 843 C 85.8828 5.97237 2.98102 0
M  V30 844 H 85.1528 0.394764 0.62709 0
M  V30 845 H 87.7998 1.54176 1.13587 0
M  V30 846 H 86.1048 1.22072 3.72298 0
M  V30 847 H 87.8018 1.60887 3.6731 0
M  V30 848 H 84.3918 2.93353 3.12477 0
M  V30 849 H 88.5758 3.91172 3.05447 0
M  V30 850 H 83.8318 5.32411 3.0058 0
M  V30 851 H 88.0058 6.30969 2.94704 0
M  V30 852 H 85.6328 7.01967 2.91798 0
M  V30 853 N 87.2079 -1.17134 1.05439 0
M  V30 854 C 88.4849 -1.83411 0.679699 0
M  V30 855 C 88.8649 -1.9368 -0.839726 0
M  V30 856 O 88.2129 -1.47325 -1.74664 0
M  V30 857 C 88.4229 -3.20918 1.37159 0
M  V30 858 C 89.7709 -3.96796 1.51123 0
M  V30 859 O 90.7949 -3.30406 1.3308 0
M  V30 860 O 89.6539 -5.15778 1.80651 0
M  V30 861 H 86.7479 -0.79154 0.239569 0
M  V30 862 H 89.2939 -1.24411 1.15413 0
M  V30 863 H 88.0659 -3.08428 2.40807 0
M  V30 864 H 87.6889 -3.87587 0.886674 0
M  V30 865 N 88.686 -0.835752 -1.33615 0
M  V30 866 C 89.911 -0.442389 -2.02627 0
M  V30 867 C 90.336 0.947735 -1.62479 0
M  V30 868 O 89.694 1.61907 -0.815826 0
M  V30 869 C 89.742 -0.567216 -3.56111 0
M  V30 870 O 88.846 0.407799 -4.10379 0
M  V30 871 H 88.187 -0.180278 -0.639059 0
M  V30 872 H 90.717 -1.12972 -1.70583 0
M  V30 873 H 90.727 -0.447708 -4.05536 0
M  V30 874 H 89.402 -1.58103 -3.84677 0
M  V30 875 H 87.979 0.246107 -3.72087 0
M  V30 876 N 90.1641 1.46063 -0.591896 0
M  V30 877 C 91.3891 2.07226 -0.0850314 0
M  V30 878 C 91.8141 1.43625 1.21463 0
M  V30 879 O 91.1721 0.523305 1.73583 0
M  V30 880 C 91.2201 3.60554 0.0576567 0
M  V30 881 O 90.3241 3.97128 1.11188 0
M  V30 882 H 89.6651 0.660615 -0.0669568 0
M  V30 883 H 92.1951 1.8756 -0.81745 0
M  V30 884 H 92.2051 4.07165 0.2609 0
M  V30 885 H 90.8801 4.06235 -0.891416 0
M  V30 886 H 89.4571 3.62213 0.886356 0
M  V30 887 N 91.6422 0.330177 1.54103 0
M  V30 888 C 92.8882 -0.270806 2.00984 0
M  V30 889 C 93.2212 -1.51265 1.21789 0
M  V30 890 O 92.4962 -1.92142 0.301927 0
M  V30 891 C 92.7792 -0.598339 3.55094 0
M  V30 892 C 92.6322 0.654674 4.4501 0
M  V30 893 C 93.9512 -1.41334 4.16789 0
M  V30 894 H 91.0702 -0.0969531 0.730595 0
M  V30 895 H 93.7122 0.448066 1.84641 0
M  V30 896 H 91.8622 -1.21078 3.69151 0
M  V30 897 H 93.5342 1.29285 4.42813 0
M  V30 898 H 91.7772 1.28224 4.14416 0
M  V30 899 H 92.4482 0.380944 5.50684 0
M  V30 900 H 94.9242 -0.895597 4.06347 0
M  V30 901 H 93.8002 -1.61127 5.24718 0
M  V30 902 H 94.0612 -2.41146 3.70541 0
M  V30 903 N 93.1203 -1.57491 0.0584922 0
M  V30 904 C 94.3483 -1.97296 -0.623037 0
M  V30 905 C 94.7633 -0.936338 -1.63946 0
M  V30 906 O 94.1203 0.0785981 -1.82331 0
M  V30 907 C 94.1713 -3.37183 -1.30345 0
M  V30 908 O 93.8923 -4.36872 -0.32773 0
M  V30 909 C 95.3933 -3.91788 -2.07406 0
M  V30 910 H 92.6133 -0.649153 -0.169826 0
M  V30 911 H 95.1573 -2.04106 0.12696 0
M  V30 912 H 93.3123 -3.31502 -2.00463 0
M  V30 913 H 93.7263 -5.18141 -0.814269 0
M  V30 914 H 95.2003 -4.91926 -2.50425 0
M  V30 915 H 95.6773 -3.27609 -2.92521 0
M  V30 916 H 96.2833 -4.00829 -1.42184 0
M  V30 917 N 94.5984 0.214957 -1.56127 0
M  V30 918 C 95.8464 0.936518 -1.79091 0
M  V30 919 C 96.1674 1.84606 -0.628148 0
M  V30 920 O 95.4374 1.92664 0.35462 0
M  V30 921 H 94.0174 0.3488 -0.660566 0
M  V30 922 H 96.6794 0.22523 -1.93594 0
M  V30 923 H 95.7754 1.53943 -2.71492 0
M  V30 924 N 96.0765 1.50051 0.48192 0
M  V30 925 C 97.3225 1.60736 1.2366 0
M  V30 926 C 97.6555 0.301786 1.91841 0
M  V30 927 O 96.9305 -0.696025 1.8162 0
M  V30 928 C 97.2135 2.78009 2.28874 0
M  V30 929 C 97.0665 4.18416 1.65069 0
M  V30 930 C 98.3855 2.90867 3.30279 0
M  V30 931 H 95.5045 0.585031 0.448228 0
M  V30 932 H 98.1465 1.82402 0.531946 0
M  V30 933 H 96.2965 2.59667 2.88973 0
M  V30 934 H 97.9685 4.48322 1.0865 0
M  V30 935 H 96.2115 4.23177 0.954148 0
M  V30 936 H 96.8825 4.96381 2.41474 0
M  V30 937 H 99.3585 3.07623 2.80191 0
M  V30 938 H 98.2345 3.74566 4.01238 0
M  V30 939 H 98.4955 2.01021 3.93755 0
M  V30 940 N 97.5546 -0.734337 1.39446 0
M  V30 941 C 98.9656 -1.31264 1.32766 0
M  V30 942 C 99.3166 -1.96198 -0.00767497 0
M  V30 943 O 98.4416 -1.96346 -0.909796 0
M  V30 944 C 99.0366 -2.38682 2.4045 0
M  V30 945 C 97.5956 -2.92184 2.37288 0
M  V30 946 C 96.7426 -1.6576 2.22304 0
M  V30 947 H 99.6936 -0.531799 1.49525 0
M  V30 948 H 99.7146 -3.19087 2.07276 0
M  V30 949 H 99.2266 -1.91392 3.37625 0
M  V30 950 H 97.3276 -3.43752 1.43754 0
M  V30 951 H 97.4406 -3.45253 3.3217 0
M  V30 952 H 95.8046 -1.9012 1.69489 0
M  V30 953 H 96.5876 -1.20521 3.21449 0
M  V30 954 N 99.0327 -1.24633 -0.964593 0
M  V30 955 C 100.279 -1.09957 -1.71117 0
M  V30 956 C 100.634 0.357422 -1.89051 0
M  V30 957 O 99.9267 1.26029 -1.44317 0
M  V30 958 C 100.121 -1.7763 -3.10133 0
M  V30 959 C 99.9497 -3.29759 -3.05759 0
M  V30 960 C 98.7197 -3.98981 -3.10068 0
M  V30 961 C 100.918 -4.26305 -2.87695 0
M  V30 962 N 98.8997 -5.37966 -2.95747 0
M  V30 963 C 100.271 -5.52308 -2.81702 0
M  V30 964 C 102.326 -4.16842 -2.72299 0
M  V30 965 C 101.029 -6.69931 -2.61887 0
M  V30 966 C 103.055 -5.34147 -2.53853 0
M  V30 967 C 102.417 -6.59084 -2.48572 0
M  V30 968 H 98.5157 -0.457003 -0.634564 0
M  V30 969 H 101.1 -1.57592 -1.14337 0
M  V30 970 H 99.2707 -1.32504 -3.65099 0
M  V30 971 H 101.003 -1.55786 -3.73514 0
M  V30 972 H 97.7577 -3.50169 -3.18871 0
M  V30 973 H 98.1817 -6.10877 -2.91818 0
M  V30 974 H 102.824 -3.21007 -2.75163 0
M  V30 975 H 100.542 -7.65886 -2.57767 0
M  V30 976 H 104.128 -5.28678 -2.4288 0
M  V30 977 H 103.008 -7.48324 -2.34481 0
M  V30 978 N 100.511 1.16574 -1.06058 0
M  V30 979 C 101.751 1.88723 -0.78504 0
M  V30 980 C 102.115 1.79706 0.676006 0
M  V30 981 O 103.316 2.46757 1.06603 0
M  V30 982 C 101.587 3.34338 -1.26304 0
M  V30 983 S 103.146 4.24366 -1.1162 0
M  V30 984 H 99.9638 0.651448 -0.284846 0
M  V30 985 H 102.566 1.40732 -1.35701 0
M  V30 986 H 101.27 3.38439 -2.32136 0
M  V30 987 H 100.801 3.87378 -0.685719 0
M  V30 988 H 102.816 4.96179 -0.0456539 0
M  V30 989 N 101.989 0.842826 1.3317 0
M  V30 990 C 103.236 0.440447 1.97652 0
M  V30 991 C 103.564 -1.00123 1.6675 0
M  V30 992 O 102.819 -1.7155 0.941761 0
M  V30 993 C 103.118 0.612607 3.52111 0
M  V30 994 C 102.784 2.02297 4.02972 0
M  V30 995 C 101.446 2.40874 4.16573 0
M  V30 996 C 103.798 2.94402 4.30089 0
M  V30 997 C 101.126 3.70852 4.54627 0
M  V30 998 C 103.478 4.23865 4.69597 0
M  V30 999 C 102.142 4.62392 4.81404 0
M  V30 1000 H 101.412 0.161171 0.72326 0
M  V30 1001 H 104.059 1.07061 1.58777 0
M  V30 1002 H 102.364 -0.100849 3.9167 0
M  V30 1003 H 104.061 0.2815 4.00011 0
M  V30 1004 H 100.651 1.71338 3.92863 0
M  V30 1005 H 104.835 2.65835 4.19101 0
M  V30 1006 H 100.091 4.00501 4.61962 0
M  V30 1007 H 104.265 4.95306 4.89536 0
M  V30 1008 H 101.892 5.63154 5.10648 0
M  V30 1009 N 103.467 -1.45747 0.599634 0
M  V30 1010 C 104.417 -2.27538 -0.145107 0
M  V30 1011 C 105.401 -1.3686 -0.846055 0
M  V30 1012 O 106.593 -1.6091 -0.737357 0
M  V30 1013 C 103.722 -3.23569 -1.14708 0
M  V30 1014 C 102.808 -4.21734 -0.447383 0
M  V30 1015 N 103.199 -5.03257 0.506535 0
M  V30 1016 C 101.497 -4.40536 -0.695966 0
M  V30 1017 C 102.198 -5.74426 0.917068 0
M  V30 1018 N 101.174 -5.42966 0.26253 0
M  V30 1019 H 104.976 -2.87965 0.587672 0
M  V30 1020 H 102.49 -1.56803 0.422697 0
M  V30 1021 H 104.487 -3.8089 -1.69495 0
M  V30 1022 H 103.147 -2.64702 -1.8805 0
M  V30 1023 H 104.158 -5.10319 0.882899 0
M  V30 1024 H 100.835 -3.92802 -1.41467 0
M  V30 1025 H 102.225 -6.4995 1.70338 0
M  V30 1026 N 104.945 -0.338344 -1.53925 0
M  V30 1027 C 106.356 0.146651 -1.86123 0
M  V30 1028 C 106.707 1.5042 -1.2597 0
M  V30 1029 O 105.832 2.08723 -0.571294 0
M  V30 1030 C 106.427 0.272879 -3.37699 0
M  V30 1031 C 104.986 0.702103 -3.69794 0
M  V30 1032 C 104.133 -0.167304 -2.76795 0
M  V30 1033 H 107.084 -0.558123 -1.48562 0
M  V30 1034 H 107.105 1.10128 -3.64214 0
M  V30 1035 H 106.617 -0.715307 -3.81451 0
M  V30 1036 H 104.718 1.6995 -3.31584 0
M  V30 1037 H 104.831 0.495604 -4.7653 0
M  V30 1038 H 103.195 0.359527 -2.5215 0
M  V30 1039 H 103.978 -1.15253 -3.23375 0
M  V30 1040 N 106.423 1.57458 -0.0668435 0
M  V30 1041 C 107.353 2.15468 0.899764 0
M  V30 1042 C 108.334 1.08042 1.31381 0
M  V30 1043 O 109.519 1.36054 1.38574 0
M  V30 1044 C 106.649 2.71232 2.16911 0
M  V30 1045 C 105.603 3.83781 1.89463 0
M  V30 1046 C 104.929 4.26127 3.22986 0
M  V30 1047 C 106.229 5.08238 1.20381 0
M  V30 1048 H 107.923 2.96488 0.416529 0
M  V30 1049 H 105.469 1.4262 0.198908 0
M  V30 1050 H 107.422 3.10458 2.84945 0
M  V30 1051 H 106.146 1.87426 2.67468 0
M  V30 1052 H 104.805 3.45051 1.23836 0
M  V30 1053 H 104.453 3.39249 3.71374 0
M  V30 1054 H 104.153 5.01993 3.05413 0
M  V30 1055 H 105.677 4.67966 3.92225 0
M  V30 1056 H 107.091 5.44811 1.78475 0
M  V30 1057 H 105.488 5.89349 1.13083 0
M  V30 1058 H 106.558 4.84558 0.182153 0
M  V30 1059 N 107.901 -0.206675 1.56239 0
M  V30 1060 C 109.312 -0.772383 1.69974 0
M  V30 1061 C 109.663 -1.84353 0.671436 0
M  V30 1062 O 108.788 -2.15695 -0.174491 0
M  V30 1063 C 109.383 -1.40779 3.08167 0
M  V30 1064 C 107.942 -1.92072 3.23706 0
M  V30 1065 C 107.089 -0.786347 2.65917 0
M  V30 1066 H 110.04 0.0182223 1.5869 0
M  V30 1067 H 110.061 -2.27696 3.04852 0
M  V30 1068 H 109.573 -0.627958 3.82986 0
M  V30 1069 H 107.674 -2.7281 2.53782 0
M  V30 1070 H 107.787 -2.09046 4.31087 0
M  V30 1071 H 106.151 -1.1976 2.24788 0
M  V30 1072 H 106.934 -0.0189416 3.43295 0
M  V30 1073 N 109.379 -1.50304 -0.473955 0
M  V30 1074 C 110.326 -1.68959 -1.57231 0
M  V30 1075 C 111.296 -0.530899 -1.57387 0
M  V30 1076 O 112.481 -0.761133 -1.74961 0
M  V30 1077 C 109.621 -1.7871 -2.95223 0
M  V30 1078 C 108.734 -3.06061 -3.04878 0
M  V30 1079 C 107.869 -3.06626 -4.33767 0
M  V30 1080 C 106.908 -4.28443 -4.37154 0
M  V30 1081 N 106.045 -4.26763 -5.5751 0
M  V30 1082 H 110.885 -2.6273 -1.40631 0
M  V30 1083 H 108.422 -1.30241 -0.683789 0
M  V30 1084 H 110.38 -1.82344 -3.75242 0
M  V30 1085 H 109.01 -0.883806 -3.10465 0
M  V30 1086 H 108.062 -3.11911 -2.17751 0
M  V30 1087 H 109.374 -3.96039 -3.0324 0
M  V30 1088 H 108.528 -3.08973 -5.22131 0
M  V30 1089 H 107.267 -2.14473 -4.3801 0
M  V30 1090 H 106.272 -4.2631 -3.47188 0
M  V30 1091 H 107.497 -5.2182 -4.34605 0
M  V30 1092 H 105.443 -3.37462 -5.62544 0
M  V30 1093 H 105.36 -5.10507 -5.57601 0
M  V30 1094 H 106.628 -4.33253 -6.48006 0
M  V30 1095 N 110.857 0.726932 -1.39834 0
M  V30 1096 C 111.789 1.85147 -1.35104 0
M  V30 1097 C 112.802 1.60736 -0.258392 0
M  V30 1098 O 113.991 1.70821 -0.517931 0
M  V30 1099 C 111.091 3.21332 -1.07697 0
M  V30 1100 C 110.264 3.73033 -2.28396 0
M  V30 1101 C 109.323 4.87802 -1.97322 0
M  V30 1102 O 108.349 5.01043 -2.70083 0
M  V30 1103 N 109.551 5.72768 -0.944273 0
M  V30 1104 H 112.316 1.89706 -2.32017 0
M  V30 1105 H 109.877 0.908006 -1.3404 0
M  V30 1106 H 111.869 3.95691 -0.849144 0
M  V30 1107 H 110.439 3.11992 -0.194909 0
M  V30 1108 H 109.659 2.89934 -2.6708 0
M  V30 1109 H 110.947 4.0431 -3.08887 0
M  V30 1110 H 110.345 5.64669 -0.341427 0
M  V30 1111 H 108.902 6.4716 -0.776346 0
M  V30 1112 N 112.336 1.25143 0.95797 0
M  V30 1113 C 113.246 1.06968 2.08794 0
M  V30 1114 C 114.262 0.00773911 1.73998 0
M  V30 1115 O 115.438 0.207972 2.00323 0
M  V30 1116 C 112.503 0.68691 3.39827 0
M  V30 1117 C 111.564 1.82641 3.88511 0
M  V30 1118 C 110.797 1.46181 5.1329 0
M  V30 1119 O 111.02 0.355971 5.69288 0
M  V30 1120 O 109.954 2.29085 5.566 0
M  V30 1121 H 113.78 2.01723 2.27027 0
M  V30 1122 H 111.365 1.04051 1.07209 0
M  V30 1123 H 113.247 0.485417 4.18595 0
M  V30 1124 H 111.922 -0.231417 3.22872 0
M  V30 1125 H 110.829 2.08274 3.10762 0
M  V30 1126 H 112.162 2.72386 4.09959 0
M  V30 1127 N 113.814 -1.1601 1.06675 0
M  V30 1128 C 115.039 -1.91068 0.806706 0
M  V30 1129 C 115.464 -1.77112 -0.633485 0
M  V30 1130 O 114.822 -1.09908 -1.44187 0
M  V30 1131 C 114.87 -3.39655 1.21106 0
M  V30 1132 O 113.974 -4.10893 0.352189 0
M  V30 1133 H 113.315 -0.595125 0.294486 0
M  V30 1134 H 115.845 -1.46955 1.42356 0
M  V30 1135 H 115.855 -3.90434 1.18428 0
M  V30 1136 H 114.53 -3.49132 2.26008 0
M  V30 1137 H 113.107 -3.70285 0.440868 0
M  V30 1138 N 115.292 -0.849877 -1.32721 0
M  V30 1139 C 116.569 -0.372405 -1.92022 0
M  V30 1140 C 116.949 1.1435 -1.77447 0
M  V30 1141 O 116.297 1.96296 -1.16962 0
M  V30 1142 C 116.507 -0.831482 -3.3895 0
M  V30 1143 C 117.855 -0.845882 -4.16089 0
M  V30 1144 O 118.879 -0.775806 -3.47649 0
M  V30 1145 O 117.738 -0.943753 -5.38289 0
M  V30 1146 H 114.832 -0.107667 -0.819961 0
M  V30 1147 H 117.378 -0.93646 -1.41522 0
M  V30 1148 H 116.15 -1.87448 -3.4348 0
M  V30 1149 H 115.773 -0.24461 -3.96847 0
M  V30 1150 N 116.77 1.45427 -0.607355 0
M  V30 1151 C 117.702 2.2871 0.149752 0
M  V30 1152 C 118.715 1.39937 0.831958 0
M  V30 1153 O 119.904 1.64313 0.697385 0
M  V30 1154 C 117.004 3.15673 1.23304 0
M  V30 1155 C 116.177 4.32722 0.637996 0
M  V30 1156 C 115.236 5.00895 1.61215 0
M  V30 1157 O 114.262 5.57697 1.13854 0
M  V30 1158 N 115.464 5.00159 2.94655 0
M  V30 1159 H 118.229 2.94328 -0.564882 0
M  V30 1160 H 115.79 1.55612 -0.446823 0
M  V30 1161 H 117.782 3.58144 1.88454 0
M  V30 1162 H 116.352 2.51965 1.8502 0
M  V30 1163 H 115.572 3.93734 -0.191572 0
M  V30 1164 H 116.86 5.08321 0.220665 0
M  V30 1165 H 116.258 4.553 3.35735 0
M  V30 1166 H 114.815 5.46495 3.55228 0
M  V30 1167 N 118.248 0.346503 1.53744 0
M  V30 1168 C 119.488 -0.249413 2.02873 0
M  V30 1169 C 119.852 -1.47532 1.22876 0
M  V30 1170 O 121.053 -2.1456 1.61918 0
M  V30 1171 C 119.324 -0.552909 3.53097 0
M  V30 1172 S 120.883 -1.12521 4.24128 0
M  V30 1173 H 117.701 -0.074042 0.707134 0
M  V30 1174 H 120.303 0.48495 1.8939 0
M  V30 1175 H 119.007 0.347083 4.0893 0
M  V30 1176 H 118.538 -1.31686 3.70705 0
M  V30 1177 H 120.553 -2.41075 4.33702 0
M  V30 1178 N 119.726 -1.57421 0.075193 0
M  V30 1179 C 120.972 -1.93905 -0.594025 0
M  V30 1180 C 121.305 -0.955701 -1.69056 0
M  V30 1181 O 120.58 0.0145373 -1.94495 0
M  V30 1182 C 120.863 -3.40638 -1.1678 0
M  V30 1183 C 120.716 -4.49733 -0.0776792 0
M  V30 1184 C 122.035 -3.88259 -2.07228 0
M  V30 1185 H 119.154 -0.705105 -0.214466 0
M  V30 1186 H 121.796 -1.8947 0.141854 0
M  V30 1187 H 119.946 -3.44549 -1.79494 0
M  V30 1188 H 121.618 -4.57942 0.555573 0
M  V30 1189 H 119.861 -4.29751 0.591286 0
M  V30 1190 H 120.532 -5.49549 -0.519603 0
M  V30 1191 H 123.008 -3.86376 -1.54445 0
M  V30 1192 H 121.884 -4.91533 -2.44308 0
M  V30 1193 H 122.145 -3.26396 -2.98191 0
M  V30 1194 N 121.204 0.198386 -1.56346 0
M  V30 1195 C 122.137 1.27381 -1.89339 0
M  V30 1196 C 123.115 1.44106 -0.753134 0
M  V30 1197 O 124.299 1.59549 -1.00381 0
M  V30 1198 C 121.426 2.6409 -2.12071 0
M  V30 1199 C 120.472 2.64253 -3.34772 0
M  V30 1200 S 121.305 2.16013 -4.89999 0
M  V30 1201 C 122.461 3.54553 -5.15794 0
M  V30 1202 H 122.694 0.992058 -2.8026 0
M  V30 1203 H 120.227 0.401726 -1.49082 0
M  V30 1204 H 122.185 3.42786 -2.2585 0
M  V30 1205 H 120.846 2.89478 -1.21906 0
M  V30 1206 H 120.039 3.64768 -3.47794 0
M  V30 1207 H 119.641 1.93637 -3.1997 0
M  V30 1208 H 121.933 4.50396 -5.06112 0
M  V30 1209 H 122.876 3.46428 -6.1757 0
M  V30 1210 H 123.284 3.49313 -4.43442 0
M  V30 1211 N 122.682 1.50554 0.465978 0
M  V30 1212 C 123.592 1.72585 1.58907 0
M  V30 1213 C 124.608 0.60911 1.6299 0
M  V30 1214 O 125.784 0.88804 1.80765 0
M  V30 1215 C 122.849 1.81995 2.95091 0
M  V30 1216 C 121.91 3.05751 3.01355 0
M  V30 1217 C 121.143 3.14702 4.31043 0
M  V30 1218 O 121.366 2.30313 5.21835 0
M  V30 1219 O 120.3 4.07468 4.43005 0
M  V30 1220 H 124.126 2.67799 1.43239 0
M  V30 1221 H 121.711 1.34711 0.646013 0
M  V30 1222 H 123.593 1.90335 3.75966 0
M  V30 1223 H 122.268 0.899659 3.10947 0
M  V30 1224 H 121.175 3.02908 2.19539 0
M  V30 1225 H 122.508 3.97375 2.90437 0
M  V30 1226 N 124.16 -0.719506 1.40217 0
M  V30 1227 C 125.406 -1.48152 1.38488 0
M  V30 1228 C 125.739 -1.94195 -0.0141867 0
M  V30 1229 O 125.014 -1.67884 -0.982096 0
M  V30 1230 C 125.297 -2.71035 2.37091 0
M  V30 1231 C 125.15 -2.30912 3.86005 0
M  V30 1232 C 126.469 -3.73182 2.33288 0
M  V30 1233 H 123.588 -0.537395 0.504357 0
M  V30 1234 H 126.23 -0.821472 1.71324 0
M  V30 1235 H 124.38 -3.27352 2.0922 0
M  V30 1236 H 126.052 -1.80107 4.24687 0
M  V30 1237 H 124.295 -1.62958 4.02029 0
M  V30 1238 H 124.966 -3.18978 4.50508 0
M  V30 1239 H 127.442 -3.26485 2.57966 0
M  V30 1240 H 126.318 -4.56806 3.04334 0
M  V30 1241 H 126.579 -4.21202 1.34317 0
M  V30 1242 N 125.638 -1.25649 -0.95132 0
M  V30 1243 C 126.863 -1.13443 -1.73624 0
M  V30 1244 C 127.288 0.307565 -1.85568 0
M  V30 1245 O 126.646 1.22282 -1.33854 0
M  V30 1246 C 126.694 -1.79723 -3.12621 0
M  V30 1247 O 125.798 -1.07912 -3.98031 0
M  V30 1248 H 125.139 -0.395872 -0.533086 0
M  V30 1249 H 127.669 -1.66276 -1.1922 0
M  V30 1250 H 127.679 -1.86141 -3.63064 0
M  V30 1251 H 126.354 -2.84633 -3.03244 0
M  V30 1252 H 124.931 -1.09398 -3.56492 0
M  V30 1253 N 127.117 1.15442 -1.07289 0
M  V30 1254 C 128.394 1.82306 -0.708792 0
M  V30 1255 C 128.774 1.94991 0.808807 0
M  V30 1256 O 128.122 1.50085 1.72298 0
M  V30 1257 C 128.332 3.18695 -1.42247 0
M  V30 1258 C 129.68 3.94341 -1.57417 0
M  V30 1259 O 130.704 3.28247 -1.38319 0
M  V30 1260 O 129.563 5.12839 -1.88834 0
M  V30 1261 H 126.657 0.787628 -0.252132 0
M  V30 1262 H 129.203 1.22559 -1.17377 0
M  V30 1263 H 127.975 3.04557 -2.45684 0
M  V30 1264 H 127.598 3.86128 -0.948223 0
M  V30 1265 N 128.595 0.856903 1.32268 0
M  V30 1266 C 130.011 0.547061 1.49931 0
M  V30 1267 C 130.211 -0.921781 1.7918 0
M  V30 1268 O 129.267 -1.70469 1.8627 0
M  V30 1269 C 130.58 1.43599 2.64196 0
M  V30 1270 C 132.128 1.43665 2.78081 0
M  V30 1271 C 132.603 2.31085 3.95428 0
M  V30 1272 N 134.094 2.28893 4.02694 0
M  V30 1273 C 134.829 2.93262 4.92732 0
M  V30 1274 N 134.325 3.66751 5.87763 0
M  V30 1275 N 136.118 2.82638 4.85873 0
M  V30 1276 H 128.269 1.8075 1.11549 0
M  V30 1277 H 130.532 0.772144 0.549997 0
M  V30 1278 H 130.238 2.48058 2.49319 0
M  V30 1279 H 130.112 1.12502 3.60032 0
M  V30 1280 H 132.499 0.399701 2.92381 0
M  V30 1281 H 132.58 1.7878 1.82952 0
M  V30 1282 H 132.224 3.34849 3.81888 0
M  V30 1283 H 132.154 1.93302 4.89839 0
M  V30 1284 H 134.645 1.75466 3.34694 0
M  V30 1285 H 134.958 4.13027 6.53168 0
M  V30 1286 H 133.303 3.70859 5.87783 0
M  V30 1287 H 136.494 2.24774 4.10602 0
M  V30 1288 H 136.667 3.33084 5.55841 0
M  V30 1289 N 130.073 -1.45103 0.615059 0
M  V30 1290 C 131.489 -1.57137 0.279322 0
M  V30 1291 C 131.689 -1.60523 -1.21797 0
M  V30 1292 O 130.745 -1.53956 -2.00134 0
M  V30 1293 C 132.058 -2.85062 0.957083 0
M  V30 1294 C 133.606 -2.98749 0.933706 0
M  V30 1295 C 134.081 -4.29455 1.59162 0
M  V30 1296 N 135.572 -4.36231 1.55746 0
M  V30 1297 C 136.307 -5.36051 2.0356 0
M  V30 1298 N 135.803 -6.42367 2.59494 0
M  V30 1299 N 137.596 -5.27456 1.94284 0
M  V30 1300 H 129.747 -1.41148 1.58717 0
M  V30 1301 H 132.01 -0.675331 0.665306 0
M  V30 1302 H 131.716 -2.88488 2.01166 0
M  V30 1303 H 131.59 -3.7407 0.48494 0
M  V30 1304 H 133.977 -2.94886 -0.112347 0
M  V30 1305 H 134.058 -2.11132 1.44419 0
M  V30 1306 H 133.702 -4.34077 2.63704 0
M  V30 1307 H 133.632 -5.15901 1.0561 0
M  V30 1308 H 136.123 -3.60011 1.14893 0
M  V30 1309 H 136.436 -7.14793 2.93752 0
M  V30 1310 H 134.781 -6.43097 2.63537 0
M  V30 1311 H 137.972 -4.43308 1.5032 0
M  V30 1312 H 138.145 -6.05099 2.3186 0
M  V30 1313 N 131.551 -0.354651 -1.53558 0
M  V30 1314 C 132.499 0.512195 -2.26891 0
M  V30 1315 C 133.493 1.09263 -1.29452 0
M  V30 1316 O 134.699 1.03709 -1.47121 0
M  V30 1317 H 131.074 0.183878 -0.729173 0
M  V30 1318 H 133.045 -0.128202 -2.98124 0
M  V30 1319 C 131.794 1.64563 -3.06291 0
M  V30 1320 H 131.117 1.20829 -3.81104 0
M  V30 1321 H 132.557 2.22711 -3.60799 0
M  V30 1322 C 131.016 2.58158 -2.16462 0
M  V30 1323 O 131.546 3.60695 -1.76811 0
M  V30 1324 N 129.752 2.27096 -1.81317 0
M  V30 1325 H 129.299 1.43751 -2.1376 0
M  V30 1326 H 129.257 2.89975 -1.21498 0
M  V30 1327 N 133.029 1.57378 -0.0835403 0
M  V30 1328 C 134.269 1.95808 0.586381 0
M  V30 1329 C 134.633 0.963706 1.66062 0
M  V30 1330 O 135.834 1.23608 2.38693 0
M  V30 1331 C 134.105 3.38808 1.13771 0
M  V30 1332 S 135.664 3.99225 1.82112 0
M  V30 1333 H 132.482 0.684675 0.191679 0
M  V30 1334 H 135.084 1.94843 -0.160194 0
M  V30 1335 H 133.788 4.08954 0.344197 0
M  V30 1336 H 133.319 3.43344 1.92038 0
M  V30 1337 H 135.334 3.87087 3.10449 0
M  V30 1338 N 134.507 -0.190092 1.56449 0
M  V30 1339 C 135.755 -0.907908 1.80559 0
M  V30 1340 C 136.076 -1.83583 0.657438 0
M  V30 1341 O 135.346 -1.93203 -0.323924 0
M  V30 1342 H 133.926 -0.338247 0.666032 0
M  V30 1343 H 136.588 -0.194403 1.93928 0
M  V30 1344 H 135.684 -1.49604 2.73907 0
M  V30 1345 N 135.985 -1.50799 -0.457987 0
M  V30 1346 C 137.215 -1.65977 -1.23025 0
M  V30 1347 C 137.623 -0.347918 -1.85974 0
M  V30 1348 O 136.966 0.68148 -1.70592 0
M  V30 1349 C 137.028 -2.70309 -2.3701 0
M  V30 1350 C 136.692 -4.135 -1.94594 0
M  V30 1351 C 137.689 -4.98949 -1.46101 0
M  V30 1352 C 135.374 -4.5949 -2.02915 0
M  V30 1353 C 137.368 -6.28442 -1.06489 0
M  V30 1354 C 135.055 -5.88984 -1.62914 0
M  V30 1355 C 136.053 -6.73286 -1.1478 0
M  V30 1356 O 135.741 -8.00362 -0.75339 0
M  V30 1357 H 135.473 -0.56064 -0.377702 0
M  V30 1358 H 138.027 -1.97857 -0.551537 0
M  V30 1359 H 136.257 -2.337 -3.08093 0
M  V30 1360 H 137.946 -2.74574 -2.98938 0
M  V30 1361 H 138.712 -4.6463 -1.39084 0
M  V30 1362 H 134.591 -3.94009 -2.39328 0
M  V30 1363 H 138.135 -6.94194 -0.688488 0
M  V30 1364 H 134.032 -6.22822 -1.69595 0
M  V30 1365 H 134.8 -8.13744 -0.88108 0
M  V30 1366 N 137.463 0.71206 -1.40597 0
M  V30 1367 C 138.874 1.29135 -1.34837 0
M  V30 1368 C 139.225 1.96186 -0.0235395 0
M  V30 1369 O 138.35 1.97768 0.878444 0
M  V30 1370 C 138.945 2.34827 -2.44217 0
M  V30 1371 C 137.504 2.88371 -2.41907 0
M  V30 1372 C 136.651 1.62202 -2.24913 0
M  V30 1373 H 139.602 0.507944 -1.50352 0
M  V30 1374 H 139.623 3.15749 -2.12327 0
M  V30 1375 H 139.135 1.85996 -3.40627 0
M  V30 1376 H 137.236 3.41422 -1.49204 0
M  V30 1377 H 137.349 3.39925 -3.37621 0
M  V30 1378 H 135.713 1.874 -1.72492 0
M  V30 1379 H 136.496 1.15391 -3.23326 0
M  V30 1380 N 138.941 1.26152 0.944643 0
M  V30 1381 C 140.189 1.11271 1.6871 0
M  V30 1382 C 140.51 -0.345166 1.91921 0
M  V30 1383 O 139.78 -1.24387 1.51343 0
M  V30 1384 H 138.36 0.408783 0.625224 0
M  V30 1385 H 141.022 1.58427 1.1352 0
M  V30 1386 H 140.118 1.62879 2.66227 0
M  V30 1387 N 140.419 -1.14872 1.07899 0
M  V30 1388 C 141.668 -1.85135 0.800499 0
M  V30 1389 C 141.981 -1.83547 -0.676014 0
M  V30 1390 O 143.187 -2.49548 -1.06948 0
M  V30 1391 C 141.643 -3.3231 1.38197 0
M  V30 1392 C 141.251 -3.42329 2.8899 0
M  V30 1393 C 142.995 -4.0772 1.18174 0
M  V30 1394 C 140.902 -4.83684 3.403 0
M  V30 1395 H 139.832 -0.693563 0.29578 0
M  V30 1396 H 142.483 -1.29532 1.29976 0
M  V30 1397 H 140.865 -3.87618 0.810431 0
M  V30 1398 H 142.039 -2.97097 3.52236 0
M  V30 1399 H 140.354 -2.80369 3.07867 0
M  V30 1400 H 142.951 -5.12049 1.5398 0
M  V30 1401 H 143.294 -4.16124 0.12117 0
M  V30 1402 H 143.827 -3.58696 1.71994 0
M  V30 1403 H 140.566 -4.80465 4.45907 0
M  V30 1404 H 140.086 -5.29474 2.81811 0
M  V30 1405 H 141.765 -5.52558 3.36584 0
M  V30 1406 N 141.898 -0.863906 -1.31812 0
M  V30 1407 C 143.123 -0.48527 -2.01643 0
M  V30 1408 C 143.548 0.913058 -1.64453 0
M  V30 1409 O 142.906 1.6014 -0.849985 0
M  V30 1410 C 142.954 -0.642625 -3.54828 0
M  V30 1411 O 142.058 0.320659 -4.11151 0
M  V30 1412 H 141.399 -0.193793 -0.635091 0
M  V30 1413 H 143.929 -1.16565 -1.68148 0
M  V30 1414 H 143.939 -0.533628 -4.04495 0
M  V30 1415 H 142.614 -1.66227 -3.81237 0
M  V30 1416 H 141.191 0.167126 -3.72525 0
M  V30 1417 N 143.376 1.44774 -0.622745 0
M  V30 1418 C 144.787 1.85546 -0.207226 0
M  V30 1419 C 145.138 1.52093 1.23944 0
M  V30 1420 O 144.263 0.95492 1.94191 0
M  V30 1421 C 144.858 3.36781 -0.369313 0
M  V30 1422 C 143.417 3.76399 -0.00836847 0
M  V30 1423 C 142.564 2.68664 -0.686651 0
M  V30 1424 H 145.515 1.3536 -0.828454 0
M  V30 1425 H 145.536 3.78453 0.394162 0
M  V30 1426 H 145.048 3.61098 -1.42231 0
M  V30 1427 H 143.149 3.57698 1.04322 0
M  V30 1428 H 143.262 4.7732 -0.412584 0
M  V30 1429 H 141.626 2.54404 -0.122777 0
M  V30 1430 H 142.409 2.95815 -1.74208 0
M  V30 1431 N 144.854 0.36279 1.53368 0
M  V30 1432 C 145.764 -0.492994 2.29362 0
M  V30 1433 C 146.78 -1.09507 1.35219 0
M  V30 1434 O 147.956 -1.10662 1.68273 0
M  V30 1435 C 145.021 -1.61855 3.066 0
M  V30 1436 C 144.082 -1.04429 4.16405 0
M  V30 1437 C 143.315 -2.11621 4.89951 0
M  V30 1438 O 143.538 -3.32684 4.63333 0
M  V30 1439 O 142.472 -1.74835 5.75948 0
M  V30 1440 H 146.298 0.125331 3.03441 0
M  V30 1441 H 143.883 0.127253 1.48857 0
M  V30 1442 H 145.765 -2.27302 3.54841 0
M  V30 1443 H 144.44 -2.22233 2.3536 0
M  V30 1444 H 143.347 -0.353819 3.72423 0
M  V30 1445 H 144.68 -0.485113 4.89804 0
M  V30 1446 N 146.332 -1.57332 0.0918853 0
M  V30 1447 C 147.242 -2.17368 -0.882505 0
M  V30 1448 C 148.258 -1.14226 -1.31257 0
M  V30 1449 O 149.434 -1.46582 -1.38115 0
M  V30 1450 C 146.499 -2.73962 -2.12476 0
M  V30 1451 C 145.56 -3.92048 -1.7492 0
M  V30 1452 C 144.793 -4.45933 -2.93223 0
M  V30 1453 O 145.016 -3.98764 -4.07852 0
M  V30 1454 O 143.95 -5.36999 -2.71875 0
M  V30 1455 H 147.776 -3.01031 -0.40172 0
M  V30 1456 H 145.361 -1.48813 -0.132291 0
M  V30 1457 H 147.243 -3.10147 -2.85283 0
M  V30 1458 H 145.918 -1.93347 -2.59613 0
M  V30 1459 H 144.825 -3.6068 -0.993025 0
M  V30 1460 H 146.158 -4.74017 -1.32548 0
M  V30 1461 N 147.81 0.181792 -1.56548 0
M  V30 1462 C 149.05 0.906711 -1.83189 0
M  V30 1463 C 149.414 1.79882 -0.671312 0
M  V30 1464 O 150.615 2.56054 -0.81792 0
M  V30 1465 C 148.886 1.69023 -3.14906 0
M  V30 1466 S 150.445 2.46535 -3.62996 0
M  V30 1467 H 147.263 0.303877 -0.642791 0
M  V30 1468 H 149.865 0.169107 -1.94767 0
M  V30 1469 H 148.569 1.02571 -3.97376 0
M  V30 1470 H 148.1 2.46941 -3.06241 0
M  V30 1471 H 150.115 3.71014 -3.29489 0
M  V30 1472 N 149.288 1.51039 0.449983 0
M  V30 1473 C 150.251 1.70863 1.5277 0
M  V30 1474 C 151.251 0.578846 1.5002 0
M  V30 1475 O 152.441 0.846213 1.52266 0
M  V30 1476 C 149.573 1.75341 2.9235 0
M  V30 1477 H 150.766 2.67034 1.36502 0
M  V30 1478 H 148.319 1.40838 0.677812 0
M  V30 1479 H 149.054 0.809383 3.14037 0
M  V30 1480 H 148.839 2.57436 2.95752 0
M  V30 1481 H 150.329 1.92559 3.70555 0
M  V30 1482 N 150.766 -0.704594 1.40972 0
M  V30 1483 C 151.991 -1.49858 1.43378 0
M  V30 1484 C 152.416 -1.88061 0.038184 0
M  V30 1485 O 151.774 -1.5402 -0.956425 0
M  V30 1486 C 151.822 -2.74333 2.34038 0
M  V30 1487 O 150.926 -3.7147 1.7912 0
M  V30 1488 H 150.267 -0.45139 0.486974 0
M  V30 1489 H 152.797 -0.866832 1.8533 0
M  V30 1490 H 152.807 -3.22741 2.49604 0
M  V30 1491 H 151.482 -2.45863 3.35446 0
M  V30 1492 H 150.059 -3.30363 1.72958 0
M  V30 1493 N 152.244 -1.26651 -0.937939 0
M  V30 1494 C 153.66 -1.03834 -1.21205 0
M  V30 1495 C 153.86 0.234502 -2.00131 0
M  V30 1496 O 152.916 0.942767 -2.3424 0
M  V30 1497 C 154.229 -2.27167 -1.97017 0
M  V30 1498 C 155.777 -2.32101 -2.09996 0
M  V30 1499 C 156.252 -3.55136 -2.8921 0
M  V30 1500 N 157.743 -3.55632 -2.96783 0
M  V30 1501 C 158.478 -4.475 -3.58512 0
M  V30 1502 N 157.974 -5.4966 -4.21717 0
M  V30 1503 N 159.767 -4.35145 -3.55816 0
M  V30 1504 H 151.918 -2.08398 -0.410391 0
M  V30 1505 H 154.181 -0.916031 -0.244114 0
M  V30 1506 H 153.887 -3.19765 -1.46434 0
M  V30 1507 H 153.761 -2.31672 -2.97671 0
M  V30 1508 H 156.148 -1.40015 -2.59769 0
M  V30 1509 H 156.229 -2.31605 -1.08594 0
M  V30 1510 H 155.873 -4.47553 -2.40123 0
M  V30 1511 H 155.803 -3.5288 -3.90875 0
M  V30 1512 H 158.294 -2.81743 -2.51852 0
M  V30 1513 H 158.607 -6.15943 -4.66727 0
M  V30 1514 H 156.952 -5.53514 -4.20294 0
M  V30 1515 H 160.143 -3.5455 -3.05634 0
M  V30 1516 H 160.316 -5.06934 -4.03636 0
M  V30 1517 N 153.722 1.14298 -1.08507 0
M  V30 1518 C 154.669 2.19414 -0.715965 0
M  V30 1519 C 155.639 1.63399 0.298326 0
M  V30 1520 O 156.824 1.89929 0.182101 0
M  V30 1521 C 153.964 3.44845 -0.132534 0
M  V30 1522 C 153.077 4.15007 -1.19973 0
M  V30 1523 C 152.212 5.28024 -0.580048 0
M  V30 1524 C 151.251 5.9002 -1.62921 0
M  V30 1525 N 150.388 6.94485 -1.03125 0
M  V30 1526 H 155.228 2.50336 -1.61666 0
M  V30 1527 H 152.765 1.2293 -0.807882 0
M  V30 1528 H 154.723 4.16601 0.223454 0
M  V30 1529 H 153.353 3.14403 0.731467 0
M  V30 1530 H 152.405 3.41629 -1.67313 0
M  V30 1531 H 153.717 4.57178 -1.99473 0
M  V30 1532 H 152.871 6.06455 -0.172364 0
M  V30 1533 H 151.61 4.87076 0.246603 0
M  V30 1534 H 150.615 5.10291 -2.04654 0
M  V30 1535 H 151.84 6.33042 -2.45835 0
M  V30 1536 H 149.786 6.55612 -0.225711 0
M  V30 1537 H 149.703 7.35148 -1.76334 0
M  V30 1538 H 150.971 7.7679 -0.649458 0
M  V30 1539 N 155.201 0.870884 1.31352 0
M  V30 1540 C 156.441 0.488783 1.9847 0
M  V30 1541 C 156.805 -0.941536 1.67329 0
M  V30 1542 O 158.006 -1.42903 2.27667 0
M  V30 1543 C 156.277 0.739688 3.49662 0
M  V30 1544 S 157.836 0.457582 4.36408 0
M  V30 1545 H 154.654 0.18242 0.6872 0
M  V30 1546 H 157.256 1.12711 1.59739 0
M  V30 1547 H 155.96 1.77944 3.69816 0
M  V30 1548 H 155.491 0.0883905 3.93301 0
M  V30 1549 H 157.506 -0.709752 4.91098 0
M  V30 1550 N 156.679 -1.44442 0.630414 0
M  V30 1551 C 157.919 -2.03934 0.137919 0
M  V30 1552 C 158.283 -1.48509 -1.21692 0
M  V30 1553 O 159.484 -1.99499 -1.80149 0
M  V30 1554 C 157.755 -3.57187 0.123373 0
M  V30 1555 S 159.314 -4.37741 -0.304604 0
M  V30 1556 H 156.132 -0.708401 0.0607353 0
M  V30 1557 H 158.734 -1.76835 0.833643 0
M  V30 1558 H 157.438 -3.95032 1.11256 0
M  V30 1559 H 156.969 -3.88895 -0.59362 0
M  V30 1560 H 158.984 -4.71403 -1.54897 0
M  V30 1561 N 158.157 -0.370918 -1.53173 0
M  V30 1562 C 159.404 0.217102 -2.01333 0
M  V30 1563 C 159.732 1.48338 -1.25802 0
M  V30 1564 O 158.987 1.92698 -0.34146 0
M  V30 1565 C 159.286 0.549696 -3.53147 0
M  V30 1566 C 158.952 -0.622872 -4.46577 0
M  V30 1567 C 157.614 -0.944595 -4.71838 0
M  V30 1568 C 159.966 -1.40819 -5.01816 0
M  V30 1569 C 157.294 -2.05351 -5.49589 0
M  V30 1570 C 159.646 -2.50757 -5.80778 0
M  V30 1571 C 158.31 -2.83458 -6.04324 0
M  V30 1572 H 157.58 0.0794431 -0.736729 0
M  V30 1573 H 160.227 -0.504481 -1.84736 0
M  V30 1574 H 158.532 1.35237 -3.6772 0
M  V30 1575 H 160.229 1.017 -3.87889 0
M  V30 1576 H 156.819 -0.36209 -4.27068 0
M  V30 1577 H 161.003 -1.17289 -4.82242 0
M  V30 1578 H 156.259 -2.3108 -5.6605 0
M  V30 1579 H 160.433 -3.12022 -6.22588 0
M  V30 1580 H 158.06 -3.69508 -6.64355 0
M  V30 1581 N 159.635 1.57281 -0.100228 0
M  V30 1582 C 160.86 1.99302 0.573881 0
M  V30 1583 C 161.285 0.979059 1.60611 0
M  V30 1584 O 160.643 -0.0517803 1.81226 0
M  V30 1585 C 160.691 3.40274 1.19358 0
M  V30 1586 O 159.795 3.41676 2.30935 0
M  V30 1587 H 159.136 0.647944 0.145138 0
M  V30 1588 H 161.666 2.03779 -0.183156 0
M  V30 1589 H 161.676 3.78078 1.53365 0
M  V30 1590 H 160.351 4.13594 0.437385 0
M  V30 1591 H 158.928 3.15672 1.98509 0
M  V30 1592 N 161.113 -0.173488 1.56642 0
M  V30 1593 C 162.061 -1.23417 1.97157 0
M  V30 1594 C 163.055 -1.45946 0.860013 0
M  V30 1595 O 164.261 -1.46551 1.04512 0
M  V30 1596 H 160.636 -0.414818 0.62724 0
M  V30 1597 H 162.607 -0.865582 2.8557 0
M  V30 1598 C 161.356 -2.5665 2.34576 0
M  V30 1599 H 160.679 -2.40137 3.19647 0
M  V30 1600 H 162.119 -3.2956 2.6677 0
M  V30 1601 C 160.578 -3.15245 1.18836 0
M  V30 1602 O 161.108 -3.98883 0.474869 0
M  V30 1603 N 159.314 -2.74303 0.959497 0
M  V30 1604 H 158.861 -2.0639 1.54146 0
M  V30 1605 H 158.819 -3.13844 0.186932 0
M  V30 1606 N 162.591 -1.51276 -0.441967 0
M  V30 1607 C 163.838 -1.63715 -1.19179 0
M  V30 1608 C 164.166 -0.351175 -1.91303 0
M  V30 1609 O 163.421 0.664524 -1.84072 0
M  V30 1610 C 163.72 -2.78746 -2.23686 0
M  V30 1611 C 163.386 -4.18189 -1.68607 0
M  V30 1612 C 162.048 -4.56125 -1.53308 0
M  V30 1613 C 164.4 -5.05222 -1.28062 0
M  V30 1614 C 161.728 -5.78804 -0.959317 0
M  V30 1615 C 164.08 -6.28476 -0.721162 0
M  V30 1616 C 162.744 -6.65188 -0.55504 0
M  V30 1617 H 162.014 -0.599076 -0.436106 0
M  V30 1618 H 164.661 -1.85296 -0.48351 0
M  V30 1619 H 162.966 -2.51369 -3.00535 0
M  V30 1620 H 164.663 -2.8557 -2.81515 0
M  V30 1621 H 161.253 -3.88277 -1.8149 0
M  V30 1622 H 165.437 -4.76524 -1.38704 0
M  V30 1623 H 160.693 -6.05899 -0.81833 0
M  V30 1624 H 164.867 -6.95259 -0.398458 0
M  V30 1625 H 162.494 -7.60123 -0.108311 0
M  V30 1626 N 164.069 0.697108 -1.41344 0
M  V30 1627 C 165.318 1.45279 -1.39918 0
M  V30 1628 C 165.631 1.95597 -0.0109624 0
M  V30 1629 O 166.837 2.71208 0.125919 0
M  V30 1630 C 165.293 2.62695 -2.46007 0
M  V30 1631 C 164.901 2.19169 -3.90729 0
M  V30 1632 C 166.645 3.40336 -2.53715 0
M  V30 1633 C 164.552 3.33535 -4.88373 0
M  V30 1634 H 163.482 0.545692 -0.520323 0
M  V30 1635 H 166.133 0.756929 -1.67161 0
M  V30 1636 H 164.515 3.34541 -2.11892 0
M  V30 1637 H 165.689 1.54623 -4.34083 0
M  V30 1638 H 164.004 1.54525 -3.86666 0
M  V30 1639 H 166.601 4.2547 -3.2385 0
M  V30 1640 H 166.944 3.85418 -1.5735 0
M  V30 1641 H 167.477 2.75546 -2.86913 0
M  V30 1642 H 164.216 2.93468 -5.86137 0
M  V30 1643 H 163.736 3.96936 -4.49668 0
M  V30 1644 H 165.415 3.99335 -5.09059 0
M  V30 1645 N 165.547 1.27147 0.931209 0
M  V30 1646 C 166.794 1.13278 1.67852 0
M  V30 1647 C 167.122 -0.32204 1.91815 0
M  V30 1648 O 166.377 -1.25224 1.50391 0
M  V30 1649 C 166.676 1.8579 3.05314 0
M  V30 1650 C 166.342 3.35657 3.01073 0
M  V30 1651 C 165.004 3.76536 2.99623 0
M  V30 1652 C 167.356 4.31299 2.92627 0
M  V30 1653 C 164.684 5.11426 2.87506 0
M  V30 1654 C 167.036 5.66242 2.82051 0
M  V30 1655 C 165.7 6.06418 2.7895 0
M  V30 1656 H 164.97 0.414515 0.614214 0
M  V30 1657 H 167.617 1.57712 1.08624 0
M  V30 1658 H 165.922 1.33854 3.68226 0
M  V30 1659 H 167.619 1.72491 3.62005 0
M  V30 1660 H 164.209 3.03146 3.02986 0
M  V30 1661 H 168.393 4.00692 2.92848 0
M  V30 1662 H 163.649 5.41705 2.83489 0
M  V30 1663 H 167.823 6.40026 2.74481 0
M  V30 1664 H 165.45 7.10895 2.69318 0
M  V30 1665 N 167.025 -1.13721 1.09112 0
M  V30 1666 C 167.935 -2.22638 0.73957 0
M  V30 1667 C 168.951 -1.72091 -0.257068 0
M  V30 1668 O 170.127 -2.01155 -0.0992154 0
M  V30 1669 C 167.192 -3.46322 0.16191 0
M  V30 1670 C 166.253 -4.11775 1.21408 0
M  V30 1671 C 165.486 -5.29555 0.663891 0
M  V30 1672 O 165.709 -5.68077 -0.514274 0
M  V30 1673 O 164.643 -5.84973 1.41738 0
M  V30 1674 H 168.469 -2.55074 1.64836 0
M  V30 1675 H 166.054 -1.21791 0.865289 0
M  V30 1676 H 167.936 -4.21107 -0.157073 0
M  V30 1677 H 166.611 -3.15593 -0.719932 0
M  V30 1678 H 165.518 -3.3883 1.58571 0
M  V30 1679 H 166.851 -4.46627 2.06845 0
M  V30 1680 N 168.503 -0.877838 -1.30888 0
M  V30 1681 C 169.749 -0.493426 -1.96706 0
M  V30 1682 C 170.082 0.953504 -1.6918 0
M  V30 1683 O 169.357 1.67266 -0.992594 0
M  V30 1684 C 169.64 -0.760429 -3.51979 0
M  V30 1685 C 169.493 -2.25747 -3.89048 0
M  V30 1686 C 170.812 -0.232148 -4.39487 0
M  V30 1687 H 167.931 -0.180746 -0.714493 0
M  V30 1688 H 170.573 -1.10052 -1.54882 0
M  V30 1689 H 168.723 -0.243715 -3.87735 0
M  V30 1690 H 170.395 -2.84204 -3.63354 0
M  V30 1691 H 168.638 -2.72694 -3.37373 0
M  V30 1692 H 169.309 -2.39491 -4.97341 0
M  V30 1693 H 171.785 -0.674314 -4.106 0
M  V30 1694 H 170.661 -0.448355 -5.47066 0
M  V30 1695 H 170.922 0.866297 -4.33529 0
M  V30 1696 N 169.982 1.44106 -0.638065 0
M  V30 1697 C 171.393 1.85316 -0.226894 0
M  V30 1698 C 171.744 1.53399 1.22324 0
M  V30 1699 O 170.869 0.975463 1.93167 0
M  V30 1700 C 171.464 3.3637 -0.405013 0
M  V30 1701 C 170.023 3.76369 -0.0482902 0
M  V30 1702 C 169.17 2.67921 -0.715108 0
M  V30 1703 H 172.121 1.34474 -0.842764 0
M  V30 1704 H 172.142 3.7885 0.354 0
M  V30 1705 H 171.654 3.59569 -1.46053 0
M  V30 1706 H 169.755 3.58784 1.00522 0
M  V30 1707 H 169.868 4.76856 -0.463187 0
M  V30 1708 H 168.232 2.54259 -0.149753 0
M  V30 1709 H 169.015 2.93951 -1.77335 0
M  V30 1710 N 171.46 0.379036 1.52974 0
M  V30 1711 C 172.706 -0.199244 2.02422 0
M  V30 1712 C 173.061 -1.4532 1.26095 0
M  V30 1713 O 172.354 -1.88377 0.34996 0
M  V30 1714 C 172.548 -0.53096 3.53434 0
M  V30 1715 C 172.377 0.689298 4.44386 0
M  V30 1716 C 171.147 1.20546 4.9071 0
M  V30 1717 C 173.345 1.55856 4.90116 0
M  V30 1718 N 171.327 2.38434 5.65705 0
M  V30 1719 C 172.698 2.58396 5.63588 0
M  V30 1720 C 174.753 1.57986 4.7217 0
M  V30 1721 C 173.456 3.62939 6.21022 0
M  V30 1722 C 175.482 2.6143 5.30479 0
M  V30 1723 C 174.844 3.62693 6.03849 0
M  V30 1724 H 170.943 -0.0352671 0.781204 0
M  V30 1725 H 173.527 0.526614 1.87443 0
M  V30 1726 H 171.698 -1.22588 3.68547 0
M  V30 1727 H 173.43 -1.0955 3.89591 0
M  V30 1728 H 170.185 0.768022 4.67331 0
M  V30 1729 H 170.609 2.98055 6.07859 0
M  V30 1730 H 175.251 0.810475 4.14959 0
M  V30 1731 H 172.969 4.40751 6.77321 0
M  V30 1732 H 176.555 2.63949 5.18481 0
M  V30 1733 H 175.435 4.41424 6.48163 0
M  V30 1734 N 172.938 -1.57226 0.108567 0
M  V30 1735 C 174.178 -1.96717 -0.555155 0
M  V30 1736 C 174.542 -0.990003 -1.64508 0
M  V30 1737 O 175.743 -1.2739 -2.36696 0
M  V30 1738 C 174.014 -3.40575 -1.08367 0
M  V30 1739 S 175.573 -4.02072 -1.75737 0
M  V30 1740 H 172.391 -0.687638 -0.180762 0
M  V30 1741 H 174.993 -1.94563 0.191172 0
M  V30 1742 H 173.697 -4.0945 -0.279092 0
M  V30 1743 H 173.228 -3.46356 -1.86551 0
M  V30 1744 H 175.243 -3.91977 -3.04251 0
M  V30 1745 N 174.416 0.165178 -1.56732 0
M  V30 1746 C 175.663 0.880807 -1.8234 0
M  V30 1747 C 175.991 1.81977 -0.686621 0
M  V30 1748 O 175.246 1.92971 0.325697 0
M  V30 1749 C 175.545 1.70405 -3.1416 0
M  V30 1750 C 175.211 0.913475 -4.4155 0
M  V30 1751 C 173.873 0.695303 -4.7615 0
M  V30 1752 C 176.225 0.359349 -5.1996 0
M  V30 1753 C 173.553 -0.0879947 -5.86634 0
M  V30 1754 C 175.905 -0.410893 -6.31264 0
M  V30 1755 C 174.569 -0.639808 -6.64427 0
M  V30 1756 H 173.839 0.32231 -0.667231 0
M  V30 1757 H 176.486 0.145402 -1.90947 0
M  V30 1758 H 174.791 2.50903 -3.00923 0
M  V30 1759 H 176.488 2.26091 -3.31186 0
M  V30 1760 H 173.078 1.09357 -4.14414 0
M  V30 1761 H 177.262 0.515228 -4.93618 0
M  V30 1762 H 172.518 -0.27503 -6.10781 0
M  V30 1763 H 176.692 -0.847494 -6.91224 0
M  V30 1764 H 174.319 -1.24864 -7.49875 0
M  V30 1765 N 175.894 1.51508 0.433938 0
M  V30 1766 C 177.141 1.64345 1.18309 0
M  V30 1767 C 177.469 0.361315 1.91115 0
M  V30 1768 O 176.724 -0.654753 1.84422 0
M  V30 1769 C 177.023 2.79928 2.22205 0
M  V30 1770 C 176.689 4.19078 1.66387 0
M  V30 1771 C 175.351 4.56932 1.50887 0
M  V30 1772 C 177.703 5.05894 1.25381 0
M  V30 1773 C 175.031 5.79305 0.928608 0
M  V30 1774 C 177.383 6.2885 0.687823 0
M  V30 1775 C 176.047 6.65473 0.519755 0
M  V30 1776 H 175.317 0.601381 0.432923 0
M  V30 1777 H 177.964 1.85549 0.473676 0
M  V30 1778 H 176.269 2.52959 2.99197 0
M  V30 1779 H 177.966 2.87059 2.79997 0
M  V30 1780 H 174.556 3.89234 1.79428 0
M  V30 1781 H 178.74 4.77253 1.36175 0
M  V30 1782 H 173.996 6.06324 0.786186 0
M  V30 1783 H 178.17 6.95461 0.361581 0
M  V30 1784 H 175.797 7.6017 0.0679979 0
M  V30 1785 N 177.372 -0.689602 1.41712 0
M  V30 1786 C 178.783 -1.26973 1.36875 0
M  V30 1787 C 179.134 -1.96124 0.054748 0
M  V30 1788 O 178.259 -1.99141 -0.84687 0
M  V30 1789 C 178.854 -2.30912 2.47922 0
M  V30 1790 C 177.413 -2.84486 2.46464 0
M  V30 1791 C 176.56 -1.58603 2.27465 0
M  V30 1792 H 179.511 -0.48396 1.51141 0
M  V30 1793 H 179.532 -3.12331 2.17323 0
M  V30 1794 H 179.044 -1.80554 3.43543 0
M  V30 1795 H 177.145 -3.39005 1.54617 0
M  V30 1796 H 177.258 -3.34511 3.42986 0
M  V30 1797 H 175.622 -1.84632 1.75451 0
M  V30 1798 H 176.405 -1.10233 3.25121 0
M  V30 1799 N 178.85 -1.27639 -0.924453 0
M  V30 1800 C 179.797 -1.10644 -2.0255 0
M  V30 1801 C 180.767 -0.00658438 -1.66099 0
M  V30 1802 O 181.952 -0.16952 -1.90045 0
M  V30 1803 C 179.092 -0.76309 -3.36557 0
M  V30 1804 C 178.205 -1.94091 -3.85944 0
M  V30 1805 C 177.34 -1.53914 -5.08413 0
M  V30 1806 C 176.379 -2.68425 -5.50104 0
M  V30 1807 N 175.516 -2.28815 -6.63768 0
M  V30 1808 H 180.356 -2.04858 -2.16419 0
M  V30 1809 H 177.893 -1.01974 -1.06017 0
M  V30 1810 H 179.851 -0.544822 -4.13627 0
M  V30 1811 H 178.481 0.142102 -3.22487 0
M  V30 1812 H 177.533 -2.27162 -3.05125 0
M  V30 1813 H 178.845 -2.7998 -4.12811 0
M  V30 1814 H 177.999 -1.28231 -5.92994 0
M  V30 1815 H 176.738 -0.651391 -4.8333 0
M  V30 1816 H 175.743 -2.94819 -4.64071 0
M  V30 1817 H 176.968 -3.57826 -5.7718 0
M  V30 1818 H 174.914 -1.42495 -6.40337 0
M  V30 1819 H 174.831 -3.08242 -6.90306 0
M  V30 1820 H 176.099 -2.06387 -7.51681 0
M  V30 1821 N 180.328 1.1314 -1.09713 0
M  V30 1822 C 181.553 1.88862 -0.857081 0
M  V30 1823 C 181.978 1.78729 0.586304 0
M  V30 1824 O 181.336 1.13692 1.41222 0
M  V30 1825 C 181.384 3.36325 -1.30069 0
M  V30 1826 O 180.488 4.09815 -0.461007 0
M  V30 1827 H 179.829 0.587108 -0.310162 0
M  V30 1828 H 182.359 1.43129 -1.46203 0
M  V30 1829 H 182.369 3.87157 -1.28738 0
M  V30 1830 H 181.044 3.43017 -2.35185 0
M  V30 1831 H 179.621 3.68986 -0.538888 0
M  V30 1832 N 181.806 0.884767 1.30421 0
M  V30 1833 C 183.052 0.503851 1.96441 0
M  V30 1834 C 183.385 -0.944518 1.69684 0
M  V30 1835 O 182.66 -1.66737 1.00145 0
M  V30 1836 C 182.943 0.779085 3.51571 0
M  V30 1837 C 182.796 2.27807 3.87846 0
M  V30 1838 C 184.115 0.255452 4.39358 0
M  V30 1839 H 181.234 0.184533 0.713524 0
M  V30 1840 H 183.876 1.10872 1.54297 0
M  V30 1841 H 182.026 0.264274 3.876 0
M  V30 1842 H 183.698 2.86127 3.61841 0
M  V30 1843 H 181.941 2.74479 3.35922 0
M  V30 1844 H 182.612 2.42125 4.96064 0
M  V30 1845 H 185.088 0.696079 4.10236 0
M  V30 1846 H 183.964 0.477361 5.4682 0
M  V30 1847 H 184.225 -0.843293 4.33983 0
M  V30 1848 N 183.284 -1.43765 0.645699 0
M  V30 1849 C 184.194 -2.34544 -0.0512957 0
M  V30 1850 C 185.21 -1.53455 -0.82022 0
M  V30 1851 O 186.386 -1.86133 -0.769176 0
M  V30 1852 C 183.451 -3.31636 -1.01087 0
M  V30 1853 C 182.512 -4.2863 -0.239712 0
M  V30 1854 C 181.745 -5.21084 -1.15358 0
M  V30 1855 O 181.968 -5.1779 -2.39269 0
M  V30 1856 O 180.902 -5.98593 -0.630038 0
M  V30 1857 H 184.728 -2.95624 0.695718 0
M  V30 1858 H 182.313 -1.43781 0.405882 0
M  V30 1859 H 184.195 -3.9136 -1.56254 0
M  V30 1860 H 182.87 -2.73069 -1.73824 0
M  V30 1861 H 181.777 -3.72408 0.355356 0
M  V30 1862 H 183.11 -4.90157 0.447936 0
M  V30 1863 N 184.763 -0.387143 -1.52771 0
M  V30 1864 C 186.04 0.253197 -1.93954 0
M  V30 1865 C 186.42 1.64545 -1.32243 0
M  V30 1866 O 185.768 2.23191 -0.489699 0
M  V30 1867 C 185.978 0.281722 -3.47861 0
M  V30 1868 C 187.326 0.511715 -4.21505 0
M  V30 1869 O 188.35 0.362023 -3.54356 0
M  V30 1870 O 187.209 0.804847 -5.40541 0
M  V30 1871 H 184.303 0.156845 -0.811991 0
M  V30 1872 H 186.849 -0.441494 -1.63856 0
M  V30 1873 H 185.621 -0.693571 -3.85104 0
M  V30 1874 H 185.244 1.02142 -3.84256 0
M  V30 1875 N 186.241 1.57166 -0.116904 0
M  V30 1876 C 187.481 1.97008 0.544715 0
M  V30 1877 C 187.845 0.998713 1.63981 0
M  V30 1878 O 189.046 1.28644 2.36018 0
M  V30 1879 C 187.317 3.41145 1.06559 0
M  V30 1880 S 188.876 4.02998 1.73603 0
M  V30 1881 H 185.694 0.688587 0.177112 0
M  V30 1882 H 188.296 1.94459 -0.201487 0
M  V30 1883 H 187 4.09592 0.257374 0
M  V30 1884 H 186.531 3.4734 1.84712 0
M  V30 1885 H 188.546 3.93585 3.02168 0
M  V30 1886 N 187.719 -0.156864 1.56817 0
M  V30 1887 C 188.669 -1.19891 1.93934 0
M  V30 1888 C 189.653 -1.39061 0.809372 0
M  V30 1889 O 190.845 -1.40789 1.07273 0
M  V30 1890 C 187.974 -2.53493 2.31508 0
M  V30 1891 C 187.06 -2.37957 3.51052 0
M  V30 1892 N 187.451 -1.92158 4.67877 0
M  V30 1893 C 185.749 -2.68739 3.55943 0
M  V30 1894 C 186.45 -1.8943 5.49992 0
M  V30 1895 N 185.426 -2.32375 4.91429 0
M  V30 1896 H 189.228 -0.836746 2.81737 0
M  V30 1897 H 186.742 -0.365012 1.58245 0
M  V30 1898 H 188.739 -3.28811 2.56299 0
M  V30 1899 H 187.399 -2.905 1.45051 0
M  V30 1900 H 188.41 -1.62274 4.91821 0
M  V30 1901 H 185.087 -3.09687 2.80001 0
M  V30 1902 H 186.477 -1.55596 6.53636 0
M  V30 1903 N 189.197 -1.51736 -0.425897 0
M  V30 1904 C 190.427 -1.68549 -1.19476 0
M  V30 1905 C 190.835 -0.387288 -1.85194 0
M  V30 1906 O 190.178 0.645142 -1.71999 0
M  V30 1907 C 190.24 -2.75275 -2.31223 0
M  V30 1908 C 189.904 -4.17534 -1.8578 0
M  V30 1909 C 190.901 -5.01936 -1.35485 0
M  V30 1910 C 188.586 -4.6369 -1.93123 0
M  V30 1911 C 190.58 -6.30559 -0.931347 0
M  V30 1912 C 188.267 -5.92307 -1.50384 0
M  V30 1913 C 189.265 -6.75569 -1.00473 0
M  V30 1914 O 188.953 -8.0178 -0.583452 0
M  V30 1915 H 188.685 -0.568525 -0.365725 0
M  V30 1916 H 191.239 -1.98982 -0.509444 0
M  V30 1917 H 189.469 -2.40182 -3.03067 0
M  V30 1918 H 191.158 -2.80853 -2.93047 0
M  V30 1919 H 191.924 -4.67475 -1.29197 0
M  V30 1920 H 187.803 -3.98997 -2.30916 0
M  V30 1921 H 191.347 -6.95498 -0.541084 0
M  V30 1922 H 187.244 -6.2628 -1.56346 0
M  V30 1923 H 188.012 -8.1543 -0.708275 0
M  V30 1924 O 190.714 0.571711 -1.51042 0
M  V30 1925 H 191.405 1.22676 -1.49901 0
M  V30 END ATOM
M  V30 BEGIN BOND
M  V30 END BOND
M  V30 END CTAB
M  END
$$$$
