drugbank_drug|DB06692 Aprotinin (bovine pancreatic trypsin inhibitor)
 OpenBabel12092119113D

898909  0  0  0  0  0  0  0  0999 V2000
   -0.9080    1.9825   -0.1171 H   0  0  0  0  0 15  0  0  0  0  0  0
    0.0000    1.5760    0.0000 N   0  0  0  0  0 15  0  0  0  0  0  0
    1.4160    1.5558    0.3561 C   0  0  0  0  0 15  0  0  0  0  0  0
    1.6160    1.0026    1.7479 C   0  0  0  0  0 15  0  0  0  0  0  0
    0.6720    0.6364    2.4435 O   0  0  0  0  0 15  0  0  0  0  0  0
    1.9850    2.9981    0.2313 C   0  0  0  0  0 15  0  0  0  0  0  0
    3.5330    3.1150    0.3062 C   0  0  0  0  0 15  0  0  0  0  0  0
    4.0080    4.5752    0.2106 C   0  0  0  0  0 15  0  0  0  0  0  0
    5.4990    4.6242    0.2685 N   0  0  0  0  0 15  0  0  0  0  0  0
    6.2340    5.7299    0.2178 C   0  0  0  0  0 15  0  0  0  0  0  0
    5.7300    6.9270    0.1178 N   0  0  0  0  0 15  0  0  0  0  0  0
    7.5230    5.6145    0.2697 N   0  0  0  0  0 15  0  0  0  0  0  0
   -0.3260    1.9190   -0.9105 H   0  0  0  0  0 15  0  0  0  0  0  0
    1.9370    0.8814   -0.3490 H   0  0  0  0  0 15  0  0  0  0  0  0
    1.6430    3.4412   -0.7263 H   0  0  0  0  0 15  0  0  0  0  0  0
    1.5170    3.6333    1.0134 H   0  0  0  0  0 15  0  0  0  0  0  0
    3.9040    2.6712    1.2543 H   0  0  0  0  0 15  0  0  0  0  0  0
    3.9850    2.5075   -0.5057 H   0  0  0  0  0 15  0  0  0  0  0  0
    3.6290    5.0257   -0.7339 H   0  0  0  0  0 15  0  0  0  0  0  0
    3.5590    5.1621    1.0410 H   0  0  0  0  0 15  0  0  0  0  0  0
    6.0500    3.7630    0.3472 H   0  0  0  0  0 15  0  0  0  0  0  0
    6.3630    7.7275    0.0850 H   0  0  0  0  0 15  0  0  0  0  0  0
    4.7080    6.9495    0.0834 H   0  0  0  0  0 15  0  0  0  0  0  0
    7.8990    4.6682    0.3461 H   0  0  0  0  0 15  0  0  0  0  0  0
    8.0720    6.4760    0.2268 H   0  0  0  0  0 15  0  0  0  0  0  0
    1.4781   -0.2728    1.5522 N   0  0  0  0  0 15  0  0  0  0  0  0
    2.8891   -0.8438    1.6655 C   0  0  0  0  0 15  0  0  0  0  0  0
    3.2401   -1.8704    0.5926 C   0  0  0  0  0 15  0  0  0  0  0  0
    2.3651   -2.1476   -0.2658 O   0  0  0  0  0 15  0  0  0  0  0  0
    2.9601   -1.5372    3.0192 C   0  0  0  0  0 15  0  0  0  0  0  0
    1.5191   -2.0563    3.1527 C   0  0  0  0  0 15  0  0  0  0  0  0
    0.6661   -0.8984    2.6234 C   0  0  0  0  0 15  0  0  0  0  0  0
    3.6171   -0.0491    1.5862 H   0  0  0  0  0 15  0  0  0  0  0  0
    3.6381   -2.4042    2.9492 H   0  0  0  0  0 15  0  0  0  0  0  0
    3.1501   -0.7898    3.7998 H   0  0  0  0  0 15  0  0  0  0  0  0
    1.2511   -2.8333    2.4198 H   0  0  0  0  0 15  0  0  0  0  0  0
    1.3641   -2.2714    4.2183 H   0  0  0  0  0 15  0  0  0  0  0  0
   -0.2719   -1.2919    2.1951 H   0  0  0  0  0 15  0  0  0  0  0  0
    0.5111   -0.1645    3.4291 H   0  0  0  0  0 15  0  0  0  0  0  0
    2.9562   -1.4816   -0.5373 N   0  0  0  0  0 15  0  0  0  0  0  0
    4.2332   -1.4629   -1.2984 C   0  0  0  0  0 15  0  0  0  0  0  0
    4.6132   -0.1706   -2.1041 C   0  0  0  0  0 15  0  0  0  0  0  0
    3.9612    0.8477   -2.1219 O   0  0  0  0  0 15  0  0  0  0  0  0
    4.1712   -2.7205   -2.1860 C   0  0  0  0  0 15  0  0  0  0  0  0
    5.5192   -3.2009   -2.7898 C   0  0  0  0  0 15  0  0  0  0  0  0
    6.5432   -2.7292   -2.2889 O   0  0  0  0  0 15  0  0  0  0  0  0
    5.4022   -4.0214   -3.7006 O   0  0  0  0  0 15  0  0  0  0  0  0
    2.4962   -0.5839   -0.5856 H   0  0  0  0  0 15  0  0  0  0  0  0
    5.0422   -1.6038   -0.5545 H   0  0  0  0  0 15  0  0  0  0  0  0
    3.8142   -3.5763   -1.5880 H   0  0  0  0  0 15  0  0  0  0  0  0
    3.4372   -2.6065   -3.0025 H   0  0  0  0  0 15  0  0  0  0  0  0
    4.4343    0.7856   -1.3662 N   0  0  0  0  0 15  0  0  0  0  0  0
    5.6813    1.5436   -1.3107 C   0  0  0  0  0 15  0  0  0  0  0  0
    6.0093    1.9419    0.1089 C   0  0  0  0  0 15  0  0  0  0  0  0
    5.2643    1.6326    1.0791 O   0  0  0  0  0 15  0  0  0  0  0  0
    5.5633    2.8301   -2.1827 C   0  0  0  0  0 15  0  0  0  0  0  0
    5.2293    2.6229   -3.6676 C   0  0  0  0  0 15  0  0  0  0  0  0
    3.8913    2.5635   -4.0723 C   0  0  0  0  0 15  0  0  0  0  0  0
    6.2433    2.4337   -4.6089 C   0  0  0  0  0 15  0  0  0  0  0  0
    3.5713    2.2946   -5.3997 C   0  0  0  0  0 15  0  0  0  0  0  0
    5.9233    2.1800   -5.9385 C   0  0  0  0  0 15  0  0  0  0  0  0
    4.5873    2.1050   -6.3344 C   0  0  0  0  0 15  0  0  0  0  0  0
    3.8573    0.5649   -0.4796 H   0  0  0  0  0 15  0  0  0  0  0  0
    6.5043    0.9060   -1.6871 H   0  0  0  0  0 15  0  0  0  0  0  0
    4.8093    3.5125   -1.7358 H   0  0  0  0  0 15  0  0  0  0  0  0
    6.5063    3.4082   -2.1129 H   0  0  0  0  0 15  0  0  0  0  0  0
    3.0963    2.6777   -3.3466 H   0  0  0  0  0 15  0  0  0  0  0  0
    7.2803    2.4696   -4.3049 H   0  0  0  0  0 15  0  0  0  0  0  0
    2.5363    2.2214   -5.6962 H   0  0  0  0  0 15  0  0  0  0  0  0
    6.7103    2.0236   -6.6635 H   0  0  0  0  0 15  0  0  0  0  0  0
    4.3373    1.8942   -7.3622 H   0  0  0  0  0 15  0  0  0  0  0  0
    5.9124    1.2097    1.0102 N   0  0  0  0  0 15  0  0  0  0  0  0
    7.1524    1.0351    1.7625 C   0  0  0  0  0 15  0  0  0  0  0  0
    7.5164   -0.4246    1.8725 C   0  0  0  0  0 15  0  0  0  0  0  0
    8.7174   -0.7195    2.5899 O   0  0  0  0  0 15  0  0  0  0  0  0
    6.9884    1.7073    3.1399 C   0  0  0  0  0 15  0  0  0  0  0  0
    8.5474    1.6846    4.0518 S   0  0  0  0  0 15  0  0  0  0  0  0
    5.3654    0.3710    0.6065 H   0  0  0  0  0 15  0  0  0  0  0  0
    7.9674    1.5363    1.2091 H   0  0  0  0  0 15  0  0  0  0  0  0
    6.6714    2.7613    3.0361 H   0  0  0  0  0 15  0  0  0  0  0  0
    6.2024    1.2077    3.7440 H   0  0  0  0  0 15  0  0  0  0  0  0
    8.2174    0.7220    4.9092 H   0  0  0  0  0 15  0  0  0  0  0  0
    7.3905   -1.2043    1.0166 N   0  0  0  0  0 15  0  0  0  0  0  0
    8.3205   -2.2547    0.6072 C   0  0  0  0  0 15  0  0  0  0  0  0
    9.3015   -1.6585   -0.3777 C   0  0  0  0  0 15  0  0  0  0  0  0
   10.4865   -1.9241   -0.2631 O   0  0  0  0  0 15  0  0  0  0  0  0
    7.6165   -3.4726   -0.0553 C   0  0  0  0  0 15  0  0  0  0  0  0
    6.5705   -4.1946    0.8506 C   0  0  0  0  0 15  0  0  0  0  0  0
    5.8965   -5.3467    0.0539 C   0  0  0  0  0 15  0  0  0  0  0  0
    7.1965   -4.7560    2.1587 C   0  0  0  0  0 15  0  0  0  0  0  0
    8.8905   -2.5996    1.4853 H   0  0  0  0  0 15  0  0  0  0  0  0
    6.4365   -1.2496    0.7156 H   0  0  0  0  0 15  0  0  0  0  0  0
    8.3895   -4.1992   -0.3532 H   0  0  0  0  0 15  0  0  0  0  0  0
    7.1135   -3.1192   -0.9680 H   0  0  0  0  0 15  0  0  0  0  0  0
    5.7725   -3.4867    1.1326 H   0  0  0  0  0 15  0  0  0  0  0  0
    5.4205   -4.9558   -0.8605 H   0  0  0  0  0 15  0  0  0  0  0  0
    5.1205   -5.8391    0.6572 H   0  0  0  0  0 15  0  0  0  0  0  0
    6.6445   -6.1014   -0.2376 H   0  0  0  0  0 15  0  0  0  0  0  0
    8.0585   -5.4008    1.9231 H   0  0  0  0  0 15  0  0  0  0  0  0
    6.4555   -5.3528    2.7128 H   0  0  0  0  0 15  0  0  0  0  0  0
    7.5255   -3.9435    2.8217 H   0  0  0  0  0 15  0  0  0  0  0  0
    8.8686   -0.7928   -1.3621 N   0  0  0  0  0 15  0  0  0  0  0  0
    9.7786   -0.1948   -2.3379 C   0  0  0  0  0 15  0  0  0  0  0  0
   10.7946    0.6549   -1.6121 C   0  0  0  0  0 15  0  0  0  0  0  0
   11.9706    0.5699   -1.9317 O   0  0  0  0  0 15  0  0  0  0  0  0
    9.0356    0.6577   -3.4040 C   0  0  0  0  0 15  0  0  0  0  0  0
    8.0966   -0.2108   -4.2878 C   0  0  0  0  0 15  0  0  0  0  0  0
    7.3296    0.6011   -5.3030 C   0  0  0  0  0 15  0  0  0  0  0  0
    7.5526    1.8368   -5.4002 O   0  0  0  0  0 15  0  0  0  0  0  0
    6.4866   -0.0008   -6.0190 O   0  0  0  0  0 15  0  0  0  0  0  0
   10.3126   -1.0017   -2.8670 H   0  0  0  0  0 15  0  0  0  0  0  0
    7.8976   -0.5543   -1.3874 H   0  0  0  0  0 15  0  0  0  0  0  0
    9.7796    1.1438   -4.0558 H   0  0  0  0  0 15  0  0  0  0  0  0
    8.4546    1.4425   -2.8978 H   0  0  0  0  0 15  0  0  0  0  0  0
    7.3616   -0.7437   -3.6663 H   0  0  0  0  0 15  0  0  0  0  0  0
    8.6946   -0.9592   -4.8276 H   0  0  0  0  0 15  0  0  0  0  0  0
   10.3467    1.4787   -0.5451 N   0  0  0  0  0 15  0  0  0  0  0  0
   11.7577    1.8638   -0.1086 C   0  0  0  0  0 15  0  0  0  0  0  0
   12.1087    1.4531    1.3183 C   0  0  0  0  0 15  0  0  0  0  0  0
   11.2337    0.8506    1.9898 O   0  0  0  0  0 15  0  0  0  0  0  0
   11.8287    3.3827   -0.1903 C   0  0  0  0  0 15  0  0  0  0  0  0
   10.3877    3.7591    0.1912 C   0  0  0  0  0 15  0  0  0  0  0  0
    9.5347    2.7193   -0.5433 C   0  0  0  0  0 15  0  0  0  0  0  0
   12.4857    1.3956   -0.7555 H   0  0  0  0  0 15  0  0  0  0  0  0
   12.5067    3.7583    0.5942 H   0  0  0  0  0 15  0  0  0  0  0  0
   12.0187    3.6813   -1.2289 H   0  0  0  0  0 15  0  0  0  0  0  0
   10.1197    3.5167    1.2314 H   0  0  0  0  0 15  0  0  0  0  0  0
   10.2327    4.7884   -0.1590 H   0  0  0  0  0 15  0  0  0  0  0  0
    8.5967    2.5470    0.0122 H   0  0  0  0  0 15  0  0  0  0  0  0
    9.3797    3.0463   -1.5828 H   0  0  0  0  0 15  0  0  0  0  0  0
   11.8248    0.2810    1.5507 N   0  0  0  0  0 15  0  0  0  0  0  0
   13.2358   -0.2156    1.8545 C   0  0  0  0  0 15  0  0  0  0  0  0
   13.5868   -1.5499    1.2030 C   0  0  0  0  0 15  0  0  0  0  0  0
   12.7118   -2.1070    0.4934 O   0  0  0  0  0 15  0  0  0  0  0  0
   13.3068   -0.3980    3.3645 C   0  0  0  0  0 15  0  0  0  0  0  0
   11.8658   -0.8389    3.6693 C   0  0  0  0  0 15  0  0  0  0  0  0
   11.0128    0.0645    2.7723 C   0  0  0  0  0 15  0  0  0  0  0  0
   13.9638    0.5026    1.5053 H   0  0  0  0  0 15  0  0  0  0  0  0
   13.9848   -1.2357    3.5988 H   0  0  0  0  0 15  0  0  0  0  0  0
   13.4968    0.5732    3.8384 H   0  0  0  0  0 15  0  0  0  0  0  0
   11.5978   -1.8214    3.2505 H   0  0  0  0  0 15  0  0  0  0  0  0
   11.7108   -0.6721    4.7436 H   0  0  0  0  0 15  0  0  0  0  0  0
   10.0748   -0.4529    2.5064 H   0  0  0  0  0 15  0  0  0  0  0  0
   10.8578    1.0317    3.2743 H   0  0  0  0  0 15  0  0  0  0  0  0
   13.3029   -1.5760    0.0084 N   0  0  0  0  0 15  0  0  0  0  0  0
   14.5329   -1.9493   -0.6845 C   0  0  0  0  0 15  0  0  0  0  0  0
   14.9409   -0.8822   -1.6737 C   0  0  0  0  0 15  0  0  0  0  0  0
   14.2839    0.1466   -1.8311 O   0  0  0  0  0 15  0  0  0  0  0  0
   14.3459   -3.2830   -1.4649 C   0  0  0  0  0 15  0  0  0  0  0  0
   14.0099   -4.5255   -0.6363 C   0  0  0  0  0 15  0  0  0  0  0  0
   15.0069   -5.1984    0.0796 C   0  0  0  0  0 15  0  0  0  0  0  0
   12.6919   -4.9894   -0.5798 C   0  0  0  0  0 15  0  0  0  0  0  0
   14.6859   -6.3183    0.8408 C   0  0  0  0  0 15  0  0  0  0  0  0
   12.3729   -6.1082    0.1852 C   0  0  0  0  0 15  0  0  0  0  0  0
   13.3709   -6.7712    0.8942 C   0  0  0  0  0 15  0  0  0  0  0  0
   13.0589   -7.8685    1.6467 O   0  0  0  0  0 15  0  0  0  0  0  0
   12.7909   -0.6472   -0.1950 H   0  0  0  0  0 15  0  0  0  0  0  0
   15.3449   -2.0532    0.0581 H   0  0  0  0  0 15  0  0  0  0  0  0
   13.5749   -3.1435   -2.2522 H   0  0  0  0  0 15  0  0  0  0  0  0
   15.2639   -3.5069   -2.0439 H   0  0  0  0  0 15  0  0  0  0  0  0
   16.0299   -4.8498    0.0451 H   0  0  0  0  0 15  0  0  0  0  0  0
   11.9089   -4.4716   -1.1213 H   0  0  0  0  0 15  0  0  0  0  0  0
   15.4529   -6.8351    1.3948 H   0  0  0  0  0 15  0  0  0  0  0  0
   11.3499   -6.4512    0.2214 H   0  0  0  0  0 15  0  0  0  0  0  0
   12.1179   -8.0341    1.5643 H   0  0  0  0  0 15  0  0  0  0  0  0
   14.7810    0.2645   -1.5536 N   0  0  0  0  0 15  0  0  0  0  0  0
   16.0090    1.0130   -1.8040 C   0  0  0  0  0 15  0  0  0  0  0  0
   16.4240    1.7962   -0.5816 C   0  0  0  0  0 15  0  0  0  0  0  0
   15.7810    1.7688    0.4495 O   0  0  0  0  0 15  0  0  0  0  0  0
   15.8320    1.9649   -3.0344 C   0  0  0  0  0 15  0  0  0  0  0  0
   15.5530    1.2134   -4.2096 O   0  0  0  0  0 15  0  0  0  0  0  0
   17.0540    2.8308   -3.4115 C   0  0  0  0  0 15  0  0  0  0  0  0
   14.2740    0.2989   -0.6008 H   0  0  0  0  0 15  0  0  0  0  0  0
   16.8180    0.2927   -2.0239 H   0  0  0  0  0 15  0  0  0  0  0  0
   14.9730    2.6396   -2.8355 H   0  0  0  0  0 15  0  0  0  0  0  0
   15.3870    1.8557   -4.9057 H   0  0  0  0  0 15  0  0  0  0  0  0
   16.8610    3.4565   -4.3038 H   0  0  0  0  0 15  0  0  0  0  0  0
   17.3380    3.5329   -2.6093 H   0  0  0  0  0 15  0  0  0  0  0  0
   17.9440    2.2108   -3.6332 H   0  0  0  0  0 15  0  0  0  0  0  0
   16.2591    1.4844    0.5294 N   0  0  0  0  0 15  0  0  0  0  0  0
   17.5071    1.5618    1.2827 C   0  0  0  0  0 15  0  0  0  0  0  0
   17.8281    0.2377    1.9355 C   0  0  0  0  0 15  0  0  0  0  0  0
   17.0981   -0.7408    1.8135 O   0  0  0  0  0 15  0  0  0  0  0  0
   15.6781    0.5754    0.4764 H   0  0  0  0  0 15  0  0  0  0  0  0
   18.3401    1.8491    0.6160 H   0  0  0  0  0 15  0  0  0  0  0  0
   17.4361    2.3431    2.0617 H   0  0  0  0  0 15  0  0  0  0  0  0
   17.7372   -0.7783    1.3704 N   0  0  0  0  0 15  0  0  0  0  0  0
   19.1482   -1.3542    1.2852 C   0  0  0  0  0 15  0  0  0  0  0  0
   19.4992   -1.9607   -0.0701 C   0  0  0  0  0 15  0  0  0  0  0  0
   18.6242   -1.9335   -0.9718 O   0  0  0  0  0 15  0  0  0  0  0  0
   19.2192   -2.4621    2.3273 C   0  0  0  0  0 15  0  0  0  0  0  0
   17.7782   -2.9958    2.2787 C   0  0  0  0  0 15  0  0  0  0  0  0
   16.9252   -1.7275    2.1692 C   0  0  0  0  0 15  0  0  0  0  0  0
   19.8762   -0.5791    1.4776 H   0  0  0  0  0 15  0  0  0  0  0  0
   19.8972   -3.2552    1.9702 H   0  0  0  0  0 15  0  0  0  0  0  0
   19.4092   -2.0204    3.3137 H   0  0  0  0  0 15  0  0  0  0  0  0
   17.5102   -3.4815    1.3274 H   0  0  0  0  0 15  0  0  0  0  0  0
   17.6232   -3.5565    3.2102 H   0  0  0  0  0 15  0  0  0  0  0  0
   15.9872   -1.9542    1.6335 H   0  0  0  0  0 15  0  0  0  0  0  0
   16.7702   -1.3069    3.1745 H   0  0  0  0  0 15  0  0  0  0  0  0
   19.2153   -1.2150   -1.0038 N   0  0  0  0  0 15  0  0  0  0  0  0
   20.4553   -1.0444   -1.7570 C   0  0  0  0  0 15  0  0  0  0  0  0
   20.8193    0.4146   -1.8747 C   0  0  0  0  0 15  0  0  0  0  0  0
   22.0203    0.7058   -2.5937 O   0  0  0  0  0 15  0  0  0  0  0  0
   20.2913   -1.7239   -3.1308 C   0  0  0  0  0 15  0  0  0  0  0  0
   21.8503   -1.7060   -4.0428 S   0  0  0  0  0 15  0  0  0  0  0  0
   18.6683   -0.3742   -0.6045 H   0  0  0  0  0 15  0  0  0  0  0  0
   21.2703   -1.5427   -1.2009 H   0  0  0  0  0 15  0  0  0  0  0  0
   19.9743   -2.7773   -3.0215 H   0  0  0  0  0 15  0  0  0  0  0  0
   19.5053   -1.2275   -3.7376 H   0  0  0  0  0 15  0  0  0  0  0  0
   21.5203   -0.7480   -4.9053 H   0  0  0  0  0 15  0  0  0  0  0  0
   20.6934    1.1989   -1.0230 N   0  0  0  0  0 15  0  0  0  0  0  0
   21.6404    2.2290   -0.5987 C   0  0  0  0  0 15  0  0  0  0  0  0
   22.6104    1.6159    0.3845 C   0  0  0  0  0 15  0  0  0  0  0  0
   23.7954    1.8870    0.2825 O   0  0  0  0  0 15  0  0  0  0  0  0
   20.9354    3.4506    0.0504 C   0  0  0  0  0 15  0  0  0  0  0  0
   20.0484    4.2078   -0.9781 C   0  0  0  0  0 15  0  0  0  0  0  0
   19.1834    5.3036   -0.2993 C   0  0  0  0  0 15  0  0  0  0  0  0
   18.2224    5.9783   -1.3142 C   0  0  0  0  0 15  0  0  0  0  0  0
   17.3594    6.9898   -0.6617 N   0  0  0  0  0 15  0  0  0  0  0  0
   22.1994    2.5855   -1.4817 H   0  0  0  0  0 15  0  0  0  0  0  0
   19.7364    1.2704   -0.7416 H   0  0  0  0  0 15  0  0  0  0  0  0
   21.6944    4.1483    0.4440 H   0  0  0  0  0 15  0  0  0  0  0  0
   20.3244    3.1008    0.8971 H   0  0  0  0  0 15  0  0  0  0  0  0
   19.3764    3.5002   -1.4897 H   0  0  0  0  0 15  0  0  0  0  0  0
   20.6884    4.6711   -1.7496 H   0  0  0  0  0 15  0  0  0  0  0  0
   19.8424    6.0652    0.1493 H   0  0  0  0  0 15  0  0  0  0  0  0
   18.5814    4.8508    0.5044 H   0  0  0  0  0 15  0  0  0  0  0  0
   17.5864    5.2042   -1.7732 H   0  0  0  0  0 15  0  0  0  0  0  0
   18.8114    6.4518   -2.1193 H   0  0  0  0  0 15  0  0  0  0  0  0
   16.7574    6.5589    0.1221 H   0  0  0  0  0 15  0  0  0  0  0  0
   16.6744    7.4346   -1.3712 H   0  0  0  0  0 15  0  0  0  0  0  0
   17.9424    7.7914   -0.2368 H   0  0  0  0  0 15  0  0  0  0  0  0
   22.1715    0.8000    1.3578 N   0  0  0  0  0 15  0  0  0  0  0  0
   23.1345    0.2116    2.2822 C   0  0  0  0  0 15  0  0  0  0  0  0
   24.1345   -0.5973    1.4930 C   0  0  0  0  0 15  0  0  0  0  0  0
   25.3245   -0.4167    1.6914 O   0  0  0  0  0 15  0  0  0  0  0  0
   22.4565   -0.7058    3.3351 C   0  0  0  0  0 15  0  0  0  0  0  0
   23.6495    1.0268    2.8178 H   0  0  0  0  0 15  0  0  0  0  0  0
   21.2025    0.5702    1.4553 H   0  0  0  0  0 15  0  0  0  0  0  0
   21.9375   -1.5450    2.8513 H   0  0  0  0  0 15  0  0  0  0  0  0
   21.7225   -0.1277    3.9189 H   0  0  0  0  0 15  0  0  0  0  0  0
   23.2125   -1.1121    4.0252 H   0  0  0  0  0 15  0  0  0  0  0  0
   23.6496   -1.4758    0.5530 N   0  0  0  0  0 15  0  0  0  0  0  0
   25.0656   -1.5818    0.2124 C   0  0  0  0  0 15  0  0  0  0  0  0
   25.2656   -1.5521   -1.2850 C   0  0  0  0  0 15  0  0  0  0  0  0
   24.3216   -1.4533   -2.0648 O   0  0  0  0  0 15  0  0  0  0  0  0
   25.6346   -2.8886    0.8353 C   0  0  0  0  0 15  0  0  0  0  0  0
   27.1826   -3.0244    0.8062 C   0  0  0  0  0 15  0  0  0  0  0  0
   27.6576   -4.3582    1.4080 C   0  0  0  0  0 15  0  0  0  0  0  0
   29.1486   -4.4244    1.3710 N   0  0  0  0  0 15  0  0  0  0  0  0
   29.8836   -5.4420    1.8064 C   0  0  0  0  0 15  0  0  0  0  0  0
   29.3796   -6.5279    2.3202 N   0  0  0  0  0 15  0  0  0  0  0  0
   31.1726   -5.3522    1.7174 N   0  0  0  0  0 15  0  0  0  0  0  0
   23.3236   -1.4775    1.5259 H   0  0  0  0  0 15  0  0  0  0  0  0
   25.5866   -0.7029    0.6361 H   0  0  0  0  0 15  0  0  0  0  0  0
   25.2926   -2.9676    1.8875 H   0  0  0  0  0 15  0  0  0  0  0  0
   25.1666   -3.7579    0.3258 H   0  0  0  0  0 15  0  0  0  0  0  0
   27.5536   -2.9414   -0.2373 H   0  0  0  0  0 15  0  0  0  0  0  0
   27.6346   -2.1707    1.3533 H   0  0  0  0  0 15  0  0  0  0  0  0
   27.2786   -4.4487    2.4506 H   0  0  0  0  0 15  0  0  0  0  0  0
   27.2086   -5.1992    0.8363 H   0  0  0  0  0 15  0  0  0  0  0  0
   29.6996   -3.6456    0.9952 H   0  0  0  0  0 15  0  0  0  0  0  0
   30.0126   -7.2661    2.6317 H   0  0  0  0  0 15  0  0  0  0  0  0
   28.3576   -6.5370    2.3602 H   0  0  0  0  0 15  0  0  0  0  0  0
   31.5486   -4.4928    1.3138 H   0  0  0  0  0 15  0  0  0  0  0  0
   31.7216   -6.1439    2.0599 H   0  0  0  0  0 15  0  0  0  0  0  0
   25.1277   -0.2892   -1.5492 N   0  0  0  0  0 15  0  0  0  0  0  0
   26.3767    0.3242   -1.9908 C   0  0  0  0  0 15  0  0  0  0  0  0
   26.6897    1.5591   -1.1812 C   0  0  0  0  0 15  0  0  0  0  0  0
   27.8957    2.2464   -1.5248 O   0  0  0  0  0 15  0  0  0  0  0  0
   26.3517    0.6282   -3.5437 C   0  0  0  0  0 15  0  0  0  0  0  0
   25.9597   -0.5876   -4.4413 C   0  0  0  0  0 15  0  0  0  0  0  0
   27.7037    1.2035   -4.0708 C   0  0  0  0  0 15  0  0  0  0  0  0
   25.6107   -0.2575   -5.9084 C   0  0  0  0  0 15  0  0  0  0  0  0
   24.5407    0.1249   -0.7436 H   0  0  0  0  0 15  0  0  0  0  0  0
   27.1917   -0.3961   -1.7917 H   0  0  0  0  0 15  0  0  0  0  0  0
   25.5737    1.4078   -3.7013 H   0  0  0  0  0 15  0  0  0  0  0  0
   26.7477   -1.3642   -4.4014 H   0  0  0  0  0 15  0  0  0  0  0  0
   25.0627   -1.0807   -4.0213 H   0  0  0  0  0 15  0  0  0  0  0  0
   27.6597    1.4646   -5.1425 H   0  0  0  0  0 15  0  0  0  0  0  0
   28.0027    2.1420   -3.5697 H   0  0  0  0  0 15  0  0  0  0  0  0
   28.5357    0.4859   -3.9482 H   0  0  0  0  0 15  0  0  0  0  0  0
   25.2747   -1.1642   -6.4508 H   0  0  0  0  0 15  0  0  0  0  0  0
   24.7947    0.4820   -5.9786 H   0  0  0  0  0 15  0  0  0  0  0  0
   26.4737    0.1452   -6.4684 H   0  0  0  0  0 15  0  0  0  0  0  0
   26.6058    1.5759   -0.0167 N   0  0  0  0  0 15  0  0  0  0  0  0
   27.8548    1.9046    0.6639 C   0  0  0  0  0 15  0  0  0  0  0  0
   28.1678    0.8935    1.7400 C   0  0  0  0  0 15  0  0  0  0  0  0
   29.3738    1.1130    2.4764 O   0  0  0  0  0 15  0  0  0  0  0  0
   27.8298    3.3816    1.2320 C   0  0  0  0  0 15  0  0  0  0  0  0
   27.4378    4.4760    0.1899 C   0  0  0  0  0 15  0  0  0  0  0  0
   29.1818    3.8011    1.8899 C   0  0  0  0  0 15  0  0  0  0  0  0
   27.0888    5.8638    0.7690 C   0  0  0  0  0 15  0  0  0  0  0  0
   26.0188    0.7107    0.2517 H   0  0  0  0  0 15  0  0  0  0  0  0
   28.6698    1.8333   -0.0800 H   0  0  0  0  0 15  0  0  0  0  0  0
   27.0518    3.4018    2.0271 H   0  0  0  0  0 15  0  0  0  0  0  0
   28.2258    4.5711   -0.5818 H   0  0  0  0  0 15  0  0  0  0  0  0
   26.5408    4.1477   -0.3685 H   0  0  0  0  0 15  0  0  0  0  0  0
   29.1378    4.8114    2.3325 H   0  0  0  0  0 15  0  0  0  0  0  0
   29.4808    3.1451    2.7274 H   0  0  0  0  0 15  0  0  0  0  0  0
   30.0138    3.8045    1.1619 H   0  0  0  0  0 15  0  0  0  0  0  0
   26.7528    6.5549   -0.0302 H   0  0  0  0  0 15  0  0  0  0  0  0
   26.2728    5.8050    1.5094 H   0  0  0  0  0 15  0  0  0  0  0  0
   27.9518    6.3456    1.2625 H   0  0  0  0  0 15  0  0  0  0  0  0
   28.0839   -0.2563    1.5550 N   0  0  0  0  0 15  0  0  0  0  0  0
   29.4999   -0.6043    1.4772 C   0  0  0  0  0 15  0  0  0  0  0  0
   29.6999   -1.8876    0.7050 C   0  0  0  0  0 15  0  0  0  0  0  0
   28.7559   -2.5144    0.2306 O   0  0  0  0  0 15  0  0  0  0  0  0
   30.0689   -0.7158    2.9206 C   0  0  0  0  0 15  0  0  0  0  0  0
   31.6169   -0.8087    3.0237 C   0  0  0  0  0 15  0  0  0  0  0  0
   32.0919   -0.9518    4.4800 C   0  0  0  0  0 15  0  0  0  0  0  0
   33.5829   -1.0169    4.5190 N   0  0  0  0  0 15  0  0  0  0  0  0
   34.3179   -1.1467    5.6182 C   0  0  0  0  0 15  0  0  0  0  0  0
   33.8139   -1.2426    6.8157 N   0  0  0  0  0 15  0  0  0  0  0  0
   35.6069   -1.1791    5.4959 N   0  0  0  0  0 15  0  0  0  0  0  0
   27.7579    0.5863    2.0415 H   0  0  0  0  0 15  0  0  0  0  0  0
   30.0209    0.2010    0.9264 H   0  0  0  0  0 15  0  0  0  0  0  0
   29.7269    0.1570    3.5135 H   0  0  0  0  0 15  0  0  0  0  0  0
   29.6009   -1.5907    3.4202 H   0  0  0  0  0 15  0  0  0  0  0  0
   31.9879   -1.6719    2.4317 H   0  0  0  0  0 15  0  0  0  0  0  0
   32.0689    0.0912    2.5564 H   0  0  0  0  0 15  0  0  0  0  0  0
   31.7129   -0.0931    5.0781 H   0  0  0  0  0 15  0  0  0  0  0  0
   31.6429   -1.8666    4.9241 H   0  0  0  0  0 15  0  0  0  0  0  0
   34.1339   -0.9545    3.6565 H   0  0  0  0  0 15  0  0  0  0  0  0
   34.4469   -1.3405    7.6109 H   0  0  0  0  0 15  0  0  0  0  0  0
   32.7919   -1.2124    6.8434 H   0  0  0  0  0 15  0  0  0  0  0  0
   35.9829   -1.1006    4.5498 H   0  0  0  0  0 15  0  0  0  0  0  0
   36.1559   -1.2768    6.3530 H   0  0  0  0  0 15  0  0  0  0  0  0
   29.5620   -1.4872   -0.5215 N   0  0  0  0  0 15  0  0  0  0  0  0
   30.7920   -1.6061   -1.2995 C   0  0  0  0  0 15  0  0  0  0  0  0
   31.2000   -0.2687   -1.8728 C   0  0  0  0  0 15  0  0  0  0  0  0
   30.5430    0.7532   -1.6755 O   0  0  0  0  0 15  0  0  0  0  0  0
   30.6050   -2.6001   -2.4826 C   0  0  0  0  0 15  0  0  0  0  0  0
   30.2690   -4.0487   -2.1196 C   0  0  0  0  0 15  0  0  0  0  0  0
   31.2660   -4.9230   -1.6713 C   0  0  0  0  0 15  0  0  0  0  0  0
   28.9510   -4.5047   -2.2222 C   0  0  0  0  0 15  0  0  0  0  0  0
   30.9450   -6.2336   -1.3305 C   0  0  0  0  0 15  0  0  0  0  0  0
   28.6320   -5.8154   -1.8775 C   0  0  0  0  0 15  0  0  0  0  0  0
   29.6300   -6.6781   -1.4323 C   0  0  0  0  0 15  0  0  0  0  0  0
   29.3180   -7.9645   -1.0922 O   0  0  0  0  0 15  0  0  0  0  0  0
   29.0500   -0.5441   -0.4011 H   0  0  0  0  0 15  0  0  0  0  0  0
   31.6040   -1.9534   -0.6350 H   0  0  0  0  0 15  0  0  0  0  0  0
   29.8340   -2.2042   -3.1773 H   0  0  0  0  0 15  0  0  0  0  0  0
   31.5230   -2.6165   -3.1031 H   0  0  0  0  0 15  0  0  0  0  0  0
   32.2890   -4.5831   -1.5867 H   0  0  0  0  0 15  0  0  0  0  0  0
   28.1680   -3.8350   -2.5582 H   0  0  0  0  0 15  0  0  0  0  0  0
   31.7120   -6.9065   -0.9823 H   0  0  0  0  0 15  0  0  0  0  0  0
   27.6090   -6.1507   -1.9586 H   0  0  0  0  0 15  0  0  0  0  0  0
   28.3770   -8.0927   -1.2254 H   0  0  0  0  0 15  0  0  0  0  0  0
   31.0401    0.7711   -1.3745 N   0  0  0  0  0 15  0  0  0  0  0  0
   32.2871    1.5296   -1.3270 C   0  0  0  0  0 15  0  0  0  0  0  0
   32.6151    1.9430    0.0883 C   0  0  0  0  0 15  0  0  0  0  0  0
   31.8701    1.6440    1.0617 O   0  0  0  0  0 15  0  0  0  0  0  0
   32.1691    2.8068   -2.2126 C   0  0  0  0  0 15  0  0  0  0  0  0
   31.8351    2.5839   -3.6952 C   0  0  0  0  0 15  0  0  0  0  0  0
   30.4971    2.5202   -4.0993 C   0  0  0  0  0 15  0  0  0  0  0  0
   32.8491    2.3847   -4.6345 C   0  0  0  0  0 15  0  0  0  0  0  0
   30.1771    2.2372   -5.4237 C   0  0  0  0  0 15  0  0  0  0  0  0
   32.5291    2.1169   -5.9613 C   0  0  0  0  0 15  0  0  0  0  0  0
   31.1931    2.0377   -6.3564 C   0  0  0  0  0 15  0  0  0  0  0  0
   30.4631    0.5597   -0.4856 H   0  0  0  0  0 15  0  0  0  0  0  0
   33.1101    0.8881   -1.6966 H   0  0  0  0  0 15  0  0  0  0  0  0
   31.4151    3.4939   -1.7729 H   0  0  0  0  0 15  0  0  0  0  0  0
   33.1121    3.3856   -2.1490 H   0  0  0  0  0 15  0  0  0  0  0  0
   29.7021    2.6421   -3.3748 H   0  0  0  0  0 15  0  0  0  0  0  0
   33.8861    2.4238   -4.3309 H   0  0  0  0  0 15  0  0  0  0  0  0
   29.1421    2.1608   -5.7194 H   0  0  0  0  0 15  0  0  0  0  0  0
   33.3161    1.9528   -6.6846 H   0  0  0  0  0 15  0  0  0  0  0  0
   30.9431    1.8161   -7.3819 H   0  0  0  0  0 15  0  0  0  0  0  0
   32.5182    1.2203    0.9973 N   0  0  0  0  0 15  0  0  0  0  0  0
   33.7482    1.0669    1.7692 C   0  0  0  0  0 15  0  0  0  0  0  0
   34.1562   -0.3858    1.8522 C   0  0  0  0  0 15  0  0  0  0  0  0
   33.4992   -1.2793    1.3183 O   0  0  0  0  0 15  0  0  0  0  0  0
   33.5612    1.5980    3.2203 C   0  0  0  0  0 15  0  0  0  0  0  0
   33.2252    3.0836    3.3729 C   0  0  0  0  0 15  0  0  0  0  0  0
   34.2222    4.0583    3.2495 C   0  0  0  0  0 15  0  0  0  0  0  0
   31.9072    3.4773    3.6248 C   0  0  0  0  0 15  0  0  0  0  0  0
   33.9012    5.4066    3.3759 C   0  0  0  0  0 15  0  0  0  0  0  0
   31.5882    4.8270    3.7476 C   0  0  0  0  0 15  0  0  0  0  0  0
   32.5862    5.7898    3.6232 C   0  0  0  0  0 15  0  0  0  0  0  0
   32.2742    7.1150    3.7419 O   0  0  0  0  0 15  0  0  0  0  0  0
   32.0062    0.3748    0.5626 H   0  0  0  0  0 15  0  0  0  0  0  0
   34.5602    1.6199    1.2629 H   0  0  0  0  0 15  0  0  0  0  0  0
   32.7902    0.9890    3.7384 H   0  0  0  0  0 15  0  0  0  0  0  0
   34.4792    1.4018    3.8092 H   0  0  0  0  0 15  0  0  0  0  0  0
   35.2452    3.7677    3.0540 H   0  0  0  0  0 15  0  0  0  0  0  0
   31.1242    2.7332    3.7124 H   0  0  0  0  0 15  0  0  0  0  0  0
   34.6682    6.1579    3.2780 H   0  0  0  0  0 15  0  0  0  0  0  0
   30.5652    5.1145    3.9381 H   0  0  0  0  0 15  0  0  0  0  0  0
   31.3332    7.1902    3.9109 H   0  0  0  0  0 15  0  0  0  0  0  0
   33.9963   -1.1934    1.0293 N   0  0  0  0  0 15  0  0  0  0  0  0
   34.9443   -2.2462    0.6040 C   0  0  0  0  0 15  0  0  0  0  0  0
   35.9383   -1.6545   -0.3636 C   0  0  0  0  0 15  0  0  0  0  0  0
   37.1443   -1.7850   -0.2321 O   0  0  0  0  0 15  0  0  0  0  0  0
   33.5193   -0.7309    0.1771 H   0  0  0  0  0 15  0  0  0  0  0  0
   35.4903   -2.5781    1.5025 H   0  0  0  0  0 15  0  0  0  0  0  0
   34.2393   -3.4769   -0.0289 C   0  0  0  0  0 15  0  0  0  0  0  0
   33.5623   -3.9351    0.7067 H   0  0  0  0  0 15  0  0  0  0  0  0
   35.0023   -4.2301   -0.2894 H   0  0  0  0  0 15  0  0  0  0  0  0
   33.4613   -3.1182   -1.2756 C   0  0  0  0  0 15  0  0  0  0  0  0
   33.9913   -3.2451   -2.3676 O   0  0  0  0  0 15  0  0  0  0  0  0
   32.1973   -2.6625   -1.1645 N   0  0  0  0  0 15  0  0  0  0  0  0
   31.7443   -2.5612   -0.2759 H   0  0  0  0  0 15  0  0  0  0  0  0
   31.7023   -2.4262   -1.9996 H   0  0  0  0  0 15  0  0  0  0  0  0
   35.4744   -0.8072   -1.3536 N   0  0  0  0  0 15  0  0  0  0  0  0
   36.4374   -0.2237   -2.2811 C   0  0  0  0  0 15  0  0  0  0  0  0
   37.4374    0.5894   -1.4961 C   0  0  0  0  0 15  0  0  0  0  0  0
   38.6274    0.4077   -1.6936 O   0  0  0  0  0 15  0  0  0  0  0  0
   35.7594    0.6881   -3.3388 C   0  0  0  0  0 15  0  0  0  0  0  0
   36.9524   -1.0417   -2.8123 H   0  0  0  0  0 15  0  0  0  0  0  0
   34.5054   -0.5779   -1.4522 H   0  0  0  0  0 15  0  0  0  0  0  0
   35.2404    1.5298   -2.8595 H   0  0  0  0  0 15  0  0  0  0  0  0
   35.0254    0.1069   -3.9195 H   0  0  0  0  0 15  0  0  0  0  0  0
   36.5154    1.0907   -4.0310 H   0  0  0  0  0 15  0  0  0  0  0  0
   36.9525    1.4729   -0.5608 N   0  0  0  0  0 15  0  0  0  0  0  0
   37.8995    2.3006    0.1849 C   0  0  0  0  0 15  0  0  0  0  0  0
   38.8695    1.3928    0.9050 C   0  0  0  0  0 15  0  0  0  0  0  0
   40.0545    1.6824    0.9000 O   0  0  0  0  0 15  0  0  0  0  0  0
   37.1945    3.2332    1.2067 C   0  0  0  0  0 15  0  0  0  0  0  0
   36.3075    4.2919    0.4923 C   0  0  0  0  0 15  0  0  0  0  0  0
   35.4425    5.0959    1.4996 C   0  0  0  0  0 15  0  0  0  0  0  0
   34.4815    6.0723    0.7704 C   0  0  0  0  0 15  0  0  0  0  0  0
   33.6185    6.8058    1.7248 N   0  0  0  0  0 15  0  0  0  0  0  0
   38.4585    2.9330   -0.5270 H   0  0  0  0  0 15  0  0  0  0  0  0
   35.9955    1.4457   -0.2717 H   0  0  0  0  0 15  0  0  0  0  0  0
   37.9535    3.7581    1.8117 H   0  0  0  0  0 15  0  0  0  0  0  0
   36.5835    2.6193    1.8866 H   0  0  0  0  0 15  0  0  0  0  0  0
   35.6355    3.7972   -0.2273 H   0  0  0  0  0 15  0  0  0  0  0  0
   36.9475    4.9874   -0.0788 H   0  0  0  0  0 15  0  0  0  0  0  0
   36.1015    5.6625    2.1781 H   0  0  0  0  0 15  0  0  0  0  0  0
   34.8405    4.3995    2.1046 H   0  0  0  0  0 15  0  0  0  0  0  0
   33.8455    5.4974    0.0781 H   0  0  0  0  0 15  0  0  0  0  0  0
   35.0705    6.7888    0.1711 H   0  0  0  0  0 15  0  0  0  0  0  0
   33.0165    6.1367    2.3183 H   0  0  0  0  0 15  0  0  0  0  0  0
   32.9335    7.4632    1.2060 H   0  0  0  0  0 15  0  0  0  0  0  0
   34.2015    7.4182    2.3943 H   0  0  0  0  0 15  0  0  0  0  0  0
   38.4306    0.2974    1.5477 N   0  0  0  0  0 15  0  0  0  0  0  0
   39.3936   -0.5674    2.2207 C   0  0  0  0  0 15  0  0  0  0  0  0
   40.3936   -1.0641    1.2056 C   0  0  0  0  0 15  0  0  0  0  0  0
   41.5836   -0.9607    1.4531 O   0  0  0  0  0 15  0  0  0  0  0  0
   38.7156   -1.7852    2.9042 C   0  0  0  0  0 15  0  0  0  0  0  0
   39.9086    0.0206    2.9989 H   0  0  0  0  0 15  0  0  0  0  0  0
   37.4616    0.0482    1.5623 H   0  0  0  0  0 15  0  0  0  0  0  0
   38.1966   -2.4130    2.1666 H   0  0  0  0  0 15  0  0  0  0  0  0
   37.9816   -1.4367    3.6483 H   0  0  0  0  0 15  0  0  0  0  0  0
   39.4716   -2.3996    3.4177 H   0  0  0  0  0 15  0  0  0  0  0  0
   39.9087   -1.5758    0.0251 N   0  0  0  0  0 15  0  0  0  0  0  0
   41.1567   -1.9125   -0.6532 C   0  0  0  0  0 15  0  0  0  0  0  0
   41.4777   -0.9017   -1.7290 C   0  0  0  0  0 15  0  0  0  0  0  0
   40.7477    0.0574   -1.9582 O   0  0  0  0  0 15  0  0  0  0  0  0
   39.3277   -0.7059   -0.2442 H   0  0  0  0  0 15  0  0  0  0  0  0
   41.9897   -1.9477    0.0719 H   0  0  0  0  0 15  0  0  0  0  0  0
   41.0857   -2.9175   -1.1085 H   0  0  0  0  0 15  0  0  0  0  0  0
   41.3868    0.2480   -1.5564 N   0  0  0  0  0 15  0  0  0  0  0  0
   42.3168    1.3108   -1.9324 C   0  0  0  0  0 15  0  0  0  0  0  0
   43.2978    1.5026   -0.7972 C   0  0  0  0  0 15  0  0  0  0  0  0
   44.4828    1.6289   -1.0574 O   0  0  0  0  0 15  0  0  0  0  0  0
   41.6128    2.6658   -2.2261 C   0  0  0  0  0 15  0  0  0  0  0  0
   40.5668    2.6209   -3.3837 C   0  0  0  0  0 15  0  0  0  0  0  0
   39.8928    4.0137   -3.5328 C   0  0  0  0  0 15  0  0  0  0  0  0
   41.1928    2.1917   -4.7409 C   0  0  0  0  0 15  0  0  0  0  0  0
   42.8868    0.9986   -2.8226 H   0  0  0  0  0 15  0  0  0  0  0  0
   40.4328    0.4789   -1.3580 H   0  0  0  0  0 15  0  0  0  0  0  0
   42.3858    3.4106   -2.4750 H   0  0  0  0  0 15  0  0  0  0  0  0
   41.1098    2.9943   -1.3041 H   0  0  0  0  0 15  0  0  0  0  0  0
   39.7688    1.9006   -3.1348 H   0  0  0  0  0 15  0  0  0  0  0  0
   39.4168    4.3149   -2.5851 H   0  0  0  0  0 15  0  0  0  0  0  0
   39.1168    3.9925   -4.3113 H   0  0  0  0  0 15  0  0  0  0  0  0
   40.6408    4.7755   -3.8049 H   0  0  0  0  0 15  0  0  0  0  0  0
   42.0548    2.8338   -4.9836 H   0  0  0  0  0 15  0  0  0  0  0  0
   40.4518    2.2817   -5.5503 H   0  0  0  0  0 15  0  0  0  0  0  0
   41.5218    1.1434   -4.7123 H   0  0  0  0  0 15  0  0  0  0  0  0
   42.8649    1.4899    0.5136 N   0  0  0  0  0 15  0  0  0  0  0  0
   44.1049    1.5945    1.2788 C   0  0  0  0  0 15  0  0  0  0  0  0
   44.4689    0.2695    1.9010 C   0  0  0  0  0 15  0  0  0  0  0  0
   45.6699    0.2491    2.6764 O   0  0  0  0  0 15  0  0  0  0  0  0
   43.9409    2.7128    2.3269 C   0  0  0  0  0 15  0  0  0  0  0  0
   45.4999    3.0160    3.1872 S   0  0  0  0  0 15  0  0  0  0  0  0
   42.3179    0.5626    0.4348 H   0  0  0  0  0 15  0  0  0  0  0  0
   44.9199    1.8660    0.5833 H   0  0  0  0  0 15  0  0  0  0  0  0
   43.6239    3.6609    1.8549 H   0  0  0  0  0 15  0  0  0  0  0  0
   43.1549    2.4609    3.0693 H   0  0  0  0  0 15  0  0  0  0  0  0
   45.1699    2.4216    4.3310 H   0  0  0  0  0 15  0  0  0  0  0  0
   44.3430   -0.7638    1.3786 N   0  0  0  0  0 15  0  0  0  0  0  0
   45.2750   -1.8866    1.3015 C   0  0  0  0  0 15  0  0  0  0  0  0
   46.2880   -1.6136    0.2157 C   0  0  0  0  0 15  0  0  0  0  0  0
   47.4770   -1.7213    0.4725 O   0  0  0  0  0 15  0  0  0  0  0  0
   44.5770   -3.2407    0.9914 C   0  0  0  0  0 15  0  0  0  0  0  0
   43.7500   -3.7896    2.1843 C   0  0  0  0  0 15  0  0  0  0  0  0
   42.8090   -4.9286    1.8432 C   0  0  0  0  0 15  0  0  0  0  0  0
   41.8350   -5.0803    2.5670 O   0  0  0  0  0 15  0  0  0  0  0  0
   43.0370   -5.7507    0.7921 N   0  0  0  0  0 15  0  0  0  0  0  0
   45.8020   -1.9579    2.2691 H   0  0  0  0  0 15  0  0  0  0  0  0
   43.3630   -0.9432    1.3159 H   0  0  0  0  0 15  0  0  0  0  0  0
   45.3550   -3.9780    0.7439 H   0  0  0  0  0 15  0  0  0  0  0  0
   43.9250   -3.1240    0.1121 H   0  0  0  0  0 15  0  0  0  0  0  0
   43.1450   -2.9691    2.5930 H   0  0  0  0  0 15  0  0  0  0  0  0
   44.4330   -4.1236    2.9806 H   0  0  0  0  0 15  0  0  0  0  0  0
   43.8310   -5.6538    0.1916 H   0  0  0  0  0 15  0  0  0  0  0  0
   42.3880   -6.4899    0.6045 H   0  0  0  0  0 15  0  0  0  0  0  0
   45.8211   -1.2256   -0.9908 N   0  0  0  0  0 15  0  0  0  0  0  0
   47.0491   -1.0778   -1.7661 C   0  0  0  0  0 15  0  0  0  0  0  0
   47.4641    0.3715   -1.8511 C   0  0  0  0  0 15  0  0  0  0  0  0
   46.8211    1.2574   -1.3227 O   0  0  0  0  0 15  0  0  0  0  0  0
   46.8721   -1.6851   -3.1982 C   0  0  0  0  0 15  0  0  0  0  0  0
   46.5931   -3.0777   -3.1178 O   0  0  0  0  0 15  0  0  0  0  0  0
   48.0941   -1.5904   -4.1379 C   0  0  0  0  0 15  0  0  0  0  0  0
   45.3141   -0.3777   -0.5546 H   0  0  0  0  0 15  0  0  0  0  0  0
   47.8581   -1.6220   -1.2455 H   0  0  0  0  0 15  0  0  0  0  0  0
   46.0131   -1.1815   -3.6894 H   0  0  0  0  0 15  0  0  0  0  0  0
   46.4271   -3.3706   -4.0186 H   0  0  0  0  0 15  0  0  0  0  0  0
   47.9011   -2.0625   -5.1202 H   0  0  0  0  0 15  0  0  0  0  0  0
   48.3781   -0.5473   -4.3578 H   0  0  0  0  0 15  0  0  0  0  0  0
   48.9841   -2.0871   -3.7057 H   0  0  0  0  0 15  0  0  0  0  0  0
   47.2992    1.1880   -1.0356 N   0  0  0  0  0 15  0  0  0  0  0  0
   48.5462    1.8865   -0.7360 C   0  0  0  0  0 15  0  0  0  0  0  0
   48.8742    1.8004    0.7359 C   0  0  0  0  0 15  0  0  0  0  0  0
   48.1292    1.1918    1.5523 O   0  0  0  0  0 15  0  0  0  0  0  0
   48.4282    3.3869   -1.1412 C   0  0  0  0  0 15  0  0  0  0  0  0
   48.0942    3.6750   -2.6125 C   0  0  0  0  0 15  0  0  0  0  0  0
   46.7562    3.7508   -3.0145 C   0  0  0  0  0 15  0  0  0  0  0  0
   49.1082    3.8029   -3.5641 C   0  0  0  0  0 15  0  0  0  0  0  0
   46.4362    3.9291   -4.3570 C   0  0  0  0  0 15  0  0  0  0  0  0
   48.7882    3.9964   -4.9037 C   0  0  0  0  0 15  0  0  0  0  0  0
   47.4522    4.0545   -5.3025 C   0  0  0  0  0 15  0  0  0  0  0  0
   46.7222    0.6903   -0.2693 H   0  0  0  0  0 15  0  0  0  0  0  0
   49.3692    1.4064   -1.2997 H   0  0  0  0  0 15  0  0  0  0  0  0
   47.6742    3.8865   -0.4962 H   0  0  0  0  0 15  0  0  0  0  0  0
   49.3712    3.9107   -0.8868 H   0  0  0  0  0 15  0  0  0  0  0  0
   45.9612    3.6222   -2.2911 H   0  0  0  0  0 15  0  0  0  0  0  0
   50.1452    3.7378   -3.2650 H   0  0  0  0  0 15  0  0  0  0  0  0
   45.4012    3.9565   -4.6612 H   0  0  0  0  0 15  0  0  0  0  0  0
   49.5752    4.0848   -5.6402 H   0  0  0  0  0 15  0  0  0  0  0  0
   47.2022    4.1903   -6.3429 H   0  0  0  0  0 15  0  0  0  0  0  0
   48.7773    0.8144    1.3493 N   0  0  0  0  0 15  0  0  0  0  0  0
   50.0233    0.3990    1.9884 C   0  0  0  0  0 15  0  0  0  0  0  0
   50.3563   -1.0331    1.6444 C   0  0  0  0  0 15  0  0  0  0  0  0
   49.6313   -1.7181    0.9117 O   0  0  0  0  0 15  0  0  0  0  0  0
   49.9143    0.5916    3.5521 C   0  0  0  0  0 15  0  0  0  0  0  0
   49.7673    2.0693    3.9938 C   0  0  0  0  0 15  0  0  0  0  0  0
   51.0863    0.0222    4.4009 C   0  0  0  0  0 15  0  0  0  0  0  0
   48.2053    0.1465    0.7223 H   0  0  0  0  0 15  0  0  0  0  0  0
   50.8473    1.0254    1.5996 H   0  0  0  0  0 15  0  0  0  0  0  0
   48.9973    0.0584    3.8846 H   0  0  0  0  0 15  0  0  0  0  0  0
   50.6693    2.6654    3.7650 H   0  0  0  0  0 15  0  0  0  0  0  0
   48.9123    2.5629    3.5000 H   0  0  0  0  0 15  0  0  0  0  0  0
   49.5833    2.1549    5.0820 H   0  0  0  0  0 15  0  0  0  0  0  0
   52.0593    0.4776    4.1335 H   0  0  0  0  0 15  0  0  0  0  0  0
   50.9353    0.1868    5.4858 H   0  0  0  0  0 15  0  0  0  0  0  0
   51.1963   -1.0722    4.2890 H   0  0  0  0  0 15  0  0  0  0  0  0
   50.2554   -1.4699    0.5686 N   0  0  0  0  0 15  0  0  0  0  0  0
   51.4854   -2.0653    0.0539 C   0  0  0  0  0 15  0  0  0  0  0  0
   51.8934   -1.4200   -1.2503 C   0  0  0  0  0 15  0  0  0  0  0  0
   51.2364   -0.5145   -1.7635 O   0  0  0  0  0 15  0  0  0  0  0  0
   51.2984   -3.5894   -0.2009 C   0  0  0  0  0 15  0  0  0  0  0  0
   50.9624   -4.4557    1.0156 C   0  0  0  0  0 15  0  0  0  0  0  0
   51.9594   -4.8299    1.9241 C   0  0  0  0  0 15  0  0  0  0  0  0
   49.6444   -4.8692    1.2335 C   0  0  0  0  0 15  0  0  0  0  0  0
   51.6384   -5.6056    3.0340 C   0  0  0  0  0 15  0  0  0  0  0  0
   49.3254   -5.6425    2.3465 C   0  0  0  0  0 15  0  0  0  0  0  0
   50.3234   -6.0099    3.2451 C   0  0  0  0  0 15  0  0  0  0  0  0
   50.0114   -6.7676    4.3388 O   0  0  0  0  0 15  0  0  0  0  0  0
   49.7434   -0.6743    0.0480 H   0  0  0  0  0 15  0  0  0  0  0  0
   52.2974   -1.8981    0.7849 H   0  0  0  0  0 15  0  0  0  0  0  0
   50.5274   -3.7391   -0.9863 H   0  0  0  0  0 15  0  0  0  0  0  0
   52.2164   -4.0046   -0.6623 H   0  0  0  0  0 15  0  0  0  0  0  0
   52.9824   -4.5163    1.7678 H   0  0  0  0  0 15  0  0  0  0  0  0
   48.8614   -4.5779    0.5432 H   0  0  0  0  0 15  0  0  0  0  0  0
   52.4054   -5.8915    3.7357 H   0  0  0  0  0 15  0  0  0  0  0  0
   48.3024   -5.9502    2.5024 H   0  0  0  0  0 15  0  0  0  0  0  0
   49.0704   -6.9517    4.3207 H   0  0  0  0  0 15  0  0  0  0  0  0
   51.7335   -0.3056   -1.5461 N   0  0  0  0  0 15  0  0  0  0  0  0
   52.9815    0.3017   -1.9984 C   0  0  0  0  0 15  0  0  0  0  0  0
   53.3025    1.5405   -1.1955 C   0  0  0  0  0 15  0  0  0  0  0  0
   52.5725    1.9370   -0.2927 O   0  0  0  0  0 15  0  0  0  0  0  0
   51.1525    0.1145   -0.7382 H   0  0  0  0  0 15  0  0  0  0  0  0
   53.8145   -0.4180   -1.9036 H   0  0  0  0  0 15  0  0  0  0  0  0
   52.9105    0.5705   -3.0684 H   0  0  0  0  0 15  0  0  0  0  0  0
   53.2116    1.5756   -0.0334 N   0  0  0  0  0 15  0  0  0  0  0  0
   54.4596    1.9160    0.6430 C   0  0  0  0  0 15  0  0  0  0  0  0
   54.7806    0.9108    1.7242 C   0  0  0  0  0 15  0  0  0  0  0  0
   54.0506   -0.0470    1.9584 O   0  0  0  0  0 15  0  0  0  0  0  0
   52.6306    0.7072    0.2405 H   0  0  0  0  0 15  0  0  0  0  0  0
   55.2926    1.9473   -0.0822 H   0  0  0  0  0 15  0  0  0  0  0  0
   54.3886    2.9234    1.0930 H   0  0  0  0  0 15  0  0  0  0  0  0
   54.6897   -0.2398    1.5577 N   0  0  0  0  0 15  0  0  0  0  0  0
   55.9297   -0.9741    1.7970 C   0  0  0  0  0 15  0  0  0  0  0  0
   56.2937   -1.8225    0.6041 C   0  0  0  0  0 15  0  0  0  0  0  0
   57.4947   -2.5891    0.7223 O   0  0  0  0  0 15  0  0  0  0  0  0
   55.7657   -1.8059    3.0842 C   0  0  0  0  0 15  0  0  0  0  0  0
   57.3247   -2.5984    3.5360 S   0  0  0  0  0 15  0  0  0  0  0  0
   54.1427   -0.3275    0.6311 H   0  0  0  0  0 15  0  0  0  0  0  0
   56.7447   -0.2413    1.9401 H   0  0  0  0  0 15  0  0  0  0  0  0
   55.4487   -1.1725    3.9329 H   0  0  0  0  0 15  0  0  0  0  0  0
   54.9797   -2.5814    2.9687 H   0  0  0  0  0 15  0  0  0  0  0  0
   56.9947   -3.8299    3.1549 H   0  0  0  0  0 15  0  0  0  0  0  0
   56.1678   -1.4927   -0.5057 N   0  0  0  0  0 15  0  0  0  0  0  0
   57.5838   -1.3592   -0.8365 C   0  0  0  0  0 15  0  0  0  0  0  0
   57.7838   -0.3887   -1.9772 C   0  0  0  0  0 15  0  0  0  0  0  0
   56.8398    0.1813   -2.5185 O   0  0  0  0  0 15  0  0  0  0  0  0
   58.1528   -2.7653   -1.1811 C   0  0  0  0  0 15  0  0  0  0  0  0
   59.7008   -2.8520   -1.2896 C   0  0  0  0  0 15  0  0  0  0  0  0
   60.1758   -4.2656   -1.6676 C   0  0  0  0  0 15  0  0  0  0  0  0
   61.6668   -4.2935   -1.7382 N   0  0  0  0  0 15  0  0  0  0  0  0
   62.4018   -5.3569   -2.0450 C   0  0  0  0  0 15  0  0  0  0  0  0
   61.8978   -6.5229   -2.3344 N   0  0  0  0  0 15  0  0  0  0  0  0
   63.6908   -5.2311   -2.0571 N   0  0  0  0  0 15  0  0  0  0  0  0
   55.8418   -2.1096    0.2465 H   0  0  0  0  0 15  0  0  0  0  0  0
   58.1048   -0.9468    0.0477 H   0  0  0  0  0 15  0  0  0  0  0  0
   57.8108   -3.4923   -0.4164 H   0  0  0  0  0 15  0  0  0  0  0  0
   57.6848   -3.1160   -2.1257 H   0  0  0  0  0 15  0  0  0  0  0  0
   60.0718   -2.1274   -2.0451 H   0  0  0  0  0 15  0  0  0  0  0  0
   60.1528   -2.5372   -0.3257 H   0  0  0  0  0 15  0  0  0  0  0  0
   59.7968   -4.9954   -0.9177 H   0  0  0  0  0 15  0  0  0  0  0  0
   59.7268   -4.5550   -2.6425 H   0  0  0  0  0 15  0  0  0  0  0  0
   62.2178   -3.4526   -1.5364 H   0  0  0  0  0 15  0  0  0  0  0  0
   62.5308   -7.2916   -2.5602 H   0  0  0  0  0 15  0  0  0  0  0  0
   60.8758   -6.5552   -2.3090 H   0  0  0  0  0 15  0  0  0  0  0  0
   64.0668   -4.3103   -1.8258 H   0  0  0  0  0 15  0  0  0  0  0  0
   64.2398   -6.0608   -2.2929 H   0  0  0  0  0 15  0  0  0  0  0  0
   57.6459    0.7564   -1.3826 N   0  0  0  0  0 15  0  0  0  0  0  0
   58.6089    1.8518   -1.3507 C   0  0  0  0  0 15  0  0  0  0  0  0
   59.6089    1.5882   -0.2517 C   0  0  0  0  0 15  0  0  0  0  0  0
   60.7989    1.6662   -0.5084 O   0  0  0  0  0 15  0  0  0  0  0  0
   57.9309    3.2260   -1.1020 C   0  0  0  0  0 15  0  0  0  0  0  0
   59.1239    1.8942   -2.3251 H   0  0  0  0  0 15  0  0  0  0  0  0
   56.6769    0.9578   -1.2351 H   0  0  0  0  0 15  0  0  0  0  0  0
   57.4119    3.2403   -0.1335 H   0  0  0  0  0 15  0  0  0  0  0  0
   57.1969    3.4312   -1.8976 H   0  0  0  0  0 15  0  0  0  0  0  0
   58.6869    4.0267   -1.1065 H   0  0  0  0  0 15  0  0  0  0  0  0
   59.1240    1.2308    0.9843 N   0  0  0  0  0 15  0  0  0  0  0  0
   60.0710    1.0085    2.0760 C   0  0  0  0  0 15  0  0  0  0  0  0
   61.0410   -0.0727    1.6594 C   0  0  0  0  0 15  0  0  0  0  0  0
   62.2260    0.0787    1.9064 O   0  0  0  0  0 15  0  0  0  0  0  0
   59.3660    0.6016    3.3982 C   0  0  0  0  0 15  0  0  0  0  0  0
   58.4790    1.7546    3.9476 C   0  0  0  0  0 15  0  0  0  0  0  0
   57.6140    1.2948    5.1518 C   0  0  0  0  0 15  0  0  0  0  0  0
   56.6530    2.4187    5.6228 C   0  0  0  0  0 15  0  0  0  0  0  0
   55.7900    1.9688    6.7393 N   0  0  0  0  0 15  0  0  0  0  0  0
   60.6300    1.9430    2.2595 H   0  0  0  0  0 15  0  0  0  0  0  0
   58.1670    0.9680    1.1076 H   0  0  0  0  0 15  0  0  0  0  0  0
   60.1250    0.3469    4.1576 H   0  0  0  0  0 15  0  0  0  0  0  0
   58.7550   -0.2958    3.2144 H   0  0  0  0  0 15  0  0  0  0  0  0
   57.8070    2.1235    3.1562 H   0  0  0  0  0 15  0  0  0  0  0  0
   59.1190    2.5997    4.2570 H   0  0  0  0  0 15  0  0  0  0  0  0
   58.2730    0.9979    5.9844 H   0  0  0  0  0 15  0  0  0  0  0  0
   57.0120    0.4200    4.8589 H   0  0  0  0  0 15  0  0  0  0  0  0
   56.0170    2.7234    4.7761 H   0  0  0  0  0 15  0  0  0  0  0  0
   57.2420    3.2988    5.9360 H   0  0  0  0  0 15  0  0  0  0  0  0
   55.1880    1.1178    6.4641 H   0  0  0  0  0 15  0  0  0  0  0  0
   55.1050    2.7496    7.0423 H   0  0  0  0  0 15  0  0  0  0  0  0
   56.3730    1.7029    7.6067 H   0  0  0  0  0 15  0  0  0  0  0  0
   60.6021   -1.1825    1.0419 N   0  0  0  0  0 15  0  0  0  0  0  0
   62.0181   -1.4027    0.7614 C   0  0  0  0  0 15  0  0  0  0  0  0
   62.2181   -1.9078   -0.6486 C   0  0  0  0  0 15  0  0  0  0  0  0
   61.2741   -2.0929   -1.4126 O   0  0  0  0  0 15  0  0  0  0  0  0
   62.5871   -2.4024    1.8085 C   0  0  0  0  0 15  0  0  0  0  0  0
   64.1351   -2.5396    1.8296 C   0  0  0  0  0 15  0  0  0  0  0  0
   64.6101   -3.5719    2.8666 C   0  0  0  0  0 15  0  0  0  0  0  0
   66.1011   -3.6470    2.8556 N   0  0  0  0  0 15  0  0  0  0  0  0
   66.8361   -4.4431    3.6246 C   0  0  0  0  0 15  0  0  0  0  0  0
   66.3321   -5.2751    4.4911 N   0  0  0  0  0 15  0  0  0  0  0  0
   68.1251   -4.3908    3.5094 N   0  0  0  0  0 15  0  0  0  0  0  0
   60.2761   -0.8379    1.9518 H   0  0  0  0  0 15  0  0  0  0  0  0
   62.5391   -0.4306    0.8446 H   0  0  0  0  0 15  0  0  0  0  0  0
   62.2451   -2.1018    2.8199 H   0  0  0  0  0 15  0  0  0  0  0  0
   62.1191   -3.3960    1.6417 H   0  0  0  0  0 15  0  0  0  0  0  0
   64.5061   -2.8334    0.8249 H   0  0  0  0  0 15  0  0  0  0  0  0
   64.5871   -1.5471    2.0371 H   0  0  0  0  0 15  0  0  0  0  0  0
   64.2311   -3.2856    3.8731 H   0  0  0  0  0 15  0  0  0  0  0  0
   64.1611   -4.5613    2.6316 H   0  0  0  0  0 15  0  0  0  0  0  0
   66.6521   -3.0529    2.2273 H   0  0  0  0  0 15  0  0  0  0  0  0
   66.9651   -5.8541    5.0449 H   0  0  0  0  0 15  0  0  0  0  0  0
   65.3101   -5.2693    4.5318 H   0  0  0  0  0 15  0  0  0  0  0  0
   68.5011   -3.7313    2.8265 H   0  0  0  0  0 15  0  0  0  0  0  0
   68.6741   -5.0088    4.1112 H   0  0  0  0  0 15  0  0  0  0  0  0
   62.0802   -0.8215   -1.3449 N   0  0  0  0  0 15  0  0  0  0  0  0
   63.0282   -0.2307   -2.3145 C   0  0  0  0  0 15  0  0  0  0  0  0
   64.0222    0.6278   -1.5734 C   0  0  0  0  0 15  0  0  0  0  0  0
   65.2282    0.5193   -1.7235 O   0  0  0  0  0 15  0  0  0  0  0  0
   61.6032   -0.0559   -0.7499 H   0  0  0  0  0 15  0  0  0  0  0  0
   63.5742   -1.0633   -2.7881 H   0  0  0  0  0 15  0  0  0  0  0  0
   62.3232    0.5939   -3.4259 C   0  0  0  0  0 15  0  0  0  0  0  0
   61.6462   -0.0574   -3.9976 H   0  0  0  0  0 15  0  0  0  0  0  0
   63.0862    0.9734   -4.1267 H   0  0  0  0  0 15  0  0  0  0  0  0
   61.5452    1.7657   -2.8692 C   0  0  0  0  0 15  0  0  0  0  0  0
   62.0752    2.8638   -2.8169 O   0  0  0  0  0 15  0  0  0  0  0  0
   60.2812    1.5820   -2.4377 N   0  0  0  0  0 15  0  0  0  0  0  0
   59.8282    0.6887   -2.4822 H   0  0  0  0  0 15  0  0  0  0  0  0
   59.7862    2.3675   -2.0687 H   0  0  0  0  0 15  0  0  0  0  0  0
   63.5583    1.4668   -0.5764 N   0  0  0  0  0 15  0  0  0  0  0  0
   64.5063    2.3195    0.1734 C   0  0  0  0  0 15  0  0  0  0  0  0
   65.5003    1.4410    0.8906 C   0  0  0  0  0 15  0  0  0  0  0  0
   66.7063    1.6076    0.8097 O   0  0  0  0  0 15  0  0  0  0  0  0
   63.0813    0.7483    0.0748 H   0  0  0  0  0 15  0  0  0  0  0  0
   65.0523    2.9301   -0.5647 H   0  0  0  0  0 15  0  0  0  0  0  0
   63.8013    3.2714    1.1779 C   0  0  0  0  0 15  0  0  0  0  0  0
   63.1243    3.9472    0.6354 H   0  0  0  0  0 15  0  0  0  0  0  0
   64.5643    3.8960    1.6730 H   0  0  0  0  0 15  0  0  0  0  0  0
   63.0233    2.5204    2.2356 C   0  0  0  0  0 15  0  0  0  0  0  0
   63.5533    2.2788    3.3081 O   0  0  0  0  0 15  0  0  0  0  0  0
   61.7593    2.1271    1.9800 N   0  0  0  0  0 15  0  0  0  0  0  0
   61.3063    2.3256    1.1079 H   0  0  0  0  0 15  0  0  0  0  0  0
   61.2643    1.6278    2.6898 H   0  0  0  0  0 15  0  0  0  0  0  0
   65.0364    0.3138    1.5444 N   0  0  0  0  0 15  0  0  0  0  0  0
   66.2834   -0.2917    2.0039 C   0  0  0  0  0 15  0  0  0  0  0  0
   66.6114   -1.5290    1.2021 C   0  0  0  0  0 15  0  0  0  0  0  0
   65.8664   -1.9383    0.2697 O   0  0  0  0  0 15  0  0  0  0  0  0
   66.1654   -0.6804    3.5086 C   0  0  0  0  0 15  0  0  0  0  0  0
   65.8314    0.4567    4.4858 C   0  0  0  0  0 15  0  0  0  0  0  0
   64.4934    0.7688    4.7502 C   0  0  0  0  0 15  0  0  0  0  0  0
   66.8454    1.2210    5.0670 C   0  0  0  0  0 15  0  0  0  0  0  0
   64.1734    1.8481    5.5683 C   0  0  0  0  0 15  0  0  0  0  0  0
   66.5254    2.2903    5.8968 C   0  0  0  0  0 15  0  0  0  0  0  0
   65.1894    2.6083    6.1443 C   0  0  0  0  0 15  0  0  0  0  0  0
   64.4594   -0.1067    0.7333 H   0  0  0  0  0 15  0  0  0  0  0  0
   67.1064    0.4356    1.8648 H   0  0  0  0  0 15  0  0  0  0  0  0
   65.4114   -1.4879    3.6245 H   0  0  0  0  0 15  0  0  0  0  0  0
   67.1084   -1.1603    3.8385 H   0  0  0  0  0 15  0  0  0  0  0  0
   63.6984    0.2033    4.2812 H   0  0  0  0  0 15  0  0  0  0  0  0
   67.8824    0.9931    4.8626 H   0  0  0  0  0 15  0  0  0  0  0  0
   63.1384    2.0991    5.7424 H   0  0  0  0  0 15  0  0  0  0  0  0
   67.3124    2.8870    6.3374 H   0  0  0  0  0 15  0  0  0  0  0  0
   64.9394    3.4460    6.7761 H   0  0  0  0  0 15  0  0  0  0  0  0
   66.5145   -1.5754    0.0418 N   0  0  0  0  0 15  0  0  0  0  0  0
   67.4615   -2.1098   -0.9358 C   0  0  0  0  0 15  0  0  0  0  0  0
   68.4315   -1.0149   -1.3149 C   0  0  0  0  0 15  0  0  0  0  0  0
   69.6165   -1.2898   -1.4060 O   0  0  0  0  0 15  0  0  0  0  0  0
   66.7565   -2.6517   -2.2086 C   0  0  0  0  0 15  0  0  0  0  0  0
   65.8695   -3.8871   -1.8848 C   0  0  0  0  0 15  0  0  0  0  0  0
   65.0045   -4.3125   -3.1015 C   0  0  0  0  0 15  0  0  0  0  0  0
   64.0435   -5.4752   -2.7365 C   0  0  0  0  0 15  0  0  0  0  0  0
   63.1805   -5.8516   -3.8798 N   0  0  0  0  0 15  0  0  0  0  0  0
   68.0205   -2.9422   -0.4732 H   0  0  0  0  0 15  0  0  0  0  0  0
   65.5575   -1.4542   -0.2220 H   0  0  0  0  0 15  0  0  0  0  0  0
   67.5155   -2.9468   -2.9533 H   0  0  0  0  0 15  0  0  0  0  0  0
   66.1455   -1.8474   -2.6471 H   0  0  0  0  0 15  0  0  0  0  0  0
   65.1975   -3.6585   -1.0421 H   0  0  0  0  0 15  0  0  0  0  0  0
   66.5095   -4.7325   -1.5761 H   0  0  0  0  0 15  0  0  0  0  0  0
   65.6635   -4.6227   -3.9292 H   0  0  0  0  0 15  0  0  0  0  0  0
   64.4025   -3.4552   -3.4420 H   0  0  0  0  0 15  0  0  0  0  0  0
   63.4075   -5.1619   -1.8929 H   0  0  0  0  0 15  0  0  0  0  0  0
   64.6325   -6.3497   -2.4081 H   0  0  0  0  0 15  0  0  0  0  0  0
   62.5785   -5.0238   -4.2185 H   0  0  0  0  0 15  0  0  0  0  0  0
   62.4955   -6.6436   -3.6078 H   0  0  0  0  0 15  0  0  0  0  0  0
   63.7635   -6.2079   -4.7142 H   0  0  0  0  0 15  0  0  0  0  0  0
   67.9926    0.2315   -1.5589 N   0  0  0  0  0 15  0  0  0  0  0  0
   69.2176    0.9787   -1.8286 C   0  0  0  0  0 15  0  0  0  0  0  0
   69.6426    1.7756   -0.6208 C   0  0  0  0  0 15  0  0  0  0  0  0
   69.0006    1.7612    0.4303 O   0  0  0  0  0 15  0  0  0  0  0  0
   69.0486    1.8800   -3.0772 C   0  0  0  0  0 15  0  0  0  0  0  0
   68.1526    2.9739   -2.8571 O   0  0  0  0  0 15  0  0  0  0  0  0
   67.4936    0.2777   -0.6032 H   0  0  0  0  0 15  0  0  0  0  0  0
   70.0236    0.2478   -2.0309 H   0  0  0  0  0 15  0  0  0  0  0  0
   70.0336    2.2917   -3.3756 H   0  0  0  0  0 15  0  0  0  0  0  0
   68.7086    1.2942   -3.9525 H   0  0  0  0  0 15  0  0  0  0  0  0
   67.2856    2.6024   -2.6708 H   0  0  0  0  0 15  0  0  0  0  0  0
   69.4707    1.4953    0.4978 N   0  0  0  0  0 15  0  0  0  0  0  0
   70.4337    1.6592    1.5813 C   0  0  0  0  0 15  0  0  0  0  0  0
   71.4337    0.5308    1.5179 C   0  0  0  0  0 15  0  0  0  0  0  0
   72.6237    0.7973    1.5488 O   0  0  0  0  0 15  0  0  0  0  0  0
   69.7557    1.6595    2.9778 C   0  0  0  0  0 15  0  0  0  0  0  0
   70.9487    2.6256    1.4493 H   0  0  0  0  0 15  0  0  0  0  0  0
   68.5017    1.3861    0.7223 H   0  0  0  0  0 15  0  0  0  0  0  0
   69.2367    0.7091    3.1645 H   0  0  0  0  0 15  0  0  0  0  0  0
   69.0217    2.4790    3.0379 H   0  0  0  0  0 15  0  0  0  0  0  0
   70.5117    1.8067    3.7649 H   0  0  0  0  0 15  0  0  0  0  0  0
   70.9488   -0.7491    1.3866 N   0  0  0  0  0 15  0  0  0  0  0  0
   71.8588   -1.8936    1.3849 C   0  0  0  0  0 15  0  0  0  0  0  0
   72.8748   -1.7171    0.2815 C   0  0  0  0  0 15  0  0  0  0  0  0
   74.0508   -1.9455    0.5206 O   0  0  0  0  0 15  0  0  0  0  0  0
   71.1158   -3.2478    1.2132 C   0  0  0  0  0 15  0  0  0  0  0  0
   70.1768   -3.5493    2.4151 C   0  0  0  0  0 15  0  0  0  0  0  0
   69.4098   -4.8389    2.2514 C   0  0  0  0  0 15  0  0  0  0  0  0
   69.6328   -5.5659    1.2475 O   0  0  0  0  0 15  0  0  0  0  0  0
   68.5668   -5.1361    3.1383 O   0  0  0  0  0 15  0  0  0  0  0  0
   72.3928   -1.9245    2.3494 H   0  0  0  0  0 15  0  0  0  0  0  0
   69.9778   -0.8950    1.1963 H   0  0  0  0  0 15  0  0  0  0  0  0
   71.8598   -4.0574    1.1381 H   0  0  0  0  0 15  0  0  0  0  0  0
   70.5348   -3.2249    0.2796 H   0  0  0  0  0 15  0  0  0  0  0  0
   69.4418   -2.7411    2.5459 H   0  0  0  0  0 15  0  0  0  0  0  0
   70.7748   -3.6198    3.3351 H   0  0  0  0  0 15  0  0  0  0  0  0
   72.4269   -1.2360   -0.9778 N   0  0  0  0  0 15  0  0  0  0  0  0
   73.7039   -0.9779   -1.6940 C   0  0  0  0  0 15  0  0  0  0  0  0
   74.0839    0.5027   -2.0503 C   0  0  0  0  0 15  0  0  0  0  0  0
   73.4319    1.4746   -1.7455 O   0  0  0  0  0 15  0  0  0  0  0  0
   73.6419   -1.8908   -2.9334 C   0  0  0  0  0 15  0  0  0  0  0  0
   74.9899   -2.1558   -3.6580 C   0  0  0  0  0 15  0  0  0  0  0  0
   76.0139   -1.8665   -3.0338 O   0  0  0  0  0 15  0  0  0  0  0  0
   74.8729   -2.6466   -4.7814 O   0  0  0  0  0 15  0  0  0  0  0  0
   71.9669   -0.3690   -0.7401 H   0  0  0  0  0 15  0  0  0  0  0  0
   74.5129   -1.3466   -1.0327 H   0  0  0  0  0 15  0  0  0  0  0  0
   73.2849   -2.8916   -2.6363 H   0  0  0  0  0 15  0  0  0  0  0  0
   72.9079   -1.5246   -3.6721 H   0  0  0  0  0 15  0  0  0  0  0  0
   73.9050    1.1769   -1.0482 N   0  0  0  0  0 15  0  0  0  0  0  0
   75.1450    1.8955   -0.7650 C   0  0  0  0  0 15  0  0  0  0  0  0
   75.5090    1.7898    0.6950 C   0  0  0  0  0 15  0  0  0  0  0  0
   76.7100    2.4561    1.0921 O   0  0  0  0  0 15  0  0  0  0  0  0
   74.9810    3.3566   -1.2275 C   0  0  0  0  0 15  0  0  0  0  0  0
   76.5400    4.2553   -1.0711 S   0  0  0  0  0 15  0  0  0  0  0  0
   73.3580    0.6544   -0.2779 H   0  0  0  0  0 15  0  0  0  0  0  0
   75.9600    1.4216   -1.3420 H   0  0  0  0  0 15  0  0  0  0  0  0
   74.6640    3.4088   -2.2853 H   0  0  0  0  0 15  0  0  0  0  0  0
   74.1950    3.8808   -0.6446 H   0  0  0  0  0 15  0  0  0  0  0  0
   76.2100    4.9620    0.0070 H   0  0  0  0  0 15  0  0  0  0  0  0
   75.3831    0.8287    1.3406 N   0  0  0  0  0 15  0  0  0  0  0  0
   76.3161    0.1998    2.2732 C   0  0  0  0  0 15  0  0  0  0  0  0
   77.2941   -0.6472    1.4917 C   0  0  0  0  0 15  0  0  0  0  0  0
   78.4781   -0.6097    1.7837 O   0  0  0  0  0 15  0  0  0  0  0  0
   75.6051   -0.7205    3.3095 C   0  0  0  0  0 15  0  0  0  0  0  0
   74.6511    0.0497    4.2647 C   0  0  0  0  0 15  0  0  0  0  0  0
   75.4841    1.4007    5.1686 S   0  0  0  0  0 15  0  0  0  0  0  0
   76.6401    0.4855    6.2401 C   0  0  0  0  0 15  0  0  0  0  0  0
   76.8731    0.9905    2.8032 H   0  0  0  0  0 15  0  0  0  0  0  0
   74.4061    0.6249    1.4119 H   0  0  0  0  0 15  0  0  0  0  0  0
   76.3641   -1.2458    3.9114 H   0  0  0  0  0 15  0  0  0  0  0  0
   75.0251   -1.4847    2.7679 H   0  0  0  0  0 15  0  0  0  0  0  0
   74.2181   -0.6501    4.9979 H   0  0  0  0  0 15  0  0  0  0  0  0
   73.8201    0.5058    3.7056 H   0  0  0  0  0 15  0  0  0  0  0  0
   76.1121   -0.3207    6.7674 H   0  0  0  0  0 15  0  0  0  0  0  0
   77.0551    1.1886    6.9805 H   0  0  0  0  0 15  0  0  0  0  0  0
   77.4631    0.0714    5.6445 H   0  0  0  0  0 15  0  0  0  0  0  0
   76.8612   -1.4637    0.5841 N   0  0  0  0  0 15  0  0  0  0  0  0
   78.2772   -1.5769    0.2459 C   0  0  0  0  0 15  0  0  0  0  0  0
   78.4772   -1.5790   -1.2517 C   0  0  0  0  0 15  0  0  0  0  0  0
   77.5332   -1.4968   -2.0335 O   0  0  0  0  0 15  0  0  0  0  0  0
   78.8462   -2.8703    0.8964 C   0  0  0  0  0 15  0  0  0  0  0  0
   80.3942   -3.0066    0.8701 C   0  0  0  0  0 15  0  0  0  0  0  0
   80.8692   -4.3273    1.5002 C   0  0  0  0  0 15  0  0  0  0  0  0
   82.3602   -4.3944    1.4646 N   0  0  0  0  0 15  0  0  0  0  0  0
   83.0952   -5.4025    1.9214 C   0  0  0  0  0 15  0  0  0  0  0  0
   82.5912   -6.4773    2.4581 N   0  0  0  0  0 15  0  0  0  0  0  0
   84.3842   -5.3146    1.8305 N   0  0  0  0  0 15  0  0  0  0  0  0
   76.5352   -1.4448    1.5569 H   0  0  0  0  0 15  0  0  0  0  0  0
   78.7982   -0.6893    0.6508 H   0  0  0  0  0 15  0  0  0  0  0  0
   78.5042   -2.9269    1.9500 H   0  0  0  0  0 15  0  0  0  0  0  0
   78.3782   -3.7501    0.4055 H   0  0  0  0  0 15  0  0  0  0  0  0
   80.7652   -2.9458   -0.1749 H   0  0  0  0  0 15  0  0  0  0  0  0
   80.8462   -2.1415    1.3991 H   0  0  0  0  0 15  0  0  0  0  0  0
   80.4902   -4.3957    2.5444 H   0  0  0  0  0 15  0  0  0  0  0  0
   80.4202   -5.1803    0.9464 H   0  0  0  0  0 15  0  0  0  0  0  0
   82.9112   -3.6237    1.0723 H   0  0  0  0  0 15  0  0  0  0  0  0
   83.2242   -7.2086    2.7852 H   0  0  0  0  0 15  0  0  0  0  0  0
   81.5692   -6.4854    2.4984 H   0  0  0  0  0 15  0  0  0  0  0  0
   84.7602   -4.4640    1.4088 H   0  0  0  0  0 15  0  0  0  0  0  0
   84.9332   -6.0988    2.1897 H   0  0  0  0  0 15  0  0  0  0  0  0
   78.3393   -0.3220   -1.5428 N   0  0  0  0  0 15  0  0  0  0  0  0
   79.5673    0.2831   -2.0495 C   0  0  0  0  0 15  0  0  0  0  0  0
   79.9823    1.4590   -1.1982 C   0  0  0  0  0 15  0  0  0  0  0  0
   79.3393    1.8106   -0.2285 O   0  0  0  0  0 15  0  0  0  0  0  0
   79.3903    0.7190   -3.5428 C   0  0  0  0  0 15  0  0  0  0  0  0
   79.1113   -0.4102   -4.3618 O   0  0  0  0  0 15  0  0  0  0  0  0
   80.6123    1.3871   -4.2104 C   0  0  0  0  0 15  0  0  0  0  0  0
   77.8323    0.0585   -0.6684 H   0  0  0  0  0 15  0  0  0  0  0  0
   80.3763   -0.4677   -1.9908 H   0  0  0  0  0 15  0  0  0  0  0  0
   78.5313    1.4198   -3.6045 H   0  0  0  0  0 15  0  0  0  0  0  0
   78.9453   -0.0669   -5.2446 H   0  0  0  0  0 15  0  0  0  0  0  0
   80.4193    1.6431   -5.2698 H   0  0  0  0  0 15  0  0  0  0  0  0
   80.8963    2.3339   -3.7206 H   0  0  0  0  0 15  0  0  0  0  0  0
   81.5023    0.7289   -4.1901 H   0  0  0  0  0 15  0  0  0  0  0  0
   79.8174    1.5752   -0.0501 N   0  0  0  0  0 15  0  0  0  0  0  0
   81.0574    1.9452    0.6278 C   0  0  0  0  0 15  0  0  0  0  0  0
   81.4214    0.9283    1.6807 C   0  0  0  0  0 15  0  0  0  0  0  0
   82.6224    1.1852    2.4126 O   0  0  0  0  0 15  0  0  0  0  0  0
   80.8934    3.3632    1.2093 C   0  0  0  0  0 15  0  0  0  0  0  0
   82.4524    3.9527    1.9054 S   0  0  0  0  0 15  0  0  0  0  0  0
   79.2704    0.6805    0.2062 H   0  0  0  0  0 15  0  0  0  0  0  0
   81.8724    1.9514   -0.1188 H   0  0  0  0  0 15  0  0  0  0  0  0
   80.5764    4.0813    0.4309 H   0  0  0  0  0 15  0  0  0  0  0  0
   80.1074    3.3919    1.9928 H   0  0  0  0  0 15  0  0  0  0  0  0
   82.1224    3.8041    3.1859 H   0  0  0  0  0 15  0  0  0  0  0  0
   81.2955   -0.2232    1.5601 N   0  0  0  0  0 15  0  0  0  0  0  0
   82.5435   -0.9460    1.7859 C   0  0  0  0  0 15  0  0  0  0  0  0
   82.8645   -1.8494    0.6183 C   0  0  0  0  0 15  0  0  0  0  0  0
   82.1345   -1.9247   -0.3648 O   0  0  0  0  0 15  0  0  0  0  0  0
   80.7145   -0.3523    0.6587 H   0  0  0  0  0 15  0  0  0  0  0  0
   83.3765   -0.2355    1.9347 H   0  0  0  0  0 15  0  0  0  0  0  0
   82.4725   -1.5538    2.7067 H   0  0  0  0  0 15  0  0  0  0  0  0
   82.7736   -1.4979   -0.4899 N   0  0  0  0  0 15  0  0  0  0  0  0
   84.0216   -1.5953   -1.2408 C   0  0  0  0  0 15  0  0  0  0  0  0
   84.3426   -0.2890   -1.9285 C   0  0  0  0  0 15  0  0  0  0  0  0
   83.6126    0.6924   -1.8325 O   0  0  0  0  0 15  0  0  0  0  0  0
   82.1926   -0.5878   -0.4610 H   0  0  0  0  0 15  0  0  0  0  0  0
   84.8546   -1.8648   -0.5668 H   0  0  0  0  0 15  0  0  0  0  0  0
   83.9506   -2.3970   -1.9988 H   0  0  0  0  0 15  0  0  0  0  0  0
   84.2517    0.7417   -1.3905 N   0  0  0  0  0 15  0  0  0  0  0  0
   85.2147    1.8373   -1.3702 C   0  0  0  0  0 15  0  0  0  0  0  0
   86.2147    1.5854   -0.2685 C   0  0  0  0  0 15  0  0  0  0  0  0
   87.4047    1.6607   -0.5261 O   0  0  0  0  0 15  0  0  0  0  0  0
   84.5367    3.2141   -1.1362 C   0  0  0  0  0 15  0  0  0  0  0  0
   85.7297    1.8694   -2.3451 H   0  0  0  0  0 15  0  0  0  0  0  0
   83.2827    0.9447   -1.2452 H   0  0  0  0  0 15  0  0  0  0  0  0
   84.0177    3.2387   -0.1679 H   0  0  0  0  0 15  0  0  0  0  0  0
   83.8027    3.4109   -1.9339 H   0  0  0  0  0 15  0  0  0  0  0  0
   85.2927    4.0148   -1.1492 H   0  0  0  0  0 15  0  0  0  0  0  0
   85.7687    1.3525    0.8826 O   0  0  0  0  0 15  0  0  0  0  0  0
   86.4597    1.2007    1.5200 H   0  0  0  0  0 15  0  0  0  0  0  0
M  END
$$$$
