drugbank_target|P0ACC7 Bifunctional protein GlmU (DB01992; DB03397; DB03814)
 OpenBabel12092120033D

  0  0  0     0  0            999 V3000
M  V30 BEGIN CTAB
M  V30 COUNTS 6952 7000 0 0 0
M  V30 BEGIN ATOM
M  V30 1 H -0.908 1.98254 -0.117106 0
M  V30 2 N 0 1.576 0 0
M  V30 3 C 0.933 2.03868 1.02534 0
M  V30 4 C 1.911 0.928543 1.3348 0
M  V30 5 O 3.095 1.19667 1.45644 0
M  V30 6 C 0.222 2.43627 2.35294 0
M  V30 7 C -0.732 3.65373 2.2001 0
M  V30 8 S 0.101 5.13292 1.52614 0
M  V30 9 C 1.257 5.56322 2.86805 0
M  V30 10 H 1.49 2.90518 0.631377 0
M  V30 11 H -0.977 1.52953 0.210867 0
M  V30 12 H 0.981 2.67203 3.11629 0
M  V30 13 H -0.358 1.57376 2.7183 0
M  V30 14 H -1.165 3.90944 3.18086 0
M  V30 15 H -1.563 3.418 1.51819 0
M  V30 16 H 0.729 5.58782 3.83104 0
M  V30 17 H 1.672 6.56266 2.65933 0
M  V30 18 H 2.08 4.83886 2.90714 0
M  V30 19 N 1.4781 -0.272755 1.55222 0
M  V30 20 C 2.4081 -1.34136 1.91127 0
M  V30 21 C 3.3891 -1.51513 0.773168 0
M  V30 22 O 4.5741 -1.64552 1.03132 0
M  V30 23 C 1.7041 -2.70083 2.1834 0
M  V30 24 C 0.6581 -2.67437 3.34158 0
M  V30 25 C -0.0159 -4.06938 3.46851 0
M  V30 26 C 1.2841 -2.26686 4.70543 0
M  V30 27 H 2.9781 -1.04333 2.80633 0
M  V30 28 H 0.5241 -0.500454 1.35024 0
M  V30 29 H 2.4771 -3.44952 2.42046 0
M  V30 30 H 1.2011 -3.01469 1.25634 0
M  V30 31 H -0.1399 -1.95026 3.1042 0
M  V30 32 H -0.4919 -4.35547 2.51611 0
M  V30 33 H -0.7919 -4.06062 4.2472 0
M  V30 34 H 0.7321 -4.83545 3.72849 0
M  V30 35 H 2.1461 -2.91277 4.93792 0
M  V30 36 H 0.5431 -2.36971 5.5133 0
M  V30 37 H 1.6131 -1.21818 4.69349 0
M  V30 38 N 2.9562 -1.48159 -0.537278 0
M  V30 39 C 3.9042 -1.62573 -1.66352 0
M  V30 40 C 4.8982 -0.492366 -1.62087 0
M  V30 41 O 6.1042 -0.670847 -1.67032 0
M  V30 42 H 2.4792 -0.511992 -0.550789 0
M  V30 43 H 4.4502 -2.57176 -1.51337 0
M  V30 44 C 3.1992 -1.67583 -3.04649 0
M  V30 45 H 2.5222 -2.54151 -3.08622 0
M  V30 46 H 3.9622 -1.81713 -3.83088 0
M  V30 47 C 2.4212 -0.413039 -3.34358 0
M  V30 48 O 2.9512 0.477259 -3.98855 0
M  V30 49 N 1.1572 -0.286961 -2.8918 0
M  V30 50 H 0.7042 -1.01241 -2.36871 0
M  V30 51 H 0.6622 0.556963 -3.09427 0
M  V30 52 N 4.4343 0.785586 -1.36625 0
M  V30 53 C 5.3823 1.91978 -1.31329 0
M  V30 54 C 6.3763 1.68162 -0.204416 0
M  V30 55 O 7.5823 1.76122 -0.371645 0
M  V30 56 H 3.9573 0.631087 -0.408942 0
M  V30 57 H 5.9283 1.93562 -2.27104 0
M  V30 58 C 4.6773 3.29055 -1.12329 0
M  V30 59 H 4.0003 3.4795 -1.96903 0
M  V30 60 H 5.4403 4.08756 -1.12671 0
M  V30 61 C 3.8993 3.36461 0.171861 0
M  V30 62 O 4.4293 3.84576 1.16035 0
M  V30 63 N 2.6353 2.89782 0.217846 0
M  V30 64 H 2.1823 2.50819 -0.587183 0
M  V30 65 H 2.1403 2.95119 1.08408 0
M  V30 66 N 5.9124 1.20967 1.01018 0
M  V30 67 C 6.8754 0.965918 2.07853 0
M  V30 68 C 7.8754 -0.0610545 1.60684 0
M  V30 69 O 9.0654 0.175681 1.73312 0
M  V30 70 C 6.1974 0.455513 3.37843 0
M  V30 71 H 7.3904 1.91365 2.3091 0
M  V30 72 H 4.9434 1.02594 1.17916 0
M  V30 73 H 5.6784 -0.497381 3.20463 0
M  V30 74 H 5.4634 1.19622 3.73407 0
M  V30 75 H 6.9534 0.304667 4.16487 0
M  V30 76 N 7.3905 -1.2043 1.01659 0
M  V30 77 C 8.3235 -2.21924 0.531521 0
M  V30 78 C 9.3015 -1.57054 -0.421032 0
M  V30 79 O 10.4855 -1.85389 -0.341035 0
M  V30 80 C 7.6125 -3.37942 -0.226496 0
M  V30 81 C 6.6585 -4.21115 0.67561 0
M  V30 82 S 7.4915 -4.90674 2.14475 0
M  V30 83 C 8.6475 -6.10113 1.3969 0
M  V30 84 H 8.8805 -2.62725 1.3915 0
M  V30 85 H 6.4135 -1.30481 0.825479 0
M  V30 86 H 8.3715 -4.05196 -0.657738 0
M  V30 87 H 7.0325 -2.956 -1.06205 0
M  V30 88 H 6.2255 -5.03918 0.091108 0
M  V30 89 H 5.8275 -3.59115 1.04463 0
M  V30 90 H 8.1195 -6.7411 0.676897 0
M  V30 91 H 9.0625 -6.73022 2.20107 0
M  V30 92 H 9.4705 -5.57283 0.899786 0
M  V30 93 N 8.8686 -0.792821 -1.36206 0
M  V30 94 C 10.0936 -0.377701 -2.03932 0
M  V30 95 C 10.5186 0.998947 -1.59382 0
M  V30 96 O 9.8766 1.64421 -0.763903 0
M  V30 97 C 9.9246 -0.453635 -3.57735 0
M  V30 98 O 9.0286 0.538151 -4.08874 0
M  V30 99 H 8.3696 -0.159855 -0.644471 0
M  V30 100 H 10.8996 -1.07488 -1.7409 0
M  V30 101 H 10.9096 -0.318464 -4.06755 0
M  V30 102 H 9.5846 -1.45784 -3.89512 0
M  V30 103 H 8.1616 0.364359 -3.71116 0
M  V30 104 N 10.3467 1.47872 -0.545128 0
M  V30 105 C 11.5927 2.02793 -0.0166104 0
M  V30 106 C 11.9257 1.41987 1.32489 0
M  V30 107 O 11.2007 0.571045 1.85928 0
M  V30 108 C 11.4837 3.59989 0.0893294 0
M  V30 109 C 11.3367 4.3125 -1.27841 0
M  V30 110 C 12.6557 4.32606 0.808724 0
M  V30 111 H 9.7747 0.736962 -0.00751035 0
M  V30 112 H 12.4167 1.76433 -0.705085 0
M  V30 113 H 10.5667 3.82579 0.675681 0
M  V30 114 H 12.2387 4.20035 -1.90704 0
M  V30 115 H 10.4817 3.92076 -1.85632 0
M  V30 116 H 11.1527 5.39736 -1.15713 0
M  V30 117 H 13.6287 4.14936 0.310992 0
M  V30 118 H 12.5047 5.42251 0.851782 0
M  V30 119 H 12.7657 4.00963 1.86229 0
M  V30 120 N 11.8248 0.280983 1.55075 0
M  V30 121 C 13.0708 -0.33461 2.00021 0
M  V30 122 C 13.4038 -1.55063 1.16915 0
M  V30 123 O 12.6788 -1.93006 0.240646 0
M  V30 124 C 12.9618 -0.711007 3.53011 0
M  V30 125 C 12.8148 0.512766 4.46868 0
M  V30 126 C 14.1338 -1.54522 4.12081 0
M  V30 127 H 11.2528 -0.120147 0.727141 0
M  V30 128 H 13.8948 0.389097 1.85973 0
M  V30 129 H 12.0448 -1.32761 3.65112 0
M  V30 130 H 13.7168 1.15131 4.46702 0
M  V30 131 H 11.9598 1.14975 4.18286 0
M  V30 132 H 12.6308 0.205556 5.51617 0
M  V30 133 H 15.1068 -1.02442 4.03293 0
M  V30 134 H 13.9828 -1.77739 5.19327 0
M  V30 135 H 14.2438 -2.52813 3.62682 0
M  V30 136 N 13.3029 -1.57598 0.00835791 0
M  V30 137 C 14.5519 -1.90107 -0.673968 0
M  V30 138 C 14.8649 -0.884275 -1.7447 0
M  V30 139 O 16.0709 -1.09987 -2.48224 0
M  V30 140 C 14.5269 -3.37497 -1.24995 0
M  V30 141 C 14.1349 -4.47491 -0.2136 0
M  V30 142 C 15.8789 -3.79104 -1.90999 0
M  V30 143 C 13.7859 -5.85963 -0.80005 0
M  V30 144 H 12.7159 -0.709393 -0.255495 0
M  V30 145 H 15.3669 -1.83365 0.0702693 0
M  V30 146 H 13.7489 -3.39102 -2.04513 0
M  V30 147 H 14.9229 -4.57414 0.557596 0
M  V30 148 H 13.2379 -4.14956 0.346474 0
M  V30 149 H 15.8349 -4.79901 -2.35795 0
M  V30 150 H 16.1779 -3.1306 -2.74407 0
M  V30 151 H 16.7109 -3.79833 -1.18203 0
M  V30 152 H 13.4499 -6.555 -0.00456708 0
M  V30 153 H 12.9699 -5.79687 -1.54021 0
M  V30 154 H 14.6489 -6.33884 -1.29615 0
M  V30 155 N 14.781 0.264519 -1.55364 0
M  V30 156 C 15.711 1.33121 -1.91836 0
M  V30 157 C 16.692 1.51101 -0.781192 0
M  V30 158 O 17.877 1.64003 -1.04003 0
M  V30 159 C 15.007 2.68921 -2.19769 0
M  V30 160 C 13.961 2.65661 -3.35571 0
M  V30 161 C 13.287 4.05093 -3.49004 0
M  V30 162 C 14.587 2.24187 -4.71739 0
M  V30 163 H 16.281 1.02844 -2.81182 0
M  V30 164 H 13.827 0.493286 -1.35287 0
M  V30 165 H 15.78 3.43663 -2.43872 0
M  V30 166 H 14.504 3.00799 -1.27231 0
M  V30 167 H 13.163 1.93377 -3.1145 0
M  V30 168 H 12.811 4.34206 -2.53917 0
M  V30 169 H 12.511 4.03804 -4.26868 0
M  V30 170 H 14.035 4.81561 -3.75408 0
M  V30 171 H 15.449 2.88654 -4.9533 0
M  V30 172 H 13.846 2.34044 -5.52579 0
M  V30 173 H 14.916 1.19327 -4.69988 0
M  V30 174 N 16.2591 1.48442 0.529413 0
M  V30 175 C 17.2221 1.62524 1.61612 0
M  V30 176 C 18.2221 0.498509 1.52877 0
M  V30 177 O 19.4121 0.76431 1.56537 0
M  V30 178 C 16.5441 1.59597 3.01233 0
M  V30 179 H 17.7371 2.59423 1.50465 0
M  V30 180 H 15.2901 1.37047 0.751514 0
M  V30 181 H 16.0251 0.641781 3.17886 0
M  V30 182 H 15.8101 2.41397 3.08982 0
M  V30 183 H 17.3001 1.72646 3.80241 0
M  V30 184 N 17.7372 -0.778329 1.37039 0
M  V30 185 C 18.7002 -1.87301 1.32102 0
M  V30 186 C 19.7002 -1.59198 0.226405 0
M  V30 187 O 20.8902 -1.67403 0.481861 0
M  V30 188 C 18.0222 -3.24309 1.05055 0
M  V30 189 H 19.2152 -1.93093 2.29467 0
M  V30 190 H 16.7682 -0.977358 1.21973 0
M  V30 191 H 17.5032 -3.24196 0.0819373 0
M  V30 192 H 17.2882 -3.46098 1.84279 0
M  V30 193 H 18.7782 -4.04382 1.04234 0
M  V30 194 N 19.2153 -1.21501 -1.00376 0
M  V30 195 C 20.4633 -1.03095 -1.73827 0
M  V30 196 C 20.7843 0.436341 -1.90055 0
M  V30 197 O 20.0543 1.31466 -1.45236 0
M  V30 198 H 18.6343 -0.378487 -0.644016 0
M  V30 199 H 21.2963 -1.52831 -1.20949 0
M  V30 200 H 20.3923 -1.49991 -2.73695 0
M  V30 201 N 20.6934 1.19889 -1.02296 0
M  V30 202 C 21.6404 2.22901 -0.598651 0
M  V30 203 C 22.6104 1.61588 0.384521 0
M  V30 204 O 23.7954 1.88697 0.282522 0
M  V30 205 C 20.9354 3.45063 0.0504476 0
M  V30 206 C 20.0484 4.20783 -0.978053 0
M  V30 207 C 19.1834 5.30356 -0.299338 0
M  V30 208 C 18.2224 5.97826 -1.31416 0
M  V30 209 N 17.3594 6.98975 -0.661667 0
M  V30 210 H 22.1994 2.58554 -1.48169 0
M  V30 211 H 19.7364 1.27039 -0.741584 0
M  V30 212 H 21.6944 4.14831 0.443971 0
M  V30 213 H 20.3244 3.10084 0.897097 0
M  V30 214 H 19.3764 3.50018 -1.48969 0
M  V30 215 H 20.6884 4.67109 -1.74958 0
M  V30 216 H 19.8424 6.06516 0.149347 0
M  V30 217 H 18.5814 4.85084 0.504445 0
M  V30 218 H 17.5864 5.20422 -1.77317 0
M  V30 219 H 18.8114 6.45183 -2.11933 0
M  V30 220 H 16.7574 6.55886 0.122132 0
M  V30 221 H 16.6744 7.43461 -1.37117 0
M  V30 222 H 17.9424 7.7914 -0.236785 0
M  V30 223 N 22.1715 0.800033 1.35784 0
M  V30 224 C 23.4195 0.376597 1.9856 0
M  V30 225 C 23.7405 -1.05812 1.63795 0
M  V30 226 O 23.0105 -1.73103 0.917171 0
M  V30 227 H 21.5905 0.136261 0.734467 0
M  V30 228 H 24.2525 1.02442 1.65806 0
M  V30 229 H 23.3485 0.477002 3.08433 0
M  V30 230 N 23.6496 -1.47581 0.552962 0
M  V30 231 C 24.8776 -2.06875 0.0320556 0
M  V30 232 C 25.2926 -1.40625 -1.25976 0
M  V30 233 O 24.6496 -0.501349 -1.75479 0
M  V30 234 C 24.7006 -3.61092 -0.17167 0
M  V30 235 O 24.4216 -4.24858 1.06899 0
M  V30 236 C 25.9226 -4.37242 -0.730344 0
M  V30 237 H 23.1426 -0.669561 0.043915 0
M  V30 238 H 25.6866 -1.89646 0.765163 0
M  V30 239 H 23.8416 -3.7785 -0.854894 0
M  V30 240 H 24.2556 -5.17334 0.864059 0
M  V30 241 H 25.7296 -5.45842 -0.822203 0
M  V30 242 H 26.2066 -4.03235 -1.74064 0
M  V30 243 H 26.8126 -4.25219 -0.0829543 0
M  V30 244 N 25.1277 -0.289203 -1.54924 0
M  V30 245 C 26.5437 0.0645403 -1.59469 0
M  V30 246 C 26.7437 1.53419 -1.30632 0
M  V30 247 O 25.7997 2.2852 -1.074 0
M  V30 248 C 27.1127 -0.32278 -2.98963 0
M  V30 249 C 28.6607 -0.270564 -3.11828 0
M  V30 250 C 29.1357 -0.632532 -4.53611 0
M  V30 251 N 30.6267 -0.584617 -4.59496 0
M  V30 252 C 31.3617 -0.837314 -5.67254 0
M  V30 253 N 30.8577 -1.15536 -6.83098 0
M  V30 254 N 32.6507 -0.765166 -5.56868 0
M  V30 255 H 24.8017 -1.24714 -1.71931 0
M  V30 256 H 27.0647 -0.504809 -0.802416 0
M  V30 257 H 26.7707 -1.34541 -3.24948 0
M  V30 258 H 26.6447 0.32944 -3.75759 0
M  V30 259 H 29.0317 0.742805 -2.85598 0
M  V30 260 H 29.1127 -0.957242 -2.37214 0
M  V30 261 H 28.7567 -1.64365 -4.80569 0
M  V30 262 H 28.6867 0.07609 -5.26545 0
M  V30 263 H 31.1777 -0.349248 -3.76283 0
M  V30 264 H 31.4907 -1.33447 -7.61191 0
M  V30 265 H 29.8357 -1.19328 -6.84679 0
M  V30 266 H 33.0267 -0.516432 -4.65243 0
M  V30 267 H 33.1997 -0.965477 -6.40767 0
M  V30 268 N 26.6058 1.57591 -0.0167156 0
M  V30 269 C 27.5388 2.04944 1.00366 0
M  V30 270 C 28.5168 0.942648 1.32487 0
M  V30 271 O 29.7008 1.21205 1.44367 0
M  V30 272 C 26.8278 2.46109 2.32697 0
M  V30 273 C 25.8738 3.67686 2.16123 0
M  V30 274 S 26.7068 5.14882 1.47161 0
M  V30 275 C 27.8628 5.59332 2.80888 0
M  V30 276 H 28.0958 2.91172 0.600528 0
M  V30 277 H 25.6288 1.53168 0.194632 0
M  V30 278 H 27.5868 2.70493 3.08778 0
M  V30 279 H 26.2478 1.6025 2.70146 0
M  V30 280 H 25.4408 3.94296 3.13922 0
M  V30 281 H 25.0428 3.43391 1.48185 0
M  V30 282 H 27.3348 5.62814 3.77156 0
M  V30 283 H 28.2778 6.5905 2.58958 0
M  V30 284 H 28.6858 4.86942 2.85565 0
M  V30 285 N 28.0839 -0.256276 1.55502 0
M  V30 286 C 29.3139 -1.00196 1.80677 0
M  V30 287 C 29.7219 -1.79805 0.588797 0
M  V30 288 O 29.0649 -1.78055 -0.451883 0
M  V30 289 C 29.1269 -1.99515 2.99055 0
M  V30 290 C 28.7909 -1.38688 4.35448 0
M  V30 291 C 29.7879 -0.794079 5.138 0
M  V30 292 C 27.4729 -1.40906 4.82132 0
M  V30 293 C 29.4669 -0.231562 6.36979 0
M  V30 294 C 27.1539 -0.842684 6.05262 0
M  V30 295 C 28.1519 -0.254953 6.82524 0
M  V30 296 O 27.8399 0.3027 8.0333 0
M  V30 297 H 27.5719 -0.300919 0.60533 0
M  V30 298 H 30.1259 -0.287307 2.03381 0
M  V30 299 H 28.3559 -2.74785 2.72084 0
M  V30 300 H 30.0449 -2.60349 3.11405 0
M  V30 301 H 30.8109 -0.769519 4.78856 0
M  V30 302 H 26.6899 -1.85591 4.21992 0
M  V30 303 H 30.2339 0.227816 6.97228 0
M  V30 304 H 26.1309 -0.86454 6.39684 0
M  V30 305 H 26.8989 0.193662 8.18271 0
M  V30 306 N 29.562 -1.4872 -0.521534 0
M  V30 307 C 30.787 -1.61101 -1.30618 0
M  V30 308 C 31.212 -0.274611 -1.86085 0
M  V30 309 O 30.57 0.754937 -1.64834 0
M  V30 310 C 30.618 -2.66709 -2.4269 0
M  V30 311 O 29.722 -2.24456 -3.45967 0
M  V30 312 H 29.063 -0.539921 -0.386499 0
M  V30 313 H 31.593 -1.94767 -0.626645 0
M  V30 314 H 31.603 -2.88245 -2.88754 0
M  V30 315 H 30.278 -3.63727 -2.01682 0
M  V30 316 H 28.855 -2.13168 -3.05964 0
M  V30 317 N 31.0401 0.771051 -1.3745 0
M  V30 318 C 32.3171 1.519 -1.23231 0
M  V30 319 C 32.6971 2.10383 0.173809 0
M  V30 320 O 32.0451 1.95583 1.18151 0
M  V30 321 C 32.2551 2.59933 -2.32886 0
M  V30 322 C 33.6031 3.27316 -2.70461 0
M  V30 323 O 34.6271 2.70228 -2.32068 0
M  V30 324 O 33.4861 4.30531 -3.36608 0
M  V30 325 H 30.5801 0.672803 -0.480901 0
M  V30 326 H 33.1261 0.807957 -1.49232 0
M  V30 327 H 31.8981 2.14842 -3.27045 0
M  V30 328 H 31.5211 3.38637 -2.08353 0
M  V30 329 N 32.5182 1.22032 0.997298 0
M  V30 330 C 33.4482 1.01065 2.10495 0
M  V30 331 C 34.4292 -0.0669542 1.69968 0
M  V30 332 O 35.6142 0.0943987 1.9397 0
M  V30 333 C 32.7442 0.582874 3.42374 0
M  V30 334 C 31.6982 1.60592 3.96729 0
M  V30 335 C 31.0242 1.03412 5.24605 0
M  V30 336 C 32.3242 2.99478 4.27914 0
M  V30 337 H 34.0182 1.93708 2.28292 0
M  V30 338 H 31.5642 0.932761 1.09707 0
M  V30 339 H 33.5172 0.423332 4.19268 0
M  V30 340 H 32.2412 -0.379213 3.24391 0
M  V30 341 H 30.9002 1.75316 3.21963 0
M  V30 342 H 30.5482 0.063518 5.0296 0
M  V30 343 H 30.2482 1.71754 5.61938 0
M  V30 344 H 31.7722 0.886066 6.04137 0
M  V30 345 H 33.1862 2.88153 4.95622 0
M  V30 346 H 31.5832 3.64903 4.76409 0
M  V30 347 H 32.6532 3.49742 3.3587 0
M  V30 348 N 33.9963 -1.19345 1.0293 0
M  V30 349 C 35.4073 -1.70725 0.755633 0
M  V30 350 C 35.7583 -1.82326 -0.724676 0
M  V30 351 O 34.8833 -1.49471 -1.56484 0
M  V30 352 C 35.4783 -3.10084 1.36503 0
M  V30 353 C 34.0373 -3.58723 1.13994 0
M  V30 354 C 33.1843 -2.35577 1.46283 0
M  V30 355 H 36.1353 -1.0418 1.19718 0
M  V30 356 H 36.1563 -3.72787 0.762217 0
M  V30 357 H 35.6683 -3.01609 2.44241 0
M  V30 358 H 33.7693 -3.72512 0.0807901 0
M  V30 359 H 33.8823 -4.42816 1.82894 0
M  V30 360 H 32.2463 -2.38935 0.88217 0
M  V30 361 H 33.0293 -2.29731 2.55105 0
M  V30 362 N 35.4744 -0.807222 -1.35358 0
M  V30 363 C 36.4214 -0.216037 -2.29787 0
M  V30 364 C 37.3914 0.650278 -1.52842 0
M  V30 365 O 38.5764 0.595227 -1.81278 0
M  V30 366 C 35.7164 0.628893 -3.39321 0
M  V30 367 C 34.8294 -0.257927 -4.31229 0
M  V30 368 C 33.9644 0.595069 -5.27856 0
M  V30 369 C 33.0034 -0.292111 -6.11403 0
M  V30 370 N 32.1404 0.520895 -7.00165 0
M  V30 371 H 36.9804 -1.02671 -2.79755 0
M  V30 372 H 34.5174 -0.517839 -1.37684 0
M  V30 373 H 36.4754 1.13393 -4.01494 0
M  V30 374 H 35.1054 1.40482 -2.90628 0
M  V30 375 H 34.1574 -0.881076 -3.70056 0
M  V30 376 H 35.4694 -0.940759 -4.89848 0
M  V30 377 H 34.6234 1.16522 -5.95405 0
M  V30 378 H 33.3624 1.31146 -4.69736 0
M  V30 379 H 32.3674 -0.874525 -5.428 0
M  V30 380 H 33.5924 -1.00638 -6.71602 0
M  V30 381 H 31.5384 1.22125 -6.44532 0
M  V30 382 H 31.4554 -0.103877 -7.55929 0
M  V30 383 H 32.7234 1.0743 -7.72062 0
M  V30 384 N 36.9525 1.47285 -0.560781 0
M  V30 385 C 38.1985 2.02764 -0.0381184 0
M  V30 386 C 38.5315 1.43384 1.30976 0
M  V30 387 O 37.8065 0.590733 1.85312 0
M  V30 388 C 38.0895 3.60064 0.0511427 0
M  V30 389 C 37.9425 4.2987 -1.32408 0
M  V30 390 C 39.2615 4.33439 0.762795 0
M  V30 391 H 36.3805 0.736841 -0.0153264 0
M  V30 392 H 39.0225 1.75675 -0.723759 0
M  V30 393 H 37.1725 3.83274 0.635065 0
M  V30 394 H 38.8445 4.17989 -1.95148 0
M  V30 395 H 37.0875 3.90085 -1.8978 0
M  V30 396 H 37.7585 5.38478 -1.21431 0
M  V30 397 H 40.2345 4.15243 0.266965 0
M  V30 398 H 39.1105 5.43124 0.794221 0
M  V30 399 H 39.3715 4.02915 1.81966 0
M  V30 400 N 38.4306 0.297415 1.54768 0
M  V30 401 C 39.3606 -0.573494 2.26348 0
M  V30 402 C 40.3416 -1.14085 1.26169 0
M  V30 403 O 41.5266 -1.17086 1.54934 0
M  V30 404 C 38.6566 -1.74716 3.00153 0
M  V30 405 C 37.6106 -1.31032 4.07449 0
M  V30 406 C 36.9366 -2.56887 4.68949 0
M  V30 407 C 38.2366 -0.444183 5.20408 0
M  V30 408 H 39.9306 0.0235131 2.99391 0
M  V30 409 H 37.4766 0.0127488 1.43994 0
M  V30 410 H 39.4296 -2.3625 3.48947 0
M  V30 411 H 38.1536 -2.37035 2.24682 0
M  V30 412 H 36.8126 -0.718066 3.59499 0
M  V30 413 H 36.4606 -3.17512 3.90122 0
M  V30 414 H 36.1606 -2.2836 5.41411 0
M  V30 415 H 37.6846 -3.19229 5.20505 0
M  V30 416 H 39.0986 -0.9651 5.65118 0
M  V30 417 H 37.4956 -0.252846 5.99567 0
M  V30 418 H 38.5656 0.531609 4.81977 0
M  V30 419 N 39.9087 -1.5758 0.0250728 0
M  V30 420 C 40.8587 -2.06468 -0.967201 0
M  V30 421 C 41.8427 -0.964376 -1.28797 0
M  V30 422 O 43.0347 -1.22797 -1.27475 0
M  V30 423 C 40.1637 -2.59203 -2.25097 0
M  V30 424 C 39.2497 -3.76157 -1.95874 0
M  V30 425 N 39.6407 -4.86919 -1.36905 0
M  V30 426 C 37.9387 -3.84566 -2.25887 0
M  V30 427 C 38.6397 -5.68172 -1.24724 0
M  V30 428 N 37.6157 -5.14953 -1.74138 0
M  V30 429 H 41.4177 -2.89508 -0.506176 0
M  V30 430 H 38.9317 -1.61399 -0.18004 0
M  V30 431 H 40.9287 -2.92517 -2.97052 0
M  V30 432 H 39.5887 -1.77592 -2.71829 0
M  V30 433 H 40.5997 -5.07256 -1.04459 0
M  V30 434 H 37.2767 -3.13854 -2.75321 0
M  V30 435 H 38.6667 -6.67221 -0.791605 0
M  V30 436 N 41.3868 0.248026 -1.55636 0
M  V30 437 C 42.6148 0.993808 -1.81469 0
M  V30 438 C 43.0298 1.78991 -0.60064 0
M  V30 439 O 42.3868 1.77345 0.430682 0
M  V30 440 C 42.4378 1.93258 -3.05506 0
M  V30 441 O 42.1588 1.16869 -4.22224 0
M  V30 442 C 43.6598 2.79444 -3.4413 0
M  V30 443 H 40.8798 0.292486 -0.603898 0
M  V30 444 H 43.4238 0.271253 -2.02693 0
M  V30 445 H 41.5788 2.60943 -2.86335 0
M  V30 446 H 41.9928 1.80359 -4.92515 0
M  V30 447 H 43.4668 3.41066 -4.34026 0
M  V30 448 H 43.9438 3.50499 -2.64665 0
M  V30 449 H 44.5498 2.17214 -3.65648 0
M  V30 450 N 42.8649 1.48995 0.513639 0
M  V30 451 C 43.7949 1.67636 1.62544 0
M  V30 452 C 44.7759 0.525087 1.61793 0
M  V30 453 O 45.9609 0.759502 1.78732 0
M  V30 454 C 43.0909 1.73114 3.01079 0
M  V30 455 C 42.0449 2.87905 3.16693 0
M  V30 456 C 41.3709 2.78486 4.56453 0
M  V30 457 C 42.6709 4.29005 2.97913 0
M  V30 458 H 44.3649 2.60716 1.47198 0
M  V30 459 H 41.9109 1.25465 0.706714 0
M  V30 460 H 43.8639 1.84742 3.78746 0
M  V30 461 H 42.5879 0.766241 3.17484 0
M  V30 462 H 41.2469 2.75859 2.41448 0
M  V30 463 H 40.8949 1.7993 4.69717 0
M  V30 464 H 40.5949 3.55523 4.67843 0
M  V30 465 H 42.1189 2.92104 5.36197 0
M  V30 466 H 43.5329 4.41798 3.65359 0
M  V30 467 H 41.9299 5.07166 3.20785 0
M  V30 468 H 42.9999 4.44329 1.94165 0
M  V30 469 N 44.343 -0.763751 1.37857 0
M  V30 470 C 45.306 -1.85889 1.34081 0
M  V30 471 C 46.306 -1.58949 0.243277 0
M  V30 472 O 47.496 -1.66882 0.499589 0
M  V30 473 C 44.628 -3.23176 1.08489 0
M  V30 474 H 45.821 -1.90648 2.31502 0
M  V30 475 H 43.374 -0.964367 1.23003 0
M  V30 476 H 44.109 -3.24091 0.116318 0
M  V30 477 H 43.894 -3.44124 1.8794 0
M  V30 478 H 45.384 -4.03254 1.08517 0
M  V30 479 N 45.8211 -1.22559 -0.990812 0
M  V30 480 C 47.0691 -1.04933 -1.72724 0
M  V30 481 C 47.3901 0.416158 -1.90508 0
M  V30 482 O 46.6601 1.29918 -1.46622 0
M  V30 483 H 45.2401 -0.385296 -0.639965 0
M  V30 484 H 47.9021 -1.54105 -1.19322 0
M  V30 485 H 46.9981 -1.52886 -2.72089 0
M  V30 486 N 47.2992 1.18797 -1.03562 0
M  V30 487 C 48.2462 2.22253 -0.622259 0
M  V30 488 C 49.2162 1.61987 0.36736 0
M  V30 489 O 50.4012 1.88986 0.262492 0
M  V30 490 C 47.5412 3.45097 0.0138462 0
M  V30 491 C 46.6542 4.19722 -1.02263 0
M  V30 492 C 45.7892 5.30009 -0.355573 0
M  V30 493 C 44.8282 5.96399 -1.37749 0
M  V30 494 N 43.9652 6.98234 -0.735766 0
M  V30 495 H 48.8052 2.56968 -1.50903 0
M  V30 496 H 46.3422 1.26245 -0.755017 0
M  V30 497 H 48.3002 4.15279 0.399948 0
M  V30 498 H 46.9302 3.11018 0.864158 0
M  V30 499 H 45.9822 3.48418 -1.52673 0
M  V30 500 H 47.2942 4.65227 -1.79903 0
M  V30 501 H 46.4482 6.0664 0.0850095 0
M  V30 502 H 45.1872 4.85592 0.452967 0
M  V30 503 H 44.1922 5.18512 -1.82826 0
M  V30 504 H 45.4172 6.42899 -2.18764 0
M  V30 505 H 43.3632 6.55979 0.0525597 0
M  V30 506 H 43.2802 7.41965 -1.44995 0
M  V30 507 H 44.5482 7.78845 -0.31941 0
M  V30 508 N 48.7773 0.814389 1.34928 0
M  V30 509 C 49.7403 0.235759 2.27984 0
M  V30 510 C 50.7403 -0.581412 1.49921 0
M  V30 511 O 51.9303 -0.398758 1.69575 0
M  V30 512 C 49.0623 -0.670433 3.34242 0
M  V30 513 H 50.2553 1.05659 2.80671 0
M  V30 514 H 47.8083 0.585614 1.44915 0
M  V30 515 H 48.5433 -1.51466 2.86755 0
M  V30 516 H 48.3283 -0.0860822 3.92005 0
M  V30 517 H 49.8183 -1.06935 4.03676 0
M  V30 518 N 50.2554 -1.46986 0.568584 0
M  V30 519 C 51.1884 -2.27129 -0.220779 0
M  V30 520 C 52.1664 -1.34757 -0.909905 0
M  V30 521 O 53.3504 -1.64152 -0.926622 0
M  V30 522 C 50.4774 -3.12108 -1.31553 0
M  V30 523 C 49.5234 -4.20141 -0.733748 0
M  V30 524 S 50.3564 -5.33783 0.428479 0
M  V30 525 C 51.5124 -6.22327 -0.667811 0
M  V30 526 H 51.7454 -2.93731 0.459267 0
M  V30 527 H 49.2784 -1.5026 0.355154 0
M  V30 528 H 51.2364 -3.61636 -1.94241 0
M  V30 529 H 49.8974 -2.44847 -1.96746 0
M  V30 530 H 49.0904 -4.79373 -1.5562 0
M  V30 531 H 48.6924 -3.73553 -0.182812 0
M  V30 532 H 50.9844 -6.59364 -1.55708 0
M  V30 533 H 51.9274 -7.0801 -0.11258 0
M  V30 534 H 52.3354 -5.5618 -0.965601 0
M  V30 535 N 51.7335 -0.305618 -1.54608 0
M  V30 536 C 52.9795 0.302746 -2.00528 0
M  V30 537 C 53.3125 1.53184 -1.19367 0
M  V30 538 O 52.5875 1.92598 -0.271321 0
M  V30 539 C 52.8705 0.654756 -3.54097 0
M  V30 540 C 52.7235 -0.583793 -4.45995 0
M  V30 541 C 54.0425 1.47947 -4.14487 0
M  V30 542 H 51.1615 0.108564 -0.72896 0
M  V30 543 H 53.8035 -0.418634 -1.85331 0
M  V30 544 H 51.9535 1.26935 -3.67178 0
M  V30 545 H 53.6255 -1.22224 -4.44814 0
M  V30 546 H 51.8685 -1.21615 -4.16404 0
M  V30 547 H 52.5395 -0.293287 -5.5122 0
M  V30 548 H 55.0155 0.96013 -4.04871 0
M  V30 549 H 53.8915 1.69454 -5.22088 0
M  V30 550 H 54.1525 2.47011 -3.66658 0
M  V30 551 N 53.2116 1.57565 -0.0334293 0
M  V30 552 C 54.1436 2.0739 0.975811 0
M  V30 553 C 55.1566 0.998166 1.2861 0
M  V30 554 O 56.3456 1.27426 1.25 0
M  V30 555 C 53.4456 2.4871 2.30209 0
M  V30 556 C 52.6186 3.79413 2.17634 0
M  V30 557 C 51.6776 4.07237 3.33233 0
M  V30 558 O 50.7036 4.77425 3.09927 0
M  V30 559 N 51.9056 3.5775 4.5716 0
M  V30 560 H 54.6706 2.94598 0.55066 0
M  V30 561 H 52.2316 1.61173 0.15323 0
M  V30 562 H 54.2236 2.64413 3.06378 0
M  V30 563 H 52.7936 1.66845 2.64351 0
M  V30 564 H 52.0136 3.73465 1.26165 0
M  V30 565 H 53.3016 4.65038 2.0644 0
M  V30 566 H 52.6996 3.00976 4.78989 0
M  V30 567 H 51.2566 3.78724 5.30482 0
M  V30 568 N 54.6897 -0.239769 1.55765 0
M  V30 569 C 55.6397 -1.30002 1.87306 0
M  V30 570 C 56.6237 -1.43156 0.73452 0
M  V30 571 O 57.8157 -1.46277 0.99659 0
M  V30 572 C 54.9447 -2.65409 2.17745 0
M  V30 573 C 54.0307 -2.56231 3.37945 0
M  V30 574 N 54.4217 -2.16689 4.57033 0
M  V30 575 C 52.7197 -2.87229 3.41197 0
M  V30 576 C 53.4207 -2.18318 5.39177 0
M  V30 577 N 52.3967 -2.58098 4.78421 0
M  V30 578 H 56.1987 -0.984912 2.76906 0
M  V30 579 H 53.7127 -0.448381 1.56087 0
M  V30 580 H 55.7097 -3.41934 2.38509 0
M  V30 581 H 54.3697 -2.97781 1.29448 0
M  V30 582 H 55.3807 -1.88116 4.82528 0
M  V30 583 H 52.0577 -3.24094 2.63191 0
M  V30 584 H 53.4477 -1.90025 6.44469 0
M  V30 585 N 56.1678 -1.49265 -0.50573 0
M  V30 586 C 57.4138 -1.58748 -1.26202 0
M  V30 587 C 57.7468 -0.271227 -1.92297 0
M  V30 588 O 57.0218 0.724831 -1.80489 0
M  V30 589 C 57.3048 -2.74332 -2.33268 0
M  V30 590 C 57.1578 -4.15737 -1.71705 0
M  V30 591 C 58.4768 -2.85576 -3.34865 0
M  V30 592 H 55.5958 -0.577826 -0.457478 0
M  V30 593 H 58.2378 -1.81532 -0.560897 0
M  V30 594 H 56.3878 -2.55036 -2.93068 0
M  V30 595 H 58.0598 -4.46537 -1.15769 0
M  V30 596 H 56.3028 -4.21605 -1.02135 0
M  V30 597 H 56.9738 -4.92477 -2.49341 0
M  V30 598 H 59.4498 -3.03127 -2.8505 0
M  V30 599 H 58.3258 -3.68135 -4.07146 0
M  V30 600 H 58.5868 -1.94732 -3.96903 0
M  V30 601 N 57.6459 0.756429 -1.3826 0
M  V30 602 C 58.8949 1.51082 -1.3363 0
M  V30 603 C 59.2079 1.95467 0.0720068 0
M  V30 604 O 60.4139 2.7043 0.240834 0
M  V30 605 C 58.8699 2.72893 -2.34644 0
M  V30 606 C 58.4779 2.35544 -3.81081 0
M  V30 607 C 60.2219 3.50791 -2.39052 0
M  V30 608 C 58.1289 3.53948 -4.73787 0
M  V30 609 H 57.0589 0.56727 -0.49671 0
M  V30 610 H 59.7099 0.827147 -1.638 0
M  V30 611 H 58.0919 3.43227 -1.97513 0
M  V30 612 H 59.2659 1.72894 -4.27135 0
M  V30 613 H 57.5809 1.70786 -3.79764 0
M  V30 614 H 60.1779 4.38823 -3.05513 0
M  V30 615 H 60.5209 3.91745 -1.40861 0
M  V30 616 H 61.0539 2.87467 -2.74968 0
M  V30 617 H 57.7929 3.18064 -5.73163 0
M  V30 618 H 57.3129 4.15651 -4.32428 0
M  V30 619 H 58.9919 4.20566 -4.91663 0
M  V30 620 N 59.124 1.23083 0.984299 0
M  V30 621 C 60.401 0.9689 1.69917 0
M  V30 622 C 60.781 -0.513604 2.04757 0
M  V30 623 O 60.129 -1.48383 1.73767 0
M  V30 624 C 60.339 1.87518 2.94343 0
M  V30 625 C 61.687 2.13636 3.6694 0
M  V30 626 O 62.711 1.85036 3.04368 0
M  V30 627 O 61.57 2.62119 4.79537 0
M  V30 628 H 58.664 0.365095 0.742048 0
M  V30 629 H 61.21 1.34107 1.03987 0
M  V30 630 H 59.982 2.87756 2.65164 0
M  V30 631 H 59.605 1.50514 3.6801 0
M  V30 632 N 60.6021 -1.18246 1.0419 0
M  V30 633 C 61.5651 -2.20128 0.638452 0
M  V30 634 C 62.5651 -1.57885 -0.304805 0
M  V30 635 O 63.7551 -1.73967 -0.0900369 0
M  V30 636 C 60.8871 -3.4084 -0.0637751 0
M  V30 637 H 62.0801 -2.57336 1.54007 0
M  V30 638 H 59.6331 -1.32152 0.834598 0
M  V30 639 H 60.3681 -3.09166 -0.979136 0
M  V30 640 H 60.1531 -3.8726 0.614198 0
M  V30 641 H 61.6431 -4.16274 -0.332512 0
M  V30 642 N 62.0802 -0.821533 -1.34494 0
M  V30 643 C 63.0432 -0.247847 -2.27856 0
M  V30 644 C 64.0432 0.573453 -1.50227 0
M  V30 645 O 65.2332 0.389759 -1.69784 0
M  V30 646 C 62.3652 0.652698 -3.34593 0
M  V30 647 H 63.5582 -1.07146 -2.80107 0
M  V30 648 H 61.1112 -0.593291 -1.44602 0
M  V30 649 H 61.8462 1.49943 -2.87555 0
M  V30 650 H 61.6312 0.065292 -3.92046 0
M  V30 651 H 63.1212 1.04793 -4.04238 0
M  V30 652 N 63.5583 1.46682 -0.576371 0
M  V30 653 C 64.5063 2.31953 0.17335 0
M  V30 654 C 65.5003 1.44098 0.89062 0
M  V30 655 O 66.7063 1.60759 0.809728 0
M  V30 656 H 63.0813 0.748273 0.0747727 0
M  V30 657 H 65.0523 2.93007 -0.564738 0
M  V30 658 C 63.8013 3.27142 1.17786 0
M  V30 659 H 63.1243 3.94719 0.635361 0
M  V30 660 H 64.5643 3.896 1.67296 0
M  V30 661 C 63.0233 2.52036 2.23561 0
M  V30 662 O 63.5533 2.27877 3.3081 0
M  V30 663 N 61.7593 2.12709 1.97998 0
M  V30 664 H 61.3063 2.32557 1.10792 0
M  V30 665 H 61.2643 1.62776 2.68982 0
M  V30 666 N 65.0364 0.313813 1.54444 0
M  V30 667 C 65.9464 -0.565714 2.27677 0
M  V30 668 C 66.9624 -1.13754 1.31666 0
M  V30 669 O 68.1384 -1.15959 1.64668 0
M  V30 670 C 65.2034 -1.71528 3.01296 0
M  V30 671 C 64.2644 -1.17624 4.12872 0
M  V30 672 C 63.4974 -2.27102 4.8297 0
M  V30 673 O 63.7204 -3.47256 4.52514 0
M  V30 674 O 62.6544 -1.9307 5.70094 0
M  V30 675 H 66.4804 0.0287296 3.03686 0
M  V30 676 H 64.0654 0.0798312 1.49187 0
M  V30 677 H 65.9474 -2.38476 3.4743 0
M  V30 678 H 64.6224 -2.29608 2.2817 0
M  V30 679 H 63.5294 -0.472124 3.71109 0
M  V30 680 H 64.8624 -0.640695 4.88012 0
M  V30 681 N 66.5145 -1.57545 0.0417849 0
M  V30 682 C 67.4445 -2.14009 -0.933929 0
M  V30 683 C 68.4255 -1.05938 -1.33083 0
M  V30 684 O 69.6105 -1.33833 -1.40721 0
M  V30 685 C 66.7405 -2.67747 -2.21199 0
M  V30 686 C 65.6945 -3.80718 -1.95544 0
M  V30 687 C 65.0205 -4.20935 -3.29724 0
M  V30 688 C 66.3205 -5.06258 -1.28452 0
M  V30 689 H 68.0145 -2.95788 -0.463645 0
M  V30 690 H 65.5605 -1.42285 -0.221573 0
M  V30 691 H 67.5135 -3.05886 -2.89848 0
M  V30 692 H 66.2375 -1.83147 -2.70416 0
M  V30 693 H 64.8965 -3.43037 -1.2931 0
M  V30 694 H 64.5445 -3.33298 -3.76724 0
M  V30 695 H 64.2445 -4.9707 -3.13361 0
M  V30 696 H 65.7685 -4.61666 -3.9962 0
M  V30 697 H 67.1825 -5.41903 -1.8712 0
M  V30 698 H 65.5795 -5.87475 -1.22445 0
M  V30 699 H 66.6495 -4.84207 -0.259219 0
M  V30 700 N 67.9926 0.231505 -1.5589 0
M  V30 701 C 69.2406 0.955461 -1.78088 0
M  V30 702 C 69.5616 1.85262 -0.608533 0
M  V30 703 O 68.8316 1.92277 0.375035 0
M  V30 704 H 67.4116 0.355787 -0.656829 0
M  V30 705 H 70.0736 0.245751 -1.93344 0
M  V30 706 H 69.1696 1.56814 -2.69844 0
M  V30 707 N 69.4707 1.49531 0.497807 0
M  V30 708 C 70.4337 1.65916 1.58128 0
M  V30 709 C 71.4337 0.530825 1.51786 0
M  V30 710 O 72.6237 0.797342 1.54881 0
M  V30 711 C 69.7557 1.65951 2.9778 0
M  V30 712 H 70.9487 2.62556 1.44929 0
M  V30 713 H 68.5017 1.38611 0.722275 0
M  V30 714 H 69.2367 0.709065 3.16453 0
M  V30 715 H 69.0217 2.47897 3.03792 0
M  V30 716 H 70.5117 1.80673 3.76493 0
M  V30 717 N 70.9488 -0.749086 1.3866 0
M  V30 718 C 71.9118 -1.84457 1.36045 0
M  V30 719 C 72.9118 -1.58682 0.260122 0
M  V30 720 O 74.1018 -1.66343 0.517261 0
M  V30 721 C 71.2338 -3.22008 1.11911 0
M  V30 722 H 72.4268 -1.88182 2.33512 0
M  V30 723 H 69.9798 -0.951266 1.24019 0
M  V30 724 H 70.7148 -3.2395 0.150686 0
M  V30 725 H 70.4998 -3.42111 1.91579 0
M  V30 726 H 71.9898 -4.0208 1.12788 0
M  V30 727 N 72.4269 -1.23603 -0.977757 0
M  V30 728 C 73.3769 -0.986664 -2.05545 0
M  V30 729 C 74.3609 0.0683009 -1.60755 0
M  V30 730 O 75.5529 -0.144162 -1.76412 0
M  V30 731 C 72.6819 -0.582623 -3.3832 0
M  V30 732 C 71.7679 -1.67313 -3.89701 0
M  V30 733 N 72.1589 -2.90394 -4.14132 0
M  V30 734 C 70.4569 -1.54832 -4.18262 0
M  V30 735 C 71.1579 -3.61017 -4.56116 0
M  V30 736 N 70.1339 -2.8854 -4.60701 0
M  V30 737 H 73.9359 -1.92139 -2.22396 0
M  V30 738 H 71.4499 -1.1358 -1.16074 0
M  V30 739 H 73.4469 -0.38524 -4.15116 0
M  V30 740 H 72.1069 0.34503 -3.22862 0
M  V30 741 H 73.1179 -3.26673 -4.01877 0
M  V30 742 H 69.7949 -0.687969 -4.11793 0
M  V30 743 H 71.1849 -4.66544 -4.83514 0
M  V30 744 N 73.905 1.17692 -1.04816 0
M  V30 745 C 75.151 1.88137 -0.75711 0
M  V30 746 C 75.484 1.80604 0.713841 0
M  V30 747 O 74.759 1.21146 1.52164 0
M  V30 748 C 75.042 3.38318 -1.2334 0
M  V30 749 C 74.895 3.54622 -2.76701 0
M  V30 750 C 76.214 4.32214 -0.829415 0
M  V30 751 H 73.333 0.683163 -0.27651 0
M  V30 752 H 75.975 1.38424 -1.30149 0
M  V30 753 H 74.125 3.80787 -0.770286 0
M  V30 754 H 75.797 3.21194 -3.31107 0
M  V30 755 H 74.04 2.97026 -3.16161 0
M  V30 756 H 74.711 4.60028 -3.05088 0
M  V30 757 H 77.187 3.97565 -1.22805 0
M  V30 758 H 76.063 5.35838 -1.19033 0
M  V30 759 H 76.324 4.41294 0.266891 0
M  V30 760 N 75.3831 0.828654 1.34056 0
M  V30 761 C 76.3331 0.226828 2.26869 0
M  V30 762 C 77.3171 -0.612243 1.48796 0
M  V30 763 O 78.5091 -0.465884 1.70759 0
M  V30 764 C 75.6381 -0.605654 3.37915 0
M  V30 765 C 74.7241 0.244361 4.23395 0
M  V30 766 N 75.1151 1.31815 4.88322 0
M  V30 767 C 73.4131 0.0296616 4.4599 0
M  V30 768 C 74.1141 1.83895 5.51867 0
M  V30 769 N 73.0901 1.14196 5.3147 0
M  V30 770 H 76.8921 1.04811 2.74576 0
M  V30 771 H 74.4061 0.67205 1.47842 0
M  V30 772 H 76.4031 -1.05302 4.03382 0
M  V30 773 H 75.0631 -1.42504 2.91758 0
M  V30 774 H 76.0741 1.70099 4.8917 0
M  V30 775 H 72.7511 -0.757097 4.10578 0
M  V30 776 H 74.1411 2.7376 6.136 0
M  V30 777 N 76.8612 -1.46375 0.584142 0
M  V30 778 C 77.7912 -2.33103 -0.136037 0
M  V30 779 C 78.7722 -1.45431 -0.882255 0
M  V30 780 O 79.9572 -1.74246 -0.857434 0
M  V30 781 C 77.0872 -3.27731 -1.14933 0
M  V30 782 C 76.0412 -4.24855 -0.517862 0
M  V30 783 C 75.3672 -5.09001 -1.63773 0
M  V30 784 C 76.6672 -5.19439 0.545886 0
M  V30 785 H 78.3612 -2.93568 0.588086 0
M  V30 786 H 75.9072 -1.41166 0.284259 0
M  V30 787 H 77.8602 -3.87261 -1.66153 0
M  V30 788 H 76.5842 -2.65377 -1.90375 0
M  V30 789 H 75.2432 -3.6659 -0.0267361 0
M  V30 790 H 74.8912 -4.43031 -2.38185 0
M  V30 791 H 74.5912 -5.74777 -1.22085 0
M  V30 792 H 76.1152 -5.71396 -2.15266 0
M  V30 793 H 77.5292 -5.73177 0.118704 0
M  V30 794 H 75.9262 -5.93566 0.88317 0
M  V30 795 H 76.9962 -4.63285 1.43162 0
M  V30 796 N 78.3393 -0.321999 -1.54275 0
M  V30 797 C 79.5853 0.281461 -2.00837 0
M  V30 798 C 79.9183 1.51909 -1.20985 0
M  V30 799 O 79.1933 1.923 -0.291733 0
M  V30 800 C 79.4763 0.617162 -3.54772 0
M  V30 801 C 79.3293 -0.631064 -4.45351 0
M  V30 802 C 80.6483 1.43542 -4.16033 0
M  V30 803 H 77.7673 0.100826 -0.730071 0
M  V30 804 H 80.4093 -0.438268 -1.84876 0
M  V30 805 H 78.5593 1.23034 -3.68504 0
M  V30 806 H 80.2313 -1.26934 -4.43492 0
M  V30 807 H 78.4743 -1.26025 -4.15091 0
M  V30 808 H 79.1453 -0.351735 -5.50878 0
M  V30 809 H 81.6213 0.917134 -4.05867 0
M  V30 810 H 80.4973 1.63907 -5.23856 0
M  V30 811 H 80.7583 2.43108 -3.69257 0
M  V30 812 N 79.8174 1.5752 -0.0501392 0
M  V30 813 C 81.0474 1.96678 0.632573 0
M  V30 814 C 81.4554 0.926298 1.64974 0
M  V30 815 O 80.7984 -0.09802 1.83438 0
M  V30 816 C 80.8604 3.32068 1.37735 0
M  V30 817 C 80.5244 4.54076 0.516131 0
M  V30 818 C 81.5214 5.19445 -0.217357 0
M  V30 819 C 79.2064 5.00304 0.44736 0
M  V30 820 C 81.2004 6.29378 -1.00807 0
M  V30 821 C 78.8874 6.10114 -0.347038 0
M  V30 822 C 79.8854 6.74512 -1.07344 0
M  V30 823 O 79.5734 7.82211 -1.85477 0
M  V30 824 H 79.3054 0.652193 0.177821 0
M  V30 825 H 81.8594 2.05091 -0.112543 0
M  V30 826 H 80.0894 3.20206 2.16807 0
M  V30 827 H 81.7784 3.55981 1.95019 0
M  V30 828 H 82.5444 4.84689 -0.173688 0
M  V30 829 H 78.4234 4.49971 1.00235 0
M  V30 830 H 81.9674 6.79575 -1.57556 0
M  V30 831 H 77.8644 6.44307 -0.392349 0
M  V30 832 H 78.6324 7.98982 -1.77678 0
M  V30 833 N 81.2955 -0.223234 1.56011 0
M  V30 834 C 82.5435 -0.946003 1.78592 0
M  V30 835 C 82.8645 -1.84936 0.618349 0
M  V30 836 O 82.1345 -1.92473 -0.364833 0
M  V30 837 H 80.7145 -0.352298 0.658707 0
M  V30 838 H 83.3765 -0.235494 1.93472 0
M  V30 839 H 82.4725 -1.55381 2.70672 0
M  V30 840 N 82.7736 -1.49793 -0.48987 0
M  V30 841 C 83.7236 -1.63673 -1.5873 0
M  V30 842 C 84.7076 -0.491956 -1.53195 0
M  V30 843 O 85.8996 -0.745461 -1.60536 0
M  V30 844 C 83.0286 -1.71689 -2.97284 0
M  V30 845 C 82.1146 -2.91781 -3.07774 0
M  V30 846 N 82.5056 -4.15714 -2.88124 0
M  V30 847 C 80.8036 -2.89949 -3.38889 0
M  V30 848 C 81.5046 -4.965 -3.03088 0
M  V30 849 N 80.4806 -4.30083 -3.3246 0
M  V30 850 H 84.2826 -2.57204 -1.42208 0
M  V30 851 H 81.7966 -1.46719 -0.69623 0
M  V30 852 H 83.7936 -1.79732 -3.76168 0
M  V30 853 H 82.4536 -0.793024 -3.14867 0
M  V30 854 H 83.4646 -4.45515 -2.64077 0
M  V30 855 H 80.1416 -2.06987 -3.62578 0
M  V30 856 H 81.5316 -6.04991 -2.92294 0
M  V30 857 N 84.2517 0.741722 -1.39055 0
M  V30 858 C 85.4997 1.49818 -1.35643 0
M  V30 859 C 85.8207 1.94938 0.0491642 0
M  V30 860 O 85.0907 1.68505 0.999141 0
M  V30 861 H 83.6707 0.555755 -0.499144 0
M  V30 862 H 86.3327 0.880957 -1.73854 0
M  V30 863 H 85.4287 2.38348 -2.01486 0
M  V30 864 N 85.7298 1.2412 0.971189 0
M  V30 865 C 86.9778 1.07668 1.71032 0
M  V30 866 C 87.2988 -0.385797 1.91146 0
M  V30 867 O 86.5688 -1.27569 1.4867 0
M  V30 868 H 85.1488 0.395429 0.633755 0
M  V30 869 H 87.8108 1.55984 1.16855 0
M  V30 870 H 86.9068 1.57195 2.69622 0
M  V30 871 N 87.2079 -1.17134 1.05439 0
M  V30 872 C 88.4849 -1.83411 0.679699 0
M  V30 873 C 88.8649 -1.9368 -0.839726 0
M  V30 874 O 88.2129 -1.47325 -1.74664 0
M  V30 875 C 88.4229 -3.20918 1.37159 0
M  V30 876 C 89.7709 -3.96796 1.51123 0
M  V30 877 O 90.7949 -3.30406 1.3308 0
M  V30 878 O 89.6539 -5.15778 1.80651 0
M  V30 879 H 86.7479 -0.79154 0.239569 0
M  V30 880 H 89.2939 -1.24411 1.15413 0
M  V30 881 H 88.0659 -3.08428 2.40807 0
M  V30 882 H 87.6889 -3.87587 0.886674 0
M  V30 883 N 88.686 -0.835752 -1.33615 0
M  V30 884 C 89.616 -0.281739 -2.31794 0
M  V30 885 C 90.597 0.608833 -1.58831 0
M  V30 886 O 91.782 0.533035 -1.86741 0
M  V30 887 C 88.912 0.546612 -3.42971 0
M  V30 888 C 87.866 -0.247904 -4.27281 0
M  V30 889 C 87.192 0.704001 -5.30045 0
M  V30 890 C 88.492 -1.46324 -5.01385 0
M  V30 891 H 90.186 -1.10206 -2.78379 0
M  V30 892 H 87.732 -0.531388 -1.33837 0
M  V30 893 H 89.685 0.944467 -4.1068 0
M  V30 894 H 88.409 1.40011 -2.95067 0
M  V30 895 H 87.068 -0.627281 -3.61194 0
M  V30 896 H 86.716 1.55381 -4.78399 0
M  V30 897 H 86.416 0.176524 -5.87335 0
M  V30 898 H 87.94 1.09944 -6.0062 0
M  V30 899 H 89.354 -1.13871 -5.61877 0
M  V30 900 H 87.751 -1.92728 -5.6831 0
M  V30 901 H 88.821 -2.23467 -4.30338 0
M  V30 902 N 90.1641 1.46063 -0.591896 0
M  V30 903 C 91.0941 2.33172 0.123673 0
M  V30 904 C 92.0751 1.45897 0.87453 0
M  V30 905 O 93.2601 1.74698 0.848181 0
M  V30 906 C 90.3901 3.28336 1.13194 0
M  V30 907 C 89.3441 4.25124 0.495324 0
M  V30 908 C 88.6701 5.09863 1.61071 0
M  V30 909 C 89.9701 5.19143 -0.573425 0
M  V30 910 H 91.6641 2.93252 -0.603646 0
M  V30 911 H 89.2101 1.41014 -0.291741 0
M  V30 912 H 91.1631 3.88137 1.64097 0
M  V30 913 H 89.8871 2.66383 1.88965 0
M  V30 914 H 88.5461 3.66599 0.00729452 0
M  V30 915 H 88.1941 4.44288 2.35832 0
M  V30 916 H 87.8941 5.75417 1.19035 0
M  V30 917 H 89.4181 5.72529 2.12233 0
M  V30 918 H 90.8321 5.73106 -0.1491 0
M  V30 919 H 89.2291 5.93089 -0.914636 0
M  V30 920 H 90.2991 4.62519 -1.45617 0
M  V30 921 N 91.6422 0.330177 1.54103 0
M  V30 922 C 92.5892 -0.532762 2.24567 0
M  V30 923 C 93.5592 -1.10635 1.23892 0
M  V30 924 O 94.7442 -1.14546 1.5259 0
M  V30 925 C 91.8842 -1.6845 3.01195 0
M  V30 926 C 90.9972 -1.13951 4.167 0
M  V30 927 C 90.1322 -2.25746 4.80845 0
M  V30 928 C 89.1712 -1.6853 5.88442 0
M  V30 929 N 88.3082 -2.74014 6.46421 0
M  V30 930 H 93.1482 0.0746905 2.97906 0
M  V30 931 H 90.6852 0.048632 1.4702 0
M  V30 932 H 92.6432 -2.36234 3.43874 0
M  V30 933 H 91.2732 -2.26314 2.30178 0
M  V30 934 H 90.3252 -0.35301 3.78758 0
M  V30 935 H 91.6372 -0.680892 4.94131 0
M  V30 936 H 90.7912 -3.01422 5.26526 0
M  V30 937 H 89.5302 -2.74947 4.0281 0
M  V30 938 H 88.5352 -0.913543 5.42157 0
M  V30 939 H 89.7602 -1.20198 6.68378 0
M  V30 940 H 87.7062 -3.22494 5.71256 0
M  V30 941 H 87.6232 -2.32735 7.19285 0
M  V30 942 H 88.8912 -3.49499 6.96757 0
M  V30 943 N 93.1203 -1.57491 0.0584922 0
M  V30 944 C 94.0523 -2.08916 -0.942694 0
M  V30 945 C 95.0653 -1.0185 -1.27006 0
M  V30 946 O 96.2543 -1.29398 -1.22957 0
M  V30 947 C 93.3543 -2.52341 -2.26224 0
M  V30 948 C 92.5273 -3.82827 -2.1157 0
M  V30 949 C 91.5863 -4.12487 -3.26712 0
M  V30 950 O 90.6123 -4.82295 -3.02292 0
M  V30 951 N 91.8143 -3.64978 -4.5141 0
M  V30 952 H 94.5793 -2.95437 -0.503722 0
M  V30 953 H 92.1403 -1.61397 -0.12757 0
M  V30 954 H 94.1323 -2.69254 -3.02133 0
M  V30 955 H 92.7023 -1.7103 -2.61663 0
M  V30 956 H 91.9223 -3.75425 -1.20208 0
M  V30 957 H 93.2103 -4.68263 -1.99015 0
M  V30 958 H 92.6083 -3.08558 -4.7414 0
M  V30 959 H 91.1653 -3.87115 -5.2439 0
M  V30 960 N 94.5984 0.214957 -1.56127 0
M  V30 961 C 95.5614 1.24997 -1.92116 0
M  V30 962 C 96.5614 1.39467 -0.800344 0
M  V30 963 O 97.7514 1.37619 -1.06802 0
M  V30 964 C 94.8834 2.62271 -2.17777 0
M  V30 965 H 96.0764 0.942875 -2.84693 0
M  V30 966 H 93.6294 0.455654 -1.49511 0
M  V30 967 H 94.3644 2.98068 -1.27773 0
M  V30 968 H 94.1494 2.53143 -2.99434 0
M  V30 969 H 95.6394 3.36946 -2.46693 0
M  V30 970 N 96.0765 1.50051 0.48192 0
M  V30 971 C 97.0065 1.71046 1.58951 0
M  V30 972 C 97.9875 0.559288 1.60642 0
M  V30 973 O 99.1725 0.797243 1.77081 0
M  V30 974 C 96.3025 1.79462 2.97339 0
M  V30 975 C 95.2565 2.94558 3.10515 0
M  V30 976 C 94.5825 2.88105 4.50444 0
M  V30 977 C 95.8825 4.35227 2.88747 0
M  V30 978 H 97.5765 2.6378 1.41635 0
M  V30 979 H 95.1225 1.26936 0.679942 0
M  V30 980 H 97.0755 1.92734 3.74742 0
M  V30 981 H 95.7995 0.833412 3.15788 0
M  V30 982 H 94.4585 2.80918 2.35543 0
M  V30 983 H 94.1065 1.89853 4.65795 0
M  V30 984 H 93.8065 3.65366 4.60197 0
M  V30 985 H 95.3305 3.03412 5.29881 0
M  V30 986 H 96.7445 4.49449 3.55905 0
M  V30 987 H 95.1415 5.13856 3.09955 0
M  V30 988 H 96.2115 4.48347 1.84696 0
M  V30 989 N 97.5546 -0.734337 1.39446 0
M  V30 990 C 98.5016 -1.84835 1.38219 0
M  V30 991 C 99.4716 -1.64331 0.24179 0
M  V30 992 O 100.657 -1.85728 0.437002 0
M  V30 993 C 97.7966 -3.22355 1.23212 0
M  V30 994 C 96.9096 -3.5456 2.46801 0
M  V30 995 C 96.0446 -4.81485 2.24377 0
M  V30 996 C 95.0836 -5.06536 3.43639 0
M  V30 997 N 94.2206 -6.24665 3.20528 0
M  V30 998 H 99.0606 -1.85219 2.33448 0
M  V30 999 H 96.5976 -0.905039 1.15963 0
M  V30 1000 H 98.5556 -4.0174 1.12522 0
M  V30 1001 H 97.1856 -3.21248 0.316121 0
M  V30 1002 H 96.2376 -2.69872 2.68092 0
M  V30 1003 H 97.5496 -3.6899 3.3563 0
M  V30 1004 H 96.7036 -5.68852 2.10933 0
M  V30 1005 H 95.4426 -4.6923 1.32944 0
M  V30 1006 H 94.4476 -4.17632 3.5758 0
M  V30 1007 H 95.6726 -5.20676 4.35974 0
M  V30 1008 H 93.6186 -6.13696 2.3176 0
M  V30 1009 H 93.5356 -6.39685 4.02913 0
M  V30 1010 H 94.8036 -7.14868 3.10779 0
M  V30 1011 N 99.0327 -1.24633 -0.964593 0
M  V30 1012 C 100.31 -0.995809 -1.68354 0
M  V30 1013 C 100.69 0.480964 -2.05548 0
M  V30 1014 O 100.038 1.45599 -1.76105 0
M  V30 1015 C 100.248 -1.92177 -2.91323 0
M  V30 1016 C 101.596 -2.19446 -3.63495 0
M  V30 1017 O 102.62 -1.89855 -3.01386 0
M  V30 1018 O 101.479 -2.69714 -4.75307 0
M  V30 1019 H 98.5727 -0.376854 -0.736146 0
M  V30 1020 H 101.119 -1.35745 -1.0184 0
M  V30 1021 H 99.8907 -2.91938 -2.60553 0
M  V30 1022 H 99.5137 -1.56349 -3.65569 0
M  V30 1023 N 100.511 1.16574 -1.06058 0
M  V30 1024 C 101.788 1.83048 -0.689416 0
M  V30 1025 C 102.168 1.94122 0.829443 0
M  V30 1026 O 101.516 1.48249 1.7388 0
M  V30 1027 C 101.726 3.20186 -1.38859 0
M  V30 1028 C 103.074 3.95989 -1.53226 0
M  V30 1029 O 104.098 3.29696 -1.3483 0
M  V30 1030 O 102.957 5.14813 -1.83384 0
M  V30 1031 H 100.051 0.790258 -0.243764 0
M  V30 1032 H 102.597 1.23797 -1.16071 0
M  V30 1033 H 101.369 3.07146 -2.4244 0
M  V30 1034 H 100.992 3.87112 -0.907216 0
M  V30 1035 N 101.989 0.842826 1.3317 0
M  V30 1036 C 102.937 0.267495 2.31057 0
M  V30 1037 C 103.931 -0.602682 1.58316 0
M  V30 1038 O 105.137 -0.491803 1.73151 0
M  V30 1039 H 101.512 0.0677813 0.748939 0
M  V30 1040 H 103.483 1.10754 2.77085 0
M  V30 1041 C 102.232 -0.539331 3.43492 0
M  V30 1042 H 101.555 0.12095 3.99617 0
M  V30 1043 H 102.995 -0.90767 4.14171 0
M  V30 1044 C 101.454 -1.71981 2.89697 0
M  V30 1045 O 101.984 -2.81862 2.86211 0
M  V30 1046 N 100.19 -1.54299 2.46252 0
M  V30 1047 H 99.7369 -0.649143 2.49287 0
M  V30 1048 H 99.6949 -2.33431 2.10612 0
M  V30 1049 N 103.467 -1.45747 0.599634 0
M  V30 1050 C 104.397 -2.33235 -0.111306 0
M  V30 1051 C 105.378 -1.46359 -0.866781 0
M  V30 1052 O 106.563 -1.75146 -0.838904 0
M  V30 1053 C 103.693 -3.28932 -1.11451 0
M  V30 1054 C 102.647 -4.25381 -0.472772 0
M  V30 1055 C 101.973 -5.1071 -1.58365 0
M  V30 1056 C 103.273 -5.18831 0.600948 0
M  V30 1057 H 104.967 -2.92927 0.61919 0
M  V30 1058 H 102.513 -1.40857 0.299215 0
M  V30 1059 H 104.466 -3.89002 -1.62036 0
M  V30 1060 H 103.19 -2.67381 -1.8755 0
M  V30 1061 H 101.849 -3.66598 0.0121472 0
M  V30 1062 H 101.497 -4.45533 -2.33473 0
M  V30 1063 H 101.197 -5.7604 -1.15982 0
M  V30 1064 H 102.721 -5.73647 -2.09194 0
M  V30 1065 H 104.135 -5.73019 0.179491 0
M  V30 1066 H 102.532 -5.92595 0.946076 0
M  V30 1067 H 103.602 -4.6174 1.48068 0
M  V30 1068 N 104.945 -0.338344 -1.53925 0
M  V30 1069 C 105.893 0.536231 -2.26335 0
M  V30 1070 C 106.887 1.1063 -1.28286 0
M  V30 1071 O 108.093 1.05264 -1.46012 0
M  V30 1072 H 104.468 0.191602 -0.727181 0
M  V30 1073 H 106.439 -0.0965747 -2.98244 0
M  V30 1074 C 105.188 1.67803 -3.04528 0
M  V30 1075 H 104.511 1.24864 -3.79801 0
M  V30 1076 H 105.951 2.26526 -3.58416 0
M  V30 1077 C 104.41 2.60439 -2.13712 0
M  V30 1078 O 104.94 3.6255 -1.72975 0
M  V30 1079 N 103.146 2.29006 -1.78898 0
M  V30 1080 H 102.693 1.46011 -2.12223 0
M  V30 1081 H 102.651 2.91248 -1.18416 0
M  V30 1082 N 106.423 1.57458 -0.0668435 0
M  V30 1083 C 107.669 1.94401 0.598316 0
M  V30 1084 C 108.024 0.946335 1.67518 0
M  V30 1085 O 107.317 -0.0321442 1.91573 0
M  V30 1086 C 107.511 3.35784 1.22409 0
M  V30 1087 C 107.34 4.49212 0.209367 0
M  V30 1088 C 106.11 5.04887 -0.204218 0
M  V30 1089 C 108.308 5.11335 -0.551431 0
M  V30 1090 N 106.29 6.01854 -1.21016 0
M  V30 1091 C 107.661 6.03754 -1.41 0
M  V30 1092 C 109.716 4.94173 -0.608038 0
M  V30 1093 C 108.419 6.80854 -2.32013 0
M  V30 1094 C 110.445 5.71912 -1.50566 0
M  V30 1095 C 109.807 6.63976 -2.35191 0
M  V30 1096 H 105.906 0.758538 0.190114 0
M  V30 1097 H 108.49 1.94175 -0.142832 0
M  V30 1098 H 106.661 3.36757 1.93518 0
M  V30 1099 H 108.393 3.59976 1.84931 0
M  V30 1100 H 105.148 4.73266 0.177908 0
M  V30 1101 H 105.572 6.55035 -1.71049 0
M  V30 1102 H 110.214 4.22788 0.032022 0
M  V30 1103 H 107.932 7.5152 -2.97057 0
M  V30 1104 H 111.518 5.60656 -1.55423 0
M  V30 1105 H 110.398 7.2308 -3.03522 0
M  V30 1106 N 107.901 -0.206675 1.56239 0
M  V30 1107 C 109.147 -0.930218 1.80208 0
M  V30 1108 C 109.48 -1.83387 0.638981 0
M  V30 1109 O 108.755 -1.91119 -0.361066 0
M  V30 1110 C 109.038 -1.75641 3.1436 0
M  V30 1111 C 108.891 -0.878257 4.41142 0
M  V30 1112 C 110.21 -2.73129 3.45092 0
M  V30 1113 H 107.329 -0.336742 0.655571 0
M  V30 1114 H 109.971 -0.198222 1.88963 0
M  V30 1115 H 108.121 -2.38048 3.07027 0
M  V30 1116 H 109.793 -0.269787 4.6051 0
M  V30 1117 H 108.036 -0.184385 4.33408 0
M  V30 1118 H 108.707 -1.49106 5.3148 0
M  V30 1119 H 111.183 -2.20856 3.52649 0
M  V30 1120 H 110.059 -3.28028 4.40101 0
M  V30 1121 H 110.32 -3.51606 2.68003 0
M  V30 1122 N 109.379 -1.50304 -0.473955 0
M  V30 1123 C 110.309 -1.71886 -1.58042 0
M  V30 1124 C 111.29 -0.567799 -1.60344 0
M  V30 1125 O 112.475 -0.806623 -1.76656 0
M  V30 1126 C 109.605 -1.81036 -2.96384 0
M  V30 1127 C 108.559 -2.962 -3.08949 0
M  V30 1128 C 107.885 -2.9049 -4.48909 0
M  V30 1129 C 109.185 -4.36752 -2.86434 0
M  V30 1130 H 110.879 -2.64527 -1.40234 0
M  V30 1131 H 108.425 -1.27295 -0.673201 0
M  V30 1132 H 110.378 -1.94719 -3.73714 0
M  V30 1133 H 109.102 -0.850147 -3.15341 0
M  V30 1134 H 107.761 -2.82164 -2.3405 0
M  V30 1135 H 107.409 -1.92321 -4.64781 0
M  V30 1136 H 107.109 -3.67802 -4.58253 0
M  V30 1137 H 108.633 -3.06218 -5.28264 0
M  V30 1138 H 110.047 -4.5133 -3.53517 0
M  V30 1139 H 108.444 -5.15493 -3.07225 0
M  V30 1140 H 109.514 -4.49321 -1.82316 0
M  V30 1141 N 110.857 0.726932 -1.39834 0
M  V30 1142 C 111.789 1.85147 -1.35104 0
M  V30 1143 C 112.802 1.60736 -0.258392 0
M  V30 1144 O 113.991 1.70821 -0.517931 0
M  V30 1145 C 111.091 3.21332 -1.07697 0
M  V30 1146 C 110.264 3.73033 -2.28396 0
M  V30 1147 C 109.323 4.87802 -1.97322 0
M  V30 1148 O 108.349 5.01043 -2.70083 0
M  V30 1149 N 109.551 5.72768 -0.944273 0
M  V30 1150 H 112.316 1.89706 -2.32017 0
M  V30 1151 H 109.877 0.908006 -1.3404 0
M  V30 1152 H 111.869 3.95691 -0.849144 0
M  V30 1153 H 110.439 3.11992 -0.194909 0
M  V30 1154 H 109.659 2.89934 -2.6708 0
M  V30 1155 H 110.947 4.0431 -3.08887 0
M  V30 1156 H 110.345 5.64669 -0.341427 0
M  V30 1157 H 108.902 6.4716 -0.776346 0
M  V30 1158 N 112.336 1.25143 0.95797 0
M  V30 1159 C 113.299 1.05321 2.03569 0
M  V30 1160 C 114.299 0.007152 1.60798 0
M  V30 1161 O 115.489 0.24903 1.72411 0
M  V30 1162 C 112.621 0.598394 3.35607 0
M  V30 1163 H 113.814 2.00986 2.22586 0
M  V30 1164 H 111.367 1.07502 1.13459 0
M  V30 1165 H 112.102 -0.361014 3.22284 0
M  V30 1166 H 111.887 1.35351 3.67998 0
M  V30 1167 H 113.377 0.48104 4.1482 0
M  V30 1168 N 113.814 -1.1601 1.06675 0
M  V30 1169 C 114.724 -2.24156 0.692179 0
M  V30 1170 C 115.74 -1.71507 -0.293513 0
M  V30 1171 O 116.916 -2.009 -0.141861 0
M  V30 1172 C 113.981 -3.46587 0.0884131 0
M  V30 1173 C 113.042 -4.14257 1.12646 0
M  V30 1174 C 112.275 -5.30844 0.551416 0
M  V30 1175 O 112.498 -5.66858 -0.634656 0
M  V30 1176 O 111.432 -5.87848 1.29298 0
M  V30 1177 H 115.258 -2.58513 1.59388 0
M  V30 1178 H 112.843 -1.23599 0.83926 0
M  V30 1179 H 114.725 -4.20679 -0.246361 0
M  V30 1180 H 113.4 -3.13994 -0.786712 0
M  V30 1181 H 112.307 -3.42118 1.51348 0
M  V30 1182 H 113.64 -4.50914 1.97325 0
M  V30 1183 N 115.292 -0.849877 -1.32721 0
M  V30 1184 C 116.224 -0.248332 -2.27851 0
M  V30 1185 C 117.237 0.577218 -1.52224 0
M  V30 1186 O 118.426 0.402489 -1.73903 0
M  V30 1187 C 115.526 0.668107 -3.32249 0
M  V30 1188 C 114.699 -0.120534 -4.37234 0
M  V30 1189 C 113.758 0.720932 -5.21238 0
M  V30 1190 O 112.784 0.156166 -5.68986 0
M  V30 1191 N 113.986 2.03647 -5.43607 0
M  V30 1192 H 116.751 -1.06575 -2.80111 0
M  V30 1193 H 114.312 -0.709395 -1.45531 0
M  V30 1194 H 116.304 1.23627 -3.85355 0
M  V30 1195 H 114.874 1.38621 -2.80184 0
M  V30 1196 H 114.094 -0.870108 -3.84477 0
M  V30 1197 H 115.382 -0.662406 -5.0447 0
M  V30 1198 H 114.78 2.51871 -5.06535 0
M  V30 1199 H 113.337 2.55287 -5.99727 0
M  V30 1200 N 116.77 1.45427 -0.607355 0
M  V30 1201 C 117.7 2.3329 0.0989352 0
M  V30 1202 C 118.681 1.46816 0.859007 0
M  V30 1203 O 119.866 1.75588 0.829604 0
M  V30 1204 C 116.996 3.29518 1.09705 0
M  V30 1205 C 115.95 4.25626 0.450206 0
M  V30 1206 C 115.276 5.11542 1.55655 0
M  V30 1207 C 116.576 5.18505 -0.628455 0
M  V30 1208 H 118.27 2.92595 -0.634716 0
M  V30 1209 H 115.816 1.40696 -0.306681 0
M  V30 1210 H 117.769 3.89855 1.59971 0
M  V30 1211 H 116.493 2.68372 1.86129 0
M  V30 1212 H 115.152 3.66586 -0.0315886 0
M  V30 1213 H 114.8 4.46765 2.31107 0
M  V30 1214 H 114.5 5.76647 1.12925 0
M  V30 1215 H 116.024 5.74748 2.06148 0
M  V30 1216 H 117.438 5.72916 -0.209877 0
M  V30 1217 H 115.835 5.92085 -0.977489 0
M  V30 1218 H 116.905 4.60948 -1.50514 0
M  V30 1219 N 118.248 0.346503 1.53744 0
M  V30 1220 C 119.496 -0.248612 2.00565 0
M  V30 1221 C 119.817 -1.5083 1.23593 0
M  V30 1222 O 119.087 -1.92858 0.343912 0
M  V30 1223 H 117.667 -0.0948564 0.740953 0
M  V30 1224 H 120.329 0.468341 1.89189 0
M  V30 1225 H 119.425 -0.488994 3.08245 0
M  V30 1226 N 119.726 -1.57421 0.075193 0
M  V30 1227 C 120.954 -1.97946 -0.602076 0
M  V30 1228 C 121.369 -0.953674 -1.62943 0
M  V30 1229 O 120.726 0.0592551 -1.82404 0
M  V30 1230 C 120.777 -3.38546 -1.26762 0
M  V30 1231 O 120.498 -4.37195 -0.281376 0
M  V30 1232 C 121.999 -3.93966 -2.03239 0
M  V30 1233 H 119.219 -0.650918 -0.162931 0
M  V30 1234 H 121.763 -2.03959 0.148601 0
M  V30 1235 H 119.918 -3.33609 -1.96936 0
M  V30 1236 H 120.332 -5.18975 -0.759267 0
M  V30 1237 H 121.806 -4.94555 -2.45193 0
M  V30 1238 H 122.283 -3.30693 -2.8903 0
M  V30 1239 H 122.889 -4.02315 -1.37924 0
M  V30 1240 N 121.204 0.198386 -1.56346 0
M  V30 1241 C 122.452 0.91747 -1.80075 0
M  V30 1242 C 122.773 1.83929 -0.647692 0
M  V30 1243 O 122.043 1.93029 0.334166 0
M  V30 1244 H 120.623 0.341774 -0.664228 0
M  V30 1245 H 123.285 0.204684 -1.93822 0
M  V30 1246 H 122.381 1.51055 -2.7311 0
M  V30 1247 N 122.682 1.50554 0.465978 0
M  V30 1248 C 123.632 1.66177 1.56106 0
M  V30 1249 C 124.616 0.516265 1.52393 0
M  V30 1250 O 125.808 0.770906 1.5933 0
M  V30 1251 C 122.937 1.76396 2.94515 0
M  V30 1252 C 122.023 2.9664 3.03093 0
M  V30 1253 N 122.414 4.20245 2.81474 0
M  V30 1254 C 120.712 2.95304 3.34233 0
M  V30 1255 C 121.413 5.01259 2.95151 0
M  V30 1256 N 120.389 4.35318 3.25576 0
M  V30 1257 H 124.191 2.59434 1.38099 0
M  V30 1258 H 121.705 1.47808 0.6728 0
M  V30 1259 H 123.702 1.85694 3.73261 0
M  V30 1260 H 122.362 0.843017 3.13565 0
M  V30 1261 H 123.373 4.4966 2.56956 0
M  V30 1262 H 120.05 2.12729 3.59239 0
M  V30 1263 H 121.44 6.09564 2.82632 0
M  V30 1264 N 124.16 -0.719506 1.40217 0
M  V30 1265 C 125.123 -1.8153 1.39927 0
M  V30 1266 C 126.123 -1.58095 0.293723 0
M  V30 1267 O 127.313 -1.65209 0.552429 0
M  V30 1268 C 124.445 -3.19561 1.18716 0
M  V30 1269 H 125.638 -1.83186 2.37451 0
M  V30 1270 H 123.191 -0.924746 1.26008 0
M  V30 1271 H 123.926 -3.23557 0.219366 0
M  V30 1272 H 123.711 -3.3797 1.98793 0
M  V30 1273 H 125.201 -3.99598 1.21291 0
M  V30 1274 N 125.638 -1.25649 -0.95132 0
M  V30 1275 C 126.571 -1.00644 -2.04807 0
M  V30 1276 C 127.549 0.0654271 -1.62468 0
M  V30 1277 O 128.733 -0.074911 -1.88351 0
M  V30 1278 C 125.86 -0.522052 -3.34653 0
M  V30 1279 C 124.906 -1.58495 -3.95957 0
M  V30 1280 S 125.739 -3.17108 -4.31512 0
M  V30 1281 C 126.895 -2.70412 -5.64471 0
M  V30 1282 H 127.128 -1.93508 -2.25703 0
M  V30 1283 H 124.661 -1.09216 -1.09139 0
M  V30 1284 H 126.619 -0.24923 -4.09743 0
M  V30 1285 H 125.28 0.386146 -3.11717 0
M  V30 1286 H 124.473 -1.1968 -4.89584 0
M  V30 1287 H 124.075 -1.80862 -3.2736 0
M  V30 1288 H 126.367 -2.14245 -6.42733 0
M  V30 1289 H 127.31 -3.62693 -6.08161 0
M  V30 1290 H 127.718 -2.10302 -5.23864 0
M  V30 1291 N 127.117 1.15442 -1.07289 0
M  V30 1292 C 128.049 2.19773 -0.650585 0
M  V30 1293 C 129.062 1.60076 0.296572 0
M  V30 1294 O 130.251 1.78293 0.0859905 0
M  V30 1295 C 127.351 3.38838 0.0650398 0
M  V30 1296 C 126.524 4.2808 -0.898141 0
M  V30 1297 C 125.583 5.2574 -0.219926 0
M  V30 1298 O 124.609 5.62654 -0.860773 0
M  V30 1299 N 125.811 5.71205 1.03466 0
M  V30 1300 H 128.576 2.56622 -1.54808 0
M  V30 1301 H 126.137 1.30551 -0.957494 0
M  V30 1302 H 128.129 4.01222 0.529415 0
M  V30 1303 H 126.699 3.00409 0.864466 0
M  V30 1304 H 125.919 3.62804 -1.54165 0
M  V30 1305 H 127.207 4.84577 -1.5512 0
M  V30 1306 H 126.605 5.43325 1.57526 0
M  V30 1307 H 125.162 6.35633 1.44272 0
M  V30 1308 N 128.595 0.856903 1.32268 0
M  V30 1309 C 129.527 0.260412 2.27716 0
M  V30 1310 C 130.54 -0.569137 1.52528 0
M  V30 1311 O 131.729 -0.39326 1.74114 0
M  V30 1312 C 128.829 -0.650477 3.32599 0
M  V30 1313 C 128.002 0.14372 4.37164 0
M  V30 1314 C 127.061 -0.69328 5.21613 0
M  V30 1315 O 126.087 -0.12599 5.69061 0
M  V30 1316 N 127.289 -2.00761 5.44679 0
M  V30 1317 H 130.054 1.08059 2.79541 0
M  V30 1318 H 127.615 0.717103 1.45152 0
M  V30 1319 H 129.607 -1.21581 3.86005 0
M  V30 1320 H 128.177 -1.37133 2.80915 0
M  V30 1321 H 127.397 0.890486 3.8401 0
M  V30 1322 H 128.685 0.68915 5.04111 0
M  V30 1323 H 128.083 -2.49181 5.07863 0
M  V30 1324 H 126.64 -2.52103 6.01072 0
M  V30 1325 N 130.073 -1.45103 0.615059 0
M  V30 1326 C 131.036 -2.29025 -0.0895485 0
M  V30 1327 C 132.036 -1.40174 -0.787906 0
M  V30 1328 O 133.226 -1.62217 -0.634933 0
M  V30 1329 C 130.358 -3.21376 -1.13711 0
M  V30 1330 H 131.551 -2.92807 0.648382 0
M  V30 1331 H 129.104 -1.51749 0.374444 0
M  V30 1332 H 129.839 -2.6241 -1.90556 0
M  V30 1333 H 129.624 -3.86834 -0.640475 0
M  V30 1334 H 131.114 -3.84459 -1.63036 0
M  V30 1335 N 131.551 -0.354651 -1.53558 0
M  V30 1336 C 132.514 0.484566 -2.24019 0
M  V30 1337 C 133.514 1.01861 -1.24422 0
M  V30 1338 O 134.704 0.906097 -1.4878 0
M  V30 1339 C 131.836 1.67615 -2.96847 0
M  V30 1340 H 133.029 -0.131843 -2.9961 0
M  V30 1341 H 130.582 -0.106165 -1.55939 0
M  V30 1342 H 131.317 2.33095 -2.25471 0
M  V30 1343 H 131.102 1.30029 -3.69912 0
M  V30 1344 H 132.592 2.27114 -3.50441 0
M  V30 1345 N 133.029 1.57378 -0.0835403 0
M  V30 1346 C 134.44 1.81261 0.447358 0
M  V30 1347 C 134.791 0.998331 1.68902 0
M  V30 1348 O 133.916 0.224282 2.15235 0
M  V30 1349 C 134.511 3.28767 0.818386 0
M  V30 1350 C 133.07 3.53455 1.29409 0
M  V30 1351 C 132.217 2.75831 0.285024 0
M  V30 1352 H 135.168 1.5566 -0.309115 0
M  V30 1353 H 135.189 3.41459 1.67887 0
M  V30 1354 H 134.701 3.88006 -0.0855019 0
M  V30 1355 H 132.802 2.99534 2.21608 0
M  V30 1356 H 132.915 4.62128 1.2639 0
M  V30 1357 H 131.279 2.42947 0.764767 0
M  V30 1358 H 132.062 3.37813 -0.611341 0
M  V30 1359 N 134.507 -0.190092 1.56449 0
M  V30 1360 C 135.754 -0.909705 1.80916 0
M  V30 1361 C 136.082 -1.83047 0.657583 0
M  V30 1362 O 135.337 -1.92428 -0.356356 0
M  V30 1363 C 135.636 -1.75382 3.1141 0
M  V30 1364 C 135.302 -0.983606 4.40041 0
M  V30 1365 C 133.964 -0.770967 4.74984 0
M  V30 1366 C 136.316 -0.442024 5.19322 0
M  V30 1367 C 133.644 -0.0053448 5.867 0
M  V30 1368 C 135.996 0.310412 6.31838 0
M  V30 1369 C 134.66 0.534023 6.6536 0
M  V30 1370 H 133.93 -0.332885 0.662019 0
M  V30 1371 H 136.577 -0.175762 1.90692 0
M  V30 1372 H 134.882 -2.55659 2.96893 0
M  V30 1373 H 136.579 -2.31331 3.27547 0
M  V30 1374 H 133.169 -1.15936 4.12622 0
M  V30 1375 H 137.353 -0.593693 4.92736 0
M  V30 1376 H 132.609 0.177825 6.11141 0
M  V30 1377 H 136.783 0.737419 6.92485 0
M  V30 1378 H 134.41 1.12918 7.51767 0
M  V30 1379 N 135.985 -1.50799 -0.457987 0
M  V30 1380 C 137.232 -1.62442 -1.20908 0
M  V30 1381 C 137.56 -0.330865 -1.91665 0
M  V30 1382 O 136.815 0.68401 -1.83357 0
M  V30 1383 C 137.114 -2.76358 -2.2663 0
M  V30 1384 C 136.78 -4.16378 -1.73033 0
M  V30 1385 C 135.442 -4.54473 -1.58138 0
M  V30 1386 C 137.794 -5.03836 -1.33413 0
M  V30 1387 C 135.122 -5.77754 -1.02065 0
M  V30 1388 C 137.474 -6.27676 -0.78778 0
M  V30 1389 C 136.138 -6.64562 -0.625561 0
M  V30 1390 H 135.408 -0.594417 -0.442435 0
M  V30 1391 H 138.055 -1.84772 -0.503136 0
M  V30 1392 H 136.36 -2.48167 -3.03184 0
M  V30 1393 H 138.057 -2.82568 -2.84528 0
M  V30 1394 H 134.647 -3.86331 -1.85598 0
M  V30 1395 H 138.831 -4.75026 -1.4375 0
M  V30 1396 H 134.087 -6.04997 -0.882547 0
M  V30 1397 H 138.261 -6.94797 -0.472177 0
M  V30 1398 H 135.888 -7.59965 -0.188926 0
M  V30 1399 N 137.463 0.71206 -1.40597 0
M  V30 1400 C 138.426 1.80785 -1.40888 0
M  V30 1401 C 139.426 1.57937 -0.302103 0
M  V30 1402 O 140.616 1.64913 -0.561182 0
M  V30 1403 C 137.748 3.18927 -1.20409 0
M  V30 1404 H 138.941 1.81924 -2.38419 0
M  V30 1405 H 136.494 0.91805 -1.26497 0
M  V30 1406 H 137.229 3.23436 -0.236522 0
M  V30 1407 H 137.014 3.36911 -2.00582 0
M  V30 1408 H 138.504 3.98949 -1.23408 0
M  V30 1409 N 138.941 1.26152 0.944643 0
M  V30 1410 C 140.218 1.02247 1.66748 0
M  V30 1411 C 140.598 -0.448202 2.06287 0
M  V30 1412 O 139.946 -1.42779 1.78399 0
M  V30 1413 C 140.156 1.96788 2.88228 0
M  V30 1414 C 141.504 2.25201 3.59958 0
M  V30 1415 O 142.528 1.94626 2.98327 0
M  V30 1416 O 141.387 2.77242 4.70956 0
M  V30 1417 H 138.481 0.388517 0.730057 0
M  V30 1418 H 141.027 1.37348 0.99668 0
M  V30 1419 H 139.799 2.96047 2.55875 0
M  V30 1420 H 139.422 1.62145 3.63035 0
M  V30 1421 N 140.419 -1.14872 1.07899 0
M  V30 1422 C 141.696 -1.81928 0.71845 0
M  V30 1423 C 142.076 -1.95417 -0.798455 0
M  V30 1424 O 141.424 -1.50997 -1.715 0
M  V30 1425 C 141.634 -3.17937 1.43935 0
M  V30 1426 C 142.982 -3.93501 1.59506 0
M  V30 1427 O 144.006 -3.27509 1.40058 0
M  V30 1428 O 142.865 -5.1183 1.91551 0
M  V30 1429 H 139.959 -0.78628 0.256305 0
M  V30 1430 H 142.505 -1.21934 1.18026 0
M  V30 1431 H 141.277 -3.0325 2.47295 0
M  V30 1432 H 140.9 -3.85619 0.968687 0
M  V30 1433 N 141.898 -0.863906 -1.31812 0
M  V30 1434 C 142.808 -0.318461 -2.32428 0
M  V30 1435 C 143.824 0.568496 -1.64451 0
M  V30 1436 O 145 0.46666 -1.95919 0
M  V30 1437 C 142.065 0.476355 -3.43412 0
M  V30 1438 C 141.126 -0.43784 -4.27061 0
M  V30 1439 C 140.359 0.319138 -5.32745 0
M  V30 1440 O 140.582 1.54799 -5.48993 0
M  V30 1441 O 139.516 -0.319861 -6.01049 0
M  V30 1442 H 143.342 -1.15229 -2.80991 0
M  V30 1443 H 140.927 -0.627103 -1.35602 0
M  V30 1444 H 142.809 0.927156 -4.11074 0
M  V30 1445 H 141.484 1.28683 -2.97022 0
M  V30 1446 H 140.391 -0.937013 -3.62175 0
M  V30 1447 H 141.724 -1.21375 -4.77 0
M  V30 1448 N 143.376 1.44774 -0.622745 0
M  V30 1449 C 144.653 1.95522 -0.0551974 0
M  V30 1450 C 145.033 1.5649 1.41683 0
M  V30 1451 O 144.381 0.834848 2.12703 0
M  V30 1452 C 144.591 3.4796 -0.269242 0
M  V30 1453 C 145.939 4.24306 -0.158014 0
M  V30 1454 O 146.963 3.55637 -0.200162 0
M  V30 1455 O 145.822 5.46471 -0.0558693 0
M  V30 1456 H 142.916 0.826556 0.0271015 0
M  V30 1457 H 145.462 1.54866 -0.693864 0
M  V30 1458 H 144.234 3.6939 -1.29099 0
M  V30 1459 H 143.857 3.95543 0.403966 0
M  V30 1460 N 144.854 0.36279 1.53368 0
M  V30 1461 C 146.103 -0.22888 2.00397 0
M  V30 1462 C 146.416 -1.50096 1.25421 0
M  V30 1463 O 147.622 -2.17106 1.63025 0
M  V30 1464 C 146.078 -0.458417 3.56969 0
M  V30 1465 C 145.686 0.798877 4.4082 0
M  V30 1466 C 147.43 -1.00789 4.12361 0
M  V30 1467 C 145.337 0.539078 5.88938 0
M  V30 1468 H 144.267 -0.089305 0.748693 0
M  V30 1469 H 146.918 0.481099 1.77081 0
M  V30 1470 H 145.3 -1.22959 3.76427 0
M  V30 1471 H 146.474 1.57262 4.33134 0
M  V30 1472 H 144.789 1.27137 3.96516 0
M  V30 1473 H 147.386 -1.21754 5.20653 0
M  V30 1474 H 147.729 -1.9692 3.66781 0
M  V30 1475 H 148.262 -0.296961 3.9669 0
M  V30 1476 H 145.001 1.47064 6.3879 0
M  V30 1477 H 144.521 -0.196222 5.99479 0
M  V30 1478 H 146.2 0.163542 6.46793 0
M  V30 1479 N 146.332 -1.57332 0.0918853 0
M  V30 1480 C 147.262 -2.16872 -0.865371 0
M  V30 1481 C 148.243 -1.10118 -1.29646 0
M  V30 1482 O 149.428 -1.38242 -1.36392 0
M  V30 1483 C 146.558 -2.74649 -2.12569 0
M  V30 1484 C 145.512 -3.86747 -1.83333 0
M  V30 1485 C 144.838 -4.31212 -3.16166 0
M  V30 1486 C 146.138 -5.10089 -1.1228 0
M  V30 1487 H 147.832 -2.97114 -0.369307 0
M  V30 1488 H 145.378 -1.42918 -0.176194 0
M  V30 1489 H 147.331 -3.14952 -2.7997 0
M  V30 1490 H 146.055 -1.91657 -2.64452 0
M  V30 1491 H 144.714 -3.46978 -1.18331 0
M  V30 1492 H 144.362 -3.45115 -3.6593 0
M  V30 1493 H 144.062 -5.06788 -2.97388 0
M  V30 1494 H 145.586 -4.74146 -3.84731 0
M  V30 1495 H 147 -5.47582 -1.69785 0
M  V30 1496 H 145.397 -5.91073 -1.03693 0
M  V30 1497 H 146.467 -4.84786 -0.105041 0
M  V30 1498 N 147.81 0.181792 -1.56548 0
M  V30 1499 C 148.743 1.25366 -1.90679 0
M  V30 1500 C 149.721 1.43299 -0.768376 0
M  V30 1501 O 150.905 1.58475 -1.02068 0
M  V30 1502 C 148.032 2.61826 -2.1486 0
M  V30 1503 C 147.078 2.60688 -3.37556 0
M  V30 1504 S 147.911 2.10804 -4.92262 0
M  V30 1505 C 149.067 3.49062 -5.19525 0
M  V30 1506 H 149.3 0.962277 -2.81296 0
M  V30 1507 H 146.833 0.385892 -1.495 0
M  V30 1508 H 148.791 3.40371 -2.29473 0
M  V30 1509 H 147.452 2.88169 -1.24969 0
M  V30 1510 H 146.645 3.61058 -3.51643 0
M  V30 1511 H 146.247 1.90232 -3.22006 0
M  V30 1512 H 148.539 4.45003 -5.10861 0
M  V30 1513 H 149.482 3.39859 -6.2121 0
M  V30 1514 H 149.89 3.4459 -4.47122 0
M  V30 1515 N 149.288 1.51039 0.449983 0
M  V30 1516 C 150.218 1.74379 1.55288 0
M  V30 1517 C 151.199 0.593236 1.5942 0
M  V30 1518 O 152.384 0.834625 1.7535 0
M  V30 1519 C 149.514 1.85728 2.93466 0
M  V30 1520 C 148.468 3.01078 3.04197 0
M  V30 1521 C 147.794 2.97595 4.44231 0
M  V30 1522 C 149.094 4.41254 2.7945 0
M  V30 1523 H 150.788 2.66725 1.36008 0
M  V30 1524 H 148.334 1.2835 0.652864 0
M  V30 1525 H 150.287 2.0064 3.70569 0
M  V30 1526 H 149.011 0.900207 3.13949 0
M  V30 1527 H 147.67 2.85851 2.29531 0
M  V30 1528 H 147.318 1.99691 4.61663 0
M  V30 1529 H 147.018 3.75046 4.52343 0
M  V30 1530 H 148.542 3.14583 5.23326 0
M  V30 1531 H 149.956 4.56897 3.46292 0
M  V30 1532 H 148.353 5.20315 2.98985 0
M  V30 1533 H 149.423 4.52164 1.75144 0
M  V30 1534 N 150.766 -0.704594 1.40972 0
M  V30 1535 C 151.996 -1.49138 1.42974 0
M  V30 1536 C 152.404 -1.89175 0.0308406 0
M  V30 1537 O 151.747 -1.56734 -0.958138 0
M  V30 1538 C 151.809 -2.79016 2.26694 0
M  V30 1539 C 151.473 -2.61236 3.74973 0
M  V30 1540 C 152.47 -2.27773 4.67349 0
M  V30 1541 C 150.155 -2.77158 4.18914 0
M  V30 1542 C 152.149 -2.10457 6.01653 0
M  V30 1543 C 149.836 -2.59459 5.53285 0
M  V30 1544 C 150.834 -2.26158 6.4447 0
M  V30 1545 O 150.522 -2.08605 7.76363 0
M  V30 1546 H 150.254 -0.466443 0.489292 0
M  V30 1547 H 152.808 -0.8758 1.85793 0
M  V30 1548 H 151.038 -3.42947 1.78673 0
M  V30 1549 H 152.727 -3.40782 2.20504 0
M  V30 1550 H 153.493 -2.15095 4.34694 0
M  V30 1551 H 149.372 -3.02064 3.48251 0
M  V30 1552 H 152.916 -1.84387 6.72791 0
M  V30 1553 H 148.813 -2.71725 5.85522 0
M  V30 1554 H 149.581 -2.23439 7.87412 0
M  V30 1555 N 152.244 -1.26651 -0.937939 0
M  V30 1556 C 153.492 -1.12165 -1.68118 0
M  V30 1557 C 153.813 0.334983 -1.92101 0
M  V30 1558 O 153.083 1.23583 -1.52 0
M  V30 1559 H 151.663 -0.412093 -0.623048 0
M  V30 1560 H 154.325 -1.59027 -1.12678 0
M  V30 1561 H 153.421 -1.64289 -2.6536 0
M  V30 1562 N 153.722 1.14298 -1.08507 0
M  V30 1563 C 154.999 1.81544 -0.728088 0
M  V30 1564 C 155.379 1.95838 0.78808 0
M  V30 1565 O 154.727 1.51904 1.70697 0
M  V30 1566 C 154.937 3.17169 -1.45619 0
M  V30 1567 C 156.285 3.9265 -1.61591 0
M  V30 1568 O 157.309 3.26762 -1.41793 0
M  V30 1569 O 156.168 5.10807 -1.94263 0
M  V30 1570 H 153.262 0.78491 -0.260471 0
M  V30 1571 H 155.808 1.21307 -1.18671 0
M  V30 1572 H 154.58 3.01934 -2.489 0
M  V30 1573 H 154.203 3.851 -0.989124 0
M  V30 1574 N 155.201 0.870884 1.31352 0
M  V30 1575 C 156.447 0.482987 1.96965 0
M  V30 1576 C 156.78 -0.962462 1.68672 0
M  V30 1577 O 156.055 -1.6779 0.98371 0
M  V30 1578 C 156.338 0.741752 3.52378 0
M  V30 1579 C 156.191 2.2368 3.9024 0
M  V30 1580 C 157.51 0.208838 4.39604 0
M  V30 1581 H 154.629 0.176955 0.715441 0
M  V30 1582 H 157.271 1.09229 1.55464 0
M  V30 1583 H 155.421 0.223149 3.87859 0
M  V30 1584 H 157.093 2.82273 3.64856 0
M  V30 1585 H 155.336 2.70901 3.38814 0
M  V30 1586 H 156.007 2.3685 4.98604 0
M  V30 1587 H 158.483 0.652529 4.10952 0
M  V30 1588 H 157.359 0.419336 5.47296 0
M  V30 1589 H 157.62 -0.889275 4.33064 0
M  V30 1590 N 156.679 -1.44442 0.630414 0
M  V30 1591 C 158.09 -1.85434 0.217063 0
M  V30 1592 C 158.441 -1.52748 -1.23136 0
M  V30 1593 O 157.566 -0.965205 -1.93682 0
M  V30 1594 C 158.161 -3.36581 0.387168 0
M  V30 1595 C 156.72 -3.76389 0.0283297 0
M  V30 1596 C 155.867 -2.68296 0.700889 0
M  V30 1597 H 158.818 -1.34919 0.83562 0
M  V30 1598 H 158.839 -3.78657 -0.374086 0
M  V30 1599 H 158.351 -3.60339 1.44144 0
M  V30 1600 H 156.452 -3.58246 -1.02423 0
M  V30 1601 H 156.565 -4.77095 0.437892 0
M  V30 1602 H 154.929 -2.54335 0.136267 0
M  V30 1603 H 155.712 -2.94887 1.75774 0
M  V30 1604 N 158.157 -0.370918 -1.53173 0
M  V30 1605 C 159.087 0.464847 -2.28826 0
M  V30 1606 C 160.068 1.07936 -1.31468 0
M  V30 1607 O 161.253 1.0956 -1.60344 0
M  V30 1608 C 158.383 1.60196 -3.08147 0
M  V30 1609 C 157.337 1.11443 -4.13237 0
M  V30 1610 C 156.663 2.3422 -4.80672 0
M  V30 1611 C 157.963 0.195384 -5.21934 0
M  V30 1612 H 159.657 -0.166329 -2.98938 0
M  V30 1613 H 157.203 -0.0814359 -1.4377 0
M  V30 1614 H 159.156 2.19332 -3.59822 0
M  V30 1615 H 157.88 2.26045 -2.35735 0
M  V30 1616 H 156.539 0.545727 -3.62515 0
M  V30 1617 H 156.187 2.98537 -4.04827 0
M  V30 1618 H 155.887 2.02269 -5.51689 0
M  V30 1619 H 157.411 2.94032 -5.35143 0
M  V30 1620 H 158.825 0.694375 -5.69079 0
M  V30 1621 H 157.222 -0.0335027 -6.00091 0
M  V30 1622 H 158.292 -0.760961 -4.78892 0
M  V30 1623 N 159.635 1.57281 -0.100228 0
M  V30 1624 C 160.884 1.93713 0.561984 0
M  V30 1625 C 161.197 0.984492 1.69018 0
M  V30 1626 O 162.403 1.24273 2.41389 0
M  V30 1627 C 160.859 3.4421 1.05106 0
M  V30 1628 C 160.467 4.47975 -0.0476628 0
M  V30 1629 C 162.211 3.89595 1.68571 0
M  V30 1630 C 160.118 5.89631 0.457055 0
M  V30 1631 H 159.048 0.723082 0.2137 0
M  V30 1632 H 161.699 1.82644 -0.177057 0
M  V30 1633 H 160.081 3.50449 1.84395 0
M  V30 1634 H 161.255 4.53385 -0.823333 0
M  V30 1635 H 159.57 4.1223 -0.587816 0
M  V30 1636 H 162.167 4.92832 2.07414 0
M  V30 1637 H 162.51 3.28526 2.55688 0
M  V30 1638 H 163.043 3.86078 0.958562 0
M  V30 1639 H 159.782 6.54411 -0.377616 0
M  V30 1640 H 159.302 5.87681 1.19962 0
M  V30 1641 H 160.981 6.40363 0.92437 0
M  V30 1642 N 161.113 -0.173488 1.56642 0
M  V30 1643 C 162.338 -0.910149 1.86363 0
M  V30 1644 C 162.763 -1.75132 0.686318 0
M  V30 1645 O 162.121 -1.77595 -0.364643 0
M  V30 1646 C 162.169 -1.76447 3.14482 0
M  V30 1647 O 161.273 -2.86584 2.96553 0
M  V30 1648 H 160.614 -0.255086 0.613047 0
M  V30 1649 H 163.144 -0.172283 2.03873 0
M  V30 1650 H 163.154 -2.16483 3.45831 0
M  V30 1651 H 161.829 -1.14658 3.99783 0
M  V30 1652 H 160.406 -2.50146 2.76553 0
M  V30 1653 N 162.591 -1.51276 -0.441967 0
M  V30 1654 C 163.837 -1.63958 -1.19355 0
M  V30 1655 C 164.17 -0.352543 -1.90973 0
M  V30 1656 O 163.445 0.647627 -1.83401 0
M  V30 1657 C 163.728 -2.83979 -2.21422 0
M  V30 1658 C 163.581 -4.22646 -1.53918 0
M  V30 1659 C 164.9 -2.99521 -3.22451 0
M  V30 1660 H 162.019 -0.596709 -0.432559 0
M  V30 1661 H 164.661 -1.83748 -0.483398 0
M  V30 1662 H 162.811 -2.67237 -2.81987 0
M  V30 1663 H 164.483 -4.51045 -0.967256 0
M  V30 1664 H 162.726 -4.25558 -0.841615 0
M  V30 1665 H 163.397 -5.02609 -2.28229 0
M  V30 1666 H 165.873 -3.14944 -2.71937 0
M  V30 1667 H 164.749 -3.85072 -3.91166 0
M  V30 1668 H 165.01 -2.11391 -3.88287 0
M  V30 1669 N 164.069 0.697108 -1.41344 0
M  V30 1670 C 164.979 1.84088 -1.45427 0
M  V30 1671 C 165.995 1.70545 -0.34501 0
M  V30 1672 O 167.171 1.92488 -0.592492 0
M  V30 1673 C 164.236 3.20056 -1.33286 0
M  V30 1674 C 163.297 3.45718 -2.54514 0
M  V30 1675 C 162.53 4.75199 -2.42944 0
M  V30 1676 O 162.753 5.51579 -1.45318 0
M  V30 1677 O 161.687 5.0161 -3.32672 0
M  V30 1678 H 165.513 1.836 -2.41919 0
M  V30 1679 H 163.098 0.849966 -1.22866 0
M  V30 1680 H 164.98 4.01236 -1.28794 0
M  V30 1681 H 163.655 3.2123 -0.39909 0
M  V30 1682 H 162.562 2.64474 -2.64583 0
M  V30 1683 H 163.895 3.49356 -3.46715 0
M  V30 1684 N 165.547 1.27147 0.931209 0
M  V30 1685 C 166.775 1.16082 1.71267 0
M  V30 1686 C 167.19 -0.282772 1.8667 0
M  V30 1687 O 166.547 -1.19283 1.38122 0
M  V30 1688 C 166.598 1.8358 3.11417 0
M  V30 1689 O 166.319 3.22299 2.96741 0
M  V30 1690 C 167.82 1.78597 4.05732 0
M  V30 1691 H 165.04 0.403758 0.535929 0
M  V30 1692 H 167.584 1.67953 1.16671 0
M  V30 1693 H 165.739 1.35623 3.62885 0
M  V30 1694 H 166.153 3.55851 3.85319 0
M  V30 1695 H 167.627 2.30444 5.01597 0
M  V30 1696 H 168.104 0.754564 4.3267 0
M  V30 1697 H 168.71 2.26152 3.60188 0
M  V30 1698 N 167.025 -1.13721 1.09112 0
M  V30 1699 C 167.955 -2.21148 0.749385 0
M  V30 1700 C 168.936 -1.6792 -0.271475 0
M  V30 1701 O 170.121 -1.93693 -0.140251 0
M  V30 1702 C 167.251 -3.46905 0.165659 0
M  V30 1703 C 166.205 -4.13203 1.11567 0
M  V30 1704 C 165.531 -5.33248 0.393809 0
M  V30 1705 C 166.831 -4.60912 2.45678 0
M  V30 1706 H 168.525 -2.4999 1.64758 0
M  V30 1707 H 166.071 -1.20156 0.793626 0
M  V30 1708 H 168.024 -4.21313 -0.085466 0
M  V30 1709 H 166.748 -3.17449 -0.767714 0
M  V30 1710 H 165.407 -3.40758 1.35202 0
M  V30 1711 H 165.055 -5.00054 -0.543599 0
M  V30 1712 H 164.755 -5.78552 1.02721 0
M  V30 1713 H 166.279 -6.10413 0.150908 0
M  V30 1714 H 167.693 -5.26759 2.26269 0
M  V30 1715 H 166.09 -5.16944 3.04776 0
M  V30 1716 H 167.16 -3.75603 3.06677 0
M  V30 1717 N 168.503 -0.877838 -1.30888 0
M  V30 1718 C 169.435 -0.296607 -2.27273 0
M  V30 1719 C 170.448 0.544799 -1.53414 0
M  V30 1720 O 171.637 0.365511 -1.74718 0
M  V30 1721 C 168.737 0.597481 -3.33592 0
M  V30 1722 C 167.91 -0.213251 -4.3688 0
M  V30 1723 C 166.969 0.610208 -5.2265 0
M  V30 1724 O 165.995 0.035441 -5.69189 0
M  V30 1725 N 167.197 1.92071 -5.47804 0
M  V30 1726 H 169.962 -1.12492 -2.77787 0
M  V30 1727 H 167.523 -0.740105 -1.43993 0
M  V30 1728 H 169.515 1.15425 -3.87891 0
M  V30 1729 H 168.085 1.32647 -2.83061 0
M  V30 1730 H 167.305 -0.951466 -3.82545 0
M  V30 1731 H 168.593 -0.769262 -5.02951 0
M  V30 1732 H 167.991 2.4107 -5.11763 0
M  V30 1733 H 166.548 2.42508 -6.05007 0
M  V30 1734 N 169.982 1.44106 -0.638065 0
M  V30 1735 C 171.398 1.56672 -0.304286 0
M  V30 1736 C 171.598 1.6244 1.19228 0
M  V30 1737 O 170.654 1.57121 1.9766 0
M  V30 1738 C 171.967 2.83503 -1.00231 0
M  V30 1739 C 173.515 2.97226 -0.981116 0
M  V30 1740 C 173.99 4.26868 -1.65974 0
M  V30 1741 N 175.481 4.33698 -1.62666 0
M  V30 1742 C 176.216 5.32745 -2.12063 0
M  V30 1743 N 175.712 6.38157 -2.6968 0
M  V30 1744 N 177.505 5.24299 -2.02651 0
M  V30 1745 H 169.656 1.38605 -1.60942 0
M  V30 1746 H 171.919 0.664661 -0.675965 0
M  V30 1747 H 171.625 2.85251 -2.0573 0
M  V30 1748 H 171.499 3.73251 -0.54439 0
M  V30 1749 H 173.886 2.95027 0.0654188 0
M  V30 1750 H 173.967 2.08808 -1.47759 0
M  V30 1751 H 173.611 4.29826 -2.70576 0
M  V30 1752 H 173.541 5.14156 -1.13804 0
M  V30 1753 H 176.032 3.58138 -1.20606 0
M  V30 1754 H 176.345 7.10029 -3.05087 0
M  V30 1755 H 174.69 6.38823 -2.73734 0
M  V30 1756 H 177.881 4.4086 -1.57353 0
M  V30 1757 H 178.054 6.01334 -2.41457 0
M  V30 1758 N 171.46 0.379036 1.52974 0
M  V30 1759 C 172.39 -0.452706 2.29069 0
M  V30 1760 C 173.371 -1.07237 1.32039 0
M  V30 1761 O 174.556 -1.08708 1.60923 0
M  V30 1762 C 171.686 -1.5856 3.08992 0
M  V30 1763 C 170.64 -1.0925 4.13822 0
M  V30 1764 C 169.966 -2.31668 4.81907 0
M  V30 1765 C 171.266 -0.167702 5.22031 0
M  V30 1766 H 172.96 0.182181 2.98845 0
M  V30 1767 H 170.506 0.0890592 1.43724 0
M  V30 1768 H 172.459 -2.1742 3.6098 0
M  V30 1769 H 171.183 -2.24792 2.36931 0
M  V30 1770 H 169.842 -0.526494 3.628 0
M  V30 1771 H 169.49 -2.96386 4.06404 0
M  V30 1772 H 169.19 -1.9934 5.52754 0
M  V30 1773 H 170.714 -2.91189 5.36695 0
M  V30 1774 H 172.128 -0.664186 5.6944 0
M  V30 1775 H 170.525 0.0653265 6.00064 0
M  V30 1776 H 171.595 0.786347 4.78482 0
M  V30 1777 N 172.938 -1.57226 0.108567 0
M  V30 1778 C 174.354 -1.5766 -0.248058 0
M  V30 1779 C 174.554 -1.12063 -1.67464 0
M  V30 1780 O 173.61 -0.803236 -2.39383 0
M  V30 1781 C 174.923 -3.0069 -0.0242287 0
M  V30 1782 C 176.471 -3.12868 -0.0909372 0
M  V30 1783 C 176.946 -4.57879 0.105067 0
M  V30 1784 N 178.437 -4.63172 0.0506846 0
M  V30 1785 C 179.172 -5.73126 0.177396 0
M  V30 1786 N 178.668 -6.91866 0.359696 0
M  V30 1787 N 180.461 -5.61977 0.117709 0
M  V30 1788 H 172.612 -1.85169 1.04049 0
M  V30 1789 H 174.875 -0.85529 0.40888 0
M  V30 1790 H 174.581 -3.38299 0.961604 0
M  V30 1791 H 174.455 -3.6945 -0.76068 0
M  V30 1792 H 176.842 -2.75124 -1.06729 0
M  V30 1793 H 176.923 -2.46672 0.677225 0
M  V30 1794 H 176.567 -4.96321 1.07834 0
M  V30 1795 H 176.497 -5.22153 -0.682954 0
M  V30 1796 H 178.988 -3.778 -0.0871266 0
M  V30 1797 H 179.301 -7.71503 0.447529 0
M  V30 1798 H 177.646 -6.93874 0.395536 0
M  V30 1799 H 180.837 -4.68094 -0.0236741 0
M  V30 1800 H 181.01 -6.47627 0.219905 0
M  V30 1801 N 174.416 0.165178 -1.56732 0
M  V30 1802 C 175.693 0.908443 -1.73224 0
M  V30 1803 C 176.073 2.0013 -0.67165 0
M  V30 1804 O 175.421 2.26353 0.31253 0
M  V30 1805 C 175.631 1.46756 -3.16644 0
M  V30 1806 C 176.979 1.93809 -3.77787 0
M  V30 1807 O 178.003 1.56537 -3.1996 0
M  V30 1808 O 176.862 2.62486 -4.79336 0
M  V30 1809 H 173.956 0.428025 -0.707618 0
M  V30 1810 H 176.502 0.152526 -1.69013 0
M  V30 1811 H 175.274 0.68129 -3.85323 0
M  V30 1812 H 174.897 2.28749 -3.25207 0
M  V30 1813 N 175.894 1.51508 0.433938 0
M  V30 1814 C 176.857 1.72473 1.50949 0
M  V30 1815 C 177.857 0.594725 1.49398 0
M  V30 1816 O 179.047 0.862315 1.5136 0
M  V30 1817 C 176.179 1.78431 2.90474 0
M  V30 1818 H 177.372 2.68467 1.33662 0
M  V30 1819 H 174.925 1.41549 0.662836 0
M  V30 1820 H 175.66 0.842645 3.13161 0
M  V30 1821 H 175.445 2.60558 2.93005 0
M  V30 1822 H 176.935 1.96479 3.68491 0
M  V30 1823 N 177.372 -0.689602 1.41712 0
M  V30 1824 C 178.319 -1.80345 1.44029 0
M  V30 1825 C 179.289 -1.63478 0.293948 0
M  V30 1826 O 180.474 -1.84244 0.495869 0
M  V30 1827 C 177.614 -3.18272 1.33405 0
M  V30 1828 C 176.727 -3.46529 2.57956 0
M  V30 1829 C 175.862 -4.74103 2.39582 0
M  V30 1830 C 174.901 -4.95347 3.5958 0
M  V30 1831 N 174.038 -6.14151 3.40239 0
M  V30 1832 H 178.878 -1.77698 2.39222 0
M  V30 1833 H 176.415 -0.867688 1.18784 0
M  V30 1834 H 178.373 -3.97956 1.25246 0
M  V30 1835 H 177.003 -3.2008 0.418164 0
M  V30 1836 H 176.055 -2.61207 2.76542 0
M  V30 1837 H 177.367 -3.58126 3.47199 0
M  V30 1838 H 176.521 -5.61853 2.28924 0
M  V30 1839 H 175.26 -4.64763 1.47805 0
M  V30 1840 H 174.265 -4.06044 3.70686 0
M  V30 1841 H 175.49 -5.06542 4.52318 0
M  V30 1842 H 173.436 -6.06013 2.51167 0
M  V30 1843 H 173.353 -6.26543 4.23061 0
M  V30 1844 H 174.621 -7.04619 3.33365 0
M  V30 1845 N 178.85 -1.27639 -0.924453 0
M  V30 1846 C 180.261 -1.12834 -1.48746 0
M  V30 1847 C 180.612 0.285505 -1.94112 0
M  V30 1848 O 179.737 1.17874 -1.81479 0
M  V30 1849 C 180.332 -2.04217 -2.70334 0
M  V30 1850 C 178.891 -1.93509 -3.22848 0
M  V30 1851 C 178.038 -1.96583 -1.95577 0
M  V30 1852 H 180.989 -1.40484 -0.738233 0
M  V30 1853 H 181.01 -1.59989 -3.4523 0
M  V30 1854 H 180.522 -3.07111 -2.37285 0
M  V30 1855 H 178.623 -0.936131 -3.60649 0
M  V30 1856 H 178.736 -2.79917 -3.88823 0
M  V30 1857 H 177.1 -1.4085 -2.12211 0
M  V30 1858 H 177.883 -3.01137 -1.64837 0
M  V30 1859 N 180.328 1.1314 -1.09713 0
M  V30 1860 C 181.26 2.18343 -0.697056 0
M  V30 1861 C 182.273 1.60669 0.262551 0
M  V30 1862 O 183.462 1.78435 0.0481527 0
M  V30 1863 C 180.562 3.38899 -0.00684728 0
M  V30 1864 C 179.735 4.26078 -0.988741 0
M  V30 1865 C 178.794 5.25155 -0.331394 0
M  V30 1866 O 177.82 5.60701 -0.979926 0
M  V30 1867 N 179.022 5.73271 0.913261 0
M  V30 1868 H 181.787 2.5328 -1.60216 0
M  V30 1869 H 179.348 1.28491 -0.984971 0
M  V30 1870 H 181.34 4.02255 0.444191 0
M  V30 1871 H 179.91 3.02175 0.800551 0
M  V30 1872 H 179.13 3.59453 -1.61826 0
M  V30 1873 H 180.418 4.81178 -1.65364 0
M  V30 1874 H 179.816 5.46544 1.45966 0
M  V30 1875 H 178.373 6.3855 1.30757 0
M  V30 1876 N 181.806 0.884767 1.30421 0
M  V30 1877 C 183.054 0.502112 1.95763 0
M  V30 1878 C 183.375 -0.951815 1.70192 0
M  V30 1879 O 182.645 -1.6692 1.0254 0
M  V30 1880 H 181.225 0.182694 0.724315 0
M  V30 1881 H 183.887 1.1278 1.58955 0
M  V30 1882 H 182.983 0.672188 3.04775 0
M  V30 1883 N 183.284 -1.43765 0.645699 0
M  V30 1884 C 184.532 -2.01499 0.155731 0
M  V30 1885 C 184.853 -1.51151 -1.232 0
M  V30 1886 O 184.123 -0.721044 -1.82148 0
M  V30 1887 H 182.703 -0.745003 0.0545817 0
M  V30 1888 H 185.365 -1.76075 0.835677 0
M  V30 1889 H 184.461 -3.1181 0.134577 0
M  V30 1890 N 184.763 -0.387143 -1.52771 0
M  V30 1891 C 186.012 0.19697 -2.00736 0
M  V30 1892 C 186.325 1.48082 -1.27793 0
M  V30 1893 O 187.531 2.14485 -1.66458 0
M  V30 1894 C 185.987 0.401568 -3.57653 0
M  V30 1895 C 185.595 -0.868907 -4.39493 0
M  V30 1896 C 187.339 0.942164 -4.13912 0
M  V30 1897 C 185.246 -0.632705 -5.88006 0
M  V30 1898 H 184.176 0.0773827 -0.750019 0
M  V30 1899 H 186.827 -0.50921 -1.76293 0
M  V30 1900 H 185.209 1.16954 -3.78335 0
M  V30 1901 H 186.383 -1.64133 -4.30577 0
M  V30 1902 H 184.698 -1.33429 -3.94443 0
M  V30 1903 H 187.295 1.13455 -5.22525 0
M  V30 1904 H 187.638 1.9106 -3.69867 0
M  V30 1905 H 188.171 0.233814 -3.97112 0
M  V30 1906 H 184.91 -1.57208 -6.36369 0
M  V30 1907 H 184.43 0.100825 -5.99715 0
M  V30 1908 H 186.109 -0.26642 -6.46451 0
M  V30 1909 N 186.241 1.57166 -0.116904 0
M  V30 1910 C 187.489 1.94737 0.540533 0
M  V30 1911 C 187.81 1.00096 1.67349 0
M  V30 1912 O 187.08 0.0568854 1.95817 0
M  V30 1913 H 185.66 0.718981 0.202669 0
M  V30 1914 H 188.322 1.94017 -0.185353 0
M  V30 1915 H 187.418 2.97719 0.936483 0
M  V30 1916 N 187.719 -0.156864 1.56817 0
M  V30 1917 C 188.649 -1.19589 2.00551 0
M  V30 1918 C 189.63 -1.4536 0.883426 0
M  V30 1919 O 190.815 -1.56449 1.15054 0
M  V30 1920 C 187.945 -2.53143 2.37773 0
M  V30 1921 C 186.899 -2.41913 3.53075 0
M  V30 1922 C 186.225 -3.80088 3.76081 0
M  V30 1923 C 187.525 -1.91157 4.86062 0
M  V30 1924 H 189.219 -0.832293 2.87599 0
M  V30 1925 H 186.765 -0.398918 1.38364 0
M  V30 1926 H 188.718 -3.26047 2.66967 0
M  V30 1927 H 187.442 -2.91319 1.4765 0
M  V30 1928 H 186.101 -1.71462 3.24031 0
M  V30 1929 H 185.749 -4.15683 2.83225 0
M  V30 1930 H 185.449 -3.73439 4.53671 0
M  V30 1931 H 186.973 -4.54556 4.0769 0
M  V30 1932 H 188.387 -2.53846 5.14038 0
M  V30 1933 H 186.784 -1.95422 5.67389 0
M  V30 1934 H 187.854 -0.866673 4.77092 0
M  V30 1935 N 189.197 -1.51736 -0.425897 0
M  V30 1936 C 190.127 -1.76827 -1.52494 0
M  V30 1937 C 191.108 -0.618524 -1.58456 0
M  V30 1938 O 192.293 -0.862416 -1.74 0
M  V30 1939 C 189.423 -1.90374 -2.90474 0
M  V30 1940 C 188.377 -3.0588 -2.99369 0
M  V30 1941 C 187.703 -3.04625 -4.3944 0
M  V30 1942 C 189.003 -4.45644 -2.72394 0
M  V30 1943 H 190.697 -2.68855 -1.31748 0
M  V30 1944 H 188.243 -1.29372 -0.632362 0
M  V30 1945 H 190.196 -2.0651 -3.6733 0
M  V30 1946 H 188.92 -0.95004 -3.12477 0
M  V30 1947 H 187.579 -2.89467 -2.24954 0
M  V30 1948 H 187.227 -2.0701 -4.58428 0
M  V30 1949 H 186.927 -3.82195 -4.46319 0
M  V30 1950 H 188.451 -3.22869 -5.18255 0
M  V30 1951 H 189.865 -4.62348 -3.38979 0
M  V30 1952 H 188.262 -5.25006 -2.9067 0
M  V30 1953 H 189.332 -4.54893 -1.67929 0
M  V30 1954 N 190.675 0.682077 -1.42076 0
M  V30 1955 C 191.903 1.47057 -1.4554 0
M  V30 1956 C 192.318 1.8869 -0.0645779 0
M  V30 1957 O 191.675 1.57666 0.919115 0
M  V30 1958 C 191.726 2.72442 -2.37609 0
M  V30 1959 O 191.447 2.32559 -3.71279 0
M  V30 1960 C 192.948 3.66069 -2.50017 0
M  V30 1961 H 190.168 0.452737 -0.495248 0
M  V30 1962 H 192.712 0.838695 -1.8651 0
M  V30 1963 H 190.867 3.31835 -1.9991 0
M  V30 1964 H 191.281 3.13475 -4.20516 0
M  V30 1965 H 192.755 4.50792 -3.18576 0
M  V30 1966 H 193.232 4.11476 -1.53572 0
M  V30 1967 H 193.838 3.12572 -2.88407 0
M  V30 1968 N 192.153 1.28127 0.917671 0
M  V30 1969 C 193.399 1.15223 1.66888 0
M  V30 1970 C 193.732 -0.299293 1.9188 0
M  V30 1971 O 193.007 -1.21805 1.51637 0
M  V30 1972 C 193.29 1.94706 3.02922 0
M  V30 1973 C 193.143 3.47898 2.85109 0
M  V30 1974 C 194.462 1.75939 4.03402 0
M  V30 1975 H 191.581 0.419946 0.605652 0
M  V30 1976 H 194.223 1.57398 1.06423 0
M  V30 1977 H 192.373 1.58864 3.54534 0
M  V30 1978 H 194.045 3.93624 2.40537 0
M  V30 1979 H 192.288 3.7373 2.20246 0
M  V30 1980 H 192.959 3.98765 3.81694 0
M  V30 1981 H 195.435 2.07209 3.60837 0
M  V30 1982 H 194.311 2.33931 4.96556 0
M  V30 1983 H 194.572 0.709877 4.36364 0
M  V30 1984 N 193.631 -1.12557 1.10312 0
M  V30 1985 C 194.578 -2.18247 0.750781 0
M  V30 1986 C 195.548 -1.63853 -0.272293 0
M  V30 1987 O 196.733 -1.90195 -0.151862 0
M  V30 1988 C 193.873 -3.44591 0.187379 0
M  V30 1989 C 192.986 -4.13046 1.2656 0
M  V30 1990 C 192.121 -5.27034 0.663978 0
M  V30 1991 C 191.16 -5.87353 1.72287 0
M  V30 1992 N 190.297 -6.92757 1.1416 0
M  V30 1993 H 195.137 -2.47732 1.65628 0
M  V30 1994 H 192.674 -1.21629 0.827337 0
M  V30 1995 H 194.632 -4.16904 -0.157148 0
M  V30 1996 H 193.262 -3.15527 -0.681355 0
M  V30 1997 H 192.314 -3.38924 1.72727 0
M  V30 1998 H 193.626 -4.53947 2.06721 0
M  V30 1999 H 192.78 -6.06104 0.268824 0
M  V30 2000 H 191.519 -4.87407 -0.169082 0
M  V30 2001 H 190.524 -5.06971 2.12746 0
M  V30 2002 H 191.749 -6.29051 2.55875 0
M  V30 2003 H 189.695 -6.5517 0.329984 0
M  V30 2004 H 189.612 -7.3225 1.88007 0
M  V30 2005 H 190.88 -7.75658 0.772956 0
M  V30 2006 N 195.109 -0.891671 -1.2995 0
M  V30 2007 C 196.039 -0.379797 -2.30391 0
M  V30 2008 C 197.02 0.540919 -1.6127 0
M  V30 2009 O 198.205 0.453352 -1.88834 0
M  V30 2010 C 195.335 0.400654 -3.44981 0
M  V30 2011 C 194.289 -0.428905 -4.25846 0
M  V30 2012 C 193.615 0.478557 -5.32554 0
M  V30 2013 C 194.915 -1.67458 -4.94727 0
M  V30 2014 H 196.609 -1.21914 -2.73454 0
M  V30 2015 H 194.155 -0.587675 -1.31462 0
M  V30 2016 H 196.108 0.769434 -4.14316 0
M  V30 2017 H 194.832 1.27371 -3.0074 0
M  V30 2018 H 193.491 -0.779911 -3.58208 0
M  V30 2019 H 193.139 1.34951 -4.84559 0
M  V30 2020 H 192.839 -0.0727433 -5.87555 0
M  V30 2021 H 194.363 0.843705 -6.04743 0
M  V30 2022 H 195.777 -1.376 -5.56542 0
M  V30 2023 H 194.174 -2.16659 -5.59624 0
M  V30 2024 H 195.244 -2.41518 -4.20473 0
M  V30 2025 N 196.587 1.43421 -0.653314 0
M  V30 2026 C 197.864 1.95361 -0.0966581 0
M  V30 2027 C 198.244 1.59461 1.38331 0
M  V30 2028 O 197.592 0.879777 2.10884 0
M  V30 2029 C 197.802 3.47311 -0.342988 0
M  V30 2030 C 199.15 4.23875 -0.24798 0
M  V30 2031 O 200.174 3.55133 -0.275553 0
M  V30 2032 O 199.033 5.4623 -0.171771 0
M  V30 2033 H 196.127 0.826945 0.00956291 0
M  V30 2034 H 198.673 1.5336 -0.726558 0
M  V30 2035 H 197.445 3.66569 -1.36906 0
M  V30 2036 H 197.068 3.9631 0.319975 0
M  V30 2037 N 198.065 0.39524 1.52563 0
M  V30 2038 C 199.342 -0.242908 1.94086 0
M  V30 2039 C 199.722 -1.63841 1.33114 0
M  V30 2040 O 199.07 -2.22928 0.501529 0
M  V30 2041 C 199.28 -0.26327 3.48006 0
M  V30 2042 C 200.628 -0.489354 4.21771 0
M  V30 2043 O 201.652 -0.343226 3.54543 0
M  V30 2044 O 200.511 -0.776169 5.4096 0
M  V30 2045 H 197.605 -0.152536 0.812811 0
M  V30 2046 H 200.151 0.450178 1.6362 0
M  V30 2047 H 198.923 0.713985 3.84731 0
M  V30 2048 H 198.546 -1.00103 3.84792 0
M  V30 2049 N 199.544 -1.57102 0.125237 0
M  V30 2050 C 200.955 -1.82384 -0.399142 0
M  V30 2051 C 201.306 -1.04276 -1.66195 0
M  V30 2052 O 200.431 -0.281269 -2.14564 0
M  V30 2053 C 201.026 -3.30821 -0.730932 0
M  V30 2054 C 199.585 -3.56762 -1.19992 0
M  V30 2055 C 198.732 -2.7649 -0.211792 0
M  V30 2056 H 201.683 -1.54786 0.350277 0
M  V30 2057 H 201.704 -3.4579 -1.58775 0
M  V30 2058 H 201.216 -3.87643 0.188345 0
M  V30 2059 H 199.317 -3.05305 -2.13588 0
M  V30 2060 H 199.43 -4.65317 -1.14093 0
M  V30 2061 H 197.794 -2.4489 -0.700085 0
M  V30 2062 H 198.577 -3.36073 0.700691 0
M  V30 2063 N 201.022 0.148545 -1.56898 0
M  V30 2064 C 202.25 0.876389 -1.87422 0
M  V30 2065 C 202.665 1.74809 -0.713256 0
M  V30 2066 O 202.022 1.79725 0.317025 0
M  V30 2067 C 202.073 1.73438 -3.17178 0
M  V30 2068 O 201.794 0.897809 -4.28802 0
M  V30 2069 C 203.295 2.56993 -3.61205 0
M  V30 2070 H 200.515 0.253489 -0.621277 0
M  V30 2071 H 203.059 0.141798 -2.04008 0
M  V30 2072 H 201.214 2.42205 -3.0235 0
M  V30 2073 H 201.628 1.48672 -5.02988 0
M  V30 2074 H 203.102 3.12773 -4.54838 0
M  V30 2075 H 203.579 3.32958 -2.86419 0
M  V30 2076 H 204.185 1.9352 -3.78722 0
M  V30 2077 N 202.5 1.5196 0.417844 0
M  V30 2078 C 203.748 1.65263 1.16329 0
M  V30 2079 C 204.069 0.380634 1.91249 0
M  V30 2080 O 203.339 -0.604214 1.86349 0
M  V30 2081 H 201.919 0.60912 0.432414 0
M  V30 2082 H 204.581 1.88969 0.477162 0
M  V30 2083 H 203.677 2.4896 1.88217 0
M  V30 2084 N 203.978 -0.674533 1.42435 0
M  V30 2085 C 205.208 -1.46071 1.46105 0
M  V30 2086 C 205.616 -1.89067 0.0709605 0
M  V30 2087 O 204.959 -1.58731 -0.924677 0
M  V30 2088 C 205.021 -2.74145 2.32561 0
M  V30 2089 C 204.685 -2.53224 3.8043 0
M  V30 2090 C 205.682 -2.17809 4.72075 0
M  V30 2091 C 203.367 -2.6821 4.24698 0
M  V30 2092 C 205.361 -1.97648 6.05982 0
M  V30 2093 C 203.048 -2.47665 5.58664 0
M  V30 2094 C 204.046 -2.12437 6.49122 0
M  V30 2095 O 203.734 -1.9209 7.80613 0
M  V30 2096 H 203.466 -0.455959 0.499076 0
M  V30 2097 H 206.02 -0.836193 1.87609 0
M  V30 2098 H 204.25 -3.3908 1.85908 0
M  V30 2099 H 205.939 -3.36028 2.27683 0
M  V30 2100 H 206.705 -2.05826 4.39159 0
M  V30 2101 H 202.584 -2.94609 3.54579 0
M  V30 2102 H 206.128 -1.70075 6.7655 0
M  V30 2103 H 202.025 -2.59244 5.91154 0
M  V30 2104 H 202.793 -2.06686 7.91974 0
M  V30 2105 N 205.456 -1.28612 -0.910864 0
M  V30 2106 C 206.704 -1.15705 -1.65701 0
M  V30 2107 C 207.025 0.29416 -1.92769 0
M  V30 2108 O 206.295 1.20331 -1.54588 0
M  V30 2109 H 204.875 -0.425216 -0.614167 0
M  V30 2110 H 207.537 -1.61381 -1.0928 0
M  V30 2111 H 206.633 -1.6988 -2.61815 0
M  V30 2112 N 206.934 1.1197 -1.10907 0
M  V30 2113 C 208.35 1.35591 -0.841852 0
M  V30 2114 C 208.55 1.94233 0.536246 0
M  V30 2115 O 207.606 2.1717 1.28816 0
M  V30 2116 C 208.919 2.29284 -1.94549 0
M  V30 2117 C 210.467 2.42862 -1.97451 0
M  V30 2118 C 210.942 3.39873 -3.07002 0
M  V30 2119 N 212.433 3.47433 -3.06341 0
M  V30 2120 C 213.168 4.22421 -3.87748 0
M  V30 2121 N 212.664 5.00432 -4.79103 0
M  V30 2122 N 214.457 4.17876 -3.75946 0
M  V30 2123 H 206.608 0.722664 -1.99728 0
M  V30 2124 H 208.871 0.380635 -0.868229 0
M  V30 2125 H 208.577 1.93378 -2.93765 0
M  V30 2126 H 208.451 3.29452 -1.83688 0
M  V30 2127 H 210.838 2.78046 -0.988645 0
M  V30 2128 H 210.919 1.42566 -2.12388 0
M  V30 2129 H 210.563 3.05417 -4.05811 0
M  V30 2130 H 210.493 4.40011 -2.89306 0
M  V30 2131 H 212.984 2.91784 -2.40147 0
M  V30 2132 H 213.297 5.55002 -5.37766 0
M  V30 2133 H 211.642 4.99612 -4.83128 0
M  V30 2134 H 214.833 3.56016 -3.03924 0
M  V30 2135 H 215.006 4.76061 -4.39624 0
M  V30 2136 N 208.412 0.89855 1.29475 0
M  V30 2137 C 209.661 0.519863 1.94885 0
M  V30 2138 C 209.974 -0.9383 1.71625 0
M  V30 2139 O 211.18 -1.42445 2.31131 0
M  V30 2140 C 209.636 0.878836 3.49005 0
M  V30 2141 C 209.244 2.35569 3.81066 0
M  V30 2142 C 210.988 0.570004 4.20656 0
M  V30 2143 C 208.895 2.65558 5.28425 0
M  V30 2144 H 207.825 0.190692 0.729488 0
M  V30 2145 H 210.476 1.09539 1.47219 0
M  V30 2146 H 208.858 0.232253 3.95318 0
M  V30 2147 H 210.032 3.04773 3.45616 0
M  V30 2148 H 208.347 2.63343 3.22552 0
M  V30 2149 H 210.944 0.770925 5.29113 0
M  V30 2150 H 211.287 -0.491404 4.1339 0
M  V30 2151 H 211.82 1.17438 3.8007 0
M  V30 2152 H 208.559 3.70493 5.40754 0
M  V30 2153 H 208.079 2.00977 5.65127 0
M  V30 2154 H 209.758 2.51765 5.96006 0
M  V30 2155 N 209.89 -1.43072 0.660911 0
M  V30 2156 C 211.118 -2.06067 0.185422 0
M  V30 2157 C 211.533 -1.49582 -1.15198 0
M  V30 2158 O 210.89 -0.630134 -1.71276 0
M  V30 2159 C 210.941 -3.61371 0.0966523 0
M  V30 2160 O 210.662 -4.15758 1.38119 0
M  V30 2161 C 212.163 -4.41455 -0.403996 0
M  V30 2162 H 209.383 -0.664459 0.0934604 0
M  V30 2163 H 211.927 -1.83447 0.90373 0
M  V30 2164 H 210.082 -3.8315 -0.572259 0
M  V30 2165 H 210.496 -5.09499 1.24542 0
M  V30 2166 H 211.97 -5.50437 -0.415045 0
M  V30 2167 H 212.447 -4.15036 -1.43674 0
M  V30 2168 H 213.053 -4.24663 0.232691 0
M  V30 2169 N 211.368 -0.403325 -1.52352 0
M  V30 2170 C 212.784 -0.0539281 -1.59509 0
M  V30 2171 C 212.984 1.43307 -1.41652 0
M  V30 2172 O 212.04 2.19924 -1.24056 0
M  V30 2173 C 213.353 -0.543654 -2.95745 0
M  V30 2174 C 214.901 -0.501125 -3.08962 0
M  V30 2175 C 215.376 -0.967267 -4.47669 0
M  V30 2176 N 216.867 -0.923849 -4.53893 0
M  V30 2177 C 217.602 -1.25578 -5.5948 0
M  V30 2178 N 217.098 -1.65889 -6.72646 0
M  V30 2179 N 218.891 -1.17613 -5.49658 0
M  V30 2180 H 211.042 -1.37123 -1.62206 0
M  V30 2181 H 213.305 -0.56294 -0.76276 0
M  V30 2182 H 213.011 -1.58275 -3.14073 0
M  V30 2183 H 212.885 0.0498042 -3.77167 0
M  V30 2184 H 215.272 0.528909 -2.90321 0
M  V30 2185 H 215.353 -1.13056 -2.2946 0
M  V30 2186 H 214.997 -1.9956 -4.67053 0
M  V30 2187 H 214.927 -0.314698 -5.25659 0
M  V30 2188 H 217.418 -0.627403 -3.72655 0
M  V30 2189 H 217.731 -1.89543 -7.49195 0
M  V30 2190 H 216.076 -1.69787 -6.73942 0
M  V30 2191 H 219.267 -0.860115 -4.6013 0
M  V30 2192 H 219.44 -1.43812 -6.3184 0
M  V30 2193 N 212.846 1.57033 -0.133567 0
M  V30 2194 C 213.756 2.19632 0.824564 0
M  V30 2195 C 214.772 1.17666 1.28182 0
M  V30 2196 O 215.948 1.50193 1.3418 0
M  V30 2197 C 213.013 2.79499 2.05137 0
M  V30 2198 C 212.074 3.96548 1.64464 0
M  V30 2199 C 211.307 4.5355 2.81297 0
M  V30 2200 O 211.53 4.09438 3.97136 0
M  V30 2201 O 210.464 5.44018 2.57542 0
M  V30 2202 H 214.29 3.01991 0.321766 0
M  V30 2203 H 211.875 1.49112 0.0927889 0
M  V30 2204 H 213.757 3.17602 2.7696 0
M  V30 2205 H 212.432 2.00162 2.54395 0
M  V30 2206 H 211.339 3.63186 0.897048 0
M  V30 2207 H 212.672 4.77364 1.19934 0
M  V30 2208 N 214.325 -0.140222 1.56975 0
M  V30 2209 C 215.273 -1.19207 1.99731 0
M  V30 2210 C 216.267 -1.44089 0.890777 0
M  V30 2211 O 217.473 -1.44301 1.07597 0
M  V30 2212 H 213.848 -0.40142 0.635898 0
M  V30 2213 H 215.819 -0.804813 2.87342 0
M  V30 2214 C 214.568 -2.51617 2.39967 0
M  V30 2215 H 213.891 -2.33303 3.24669 0
M  V30 2216 H 215.331 -3.23827 2.73701 0
M  V30 2217 C 213.79 -3.12654 1.25496 0
M  V30 2218 O 214.32 -3.97786 0.559371 0
M  V30 2219 N 212.526 -2.72206 1.01746 0
M  V30 2220 H 212.073 -2.03074 1.58489 0
M  V30 2221 H 212.031 -3.13377 0.253461 0
M  V30 2222 N 215.803 -1.52179 -0.40978 0
M  V30 2223 C 217.051 -1.65878 -1.15451 0
M  V30 2224 C 217.372 -0.390771 -1.91044 0
M  V30 2225 O 216.642 0.594323 -1.86667 0
M  V30 2226 H 215.222 -0.611405 -0.429177 0
M  V30 2227 H 217.884 -1.89219 -0.467134 0
M  V30 2228 H 216.98 -2.49954 -1.86894 0
M  V30 2229 N 217.281 0.66697 -1.42791 0
M  V30 2230 C 218.228 1.7803 -1.4688 0
M  V30 2231 C 219.198 1.6299 -0.319919 0
M  V30 2232 O 220.383 1.83432 -0.525118 0
M  V30 2233 C 217.523 3.1611 -1.38451 0
M  V30 2234 C 216.636 3.42381 -2.63437 0
M  V30 2235 C 215.771 4.70232 -2.47094 0
M  V30 2236 C 214.81 4.89564 -3.67415 0
M  V30 2237 N 213.947 6.08661 -3.49966 0
M  V30 2238 H 218.787 1.7387 -2.42019 0
M  V30 2239 H 216.324 0.84868 -1.20149 0
M  V30 2240 H 218.282 3.95914 -1.31561 0
M  V30 2241 H 216.912 3.19374 -0.469033 0
M  V30 2242 H 215.964 2.56774 -2.80662 0
M  V30 2243 H 217.276 3.52557 -3.52853 0
M  V30 2244 H 216.43 5.5814 -2.37834 0
M  V30 2245 H 215.169 4.62353 -1.5518 0
M  V30 2246 H 214.174 4.00096 -3.77099 0
M  V30 2247 H 215.399 4.99282 -4.6032 0
M  V30 2248 H 213.345 6.0194 -2.60776 0
M  V30 2249 H 213.262 6.19733 -4.32975 0
M  V30 2250 H 214.53 6.99226 -3.44532 0
M  V30 2251 N 218.759 1.29093 0.90403 0
M  V30 2252 C 220.005 1.16986 1.65656 0
M  V30 2253 C 220.338 -0.278925 1.92186 0
M  V30 2254 O 219.613 -1.2019 1.5292 0
M  V30 2255 C 219.896 1.97908 3.0084 0
M  V30 2256 C 219.749 3.50903 2.81403 0
M  V30 2257 C 221.068 1.80208 4.01513 0
M  V30 2258 H 218.187 0.426346 0.601164 0
M  V30 2259 H 220.829 1.58518 1.04747 0
M  V30 2260 H 218.979 1.62616 3.52829 0
M  V30 2261 H 220.651 3.96153 2.36348 0
M  V30 2262 H 218.894 3.76045 2.1627 0
M  V30 2263 H 219.565 4.02791 3.77443 0
M  V30 2264 H 222.041 2.11025 3.58619 0
M  V30 2265 H 220.917 2.39184 4.94047 0
M  V30 2266 H 221.178 0.756119 4.35586 0
M  V30 2267 N 220.237 -1.11381 1.11499 0
M  V30 2268 C 221.465 -1.86934 0.88675 0
M  V30 2269 C 221.88 -1.80195 -0.563476 0
M  V30 2270 O 221.237 -1.18367 -1.38908 0
M  V30 2271 C 221.288 -3.35722 1.34064 0
M  V30 2272 O 221.009 -3.4232 2.73401 0
M  V30 2273 C 222.51 -4.2818 1.14791 0
M  V30 2274 H 219.73 -0.591117 0.317523 0
M  V30 2275 H 222.274 -1.40865 1.48248 0
M  V30 2276 H 220.429 -3.79294 0.788355 0
M  V30 2277 H 220.843 -4.34971 2.93087 0
M  V30 2278 H 222.317 -5.30817 1.5145 0
M  V30 2279 H 222.794 -4.39113 0.0875279 0
M  V30 2280 H 223.4 -3.90402 1.68721 0
M  V30 2281 N 221.715 -0.905404 -1.28997 0
M  V30 2282 C 222.963 -0.533192 -1.9494 0
M  V30 2283 C 223.284 0.924618 -1.71685 0
M  V30 2284 O 222.554 1.65268 -1.05183 0
M  V30 2285 H 221.134 -0.194194 -0.721317 0
M  V30 2286 H 223.796 -1.15294 -1.57141 0
M  V30 2287 H 222.892 -0.72059 -3.03667 0
M  V30 2288 N 223.193 1.4272 -0.668489 0
M  V30 2289 C 224.442 2.00846 -0.185389 0
M  V30 2290 C 224.755 1.53442 1.21305 0
M  V30 2291 O 225.961 2.03944 1.79218 0
M  V30 2292 C 224.417 3.58805 -0.280591 0
M  V30 2293 C 224.025 4.15198 -1.68268 0
M  V30 2294 C 225.769 4.24255 0.14412 0
M  V30 2295 C 223.676 5.655 -1.73099 0
M  V30 2296 H 222.606 0.751145 -0.0655475 0
M  V30 2297 H 225.257 1.63516 -0.832752 0
M  V30 2298 H 223.639 3.93608 0.434553 0
M  V30 2299 H 224.813 3.91866 -2.42441 0
M  V30 2300 H 223.128 3.62176 -2.05469 0
M  V30 2301 H 225.725 5.34547 0.128086 0
M  V30 2302 H 226.068 3.99277 1.17827 0
M  V30 2303 H 226.601 3.94389 -0.519798 0
M  V30 2304 H 223.34 5.95268 -2.74475 0
M  V30 2305 H 222.86 5.90842 -1.03274 0
M  V30 2306 H 224.539 6.29808 -1.48158 0
M  V30 2307 N 224.671 0.411399 1.52136 0
M  V30 2308 C 225.917 -0.163888 2.02137 0
M  V30 2309 C 226.25 -1.44597 1.29636 0
M  V30 2310 O 225.525 -1.90272 0.403353 0
M  V30 2311 C 225.808 -0.40927 3.57767 0
M  V30 2312 C 225.661 0.889643 4.40914 0
M  V30 2313 C 226.98 -1.19042 4.23694 0
M  V30 2314 H 224.099 -0.0580896 0.734707 0
M  V30 2315 H 226.741 0.54531 1.82007 0
M  V30 2316 H 224.891 -1.0134 3.7505 0
M  V30 2317 H 226.563 1.52575 4.35337 0
M  V30 2318 H 224.806 1.50011 4.07037 0
M  V30 2319 H 225.477 0.672314 5.4789 0
M  V30 2320 H 227.953 -0.678942 4.10524 0
M  V30 2321 H 226.829 -1.33086 5.32522 0
M  V30 2322 H 227.09 -2.21166 3.82803 0
M  V30 2323 N 226.149 -1.5696 0.141893 0
M  V30 2324 C 227.059 -2.20066 -0.812905 0
M  V30 2325 C 228.075 -1.18344 -1.27557 0
M  V30 2326 O 229.251 -1.50902 -1.33381 0
M  V30 2327 C 226.316 -2.80583 -2.03652 0
M  V30 2328 C 225.377 -3.97414 -1.62359 0
M  V30 2329 C 224.61 -4.55036 -2.78887 0
M  V30 2330 O 224.833 -4.11538 -3.94959 0
M  V30 2331 O 223.767 -5.45376 -2.54653 0
M  V30 2332 H 227.593 -3.02157 -0.305746 0
M  V30 2333 H 225.178 -1.49159 -0.0848799 0
M  V30 2334 H 227.06 -3.19067 -2.75272 0
M  V30 2335 H 225.735 -2.01508 -2.5333 0
M  V30 2336 H 224.642 -3.63656 -0.877775 0
M  V30 2337 H 225.975 -4.77994 -1.17401 0
M  V30 2338 N 227.627 0.131896 -1.57047 0
M  V30 2339 C 228.577 1.1679 -1.95816 0
M  V30 2340 C 229.561 1.37756 -0.831393 0
M  V30 2341 O 230.753 1.39065 -1.09499 0
M  V30 2342 C 227.882 2.49778 -2.35512 0
M  V30 2343 C 226.968 2.32342 -3.54793 0
M  V30 2344 N 227.359 1.8469 -4.70875 0
M  V30 2345 C 225.657 2.63043 -3.60173 0
M  V30 2346 C 226.358 1.80656 -5.52936 0
M  V30 2347 N 225.334 2.24528 -4.95064 0
M  V30 2348 H 229.136 0.791818 -2.83033 0
M  V30 2349 H 226.65 0.339791 -1.58805 0
M  V30 2350 H 228.647 3.24692 -2.61498 0
M  V30 2351 H 227.307 2.88156 -1.49654 0
M  V30 2352 H 228.318 1.54429 -4.9434 0
M  V30 2353 H 224.995 3.05193 -2.84892 0
M  V30 2354 H 226.385 1.45178 -6.56028 0
M  V30 2355 N 229.106 1.52395 0.401703 0
M  V30 2356 C 230.053 1.76268 1.48991 0
M  V30 2357 C 231.023 0.605386 1.54675 0
M  V30 2358 O 232.208 0.843742 1.7113 0
M  V30 2359 C 229.348 1.92592 2.86361 0
M  V30 2360 C 228.461 3.20259 2.89928 0
M  V30 2361 C 227.596 3.26972 4.18644 0
M  V30 2362 C 226.635 4.48812 4.16214 0
M  V30 2363 N 225.772 4.52877 5.36514 0
M  V30 2364 H 230.612 2.6914 1.27935 0
M  V30 2365 H 228.149 1.33355 0.620871 0
M  V30 2366 H 230.107 2.0004 3.66115 0
M  V30 2367 H 228.737 1.03093 3.05895 0
M  V30 2368 H 227.789 3.21945 2.02621 0
M  V30 2369 H 229.101 4.10056 2.83999 0
M  V30 2370 H 228.255 3.33533 5.06794 0
M  V30 2371 H 226.994 2.35126 4.27278 0
M  V30 2372 H 225.999 4.4239 3.26453 0
M  V30 2373 H 227.224 5.41961 4.09213 0
M  V30 2374 H 225.17 3.63917 5.45802 0
M  V30 2375 H 225.087 5.36529 5.32609 0
M  V30 2376 H 226.355 4.63676 6.26597 0
M  V30 2377 N 230.584 -0.659388 1.43143 0
M  V30 2378 C 231.861 -1.41627 1.34912 0
M  V30 2379 C 232.241 -2.11099 -0.00607785 0
M  V30 2380 O 231.589 -2.04353 -1.02236 0
M  V30 2381 C 231.799 -2.40604 2.52805 0
M  V30 2382 C 233.147 -3.04789 2.95616 0
M  V30 2383 O 234.171 -2.50932 2.52807 0
M  V30 2384 O 233.03 -4.02421 3.69756 0
M  V30 2385 H 230.124 -0.63246 0.532844 0
M  V30 2386 H 232.67 -0.686814 1.5518 0
M  V30 2387 H 231.442 -1.88174 3.43083 0
M  V30 2388 H 231.065 -3.21009 2.34604 0
M  V30 2389 N 232.062 -1.29571 -0.897171 0
M  V30 2390 C 233.025 -1.14913 -1.98312 0
M  V30 2391 C 234.025 -0.0838629 -1.60581 0
M  V30 2392 O 235.215 -0.331006 -1.71026 0
M  V30 2393 C 232.347 -0.757835 -3.3237 0
M  V30 2394 H 233.54 -2.11377 -2.12743 0
M  V30 2395 H 231.093 -1.12793 -1.08201 0
M  V30 2396 H 231.828 0.206837 -3.2364 0
M  V30 2397 H 231.613 -1.52755 -3.61121 0
M  V30 2398 H 233.103 -0.678408 -4.12053 0
M  V30 2399 N 233.54 1.10788 -1.12088 0
M  V30 2400 C 234.768 1.86461 -0.896651 0
M  V30 2401 C 235.183 1.80492 0.553912 0
M  V30 2402 O 234.54 1.19102 1.38278 0
M  V30 2403 C 234.591 3.35006 -1.35843 0
M  V30 2404 O 234.312 3.40866 -2.75213 0
M  V30 2405 C 235.813 4.27565 -1.1706 0
M  V30 2406 H 233.033 0.589425 -0.320654 0
M  V30 2407 H 235.577 1.40076 -1.48993 0
M  V30 2408 H 233.732 3.7887 -0.808458 0
M  V30 2409 H 234.146 4.33411 -2.9539 0
M  V30 2410 H 235.62 5.30007 -1.54263 0
M  V30 2411 H 236.097 4.3906 -0.110814 0
M  V30 2412 H 236.703 3.89501 -1.70789 0
M  V30 2413 N 235.018 0.912232 1.28515 0
M  V30 2414 C 236.295 0.463597 1.90027 0
M  V30 2415 C 236.675 -1.05753 1.82701 0
M  V30 2416 O 236.023 -1.90492 1.26194 0
M  V30 2417 C 236.233 0.992253 3.34597 0
M  V30 2418 C 237.581 1.04344 4.11579 0
M  V30 2419 O 238.605 0.94079 3.43551 0
M  V30 2420 O 237.464 1.1995 5.33174 0
M  V30 2421 H 234.558 0.146666 0.813891 0
M  V30 2422 H 237.104 1.00292 1.36893 0
M  V30 2423 H 235.876 2.03623 3.34146 0
M  V30 2424 H 235.499 0.433672 3.95228 0
M  V30 2425 N 236.496 -1.42363 0.676048 0
M  V30 2426 C 237.406 -2.346 -0.00153389 0
M  V30 2427 C 238.422 -1.5516 -0.787485 0
M  V30 2428 O 239.598 -1.87723 -0.729521 0
M  V30 2429 C 236.663 -3.33705 -0.940298 0
M  V30 2430 C 235.724 -4.29042 -0.148739 0
M  V30 2431 C 234.957 -5.23413 -1.04279 0
M  V30 2432 O 235.18 -5.22749 -2.28232 0
M  V30 2433 O 234.114 -5.99795 -0.502925 0
M  V30 2434 H 237.94 -2.94082 0.758268 0
M  V30 2435 H 235.525 -1.42888 0.436289 0
M  V30 2436 H 237.407 -3.94586 -1.47917 0
M  V30 2437 H 236.082 -2.76695 -1.67993 0
M  V30 2438 H 234.989 -3.71571 0.43427 0
M  V30 2439 H 236.322 -4.89097 0.551805 0
M  V30 2440 N 237.974 -0.419461 -1.51915 0
M  V30 2441 C 238.906 0.43646 -2.25006 0
M  V30 2442 C 239.919 1.00149 -1.28351 0
M  V30 2443 O 241.108 0.898674 -1.54227 0
M  V30 2444 C 238.208 1.6206 -2.9764 0
M  V30 2445 C 237.381 1.17763 -4.21249 0
M  V30 2446 C 236.44 2.22985 -4.76617 0
M  V30 2447 O 235.466 1.83151 -5.38929 0
M  V30 2448 N 236.668 3.55271 -4.59089 0
M  V30 2449 H 239.433 -0.18989 -2.99098 0
M  V30 2450 H 236.994 -0.247386 -1.59999 0
M  V30 2451 H 238.986 2.32038 -3.31573 0
M  V30 2452 H 237.556 2.15266 -2.2667 0
M  V30 2453 H 236.776 0.305582 -3.93014 0
M  V30 2454 H 238.064 0.858781 -5.015 0
M  V30 2455 H 237.462 3.90377 -4.09417 0
M  V30 2456 H 236.019 4.21195 -4.97432 0
M  V30 2457 N 239.452 1.56882 -0.150215 0
M  V30 2458 C 240.868 1.58263 0.20617 0
M  V30 2459 C 241.068 1.16464 1.64434 0
M  V30 2460 O 240.124 0.866422 2.3717 0
M  V30 2461 C 241.437 3.00649 -0.0555025 0
M  V30 2462 C 242.985 3.12999 0.00795388 0
M  V30 2463 C 243.46 4.5744 -0.226429 0
M  V30 2464 N 244.951 4.62875 -0.173469 0
M  V30 2465 C 245.686 5.72454 -0.329288 0
M  V30 2466 N 245.182 6.90669 -0.543005 0
M  V30 2467 N 246.975 5.61467 -0.266666 0
M  V30 2468 H 239.126 1.82345 -1.08922 0
M  V30 2469 H 241.389 0.844149 -0.431413 0
M  V30 2470 H 241.095 3.3563 -1.05096 0
M  V30 2471 H 240.969 3.71337 0.66246 0
M  V30 2472 H 243.356 2.77857 0.993966 0
M  V30 2473 H 243.437 2.4479 -0.742388 0
M  V30 2474 H 243.081 4.93287 -1.20956 0
M  V30 2475 H 243.011 5.2378 0.544274 0
M  V30 2476 H 245.502 3.77898 -0.0130709 0
M  V30 2477 H 245.815 7.70045 -0.651922 0
M  V30 2478 H 244.16 6.92581 -0.579366 0
M  V30 2479 H 247.351 4.67992 -0.100441 0
M  V30 2480 H 247.524 6.46816 -0.391535 0
M  V30 2481 N 240.93 -0.123565 1.57115 0
M  V30 2482 C 241.862 -1.17739 1.96648 0
M  V30 2483 C 242.875 -1.37906 0.865201 0
M  V30 2484 O 244.064 -1.37062 1.14351 0
M  V30 2485 C 241.164 -2.53821 2.24562 0
M  V30 2486 C 240.337 -2.54317 3.55867 0
M  V30 2487 C 239.396 -3.72112 3.72047 0
M  V30 2488 O 238.422 -3.55907 4.44206 0
M  V30 2489 N 239.624 -4.90498 3.10471 0
M  V30 2490 H 242.389 -0.841147 2.87654 0
M  V30 2491 H 239.95 -0.31289 1.58848 0
M  V30 2492 H 241.942 -3.31175 2.32606 0
M  V30 2493 H 240.512 -2.79645 1.39705 0
M  V30 2494 H 239.732 -1.62711 3.59053 0
M  V30 2495 H 241.02 -2.51701 4.42181 0
M  V30 2496 H 240.418 -5.06567 2.51806 0
M  V30 2497 H 238.975 -5.65544 3.24043 0
M  V30 2498 N 242.408 -1.52605 -0.393616 0
M  V30 2499 C 243.657 -1.66649 -1.13627 0
M  V30 2500 C 243.97 -0.410364 -1.91247 0
M  V30 2501 O 245.176 -0.430854 -2.68059 0
M  V30 2502 C 243.632 -2.9449 -2.06891 0
M  V30 2503 C 243.24 -4.27266 -1.34714 0
M  V30 2504 C 244.984 -3.17899 -2.81319 0
M  V30 2505 C 242.891 -5.46217 -2.26717 0
M  V30 2506 H 241.821 -0.62084 -0.427871 0
M  V30 2507 H 244.472 -1.791 -0.399428 0
M  V30 2508 H 242.854 -2.75774 -2.84191 0
M  V30 2509 H 244.028 -4.56518 -0.626714 0
M  V30 2510 H 242.343 -4.10081 -0.722643 0
M  V30 2511 H 244.94 -4.03949 -3.50328 0
M  V30 2512 H 245.283 -2.32777 -3.45139 0
M  V30 2513 H 245.816 -3.37159 -2.11113 0
M  V30 2514 H 242.555 -6.33733 -1.67521 0
M  V30 2515 H 242.075 -5.21283 -2.96689 0
M  V30 2516 H 243.754 -5.7991 -2.86903 0
M  V30 2517 N 243.887 0.651787 -1.4349 0
M  V30 2518 C 244.819 1.77725 -1.44729 0
M  V30 2519 C 245.832 1.59141 -0.343231 0
M  V30 2520 O 247.021 1.67835 -0.607751 0
M  V30 2521 C 244.121 3.15172 -1.24579 0
M  V30 2522 C 243.294 3.60402 -2.47849 0
M  V30 2523 C 242.353 4.76656 -2.22902 0
M  V30 2524 O 241.379 4.86022 -2.96263 0
M  V30 2525 N 242.581 5.66958 -1.24656 0
M  V30 2526 H 245.346 1.77141 -2.41746 0
M  V30 2527 H 242.907 0.835678 -1.38665 0
M  V30 2528 H 244.899 3.90634 -1.0577 0
M  V30 2529 H 243.469 3.1052 -0.360015 0
M  V30 2530 H 242.689 2.75369 -2.82073 0
M  V30 2531 H 243.977 3.87368 -3.29884 0
M  V30 2532 H 243.375 5.62065 -0.640265 0
M  V30 2533 H 241.932 6.42135 -1.1183 0
M  V30 2534 N 245.365 1.30045 0.890287 0
M  V30 2535 C 246.275 1.17885 2.02831 0
M  V30 2536 C 247.291 0.0999609 1.73713 0
M  V30 2537 O 248.467 0.313867 1.98939 0
M  V30 2538 C 245.532 0.866079 3.35708 0
M  V30 2539 C 244.593 2.02979 3.78283 0
M  V30 2540 C 243.826 1.73184 5.0482 0
M  V30 2541 O 244.049 0.657237 5.66601 0
M  V30 2542 O 242.983 2.58267 5.43674 0
M  V30 2543 H 246.809 2.13474 2.16015 0
M  V30 2544 H 244.394 1.09587 1.01543 0
M  V30 2545 H 246.276 0.706623 4.15433 0
M  V30 2546 H 244.951 -0.0599443 3.23644 0
M  V30 2547 H 243.858 2.24454 2.99285 0
M  V30 2548 H 245.191 2.93734 3.94944 0
M  V30 2549 N 246.843 -1.10192 1.12674 0
M  V30 2550 C 248.092 -1.81573 0.8783 0
M  V30 2551 C 248.405 -1.86249 -0.597557 0
M  V30 2552 O 249.611 -2.5386 -0.962681 0
M  V30 2553 C 248.067 -3.26149 1.52167 0
M  V30 2554 C 247.675 -3.29763 3.03249 0
M  V30 2555 C 249.419 -4.0234 1.3536 0
M  V30 2556 C 247.326 -4.68815 3.60508 0
M  V30 2557 H 246.256 -0.680394 0.324931 0
M  V30 2558 H 248.907 -1.23902 1.35353 0
M  V30 2559 H 247.289 -3.83832 0.974104 0
M  V30 2560 H 248.463 -2.8189 3.6452 0
M  V30 2561 H 246.778 -2.67059 3.19481 0
M  V30 2562 H 249.375 -5.05058 1.75559 0
M  V30 2563 H 249.718 -4.15235 0.297554 0
M  V30 2564 H 250.251 -3.51079 1.87052 0
M  V30 2565 H 246.99 -4.61121 4.65884 0
M  V30 2566 H 246.51 -5.17045 3.04014 0
M  V30 2567 H 248.189 -5.37785 3.59717 0
M  V30 2568 N 248.321 -0.919034 -1.28029 0
M  V30 2569 C 249.269 -0.401753 -2.29104 0
M  V30 2570 C 250.263 0.509354 -1.61561 0
M  V30 2571 O 251.469 0.390014 -1.75724 0
M  V30 2572 H 247.844 -0.111331 -0.743713 0
M  V30 2573 H 249.815 -1.2672 -2.70156 0
M  V30 2574 C 248.564 0.338148 -3.46052 0
M  V30 2575 H 247.887 -0.353732 -3.98232 0
M  V30 2576 H 249.327 0.664653 -4.18758 0
M  V30 2577 C 247.786 1.54798 -2.99231 0
M  V30 2578 O 248.316 2.64696 -3.02157 0
M  V30 2579 N 246.522 1.3968 -2.54829 0
M  V30 2580 H 246.069 0.502698 -2.52647 0
M  V30 2581 H 246.027 2.20755 -2.23863 0
M  V30 2582 N 249.799 1.42003 -0.683588 0
M  V30 2583 C 251.027 2.05746 -0.218182 0
M  V30 2584 C 251.442 1.51396 1.12804 0
M  V30 2585 O 250.799 0.657303 1.70252 0
M  V30 2586 C 250.85 3.61171 -0.154131 0
M  V30 2587 O 250.571 4.13508 -1.44716 0
M  V30 2588 C 252.072 4.42042 0.333713 0
M  V30 2589 H 249.292 0.662888 -0.10402 0
M  V30 2590 H 251.836 1.81987 -0.9328 0
M  V30 2591 H 249.991 3.84012 0.511231 0
M  V30 2592 H 250.405 5.07453 -1.32632 0
M  V30 2593 H 251.879 5.51028 0.327423 0
M  V30 2594 H 252.356 4.17269 1.37053 0
M  V30 2595 H 252.962 4.24239 -0.300222 0
M  V30 2596 N 251.277 0.427512 1.51691 0
M  V30 2597 C 252.525 -0.141948 2.01601 0
M  V30 2598 C 252.846 -1.44067 1.31414 0
M  V30 2599 O 252.116 -1.90763 0.445658 0
M  V30 2600 H 250.696 -0.0554468 0.744939 0
M  V30 2601 H 253.358 0.567968 1.86441 0
M  V30 2602 H 252.454 -0.324913 3.10404 0
M  V30 2603 N 252.755 -1.56801 0.158532 0
M  V30 2604 C 254.004 -1.95665 -0.489702 0
M  V30 2605 C 254.317 -1.04654 -1.65248 0
M  V30 2606 O 255.523 -1.33146 -2.3661 0
M  V30 2607 C 253.979 -3.47874 -0.922582 0
M  V30 2608 C 253.587 -4.47489 0.213893 0
M  V30 2609 C 255.331 -3.95583 -1.53996 0
M  V30 2610 C 253.238 -5.90921 -0.237903 0
M  V30 2611 H 252.168 -0.730516 -0.186716 0
M  V30 2612 H 254.819 -1.81861 0.244722 0
M  V30 2613 H 253.201 -3.57051 -1.71261 0
M  V30 2614 H 254.375 -4.50017 0.991036 0
M  V30 2615 H 252.69 -4.09764 0.740407 0
M  V30 2616 H 255.287 -5.0019 -1.8898 0
M  V30 2617 H 255.63 -3.37789 -2.43319 0
M  V30 2618 H 256.163 -3.8937 -0.814611 0
M  V30 2619 H 252.902 -6.52559 0.620236 0
M  V30 2620 H 252.422 -5.91729 -0.980676 0
M  V30 2621 H 254.101 -6.43352 -0.686067 0
M  V30 2622 N 254.233 0.115231 -1.57178 0
M  V30 2623 C 255.163 1.1423 -2.03651 0
M  V30 2624 C 256.144 1.42967 -0.921655 0
M  V30 2625 O 257.329 1.53343 -1.19162 0
M  V30 2626 C 254.459 2.4675 -2.44401 0
M  V30 2627 C 253.413 2.32467 -3.59365 0
M  V30 2628 C 252.739 3.69984 -3.86026 0
M  V30 2629 C 254.039 1.78203 -4.90959 0
M  V30 2630 H 255.733 0.755749 -2.89705 0
M  V30 2631 H 253.279 0.362093 -1.39373 0
M  V30 2632 H 255.232 3.18854 -2.75517 0
M  V30 2633 H 253.956 2.87302 -1.55322 0
M  V30 2634 H 252.615 1.62811 -3.28463 0
M  V30 2635 H 252.263 4.08028 -2.94147 0
M  V30 2636 H 251.963 3.61279 -4.63412 0
M  V30 2637 H 253.487 4.43587 -4.19599 0
M  V30 2638 H 254.901 2.40128 -5.20587 0
M  V30 2639 H 253.298 1.8031 -5.72371 0
M  V30 2640 H 254.368 0.739876 -4.79222 0
M  V30 2641 N 255.711 1.52812 0.385517 0
M  V30 2642 C 256.96 1.67249 1.12741 0
M  V30 2643 C 257.273 0.4205 1.91027 0
M  V30 2644 O 258.479 0.445064 2.67827 0
M  V30 2645 C 256.935 2.95583 2.05326 0
M  V30 2646 C 256.543 4.27974 1.32447 0
M  V30 2647 C 258.287 3.19386 2.7963 0
M  V30 2648 C 256.194 5.47412 2.23818 0
M  V30 2649 H 255.124 0.6231 0.424573 0
M  V30 2650 H 257.775 1.79309 0.389924 0
M  V30 2651 H 256.157 2.77277 2.82725 0
M  V30 2652 H 257.331 4.56844 0.602495 0
M  V30 2653 H 255.646 4.10459 0.700885 0
M  V30 2654 H 258.243 4.05801 3.48181 0
M  V30 2655 H 258.586 2.34604 3.43899 0
M  V30 2656 H 259.119 3.38274 2.09322 0
M  V30 2657 H 255.858 6.34612 1.64157 0
M  V30 2658 H 255.378 5.22849 2.93921 0
M  V30 2659 H 257.057 5.81423 2.83824 0
M  V30 2660 N 257.189 -0.644168 1.43834 0
M  V30 2661 C 258.152 -1.73857 1.49353 0
M  V30 2662 C 259.152 -1.56315 0.377112 0
M  V30 2663 O 260.342 -1.62048 0.639226 0
M  V30 2664 C 257.474 -3.12819 1.35488 0
M  V30 2665 H 258.667 -1.70342 2.46827 0
M  V30 2666 H 256.22 -0.856652 1.30733 0
M  V30 2667 H 256.955 -3.2194 0.390569 0
M  V30 2668 H 256.74 -3.26958 2.16428 0
M  V30 2669 H 258.23 -3.92606 1.42302 0
M  V30 2670 N 258.668 -1.30515 -0.883378 0
M  V30 2671 C 259.616 -1.16941 -2.01066 0
M  V30 2672 C 260.61 -0.0809148 -1.69207 0
M  V30 2673 O 261.816 -0.241877 -1.78367 0
M  V30 2674 H 258.191 -0.361705 -0.659298 0
M  V30 2675 H 260.162 -2.12344 -2.09649 0
M  V30 2676 C 258.911 -0.879694 -3.36388 0
M  V30 2677 H 258.234 -1.70936 -3.61415 0
M  V30 2678 H 259.674 -0.82483 -4.159 0
M  V30 2679 C 258.133 0.417409 -3.34304 0
M  V30 2680 O 258.663 1.43843 -3.75063 0
M  V30 2681 N 256.869 0.429141 -2.87414 0
M  V30 2682 H 256.416 -0.402222 -2.5444 0
M  V30 2683 H 256.374 1.29696 -2.86403 0
M  V30 2684 N 260.146 1.09593 -1.13257 0
M  V30 2685 C 261.394 1.81375 -0.891492 0
M  V30 2686 C 261.715 1.86049 0.584009 0
M  V30 2687 O 260.985 1.34481 1.42449 0
M  V30 2688 H 259.565 0.671708 -0.326828 0
M  V30 2689 H 262.227 1.3256 -1.42877 0
M  V30 2690 H 261.323 2.84612 -1.28071 0
M  V30 2691 N 261.624 0.925811 1.2754 0
M  V30 2692 C 262.587 0.428129 2.25166 0
M  V30 2693 C 263.587 -0.452261 1.54309 0
M  V30 2694 O 264.777 -0.253608 1.72344 0
M  V30 2695 C 261.909 -0.384749 3.38722 0
M  V30 2696 H 263.102 1.29066 2.70706 0
M  V30 2697 H 260.655 0.706323 1.3943 0
M  V30 2698 H 261.39 -1.26618 2.98561 0
M  V30 2699 H 261.175 0.246454 3.91325 0
M  V30 2700 H 262.665 -0.723389 4.11287 0
M  V30 2701 N 263.102 -1.41638 0.69111 0
M  V30 2702 C 264.379 -1.95036 0.148421 0
M  V30 2703 C 264.759 -1.63072 -1.34055 0
M  V30 2704 O 264.107 -0.93538 -2.08478 0
M  V30 2705 C 264.317 -3.46279 0.434951 0
M  V30 2706 C 265.665 -4.23069 0.360275 0
M  V30 2707 O 266.689 -3.54277 0.369613 0
M  V30 2708 O 265.548 -5.45583 0.316534 0
M  V30 2709 H 262.642 -0.826908 0.0123654 0
M  V30 2710 H 265.188 -1.5138 0.766963 0
M  V30 2711 H 263.96 -3.6281 1.46576 0
M  V30 2712 H 263.583 -3.97019 -0.214787 0
M  V30 2713 N 264.58 -0.43555 -1.51462 0
M  V30 2714 C 265.513 0.421989 -2.24264 0
M  V30 2715 C 266.491 1.02619 -1.26127 0
M  V30 2716 O 267.675 1.069 -1.55257 0
M  V30 2717 C 264.802 1.588 -2.99166 0
M  V30 2718 C 263.848 1.10465 -4.11946 0
M  V30 2719 S 264.681 0.048146 -5.35478 0
M  V30 2720 C 265.837 1.21887 -6.13917 0
M  V30 2721 H 266.07 -0.196102 -2.96653 0
M  V30 2722 H 263.603 -0.220054 -1.52824 0
M  V30 2723 H 265.561 2.25647 -3.42919 0
M  V30 2724 H 264.222 2.1775 -2.26371 0
M  V30 2725 H 263.415 1.97654 -4.63626 0
M  V30 2726 H 263.017 0.51445 -3.70445 0
M  V30 2727 H 265.309 2.13756 -6.42895 0
M  V30 2728 H 266.252 0.742076 -7.04201 0
M  V30 2729 H 266.66 1.45663 -5.45383 0
M  V30 2730 N 266.058 1.56714 -0.166846 0
M  V30 2731 C 267.005 2.17746 0.765193 0
M  V30 2732 C 267.975 1.11614 1.23011 0
M  V30 2733 O 269.16 1.39745 1.29908 0
M  V30 2734 C 266.3 2.81882 1.9909 0
M  V30 2735 C 265.413 4.02462 1.56997 0
M  V30 2736 C 264.548 4.54537 2.749 0
M  V30 2737 C 263.587 5.67538 2.29275 0
M  V30 2738 N 262.724 6.14142 3.40255 0
M  V30 2739 H 267.564 2.97048 0.237952 0
M  V30 2740 H 265.101 1.4672 0.105725 0
M  V30 2741 H 267.059 3.17221 2.70974 0
M  V30 2742 H 265.689 2.05191 2.49192 0
M  V30 2743 H 264.741 3.72973 0.748037 0
M  V30 2744 H 266.053 4.84273 1.19503 0
M  V30 2745 H 265.207 4.92035 3.54946 0
M  V30 2746 H 263.946 3.71774 3.1565 0
M  V30 2747 H 262.951 5.29597 1.47674 0
M  V30 2748 H 264.176 6.52099 1.89588 0
M  V30 2749 H 262.122 5.3431 3.8059 0
M  V30 2750 H 262.039 6.9093 3.06841 0
M  V30 2751 H 263.307 6.56289 4.206 0
M  V30 2752 N 267.536 -0.106894 1.57237 0
M  V30 2753 C 268.952 -0.46078 1.52804 0
M  V30 2754 C 269.152 -1.81184 0.881746 0
M  V30 2755 O 268.208 -2.48102 0.469224 0
M  V30 2756 C 269.521 -0.434127 2.9755 0
M  V30 2757 C 271.069 -0.516821 3.08704 0
M  V30 2758 C 271.544 -0.520436 4.55033 0
M  V30 2759 N 273.035 -0.58153 4.59535 0
M  V30 2760 C 273.77 -0.605973 5.70189 0
M  V30 2761 N 273.266 -0.587331 6.90306 0
M  V30 2762 N 275.059 -0.649895 5.5833 0
M  V30 2763 H 267.21 0.778203 1.9763 0
M  V30 2764 H 269.473 0.288403 0.903066 0
M  V30 2765 H 269.179 0.491197 3.48253 0
M  V30 2766 H 269.053 -1.25748 3.55622 0
M  V30 2767 H 271.44 -1.43256 2.57995 0
M  V30 2768 H 271.521 0.334449 2.53604 0
M  V30 2769 H 271.165 0.391313 5.0639 0
M  V30 2770 H 271.095 -1.38876 5.07958 0
M  V30 2771 H 273.586 -0.60161 3.73081 0
M  V30 2772 H 273.899 -0.60894 7.70397 0
M  V30 2773 H 272.244 -0.554564 6.92784 0
M  V30 2774 H 275.435 -0.661907 4.63397 0
M  V30 2775 H 275.608 -0.665476 6.44574 0
M  V30 2776 N 269.014 -1.53014 -0.377408 0
M  V30 2777 C 270.26 -1.69821 -1.11948 0
M  V30 2778 C 270.615 -0.438581 -1.87335 0
M  V30 2779 O 269.908 0.568094 -1.82984 0
M  V30 2780 C 270.102 -2.87982 -2.11663 0
M  V30 2781 C 269.931 -4.25315 -1.46072 0
M  V30 2782 C 268.701 -4.90354 -1.21986 0
M  V30 2783 C 270.899 -5.06281 -0.904664 0
M  V30 2784 N 268.881 -6.11641 -0.526215 0
M  V30 2785 C 270.252 -6.19069 -0.339726 0
M  V30 2786 C 272.307 -4.91395 -0.8022 0
M  V30 2787 C 271.01 -7.18598 0.317669 0
M  V30 2788 C 273.036 -5.91187 -0.158606 0
M  V30 2789 C 272.398 -7.03289 0.39551 0
M  V30 2790 H 268.497 -0.674785 -0.395207 0
M  V30 2791 H 271.081 -1.90389 -0.407437 0
M  V30 2792 H 269.252 -2.68974 -2.80192 0
M  V30 2793 H 270.984 -2.93669 -2.78461 0
M  V30 2794 H 267.739 -4.49286 -1.49798 0
M  V30 2795 H 268.163 -6.76719 -0.195098 0
M  V30 2796 H 272.805 -4.04925 -1.21639 0
M  V30 2797 H 270.523 -8.04669 0.743836 0
M  V30 2798 H 274.109 -5.81744 -0.0804138 0
M  V30 2799 H 272.989 -7.79183 0.885648 0
M  V30 2800 N 270.492 0.636531 -1.44174 0
M  V30 2801 C 271.422 1.76003 -1.53444 0
M  V30 2802 C 272.403 1.65619 -0.387841 0
M  V30 2803 O 273.588 1.84461 -0.607257 0
M  V30 2804 C 270.718 3.14511 -1.4731 0
M  V30 2805 C 269.672 3.39677 -2.60391 0
M  V30 2806 C 268.998 4.78159 -2.39308 0
M  V30 2807 C 270.298 3.32772 -4.02567 0
M  V30 2808 H 271.992 1.68501 -2.47483 0
M  V30 2809 H 269.538 0.809237 -1.19111 0
M  V30 2810 H 271.491 3.92878 -1.52397 0
M  V30 2811 H 270.215 3.22783 -0.49785 0
M  V30 2812 H 268.874 2.63688 -2.54684 0
M  V30 2813 H 268.522 4.83128 -1.39988 0
M  V30 2814 H 268.222 4.95956 -3.15122 0
M  V30 2815 H 269.746 5.58762 -2.46205 0
M  V30 2816 H 271.16 4.01051 -4.09672 0
M  V30 2817 H 269.557 3.62104 -4.7854 0
M  V30 2818 H 270.627 2.30669 -4.2652 0
M  V30 2819 N 271.97 1.30982 0.876444 0
M  V30 2820 C 272.933 1.18054 1.96459 0
M  V30 2821 C 273.933 0.109399 1.60427 0
M  V30 2822 O 275.123 0.358173 1.70478 0
M  V30 2823 C 272.255 0.810616 3.31122 0
M  V30 2824 H 273.448 2.14735 2.09354 0
M  V30 2825 H 271.001 1.145 1.06392 0
M  V30 2826 H 271.736 -0.155322 3.23928 0
M  V30 2827 H 271.521 1.58481 3.58645 0
M  V30 2828 H 273.011 0.743876 4.10921 0
M  V30 2829 N 273.449 -1.08991 1.13837 0
M  V30 2830 C 274.396 -2.15748 0.819835 0
M  V30 2831 C 275.366 -1.64636 -0.220026 0
M  V30 2832 O 276.551 -1.90582 -0.0912757 0
M  V30 2833 C 273.691 -3.4382 0.296913 0
M  V30 2834 C 272.804 -4.0881 1.39636 0
M  V30 2835 C 271.939 -5.24655 0.831314 0
M  V30 2836 C 270.978 -5.81575 1.90886 0
M  V30 2837 N 270.115 -6.88774 1.36142 0
M  V30 2838 H 274.955 -2.42338 1.73426 0
M  V30 2839 H 272.492 -1.18935 0.865613 0
M  V30 2840 H 274.45 -4.17193 -0.0244339 0
M  V30 2841 H 273.08 -3.17535 -0.580628 0
M  V30 2842 H 272.132 -3.33258 1.83422 0
M  V30 2843 H 273.444 -4.47141 2.21058 0
M  V30 2844 H 272.598 -6.04942 0.461515 0
M  V30 2845 H 271.337 -4.87698 -0.013932 0
M  V30 2846 H 270.342 -4.99946 2.28767 0
M  V30 2847 H 271.567 -6.20592 2.75758 0
M  V30 2848 H 269.513 -6.53788 0.538254 0
M  V30 2849 H 269.43 -7.25898 2.11208 0
M  V30 2850 H 270.698 -7.72806 1.01933 0
M  V30 2851 N 274.927 -0.932562 -1.27047 0
M  V30 2852 C 275.857 -0.452902 -2.29066 0
M  V30 2853 C 276.838 0.489338 -1.62909 0
M  V30 2854 O 278.023 0.393046 -1.90181 0
M  V30 2855 C 275.153 0.290698 -3.46081 0
M  V30 2856 C 274.107 -0.564168 -4.24265 0
M  V30 2857 C 273.433 0.308886 -5.33807 0
M  V30 2858 C 274.733 -1.83112 -4.89149 0
M  V30 2859 H 276.427 -1.30552 -2.69437 0
M  V30 2860 H 273.973 -0.629201 -1.29526 0
M  V30 2861 H 275.926 0.637233 -4.16554 0
M  V30 2862 H 274.65 1.17738 -3.0464 0
M  V30 2863 H 273.309 -0.893477 -3.55545 0
M  V30 2864 H 272.957 1.19467 -4.88607 0
M  V30 2865 H 272.657 -0.259633 -5.87026 0
M  V30 2866 H 274.181 0.650884 -6.07121 0
M  V30 2867 H 275.595 -1.55236 -5.51883 0
M  V30 2868 H 273.992 -2.34353 -5.52448 0
M  V30 2869 H 275.062 -2.54772 -4.12576 0
M  V30 2870 N 276.405 1.4127 -0.698611 0
M  V30 2871 C 277.633 2.05503 -0.239992 0
M  V30 2872 C 278.048 1.52584 1.11191 0
M  V30 2873 O 277.405 0.675323 1.69545 0
M  V30 2874 C 277.456 3.60987 -0.192429 0
M  V30 2875 O 277.177 4.1195 -1.49094 0
M  V30 2876 C 278.678 4.42371 0.28681 0
M  V30 2877 H 275.898 0.661748 -0.111045 0
M  V30 2878 H 278.442 1.80987 -0.95205 0
M  V30 2879 H 276.597 3.84533 0.470472 0
M  V30 2880 H 277.011 5.06018 -1.38007 0
M  V30 2881 H 278.485 5.51344 0.26896 0
M  V30 2882 H 278.962 4.18699 1.32619 0
M  V30 2883 H 279.568 4.23897 -0.345201 0
M  V30 2884 N 277.883 0.443576 1.51229 0
M  V30 2885 C 278.831 -0.37904 2.29491 0
M  V30 2886 C 279.825 -1.0153 1.35603 0
M  V30 2887 O 281.031 -0.94955 1.52917 0
M  V30 2888 H 277.406 -0.141053 0.738653 0
M  V30 2889 H 279.377 0.301799 2.9687 0
M  V30 2890 C 278.126 -1.46426 3.15364 0
M  V30 2891 H 277.449 -0.984037 3.87501 0
M  V30 2892 H 278.889 -2.01297 3.7317 0
M  V30 2893 C 277.348 -2.45099 2.31146 0
M  V30 2894 O 277.878 -3.49773 1.9754 0
M  V30 2895 N 276.084 -2.16139 1.94249 0
M  V30 2896 H 275.631 -1.31044 2.21777 0
M  V30 2897 H 275.589 -2.82398 1.38198 0
M  V30 2898 N 279.361 -1.56624 0.175154 0
M  V30 2899 C 280.309 -2.19468 -0.770495 0
M  V30 2900 C 281.303 -1.15985 -1.23466 0
M  V30 2901 O 282.509 -1.34176 -1.19987 0
M  V30 2902 H 278.884 -0.703095 -0.266761 0
M  V30 2903 H 280.855 -2.97613 -0.216542 0
M  V30 2904 C 279.604 -2.85264 -1.98796 0
M  V30 2905 H 278.927 -3.64623 -1.63983 0
M  V30 2906 H 280.367 -3.327 -2.62843 0
M  V30 2907 C 278.826 -1.85239 -2.81404 0
M  V30 2908 O 279.356 -1.34024 -3.78682 0
M  V30 2909 N 277.562 -1.53911 -2.46495 0
M  V30 2910 H 277.109 -1.95751 -1.67449 0
M  V30 2911 H 277.067 -0.872382 -3.02054 0
M  V30 2912 N 280.839 0.0985539 -1.57292 0
M  V30 2913 C 281.787 1.1387 -2.02821 0
M  V30 2914 C 282.781 1.41676 -0.928666 0
M  V30 2915 O 283.987 1.41398 -1.11385 0
M  V30 2916 H 280.362 0.384419 -0.646317 0
M  V30 2917 H 282.333 0.728347 -2.89375 0
M  V30 2918 C 281.082 2.45166 -2.46554 0
M  V30 2919 H 280.405 2.24613 -3.3074 0
M  V30 2920 H 281.845 3.16456 -2.8219 0
M  V30 2921 C 280.304 3.09216 -1.33742 0
M  V30 2922 O 280.834 3.96163 -0.66464 0
M  V30 2923 N 279.04 2.69413 -1.08928 0
M  V30 2924 H 278.587 1.98801 -1.63817 0
M  V30 2925 H 278.545 3.12594 -0.336458 0
M  V30 2926 N 282.317 1.53212 0.369288 0
M  V30 2927 C 283.28 1.7872 1.43498 0
M  V30 2928 C 284.28 0.657554 1.46741 0
M  V30 2929 O 285.47 0.925736 1.47566 0
M  V30 2930 C 282.602 1.90591 2.82645 0
M  V30 2931 H 283.795 2.73894 1.22156 0
M  V30 2932 H 281.348 1.44233 0.602203 0
M  V30 2933 H 282.083 0.974709 3.09306 0
M  V30 2934 H 281.868 2.72751 2.8169 0
M  V30 2935 H 283.358 2.11931 3.59826 0
M  V30 2936 N 283.795 -0.628877 1.44509 0
M  V30 2937 C 284.727 -1.754 1.47538 0
M  V30 2938 C 285.74 -1.58575 0.368506 0
M  V30 2939 O 286.929 -1.66847 0.634376 0
M  V30 2940 C 284.029 -3.1315 1.29577 0
M  V30 2941 C 283.202 -3.56413 2.53551 0
M  V30 2942 C 282.261 -4.7305 2.30457 0
M  V30 2943 O 281.287 -4.81247 3.03957 0
M  V30 2944 N 282.489 -5.64903 1.3366 0
M  V30 2945 H 285.254 -1.73272 2.44534 0
M  V30 2946 H 282.815 -0.813512 1.39977 0
M  V30 2947 H 284.807 -3.88902 1.11971 0
M  V30 2948 H 283.377 -3.09908 0.409371 0
M  V30 2949 H 282.597 -2.70847 2.86419 0
M  V30 2950 H 283.885 -3.82071 3.36005 0
M  V30 2951 H 283.283 -5.60975 0.729604 0
M  V30 2952 H 281.84 -6.40275 1.22032 0
M  V30 2953 N 285.273 -1.31445 -0.869486 0
M  V30 2954 C 286.521 -1.20918 -1.61936 0
M  V30 2955 C 286.842 0.232683 -1.93607 0
M  V30 2956 O 286.112 1.15352 -1.58338 0
M  V30 2957 H 284.692 -0.44454 -0.600328 0
M  V30 2958 H 287.354 -1.64776 -1.0409 0
M  V30 2959 H 286.45 -1.78124 -2.56278 0
M  V30 2960 N 286.751 1.08385 -1.14413 0
M  V30 2961 C 287.661 2.18856 -0.844951 0
M  V30 2962 C 288.677 1.73121 0.174668 0
M  V30 2963 O 289.853 2.014 0.00312857 0
M  V30 2964 C 286.918 3.45155 -0.32696 0
M  V30 2965 C 285.979 4.05513 -1.40916 0
M  V30 2966 C 285.212 5.25784 -0.915793 0
M  V30 2967 O 285.435 5.69884 0.242651 0
M  V30 2968 O 284.369 5.77545 -1.69487 0
M  V30 2969 H 288.195 2.46919 -1.76818 0
M  V30 2970 H 285.78 1.17524 -0.922411 0
M  V30 2971 H 287.662 4.21377 -0.0440211 0
M  V30 2972 H 286.337 3.18668 0.568539 0
M  V30 2973 H 285.244 3.30879 -1.74556 0
M  V30 2974 H 286.577 4.3625 -2.27919 0
M  V30 2975 N 288.23 0.939286 1.26551 0
M  V30 2976 C 289.46 0.601663 1.97645 0
M  V30 2977 C 289.868 -0.827206 1.70159 0
M  V30 2978 O 289.211 -1.56291 0.965338 0
M  V30 2979 C 289.273 0.761725 3.51337 0
M  V30 2980 C 288.937 2.16487 4.0247 0
M  V30 2981 C 289.934 3.14016 4.14355 0
M  V30 2982 C 287.619 2.48494 4.36527 0
M  V30 2983 C 289.613 4.41654 4.59587 0
M  V30 2984 C 287.3 3.76364 4.81449 0
M  V30 2985 C 288.298 4.72758 4.92939 0
M  V30 2986 O 287.986 5.98352 5.36871 0
M  V30 2987 H 287.718 0.225758 0.637189 0
M  V30 2988 H 290.272 1.26178 1.62075 0
M  V30 2989 H 288.502 0.0444808 3.86674 0
M  V30 2990 H 290.191 0.427442 4.03643 0
M  V30 2991 H 290.957 2.90613 3.8829 0
M  V30 2992 H 286.836 1.74202 4.26819 0
M  V30 2993 H 290.38 5.16896 4.68471 0
M  V30 2994 H 286.277 3.99582 5.06956 0
M  V30 2995 H 287.045 6.01507 5.55096 0
M  V30 2996 N 289.708 -1.40897 0.706093 0
M  V30 2997 C 290.938 -2.05075 0.250523 0
M  V30 2998 C 291.346 -1.53275 -1.10921 0
M  V30 2999 O 290.689 -0.680281 -1.7064 0
M  V30 3000 C 290.751 -3.59219 0.142178 0
M  V30 3001 C 290.415 -4.33864 1.43566 0
M  V30 3002 C 291.412 -4.62448 2.37566 0
M  V30 3003 C 289.097 -4.72946 1.69195 0
M  V30 3004 C 291.091 -5.29088 3.5545 0
M  V30 3005 C 288.778 -5.3932 2.87362 0
M  V30 3006 C 289.776 -5.6732 3.80312 0
M  V30 3007 O 289.464 -6.32325 4.96408 0
M  V30 3008 H 289.196 -0.666645 0.112074 0
M  V30 3009 H 291.75 -1.81467 0.962239 0
M  V30 3010 H 289.98 -3.81609 -0.6254 0
M  V30 3011 H 291.669 -4.0495 -0.277584 0
M  V30 3012 H 292.435 -4.32727 2.19027 0
M  V30 3013 H 288.314 -4.50527 0.977042 0
M  V30 3014 H 291.858 -5.50859 4.28018 0
M  V30 3015 H 287.755 -5.68461 3.05814 0
M  V30 3016 H 288.523 -6.50821 4.9636 0
M  V30 3017 N 291.186 -0.45159 -1.50991 0
M  V30 3018 C 292.435 0.111653 -2.01391 0
M  V30 3019 C 292.748 1.42529 -1.33959 0
M  V30 3020 O 293.954 2.07232 -1.75405 0
M  V30 3021 C 292.41 0.249514 -3.59034 0
M  V30 3022 C 292.018 -1.05453 -4.35412 0
M  V30 3023 C 293.762 0.765762 -4.17536 0
M  V30 3024 C 291.669 -0.881529 -5.84793 0
M  V30 3025 H 290.599 0.0455022 -0.752626 0
M  V30 3026 H 293.25 -0.583524 -1.73975 0
M  V30 3027 H 291.632 1.00803 -3.82955 0
M  V30 3028 H 292.806 -1.82248 -4.23229 0
M  V30 3029 H 291.121 -1.50039 -3.88429 0
M  V30 3030 H 293.718 0.911913 -5.26866 0
M  V30 3031 H 294.061 1.75201 -3.77638 0
M  V30 3032 H 294.594 0.0651744 -3.97747 0
M  V30 3033 H 291.333 -1.84057 -6.29129 0
M  V30 3034 H 290.853 -0.153625 -5.99603 0
M  V30 3035 H 292.532 -0.540363 -6.4474 0
M  V30 3036 N 292.664 1.56529 -0.183458 0
M  V30 3037 C 293.892 2.01623 0.464285 0
M  V30 3038 C 294.307 1.06366 1.55986 0
M  V30 3039 O 293.664 0.0665398 1.82379 0
M  V30 3040 C 293.715 3.46475 1.03139 0
M  V30 3041 O 293.436 4.38095 -0.0204675 0
M  V30 3042 C 294.937 4.0703 1.75617 0
M  V30 3043 H 292.157 0.660596 0.117704 0
M  V30 3044 H 294.701 2.02451 -0.288751 0
M  V30 3045 H 292.856 3.46383 1.73486 0
M  V30 3046 H 293.27 5.22973 0.399952 0
M  V30 3047 H 294.744 5.10271 2.10542 0
M  V30 3048 H 295.221 3.49819 2.65563 0
M  V30 3049 H 295.827 4.1086 1.09882 0
M  V30 3050 N 294.142 -0.090211 1.57342 0
M  V30 3051 C 295.419 -0.824761 1.77361 0
M  V30 3052 C 295.799 -1.96698 0.76637 0
M  V30 3053 O 295.147 -2.27586 -0.204179 0
M  V30 3054 C 295.357 -1.31481 3.23286 0
M  V30 3055 C 296.705 -1.75563 3.86604 0
M  V30 3056 O 297.729 -1.41093 3.27065 0
M  V30 3057 O 296.588 -2.39317 4.91314 0
M  V30 3058 H 293.682 -0.393776 0.727234 0
M  V30 3059 H 296.228 -0.0717138 1.69548 0
M  V30 3060 H 295 -0.496671 3.88135 0
M  V30 3061 H 294.623 -2.12973 3.35751 0
M  V30 3062 N 295.62 -1.53406 -0.361157 0
M  V30 3063 C 296.869 -1.69022 -1.10066 0
M  V30 3064 C 297.182 -0.450838 -1.90333 0
M  V30 3065 O 298.388 -0.487617 -2.67085 0
M  V30 3066 C 296.844 -2.98812 -2.00598 0
M  V30 3067 C 296.452 -4.30027 -1.25621 0
M  V30 3068 C 298.196 -3.23795 -2.74513 0
M  V30 3069 C 296.103 -5.50903 -2.1508 0
M  V30 3070 H 295.033 -0.629776 -0.414606 0
M  V30 3071 H 297.684 -1.79907 -0.361348 0
M  V30 3072 H 296.066 -2.8174 -2.78278 0
M  V30 3073 H 297.24 -4.57745 -0.529739 0
M  V30 3074 H 295.555 -4.11522 -0.635496 0
M  V30 3075 H 298.152 -4.11289 -3.41681 0
M  V30 3076 H 298.495 -2.40045 -3.40123 0
M  V30 3077 H 299.028 -3.41561 -2.03914 0
M  V30 3078 H 295.767 -6.37143 -1.54041 0
M  V30 3079 H 295.287 -5.27459 -2.85565 0
M  V30 3080 H 296.966 -5.85865 -2.74538 0
M  V30 3081 N 297.098 0.621204 -1.44841 0
M  V30 3082 C 298.347 1.37658 -1.47422 0
M  V30 3083 C 298.66 1.95264 -0.114629 0
M  V30 3084 O 299.866 2.71494 -0.0180199 0
M  V30 3085 C 298.322 2.49285 -2.59586 0
M  V30 3086 C 297.93 1.98149 -4.01797 0
M  V30 3087 C 299.674 3.26409 -2.71399 0
M  V30 3088 C 297.581 3.07178 -5.05367 0
M  V30 3089 H 296.511 0.517344 -0.548517 0
M  V30 3090 H 299.162 0.667257 -1.70938 0
M  V30 3091 H 297.544 3.22839 -2.29328 0
M  V30 3092 H 298.718 1.31395 -4.41669 0
M  V30 3093 H 297.033 1.33812 -3.94314 0
M  V30 3094 H 299.63 4.07706 -3.45948 0
M  V30 3095 H 299.973 3.76535 -1.77559 0
M  V30 3096 H 300.506 2.5995 -3.01116 0
M  V30 3097 H 297.245 2.61985 -6.00869 0
M  V30 3098 H 296.765 3.72542 -4.70077 0
M  V30 3099 H 298.444 3.71789 -5.29511 0
M  V30 3100 N 298.576 1.31904 0.862503 0
M  V30 3101 C 299.539 1.20131 1.95195 0
M  V30 3102 C 300.539 0.126409 1.60302 0
M  V30 3103 O 301.729 0.376234 1.70089 0
M  V30 3104 C 298.861 0.845691 3.30244 0
M  V30 3105 H 300.054 2.16943 2.07064 0
M  V30 3106 H 297.607 1.15622 1.05172 0
M  V30 3107 H 298.342 -0.120957 3.24074 0
M  V30 3108 H 298.127 1.62276 3.56944 0
M  V30 3109 H 299.617 0.787418 4.10109 0
M  V30 3110 N 300.054 -1.07777 1.14986 0
M  V30 3111 C 300.984 -2.16865 0.865557 0
M  V30 3112 C 301.965 -1.69123 -0.182083 0
M  V30 3113 O 303.15 -1.94164 -0.0373815 0
M  V30 3114 C 300.28 -3.45539 0.349313 0
M  V30 3115 C 299.234 -4.06708 1.33313 0
M  V30 3116 C 298.56 -5.30411 0.675918 0
M  V30 3117 C 299.86 -4.47241 2.69764 0
M  V30 3118 H 301.554 -2.40905 1.77778 0
M  V30 3119 H 299.1 -1.15781 0.856203 0
M  V30 3120 H 301.053 -4.21174 0.137983 0
M  V30 3121 H 299.777 -3.21072 -0.598362 0
M  V30 3122 H 298.436 -3.33112 1.53075 0
M  V30 3123 H 298.084 -5.02232 -0.277767 0
M  V30 3124 H 297.784 -5.72293 1.33244 0
M  V30 3125 H 299.308 -6.08755 0.474262 0
M  V30 3126 H 300.722 -5.14025 2.53873 0
M  V30 3127 H 299.119 -5.00062 3.3175 0
M  V30 3128 H 300.189 -3.58818 3.26156 0
M  V30 3129 N 301.532 -0.945985 -1.26051 0
M  V30 3130 C 302.495 -0.463897 -2.24456 0
M  V30 3131 C 303.495 0.427655 -1.55009 0
M  V30 3132 O 304.685 0.226157 -1.72726 0
M  V30 3133 C 301.817 0.330812 -3.39291 0
M  V30 3134 H 303.01 -1.33357 -2.68619 0
M  V30 3135 H 300.563 -0.728416 -1.38289 0
M  V30 3136 H 301.298 1.21852 -3.00537 0
M  V30 3137 H 301.083 -0.308679 -3.90883 0
M  V30 3138 H 302.573 0.657865 -4.12386 0
M  V30 3139 N 303.011 1.40521 -0.713556 0
M  V30 3140 C 304.241 2.0494 -0.261395 0
M  V30 3141 C 304.649 1.53861 1.10107 0
M  V30 3142 O 303.992 0.689321 1.70276 0
M  V30 3143 C 304.054 3.59138 -0.161227 0
M  V30 3144 C 303.718 4.33096 -1.45865 0
M  V30 3145 C 304.715 4.61182 -2.40016 0
M  V30 3146 C 302.4 4.72043 -1.71701 0
M  V30 3147 C 304.394 5.27196 -3.58251 0
M  V30 3148 C 302.081 5.37789 -2.90218 0
M  V30 3149 C 303.079 5.65295 -3.83315 0
M  V30 3150 O 302.767 6.29683 -4.99754 0
M  V30 3151 H 302.499 0.666041 -0.115608 0
M  V30 3152 H 305.053 1.80954 -0.971849 0
M  V30 3153 H 303.283 3.81936 0.605153 0
M  V30 3154 H 304.972 4.05091 0.256105 0
M  V30 3155 H 305.738 4.31559 -2.21318 0
M  V30 3156 H 301.617 4.50003 -1.00092 0
M  V30 3157 H 305.161 5.48582 -4.30934 0
M  V30 3158 H 301.058 5.66831 -3.08825 0
M  V30 3159 H 301.826 6.4818 -4.99805 0
M  V30 3160 N 304.489 0.459591 1.5075 0
M  V30 3161 C 305.421 -0.37665 2.26084 0
M  V30 3162 C 306.434 -0.967109 1.30961 0
M  V30 3163 O 307.623 -0.857468 1.56556 0
M  V30 3164 C 304.723 -1.54112 3.01832 0
M  V30 3165 C 303.896 -1.06553 4.24223 0
M  V30 3166 C 302.955 -2.1027 4.82362 0
M  V30 3167 O 301.981 -1.68798 5.43595 0
M  V30 3168 N 303.183 -3.42974 4.68347 0
M  V30 3169 H 305.948 0.269124 2.98489 0
M  V30 3170 H 303.509 0.28972 1.59287 0
M  V30 3171 H 305.501 -2.23165 3.37608 0
M  V30 3172 H 304.071 -2.0918 2.32298 0
M  V30 3173 H 303.291 -0.201274 3.93686 0
M  V30 3174 H 304.579 -0.725516 5.03601 0
M  V30 3175 H 303.977 -3.79385 4.19623 0
M  V30 3176 H 302.534 -4.07858 5.08424 0
M  V30 3177 N 305.967 -1.56429 0.191757 0
M  V30 3178 C 306.877 -2.22541 -0.742481 0
M  V30 3179 C 307.893 -1.22342 -1.23727 0
M  V30 3180 O 309.069 -1.55069 -1.28513 0
M  V30 3181 C 306.134 -2.8692 -1.94623 0
M  V30 3182 C 305.195 -4.02378 -1.49633 0
M  V30 3183 C 304.428 -4.63678 -2.6427 0
M  V30 3184 O 304.651 -4.23895 -3.81666 0
M  V30 3185 O 303.585 -5.53202 -2.37174 0
M  V30 3186 H 307.411 -3.02977 -0.209462 0
M  V30 3187 H 304.996 -1.49353 -0.0373832 0
M  V30 3188 H 306.878 -3.27663 -2.64982 0
M  V30 3189 H 305.553 -2.09466 -2.46791 0
M  V30 3190 H 304.46 -3.66265 -0.761636 0
M  V30 3191 H 305.793 -4.81487 -1.02134 0
M  V30 3192 N 307.445 0.0818655 -1.57387 0
M  V30 3193 C 308.693 0.781368 -1.86384 0
M  V30 3194 C 309.014 1.78618 -0.782342 0
M  V30 3195 O 308.284 1.94976 0.190061 0
M  V30 3196 H 306.864 0.291562 -0.687751 0
M  V30 3197 H 309.526 0.060348 -1.94807 0
M  V30 3198 H 308.622 1.3038 -2.83562 0
M  V30 3199 N 308.923 1.53595 0.353017 0
M  V30 3200 C 310.339 1.43648 0.695516 0
M  V30 3201 C 310.539 0.585617 1.92802 0
M  V30 3202 O 309.595 0.0729223 2.52395 0
M  V30 3203 C 310.908 2.8701 0.896991 0
M  V30 3204 C 312.456 2.96723 0.996209 0
M  V30 3205 C 312.931 4.41173 1.23007 0
M  V30 3206 N 314.422 4.44657 1.29749 0
M  V30 3207 C 315.157 5.53547 1.49577 0
M  V30 3208 N 314.653 6.72461 1.66639 0
M  V30 3209 N 316.446 5.41145 1.52048 0
M  V30 3210 H 308.597 2.07415 -0.457481 0
M  V30 3211 H 310.86 0.9372 -0.142687 0
M  V30 3212 H 310.566 3.51644 0.0629938 0
M  V30 3213 H 310.44 3.31401 1.80148 0
M  V30 3214 H 312.827 2.32235 1.82074 0
M  V30 3215 H 312.908 2.55707 0.0688331 0
M  V30 3216 H 312.552 5.06238 0.410505 0
M  V30 3217 H 312.482 4.79772 2.17086 0
M  V30 3218 H 314.973 3.58963 1.18126 0
M  V30 3219 H 315.286 7.51214 1.81378 0
M  V30 3220 H 313.631 6.75423 1.63794 0
M  V30 3221 H 316.822 4.47205 1.38294 0
M  V30 3222 H 316.995 6.26068 1.67159 0
M  V30 3223 N 310.401 -0.613514 1.45168 0
M  V30 3224 C 311.311 -1.75296 1.55912 0
M  V30 3225 C 312.327 -1.68244 0.443856 0
M  V30 3226 O 313.503 -1.88706 0.70371 0
M  V30 3227 C 310.568 -3.1174 1.5172 0
M  V30 3228 C 309.629 -3.30291 2.74238 0
M  V30 3229 C 308.862 -4.60226 2.70236 0
M  V30 3230 O 309.085 -5.42168 1.77229 0
M  V30 3231 O 308.019 -4.81361 3.61352 0
M  V30 3232 H 311.845 -1.69183 2.52212 0
M  V30 3233 H 309.43 -0.776886 1.27612 0
M  V30 3234 H 311.312 -3.93044 1.51968 0
M  V30 3235 H 309.987 -3.18357 0.585697 0
M  V30 3236 H 308.894 -2.48598 2.79553 0
M  V30 3237 H 310.227 -3.28547 3.66494 0
M  V30 3238 N 311.879 -1.3236 -0.855495 0
M  V30 3239 C 313.128 -1.22226 -1.60448 0
M  V30 3240 C 313.441 0.214733 -1.94418 0
M  V30 3241 O 314.647 0.437917 -2.67945 0
M  V30 3242 C 313.103 -2.14063 -2.89318 0
M  V30 3243 C 312.711 -3.62839 -2.62777 0
M  V30 3244 C 314.455 -2.12764 -3.67331 0
M  V30 3245 C 312.362 -4.4664 -3.87643 0
M  V30 3246 H 311.292 -0.453904 -0.602069 0
M  V30 3247 H 313.943 -1.57314 -0.944698 0
M  V30 3248 H 312.325 -1.71889 -3.5675 0
M  V30 3249 H 313.499 -4.1335 -2.03662 0
M  V30 3250 H 311.814 -3.66261 -1.98096 0
M  V30 3251 H 314.411 -2.72611 -4.59987 0
M  V30 3252 H 314.754 -1.11841 -4.00995 0
M  V30 3253 H 315.287 -2.53214 -3.06802 0
M  V30 3254 H 312.026 -5.48373 -3.5912 0
M  V30 3255 H 311.546 -4.0088 -4.46156 0
M  V30 3256 H 313.225 -4.59597 -4.55389 0
M  V30 3257 N 313.357 1.07166 -1.15556 0
M  V30 3258 C 314.603 1.80065 -0.932984 0
M  V30 3259 C 314.936 1.86586 0.53845 0
M  V30 3260 O 314.211 1.35098 1.39924 0
M  V30 3261 C 314.494 3.25022 -1.55025 0
M  V30 3262 C 314.347 3.26634 -3.09242 0
M  V30 3263 C 315.666 4.22341 -1.2376 0
M  V30 3264 H 312.785 0.653697 -0.340366 0
M  V30 3265 H 315.427 1.25389 -1.4275 0
M  V30 3266 H 313.577 3.71712 -1.12972 0
M  V30 3267 H 315.249 2.88173 -3.60214 0
M  V30 3268 H 313.492 2.65539 -3.43033 0
M  V30 3269 H 314.163 4.28854 -3.47546 0
M  V30 3270 H 316.639 3.8405 -1.60139 0
M  V30 3271 H 315.515 5.22053 -1.69564 0
M  V30 3272 H 315.776 4.41828 -0.154938 0
M  V30 3273 N 314.835 0.952656 1.25548 0
M  V30 3274 C 315.798 0.475794 2.24207 0
M  V30 3275 C 316.798 -0.419428 1.55234 0
M  V30 3276 O 317.988 -0.216994 1.72843 0
M  V30 3277 C 315.12 -0.312814 3.39462 0
M  V30 3278 H 316.313 1.34779 2.67908 0
M  V30 3279 H 313.866 0.735739 1.37901 0
M  V30 3280 H 314.601 -1.20257 3.01179 0
M  V30 3281 H 314.386 0.329404 3.90714 0
M  V30 3282 H 315.876 -0.635986 4.12729 0
M  V30 3283 N 316.313 -1.40141 0.720998 0
M  V30 3284 C 317.559 -2.01084 0.263231 0
M  V30 3285 C 317.892 -1.57052 -1.14229 0
M  V30 3286 O 317.167 -0.793027 -1.77599 0
M  V30 3287 C 317.45 -3.58401 0.349344 0
M  V30 3288 C 317.303 -4.12491 1.79363 0
M  V30 3289 C 318.622 -4.39231 -0.276351 0
M  V30 3290 H 315.741 -0.730572 0.0971228 0
M  V30 3291 H 318.383 -1.66543 0.914518 0
M  V30 3292 H 316.533 -3.87958 -0.205165 0
M  V30 3293 H 318.205 -3.93711 2.40394 0
M  V30 3294 H 316.448 -3.66576 2.31958 0
M  V30 3295 H 317.119 -5.21646 1.80524 0
M  V30 3296 H 319.595 -4.15637 0.196184 0
M  V30 3297 H 318.471 -5.48586 -0.185681 0
M  V30 3298 H 318.732 -4.20643 -1.36059 0
M  V30 3299 N 317.792 -0.46758 -1.50504 0
M  V30 3300 C 318.742 0.34698 -2.25344 0
M  V30 3301 C 319.726 0.964469 -1.2879 0
M  V30 3302 O 320.918 0.8776 -1.53711 0
M  V30 3303 C 318.047 1.43042 -3.1208 0
M  V30 3304 C 317.133 0.82084 -4.16081 0
M  V30 3305 N 317.524 -0.0567602 -5.05768 0
M  V30 3306 C 315.822 1.08517 -4.32597 0
M  V30 3307 C 316.523 -0.402343 -5.80307 0
M  V30 3308 N 315.499 0.221607 -5.43148 0
M  V30 3309 H 319.301 -0.329129 -2.92051 0
M  V30 3310 H 316.815 -0.281508 -1.59942 0
M  V30 3311 H 318.812 2.02712 -3.64299 0
M  V30 3312 H 317.472 2.10856 -2.46921 0
M  V30 3313 H 318.483 -0.425349 -5.1615 0
M  V30 3314 H 315.16 1.75855 -3.78657 0
M  V30 3315 H 316.55 -1.11834 -6.62528 0
M  V30 3316 N 319.27 1.56325 -0.20005 0
M  V30 3317 C 320.681 1.8408 0.31167 0
M  V30 3318 C 321.032 1.12087 1.61031 0
M  V30 3319 O 320.157 0.38332 2.12978 0
M  V30 3320 C 320.752 3.33932 0.57226 0
M  V30 3321 C 319.311 3.6208 1.02834 0
M  V30 3322 C 318.458 2.77186 0.079634 0
M  V30 3323 H 321.409 1.52939 -0.423729 0
M  V30 3324 H 321.43 3.52971 1.42096 0
M  V30 3325 H 320.942 3.86303 -0.37308 0
M  V30 3326 H 319.043 3.15147 1.98778 0
M  V30 3327 H 319.156 4.7023 0.917624 0
M  V30 3328 H 317.52 2.47951 0.582448 0
M  V30 3329 H 318.303 3.32347 -0.860238 0
M  V30 3330 N 320.748 -0.0735177 1.57428 0
M  V30 3331 C 321.68 -1.11423 2.00294 0
M  V30 3332 C 322.693 -1.35084 0.908637 0
M  V30 3333 O 323.882 -1.33355 1.18654 0
M  V30 3334 C 320.982 -2.46548 2.32523 0
M  V30 3335 C 320.155 -2.42867 3.63778 0
M  V30 3336 C 319.214 -3.60087 3.83697 0
M  V30 3337 O 318.24 -3.41595 4.55304 0
M  V30 3338 N 319.442 -4.80372 3.25919 0
M  V30 3339 H 322.207 -0.749206 2.90184 0
M  V30 3340 H 319.768 -0.262195 1.59763 0
M  V30 3341 H 321.76 -3.23607 2.43024 0
M  V30 3342 H 320.33 -2.75059 1.48531 0
M  V30 3343 H 319.55 -1.51206 3.64047 0
M  V30 3344 H 320.838 -2.37506 4.49965 0
M  V30 3345 H 320.236 -4.983 2.67795 0
M  V30 3346 H 318.793 -5.54948 3.41871 0
M  V30 3347 N 322.226 -1.5378 -0.344866 0
M  V30 3348 C 323.642 -1.44015 -0.687888 0
M  V30 3349 C 323.842 -0.595834 -1.92489 0
M  V30 3350 O 322.898 -0.0863064 -2.52352 0
M  V30 3351 C 324.211 -2.87481 -0.881758 0
M  V30 3352 C 325.759 -2.97247 -0.980459 0
M  V30 3353 C 326.234 -4.41819 -1.20665 0
M  V30 3354 N 327.725 -4.45339 -1.27389 0
M  V30 3355 C 328.46 -5.54333 -1.46639 0
M  V30 3356 N 327.956 -6.73335 -1.63071 0
M  V30 3357 N 329.749 -5.41944 -1.49176 0
M  V30 3358 H 321.9 -2.07169 0.468475 0
M  V30 3359 H 324.163 -0.93643 0.147655 0
M  V30 3360 H 323.869 -3.51672 -0.0443444 0
M  V30 3361 H 323.743 -3.32352 -1.78388 0
M  V30 3362 H 326.13 -2.33197 -1.8084 0
M  V30 3363 H 326.211 -2.5574 -0.0552713 0
M  V30 3364 H 325.855 -5.06449 -0.383652 0
M  V30 3365 H 325.785 -4.80917 -2.14539 0
M  V30 3366 H 328.276 -3.59585 -1.1622 0
M  V30 3367 H 328.589 -7.52165 -1.77391 0
M  V30 3368 H 326.934 -6.76282 -1.60209 0
M  V30 3369 H 330.125 -4.47932 -1.3592 0
M  V30 3370 H 330.298 -6.26946 -1.63837 0
M  V30 3371 N 323.704 0.605807 -1.45491 0
M  V30 3372 C 324.634 1.72709 -1.57143 0
M  V30 3373 C 325.615 1.6476 -0.422884 0
M  V30 3374 O 326.8 1.83132 -0.646247 0
M  V30 3375 C 323.93 3.11316 -1.53948 0
M  V30 3376 C 322.884 3.34077 -2.67537 0
M  V30 3377 C 322.21 4.72975 -2.49397 0
M  V30 3378 C 323.51 3.24158 -4.09535 0
M  V30 3379 H 325.204 1.63214 -2.51001 0
M  V30 3380 H 322.75 0.78379 -1.208 0
M  V30 3381 H 324.703 3.89557 -1.60696 0
M  V30 3382 H 323.427 3.21655 -0.566205 0
M  V30 3383 H 322.086 2.58227 -2.6022 0
M  V30 3384 H 321.734 4.8005 -1.50205 0
M  V30 3385 H 321.434 4.8916 -3.25571 0
M  V30 3386 H 322.958 5.53414 -2.58002 0
M  V30 3387 H 324.372 3.92271 -4.18086 0
M  V30 3388 H 322.769 3.51872 -4.86113 0
M  V30 3389 H 323.839 2.2157 -4.31317 0
M  V30 3390 N 325.182 1.32811 0.848464 0
M  V30 3391 C 326.407 1.26882 1.6406 0
M  V30 3392 C 326.832 -0.15913 1.87426 0
M  V30 3393 O 326.19 -1.11258 1.43148 0
M  V30 3394 C 326.238 2.03997 2.97351 0
M  V30 3395 O 325.342 1.39201 3.88197 0
M  V30 3396 H 324.683 0.436982 0.499943 0
M  V30 3397 H 327.213 1.75224 1.0563 0
M  V30 3398 H 327.223 2.14403 3.47124 0
M  V30 3399 H 325.898 3.0783 2.79666 0
M  V30 3400 H 324.475 1.37381 3.46671 0
M  V30 3401 N 326.66 -1.06551 1.16123 0
M  V30 3402 C 327.57 -2.17484 0.879662 0
M  V30 3403 C 328.586 -1.73377 -0.147104 0
M  V30 3404 O 329.762 -2.01379 0.0289128 0
M  V30 3405 C 326.827 -3.44591 0.381829 0
M  V30 3406 C 325.888 -4.0322 1.4735 0
M  V30 3407 C 325.121 -5.24261 0.999324 0
M  V30 3408 O 325.344 -5.70198 -0.151957 0
M  V30 3409 O 324.278 -5.74775 1.78653 0
M  V30 3410 H 328.104 -2.44075 1.80724 0
M  V30 3411 H 325.689 -1.16042 0.940992 0
M  V30 3412 H 327.571 -4.21254 0.111053 0
M  V30 3413 H 326.246 -3.19532 -0.51777 0
M  V30 3414 H 325.153 -3.2806 1.79798 0
M  V30 3415 H 326.486 -4.32568 2.34831 0
M  V30 3416 N 328.138 -0.959301 -1.25041 0
M  V30 3417 C 329.384 -0.617525 -1.9317 0
M  V30 3418 C 329.717 0.843981 -1.74902 0
M  V30 3419 O 328.992 1.60615 -1.09696 0
M  V30 3420 C 329.275 -0.982736 -3.46431 0
M  V30 3421 C 329.128 -2.50032 -3.73904 0
M  V30 3422 C 330.447 -0.511176 -4.37121 0
M  V30 3423 H 327.566 -0.22582 -0.701552 0
M  V30 3424 H 330.208 -1.19679 -1.4757 0
M  V30 3425 H 328.358 -0.489806 -3.854 0
M  V30 3426 H 330.03 -3.06737 -3.44544 0
M  V30 3427 H 328.273 -2.93598 -3.19348 0
M  V30 3428 H 328.944 -2.70635 -4.81103 0
M  V30 3429 H 331.42 -0.934075 -4.0548 0
M  V30 3430 H 330.296 -0.795361 -5.43107 0
M  V30 3431 H 330.557 0.588834 -4.38161 0
M  V30 3432 N 329.616 1.39756 -0.72842 0
M  V30 3433 C 330.526 2.34444 -0.0855374 0
M  V30 3434 C 331.542 1.57976 0.729356 0
M  V30 3435 O 332.718 1.90301 0.659346 0
M  V30 3436 C 329.783 3.36965 0.815798 0
M  V30 3437 C 328.844 4.29299 -0.0105996 0
M  V30 3438 C 328.077 5.26923 0.84781 0
M  V30 3439 O 328.3 5.30859 2.08673 0
M  V30 3440 O 327.234 6.01249 0.279969 0
M  V30 3441 H 331.06 2.91065 -0.866892 0
M  V30 3442 H 328.645 1.4117 -0.48902 0
M  V30 3443 H 330.527 3.99804 1.33171 0
M  V30 3444 H 329.202 2.82739 1.57608 0
M  V30 3445 H 328.109 3.69703 -0.571877 0
M  V30 3446 H 329.442 4.86712 -0.73295 0
M  V30 3447 N 331.094 0.475555 1.50254 0
M  V30 3448 C 332.342 -0.077738 2.0195 0
M  V30 3449 C 332.663 -1.39813 1.35931 0
M  V30 3450 O 331.933 -1.89249 0.506123 0
M  V30 3451 H 330.513 -0.031719 0.746326 0
M  V30 3452 H 333.175 0.626995 1.84539 0
M  V30 3453 H 332.271 -0.225995 3.11281 0
M  V30 3454 N 332.573 -1.56217 0.208337 0
M  V30 3455 C 333.819 -1.98242 -0.427552 0
M  V30 3456 C 334.152 -1.09554 -1.60348 0
M  V30 3457 O 333.427 -0.15035 -1.93918 0
M  V30 3458 C 333.71 -3.4931 -0.874907 0
M  V30 3459 C 333.563 -4.48773 0.303751 0
M  V30 3460 C 334.882 -4.04424 -1.73577 0
M  V30 3461 H 332.001 -0.720744 -0.153936 0
M  V30 3462 H 334.643 -1.87586 0.30192 0
M  V30 3463 H 332.793 -3.58522 -1.49648 0
M  V30 3464 H 334.465 -4.51586 0.941682 0
M  V30 3465 H 332.708 -4.23194 0.953375 0
M  V30 3466 H 333.379 -5.51976 -0.0519883 0
M  V30 3467 H 335.855 -3.98075 -1.21143 0
M  V30 3468 H 334.731 -5.1047 -2.01771 0
M  V30 3469 H 334.992 -3.50494 -2.69456 0
M  V30 3470 N 334.051 0.0651679 -1.57465 0
M  V30 3471 C 334.999 1.09542 -2.05191 0
M  V30 3472 C 335.993 1.39675 -0.958509 0
M  V30 3473 O 337.199 1.39003 -1.14359 0
M  V30 3474 H 333.574 0.370623 -0.654326 0
M  V30 3475 H 335.545 0.666802 -2.90854 0
M  V30 3476 C 334.294 2.39881 -2.51699 0
M  V30 3477 H 333.617 2.17547 -3.3543 0
M  V30 3478 H 335.057 3.104 -2.88839 0
M  V30 3479 C 333.516 3.0631 -1.40271 0
M  V30 3480 O 334.046 3.94664 -0.748523 0
M  V30 3481 N 332.252 2.67041 -1.14618 0
M  V30 3482 H 331.799 1.95281 -1.67997 0
M  V30 3483 H 331.757 3.1181 -0.402688 0
M  V30 3484 N 335.529 1.53961 0.336706 0
M  V30 3485 C 336.477 1.83136 1.43401 0
M  V30 3486 C 337.471 0.702313 1.54156 0
M  V30 3487 O 338.677 0.885765 1.56698 0
M  V30 3488 H 335.052 0.580309 0.478273 0
M  V30 3489 H 337.023 2.74925 1.16012 0
M  V30 3490 C 335.772 2.06385 2.79822 0
M  V30 3491 H 335.095 2.92718 2.72316 0
M  V30 3492 H 336.535 2.30761 3.55704 0
M  V30 3493 C 334.994 0.851414 3.25964 0
M  V30 3494 O 335.524 0.0541904 4.01663 0
M  V30 3495 N 333.73 0.66672 2.82848 0
M  V30 3496 H 333.277 1.31665 2.21409 0
M  V30 3497 H 333.235 -0.143032 3.14074 0
M  V30 3498 N 337.007 -0.598083 1.45811 0
M  V30 3499 C 338.423 -0.919847 1.30426 0
M  V30 3500 C 338.623 -1.99759 0.264303 0
M  V30 3501 O 337.679 -2.50221 -0.338472 0
M  V30 3502 C 338.992 -1.35176 2.68603 0
M  V30 3503 C 340.54 -1.46546 2.76574 0
M  V30 3504 C 341.015 -1.9311 4.15298 0
M  V30 3505 N 342.506 -2.00328 4.1764 0
M  V30 3506 C 343.241 -2.37599 5.21856 0
M  V30 3507 N 342.737 -2.73771 6.36413 0
M  V30 3508 N 344.53 -2.38021 5.09218 0
M  V30 3509 H 336.681 0.114111 2.12093 0
M  V30 3510 H 338.944 -0.0116121 0.947929 0
M  V30 3511 H 338.65 -0.633969 3.45939 0
M  V30 3512 H 338.524 -2.3164 2.97696 0
M  V30 3513 H 340.911 -2.17415 1.99537 0
M  V30 3514 H 340.992 -0.483727 2.51185 0
M  V30 3515 H 340.636 -1.22824 4.92825 0
M  V30 3516 H 340.566 -2.92213 4.38086 0
M  V30 3517 H 343.057 -1.74925 3.34977 0
M  V30 3518 H 343.37 -3.0112 7.11721 0
M  V30 3519 H 341.715 -2.71445 6.39799 0
M  V30 3520 H 344.906 -2.09174 4.18765 0
M  V30 3521 H 345.079 -2.66741 5.90554 0
M  V30 3522 N 338.485 -1.33259 -0.841409 0
M  V30 3523 C 339.415 -1.25926 -1.96634 0
M  V30 3524 C 340.396 -0.140349 -1.6952 0
M  V30 3525 O 341.581 -0.329707 -1.91381 0
M  V30 3526 C 338.711 -0.99512 -3.32738 0
M  V30 3527 C 337.665 -2.0767 -3.74242 0
M  V30 3528 C 336.991 -1.66474 -5.08125 0
M  V30 3529 C 338.291 -3.49318 -3.88297 0
M  V30 3530 H 339.985 -2.20046 -2.03027 0
M  V30 3531 H 337.531 -1.05931 -0.975425 0
M  V30 3532 H 339.484 -0.930323 -4.11002 0
M  V30 3533 H 338.208 -0.0183004 -3.26595 0
M  V30 3534 H 336.867 -2.13187 -2.98239 0
M  V30 3535 H 336.515 -0.675012 -4.9845 0
M  V30 3536 H 336.215 -2.3885 -5.36865 0
M  V30 3537 H 337.739 -1.61455 -5.88867 0
M  V30 3538 H 339.153 -3.46316 -4.56879 0
M  V30 3539 H 337.55 -4.20158 -4.28471 0
M  V30 3540 H 338.62 -3.8801 -2.9082 0
M  V30 3541 N 339.963 1.05934 -1.16686 0
M  V30 3542 C 340.895 2.13468 -0.834503 0
M  V30 3543 C 341.908 1.62013 0.15984 0
M  V30 3544 O 343.097 1.7838 -0.0654228 0
M  V30 3545 C 340.197 3.3817 -0.222361 0
M  V30 3546 C 339.37 4.18928 -1.25771 0
M  V30 3547 C 338.429 5.21985 -0.664703 0
M  V30 3548 O 337.455 5.53334 -1.33453 0
M  V30 3549 N 338.657 5.77919 0.546834 0
M  V30 3550 H 341.422 2.42578 -1.75999 0
M  V30 3551 H 338.983 1.21967 -1.06469 0
M  V30 3552 H 340.975 4.04266 0.187472 0
M  V30 3553 H 339.545 3.06655 0.606758 0
M  V30 3554 H 338.765 3.48433 -1.84358 0
M  V30 3555 H 340.053 4.69687 -1.95631 0
M  V30 3556 H 339.451 5.54721 1.10912 0
M  V30 3557 H 338.008 6.45573 0.898829 0
M  V30 3558 N 341.441 0.965919 1.2453 0
M  V30 3559 C 342.371 0.513476 2.27784 0
M  V30 3560 C 343.352 -0.445974 1.6415 0
M  V30 3561 O 344.537 -0.342485 1.91156 0
M  V30 3562 C 341.667 -0.198839 3.4673 0
M  V30 3563 C 340.621 0.676456 4.2262 0
M  V30 3564 C 339.947 -0.167248 5.34438 0
M  V30 3565 C 341.247 1.96017 4.84123 0
M  V30 3566 H 342.941 1.3765 2.65881 0
M  V30 3567 H 340.487 0.663321 1.27813 0
M  V30 3568 H 342.44 -0.526567 4.18097 0
M  V30 3569 H 341.164 -1.0962 3.07654 0
M  V30 3570 H 339.823 0.98743 3.53052 0
M  V30 3571 H 339.471 -1.0647 4.91603 0
M  V30 3572 H 339.171 0.415181 5.86131 0
M  V30 3573 H 340.695 -0.489688 6.08633 0
M  V30 3574 H 342.109 1.69814 5.47573 0
M  V30 3575 H 340.506 2.48918 5.4604 0
M  V30 3576 H 341.576 2.65622 4.05676 0
M  V30 3577 N 342.919 -1.39368 0.735821 0
M  V30 3578 C 344.144 -2.05319 0.293052 0
M  V30 3579 C 344.569 -1.55115 -1.064 0
M  V30 3580 O 343.927 -0.695261 -1.67439 0
M  V30 3581 C 343.975 -3.59305 0.305323 0
M  V30 3582 O 343.079 -4.06299 -0.706761 0
M  V30 3583 H 342.42 -0.650529 0.13307 0
M  V30 3584 H 344.95 -1.78386 1.00197 0
M  V30 3585 H 344.96 -4.07724 0.149997 0
M  V30 3586 H 343.635 -3.95207 1.29553 0
M  V30 3587 H 342.212 -3.69292 -0.517504 0
M  V30 3588 N 344.397 -0.483516 -1.5 0
M  V30 3589 C 345.813 -0.138404 -1.58999 0
M  V30 3590 C 346.013 1.35597 -1.4905 0
M  V30 3591 O 345.069 2.13039 -1.35539 0
M  V30 3592 C 346.382 -0.699658 -2.92447 0
M  V30 3593 C 347.93 -0.664195 -3.05872 0
M  V30 3594 C 348.405 -1.20321 -4.41913 0
M  V30 3595 N 349.896 -1.16315 -4.48358 0
M  V30 3596 C 350.631 -1.55058 -5.52037 0
M  V30 3597 N 350.127 -2.01311 -6.62907 0
M  V30 3598 N 351.92 -1.46584 -5.42651 0
M  V30 3599 H 344.071 -1.45529 -1.5471 0
M  V30 3600 H 346.334 -0.60258 -0.731848 0
M  V30 3601 H 346.04 -1.747 -3.05242 0
M  V30 3602 H 345.914 -0.150194 -3.76901 0
M  V30 3603 H 348.301 0.374272 -2.92717 0
M  V30 3604 H 348.382 -1.25061 -2.23144 0
M  V30 3605 H 348.026 -2.24037 -4.55818 0
M  V30 3606 H 347.956 -0.592896 -5.23252 0
M  V30 3607 H 350.447 -0.824058 -3.68806 0
M  V30 3608 H 350.76 -2.2899 -7.38095 0
M  V30 3609 H 349.105 -2.05273 -6.63994 0
M  V30 3610 H 352.296 -1.10281 -4.54924 0
M  V30 3611 H 352.469 -1.77103 -6.23329 0
M  V30 3612 N 345.875 1.56104 -0.216619 0
M  V30 3613 C 346.805 2.23063 0.690296 0
M  V30 3614 C 347.786 1.20072 1.20485 0
M  V30 3615 O 348.971 1.48643 1.24976 0
M  V30 3616 C 346.101 2.90672 1.90072 0
M  V30 3617 C 345.055 4.00092 1.5202 0
M  V30 3618 C 344.381 4.54972 2.80899 0
M  V30 3619 C 345.681 5.17398 0.71391 0
M  V30 3620 H 347.375 2.99109 0.132038 0
M  V30 3621 H 344.921 1.43866 0.0620664 0
M  V30 3622 H 346.874 3.36204 2.54057 0
M  V30 3623 H 345.598 2.12066 2.48386 0
M  V30 3624 H 344.257 3.55283 0.903839 0
M  V30 3625 H 343.905 3.73102 3.37348 0
M  V30 3626 H 343.605 5.28817 2.56176 0
M  V30 3627 H 345.129 5.0322 3.45836 0
M  V30 3628 H 346.543 5.59342 1.25735 0
M  V30 3629 H 344.94 5.97444 0.563951 0
M  V30 3630 H 346.01 4.84088 -0.280527 0
M  V30 3631 N 347.353 -0.0568162 1.57498 0
M  V30 3632 C 348.263 -1.08346 2.08083 0
M  V30 3633 C 349.279 -1.41439 1.01346 0
M  V30 3634 O 350.455 -1.51316 1.32912 0
M  V30 3635 C 347.52 -2.37352 2.52715 0
M  V30 3636 C 346.581 -2.11093 3.73816 0
M  V30 3637 C 345.814 -3.33949 4.1631 0
M  V30 3638 O 346.037 -4.43622 3.58547 0
M  V30 3639 O 344.971 -3.21279 5.08983 0
M  V30 3640 H 348.797 -0.683667 2.95905 0
M  V30 3641 H 346.382 -0.271965 1.46904 0
M  V30 3642 H 348.264 -3.13246 2.81877 0
M  V30 3643 H 346.939 -2.76681 1.68016 0
M  V30 3644 H 345.846 -1.32856 3.49714 0
M  V30 3645 H 347.179 -1.76637 4.59413 0
M  V30 3646 N 348.832 -1.54138 -0.328536 0
M  V30 3647 C 350.248 -1.44736 -0.672574 0
M  V30 3648 C 350.448 -0.616217 -1.91846 0
M  V30 3649 O 349.504 -0.113067 -2.52247 0
M  V30 3650 C 350.817 -2.884 -0.851217 0
M  V30 3651 C 352.365 -2.98271 -0.948877 0
M  V30 3652 C 352.84 -4.43074 -1.15973 0
M  V30 3653 N 354.331 -4.46665 -1.22658 0
M  V30 3654 C 355.066 -5.55857 -1.40751 0
M  V30 3655 N 354.562 -6.75026 -1.5592 0
M  V30 3656 N 356.355 -5.43495 -1.4342 0
M  V30 3657 H 348.506 -2.06661 0.490421 0
M  V30 3658 H 350.769 -0.934812 0.157579 0
M  V30 3659 H 350.475 -3.51699 -0.00704236 0
M  V30 3660 H 350.349 -3.34225 -1.74853 0
M  V30 3661 H 352.736 -2.35102 -1.78356 0
M  V30 3662 H 352.817 -2.55785 -0.0281435 0
M  V30 3663 H 352.461 -5.06827 -0.329915 0
M  V30 3664 H 352.391 -4.83165 -2.09426 0
M  V30 3665 H 354.882 -3.60797 -1.124 0
M  V30 3666 H 355.195 -7.54004 -1.69404 0
M  V30 3667 H 353.54 -6.77944 -1.53027 0
M  V30 3668 H 356.731 -4.49349 -1.31162 0
M  V30 3669 H 356.904 -6.28649 -1.57178 0
M  V30 3670 N 350.31 0.590341 -1.46126 0
M  V30 3671 C 351.556 1.35082 -1.51264 0
M  V30 3672 C 351.889 1.93534 -0.160711 0
M  V30 3673 O 351.164 1.76045 0.826956 0
M  V30 3674 C 351.447 2.48588 -2.6053 0
M  V30 3675 C 351.3 1.95221 -4.05227 0
M  V30 3676 C 352.619 3.50662 -2.6594 0
M  V30 3677 H 349.738 0.489803 -0.550692 0
M  V30 3678 H 352.38 0.663887 -1.78024 0
M  V30 3679 H 350.53 3.07186 -2.37843 0
M  V30 3680 H 352.202 1.41139 -4.39178 0
M  V30 3681 H 350.445 1.26101 -4.15068 0
M  V30 3682 H 351.116 2.77121 -4.77397 0
M  V30 3683 H 353.592 3.01934 -2.86313 0
M  V30 3684 H 352.468 4.27551 -3.44226 0
M  V30 3685 H 352.729 4.07399 -1.71694 0
M  V30 3686 N 351.788 1.33704 0.83433 0
M  V30 3687 C 353.018 1.28281 1.6195 0
M  V30 3688 C 353.426 -0.147603 1.88623 0
M  V30 3689 O 352.769 -1.1016 1.47005 0
M  V30 3690 C 352.831 1.99386 2.99141 0
M  V30 3691 C 352.495 3.48681 2.95416 0
M  V30 3692 C 353.492 4.438 2.70809 0
M  V30 3693 C 351.177 3.90925 3.15409 0
M  V30 3694 C 353.171 5.79138 2.66229 0
M  V30 3695 C 350.858 5.26366 3.10454 0
M  V30 3696 C 351.856 6.20284 2.85895 0
M  V30 3697 O 351.544 7.53245 2.80852 0
M  V30 3698 H 351.276 0.44315 0.510484 0
M  V30 3699 H 353.83 1.76711 1.04702 0
M  V30 3700 H 352.06 1.45554 3.58261 0
M  V30 3701 H 353.749 1.87403 3.60049 0
M  V30 3702 H 354.515 4.12485 2.5511 0
M  V30 3703 H 350.394 3.18229 3.33543 0
M  V30 3704 H 353.938 6.52416 2.4698 0
M  V30 3705 H 349.835 5.57304 3.25703 0
M  V30 3706 H 350.603 7.62846 2.96661 0
M  V30 3707 N 353.266 -1.05314 1.17247 0
M  V30 3708 C 354.198 -2.13023 0.845812 0
M  V30 3709 C 355.211 -1.62096 -0.151246 0
M  V30 3710 O 356.4 -1.78343 0.0748818 0
M  V30 3711 C 353.5 -3.38047 0.240292 0
M  V30 3712 C 352.673 -4.18255 1.27991 0
M  V30 3713 C 351.732 -5.21625 0.692375 0
M  V30 3714 O 350.758 -5.52619 1.36385 0
M  V30 3715 N 351.96 -5.78201 -0.516178 0
M  V30 3716 H 354.725 -2.41642 1.77283 0
M  V30 3717 H 352.286 -1.21401 1.07115 0
M  V30 3718 H 354.278 -4.04359 -0.16603 0
M  V30 3719 H 352.848 -3.06972 -0.590487 0
M  V30 3720 H 352.068 -3.47451 1.86203 0
M  V30 3721 H 353.356 -4.68643 1.98119 0
M  V30 3722 H 352.754 -5.55301 -1.07969 0
M  V30 3723 H 351.311 -6.4604 -0.86458 0
M  V30 3724 N 354.744 -0.972509 -1.24016 0
M  V30 3725 C 355.969 -0.654417 -1.96805 0
M  V30 3726 C 356.394 0.770398 -1.716 0
M  V30 3727 O 355.752 1.52361 -0.982647 0
M  V30 3728 C 355.8 -0.941031 -3.48105 0
M  V30 3729 O 354.904 -0.0289472 -4.1239 0
M  V30 3730 H 354.245 -0.24692 -0.616382 0
M  V30 3731 H 356.775 -1.30396 -1.57664 0
M  V30 3732 H 356.785 -0.87452 -3.98517 0
M  V30 3733 H 355.46 -1.97939 -3.65777 0
M  V30 3734 H 354.037 -0.149192 -3.72601 0
M  V30 3735 N 356.222 1.38976 -0.743202 0
M  V30 3736 C 357.132 2.3434 -0.110399 0
M  V30 3737 C 358.148 1.58741 0.712559 0
M  V30 3738 O 359.324 1.9099 0.639125 0
M  V30 3739 C 356.389 3.37812 0.780012 0
M  V30 3740 C 355.45 4.29263 -0.0561319 0
M  V30 3741 C 354.683 5.27793 0.791875 0
M  V30 3742 O 354.906 5.33043 2.03031 0
M  V30 3743 O 353.84 6.01512 0.216183 0
M  V30 3744 H 357.666 2.90129 -0.897714 0
M  V30 3745 H 355.251 1.40643 -0.503966 0
M  V30 3746 H 357.133 4.01194 1.28923 0
M  V30 3747 H 355.808 2.84395 1.546 0
M  V30 3748 H 354.715 3.69076 -0.611056 0
M  V30 3749 H 356.048 4.85907 -0.784531 0
M  V30 3750 N 357.7 0.491464 1.49741 0
M  V30 3751 C 358.632 -0.328609 2.26832 0
M  V30 3752 C 359.645 -0.939113 1.32983 0
M  V30 3753 O 360.834 -0.824067 1.58339 0
M  V30 3754 C 357.934 -1.47675 3.05033 0
M  V30 3755 C 357.107 -0.975305 4.26388 0
M  V30 3756 C 356.166 -1.99991 4.86714 0
M  V30 3757 O 355.192 -1.57229 5.47054 0
M  V30 3758 N 356.394 -3.32962 4.75517 0
M  V30 3759 H 359.159 0.332377 2.97851 0
M  V30 3760 H 356.72 0.323441 1.58636 0
M  V30 3761 H 358.712 -2.15954 3.42266 0
M  V30 3762 H 357.282 -2.04206 2.36683 0
M  V30 3763 H 356.502 -0.117723 3.94024 0
M  V30 3764 H 357.79 -0.618531 5.05026 0
M  V30 3765 H 357.188 -3.70399 4.27576 0
M  V30 3766 H 355.745 -3.96982 5.16961 0
M  V30 3767 N 359.178 -1.55987 0.224894 0
M  V30 3768 C 360.141 -2.19178 -0.670348 0
M  V30 3769 C 361.141 -1.15461 -1.11917 0
M  V30 3770 O 362.331 -1.40675 -1.02743 0
M  V30 3771 C 359.463 -2.81777 -1.9187 0
M  V30 3772 H 360.656 -2.99662 -0.119364 0
M  V30 3773 H 358.209 -1.5628 -0.0247128 0
M  V30 3774 H 358.944 -2.05172 -2.51147 0
M  V30 3775 H 358.729 -3.57732 -1.60531 0
M  V30 3776 H 360.219 -3.30205 -2.55645 0
M  V30 3777 N 360.656 0.0484629 -1.57525 0
M  V30 3778 C 361.566 1.07241 -2.08654 0
M  V30 3779 C 362.582 1.409 -1.02095 0
M  V30 3780 O 363.758 1.50609 -1.33712 0
M  V30 3781 C 360.823 2.36008 -2.5397 0
M  V30 3782 C 359.884 2.09108 -3.7493 0
M  V30 3783 C 359.117 3.31736 -4.18075 0
M  V30 3784 O 359.34 4.41714 -3.60895 0
M  V30 3785 O 358.274 3.18576 -5.10679 0
M  V30 3786 H 362.1 0.667965 -2.96263 0
M  V30 3787 H 359.685 0.26417 -1.47046 0
M  V30 3788 H 361.567 3.11747 -2.83535 0
M  V30 3789 H 360.242 2.75786 -1.69481 0
M  V30 3790 H 359.149 1.31 -3.50414 0
M  V30 3791 H 360.482 1.74198 -4.60343 0
M  V30 3792 N 362.134 1.5431 0.320358 0
M  V30 3793 C 363.081 1.83918 1.39438 0
M  V30 3794 C 364.051 0.686525 1.51248 0
M  V30 3795 O 365.236 0.933269 1.66417 0
M  V30 3796 C 362.376 2.075 2.75749 0
M  V30 3797 C 361.489 3.35177 2.72544 0
M  V30 3798 C 360.624 3.48704 4.00723 0
M  V30 3799 C 359.663 4.70244 3.91838 0
M  V30 3800 N 358.8 4.80679 5.11754 0
M  V30 3801 H 363.64 2.75544 1.13489 0
M  V30 3802 H 361.177 1.36459 0.549309 0
M  V30 3803 H 363.135 2.19166 3.54996 0
M  V30 3804 H 361.765 1.19163 3 0
M  V30 3805 H 360.817 3.32233 1.85271 0
M  V30 3806 H 362.129 4.24534 2.61863 0
M  V30 3807 H 361.283 3.59928 4.88402 0
M  V30 3808 H 360.022 2.57445 4.14214 0
M  V30 3809 H 359.027 4.59072 3.02544 0
M  V30 3810 H 360.252 5.6289 3.7991 0
M  V30 3811 H 358.198 3.92337 5.25745 0
M  V30 3812 H 358.115 5.64007 5.0342 0
M  V30 3813 H 359.383 4.96239 6.01138 0
M  V30 3814 N 363.613 -0.582584 1.46437 0
M  V30 3815 C 364.543 -1.70187 1.59871 0
M  V30 3816 C 365.524 -1.64066 0.449042 0
M  V30 3817 O 366.709 -1.82081 0.6753 0
M  V30 3818 C 363.839 -3.08827 1.58881 0
M  V30 3819 C 362.793 -3.29779 2.72819 0
M  V30 3820 C 362.119 -4.68947 2.5689 0
M  V30 3821 C 363.419 -3.17601 4.1464 0
M  V30 3822 H 365.113 -1.592 2.53566 0
M  V30 3823 H 362.659 -0.764472 1.22032 0
M  V30 3824 H 364.612 -3.86951 1.66873 0
M  V30 3825 H 363.336 -3.20713 0.617306 0
M  V30 3826 H 361.995 -2.54054 2.64296 0
M  V30 3827 H 361.643 -4.77599 1.57823 0
M  V30 3828 H 361.343 -4.83919 3.33312 0
M  V30 3829 H 362.867 -5.4924 2.66773 0
M  V30 3830 H 364.281 -3.8557 4.24274 0
M  V30 3831 H 362.678 -3.44094 4.9165 0
M  V30 3832 H 363.748 -2.14681 4.34788 0
M  V30 3833 N 365.091 -1.34144 -0.827227 0
M  V30 3834 C 366.021 -1.28005 -1.95287 0
M  V30 3835 C 367.002 -0.158321 -1.69362 0
M  V30 3836 O 368.187 -0.349987 -1.9102 0
M  V30 3837 C 365.317 -1.03036 -3.31664 0
M  V30 3838 C 364.271 -2.11628 -3.72019 0
M  V30 3839 C 363.597 -1.71854 -5.0633 0
M  V30 3840 C 364.897 -3.53417 -3.8457 0
M  V30 3841 H 366.591 -2.22187 -2.00682 0
M  V30 3842 H 364.137 -1.0696 -0.964135 0
M  V30 3843 H 366.09 -0.973863 -4.09993 0
M  V30 3844 H 364.814 -0.0529391 -3.26557 0
M  V30 3845 H 363.473 -2.16339 -2.95961 0
M  V30 3846 H 363.121 -0.727841 -4.97706 0
M  V30 3847 H 362.821 -2.44531 -5.34302 0
M  V30 3848 H 364.345 -1.67692 -5.87122 0
M  V30 3849 H 365.759 -3.51142 -4.5318 0
M  V30 3850 H 364.156 -4.24679 -4.2399 0
M  V30 3851 H 365.226 -3.91072 -2.86689 0
M  V30 3852 N 366.569 1.04691 -1.17803 0
M  V30 3853 C 367.499 2.14494 -0.92275 0
M  V30 3854 C 368.48 1.69546 0.137179 0
M  V30 3855 O 369.665 1.94195 -0.0141108 0
M  V30 3856 C 366.795 3.44491 -0.440803 0
M  V30 3857 C 365.749 4.03031 -1.4405 0
M  V30 3858 C 365.075 5.28432 -0.81631 0
M  V30 3859 C 366.375 4.39932 -2.81527 0
M  V30 3860 H 368.069 2.36107 -1.84103 0
M  V30 3861 H 365.615 1.1347 -0.886599 0
M  V30 3862 H 367.568 4.2066 -0.249602 0
M  V30 3863 H 366.292 3.22546 0.513025 0
M  V30 3864 H 364.951 3.28937 -1.61853 0
M  V30 3865 H 364.599 5.02792 0.144511 0
M  V30 3866 H 364.299 5.68559 -1.48371 0
M  V30 3867 H 365.823 6.07284 -0.635496 0
M  V30 3868 H 367.237 5.07113 -2.67412 0
M  V30 3869 H 365.634 4.9109 -3.44892 0
M  V30 3870 H 366.704 3.50045 -3.35554 0
M  V30 3871 N 368.047 0.979072 1.23499 0
M  V30 3872 C 369.01 0.523244 2.23147 0
M  V30 3873 C 370.01 -0.386406 1.56088 0
M  V30 3874 O 371.2 -0.180283 1.73265 0
M  V30 3875 C 368.332 -0.240739 3.40049 0
M  V30 3876 H 369.525 1.40432 2.64989 0
M  V30 3877 H 367.078 0.764824 1.36309 0
M  V30 3878 H 367.813 -1.13841 3.03662 0
M  V30 3879 H 367.598 0.412207 3.89927 0
M  V30 3880 H 369.088 -0.548297 4.13985 0
M  V30 3881 N 369.525 -1.3858 0.750561 0
M  V30 3882 C 370.773 -1.99789 0.30477 0
M  V30 3883 C 371.094 -1.59874 -1.11649 0
M  V30 3884 O 370.364 -0.85417 -1.76297 0
M  V30 3885 H 368.944 -0.738902 0.109694 0
M  V30 3886 H 371.606 -1.69391 0.963983 0
M  V30 3887 H 370.702 -3.09952 0.365499 0
M  V30 3888 N 371.003 -0.499398 -1.49478 0
M  V30 3889 C 372.249 0.0457576 -2.02748 0
M  V30 3890 C 372.582 1.36793 -1.37846 0
M  V30 3891 O 371.857 1.87596 -0.513601 0
M  V30 3892 C 372.14 0.199986 -3.59544 0
M  V30 3893 C 371.993 -1.1452 -4.34977 0
M  V30 3894 C 373.312 0.94137 -4.29914 0
M  V30 3895 H 370.431 0.0151552 -0.736844 0
M  V30 3896 H 373.073 -0.650498 -1.78518 0
M  V30 3897 H 371.223 0.793007 -3.8032 0
M  V30 3898 H 372.895 -1.77697 -4.25701 0
M  V30 3899 H 371.138 -1.73488 -3.97598 0
M  V30 3900 H 371.809 -0.990607 -5.43039 0
M  V30 3901 H 374.285 0.43844 -4.13784 0
M  V30 3902 H 373.161 1.01812 -5.39375 0
M  V30 3903 H 373.422 1.98471 -3.95046 0
M  V30 3904 N 372.481 1.55866 -0.233164 0
M  V30 3905 C 373.414 2.16794 0.712442 0
M  V30 3906 C 374.392 1.1158 1.18273 0
M  V30 3907 O 375.576 1.39897 1.26337 0
M  V30 3908 C 372.703 2.75757 1.96661 0
M  V30 3909 C 371.749 3.93902 1.63533 0
M  V30 3910 S 372.582 5.30223 0.74995 0
M  V30 3911 C 373.738 5.92631 2.01343 0
M  V30 3912 H 373.971 2.96662 0.194617 0
M  V30 3913 H 371.504 1.5439 -0.0177425 0
M  V30 3914 H 373.462 3.10367 2.68668 0
M  V30 3915 H 372.123 1.9586 2.45556 0
M  V30 3916 H 371.316 4.33702 2.56747 0
M  V30 3917 H 370.918 3.60499 0.995804 0
M  V30 3918 H 373.21 6.09312 2.96219 0
M  V30 3919 H 374.153 6.88388 1.65915 0
M  V30 3920 H 374.561 5.21571 2.15925 0
M  V30 3921 N 373.959 -0.0401083 1.57549 0
M  V30 3922 C 374.889 -1.04384 2.08869 0
M  V30 3923 C 375.87 -1.38407 0.988817 0
M  V30 3924 O 377.055 -1.47483 1.26342 0
M  V30 3925 C 374.185 -2.34808 2.55895 0
M  V30 3926 C 373.139 -2.15057 3.70047 0
M  V30 3927 C 372.465 -3.51145 4.03239 0
M  V30 3928 C 373.765 -1.54576 4.98902 0
M  V30 3929 H 375.459 -0.616666 2.92981 0
M  V30 3930 H 373.005 -0.295184 1.40942 0
M  V30 3931 H 374.958 -3.05346 2.90417 0
M  V30 3932 H 373.682 -2.79565 1.68853 0
M  V30 3933 H 372.341 -1.46954 3.35857 0
M  V30 3934 H 371.989 -3.93529 3.13279 0
M  V30 3935 H 371.689 -3.38758 4.80122 0
M  V30 3936 H 373.213 -4.23062 4.40285 0
M  V30 3937 H 374.627 -2.15017 5.31451 0
M  V30 3938 H 373.024 -1.52796 5.80322 0
M  V30 3939 H 374.094 -0.51039 4.82206 0
M  V30 3940 N 375.437 -1.54477 -0.31217 0
M  V30 3941 C 376.853 -1.45442 -0.657185 0
M  V30 3942 C 377.053 -0.63653 -1.91182 0
M  V30 3943 O 376.109 -0.139815 -2.52113 0
M  V30 3944 C 377.422 -2.89287 -0.82058 0
M  V30 3945 C 378.97 -2.9926 -0.917188 0
M  V30 3946 C 379.445 -4.44279 -1.11267 0
M  V30 3947 N 380.936 -4.4794 -1.17914 0
M  V30 3948 C 381.671 -5.57318 -1.34848 0
M  V30 3949 N 381.167 -6.76642 -1.48752 0
M  V30 3950 N 382.96 -5.44986 -1.37647 0
M  V30 3951 H 375.111 -2.06129 0.512313 0
M  V30 3952 H 377.374 -0.933088 0.167485 0
M  V30 3953 H 377.08 -3.51687 0.0302604 0
M  V30 3954 H 376.954 -3.36061 -1.71298 0
M  V30 3955 H 379.341 -2.36981 -1.75852 0
M  V30 3956 H 379.422 -2.558 -0.00101257 0
M  V30 3957 H 379.066 -5.07149 -0.27614 0
M  V30 3958 H 378.996 -4.85359 -2.04289 0
M  V30 3959 H 381.487 -3.61969 -1.08567 0
M  V30 3960 H 381.8 -7.55758 -1.61397 0
M  V30 3961 H 380.145 -6.79529 -1.45828 0
M  V30 3962 H 383.336 -4.50715 -1.26388 0
M  V30 3963 H 383.509 -6.3028 -1.50501 0
M  V30 3964 N 376.915 0.57481 -1.46744 0
M  V30 3965 C 378.192 1.3352 -1.4294 0
M  V30 3966 C 378.572 2.10775 -0.117009 0
M  V30 3967 O 377.92 2.09966 0.901474 0
M  V30 3968 C 378.13 2.25456 -2.66403 0
M  V30 3969 C 379.478 2.87035 -3.12883 0
M  V30 3970 O 380.502 2.35766 -2.67007 0
M  V30 3971 O 379.361 3.80179 -3.92589 0
M  V30 3972 H 376.455 0.600318 -0.568812 0
M  V30 3973 H 379.001 0.595171 -1.58921 0
M  V30 3974 H 377.773 1.67851 -3.53471 0
M  V30 3975 H 377.396 3.06785 -2.52921 0
M  V30 3976 N 378.394 1.34581 0.820102 0
M  V30 3977 C 379.805 1.24298 1.39309 0
M  V30 3978 C 380.156 -0.130351 1.95767 0
M  V30 3979 O 379.281 -1.0308 1.90272 0
M  V30 3980 C 379.876 2.25054 2.53251 0
M  V30 3981 C 378.435 2.18552 3.0645 0
M  V30 3982 C 377.582 2.11503 1.79337 0
M  V30 3983 H 380.533 1.45906 0.624262 0
M  V30 3984 H 380.554 1.86917 3.31425 0
M  V30 3985 H 380.066 3.24996 2.1213 0
M  V30 3986 H 378.167 1.21976 3.52069 0
M  V30 3987 H 378.28 3.0993 3.65349 0
M  V30 3988 H 376.644 1.57268 2.00347 0
M  V30 3989 H 377.427 3.13284 1.40386 0
M  V30 3990 N 379.872 -1.04064 1.18357 0
M  V30 3991 C 380.835 -2.10243 0.912707 0
M  V30 3992 C 381.835 -1.60477 -0.101928 0
M  V30 3993 O 383.025 -1.73703 0.131517 0
M  V30 3994 C 380.157 -3.38893 0.369387 0
M  V30 3995 H 381.35 -2.35706 1.85426 0
M  V30 3996 H 378.903 -1.20489 0.995594 0
M  V30 3997 H 379.638 -3.19094 -0.578776 0
M  V30 3998 H 379.423 -3.76331 1.1008 0
M  V30 3999 H 380.913 -4.17128 0.198575 0
M  V30 4000 N 381.35 -0.985608 -1.22978 0
M  V30 4001 C 382.766 -0.695104 -1.43668 0
M  V30 4002 C 382.966 0.736866 -1.87543 0
M  V30 4003 O 382.022 1.50868 -2.02473 0
M  V30 4004 C 383.335 -1.69447 -2.48412 0
M  V30 4005 C 384.883 -1.70909 -2.62219 0
M  V30 4006 C 385.358 -2.6969 -3.70178 0
M  V30 4007 N 386.849 -2.6824 -3.77626 0
M  V30 4008 C 387.584 -3.41339 -4.60733 0
M  V30 4009 N 387.08 -4.24015 -5.4789 0
M  V30 4010 N 388.873 -3.30079 -4.54977 0
M  V30 4011 H 381.024 -1.91054 -0.928016 0
M  V30 4012 H 383.287 -0.823553 -0.469536 0
M  V30 4013 H 382.993 -2.7188 -2.23102 0
M  V30 4014 H 382.867 -1.48147 -3.46889 0
M  V30 4015 H 385.254 -0.691785 -2.86877 0
M  V30 4016 H 385.335 -1.96276 -1.6404 0
M  V30 4017 H 384.979 -3.71566 -3.46268 0
M  V30 4018 H 384.909 -2.41595 -4.67909 0
M  V30 4019 H 387.4 -2.08243 -3.15346 0
M  V30 4020 H 387.713 -4.76636 -6.08308 0
M  V30 4021 H 386.058 -4.28104 -5.47496 0
M  V30 4022 H 389.249 -2.64937 -3.85909 0
M  V30 4023 H 389.422 -3.87308 -5.19516 0
M  V30 4024 N 382.828 1.3818 -0.7579 0
M  V30 4025 C 384.075 2.00019 -0.315985 0
M  V30 4026 C 384.403 1.60163 1.10355 0
M  V30 4027 O 383.658 0.83264 1.77103 0
M  V30 4028 C 383.957 3.55252 -0.391218 0
M  V30 4029 C 383.623 4.14834 -1.76702 0
M  V30 4030 C 382.285 4.30821 -2.14353 0
M  V30 4031 C 384.637 4.47658 -2.66931 0
M  V30 4032 C 381.965 4.76928 -3.41696 0
M  V30 4033 C 384.317 4.95184 -3.93669 0
M  V30 4034 C 382.981 5.09377 -4.31383 0
M  V30 4035 H 382.251 0.731923 -0.115627 0
M  V30 4036 H 384.898 1.65161 -0.969223 0
M  V30 4037 H 383.203 3.90273 0.34558 0
M  V30 4038 H 384.9 4.00988 -0.030805 0
M  V30 4039 H 381.49 4.02808 -1.46435 0
M  V30 4040 H 385.674 4.34904 -2.39106 0
M  V30 4041 H 380.93 4.86103 -3.70829 0
M  V30 4042 H 385.104 5.19551 -4.63724 0
M  V30 4043 H 382.731 5.44865 -5.30119 0
M  V30 4044 N 384.306 0.507319 1.49211 0
M  V30 4045 C 385.583 -0.0982702 1.95353 0
M  V30 4046 C 385.963 -1.53516 1.449 0
M  V30 4047 O 385.311 -2.18594 0.66551 0
M  V30 4048 C 385.521 -0.00440283 3.49 0
M  V30 4049 C 386.869 -0.175147 4.24239 0
M  V30 4050 O 387.893 -0.0792891 3.56112 0
M  V30 4051 O 386.752 -0.37276 5.45227 0
M  V30 4052 H 383.846 -0.0918236 0.821887 0
M  V30 4053 H 386.392 0.570307 1.5983 0
M  V30 4054 H 385.164 0.997402 3.78375 0
M  V30 4055 H 384.787 -0.712845 3.91158 0
M  V30 4056 N 385.784 -1.5574 0.241426 0
M  V30 4057 C 386.714 -2.24133 -0.654722 0
M  V30 4058 C 387.695 -1.21974 -1.1856 0
M  V30 4059 O 388.88 -1.50612 -1.22595 0
M  V30 4060 C 386.01 -2.93659 -1.85423 0
M  V30 4061 C 384.964 -4.0246 -1.45636 0
M  V30 4062 C 384.29 -4.59383 -2.73626 0
M  V30 4063 C 385.59 -5.18468 -0.631506 0
M  V30 4064 H 387.284 -2.99281 -0.0844353 0
M  V30 4065 H 384.83 -1.43947 -0.0391707 0
M  V30 4066 H 386.783 -3.40203 -2.48676 0
M  V30 4067 H 385.507 -2.15991 -2.44981 0
M  V30 4068 H 384.166 -3.56676 -0.847202 0
M  V30 4069 H 383.814 -3.78422 -3.3137 0
M  V30 4070 H 383.514 -5.32826 -2.4773 0
M  V30 4071 H 385.038 -5.08658 -3.37786 0
M  V30 4072 H 386.452 -5.61272 -1.1682 0
M  V30 4073 H 384.849 -5.98266 -0.468831 0
M  V30 4074 H 385.919 -4.8358 0.357506 0
M  V30 4075 N 387.262 0.0317525 -1.57568 0
M  V30 4076 C 388.678 0.38735 -1.54828 0
M  V30 4077 C 388.878 1.7677 -0.967187 0
M  V30 4078 O 387.934 2.45581 -0.587063 0
M  V30 4079 C 389.247 0.291667 -2.99282 0
M  V30 4080 C 390.795 0.368946 -3.10818 0
M  V30 4081 C 391.27 0.302741 -4.56998 0
M  V30 4082 N 392.761 0.361617 -4.61786 0
M  V30 4083 C 393.496 0.333238 -5.72431 0
M  V30 4084 N 392.992 0.257308 -6.92322 0
M  V30 4085 N 394.785 0.382769 -5.60795 0
M  V30 4086 H 386.936 -0.871609 -1.93692 0
M  V30 4087 H 389.199 -0.331161 -0.888277 0
M  V30 4088 H 388.905 -0.656794 -3.45513 0
M  V30 4089 H 388.779 1.08638 -3.61217 0
M  V30 4090 H 391.166 1.30784 -2.64536 0
M  V30 4091 H 391.247 -0.455066 -2.5172 0
M  V30 4092 H 390.891 -0.632473 -5.03947 0
M  V30 4093 H 390.821 1.14482 -5.14005 0
M  V30 4094 H 393.312 0.422923 -3.75526 0
M  V30 4095 H 393.625 0.24068 -7.72425 0
M  V30 4096 H 391.97 0.223396 -6.94641 0
M  V30 4097 H 395.161 0.44006 -4.66027 0
M  V30 4098 H 395.334 0.357184 -6.47015 0
M  V30 4099 N 388.74 1.54641 0.303973 0
M  V30 4100 C 389.988 1.73437 1.0375 0
M  V30 4101 C 390.309 0.521449 1.87899 0
M  V30 4102 O 389.579 -0.46432 1.90318 0
M  V30 4103 H 388.159 0.639518 0.386039 0
M  V30 4104 H 390.821 1.91988 0.335675 0
M  V30 4105 H 389.917 2.62235 1.69231 0
M  V30 4106 N 390.218 -0.567019 1.47046 0
M  V30 4107 C 391.446 -1.35027 1.56765 0
M  V30 4108 C 391.861 -1.8758 0.214316 0
M  V30 4109 O 391.218 -1.64471 -0.790919 0
M  V30 4110 C 391.269 -2.52698 2.58507 0
M  V30 4111 O 390.99 -2.0232 3.88585 0
M  V30 4112 C 392.491 -3.45043 2.78316 0
M  V30 4113 H 389.711 -0.41195 0.529658 0
M  V30 4114 H 392.255 -0.687832 1.92585 0
M  V30 4115 H 390.41 -3.149 2.25648 0
M  V30 4116 H 390.824 -2.79068 4.44096 0
M  V30 4117 H 392.298 -4.2405 3.53391 0
M  V30 4118 H 392.775 -3.97971 1.85784 0
M  V30 4119 H 393.381 -2.88665 3.12334 0
M  V30 4120 N 391.696 -1.35014 -0.812953 0
M  V30 4121 C 392.626 -1.30069 -1.93919 0
M  V30 4122 C 393.607 -0.176275 -1.69184 0
M  V30 4123 O 394.792 -0.370227 -1.90638 0
M  V30 4124 C 391.922 -1.06547 -3.30552 0
M  V30 4125 C 390.876 -2.15561 -3.69753 0
M  V30 4126 C 390.202 -1.77214 -5.04479 0
M  V30 4127 C 391.502 -3.57476 -3.808 0
M  V30 4128 H 393.196 -2.24303 -1.98314 0
M  V30 4129 H 390.742 -1.07977 -0.952736 0
M  V30 4130 H 392.695 -1.01729 -4.08937 0
M  V30 4131 H 391.419 -0.0875719 -3.26483 0
M  V30 4132 H 390.078 -2.19466 -2.9365 0
M  V30 4133 H 389.726 -0.780589 -4.96906 0
M  V30 4134 H 389.426 -2.50184 -5.31678 0
M  V30 4135 H 390.95 -1.7391 -5.8531 0
M  V30 4136 H 392.364 -3.55929 -4.4943 0
M  V30 4137 H 390.761 -4.29152 -4.19462 0
M  V30 4138 H 391.831 -3.94091 -2.82525 0
M  V30 4139 N 393.175 1.03435 -1.18907 0
M  V30 4140 C 394.403 1.80381 -1.01342 0
M  V30 4141 C 394.818 1.83649 0.438005 0
M  V30 4142 O 394.175 1.27655 1.30424 0
M  V30 4143 C 394.226 3.25689 -1.56873 0
M  V30 4144 O 393.947 3.22673 -2.96334 0
M  V30 4145 C 395.448 4.19255 -1.44014 0
M  V30 4146 H 392.668 0.56784 -0.35749 0
M  V30 4147 H 395.212 1.30317 -1.576 0
M  V30 4148 H 393.367 3.72962 -1.04777 0
M  V30 4149 H 393.781 4.13748 -3.22355 0
M  V30 4150 H 395.255 5.19123 -1.87657 0
M  V30 4151 H 395.732 4.37467 -0.389815 0
M  V30 4152 H 396.338 3.77851 -1.95214 0
M  V30 4153 N 394.653 0.992116 1.22453 0
M  V30 4154 C 395.603 0.512969 2.22155 0
M  V30 4155 C 396.587 -0.418416 1.55364 0
M  V30 4156 O 397.779 -0.245363 1.75291 0
M  V30 4157 C 394.908 -0.171822 3.4287 0
M  V30 4158 C 393.994 0.779822 4.16869 0
M  V30 4159 N 394.385 1.92734 4.6764 0
M  V30 4160 C 392.683 0.59554 4.42006 0
M  V30 4161 C 393.384 2.52458 5.24061 0
M  V30 4162 N 392.36 1.80735 5.12675 0
M  V30 4163 H 396.162 1.38817 2.5905 0
M  V30 4164 H 393.676 0.854277 1.38115 0
M  V30 4165 H 395.673 -0.532469 4.13486 0
M  V30 4166 H 394.333 -1.04317 3.07487 0
M  V30 4167 H 395.344 2.30816 4.63621 0
M  V30 4168 H 392.021 -0.229805 4.16867 0
M  V30 4169 H 393.411 3.49433 5.73887 0
M  V30 4170 N 396.131 -1.37776 0.765217 0
M  V30 4171 C 397.379 -1.99454 0.325943 0
M  V30 4172 C 397.7 -1.61049 -1.09947 0
M  V30 4173 O 396.97 -0.872821 -1.75381 0
M  V30 4174 H 395.55 -0.737697 0.117525 0
M  V30 4175 H 398.212 -1.68359 0.981895 0
M  V30 4176 H 397.308 -3.09547 0.398353 0
M  V30 4177 N 397.609 -0.515225 -1.4894 0
M  V30 4178 C 399.025 -0.172099 -1.58669 0
M  V30 4179 C 399.225 1.32405 -1.51892 0
M  V30 4180 O 398.281 2.10116 -1.40027 0
M  V30 4181 C 399.594 -0.761533 -2.90897 0
M  V30 4182 C 401.142 -0.728926 -3.04394 0
M  V30 4183 C 401.617 -1.29667 -4.39261 0
M  V30 4184 N 403.108 -1.25799 -4.4579 0
M  V30 4185 C 403.843 -1.66733 -5.48623 0
M  V30 4186 N 403.339 -2.15327 -6.58488 0
M  V30 4187 N 405.132 -1.58061 -5.39419 0
M  V30 4188 H 397.283 -1.48778 -1.51588 0
M  V30 4189 H 399.546 -0.617968 -0.718901 0
M  V30 4190 H 399.252 -1.81136 -3.01468 0
M  V30 4191 H 399.126 -0.230106 -3.76497 0
M  V30 4192 H 401.513 0.312098 -2.93445 0
M  V30 4193 H 401.594 -1.29766 -2.20442 0
M  V30 4194 H 401.238 -2.33655 -4.50963 0
M  V30 4195 H 401.168 -0.703752 -5.21876 0
M  V30 4196 H 403.659 -0.902102 -3.66975 0
M  V30 4197 H 403.972 -2.44594 -7.33071 0
M  V30 4198 H 402.317 -2.19311 -6.59491 0
M  V30 4199 H 405.508 -1.19906 -4.52482 0
M  V30 4200 H 405.681 -1.90284 -6.19432 0
M  V30 4201 N 399.087 1.5561 -0.249682 0
M  V30 4202 C 400.364 1.90932 0.424761 0
M  V30 4203 C 400.744 1.17078 1.75658 0
M  V30 4204 O 400.092 0.289176 2.26663 0
M  V30 4205 C 400.302 3.43975 0.590109 0
M  V30 4206 C 401.65 4.15281 0.884714 0
M  V30 4207 O 402.674 3.49729 0.67587 0
M  V30 4208 O 401.533 5.31236 1.28259 0
M  V30 4209 H 398.627 0.794815 0.228468 0
M  V30 4210 H 401.173 1.67135 -0.293954 0
M  V30 4211 H 399.945 3.89748 -0.34818 0
M  V30 4212 H 399.568 3.73644 1.35926 0
M  V30 4213 N 400.565 -0.0233959 1.57583 0
M  V30 4214 C 401.811 -0.714119 1.89811 0
M  V30 4215 C 402.144 -1.74702 0.848113 0
M  V30 4216 O 401.419 -1.94023 -0.136135 0
M  V30 4217 C 401.702 -1.37853 3.32669 0
M  V30 4218 C 401.555 -0.358764 4.48367 0
M  V30 4219 C 402.874 -2.31101 3.7454 0
M  V30 4220 H 399.993 -0.25814 0.690314 0
M  V30 4221 H 402.635 0.0230927 1.89986 0
M  V30 4222 H 400.785 -2.00689 3.3265 0
M  V30 4223 H 402.457 0.268115 4.6052 0
M  V30 4224 H 400.7 0.321387 4.32608 0
M  V30 4225 H 401.371 -0.862242 5.45224 0
M  V30 4226 H 403.847 -1.78304 3.75961 0
M  V30 4227 H 402.723 -2.74567 4.75294 0
M  V30 4228 H 402.984 -3.18018 3.0711 0
M  V30 4229 N 402.043 -1.548 -0.295768 0
M  V30 4230 C 402.953 -1.89177 -1.38742 0
M  V30 4231 C 403.969 -0.786481 -1.55211 0
M  V30 4232 O 405.145 -1.08344 -1.69775 0
M  V30 4233 C 402.21 -2.13663 -2.73036 0
M  V30 4234 C 401.271 -3.37349 -2.65508 0
M  V30 4235 C 400.504 -3.60658 -3.93398 0
M  V30 4236 O 400.727 -2.86882 -4.93006 0
M  V30 4237 O 399.661 -4.54179 -3.94975 0
M  V30 4238 H 403.487 -2.82059 -1.12589 0
M  V30 4239 H 401.072 -1.41056 -0.492295 0
M  V30 4240 H 402.954 -2.3094 -3.52484 0
M  V30 4241 H 401.629 -1.23967 -2.99022 0
M  V30 4242 H 400.536 -3.25431 -1.84514 0
M  V30 4243 H 401.869 -4.27192 -2.44474 0
M  V30 4244 N 403.521 0.559213 -1.47345 0
M  V30 4245 C 404.77 1.31281 -1.53128 0
M  V30 4246 C 405.083 1.94602 -0.197344 0
M  V30 4247 O 406.289 2.71173 -0.133154 0
M  V30 4248 C 404.745 2.38051 -2.69925 0
M  V30 4249 C 404.353 1.8093 -4.0984 0
M  V30 4250 C 406.097 3.14604 -2.84999 0
M  V30 4251 C 404.004 2.85468 -5.1794 0
M  V30 4252 H 402.934 0.493614 -0.569966 0
M  V30 4253 H 405.585 0.594155 -1.73615 0
M  V30 4254 H 403.967 3.12822 -2.42814 0
M  V30 4255 H 405.141 1.12544 -4.46845 0
M  V30 4256 H 403.456 1.16967 -3.99634 0
M  V30 4257 H 406.053 3.92666 -3.62929 0
M  V30 4258 H 406.396 3.68665 -1.93369 0
M  V30 4259 H 406.929 2.46945 -3.1187 0
M  V30 4260 H 403.668 2.36264 -6.1144 0
M  V30 4261 H 403.188 3.52269 -4.85455 0
M  V30 4262 H 404.867 3.48996 -5.44803 0
M  V30 4263 N 404.999 1.35443 0.805782 0
M  V30 4264 C 406.276 1.19325 1.54987 0
M  V30 4265 C 406.656 -0.227294 2.09873 0
M  V30 4266 O 406.004 -1.2309 1.92512 0
M  V30 4267 C 406.214 2.26196 2.65775 0
M  V30 4268 C 407.562 2.62043 3.34094 0
M  V30 4269 O 408.586 2.25115 2.76046 0
M  V30 4270 O 407.445 3.25542 4.38958 0
M  V30 4271 H 404.539 0.463623 0.684823 0
M  V30 4272 H 407.085 1.47127 0.845674 0
M  V30 4273 H 405.857 3.21471 2.23096 0
M  V30 4274 H 405.48 1.99667 3.43829 0
M  V30 4275 N 406.477 -1.02803 1.19454 0
M  V30 4276 C 407.705 -1.79841 1.02297 0
M  V30 4277 C 408.12 -1.83879 -0.428259 0
M  V30 4278 O 407.477 -1.28345 -1.29745 0
M  V30 4279 C 407.528 -3.24852 1.58598 0
M  V30 4280 O 407.249 -3.21097 2.98041 0
M  V30 4281 C 408.75 -4.18485 1.46236 0
M  V30 4282 H 405.97 -0.565936 0.360496 0
M  V30 4283 H 408.514 -1.2948 1.58288 0
M  V30 4284 H 406.669 -3.72401 1.06753 0
M  V30 4285 H 407.083 -4.12033 3.24545 0
M  V30 4286 H 408.557 -5.18121 1.90407 0
M  V30 4287 H 409.034 -4.37254 0.41301 0
M  V30 4288 H 409.64 -3.76811 1.97215 0
M  V30 4289 N 407.956 -0.998596 -1.21925 0
M  V30 4290 C 408.904 -0.546641 -2.26085 0
M  V30 4291 C 409.898 0.405576 -1.64473 0
M  V30 4292 O 411.104 0.277471 -1.77849 0
M  V30 4293 H 407.479 -0.158403 -0.735127 0
M  V30 4294 H 409.45 -1.43645 -2.61551 0
M  V30 4295 C 408.199 0.117388 -3.47502 0
M  V30 4296 H 407.522 -0.606277 -3.95176 0
M  V30 4297 H 408.962 0.396993 -4.22137 0
M  V30 4298 C 407.421 1.35455 -3.0847 0
M  V30 4299 O 407.951 2.44944 -3.18379 0
M  V30 4300 N 406.157 1.23191 -2.63196 0
M  V30 4301 H 405.704 0.341006 -2.55333 0
M  V30 4302 H 405.662 2.06071 -2.37449 0
M  V30 4303 N 409.434 1.37368 -0.772513 0
M  V30 4304 C 410.68 1.99969 -0.337681 0
M  V30 4305 C 411.013 1.61184 1.08321 0
M  V30 4306 O 410.288 0.858395 1.74533 0
M  V30 4307 C 410.571 3.56858 -0.482121 0
M  V30 4308 C 410.424 4.0555 -1.94549 0
M  V30 4309 C 411.743 4.39955 0.113143 0
M  V30 4310 H 408.862 0.726464 -0.124171 0
M  V30 4311 H 411.504 1.63034 -0.975699 0
M  V30 4312 H 409.654 3.88452 0.0610361 0
M  V30 4313 H 411.326 3.84518 -2.54841 0
M  V30 4314 H 409.569 3.57715 -2.45403 0
M  V30 4315 H 410.24 5.14587 -1.9976 0
M  V30 4316 H 412.716 4.14623 -0.35031 0
M  V30 4317 H 411.592 5.48897 -0.0180514 0
M  V30 4318 H 411.853 4.25403 1.20354 0
M  V30 4319 N 410.912 0.523116 1.48665 0
M  V30 4320 C 412.161 -0.01544 2.01694 0
M  V30 4321 C 412.474 -1.35975 1.40606 0
M  V30 4322 O 413.68 -1.98627 1.85093 0
M  V30 4323 C 412.136 -0.0779303 3.59816 0
M  V30 4324 C 411.744 1.26107 4.29885 0
M  V30 4325 C 413.488 -0.565678 4.20714 0
M  V30 4326 C 411.395 1.15954 5.79921 0
M  V30 4327 H 410.325 -0.00954163 0.75394 0
M  V30 4328 H 412.976 0.665865 1.70993 0
M  V30 4329 H 411.358 -0.824165 3.87329 0
M  V30 4330 H 412.532 2.02233 4.14051 0
M  V30 4331 H 410.847 1.68401 3.80828 0
M  V30 4332 H 413.444 -0.6595 5.30617 0
M  V30 4333 H 413.787 -1.56984 3.85567 0
M  V30 4334 H 414.32 0.12467 3.97605 0
M  V30 4335 H 411.059 2.13864 6.19631 0
M  V30 4336 H 410.579 0.439529 5.98187 0
M  V30 4337 H 412.258 0.847361 6.41427 0
M  V30 4338 N 412.39 -1.55475 0.257931 0
M  V30 4339 C 413.639 -1.98383 -0.364275 0
M  V30 4340 C 413.952 -1.14952 -1.58258 0
M  V30 4341 O 415.158 -1.47924 -2.27664 0
M  V30 4342 C 413.614 -3.53037 -0.699479 0
M  V30 4343 C 413.222 -4.45223 0.498046 0
M  V30 4344 C 414.966 -4.04575 -1.28526 0
M  V30 4345 C 412.873 -5.91238 0.138383 0
M  V30 4346 H 411.803 -0.740911 -0.13988 0
M  V30 4347 H 414.454 -1.79936 0.359883 0
M  V30 4348 H 412.836 -3.6722 -1.48207 0
M  V30 4349 H 414.01 -4.42803 1.27522 0
M  V30 4350 H 412.325 -4.04226 0.999503 0
M  V30 4351 H 414.922 -5.11196 -1.56788 0
M  V30 4352 H 415.265 -3.5258 -2.21344 0
M  V30 4353 H 415.798 -3.93762 -0.565337 0
M  V30 4354 H 412.537 -6.47294 1.03398 0
M  V30 4355 H 412.057 -5.96768 -0.602374 0
M  V30 4356 H 413.736 -6.46413 -0.27553 0
M  V30 4357 N 413.868 0.0150385 -1.57593 0
M  V30 4358 C 414.778 1.02791 -2.10882 0
M  V30 4359 C 415.794 1.38702 -1.0506 0
M  V30 4360 O 416.97 1.47739 -1.36877 0
M  V30 4361 C 414.035 2.30568 -2.58919 0
M  V30 4362 C 413.096 2.01108 -3.79281 0
M  V30 4363 C 412.329 3.22794 -4.25018 0
M  V30 4364 O 412.552 4.33959 -3.70183 0
M  V30 4365 O 411.486 3.07672 -5.17322 0
M  V30 4366 H 415.312 0.604973 -2.97613 0
M  V30 4367 H 412.897 0.23292 -1.47573 0
M  V30 4368 H 414.779 3.05662 -2.90084 0
M  V30 4369 H 413.454 2.72129 -1.75293 0
M  V30 4370 H 412.361 1.23537 -3.53114 0
M  V30 4371 H 413.694 1.64394 -4.63935 0
M  V30 4372 N 415.346 1.54954 0.287554 0
M  V30 4373 C 416.594 1.74528 1.01904 0
M  V30 4374 C 416.915 0.541349 1.87335 0
M  V30 4375 O 416.185 -0.444108 1.908 0
M  V30 4376 H 414.765 0.643576 0.379235 0
M  V30 4377 H 417.427 1.92333 0.315294 0
M  V30 4378 H 416.523 2.64015 1.6644 0
M  V30 4379 N 416.824 -0.551391 1.4764 0
M  V30 4380 C 417.772 -1.67896 1.60978 0
M  V30 4381 C 418.766 -1.62549 0.476877 0
M  V30 4382 O 419.972 -1.67664 0.654878 0
M  V30 4383 H 416.347 -0.555649 0.506713 0
M  V30 4384 H 418.318 -1.53784 2.55721 0
M  V30 4385 C 417.067 -3.06234 1.64669 0
M  V30 4386 H 416.39 -3.11033 2.51194 0
M  V30 4387 H 417.83 -3.84804 1.7805 0
M  V30 4388 C 416.289 -3.34737 0.381115 0
M  V30 4389 O 416.819 -3.98381 -0.515297 0
M  V30 4390 N 415.025 -2.8944 0.259354 0
M  V30 4391 H 414.572 -2.37827 0.98976 0
M  V30 4392 H 414.53 -3.08882 -0.586464 0
M  V30 4393 N 418.302 -1.35869 -0.798587 0
M  V30 4394 C 419.548 -1.2978 -1.55836 0
M  V30 4395 C 419.881 0.125322 -1.93795 0
M  V30 4396 O 419.156 1.07658 -1.61987 0
M  V30 4397 C 419.439 -2.21188 -2.84162 0
M  V30 4398 C 419.292 -3.72155 -2.52628 0
M  V30 4399 C 420.611 -2.11545 -3.85923 0
M  V30 4400 H 417.73 -0.472769 -0.565383 0
M  V30 4401 H 420.372 -1.66341 -0.918192 0
M  V30 4402 H 418.522 -1.90139 -3.38791 0
M  V30 4403 H 420.194 -4.13682 -2.04121 0
M  V30 4404 H 418.437 -3.92042 -1.85704 0
M  V30 4405 H 419.108 -4.31511 -3.44242 0
M  V30 4406 H 421.584 -2.38855 -3.40716 0
M  V30 4407 H 420.46 -2.77688 -4.73477 0
M  V30 4408 H 420.721 -1.09987 -4.282 0
M  V30 4409 N 419.78 1.02168 -1.19998 0
M  V30 4410 C 421.008 1.79296 -1.03249 0
M  V30 4411 C 421.423 1.84103 0.418502 0
M  V30 4412 O 420.78 1.29031 1.29063 0
M  V30 4413 C 420.831 3.24007 -1.60319 0
M  V30 4414 O 420.552 3.19512 -2.99739 0
M  V30 4415 C 422.053 4.17704 -1.48453 0
M  V30 4416 H 419.273 0.564016 -0.363493 0
M  V30 4417 H 421.817 1.28639 -1.58973 0
M  V30 4418 H 419.972 3.7183 -1.08727 0
M  V30 4419 H 420.386 4.10306 -3.26725 0
M  V30 4420 H 421.86 5.17104 -1.93153 0
M  V30 4421 H 422.337 4.37029 -0.436193 0
M  V30 4422 H 422.943 3.7576 -1.99211 0
M  V30 4423 N 421.258 1.00505 1.21394 0
M  V30 4424 C 422.188 0.585684 2.26035 0
M  V30 4425 C 423.169 -0.393525 1.65485 0
M  V30 4426 O 424.354 -0.281497 1.92149 0
M  V30 4427 C 421.484 -0.0884283 3.47187 0
M  V30 4428 C 420.438 0.810567 4.20254 0
M  V30 4429 C 419.764 0.00286382 5.347 0
M  V30 4430 C 421.064 2.1132 4.77641 0
M  V30 4431 H 422.758 1.46039 2.61368 0
M  V30 4432 H 420.304 0.703648 1.25638 0
M  V30 4433 H 422.257 -0.393286 4.19561 0
M  V30 4434 H 420.981 -0.997766 3.10986 0
M  V30 4435 H 419.64 1.09925 3.49731 0
M  V30 4436 H 419.288 -0.907765 4.94741 0
M  V30 4437 H 418.988 0.601444 5.84514 0
M  V30 4438 H 420.512 -0.295808 6.09883 0
M  V30 4439 H 421.926 1.87148 5.41893 0
M  V30 4440 H 420.323 2.66164 5.37845 0
M  V30 4441 H 421.393 2.78393 3.9702 0
M  V30 4442 N 422.737 -1.36956 0.779787 0
M  V30 4443 C 423.985 -1.99097 0.347079 0
M  V30 4444 C 424.306 -1.62206 -1.08232 0
M  V30 4445 O 423.576 -0.891373 -1.74446 0
M  V30 4446 H 422.156 -0.736409 0.125342 0
M  V30 4447 H 424.818 -1.67308 0.999696 0
M  V30 4448 H 423.914 -3.09107 0.431162 0
M  V30 4449 N 424.215 -0.530993 -1.48385 0
M  V30 4450 C 425.165 0.251092 -2.26613 0
M  V30 4451 C 426.149 0.908977 -1.32765 0
M  V30 4452 O 427.341 0.811616 -1.57295 0
M  V30 4453 C 424.47 1.29677 -3.17866 0
M  V30 4454 C 423.556 0.643627 -4.19188 0
M  V30 4455 N 423.947 -0.271223 -5.05072 0
M  V30 4456 C 422.245 0.900711 -4.3681 0
M  V30 4457 C 422.946 -0.648109 -5.78078 0
M  V30 4458 N 421.922 -0.00895987 -5.43599 0
M  V30 4459 H 425.724 -0.452702 -2.90393 0
M  V30 4460 H 423.238 -0.349091 -1.58604 0
M  V30 4461 H 425.235 1.87079 -3.72568 0
M  V30 4462 H 423.895 2.00193 -2.55642 0
M  V30 4463 H 424.906 -0.643883 -5.13882 0
M  V30 4464 H 421.583 1.59636 -3.85775 0
M  V30 4465 H 422.973 -1.39833 -6.57188 0
M  V30 4466 N 425.693 1.55336 -0.266172 0
M  V30 4467 C 427.109 1.59356 0.0882065 0
M  V30 4468 C 427.309 1.2834 1.55342 0
M  V30 4469 O 426.365 1.03996 2.30089 0
M  V30 4470 C 427.678 2.99409 -0.278364 0
M  V30 4471 C 429.226 3.12196 -0.224243 0
M  V30 4472 C 429.701 4.545 -0.565123 0
M  V30 4473 N 431.192 4.60313 -0.51634 0
M  V30 4474 C 431.927 5.68434 -0.753013 0
M  V30 4475 N 431.423 6.84738 -1.05383 0
M  V30 4476 N 433.216 5.57942 -0.682414 0
M  V30 4477 H 425.367 1.73764 -1.22147 0
M  V30 4478 H 427.63 0.809822 -0.492841 0
M  V30 4479 H 427.336 3.2691 -1.29703 0
M  V30 4480 H 427.21 3.75228 0.385186 0
M  V30 4481 H 429.597 2.84464 0.78512 0
M  V30 4482 H 429.678 2.38609 -0.921922 0
M  V30 4483 H 429.322 4.82956 -1.57213 0
M  V30 4484 H 429.252 5.26374 0.154248 0
M  V30 4485 H 431.743 3.7676 -0.29335 0
M  V30 4486 H 432.056 7.63088 -1.22133 0
M  V30 4487 H 430.401 6.86375 -1.09151 0
M  V30 4488 H 433.592 4.65958 -0.44731 0
M  V30 4489 H 433.765 6.4213 -0.870248 0
M  V30 4490 N 427.171 -0.0066808 1.57599 0
M  V30 4491 C 428.417 -0.693947 1.90558 0
M  V30 4492 C 428.75 -1.73792 0.866594 0
M  V30 4493 O 428.025 -1.94156 -0.115548 0
M  V30 4494 C 428.308 -1.34317 3.34112 0
M  V30 4495 C 428.161 -0.311189 4.48722 0
M  V30 4496 C 429.48 -2.27116 3.7697 0
M  V30 4497 H 426.599 -0.250803 0.693013 0
M  V30 4498 H 429.241 0.043242 1.89951 0
M  V30 4499 H 427.391 -1.9715 3.3476 0
M  V30 4500 H 429.063 0.316944 4.6021 0
M  V30 4501 H 427.306 0.367253 4.32243 0
M  V30 4502 H 427.977 -0.804366 5.46108 0
M  V30 4503 H 430.453 -1.74306 3.77831 0
M  V30 4504 H 429.329 -2.69511 4.78179 0
M  V30 4505 H 429.59 -3.14743 3.10466 0
M  V30 4506 N 428.649 -1.55105 -0.279332 0
M  V30 4507 C 429.596 -1.8755 -1.34513 0
M  V30 4508 C 430.566 -0.726384 -1.49375 0
M  V30 4509 O 431.751 -0.977063 -1.63884 0
M  V30 4510 C 428.891 -2.14738 -2.70151 0
M  V30 4511 C 428.004 -3.42285 -2.63562 0
M  V30 4512 C 427.139 -3.59206 -3.91337 0
M  V30 4513 C 426.178 -4.80467 -3.79233 0
M  V30 4514 N 425.315 -4.94079 -4.98829 0
M  V30 4515 H 430.155 -2.78456 -1.06143 0
M  V30 4516 H 427.692 -1.37867 -0.512936 0
M  V30 4517 H 429.65 -2.28501 -3.49061 0
M  V30 4518 H 428.28 -1.27075 -2.96735 0
M  V30 4519 H 427.332 -3.37029 -1.76397 0
M  V30 4520 H 428.644 -4.31328 -2.50515 0
M  V30 4521 H 427.798 -3.72751 -4.78687 0
M  V30 4522 H 426.537 -2.68337 -4.07243 0
M  V30 4523 H 425.542 -4.66932 -2.90266 0
M  V30 4524 H 426.767 -5.72765 -3.64852 0
M  V30 4525 H 424.713 -4.06139 -5.15158 0
M  V30 4526 H 424.63 -5.77156 -4.8829 0
M  V30 4527 H 425.898 -5.12003 -5.8777 0
M  V30 4528 N 430.127 0.543554 -1.4793 0
M  V30 4529 C 431.376 1.29649 -1.54512 0
M  V30 4530 C 431.689 1.94382 -0.217973 0
M  V30 4531 O 432.895 2.71017 -0.161908 0
M  V30 4532 C 431.351 2.35175 -2.72435 0
M  V30 4533 C 430.959 1.76572 -4.11736 0
M  V30 4534 C 432.703 3.11564 -2.8832 0
M  V30 4535 C 430.61 2.79958 -5.20939 0
M  V30 4536 H 429.54 0.487541 -0.57517 0
M  V30 4537 H 432.191 0.575708 -1.74235 0
M  V30 4538 H 430.573 3.10229 -2.46118 0
M  V30 4539 H 431.747 1.07799 -4.48013 0
M  V30 4540 H 430.062 1.12722 -4.00852 0
M  V30 4541 H 432.659 3.88794 -3.67074 0
M  V30 4542 H 433.002 3.66594 -1.97268 0
M  V30 4543 H 433.535 2.43623 -3.14472 0
M  V30 4544 H 430.274 2.29766 -6.13912 0
M  V30 4545 H 429.794 3.47101 -4.89164 0
M  V30 4546 H 431.473 3.43198 -5.48474 0
M  V30 4547 N 431.605 1.3629 0.791371 0
M  V30 4548 C 432.853 1.30154 1.5461 0
M  V30 4549 C 433.174 -0.119409 1.94634 0
M  V30 4550 O 432.444 -1.05924 1.64794 0
M  V30 4551 H 431.024 0.478784 0.573389 0
M  V30 4552 H 433.686 1.70565 0.94306 0
M  V30 4553 H 432.782 1.92762 2.45457 0
M  V30 4554 N 433.083 -1.0153 1.20538 0
M  V30 4555 C 434.311 -1.78746 1.04199 0
M  V30 4556 C 434.726 -1.84323 -0.408733 0
M  V30 4557 O 434.083 -1.29714 -1.28377 0
M  V30 4558 C 434.134 -3.23152 1.62035 0
M  V30 4559 O 433.855 -3.17918 3.0143 0
M  V30 4560 C 435.356 -4.16911 1.50666 0
M  V30 4561 H 432.576 -0.56208 0.366479 0
M  V30 4562 H 435.12 -1.27794 1.59653 0
M  V30 4563 H 433.275 -3.71248 1.10697 0
M  V30 4564 H 433.689 -4.08567 3.28897 0
M  V30 4565 H 435.163 -5.16072 1.95892 0
M  V30 4566 H 435.64 -4.36791 0.459363 0
M  V30 4567 H 436.246 -3.74698 2.01201 0
M  V30 4568 N 434.561 -1.01147 -1.20859 0
M  V30 4569 C 435.809 -0.696486 -1.89719 0
M  V30 4570 C 436.13 0.775788 -1.78904 0
M  V30 4571 O 435.4 1.55759 -1.18811 0
M  V30 4572 H 433.98 -0.254628 -0.702263 0
M  V30 4573 H 436.642 -1.28197 -1.46804 0
M  V30 4574 H 435.738 -0.975357 -2.96468 0
M  V30 4575 N 436.039 1.36541 -0.78704 0
M  V30 4576 C 437.279 2.01138 -0.363714 0
M  V30 4577 C 437.643 1.61114 1.04433 0
M  V30 4578 O 438.844 2.18285 1.56861 0
M  V30 4579 C 437.115 3.53603 -0.519582 0
M  V30 4580 S 438.674 4.38415 -0.183782 0
M  V30 4581 H 435.492 0.697263 -0.13909 0
M  V30 4582 H 438.094 1.66475 -1.02501 0
M  V30 4583 H 436.798 3.8022 -1.5447 0
M  V30 4584 H 436.329 3.93084 0.15773 0
M  V30 4585 H 438.344 4.85698 1.01547 0
M  V30 4586 N 437.518 0.538854 1.48102 0
M  V30 4587 C 438.764 0.00801365 2.02798 0
M  V30 4588 C 439.097 -1.3309 1.41424 0
M  V30 4589 O 438.372 -1.86169 0.563158 0
M  V30 4590 C 438.655 -0.104589 3.59948 0
M  V30 4591 C 438.508 1.26012 4.31788 0
M  V30 4592 C 439.827 -0.827055 4.32259 0
M  V30 4593 H 436.946 0.00438624 0.736987 0
M  V30 4594 H 439.588 0.6976 1.7673 0
M  V30 4595 H 437.738 -0.691893 3.82289 0
M  V30 4596 H 439.41 1.88922 4.2084 0
M  V30 4597 H 437.653 1.83968 3.92859 0
M  V30 4598 H 438.324 1.13424 5.40221 0
M  V30 4599 H 440.8 -0.328578 4.14801 0
M  V30 4600 H 439.676 -0.87476 5.41885 0
M  V30 4601 H 439.937 -1.87927 4.0017 0
M  V30 4602 N 438.996 -1.55193 0.274407 0
M  V30 4603 C 440.245 -1.98758 -0.343213 0
M  V30 4604 C 440.558 -1.16624 -1.5703 0
M  V30 4605 O 441.764 -1.5033 -2.26082 0
M  V30 4606 C 440.22 -3.53759 -0.661996 0
M  V30 4607 C 439.828 -4.4467 0.54524 0
M  V30 4608 C 441.572 -4.05916 -1.24228 0
M  V30 4609 C 439.479 -5.91058 0.201084 0
M  V30 4610 H 438.409 -0.742353 -0.132014 0
M  V30 4611 H 441.06 -1.79545 0.378948 0
M  V30 4612 H 439.442 -3.68772 -1.44304 0
M  V30 4613 H 440.616 -4.41426 1.32212 0
M  V30 4614 H 438.931 -4.03143 1.04232 0
M  V30 4615 H 441.528 -5.12831 -1.51357 0
M  V30 4616 H 441.871 -3.54908 -2.17592 0
M  V30 4617 H 442.404 -3.9434 -0.523542 0
M  V30 4618 H 439.143 -6.46161 1.10258 0
M  V30 4619 H 438.663 -5.97373 -0.539045 0
M  V30 4620 H 440.342 -6.46669 -0.206954 0
M  V30 4621 N 440.474 -0.00167713 -1.576 0
M  V30 4622 C 441.421 0.989195 -2.08527 0
M  V30 4623 C 442.391 1.34031 -0.981065 0
M  V30 4624 O 443.576 1.43839 -1.2536 0
M  V30 4625 C 440.716 2.27537 -2.59463 0
M  V30 4626 C 439.829 1.98314 -3.83791 0
M  V30 4627 C 438.964 3.21025 -4.23222 0
M  V30 4628 C 438.003 2.87495 -5.40382 0
M  V30 4629 N 437.14 4.02749 -5.75098 0
M  V30 4630 H 441.98 0.547973 -2.92919 0
M  V30 4631 H 439.517 0.258917 -1.44803 0
M  V30 4632 H 441.475 3.02729 -2.87073 0
M  V30 4633 H 440.105 2.69325 -1.77943 0
M  V30 4634 H 439.157 1.13482 -3.63078 0
M  V30 4635 H 440.469 1.69601 -4.69081 0
M  V30 4636 H 439.623 4.04561 -4.52123 0
M  V30 4637 H 438.362 3.52877 -3.36644 0
M  V30 4638 H 437.367 2.02367 -5.11202 0
M  V30 4639 H 438.592 2.56889 -6.28637 0
M  V30 4640 H 436.538 4.34494 -4.91478 0
M  V30 4641 H 436.455 3.77566 -6.54966 0
M  V30 4642 H 437.723 4.87068 -6.08592 0
M  V30 4643 N 441.952 1.55251 0.271103 0
M  V30 4644 C 442.9 1.89054 1.35504 0
M  V30 4645 C 443.894 0.767064 1.51038 0
M  V30 4646 O 445.1 0.951429 1.528 0
M  V30 4647 H 441.475 0.600072 0.45323 0
M  V30 4648 H 443.446 2.79598 1.04247 0
M  V30 4649 C 442.195 2.18068 2.70817 0
M  V30 4650 H 441.518 3.04005 2.59656 0
M  V30 4651 H 442.958 2.4564 3.45597 0
M  V30 4652 C 441.417 0.988901 3.2206 0
M  V30 4653 O 441.947 0.224501 4.01072 0
M  V30 4654 N 440.153 0.786085 2.79766 0
M  V30 4655 H 439.7 1.40937 2.15626 0
M  V30 4656 H 439.658 -0.00969349 3.14399 0
M  V30 4657 N 443.43 -0.535701 1.48216 0
M  V30 4658 C 444.655 -1.32149 1.59848 0
M  V30 4659 C 445.08 -1.86338 0.256842 0
M  V30 4660 O 444.438 -1.64107 -0.770632 0
M  V30 4661 C 444.486 -2.45224 2.64381 0
M  V30 4662 O 443.59 -3.48093 2.21144 0
M  V30 4663 H 442.931 -0.391634 0.536208 0
M  V30 4664 H 445.461 -0.645202 1.94161 0
M  V30 4665 H 445.471 -2.91491 2.85476 0
M  V30 4666 H 444.146 -2.05143 3.61786 0
M  V30 4667 H 442.723 -3.07984 2.10239 0
M  V30 4668 N 444.908 -1.36708 -0.784132 0
M  V30 4669 C 446.154 -1.31426 -1.54451 0
M  V30 4670 C 446.487 0.10476 -1.93917 0
M  V30 4671 O 445.762 1.05934 -1.6312 0
M  V30 4672 C 446.045 -2.24189 -2.818 0
M  V30 4673 C 445.898 -3.74813 -2.48667 0
M  V30 4674 C 447.217 -2.15626 -3.83658 0
M  V30 4675 H 444.336 -0.478739 -0.560337 0
M  V30 4676 H 446.978 -1.67305 -0.900498 0
M  V30 4677 H 445.128 -1.93722 -3.36755 0
M  V30 4678 H 446.8 -4.15823 -1.99722 0
M  V30 4679 H 445.043 -3.93989 -1.81535 0
M  V30 4680 H 445.714 -4.35138 -3.39646 0
M  V30 4681 H 448.19 -2.42456 -3.38163 0
M  V30 4682 H 447.066 -2.82694 -4.70506 0
M  V30 4683 H 447.327 -1.14522 -4.27009 0
M  V30 4684 N 446.386 1.0089 -1.21074 0
M  V30 4685 C 447.635 1.74019 -1.01981 0
M  V30 4686 C 447.948 1.90408 0.447665 0
M  V30 4687 O 449.154 2.60707 0.757906 0
M  V30 4688 C 447.61 3.13026 -1.77603 0
M  V30 4689 C 447.218 3.04623 -3.28495 0
M  V30 4690 C 448.962 3.90312 -1.66904 0
M  V30 4691 C 446.869 4.38685 -3.96623 0
M  V30 4692 H 445.799 0.652422 -0.377971 0
M  V30 4693 H 448.45 1.12755 -1.44771 0
M  V30 4694 H 446.832 3.74878 -1.27604 0
M  V30 4695 H 448.006 2.52032 -3.85767 0
M  V30 4696 H 446.321 2.40827 -3.39693 0
M  V30 4697 H 448.918 4.8951 -2.15138 0
M  V30 4698 H 449.261 4.11558 -0.62658 0
M  V30 4699 H 449.794 3.35104 -2.14359 0
M  V30 4700 H 446.533 4.22641 -5.01054 0
M  V30 4701 H 446.053 4.91252 -3.4414 0
M  V30 4702 H 447.732 5.075 -4.01314 0
M  V30 4703 N 447.864 1.01787 1.20321 0
M  V30 4704 C 449.112 0.706538 1.89347 0
M  V30 4705 C 449.433 -0.766289 1.79313 0
M  V30 4706 O 448.703 -1.55126 1.19635 0
M  V30 4707 H 447.283 0.258348 0.700903 0
M  V30 4708 H 449.945 1.28974 1.46122 0
M  V30 4709 H 449.041 0.991066 2.95946 0
M  V30 4710 N 449.342 -1.36122 0.79427 0
M  V30 4711 C 450.619 -1.93398 0.292685 0
M  V30 4712 C 450.999 -1.72567 -1.21589 0
M  V30 4713 O 450.347 -1.08745 -2.00965 0
M  V30 4714 C 450.557 -3.42099 0.690614 0
M  V30 4715 C 451.905 -4.19231 0.673105 0
M  V30 4716 O 452.929 -3.50559 0.631389 0
M  V30 4717 O 451.788 -5.41732 0.720362 0
M  V30 4718 H 448.882 -0.823712 0.0736693 0
M  V30 4719 H 451.428 -1.45273 0.87714 0
M  V30 4720 H 450.2 -3.50938 1.73085 0
M  V30 4721 H 449.823 -3.97519 0.0803036 0
M  V30 4722 N 450.82 -0.546701 -1.47814 0
M  V30 4723 C 452.097 0.0464413 -1.95545 0
M  V30 4724 C 452.477 1.4962 -1.48919 0
M  V30 4725 O 451.825 2.16752 -0.723232 0
M  V30 4726 C 452.035 -0.0881298 -3.48889 0
M  V30 4727 C 453.383 0.0626059 -4.24554 0
M  V30 4728 O 454.407 -0.0151555 -3.56197 0
M  V30 4729 O 453.266 0.228071 -5.46024 0
M  V30 4730 H 450.36 0.0700004 -0.824032 0
M  V30 4731 H 452.906 -0.612482 -1.58262 0
M  V30 4732 H 451.678 -1.09737 -3.75597 0
M  V30 4733 H 451.301 0.608886 -3.9291 0
M  V30 4734 N 452.299 1.55045 -0.282633 0
M  V30 4735 C 453.539 2.01668 0.333088 0
M  V30 4736 C 453.903 1.1667 1.52486 0
M  V30 4737 O 455.104 1.52907 2.21072 0
M  V30 4738 C 453.375 3.50509 0.698442 0
M  V30 4739 S 454.934 4.19112 1.29963 0
M  V30 4740 H 451.752 0.703468 0.103219 0
M  V30 4741 H 454.354 1.91233 -0.406222 0
M  V30 4742 H 453.058 4.10015 -0.177693 0
M  V30 4743 H 452.589 3.64943 1.46902 0
M  V30 4744 H 454.604 4.23362 2.58803 0
M  V30 4745 N 453.777 0.010035 1.57597 0
M  V30 4746 C 454.687 -0.994226 2.12491 0
M  V30 4747 C 455.703 -1.37013 1.07254 0
M  V30 4748 O 456.879 -1.45542 1.3921 0
M  V30 4749 C 453.944 -2.2642 2.62555 0
M  V30 4750 C 453.005 -1.95049 3.82432 0
M  V30 4751 C 452.238 -3.15991 4.30099 0
M  V30 4752 O 452.461 -4.28015 3.7704 0
M  V30 4753 O 451.395 -2.99403 5.22151 0
M  V30 4754 H 455.221 -0.557549 2.98538 0
M  V30 4755 H 452.806 -0.209413 1.47925 0
M  V30 4756 H 454.688 -3.01009 2.9491 0
M  V30 4757 H 453.363 -2.69306 1.796 0
M  V30 4758 H 452.27 -1.17904 3.55034 0
M  V30 4759 H 453.603 -1.56992 4.66491 0
M  V30 4760 N 455.255 -1.55392 -0.262866 0
M  V30 4761 C 456.504 -1.75679 -0.990943 0
M  V30 4762 C 456.817 -0.57097 -1.87081 0
M  V30 4763 O 458.023 -0.656486 -2.63444 0
M  V30 4764 C 456.479 -3.10964 -1.81188 0
M  V30 4765 C 456.087 -4.37146 -0.980188 0
M  V30 4766 C 457.831 -3.40597 -2.53365 0
M  V30 4767 C 455.738 -5.63466 -1.7961 0
M  V30 4768 H 454.668 -0.654868 -0.373716 0
M  V30 4769 H 457.319 -1.81841 -0.246203 0
M  V30 4770 H 455.701 -2.98867 -2.59797 0
M  V30 4771 H 456.875 -4.60187 -0.237558 0
M  V30 4772 H 455.19 -4.14731 -0.372497 0
M  V30 4773 H 457.787 -4.32186 -3.14833 0
M  V30 4774 H 458.13 -2.6119 -3.24169 0
M  V30 4775 H 458.663 -3.53838 -1.81779 0
M  V30 4776 H 455.402 -6.4565 -1.13209 0
M  V30 4777 H 454.922 -5.44552 -2.51443 0
M  V30 4778 H 456.601 -6.02139 -2.36723 0
M  V30 4779 N 456.733 0.527833 -1.48498 0
M  V30 4780 C 457.958 1.313 -1.60546 0
M  V30 4781 C 458.383 1.86199 -0.26672 0
M  V30 4782 O 457.741 1.64513 0.761918 0
M  V30 4783 C 457.789 2.43818 -2.65678 0
M  V30 4784 O 456.893 3.46916 -2.22987 0
M  V30 4785 H 456.234 0.388784 -0.538277 0
M  V30 4786 H 458.764 0.634896 -1.945 0
M  V30 4787 H 458.774 2.89973 -2.87018 0
M  V30 4788 H 457.449 2.03222 -3.62869 0
M  V30 4789 H 456.026 3.06864 -2.11869 0
M  V30 4790 N 458.211 1.37122 0.776871 0
M  V30 4791 C 459.622 1.28667 1.35284 0
M  V30 4792 C 459.973 -0.0680035 1.96082 0
M  V30 4793 O 459.098 -0.969743 1.93455 0
M  V30 4794 C 459.693 2.32997 2.45963 0
M  V30 4795 C 458.252 2.28191 2.99342 0
M  V30 4796 C 457.399 2.17101 1.72517 0
M  V30 4797 H 460.35 1.47819 0.577527 0
M  V30 4798 H 460.371 1.97366 3.2531 0
M  V30 4799 H 459.883 3.3158 2.01684 0
M  V30 4800 H 457.984 1.33115 3.4801 0
M  V30 4801 H 458.097 3.21397 3.55304 0
M  V30 4802 H 456.461 1.63562 1.95242 0
M  V30 4803 H 457.244 3.17591 1.30348 0
M  V30 4804 N 459.689 -1.00246 1.21608 0
M  V30 4805 C 460.919 -1.77373 1.05935 0
M  V30 4806 C 461.327 -1.85059 -0.393686 0
M  V30 4807 O 460.67 -1.31289 -1.28487 0
M  V30 4808 C 460.732 -3.22705 1.58435 0
M  V30 4809 C 460.396 -3.38591 3.06929 0
M  V30 4810 C 461.393 -3.2667 4.04454 0
M  V30 4811 C 459.078 -3.6395 3.46187 0
M  V30 4812 C 461.072 -3.39877 5.39224 0
M  V30 4813 C 458.759 -3.768 4.81108 0
M  V30 4814 C 459.757 -3.6477 5.77436 0
M  V30 4815 O 459.445 -3.77206 7.09909 0
M  V30 4816 H 459.177 -0.56419 0.372378 0
M  V30 4817 H 461.731 -1.26971 1.61454 0
M  V30 4818 H 459.961 -3.74255 0.973147 0
M  V30 4819 H 461.65 -3.81515 1.38568 0
M  V30 4820 H 462.416 -3.06999 3.75468 0
M  V30 4821 H 458.295 -3.72395 2.71741 0
M  V30 4822 H 461.839 -3.30404 6.14393 0
M  V30 4823 H 457.736 -3.95975 5.09779 0
M  V30 4824 H 458.504 -3.94138 7.17355 0
M  V30 4825 N 461.167 -1.02423 -1.1978 0
M  V30 4826 C 462.395 -0.737456 -1.93311 0
M  V30 4827 C 462.81 0.703023 -1.75223 0
M  V30 4828 O 462.167 1.47761 -1.07112 0
M  V30 4829 C 462.218 -1.0733 -3.45199 0
M  V30 4830 O 461.939 -2.4572 -3.62702 0
M  V30 4831 C 463.44 -0.80866 -4.35862 0
M  V30 4832 H 460.66 -0.2702 -0.614193 0
M  V30 4833 H 463.204 -1.36747 -1.52054 0
M  V30 4834 H 461.359 -0.488545 -3.84307 0
M  V30 4835 H 461.773 -2.58081 -4.56612 0
M  V30 4836 H 463.247 -1.09365 -5.41057 0
M  V30 4837 H 463.724 0.257025 -4.38447 0
M  V30 4838 H 464.33 -1.37592 -4.02428 0
M  V30 4839 N 462.645 1.35699 -0.801477 0
M  V30 4840 C 463.891 1.99208 -0.380022 0
M  V30 4841 C 464.224 1.63445 1.04878 0
M  V30 4842 O 463.499 0.895223 1.72673 0
M  V30 4843 C 463.782 3.55755 -0.557708 0
M  V30 4844 C 463.635 4.01332 -2.03107 0
M  V30 4845 C 464.954 4.40096 0.0197968 0
M  V30 4846 H 462.073 0.723667 -0.139552 0
M  V30 4847 H 464.715 1.60928 -1.01006 0
M  V30 4848 H 462.865 3.88494 -0.0213741 0
M  V30 4849 H 464.537 3.79026 -2.62939 0
M  V30 4850 H 462.78 3.52429 -2.52936 0
M  V30 4851 H 463.451 5.10234 -2.1063 0
M  V30 4852 H 465.927 4.13786 -0.438179 0
M  V30 4853 H 464.803 5.48735 -0.134477 0
M  V30 4854 H 465.064 4.2786 1.11303 0
M  V30 4855 N 464.123 0.554532 1.47522 0
M  V30 4856 C 465.369 0.0295227 2.02779 0
M  V30 4857 C 465.702 -1.31582 1.42828 0
M  V30 4858 O 464.977 -1.85561 0.582872 0
M  V30 4859 C 465.26 -0.0664057 3.60039 0
M  V30 4860 C 465.113 1.30585 4.30427 0
M  V30 4861 C 466.432 -0.781162 4.33112 0
M  V30 4862 H 463.551 0.0122027 0.736899 0
M  V30 4863 H 466.193 0.716305 1.7598 0
M  V30 4864 H 464.343 -0.651307 3.83002 0
M  V30 4865 H 466.015 1.93374 4.18813 0
M  V30 4866 H 464.258 1.88125 3.90886 0
M  V30 4867 H 464.929 1.19147 5.38988 0
M  V30 4868 H 467.405 -0.284565 4.15126 0
M  V30 4869 H 466.281 -0.817237 5.42782 0
M  V30 4870 H 466.542 -1.83672 4.0214 0
M  V30 4871 N 465.601 -1.54893 0.290851 0
M  V30 4872 C 466.511 -2.26812 -0.59945 0
M  V30 4873 C 467.527 -1.29963 -1.15696 0
M  V30 4874 O 468.703 -1.62928 -1.18391 0
M  V30 4875 C 465.768 -2.98716 -1.75982 0
M  V30 4876 C 464.829 -4.1108 -1.2374 0
M  V30 4877 C 464.062 -4.79546 -2.34246 0
M  V30 4878 O 464.285 -4.47309 -3.53936 0
M  V30 4879 O 463.219 -5.67165 -2.01512 0
M  V30 4880 H 467.045 -3.03696 -0.0163561 0
M  V30 4881 H 464.63 -1.49289 0.0576755 0
M  V30 4882 H 466.512 -3.43851 -2.43607 0
M  V30 4883 H 465.187 -2.24737 -2.3297 0
M  V30 4884 H 464.094 -3.70367 -0.527163 0
M  V30 4885 H 465.427 -4.87007 -0.71307 0
M  V30 4886 N 467.08 -0.0183926 -1.57589 0
M  V30 4887 C 468.357 0.700621 -1.82622 0
M  V30 4888 C 468.737 1.90951 -0.90005 0
M  V30 4889 O 468.085 2.28452 0.0469145 0
M  V30 4890 C 468.295 1.08899 -3.31575 0
M  V30 4891 C 469.643 1.48514 -3.9778 0
M  V30 4892 O 470.667 1.18227 -3.36007 0
M  V30 4893 O 469.526 2.04903 -5.06633 0
M  V30 4894 H 466.62 0.342743 -0.752633 0
M  V30 4895 H 469.166 -0.0452548 -1.6964 0
M  V30 4896 H 467.938 0.228113 -3.90635 0
M  V30 4897 H 467.561 1.89338 -3.49624 0
M  V30 4898 N 468.558 1.5553 0.254621 0
M  V30 4899 C 469.521 1.88872 1.29846 0
M  V30 4900 C 470.521 0.764591 1.41459 0
M  V30 4901 O 471.711 1.03265 1.40293 0
M  V30 4902 C 468.843 2.11032 2.67728 0
M  V30 4903 H 470.036 2.82201 1.01502 0
M  V30 4904 H 467.589 1.48303 0.493556 0
M  V30 4905 H 468.324 1.20146 3.01223 0
M  V30 4906 H 468.109 2.92895 2.60682 0
M  V30 4907 H 469.599 2.38038 3.43115 0
M  V30 4908 N 470.036 -0.519951 1.48776 0
M  V30 4909 C 470.984 -1.64443 1.64503 0
M  V30 4910 C 471.978 -1.61501 0.511248 0
M  V30 4911 O 473.184 -1.66238 0.690294 0
M  V30 4912 H 469.559 -0.544776 0.518385 0
M  V30 4913 H 471.53 -1.48325 2.58925 0
M  V30 4914 C 470.279 -3.02673 1.71127 0
M  V30 4915 H 469.602 -3.05635 2.57735 0
M  V30 4916 H 471.042 -3.80941 1.86172 0
M  V30 4917 C 469.501 -3.33854 0.452032 0
M  V30 4918 O 470.031 -3.99385 -0.430678 0
M  V30 4919 N 468.237 -2.88825 0.32069 0
M  V30 4920 H 467.784 -2.35674 1.03998 0
M  V30 4921 H 467.742 -3.10056 -0.520814 0
M  V30 4922 N 471.514 -1.37532 -0.769588 0
M  V30 4923 C 472.444 -1.36172 -1.89682 0
M  V30 4924 C 473.425 -0.23001 -1.68538 0
M  V30 4925 O 474.61 -0.43069 -1.89364 0
M  V30 4926 C 471.74 -1.1701 -3.26995 0
M  V30 4927 C 470.694 -2.27216 -3.62708 0
M  V30 4928 C 470.02 -1.93174 -4.98586 0
M  V30 4929 C 471.32 -3.6941 -3.69234 0
M  V30 4930 H 473.014 -2.30499 -1.91078 0
M  V30 4931 H 470.56 -1.10953 -0.917902 0
M  V30 4932 H 472.513 -1.14688 -4.05493 0
M  V30 4933 H 471.237 -0.191395 -3.26039 0
M  V30 4934 H 469.896 -2.28697 -2.86519 0
M  V30 4935 H 469.544 -0.938281 -4.94171 0
M  V30 4936 H 469.244 -2.66973 -5.23449 0
M  V30 4937 H 470.768 -1.92443 -5.79481 0
M  V30 4938 H 472.182 -3.70047 -4.37879 0
M  V30 4939 H 470.579 -4.4228 -4.05597 0
M  V30 4940 H 471.649 -4.0288 -2.69844 0
M  V30 4941 N 472.992 0.995999 -1.22138 0
M  V30 4942 C 473.955 2.06711 -0.990109 0
M  V30 4943 C 474.955 1.60744 0.0422978 0
M  V30 4944 O 476.145 1.73095 -0.195895 0
M  V30 4945 C 473.277 3.37288 -0.49491 0
M  V30 4946 H 474.47 2.28661 -1.94047 0
M  V30 4947 H 472.023 1.16711 -1.03963 0
M  V30 4948 H 472.758 3.21022 0.459948 0
M  V30 4949 H 472.543 3.71986 -1.23971 0
M  V30 4950 H 474.033 4.16103 -0.353253 0
M  V30 4951 N 474.47 1.03057 1.19235 0
M  V30 4952 C 475.433 0.617418 2.20727 0
M  V30 4953 C 476.433 -0.319856 1.57587 0
M  V30 4954 O 477.623 -0.106633 1.73873 0
M  V30 4955 C 474.755 -0.096296 3.40764 0
M  V30 4956 H 475.948 1.51544 2.58794 0
M  V30 4957 H 473.501 0.821949 1.32942 0
M  V30 4958 H 474.236 -1.00859 3.08217 0
M  V30 4959 H 474.021 0.577217 3.87828 0
M  V30 4960 H 475.511 -0.372219 4.15938 0
M  V30 4961 N 475.948 -1.35272 0.808662 0
M  V30 4962 C 476.911 -2.28082 0.226093 0
M  V30 4963 C 477.911 -1.49673 -0.587762 0
M  V30 4964 O 479.101 -1.69404 -0.405943 0
M  V30 4965 C 476.233 -3.33955 -0.684596 0
M  V30 4966 H 477.426 -2.81116 1.04469 0
M  V30 4967 H 474.979 -1.45162 0.579466 0
M  V30 4968 H 475.714 -2.86111 -1.5268 0
M  V30 4969 H 475.499 -3.91965 -0.102699 0
M  V30 4970 H 476.989 -4.03219 -1.08646 0
M  V30 4971 N 477.426 -0.562348 -1.47226 0
M  V30 4972 C 478.666 -0.0426374 -2.04356 0
M  V30 4973 C 479.03 1.28487 -1.42671 0
M  V30 4974 O 480.231 1.89259 -1.90878 0
M  V30 4975 C 478.502 0.0433826 -3.57374 0
M  V30 4976 S 480.061 0.508472 -4.35844 0
M  V30 4977 H 476.879 -0.0276234 -0.710463 0
M  V30 4978 H 479.481 -0.750245 -1.80531 0
M  V30 4979 H 478.185 -0.927072 -3.99792 0
M  V30 4980 H 477.716 0.774387 -3.85703 0
M  V30 4981 H 479.731 1.76719 -4.63665 0
M  V30 4982 N 478.904 1.54736 -0.299062 0
M  V30 4983 C 480.132 2.04512 0.313447 0
M  V30 4984 C 480.547 1.17643 1.47667 0
M  V30 4985 O 479.904 0.20164 1.81383 0
M  V30 4986 C 479.955 3.53171 0.771542 0
M  V30 4987 O 479.676 4.36736 -0.345379 0
M  V30 4988 C 481.177 4.18936 1.4494 0
M  V30 4989 H 478.397 0.667507 0.0683784 0
M  V30 4990 H 480.941 1.99752 -0.438129 0
M  V30 4991 H 479.096 3.58298 1.47314 0
M  V30 4992 H 479.51 5.24499 0.0109219 0
M  V30 4993 H 480.984 5.24482 1.72111 0
M  V30 4994 H 481.461 3.68554 2.38883 0
M  V30 4995 H 482.067 4.17879 0.791028 0
M  V30 4996 N 480.382 0.0267497 1.57577 0
M  V30 4997 C 481.631 -0.651736 1.9088 0
M  V30 4998 C 481.944 -1.73427 0.904576 0
M  V30 4999 O 483.15 -2.46923 1.12877 0
M  V30 5000 C 481.606 -1.21048 3.38933 0
M  V30 5001 C 481.214 -0.161362 4.47709 0
M  V30 5002 C 482.958 -1.86562 3.81307 0
M  V30 5003 C 480.865 -0.731611 5.86857 0
M  V30 5004 H 479.795 -0.247198 0.712326 0
M  V30 5005 H 482.446 0.0916641 1.83271 0
M  V30 5006 H 480.828 -2.00542 3.41466 0
M  V30 5007 H 482.002 0.61094 4.56732 0
M  V30 5008 H 480.317 0.394877 4.14523 0
M  V30 5009 H 482.914 -2.30178 4.8262 0
M  V30 5010 H 483.257 -2.70735 3.16241 0
M  V30 5011 H 483.79 -1.13762 3.81186 0
M  V30 5012 H 480.529 0.0719329 6.55461 0
M  V30 5013 H 480.049 -1.47245 5.81445 0
M  V30 5014 H 481.728 -1.22208 6.35354 0
M  V30 5015 N 481.861 -1.55662 -0.24637 0
M  V30 5016 C 483.109 -1.77168 -0.972411 0
M  V30 5017 C 483.43 -0.590827 -1.85834 0
M  V30 5018 O 482.7 0.393365 -1.9191 0
M  V30 5019 H 481.28 -0.653405 -0.362038 0
M  V30 5020 H 483.942 -1.93101 -0.264189 0
M  V30 5021 H 483.038 -2.68335 -1.59382 0
M  V30 5022 N 483.339 0.512053 -1.4905 0
M  V30 5023 C 484.75 1.09376 -1.51307 0
M  V30 5024 C 485.101 1.94 -0.292971 0
M  V30 5025 O 484.226 2.07965 0.598277 0
M  V30 5026 C 484.821 1.99031 -2.74176 0
M  V30 5027 C 483.38 2.52385 -2.79247 0
M  V30 5028 C 482.527 1.29749 -2.45073 0
M  V30 5029 H 485.478 0.296467 -1.55906 0
M  V30 5030 H 485.499 2.83569 -2.53711 0
M  V30 5031 H 485.011 1.37412 -3.62959 0
M  V30 5032 H 483.112 3.17673 -1.94716 0
M  V30 5033 H 483.225 2.90293 -3.81139 0
M  V30 5034 H 481.589 1.61912 -1.96612 0
M  V30 5035 H 482.372 0.698555 -3.36118 0
M  V30 5036 N 484.817 1.37938 0.762283 0
M  V30 5037 C 486.064 1.33668 1.52115 0
M  V30 5038 C 486.392 -0.0759538 1.94352 0
M  V30 5039 O 485.647 -1.05121 1.6507 0
M  V30 5040 C 485.946 2.23042 2.79261 0
M  V30 5041 C 485.612 3.71159 2.56031 0
M  V30 5042 C 484.274 4.11523 2.49404 0
M  V30 5043 C 486.626 4.64955 2.35513 0
M  V30 5044 C 483.954 5.43784 2.20263 0
M  V30 5045 C 486.306 5.97464 2.07894 0
M  V30 5046 C 484.97 6.36922 1.99718 0
M  V30 5047 H 484.24 0.489127 0.556629 0
M  V30 5048 H 486.887 1.70224 0.877262 0
M  V30 5049 H 485.192 1.79512 3.48256 0
M  V30 5050 H 486.889 2.17047 3.37182 0
M  V30 5051 H 483.479 3.39153 2.62056 0
M  V30 5052 H 487.663 4.34623 2.39617 0
M  V30 5053 H 482.919 5.73307 2.12435 0
M  V30 5054 H 487.093 6.6969 1.91019 0
M  V30 5055 H 484.72 7.39331 1.76902 0
M  V30 5056 N 486.295 -0.989507 1.22664 0
M  V30 5057 C 487.258 -2.06183 1.00106 0
M  V30 5058 C 488.258 -1.60765 -0.0337726 0
M  V30 5059 O 489.448 -1.72989 0.205072 0
M  V30 5060 C 486.58 -3.37021 0.51279 0
M  V30 5061 H 487.773 -2.27629 1.95256 0
M  V30 5062 H 485.326 -1.16158 1.0458 0
M  V30 5063 H 486.061 -3.21261 -0.442917 0
M  V30 5064 H 485.846 -3.71323 1.25942 0
M  V30 5065 H 487.336 -4.1591 0.375315 0
M  V30 5066 N 487.773 -1.03688 -1.18687 0
M  V30 5067 C 489.189 -0.755413 -1.4059 0
M  V30 5068 C 489.389 0.656659 -1.905 0
M  V30 5069 O 488.445 1.42144 -2.08689 0
M  V30 5070 C 489.758 -1.7983 -2.41001 0
M  V30 5071 C 491.306 -1.81877 -2.54735 0
M  V30 5072 C 491.781 -2.85148 -3.58406 0
M  V30 5073 N 493.272 -2.84015 -3.6591 0
M  V30 5074 C 494.007 -3.60573 -4.45841 0
M  V30 5075 N 493.503 -4.46871 -5.29413 0
M  V30 5076 N 495.296 -3.49079 -4.40568 0
M  V30 5077 H 487.447 -1.94818 -0.846148 0
M  V30 5078 H 489.71 -0.842727 -0.434184 0
M  V30 5079 H 489.416 -2.81097 -2.1137 0
M  V30 5080 H 489.29 -1.62727 -3.40294 0
M  V30 5081 H 491.677 -0.812836 -2.83685 0
M  V30 5082 H 491.758 -2.03057 -1.55568 0
M  V30 5083 H 491.402 -3.85918 -3.30197 0
M  V30 5084 H 491.332 -2.61224 -4.57241 0
M  V30 5085 H 493.823 -2.21431 -3.0623 0
M  V30 5086 H 494.136 -5.02007 -5.87545 0
M  V30 5087 H 492.481 -4.5094 -5.28846 0
M  V30 5088 H 495.672 -2.81066 -3.74325 0
M  V30 5089 H 495.845 -4.08994 -5.02621 0
M  V30 5090 N 489.251 1.34841 -0.815825 0
M  V30 5091 C 490.181 2.32187 -0.247298 0
M  V30 5092 C 491.162 1.5791 0.632344 0
M  V30 5093 O 492.347 1.8593 0.560698 0
M  V30 5094 C 489.477 3.42122 0.597466 0
M  V30 5095 C 488.431 4.27602 -0.184446 0
M  V30 5096 C 487.757 5.28942 0.782609 0
M  V30 5097 C 489.057 5.03502 -1.38865 0
M  V30 5098 H 490.751 2.79985 -1.06061 0
M  V30 5099 H 488.297 1.34611 -0.511461 0
M  V30 5100 H 490.25 4.09232 1.00533 0
M  V30 5101 H 488.974 2.92956 1.44376 0
M  V30 5102 H 487.633 3.62085 -0.573592 0
M  V30 5103 H 487.281 4.7604 1.62466 0
M  V30 5104 H 486.981 5.87008 0.263695 0
M  V30 5105 H 488.505 5.98922 1.18848 0
M  V30 5106 H 489.919 5.63506 -1.05518 0
M  V30 5107 H 488.316 5.71108 -1.8427 0
M  V30 5108 H 489.386 4.33608 -2.17054 0
M  V30 5109 N 490.729 0.570148 1.46925 0
M  V30 5110 C 492.145 0.23087 1.57921 0
M  V30 5111 C 492.345 -1.26676 1.56702 0
M  V30 5112 O 491.401 -2.04774 1.47729 0
M  V30 5113 C 492.714 0.868973 2.8787 0
M  V30 5114 C 494.262 0.841397 3.01479 0
M  V30 5115 C 494.737 1.45881 4.34146 0
M  V30 5116 N 496.228 1.42258 4.40814 0
M  V30 5117 C 496.963 1.8698 5.42057 0
M  V30 5118 N 496.459 2.39618 6.50042 0
M  V30 5119 N 498.252 1.77972 5.33181 0
M  V30 5120 H 490.403 1.54301 1.45962 0
M  V30 5121 H 492.666 0.644224 0.69547 0
M  V30 5122 H 492.372 1.922 2.94537 0
M  V30 5123 H 492.246 0.369682 3.75384 0
M  V30 5124 H 494.633 -0.202973 2.94401 0
M  V30 5125 H 494.714 1.37858 2.15474 0
M  V30 5126 H 494.358 2.50231 4.4198 0
M  V30 5127 H 494.288 0.896958 5.18905 0
M  V30 5128 H 496.779 1.03768 3.63374 0
M  V30 5129 H 497.092 2.71633 7.23488 0
M  V30 5130 H 495.437 2.43636 6.50897 0
M  V30 5131 H 498.628 1.36617 4.4772 0
M  V30 5132 H 498.801 2.13143 6.11943 0
M  V30 5133 N 492.207 -1.54576 0.307264 0
M  V30 5134 C 493.618 -1.8579 -0.184121 0
M  V30 5135 C 493.969 -1.22914 -1.52927 0
M  V30 5136 O 493.094 -0.529126 -2.09831 0
M  V30 5137 C 493.689 -3.37081 -0.340862 0
M  V30 5138 C 492.248 -3.68304 -0.776465 0
M  V30 5139 C 491.395 -2.77076 0.111503 0
M  V30 5140 H 494.346 -1.49656 0.528078 0
M  V30 5141 H 494.367 -3.61922 -1.17443 0
M  V30 5142 H 493.879 -3.82815 0.638309 0
M  V30 5143 H 491.98 -3.28092 -1.76596 0
M  V30 5144 H 492.093 -4.75434 -0.591512 0
M  V30 5145 H 490.457 -2.51374 -0.410256 0
M  V30 5146 H 491.24 -3.25632 1.08714 0
M  V30 5147 N 493.685 -0.035106 -1.57561 0
M  V30 5148 C 494.933 0.64096 -1.91667 0
M  V30 5149 C 495.254 1.72323 -0.912681 0
M  V30 5150 O 494.524 1.95849 0.0449089 0
M  V30 5151 H 493.104 0.239743 -0.707483 0
M  V30 5152 H 495.766 -0.084321 -1.94718 0
M  V30 5153 H 494.862 1.08987 -2.92452 0
M  V30 5154 N 495.163 1.55791 0.238111 0
M  V30 5155 C 496.126 1.90239 1.27835 0
M  V30 5156 C 497.126 0.779552 1.4064 0
M  V30 5157 O 498.316 1.04747 1.3919 0
M  V30 5158 C 495.448 2.13859 2.65475 0
M  V30 5159 H 496.641 2.83262 0.985034 0
M  V30 5160 H 494.194 1.48818 0.477799 0
M  V30 5161 H 494.929 1.23334 2.99932 0
M  V30 5162 H 494.714 2.95643 2.57561 0
M  V30 5163 H 496.204 2.41664 3.40571 0
M  V30 5164 N 496.642 -0.504142 1.49319 0
M  V30 5165 C 497.552 -1.63248 1.68486 0
M  V30 5166 C 498.568 -1.64488 0.567432 0
M  V30 5167 O 499.744 -1.82966 0.841749 0
M  V30 5168 C 496.809 -2.99627 1.74426 0
M  V30 5169 C 495.87 -3.09039 2.97982 0
M  V30 5170 C 495.103 -4.38913 3.0363 0
M  V30 5171 O 495.326 -5.27528 2.16958 0
M  V30 5172 O 494.26 -4.53231 3.96062 0
M  V30 5173 H 498.086 -1.50008 2.64067 0
M  V30 5174 H 495.671 -0.680086 1.33023 0
M  V30 5175 H 497.553 -3.80689 1.80705 0
M  V30 5176 H 496.228 -3.13136 0.820233 0
M  V30 5177 H 495.135 -2.27177 2.97223 0
M  V30 5178 H 496.468 -3.00456 3.89855 0
M  V30 5179 N 498.12 -1.38341 -0.754957 0
M  V30 5180 C 499.05 -1.38176 -1.88227 0
M  V30 5181 C 500.031 -0.247873 -1.68284 0
M  V30 5182 O 501.216 -0.45075 -1.88896 0
M  V30 5183 C 498.346 -1.20471 -3.25736 0
M  V30 5184 C 497.3 -2.3105 -3.60278 0
M  V30 5185 C 496.626 -1.98452 -4.96509 0
M  V30 5186 C 497.926 -3.73305 -3.65295 0
M  V30 5187 H 499.62 -2.32512 -1.88622 0
M  V30 5188 H 497.166 -1.1192 -0.906082 0
M  V30 5189 H 499.119 -1.18982 -4.04254 0
M  V30 5190 H 497.843 -0.225965 -3.25817 0
M  V30 5191 H 496.502 -2.31723 -2.84078 0
M  V30 5192 H 496.15 -0.990641 -4.93148 0
M  V30 5193 H 495.85 -2.7251 -5.20588 0
M  V30 5194 H 497.374 -1.98578 -5.77407 0
M  V30 5195 H 498.788 -3.7467 -4.3393 0
M  V30 5196 H 497.185 -4.46557 -4.00883 0
M  V30 5197 H 498.255 -4.05719 -2.65556 0
M  V30 5198 N 499.598 0.982988 -1.23187 0
M  V30 5199 C 500.528 2.09301 -1.03515 0
M  V30 5200 C 501.509 1.70035 0.0471136 0
M  V30 5201 O 502.694 1.93847 -0.117029 0
M  V30 5202 C 499.824 3.4167 -0.622791 0
M  V30 5203 C 498.778 3.94828 -1.65211 0
M  V30 5204 C 498.104 5.23362 -1.09527 0
M  V30 5205 C 499.404 4.2439 -3.04451 0
M  V30 5206 H 501.098 2.26016 -1.96359 0
M  V30 5207 H 498.644 1.08611 -0.945501 0
M  V30 5208 H 500.597 4.18746 -0.472233 0
M  V30 5209 H 499.321 3.24811 0.341329 0
M  V30 5210 H 497.98 3.19895 -1.79061 0
M  V30 5211 H 497.628 5.02852 -0.122211 0
M  V30 5212 H 497.328 5.59895 -1.783 0
M  V30 5213 H 498.852 6.03062 -0.956511 0
M  V30 5214 H 500.266 4.92225 -2.93917 0
M  V30 5215 H 498.663 4.72118 -3.70438 0
M  V30 5216 H 499.733 3.31765 -3.53638 0
M  V30 5217 N 501.076 1.04316 1.18135 0
M  V30 5218 C 501.986 0.646876 2.25505 0
M  V30 5219 C 503.002 -0.328008 1.7088 0
M  V30 5220 O 504.178 -0.182309 2.00573 0
M  V30 5221 C 501.243 0.0185664 3.46695 0
M  V30 5222 C 500.304 1.04277 4.16443 0
M  V30 5223 C 499.537 0.444352 5.31847 0
M  V30 5224 O 499.76 -0.748735 5.65465 0
M  V30 5225 O 498.694 1.17428 5.90334 0
M  V30 5226 H 502.52 1.54147 2.61672 0
M  V30 5227 H 500.105 0.814188 1.25265 0
M  V30 5228 H 501.987 -0.331068 4.20097 0
M  V30 5229 H 500.662 -0.849814 3.12346 0
M  V30 5230 H 499.569 1.44425 3.45098 0
M  V30 5231 H 500.902 1.882 4.54798 0
M  V30 5232 N 502.554 -1.34406 0.822964 0
M  V30 5233 C 503.802 -1.97892 0.410245 0
M  V30 5234 C 504.123 -1.65567 -1.03017 0
M  V30 5235 O 503.393 -0.94642 -1.71522 0
M  V30 5236 H 501.973 -0.732049 0.148707 0
M  V30 5237 H 504.635 -1.64043 1.05242 0
M  V30 5238 H 503.731 -3.07579 0.529284 0
M  V30 5239 N 504.032 -0.577932 -1.46621 0
M  V30 5240 C 504.995 0.147805 -2.28723 0
M  V30 5241 C 505.995 0.823325 -1.38123 0
M  V30 5242 O 507.185 0.676011 -1.60548 0
M  V30 5243 C 504.317 1.21853 -3.18378 0
M  V30 5244 H 505.51 -0.573654 -2.94362 0
M  V30 5245 H 503.063 -0.335703 -1.52652 0
M  V30 5246 H 503.798 1.97173 -2.57475 0
M  V30 5247 H 503.583 0.738714 -3.85078 0
M  V30 5248 H 505.073 1.72768 -3.80186 0
M  V30 5249 N 505.51 1.54411 -0.315457 0
M  V30 5250 C 506.46 2.20772 0.569549 0
M  V30 5251 C 507.444 1.18551 1.08787 0
M  V30 5252 O 508.636 1.44213 1.02624 0
M  V30 5253 C 505.765 2.96293 1.73394 0
M  V30 5254 C 504.851 4.05844 1.2309 0
M  V30 5255 N 505.242 5.03822 0.446927 0
M  V30 5256 C 503.54 4.19648 1.51035 0
M  V30 5257 C 504.241 5.8143 0.17725 0
M  V30 5258 N 503.217 5.38245 0.761118 0
M  V30 5259 H 507.019 2.93877 -0.0368076 0
M  V30 5260 H 504.533 1.61949 -0.120915 0
M  V30 5261 H 506.53 3.42313 2.37965 0
M  V30 5262 H 505.19 2.24708 2.34386 0
M  V30 5263 H 506.201 5.17821 0.0905027 0
M  V30 5264 H 502.878 3.59274 2.1267 0
M  V30 5265 H 504.268 6.70369 -0.45335 0
M  V30 5266 N 506.988 0.0434614 1.5754 0
M  V30 5267 C 508.234 -0.632971 1.92669 0
M  V30 5268 C 508.567 -1.70947 0.921446 0
M  V30 5269 O 507.842 -1.94426 -0.0537202 0
M  V30 5270 C 508.125 -1.23619 3.38216 0
M  V30 5271 C 507.978 -0.168274 4.49485 0
M  V30 5272 C 509.297 -2.15008 3.84005 0
M  V30 5273 H 506.416 -0.228629 0.700641 0
M  V30 5274 H 509.058 0.103651 1.89717 0
M  V30 5275 H 507.208 -1.864 3.40863 0
M  V30 5276 H 508.88 0.463196 4.58969 0
M  V30 5277 H 507.123 0.504581 4.30855 0
M  V30 5278 H 507.794 -0.630218 5.48391 0
M  V30 5279 H 510.27 -1.62198 3.83185 0
M  V30 5280 H 509.146 -2.54161 4.86511 0
M  V30 5281 H 509.407 -3.04707 3.20322 0
M  V30 5282 N 508.466 -1.55915 -0.229846 0
M  V30 5283 C 509.714 -1.7819 -0.953565 0
M  V30 5284 C 510.035 -0.610504 -1.85197 0
M  V30 5285 O 509.305 0.372988 -1.92316 0
M  V30 5286 H 507.885 -0.657208 -0.355087 0
M  V30 5287 H 510.547 -1.9337 -0.243693 0
M  V30 5288 H 509.643 -2.70011 -1.56527 0
M  V30 5289 N 509.944 0.496216 -1.49584 0
M  V30 5290 C 510.892 1.61805 -1.67098 0
M  V30 5291 C 511.886 1.60667 -0.536877 0
M  V30 5292 O 513.092 1.65118 -0.716654 0
M  V30 5293 H 509.467 0.53646 -0.526986 0
M  V30 5294 H 511.438 1.44187 -2.61252 0
M  V30 5295 C 510.187 2.99912 -1.75921 0
M  V30 5296 H 509.51 3.01496 -2.62565 0
M  V30 5297 H 510.95 3.77931 -1.92209 0
M  V30 5298 C 509.409 3.33092 -0.505088 0
M  V30 5299 O 509.939 4.00019 0.367085 0
M  V30 5300 N 508.145 2.88278 -0.366599 0
M  V30 5301 H 507.692 2.33989 -1.07735 0
M  V30 5302 H 507.65 3.10846 0.47142 0
M  V30 5303 N 511.423 1.38739 0.74761 0
M  V30 5304 C 512.67 1.35274 1.50689 0
M  V30 5305 C 512.998 -0.0553359 1.94421 0
M  V30 5306 O 512.253 -1.03365 1.66175 0
M  V30 5307 C 512.552 2.25992 2.7688 0
M  V30 5308 C 512.218 3.73854 2.5208 0
M  V30 5309 C 510.88 4.14145 2.45025 0
M  V30 5310 C 513.232 4.67427 2.30568 0
M  V30 5311 C 510.56 5.4609 2.14483 0
M  V30 5312 C 512.912 5.99635 2.01545 0
M  V30 5313 C 511.576 6.39004 1.92951 0
M  V30 5314 H 510.846 0.495003 0.55141 0
M  V30 5315 H 513.493 1.71145 0.859158 0
M  V30 5316 H 511.798 1.83196 3.46333 0
M  V30 5317 H 513.495 2.20611 3.34861 0
M  V30 5318 H 510.085 3.41913 2.58444 0
M  V30 5319 H 514.269 4.3714 2.34994 0
M  V30 5320 H 509.525 5.75528 2.06342 0
M  V30 5321 H 513.699 6.71678 1.83906 0
M  V30 5322 H 511.326 7.41165 1.6905 0
M  V30 5323 N 512.901 -0.976442 1.23707 0
M  V30 5324 C 514.147 -1.72081 1.07312 0
M  V30 5325 C 514.48 -1.90275 -0.388476 0
M  V30 5326 O 513.755 -1.4579 -1.28746 0
M  V30 5327 C 514.038 -3.11675 1.80363 0
M  V30 5328 C 513.891 -3.01027 3.3422 0
M  V30 5329 C 515.21 -4.1117 1.5693 0
M  V30 5330 H 512.329 -0.624583 0.391236 0
M  V30 5331 H 514.971 -1.13649 1.52263 0
M  V30 5332 H 513.121 -3.61559 1.42153 0
M  V30 5333 H 514.793 -2.58637 3.81975 0
M  V30 5334 H 513.036 -2.3744 3.63049 0
M  V30 5335 H 513.707 -3.9988 3.80525 0
M  V30 5336 H 516.183 -3.7011 1.90151 0
M  V30 5337 H 515.059 -5.06928 2.10513 0
M  V30 5338 H 515.32 -4.392 0.505548 0
M  V30 5339 N 514.379 -1.04941 -1.1758 0
M  V30 5340 C 515.289 -0.658826 -2.25159 0
M  V30 5341 C 516.305 0.318941 -1.71052 0
M  V30 5342 O 517.481 0.171669 -2.00667 0
M  V30 5343 C 514.546 -0.0369522 -3.4668 0
M  V30 5344 C 513.607 -1.06484 -4.15884 0
M  V30 5345 C 512.84 -0.472551 -5.31604 0
M  V30 5346 O 513.063 0.718736 -5.65854 0
M  V30 5347 O 511.997 -1.20557 -5.89703 0
M  V30 5348 H 515.823 -1.55533 -2.60851 0
M  V30 5349 H 513.408 -0.820819 -1.24832 0
M  V30 5350 H 515.29 0.308784 -4.20267 0
M  V30 5351 H 513.965 0.833238 -3.12792 0
M  V30 5352 H 512.872 -1.46253 -3.44327 0
M  V30 5353 H 514.205 -1.9061 -4.53794 0
M  V30 5354 N 515.857 1.33968 -0.830081 0
M  V30 5355 C 516.79 2.27303 -0.202182 0
M  V30 5356 C 517.768 1.49235 0.645581 0
M  V30 5357 O 518.952 1.78433 0.607762 0
M  V30 5358 C 516.079 3.31025 0.716932 0
M  V30 5359 C 515.125 4.26466 -0.0542271 0
M  V30 5360 S 515.958 5.16707 -1.40622 0
M  V30 5361 C 517.114 6.23962 -0.492167 0
M  V30 5362 H 517.347 2.8021 -0.99346 0
M  V30 5363 H 514.88 1.41124 -0.626359 0
M  V30 5364 H 516.838 3.91271 1.24165 0
M  V30 5365 H 515.499 2.76951 1.4818 0
M  V30 5366 H 514.692 4.99858 0.644785 0
M  V30 5367 H 514.294 3.7051 -0.509722 0
M  V30 5368 H 516.586 6.76774 0.31347 0
M  V30 5369 H 517.529 6.97927 -1.19599 0
M  V30 5370 H 517.937 5.64447 -0.0774176 0
M  V30 5371 N 517.335 0.585699 1.46312 0
M  V30 5372 C 518.282 -0.145835 2.30339 0
M  V30 5373 C 519.252 -0.881215 1.40797 0
M  V30 5374 O 520.437 -0.871293 1.69744 0
M  V30 5375 C 517.577 -1.15161 3.25318 0
M  V30 5376 C 516.69 -0.419367 4.2996 0
M  V30 5377 C 515.825 -1.41293 5.12064 0
M  V30 5378 C 514.864 -0.667261 6.08452 0
M  V30 5379 N 514.001 -1.60903 6.83414 0
M  V30 5380 H 518.841 0.576755 2.92365 0
M  V30 5381 H 516.378 0.296237 1.44086 0
M  V30 5382 H 518.336 -1.74763 3.78832 0
M  V30 5383 H 516.966 -1.84188 2.65094 0
M  V30 5384 H 516.018 0.291751 3.7928 0
M  V30 5385 H 517.33 0.163433 4.98532 0
M  V30 5386 H 516.484 -2.08167 5.6987 0
M  V30 5387 H 515.223 -2.02966 4.43459 0
M  V30 5388 H 514.228 0.0152356 5.49798 0
M  V30 5389 H 515.453 -0.0558817 6.79077 0
M  V30 5390 H 513.399 -2.21381 6.17516 0
M  V30 5391 H 513.316 -1.07911 7.48259 0
M  V30 5392 H 514.584 -2.26802 7.45775 0
M  V30 5393 N 518.813 -1.54241 0.323641 0
M  V30 5394 C 519.76 -2.24339 -0.542277 0
M  V30 5395 C 520.73 -1.23421 -1.11159 0
M  V30 5396 O 521.915 -1.52104 -1.15192 0
M  V30 5397 C 519.055 -3.00479 -1.69725 0
M  V30 5398 C 518.168 -4.16214 -1.15716 0
M  V30 5399 C 517.303 -4.79884 -2.27783 0
M  V30 5400 C 516.342 -5.87722 -1.71023 0
M  V30 5401 N 515.479 -6.45254 -2.76752 0
M  V30 5402 H 520.319 -2.97935 0.0620613 0
M  V30 5403 H 517.856 -1.47039 0.0423993 0
M  V30 5404 H 519.814 -3.42869 -2.3769 0
M  V30 5405 H 518.444 -2.29217 -2.27288 0
M  V30 5406 H 517.496 -3.78605 -0.369063 0
M  V30 5407 H 518.808 -4.93838 -0.701832 0
M  V30 5408 H 517.962 -5.25243 -3.03651 0
M  V30 5409 H 516.701 -4.01641 -2.76652 0
M  V30 5410 H 515.706 -5.41765 -0.936518 0
M  V30 5411 H 516.931 -6.67863 -1.2303 0
M  V30 5412 H 514.877 -5.69884 -3.24912 0
M  V30 5413 H 514.794 -7.18292 -2.35782 0
M  V30 5414 H 516.062 -6.95269 -3.5245 0
M  V30 5415 N 520.291 -0.0518155 -1.57515 0
M  V30 5416 C 521.254 0.907547 -2.10467 0
M  V30 5417 C 522.254 1.23947 -1.02439 0
M  V30 5418 O 523.444 1.17604 -1.2851 0
M  V30 5419 C 520.576 2.21723 -2.58944 0
M  V30 5420 H 521.769 0.44851 -2.96527 0
M  V30 5421 H 519.322 0.196598 -1.55059 0
M  V30 5422 H 520.057 2.72206 -1.76279 0
M  V30 5423 H 519.842 1.98935 -3.37886 0
M  V30 5424 H 521.332 2.90441 -3.00056 0
M  V30 5425 N 521.769 1.56035 0.221574 0
M  V30 5426 C 523.185 1.49026 0.571271 0
M  V30 5427 C 523.385 0.746912 1.87146 0
M  V30 5428 O 522.441 0.286566 2.50869 0
M  V30 5429 C 523.754 2.93579 0.650522 0
M  V30 5430 C 525.302 3.04099 0.741151 0
M  V30 5431 C 525.777 4.5001 0.851747 0
M  V30 5432 N 527.268 4.54053 0.915968 0
M  V30 5433 C 528.003 5.64232 1.02125 0
M  V30 5434 N 527.499 6.84164 1.09049 0
M  V30 5435 N 529.292 5.52084 1.05639 0
M  V30 5436 H 521.443 2.02791 -0.63162 0
M  V30 5437 H 523.706 0.921736 -0.221602 0
M  V30 5438 H 523.412 3.50912 -0.235253 0
M  V30 5439 H 523.286 3.45476 1.51413 0
M  V30 5440 H 525.673 2.4683 1.61737 0
M  V30 5441 H 525.754 2.55371 -0.148128 0
M  V30 5442 H 525.398 5.07896 -0.0200117 0
M  V30 5443 H 525.328 4.96444 1.75644 0
M  V30 5444 H 527.819 3.67683 0.872782 0
M  V30 5445 H 528.132 7.63883 1.1706 0
M  V30 5446 H 526.477 6.86875 1.05962 0
M  V30 5447 H 529.668 4.57317 0.998953 0
M  V30 5448 H 529.841 6.37983 1.13498 0
M  V30 5449 N 523.247 -0.488276 1.49845 0
M  V30 5450 C 524.177 -1.59675 1.70371 0
M  V30 5451 C 525.158 -1.60878 0.552473 0
M  V30 5452 O 526.343 -1.77417 0.78973 0
M  V30 5453 C 523.473 -2.98098 1.782 0
M  V30 5454 C 522.427 -3.11761 2.93239 0
M  V30 5455 C 521.753 -4.51661 2.86193 0
M  V30 5456 C 523.053 -2.90589 4.33999 0
M  V30 5457 H 524.747 -1.42752 2.63177 0
M  V30 5458 H 522.293 -0.685317 1.26647 0
M  V30 5459 H 524.246 -3.75555 1.91144 0
M  V30 5460 H 522.97 -3.16138 0.820018 0
M  V30 5461 H 521.629 -2.36732 2.79917 0
M  V30 5462 H 521.277 -4.66595 1.87877 0
M  V30 5463 H 520.977 -4.61742 3.63412 0
M  V30 5464 H 522.501 -5.31162 3.01163 0
M  V30 5465 H 523.915 -3.57807 4.47936 0
M  V30 5466 H 522.312 -3.1213 5.12538 0
M  V30 5467 H 523.382 -1.86595 4.4756 0
M  V30 5468 N 524.725 -1.39134 -0.740242 0
M  V30 5469 C 525.973 -1.35803 -1.49673 0
M  V30 5470 C 526.294 0.0470897 -1.94943 0
M  V30 5471 O 525.564 0.997347 -1.68611 0
M  V30 5472 H 524.144 -0.499736 -0.555224 0
M  V30 5473 H 526.806 -1.73947 -0.879107 0
M  V30 5474 H 525.902 -2.0174 -2.38133 0
M  V30 5475 N 526.204 0.969867 -1.24223 0
M  V30 5476 C 527.151 2.06407 -1.0327 0
M  V30 5477 C 528.121 1.66014 0.0533 0
M  V30 5478 O 529.306 1.90533 -0.100896 0
M  V30 5479 C 526.446 3.3909 -0.641262 0
M  V30 5480 C 525.559 3.9269 -1.80051 0
M  V30 5481 C 524.694 5.13631 -1.35486 0
M  V30 5482 C 523.733 5.59423 -2.48419 0
M  V30 5483 N 522.87 6.71586 -2.04737 0
M  V30 5484 H 527.71 2.23663 -1.96923 0
M  V30 5485 H 525.247 1.09624 -0.980862 0
M  V30 5486 H 527.205 4.15323 -0.395351 0
M  V30 5487 H 525.835 3.21765 0.258269 0
M  V30 5488 H 524.887 3.13116 -2.16014 0
M  V30 5489 H 526.199 4.22636 -2.64916 0
M  V30 5490 H 525.353 5.97231 -1.0677 0
M  V30 5491 H 524.092 4.85364 -0.476722 0
M  V30 5492 H 523.097 4.74398 -2.77897 0
M  V30 5493 H 524.322 5.89705 -3.36786 0
M  V30 5494 H 522.268 6.45058 -1.19318 0
M  V30 5495 H 522.185 7.0097 -2.83156 0
M  V30 5496 H 523.453 7.58633 -1.79154 0
M  V30 5497 N 527.682 1.05563 1.17022 0
M  V30 5498 C 528.93 0.76642 1.87004 0
M  V30 5499 C 529.251 -0.708854 1.8166 0
M  V30 5500 O 528.521 -1.51242 1.2451 0
M  V30 5501 H 527.101 0.280516 0.692329 0
M  V30 5502 H 529.763 1.33557 1.41945 0
M  V30 5503 H 528.859 1.08472 2.92644 0
M  V30 5504 N 529.16 -1.33526 0.837174 0
M  V30 5505 C 530.385 -2.0258 0.444545 0
M  V30 5506 C 530.81 -1.6258 -0.946006 0
M  V30 5507 O 530.168 -0.817548 -1.6182 0
M  V30 5508 C 530.216 -3.5605 0.571006 0
M  V30 5509 O 529.32 -4.10422 -0.403431 0
M  V30 5510 H 528.661 -0.638866 0.180958 0
M  V30 5511 H 531.191 -1.70462 1.13154 0
M  V30 5512 H 531.201 -4.05488 0.452024 0
M  V30 5513 H 529.876 -3.84509 1.58512 0
M  V30 5514 H 528.453 -3.72113 -0.242147 0
M  V30 5515 N 530.638 -0.59345 -1.46 0
M  V30 5516 C 531.585 0.133618 -2.30413 0
M  V30 5517 C 532.555 0.873736 -1.41262 0
M  V30 5518 O 533.74 0.862279 -1.70204 0
M  V30 5519 C 530.88 1.13434 -3.25924 0
M  V30 5520 C 529.993 0.39656 -4.30176 0
M  V30 5521 C 529.128 1.38575 -5.12806 0
M  V30 5522 C 528.167 0.634984 -6.08797 0
M  V30 5523 N 527.304 1.57276 -6.84258 0
M  V30 5524 H 532.144 -0.592252 -2.92055 0
M  V30 5525 H 529.681 -0.303874 -1.43927 0
M  V30 5526 H 531.639 1.72752 -3.79753 0
M  V30 5527 H 530.269 1.82779 -2.66067 0
M  V30 5528 H 529.321 -0.311861 -3.79119 0
M  V30 5529 H 530.633 -0.189869 -4.98438 0
M  V30 5530 H 529.787 2.05141 -5.70966 0
M  V30 5531 H 528.526 2.00611 -4.44529 0
M  V30 5532 H 527.531 -0.0443925 -5.49782 0
M  V30 5533 H 528.756 0.0198678 -6.79097 0
M  V30 5534 H 526.702 2.18103 -6.18682 0
M  V30 5535 H 526.619 1.03941 -7.48821 0
M  V30 5536 H 527.887 2.22844 -7.46968 0
M  V30 5537 N 532.116 1.54067 -0.331816 0
M  V30 5538 C 533.079 2.23275 0.517768 0
M  V30 5539 C 534.079 1.22897 1.03697 0
M  V30 5540 O 535.269 1.47419 0.928084 0
M  V30 5541 C 532.401 2.94326 1.72004 0
M  V30 5542 H 533.594 2.99773 -0.0873507 0
M  V30 5543 H 531.147 1.56079 -0.0830042 0
M  V30 5544 H 531.882 2.21986 2.36417 0
M  V30 5545 H 531.667 3.67941 1.35507 0
M  V30 5546 H 533.157 3.47031 2.32291 0
M  V30 5547 N 533.594 0.0601682 1.57485 0
M  V30 5548 C 534.842 -0.610386 1.92662 0
M  V30 5549 C 535.163 -1.70849 0.939981 0
M  V30 5550 O 534.433 -1.95895 -0.0137455 0
M  V30 5551 H 533.013 -0.228457 0.711208 0
M  V30 5552 H 535.675 0.115288 1.94559 0
M  V30 5553 H 534.771 -1.0432 2.94149 0
M  V30 5554 N 535.072 -1.5615 -0.213296 0
M  V30 5555 C 536.022 -1.89485 -1.26804 0
M  V30 5556 C 537.006 -0.758713 -1.41889 0
M  V30 5557 O 538.198 -1.02127 -1.44565 0
M  V30 5558 C 535.327 -2.22219 -2.61675 0
M  V30 5559 C 534.413 -3.42245 -2.50458 0
M  V30 5560 N 534.804 -4.60645 -2.089 0
M  V30 5561 C 533.102 -3.46023 -2.81397 0
M  V30 5562 C 533.803 -5.42805 -2.09135 0
M  V30 5563 N 532.779 -4.82732 -2.49941 0
M  V30 5564 H 536.581 -2.78537 -0.937771 0
M  V30 5565 H 534.095 -1.56826 -0.421824 0
M  V30 5566 H 536.092 -2.44278 -3.37837 0
M  V30 5567 H 534.752 -1.34484 -2.95541 0
M  V30 5568 H 535.763 -4.85651 -1.79899 0
M  V30 5569 H 532.44 -2.68654 -3.1958 0
M  V30 5570 H 533.83 -6.47601 -1.79059 0
M  V30 5571 N 536.55 0.480323 -1.50102 0
M  V30 5572 C 537.48 1.58769 -1.71215 0
M  V30 5573 C 538.461 1.60583 -0.560997 0
M  V30 5574 O 539.646 1.76996 -0.799127 0
M  V30 5575 C 536.776 2.97148 -1.79778 0
M  V30 5576 C 535.73 3.10201 -2.94888 0
M  V30 5577 C 535.056 4.50137 -2.88584 0
M  V30 5578 C 536.356 2.88283 -4.35534 0
M  V30 5579 H 538.05 1.41354 -2.6393 0
M  V30 5580 H 535.596 0.678591 -1.27008 0
M  V30 5581 H 537.549 3.74536 -1.93133 0
M  V30 5582 H 536.273 3.15699 -0.836772 0
M  V30 5583 H 534.932 2.35244 -2.81169 0
M  V30 5584 H 534.58 4.65593 -1.90349 0
M  V30 5585 H 534.28 4.59808 -3.65856 0
M  V30 5586 H 535.804 5.29558 -3.03976 0
M  V30 5587 H 537.218 3.55427 -4.49827 0
M  V30 5588 H 535.615 3.09408 -5.14186 0
M  V30 5589 H 536.685 1.84219 -4.48544 0
M  V30 5590 N 538.028 1.39524 0.732853 0
M  V30 5591 C 539.256 1.40143 1.52209 0
M  V30 5592 C 539.671 -0.00348836 1.888 0
M  V30 5593 O 539.028 -0.975357 1.5425 0
M  V30 5594 C 539.079 2.27632 2.8083 0
M  V30 5595 O 538.8 3.62654 2.45792 0
M  V30 5596 C 540.301 2.36658 3.74844 0
M  V30 5597 H 537.521 0.478604 0.470297 0
M  V30 5598 H 540.065 1.83366 0.905388 0
M  V30 5599 H 538.22 1.87818 3.38826 0
M  V30 5600 H 538.634 4.08941 3.28431 0
M  V30 5601 H 540.108 3.02118 4.61984 0
M  V30 5602 H 540.585 1.38638 4.16745 0
M  V30 5603 H 541.191 2.76951 3.22766 0
M  V30 5604 N 539.506 -0.963266 1.24736 0
M  V30 5605 C 540.736 -1.73913 1.11524 0
M  V30 5606 C 541.144 -1.86218 -0.334612 0
M  V30 5607 O 540.487 -1.3531 -1.24245 0
M  V30 5608 C 540.549 -3.17501 1.68622 0
M  V30 5609 C 540.213 -3.28655 3.17546 0
M  V30 5610 C 541.21 -3.13637 4.14642 0
M  V30 5611 C 538.895 -3.52753 3.5759 0
M  V30 5612 C 540.889 -3.2255 5.49764 0
M  V30 5613 C 538.576 -3.61303 4.92852 0
M  V30 5614 C 539.574 -3.46214 5.88748 0
M  V30 5615 O 539.262 -3.5443 7.2155 0
M  V30 5616 H 538.994 -0.552057 0.390139 0
M  V30 5617 H 541.548 -1.2177 1.65412 0
M  V30 5618 H 539.778 -3.70969 1.09172 0
M  V30 5619 H 541.467 -3.76914 1.50635 0
M  V30 5620 H 542.233 -2.94899 3.85045 0
M  V30 5621 H 538.112 -3.63561 2.83451 0
M  V30 5622 H 541.656 -3.1069 6.24594 0
M  V30 5623 H 537.553 -3.79556 5.22118 0
M  V30 5624 H 538.321 -3.71116 7.29531 0
M  V30 5625 N 540.985 -1.06182 -1.16461 0
M  V30 5626 C 541.915 -0.692861 -2.22984 0
M  V30 5627 C 542.896 0.314122 -1.67174 0
M  V30 5628 O 544.081 0.189499 -1.93273 0
M  V30 5629 C 541.211 -0.07732 -3.47214 0
M  V30 5630 C 540.165 -1.01015 -4.15909 0
M  V30 5631 C 539.491 -0.257973 -5.34077 0
M  V30 5632 C 540.791 -2.33868 -4.67015 0
M  V30 5633 H 542.485 -1.58343 -2.54102 0
M  V30 5634 H 540.031 -0.76279 -1.22137 0
M  V30 5635 H 541.984 0.19266 -4.20959 0
M  V30 5636 H 540.708 0.848254 -3.15392 0
M  V30 5637 H 539.367 -1.26486 -3.44088 0
M  V30 5638 H 539.015 0.670684 -4.98509 0
M  V30 5639 H 538.715 -0.879638 -5.80979 0
M  V30 5640 H 540.239 0.00448788 -6.106 0
M  V30 5641 H 541.653 -2.1279 -5.32347 0
M  V30 5642 H 540.05 -2.91522 -5.24533 0
M  V30 5643 H 541.12 -2.97019 -3.83286 0
M  V30 5644 N 542.463 1.3308 -0.844243 0
M  V30 5645 C 543.711 1.97215 -0.441676 0
M  V30 5646 C 544.032 1.67185 1.0037 0
M  V30 5647 O 543.302 0.973588 1.69994 0
M  V30 5648 H 541.882 0.72959 -0.160335 0
M  V30 5649 H 544.544 1.62348 -1.07838 0
M  V30 5650 H 543.64 3.06698 -0.57815 0
M  V30 5651 N 543.941 0.601185 1.45683 0
M  V30 5652 C 545.218 0.0261659 1.95582 0
M  V30 5653 C 545.598 -1.4399 1.5437 0
M  V30 5654 O 544.946 -2.13919 0.80318 0
M  V30 5655 C 545.156 0.217557 3.48321 0
M  V30 5656 C 546.504 0.0950076 4.24494 0
M  V30 5657 O 547.528 0.147345 3.55895 0
M  V30 5658 O 546.387 -0.025261 5.46494 0
M  V30 5659 H 543.481 -0.0393688 0.826062 0
M  V30 5660 H 546.027 0.670798 1.55879 0
M  V30 5661 H 544.799 1.23601 3.71266 0
M  V30 5662 H 544.422 -0.46264 3.94899 0
M  V30 5663 N 545.419 -1.53889 0.339982 0
M  V30 5664 C 546.382 -2.23547 -0.50592 0
M  V30 5665 C 547.382 -1.23445 -1.03044 0
M  V30 5666 O 548.572 -1.47909 -0.920253 0
M  V30 5667 C 545.704 -2.95234 -1.7044 0
M  V30 5668 H 546.897 -2.99722 0.103247 0
M  V30 5669 H 544.45 -1.56033 0.0912804 0
M  V30 5670 H 545.185 -2.23236 -2.35236 0
M  V30 5671 H 544.97 -3.68654 -1.33553 0
M  V30 5672 H 546.46 -3.48258 -2.30447 0
M  V30 5673 N 546.897 -0.0685191 -1.57451 0
M  V30 5674 C 547.807 0.914677 -2.16034 0
M  V30 5675 C 548.823 1.32938 -1.12265 0
M  V30 5676 O 549.999 1.40275 -1.44516 0
M  V30 5677 C 547.064 2.16519 -2.70777 0
M  V30 5678 C 546.125 1.80721 -3.89408 0
M  V30 5679 C 545.358 2.9981 -4.41531 0
M  V30 5680 O 545.581 4.13727 -3.92666 0
M  V30 5681 O 544.515 2.79817 -5.32903 0
M  V30 5682 H 548.341 0.446364 -3.00402 0
M  V30 5683 H 545.926 0.154367 -1.486 0
M  V30 5684 H 547.808 2.89856 -3.05878 0
M  V30 5685 H 546.483 2.62454 -1.89471 0
M  V30 5686 H 545.39 1.04646 -3.59166 0
M  V30 5687 H 546.723 1.39571 -4.71997 0
M  V30 5688 N 548.375 1.56261 0.205012 0
M  V30 5689 C 549.624 1.79236 0.925058 0
M  V30 5690 C 549.937 0.640011 1.84833 0
M  V30 5691 O 551.143 0.753809 2.60826 0
M  V30 5692 C 549.599 3.17475 1.69522 0
M  V30 5693 C 549.207 4.40482 0.817269 0
M  V30 5694 C 550.951 3.49766 2.4055 0
M  V30 5695 C 548.858 5.69744 1.58573 0
M  V30 5696 H 547.788 0.668287 0.349153 0
M  V30 5697 H 550.439 1.82629 0.178544 0
M  V30 5698 H 548.821 3.08304 2.48526 0
M  V30 5699 H 549.995 4.60752 0.0665988 0
M  V30 5700 H 548.31 4.15827 0.218316 0
M  V30 5701 H 550.907 4.43573 2.98575 0
M  V30 5702 H 551.25 2.73041 3.14252 0
M  V30 5703 H 551.783 3.60341 1.68522 0
M  V30 5704 H 548.522 6.49407 0.891679 0
M  V30 5705 H 548.042 5.53509 2.31059 0
M  V30 5706 H 549.721 6.1051 2.14212 0
M  V30 5707 N 549.853 -0.472356 1.50355 0
M  V30 5708 C 551.101 -1.22211 1.60962 0
M  V30 5709 C 551.422 -1.92497 0.311439 0
M  V30 5710 O 550.692 -1.8405 -0.671002 0
M  V30 5711 H 549.272 -0.454092 0.593135 0
M  V30 5712 H 551.934 -0.544977 1.87126 0
M  V30 5713 H 551.03 -1.9707 2.42012 0
M  V30 5714 N 551.331 -1.39911 -0.725443 0
M  V30 5715 C 552.608 -1.28158 -1.47766 0
M  V30 5716 C 552.988 0.104545 -2.10841 0
M  V30 5717 O 552.336 1.11657 -1.99361 0
M  V30 5718 C 552.546 -2.41306 -2.52135 0
M  V30 5719 C 553.894 -2.81076 -3.18247 0
M  V30 5720 O 554.918 -2.40827 -2.62452 0
M  V30 5721 O 553.777 -3.50581 -4.19231 0
M  V30 5722 H 550.871 -0.502761 -0.656628 0
M  V30 5723 H 553.417 -1.51808 -0.758456 0
M  V30 5724 H 552.189 -3.33932 -2.03974 0
M  V30 5725 H 551.812 -2.19374 -3.31603 0
M  V30 5726 N 552.809 0.956637 -1.25245 0
M  V30 5727 C 553.757 2.0743 -1.0524 0
M  V30 5728 C 554.751 1.69392 0.0160725 0
M  V30 5729 O 555.957 1.7946 -0.139382 0
M  V30 5730 H 552.332 0.678921 -0.323373 0
M  V30 5731 H 554.303 2.2146 -1.99995 0
M  V30 5732 C 553.052 3.40872 -0.685702 0
M  V30 5733 H 552.375 3.70607 -1.49968 0
M  V30 5734 H 553.815 4.19939 -0.585415 0
M  V30 5735 C 552.274 3.31367 0.608082 0
M  V30 5736 O 552.804 3.66214 1.65076 0
M  V30 5737 N 551.01 2.84486 0.592955 0
M  V30 5738 H 550.557 2.56326 -0.25592 0
M  V30 5739 H 550.515 2.78509 1.45877 0
M  V30 5740 N 554.287 1.06798 1.15896 0
M  V30 5741 C 555.533 0.788934 1.86825 0
M  V30 5742 C 555.866 -0.683084 1.8179 0
M  V30 5743 O 555.141 -1.50086 1.23711 0
M  V30 5744 C 555.424 1.29065 3.36176 0
M  V30 5745 C 555.277 2.8268 3.49874 0
M  V30 5746 C 556.596 0.902655 4.30744 0
M  V30 5747 H 553.715 0.288066 0.678371 0
M  V30 5748 H 556.357 1.32479 1.36195 0
M  V30 5749 H 554.507 0.834806 3.79425 0
M  V30 5750 H 556.179 3.36511 3.15528 0
M  V30 5751 H 554.422 3.21157 2.91617 0
M  V30 5752 H 555.093 3.12852 4.54783 0
M  V30 5753 H 557.569 1.29535 3.95424 0
M  V30 5754 H 556.445 1.28111 5.3374 0
M  V30 5755 H 556.706 -0.191951 4.41683 0
M  V30 5756 N 555.766 -1.3263 0.851289 0
M  V30 5757 C 556.714 -2.30882 0.282202 0
M  V30 5758 C 557.708 -1.58697 -0.592589 0
M  V30 5759 O 558.914 -1.73461 -0.480768 0
M  V30 5760 H 555.289 -0.748492 0.0725487 0
M  V30 5761 H 557.26 -2.76374 1.12516 0
M  V30 5762 C 556.009 -3.43828 -0.517449 0
M  V30 5763 H 555.332 -3.99532 0.146392 0
M  V30 5764 H 556.772 -4.1474 -0.88128 0
M  V30 5765 C 555.231 -2.90786 -1.70133 0
M  V30 5766 O 555.761 -2.88 -2.80034 0
M  V30 5767 N 553.967 -2.4723 -1.52728 0
M  V30 5768 H 553.514 -2.49695 -0.633257 0
M  V30 5769 H 553.472 -2.12094 -2.32085 0
M  V30 5770 N 557.244 -0.608902 -1.45362 0
M  V30 5771 C 558.493 -0.10218 -2.01441 0
M  V30 5772 C 558.806 1.27546 -1.48295 0
M  V30 5773 O 560.012 1.87498 -1.96359 0
M  V30 5774 C 558.468 -0.131985 -3.59658 0
M  V30 5775 C 558.076 -1.50956 -4.21801 0
M  V30 5776 C 559.82 0.319427 -4.23296 0
M  V30 5777 C 557.727 -1.49568 -5.72174 0
M  V30 5778 H 556.657 -0.0344314 -0.753213 0
M  V30 5779 H 559.308 -0.764426 -1.6682 0
M  V30 5780 H 557.69 0.596939 -3.91475 0
M  V30 5781 H 558.864 -2.26029 -4.01556 0
M  V30 5782 H 557.179 -1.90318 -3.70362 0
M  V30 5783 H 559.776 0.349013 -5.3356 0
M  V30 5784 H 560.119 1.34237 -3.94064 0
M  V30 5785 H 560.652 -0.356273 -3.96201 0
M  V30 5786 H 557.391 -2.49626 -6.06108 0
M  V30 5787 H 556.911 -0.787542 -5.94607 0
M  V30 5788 H 558.59 -1.21989 -6.35396 0
M  V30 5789 N 558.722 1.53707 -0.348139 0
M  V30 5790 C 559.97 2.00591 0.246478 0
M  V30 5791 C 560.291 1.23753 1.50699 0
M  V30 5792 O 559.561 0.345964 1.92821 0
M  V30 5793 H 558.141 0.741053 0.0940679 0
M  V30 5794 H 560.803 1.89139 -0.470354 0
M  V30 5795 H 559.899 3.08297 0.485714 0
M  V30 5796 N 560.2 0.0768682 1.57412 0
M  V30 5797 C 561.163 -0.873949 2.11884 0
M  V30 5798 C 562.163 -1.22301 1.04398 0
M  V30 5799 O 563.353 -1.15545 1.30365 0
M  V30 5800 C 560.485 -2.17575 2.62438 0
M  V30 5801 H 561.678 -0.401278 2.97203 0
M  V30 5802 H 559.231 -0.171904 1.55352 0
M  V30 5803 H 559.966 -2.69368 1.80587 0
M  V30 5804 H 559.751 -1.93534 3.41009 0
M  V30 5805 H 561.241 -2.85631 3.04639 0
M  V30 5806 N 561.678 -1.56367 -0.196722 0
M  V30 5807 C 562.926 -1.80172 -0.915554 0
M  V30 5808 C 563.247 -0.649649 -1.8386 0
M  V30 5809 O 562.517 0.332111 -1.93064 0
M  V30 5810 H 561.097 -0.664592 -0.341067 0
M  V30 5811 H 563.759 -1.93844 -0.202622 0
M  V30 5812 H 562.855 -2.7327 -1.50764 0
M  V30 5813 N 563.156 0.464375 -1.50603 0
M  V30 5814 C 564.384 1.23907 -1.65695 0
M  V30 5815 C 564.799 1.85658 -0.343027 0
M  V30 5816 O 564.156 1.69529 0.675739 0
M  V30 5817 C 564.207 2.3429 -2.75301 0
M  V30 5818 O 563.928 1.7507 -4.01599 0
M  V30 5819 C 565.429 3.25051 -3.01424 0
M  V30 5820 H 562.649 0.374485 -0.556778 0
M  V30 5821 H 565.193 0.55353 -1.96866 0
M  V30 5822 H 563.348 2.98607 -2.46804 0
M  V30 5823 H 563.762 2.47812 -4.62266 0
M  V30 5824 H 565.236 3.98699 -3.81763 0
M  V30 5825 H 565.713 3.84227 -2.12758 0
M  V30 5826 H 566.319 2.66463 -3.31477 0
M  V30 5827 N 564.634 1.40294 0.718013 0
M  V30 5828 C 565.883 1.37746 1.4734 0
M  V30 5829 C 566.196 -0.0180754 1.95592 0
M  V30 5830 O 567.402 -0.166166 2.70991 0
M  V30 5831 C 565.858 2.4208 2.66318 0
M  V30 5832 C 565.466 3.87432 2.24945 0
M  V30 5833 C 567.21 2.48635 3.44065 0
M  V30 5834 C 565.117 4.83368 3.40748 0
M  V30 5835 H 564.047 0.512165 0.553356 0
M  V30 5836 H 566.698 1.66019 0.781661 0
M  V30 5837 H 565.08 2.06903 3.3765 0
M  V30 5838 H 566.254 4.3174 1.6105 0
M  V30 5839 H 564.569 3.8433 1.60249 0
M  V30 5840 H 567.166 3.17499 4.30231 0
M  V30 5841 H 567.509 1.51611 3.87711 0
M  V30 5842 H 568.042 2.82791 2.79775 0
M  V30 5843 H 564.781 5.81716 3.02136 0
M  V30 5844 H 564.301 4.43726 4.03568 0
M  V30 5845 H 565.98 5.03074 4.06848 0
M  V30 5846 N 566.112 -0.949982 1.2575 0
M  V30 5847 C 567.34 -1.72972 1.13527 0
M  V30 5848 C 567.755 -1.8623 -0.310453 0
M  V30 5849 O 567.112 -1.36336 -1.2132 0
M  V30 5850 C 567.163 -3.14108 1.78936 0
M  V30 5851 O 566.884 -3.01493 3.17858 0
M  V30 5852 C 568.385 -4.08338 1.72554 0
M  V30 5853 H 565.605 -0.541864 0.395758 0
M  V30 5854 H 568.149 -1.19151 1.66202 0
M  V30 5855 H 566.304 -3.64858 1.30221 0
M  V30 5856 H 566.718 -3.90559 3.50092 0
M  V30 5857 H 568.192 -5.04963 2.22973 0
M  V30 5858 H 568.669 -4.33742 0.690251 0
M  V30 5859 H 569.275 -3.63506 2.2078 0
M  V30 5860 N 567.59 -1.07411 -1.15328 0
M  V30 5861 C 568.83 -0.807011 -1.87794 0
M  V30 5862 C 569.194 0.654987 -1.80482 0
M  V30 5863 O 570.395 1.03716 -2.47985 0
M  V30 5864 C 568.666 -1.30198 -3.32841 0
M  V30 5865 S 570.225 -1.16564 -4.23034 0
M  V30 5866 H 567.043 -0.292429 -0.648079 0
M  V30 5867 H 569.645 -1.37334 -1.39139 0
M  V30 5868 H 568.349 -2.3607 -3.35707 0
M  V30 5869 H 567.88 -0.730881 -3.86551 0
M  V30 5870 H 569.895 -0.103557 -4.96092 0
M  V30 5871 N 569.068 1.32177 -0.85831 0
M  V30 5872 C 570.016 2.30729 -0.294442 0
M  V30 5873 C 571.01 1.59009 0.584165 0
M  V30 5874 O 572.216 1.73713 0.471562 0
M  V30 5875 H 568.591 0.748097 -0.0765171 0
M  V30 5876 H 570.562 2.75774 -1.1398 0
M  V30 5877 C 569.311 3.44098 0.499208 0
M  V30 5878 H 568.634 3.99449 -0.167579 0
M  V30 5879 H 570.074 4.15202 0.859273 0
M  V30 5880 C 568.533 2.91684 1.68588 0
M  V30 5881 O 569.063 2.89481 2.78503 0
M  V30 5882 N 567.269 2.48036 1.51415 0
M  V30 5883 H 566.816 2.50027 0.620006 0
M  V30 5884 H 566.774 2.13322 2.30957 0
M  V30 5885 N 570.547 0.616602 1.45037 0
M  V30 5886 C 571.777 0.121791 2.06241 0
M  V30 5887 C 572.185 -1.20289 1.46038 0
M  V30 5888 O 571.528 -1.7456 0.572242 0
M  V30 5889 C 571.59 -0.0827345 3.59405 0
M  V30 5890 C 571.254 1.16153 4.41993 0
M  V30 5891 C 572.251 2.08183 4.76399 0
M  V30 5892 C 569.936 1.39288 4.82601 0
M  V30 5893 C 571.93 3.21668 5.5028 0
M  V30 5894 C 569.617 2.53073 5.56235 0
M  V30 5895 C 570.615 3.44091 5.89992 0
M  V30 5896 O 570.303 4.55894 6.6213 0
M  V30 5897 H 570.035 0.0701667 0.672349 0
M  V30 5898 H 572.589 0.846877 1.87129 0
M  V30 5899 H 570.819 -0.862812 3.76952 0
M  V30 5900 H 572.508 -0.530273 4.02421 0
M  V30 5901 H 573.274 1.91538 4.45576 0
M  V30 5902 H 569.153 0.693396 4.55755 0
M  V30 5903 H 572.697 3.92733 5.76547 0
M  V30 5904 H 568.594 2.69667 5.86472 0
M  V30 5905 H 569.362 4.5469 6.80587 0
M  V30 5906 N 572.025 -1.5352 0.356285 0
M  V30 5907 C 573.302 -1.93405 -0.292223 0
M  V30 5908 C 573.682 -1.28901 -1.67176 0
M  V30 5909 O 573.03 -0.444632 -2.24132 0
M  V30 5910 C 573.24 -3.47223 -0.35175 0
M  V30 5911 C 574.588 -4.20389 -0.596534 0
M  V30 5912 O 575.612 -3.53554 -0.433344 0
M  V30 5913 O 574.471 -5.3881 -0.913589 0
M  V30 5914 H 571.565 -0.808666 -0.173172 0
M  V30 5915 H 574.111 -1.64713 0.408391 0
M  V30 5916 H 572.883 -3.86423 0.615841 0
M  V30 5917 H 572.506 -3.8212 -1.09864 0
M  V30 5918 N 573.503 -0.0852151 -1.57369 0
M  V30 5919 C 574.751 0.579658 -1.93609 0
M  V30 5920 C 575.072 1.69332 -0.967043 0
M  V30 5921 O 574.342 1.95892 -0.0174215 0
M  V30 5922 H 572.922 0.217113 -0.714752 0
M  V30 5923 H 575.584 -0.146226 -1.94351 0
M  V30 5924 H 574.68 0.996276 -2.95771 0
M  V30 5925 N 574.981 1.5647 0.188427 0
M  V30 5926 C 575.944 1.9421 1.21718 0
M  V30 5927 C 576.944 0.823901 1.38089 0
M  V30 5928 O 578.134 1.09122 1.35787 0
M  V30 5929 C 575.266 2.22197 2.58537 0
M  V30 5930 H 576.459 2.86252 0.894418 0
M  V30 5931 H 574.012 1.50263 0.430211 0
M  V30 5932 H 574.747 1.32814 2.95856 0
M  V30 5933 H 574.532 3.03688 2.48025 0
M  V30 5934 H 576.022 2.52376 3.3271 0
M  V30 5935 N 576.459 -0.456382 1.50847 0
M  V30 5936 C 577.407 -1.57318 1.71329 0
M  V30 5937 C 578.401 -1.59187 0.579287 0
M  V30 5938 O 579.607 -1.6316 0.76018 0
M  V30 5939 H 575.982 -0.5223 0.541024 0
M  V30 5940 H 577.953 -1.3721 2.64983 0
M  V30 5941 C 576.702 -2.95142 1.83811 0
M  V30 5942 H 576.025 -2.94428 2.70467 0
M  V30 5943 H 577.465 -3.72702 2.02161 0
M  V30 5944 C 575.924 -3.31636 0.593224 0
M  V30 5945 O 576.454 -4.00852 -0.260898 0
M  V30 5946 N 574.66 -2.87205 0.442902 0
M  V30 5947 H 574.207 -2.31051 1.13901 0
M  V30 5948 H 574.165 -3.11986 -0.38884 0
M  V30 5949 N 577.937 -1.40673 -0.710563 0
M  V30 5950 C 578.884 -1.41336 -1.82463 0
M  V30 5951 C 579.854 -0.269648 -1.63897 0
M  V30 5952 O 581.039 -0.468463 -1.8496 0
M  V30 5953 C 578.179 -1.28665 -3.20218 0
M  V30 5954 C 577.292 -2.52784 -3.5032 0
M  V30 5955 C 576.427 -2.32517 -4.77608 0
M  V30 5956 C 575.466 -3.52187 -5.0063 0
M  V30 5957 N 574.603 -3.31084 -6.19135 0
M  V30 5958 H 579.443 -2.36558 -1.8123 0
M  V30 5959 H 576.98 -1.17483 -0.885226 0
M  V30 5960 H 578.938 -1.19324 -3.99772 0
M  V30 5961 H 577.568 -0.370602 -3.20666 0
M  V30 5962 H 576.62 -2.72634 -2.65283 0
M  V30 5963 H 577.932 -3.41845 -3.63241 0
M  V30 5964 H 577.086 -2.20558 -5.65189 0
M  V30 5965 H 575.825 -1.40889 -4.66906 0
M  V30 5966 H 574.83 -3.64617 -4.11502 0
M  V30 5967 H 576.055 -4.44749 -5.13201 0
M  V30 5968 H 574.001 -2.42143 -6.09674 0
M  V30 5969 H 573.918 -4.13713 -6.32754 0
M  V30 5970 H 575.186 -3.22868 -7.0949 0
M  V30 5971 N 579.415 0.9433 -1.26252 0
M  V30 5972 C 580.662 1.68925 -1.11672 0
M  V30 5973 C 580.99 1.91499 0.340329 0
M  V30 5974 O 580.245 1.49189 1.26653 0
M  V30 5975 C 580.544 3.07073 -1.82868 0
M  V30 5976 C 580.21 3.04262 -3.32769 0
M  V30 5977 C 578.872 3.03203 -3.7366 0
M  V30 5978 C 581.224 2.96729 -4.28487 0
M  V30 5979 C 578.552 2.92373 -5.0866 0
M  V30 5980 C 580.904 2.87442 -5.63525 0
M  V30 5981 C 579.568 2.84724 -6.03729 0
M  V30 5982 H 578.838 0.618141 -0.408635 0
M  V30 5983 H 581.485 1.10124 -1.56668 0
M  V30 5984 H 579.79 3.69486 -1.30335 0
M  V30 5985 H 581.487 3.63635 -1.69029 0
M  V30 5986 H 578.077 3.05865 -3.00241 0
M  V30 5987 H 582.261 2.96658 -3.97879 0
M  V30 5988 H 577.517 2.88645 -5.38975 0
M  V30 5989 H 581.691 2.80576 -6.37377 0
M  V30 5990 H 579.318 2.76089 -7.08293 0
M  V30 5991 N 580.893 1.08022 1.14757 0
M  V30 5992 C 581.84 0.706657 2.19716 0
M  V30 5993 C 582.81 -0.30525 1.63271 0
M  V30 5994 O 583.995 -0.19015 1.8985 0
M  V30 5995 C 581.135 0.117914 3.44898 0
M  V30 5996 C 580.248 1.18212 4.15512 0
M  V30 5997 C 579.383 0.557659 5.28265 0
M  V30 5998 C 578.422 1.60418 5.90705 0
M  V30 5999 N 577.559 1.0018 6.94916 0
M  V30 6000 H 582.399 1.60603 2.51019 0
M  V30 6001 H 579.936 0.802664 1.23271 0
M  V30 6002 H 581.894 -0.241112 4.16503 0
M  V30 6003 H 580.524 -0.744788 3.1409 0
M  V30 6004 H 579.576 1.65863 3.42335 0
M  V30 6005 H 580.888 1.97533 4.5802 0
M  V30 6006 H 580.042 0.146654 6.06523 0
M  V30 6007 H 578.781 -0.267249 4.86967 0
M  V30 6008 H 577.786 2.02489 5.11154 0
M  V30 6009 H 579.011 2.43149 6.34078 0
M  V30 6010 H 576.957 0.197917 6.55701 0
M  V30 6011 H 576.874 1.73216 7.35889 0
M  V30 6012 H 578.142 0.616523 7.77058 0
M  V30 6013 N 582.371 -1.3172 0.865308 0
M  V30 6014 C 583.599 -2.01057 0.488251 0
M  V30 6015 C 584.014 -1.64979 -0.918 0
M  V30 6016 O 583.371 -0.876597 -1.60069 0
M  V30 6017 C 583.422 -3.55964 0.630224 0
M  V30 6018 O 583.143 -3.90749 1.98109 0
M  V30 6019 C 584.644 -4.42574 0.253567 0
M  V30 6020 H 581.864 -0.64332 0.190736 0
M  V30 6021 H 584.408 -1.68058 1.16519 0
M  V30 6022 H 582.563 -3.874 0.000895422 0
M  V30 6023 H 582.977 -4.85467 1.9855 0
M  V30 6024 H 584.451 -5.50521 0.403875 0
M  V30 6025 H 584.928 -4.31724 -0.806895 0
M  V30 6026 H 585.534 -4.16547 0.858404 0
M  V30 6027 N 583.85 -0.624285 -1.44708 0
M  V30 6028 C 585.099 -0.123539 -2.01321 0
M  V30 6029 C 585.412 1.25966 -1.49639 0
M  V30 6030 O 586.618 1.85405 -1.98336 0
M  V30 6031 C 585.074 -0.170124 -3.59498 0
M  V30 6032 C 584.682 -1.55421 -4.20176 0
M  V30 6033 C 586.426 0.274513 -4.23611 0
M  V30 6034 C 584.332 -1.55628 -5.70556 0
M  V30 6035 H 583.263 -0.0424183 -0.752806 0
M  V30 6036 H 585.913 -0.782076 -1.65999 0
M  V30 6037 H 584.296 0.555385 -3.92086 0
M  V30 6038 H 585.47 -2.30276 -3.99136 0
M  V30 6039 H 583.784 -1.94235 -3.68323 0
M  V30 6040 H 586.382 0.292402 -5.339 0
M  V30 6041 H 586.725 1.3005 -3.95465 0
M  V30 6042 H 587.258 -0.398275 -3.95801 0
M  V30 6043 H 583.997 -2.56041 -6.03426 0
M  V30 6044 H 583.517 -0.850563 -5.93739 0
M  V30 6045 H 585.196 -1.28721 -6.34066 0
M  V30 6046 N 585.328 1.53329 -0.364422 0
M  V30 6047 C 586.577 2.00421 0.226747 0
M  V30 6048 C 586.89 1.25581 1.49963 0
M  V30 6049 O 588.096 1.63256 2.16933 0
M  V30 6050 C 586.552 3.57017 0.454618 0
M  V30 6051 C 586.16 4.40734 -0.803568 0
M  V30 6052 C 587.904 4.12468 1.00351 0
M  V30 6053 C 585.811 5.8888 -0.545345 0
M  V30 6054 H 584.741 0.748787 0.0885082 0
M  V30 6055 H 587.392 1.7703 -0.482983 0
M  V30 6056 H 585.774 3.76558 1.22558 0
M  V30 6057 H 586.948 4.32967 -1.57723 0
M  V30 6058 H 585.263 3.96381 -1.27559 0
M  V30 6059 H 587.86 5.20783 1.212 0
M  V30 6060 H 588.203 3.6699 1.9653 0
M  V30 6061 H 588.736 3.96721 0.29274 0
M  V30 6062 H 585.475 6.38633 -1.47743 0
M  V30 6063 H 584.995 5.99499 0.189842 0
M  V30 6064 H 586.674 6.46776 -0.170425 0
M  V30 6065 N 586.806 0.0935595 1.57322 0
M  V30 6066 C 588.054 -0.569383 1.93913 0
M  V30 6067 C 588.375 -1.68817 0.976009 0
M  V30 6068 O 587.645 -1.9588 0.0278099 0
M  V30 6069 H 586.225 -0.21332 0.715894 0
M  V30 6070 H 588.887 0.156531 1.9427 0
M  V30 6071 H 587.983 -0.980577 2.96296 0
M  V30 6072 N 588.284 -1.56567 -0.180126 0
M  V30 6073 C 589.561 -1.7235 -0.924931 0
M  V30 6074 C 589.941 -0.652523 -2.00762 0
M  V30 6075 O 589.289 0.334115 -2.26044 0
M  V30 6076 C 589.499 -3.1523 -1.49771 0
M  V30 6077 C 590.847 -3.75921 -1.97405 0
M  V30 6078 O 591.871 -3.18452 -1.59583 0
M  V30 6079 O 590.73 -4.7681 -2.67048 0
M  V30 6080 H 587.824 -0.703502 -0.434758 0
M  V30 6081 H 590.37 -1.6886 -0.168647 0
M  V30 6082 H 589.142 -3.84656 -0.718027 0
M  V30 6083 H 588.765 -3.23009 -2.31842 0
M  V30 6084 N 589.762 0.448376 -1.51087 0
M  V30 6085 C 591.039 1.20926 -1.53741 0
M  V30 6086 C 591.419 2.09025 -0.295222 0
M  V30 6087 O 590.767 2.16851 0.720283 0
M  V30 6088 C 590.977 2.02067 -2.84552 0
M  V30 6089 C 592.325 2.59486 -3.36084 0
M  V30 6090 O 593.349 2.12289 -2.86028 0
M  V30 6091 O 592.208 3.45539 -4.23397 0
M  V30 6092 H 589.302 0.549951 -0.617643 0
M  V30 6093 H 591.848 0.458344 -1.63393 0
M  V30 6094 H 590.62 1.37291 -3.66425 0
M  V30 6095 H 590.243 2.84246 -2.78011 0
M  V30 6096 N 591.24 1.41047 0.703093 0
M  V30 6097 C 592.486 1.40207 1.46526 0
M  V30 6098 C 592.819 0.00847763 1.94198 0
M  V30 6099 O 592.094 -0.962437 1.69019 0
M  V30 6100 C 592.377 2.40238 2.6825 0
M  V30 6101 C 592.23 3.88674 2.26391 0
M  V30 6102 C 593.549 2.37627 3.70434 0
M  V30 6103 H 590.668 0.510594 0.531472 0
M  V30 6104 H 593.31 1.72271 0.801422 0
M  V30 6105 H 591.46 2.13026 3.24888 0
M  V30 6106 H 593.132 4.2676 1.75138 0
M  V30 6107 H 591.375 4.03903 1.58255 0
M  V30 6108 H 592.046 4.542 3.13698 0
M  V30 6109 H 594.522 2.61759 3.23452 0
M  V30 6110 H 593.398 3.09645 4.53223 0
M  V30 6111 H 593.659 1.39223 4.19606 0
M  V30 6112 N 592.718 -0.936591 1.26751 0
M  V30 6113 C 593.965 -1.68331 1.12566 0
M  V30 6114 C 594.293 -1.91677 -0.330168 0
M  V30 6115 O 593.548 -1.49859 -1.2586 0
M  V30 6116 C 593.847 -3.06099 1.84494 0
M  V30 6117 C 593.513 -3.02493 3.34378 0
M  V30 6118 C 592.175 -3.01217 3.75262 0
M  V30 6119 C 594.527 -2.94453 4.30055 0
M  V30 6120 C 591.855 -2.89672 5.10203 0
M  V30 6121 C 594.207 -2.84449 5.65041 0
M  V30 6122 C 592.871 -2.81518 6.0523 0
M  V30 6123 H 592.141 -0.615965 0.411907 0
M  V30 6124 H 594.788 -1.09292 1.5725 0
M  V30 6125 H 593.093 -3.6879 1.32292 0
M  V30 6126 H 594.79 -3.62733 1.70955 0
M  V30 6127 H 591.38 -3.04269 3.01858 0
M  V30 6128 H 595.564 -2.94544 3.99447 0
M  V30 6129 H 590.82 -2.85783 5.40498 0
M  V30 6130 H 594.994 -2.77192 6.38856 0
M  V30 6131 H 592.621 -2.72329 7.09747 0
M  V30 6132 N 594.196 -1.08629 -1.14182 0
M  V30 6133 C 595.442 -0.818556 -1.85546 0
M  V30 6134 C 595.775 0.654076 -1.82854 0
M  V30 6135 O 595.05 1.48099 -1.26083 0
M  V30 6136 C 595.333 -1.34397 -3.3408 0
M  V30 6137 C 595.186 -2.8821 -3.45333 0
M  V30 6138 C 596.505 -0.971069 -4.29253 0
M  V30 6139 H 593.624 -0.298821 -0.673702 0
M  V30 6140 H 596.266 -1.34629 -1.34071 0
M  V30 6141 H 594.416 -0.895064 -3.78049 0
M  V30 6142 H 596.088 -3.41488 -3.10134 0
M  V30 6143 H 594.331 -3.25756 -2.86471 0
M  V30 6144 H 595.002 -3.20047 -4.49749 0
M  V30 6145 H 597.478 -1.35809 -3.93313 0
M  V30 6146 H 596.354 -1.36586 -5.31635 0
M  V30 6147 H 596.615 0.121659 -4.41933 0
M  V30 6148 N 595.674 1.31259 -0.872281 0
M  V30 6149 C 596.922 1.96233 -0.483409 0
M  V30 6150 C 597.243 1.69276 0.968012 0
M  V30 6151 O 596.513 1.00943 1.67891 0
M  V30 6152 H 595.093 0.726025 -0.175774 0
M  V30 6153 H 597.755 1.60024 -1.11258 0
M  V30 6154 H 596.851 3.05403 -0.643075 0
M  V30 6155 N 597.152 0.631951 1.44375 0
M  V30 6156 C 598.377 0.142146 2.06912 0
M  V30 6157 C 598.802 -1.17456 1.4692 0
M  V30 6158 O 598.16 -1.72074 0.570975 0
M  V30 6159 C 598.208 0.0417952 3.60576 0
M  V30 6160 O 597.312 -1.00194 4.00044 0
M  V30 6161 H 596.653 0.0851491 0.658518 0
M  V30 6162 H 599.183 0.868863 1.85235 0
M  V30 6163 H 599.193 -0.148517 4.0773 0
M  V30 6164 H 597.868 1.0031 4.03622 0
M  V30 6165 H 596.445 -0.786131 3.64519 0
M  V30 6166 N 598.631 -1.53133 0.372548 0
M  V30 6167 C 599.908 -1.93704 -0.271693 0
M  V30 6168 C 600.288 -1.30667 -1.65799 0
M  V30 6169 O 599.636 -0.46838 -2.23648 0
M  V30 6170 C 599.846 -3.47576 -0.314903 0
M  V30 6171 C 601.194 -4.20998 -0.551912 0
M  V30 6172 O 602.218 -3.53994 -0.39582 0
M  V30 6173 O 601.077 -5.39748 -0.85639 0
M  V30 6174 H 598.171 -0.810457 -0.164586 0
M  V30 6175 H 600.717 -1.6427 0.425838 0
M  V30 6176 H 599.489 -3.85749 0.656792 0
M  V30 6177 H 599.112 -3.83264 -1.05804 0
M  V30 6178 N 600.109 -0.101901 -1.5727 0
M  V30 6179 C 601.337 0.568392 -1.98939 0
M  V30 6180 C 601.752 1.61301 -0.981194 0
M  V30 6181 O 601.109 1.82478 0.0282869 0
M  V30 6182 C 601.16 1.20997 -3.40649 0
M  V30 6183 O 600.881 0.207129 -4.3761 0
M  V30 6184 C 602.382 1.96523 -3.97358 0
M  V30 6185 H 599.602 0.15186 -0.65359 0
M  V30 6186 H 602.146 -0.183198 -2.03678 0
M  V30 6187 H 600.301 1.91245 -3.36904 0
M  V30 6188 H 600.715 0.671071 -5.20189 0
M  V30 6189 H 602.189 2.36764 -4.98645 0
M  V30 6190 H 602.666 2.83376 -3.35552 0
M  V30 6191 H 603.272 1.31076 -4.04598 0
M  V30 6192 N 601.587 1.56661 0.17182 0
M  V30 6193 C 602.519 1.92934 1.2373 0
M  V30 6194 C 603.532 0.822385 1.40502 0
M  V30 6195 O 604.721 1.10083 1.40514 0
M  V30 6196 C 601.821 2.16651 2.60607 0
M  V30 6197 C 600.994 3.47878 2.6514 0
M  V30 6198 C 600.053 3.60429 3.83377 0
M  V30 6199 O 599.079 4.33051 3.69398 0
M  V30 6200 N 600.281 2.95241 4.99813 0
M  V30 6201 H 603.046 2.84931 0.929205 0
M  V30 6202 H 600.607 1.5781 0.361588 0
M  V30 6203 H 602.599 2.22312 3.38171 0
M  V30 6204 H 601.169 1.3104 2.83809 0
M  V30 6205 H 600.389 3.53879 1.73675 0
M  V30 6206 H 601.677 4.34232 2.6518 0
M  V30 6207 H 601.075 2.3611 5.14071 0
M  V30 6208 H 599.632 3.06499 5.75241 0
M  V30 6209 N 603.065 -0.440357 1.51323 0
M  V30 6210 C 603.995 -1.54174 1.75364 0
M  V30 6211 C 604.976 -1.59039 0.603375 0
M  V30 6212 O 606.161 -1.74815 0.845774 0
M  V30 6213 C 603.291 -2.92277 1.87593 0
M  V30 6214 C 602.245 -3.02274 3.03009 0
M  V30 6215 C 601.571 -4.42327 3.00418 0
M  V30 6216 C 602.871 -2.76634 4.43024 0
M  V30 6217 H 604.565 -1.34307 2.67585 0
M  V30 6218 H 602.111 -0.644678 1.28763 0
M  V30 6219 H 604.064 -3.69284 2.02995 0
M  V30 6220 H 602.788 -3.13369 0.920179 0
M  V30 6221 H 601.447 -2.27706 2.87307 0
M  V30 6222 H 601.095 -4.60382 2.02626 0
M  V30 6223 H 600.795 -4.49946 3.77918 0
M  V30 6224 H 602.319 -5.21312 3.17909 0
M  V30 6225 H 603.733 -3.43376 4.59093 0
M  V30 6226 H 602.13 -2.95666 5.22208 0
M  V30 6227 H 603.2 -1.72262 4.5327 0
M  V30 6228 N 604.543 -1.41418 -0.695603 0
M  V30 6229 C 605.789 -1.40982 -1.4578 0
M  V30 6230 C 606.122 -0.0187763 -1.94191 0
M  V30 6231 O 605.397 0.95346 -1.69527 0
M  V30 6232 C 605.68 -2.41657 -2.66972 0
M  V30 6233 C 605.533 -3.89869 -2.24327 0
M  V30 6234 C 606.852 -2.39589 -3.69168 0
M  V30 6235 H 603.971 -0.513405 -0.528757 0
M  V30 6236 H 606.613 -1.72693 -0.792275 0
M  V30 6237 H 604.763 -2.14746 -3.23754 0
M  V30 6238 H 606.435 -4.27683 -1.72872 0
M  V30 6239 H 604.678 -4.04737 -1.56111 0
M  V30 6240 H 605.349 -4.55857 -3.11285 0
M  V30 6241 H 607.825 -2.63471 -3.2206 0
M  V30 6242 H 606.701 -3.12044 -4.51575 0
M  V30 6243 H 606.962 -1.41447 -4.18862 0
M  V30 6244 N 606.021 0.929856 -1.27246 0
M  V30 6245 C 606.984 2.01172 -1.09829 0
M  V30 6246 C 607.984 1.60743 -0.0429687 0
M  V30 6247 O 609.174 1.71813 -0.287373 0
M  V30 6248 C 606.306 3.34191 -0.673003 0
M  V30 6249 H 607.499 2.18054 -2.05895 0
M  V30 6250 H 605.052 1.11036 -1.10003 0
M  V30 6251 H 605.787 3.23009 0.289134 0
M  V30 6252 H 605.572 3.64892 -1.43515 0
M  V30 6253 H 607.062 4.13646 -0.573323 0
M  V30 6254 N 607.499 1.09233 1.13605 0
M  V30 6255 C 608.91 0.846839 1.6639 0
M  V30 6256 C 609.261 -0.625031 1.85978 0
M  V30 6257 O 608.386 -1.48173 1.57714 0
M  V30 6258 C 608.981 1.5307 3.0225 0
M  V30 6259 C 607.54 1.33223 3.52035 0
M  V30 6260 C 606.687 1.58806 2.27323 0
M  V30 6261 H 609.638 1.25175 0.975541 0
M  V30 6262 H 609.659 0.96267 3.68121 0
M  V30 6263 H 609.171 2.60192 2.87961 0
M  V30 6264 H 607.272 0.282091 3.71531 0
M  V30 6265 H 607.385 2.0657 4.32279 0
M  V30 6266 H 605.749 1.01007 2.33815 0
M  V30 6267 H 606.532 2.67153 2.15602 0
M  V30 6268 N 608.977 -1.30795 0.87923 0
M  V30 6269 C 610.223 -1.96653 0.495519 0
M  V30 6270 C 610.556 -1.69282 -0.951703 0
M  V30 6271 O 609.831 -0.994374 -1.6716 0
M  V30 6272 C 610.114 -3.51898 0.764174 0
M  V30 6273 C 609.967 -3.88808 2.2616 0
M  V30 6274 C 611.286 -4.39462 0.236825 0
M  V30 6275 H 608.405 -0.7143 0.181507 0
M  V30 6276 H 611.047 -1.54765 1.10217 0
M  V30 6277 H 609.197 -3.87709 0.247841 0
M  V30 6278 H 610.869 -3.63051 2.8459 0
M  V30 6279 H 609.112 -3.37082 2.73053 0
M  V30 6280 H 609.783 -4.97086 2.4002 0
M  V30 6281 H 612.259 -4.10528 0.678683 0
M  V30 6282 H 611.135 -5.47018 0.454176 0
M  V30 6283 H 611.396 -4.33621 -0.861683 0
M  V30 6284 N 610.455 -0.639598 -1.44038 0
M  V30 6285 C 611.683 -0.154811 -2.0632 0
M  V30 6286 C 612.098 1.17406 -1.47856 0
M  V30 6287 O 611.455 1.72193 -0.604638 0
M  V30 6288 C 611.506 -0.0429958 -3.61474 0
M  V30 6289 O 611.227 -1.31932 -4.17763 0
M  V30 6290 C 612.728 0.469486 -4.40807 0
M  V30 6291 H 609.948 -0.0835862 -0.665773 0
M  V30 6292 H 612.492 -0.876397 -1.84769 0
M  V30 6293 H 610.647 0.629075 -3.82258 0
M  V30 6294 H 611.061 -1.16965 -5.11292 0
M  V30 6295 H 612.535 0.496712 -5.49761 0
M  V30 6296 H 613.012 1.49819 -4.12857 0
M  V30 6297 H 613.618 -0.169624 -4.24962 0
M  V30 6298 N 611.933 1.52934 -0.380664 0
M  V30 6299 C 613.179 2.01765 0.20458 0
M  V30 6300 C 613.512 1.26696 1.47179 0
M  V30 6301 O 612.787 0.364936 1.91046 0
M  V30 6302 C 613.07 3.56869 0.481269 0
M  V30 6303 C 612.923 4.42617 -0.800629 0
M  V30 6304 C 614.242 4.2121 1.27554 0
M  V30 6305 H 611.361 0.733388 0.0728803 0
M  V30 6306 H 614.003 1.83068 -0.50853 0
M  V30 6307 H 612.153 3.72932 1.08875 0
M  V30 6308 H 613.825 4.38323 -1.43773 0
M  V30 6309 H 612.068 4.09977 -1.4178 0
M  V30 6310 H 612.739 5.49134 -0.561791 0
M  V30 6311 H 615.215 4.09072 0.761514 0
M  V30 6312 H 614.091 5.29732 1.43788 0
M  V30 6313 H 614.352 3.78269 2.28833 0
M  V30 6314 N 613.412 0.11024 1.57214 0
M  V30 6315 C 614.66 -0.548783 1.94506 0
M  V30 6316 C 614.981 -1.67772 0.99386 0
M  V30 6317 O 614.251 -1.9584 0.0485841 0
M  V30 6318 H 612.831 -0.205715 0.718116 0
M  V30 6319 H 615.493 0.177127 1.94093 0
M  V30 6320 H 614.589 -0.949096 2.97319 0
M  V30 6321 N 614.89 -1.56749 -0.16351 0
M  V30 6322 C 615.837 -1.97011 -1.2023 0
M  V30 6323 C 616.807 -0.835186 -1.43575 0
M  V30 6324 O 617.992 -1.09594 -1.56185 0
M  V30 6325 C 615.132 -2.34186 -2.53478 0
M  V30 6326 C 614.245 -3.60893 -2.37446 0
M  V30 6327 C 613.38 -3.87245 -3.63614 0
M  V30 6328 C 612.419 -5.07274 -3.42548 0
M  V30 6329 N 611.556 -5.29719 -4.60806 0
M  V30 6330 H 616.396 -2.85562 -0.851958 0
M  V30 6331 H 613.933 -1.41292 -0.409257 0
M  V30 6332 H 615.891 -2.53764 -3.31149 0
M  V30 6333 H 614.521 -1.48736 -2.86492 0
M  V30 6334 H 613.573 -3.49185 -1.50911 0
M  V30 6335 H 614.885 -4.48722 -2.1783 0
M  V30 6336 H 614.039 -4.07232 -4.49719 0
M  V30 6337 H 612.778 -2.97806 -3.86216 0
M  V30 6338 H 611.783 -4.87177 -2.5483 0
M  V30 6339 H 613.008 -5.98251 -3.2136 0
M  V30 6340 H 610.954 -4.43233 -4.83612 0
M  V30 6341 H 610.871 -6.11786 -4.44132 0
M  V30 6342 H 612.139 -5.54192 -5.48171 0
M  V30 6343 N 616.368 0.432326 -1.51554 0
M  V30 6344 C 617.616 1.17901 -1.64146 0
M  V30 6345 C 617.937 1.91604 -0.362367 0
M  V30 6346 O 617.207 1.85764 0.621968 0
M  V30 6347 H 615.787 0.438206 -0.604966 0
M  V30 6348 H 618.449 0.495172 -1.88505 0
M  V30 6349 H 617.545 1.90584 -2.47152 0
M  V30 6350 N 617.846 1.41785 0.688094 0
M  V30 6351 C 618.809 1.43936 1.78368 0
M  V30 6352 C 619.809 0.328866 1.57401 0
M  V30 6353 O 620.999 0.589093 1.63937 0
M  V30 6354 C 618.131 1.25804 3.16838 0
M  V30 6355 H 619.324 2.41472 1.77852 0
M  V30 6356 H 616.877 1.28037 0.896448 0
M  V30 6357 H 617.612 0.291386 3.22988 0
M  V30 6358 H 617.397 2.06272 3.33458 0
M  V30 6359 H 618.887 1.30162 3.96797 0
M  V30 6360 N 619.324 -0.923095 1.27737 0
M  V30 6361 C 620.552 -1.70525 1.17171 0
M  V30 6362 C 620.967 -1.86847 -0.270881 0
M  V30 6363 O 620.324 -1.38879 -1.18401 0
M  V30 6364 C 620.375 -3.10242 1.85559 0
M  V30 6365 O 620.096 -2.94683 3.24182 0
M  V30 6366 C 621.597 -4.04586 1.81176 0
M  V30 6367 H 618.817 -0.533347 0.407163 0
M  V30 6368 H 621.361 -1.15599 1.68692 0
M  V30 6369 H 619.516 -3.62014 1.3793 0
M  V30 6370 H 619.93 -3.83045 3.58297 0
M  V30 6371 H 621.404 -5.00119 2.33633 0
M  V30 6372 H 621.881 -4.3218 0.782099 0
M  V30 6373 H 622.487 -3.58741 2.2844 0
M  V30 6374 N 620.802 -1.09834 -1.13024 0
M  V30 6375 C 622.051 -0.831806 -1.83749 0
M  V30 6376 C 622.364 0.644763 -1.84668 0
M  V30 6377 O 623.57 1.02697 -2.51327 0
M  V30 6378 C 622.026 -1.43817 -3.29916 0
M  V30 6379 C 621.634 -2.94759 -3.37374 0
M  V30 6380 C 623.378 -1.25077 -4.05655 0
M  V30 6381 C 621.285 -3.48461 -4.77838 0
M  V30 6382 H 620.215 -0.30751 -0.688443 0
M  V30 6383 H 622.866 -1.32156 -1.27307 0
M  V30 6384 H 621.248 -0.876106 -3.86187 0
M  V30 6385 H 622.422 -3.57228 -2.91076 0
M  V30 6386 H 620.737 -3.12581 -2.75103 0
M  V30 6387 H 623.334 -1.62649 -5.09362 0
M  V30 6388 H 623.677 -0.191782 -4.15858 0
M  V30 6389 H 624.21 -1.78057 -3.55725 0
M  V30 6390 H 620.949 -4.53998 -4.72828 0
M  V30 6391 H 620.469 -2.90757 -5.24615 0
M  V30 6392 H 622.148 -3.45914 -5.46766 0
M  V30 6393 N 622.28 1.30327 -0.886154 0
M  V30 6394 C 623.243 2.26376 -0.358687 0
M  V30 6395 C 624.243 1.52845 0.499498 0
M  V30 6396 O 625.433 1.71483 0.306485 0
M  V30 6397 C 622.565 3.37379 0.488726 0
M  V30 6398 H 623.758 2.74547 -1.20681 0
M  V30 6399 H 621.311 1.41536 -0.663113 0
M  V30 6400 H 622.046 2.94526 1.35739 0
M  V30 6401 H 621.831 3.91897 -0.126003 0
M  V30 6402 H 623.321 4.08868 0.84952 0
M  V30 6403 N 623.758 0.647228 1.43697 0
M  V30 6404 C 624.721 -0.0385101 2.29168 0
M  V30 6405 C 625.721 -0.756487 1.41894 0
M  V30 6406 O 626.911 -0.598641 1.63591 0
M  V30 6407 C 624.043 -1.06524 3.23829 0
M  V30 6408 H 625.236 0.713445 2.9129 0
M  V30 6409 H 622.789 0.408153 1.50877 0
M  V30 6410 H 623.524 -1.84664 2.66589 0
M  V30 6411 H 623.309 -0.554147 3.88164 0
M  V30 6412 H 624.799 -1.54432 3.87996 0
M  V30 6413 N 625.236 -1.5273 0.388769 0
M  V30 6414 C 626.484 -2.01174 -0.193208 0
M  V30 6415 C 626.805 -1.27705 -1.47365 0
M  V30 6416 O 626.075 -0.396966 -1.91836 0
M  V30 6417 H 624.655 -0.743287 -0.0743871 0
M  V30 6418 H 627.317 -1.87826 0.520336 0
M  V30 6419 H 626.413 -3.09477 -0.403803 0
M  V30 6420 N 626.714 -0.118576 -1.57153 0
M  V30 6421 C 627.942 0.54726 -1.99531 0
M  V30 6422 C 628.357 1.60251 -0.998246 0
M  V30 6423 O 627.714 1.82498 0.00893106 0
M  V30 6424 C 627.765 1.17378 -3.41913 0
M  V30 6425 O 627.486 0.160703 -4.37805 0
M  V30 6426 C 628.987 1.92297 -3.9942 0
M  V30 6427 H 626.207 0.144919 -0.655164 0
M  V30 6428 H 628.751 -0.20479 -2.03472 0
M  V30 6429 H 626.906 1.87661 -3.38913 0
M  V30 6430 H 627.32 0.61586 -5.20872 0
M  V30 6431 H 628.794 2.31462 -5.01128 0
M  V30 6432 H 629.271 2.79801 -3.38538 0
M  V30 6433 H 629.877 1.26777 -4.05965 0
M  V30 6434 N 628.193 1.56834 0.155195 0
M  V30 6435 C 629.421 1.87049 0.884326 0
M  V30 6436 C 629.836 0.705839 1.7511 0
M  V30 6437 O 629.193 -0.324641 1.79589 0
M  V30 6438 C 629.244 3.1644 1.74781 0
M  V30 6439 O 628.965 4.28417 0.915978 0
M  V30 6440 C 630.466 3.60113 2.58522 0
M  V30 6441 H 627.686 0.620196 0.25612 0
M  V30 6442 H 630.23 2.03946 0.150445 0
M  V30 6443 H 628.385 3.01321 2.43484 0
M  V30 6444 H 628.799 5.02353 1.50803 0
M  V30 6445 H 630.273 4.53508 3.14698 0
M  V30 6446 H 630.75 2.85005 3.34169 0
M  V30 6447 H 631.356 3.77898 1.95124 0
M  V30 6448 N 629.671 -0.424282 1.51781 0
M  V30 6449 C 630.917 -1.17434 1.6534 0
M  V30 6450 C 631.25 -1.90549 0.374806 0
M  V30 6451 O 630.525 -1.84145 -0.626179 0
M  V30 6452 C 630.808 -2.18093 2.86544 0
M  V30 6453 C 630.661 -1.48975 4.24413 0
M  V30 6454 C 631.98 -3.18934 3.03264 0
M  V30 6455 H 629.099 -0.425566 0.601716 0
M  V30 6456 H 631.741 -0.461921 1.84299 0
M  V30 6457 H 629.891 -2.78849 2.7051 0
M  V30 6458 H 631.563 -0.914551 4.52143 0
M  V30 6459 H 629.806 -0.791893 4.26511 0
M  V30 6460 H 630.477 -2.22347 5.05238 0
M  V30 6461 H 632.953 -2.68243 3.18096 0
M  V30 6462 H 631.829 -3.86645 3.89611 0
M  V30 6463 H 632.09 -3.85793 2.15908 0
M  V30 6464 N 631.149 -1.42148 -0.680565 0
M  V30 6465 C 632.377 -1.45696 -1.46902 0
M  V30 6466 C 632.792 -0.0665858 -1.88683 0
M  V30 6467 O 632.149 0.917436 -1.57764 0
M  V30 6468 C 632.2 -2.37898 -2.72188 0
M  V30 6469 O 631.921 -3.71526 -2.32163 0
M  V30 6470 C 633.422 -2.50407 -3.65802 0
M  V30 6471 H 630.642 -0.495729 -0.45221 0
M  V30 6472 H 633.186 -1.866 -0.836709 0
M  V30 6473 H 631.341 -2.00263 -3.31622 0
M  V30 6474 H 631.755 -4.20849 -3.13027 0
M  V30 6475 H 633.229 -3.19056 -4.50452 0
M  V30 6476 H 633.706 -1.5401 -4.11312 0
M  V30 6477 H 634.312 -2.8874 -3.12265 0
M  V30 6478 N 632.627 0.916307 -1.28225 0
M  V30 6479 C 634.043 1.19425 -1.05876 0
M  V30 6480 C 634.243 2.005 0.2005 0
M  V30 6481 O 633.299 2.35806 0.902873 0
M  V30 6482 C 634.612 1.93133 -2.30478 0
M  V30 6483 C 636.16 2.06026 -2.35632 0
M  V30 6484 C 636.635 2.83141 -3.59994 0
M  V30 6485 N 638.126 2.90704 -3.60618 0
M  V30 6486 C 638.861 3.50865 -4.53521 0
M  V30 6487 N 638.357 4.12327 -5.56739 0
M  V30 6488 N 640.15 3.48379 -4.41122 0
M  V30 6489 H 632.301 0.37496 -2.09064 0
M  V30 6490 H 634.564 0.228531 -0.920042 0
M  V30 6491 H 634.27 1.40985 -3.22205 0
M  V30 6492 H 634.144 2.93696 -2.36691 0
M  V30 6493 H 636.531 2.57355 -1.44404 0
M  V30 6494 H 636.612 1.04647 -2.33415 0
M  V30 6495 H 636.256 2.32492 -4.51564 0
M  V30 6496 H 636.186 3.84829 -3.59464 0
M  V30 6497 H 638.677 2.47034 -2.85977 0
M  V30 6498 H 638.99 4.56205 -6.23776 0
M  V30 6499 H 637.335 4.10839 -5.60568 0
M  V30 6500 H 640.526 2.99572 -3.59686 0
M  V30 6501 H 640.699 3.94974 -5.13712 0
M  V30 6502 N 634.105 1.10431 1.1244 0
M  V30 6503 C 635.053 0.747974 2.20246 0
M  V30 6504 C 636.047 -0.255848 1.67457 0
M  V30 6505 O 637.253 -0.116221 1.79624 0
M  V30 6506 H 633.628 0.223946 0.71788 0
M  V30 6507 H 635.599 1.6661 2.47556 0
M  V30 6508 C 634.348 0.195957 3.47147 0
M  V30 6509 H 633.671 0.959606 3.88113 0
M  V30 6510 H 635.111 -0.0153154 4.23997 0
M  V30 6511 C 633.57 -1.07132 3.19413 0
M  V30 6512 O 634.1 -2.15284 3.3914 0
M  V30 6513 N 632.306 -0.98994 2.73219 0
M  V30 6514 H 631.853 -0.109736 2.57366 0
M  V30 6515 H 631.811 -1.83856 2.55038 0
M  V30 6516 N 635.583 -1.29855 0.893053 0
M  V30 6517 C 636.829 -1.96116 0.516349 0
M  V30 6518 C 637.162 -1.70281 -0.933695 0
M  V30 6519 O 636.437 -1.01205 -1.66096 0
M  V30 6520 C 636.72 -3.51068 0.801455 0
M  V30 6521 C 636.573 -3.86387 2.30272 0
M  V30 6522 C 637.892 -4.39186 0.283423 0
M  V30 6523 H 635.011 -0.712335 0.189072 0
M  V30 6524 H 637.653 -1.53587 1.11852 0
M  V30 6525 H 635.803 -3.87424 0.288949 0
M  V30 6526 H 637.475 -3.60012 2.88425 0
M  V30 6527 H 635.718 -3.34167 2.76613 0
M  V30 6528 H 636.389 -4.94512 2.45279 0
M  V30 6529 H 638.865 -4.09785 0.722187 0
M  V30 6530 H 637.741 -5.46505 0.512169 0
M  V30 6531 H 638.002 -4.34511 -0.815643 0
M  V30 6532 N 637.061 -0.65484 -1.43351 0
M  V30 6533 C 638.309 -0.168559 -2.01396 0
M  V30 6534 C 638.63 1.22235 -1.51933 0
M  V30 6535 O 637.9 1.81685 -0.732627 0
M  V30 6536 H 636.48 -0.0593244 -0.744641 0
M  V30 6537 H 639.142 -0.846871 -1.75539 0
M  V30 6538 H 638.238 -0.154428 -3.11718 0
M  V30 6539 N 638.539 1.52521 -0.396863 0
M  V30 6540 C 639.449 2.30403 0.44178 0
M  V30 6541 C 640.465 1.37625 1.06468 0
M  V30 6542 O 641.641 1.70697 1.06886 0
M  V30 6543 C 638.706 3.1013 1.54986 0
M  V30 6544 C 637.767 4.18628 0.951279 0
M  V30 6545 C 637 4.94543 2.00655 0
M  V30 6546 O 637.223 4.70629 3.22281 0
M  V30 6547 O 636.157 5.797 1.61962 0
M  V30 6548 H 639.983 3.03087 -0.192892 0
M  V30 6549 H 637.568 1.48537 -0.16038 0
M  V30 6550 H 639.45 3.59816 2.19341 0
M  V30 6551 H 638.125 2.40251 2.16935 0
M  V30 6552 H 637.032 3.73119 0.270773 0
M  V30 6553 H 638.365 4.90763 0.375887 0
M  V30 6554 N 640.017 0.126909 1.57088 0
M  V30 6555 C 640.965 -0.837618 2.16995 0
M  V30 6556 C 641.959 -1.26974 1.12133 0
M  V30 6557 O 643.165 -1.24056 1.30423 0
M  V30 6558 H 639.54 -0.288256 0.694559 0
M  V30 6559 H 641.511 -0.307957 2.96807 0
M  V30 6560 C 640.26 -2.07474 2.79016 0
M  V30 6561 H 639.583 -1.75117 3.59408 0
M  V30 6562 H 641.023 -2.72949 3.24461 0
M  V30 6563 C 639.482 -2.86967 1.76498 0
M  V30 6564 O 640.012 -3.82625 1.22316 0
M  V30 6565 N 638.218 -2.51111 1.46258 0
M  V30 6566 H 637.765 -1.73389 1.90509 0
M  V30 6567 H 637.723 -3.04594 0.779085 0
M  V30 6568 N 641.495 -1.56914 -0.146875 0
M  V30 6569 C 642.458 -1.97368 -1.16526 0
M  V30 6570 C 643.458 -0.860223 -1.35856 0
M  V30 6571 O 644.648 -1.12684 -1.32846 0
M  V30 6572 C 641.78 -2.28974 -2.52555 0
M  V30 6573 H 642.973 -2.88523 -0.818209 0
M  V30 6574 H 640.526 -1.5135 -0.390221 0
M  V30 6575 H 641.261 -1.40611 -2.92231 0
M  V30 6576 H 641.046 -3.10157 -2.39886 0
M  V30 6577 H 642.536 -2.61109 -3.25902 0
M  V30 6578 N 642.974 0.416227 -1.52004 0
M  V30 6579 C 643.904 1.51365 -1.77795 0
M  V30 6580 C 644.885 1.58059 -0.628601 0
M  V30 6581 O 646.07 1.73447 -0.873478 0
M  V30 6582 C 643.2 2.89256 -1.92219 0
M  V30 6583 C 642.154 2.97415 -3.0778 0
M  V30 6584 C 641.48 4.37492 -3.07417 0
M  V30 6585 C 642.78 2.69551 -4.47369 0
M  V30 6586 H 644.474 1.30033 -2.69688 0
M  V30 6587 H 642.02 0.624112 -1.29772 0
M  V30 6588 H 643.973 3.66008 -2.08845 0
M  V30 6589 H 642.697 3.11866 -0.969917 0
M  V30 6590 H 641.356 2.23107 -2.90893 0
M  V30 6591 H 641.004 4.571 -2.09925 0
M  V30 6592 H 640.704 4.43877 -3.85029 0
M  V30 6593 H 642.228 5.16188 -3.26162 0
M  V30 6594 H 643.642 3.36028 -4.64497 0
M  V30 6595 H 642.039 2.87321 -5.26846 0
M  V30 6596 H 643.109 1.65029 -4.55953 0
M  V30 6597 N 644.452 1.42507 0.673017 0
M  V30 6598 C 645.415 1.4582 1.76831 0
M  V30 6599 C 646.415 0.345542 1.57043 0
M  V30 6600 O 647.605 0.606447 1.63303 0
M  V30 6601 C 644.737 1.29158 3.15485 0
M  V30 6602 H 645.93 2.43345 1.7528 0
M  V30 6603 H 643.483 1.28981 0.882817 0
M  V30 6604 H 644.218 0.325626 3.22661 0
M  V30 6605 H 644.003 2.09797 3.31252 0
M  V30 6606 H 645.493 1.34363 3.95394 0
M  V30 6607 N 645.93 -0.909495 1.28709 0
M  V30 6608 C 647.179 -1.65365 1.15487 0
M  V30 6609 C 647.492 -1.93364 -0.294941 0
M  V30 6610 O 648.698 -2.65905 -0.548338 0
M  V30 6611 C 647.154 -2.97923 2.01916 0
M  V30 6612 C 646.762 -2.77556 3.51663 0
M  V30 6613 C 648.506 -3.75814 1.97393 0
M  V30 6614 C 646.413 -4.0578 4.30229 0
M  V30 6615 H 645.343 -0.620323 0.42862 0
M  V30 6616 H 647.994 -1.00894 1.53273 0
M  V30 6617 H 646.376 -3.63552 1.5699 0
M  V30 6618 H 647.55 -2.2058 4.04575 0
M  V30 6619 H 645.865 -2.13072 3.57756 0
M  V30 6620 H 648.462 -4.70866 2.53357 0
M  V30 6621 H 648.805 -4.05277 0.951643 0
M  V30 6622 H 649.338 -3.1701 2.40311 0
M  V30 6623 H 646.077 -3.81488 5.33055 0
M  V30 6624 H 645.597 -4.62351 3.82089 0
M  V30 6625 H 647.276 -4.74004 4.40374 0
M  V30 6626 N 647.408 -1.11026 -1.11852 0
M  V30 6627 C 648.633 -0.879064 -1.87849 0
M  V30 6628 C 649.058 0.565406 -1.79401 0
M  V30 6629 O 648.416 1.39886 -1.15333 0
M  V30 6630 C 648.464 -1.33985 -3.34784 0
M  V30 6631 O 647.568 -0.508803 -4.09249 0
M  V30 6632 H 646.909 -0.316992 -0.583448 0
M  V30 6633 H 649.439 -1.47863 -1.41413 0
M  V30 6634 H 649.449 -1.33248 -3.85628 0
M  V30 6635 H 648.124 -2.39172 -3.40249 0
M  V30 6636 H 646.701 -0.581913 -3.68332 0
M  V30 6637 N 648.886 1.2938 -0.899927 0
M  V30 6638 C 650.302 1.48052 -0.596059 0
M  V30 6639 C 650.502 1.82114 0.862372 0
M  V30 6640 O 649.558 1.91774 1.64253 0
M  V30 6641 C 650.871 2.59332 -1.52208 0
M  V30 6642 C 652.419 2.73208 -1.5273 0
M  V30 6643 C 652.894 3.87617 -2.43961 0
M  V30 6644 N 654.385 3.9495 -2.42009 0
M  V30 6645 C 655.12 4.82824 -3.09303 0
M  V30 6646 N 654.616 5.75387 -3.85877 0
M  V30 6647 N 656.409 4.76317 -2.98459 0
M  V30 6648 H 648.56 1.05546 -1.8432 0
M  V30 6649 H 650.823 0.524314 -0.78981 0
M  V30 6650 H 650.529 2.41029 -2.56121 0
M  V30 6651 H 650.403 3.56139 -1.24278 0
M  V30 6652 H 652.79 2.90908 -0.495614 0
M  V30 6653 H 652.871 1.76975 -1.84698 0
M  V30 6654 H 652.515 3.70672 -3.47224 0
M  V30 6655 H 652.445 4.83218 -2.09303 0
M  V30 6656 H 654.936 3.28744 -1.86375 0
M  V30 6657 H 655.249 6.39235 -4.34279 0
M  V30 6658 H 653.594 5.75272 -3.89984 0
M  V30 6659 H 656.785 4.0299 -2.38152 0
M  V30 6660 H 656.958 5.44589 -3.51179 0
M  V30 6661 N 650.364 0.662433 1.43002 0
M  V30 6662 C 651.61 0.179857 2.02001 0
M  V30 6663 C 651.943 -1.20625 1.52195 0
M  V30 6664 O 651.218 -1.80726 0.718911 0
M  V30 6665 C 651.501 0.200845 3.59539 0
M  V30 6666 C 651.354 1.62153 4.19555 0
M  V30 6667 C 652.673 -0.457738 4.37713 0
M  V30 6668 H 649.792 0.0668305 0.733964 0
M  V30 6669 H 652.434 0.84487 1.70182 0
M  V30 6670 H 650.584 -0.365411 3.86778 0
M  V30 6671 H 652.256 2.23908 4.03315 0
M  V30 6672 H 650.499 2.16601 3.75854 0
M  V30 6673 H 651.17 1.58799 5.28665 0
M  V30 6674 H 653.646 0.0241495 4.16093 0
M  V30 6675 H 652.522 -0.412363 5.47349 0
M  V30 6676 H 652.783 -1.53336 4.14657 0
M  V30 6677 N 651.842 -1.52309 0.404946 0
M  V30 6678 C 653.253 -1.86585 -0.0655926 0
M  V30 6679 C 653.604 -1.3239 -1.44801 0
M  V30 6680 O 652.729 -0.6615 -2.06042 0
M  V30 6681 C 653.324 -3.38566 -0.125801 0
M  V30 6682 C 651.883 -3.72497 -0.540666 0
M  V30 6683 C 651.03 -2.75806 0.287487 0
M  V30 6684 H 653.981 -1.45995 0.622185 0
M  V30 6685 H 654.002 -3.68658 -0.941888 0
M  V30 6686 H 653.514 -3.77981 0.880473 0
M  V30 6687 H 651.615 -3.38659 -1.55373 0
M  V30 6688 H 651.728 -4.78234 -0.287956 0
M  V30 6689 H 650.092 -2.53474 -0.249561 0
M  V30 6690 H 650.875 -3.18059 1.29203 0
M  V30 6691 N 653.32 -0.135238 -1.57019 0
M  V30 6692 C 654.252 0.839675 -2.13265 0
M  V30 6693 C 655.265 1.21887 -1.07923 0
M  V30 6694 O 656.454 1.16499 -1.35241 0
M  V30 6695 C 653.554 2.13647 -2.63075 0
M  V30 6696 C 652.727 1.92646 -3.92691 0
M  V30 6697 C 651.786 3.06205 -4.27931 0
M  V30 6698 O 650.812 2.78409 -4.96465 0
M  V30 6699 N 652.014 4.33072 -3.86561 0
M  V30 6700 H 654.779 0.359026 -2.97542 0
M  V30 6701 H 652.34 0.0486979 -1.61827 0
M  V30 6702 H 654.332 2.88641 -2.8367 0
M  V30 6703 H 652.902 2.5301 -1.83588 0
M  V30 6704 H 652.122 1.01754 -3.80841 0
M  V30 6705 H 653.41 1.75939 -4.77413 0
M  V30 6706 H 652.808 4.58526 -3.31316 0
M  V30 6707 H 651.365 5.04885 -4.12231 0
M  V30 6708 N 654.798 1.5699 0.138552 0
M  V30 6709 C 656.026 1.87976 0.864437 0
M  V30 6710 C 656.441 0.724372 1.74351 0
M  V30 6711 O 655.798 -0.305575 1.79924 0
M  V30 6712 C 655.849 3.18276 1.71414 0
M  V30 6713 O 655.57 4.29365 0.870487 0
M  V30 6714 C 657.071 3.62834 2.54688 0
M  V30 6715 H 654.291 0.622878 0.249528 0
M  V30 6716 H 656.835 2.04094 0.128805 0
M  V30 6717 H 654.99 3.03886 2.40274 0
M  V30 6718 H 655.404 5.03924 1.45466 0
M  V30 6719 H 656.878 4.5682 3.0987 0
M  V30 6720 H 657.355 2.88533 3.31127 0
M  V30 6721 H 657.961 3.79946 1.91105 0
M  V30 6722 N 656.276 -0.40816 1.52223 0
M  V30 6723 C 657.208 -1.51642 1.71864 0
M  V30 6724 C 658.221 -1.51378 0.599056 0
M  V30 6725 O 659.41 -1.55626 0.874239 0
M  V30 6726 C 656.51 -2.90534 1.74481 0
M  V30 6727 C 655.683 -3.14979 3.03491 0
M  V30 6728 C 654.742 -4.33749 2.97907 0
M  V30 6729 O 653.768 -4.30982 3.71811 0
M  V30 6730 N 654.97 -5.38912 2.15764 0
M  V30 6731 H 657.735 -1.35188 2.67478 0
M  V30 6732 H 655.296 -0.597468 1.50472 0
M  V30 6733 H 657.288 -3.68056 1.68275 0
M  V30 6734 H 655.858 -3.00441 0.863363 0
M  V30 6735 H 655.078 -2.25492 3.23337 0
M  V30 6736 H 656.366 -3.28156 3.88833 0
M  V30 6737 H 655.764 -5.44008 1.55152 0
M  V30 6738 H 654.321 -6.15174 2.15415 0
M  V30 6739 N 657.755 -1.42862 -0.66545 0
M  V30 6740 C 658.702 -1.4707 -1.77874 0
M  V30 6741 C 659.672 -0.321654 -1.62956 0
M  V30 6742 O 660.857 -0.52707 -1.83376 0
M  V30 6743 C 657.997 -1.38788 -3.15962 0
M  V30 6744 C 657.11 -2.63801 -3.42101 0
M  V30 6745 C 656.245 -2.47594 -4.69969 0
M  V30 6746 C 655.284 -3.67936 -4.89172 0
M  V30 6747 N 654.421 -3.50614 -6.08288 0
M  V30 6748 H 659.261 -2.42204 -1.73613 0
M  V30 6749 H 656.798 -1.20239 -0.847401 0
M  V30 6750 H 658.756 -1.31982 -3.95773 0
M  V30 6751 H 657.386 -0.472431 -3.19324 0
M  V30 6752 H 656.438 -2.80935 -2.56475 0
M  V30 6753 H 657.75 -3.53228 -3.52181 0
M  V30 6754 H 656.904 -2.38427 -5.57886 0
M  V30 6755 H 655.643 -1.55672 -4.62188 0
M  V30 6756 H 654.648 -3.77525 -3.99694 0
M  V30 6757 H 655.873 -4.60851 -4.98792 0
M  V30 6758 H 653.819 -2.61417 -6.01662 0
M  V30 6759 H 653.736 -4.33634 -6.19272 0
M  V30 6760 H 655.004 -3.45276 -6.98859 0
M  V30 6761 N 659.233 0.902656 -1.29189 0
M  V30 6762 C 660.143 2.03946 -1.15944 0
M  V30 6763 C 661.159 1.738 -0.0833803 0
M  V30 6764 O 662.335 1.9923 -0.29487 0
M  V30 6765 C 659.4 3.36519 -0.834006 0
M  V30 6766 C 658.461 3.80203 -1.9936 0
M  V30 6767 C 657.694 5.06449 -1.68359 0
M  V30 6768 O 657.917 5.67202 -0.603141 0
M  V30 6769 O 656.851 5.46114 -2.53067 0
M  V30 6770 H 660.677 2.18043 -2.11403 0
M  V30 6771 H 658.262 1.02584 -1.08613 0
M  V30 6772 H 660.144 4.16089 -0.666949 0
M  V30 6773 H 658.819 3.23573 0.0908245 0
M  V30 6774 H 657.726 3.01413 -2.21588 0
M  V30 6775 H 659.059 3.97729 -2.89952 0
M  V30 6776 N 660.711 1.11618 1.11262 0
M  V30 6777 C 661.959 0.864469 1.82678 0
M  V30 6778 C 662.28 -0.611564 1.85162 0
M  V30 6779 O 661.55 -1.44429 1.32352 0
M  V30 6780 H 660.13 0.316821 0.676486 0
M  V30 6781 H 662.792 1.40894 1.34666 0
M  V30 6782 H 661.888 1.23832 2.86482 0
M  V30 6783 N 662.189 -1.289 0.906776 0
M  V30 6784 C 663.435 -1.95919 0.546551 0
M  V30 6785 C 663.79 -1.70126 -0.8986 0
M  V30 6786 O 663.083 -1.00775 -1.62957 0
M  V30 6787 C 663.277 -3.48704 0.783617 0
M  V30 6788 C 663.106 -3.8935 2.25026 0
M  V30 6789 C 661.876 -4.13864 2.89905 0
M  V30 6790 C 664.074 -4.00535 3.22608 0
M  V30 6791 N 662.056 -4.41131 4.26939 0
M  V30 6792 C 663.427 -4.31936 4.44783 0
M  V30 6793 C 665.482 -3.83035 3.18102 0
M  V30 6794 C 664.185 -4.47659 5.63022 0
M  V30 6795 C 666.211 -3.99971 4.35634 0
M  V30 6796 C 665.573 -4.31738 5.5658 0
M  V30 6797 H 661.672 -0.74105 0.249737 0
M  V30 6798 H 664.256 -1.55696 1.16906 0
M  V30 6799 H 662.427 -3.87933 0.190437 0
M  V30 6800 H 664.159 -4.02835 0.38812 0
M  V30 6801 H 660.914 -4.07893 2.40666 0
M  V30 6802 H 661.338 -4.5886 4.97771 0
M  V30 6803 H 665.98 -3.57533 2.25677 0
M  V30 6804 H 663.698 -4.71995 6.55932 0
M  V30 6805 H 667.284 -3.87874 4.33641 0
M  V30 6806 H 666.164 -4.44568 6.4601 0
M  V30 6807 N 663.667 -0.670007 -1.42649 0
M  V30 6808 C 665.083 -0.33911 -1.55956 0
M  V30 6809 C 665.283 1.1558 -1.65056 0
M  V30 6810 O 664.339 1.94111 -1.61485 0
M  V30 6811 C 665.652 -1.06522 -2.812 0
M  V30 6812 C 667.2 -1.04708 -2.94966 0
M  V30 6813 C 667.675 -1.75442 -4.23065 0
M  V30 6814 N 669.166 -1.72286 -4.29967 0
M  V30 6815 C 669.901 -2.23877 -5.27889 0
M  V30 6816 N 669.397 -2.83829 -6.31991 0
M  V30 6817 N 671.19 -2.14279 -5.19654 0
M  V30 6818 H 663.341 -1.6399 -1.34986 0
M  V30 6819 H 665.604 -0.690603 -0.649439 0
M  V30 6820 H 665.31 -2.12033 -2.80597 0
M  V30 6821 H 665.184 -0.627398 -3.71946 0
M  V30 6822 H 667.571 -0.000315966 -2.951 0
M  V30 6823 H 667.652 -1.52374 -2.05465 0
M  V30 6824 H 667.296 -2.80084 -4.23693 0
M  V30 6825 H 667.226 -1.25229 -5.11493 0
M  V30 6826 H 669.717 -1.28554 -3.55362 0
M  V30 6827 H 670.03 -3.20827 -7.03057 0
M  V30 6828 H 668.375 -2.87896 -6.32567 0
M  V30 6829 H 671.566 -1.67135 -4.37245 0
M  V30 6830 H 671.739 -2.54792 -5.95806 0
M  V30 6831 N 665.145 1.52092 -0.413018 0
M  V30 6832 C 666.561 1.59471 -0.0640836 0
M  V30 6833 C 666.761 1.42562 1.42402 0
M  V30 6834 O 665.817 1.25453 2.19129 0
M  V30 6835 C 667.13 2.95392 -0.562474 0
M  V30 6836 C 668.678 3.08637 -0.520788 0
M  V30 6837 C 669.153 4.47044 -0.995752 0
M  V30 6838 N 670.644 4.53296 -0.952732 0
M  V30 6839 C 671.379 5.58669 -1.29138 0
M  V30 6840 N 670.875 6.71576 -1.70168 0
M  V30 6841 N 672.668 5.48898 -1.2111 0
M  V30 6842 H 664.819 1.6133 -1.38153 0
M  V30 6843 H 667.082 0.75916 -0.567785 0
M  V30 6844 H 666.788 3.13059 -1.60271 0
M  V30 6845 H 666.662 3.77191 0.0257875 0
M  V30 6846 H 669.049 2.90652 0.510412 0
M  V30 6847 H 669.13 2.28735 -1.14515 0
M  V30 6848 H 668.774 4.65773 -2.0253 0
M  V30 6849 H 668.704 5.25448 -0.348162 0
M  V30 6850 H 671.195 3.72248 -0.651119 0
M  V30 6851 H 671.508 7.47973 -1.9431 0
M  V30 6852 H 669.853 6.72847 -1.74075 0
M  V30 6853 H 673.044 4.59573 -0.889396 0
M  V30 6854 H 673.217 6.30912 -1.47833 0
M  V30 6855 N 666.623 0.143563 1.56945 0
M  V30 6856 C 668.034 -0.37783 1.82837 0
M  V30 6857 C 668.385 -1.64967 1.06209 0
M  V30 6858 O 667.51 -2.14221 0.306291 0
M  V30 6859 C 668.105 -0.692274 3.31652 0
M  V30 6860 C 666.664 -1.1582 3.58138 0
M  V30 6861 C 665.811 -0.17951 2.76718 0
M  V30 6862 H 668.762 0.368317 1.54367 0
M  V30 6863 H 668.783 -1.54729 3.47619 0
M  V30 6864 H 668.295 0.233572 3.87397 0
M  V30 6865 H 666.396 -2.10011 3.07776 0
M  V30 6866 H 666.509 -1.08655 4.66616 0
M  V30 6867 H 664.873 -0.671458 2.4569 0
M  V30 6868 H 665.656 0.739865 3.35233 0
M  V30 6869 N 668.101 -1.57061 -0.130224 0
M  V30 6870 C 669.347 -1.8453 -0.841216 0
M  V30 6871 C 669.68 -0.727666 -1.80052 0
M  V30 6872 O 668.955 0.267419 -1.92653 0
M  V30 6873 C 669.238 -3.22553 -1.60099 0
M  V30 6874 C 669.091 -4.44901 -0.662048 0
M  V30 6875 C 670.41 -3.58003 -2.55973 0
M  V30 6876 H 667.529 -0.671215 -0.304366 0
M  V30 6877 H 670.171 -1.89705 -0.105821 0
M  V30 6878 H 668.321 -3.18272 -2.22789 0
M  V30 6879 H 669.993 -4.61278 -0.0448559 0
M  V30 6880 H 668.236 -4.33791 0.0272253 0
M  V30 6881 H 668.907 -5.3812 -1.23006 0
M  V30 6882 H 671.383 -3.63002 -2.03393 0
M  V30 6883 H 670.259 -4.55576 -3.06172 0
M  V30 6884 H 670.52 -2.84833 -3.38116 0
M  V30 6885 N 669.579 0.400081 -1.52437 0
M  V30 6886 C 670.526 1.48803 -1.76426 0
M  V30 6887 C 671.496 1.5461 -0.607032 0
M  V30 6888 O 672.681 1.71041 -0.845563 0
M  V30 6889 C 669.821 2.86156 -1.92896 0
M  V30 6890 C 668.934 2.89587 -3.20567 0
M  V30 6891 C 668.069 4.18296 -3.27417 0
M  V30 6892 C 667.108 4.15736 -4.49255 0
M  V30 6893 N 666.245 5.36032 -4.53447 0
M  V30 6894 H 671.085 1.27649 -2.69276 0
M  V30 6895 H 668.622 0.619451 -1.33421 0
M  V30 6896 H 670.58 3.65901 -2.00429 0
M  V30 6897 H 669.21 3.05785 -1.03418 0
M  V30 6898 H 668.262 2.02278 -3.22161 0
M  V30 6899 H 669.574 2.83562 -4.10358 0
M  V30 6900 H 668.728 5.06439 -3.34072 0
M  V30 6901 H 667.467 4.27028 -2.35581 0
M  V30 6902 H 666.472 3.25982 -4.42737 0
M  V30 6903 H 667.697 4.08636 -5.42396 0
M  V30 6904 H 665.643 5.45415 -3.64498 0
M  V30 6905 H 665.56 5.32038 -5.37096 0
M  V30 6906 H 666.828 6.26104 -4.64343 0
M  V30 6907 N 671.057 1.43213 0.657864 0
M  V30 6908 C 672.004 1.48011 1.77092 0
M  V30 6909 C 672.974 0.330291 1.62783 0
M  V30 6910 O 674.159 0.536787 1.83094 0
M  V30 6911 C 671.299 1.40461 3.15222 0
M  V30 6912 C 670.412 2.65612 3.40697 0
M  V30 6913 C 669.547 2.50083 4.68649 0
M  V30 6914 C 668.586 3.70525 4.87214 0
M  V30 6915 N 667.723 3.53835 6.0642 0
M  V30 6916 H 672.563 2.43121 1.72326 0
M  V30 6917 H 670.1 1.20687 0.841013 0
M  V30 6918 H 672.058 1.34079 3.95068 0
M  V30 6919 H 670.688 0.489359 3.19069 0
M  V30 6920 H 669.74 2.82292 2.54982 0
M  V30 6921 H 671.052 3.5509 3.50303 0
M  V30 6922 H 670.206 2.41383 5.56614 0
M  V30 6923 H 668.945 1.58121 4.61356 0
M  V30 6924 H 667.95 3.79639 3.97686 0
M  V30 6925 H 669.175 4.63489 4.96341 0
M  V30 6926 H 667.121 2.64604 6.00267 0
M  V30 6927 H 667.038 4.36912 6.16963 0
M  V30 6928 H 668.306 3.48978 6.97019 0
M  V30 6929 N 672.536 -0.895792 1.29666 0
M  V30 6930 C 673.483 -2.00035 1.15129 0
M  V30 6931 C 674.453 -1.66043 0.0435819 0
M  V30 6932 O 675.638 -1.89621 0.211811 0
M  V30 6933 C 672.778 -3.34774 0.83787 0
M  V30 6934 C 671.891 -3.81525 2.0264 0
M  V30 6935 C 671.026 -5.04858 1.65201 0
M  V30 6936 C 670.065 -5.43988 2.80612 0
M  V30 6937 N 669.202 -6.58507 2.43544 0
M  V30 6938 H 674.042 -2.11802 2.09628 0
M  V30 6939 H 671.579 -1.03719 1.04311 0
M  V30 6940 H 673.537 -4.12311 0.636824 0
M  V30 6941 H 672.167 -3.22724 -0.0702314 0
M  V30 6942 H 671.219 -2.9999 2.33903 0
M  V30 6943 H 672.531 -4.06472 2.89106 0
M  V30 6944 H 671.685 -5.8999 1.41408 0
M  V30 6945 H 670.424 -4.81759 0.758893 0
M  V30 6946 H 669.429 -4.57388 3.05083 0
M  V30 6947 H 670.654 -5.69066 3.70595 0
M  V30 6948 H 668.6 -6.37004 1.56724 0
M  V30 6949 H 668.517 -6.83269 3.23542 0
M  V30 6950 H 669.785 -7.46897 2.2308 0
M  V30 6951 O 674.053 -1.24272 -1.03144 0
M  V30 6952 H 674.744 -1.0191 -1.64724 0
M  V30 END ATOM
M  V30 BEGIN BOND
M  V30 END BOND
M  V30 END CTAB
M  END
$$$$
