drugbank_target|P62837 Ubiquitin-conjugating enzyme E2 D2 (DB02418)
 OpenBabel12092120543D

  0  0  0     0  0            999 V3000
M  V30 BEGIN CTAB
M  V30 COUNTS 2343 2379 0 0 0
M  V30 BEGIN ATOM
M  V30 1 H -0.908 1.98254 -0.117106 0
M  V30 2 N 0 1.576 0 0
M  V30 3 C 0.933 2.03868 1.02534 0
M  V30 4 C 1.911 0.928543 1.3348 0
M  V30 5 O 3.095 1.19667 1.45644 0
M  V30 6 C 0.222 2.43627 2.35294 0
M  V30 7 C -0.732 3.65373 2.2001 0
M  V30 8 S 0.101 5.13292 1.52614 0
M  V30 9 C 1.257 5.56322 2.86805 0
M  V30 10 H 1.49 2.90518 0.631377 0
M  V30 11 H -0.977 1.52953 0.210867 0
M  V30 12 H 0.981 2.67203 3.11629 0
M  V30 13 H -0.358 1.57376 2.7183 0
M  V30 14 H -1.165 3.90944 3.18086 0
M  V30 15 H -1.563 3.418 1.51819 0
M  V30 16 H 0.729 5.58782 3.83104 0
M  V30 17 H 1.672 6.56266 2.65933 0
M  V30 18 H 2.08 4.83886 2.90714 0
M  V30 19 N 1.4781 -0.272755 1.55222 0
M  V30 20 C 2.4411 -1.32041 1.87344 0
M  V30 21 C 3.4411 -1.42342 0.74803 0
M  V30 22 O 4.6311 -1.41488 1.0162 0
M  V30 23 C 1.7631 -2.70173 2.07893 0
M  V30 24 H 2.9561 -1.04789 2.80997 0
M  V30 25 H 0.5091 -0.51083 1.47717 0
M  V30 26 H 1.2441 -3.02605 1.16622 0
M  V30 27 H 1.0291 -2.64082 2.89833 0
M  V30 28 H 2.5191 -3.45869 2.34017 0
M  V30 29 N 2.9562 -1.48159 -0.537278 0
M  V30 30 C 3.8862 -1.65029 -1.6519 0
M  V30 31 C 4.8672 -0.499281 -1.62607 0
M  V30 32 O 6.0522 -0.730972 -1.79918 0
M  V30 33 C 3.1822 -1.68303 -3.03795 0
M  V30 34 C 2.1362 -2.8283 -3.21234 0
M  V30 35 C 1.4622 -2.71189 -4.60826 0
M  V30 36 C 2.7622 -4.24211 -3.04701 0
M  V30 37 H 4.4562 -2.58341 -1.51328 0
M  V30 38 H 2.0022 -1.24325 -0.726585 0
M  V30 39 H 3.9552 -1.78693 -3.81637 0
M  V30 40 H 2.6792 -0.715635 -3.18663 0
M  V30 41 H 1.3382 -2.71983 -2.45807 0
M  V30 42 H 0.9862 -1.72435 -4.7252 0
M  V30 43 H 0.6862 -3.48035 -4.7344 0
M  V30 44 H 2.2102 -2.83537 -5.40777 0
M  V30 45 H 3.6242 -4.3593 -3.72341 0
M  V30 46 H 2.0212 -5.01998 -3.28813 0
M  V30 47 H 3.0912 -4.41184 -2.01209 0
M  V30 48 N 4.4343 0.785586 -1.36625 0
M  V30 49 C 5.3813 1.89838 -1.31264 0
M  V30 50 C 6.3513 1.65115 -0.180633 0
M  V30 51 O 7.5363 1.87222 -0.36777 0
M  V30 52 C 4.6763 3.26706 -1.11163 0
M  V30 53 C 3.7893 3.63476 -2.33472 0
M  V30 54 C 2.9243 4.89481 -2.06353 0
M  V30 55 C 1.9633 5.18941 -3.24602 0
M  V30 56 N 1.1003 6.36131 -2.97123 0
M  V30 57 H 5.9403 1.93756 -2.26413 0
M  V30 58 H 3.4773 0.947454 -1.12524 0
M  V30 59 H 5.4353 4.05639 -0.975337 0
M  V30 60 H 4.0653 3.222 -0.196674 0
M  V30 61 H 3.1173 2.79636 -2.57891 0
M  V30 62 H 4.4293 3.81193 -3.21704 0
M  V30 63 H 3.5833 5.76288 -1.89675 0
M  V30 64 H 2.3223 4.73841 -1.15437 0
M  V30 65 H 1.3273 4.30615 -3.41834 0
M  V30 66 H 2.5523 5.36498 -4.16349 0
M  V30 67 H 0.4983 6.21875 -2.08823 0
M  V30 68 H 0.4153 6.54198 -3.78894 0
M  V30 69 H 1.6833 7.2591 -2.84033 0
M  V30 70 N 5.9124 1.20967 1.01018 0
M  V30 71 C 7.3284 0.965905 1.27053 0
M  V30 72 C 7.5284 -0.350785 1.98423 0
M  V30 73 O 6.5844 -1.07773 2.28344 0
M  V30 74 C 7.8974 2.15294 2.09926 0
M  V30 75 C 9.4454 2.19463 2.23171 0
M  V30 76 C 9.9204 3.3767 3.09424 0
M  V30 77 N 11.4114 3.37724 3.17012 0
M  V30 78 C 12.1464 4.25837 3.83993 0
M  V30 79 N 11.6424 5.24138 4.53047 0
M  V30 80 N 13.4354 4.1366 3.80581 0
M  V30 81 H 5.5864 2.0565 0.531194 0
M  V30 82 H 7.8494 0.90024 0.297106 0
M  V30 83 H 7.5554 3.10684 1.64828 0
M  V30 84 H 7.4294 2.13923 3.10672 0
M  V30 85 H 9.8164 1.24632 2.6749 0
M  V30 86 H 9.8974 2.2488 1.21912 0
M  V30 87 H 9.5414 4.32791 2.65808 0
M  V30 88 H 9.4714 3.29491 4.10784 0
M  V30 89 H 11.9624 2.6658 2.6785 0
M  V30 90 H 12.2754 5.87684 5.01844 0
M  V30 91 H 10.6204 5.28068 4.5185 0
M  V30 92 H 13.8114 3.36127 3.25785 0
M  V30 93 H 13.9844 4.82538 4.32505 0
M  V30 94 N 7.3905 -1.2043 1.01659 0
M  V30 95 C 8.6395 -1.89118 0.701237 0
M  V30 96 C 8.9525 -1.79705 -0.772358 0
M  V30 97 O 10.1585 -2.43528 -1.20026 0
M  V30 98 C 8.6145 -3.39168 1.20388 0
M  V30 99 C 8.2225 -3.57166 2.70438 0
M  V30 100 C 9.9665 -4.1341 0.963953 0
M  V30 101 C 7.8735 -5.01042 3.14183 0
M  V30 102 H 6.8035 -0.708267 0.2586 0
M  V30 103 H 9.4545 -1.36239 1.22927 0
M  V30 104 H 7.8365 -3.91369 0.603824 0
M  V30 105 H 9.0105 -3.15351 3.35992 0
M  V30 106 H 7.3255 -2.96294 2.92572 0
M  V30 107 H 9.9225 -5.19491 1.26621 0
M  V30 108 H 10.2655 -4.16181 -0.099578 0
M  V30 109 H 10.7985 -3.67309 1.52738 0
M  V30 110 H 7.5375 -5.03426 4.19812 0
M  V30 111 H 7.0575 -5.43668 2.53348 0
M  V30 112 H 8.7365 -5.69623 3.0682 0
M  V30 113 N 8.8686 -0.792821 -1.36206 0
M  V30 114 C 9.8186 -0.166598 -2.27391 0
M  V30 115 C 10.8026 0.651479 -1.47121 0
M  V30 116 O 11.9946 0.510994 -1.69463 0
M  V30 117 C 9.1236 0.695033 -3.36191 0
M  V30 118 C 8.2096 -0.132019 -4.23894 0
M  V30 119 N 8.6006 -1.18822 -4.91645 0
M  V30 120 C 6.8986 0.0885952 -4.45912 0
M  V30 121 C 7.5996 -1.69198 -5.56549 0
M  V30 122 N 6.5756 -1.00065 -5.34311 0
M  V30 123 H 10.3776 -0.974947 -2.77258 0
M  V30 124 H 7.8916 -0.632616 -1.49572 0
M  V30 125 H 9.8886 1.1596 -4.00448 0
M  V30 126 H 8.5486 1.50189 -2.87877 0
M  V30 127 H 9.5596 -1.57069 -4.93507 0
M  V30 128 H 6.2366 0.865688 -4.08426 0
M  V30 129 H 7.6266 -2.57395 -6.20643 0
M  V30 130 N 10.3467 1.47872 -0.545128 0
M  V30 131 C 11.2937 2.29849 0.2093 0
M  V30 132 C 12.2637 1.38313 0.919707 0
M  V30 133 O 13.4487 1.67277 0.917772 0
M  V30 134 C 10.5887 3.22019 1.24088 0
M  V30 135 C 9.7017 4.2864 0.537778 0
M  V30 136 C 8.8367 5.07973 1.5536 0
M  V30 137 C 7.8757 6.06381 0.8348 0
M  V30 138 N 7.0127 6.78717 1.79688 0
M  V30 139 H 11.8527 2.93845 -0.49591 0
M  V30 140 H 9.3897 1.44848 -0.256389 0
M  V30 141 H 11.3477 3.73868 1.85144 0
M  V30 142 H 9.9777 2.59914 1.91428 0
M  V30 143 H 9.0297 3.7994 -0.187046 0
M  V30 144 H 10.3417 4.98793 -0.0258907 0
M  V30 145 H 9.4957 5.63912 2.23803 0
M  V30 146 H 8.2347 4.37693 2.15118 0
M  V30 147 H 7.2397 5.49631 0.136388 0
M  V30 148 H 8.4647 6.78665 0.24313 0
M  V30 149 H 6.4107 6.11177 2.38326 0
M  V30 150 H 6.3277 7.44998 1.28505 0
M  V30 151 H 7.5957 7.39237 2.47282 0
M  V30 152 N 11.8248 0.280983 1.55075 0
M  V30 153 C 12.7348 -0.61388 2.26426 0
M  V30 154 C 13.7508 -1.16521 1.29224 0
M  V30 155 O 14.9268 -1.19426 1.62171 0
M  V30 156 C 11.9918 -1.7788 2.9759 0
M  V30 157 C 11.0528 -1.26355 4.10284 0
M  V30 158 C 10.2858 -2.37295 4.78045 0
M  V30 159 O 10.5088 -3.56777 4.45047 0
M  V30 160 O 9.4428 -2.05119 5.65871 0
M  V30 161 H 13.2688 -0.0356932 3.03679 0
M  V30 162 H 10.8538 0.0481686 1.49322 0
M  V30 163 H 12.7358 -2.45791 3.42293 0
M  V30 164 H 11.4108 -2.34397 2.23249 0
M  V30 165 H 10.3178 -0.550735 3.70024 0
M  V30 166 H 11.6508 -0.744065 4.86543 0
M  V30 167 N 13.3029 -1.57598 0.00835791 0
M  V30 168 C 14.2329 -2.1198 -0.979113 0
M  V30 169 C 15.2139 -1.03091 -1.35301 0
M  V30 170 O 16.3989 -1.30818 -1.43528 0
M  V30 171 C 13.5289 -2.62995 -2.26828 0
M  V30 172 C 12.4829 -3.76485 -2.03576 0
M  V30 173 C 11.8089 -4.13846 -3.38579 0
M  V30 174 C 13.1089 -5.0342 -1.39161 0
M  V30 175 H 14.8029 -2.94738 -0.526281 0
M  V30 176 H 12.3489 -1.41783 -0.251704 0
M  V30 177 H 14.3019 -2.99669 -2.96271 0
M  V30 178 H 13.0259 -1.7737 -2.7424 0
M  V30 179 H 11.6849 -3.40217 -1.36557 0
M  V30 180 H 11.3329 -3.25232 -3.83709 0
M  V30 181 H 11.0329 -4.90312 -3.23834 0
M  V30 182 H 12.5569 -4.53086 -4.09323 0
M  V30 183 H 13.9709 -5.37812 -1.98573 0
M  V30 184 H 12.3679 -5.84746 -1.34878 0
M  V30 185 H 13.4379 -4.83548 -0.361868 0
M  V30 186 N 14.781 0.264519 -1.55364 0
M  V30 187 C 15.729 1.34702 -1.89626 0
M  V30 188 C 16.723 1.50712 -0.773459 0
M  V30 189 O 17.929 1.52395 -0.957897 0
M  V30 190 H 14.304 0.450682 -0.601988 0
M  V30 191 H 16.275 1.0306 -2.80038 0
M  V30 192 C 15.024 2.6989 -2.19214 0
M  V30 193 H 14.347 2.58365 -3.05103 0
M  V30 194 H 15.787 3.44553 -2.47102 0
M  V30 195 C 14.246 3.21637 -1.00254 0
M  V30 196 O 14.776 4.00973 -0.241501 0
M  V30 197 N 12.982 2.7943 -0.797938 0
M  V30 198 H 12.529 2.15026 -1.4185 0
M  V30 199 H 12.487 3.144 -0.00363422 0
M  V30 200 N 16.2591 1.48442 0.529413 0
M  V30 201 C 17.5361 1.46978 1.29062 0
M  V30 202 C 17.9161 0.181769 2.10316 0
M  V30 203 O 17.2641 -0.836481 2.12639 0
M  V30 204 C 17.4741 2.7321 2.17157 0
M  V30 205 C 18.8221 3.21562 2.77278 0
M  V30 206 O 19.8461 2.74131 2.27444 0
M  V30 207 O 18.7051 4.04094 3.67927 0
M  V30 208 H 15.7991 0.587003 0.582543 0
M  V30 209 H 18.3451 1.60676 0.546021 0
M  V30 210 H 17.1171 3.58465 1.56903 0
M  V30 211 H 16.7401 2.62235 2.98862 0
M  V30 212 N 17.7372 -0.778329 1.37039 0
M  V30 213 C 18.6672 -1.90546 1.34962 0
M  V30 214 C 19.6482 -1.68681 0.219274 0
M  V30 215 O 20.8332 -1.89634 0.418624 0
M  V30 216 C 17.9632 -3.27734 1.14925 0
M  V30 217 C 16.9172 -3.64147 2.24902 0
M  V30 218 C 16.2432 -4.99806 1.89996 0
M  V30 219 C 17.5432 -3.71579 3.67051 0
M  V30 220 H 19.2372 -1.92541 2.29277 0
M  V30 221 H 16.7832 -0.924948 1.10366 0
M  V30 222 H 18.7362 -4.06215 1.12104 0
M  V30 223 H 17.4602 -3.26154 0.170631 0
M  V30 224 H 16.1192 -2.8797 2.26868 0
M  V30 225 H 15.7672 -4.94759 0.906796 0
M  V30 226 H 15.4672 -5.25139 2.63634 0
M  V30 227 H 16.9912 -5.80694 1.88749 0
M  V30 228 H 18.4052 -4.40227 3.67251 0
M  V30 229 H 16.8022 -4.08405 4.39688 0
M  V30 230 H 17.8722 -2.72404 4.01154 0
M  V30 231 N 19.2153 -1.21501 -1.00376 0
M  V30 232 C 20.1783 -0.976927 -2.07337 0
M  V30 233 C 21.1783 0.0525322 -1.60714 0
M  V30 234 O 22.3683 -0.184869 -1.73216 0
M  V30 235 C 19.5003 -0.473423 -3.37597 0
M  V30 236 H 20.6933 -1.92587 -2.29892 0
M  V30 237 H 18.2463 -1.03217 -1.17371 0
M  V30 238 H 18.9813 0.480379 -3.20722 0
M  V30 239 H 18.7663 -1.216 -3.72768 0
M  V30 240 H 20.2563 -0.32675 -4.1632 0
M  V30 241 N 20.6934 1.19889 -1.02296 0
M  V30 242 C 22.1094 1.41462 -0.738954 0
M  V30 243 C 22.3094 1.89721 0.678846 0
M  V30 244 O 21.3654 2.07016 1.4457 0
M  V30 245 C 22.6784 2.43083 -1.77005 0
M  V30 246 C 24.2264 2.5684 -1.78892 0
M  V30 247 C 24.7014 3.61709 -2.80945 0
M  V30 248 N 26.1924 3.69199 -2.79725 0
M  V30 249 C 26.9274 4.50019 -3.55345 0
M  V30 250 N 26.4234 5.34592 -4.40662 0
M  V30 251 N 28.2164 4.44612 -3.43914 0
M  V30 252 H 20.3674 0.868827 -1.93817 0
M  V30 253 H 22.6304 0.44399 -0.837602 0
M  V30 254 H 22.3364 2.14636 -2.78612 0
M  V30 255 H 22.2104 3.4217 -1.58744 0
M  V30 256 H 24.5974 2.84614 -0.779674 0
M  V30 257 H 24.6784 1.57927 -2.01228 0
M  V30 258 H 24.3224 3.34678 -3.82038 0
M  V30 259 H 24.2524 4.60259 -2.5587 0
M  V30 260 H 26.7434 3.08794 -2.17842 0
M  V30 261 H 27.0564 5.93363 -4.95116 0
M  V30 262 H 25.4014 5.34073 -4.44737 0
M  V30 263 H 28.5924 3.7758 -2.76679 0
M  V30 264 H 28.7654 5.0736 -4.031 0
M  V30 265 N 22.1715 0.800033 1.35784 0
M  V30 266 C 23.4485 0.30088 1.93272 0
M  V30 267 C 23.8285 -1.20857 1.73081 0
M  V30 268 O 23.1765 -2.00502 1.09596 0
M  V30 269 C 23.3865 0.70511 3.41803 0
M  V30 270 C 24.7345 0.690871 4.18942 0
M  V30 271 O 25.7585 0.646244 3.50289 0
M  V30 272 O 24.6175 0.74332 5.41421 0
M  V30 273 H 21.7115 0.0771605 0.823393 0
M  V30 274 H 24.2575 0.88329 1.449 0
M  V30 275 H 23.0295 1.74571 3.50201 0
M  V30 276 H 22.6525 0.0971541 3.97481 0
M  V30 277 N 23.6496 -1.47581 0.552962 0
M  V30 278 C 25.0606 -1.86324 0.118463 0
M  V30 279 C 25.4116 -1.46006 -1.3106 0
M  V30 280 O 24.5366 -0.861182 -1.98526 0
M  V30 281 C 25.1316 -3.3816 0.20821 0
M  V30 282 C 23.6906 -3.7601 -0.171226 0
M  V30 283 C 22.8376 -2.71634 0.557686 0
M  V30 284 H 25.7886 -1.39159 0.762928 0
M  V30 285 H 25.8096 -3.76141 -0.574278 0
M  V30 286 H 25.3216 -3.67473 1.24841 0
M  V30 287 H 23.4226 -3.52313 -1.21269 0
M  V30 288 H 23.5356 -4.78745 0.184379 0
M  V30 289 H 21.8996 -2.547 0.00125792 0
M  V30 290 H 22.6826 -3.0379 1.59896 0
M  V30 291 N 25.1277 -0.289203 -1.54924 0
M  V30 292 C 26.5387 0.205791 -1.85562 0
M  V30 293 C 26.8897 1.54351 -1.2112 0
M  V30 294 O 26.0147 2.10435 -0.504601 0
M  V30 295 C 26.6097 0.380177 -3.3666 0
M  V30 296 C 25.1687 0.819395 -3.67373 0
M  V30 297 C 24.3157 -0.079159 -2.77187 0
M  V30 298 H 27.2667 -0.510577 -1.50262 0
M  V30 299 H 27.2877 1.21659 -3.60526 0
M  V30 300 H 26.7997 -0.593589 -3.83534 0
M  V30 301 H 24.9007 1.80413 -3.26009 0
M  V30 302 H 25.0137 0.646957 -4.74712 0
M  V30 303 H 23.3777 0.439565 -2.50878 0
M  V30 304 H 24.1607 -1.04906 -3.26878 0
M  V30 305 N 26.6058 1.57591 -0.0167156 0
M  V30 306 C 27.5688 2.08393 0.954204 0
M  V30 307 C 28.5688 0.996531 1.26198 0
M  V30 308 O 29.7588 1.25858 1.20438 0
M  V30 309 C 26.8908 2.5394 2.27436 0
M  V30 310 H 28.0838 2.95455 0.514451 0
M  V30 311 H 25.6368 1.54582 0.231089 0
M  V30 312 H 26.3718 1.70171 2.76066 0
M  V30 313 H 26.1568 3.33371 2.06412 0
M  V30 314 H 27.6468 2.93512 2.97053 0
M  V30 315 N 28.0839 -0.256276 1.55502 0
M  V30 316 C 29.0159 -1.33981 1.85962 0
M  V30 317 C 30.0289 -1.44743 0.745212 0
M  V30 318 O 31.2179 -1.4626 1.02324 0
M  V30 319 C 28.3179 -2.7194 2.02242 0
M  V30 320 C 27.4909 -2.83562 3.33033 0
M  V30 321 C 26.5499 -4.02304 3.39172 0
M  V30 322 O 25.5759 -3.92273 4.12444 0
M  V30 323 N 26.7779 -5.15045 2.67784 0
M  V30 324 H 29.5429 -1.08191 2.7949 0
M  V30 325 H 27.1039 -0.446388 1.55624 0
M  V30 326 H 29.0959 -3.49697 2.03701 0
M  V30 327 H 27.6659 -2.90479 1.15502 0
M  V30 328 H 26.8859 -1.92555 3.43971 0
M  V30 329 H 28.1739 -2.88271 4.19258 0
M  V30 330 H 27.5719 -5.26085 2.07968 0
M  V30 331 H 26.1289 -5.90972 2.74947 0
M  V30 332 N 29.562 -1.4872 -0.521534 0
M  V30 333 C 30.802 -1.58771 -1.28729 0
M  V30 334 C 31.166 -0.259394 -1.9024 0
M  V30 335 O 32.367 -0.234942 -2.67771 0
M  V30 336 C 30.638 -2.70039 -2.34124 0
M  V30 337 S 32.197 -2.9991 -3.20312 0
M  V30 338 H 29.015 -0.560251 -0.437767 0
M  V30 339 H 31.617 -1.86283 -0.593188 0
M  V30 340 H 30.321 -3.65101 -1.87429 0
M  V30 341 H 29.852 -2.44455 -3.08229 0
M  V30 342 H 31.867 -2.39855 -4.34378 0
M  V30 343 N 31.0401 0.771051 -1.3745 0
M  V30 344 C 32.2651 1.56529 -1.36065 0
M  V30 345 C 32.6901 1.88029 0.0515859 0
M  V30 346 O 32.0481 1.49282 1.02882 0
M  V30 347 C 32.0961 2.85187 -2.20683 0
M  V30 348 O 31.2001 3.79593 -1.61193 0
M  V30 349 H 30.5411 0.47411 -0.464883 0
M  V30 350 H 33.0711 0.954269 -1.80983 0
M  V30 351 H 33.0811 3.34283 -2.33921 0
M  V30 352 H 31.7561 2.61588 -3.23334 0
M  V30 353 H 30.3331 3.38239 -1.56999 0
M  V30 354 N 32.5182 1.22032 0.997298 0
M  V30 355 C 33.4812 0.987909 2.06816 0
M  V30 356 C 34.4812 -0.0440084 1.6074 0
M  V30 357 O 35.6712 0.194053 1.73116 0
M  V30 358 C 32.8032 0.49132 3.37341 0
M  V30 359 H 33.9962 1.93803 2.28868 0
M  V30 360 H 31.5492 1.03838 1.16822 0
M  V30 361 H 32.2842 -0.463364 3.20973 0
M  V30 362 H 32.0692 1.23575 3.72118 0
M  V30 363 H 33.5592 0.348824 4.16141 0
M  V30 364 N 33.9963 -1.19345 1.0293 0
M  V30 365 C 35.2443 -1.88665 0.724574 0
M  V30 366 C 35.5653 -1.80036 -0.749144 0
M  V30 367 O 34.8353 -1.2111 -1.53978 0
M  V30 368 H 33.4153 -0.698406 0.265025 0
M  V30 369 H 36.0773 -1.44885 1.30362 0
M  V30 370 H 35.1733 -2.94987 1.01926 0
M  V30 371 N 35.4744 -0.807222 -1.35358 0
M  V30 372 C 36.8854 -0.44876 -1.81226 0
M  V30 373 C 37.2364 1.02929 -1.67033 0
M  V30 374 O 36.3614 1.79991 -1.20133 0
M  V30 375 C 36.9564 -0.807774 -3.2903 0
M  V30 376 C 35.5154 -0.501901 -3.73039 0
M  V30 377 C 34.6624 -1.03304 -2.57339 0
M  V30 378 H 37.6134 -0.998808 -1.23327 0
M  V30 379 H 37.6344 -0.10554 -3.80354 0
M  V30 380 H 37.1464 -1.88357 -3.39328 0
M  V30 381 H 35.2474 0.565128 -3.68289 0
M  V30 382 H 35.3604 -1.03497 -4.67787 0
M  V30 383 H 33.7244 -0.455339 -2.50597 0
M  V30 384 H 34.5074 -2.11496 -2.70415 0
M  V30 385 N 36.9525 1.47285 -0.560781 0
M  V30 386 C 38.1985 2.02764 -0.0381184 0
M  V30 387 C 38.5315 1.43384 1.30976 0
M  V30 388 O 37.8065 0.590733 1.85312 0
M  V30 389 C 38.0895 3.60064 0.0511427 0
M  V30 390 C 37.9425 4.2987 -1.32408 0
M  V30 391 C 39.2615 4.33439 0.762795 0
M  V30 392 H 36.3805 0.736841 -0.0153264 0
M  V30 393 H 39.0225 1.75675 -0.723759 0
M  V30 394 H 37.1725 3.83274 0.635065 0
M  V30 395 H 38.8445 4.17989 -1.95148 0
M  V30 396 H 37.0875 3.90085 -1.8978 0
M  V30 397 H 37.7585 5.38478 -1.21431 0
M  V30 398 H 40.2345 4.15243 0.266965 0
M  V30 399 H 39.1105 5.43124 0.794221 0
M  V30 400 H 39.3715 4.02915 1.81966 0
M  V30 401 N 38.4306 0.297415 1.54768 0
M  V30 402 C 39.6786 -0.312295 1.99673 0
M  V30 403 C 39.9996 -1.54686 1.18732 0
M  V30 404 O 39.2696 -1.93854 0.282382 0
M  V30 405 H 37.8496 -0.118381 0.73756 0
M  V30 406 H 40.5116 0.407915 1.90583 0
M  V30 407 H 39.6076 -0.586813 3.06534 0
M  V30 408 N 39.9087 -1.5758 0.0250728 0
M  V30 409 C 41.1857 -1.82917 -0.692873 0
M  V30 410 C 41.5657 -0.908137 -1.90568 0
M  V30 411 O 40.9137 0.0372298 -2.2847 0
M  V30 412 C 41.1237 -3.32034 -1.07492 0
M  V30 413 C 42.4717 -3.98406 -1.46826 0
M  V30 414 O 43.4957 -3.36505 -1.16801 0
M  V30 415 O 42.3547 -5.07497 -2.02754 0
M  V30 416 H 39.4487 -0.754079 -0.33955 0
M  V30 417 H 41.9947 -1.69619 0.0524456 0
M  V30 418 H 40.7667 -3.90728 -0.211552 0
M  V30 419 H 40.3897 -3.50424 -1.87854 0
M  V30 420 N 41.3868 0.248026 -1.55636 0
M  V30 421 C 42.6638 0.998988 -1.68165 0
M  V30 422 C 43.0438 2.03409 -0.564621 0
M  V30 423 O 42.3918 2.24378 0.432076 0
M  V30 424 C 42.6018 1.63334 -3.0842 0
M  V30 425 C 43.9498 2.13562 -3.66983 0
M  V30 426 O 44.9738 1.73277 -3.11213 0
M  V30 427 O 43.8328 2.87526 -4.64749 0
M  V30 428 H 40.9268 0.464933 -0.683935 0
M  V30 429 H 43.4728 0.241902 -1.67967 0
M  V30 430 H 42.2448 0.884583 -3.8117 0
M  V30 431 H 41.8678 2.45666 -3.12624 0
M  V30 432 N 42.8649 1.48995 0.513639 0
M  V30 433 C 43.7979 1.59319 1.63379 0
M  V30 434 C 44.7759 0.442816 1.56454 0
M  V30 435 O 45.9599 0.656655 1.76693 0
M  V30 436 C 43.0869 1.5364 3.01848 0
M  V30 437 C 42.1329 2.7372 3.27078 0
M  V30 438 S 42.9659 4.35528 3.1157 0
M  V30 439 C 44.1219 4.32473 4.52458 0
M  V30 440 H 44.3549 2.54079 1.54374 0
M  V30 441 H 41.8879 1.3773 0.697849 0
M  V30 442 H 43.8459 1.51049 3.81699 0
M  V30 443 H 42.5069 0.601898 3.08279 0
M  V30 444 H 41.6999 2.6593 4.28132 0
M  V30 445 H 41.3019 2.73657 2.54927 0
M  V30 446 H 43.5939 4.03414 5.44301 0
M  V30 447 H 44.5369 5.33762 4.65299 0
M  V30 448 H 44.9449 3.62718 4.32546 0
M  V30 449 N 44.343 -0.763751 1.37857 0
M  V30 450 C 45.59 -1.52257 1.33506 0
M  V30 451 C 45.918 -1.94343 -0.078022 0
M  V30 452 O 45.173 -1.64958 -1.05297 0
M  V30 453 C 45.472 -2.79499 2.22745 0
M  V30 454 C 45.138 -2.56426 3.70886 0
M  V30 455 C 43.8 -2.49842 4.11257 0
M  V30 456 C 46.152 -2.36008 4.64704 0
M  V30 457 C 43.48 -2.20841 5.43549 0
M  V30 458 C 45.832 -2.0853 5.97242 0
M  V30 459 C 44.496 -2.00396 6.36709 0
M  V30 460 H 43.766 -0.557149 0.488534 0
M  V30 461 H 46.413 -0.879073 1.70131 0
M  V30 462 H 44.718 -3.48447 1.79142 0
M  V30 463 H 46.415 -3.37413 2.16688 0
M  V30 464 H 43.005 -2.62416 3.38874 0
M  V30 465 H 47.189 -2.40079 4.34368 0
M  V30 466 H 42.445 -2.13045 5.73081 0
M  V30 467 H 46.619 -1.91732 6.69486 0
M  V30 468 H 44.246 -1.77688 7.39142 0
M  V30 469 N 45.8211 -1.22559 -0.990812 0
M  V30 470 C 46.7711 -0.964807 -2.0658 0
M  V30 471 C 47.7551 0.0853472 -1.60673 0
M  V30 472 O 48.9471 -0.125443 -1.76555 0
M  V30 473 C 46.0761 -0.546707 -3.38919 0
M  V30 474 C 45.1621 -1.6317 -3.91454 0
M  V30 475 N 45.5531 -2.85985 -4.17189 0
M  V30 476 C 43.8511 -1.50387 -4.19881 0
M  V30 477 C 44.5521 -3.56159 -4.59919 0
M  V30 478 N 43.5281 -2.83637 -4.63736 0
M  V30 479 H 47.3301 -1.89769 -2.24421 0
M  V30 480 H 44.8441 -1.12343 -1.17273 0
M  V30 481 H 46.8411 -0.34119 -4.15502 0
M  V30 482 H 45.5011 0.379254 -3.22478 0
M  V30 483 H 46.5121 -3.22392 -4.05319 0
M  V30 484 H 43.1891 -0.644254 -4.12499 0
M  V30 485 H 44.5791 -4.6139 -4.88435 0
M  V30 486 N 47.2992 1.18797 -1.03562 0
M  V30 487 C 48.5452 1.89192 -0.746867 0
M  V30 488 C 48.9002 1.78531 0.717245 0
M  V30 489 O 48.1932 1.17137 1.51622 0
M  V30 490 C 48.3872 3.38692 -1.14117 0
M  V30 491 C 48.2162 3.63902 -2.64207 0
M  V30 492 C 46.9862 3.81553 -3.31279 0
M  V30 493 C 49.1842 3.64903 -3.62423 0
M  V30 494 N 47.1662 3.94455 -4.70402 0
M  V30 495 C 48.5372 3.83458 -4.87196 0
M  V30 496 C 50.5922 3.47965 -3.56125 0
M  V30 497 C 49.2952 3.86829 -6.06429 0
M  V30 498 C 51.3212 3.52616 -4.7478 0
M  V30 499 C 50.6832 3.71663 -5.9837 0
M  V30 500 H 46.7822 0.711141 -0.325273 0
M  V30 501 H 49.3662 1.42727 -1.32428 0
M  V30 502 H 47.5372 3.83864 -0.591889 0
M  V30 503 H 49.2692 3.96634 -0.803966 0
M  V30 504 H 46.0242 3.80723 -2.81686 0
M  V30 505 H 46.4482 4.0474 -5.42692 0
M  V30 506 H 51.0902 3.32189 -2.61553 0
M  V30 507 H 48.8082 4.01395 -7.01362 0
M  V30 508 H 52.3942 3.40791 -4.71543 0
M  V30 509 H 51.2742 3.75145 -6.88648 0
M  V30 510 N 48.7773 0.814389 1.34928 0
M  V30 511 C 49.7093 0.187834 2.28429 0
M  V30 512 C 50.7223 -0.617374 1.5064 0
M  V30 513 O 51.9113 -0.448454 1.72775 0
M  V30 514 C 49.0113 -0.755962 3.30361 0
M  V30 515 C 48.1843 0.00456686 4.374 0
M  V30 516 C 47.2433 -0.858876 5.19143 0
M  V30 517 O 46.2693 -0.306968 5.68372 0
M  V30 518 N 47.4713 -2.17988 5.38016 0
M  V30 519 H 50.2363 0.991105 2.82838 0
M  V30 520 H 47.7973 0.670561 1.4736 0
M  V30 521 H 49.7893 -1.338 3.81942 0
M  V30 522 H 48.3593 -1.46001 2.7641 0
M  V30 523 H 47.5793 0.767865 3.86649 0
M  V30 524 H 48.8673 0.528422 5.06049 0
M  V30 525 H 48.2653 -2.65212 4.99679 0
M  V30 526 H 46.8223 -2.71098 5.92747 0
M  V30 527 N 50.2554 -1.46986 0.568584 0
M  V30 528 C 51.2184 -2.28624 -0.162366 0
M  V30 529 C 52.2184 -1.37596 -0.832103 0
M  V30 530 O 53.4084 -1.60115 -0.68622 0
M  V30 531 C 50.5404 -3.17596 -1.23878 0
M  V30 532 H 51.7334 -2.94722 0.554899 0
M  V30 533 H 49.2864 -1.52863 0.325976 0
M  V30 534 H 50.0214 -2.56214 -1.98808 0
M  V30 535 H 49.8064 -3.846 -0.763219 0
M  V30 536 H 51.2964 -3.79078 -1.75185 0
M  V30 537 N 51.7335 -0.305618 -1.54608 0
M  V30 538 C 52.9615 0.304775 -2.04643 0
M  V30 539 C 53.3765 1.47167 -1.18268 0
M  V30 540 O 52.7335 1.81296 -0.209328 0
M  V30 541 C 52.7845 0.756564 -3.53495 0
M  V30 542 O 52.5055 -0.36389 -4.36586 0
M  V30 543 C 54.0065 1.43163 -4.19546 0
M  V30 544 H 51.2265 0.0655481 -0.667791 0
M  V30 545 H 53.7705 -0.446592 -1.99564 0
M  V30 546 H 51.9255 1.45794 -3.58919 0
M  V30 547 H 52.3395 -0.0113121 -5.24499 0
M  V30 548 H 53.8135 1.69886 -5.25207 0
M  V30 549 H 54.2905 2.37318 -3.69563 0
M  V30 550 H 54.8965 0.773307 -4.18211 0
M  V30 551 N 53.2116 1.57565 -0.0334293 0
M  V30 552 C 54.4606 1.91155 0.643639 0
M  V30 553 C 54.7736 0.91192 1.73042 0
M  V30 554 O 55.9796 1.13923 2.46442 0
M  V30 555 C 54.4356 3.39443 1.1961 0
M  V30 556 C 54.0436 4.47774 0.142381 0
M  V30 557 C 55.7876 3.82094 1.84944 0
M  V30 558 C 53.6946 5.87162 0.706727 0
M  V30 559 H 52.6246 0.713368 0.244176 0
M  V30 560 H 55.2756 1.8323 -0.0994323 0
M  V30 561 H 53.6576 3.42313 1.99092 0
M  V30 562 H 54.8316 4.56469 -0.630296 0
M  V30 563 H 53.1466 4.14352 -0.412446 0
M  V30 564 H 55.7436 4.83591 2.2813 0
M  V30 565 H 56.0866 3.17386 2.69392 0
M  V30 566 H 56.6196 3.81665 1.12145 0
M  V30 567 H 53.3586 6.55424 -0.0997178 0
M  V30 568 H 52.8786 5.82064 1.44779 0
M  V30 569 H 54.5576 6.35866 1.19514 0
M  V30 570 N 54.6897 -0.239769 1.55765 0
M  V30 571 C 55.6227 -1.32356 1.85895 0
M  V30 572 C 56.6007 -1.46053 0.714662 0
M  V30 573 O 57.7847 -1.62154 0.961157 0
M  V30 574 C 54.9117 -2.6962 2.04994 0
M  V30 575 C 53.9577 -2.73036 3.27648 0
M  V30 576 S 54.7907 -2.28929 4.84099 0
M  V30 577 C 55.9467 -3.68103 5.06212 0
M  V30 578 H 56.1797 -1.06601 2.77531 0
M  V30 579 H 53.7127 -0.441112 1.47965 0
M  V30 580 H 55.6707 -3.48653 2.16682 0
M  V30 581 H 54.3317 -2.92609 1.14188 0
M  V30 582 H 53.5247 -3.7386 3.38 0
M  V30 583 H 53.1267 -2.02052 3.14723 0
M  V30 584 H 55.4187 -4.63656 4.93993 0
M  V30 585 H 56.3617 -3.6268 6.08168 0
M  V30 586 H 56.7697 -3.60947 4.34025 0
M  V30 587 N 56.1678 -1.49265 -0.50573 0
M  V30 588 C 57.4158 -1.582 -1.25766 0
M  V30 589 C 57.7368 -0.268482 -1.93143 0
M  V30 590 O 57.0068 0.711833 -1.8251 0
M  V30 591 H 55.5868 -0.582873 -0.467191 0
M  V30 592 H 58.2488 -1.85865 -0.586525 0
M  V30 593 H 57.3448 -2.37563 -2.02412 0
M  V30 594 N 57.6459 0.756429 -1.3826 0
M  V30 595 C 59.0569 1.33359 -1.30661 0
M  V30 596 C 59.4079 1.96161 0.0388875 0
M  V30 597 O 58.5329 1.94874 0.940918 0
M  V30 598 C 59.1279 2.42477 -2.36622 0
M  V30 599 C 57.6869 2.95922 -2.3261 0
M  V30 600 C 56.8339 1.69275 -2.19639 0
M  V30 601 H 59.7849 0.55552 -1.4866 0
M  V30 602 H 59.8059 3.22345 -2.02174 0
M  V30 603 H 59.3179 1.96739 -3.34538 0
M  V30 604 H 57.4189 3.45996 -1.38267 0
M  V30 605 H 57.5319 3.50494 -3.26636 0
M  V30 606 H 55.8959 1.92793 -1.66442 0
M  V30 607 H 56.6789 1.25619 -3.19491 0
M  V30 608 N 59.124 1.23083 0.984299 0
M  V30 609 C 60.072 1.00593 2.09723 0
M  V30 610 C 61.066 -0.0538014 1.69315 0
M  V30 611 O 62.272 0.0993719 1.79725 0
M  V30 612 H 58.647 0.30817 0.685956 0
M  V30 613 H 60.618 1.95012 2.2586 0
M  V30 614 C 59.367 0.609601 3.42314 0
M  V30 615 H 58.69 1.41675 3.73856 0
M  V30 616 H 60.13 0.491726 4.21139 0
M  V30 617 C 58.589 -0.681745 3.2993 0
M  V30 618 O 59.119 -1.73192 3.62446 0
M  V30 619 N 57.325 -0.656178 2.83095 0
M  V30 620 H 56.872 0.198759 2.56832 0
M  V30 621 H 56.83 -1.52044 2.75191 0
M  V30 622 N 60.6021 -1.18246 1.0419 0
M  V30 623 C 61.8791 -1.84121 0.660208 0
M  V30 624 C 62.2591 -1.92778 -0.860221 0
M  V30 625 O 61.6071 -1.45464 -1.76217 0
M  V30 626 C 61.8171 -3.22355 1.33747 0
M  V30 627 C 63.1651 -3.98376 1.46906 0
M  V30 628 O 64.1891 -3.31799 1.29568 0
M  V30 629 O 63.0481 -5.17665 1.75171 0
M  V30 630 H 60.1421 -0.794036 0.231161 0
M  V30 631 H 62.6881 -1.25628 1.14087 0
M  V30 632 H 61.4601 -3.10964 2.37522 0
M  V30 633 H 61.0831 -3.88506 0.845515 0
M  V30 634 N 62.0802 -0.821533 -1.34494 0
M  V30 635 C 63.3052 -0.420873 -2.03085 0
M  V30 636 C 63.7302 0.964915 -1.61465 0
M  V30 637 O 63.0882 1.62763 -0.798607 0
M  V30 638 C 63.1362 -0.529414 -3.56693 0
M  V30 639 O 62.2402 0.451302 -4.09923 0
M  V30 640 H 61.5812 -0.173489 -0.640935 0
M  V30 641 H 64.1112 -1.11157 -1.71771 0
M  V30 642 H 64.1212 -0.404671 -4.05988 0
M  V30 643 H 62.7962 -1.54014 -3.86332 0
M  V30 644 H 61.3732 0.285558 -3.71805 0
M  V30 645 N 63.5583 1.46682 -0.576371 0
M  V30 646 C 64.9693 1.86112 -0.148091 0
M  V30 647 C 65.3203 1.48073 1.2872 0
M  V30 648 O 64.4453 0.892656 1.97131 0
M  V30 649 C 65.0403 3.37786 -0.261982 0
M  V30 650 C 63.5993 3.76235 0.111384 0
M  V30 651 C 62.7463 2.70713 -0.60083 0
M  V30 652 H 65.6973 1.37927 -0.78497 0
M  V30 653 H 65.7183 3.77007 0.514364 0
M  V30 654 H 65.2303 3.6544 -1.30671 0
M  V30 655 H 63.3313 3.54198 1.15649 0
M  V30 656 H 63.4443 4.78391 -0.26052 0
M  V30 657 H 61.8083 2.54666 -0.0417783 0
M  V30 658 H 62.5913 3.01208 -1.64708 0
M  V30 659 N 65.0364 0.313813 1.54444 0
M  V30 660 C 66.2664 -0.293491 2.04505 0
M  V30 661 C 66.6744 -1.47086 1.19005 0
M  V30 662 O 66.0174 -1.82481 0.211257 0
M  V30 663 C 66.0794 -0.800455 3.50475 0
M  V30 664 C 65.7434 0.253322 4.56297 0
M  V30 665 C 66.7404 1.08612 5.08428 0
M  V30 666 C 64.4254 0.398708 5.00715 0
M  V30 667 C 66.4194 2.05013 6.0353 0
M  V30 668 C 64.1064 1.36614 5.95634 0
M  V30 669 C 65.1044 2.19033 6.46926 0
M  V30 670 O 64.7924 3.14134 7.39983 0
M  V30 671 H 64.5244 -0.0658325 0.672787 0
M  V30 672 H 67.0784 0.455177 2.00293 0
M  V30 673 H 65.3084 -1.59987 3.52053 0
M  V30 674 H 66.9974 -1.32504 3.83663 0
M  V30 675 H 67.7634 0.984736 4.74898 0
M  V30 676 H 63.6424 -0.23289 4.60411 0
M  V30 677 H 67.1864 2.69382 6.4349 0
M  V30 678 H 63.0834 1.4682 6.28581 0
M  V30 679 H 63.8514 3.0926 7.57826 0
M  V30 680 N 66.5145 -1.57545 0.0417849 0
M  V30 681 C 67.4465 -2.07904 -0.964799 0
M  V30 682 C 68.4595 -1.00497 -1.28079 0
M  V30 683 O 69.6485 -1.28087 -1.24322 0
M  V30 684 C 66.7485 -2.49928 -2.28887 0
M  V30 685 C 65.9215 -3.80562 -2.15619 0
M  V30 686 C 64.9805 -4.08999 -3.31069 0
M  V30 687 O 64.0065 -4.79061 -3.0739 0
M  V30 688 N 65.2085 -3.6017 -4.55256 0
M  V30 689 H 67.9735 -2.94886 -0.535029 0
M  V30 690 H 65.5345 -1.61252 -0.144681 0
M  V30 691 H 67.5265 -2.66034 -3.04972 0
M  V30 692 H 66.0965 -1.68245 -2.63463 0
M  V30 693 H 65.3165 -3.74129 -1.24183 0
M  V30 694 H 66.6045 -4.66126 -2.03971 0
M  V30 695 H 66.0025 -3.03512 -4.77386 0
M  V30 696 H 64.5595 -3.81532 -5.28466 0
M  V30 697 N 67.9926 0.231505 -1.5589 0
M  V30 698 C 69.2406 0.955461 -1.78088 0
M  V30 699 C 69.5616 1.85262 -0.608533 0
M  V30 700 O 68.8316 1.92277 0.375035 0
M  V30 701 H 67.4116 0.355787 -0.656829 0
M  V30 702 H 70.0736 0.245751 -1.93344 0
M  V30 703 H 69.1696 1.56814 -2.69844 0
M  V30 704 N 69.4707 1.49531 0.497807 0
M  V30 705 C 70.7187 1.58865 1.24926 0
M  V30 706 C 71.0397 0.278721 1.92998 0
M  V30 707 O 70.3097 -0.702144 1.82885 0
M  V30 708 H 68.8897 0.585343 0.464094 0
M  V30 709 H 71.5517 1.86174 0.57666 0
M  V30 710 H 70.6477 2.38633 2.01149 0
M  V30 711 N 70.9488 -0.749086 1.3866 0
M  V30 712 C 72.1948 -1.51056 1.35314 0
M  V30 713 C 72.5278 -1.94121 -0.0553751 0
M  V30 714 O 71.8028 -1.65763 -1.01749 0
M  V30 715 C 72.0858 -2.76003 2.31288 0
M  V30 716 C 71.9388 -2.39047 3.8102 0
M  V30 717 C 73.2578 -3.78046 2.2532 0
M  V30 718 H 70.3768 -0.547972 0.492844 0
M  V30 719 H 73.0188 -0.857628 1.69543 0
M  V30 720 H 71.1688 -3.31716 2.02229 0
M  V30 721 H 72.8408 -1.89074 4.20771 0
M  V30 722 H 71.0838 -1.71449 3.98482 0
M  V30 723 H 71.7548 -3.28462 4.4364 0
M  V30 724 H 74.2308 -3.31884 2.50983 0
M  V30 725 H 73.1068 -4.63159 2.94576 0
M  V30 726 H 73.3678 -4.23957 1.25352 0
M  V30 727 N 72.4269 -1.23603 -0.977757 0
M  V30 728 C 73.6739 -1.06971 -1.71941 0
M  V30 729 C 74.0019 0.393009 -1.90488 0
M  V30 730 O 73.2569 1.30719 -1.4564 0
M  V30 731 C 73.5559 -1.7433 -3.11999 0
M  V30 732 C 73.2219 -3.24252 -3.13323 0
M  V30 733 C 71.8839 -3.65156 -3.13392 0
M  V30 734 C 74.2359 -4.20141 -3.08433 0
M  V30 735 C 71.5639 -5.00403 -3.0629 0
M  V30 736 C 73.9159 -5.55384 -3.02873 0
M  V30 737 C 72.5799 -5.95647 -3.01265 0
M  V30 738 H 71.8499 -0.391433 -0.629175 0
M  V30 739 H 74.4969 -1.53572 -1.14403 0
M  V30 740 H 72.8019 -1.20096 -3.7294 0
M  V30 741 H 74.4989 -1.58936 -3.68158 0
M  V30 742 H 71.0889 -2.91692 -3.14029 0
M  V30 743 H 75.2729 -3.89547 -3.07517 0
M  V30 744 H 70.5289 -5.3081 -3.03399 0
M  V30 745 H 74.7029 -6.29398 -2.98046 0
M  V30 746 H 72.3299 -7.0041 -2.95516 0
M  V30 747 N 73.905 1.17692 -1.04816 0
M  V30 748 C 75.152 1.87859 -0.75599 0
M  V30 749 C 75.48 1.80812 0.716752 0
M  V30 750 O 74.735 1.20819 1.53952 0
M  V30 751 C 75.034 3.37462 -1.17703 0
M  V30 752 C 74.7 3.64713 -2.65133 0
M  V30 753 C 73.362 3.71859 -3.05408 0
M  V30 754 C 75.714 3.76492 -3.60421 0
M  V30 755 C 73.042 3.88271 -4.39843 0
M  V30 756 C 75.394 3.94421 -4.94585 0
M  V30 757 C 74.058 3.99806 -5.3452 0
M  V30 758 H 73.328 0.687425 -0.276636 0
M  V30 759 H 75.975 1.39255 -1.31455 0
M  V30 760 H 74.28 3.88097 -0.537395 0
M  V30 761 H 75.977 3.90109 -0.928218 0
M  V30 762 H 72.567 3.59772 -2.32942 0
M  V30 763 H 76.751 3.70295 -3.30447 0
M  V30 764 H 72.007 3.90687 -4.70291 0
M  V30 765 H 76.181 4.02477 -5.68318 0
M  V30 766 H 73.808 4.12276 -6.38696 0
M  V30 767 N 75.3831 0.828654 1.34056 0
M  V30 768 C 76.3131 0.269443 2.3194 0
M  V30 769 C 77.2941 -0.617247 1.58506 0
M  V30 770 O 78.4791 -0.542931 1.86456 0
M  V30 771 C 75.6091 -0.564793 3.42677 0
M  V30 772 C 74.5631 0.225241 4.27407 0
M  V30 773 C 73.8891 -0.7321 5.29664 0
M  V30 774 C 75.1891 1.43663 5.02154 0
M  V30 775 H 76.8831 1.08728 2.7896 0
M  V30 776 H 74.4291 0.524283 1.34117 0
M  V30 777 H 76.3821 -0.966233 4.10173 0
M  V30 778 H 75.1061 -1.41574 2.9432 0
M  V30 779 H 73.7651 0.608117 3.61521 0
M  V30 780 H 73.4131 -1.57916 4.77568 0
M  V30 781 H 73.1131 -0.20767 5.87233 0
M  V30 782 H 74.6371 -1.13128 6.00029 0
M  V30 783 H 76.0511 1.1089 5.62473 0
M  V30 784 H 74.4481 1.89711 5.69324 0
M  V30 785 H 75.5181 2.21181 4.31517 0
M  V30 786 N 76.8612 -1.46375 0.584142 0
M  V30 787 C 78.0892 -2.06761 0.0759296 0
M  V30 788 C 78.5042 -1.43266 -1.22965 0
M  V30 789 O 77.8612 -0.538458 -1.74376 0
M  V30 790 C 77.9122 -3.61375 -0.0950384 0
M  V30 791 O 77.6332 -4.22495 1.15887 0
M  V30 792 C 79.1342 -4.38693 -0.637434 0
M  V30 793 H 76.3542 -0.668479 0.0581075 0
M  V30 794 H 78.8982 -1.8798 0.805218 0
M  V30 795 H 77.0532 -3.79578 -0.774554 0
M  V30 796 H 77.4672 -5.15385 0.973598 0
M  V30 797 H 78.9412 -5.47464 -0.706237 0
M  V30 798 H 79.4182 -4.06836 -1.65472 0
M  V30 799 H 80.0242 -4.25299 0.00725967 0
M  V30 800 N 78.3393 -0.321999 -1.54275 0
M  V30 801 C 79.5883 0.281931 -1.9972 0
M  V30 802 C 79.9013 1.53369 -1.21397 0
M  V30 803 O 81.1073 2.21352 -1.57211 0
M  V30 804 C 79.5633 0.5529 -3.55628 0
M  V30 805 C 79.1713 -0.681721 -4.42783 0
M  V30 806 C 80.9153 1.11687 -4.09544 0
M  V30 807 C 78.8223 -0.382742 -5.9016 0
M  V30 808 H 77.7523 0.109124 -0.746062 0
M  V30 809 H 80.4033 -0.43398 -1.78294 0
M  V30 810 H 78.7853 1.32896 -3.73035 0
M  V30 811 H 79.9593 -1.45723 -4.37151 0
M  V30 812 H 78.2743 -1.1658 -3.99748 0
M  V30 813 H 80.8713 1.35515 -5.17242 0
M  V30 814 H 81.2143 2.06575 -3.61431 0
M  V30 815 H 81.7473 0.402032 -3.95763 0
M  V30 816 H 78.4863 -1.30076 -6.42464 0
M  V30 817 H 78.0063 0.355094 -5.98748 0
M  V30 818 H 79.6853 0.00800157 -6.47 0
M  V30 819 N 79.8174 1.5752 -0.0501392 0
M  V30 820 C 80.7674 2.07981 0.934231 0
M  V30 821 C 81.7514 0.984745 1.27246 0
M  V30 822 O 82.9434 1.24809 1.25506 0
M  V30 823 C 80.0724 2.62751 2.20945 0
M  V30 824 C 79.1584 3.79225 1.89865 0
M  V30 825 N 79.5494 4.89036 1.29142 0
M  V30 826 C 77.8474 3.88111 2.19741 0
M  V30 827 C 78.5484 5.70084 1.15669 0
M  V30 828 N 77.5244 5.17659 1.65923 0
M  V30 829 H 81.3264 2.90277 0.460053 0
M  V30 830 H 78.8404 1.61665 0.15434 0
M  V30 831 H 80.8374 2.97205 2.9236 0
M  V30 832 H 79.4974 1.81894 2.6897 0
M  V30 833 H 80.5084 5.08854 0.963756 0
M  V30 834 H 77.1854 3.18194 2.70293 0
M  V30 835 H 78.5754 6.68395 0.685356 0
M  V30 836 N 81.2955 -0.223234 1.56011 0
M  V30 837 C 82.5425 -0.947875 1.78946 0
M  V30 838 C 82.8705 -1.844 0.618608 0
M  V30 839 O 82.1255 -1.91629 -0.397093 0
M  V30 840 C 82.4245 -1.81948 3.0762 0
M  V30 841 C 82.0905 -1.07672 4.37856 0
M  V30 842 C 80.7525 -0.871544 4.73242 0
M  V30 843 C 83.1045 -0.552081 5.18268 0
M  V30 844 C 80.4325 -0.129791 5.86556 0
M  V30 845 C 82.7845 0.17632 6.32354 0
M  V30 846 C 81.4485 0.39277 6.66343 0
M  V30 847 H 80.7185 -0.346852 0.654809 0
M  V30 848 H 83.3655 -0.216171 1.90276 0
M  V30 849 H 81.6705 -2.61899 2.91404 0
M  V30 850 H 83.3675 -2.38227 3.22566 0
M  V30 851 H 79.9575 -1.24662 4.1007 0
M  V30 852 H 84.1415 -0.698076 4.91366 0
M  V30 853 H 79.3975 0.048153 6.11381 0
M  V30 854 H 83.5715 0.590367 6.93893 0
M  V30 855 H 81.1985 0.969466 7.53993 0
M  V30 856 N 82.7736 -1.49793 -0.48987 0
M  V30 857 C 84.1846 -1.52914 -1.07118 0
M  V30 858 C 84.5356 -0.321738 -1.93544 0
M  V30 859 O 83.6606 0.567338 -2.08831 0
M  V30 860 C 84.2556 -2.771 -1.94938 0
M  V30 861 C 82.8146 -2.82963 -2.48212 0
M  V30 862 C 81.9616 -2.46972 -1.26096 0
M  V30 863 H 84.9126 -1.56329 -0.273289 0
M  V30 864 H 84.9336 -2.57892 -2.79771 0
M  V30 865 H 84.4456 -3.64959 -1.32009 0
M  V30 866 H 82.5466 -1.99411 -3.14748 0
M  V30 867 H 82.6596 -3.85406 -2.84603 0
M  V30 868 H 81.0236 -1.98994 -1.58976 0
M  V30 869 H 81.8066 -3.37118 -0.648581 0
M  V30 870 N 84.2517 0.741722 -1.39055 0
M  V30 871 C 85.4797 1.53098 -1.39171 0
M  V30 872 C 85.8947 1.88794 0.0155099 0
M  V30 873 O 85.2517 1.53626 0.985159 0
M  V30 874 C 85.3027 2.82274 -2.2584 0
M  V30 875 O 85.0237 2.48097 -3.61081 0
M  V30 876 C 86.5247 3.76343 -2.34266 0
M  V30 877 H 83.7447 0.473335 -0.4756 0
M  V30 878 H 86.2887 0.917045 -1.82785 0
M  V30 879 H 84.4437 3.40015 -1.85656 0
M  V30 880 H 84.8577 3.31029 -4.06842 0
M  V30 881 H 86.3317 4.63898 -2.9917 0
M  V30 882 H 86.8087 4.17619 -1.35982 0
M  V30 883 H 87.4147 3.24523 -2.74891 0
M  V30 884 N 85.7298 1.2412 0.971189 0
M  V30 885 C 87.0068 0.986867 1.6888 0
M  V30 886 C 87.3868 -0.491857 2.0529 0
M  V30 887 O 86.7348 -1.46531 1.75331 0
M  V30 888 C 86.9448 1.9063 2.92338 0
M  V30 889 C 88.2928 2.17515 3.64654 0
M  V30 890 O 89.3168 1.88254 3.02388 0
M  V30 891 O 88.1758 2.6719 4.7673 0
M  V30 892 H 85.2698 0.372944 0.738134 0
M  V30 893 H 87.8158 1.35203 1.02559 0
M  V30 894 H 86.5878 2.90552 2.62097 0
M  V30 895 H 86.2108 1.54408 3.66393 0
M  V30 896 N 87.2079 -1.17134 1.05439 0
M  V30 897 C 88.4379 -1.91094 0.785274 0
M  V30 898 C 88.8459 -1.77198 -0.663142 0
M  V30 899 O 88.1889 -1.10835 -1.46497 0
M  V30 900 C 88.2509 -3.42594 1.08949 0
M  V30 901 C 87.9149 -3.80274 2.53458 0
M  V30 902 C 88.9119 -3.82912 3.51673 0
M  V30 903 C 86.5969 -4.11162 2.88532 0
M  V30 904 C 88.5909 -4.15913 4.83006 0
M  V30 905 C 86.2779 -4.43831 4.20068 0
M  V30 906 C 87.2759 -4.46185 5.17115 0
M  V30 907 O 86.9639 -4.78083 6.46291 0
M  V30 908 H 86.6959 -0.613073 0.284811 0
M  V30 909 H 89.2499 -1.49461 1.40893 0
M  V30 910 H 87.4799 -3.84534 0.408741 0
M  V30 911 H 89.1689 -3.97817 0.805991 0
M  V30 912 H 89.9349 -3.5917 3.25917 0
M  V30 913 H 85.8139 -4.085 2.13656 0
M  V30 914 H 89.3579 -4.17665 5.5875 0
M  V30 915 H 85.2549 -4.67037 4.45586 0
M  V30 916 H 86.0229 -4.9593 6.51149 0
M  V30 917 N 88.686 -0.835752 -1.33615 0
M  V30 918 C 90.097 -0.487099 -1.80234 0
M  V30 919 C 90.448 0.993627 -1.69179 0
M  V30 920 O 89.573 1.77403 -1.23924 0
M  V30 921 C 90.168 -0.877385 -3.27242 0
M  V30 922 C 88.727 -0.580915 -3.7189 0
M  V30 923 C 87.874 -1.0874 -2.5509 0
M  V30 924 H 90.825 -1.02474 -1.2118 0
M  V30 925 H 90.846 -0.186195 -3.80044 0
M  V30 926 H 90.358 -1.95512 -3.35256 0
M  V30 927 H 88.459 0.486881 -3.69405 0
M  V30 928 H 88.572 -1.13396 -4.65487 0
M  V30 929 H 86.936 -0.508392 -2.49575 0
M  V30 930 H 87.719 -2.17184 -2.65868 0
M  V30 931 N 90.1641 1.46063 -0.591896 0
M  V30 932 C 91.4111 2.02338 -0.0809991 0
M  V30 933 C 91.7391 1.46228 1.28249 0
M  V30 934 O 90.9941 0.620818 1.85592 0
M  V30 935 C 91.2931 3.57391 0.0249813 0
M  V30 936 C 90.9591 4.32583 -1.27211 0
M  V30 937 C 89.6211 4.52844 -1.62745 0
M  V30 938 C 91.9731 4.75687 -2.13005 0
M  V30 939 C 89.3011 5.13462 -2.83855 0
M  V30 940 C 91.6531 5.37644 -3.3335 0
M  V30 941 C 90.3171 5.5613 -3.69155 0
M  V30 942 H 89.5871 0.740407 -0.0296397 0
M  V30 943 H 92.2341 1.75321 -0.770374 0
M  V30 944 H 90.5391 3.83597 0.797537 0
M  V30 945 H 92.2361 3.98621 0.436184 0
M  V30 946 H 88.8261 4.17116 -0.985499 0
M  V30 947 H 93.0101 4.59782 -1.86855 0
M  V30 948 H 88.2661 5.25965 -3.11722 0
M  V30 949 H 92.4401 5.7 -4.00092 0
M  V30 950 H 90.0671 6.0287 -4.63089 0
M  V30 951 N 91.6422 0.330177 1.54103 0
M  V30 952 C 92.5892 -0.532762 2.24567 0
M  V30 953 C 93.5592 -1.10635 1.23892 0
M  V30 954 O 94.7442 -1.14546 1.5259 0
M  V30 955 C 91.8842 -1.6845 3.01195 0
M  V30 956 C 90.9972 -1.13951 4.167 0
M  V30 957 C 90.1322 -2.25746 4.80845 0
M  V30 958 C 89.1712 -1.6853 5.88442 0
M  V30 959 N 88.3082 -2.74014 6.46421 0
M  V30 960 H 93.1482 0.0746905 2.97906 0
M  V30 961 H 90.6852 0.048632 1.4702 0
M  V30 962 H 92.6432 -2.36234 3.43874 0
M  V30 963 H 91.2732 -2.26314 2.30178 0
M  V30 964 H 90.3252 -0.35301 3.78758 0
M  V30 965 H 91.6372 -0.680892 4.94131 0
M  V30 966 H 90.7912 -3.01422 5.26526 0
M  V30 967 H 89.5302 -2.74947 4.0281 0
M  V30 968 H 88.5352 -0.913543 5.42157 0
M  V30 969 H 89.7602 -1.20198 6.68378 0
M  V30 970 H 87.7062 -3.22494 5.71256 0
M  V30 971 H 87.6232 -2.32735 7.19285 0
M  V30 972 H 88.8912 -3.49499 6.96757 0
M  V30 973 N 93.1203 -1.57491 0.0584922 0
M  V30 974 C 94.5313 -1.80526 -0.476138 0
M  V30 975 C 94.8823 -0.971334 -1.70469 0
M  V30 976 O 94.0073 -0.190012 -2.15564 0
M  V30 977 C 94.6023 -3.27424 -0.870587 0
M  V30 978 C 93.1613 -3.51351 -1.35015 0
M  V30 979 C 92.3083 -2.75343 -0.32887 0
M  V30 980 H 95.2593 -1.56133 0.284312 0
M  V30 981 H 95.2803 -3.38745 -1.73299 0
M  V30 982 H 94.7923 -3.88093 0.0237627 0
M  V30 983 H 92.8933 -2.95971 -2.26345 0
M  V30 984 H 93.0063 -4.60059 -1.33726 0
M  V30 985 H 91.3703 -2.417 -0.803321 0
M  V30 986 H 92.1533 -3.38743 0.557521 0
M  V30 987 N 94.5984 0.214957 -1.56127 0
M  V30 988 C 96.0094 0.781386 -1.69562 0
M  V30 989 C 96.3604 1.84707 -0.66165 0
M  V30 990 O 95.4854 2.156 0.185927 0
M  V30 991 C 96.0804 1.42411 -3.07416 0
M  V30 992 C 94.6394 1.93786 -3.22683 0
M  V30 993 C 93.7864 0.800438 -2.65496 0
M  V30 994 H 96.7374 -0.00980633 -1.58697 0
M  V30 995 H 96.7584 2.29309 -3.0364 0
M  V30 996 H 96.2704 0.64826 -3.82648 0
M  V30 997 H 94.3714 2.74152 -2.52332 0
M  V30 998 H 94.4844 2.1133 -4.29973 0
M  V30 999 H 92.8484 1.2095 -2.2415 0
M  V30 1000 H 93.6314 0.0371471 -3.4328 0
M  V30 1001 N 96.0765 1.50051 0.48192 0
M  V30 1002 C 97.0235 1.68122 1.58125 0
M  V30 1003 C 97.9935 0.522545 1.57666 0
M  V30 1004 O 99.1785 0.751844 1.75362 0
M  V30 1005 C 96.3185 1.77142 2.96167 0
M  V30 1006 C 95.4315 3.0444 3.06497 0
M  V30 1007 C 94.5665 3.04321 4.35387 0
M  V30 1008 C 93.6055 4.26118 4.3942 0
M  V30 1009 N 92.7425 4.238 5.59766 0
M  V30 1010 H 97.5825 2.6198 1.42022 0
M  V30 1011 H 95.1195 1.29877 0.690687 0
M  V30 1012 H 97.0775 1.80352 3.76203 0
M  V30 1013 H 95.7075 0.867329 3.1093 0
M  V30 1014 H 94.7595 3.10752 2.19402 0
M  V30 1015 H 96.0715 3.94426 3.05336 0
M  V30 1016 H 95.2255 3.062 5.23762 0
M  V30 1017 H 93.9645 2.12147 4.39141 0
M  V30 1018 H 92.9695 4.24463 3.49444 0
M  V30 1019 H 94.1945 5.19507 4.37366 0
M  V30 1020 H 92.1405 3.34474 5.64326 0
M  V30 1021 H 92.0575 5.07542 5.60301 0
M  V30 1022 H 93.3255 4.2981 6.50295 0
M  V30 1023 N 97.5546 -0.734337 1.39446 0
M  V30 1024 C 98.8006 -1.49613 1.36908 0
M  V30 1025 C 99.1336 -1.94169 -0.0347829 0
M  V30 1026 O 98.4086 -1.66833 -0.999847 0
M  V30 1027 C 98.6916 -2.73534 2.34203 0
M  V30 1028 C 98.5446 -2.34993 3.83534 0
M  V30 1029 C 99.8636 -3.75635 2.29317 0
M  V30 1030 H 96.9826 -0.542714 0.498629 0
M  V30 1031 H 99.6246 -0.839597 1.70443 0
M  V30 1032 H 97.7746 -3.29553 2.05736 0
M  V30 1033 H 99.4466 -1.84601 4.22753 0
M  V30 1034 H 97.6896 -1.67213 4.00278 0
M  V30 1035 H 98.3606 -3.23738 4.47099 0
M  V30 1036 H 100.837 -3.29203 2.54489 0
M  V30 1037 H 99.7126 -4.60008 2.99472 0
M  V30 1038 H 99.9736 -4.22603 1.29842 0
M  V30 1039 N 99.0327 -1.24633 -0.964593 0
M  V30 1040 C 99.9957 -1.0424 -2.04124 0
M  V30 1041 C 100.996 0.00137563 -1.608 0
M  V30 1042 O 102.186 -0.239883 -1.7254 0
M  V30 1043 C 99.3177 -0.580588 -3.3592 0
M  V30 1044 H 100.511 -1.99803 -2.23649 0
M  V30 1045 H 98.0637 -1.06899 -1.14027 0
M  V30 1046 H 98.7987 0.3781 -3.22088 0
M  V30 1047 H 98.5837 -1.33398 -3.6871 0
M  V30 1048 H 100.074 -0.459034 -4.15069 0
M  V30 1049 N 100.511 1.16574 -1.06058 0
M  V30 1050 C 101.758 1.87047 -0.775873 0
M  V30 1051 C 102.086 1.81562 0.697534 0
M  V30 1052 O 101.341 1.22445 1.52662 0
M  V30 1053 C 101.64 3.36195 -1.21275 0
M  V30 1054 C 101.306 3.6188 -2.68986 0
M  V30 1055 C 99.9678 3.68599 -3.09335 0
M  V30 1056 C 102.32 3.72648 -3.64394 0
M  V30 1057 C 99.6478 3.83584 -4.43937 0
M  V30 1058 C 102 3.89154 -4.98741 0
M  V30 1059 C 100.664 3.94114 -5.3873 0
M  V30 1060 H 99.9338 0.684452 -0.283912 0
M  V30 1061 H 102.581 1.37853 -1.32925 0
M  V30 1062 H 100.886 3.87505 -0.578528 0
M  V30 1063 H 102.583 3.89103 -0.969542 0
M  V30 1064 H 99.1728 3.57281 -2.36744 0
M  V30 1065 H 103.357 3.66769 -3.34356 0
M  V30 1066 H 98.6128 3.85677 -4.74409 0
M  V30 1067 H 102.787 3.96427 -5.72554 0
M  V30 1068 H 100.414 4.05478 -6.43033 0
M  V30 1069 N 101.989 0.842826 1.3317 0
M  V30 1070 C 103.217 0.454055 2.01856 0
M  V30 1071 C 103.632 -0.94587 1.63397 0
M  V30 1072 O 102.989 -1.61534 0.849302 0
M  V30 1073 C 103.04 0.569715 3.56982 0
M  V30 1074 O 102.761 1.91448 3.94055 0
M  V30 1075 C 104.262 0.178412 4.42941 0
M  V30 1076 H 101.482 0.17979 0.646465 0
M  V30 1077 H 104.026 1.1365 1.70012 0
M  V30 1078 H 102.181 -0.0648587 3.87346 0
M  V30 1079 H 102.595 1.90282 4.88767 0
M  V30 1080 H 104.069 0.310376 5.51127 0
M  V30 1081 H 104.546 -0.880056 4.30293 0
M  V30 1082 H 105.152 0.787579 4.17944 0
M  V30 1083 N 103.467 -1.45747 0.599634 0
M  V30 1084 C 104.695 -2.06668 0.0978551 0
M  V30 1085 C 105.11 -1.44562 -1.21439 0
M  V30 1086 O 104.467 -0.556923 -1.73795 0
M  V30 1087 C 104.518 -3.61456 -0.0567044 0
M  V30 1088 O 104.239 -4.21242 1.20361 0
M  V30 1089 C 105.74 -4.39345 -0.590869 0
M  V30 1090 H 102.96 -0.667825 0.0651943 0
M  V30 1091 H 105.504 -1.87115 0.82511 0
M  V30 1092 H 103.659 -3.80378 -0.734251 0
M  V30 1093 H 104.073 -5.14323 1.02821 0
M  V30 1094 H 105.547 -5.48182 -0.648131 0
M  V30 1095 H 106.024 -4.08568 -1.61147 0
M  V30 1096 H 106.63 -4.25268 0.0523679 0
M  V30 1097 N 104.945 -0.338344 -1.53925 0
M  V30 1098 C 106.361 0.0137736 -1.59594 0
M  V30 1099 C 106.561 1.49186 -1.35447 0
M  V30 1100 O 105.617 2.24987 -1.14616 0
M  V30 1101 C 106.93 -0.41773 -2.97784 0
M  V30 1102 C 108.478 -0.369633 -3.1081 0
M  V30 1103 C 108.953 -0.776524 -4.51369 0
M  V30 1104 N 110.444 -0.730506 -4.57403 0
M  V30 1105 C 111.179 -1.01736 -5.64303 0
M  V30 1106 N 110.675 -1.3721 -6.79077 0
M  V30 1107 N 112.468 -0.941942 -5.54151 0
M  V30 1108 H 104.619 -1.3012 -1.67876 0
M  V30 1109 H 106.882 -0.530082 -0.78595 0
M  V30 1110 H 106.588 -1.44811 -3.20504 0
M  V30 1111 H 106.462 0.209729 -3.76616 0
M  V30 1112 H 108.849 0.651568 -2.87817 0
M  V30 1113 H 108.93 -1.03223 -2.34049 0
M  V30 1114 H 108.574 -1.79571 -4.75096 0
M  V30 1115 H 108.504 -0.0914649 -5.26521 0
M  V30 1116 H 110.995 -0.468783 -3.74981 0
M  V30 1117 H 111.308 -1.57597 -7.5656 0
M  V30 1118 H 109.653 -1.4105 -6.80536 0
M  V30 1119 H 112.844 -0.664184 -4.63364 0
M  V30 1120 H 113.017 -1.16884 -6.37371 0
M  V30 1121 N 106.423 1.57458 -0.0668435 0
M  V30 1122 C 107.672 1.92477 0.602947 0
M  V30 1123 C 107.985 0.948419 1.71068 0
M  V30 1124 O 109.191 1.19124 2.43971 0
M  V30 1125 C 107.647 3.41903 1.12383 0
M  V30 1126 C 107.255 4.47975 0.04737 0
M  V30 1127 C 108.999 3.85931 1.76797 0
M  V30 1128 C 106.906 5.88529 0.582022 0
M  V30 1129 H 105.836 0.718387 0.22899 0
M  V30 1130 H 108.487 1.82978 -0.138276 0
M  V30 1131 H 106.869 3.46459 1.91787 0
M  V30 1132 H 108.043 4.55029 -0.726978 0
M  V30 1133 H 106.358 4.13384 -0.500243 0
M  V30 1134 H 108.955 4.88322 2.17821 0
M  V30 1135 H 109.298 3.23029 2.62599 0
M  V30 1136 H 109.831 3.83958 1.04024 0
M  V30 1137 H 106.57 6.55065 -0.238721 0
M  V30 1138 H 106.09 5.85004 1.324 0
M  V30 1139 H 107.769 6.38258 1.05999 0
M  V30 1140 N 107.901 -0.206675 1.56239 0
M  V30 1141 C 109.131 -0.943975 1.83773 0
M  V30 1142 C 109.539 -1.77841 0.645703 0
M  V30 1143 O 108.882 -1.79403 -0.395008 0
M  V30 1144 C 108.944 -1.899 3.05251 0
M  V30 1145 C 108.608 -1.24764 4.39639 0
M  V30 1146 C 109.605 -0.630216 5.16066 0
M  V30 1147 C 107.29 -1.25496 4.8637 0
M  V30 1148 C 109.284 -0.0287946 6.37393 0
M  V30 1149 C 106.971 -0.649698 6.07637 0
M  V30 1150 C 107.969 -0.0376845 6.8299 0
M  V30 1151 O 107.657 0.55812 8.0196 0
M  V30 1152 H 107.389 -0.281508 0.614597 0
M  V30 1153 H 109.943 -0.222458 2.04192 0
M  V30 1154 H 108.173 -2.6599 2.80689 0
M  V30 1155 H 109.862 -2.5031 3.1953 0
M  V30 1156 H 110.628 -0.616785 4.81062 0
M  V30 1157 H 106.507 -1.72072 4.27683 0
M  V30 1158 H 110.051 0.449518 6.9615 0
M  V30 1159 H 105.948 -0.660592 6.42111 0
M  V30 1160 H 106.716 0.453891 8.17241 0
M  V30 1161 N 109.379 -1.50304 -0.473955 0
M  V30 1162 C 110.329 -1.65347 -1.56985 0
M  V30 1163 C 111.313 -0.508176 -1.52664 0
M  V30 1164 O 112.505 -0.762446 -1.59737 0
M  V30 1165 C 109.634 -1.74832 -2.95447 0
M  V30 1166 C 108.72 -2.95028 -3.04662 0
M  V30 1167 N 109.111 -4.18747 -2.83698 0
M  V30 1168 C 107.409 -2.93527 -3.35795 0
M  V30 1169 C 108.11 -4.99687 -2.97805 0
M  V30 1170 N 107.086 -4.33585 -3.2788 0
M  V30 1171 H 110.888 -2.58698 -1.39472 0
M  V30 1172 H 108.402 -1.47449 -0.680629 0
M  V30 1173 H 110.399 -1.83712 -3.7424 0
M  V30 1174 H 109.059 -0.826376 -3.14008 0
M  V30 1175 H 110.07 -4.48291 -2.59337 0
M  V30 1176 H 106.747 -2.10821 -3.60362 0
M  V30 1177 H 108.137 -6.08057 -2.85861 0
M  V30 1178 N 110.857 0.726932 -1.39834 0
M  V30 1179 C 112.268 1.30558 -1.3346 0
M  V30 1180 C 112.619 1.962 -0.00273003 0
M  V30 1181 O 111.744 1.96826 0.899371 0
M  V30 1182 C 112.339 2.37404 -2.41713 0
M  V30 1183 C 110.898 2.90921 -2.38835 0
M  V30 1184 C 110.045 1.64578 -2.2318 0
M  V30 1185 H 112.996 0.523862 -1.49804 0
M  V30 1186 H 113.017 3.17984 -2.08966 0
M  V30 1187 H 112.529 1.89599 -3.38635 0
M  V30 1188 H 110.63 3.42985 -1.45575 0
M  V30 1189 H 110.743 3.43487 -3.33997 0
M  V30 1190 H 109.107 1.89219 -1.70494 0
M  V30 1191 H 109.89 1.18814 -3.22084 0
M  V30 1192 N 112.336 1.25143 0.95797 0
M  V30 1193 C 113.284 1.05019 2.07542 0
M  V30 1194 C 114.278 -0.0178751 1.69391 0
M  V30 1195 O 115.484 0.137472 1.79474 0
M  V30 1196 H 111.859 0.32265 0.679265 0
M  V30 1197 H 113.83 1.99759 2.21673 0
M  V30 1198 C 112.579 0.682074 3.40944 0
M  V30 1199 H 111.902 1.49573 3.70767 0
M  V30 1200 H 113.342 0.580945 4.20001 0
M  V30 1201 C 111.801 -0.611608 3.31302 0
M  V30 1202 O 112.331 -1.65465 3.66038 0
M  V30 1203 N 110.537 -0.595982 2.84423 0
M  V30 1204 H 110.084 0.253192 2.56353 0
M  V30 1205 H 110.042 -1.46173 2.78354 0
M  V30 1206 N 113.814 -1.1601 1.06675 0
M  V30 1207 C 115.063 -1.85973 0.780818 0
M  V30 1208 C 115.376 -1.82819 -0.695444 0
M  V30 1209 O 116.582 -2.484 -1.09589 0
M  V30 1210 C 115.038 -3.33757 1.34665 0
M  V30 1211 C 114.646 -3.45374 2.85343 0
M  V30 1212 C 116.39 -4.0895 1.13843 0
M  V30 1213 C 114.297 -4.87266 3.35151 0
M  V30 1214 H 113.227 -0.696661 0.288407 0
M  V30 1215 H 115.878 -1.30903 1.28595 0
M  V30 1216 H 114.26 -3.88456 0.769274 0
M  V30 1217 H 115.434 -3.00816 3.49065 0
M  V30 1218 H 113.749 -2.83619 3.04876 0
M  V30 1219 H 116.346 -5.13654 1.4854 0
M  V30 1220 H 116.689 -4.16229 0.0770282 0
M  V30 1221 H 117.222 -3.605 1.68179 0
M  V30 1222 H 113.961 -4.85168 4.40786 0
M  V30 1223 H 113.481 -5.32433 2.76179 0
M  V30 1224 H 115.16 -5.56097 3.30704 0
M  V30 1225 N 115.292 -0.849877 -1.32721 0
M  V30 1226 C 116.24 -0.279745 -2.30912 0
M  V30 1227 C 117.234 0.594278 -1.58634 0
M  V30 1228 O 118.44 0.482613 -1.73409 0
M  V30 1229 H 114.815 -0.0717521 -0.748569 0
M  V30 1230 H 116.786 -1.12222 -2.76494 0
M  V30 1231 C 115.535 0.521108 -3.43773 0
M  V30 1232 H 114.858 -0.142141 -3.99547 0
M  V30 1233 H 116.298 0.885693 -4.14646 0
M  V30 1234 C 114.757 1.70442 -2.90605 0
M  V30 1235 O 115.287 2.8034 -2.87702 0
M  V30 1236 N 113.493 1.52991 -2.47067 0
M  V30 1237 H 113.04 0.635914 -2.49628 0
M  V30 1238 H 112.998 2.32311 -2.11847 0
M  V30 1239 N 116.77 1.45427 -0.607355 0
M  V30 1240 C 117.995 2.07124 -0.107006 0
M  V30 1241 C 118.42 1.44906 1.19933 0
M  V30 1242 O 117.778 0.541687 1.73019 0
M  V30 1243 C 117.826 3.60595 0.0194119 0
M  V30 1244 O 116.93 3.98285 1.0697 0
M  V30 1245 H 116.271 0.659868 -0.0739597 0
M  V30 1246 H 118.801 1.86683 -0.837297 0
M  V30 1247 H 118.811 4.07419 0.2177 0
M  V30 1248 H 117.486 4.05266 -0.934453 0
M  V30 1249 H 116.063 3.63133 0.847889 0
M  V30 1250 N 118.248 0.346503 1.53744 0
M  V30 1251 C 119.196 -0.52422 2.26616 0
M  V30 1252 C 120.19 -1.09948 1.28871 0
M  V30 1253 O 121.396 -1.04488 1.46568 0
M  V30 1254 H 117.771 -0.187743 0.728187 0
M  V30 1255 H 119.742 0.11239 2.98188 0
M  V30 1256 C 118.491 -1.66186 3.05414 0
M  V30 1257 H 117.814 -1.22848 3.80458 0
M  V30 1258 H 119.254 -2.24622 3.59612 0
M  V30 1259 C 117.713 -2.59302 2.1509 0
M  V30 1260 O 118.243 -3.61628 1.74895 0
M  V30 1261 N 116.449 -2.28055 1.8011 0
M  V30 1262 H 115.996 -1.44883 2.12994 0
M  V30 1263 H 115.954 -2.90615 1.19958 0
M  V30 1264 N 119.726 -1.57421 0.075193 0
M  V30 1265 C 120.974 -1.93236 -0.591974 0
M  V30 1266 C 121.295 -0.956241 -1.69944 0
M  V30 1267 O 120.565 -0.00494792 -1.95899 0
M  V30 1268 H 119.145 -0.713355 -0.22166 0
M  V30 1269 H 121.807 -1.9444 0.133848 0
M  V30 1270 H 120.903 -2.95131 -1.01509 0
M  V30 1271 N 121.204 0.198386 -1.56346 0
M  V30 1272 C 122.429 0.939682 -1.84891 0
M  V30 1273 C 122.854 1.76202 -0.658369 0
M  V30 1274 O 122.212 1.76993 0.392851 0
M  V30 1275 C 122.26 1.81428 -3.11635 0
M  V30 1276 O 121.364 2.91265 -2.91956 0
M  V30 1277 H 120.705 0.264807 -0.608912 0
M  V30 1278 H 123.235 0.204695 -2.03573 0
M  V30 1279 H 123.245 2.21958 -3.42343 0
M  V30 1280 H 121.92 1.21004 -3.97908 0
M  V30 1281 H 120.497 2.54514 -2.72538 0
M  V30 1282 N 122.682 1.50554 0.465978 0
M  V30 1283 C 123.931 1.61038 1.21448 0
M  V30 1284 C 124.244 0.31865 1.92987 0
M  V30 1285 O 125.45 0.302469 2.6981 0
M  V30 1286 C 123.906 2.84283 2.20706 0
M  V30 1287 C 123.514 4.20352 1.54946 0
M  V30 1288 C 125.258 3.04115 2.96166 0
M  V30 1289 C 123.165 5.34778 2.5252 0
M  V30 1290 H 122.095 0.599718 0.457005 0
M  V30 1291 H 124.746 1.7699 0.484424 0
M  V30 1292 H 123.128 2.61901 2.97025 0
M  V30 1293 H 124.302 4.53008 0.843811 0
M  V30 1294 H 122.617 4.06167 0.917475 0
M  V30 1295 H 125.214 3.86774 3.69202 0
M  V30 1296 H 125.557 2.16045 3.55852 0
M  V30 1297 H 126.09 3.26702 2.26959 0
M  V30 1298 H 122.829 6.25018 1.97566 0
M  V30 1299 H 122.349 5.06534 3.21222 0
M  V30 1300 H 124.028 5.65561 3.14245 0
M  V30 1301 N 124.16 -0.719506 1.40217 0
M  V30 1302 C 125.4 -1.49181 1.39729 0
M  V30 1303 C 125.764 -1.92 -0.00250614 0
M  V30 1304 O 126.965 -2.68473 -0.132479 0
M  V30 1305 C 125.236 -2.68767 2.35582 0
M  V30 1306 S 126.795 -3.58224 2.53418 0
M  V30 1307 H 123.613 -0.510091 0.495307 0
M  V30 1308 H 126.215 -0.841724 1.76452 0
M  V30 1309 H 124.919 -2.35475 3.36124 0
M  V30 1310 H 124.45 -3.38691 2.0013 0
M  V30 1311 H 126.465 -4.63033 1.78367 0
M  V30 1312 N 125.638 -1.25649 -0.95132 0
M  V30 1313 C 126.568 -1.08808 -2.06599 0
M  V30 1314 C 127.549 0.00382547 -1.701 0
M  V30 1315 O 128.734 -0.166325 -1.93486 0
M  V30 1316 C 125.864 -0.709542 -3.39975 0
M  V30 1317 C 124.818 -1.75206 -3.90496 0
M  V30 1318 C 124.144 -1.22811 -5.20405 0
M  V30 1319 C 125.444 -3.15153 -4.16504 0
M  V30 1320 H 127.138 -2.02048 -2.20946 0
M  V30 1321 H 124.684 -0.972835 -1.06169 0
M  V30 1322 H 126.637 -0.578649 -4.17408 0
M  V30 1323 H 125.361 0.258556 -3.25575 0
M  V30 1324 H 124.02 -1.87145 -3.15234 0
M  V30 1325 H 123.668 -0.250145 -5.02378 0
M  V30 1326 H 123.368 -1.92492 -5.55176 0
M  V30 1327 H 124.892 -1.10968 -6.00432 0
M  V30 1328 H 126.306 -3.06349 -4.84586 0
M  V30 1329 H 124.703 -3.82333 -4.62538 0
M  V30 1330 H 125.773 -3.61966 -3.22658 0
M  V30 1331 N 127.117 1.15442 -1.07289 0
M  V30 1332 C 128.394 1.82306 -0.708792 0
M  V30 1333 C 128.774 1.94991 0.808807 0
M  V30 1334 O 128.122 1.50085 1.72298 0
M  V30 1335 C 128.332 3.18695 -1.42247 0
M  V30 1336 C 129.68 3.94341 -1.57417 0
M  V30 1337 O 130.704 3.28247 -1.38319 0
M  V30 1338 O 129.563 5.12839 -1.88834 0
M  V30 1339 H 126.657 0.787628 -0.252132 0
M  V30 1340 H 129.203 1.22559 -1.17377 0
M  V30 1341 H 127.975 3.04557 -2.45684 0
M  V30 1342 H 127.598 3.86128 -0.948223 0
M  V30 1343 N 128.595 0.856903 1.32268 0
M  V30 1344 C 129.844 0.457599 1.96441 0
M  V30 1345 C 130.157 -0.992426 1.68553 0
M  V30 1346 O 131.363 -1.49727 2.26482 0
M  V30 1347 C 129.819 0.767358 3.51624 0
M  V30 1348 C 129.427 2.23326 3.88367 0
M  V30 1349 C 131.171 0.435887 4.22256 0
M  V30 1350 C 129.078 2.48613 5.36606 0
M  V30 1351 H 128.008 0.167387 0.735185 0
M  V30 1352 H 130.659 1.048 1.5063 0
M  V30 1353 H 129.041 0.106367 3.95857 0
M  V30 1354 H 130.215 2.93623 3.55137 0
M  V30 1355 H 128.53 2.52948 3.30766 0
M  V30 1356 H 131.127 0.602202 5.31298 0
M  V30 1357 H 131.47 -0.622672 4.11617 0
M  V30 1358 H 132.003 1.05286 3.83614 0
M  V30 1359 H 128.742 3.53101 5.52268 0
M  V30 1360 H 128.262 1.82896 5.71235 0
M  V30 1361 H 129.941 2.32676 6.03714 0
M  V30 1362 N 130.073 -1.45103 0.615059 0
M  V30 1363 C 131.003 -2.33339 -0.0865619 0
M  V30 1364 C 131.984 -1.4727 -0.851209 0
M  V30 1365 O 133.169 -1.76026 -0.820281 0
M  V30 1366 C 130.299 -3.30095 -1.07956 0
M  V30 1367 C 129.253 -4.25858 -0.427628 0
M  V30 1368 C 128.579 -5.12361 -1.5294 0
M  V30 1369 C 129.879 -5.18165 0.655944 0
M  V30 1370 H 131.573 -2.92254 0.650224 0
M  V30 1371 H 129.119 -1.40532 0.314138 0
M  V30 1372 H 131.072 -3.90698 -1.57901 0
M  V30 1373 H 129.796 -2.69355 -1.84703 0
M  V30 1374 H 128.455 -3.66564 0.0510292 0
M  V30 1375 H 128.103 -4.47984 -2.28734 0
M  V30 1376 H 127.803 -5.77238 -1.09865 0
M  V30 1377 H 129.327 -5.75833 -2.03098 0
M  V30 1378 H 130.741 -5.72796 0.240257 0
M  V30 1379 H 129.138 -5.91559 1.00888 0
M  V30 1380 H 130.208 -4.60144 1.52957 0
M  V30 1381 N 131.551 -0.354651 -1.53558 0
M  V30 1382 C 132.967 -0.00315426 -1.596 0
M  V30 1383 C 133.167 1.47741 -1.37021 0
M  V30 1384 O 132.223 2.23759 -1.16996 0
M  V30 1385 C 133.536 -0.44929 -2.97325 0
M  V30 1386 C 135.084 -0.402578 -3.104 0
M  V30 1387 C 135.559 -0.824355 -4.5052 0
M  V30 1388 N 137.05 -0.778979 -4.56603 0
M  V30 1389 C 137.785 -1.07715 -5.63192 0
M  V30 1390 N 137.281 -1.44405 -6.77583 0
M  V30 1391 N 139.074 -1.00066 -5.53121 0
M  V30 1392 H 131.225 -1.31893 -1.66487 0
M  V30 1393 H 133.488 -0.538388 -0.780284 0
M  V30 1394 H 133.194 -1.48202 -3.1895 0
M  V30 1395 H 133.068 0.169772 -3.76818 0
M  V30 1396 H 135.455 0.621004 -2.88492 0
M  V30 1397 H 135.536 -1.05699 -2.32941 0
M  V30 1398 H 135.18 -1.846 -4.73165 0
M  V30 1399 H 135.11 -0.147304 -5.26394 0
M  V30 1400 H 137.601 -0.508528 -3.74463 0
M  V30 1401 H 137.914 -1.65612 -7.54846 0
M  V30 1402 H 136.259 -1.4826 -6.79002 0
M  V30 1403 H 139.45 -0.713293 -4.62633 0
M  V30 1404 H 139.623 -1.23638 -6.36096 0
M  V30 1405 N 133.029 1.57378 -0.0835403 0
M  V30 1406 C 134.254 1.98682 0.594987 0
M  V30 1407 C 134.679 0.961969 1.61641 0
M  V30 1408 O 134.037 -0.0709989 1.81161 0
M  V30 1409 C 134.085 3.38988 1.2296 0
M  V30 1410 O 133.189 3.39208 2.34546 0
M  V30 1411 H 132.53 0.646368 0.152002 0
M  V30 1412 H 135.06 2.03961 -0.161533 0
M  V30 1413 H 135.07 3.76431 1.57366 0
M  V30 1414 H 133.745 4.13107 0.481228 0
M  V30 1415 H 132.322 3.13548 2.01846 0
M  V30 1416 N 134.507 -0.190092 1.56449 0
M  V30 1417 C 135.439 -1.25973 1.91477 0
M  V30 1418 C 136.452 -1.41452 0.805931 0
M  V30 1419 O 137.641 -1.41789 1.08435 0
M  V30 1420 C 134.741 -2.63117 2.13594 0
M  V30 1421 C 133.914 -2.69182 3.4476 0
M  V30 1422 C 132.973 -3.87557 3.5593 0
M  V30 1423 O 131.999 -3.74427 4.28711 0
M  V30 1424 N 133.201 -5.03224 2.89388 0
M  V30 1425 H 135.966 -0.962394 2.83828 0
M  V30 1426 H 133.527 -0.379981 1.57378 0
M  V30 1427 H 135.519 -3.40742 2.1835 0
M  V30 1428 H 134.089 -2.85319 1.27719 0
M  V30 1429 H 133.309 -1.77793 3.51828 0
M  V30 1430 H 134.597 -2.70229 4.31107 0
M  V30 1431 H 133.995 -5.16791 2.30094 0
M  V30 1432 H 132.552 -5.78778 2.99764 0
M  V30 1433 N 135.985 -1.50799 -0.457987 0
M  V30 1434 C 137.231 -1.63648 -1.20792 0
M  V30 1435 C 137.586 -0.338662 -1.89396 0
M  V30 1436 O 136.879 0.664291 -1.79716 0
M  V30 1437 C 137.073 -2.76358 -2.2663 0
M  V30 1438 C 136.902 -4.16974 -1.68411 0
M  V30 1439 C 135.672 -4.83199 -1.47807 0
M  V30 1440 C 137.87 -5.00774 -1.17176 0
M  V30 1441 N 135.852 -6.07991 -0.849692 0
M  V30 1442 C 137.223 -6.16397 -0.667403 0
M  V30 1443 C 139.278 -4.86452 -1.06155 0
M  V30 1444 C 137.981 -7.19272 -0.0636908 0
M  V30 1445 C 140.007 -5.89515 -0.471759 0
M  V30 1446 C 139.369 -7.04397 0.0221557 0
M  V30 1447 H 135.468 -0.652888 -0.43042 0
M  V30 1448 H 138.052 -1.87962 -0.507785 0
M  V30 1449 H 136.223 -2.53744 -2.94056 0
M  V30 1450 H 137.955 -2.78496 -2.93636 0
M  V30 1451 H 134.71 -4.40714 -1.73403 0
M  V30 1452 H 135.134 -6.74733 -0.553537 0
M  V30 1453 H 139.776 -3.97907 -1.42932 0
M  V30 1454 H 137.494 -8.07481 0.316253 0
M  V30 1455 H 141.08 -5.805 -0.388671 0
M  V30 1456 H 139.96 -7.82782 0.471375 0
M  V30 1457 N 137.463 0.71206 -1.40597 0
M  V30 1458 C 138.688 1.50617 -1.42581 0
M  V30 1459 C 139.113 1.88079 -0.0282102 0
M  V30 1460 O 138.471 1.53511 0.964579 0
M  V30 1461 C 138.519 2.7557 -2.3258 0
M  V30 1462 O 137.623 3.72414 -1.77148 0
M  V30 1463 H 136.964 0.453966 -0.484573 0
M  V30 1464 H 139.494 0.876649 -1.84868 0
M  V30 1465 H 139.504 3.2406 -2.47889 0
M  V30 1466 H 138.179 2.47639 -3.34138 0
M  V30 1467 H 136.756 3.31276 -1.71204 0
M  V30 1468 N 138.941 1.26152 0.944643 0
M  V30 1469 C 140.352 1.10454 1.50522 0
M  V30 1470 C 140.703 -0.31635 1.93633 0
M  V30 1471 O 139.828 -1.20746 1.79581 0
M  V30 1472 C 140.423 1.99891 2.73549 0
M  V30 1473 C 138.982 1.88348 3.25886 0
M  V30 1474 C 138.129 1.93447 1.9868 0
M  V30 1475 H 141.08 1.39292 0.760489 0
M  V30 1476 H 141.101 1.54477 3.47732 0
M  V30 1477 H 140.613 3.03297 2.42141 0
M  V30 1478 H 138.714 0.878636 3.62092 0
M  V30 1479 H 138.827 2.73696 3.93227 0
M  V30 1480 H 137.191 1.37456 2.14425 0
M  V30 1481 H 137.974 2.98476 1.69607 0
M  V30 1482 N 140.419 -1.14872 1.07899 0
M  V30 1483 C 141.382 -2.17986 0.708161 0
M  V30 1484 C 142.382 -1.58775 -0.25442 0
M  V30 1485 O 143.572 -1.74166 -0.034645 0
M  V30 1486 C 140.704 -3.40871 0.0446929 0
M  V30 1487 H 141.897 -2.52306 1.62116 0
M  V30 1488 H 139.45 -1.2943 0.876218 0
M  V30 1489 H 140.185 -3.12124 -0.880281 0
M  V30 1490 H 139.97 -3.8511 0.737091 0
M  V30 1491 H 141.46 -4.17121 -0.19991 0
M  V30 1492 N 141.898 -0.863906 -1.31812 0
M  V30 1493 C 142.828 -0.330843 -2.31144 0
M  V30 1494 C 143.809 0.575005 -1.60087 0
M  V30 1495 O 144.994 0.493304 -1.8783 0
M  V30 1496 C 142.124 0.47374 -3.44054 0
M  V30 1497 C 141.078 -0.338481 -4.26659 0
M  V30 1498 C 140.404 0.591412 -5.31419 0
M  V30 1499 C 141.704 -1.56926 -4.98168 0
M  V30 1500 H 143.398 -1.16086 -2.75979 0
M  V30 1501 H 140.944 -0.559657 -1.32679 0
M  V30 1502 H 142.897 0.857143 -4.12591 0
M  V30 1503 H 141.621 1.33721 -2.9797 0
M  V30 1504 H 140.28 -0.703754 -3.59782 0
M  V30 1505 H 139.928 1.45199 -4.81587 0
M  V30 1506 H 139.628 0.0519022 -5.87577 0
M  V30 1507 H 141.152 0.97179 -6.02817 0
M  V30 1508 H 142.566 -1.25764 -5.59336 0
M  V30 1509 H 140.963 -2.04739 -5.64094 0
M  V30 1510 H 142.033 -2.32544 -4.25501 0
M  V30 1511 N 143.376 1.44774 -0.622745 0
M  V30 1512 C 144.604 2.06487 -0.130722 0
M  V30 1513 C 145.019 1.46476 1.19123 0
M  V30 1514 O 144.376 0.584502 1.72887 0
M  V30 1515 C 144.427 3.615 -0.000807207 0
M  V30 1516 O 144.148 4.19274 -1.27048 0
M  V30 1517 C 145.649 4.40229 0.520898 0
M  V30 1518 H 142.869 0.666704 -0.0758106 0
M  V30 1519 H 145.413 1.85779 -0.854774 0
M  V30 1520 H 143.568 3.81498 0.673643 0
M  V30 1521 H 143.982 5.12622 -1.1099 0
M  V30 1522 H 145.456 5.49144 0.560838 0
M  V30 1523 H 145.933 4.1108 1.54627 0
M  V30 1524 H 146.539 4.25131 -0.120018 0
M  V30 1525 N 144.854 0.36279 1.53368 0
M  V30 1526 C 146.103 -0.22888 2.00397 0
M  V30 1527 C 146.416 -1.50096 1.25421 0
M  V30 1528 O 147.622 -2.17106 1.63025 0
M  V30 1529 C 146.078 -0.458417 3.56969 0
M  V30 1530 C 145.686 0.798877 4.4082 0
M  V30 1531 C 147.43 -1.00789 4.12361 0
M  V30 1532 C 145.337 0.539078 5.88938 0
M  V30 1533 H 144.267 -0.089305 0.748693 0
M  V30 1534 H 146.918 0.481099 1.77081 0
M  V30 1535 H 145.3 -1.22959 3.76427 0
M  V30 1536 H 146.474 1.57262 4.33134 0
M  V30 1537 H 144.789 1.27137 3.96516 0
M  V30 1538 H 147.386 -1.21754 5.20653 0
M  V30 1539 H 147.729 -1.9692 3.66781 0
M  V30 1540 H 148.262 -0.296961 3.9669 0
M  V30 1541 H 145.001 1.47064 6.3879 0
M  V30 1542 H 144.521 -0.196222 5.99479 0
M  V30 1543 H 146.2 0.163542 6.46793 0
M  V30 1544 N 146.332 -1.57332 0.0918853 0
M  V30 1545 C 147.557 -1.98995 -0.584442 0
M  V30 1546 C 147.982 -0.970528 -1.61128 0
M  V30 1547 O 147.34 0.0613904 -1.81196 0
M  V30 1548 C 147.388 -3.39636 -1.21161 0
M  V30 1549 O 146.492 -3.40447 -2.32744 0
M  V30 1550 H 145.833 -0.647165 -0.148572 0
M  V30 1551 H 148.363 -2.03873 0.172347 0
M  V30 1552 H 148.373 -3.7726 -1.55367 0
M  V30 1553 H 147.048 -4.13356 -0.459313 0
M  V30 1554 H 145.625 -3.14614 -2.0018 0
M  V30 1555 N 147.81 0.181792 -1.56548 0
M  V30 1556 C 148.757 1.22521 -1.95595 0
M  V30 1557 C 149.727 1.4454 -0.818373 0
M  V30 1558 O 150.912 1.57454 -1.07763 0
M  V30 1559 C 148.052 2.56193 -2.31212 0
M  V30 1560 C 147.165 2.41641 -3.58097 0
M  V30 1561 C 146.3 3.68108 -3.82975 0
M  V30 1562 C 145.339 3.48445 -5.03242 0
M  V30 1563 N 144.476 4.66956 -5.24306 0
M  V30 1564 H 149.316 0.885226 -2.84548 0
M  V30 1565 H 146.853 0.425718 -1.40805 0
M  V30 1566 H 148.811 3.34088 -2.49882 0
M  V30 1567 H 147.441 2.88208 -1.45382 0
M  V30 1568 H 146.493 1.54976 -3.474 0
M  V30 1569 H 147.805 2.23052 -4.46149 0
M  V30 1570 H 146.959 4.54441 -4.01956 0
M  V30 1571 H 145.698 3.89666 -2.93278 0
M  V30 1572 H 144.703 2.60499 -4.8417 0
M  V30 1573 H 145.928 3.2832 -5.9446 0
M  V30 1574 H 143.874 4.88752 -4.37559 0
M  V30 1575 H 143.791 4.51242 -6.06561 0
M  V30 1576 H 145.059 5.54602 -5.47756 0
M  V30 1577 N 149.288 1.51039 0.449983 0
M  V30 1578 C 150.534 1.63322 1.20223 0
M  V30 1579 C 150.867 0.34241 1.91158 0
M  V30 1580 O 150.142 -0.657344 1.83055 0
M  V30 1581 C 150.425 2.82801 2.22925 0
M  V30 1582 C 150.278 4.21823 1.56157 0
M  V30 1583 C 151.597 2.97807 3.24035 0
M  V30 1584 H 148.716 0.594407 0.435718 0
M  V30 1585 H 151.358 1.83489 0.493136 0
M  V30 1586 H 149.508 2.65738 2.834 0
M  V30 1587 H 151.18 4.50526 0.991162 0
M  V30 1588 H 149.423 4.25105 0.864172 0
M  V30 1589 H 150.094 5.01391 2.30891 0
M  V30 1590 H 152.57 3.13497 2.73603 0
M  V30 1591 H 151.446 3.82992 3.93202 0
M  V30 1592 H 151.707 2.09328 3.89402 0
M  V30 1593 N 150.766 -0.704594 1.40972 0
M  V30 1594 C 151.696 -1.83124 1.44872 0
M  V30 1595 C 152.677 -1.67281 0.30838 0
M  V30 1596 O 153.862 -1.87149 0.518556 0
M  V30 1597 C 150.992 -3.21181 1.32136 0
M  V30 1598 C 149.946 -3.51714 2.43888 0
M  V30 1599 C 149.272 -4.89032 2.16222 0
M  V30 1600 C 150.572 -3.516 3.86232 0
M  V30 1601 H 152.266 -1.80117 2.39161 0
M  V30 1602 H 149.812 -0.865145 1.15114 0
M  V30 1603 H 151.765 -3.99702 1.33479 0
M  V30 1604 H 150.489 -3.24791 0.343279 0
M  V30 1605 H 149.148 -2.75539 2.41813 0
M  V30 1606 H 148.796 -4.89256 1.16778 0
M  V30 1607 H 148.496 -5.10426 2.911 0
M  V30 1608 H 150.02 -5.69873 2.19265 0
M  V30 1609 H 151.434 -4.2014 3.9007 0
M  V30 1610 H 149.831 -3.84523 4.60719 0
M  V30 1611 H 150.901 -2.50757 4.15029 0
M  V30 1612 N 152.244 -1.26651 -0.937939 0
M  V30 1613 C 153.174 -1.10993 -2.05433 0
M  V30 1614 C 154.155 -0.0142161 -1.70094 0
M  V30 1615 O 155.34 -0.186837 -1.93299 0
M  V30 1616 C 152.47 -0.745561 -3.39203 0
M  V30 1617 C 151.424 -1.79337 -3.88616 0
M  V30 1618 C 150.75 -1.28324 -5.19073 0
M  V30 1619 C 152.05 -3.19553 -4.13138 0
M  V30 1620 H 153.744 -2.0438 -2.1879 0
M  V30 1621 H 151.29 -0.984041 -1.05131 0
M  V30 1622 H 153.243 -0.622888 -4.16771 0
M  V30 1623 H 151.967 0.22401 -3.25831 0
M  V30 1624 H 150.626 -1.90477 -3.13231 0
M  V30 1625 H 150.274 -0.303414 -5.02084 0
M  V30 1626 H 149.974 -1.98369 -5.53103 0
M  V30 1627 H 151.498 -1.1733 -5.99221 0
M  V30 1628 H 152.912 -3.11471 -4.81309 0
M  V30 1629 H 151.309 -3.87218 -4.58457 0
M  V30 1630 H 152.379 -3.65368 -3.18801 0
M  V30 1631 N 153.722 1.14298 -1.08507 0
M  V30 1632 C 154.947 1.8976 -0.837001 0
M  V30 1633 C 155.372 1.78097 0.605228 0
M  V30 1634 O 154.73 1.12188 1.4242 0
M  V30 1635 C 154.778 3.37685 -1.26495 0
M  V30 1636 O 153.882 4.10281 -0.417514 0
M  V30 1637 H 153.223 0.590365 -0.303917 0
M  V30 1638 H 155.753 1.44672 -1.44676 0
M  V30 1639 H 155.763 3.88501 -1.24625 0
M  V30 1640 H 154.438 3.45492 -2.31534 0
M  V30 1641 H 153.015 3.69536 -0.499722 0
M  V30 1642 N 155.201 0.870884 1.31352 0
M  V30 1643 C 156.45 0.478408 1.95944 0
M  V30 1644 C 156.763 -0.974493 1.69597 0
M  V30 1645 O 157.969 -1.47316 2.28058 0
M  V30 1646 C 156.425 0.804609 3.50791 0
M  V30 1647 C 156.033 2.27433 3.85977 0
M  V30 1648 C 157.777 0.480648 4.2177 0
M  V30 1649 C 155.684 2.5429 5.33939 0
M  V30 1650 H 154.614 0.175175 0.733369 0
M  V30 1651 H 157.265 1.06391 1.4951 0
M  V30 1652 H 155.647 0.148347 3.95722 0
M  V30 1653 H 156.821 2.97373 3.52002 0
M  V30 1654 H 155.136 2.56442 3.28065 0
M  V30 1655 H 157.733 0.658519 5.30629 0
M  V30 1656 H 158.076 -0.578979 4.12254 0
M  V30 1657 H 158.609 1.09349 3.82476 0
M  V30 1658 H 155.348 3.58939 5.48491 0
M  V30 1659 H 154.868 1.88945 5.69263 0
M  V30 1660 H 156.547 2.39066 6.01212 0
M  V30 1661 N 156.679 -1.44442 0.630414 0
M  V30 1662 C 157.919 -2.03934 0.137919 0
M  V30 1663 C 158.283 -1.48509 -1.21692 0
M  V30 1664 O 159.484 -1.99499 -1.80149 0
M  V30 1665 C 157.755 -3.57187 0.123373 0
M  V30 1666 S 159.314 -4.37741 -0.304604 0
M  V30 1667 H 156.132 -0.708401 0.0607353 0
M  V30 1668 H 158.734 -1.76835 0.833643 0
M  V30 1669 H 157.438 -3.95032 1.11256 0
M  V30 1670 H 156.969 -3.88895 -0.59362 0
M  V30 1671 H 158.984 -4.71403 -1.54897 0
M  V30 1672 N 158.157 -0.370918 -1.53173 0
M  V30 1673 C 159.382 0.220293 -2.06227 0
M  V30 1674 C 159.807 1.41243 -1.24225 0
M  V30 1675 O 159.165 1.79387 -0.262645 0
M  V30 1676 C 159.213 0.586663 -3.55796 0
M  V30 1677 O 158.317 1.68317 -3.76488 0
M  V30 1678 H 157.658 0.0308099 -0.663285 0
M  V30 1679 H 160.188 -0.533068 -1.97534 0
M  V30 1680 H 160.198 0.85617 -3.98916 0
M  V30 1681 H 158.873 -0.285013 -4.14922 0
M  V30 1682 H 157.45 1.40881 -3.45264 0
M  V30 1683 N 159.635 1.57281 -0.100228 0
M  V30 1684 C 160.565 2.17328 0.853857 0
M  V30 1685 C 161.546 1.10804 1.2906 0
M  V30 1686 O 162.731 1.38963 1.35657 0
M  V30 1687 C 159.861 2.75772 2.11109 0
M  V30 1688 C 158.815 3.87713 1.81279 0
M  V30 1689 C 158.141 4.32882 3.13874 0
M  V30 1690 C 159.441 5.10677 1.09574 0
M  V30 1691 H 161.135 2.97305 0.353545 0
M  V30 1692 H 158.681 1.43009 0.168612 0
M  V30 1693 H 160.634 3.16433 2.78296 0
M  V30 1694 H 159.358 1.93057 2.63432 0
M  V30 1695 H 158.017 3.476 1.16489 0
M  V30 1696 H 157.665 3.47051 3.64095 0
M  V30 1697 H 157.365 5.08358 2.94696 0
M  V30 1698 H 158.889 4.7618 3.82211 0
M  V30 1699 H 160.303 5.48474 1.66879 0
M  V30 1700 H 158.7 5.91615 1.00557 0
M  V30 1701 H 159.77 4.84835 0.0793299 0
M  V30 1702 N 161.113 -0.173488 1.56642 0
M  V30 1703 C 162.043 -1.2171 1.99271 0
M  V30 1704 C 163.024 -1.46289 0.867959 0
M  V30 1705 O 164.209 -1.5766 1.13388 0
M  V30 1706 C 161.339 -2.55651 2.35074 0
M  V30 1707 C 160.293 -2.45645 3.50489 0
M  V30 1708 C 159.619 -3.84056 3.72028 0
M  V30 1709 C 160.919 -1.96302 4.84007 0
M  V30 1710 H 162.613 -0.86275 2.867 0
M  V30 1711 H 160.159 -0.413571 1.37933 0
M  V30 1712 H 162.112 -3.2886 2.63494 0
M  V30 1713 H 160.836 -2.92869 1.44552 0
M  V30 1714 H 159.495 -1.7489 3.22194 0
M  V30 1715 H 159.143 -4.18664 2.788 0
M  V30 1716 H 158.843 -3.7823 4.49684 0
M  V30 1717 H 160.367 -4.58854 4.02846 0
M  V30 1718 H 161.781 -2.59284 5.11317 0
M  V30 1719 H 160.178 -2.01429 5.65284 0
M  V30 1720 H 161.248 -0.917226 4.76146 0
M  V30 1721 N 162.591 -1.51276 -0.441967 0
M  V30 1722 C 163.831 -1.65372 -1.20132 0
M  V30 1723 C 164.195 -0.359871 -1.88597 0
M  V30 1724 O 165.396 -0.376551 -2.66149 0
M  V30 1725 C 163.667 -2.8207 -2.1948 0
M  V30 1726 S 165.226 -3.16467 -3.03964 0
M  V30 1727 H 162.044 -0.582669 -0.407453 0
M  V30 1728 H 164.646 -1.89166 -0.493609 0
M  V30 1729 H 163.35 -3.74523 -1.67812 0
M  V30 1730 H 162.881 -2.6045 -2.94838 0
M  V30 1731 H 164.896 -2.62543 -4.21053 0
M  V30 1732 N 164.069 0.697108 -1.41344 0
M  V30 1733 C 165.346 1.45154 -1.31109 0
M  V30 1734 C 165.726 2.11009 0.0620449 0
M  V30 1735 O 165.074 2.01571 1.07618 0
M  V30 1736 C 165.284 2.47223 -2.46337 0
M  V30 1737 C 166.632 3.1252 -2.87431 0
M  V30 1738 O 167.656 2.57547 -2.46065 0
M  V30 1739 O 166.515 4.12083 -3.58957 0
M  V30 1740 H 163.609 0.646365 -0.515889 0
M  V30 1741 H 166.155 0.727716 -1.53305 0
M  V30 1742 H 164.927 1.97204 -3.37974 0
M  V30 1743 H 164.55 3.27116 -2.2601 0
M  V30 1744 N 165.547 1.27147 0.931209 0
M  V30 1745 C 166.958 1.12044 1.49342 0
M  V30 1746 C 167.309 -0.295795 1.93957 0
M  V30 1747 O 166.434 -1.18835 1.80852 0
M  V30 1748 C 167.029 2.02781 2.71414 0
M  V30 1749 C 165.588 1.91794 3.2387 0
M  V30 1750 C 164.735 1.95543 1.96617 0
M  V30 1751 H 167.686 1.40091 0.745672 0
M  V30 1752 H 167.707 1.58156 3.46074 0
M  V30 1753 H 167.219 3.05848 2.38911 0
M  V30 1754 H 165.32 0.916992 3.6114 0
M  V30 1755 H 165.433 2.77852 3.90302 0
M  V30 1756 H 163.797 1.39722 2.12955 0
M  V30 1757 H 164.58 3.00259 1.66432 0
M  V30 1758 N 167.025 -1.13721 1.09112 0
M  V30 1759 C 167.973 -2.21103 0.722219 0
M  V30 1760 C 168.967 -1.67147 -0.275374 0
M  V30 1761 O 170.173 -1.79477 -0.137176 0
M  V30 1762 H 166.548 -0.720445 0.215553 0
M  V30 1763 H 168.519 -2.49483 1.63709 0
M  V30 1764 C 167.268 -3.47352 0.15543 0
M  V30 1765 H 166.591 -3.89206 0.914246 0
M  V30 1766 H 168.031 -4.2395 -0.0647967 0
M  V30 1767 C 166.49 -3.1814 -1.10852 0
M  V30 1768 O 167.02 -3.36604 -2.19227 0
M  V30 1769 N 165.226 -2.72045 -1.02176 0
M  V30 1770 H 164.773 -2.57221 -0.139764 0
M  V30 1771 H 164.731 -2.52875 -1.8682 0
M  V30 1772 N 168.503 -0.877838 -1.30888 0
M  V30 1773 C 169.914 -0.544193 -1.78593 0
M  V30 1774 C 170.265 0.939301 -1.72254 0
M  V30 1775 O 169.39 1.7337 -1.29505 0
M  V30 1776 C 169.985 -0.98105 -3.24285 0
M  V30 1777 C 168.544 -0.698935 -3.69854 0
M  V30 1778 C 167.691 -1.168 -2.51502 0
M  V30 1779 H 170.642 -1.06278 -1.17859 0
M  V30 1780 H 170.663 -0.307009 -3.79259 0
M  V30 1781 H 170.175 -2.06079 -3.28866 0
M  V30 1782 H 168.276 0.369112 -3.70767 0
M  V30 1783 H 168.389 -1.28148 -4.61644 0
M  V30 1784 H 166.753 -0.587535 -2.47831 0
M  V30 1785 H 167.536 -2.25533 -2.58824 0
M  V30 1786 N 169.982 1.44106 -0.638065 0
M  V30 1787 C 171.259 1.95453 -0.0759321 0
M  V30 1788 C 171.639 1.57984 1.40015 0
M  V30 1789 O 170.987 0.857361 2.11806 0
M  V30 1790 C 171.197 3.47655 -0.306132 0
M  V30 1791 C 172.545 4.24114 -0.203008 0
M  V30 1792 O 173.569 3.55405 -0.237871 0
M  V30 1793 O 172.428 5.46381 -0.113827 0
M  V30 1794 H 169.522 0.826797 0.0183332 0
M  V30 1795 H 172.068 1.54122 -0.710251 0
M  V30 1796 H 170.84 3.68 -1.3301 0
M  V30 1797 H 170.463 3.95949 0.361991 0
M  V30 1798 N 171.46 0.379036 1.52974 0
M  V30 1799 C 172.737 -0.263479 1.93817 0
M  V30 1800 C 173.117 -1.65244 1.31368 0
M  V30 1801 O 172.465 -2.23448 0.477856 0
M  V30 1802 C 172.675 -0.300166 3.47707 0
M  V30 1803 C 174.023 -0.534061 4.21228 0
M  V30 1804 O 175.047 -0.38081 3.54159 0
M  V30 1805 O 173.906 -0.833501 5.40106 0
M  V30 1806 H 171 -0.161149 0.811147 0
M  V30 1807 H 173.546 0.432798 1.64088 0
M  V30 1808 H 172.318 0.673138 3.85467 0
M  V30 1809 H 171.941 -1.04179 3.83709 0
M  V30 1810 N 172.938 -1.57226 0.108567 0
M  V30 1811 C 174.349 -1.8195 -0.418464 0
M  V30 1812 C 174.7 -1.02508 -1.67292 0
M  V30 1813 O 173.825 -0.258496 -2.14851 0
M  V30 1814 C 174.42 -3.30028 -0.765979 0
M  V30 1815 C 172.979 -3.55469 -1.23769 0
M  V30 1816 C 172.126 -2.7625 -0.241106 0
M  V30 1817 H 175.077 -1.55149 0.33384 0
M  V30 1818 H 175.098 -3.44086 -1.62434 0
M  V30 1819 H 174.61 -3.87821 0.147219 0
M  V30 1820 H 172.711 -3.03022 -2.16814 0
M  V30 1821 H 172.824 -4.6408 -1.19022 0
M  V30 1822 H 171.188 -2.44133 -0.72602 0
M  V30 1823 H 171.971 -3.36797 0.665007 0
M  V30 1824 N 174.416 0.165178 -1.56732 0
M  V30 1825 C 175.346 1.20651 -1.99914 0
M  V30 1826 C 176.327 1.45827 -0.875705 0
M  V30 1827 O 177.512 1.57057 -1.14223 0
M  V30 1828 C 174.642 2.54401 -2.36427 0
M  V30 1829 C 173.596 2.43782 -3.51787 0
M  V30 1830 C 172.922 3.82078 -3.7406 0
M  V30 1831 C 174.222 1.93732 -4.85041 0
M  V30 1832 H 175.916 0.847534 -2.87154 0
M  V30 1833 H 173.462 0.40625 -1.38151 0
M  V30 1834 H 175.415 3.27458 -2.65234 0
M  V30 1835 H 174.139 2.92098 -1.46103 0
M  V30 1836 H 172.798 1.73178 -3.23117 0
M  V30 1837 H 172.446 4.17179 -2.81017 0
M  V30 1838 H 172.146 3.7584 -4.51684 0
M  V30 1839 H 173.67 4.56712 -4.05274 0
M  V30 1840 H 175.084 2.56569 -5.12684 0
M  V30 1841 H 173.481 1.98428 -5.66345 0
M  V30 1842 H 174.551 0.891962 -4.76626 0
M  V30 1843 N 175.894 1.51508 0.433938 0
M  V30 1844 C 177.14 1.64588 1.18484 0
M  V30 1845 C 177.473 0.362666 1.90784 0
M  V30 1846 O 176.748 -0.637892 1.83742 0
M  V30 1847 C 177.031 2.85149 2.19913 0
M  V30 1848 C 176.884 4.23456 1.51674 0
M  V30 1849 C 178.203 3.01227 3.20858 0
M  V30 1850 H 175.322 0.598994 0.429389 0
M  V30 1851 H 177.964 1.84002 0.473647 0
M  V30 1852 H 176.114 2.68729 2.80566 0
M  V30 1853 H 177.786 4.51552 0.943322 0
M  V30 1854 H 176.029 4.25998 0.819035 0
M  V30 1855 H 176.7 5.03812 2.2556 0
M  V30 1856 H 179.176 3.16382 2.70263 0
M  V30 1857 H 178.052 3.87141 3.89118 0
M  V30 1858 H 178.313 2.13447 3.8716 0
M  V30 1859 N 177.372 -0.689602 1.41712 0
M  V30 1860 C 178.783 -1.26973 1.36875 0
M  V30 1861 C 179.134 -1.96124 0.054748 0
M  V30 1862 O 178.259 -1.99141 -0.84687 0
M  V30 1863 C 178.854 -2.30912 2.47922 0
M  V30 1864 C 177.413 -2.84486 2.46464 0
M  V30 1865 C 176.56 -1.58603 2.27465 0
M  V30 1866 H 179.511 -0.48396 1.51141 0
M  V30 1867 H 179.532 -3.12331 2.17323 0
M  V30 1868 H 179.044 -1.80554 3.43543 0
M  V30 1869 H 177.145 -3.39005 1.54617 0
M  V30 1870 H 177.258 -3.34511 3.42986 0
M  V30 1871 H 175.622 -1.84632 1.75451 0
M  V30 1872 H 176.405 -1.10233 3.25121 0
M  V30 1873 N 178.85 -1.27639 -0.924453 0
M  V30 1874 C 179.76 -1.12466 -2.05885 0
M  V30 1875 C 180.776 -0.053869 -1.73917 0
M  V30 1876 O 181.952 -0.261012 -1.99702 0
M  V30 1877 C 179.017 -0.776768 -3.37886 0
M  V30 1878 C 178.078 -1.92878 -3.83532 0
M  V30 1879 C 177.311 -1.59739 -5.09234 0
M  V30 1880 O 177.534 -0.506782 -5.68144 0
M  V30 1881 O 176.468 -2.43761 -5.50331 0
M  V30 1882 H 180.294 -2.07671 -2.21599 0
M  V30 1883 H 177.879 -1.06857 -1.04413 0
M  V30 1884 H 179.761 -0.596229 -4.17161 0
M  V30 1885 H 178.436 0.145732 -3.23372 0
M  V30 1886 H 177.343 -2.1644 -3.0513 0
M  V30 1887 H 178.676 -2.8316 -4.02593 0
M  V30 1888 N 180.328 1.1314 -1.09713 0
M  V30 1889 C 181.577 1.83838 -0.829851 0
M  V30 1890 C 181.89 1.84599 0.646728 0
M  V30 1891 O 183.096 2.51218 1.02965 0
M  V30 1892 C 181.552 3.30069 -1.43466 0
M  V30 1893 C 181.16 3.37688 -2.94399 0
M  V30 1894 C 182.904 4.05788 -1.24645 0
M  V30 1895 C 180.811 4.78209 -3.47952 0
M  V30 1896 H 179.741 0.68877 -0.306777 0
M  V30 1897 H 182.392 1.27448 -1.3202 0
M  V30 1898 H 180.774 3.8628 -0.871996 0
M  V30 1899 H 181.948 2.91456 -3.56918 0
M  V30 1900 H 180.263 2.75436 -3.12289 0
M  V30 1901 H 182.86 5.09535 -1.62107 0
M  V30 1902 H 183.203 4.15878 -0.187357 0
M  V30 1903 H 183.736 3.55915 -1.77678 0
M  V30 1904 H 180.475 4.73311 -4.53495 0
M  V30 1905 H 179.995 5.24924 -2.90198 0
M  V30 1906 H 181.674 5.47133 -3.45332 0
M  V30 1907 N 181.806 0.884767 1.30421 0
M  V30 1908 C 182.769 0.356277 2.26414 0
M  V30 1909 C 183.769 -0.501124 1.52792 0
M  V30 1910 O 184.959 -0.30831 1.7145 0
M  V30 1911 C 182.091 -0.492316 3.37326 0
M  V30 1912 H 183.284 1.20389 2.74675 0
M  V30 1913 H 180.837 0.661607 1.41607 0
M  V30 1914 H 181.572 -1.36052 2.94381 0
M  V30 1915 H 181.357 0.121832 3.91911 0
M  V30 1916 H 182.847 -0.853871 4.08777 0
M  V30 1917 N 183.284 -1.43765 0.645699 0
M  V30 1918 C 184.7 -1.56509 0.312591 0
M  V30 1919 C 184.9 -1.6307 -1.18365 0
M  V30 1920 O 183.956 -1.58167 -1.96824 0
M  V30 1921 C 185.269 -2.82968 1.01733 0
M  V30 1922 C 186.817 -2.96701 0.996865 0
M  V30 1923 C 187.292 -4.25982 1.68236 0
M  V30 1924 N 188.783 -4.32829 1.64964 0
M  V30 1925 C 189.518 -5.31613 2.14885 0
M  V30 1926 N 189.014 -6.36718 2.73061 0
M  V30 1927 N 190.807 -5.23217 2.05428 0
M  V30 1928 H 182.958 -1.3775 1.61675 0
M  V30 1929 H 185.221 -0.661067 0.679481 0
M  V30 1930 H 184.927 -2.84156 2.0724 0
M  V30 1931 H 184.801 -3.72957 0.564177 0
M  V30 1932 H 187.188 -2.95058 -0.0497719 0
M  V30 1933 H 187.269 -2.08022 1.48865 0
M  V30 1934 H 186.913 -4.28386 2.72852 0
M  V30 1935 H 186.843 -5.13545 1.16529 0
M  V30 1936 H 189.334 -3.57493 1.22503 0
M  V30 1937 H 189.647 -7.08401 3.08848 0
M  V30 1938 H 187.992 -6.37362 2.77118 0
M  V30 1939 H 191.183 -4.40019 1.59689 0
M  V30 1940 H 191.356 -6.00045 2.44643 0
M  V30 1941 N 184.763 -0.387143 -1.52771 0
M  V30 1942 C 186.012 0.19697 -2.00736 0
M  V30 1943 C 186.325 1.48082 -1.27793 0
M  V30 1944 O 187.531 2.14485 -1.66458 0
M  V30 1945 C 185.987 0.401568 -3.57653 0
M  V30 1946 C 185.595 -0.868907 -4.39493 0
M  V30 1947 C 187.339 0.942164 -4.13912 0
M  V30 1948 C 185.246 -0.632705 -5.88006 0
M  V30 1949 H 184.176 0.0773827 -0.750019 0
M  V30 1950 H 186.827 -0.50921 -1.76293 0
M  V30 1951 H 185.209 1.16954 -3.78335 0
M  V30 1952 H 186.383 -1.64133 -4.30577 0
M  V30 1953 H 184.698 -1.33429 -3.94443 0
M  V30 1954 H 187.295 1.13455 -5.22525 0
M  V30 1955 H 187.638 1.9106 -3.69867 0
M  V30 1956 H 188.171 0.233814 -3.97112 0
M  V30 1957 H 184.91 -1.57208 -6.36369 0
M  V30 1958 H 184.43 0.100825 -5.99715 0
M  V30 1959 H 186.109 -0.26642 -6.46451 0
M  V30 1960 N 186.241 1.57166 -0.116904 0
M  V30 1961 C 187.471 1.99184 0.548586 0
M  V30 1962 C 187.879 0.995436 1.60897 0
M  V30 1963 O 187.222 -0.0201293 1.83689 0
M  V30 1964 C 187.284 3.37611 1.23526 0
M  V30 1965 C 186.948 4.55857 0.323077 0
M  V30 1966 C 187.945 5.18056 -0.437476 0
M  V30 1967 C 185.63 5.01751 0.234761 0
M  V30 1968 C 187.624 6.24536 -1.2741 0
M  V30 1969 C 185.311 6.08093 -0.605496 0
M  V30 1970 C 186.309 6.69352 -1.35856 0
M  V30 1971 O 185.997 7.7364 -2.18487 0
M  V30 1972 H 185.729 0.659148 0.149999 0
M  V30 1973 H 188.283 2.0443 -0.199428 0
M  V30 1974 H 186.513 3.29113 2.0303 0
M  V30 1975 H 188.202 3.63932 1.79745 0
M  V30 1976 H 188.968 4.83516 -0.379105 0
M  V30 1977 H 184.847 4.53817 0.810601 0
M  V30 1978 H 188.391 6.72281 -1.86237 0
M  V30 1979 H 184.288 6.42063 -0.665268 0
M  V30 1980 H 185.056 7.90727 -2.11406 0
M  V30 1981 N 187.719 -0.156864 1.56817 0
M  V30 1982 C 188.666 -1.19394 1.97519 0
M  V30 1983 C 189.636 -1.4322 0.841265 0
M  V30 1984 O 190.821 -1.55719 1.10255 0
M  V30 1985 C 187.961 -2.52483 2.35258 0
M  V30 1986 C 187.074 -2.35914 3.61896 0
M  V30 1987 C 186.209 -3.61969 3.88782 0
M  V30 1988 C 185.248 -3.40395 5.08722 0
M  V30 1989 N 184.385 -4.58556 5.31668 0
M  V30 1990 H 189.225 -0.839845 2.85921 0
M  V30 1991 H 186.762 -0.403264 1.41464 0
M  V30 1992 H 188.72 -3.30071 2.55165 0
M  V30 1993 H 187.35 -2.85859 1.49949 0
M  V30 1994 H 186.402 -1.49429 3.49821 0
M  V30 1995 H 187.714 -2.15926 4.49641 0
M  V30 1996 H 186.868 -4.47989 4.09135 0
M  V30 1997 H 185.607 -3.84951 2.9944 0
M  V30 1998 H 184.612 -2.52763 4.88253 0
M  V30 1999 H 185.837 -3.18822 5.99608 0
M  V30 2000 H 183.783 -4.81729 4.45279 0
M  V30 2001 H 183.7 -4.41535 6.13664 0
M  V30 2002 H 184.968 -5.45817 5.5651 0
M  V30 2003 N 189.197 -1.51736 -0.425897 0
M  V30 2004 C 190.425 -1.68794 -1.1965 0
M  V30 2005 C 190.84 -0.390164 -1.84725 0
M  V30 2006 O 190.197 0.632376 -1.71194 0
M  V30 2007 C 190.248 -2.81174 -2.27208 0
M  V30 2008 O 189.969 -4.05925 -1.64793 0
M  V30 2009 C 191.47 -3.09599 -3.17275 0
M  V30 2010 H 188.69 -0.566128 -0.360194 0
M  V30 2011 H 191.234 -1.98211 -0.503249 0
M  V30 2012 H 189.389 -2.54324 -2.9223 0
M  V30 2013 H 189.803 -4.68423 -2.35967 0
M  V30 2014 H 191.277 -3.91786 -3.88854 0
M  V30 2015 H 191.754 -2.22468 -3.78688 0
M  V30 2016 H 192.36 -3.38151 -2.57941 0
M  V30 2017 N 190.675 0.682077 -1.42076 0
M  V30 2018 C 191.952 1.43755 -1.32642 0
M  V30 2019 C 192.332 2.11063 0.0396611 0
M  V30 2020 O 191.68 2.02701 1.05474 0
M  V30 2021 C 191.89 2.44596 -2.48946 0
M  V30 2022 C 193.238 3.09454 -2.9073 0
M  V30 2023 O 194.262 2.54922 -2.48783 0
M  V30 2024 O 193.121 4.08253 -3.63307 0
M  V30 2025 H 190.215 0.640857 -0.522715 0
M  V30 2026 H 192.761 0.711415 -1.54068 0
M  V30 2027 H 191.533 1.93609 -3.40046 0
M  V30 2028 H 191.156 3.24701 -2.29467 0
M  V30 2029 N 192.153 1.28127 0.917671 0
M  V30 2030 C 193.569 1.05749 1.19538 0
M  V30 2031 C 193.769 -0.202633 2.00479 0
M  V30 2032 O 192.825 -0.905382 2.3571 0
M  V30 2033 C 194.138 2.30273 1.93378 0
M  V30 2034 C 195.686 2.35412 2.06277 0
M  V30 2035 C 196.161 3.59692 2.83524 0
M  V30 2036 N 197.652 3.60309 2.91087 0
M  V30 2037 C 198.387 4.53147 3.51348 0
M  V30 2038 N 197.883 5.563 4.12919 0
M  V30 2039 N 199.676 4.40751 3.48849 0
M  V30 2040 H 191.827 2.09024 0.377184 0
M  V30 2041 H 194.09 0.919798 0.22951 0
M  V30 2042 H 193.796 3.22055 1.41328 0
M  V30 2043 H 193.67 2.36378 2.93947 0
M  V30 2044 H 196.057 1.4413 2.57508 0
M  V30 2045 H 196.138 2.33304 1.04895 0
M  V30 2046 H 195.782 4.51316 2.32973 0
M  V30 2047 H 195.712 3.59054 3.85211 0
M  V30 2048 H 198.203 2.85714 2.47338 0
M  V30 2049 H 198.516 6.2329 4.56869 0
M  V30 2050 H 196.861 5.60131 4.11435 0
M  V30 2051 H 200.052 3.59367 2.99955 0
M  V30 2052 H 200.225 5.13291 3.9552 0
M  V30 2053 N 193.631 -1.12557 1.10312 0
M  V30 2054 C 194.541 -2.21841 0.763142 0
M  V30 2055 C 195.557 -1.72354 -0.238801 0
M  V30 2056 O 196.733 -2.01249 -0.0778746 0
M  V30 2057 C 193.798 -3.46131 0.198632 0
M  V30 2058 C 192.859 -4.10464 1.25769 0
M  V30 2059 C 192.092 -5.28821 0.72002 0
M  V30 2060 O 192.315 -5.6859 -0.453993 0
M  V30 2061 O 191.249 -5.83437 1.47935 0
M  V30 2062 H 195.075 -2.53312 1.67532 0
M  V30 2063 H 192.66 -1.20867 0.878157 0
M  V30 2064 H 194.542 -4.2125 -0.112401 0
M  V30 2065 H 193.217 -3.16338 -0.686419 0
M  V30 2066 H 192.124 -3.3713 1.62156 0
M  V30 2067 H 193.457 -4.44408 2.11571 0
M  V30 2068 N 195.109 -0.891671 -1.2995 0
M  V30 2069 C 196.056 -0.361736 -2.27948 0
M  V30 2070 C 197.026 0.551761 -1.56668 0
M  V30 2071 O 198.211 0.478736 -1.84696 0
M  V30 2072 C 195.351 0.411825 -3.42634 0
M  V30 2073 C 194.464 -0.531651 -4.28716 0
M  V30 2074 C 193.599 0.258167 -5.30572 0
M  V30 2075 C 192.638 -0.680349 -6.08307 0
M  V30 2076 N 191.775 0.0745613 -7.0206 0
M  V30 2077 H 196.615 -1.20254 -2.72659 0
M  V30 2078 H 194.152 -0.604352 -1.34112 0
M  V30 2079 H 196.11 0.876304 -4.07893 0
M  V30 2080 H 194.74 1.21715 -2.98974 0
M  V30 2081 H 193.792 -1.11463 -3.63703 0
M  V30 2082 H 195.104 -1.25038 -4.82874 0
M  V30 2083 H 194.258 0.784204 -6.0161 0
M  V30 2084 H 192.997 1.01008 -4.77126 0
M  V30 2085 H 192.002 -1.21796 -5.3614 0
M  V30 2086 H 193.227 -1.43145 -6.63842 0
M  V30 2087 H 191.173 0.808883 -6.50994 0
M  V30 2088 H 191.09 -0.584409 -7.53738 0
M  V30 2089 H 192.358 0.581123 -7.77331 0
M  V30 2090 N 196.587 1.43421 -0.653314 0
M  V30 2091 C 197.817 2.05864 -0.174238 0
M  V30 2092 C 198.225 1.49052 1.16534 0
M  V30 2093 O 197.568 0.616481 1.73047 0
M  V30 2094 C 197.63 3.59499 -0.00875873 0
M  V30 2095 C 197.294 4.38893 -1.27364 0
M  V30 2096 C 198.291 4.70947 -2.20239 0
M  V30 2097 C 195.976 4.789 -1.51525 0
M  V30 2098 C 197.97 5.41916 -3.35568 0
M  V30 2099 C 195.657 5.49614 -2.67147 0
M  V30 2100 C 196.655 5.81044 -3.58994 0
M  V30 2101 O 196.343 6.50313 -4.72597 0
M  V30 2102 H 196.075 0.670345 -0.0872549 0
M  V30 2103 H 198.629 1.84913 -0.894226 0
M  V30 2104 H 196.859 3.79025 0.7666 0
M  V30 2105 H 198.548 4.0364 0.427687 0
M  V30 2106 H 199.314 4.40558 -2.02815 0
M  V30 2107 H 195.193 4.53843 -0.809158 0
M  V30 2108 H 198.737 5.66365 -4.07279 0
M  V30 2109 H 194.634 5.79419 -2.84505 0
M  V30 2110 H 195.402 6.68795 -4.71864 0
M  V30 2111 N 198.065 0.39524 1.52563 0
M  V30 2112 C 199.013 -0.451859 2.28169 0
M  V30 2113 C 200.007 -1.05792 1.32304 0
M  V30 2114 O 201.213 -0.997718 1.49818 0
M  V30 2115 H 197.588 -0.164481 0.733792 0
M  V30 2116 H 199.559 0.207199 2.9768 0
M  V30 2117 C 198.308 -1.56385 3.10546 0
M  V30 2118 H 197.631 -1.10682 3.84174 0
M  V30 2119 H 199.071 -2.13067 3.66577 0
M  V30 2120 C 197.53 -2.52328 2.23231 0
M  V30 2121 O 198.06 -3.5588 1.86312 0
M  V30 2122 N 196.266 -2.22209 1.87274 0
M  V30 2123 H 195.813 -1.38033 2.17496 0
M  V30 2124 H 195.771 -2.86652 1.29143 0
M  V30 2125 N 199.544 -1.57102 0.125237 0
M  V30 2126 C 200.96 -1.57915 -0.231322 0
M  V30 2127 C 201.16 -1.13833 -1.66266 0
M  V30 2128 O 200.216 -0.828581 -2.38518 0
M  V30 2129 C 201.529 -3.00699 0.00766489 0
M  V30 2130 C 203.077 -3.12947 -0.0577483 0
M  V30 2131 C 203.552 -4.57742 0.153626 0
M  V30 2132 N 205.043 -4.63092 0.0998073 0
M  V30 2133 C 205.778 -5.72905 0.238174 0
M  V30 2134 N 205.274 -6.91445 0.433057 0
M  V30 2135 N 207.067 -5.6182 0.177308 0
M  V30 2136 H 199.218 -1.84055 1.06007 0
M  V30 2137 H 201.481 -0.850905 0.417929 0
M  V30 2138 H 201.187 -3.3726 0.997431 0
M  V30 2139 H 201.061 -3.70236 -0.721452 0
M  V30 2140 H 203.448 -2.7624 -1.03804 0
M  V30 2141 H 203.529 -2.4594 0.70335 0
M  V30 2142 H 203.173 -4.95149 1.13092 0
M  V30 2143 H 203.103 -5.22848 -0.627534 0
M  V30 2144 H 205.594 -3.77871 -0.047051 0
M  V30 2145 H 205.907 -7.70985 0.529332 0
M  V30 2146 H 204.252 -6.93415 0.469109 0
M  V30 2147 H 207.443 -4.68093 0.0259748 0
M  V30 2148 H 207.616 -6.47357 0.288582 0
M  V30 2149 N 201.022 0.148545 -1.56898 0
M  V30 2150 C 202.271 0.85984 -1.82454 0
M  V30 2151 C 202.584 1.82406 -0.706229 0
M  V30 2152 O 203.79 2.57938 -0.847349 0
M  V30 2153 C 202.246 1.57967 -3.2338 0
M  V30 2154 C 201.854 0.65794 -4.43142 0
M  V30 2155 C 203.598 2.27784 -3.58211 0
M  V30 2156 C 201.505 1.3793 -5.75091 0
M  V30 2157 H 200.435 0.324834 -0.68044 0
M  V30 2158 H 203.086 0.112588 -1.83154 0
M  V30 2159 H 201.468 2.37249 -3.17063 0
M  V30 2160 H 202.642 -0.0995497 -4.60692 0
M  V30 2161 H 200.957 0.0682643 -4.16344 0
M  V30 2162 H 203.554 2.8239 -4.54048 0
M  V30 2163 H 203.897 3.04204 -2.84193 0
M  V30 2164 H 204.43 1.55421 -3.66182 0
M  V30 2165 H 201.169 0.656982 -6.52199 0
M  V30 2166 H 200.689 2.10954 -5.61479 0
M  V30 2167 H 202.368 1.92063 -6.17835 0
M  V30 2168 N 202.5 1.5196 0.417844 0
M  V30 2169 C 203.463 1.74065 1.49111 0
M  V30 2170 C 204.463 0.610537 1.48758 0
M  V30 2171 O 205.653 0.87832 1.50437 0
M  V30 2172 C 202.785 1.81502 2.88565 0
M  V30 2173 H 203.978 2.69869 1.30807 0
M  V30 2174 H 201.531 1.42244 0.647785 0
M  V30 2175 H 202.266 0.875813 3.1225 0
M  V30 2176 H 202.051 2.63651 2.90225 0
M  V30 2177 H 203.541 2.00376 3.66387 0
M  V30 2178 N 203.978 -0.674533 1.42435 0
M  V30 2179 C 205.394 -0.98769 1.25367 0
M  V30 2180 C 205.594 -2.00879 0.158044 0
M  V30 2181 O 204.65 -2.48075 -0.470633 0
M  V30 2182 C 205.963 -1.49224 2.6106 0
M  V30 2183 C 207.511 -1.61 2.68417 0
M  V30 2184 C 207.986 -2.14852 4.04478 0
M  V30 2185 N 209.477 -2.22185 4.06434 0
M  V30 2186 C 210.212 -2.64928 5.08528 0
M  V30 2187 N 209.708 -3.07121 6.21006 0
M  V30 2188 N 211.501 -2.64679 4.95885 0
M  V30 2189 H 203.652 0.00152503 2.124 0
M  V30 2190 H 205.915 -0.0618434 0.945981 0
M  V30 2191 H 205.621 -0.816453 3.42092 0
M  V30 2192 H 205.495 -2.47094 2.84999 0
M  V30 2193 H 207.882 -2.27686 1.87732 0
M  V30 2194 H 207.963 -0.616195 2.48267 0
M  V30 2195 H 207.607 -1.48775 4.85622 0
M  V30 2196 H 207.537 -3.15024 4.2198 0
M  V30 2197 H 210.028 -1.92435 3.25234 0
M  V30 2198 H 210.341 -3.38423 6.94759 0
M  V30 2199 H 208.686 -3.04978 6.24511 0
M  V30 2200 H 211.877 -2.31078 4.07088 0
M  V30 2201 H 212.05 -2.9767 5.75584 0
M  V30 2202 N 205.456 -1.28612 -0.910864 0
M  V30 2203 C 206.366 -1.14643 -2.0468 0
M  V30 2204 C 207.382 -0.0723121 -1.7385 0
M  V30 2205 O 208.558 -0.282178 -1.99413 0
M  V30 2206 C 205.623 -0.812561 -3.37044 0
M  V30 2207 C 204.684 -1.96935 -3.81465 0
M  V30 2208 C 203.917 -1.65131 -5.07511 0
M  V30 2209 O 204.14 -0.567013 -5.67575 0
M  V30 2210 O 203.074 -2.49585 -5.47714 0
M  V30 2211 H 206.9 -2.1001 -2.19384 0
M  V30 2212 H 204.485 -1.07958 -1.03274 0
M  V30 2213 H 206.367 -0.640441 -4.16505 0
M  V30 2214 H 205.042 0.111426 -3.23508 0
M  V30 2215 H 203.949 -2.19664 -3.02818 0
M  V30 2216 H 205.282 -2.87414 -3.99567 0
M  V30 2217 N 206.934 1.1197 -1.10907 0
M  V30 2218 C 208.18 1.84059 -0.865674 0
M  V30 2219 C 208.535 1.82731 0.602254 0
M  V30 2220 O 207.828 1.26543 1.43866 0
M  V30 2221 C 208.022 3.30749 -1.35425 0
M  V30 2222 C 207.851 3.46363 -2.86815 0
M  V30 2223 C 206.621 3.59712 -3.54874 0
M  V30 2224 C 208.819 3.41116 -3.84895 0
M  V30 2225 N 206.801 3.63741 -4.94536 0
M  V30 2226 C 208.172 3.51698 -5.10596 0
M  V30 2227 C 210.227 3.24612 -3.77533 0
M  V30 2228 C 208.93 3.4748 -6.29802 0
M  V30 2229 C 210.956 3.21708 -4.96244 0
M  V30 2230 C 210.318 3.32856 -6.20795 0
M  V30 2231 H 206.417 0.689015 -0.369841 0
M  V30 2232 H 209.001 1.34016 -1.41237 0
M  V30 2233 H 207.172 3.79322 -0.834814 0
M  V30 2234 H 208.904 3.90718 -1.05458 0
M  V30 2235 H 205.659 3.62038 -3.05329 0
M  V30 2236 H 206.083 3.69408 -5.67333 0
M  V30 2237 H 210.725 3.14883 -2.8215 0
M  V30 2238 H 208.443 3.55978 -7.25469 0
M  V30 2239 H 212.029 3.10113 -4.92261 0
M  V30 2240 H 210.909 3.3059 -7.11112 0
M  V30 2241 N 208.412 0.89855 1.29475 0
M  V30 2242 C 209.64 0.539261 1.99749 0
M  V30 2243 C 210.055 -0.875716 1.67262 0
M  V30 2244 O 209.412 -1.57786 0.917049 0
M  V30 2245 C 209.463 0.72061 3.54245 0
M  V30 2246 O 209.184 2.07989 3.8558 0
M  V30 2247 C 210.685 0.366118 4.41786 0
M  V30 2248 H 207.905 0.207047 0.638258 0
M  V30 2249 H 210.449 1.20758 1.65039 0
M  V30 2250 H 208.604 0.0994862 3.87272 0
M  V30 2251 H 209.018 2.10841 4.80257 0
M  V30 2252 H 210.492 0.543848 5.49314 0
M  V30 2253 H 210.969 -0.696763 4.33638 0
M  V30 2254 H 211.575 0.964135 4.14228 0
M  V30 2255 N 209.89 -1.43072 0.660911 0
M  V30 2256 C 210.822 -2.29108 -0.0647641 0
M  V30 2257 C 211.835 -1.42928 -0.779448 0
M  V30 2258 O 213.024 -1.66788 -0.635921 0
M  V30 2259 C 210.124 -3.20032 -1.11503 0
M  V30 2260 C 209.297 -4.34792 -0.476955 0
M  V30 2261 C 208.356 -5.06534 -1.42513 0
M  V30 2262 O 207.382 -5.61538 -0.930771 0
M  V30 2263 N 208.584 -5.1075 -2.75889 0
M  V30 2264 H 211.349 -2.92029 0.673731 0
M  V30 2265 H 208.91 -1.53846 0.50427 0
M  V30 2266 H 210.902 -3.64892 -1.75032 0
M  V30 2267 H 209.472 -2.58658 -1.75541 0
M  V30 2268 H 208.692 -3.92752 0.337572 0
M  V30 2269 H 209.98 -5.0879 -0.0318525 0
M  V30 2270 H 209.378 -4.67447 -3.18606 0
M  V30 2271 H 207.935 -5.59302 -3.347 0
M  V30 2272 N 211.368 -0.403325 -1.52352 0
M  V30 2273 C 212.315 0.425011 -2.26853 0
M  V30 2274 C 213.285 1.04598 -1.29029 0
M  V30 2275 O 214.47 1.07135 -1.57882 0
M  V30 2276 C 211.61 1.53888 -3.08889 0
M  V30 2277 C 210.723 0.939396 -4.21663 0
M  V30 2278 C 209.858 2.02547 -4.91068 0
M  V30 2279 C 208.897 1.40263 -5.95813 0
M  V30 2280 N 208.034 2.4286 -6.58759 0
M  V30 2281 H 212.874 -0.21674 -2.97211 0
M  V30 2282 H 210.411 -0.118722 -1.4662 0
M  V30 2283 H 212.369 2.19558 -3.54753 0
M  V30 2284 H 210.999 2.15074 -2.40714 0
M  V30 2285 H 210.051 0.171898 -3.80011 0
M  V30 2286 H 211.363 0.44436 -4.96817 0
M  V30 2287 H 210.517 2.75958 -5.40308 0
M  V30 2288 H 209.256 2.55415 -4.15469 0
M  V30 2289 H 208.261 0.653833 -5.45898 0
M  V30 2290 H 209.486 0.881719 -6.73352 0
M  V30 2291 H 207.432 2.94871 -5.85992 0
M  V30 2292 H 207.349 1.98152 -7.2957 0
M  V30 2293 H 208.617 3.15858 -7.12639 0
M  V30 2294 N 212.846 1.57033 -0.133567 0
M  V30 2295 C 214.076 1.99754 0.527429 0
M  V30 2296 C 214.484 1.01245 1.59832 0
M  V30 2297 O 213.827 -0.000645496 1.837 0
M  V30 2298 C 213.889 3.38903 1.19939 0
M  V30 2299 C 213.553 4.56174 0.274709 0
M  V30 2300 C 214.55 5.17563 -0.492398 0
M  V30 2301 C 212.235 5.01972 0.18153 0
M  V30 2302 C 214.229 6.2315 -1.34027 0
M  V30 2303 C 211.916 6.07416 -0.669958 0
M  V30 2304 C 212.914 6.67874 -1.42947 0
M  V30 2305 O 212.602 7.71279 -2.2668 0
M  V30 2306 H 212.334 0.660702 0.142999 0
M  V30 2307 H 214.888 2.04207 -0.221099 0
M  V30 2308 H 213.118 3.31248 1.99528 0
M  V30 2309 H 214.807 3.65818 1.75875 0
M  V30 2310 H 215.573 4.83087 -0.430367 0
M  V30 2311 H 211.452 4.54652 0.762422 0
M  V30 2312 H 214.996 6.70268 -1.93357 0
M  V30 2313 H 210.893 6.41321 -0.73333 0
M  V30 2314 H 211.661 7.88441 -2.1978 0
M  V30 2315 N 214.325 -0.140222 1.56975 0
M  V30 2316 C 215.288 -1.15689 1.97861 0
M  V30 2317 C 216.288 -1.3549 0.865974 0
M  V30 2318 O 217.478 -1.32367 1.13246 0
M  V30 2319 C 214.61 -2.51582 2.30042 0
M  V30 2320 H 215.803 -0.805971 2.88867 0
M  V30 2321 H 213.356 -0.383801 1.51515 0
M  V30 2322 H 214.091 -2.91632 1.41849 0
M  V30 2323 H 213.876 -2.38569 3.11171 0
M  V30 2324 H 215.366 -3.24792 2.62488 0
M  V30 2325 N 215.803 -1.52179 -0.40978 0
M  V30 2326 C 216.736 -1.70196 -1.52015 0
M  V30 2327 C 217.714 -0.549542 -1.53032 0
M  V30 2328 O 218.898 -0.776815 -1.71749 0
M  V30 2329 C 216.025 -1.74069 -2.90547 0
M  V30 2330 C 215.071 -2.95601 -3.07445 0
M  V30 2331 S 215.904 -4.55956 -2.80827 0
M  V30 2332 C 217.06 -4.62614 -4.21591 0
M  V30 2333 H 217.293 -2.64109 -1.36504 0
M  V30 2334 H 214.826 -1.4221 -0.601312 0
M  V30 2335 H 216.784 -1.76985 -3.70387 0
M  V30 2336 H 215.445 -0.812835 -3.034 0
M  V30 2337 H 214.638 -2.94791 -4.08796 0
M  V30 2338 H 214.24 -2.90569 -2.35469 0
M  V30 2339 H 216.532 -4.39951 -5.15218 0
M  V30 2340 H 217.475 -5.64548 -4.27424 0
M  V30 2341 H 217.883 -3.91654 -4.06531 0
M  V30 2342 O 217.32 0.555659 -1.5164 0
M  V30 2343 H 218.011 1.21079 -1.51194 0
M  V30 END ATOM
M  V30 BEGIN BOND
M  V30 END BOND
M  V30 END CTAB
M  END
$$$$
