drugbank_target|P20839 Inosine-5'-monophosphate dehydrogenase 1 (DB00157; DB00688; DB00811; DB01024; DB03948; DB06103; DB06408)
 OpenBabel12092119393D

  0  0  0     0  0            999 V3000
M  V30 BEGIN CTAB
M  V30 COUNTS 7829 7889 0 0 0
M  V30 BEGIN ATOM
M  V30 1 H -0.908 1.98254 -0.117106 0
M  V30 2 N 0 1.576 0 0
M  V30 3 C 0.933 2.03868 1.02534 0
M  V30 4 C 1.911 0.928543 1.3348 0
M  V30 5 O 3.095 1.19667 1.45644 0
M  V30 6 C 0.222 2.43627 2.35294 0
M  V30 7 C -0.732 3.65373 2.2001 0
M  V30 8 S 0.101 5.13292 1.52614 0
M  V30 9 C 1.257 5.56322 2.86805 0
M  V30 10 H 1.49 2.90518 0.631377 0
M  V30 11 H -0.977 1.52953 0.210867 0
M  V30 12 H 0.981 2.67203 3.11629 0
M  V30 13 H -0.358 1.57376 2.7183 0
M  V30 14 H -1.165 3.90944 3.18086 0
M  V30 15 H -1.563 3.418 1.51819 0
M  V30 16 H 0.729 5.58782 3.83104 0
M  V30 17 H 1.672 6.56266 2.65933 0
M  V30 18 H 2.08 4.83886 2.90714 0
M  V30 19 N 1.4781 -0.272755 1.55222 0
M  V30 20 C 2.4411 -1.32041 1.87344 0
M  V30 21 C 3.4411 -1.42342 0.74803 0
M  V30 22 O 4.6311 -1.41488 1.0162 0
M  V30 23 C 1.7631 -2.70173 2.07893 0
M  V30 24 H 2.9561 -1.04789 2.80997 0
M  V30 25 H 0.5091 -0.51083 1.47717 0
M  V30 26 H 1.2441 -3.02605 1.16622 0
M  V30 27 H 1.0291 -2.64082 2.89833 0
M  V30 28 H 2.5191 -3.45869 2.34017 0
M  V30 29 N 2.9562 -1.48159 -0.537278 0
M  V30 30 C 4.2332 -1.46291 -1.29839 0
M  V30 31 C 4.6132 -0.170613 -2.10409 0
M  V30 32 O 3.9612 0.847746 -2.12192 0
M  V30 33 C 4.1712 -2.72055 -2.18603 0
M  V30 34 C 5.5192 -3.20087 -2.7898 0
M  V30 35 O 6.5432 -2.72921 -2.28894 0
M  V30 36 O 5.4022 -4.02138 -3.70064 0
M  V30 37 H 2.4962 -0.583906 -0.585647 0
M  V30 38 H 5.0422 -1.60384 -0.554534 0
M  V30 39 H 3.8142 -3.57628 -1.58801 0
M  V30 40 H 3.4372 -2.60646 -3.00249 0
M  V30 41 N 4.4343 0.785586 -1.36625 0
M  V30 42 C 5.6643 1.5722 -1.34036 0
M  V30 43 C 6.0723 1.89033 0.0795062 0
M  V30 44 O 5.4153 1.50881 1.04789 0
M  V30 45 C 5.4773 2.91759 -2.10041 0
M  V30 46 C 5.1413 2.82654 -3.59104 0
M  V30 47 C 6.1383 2.54634 -4.53274 0
M  V30 48 C 3.8233 3.01111 -4.02042 0
M  V30 49 C 5.8173 2.45177 -5.88359 0
M  V30 50 C 3.5043 2.91276 -5.37216 0
M  V30 51 C 4.5023 2.63348 -6.30188 0
M  V30 52 O 4.1903 2.53514 -7.6288 0
M  V30 53 H 3.9223 0.494177 -0.461265 0
M  V30 54 H 6.4763 0.982632 -1.8037 0
M  V30 55 H 4.7063 3.52781 -1.58375 0
M  V30 56 H 6.3953 3.53059 -2.00261 0
M  V30 57 H 7.1613 2.40073 -4.21414 0
M  V30 58 H 3.0403 3.21854 -3.30047 0
M  V30 59 H 6.5843 2.23299 -6.60896 0
M  V30 60 H 2.4813 3.054 -5.68684 0
M  V30 61 H 3.2493 2.68967 -7.73045 0
M  V30 62 N 5.9124 1.20967 1.01018 0
M  V30 63 C 6.8424 0.988272 2.11555 0
M  V30 64 C 7.8234 -0.0849778 1.69888 0
M  V30 65 O 9.0084 0.0738202 1.9406 0
M  V30 66 C 6.1384 0.546528 3.42973 0
M  V30 67 C 5.0924 1.56375 3.9841 0
M  V30 68 C 4.4184 0.97842 5.25672 0
M  V30 69 C 5.7184 2.94922 4.31066 0
M  V30 70 H 7.4124 1.91276 2.30334 0
M  V30 71 H 4.9584 0.921073 1.1069 0
M  V30 72 H 6.9114 0.378839 4.19694 0
M  V30 73 H 5.6354 -0.413598 3.23971 0
M  V30 74 H 4.2944 1.71891 3.23804 0
M  V30 75 H 3.9424 0.0101688 5.02999 0
M  V30 76 H 3.6424 1.65784 5.63728 0
M  V30 77 H 5.1664 0.821939 6.05043 0
M  V30 78 H 6.5804 2.8288 4.9865 0
M  V30 79 H 4.9774 3.5983 4.80253 0
M  V30 80 H 6.0474 3.4616 3.39561 0
M  V30 81 N 7.3905 -1.2043 1.01659 0
M  V30 82 C 8.6395 -1.89118 0.701237 0
M  V30 83 C 8.9525 -1.79705 -0.772358 0
M  V30 84 O 10.1585 -2.43528 -1.20026 0
M  V30 85 C 8.6145 -3.39168 1.20388 0
M  V30 86 C 8.2225 -3.57166 2.70438 0
M  V30 87 C 9.9665 -4.1341 0.963953 0
M  V30 88 C 7.8735 -5.01042 3.14183 0
M  V30 89 H 6.8035 -0.708267 0.2586 0
M  V30 90 H 9.4545 -1.36239 1.22927 0
M  V30 91 H 7.8365 -3.91369 0.603824 0
M  V30 92 H 9.0105 -3.15351 3.35992 0
M  V30 93 H 7.3255 -2.96294 2.92572 0
M  V30 94 H 9.9225 -5.19491 1.26621 0
M  V30 95 H 10.2655 -4.16181 -0.099578 0
M  V30 96 H 10.7985 -3.67309 1.52738 0
M  V30 97 H 7.5375 -5.03426 4.19812 0
M  V30 98 H 7.0575 -5.43668 2.53348 0
M  V30 99 H 8.7365 -5.69623 3.0682 0
M  V30 100 N 8.8686 -0.792821 -1.36206 0
M  V30 101 C 10.0936 -0.377701 -2.03932 0
M  V30 102 C 10.5186 0.998947 -1.59382 0
M  V30 103 O 9.8766 1.64421 -0.763903 0
M  V30 104 C 9.9246 -0.453635 -3.57735 0
M  V30 105 O 9.0286 0.538151 -4.08874 0
M  V30 106 H 8.3696 -0.159855 -0.644471 0
M  V30 107 H 10.8996 -1.07488 -1.7409 0
M  V30 108 H 10.9096 -0.318464 -4.06755 0
M  V30 109 H 9.5846 -1.45784 -3.89512 0
M  V30 110 H 8.1616 0.364359 -3.71116 0
M  V30 111 N 10.3467 1.47872 -0.545128 0
M  V30 112 C 11.5947 2.02093 -0.016553 0
M  V30 113 C 11.9157 1.42305 1.3332 0
M  V30 114 O 11.1857 0.593853 1.86682 0
M  V30 115 H 9.7657 0.746993 -0.00313038 0
M  V30 116 H 12.4277 1.81414 -0.712397 0
M  V30 117 H 11.5237 3.11996 0.0805422 0
M  V30 118 N 11.8248 0.280983 1.55075 0
M  V30 119 C 13.0728 -0.333455 1.9933 0
M  V30 120 C 13.3938 -1.55937 1.17085 0
M  V30 121 O 12.6638 -1.94143 0.261805 0
M  V30 122 H 11.2438 -0.126197 0.736263 0
M  V30 123 H 13.9058 0.387678 1.91005 0
M  V30 124 H 13.0018 -0.619292 3.05894 0
M  V30 125 N 13.3029 -1.57598 0.00835791 0
M  V30 126 C 14.5309 -1.95214 -0.68549 0
M  V30 127 C 14.9459 -0.883706 -1.66841 0
M  V30 128 O 14.3029 0.136565 -1.81988 0
M  V30 129 C 14.3539 -3.32865 -1.41007 0
M  V30 130 O 14.0749 -4.35609 -0.466552 0
M  V30 131 C 15.5759 -3.84991 -2.19765 0
M  V30 132 H 12.7959 -0.643422 -0.190392 0
M  V30 133 H 15.3399 -2.04406 0.0619607 0
M  V30 134 H 13.4949 -3.24956 -2.10908 0
M  V30 135 H 13.9089 -5.15288 -0.978699 0
M  V30 136 H 15.3829 -4.8371 -2.65948 0
M  V30 137 H 15.8599 -3.18137 -3.02796 0
M  V30 138 H 16.4659 -3.96103 -1.54864 0
M  V30 139 N 14.781 0.264519 -1.55364 0
M  V30 140 C 16.029 0.993021 -1.76021 0
M  V30 141 C 16.35 1.86511 -0.569099 0
M  V30 142 O 15.62 1.91438 0.415735 0
M  V30 143 H 14.2 0.369639 -0.649135 0
M  V30 144 H 16.862 0.286707 -1.9278 0
M  V30 145 H 15.958 1.62502 -2.66457 0
M  V30 146 N 16.2591 1.48442 0.529413 0
M  V30 147 C 17.4891 1.59919 1.30804 0
M  V30 148 C 17.8971 0.258792 1.87422 0
M  V30 149 O 17.2401 -0.762096 1.67146 0
M  V30 150 C 17.3021 2.58693 2.49636 0
M  V30 151 C 16.9661 4.03745 2.14101 0
M  V30 152 C 17.9631 4.9141 1.6974 0
M  V30 153 C 15.6481 4.49285 2.24607 0
M  V30 154 C 17.6421 6.22645 1.36351 0
M  V30 155 C 15.3291 5.8054 1.9083 0
M  V30 156 C 16.3271 6.67043 1.46773 0
M  V30 157 O 16.0151 7.95856 1.1344 0
M  V30 158 H 15.7471 0.541981 0.404021 0
M  V30 159 H 18.3011 1.95 0.645309 0
M  V30 160 H 16.5311 2.18734 3.18892 0
M  V30 161 H 18.2201 2.59999 3.11698 0
M  V30 162 H 18.9861 4.57465 1.61094 0
M  V30 163 H 14.8651 3.82142 2.57854 0
M  V30 164 H 18.4091 6.90119 1.01891 0
M  V30 165 H 14.3061 6.14022 1.99117 0
M  V30 166 H 15.0741 8.08613 1.26832 0
M  V30 167 N 17.7372 -0.778329 1.37039 0
M  V30 168 C 18.9832 -1.53892 1.32079 0
M  V30 169 C 19.3162 -1.9396 -0.0965386 0
M  V30 170 O 18.5912 -1.63568 -1.05242 0
M  V30 171 C 18.8742 -2.80847 2.25382 0
M  V30 172 C 18.7272 -2.47076 3.75864 0
M  V30 173 C 20.0462 -3.82741 2.1725 0
M  V30 174 H 17.1652 -0.558303 0.48111 0
M  V30 175 H 19.8072 -0.893397 1.67685 0
M  V30 176 H 17.9572 -3.35931 1.95148 0
M  V30 177 H 19.6292 -1.97957 4.16666 0
M  V30 178 H 17.8722 -1.79863 3.94755 0
M  V30 179 H 18.5432 -3.37798 4.36574 0
M  V30 180 H 21.0192 -3.37133 2.43887 0
M  V30 181 H 19.8952 -4.69303 2.84686 0
M  V30 182 H 20.1562 -4.2652 1.16331 0
M  V30 183 N 19.2153 -1.21501 -1.00376 0
M  V30 184 C 20.6263 -1.03146 -1.55621 0
M  V30 185 C 20.9773 0.408375 -1.91903 0
M  V30 186 O 20.1023 1.29177 -1.73616 0
M  V30 187 C 20.6973 -1.86612 -2.82775 0
M  V30 188 C 19.2563 -1.72586 -3.34501 0
M  V30 189 C 18.4033 -1.83747 -2.07683 0
M  V30 190 H 21.3543 -1.35505 -0.826081 0
M  V30 191 H 21.3753 -1.3771 -3.54706 0
M  V30 192 H 20.8873 -2.91399 -2.56336 0
M  V30 193 H 18.9883 -0.704877 -3.65872 0
M  V30 194 H 19.1013 -2.54623 -4.05837 0
M  V30 195 H 17.4653 -1.27069 -2.20739 0
M  V30 196 H 18.2483 -2.90044 -1.83655 0
M  V30 197 N 20.6934 1.19889 -1.02296 0
M  V30 198 C 21.6034 2.26571 -0.608508 0
M  V30 199 C 22.6194 1.70299 0.356964 0
M  V30 200 O 23.7954 2.00235 0.216326 0
M  V30 201 C 20.8604 3.46677 0.0402814 0
M  V30 202 C 19.9214 4.18153 -0.97194 0
M  V30 203 C 19.1544 5.32525 -0.354016 0
M  V30 204 O 19.3774 5.64112 0.844604 0
M  V30 205 O 18.3114 5.92242 -1.07391 0
M  V30 206 H 22.1374 2.64251 -1.49684 0
M  V30 207 H 19.7224 1.26629 -0.792809 0
M  V30 208 H 21.6044 4.19475 0.402324 0
M  V30 209 H 20.2794 3.10858 0.902707 0
M  V30 210 H 19.1864 3.47499 -1.38546 0
M  V30 211 H 20.5194 4.57927 -1.80454 0
M  V30 212 N 22.1715 0.800033 1.35784 0
M  V30 213 C 23.4485 0.30088 1.93272 0
M  V30 214 C 23.8285 -1.20857 1.73081 0
M  V30 215 O 23.1765 -2.00502 1.09596 0
M  V30 216 C 23.3865 0.70511 3.41803 0
M  V30 217 C 24.7345 0.690871 4.18942 0
M  V30 218 O 25.7585 0.646244 3.50289 0
M  V30 219 O 24.6175 0.74332 5.41421 0
M  V30 220 H 21.7115 0.0771605 0.823393 0
M  V30 221 H 24.2575 0.88329 1.449 0
M  V30 222 H 23.0295 1.74571 3.50201 0
M  V30 223 H 22.6525 0.0971541 3.97481 0
M  V30 224 N 23.6496 -1.47581 0.552962 0
M  V30 225 C 24.8976 -2.02082 0.0272703 0
M  V30 226 C 25.2186 -1.4301 -1.32563 0
M  V30 227 O 24.4886 -0.603745 -1.86365 0
M  V30 228 H 23.0686 -0.746966 0.00709182 0
M  V30 229 H 25.7306 -1.81033 0.722008 0
M  V30 230 H 24.8266 -3.12034 -0.0639951 0
M  V30 231 N 25.1277 -0.289203 -1.54924 0
M  V30 232 C 26.0577 0.58549 -2.2604 0
M  V30 233 C 27.0387 1.14753 -1.25562 0
M  V30 234 O 28.2237 1.17906 -1.54311 0
M  V30 235 C 25.3537 1.76305 -2.99222 0
M  V30 236 C 24.3077 1.33191 -4.06748 0
M  V30 237 C 23.6337 2.5937 -4.6758 0
M  V30 238 C 24.9337 0.471775 -5.20165 0
M  V30 239 H 26.6277 -0.00763532 -2.99399 0
M  V30 240 H 24.1737 -0.00511229 -1.43999 0
M  V30 241 H 26.1267 2.38097 -3.47689 0
M  V30 242 H 24.8507 2.38223 -2.23422 0
M  V30 243 H 23.5097 0.737121 -3.59113 0
M  V30 244 H 23.1577 3.19576 -3.88433 0
M  V30 245 H 22.8577 2.31228 -5.40192 0
M  V30 246 H 24.3817 3.21985 -5.18804 0
M  V30 247 H 25.7957 0.995056 -5.64599 0
M  V30 248 H 24.1927 0.284639 -5.99425 0
M  V30 249 H 25.2627 -0.506041 -4.82252 0
M  V30 250 N 26.6058 1.57591 -0.0167156 0
M  V30 251 C 27.8338 1.95575 0.675128 0
M  V30 252 C 28.2488 0.892542 1.6637 0
M  V30 253 O 27.6058 -0.126912 1.82058 0
M  V30 254 C 27.6568 3.33608 1.39239 0
M  V30 255 O 27.3778 4.3585 0.443444 0
M  V30 256 C 28.8788 3.86151 2.17721 0
M  V30 257 H 26.0988 0.644423 0.186978 0
M  V30 258 H 28.6428 2.0437 -0.0728 0
M  V30 259 H 26.7978 3.2607 2.09182 0
M  V30 260 H 27.2118 5.158 0.951358 0
M  V30 261 H 28.6858 4.85114 2.63379 0
M  V30 262 H 29.1628 3.19738 3.01105 0
M  V30 263 H 29.7688 3.96918 1.52761 0
M  V30 264 N 28.0839 -0.256276 1.55502 0
M  V30 265 C 29.0469 -1.30047 1.88734 0
M  V30 266 C 30.0469 -1.4154 0.763086 0
M  V30 267 O 31.2369 -1.40403 1.03115 0
M  V30 268 C 28.3689 -2.67953 2.10747 0
M  V30 269 H 29.5619 -1.01802 2.82093 0
M  V30 270 H 27.1149 -0.495134 1.4825 0
M  V30 271 H 27.8499 -3.01351 1.19825 0
M  V30 272 H 27.6349 -2.60993 2.92617 0
M  V30 273 H 29.1249 -3.43368 2.37673 0
M  V30 274 N 29.562 -1.4872 -0.521534 0
M  V30 275 C 30.494 -1.59968 -1.64143 0
M  V30 276 C 31.507 -0.483463 -1.55456 0
M  V30 277 O 32.696 -0.75467 -1.61762 0
M  V30 278 C 29.796 -1.52127 -3.02838 0
M  V30 279 C 28.969 -2.78932 -3.36921 0
M  V30 280 C 28.028 -2.64428 -4.54933 0
M  V30 281 O 27.054 -3.38331 -4.57735 0
M  V30 282 N 28.256 -1.74606 -5.53618 0
M  V30 283 H 31.021 -2.56548 -1.54929 0
M  V30 284 H 28.582 -1.45551 -0.708988 0
M  V30 285 H 30.574 -1.40106 -3.79674 0
M  V30 286 H 29.144 -0.634868 -3.06085 0
M  V30 287 H 28.364 -3.05455 -2.4918 0
M  V30 288 H 29.652 -3.63041 -3.56481 0
M  V30 289 H 29.05 -1.13782 -5.54139 0
M  V30 290 H 27.607 -1.6852 -6.29638 0
M  V30 291 N 31.0401 0.771051 -1.3745 0
M  V30 292 C 31.9721 1.89352 -1.29146 0
M  V30 293 C 32.9851 1.61477 -0.207124 0
M  V30 294 O 34.1741 1.72382 -0.463324 0
M  V30 295 C 31.2741 3.24596 -0.974195 0
M  V30 296 C 30.4471 3.80111 -2.16413 0
M  V30 297 C 29.5061 4.93832 -1.81703 0
M  V30 298 O 28.5321 5.09382 -2.54006 0
M  V30 299 N 29.7341 5.75483 -0.761573 0
M  V30 300 H 32.4991 1.96991 -2.25864 0
M  V30 301 H 30.0601 0.950191 -1.31084 0
M  V30 302 H 32.0521 3.98193 -0.722828 0
M  V30 303 H 30.6221 3.12454 -0.0955527 0
M  V30 304 H 29.8421 2.98284 -2.57721 0
M  V30 305 H 31.1301 4.13932 -2.95867 0
M  V30 306 H 30.5281 5.65469 -0.161609 0
M  V30 307 H 29.0851 6.49302 -0.570064 0
M  V30 308 N 32.5182 1.22032 0.997298 0
M  V30 309 C 33.4482 1.01065 2.10495 0
M  V30 310 C 34.4292 -0.0669542 1.69968 0
M  V30 311 O 35.6142 0.0943987 1.9397 0
M  V30 312 C 32.7442 0.582874 3.42374 0
M  V30 313 C 31.6982 1.60592 3.96729 0
M  V30 314 C 31.0242 1.03412 5.24605 0
M  V30 315 C 32.3242 2.99478 4.27914 0
M  V30 316 H 34.0182 1.93708 2.28292 0
M  V30 317 H 31.5642 0.932761 1.09707 0
M  V30 318 H 33.5172 0.423332 4.19268 0
M  V30 319 H 32.2412 -0.379213 3.24391 0
M  V30 320 H 30.9002 1.75316 3.21963 0
M  V30 321 H 30.5482 0.063518 5.0296 0
M  V30 322 H 30.2482 1.71754 5.61938 0
M  V30 323 H 31.7722 0.886066 6.04137 0
M  V30 324 H 33.1862 2.88153 4.95622 0
M  V30 325 H 31.5832 3.64903 4.76409 0
M  V30 326 H 32.6532 3.49742 3.3587 0
M  V30 327 N 33.9963 -1.19345 1.0293 0
M  V30 328 C 35.2433 -1.89038 0.726008 0
M  V30 329 C 35.5713 -1.79649 -0.745427 0
M  V30 330 O 34.8263 -1.18354 -1.55855 0
M  V30 331 C 35.1253 -3.39292 1.12319 0
M  V30 332 C 34.7913 -3.68885 2.59297 0
M  V30 333 C 33.4533 -3.76671 2.99453 0
M  V30 334 C 35.8053 -3.82178 3.54386 0
M  V30 335 C 33.1333 -3.9522 4.33611 0
M  V30 336 C 35.4853 -4.0224 4.88248 0
M  V30 337 C 34.1493 -4.08259 5.28092 0
M  V30 338 H 33.4193 -0.691739 0.265665 0
M  V30 339 H 36.0663 -1.41328 1.29223 0
M  V30 340 H 34.3713 -3.88903 0.475584 0
M  V30 341 H 36.0683 -3.91536 0.866037 0
M  V30 342 H 32.6583 -3.63433 2.27189 0
M  V30 343 H 36.8423 -3.75505 3.24514 0
M  V30 344 H 32.0983 -3.98119 4.64016 0
M  V30 345 H 36.2723 -4.11468 5.61843 0
M  V30 346 H 33.8993 -4.22384 6.32057 0
M  V30 347 N 35.4744 -0.807222 -1.35358 0
M  V30 348 C 36.4374 -0.223665 -2.28106 0
M  V30 349 C 37.4374 0.589354 -1.4961 0
M  V30 350 O 38.6274 0.407745 -1.69361 0
M  V30 351 C 35.7594 0.688149 -3.33882 0
M  V30 352 H 36.9524 -1.04169 -2.81227 0
M  V30 353 H 34.5054 -0.577921 -1.45223 0
M  V30 354 H 35.2404 1.52984 -2.85948 0
M  V30 355 H 35.0254 0.10687 -3.91954 0
M  V30 356 H 36.5154 1.09075 -4.03104 0
M  V30 357 N 36.9525 1.47285 -0.560781 0
M  V30 358 C 38.1775 2.07359 -0.0410566 0
M  V30 359 C 38.6025 1.41017 1.24483 0
M  V30 360 O 37.9605 0.486368 1.74654 0
M  V30 361 C 38.0085 3.6035 0.134123 0
M  V30 362 O 37.1125 3.94681 1.19587 0
M  V30 363 H 36.4535 0.661887 -0.0529291 0
M  V30 364 H 38.9835 1.89252 -0.777482 0
M  V30 365 H 38.9935 4.0652 0.347207 0
M  V30 366 H 37.6685 4.08034 -0.805047 0
M  V30 367 H 36.2455 3.60251 0.962987 0
M  V30 368 N 38.4306 0.297415 1.54768 0
M  V30 369 C 39.3936 -0.567375 2.22066 0
M  V30 370 C 40.3936 -1.06409 1.20556 0
M  V30 371 O 41.5836 -0.960691 1.45315 0
M  V30 372 C 38.7156 -1.78517 2.90421 0
M  V30 373 H 39.9086 0.0205534 2.99893 0
M  V30 374 H 37.4616 0.0482163 1.56226 0
M  V30 375 H 38.1966 -2.41303 2.16664 0
M  V30 376 H 37.9816 -1.43669 3.64831 0
M  V30 377 H 39.4716 -2.39964 3.41771 0
M  V30 378 N 39.9087 -1.5758 0.0250728 0
M  V30 379 C 41.1857 -1.82917 -0.692873 0
M  V30 380 C 41.5657 -0.908137 -1.90568 0
M  V30 381 O 40.9137 0.0372298 -2.2847 0
M  V30 382 C 41.1237 -3.32034 -1.07492 0
M  V30 383 C 42.4717 -3.98406 -1.46826 0
M  V30 384 O 43.4957 -3.36505 -1.16801 0
M  V30 385 O 42.3547 -5.07497 -2.02754 0
M  V30 386 H 39.4487 -0.754079 -0.33955 0
M  V30 387 H 41.9947 -1.69619 0.0524456 0
M  V30 388 H 40.7667 -3.90728 -0.211552 0
M  V30 389 H 40.3897 -3.50424 -1.87854 0
M  V30 390 N 41.3868 0.248026 -1.55636 0
M  V30 391 C 42.6348 0.974295 -1.77065 0
M  V30 392 C 42.9558 1.85897 -0.588849 0
M  V30 393 O 42.2258 1.91868 0.395407 0
M  V30 394 H 40.8058 0.362733 -0.653019 0
M  V30 395 H 43.4678 0.266244 -1.93073 0
M  V30 396 H 42.5638 1.59667 -2.68166 0
M  V30 397 N 42.8649 1.48995 0.513639 0
M  V30 398 C 43.7949 1.67636 1.62544 0
M  V30 399 C 44.7759 0.525087 1.61793 0
M  V30 400 O 45.9609 0.759502 1.78732 0
M  V30 401 C 43.0909 1.73114 3.01079 0
M  V30 402 C 42.0449 2.87905 3.16693 0
M  V30 403 C 41.3709 2.78486 4.56453 0
M  V30 404 C 42.6709 4.29005 2.97913 0
M  V30 405 H 44.3649 2.60716 1.47198 0
M  V30 406 H 41.9109 1.25465 0.706714 0
M  V30 407 H 43.8639 1.84742 3.78746 0
M  V30 408 H 42.5879 0.766241 3.17484 0
M  V30 409 H 41.2469 2.75859 2.41448 0
M  V30 410 H 40.8949 1.7993 4.69717 0
M  V30 411 H 40.5949 3.55523 4.67843 0
M  V30 412 H 42.1189 2.92104 5.36197 0
M  V30 413 H 43.5329 4.41798 3.65359 0
M  V30 414 H 41.9299 5.07166 3.20785 0
M  V30 415 H 42.9999 4.44329 1.94165 0
M  V30 416 N 44.343 -0.763751 1.37857 0
M  V30 417 C 45.571 -1.55293 1.36718 0
M  V30 418 C 45.986 -1.88745 -0.0455434 0
M  V30 419 O 45.343 -1.52039 -1.00947 0
M  V30 420 C 45.394 -2.85831 2.2132 0
M  V30 421 O 45.115 -2.5381 3.57089 0
M  V30 422 C 46.616 -3.80023 2.28249 0
M  V30 423 H 43.836 -0.480841 0.468009 0
M  V30 424 H 46.38 -0.946009 1.81303 0
M  V30 425 H 44.535 -3.42926 1.80223 0
M  V30 426 H 44.949 -3.37459 4.01524 0
M  V30 427 H 46.423 -4.68599 2.91752 0
M  V30 428 H 46.9 -4.1973 1.2932 0
M  V30 429 H 47.506 -3.28855 2.69693 0
M  V30 430 N 45.8211 -1.22559 -0.990812 0
M  V30 431 C 47.0511 -1.07623 -1.76355 0
M  V30 432 C 47.4591 0.37601 -1.85426 0
M  V30 433 O 46.8021 1.27228 -1.32509 0
M  V30 434 C 46.8641 -1.61507 -3.21179 0
M  V30 435 C 46.5281 -3.10146 -3.35646 0
M  V30 436 C 47.5251 -4.07553 -3.22796 0
M  V30 437 C 45.2101 -3.49644 -3.60631 0
M  V30 438 C 47.2041 -5.42442 -3.34716 0
M  V30 439 C 44.8911 -4.84682 -3.72192 0
M  V30 440 C 45.8891 -5.8089 -3.59243 0
M  V30 441 O 45.5771 -7.13476 -3.70415 0
M  V30 442 H 45.3091 -0.377745 -0.560611 0
M  V30 443 H 47.8631 -1.62658 -1.25425 0
M  V30 444 H 46.0931 -1.00881 -3.73309 0
M  V30 445 H 47.7821 -1.42202 -3.80175 0
M  V30 446 H 48.5481 -3.78381 -3.03403 0
M  V30 447 H 44.4271 -2.75282 -3.69785 0
M  V30 448 H 47.9711 -6.17518 -3.24526 0
M  V30 449 H 43.8681 -5.13534 -3.91092 0
M  V30 450 H 44.6361 -7.21083 -3.87275 0
M  V30 451 N 47.2992 1.18797 -1.03562 0
M  V30 452 C 48.2472 2.24297 -0.615905 0
M  V30 453 C 49.2412 1.65643 0.354808 0
M  V30 454 O 50.4472 1.78618 0.22265 0
M  V30 455 H 46.8222 0.729909 -0.180934 0
M  V30 456 H 48.7932 2.5701 -1.5162 0
M  V30 457 C 47.5422 3.47698 0.0104735 0
M  V30 458 H 46.8652 3.93125 -0.727509 0
M  V30 459 H 48.3052 4.23159 0.266995 0
M  V30 460 C 46.7642 3.12489 1.25905 0
M  V30 461 O 47.2942 3.25761 2.35038 0
M  V30 462 N 45.5002 2.6686 1.15039 0
M  V30 463 H 45.0472 2.56261 0.262328 0
M  V30 464 H 45.0052 2.43674 1.98672 0
M  V30 465 N 48.7773 0.814389 1.34928 0
M  V30 466 C 50.0543 0.321363 1.92942 0
M  V30 467 C 50.4343 -1.19014 1.74353 0
M  V30 468 O 49.7823 -1.99328 1.11716 0
M  V30 469 C 49.9923 0.741323 3.41036 0
M  V30 470 C 51.3403 0.735266 4.18185 0
M  V30 471 O 52.3643 0.68336 3.49584 0
M  V30 472 O 51.2233 0.800703 5.40602 0
M  V30 473 H 48.3173 0.0858893 0.822528 0
M  V30 474 H 50.8633 0.898609 1.43955 0
M  V30 475 H 49.6353 1.78276 3.4833 0
M  V30 476 H 49.2583 0.139307 3.97356 0
M  V30 477 N 50.2554 -1.46986 0.568584 0
M  V30 478 C 51.5024 -2.02441 0.0487986 0
M  V30 479 C 51.8304 -1.44169 -1.30559 0
M  V30 480 O 51.0854 -0.591213 -1.86556 0
M  V30 481 C 51.3844 -3.57306 -0.081836 0
M  V30 482 C 51.0504 -4.34552 1.20313 0
M  V30 483 C 49.7124 -4.55376 1.5552 0
M  V30 484 C 52.0644 -4.79016 2.05411 0
M  V30 485 C 49.3924 -5.17913 2.7565 0
M  V30 486 C 51.7444 -5.42879 3.24754 0
M  V30 487 C 50.4084 -5.61933 3.60261 0
M  V30 488 H 49.6784 -0.740785 0.0178567 0
M  V30 489 H 52.3254 -1.76525 0.742384 0
M  V30 490 H 50.6304 -3.8228 -0.858463 0
M  V30 491 H 52.3274 -3.97876 -0.499546 0
M  V30 492 H 48.9174 -4.18631 0.919014 0
M  V30 493 H 53.1014 -4.62696 1.79516 0
M  V30 494 H 48.3574 -5.30858 3.03315 0
M  V30 495 H 52.5314 -5.76293 3.90973 0
M  V30 496 H 50.1584 -6.10161 4.53439 0
M  V30 497 N 51.7335 -0.305618 -1.54608 0
M  V30 498 C 52.6635 0.561482 -2.26649 0
M  V30 499 C 53.6445 1.13415 -1.26772 0
M  V30 500 O 54.8295 1.16262 -1.55553 0
M  V30 501 C 51.9595 1.73122 -3.01075 0
M  V30 502 C 50.9135 1.2887 -4.08138 0
M  V30 503 C 50.2395 2.54396 -4.70305 0
M  V30 504 C 51.5395 0.416578 -5.20636 0
M  V30 505 H 53.2335 -0.0393902 -2.99374 0
M  V30 506 H 50.7795 -0.020385 -1.43986 0
M  V30 507 H 52.7325 2.34396 -3.50195 0
M  V30 508 H 51.4565 2.3584 -2.25936 0
M  V30 509 H 50.1155 0.698991 -3.59875 0
M  V30 510 H 49.7635 3.15439 -3.918 0
M  V30 511 H 49.4635 2.25486 -5.42614 0
M  V30 512 H 50.9875 3.16464 -5.2219 0
M  V30 513 H 52.4015 0.935116 -5.65622 0
M  V30 514 H 50.7985 0.221046 -5.99693 0
M  V30 515 H 51.8685 -0.557162 -4.81688 0
M  V30 516 N 53.2116 1.57565 -0.0334293 0
M  V30 517 C 54.4606 1.91155 0.643639 0
M  V30 518 C 54.7736 0.91192 1.73042 0
M  V30 519 O 55.9796 1.13923 2.46442 0
M  V30 520 C 54.4356 3.39443 1.1961 0
M  V30 521 C 54.0436 4.47774 0.142381 0
M  V30 522 C 55.7876 3.82094 1.84944 0
M  V30 523 C 53.6946 5.87162 0.706727 0
M  V30 524 H 52.6246 0.713368 0.244176 0
M  V30 525 H 55.2756 1.8323 -0.0994323 0
M  V30 526 H 53.6576 3.42313 1.99092 0
M  V30 527 H 54.8316 4.56469 -0.630296 0
M  V30 528 H 53.1466 4.14352 -0.412446 0
M  V30 529 H 55.7436 4.83591 2.2813 0
M  V30 530 H 56.0866 3.17386 2.69392 0
M  V30 531 H 56.6196 3.81665 1.12145 0
M  V30 532 H 53.3586 6.55424 -0.0997178 0
M  V30 533 H 52.8786 5.82064 1.44779 0
M  V30 534 H 54.5576 6.35866 1.19514 0
M  V30 535 N 54.6897 -0.239769 1.55765 0
M  V30 536 C 55.6197 -1.30052 1.9393 0
M  V30 537 C 56.6007 -1.49839 0.805132 0
M  V30 538 O 57.7857 -1.62328 1.06599 0
M  V30 539 C 54.9157 -2.65391 2.2402 0
M  V30 540 C 53.8697 -2.60289 3.39755 0
M  V30 541 C 53.1957 -3.99489 3.55405 0
M  V30 542 C 54.4957 -2.16654 4.75246 0
M  V30 543 H 56.1897 -0.983573 2.82783 0
M  V30 544 H 53.7357 -0.471701 1.36055 0
M  V30 545 H 55.6887 -3.3974 2.49308 0
M  V30 546 H 54.4127 -2.98736 1.32 0
M  V30 547 H 53.0717 -1.88398 3.14487 0
M  V30 548 H 52.7197 -4.30112 2.60793 0
M  V30 549 H 52.4197 -3.96962 4.33238 0
M  V30 550 H 53.9437 -4.75528 3.83022 0
M  V30 551 H 55.3577 -2.80737 4.99859 0
M  V30 552 H 53.7547 -2.25223 5.56232 0
M  V30 553 H 54.8247 -1.11835 4.71827 0
M  V30 554 N 56.1678 -1.49265 -0.50573 0
M  V30 555 C 57.5788 -1.51769 -1.08734 0
M  V30 556 C 57.9298 -0.301192 -1.93874 0
M  V30 557 O 57.0548 0.589456 -2.08217 0
M  V30 558 C 57.6498 -2.75017 -1.97867 0
M  V30 559 C 56.2088 -2.80314 -2.51199 0
M  V30 560 C 55.3558 -2.4562 -1.28709 0
M  V30 561 H 58.3068 -1.56031 -0.289855 0
M  V30 562 H 58.3278 -2.5491 -2.82491 0
M  V30 563 H 57.8398 -3.63539 -1.35873 0
M  V30 564 H 55.9408 -1.96061 -3.16845 0
M  V30 565 H 56.0538 -3.82366 -2.88675 0
M  V30 566 H 54.4178 -1.97297 -1.61078 0
M  V30 567 H 55.2008 -3.36411 -0.6843 0
M  V30 568 N 57.6459 0.756429 -1.3826 0
M  V30 569 C 58.8939 1.51248 -1.34047 0
M  V30 570 C 59.2149 1.94875 0.0698372 0
M  V30 571 O 58.4849 1.67436 1.01696 0
M  V30 572 H 57.0649 0.561018 -0.493222 0
M  V30 573 H 59.7269 0.899347 -1.7291 0
M  V30 574 H 58.8229 2.40472 -1.98947 0
M  V30 575 N 59.124 1.23083 0.984299 0
M  V30 576 C 60.371 1.06057 1.72505 0
M  V30 577 C 60.699 -0.403105 1.90277 0
M  V30 578 O 59.954 -1.3149 1.44944 0
M  V30 579 C 60.253 1.72673 3.1292 0
M  V30 580 C 59.919 3.22586 3.15038 0
M  V30 581 C 58.581 3.63489 3.15324 0
M  V30 582 C 60.933 4.185 3.10657 0
M  V30 583 C 58.261 4.98772 3.08939 0
M  V30 584 C 60.613 5.53769 3.05814 0
M  V30 585 C 59.277 5.94041 3.04419 0
M  V30 586 H 58.547 0.388091 0.631242 0
M  V30 587 H 61.194 1.52963 1.15215 0
M  V30 588 H 59.499 1.18116 3.73572 0
M  V30 589 H 61.196 1.56982 3.68996 0
M  V30 590 H 57.786 2.90022 3.15571 0
M  V30 591 H 61.97 3.87911 3.09579 0
M  V30 592 H 57.226 5.29193 3.0621 0
M  V30 593 H 61.4 6.27808 3.0138 0
M  V30 594 H 59.027 6.98833 2.99227 0
M  V30 595 N 60.6021 -1.18246 1.0419 0
M  V30 596 C 61.8511 -1.87588 0.741194 0
M  V30 597 C 62.1641 -1.81303 -0.734066 0
M  V30 598 O 63.3701 -2.46019 -1.14834 0
M  V30 599 C 61.8261 -3.36538 1.27555 0
M  V30 600 C 61.4341 -3.51349 2.77953 0
M  V30 601 C 63.1781 -4.11273 1.05143 0
M  V30 602 C 61.0851 -4.94265 3.2474 0
M  V30 603 H 60.0151 -0.702622 0.273565 0
M  V30 604 H 62.6661 -1.33601 1.25789 0
M  V30 605 H 61.0481 -3.9 0.686703 0
M  V30 606 H 62.2221 -3.08153 3.42605 0
M  V30 607 H 60.5371 -2.90022 2.98791 0
M  V30 608 H 63.1341 -5.16689 1.37611 0
M  V30 609 H 63.4771 -4.16298 -0.0112774 0
M  V30 610 H 64.0101 -3.63987 1.60495 0
M  V30 611 H 60.7491 -4.94408 4.30396 0
M  V30 612 H 60.2691 -5.38172 2.64823 0
M  V30 613 H 61.9481 -5.62987 3.18834 0
M  V30 614 N 62.0802 -0.821533 -1.34494 0
M  V30 615 C 63.3572 -0.33159 -1.92769 0
M  V30 616 C 63.7372 1.18088 -1.74981 0
M  V30 617 O 63.0852 1.98733 -1.12772 0
M  V30 618 C 63.2952 -0.759398 -3.40638 0
M  V30 619 C 64.6432 -0.757433 -4.1779 0
M  V30 620 O 65.6672 -0.70189 -3.49216 0
M  V30 621 O 64.5262 -0.829361 -5.4017 0
M  V30 622 H 61.6202 -0.0902502 -0.822061 0
M  V30 623 H 64.1662 -0.906231 -1.43477 0
M  V30 624 H 62.9382 -1.8012 -3.47379 0
M  V30 625 H 62.5612 -0.160378 -3.97276 0
M  V30 626 N 63.5583 1.46682 -0.576371 0
M  V30 627 C 64.8053 2.02412 -0.0595339 0
M  V30 628 C 65.1333 1.44859 1.29793 0
M  V30 629 O 64.3883 0.601099 1.8624 0
M  V30 630 C 64.6873 3.57345 0.062886 0
M  V30 631 C 64.3533 4.33908 -1.22616 0
M  V30 632 C 63.0153 4.54544 -1.57933 0
M  V30 633 C 65.3673 4.77919 -2.07948 0
M  V30 634 C 62.6953 5.16444 -2.78393 0
M  V30 635 C 65.0473 5.41149 -3.27629 0
M  V30 636 C 63.7113 5.60014 -3.63236 0
M  V30 637 H 62.9813 0.74068 -0.021785 0
M  V30 638 H 65.6283 1.76128 -0.751735 0
M  V30 639 H 63.9333 3.82729 0.838178 0
M  V30 640 H 65.6303 3.98136 0.478439 0
M  V30 641 H 62.2203 4.18138 -0.941202 0
M  V30 642 H 66.4043 4.61738 -1.81967 0
M  V30 643 H 61.6603 5.29242 -3.06126 0
M  V30 644 H 65.8343 5.74211 -3.94023 0
M  V30 645 H 63.4613 6.07748 -4.56669 0
M  V30 646 N 65.0364 0.313813 1.54444 0
M  V30 647 C 66.2854 -0.292519 1.99568 0
M  V30 648 C 66.5984 -1.54011 1.20582 0
M  V30 649 O 67.8044 -2.22183 1.56035 0
M  V30 650 C 66.2604 -0.571752 3.55329 0
M  V30 651 C 65.8684 0.658229 4.43138 0
M  V30 652 C 67.6124 -1.13857 4.08946 0
M  V30 653 C 65.5194 0.351439 5.90355 0
M  V30 654 H 64.4494 -0.113079 0.745472 0
M  V30 655 H 67.1004 0.424518 1.78522 0
M  V30 656 H 65.4824 -1.34872 3.72325 0
M  V30 657 H 66.6564 1.43403 4.37918 0
M  V30 658 H 64.9714 1.14458 4.0036 0
M  V30 659 H 67.5684 -1.38257 5.16516 0
M  V30 660 H 67.9114 -2.08489 3.6033 0
M  V30 661 H 68.4444 -0.423015 3.95544 0
M  V30 662 H 65.1834 1.26667 6.43145 0
M  V30 663 H 64.7034 -0.386842 5.98551 0
M  V30 664 H 66.3824 -0.0423134 6.46986 0
M  V30 665 N 66.5145 -1.57545 0.0417849 0
M  V30 666 C 67.4775 -2.09885 -0.92093 0
M  V30 667 C 68.4775 -1.01648 -1.24596 0
M  V30 668 O 69.6675 -1.27759 -1.1842 0
M  V30 669 C 66.7995 -2.57527 -2.23367 0
M  V30 670 H 67.9925 -2.96236 -0.467382 0
M  V30 671 H 65.5455 -1.5493 -0.206467 0
M  V30 672 H 66.2805 -1.74542 -2.73323 0
M  V30 673 H 66.0655 -3.36613 -2.01083 0
M  V30 674 H 67.5555 -2.98201 -2.92346 0
M  V30 675 N 67.9926 0.231505 -1.5589 0
M  V30 676 C 69.2696 0.981096 -1.69215 0
M  V30 677 C 69.6496 2.02799 -0.586164 0
M  V30 678 O 68.9976 2.24823 0.408253 0
M  V30 679 C 69.2076 1.60054 -3.10135 0
M  V30 680 C 70.5556 2.09658 -3.69227 0
M  V30 681 O 71.5796 1.69967 -3.13033 0
M  V30 682 O 70.4386 2.8258 -4.67772 0
M  V30 683 H 67.5326 0.457653 -0.688827 0
M  V30 684 H 70.0786 0.224073 -1.68214 0
M  V30 685 H 68.8506 0.844105 -3.82087 0
M  V30 686 H 68.4736 2.42336 -3.15212 0
M  V30 687 N 69.4707 1.49531 0.497807 0
M  V30 688 C 70.3807 1.69176 1.62532 0
M  V30 689 C 71.3967 0.5744 1.64246 0
M  V30 690 O 72.5727 0.849497 1.82608 0
M  V30 691 C 69.6377 1.75695 2.98885 0
M  V30 692 C 68.6987 2.9929 3.07773 0
M  V30 693 C 67.9317 3.05488 4.37622 0
M  V30 694 O 68.1547 2.19192 5.26603 0
M  V30 695 O 67.0887 3.9798 4.51548 0
M  V30 696 H 70.9147 2.647 1.48887 0
M  V30 697 H 68.4997 1.3331 0.674441 0
M  V30 698 H 70.3817 1.82317 3.79919 0
M  V30 699 H 69.0567 0.8335 3.12785 0
M  V30 700 H 67.9637 2.98183 2.25915 0
M  V30 701 H 69.2967 3.91125 2.98801 0
M  V30 702 N 70.9488 -0.749086 1.3866 0
M  V30 703 C 72.1948 -1.51056 1.35314 0
M  V30 704 C 72.5278 -1.94121 -0.0553751 0
M  V30 705 O 71.8028 -1.65763 -1.01749 0
M  V30 706 C 72.0858 -2.76003 2.31288 0
M  V30 707 C 71.9388 -2.39047 3.8102 0
M  V30 708 C 73.2578 -3.78046 2.2532 0
M  V30 709 H 70.3768 -0.547972 0.492844 0
M  V30 710 H 73.0188 -0.857628 1.69543 0
M  V30 711 H 71.1688 -3.31716 2.02229 0
M  V30 712 H 72.8408 -1.89074 4.20771 0
M  V30 713 H 71.0838 -1.71449 3.98482 0
M  V30 714 H 71.7548 -3.28462 4.4364 0
M  V30 715 H 74.2308 -3.31884 2.50983 0
M  V30 716 H 73.1068 -4.63159 2.94576 0
M  V30 717 H 73.3678 -4.23957 1.25352 0
M  V30 718 N 72.4269 -1.23603 -0.977757 0
M  V30 719 C 73.7039 -0.977897 -1.69401 0
M  V30 720 C 74.0839 0.502738 -2.05026 0
M  V30 721 O 73.4319 1.47459 -1.74551 0
M  V30 722 C 73.6419 -1.89077 -2.93345 0
M  V30 723 C 74.9899 -2.15579 -3.65802 0
M  V30 724 O 76.0139 -1.86648 -3.03383 0
M  V30 725 O 74.8729 -2.64658 -4.78141 0
M  V30 726 H 71.9669 -0.369025 -0.740101 0
M  V30 727 H 74.5129 -1.34657 -1.03274 0
M  V30 728 H 73.2849 -2.89158 -2.63634 0
M  V30 729 H 72.9079 -1.52463 -3.67207 0
M  V30 730 N 73.905 1.17692 -1.04816 0
M  V30 731 C 74.835 2.23777 -0.666791 0
M  V30 732 C 75.816 1.66796 0.33361 0
M  V30 733 O 77.001 1.93039 0.212042 0
M  V30 734 C 74.131 3.47281 -0.0367933 0
M  V30 735 C 73.085 4.17059 -0.961546 0
M  V30 736 C 72.411 5.34342 -0.195626 0
M  V30 737 C 73.711 4.69713 -2.28402 0
M  V30 738 H 75.405 2.55933 -1.55367 0
M  V30 739 H 72.951 1.23019 -0.748484 0
M  V30 740 H 74.904 4.20706 0.241775 0
M  V30 741 H 73.628 3.14381 0.885004 0
M  V30 742 H 72.287 3.45541 -1.22462 0
M  V30 743 H 71.935 4.97692 0.728816 0
M  V30 744 H 71.635 5.81966 -0.811775 0
M  V30 745 H 73.159 6.10553 0.0757473 0
M  V30 746 H 74.573 5.34794 -2.06563 0
M  V30 747 H 72.97 5.279 -2.8538 0
M  V30 748 H 74.04 3.86726 -2.92525 0
M  V30 749 N 75.3831 0.828654 1.34056 0
M  V30 750 C 76.6111 0.43262 2.02326 0
M  V30 751 C 77.0261 -0.963147 1.62385 0
M  V30 752 O 76.3831 -1.62425 0.832121 0
M  V30 753 C 76.4341 0.53182 3.57567 0
M  V30 754 O 76.1551 1.87258 3.96063 0
M  V30 755 C 77.6561 0.131422 4.43105 0
M  V30 756 H 74.8761 0.172923 0.648335 0
M  V30 757 H 77.4201 1.1184 1.71208 0
M  V30 758 H 75.5751 -0.105938 3.87255 0
M  V30 759 H 75.9891 1.85087 4.90758 0
M  V30 760 H 77.4631 0.251904 5.51425 0
M  V30 761 H 77.9401 -0.925645 4.29335 0
M  V30 762 H 78.5461 0.743207 4.18756 0
M  V30 763 N 76.8612 -1.46375 0.584142 0
M  V30 764 C 78.0862 -2.07268 0.0740405 0
M  V30 765 C 78.5112 -1.42979 -1.22223 0
M  V30 766 O 77.8692 -0.514092 -1.73859 0
M  V30 767 C 77.9172 -3.60518 -0.0767769 0
M  V30 768 O 77.0212 -3.96533 -1.13292 0
M  V30 769 H 76.3622 -0.660961 0.0634524 0
M  V30 770 H 78.8922 -1.87991 0.807492 0
M  V30 771 H 78.9022 -4.07021 -0.282489 0
M  V30 772 H 77.5772 -4.06702 0.86986 0
M  V30 773 H 76.1542 -3.61738 -0.905553 0
M  V30 774 N 78.3393 -0.321999 -1.54275 0
M  V30 775 C 79.3023 0.531975 -2.22941 0
M  V30 776 C 80.3023 1.04478 -1.22234 0
M  V30 777 O 81.4923 0.937452 -1.46825 0
M  V30 778 C 78.6243 1.73874 -2.93224 0
M  V30 779 H 79.8173 -0.0682612 -2.99822 0
M  V30 780 H 77.3703 -0.0730644 -1.56129 0
M  V30 781 H 78.1053 2.37825 -2.20476 0
M  V30 782 H 77.8903 1.37847 -3.6707 0
M  V30 783 H 79.3803 2.34496 -3.45545 0
M  V30 784 N 79.8174 1.5752 -0.0501392 0
M  V30 785 C 80.7474 2.14502 0.922566 0
M  V30 786 C 81.7284 1.06642 1.3252 0
M  V30 787 O 82.9134 1.34577 1.4001 0
M  V30 788 C 80.0434 2.68916 2.19776 0
M  V30 789 C 78.9974 3.8175 1.93523 0
M  V30 790 C 78.3234 4.22677 3.27487 0
M  V30 791 C 79.6234 5.06932 1.25765 0
M  V30 792 H 81.3174 2.9603 0.447952 0
M  V30 793 H 78.8634 1.42401 0.214024 0
M  V30 794 H 80.8164 3.07419 2.88222 0
M  V30 795 H 79.5404 1.84578 2.69441 0
M  V30 796 H 78.1994 3.43718 1.27489 0
M  V30 797 H 77.8474 3.35291 3.74952 0
M  V30 798 H 77.5474 4.98725 3.1072 0
M  V30 799 H 79.0714 4.63779 3.97166 0
M  V30 800 H 80.4854 5.42888 1.84244 0
M  V30 801 H 78.8824 5.88116 1.19328 0
M  V30 802 H 79.9524 4.84337 0.233536 0
M  V30 803 N 81.2955 -0.223234 1.56011 0
M  V30 804 C 82.5235 -0.964812 1.83027 0
M  V30 805 C 82.9385 -1.78013 0.62904 0
M  V30 806 O 82.2955 -1.78008 -0.402414 0
M  V30 807 C 82.3465 -1.88373 3.08542 0
M  V30 808 O 82.0675 -1.10137 4.2403 0
M  V30 809 C 83.5685 -2.73934 3.48533 0
M  V30 810 H 80.7885 -0.282842 0.608475 0
M  V30 811 H 83.3325 -0.238971 2.03099 0
M  V30 812 H 81.4875 -2.56354 2.9045 0
M  V30 813 H 81.9015 -1.72501 4.95322 0
M  V30 814 H 83.3755 -3.34117 4.39397 0
M  V30 815 H 83.8525 -3.46244 2.70207 0
M  V30 816 H 84.4585 -2.11369 3.69057 0
M  V30 817 N 82.7736 -1.49793 -0.48987 0
M  V30 818 C 84.1896 -1.36803 -0.822022 0
M  V30 819 C 84.3896 -0.409652 -1.97292 0
M  V30 820 O 83.4456 0.154614 -2.52026 0
M  V30 821 C 84.7586 -2.77768 -1.15175 0
M  V30 822 C 86.3066 -2.86549 -1.25931 0
M  V30 823 C 86.7816 -4.28306 -1.62228 0
M  V30 824 N 88.2726 -4.31169 -1.69256 0
M  V30 825 C 89.0076 -5.37832 -1.98807 0
M  V30 826 N 88.5036 -6.54726 -2.26507 0
M  V30 827 N 90.2966 -5.25258 -2.00152 0
M  V30 828 H 82.4476 -2.10691 0.268881 0
M  V30 829 H 84.7106 -0.946241 0.057728 0
M  V30 830 H 84.4166 -3.49648 -0.379335 0
M  V30 831 H 84.2906 -3.13836 -2.09253 0
M  V30 832 H 86.6776 -2.14899 -2.02243 0
M  V30 833 H 86.7586 -2.54049 -0.298776 0
M  V30 834 H 86.4026 -5.00486 -0.864622 0
M  V30 835 H 86.3326 -4.58279 -2.594 0
M  V30 836 H 88.8236 -3.4687 -1.49965 0
M  V30 837 H 89.1366 -7.31833 -2.48276 0
M  V30 838 H 87.4816 -6.57933 -2.23939 0
M  V30 839 H 90.6726 -4.32938 -1.77996 0
M  V30 840 H 90.8456 -6.08476 -2.22848 0
M  V30 841 N 84.2517 0.741722 -1.39055 0
M  V30 842 C 85.1987 1.85566 -1.37237 0
M  V30 843 C 86.1687 1.64457 -0.233072 0
M  V30 844 O 87.3537 1.85957 -0.427147 0
M  V30 845 C 84.4937 3.23004 -1.215 0
M  V30 846 C 83.6067 3.55864 -2.44918 0
M  V30 847 C 82.7417 4.82669 -2.21821 0
M  V30 848 C 81.7807 5.08351 -3.40948 0
M  V30 849 N 80.9177 6.26356 -3.17211 0
M  V30 850 H 85.7577 1.86455 -2.32462 0
M  V30 851 H 83.2947 0.911176 -1.15482 0
M  V30 852 H 85.2527 4.02331 -1.10389 0
M  V30 853 H 83.8827 3.21411 -0.29908 0
M  V30 854 H 82.9347 2.7129 -2.66657 0
M  V30 855 H 84.2467 3.70765 -3.33668 0
M  V30 856 H 83.4007 5.69962 -2.07914 0
M  V30 857 H 82.1397 4.69929 -1.30454 0
M  V30 858 H 81.1447 4.19522 -3.55361 0
M  V30 859 H 82.3697 5.22981 -4.33207 0
M  V30 860 H 80.3157 6.14917 -2.28502 0
M  V30 861 H 80.2327 6.41813 -3.99515 0
M  V30 862 H 81.5007 7.16506 -3.06984 0
M  V30 863 N 85.7298 1.2412 0.971189 0
M  V30 864 C 86.9788 1.07284 1.70801 0
M  V30 865 C 87.2918 -0.388902 1.91695 0
M  V30 866 O 88.4978 -0.677379 2.62914 0
M  V30 867 C 86.9538 1.87145 3.07416 0
M  V30 868 C 86.5618 3.37707 2.94377 0
M  V30 869 C 88.3058 1.78828 3.84995 0
M  V30 870 C 86.2128 4.09925 4.26281 0
M  V30 871 H 85.1428 0.397854 0.64049 0
M  V30 872 H 87.7938 1.4817 1.0825 0
M  V30 873 H 86.1758 1.39071 3.70777 0
M  V30 874 H 87.3498 3.93335 2.4005 0
M  V30 875 H 85.6648 3.46938 2.30267 0
M  V30 876 H 88.2618 2.30089 4.82662 0
M  V30 877 H 88.6048 0.75284 4.09436 0
M  V30 878 H 89.1378 2.24563 3.28354 0
M  V30 879 H 85.8768 5.13813 4.07033 0
M  V30 880 H 85.3968 3.59083 4.80437 0
M  V30 881 H 87.0758 4.1673 4.94919 0
M  V30 882 N 87.2079 -1.17134 1.05439 0
M  V30 883 C 88.4359 -1.91372 0.786414 0
M  V30 884 C 88.8509 -1.76955 -0.658202 0
M  V30 885 O 88.2079 -1.10838 -1.44987 0
M  V30 886 C 88.2589 -3.42356 1.1608 0
M  V30 887 O 87.9799 -3.56332 2.54871 0
M  V30 888 C 89.4809 -4.33663 0.919322 0
M  V30 889 H 86.7009 -0.607118 0.285743 0
M  V30 890 H 89.2449 -1.48525 1.40572 0
M  V30 891 H 87.3999 -3.82939 0.586191 0
M  V30 892 H 87.8139 -4.49896 2.69618 0
M  V30 893 H 89.2879 -5.38099 1.231 0
M  V30 894 H 89.7649 -4.38959 -0.145359 0
M  V30 895 H 90.3709 -3.98796 1.47789 0
M  V30 896 N 88.686 -0.835752 -1.33615 0
M  V30 897 C 89.616 -0.281739 -2.31794 0
M  V30 898 C 90.597 0.608833 -1.58831 0
M  V30 899 O 91.782 0.533035 -1.86741 0
M  V30 900 C 88.912 0.546612 -3.42971 0
M  V30 901 C 87.866 -0.247904 -4.27281 0
M  V30 902 C 87.192 0.704001 -5.30045 0
M  V30 903 C 88.492 -1.46324 -5.01385 0
M  V30 904 H 90.186 -1.10206 -2.78379 0
M  V30 905 H 87.732 -0.531388 -1.33837 0
M  V30 906 H 89.685 0.944467 -4.1068 0
M  V30 907 H 88.409 1.40011 -2.95067 0
M  V30 908 H 87.068 -0.627281 -3.61194 0
M  V30 909 H 86.716 1.55381 -4.78399 0
M  V30 910 H 86.416 0.176524 -5.87335 0
M  V30 911 H 87.94 1.09944 -6.0062 0
M  V30 912 H 89.354 -1.13871 -5.61877 0
M  V30 913 H 87.751 -1.92728 -5.6831 0
M  V30 914 H 88.821 -2.23467 -4.30338 0
M  V30 915 N 90.1641 1.46063 -0.591896 0
M  V30 916 C 91.1111 2.30399 0.136069 0
M  V30 917 C 92.0811 1.41169 0.875238 0
M  V30 918 O 93.2661 1.70112 0.86409 0
M  V30 919 C 90.4061 3.25804 1.13781 0
M  V30 920 C 89.5191 4.30134 0.401137 0
M  V30 921 C 88.6541 5.12659 1.39121 0
M  V30 922 C 87.6931 6.0873 0.641462 0
M  V30 923 N 86.8301 6.8409 1.58004 0
M  V30 924 H 91.6701 2.92118 -0.589144 0
M  V30 925 H 89.2071 1.43959 -0.302342 0
M  V30 926 H 91.1651 3.79569 1.73156 0
M  V30 927 H 89.7951 2.65872 1.83062 0
M  V30 928 H 88.8471 3.79152 -0.307826 0
M  V30 929 H 90.1591 4.98458 -0.184565 0
M  V30 930 H 89.3131 5.70747 2.05749 0
M  V30 931 H 88.0521 4.44316 2.01084 0
M  V30 932 H 87.0571 5.49786 -0.0385419 0
M  V30 933 H 88.2821 6.79095 0.0270945 0
M  V30 934 H 86.2281 6.18449 2.18761 0
M  V30 935 H 86.1451 7.48709 1.04738 0
M  V30 936 H 87.4131 7.4673 2.23639 0
M  V30 937 N 91.6422 0.330177 1.54103 0
M  V30 938 C 92.8702 -0.272179 2.05102 0
M  V30 939 C 93.2852 -1.45267 1.20595 0
M  V30 940 O 92.6422 -1.8094 0.238144 0
M  V30 941 C 92.6932 -0.70023 3.54653 0
M  V30 942 O 92.4142 0.433301 4.35952 0
M  V30 943 C 93.9152 -1.3647 4.21771 0
M  V30 944 H 91.1352 -0.0549159 0.668749 0
M  V30 945 H 93.6792 0.478285 1.98828 0
M  V30 946 H 91.8342 -1.40066 3.61193 0
M  V30 947 H 92.2482 0.0947539 5.24414 0
M  V30 948 H 93.7222 -1.61509 5.27843 0
M  V30 949 H 94.1992 -2.31409 3.73292 0
M  V30 950 H 94.8052 -0.706675 4.19388 0
M  V30 951 N 93.1203 -1.57491 0.0584922 0
M  V30 952 C 94.5313 -1.80526 -0.476138 0
M  V30 953 C 94.8823 -0.971334 -1.70469 0
M  V30 954 O 94.0073 -0.190012 -2.15564 0
M  V30 955 C 94.6023 -3.27424 -0.870587 0
M  V30 956 C 93.1613 -3.51351 -1.35015 0
M  V30 957 C 92.3083 -2.75343 -0.32887 0
M  V30 958 H 95.2593 -1.56133 0.284312 0
M  V30 959 H 95.2803 -3.38745 -1.73299 0
M  V30 960 H 94.7923 -3.88093 0.0237627 0
M  V30 961 H 92.8933 -2.95971 -2.26345 0
M  V30 962 H 93.0063 -4.60059 -1.33726 0
M  V30 963 H 91.3703 -2.417 -0.803321 0
M  V30 964 H 92.1533 -3.38743 0.557521 0
M  V30 965 N 94.5984 0.214957 -1.56127 0
M  V30 966 C 95.5284 1.2695 -1.95974 0
M  V30 967 C 96.5094 1.48539 -0.828868 0
M  V30 968 O 97.6944 1.60611 -1.09168 0
M  V30 969 C 94.8244 2.61794 -2.28214 0
M  V30 970 C 93.7784 2.54851 -3.43853 0
M  V30 971 C 93.1044 3.93785 -3.61715 0
M  V30 972 C 94.4044 2.09065 -4.78632 0
M  V30 973 H 96.0984 0.93846 -2.84312 0
M  V30 974 H 93.6444 0.449996 -1.36788 0
M  V30 975 H 95.5974 3.35731 -2.54682 0
M  V30 976 H 94.3214 2.96599 -1.36736 0
M  V30 977 H 92.9804 1.8337 -3.17444 0
M  V30 978 H 92.6284 4.25908 -2.67602 0
M  V30 979 H 92.3284 3.90019 -4.39498 0
M  V30 980 H 93.8524 4.69374 -3.90539 0
M  V30 981 H 95.2664 2.7275 -5.04262 0
M  V30 982 H 93.6634 2.16346 -5.59745 0
M  V30 983 H 94.7334 1.04315 -4.73547 0
M  V30 984 N 96.0765 1.50051 0.48192 0
M  V30 985 C 97.3255 1.59741 1.23149 0
M  V30 986 C 97.6385 0.298163 1.93314 0
M  V30 987 O 98.8445 0.273835 2.70116 0
M  V30 988 C 97.3005 2.81926 2.23708 0
M  V30 989 C 96.9085 4.18685 1.59396 0
M  V30 990 C 98.6525 3.00956 2.99375 0
M  V30 991 C 96.5595 5.3207 2.58178 0
M  V30 992 H 95.4895 0.594838 0.46334 0
M  V30 993 H 98.1405 1.76467 0.503169 0
M  V30 994 H 96.5225 2.58736 2.99786 0
M  V30 995 H 97.6965 4.52088 0.891811 0
M  V30 996 H 96.0115 4.05171 0.960503 0
M  V30 997 H 98.6085 3.82836 3.73283 0
M  V30 998 H 98.9515 2.12258 3.58123 0
M  V30 999 H 99.4845 3.24277 2.30411 0
M  V30 1000 H 96.2235 6.22888 2.04184 0
M  V30 1001 H 95.7435 5.03098 3.26577 0
M  V30 1002 H 97.4225 5.62196 3.20225 0
M  V30 1003 N 97.5546 -0.734337 1.39446 0
M  V30 1004 C 98.7796 -1.52866 1.40167 0
M  V30 1005 C 99.2046 -1.881 -0.00171513 0
M  V30 1006 O 98.5626 -1.51957 -0.988879 0
M  V30 1007 C 98.6106 -2.79235 2.28167 0
M  V30 1008 O 97.7146 -3.75185 1.71201 0
M  V30 1009 H 97.0556 -0.461618 0.477289 0
M  V30 1010 H 99.5856 -0.905949 1.8345 0
M  V30 1011 H 99.5956 -3.27963 2.42702 0
M  V30 1012 H 98.2706 -2.52923 3.30156 0
M  V30 1013 H 96.8476 -3.33958 1.65912 0
M  V30 1014 N 99.0327 -1.24633 -0.964593 0
M  V30 1015 C 100.258 -1.11596 -1.74818 0
M  V30 1016 C 100.683 0.32723 -1.85232 0
M  V30 1017 O 100.041 1.23695 -1.32549 0
M  V30 1018 C 100.089 -1.76397 -3.1451 0
M  V30 1019 O 99.1927 -1.03685 -3.99153 0
M  V30 1020 H 98.5337 -0.390196 -0.537255 0
M  V30 1021 H 101.064 -1.65002 -1.20977 0
M  V30 1022 H 101.074 -1.8228 -3.65018 0
M  V30 1023 H 99.7487 -2.81401 -3.06246 0
M  V30 1024 H 98.3257 -1.05611 -3.57632 0
M  V30 1025 N 100.511 1.16574 -1.06058 0
M  V30 1026 C 101.922 1.68662 -0.800632 0
M  V30 1027 C 102.273 1.84184 0.67608 0
M  V30 1028 O 101.398 1.53568 1.52466 0
M  V30 1029 C 101.993 3.06356 -1.44676 0
M  V30 1030 C 100.552 3.55575 -1.23465 0
M  V30 1031 C 99.6988 2.31616 -1.52477 0
M  V30 1032 H 102.65 1.00969 -1.22438 0
M  V30 1033 H 102.671 3.70636 -0.860788 0
M  V30 1034 H 102.183 2.95027 -2.52152 0
M  V30 1035 H 100.284 3.72167 -0.179527 0
M  V30 1036 H 100.397 4.37812 -1.94571 0
M  V30 1037 H 98.7608 2.36512 -0.945209 0
M  V30 1038 H 99.5438 2.22887 -2.61106 0
M  V30 1039 N 101.989 0.842826 1.3317 0
M  V30 1040 C 102.922 0.223862 2.27099 0
M  V30 1041 C 103.9 -0.631311 1.49844 0
M  V30 1042 O 105.084 -0.590708 1.79005 0
M  V30 1043 C 102.211 -0.685313 3.31694 0
M  V30 1044 C 101.257 0.094919 4.26394 0
M  V30 1045 S 102.09 1.45546 5.15341 0
M  V30 1046 C 103.246 0.551685 6.23464 0
M  V30 1047 H 103.479 1.02015 2.79249 0
M  V30 1048 H 101.012 0.639797 1.4052 0
M  V30 1049 H 102.97 -1.20426 3.92438 0
M  V30 1050 H 101.631 -1.4553 2.78352 0
M  V30 1051 H 100.824 -0.597059 5.00451 0
M  V30 1052 H 100.426 0.545054 3.70007 0
M  V30 1053 H 102.718 -0.248877 6.77043 0
M  V30 1054 H 103.661 1.26253 6.96754 0
M  V30 1055 H 104.069 0.131275 5.64347 0
M  V30 1056 N 103.467 -1.45747 0.599634 0
M  V30 1057 C 104.744 -1.95585 0.0240846 0
M  V30 1058 C 105.124 -1.54217 -1.44154 0
M  V30 1059 O 104.472 -0.800903 -2.14004 0
M  V30 1060 C 104.682 -3.48344 0.21385 0
M  V30 1061 C 106.03 -4.24504 0.0904902 0
M  V30 1062 O 107.054 -3.55911 0.143558 0
M  V30 1063 O 105.913 -5.46491 -0.0310766 0
M  V30 1064 H 103.007 -0.82602 -0.0402478 0
M  V30 1065 H 105.553 -1.55951 0.669139 0
M  V30 1066 H 104.325 -3.71397 1.23206 0
M  V30 1067 H 103.948 -3.9485 -0.466842 0
M  V30 1068 N 104.945 -0.338344 -1.53925 0
M  V30 1069 C 106.173 0.261298 -2.05243 0
M  V30 1070 C 106.588 1.44625 -1.21363 0
M  V30 1071 O 105.945 1.80811 -0.247736 0
M  V30 1072 C 105.996 0.681412 -3.5502 0
M  V30 1073 O 105.717 -0.456414 -4.35716 0
M  V30 1074 C 107.218 1.34232 -4.22489 0
M  V30 1075 H 104.438 0.0513685 -0.669031 0
M  V30 1076 H 106.982 -0.488822 -1.98572 0
M  V30 1077 H 105.137 1.38148 -3.61931 0
M  V30 1078 H 105.551 -0.122564 -5.24357 0
M  V30 1079 H 107.025 1.58708 -5.28693 0
M  V30 1080 H 107.502 2.29426 -3.74514 0
M  V30 1081 H 108.108 0.684424 -4.19757 0
M  V30 1082 N 106.423 1.57458 -0.0668435 0
M  V30 1083 C 107.669 1.93587 0.6043 0
M  V30 1084 C 108.002 0.946722 1.69561 0
M  V30 1085 O 107.277 -0.0248516 1.94484 0
M  V30 1086 C 107.56 3.40014 1.18585 0
M  V30 1087 C 107.413 4.49685 0.101529 0
M  V30 1088 C 108.732 3.87154 2.09284 0
M  V30 1089 H 105.851 0.703958 0.218202 0
M  V30 1090 H 108.493 1.89542 -0.131804 0
M  V30 1091 H 106.643 3.43592 1.81319 0
M  V30 1092 H 108.315 4.5823 -0.531279 0
M  V30 1093 H 106.558 4.30059 -0.568487 0
M  V30 1094 H 107.229 5.49266 0.54874 0
M  V30 1095 H 109.705 3.85551 1.56491 0
M  V30 1096 H 108.581 4.90231 2.46911 0
M  V30 1097 H 108.842 3.2481 2.99918 0
M  V30 1098 N 107.901 -0.206675 1.56239 0
M  V30 1099 C 109.129 -0.945345 1.8404 0
M  V30 1100 C 109.544 -1.77336 0.647885 0
M  V30 1101 O 108.901 -1.78425 -0.383511 0
M  V30 1102 C 108.952 -1.8509 3.10522 0
M  V30 1103 O 108.673 -1.05634 4.25174 0
M  V30 1104 C 110.174 -2.70222 3.51418 0
M  V30 1105 H 107.394 -0.276372 0.61144 0
M  V30 1106 H 109.938 -0.217417 2.03341 0
M  V30 1107 H 108.093 -2.53259 2.93153 0
M  V30 1108 H 108.507 -1.67238 4.97124 0
M  V30 1109 H 109.981 -3.29438 4.42916 0
M  V30 1110 H 110.458 -3.43358 2.73864 0
M  V30 1111 H 111.064 -2.07443 3.71278 0
M  V30 1112 N 109.379 -1.50304 -0.473955 0
M  V30 1113 C 110.289 -1.7174 -1.5982 0
M  V30 1114 C 111.305 -0.600457 -1.63311 0
M  V30 1115 O 112.481 -0.878441 -1.81233 0
M  V30 1116 C 109.546 -1.80427 -2.96052 0
M  V30 1117 C 108.607 -3.04148 -3.02972 0
M  V30 1118 C 107.84 -3.12411 -4.32706 0
M  V30 1119 O 108.063 -2.27542 -5.23049 0
M  V30 1120 O 106.997 -4.05113 -4.45159 0
M  V30 1121 H 110.823 -2.67035 -1.44657 0
M  V30 1122 H 108.408 -1.34366 -0.653148 0
M  V30 1123 H 110.29 -1.88338 -3.7697 0
M  V30 1124 H 108.965 -0.883156 -3.11419 0
M  V30 1125 H 107.872 -3.0174 -2.21142 0
M  V30 1126 H 109.205 -3.95829 -2.92541 0
M  V30 1127 N 110.857 0.726932 -1.39834 0
M  V30 1128 C 111.82 1.82269 -1.38962 0
M  V30 1129 C 112.82 1.58248 -0.285334 0
M  V30 1130 O 114.01 1.65499 -0.54366 0
M  V30 1131 C 111.142 3.20186 -1.17019 0
M  V30 1132 H 112.335 1.84443 -2.36476 0
M  V30 1133 H 109.888 0.931416 -1.25516 0
M  V30 1134 H 110.623 3.23669 -0.202204 0
M  V30 1135 H 110.408 3.3902 -1.96998 0
M  V30 1136 H 111.898 4.00235 -1.1917 0
M  V30 1137 N 112.336 1.25143 0.95797 0
M  V30 1138 C 113.613 1.00472 1.67823 0
M  V30 1139 C 113.993 -0.470056 2.058 0
M  V30 1140 O 113.341 -1.44663 1.76875 0
M  V30 1141 C 113.551 1.9372 2.90299 0
M  V30 1142 C 114.899 2.21371 3.62326 0
M  V30 1143 O 115.923 1.91451 3.00375 0
M  V30 1144 O 114.782 2.72231 4.7387 0
M  V30 1145 H 111.876 0.380752 0.734137 0
M  V30 1146 H 114.422 1.36283 1.01119 0
M  V30 1147 H 113.194 2.93316 2.59001 0
M  V30 1148 H 112.817 1.58286 3.64735 0
M  V30 1149 N 113.814 -1.1601 1.06675 0
M  V30 1150 C 114.747 -2.1947 0.625168 0
M  V30 1151 C 115.725 -1.58699 -0.354041 0
M  V30 1152 O 116.909 -1.86669 -0.262098 0
M  V30 1153 C 114.036 -3.38598 -0.0829593 0
M  V30 1154 C 113.082 -4.1787 0.853611 0
M  V30 1155 S 113.915 -4.81135 2.35094 0
M  V30 1156 C 115.071 -6.03639 1.65441 0
M  V30 1157 H 115.304 -2.56587 1.50168 0
M  V30 1158 H 112.837 -1.26862 0.880078 0
M  V30 1159 H 114.795 -4.07621 -0.485288 0
M  V30 1160 H 113.456 -2.99839 -0.935716 0
M  V30 1161 H 112.649 -5.03078 0.304755 0
M  V30 1162 H 112.251 -3.54361 1.196 0
M  V30 1163 H 114.543 -6.70632 0.962201 0
M  V30 1164 H 115.486 -6.63081 2.48454 0
M  V30 1165 H 115.894 -5.52965 1.13534 0
M  V30 1166 N 115.292 -0.849877 -1.32721 0
M  V30 1167 C 116.255 -0.296122 -2.27279 0
M  V30 1168 C 117.255 0.541458 -1.5141 0
M  V30 1169 O 118.445 0.353658 -1.70572 0
M  V30 1170 C 115.577 0.581579 -3.35902 0
M  V30 1171 H 116.77 -1.13064 -2.77771 0
M  V30 1172 H 114.323 -0.62383 -1.43311 0
M  V30 1173 H 115.058 1.43809 -2.9067 0
M  V30 1174 H 114.843 -0.0178814 -3.92096 0
M  V30 1175 H 116.333 0.961951 -4.0637 0
M  V30 1176 N 116.77 1.45427 -0.607355 0
M  V30 1177 C 118.019 2.01452 -0.100036 0
M  V30 1178 C 118.332 1.48159 1.27704 0
M  V30 1179 O 119.538 1.96159 1.87707 0
M  V30 1180 C 117.994 3.59672 -0.128158 0
M  V30 1181 C 117.602 4.21962 -1.50507 0
M  V30 1182 C 119.346 4.23262 0.323932 0
M  V30 1183 C 117.253 5.72333 -1.48959 0
M  V30 1184 H 116.183 0.75325 -0.0336299 0
M  V30 1185 H 118.834 1.66901 -0.76265 0
M  V30 1186 H 117.216 3.91411 0.601105 0
M  V30 1187 H 118.39 4.01796 -2.25602 0
M  V30 1188 H 116.705 3.70565 -1.89923 0
M  V30 1189 H 119.302 5.33522 0.354691 0
M  V30 1190 H 119.645 3.93921 1.34656 0
M  V30 1191 H 120.178 3.96239 -0.352056 0
M  V30 1192 H 116.917 6.06373 -2.48981 0
M  V30 1193 H 116.437 5.94691 -0.781214 0
M  V30 1194 H 118.116 6.35525 -1.21313 0
M  V30 1195 N 118.248 0.346503 1.53744 0
M  V30 1196 C 119.211 -0.496439 2.23759 0
M  V30 1197 C 120.211 -1.0252 1.2388 0
M  V30 1198 O 121.401 -0.913974 1.48297 0
M  V30 1199 C 118.533 -1.69187 2.95954 0
M  V30 1200 H 119.726 0.115952 2.99676 0
M  V30 1201 H 117.279 0.0978939 1.55993 0
M  V30 1202 H 118.014 -2.34288 2.24231 0
M  V30 1203 H 117.799 -1.31989 3.69217 0
M  V30 1204 H 119.289 -2.28969 3.49232 0
M  V30 1205 N 119.726 -1.57421 0.075193 0
M  V30 1206 C 120.659 -2.08528 -0.926904 0
M  V30 1207 C 121.637 -0.991171 -1.28898 0
M  V30 1208 O 122.821 -1.26479 -1.39769 0
M  V30 1209 C 119.948 -2.54576 -2.23402 0
M  V30 1210 C 118.994 -3.75454 -2.02327 0
M  V30 1211 S 119.827 -5.19989 -1.27951 0
M  V30 1212 C 120.983 -5.69372 -2.59935 0
M  V30 1213 H 121.216 -2.932 -0.492048 0
M  V30 1214 H 118.749 -1.53785 -0.137651 0
M  V30 1215 H 120.707 -2.81767 -2.98526 0
M  V30 1216 H 119.368 -1.70166 -2.64012 0
M  V30 1217 H 118.561 -4.05675 -2.99071 0
M  V30 1218 H 118.163 -3.48654 -1.35339 0
M  V30 1219 H 120.455 -5.76424 -3.56008 0
M  V30 1220 H 121.398 -6.68207 -2.34319 0
M  V30 1221 H 121.806 -4.97205 -2.67296 0
M  V30 1222 N 121.204 0.198386 -1.56346 0
M  V30 1223 C 122.167 1.22952 -1.93431 0
M  V30 1224 C 123.167 1.38611 -0.815092 0
M  V30 1225 O 124.357 1.36479 -1.08255 0
M  V30 1226 C 121.489 2.59946 -2.20546 0
M  V30 1227 H 122.682 0.912626 -2.85677 0
M  V30 1228 H 120.235 0.43977 -1.49986 0
M  V30 1229 H 120.97 2.96696 -1.30927 0
M  V30 1230 H 120.755 2.49953 -3.02102 0
M  V30 1231 H 122.245 3.3431 -2.50253 0
M  V30 1232 N 122.682 1.50554 0.465978 0
M  V30 1233 C 123.612 1.72722 1.57128 0
M  V30 1234 C 124.593 0.576294 1.6004 0
M  V30 1235 O 125.778 0.81598 1.76225 0
M  V30 1236 C 122.908 1.82605 2.95419 0
M  V30 1237 C 121.862 2.97835 3.07373 0
M  V30 1238 C 121.188 2.92867 4.47363 0
M  V30 1239 C 122.488 4.38265 2.84114 0
M  V30 1240 H 124.182 2.65267 1.38829 0
M  V30 1241 H 121.728 1.2765 0.666441 0
M  V30 1242 H 123.681 1.96698 3.72677 0
M  V30 1243 H 122.405 0.866858 3.14886 0
M  V30 1244 H 121.064 2.83401 2.3255 0
M  V30 1245 H 120.712 1.94783 4.63755 0
M  V30 1246 H 120.412 3.70227 4.56296 0
M  V30 1247 H 121.936 3.09015 5.26633 0
M  V30 1248 H 123.35 4.53198 3.51118 0
M  V30 1249 H 121.747 5.17115 3.04487 0
M  V30 1250 H 122.817 4.50281 1.7993 0
M  V30 1251 N 124.16 -0.719506 1.40217 0
M  V30 1252 C 125.093 -1.84298 1.34571 0
M  V30 1253 C 126.071 -1.61149 0.216741 0
M  V30 1254 O 127.255 -1.84212 0.399756 0
M  V30 1255 C 124.382 -3.20568 1.09335 0
M  V30 1256 C 123.428 -3.62551 2.24631 0
M  V30 1257 S 124.261 -3.7012 3.87004 0
M  V30 1258 C 125.417 -5.09154 3.64024 0
M  V30 1259 H 125.65 -1.88807 2.2965 0
M  V30 1260 H 123.183 -0.885901 1.26456 0
M  V30 1261 H 125.141 -3.99246 0.954602 0
M  V30 1262 H 123.802 -3.13696 0.159164 0
M  V30 1263 H 122.995 -4.61483 2.02606 0
M  V30 1264 H 122.597 -2.91119 2.34789 0
M  V30 1265 H 124.889 -5.95955 3.22248 0
M  V30 1266 H 125.832 -5.36213 4.62473 0
M  V30 1267 H 126.24 -4.79562 2.97793 0
M  V30 1268 N 125.638 -1.25649 -0.95132 0
M  V30 1269 C 126.886 -1.10375 -1.69298 0
M  V30 1270 C 127.207 0.355339 -1.91735 0
M  V30 1271 O 126.477 1.25188 -1.50681 0
M  V30 1272 H 125.057 -0.405461 -0.627384 0
M  V30 1273 H 127.719 -1.57823 -1.14358 0
M  V30 1274 H 126.815 -1.61465 -2.67087 0
M  V30 1275 N 127.117 1.15442 -1.07289 0
M  V30 1276 C 128.365 1.85845 -0.794096 0
M  V30 1277 C 128.686 1.82692 0.681809 0
M  V30 1278 O 127.956 1.26741 1.49377 0
M  V30 1279 H 126.536 0.688089 -0.290763 0
M  V30 1280 H 129.198 1.39947 -1.3565 0
M  V30 1281 H 128.294 2.91001 -1.12804 0
M  V30 1282 N 128.595 0.856903 1.32268 0
M  V30 1283 C 129.844 0.457599 1.96441 0
M  V30 1284 C 130.157 -0.992426 1.68553 0
M  V30 1285 O 131.363 -1.49727 2.26482 0
M  V30 1286 C 129.819 0.767358 3.51624 0
M  V30 1287 C 129.427 2.23326 3.88367 0
M  V30 1288 C 131.171 0.435887 4.22256 0
M  V30 1289 C 129.078 2.48613 5.36606 0
M  V30 1290 H 128.008 0.167387 0.735185 0
M  V30 1291 H 130.659 1.048 1.5063 0
M  V30 1292 H 129.041 0.106367 3.95857 0
M  V30 1293 H 130.215 2.93623 3.55137 0
M  V30 1294 H 128.53 2.52948 3.30766 0
M  V30 1295 H 131.127 0.602202 5.31298 0
M  V30 1296 H 131.47 -0.622672 4.11617 0
M  V30 1297 H 132.003 1.05286 3.83614 0
M  V30 1298 H 128.742 3.53101 5.52268 0
M  V30 1299 H 128.262 1.82896 5.71235 0
M  V30 1300 H 129.941 2.32676 6.03714 0
M  V30 1301 N 130.073 -1.45103 0.615059 0
M  V30 1302 C 131.321 -2.01784 0.112955 0
M  V30 1303 C 131.642 -1.48504 -1.26378 0
M  V30 1304 O 130.912 -0.682245 -1.83636 0
M  V30 1305 H 129.492 -0.745993 0.0387668 0
M  V30 1306 H 132.154 -1.77808 0.798141 0
M  V30 1307 H 131.25 -3.12025 0.0684069 0
M  V30 1308 N 131.551 -0.354651 -1.53558 0
M  V30 1309 C 132.798 0.238443 -2.01091 0
M  V30 1310 C 133.126 1.49663 -1.24222 0
M  V30 1311 O 132.381 1.93049 -0.321003 0
M  V30 1312 C 132.68 0.587121 -3.52545 0
M  V30 1313 C 132.346 -0.575472 -4.47213 0
M  V30 1314 C 131.008 -0.894497 -4.72813 0
M  V30 1315 C 133.36 -1.35489 -5.03281 0
M  V30 1316 C 130.688 -1.99511 -5.51736 0
M  V30 1317 C 133.04 -2.44583 -5.83405 0
M  V30 1318 C 131.704 -2.77033 -6.07296 0
M  V30 1319 H 130.974 0.0872526 -0.735845 0
M  V30 1320 H 133.621 -0.484859 -1.8526 0
M  V30 1321 H 131.926 1.39129 -3.66265 0
M  V30 1322 H 133.623 1.05809 -3.86789 0
M  V30 1323 H 130.213 -0.316774 -4.27428 0
M  V30 1324 H 134.397 -1.12167 -4.83459 0
M  V30 1325 H 129.653 -2.25063 -5.68469 0
M  V30 1326 H 133.827 -3.05401 -6.25862 0
M  V30 1327 H 131.454 -3.6244 -6.68237 0
M  V30 1328 N 133.029 1.57378 -0.0835403 0
M  V30 1329 C 134.278 1.93106 0.582498 0
M  V30 1330 C 134.591 0.96651 1.70053 0
M  V30 1331 O 135.797 1.21705 2.42693 0
M  V30 1332 C 134.253 3.43076 1.08751 0
M  V30 1333 C 133.861 4.48 -0.000146404 0
M  V30 1334 C 135.605 3.87785 1.72694 0
M  V30 1335 C 133.512 5.89113 0.519568 0
M  V30 1336 H 132.442 0.720775 0.221358 0
M  V30 1337 H 135.093 1.82821 -0.157675 0
M  V30 1338 H 133.475 3.48474 1.88101 0
M  V30 1339 H 134.649 4.54233 -0.775199 0
M  V30 1340 H 132.964 4.1283 -0.54406 0
M  V30 1341 H 135.561 4.90604 2.1263 0
M  V30 1342 H 135.904 3.25796 2.59158 0
M  V30 1343 H 136.437 3.8504 0.999457 0
M  V30 1344 H 133.176 6.54775 -0.308186 0
M  V30 1345 H 132.696 5.86376 1.26188 0
M  V30 1346 H 134.375 6.39346 0.992237 0
M  V30 1347 N 134.507 -0.190092 1.56449 0
M  V30 1348 C 135.457 -1.23977 1.91347 0
M  V30 1349 C 136.441 -1.40747 0.779693 0
M  V30 1350 O 137.633 -1.43033 1.04262 0
M  V30 1351 C 134.762 -2.58347 2.26079 0
M  V30 1352 C 133.848 -2.4535 3.45925 0
M  V30 1353 N 134.239 -2.02039 4.63696 0
M  V30 1354 C 132.537 -2.76229 3.50162 0
M  V30 1355 C 133.238 -2.01053 5.4585 0
M  V30 1356 N 132.214 -2.42747 4.8639 0
M  V30 1357 H 136.016 -0.896318 2.79899 0
M  V30 1358 H 133.53 -0.398496 1.57435 0
M  V30 1359 H 135.527 -3.34173 2.49267 0
M  V30 1360 H 134.187 -2.93512 1.38856 0
M  V30 1361 H 135.198 -1.7267 4.88268 0
M  V30 1362 H 131.875 -3.15556 2.73369 0
M  V30 1363 H 133.265 -1.69426 6.50188 0
M  V30 1364 N 135.985 -1.50799 -0.457987 0
M  V30 1365 C 136.935 -1.67003 -1.55222 0
M  V30 1366 C 137.919 -0.52434 -1.52117 0
M  V30 1367 O 139.111 -0.779345 -1.58919 0
M  V30 1368 C 136.24 -1.77956 -2.93576 0
M  V30 1369 C 135.326 -2.98243 -3.01516 0
M  V30 1370 N 135.717 -4.21732 -2.79241 0
M  V30 1371 C 134.015 -2.97072 -3.32662 0
M  V30 1372 C 134.716 -5.02817 -2.92489 0
M  V30 1373 N 133.692 -4.37038 -3.23262 0
M  V30 1374 H 137.494 -2.60163 -1.36721 0
M  V30 1375 H 135.008 -1.48163 -0.664952 0
M  V30 1376 H 137.005 -1.87671 -3.72271 0
M  V30 1377 H 135.665 -0.859634 -3.13114 0
M  V30 1378 H 136.676 -4.51016 -2.54567 0
M  V30 1379 H 133.353 -2.14631 -3.58106 0
M  V30 1380 H 134.743 -6.11054 -2.79396 0
M  V30 1381 N 137.463 0.71206 -1.40597 0
M  V30 1382 C 138.411 1.84746 -1.41321 0
M  V30 1383 C 139.405 1.66842 -0.293268 0
M  V30 1384 O 140.611 1.73904 -0.464481 0
M  V30 1385 H 136.986 0.608522 -0.441819 0
M  V30 1386 H 138.957 1.81252 -2.37045 0
M  V30 1387 C 137.706 3.22638 -1.29614 0
M  V30 1388 H 137.029 3.37023 -2.15071 0
M  V30 1389 H 138.469 4.02209 -1.3418 0
M  V30 1390 C 136.928 3.36899 -0.00673121 0
M  V30 1391 O 137.458 3.90186 0.954859 0
M  V30 1392 N 135.664 2.9053 0.0639327 0
M  V30 1393 H 135.211 2.47353 -0.719311 0
M  V30 1394 H 135.169 3.0045 0.926118 0
M  V30 1395 N 138.941 1.26152 0.944643 0
M  V30 1396 C 140.181 1.12708 1.70517 0
M  V30 1397 C 140.545 -0.324727 1.89234 0
M  V30 1398 O 141.746 -0.581211 2.62441 0
M  V30 1399 C 140.017 1.8713 3.04495 0
M  V30 1400 S 141.576 1.89698 3.95677 0
M  V30 1401 H 138.394 0.402665 0.585988 0
M  V30 1402 H 140.996 1.59821 1.12594 0
M  V30 1403 H 139.7 2.91833 2.88551 0
M  V30 1404 H 139.231 1.40444 3.67477 0
M  V30 1405 H 141.246 0.981198 4.86402 0
M  V30 1406 N 140.419 -1.14872 1.07899 0
M  V30 1407 C 141.647 -1.89661 0.82683 0
M  V30 1408 C 142.062 -1.78312 -0.620519 0
M  V30 1409 O 141.419 -1.13888 -1.42604 0
M  V30 1410 C 141.47 -3.39817 1.23316 0
M  V30 1411 O 141.191 -3.50845 2.62372 0
M  V30 1412 C 142.692 -4.31615 1.0111 0
M  V30 1413 H 139.912 -0.60092 0.298557 0
M  V30 1414 H 142.456 -1.4551 1.43691 0
M  V30 1415 H 140.611 -3.8161 0.667286 0
M  V30 1416 H 141.025 -4.44076 2.79101 0
M  V30 1417 H 142.499 -5.35367 1.34486 0
M  V30 1418 H 142.976 -4.39169 -0.0522168 0
M  V30 1419 H 143.582 -3.95572 1.56215 0
M  V30 1420 N 141.898 -0.863906 -1.31812 0
M  V30 1421 C 143.309 -0.52522 -1.7916 0
M  V30 1422 C 143.66 0.957518 -1.71248 0
M  V30 1423 O 142.785 1.74734 -1.27659 0
M  V30 1424 C 143.38 -0.9466 -3.25307 0
M  V30 1425 C 141.939 -0.659668 -3.70574 0
M  V30 1426 C 141.086 -1.14126 -2.52726 0
M  V30 1427 H 144.037 -1.05022 -1.1898 0
M  V30 1428 H 144.058 -0.266766 -3.79564 0
M  V30 1429 H 143.57 -2.02579 -3.31034 0
M  V30 1430 H 141.671 0.408416 -3.70355 0
M  V30 1431 H 141.784 -1.23245 -4.62977 0
M  V30 1432 H 140.148 -0.561216 -2.4844 0
M  V30 1433 H 140.931 -2.22775 -2.61201 0
M  V30 1434 N 143.376 1.44774 -0.622745 0
M  V30 1435 C 144.286 2.34433 0.0886031 0
M  V30 1436 C 145.302 1.52131 0.844529 0
M  V30 1437 O 146.478 1.84886 0.798691 0
M  V30 1438 C 143.543 3.29986 1.0635 0
M  V30 1439 C 142.604 4.28195 0.307873 0
M  V30 1440 C 141.837 5.19183 1.23633 0
M  V30 1441 O 142.06 5.13918 2.47476 0
M  V30 1442 O 140.994 5.97515 0.725189 0
M  V30 1443 H 144.82 2.96693 -0.648599 0
M  V30 1444 H 142.405 1.44408 -0.382957 0
M  V30 1445 H 144.287 3.88825 1.6246 0
M  V30 1446 H 142.962 2.70269 1.78146 0
M  V30 1447 H 141.869 3.72927 -0.296064 0
M  V30 1448 H 143.202 4.90808 -0.3699 0
M  V30 1449 N 144.854 0.36279 1.53368 0
M  V30 1450 C 146.101 -0.227776 2.01215 0
M  V30 1451 C 146.429 -1.49003 1.25014 0
M  V30 1452 O 145.684 -1.92876 0.331236 0
M  V30 1453 C 145.983 -0.568417 3.52851 0
M  V30 1454 C 145.649 0.59918 4.46901 0
M  V30 1455 C 144.311 0.919559 4.72332 0
M  V30 1456 C 146.663 1.38156 5.02556 0
M  V30 1457 C 143.991 2.02434 5.5067 0
M  V30 1458 C 146.343 2.47674 5.821 0
M  V30 1459 C 145.007 2.8025 6.05819 0
M  V30 1460 H 144.277 -0.083349 0.736297 0
M  V30 1461 H 146.924 0.494677 1.85001 0
M  V30 1462 H 145.229 -1.37185 3.66998 0
M  V30 1463 H 146.926 -1.03756 3.87344 0
M  V30 1464 H 143.516 0.339437 4.27254 0
M  V30 1465 H 147.7 1.14729 4.82857 0
M  V30 1466 H 142.956 2.28075 5.67267 0
M  V30 1467 H 147.13 3.08716 6.24234 0
M  V30 1468 H 144.757 3.65979 6.66306 0
M  V30 1469 N 146.332 -1.57332 0.0918853 0
M  V30 1470 C 147.264 -2.10869 -0.898168 0
M  V30 1471 C 148.277 -1.04521 -1.24817 0
M  V30 1472 O 149.466 -1.31977 -1.20184 0
M  V30 1473 C 146.566 -2.57083 -2.2082 0
M  V30 1474 C 145.739 -3.87229 -2.03402 0
M  V30 1475 C 144.798 -4.19324 -3.17889 0
M  V30 1476 O 143.824 -4.88598 -2.91994 0
M  V30 1477 N 145.026 -3.74471 -4.43567 0
M  V30 1478 H 147.791 -2.96439 -0.440943 0
M  V30 1479 H 145.352 -1.61631 -0.0933064 0
M  V30 1480 H 147.344 -2.75602 -2.96354 0
M  V30 1481 H 145.914 -1.76541 -2.57977 0
M  V30 1482 H 145.134 -3.7789 -1.12218 0
M  V30 1483 H 146.422 -4.72379 -1.89038 0
M  V30 1484 H 145.82 -3.18546 -4.67488 0
M  V30 1485 H 144.377 -3.98151 -5.16061 0
M  V30 1486 N 147.81 0.181792 -1.56548 0
M  V30 1487 C 148.773 1.20894 -1.94724 0
M  V30 1488 C 149.773 1.37738 -0.829747 0
M  V30 1489 O 150.963 1.35323 -1.09697 0
M  V30 1490 C 148.095 2.57593 -2.23291 0
M  V30 1491 H 149.288 0.882275 -2.86629 0
M  V30 1492 H 146.841 0.423838 -1.50444 0
M  V30 1493 H 147.576 2.95291 -1.34067 0
M  V30 1494 H 147.361 2.46735 -3.04736 0
M  V30 1495 H 148.851 3.31637 -2.53785 0
M  V30 1496 N 149.288 1.51039 0.449983 0
M  V30 1497 C 150.236 1.71995 1.5659 0
M  V30 1498 C 151.23 0.586029 1.5894 0
M  V30 1499 O 152.436 0.76709 1.62837 0
M  V30 1500 H 148.811 0.543233 0.520001 0
M  V30 1501 H 150.782 2.65562 1.36085 0
M  V30 1502 C 149.531 1.8506 2.9436 0
M  V30 1503 H 148.854 2.71712 2.93279 0
M  V30 1504 H 150.294 2.0374 3.71842 0
M  V30 1505 C 148.753 0.607277 3.31382 0
M  V30 1506 O 149.283 -0.243903 4.00959 0
M  V30 1507 N 147.489 0.455073 2.87015 0
M  V30 1508 H 147.036 1.14879 2.30566 0
M  V30 1509 H 146.994 -0.375611 3.12148 0
M  V30 1510 N 150.766 -0.704594 1.40972 0
M  V30 1511 C 151.676 -1.84856 1.44448 0
M  V30 1512 C 152.692 -1.70726 0.335961 0
M  V30 1513 O 153.868 -1.92799 0.582276 0
M  V30 1514 C 150.933 -3.20758 1.31587 0
M  V30 1515 C 149.994 -3.47063 2.52677 0
M  V30 1516 C 149.227 -4.76481 2.4042 0
M  V30 1517 O 149.45 -5.52341 1.42391 0
M  V30 1518 O 148.384 -5.03367 3.30007 0
M  V30 1519 H 152.21 -1.8488 2.40942 0
M  V30 1520 H 149.795 -0.85647 1.22413 0
M  V30 1521 H 151.677 -4.01913 1.26665 0
M  V30 1522 H 150.352 -3.21438 0.382049 0
M  V30 1523 H 149.259 -2.65873 2.63177 0
M  V30 1524 H 150.592 -3.5119 3.44858 0
M  V30 1525 N 152.244 -1.26651 -0.937939 0
M  V30 1526 C 153.49 -1.12553 -1.687 0
M  V30 1527 C 153.823 0.329782 -1.91379 0
M  V30 1528 O 153.098 1.24202 -1.4968 0
M  V30 1529 C 153.381 -1.89862 -3.05981 0
M  V30 1530 C 153.234 -3.43318 -2.90607 0
M  V30 1531 C 154.553 -1.69499 -4.0615 0
M  V30 1532 H 151.672 -0.410257 -0.612257 0
M  V30 1533 H 154.314 -1.55685 -1.08913 0
M  V30 1534 H 152.464 -1.53204 -3.57017 0
M  V30 1535 H 154.136 -3.89747 -2.46769 0
M  V30 1536 H 152.379 -3.70179 -2.26164 0
M  V30 1537 H 153.05 -3.92642 -3.8799 0
M  V30 1538 H 155.526 -2.01442 -3.64088 0
M  V30 1539 H 154.402 -2.26002 -5.00214 0
M  V30 1540 H 154.663 -0.640365 -4.37438 0
M  V30 1541 N 153.722 1.14298 -1.08507 0
M  V30 1542 C 155.138 1.37347 -0.812901 0
M  V30 1543 C 155.338 1.93052 0.577325 0
M  V30 1544 O 154.394 2.14389 1.33393 0
M  V30 1545 C 155.707 2.33359 -1.89642 0
M  V30 1546 C 157.255 2.46996 -1.92255 0
M  V30 1547 C 157.73 3.46309 -2.99724 0
M  V30 1548 N 159.221 3.53853 -2.98902 0
M  V30 1549 C 159.956 4.3055 -3.787 0
M  V30 1550 N 159.452 5.10482 -4.6838 0
M  V30 1551 N 161.245 4.25757 -3.66998 0
M  V30 1552 H 153.396 0.764867 -1.9815 0
M  V30 1553 H 155.659 0.398966 -0.859959 0
M  V30 1554 H 155.365 1.99565 -2.89597 0
M  V30 1555 H 155.239 3.33274 -1.76659 0
M  V30 1556 H 157.626 2.80081 -0.929445 0
M  V30 1557 H 157.707 1.47039 -2.09316 0
M  V30 1558 H 157.351 3.13957 -3.99241 0
M  V30 1559 H 157.281 4.46049 -2.79907 0
M  V30 1560 H 159.772 2.96812 -2.33904 0
M  V30 1561 H 160.085 5.66284 -5.25873 0
M  V30 1562 H 158.43 5.09747 -4.72422 0
M  V30 1563 H 161.621 3.62383 -2.96304 0
M  V30 1564 H 161.794 4.85279 -4.29427 0
M  V30 1565 N 155.201 0.870884 1.31352 0
M  V30 1566 C 156.148 0.325425 2.28494 0
M  V30 1567 C 157.118 -0.576615 1.5577 0
M  V30 1568 O 158.303 -0.508059 1.83911 0
M  V30 1569 C 155.443 -0.466283 3.41935 0
M  V30 1570 C 154.556 0.463378 4.29508 0
M  V30 1571 C 153.691 -0.342544 5.30094 0
M  V30 1572 C 152.73 0.583486 6.09313 0
M  V30 1573 N 151.867 -0.186244 7.01853 0
M  V30 1574 H 156.707 1.15901 2.74538 0
M  V30 1575 H 154.244 0.58294 1.35056 0
M  V30 1576 H 156.202 -0.941085 4.06447 0
M  V30 1577 H 154.832 -1.26456 2.97 0
M  V30 1578 H 153.884 1.05663 3.65431 0
M  V30 1579 H 155.196 1.1734 4.84802 0
M  V30 1580 H 154.35 -0.879816 6.00287 0
M  V30 1581 H 153.089 -1.08585 4.75458 0
M  V30 1582 H 152.094 1.13251 5.3801 0
M  V30 1583 H 153.319 1.32566 6.66035 0
M  V30 1584 H 151.265 -0.912348 6.49625 0
M  V30 1585 H 151.182 0.464422 7.54572 0
M  V30 1586 H 152.45 -0.704716 7.76308 0
M  V30 1587 N 156.679 -1.44442 0.630414 0
M  V30 1588 C 157.925 -2.02351 0.134816 0
M  V30 1589 C 158.258 -1.4947 -1.23986 0
M  V30 1590 O 157.533 -0.678475 -1.82283 0
M  V30 1591 C 157.816 -3.59898 0.120707 0
M  V30 1592 C 157.669 -4.23063 1.52767 0
M  V30 1593 C 158.988 -4.36585 -0.555127 0
M  V30 1594 H 156.107 -0.73527 0.0504646 0
M  V30 1595 H 158.749 -1.72022 0.806751 0
M  V30 1596 H 156.899 -3.85868 -0.451477 0
M  V30 1597 H 158.571 -4.08202 2.14869 0
M  V30 1598 H 156.814 -3.80586 2.08175 0
M  V30 1599 H 157.485 -5.32071 1.46984 0
M  V30 1600 H 159.961 -4.16044 -0.0685429 0
M  V30 1601 H 158.837 -5.46294 -0.534185 0
M  V30 1602 H 159.098 -4.11138 -1.62535 0
M  V30 1603 N 158.157 -0.370918 -1.53173 0
M  V30 1604 C 159.104 0.473035 -2.259 0
M  V30 1605 C 160.074 1.07311 -1.26781 0
M  V30 1606 O 161.259 1.1046 -1.55574 0
M  V30 1607 C 158.399 1.60405 -3.05556 0
M  V30 1608 C 157.512 1.02863 -4.19575 0
M  V30 1609 C 156.647 2.12918 -4.86661 0
M  V30 1610 C 155.686 1.52869 -5.92704 0
M  V30 1611 N 154.823 2.56779 -6.53459 0
M  V30 1612 H 159.663 -0.153649 -2.97604 0
M  V30 1613 H 157.2 -0.0875946 -1.46839 0
M  V30 1614 H 159.158 2.27034 -3.50016 0
M  V30 1615 H 157.788 2.20131 -2.36097 0
M  V30 1616 H 156.84 0.252465 -3.79561 0
M  V30 1617 H 158.152 0.549642 -4.95762 0
M  V30 1618 H 157.306 2.87356 -5.34333 0
M  V30 1619 H 156.045 2.6417 -4.09958 0
M  V30 1620 H 155.05 0.769479 -5.44389 0
M  V30 1621 H 156.275 1.02435 -6.7133 0
M  V30 1622 H 154.221 3.07235 -5.79606 0
M  V30 1623 H 154.138 2.13583 -7.25202 0
M  V30 1624 H 155.406 3.30903 -7.05779 0
M  V30 1625 N 159.635 1.57281 -0.100228 0
M  V30 1626 C 160.582 2.14305 0.856858 0
M  V30 1627 C 161.552 1.06296 1.27634 0
M  V30 1628 O 162.737 1.34109 1.35718 0
M  V30 1629 C 159.877 2.73184 2.10866 0
M  V30 1630 C 158.99 3.95442 1.73925 0
M  V30 1631 C 158.125 4.42468 2.93931 0
M  V30 1632 C 157.164 5.57303 2.5314 0
M  V30 1633 N 156.301 5.99158 3.65997 0
M  V30 1634 H 161.141 2.95772 0.363726 0
M  V30 1635 H 158.678 1.46139 0.167858 0
M  V30 1636 H 160.636 3.05442 2.84185 0
M  V30 1637 H 159.266 1.94437 2.57671 0
M  V30 1638 H 158.318 3.69464 0.905554 0
M  V30 1639 H 159.63 4.78769 1.39935 0
M  V30 1640 H 158.784 4.76537 3.75496 0
M  V30 1641 H 157.523 3.58052 3.31134 0
M  V30 1642 H 156.528 5.22857 1.70003 0
M  V30 1643 H 157.753 6.43471 2.17075 0
M  V30 1644 H 155.699 5.17687 4.02909 0
M  V30 1645 H 155.616 6.77295 3.35869 0
M  V30 1646 H 156.884 6.3786 4.48057 0
M  V30 1647 N 161.113 -0.173488 1.56642 0
M  V30 1648 C 162.36 -0.890465 1.81871 0
M  V30 1649 C 162.688 -1.82339 0.67696 0
M  V30 1650 O 161.943 -1.92795 -0.335926 0
M  V30 1651 C 162.242 -1.72069 3.13252 0
M  V30 1652 C 161.908 -0.936878 4.41059 0
M  V30 1653 C 160.57 -0.720545 4.75775 0
M  V30 1654 C 162.922 -0.386919 5.19762 0
M  V30 1655 C 160.25 0.0568829 5.86672 0
M  V30 1656 C 162.602 0.37741 6.31473 0
M  V30 1657 C 161.266 0.604563 6.64757 0
M  V30 1658 H 160.536 -0.325844 0.665512 0
M  V30 1659 H 163.183 -0.155527 1.90867 0
M  V30 1660 H 161.488 -2.52496 2.99588 0
M  V30 1661 H 163.185 -2.27844 3.29982 0
M  V30 1662 H 159.775 -1.11553 4.13828 0
M  V30 1663 H 163.959 -0.541398 4.93338 0
M  V30 1664 H 159.215 0.242635 6.10918 0
M  V30 1665 H 163.389 0.810825 6.91664 0
M  V30 1666 H 161.016 1.20885 7.50527 0
M  V30 1667 N 162.591 -1.51276 -0.441967 0
M  V30 1668 C 163.501 -1.75092 -1.56141 0
M  V30 1669 C 164.517 -0.634963 -1.62001 0
M  V30 1670 O 165.693 -0.916686 -1.79329 0
M  V30 1671 C 162.758 -1.86666 -2.92158 0
M  V30 1672 C 161.819 -3.10506 -2.96453 0
M  V30 1673 C 161.052 -3.21519 -4.25982 0
M  V30 1674 O 161.275 -2.38586 -5.18105 0
M  V30 1675 O 160.209 -4.14465 -4.36466 0
M  V30 1676 H 164.035 -2.70044 -1.38961 0
M  V30 1677 H 161.62 -1.35722 -0.624499 0
M  V30 1678 H 163.502 -1.96292 -3.72891 0
M  V30 1679 H 162.177 -0.949014 -3.09476 0
M  V30 1680 H 161.084 -3.06363 -2.14692 0
M  V30 1681 H 162.417 -4.01945 -2.84079 0
M  V30 1682 N 164.069 0.697108 -1.41344 0
M  V30 1683 C 165.001 1.8224 -1.39001 0
M  V30 1684 C 166.014 1.60152 -0.292428 0
M  V30 1685 O 167.203 1.69684 -0.554048 0
M  V30 1686 C 164.303 3.18976 -1.14489 0
M  V30 1687 C 163.476 3.68105 -2.36258 0
M  V30 1688 C 162.535 4.83506 -2.07625 0
M  V30 1689 O 161.561 4.95201 -2.8065 0
M  V30 1690 N 162.763 5.70637 -1.06555 0
M  V30 1691 H 165.528 1.84742 -2.35988 0
M  V30 1692 H 163.089 0.87937 -1.35936 0
M  V30 1693 H 165.081 3.93801 -0.932885 0
M  V30 1694 H 163.651 3.11508 -0.261043 0
M  V30 1695 H 162.871 2.84204 -2.7317 0
M  V30 1696 H 164.159 3.97667 -3.17393 0
M  V30 1697 H 163.557 5.63817 -0.461125 0
M  V30 1698 H 162.114 6.45368 -0.913444 0
M  V30 1699 N 165.547 1.27147 0.931209 0
M  V30 1700 C 166.795 1.13055 1.6752 0
M  V30 1701 C 167.116 -0.324791 1.92276 0
M  V30 1702 O 166.386 -1.22775 1.52654 0
M  V30 1703 H 164.966 0.415391 0.620854 0
M  V30 1704 H 167.628 1.59623 1.11833 0
M  V30 1705 H 166.724 1.65694 2.64485 0
M  V30 1706 N 167.025 -1.13721 1.09112 0
M  V30 1707 C 168.272 -1.84924 0.825192 0
M  V30 1708 C 168.6 -1.83347 -0.649151 0
M  V30 1709 O 167.855 -1.26449 -1.49362 0
M  V30 1710 C 168.154 -3.32861 1.30146 0
M  V30 1711 C 167.82 -3.54621 2.78486 0
M  V30 1712 C 166.482 -3.60268 3.18999 0
M  V30 1713 C 168.834 -3.62855 3.74146 0
M  V30 1714 C 166.162 -3.71679 4.53951 0
M  V30 1715 C 168.514 -3.75793 5.08883 0
M  V30 1716 C 167.178 -3.79692 5.4899 0
M  V30 1717 H 166.448 -0.676684 0.301959 0
M  V30 1718 H 169.095 -1.3428 1.36533 0
M  V30 1719 H 167.4 -3.85835 0.681064 0
M  V30 1720 H 169.097 -3.86395 1.07236 0
M  V30 1721 H 165.687 -3.50879 2.46134 0
M  V30 1722 H 169.871 -3.57775 3.43963 0
M  V30 1723 H 165.127 -3.72963 4.84467 0
M  V30 1724 H 169.301 -3.81107 5.82864 0
M  V30 1725 H 166.928 -3.88287 6.53558 0
M  V30 1726 N 168.503 -0.877838 -1.30888 0
M  V30 1727 C 169.752 -0.488793 -1.95688 0
M  V30 1728 C 170.065 0.965485 -1.70111 0
M  V30 1729 O 171.271 1.46104 -2.28836 0
M  V30 1730 C 169.727 -0.823201 -3.50359 0
M  V30 1731 C 169.335 -2.29477 -3.84765 0
M  V30 1732 C 171.079 -0.503009 -4.21509 0
M  V30 1733 C 168.986 -2.57118 -5.32583 0
M  V30 1734 H 167.916 -0.179062 -0.732429 0
M  V30 1735 H 170.567 -1.07183 -1.48943 0
M  V30 1736 H 168.949 -0.169331 -3.95638 0
M  V30 1737 H 170.123 -2.99236 -3.5042 0
M  V30 1738 H 168.438 -2.58178 -3.267 0
M  V30 1739 H 171.035 -0.68665 -5.30273 0
M  V30 1740 H 171.378 0.557109 -4.12555 0
M  V30 1741 H 171.911 -1.11376 -3.8189 0
M  V30 1742 H 168.65 -3.61843 -5.4658 0
M  V30 1743 H 168.17 -1.91961 -5.68253 0
M  V30 1744 H 169.849 -2.42251 -5.99936 0
M  V30 1745 N 169.982 1.44106 -0.638065 0
M  V30 1746 C 171.21 2.06336 -0.152615 0
M  V30 1747 C 171.625 1.47731 1.17563 0
M  V30 1748 O 170.982 0.602806 1.72257 0
M  V30 1749 C 171.033 3.61479 -0.0391491 0
M  V30 1750 O 170.754 4.17903 -1.31487 0
M  V30 1751 C 172.255 4.40757 0.474176 0
M  V30 1752 H 169.475 0.665862 -0.0828776 0
M  V30 1753 H 172.019 1.84862 -0.87443 0
M  V30 1754 H 170.174 3.82191 0.633142 0
M  V30 1755 H 170.588 5.11416 -1.16421 0
M  V30 1756 H 172.062 5.49707 0.502562 0
M  V30 1757 H 172.539 4.12697 1.50258 0
M  V30 1758 H 173.145 4.24979 -0.165102 0
M  V30 1759 N 171.46 0.379036 1.52974 0
M  V30 1760 C 172.737 -0.263479 1.93817 0
M  V30 1761 C 173.117 -1.65244 1.31368 0
M  V30 1762 O 172.465 -2.23448 0.477856 0
M  V30 1763 C 172.675 -0.300166 3.47707 0
M  V30 1764 C 174.023 -0.534061 4.21228 0
M  V30 1765 O 175.047 -0.38081 3.54159 0
M  V30 1766 O 173.906 -0.833501 5.40106 0
M  V30 1767 H 171 -0.161149 0.811147 0
M  V30 1768 H 173.546 0.432798 1.64088 0
M  V30 1769 H 172.318 0.673138 3.85467 0
M  V30 1770 H 171.941 -1.04179 3.83709 0
M  V30 1771 N 172.938 -1.57226 0.108567 0
M  V30 1772 C 174.349 -1.8195 -0.418464 0
M  V30 1773 C 174.7 -1.02508 -1.67292 0
M  V30 1774 O 173.825 -0.258496 -2.14851 0
M  V30 1775 C 174.42 -3.30028 -0.765979 0
M  V30 1776 C 172.979 -3.55469 -1.23769 0
M  V30 1777 C 172.126 -2.7625 -0.241106 0
M  V30 1778 H 175.077 -1.55149 0.33384 0
M  V30 1779 H 175.098 -3.44086 -1.62434 0
M  V30 1780 H 174.61 -3.87821 0.147219 0
M  V30 1781 H 172.711 -3.03022 -2.16814 0
M  V30 1782 H 172.824 -4.6408 -1.19022 0
M  V30 1783 H 171.188 -2.44133 -0.72602 0
M  V30 1784 H 171.971 -3.36797 0.665007 0
M  V30 1785 N 174.416 0.165178 -1.56732 0
M  V30 1786 C 175.662 0.882112 -1.82611 0
M  V30 1787 C 175.995 1.81628 -0.687378 0
M  V30 1788 O 175.27 1.92009 0.310267 0
M  V30 1789 C 175.553 1.67245 -3.18906 0
M  V30 1790 C 175.406 0.760987 -4.43316 0
M  V30 1791 C 176.725 2.63884 -3.52212 0
M  V30 1792 H 173.844 0.319242 -0.664269 0
M  V30 1793 H 176.486 0.148052 -1.89422 0
M  V30 1794 H 174.636 2.29824 -3.1323 0
M  V30 1795 H 176.308 0.147596 -4.61064 0
M  V30 1796 H 174.551 0.0694102 -4.33744 0
M  V30 1797 H 175.222 1.34962 -5.35247 0
M  V30 1798 H 177.698 2.11429 -3.58381 0
M  V30 1799 H 176.574 3.16245 -4.48643 0
M  V30 1800 H 176.835 3.44377 -2.77231 0
M  V30 1801 N 175.894 1.51508 0.433938 0
M  V30 1802 C 177.14 1.64588 1.18484 0
M  V30 1803 C 177.473 0.362666 1.90784 0
M  V30 1804 O 176.748 -0.637892 1.83742 0
M  V30 1805 C 177.031 2.85149 2.19913 0
M  V30 1806 C 176.884 4.23456 1.51674 0
M  V30 1807 C 178.203 3.01227 3.20858 0
M  V30 1808 H 175.322 0.598994 0.429389 0
M  V30 1809 H 177.964 1.84002 0.473647 0
M  V30 1810 H 176.114 2.68729 2.80566 0
M  V30 1811 H 177.786 4.51552 0.943322 0
M  V30 1812 H 176.029 4.25998 0.819035 0
M  V30 1813 H 176.7 5.03812 2.2556 0
M  V30 1814 H 179.176 3.16382 2.70263 0
M  V30 1815 H 178.052 3.87141 3.89118 0
M  V30 1816 H 178.313 2.13447 3.8716 0
M  V30 1817 N 177.372 -0.689602 1.41712 0
M  V30 1818 C 178.302 -1.81577 1.46806 0
M  V30 1819 C 179.283 -1.66945 0.326105 0
M  V30 1820 O 180.468 -1.86588 0.538377 0
M  V30 1821 C 177.598 -3.19762 1.35535 0
M  V30 1822 C 176.552 -3.49107 2.47605 0
M  V30 1823 C 175.878 -4.86711 2.21397 0
M  V30 1824 C 177.178 -3.47483 3.89939 0
M  V30 1825 H 178.872 -1.7757 2.41058 0
M  V30 1826 H 176.418 -0.852887 1.16025 0
M  V30 1827 H 178.371 -3.98263 1.3771 0
M  V30 1828 H 177.095 -3.24409 0.377708 0
M  V30 1829 H 175.754 -2.72959 2.44722 0
M  V30 1830 H 175.402 -4.8799 1.21961 0
M  V30 1831 H 175.102 -5.0731 2.96497 0
M  V30 1832 H 176.626 -5.67515 2.25297 0
M  V30 1833 H 178.04 -4.1598 3.94505 0
M  V30 1834 H 176.437 -3.79615 4.64771 0
M  V30 1835 H 177.507 -2.46341 4.17665 0
M  V30 1836 N 178.85 -1.27639 -0.924453 0
M  V30 1837 C 180.075 -1.17101 -1.71179 0
M  V30 1838 C 180.5 0.268134 -1.86179 0
M  V30 1839 O 179.858 1.19415 -1.36418 0
M  V30 1840 C 179.906 -1.86313 -3.08739 0
M  V30 1841 O 179.01 -1.16331 -3.95652 0
M  V30 1842 H 178.351 -0.407091 -0.524569 0
M  V30 1843 H 180.881 -1.68767 -1.15666 0
M  V30 1844 H 180.891 -1.938 -3.59034 0
M  V30 1845 H 179.566 -2.91001 -2.97138 0
M  V30 1846 H 178.143 -1.16935 -3.54091 0
M  V30 1847 N 180.328 1.1314 -1.09713 0
M  V30 1848 C 181.739 1.66029 -0.853885 0
M  V30 1849 C 182.09 1.86241 0.617142 0
M  V30 1850 O 181.215 1.5834 1.47503 0
M  V30 1851 C 181.81 3.01599 -1.5435 0
M  V30 1852 C 180.369 3.51467 -1.34714 0
M  V30 1853 C 179.516 2.26648 -1.59769 0
M  V30 1854 H 182.467 0.970226 -1.25588 0
M  V30 1855 H 182.488 3.67709 -0.978267 0
M  V30 1856 H 182 2.86856 -2.6141 0
M  V30 1857 H 180.101 3.71408 -0.297838 0
M  V30 1858 H 180.214 4.314 -2.08401 0
M  V30 1859 H 178.578 2.33385 -1.01998 0
M  V30 1860 H 179.361 2.14467 -2.68065 0
M  V30 1861 N 181.806 0.884767 1.30421 0
M  V30 1862 C 183.031 0.517288 2.00845 0
M  V30 1863 C 183.456 -0.886779 1.65885 0
M  V30 1864 O 182.814 -1.58768 0.875354 0
M  V30 1865 C 182.862 0.698994 3.5376 0
M  V30 1866 O 181.966 -0.255208 4.1161 0
M  V30 1867 H 181.307 0.203872 0.631927 0
M  V30 1868 H 183.837 1.19225 1.66272 0
M  V30 1869 H 183.847 0.597912 4.03595 0
M  V30 1870 H 182.522 1.72271 3.78544 0
M  V30 1871 H 181.099 -0.10784 3.72744 0
M  V30 1872 N 183.284 -1.43765 0.645699 0
M  V30 1873 C 184.234 -2.27884 -0.0726442 0
M  V30 1874 C 185.218 -1.39483 -0.802086 0
M  V30 1875 O 186.41 -1.63174 -0.685791 0
M  V30 1876 C 183.539 -3.27055 -1.04356 0
M  V30 1877 C 182.625 -4.22944 -0.312985 0
M  V30 1878 N 183.016 -5.01391 0.666386 0
M  V30 1879 C 181.314 -4.42528 -0.55546 0
M  V30 1880 C 182.015 -5.71217 1.09935 0
M  V30 1881 N 180.991 -5.41856 0.435137 0
M  V30 1882 H 184.793 -2.85949 0.678988 0
M  V30 1883 H 182.307 -1.55378 0.472368 0
M  V30 1884 H 184.304 -3.86089 -1.57292 0
M  V30 1885 H 182.964 -2.70551 -1.79534 0
M  V30 1886 H 183.975 -5.07252 1.04481 0
M  V30 1887 H 180.652 -3.97104 -1.28899 0
M  V30 1888 H 182.042 -6.44202 1.90929 0
M  V30 1889 N 184.763 -0.387143 -1.52771 0
M  V30 1890 C 185.991 0.195869 -2.05971 0
M  V30 1891 C 186.406 1.40691 -1.25903 0
M  V30 1892 O 185.763 1.79931 -0.305134 0
M  V30 1893 C 185.814 0.56812 -3.57008 0
M  V30 1894 O 185.535 -0.594803 -4.34043 0
M  V30 1895 C 187.036 1.20723 -4.26545 0
M  V30 1896 H 184.256 0.0300578 -0.670326 0
M  V30 1897 H 186.8 -0.551749 -1.96916 0
M  V30 1898 H 184.955 1.26564 -3.66143 0
M  V30 1899 H 185.369 -0.289322 -5.23701 0
M  V30 1900 H 186.843 1.41807 -5.33474 0
M  V30 1901 H 187.32 2.17395 -3.81623 0
M  V30 1902 H 187.926 0.550535 -4.21722 0
M  V30 1903 N 186.241 1.57166 -0.116904 0
M  V30 1904 C 187.487 1.95412 0.542405 0
M  V30 1905 C 187.82 1.00019 1.66463 0
M  V30 1906 O 187.095 0.0370346 1.94465 0
M  V30 1907 C 187.378 3.43615 1.07708 0
M  V30 1908 C 187.231 4.49781 -0.0415868 0
M  V30 1909 C 188.55 3.93616 1.96861 0
M  V30 1910 H 185.669 0.710543 0.195696 0
M  V30 1911 H 188.311 1.89027 -0.192038 0
M  V30 1912 H 186.461 3.49187 1.70296 0
M  V30 1913 H 188.133 4.56308 -0.676793 0
M  V30 1914 H 186.376 4.28033 -0.705019 0
M  V30 1915 H 187.047 5.50733 0.373717 0
M  V30 1916 H 189.523 3.90335 1.44146 0
M  V30 1917 H 188.399 4.97838 2.3119 0
M  V30 1918 H 188.66 3.34188 2.89432 0
M  V30 1919 N 187.719 -0.156864 1.56817 0
M  V30 1920 C 188.967 -0.869404 1.82444 0
M  V30 1921 C 189.288 -1.82147 0.69623 0
M  V30 1922 O 188.558 -1.93847 -0.28287 0
M  V30 1923 H 187.138 -0.324043 0.673056 0
M  V30 1924 H 189.8 -0.153224 1.94297 0
M  V30 1925 H 188.896 -1.43761 2.77019 0
M  V30 1926 N 189.197 -1.51736 -0.425897 0
M  V30 1927 C 190.474 -1.55519 -1.1863 0
M  V30 1928 C 190.854 -0.326219 -2.08564 0
M  V30 1929 O 190.202 0.688012 -2.17896 0
M  V30 1930 C 190.412 -2.87521 -1.9782 0
M  V30 1931 C 191.76 -3.39899 -2.54468 0
M  V30 1932 O 192.784 -2.89148 -2.08019 0
M  V30 1933 O 191.643 -4.2848 -3.39215 0
M  V30 1934 H 188.737 -0.625739 -0.540721 0
M  V30 1935 H 191.283 -1.64055 -0.434038 0
M  V30 1936 H 190.055 -3.68422 -1.31836 0
M  V30 1937 H 189.678 -2.822 -2.80088 0
M  V30 1938 N 190.675 0.682077 -1.42076 0
M  V30 1939 C 191.921 1.44428 -1.42367 0
M  V30 1940 C 192.254 1.94164 -0.0373056 0
M  V30 1941 O 191.529 1.70429 0.937239 0
M  V30 1942 C 191.812 2.64654 -2.44194 0
M  V30 1943 C 191.665 2.20596 -3.91991 0
M  V30 1944 C 192.984 3.66865 -2.431 0
M  V30 1945 H 190.103 0.523834 -0.518428 0
M  V30 1946 H 192.745 0.77576 -1.73442 0
M  V30 1947 H 190.895 3.2169 -2.17826 0
M  V30 1948 H 192.567 1.68783 -4.29313 0
M  V30 1949 H 190.81 1.52242 -4.06208 0
M  V30 1950 H 191.481 3.06921 -4.58807 0
M  V30 1951 H 193.957 3.19531 -2.66532 0
M  V30 1952 H 192.833 4.48577 -3.16339 0
M  V30 1953 H 193.094 4.17493 -1.45437 0
M  V30 1954 N 192.153 1.28127 0.917671 0
M  V30 1955 C 193.083 1.14248 2.03641 0
M  V30 1956 C 194.064 0.0412748 1.7005 0
M  V30 1957 O 195.249 0.217566 1.92977 0
M  V30 1958 C 192.379 0.799431 3.37974 0
M  V30 1959 C 191.333 1.85497 3.85713 0
M  V30 1960 C 190.659 1.36565 5.16966 0
M  V30 1961 C 191.959 3.26085 4.08002 0
M  V30 1962 H 193.653 2.07835 2.15511 0
M  V30 1963 H 191.199 1.00064 1.03553 0
M  V30 1964 H 193.152 0.689114 4.15727 0
M  V30 1965 H 191.876 -0.172145 3.26146 0
M  V30 1966 H 190.535 1.95437 3.10161 0
M  V30 1967 H 190.183 0.383253 5.01538 0
M  V30 1968 H 189.883 2.07143 5.49878 0
M  V30 1969 H 191.407 1.26848 5.97279 0
M  V30 1970 H 192.821 3.19089 4.76293 0
M  V30 1971 H 191.218 3.94462 4.52238 0
M  V30 1972 H 192.288 3.70394 3.12948 0
M  V30 1973 N 193.631 -1.12557 1.10312 0
M  V30 1974 C 194.541 -2.21841 0.763142 0
M  V30 1975 C 195.557 -1.72354 -0.238801 0
M  V30 1976 O 196.733 -2.01249 -0.0778746 0
M  V30 1977 C 193.798 -3.46131 0.198632 0
M  V30 1978 C 192.859 -4.10464 1.25769 0
M  V30 1979 C 192.092 -5.28821 0.72002 0
M  V30 1980 O 192.315 -5.6859 -0.453993 0
M  V30 1981 O 191.249 -5.83437 1.47935 0
M  V30 1982 H 195.075 -2.53312 1.67532 0
M  V30 1983 H 192.66 -1.20867 0.878157 0
M  V30 1984 H 194.542 -4.2125 -0.112401 0
M  V30 1985 H 193.217 -3.16338 -0.686419 0
M  V30 1986 H 192.124 -3.3713 1.62156 0
M  V30 1987 H 193.457 -4.44408 2.11571 0
M  V30 1988 N 195.109 -0.891671 -1.2995 0
M  V30 1989 C 196.072 -0.36828 -2.26222 0
M  V30 1990 C 197.072 0.493014 -1.53056 0
M  V30 1991 O 198.262 0.299213 -1.71611 0
M  V30 1992 C 195.394 0.47442 -3.37583 0
M  V30 1993 H 196.587 -1.21844 -2.74033 0
M  V30 1994 H 194.14 -0.669107 -1.41254 0
M  V30 1995 H 194.875 1.34489 -2.95099 0
M  V30 1996 H 194.66 -0.142615 -3.91841 0
M  V30 1997 H 196.15 0.83218 -4.09224 0
M  V30 1998 N 196.587 1.43421 -0.653314 0
M  V30 1999 C 197.534 2.30768 0.0382271 0
M  V30 2000 C 198.504 1.44755 0.814576 0
M  V30 2001 O 199.689 1.73624 0.791162 0
M  V30 2002 C 196.829 3.30336 0.998599 0
M  V30 2003 C 195.942 4.31448 0.218342 0
M  V30 2004 C 195.077 5.18098 1.17252 0
M  V30 2005 C 194.116 6.10902 0.382702 0
M  V30 2006 N 193.253 6.90176 1.28848 0
M  V30 2007 H 198.093 2.89357 -0.712511 0
M  V30 2008 H 195.63 1.42548 -0.363128 0
M  V30 2009 H 197.588 3.86572 1.56901 0
M  V30 2010 H 196.218 2.73397 1.71621 0
M  V30 2011 H 195.27 3.77506 -0.46836 0
M  V30 2012 H 196.582 4.97227 -0.395812 0
M  V30 2013 H 195.736 5.7896 1.81356 0
M  V30 2014 H 194.475 4.52444 1.82058 0
M  V30 2015 H 193.48 5.49128 -0.27169 0
M  V30 2016 H 194.705 6.78598 -0.260957 0
M  V30 2017 H 192.651 6.27171 1.92334 0
M  V30 2018 H 192.568 7.52478 0.728887 0
M  V30 2019 H 193.836 7.55543 1.91766 0
M  V30 2020 N 198.065 0.39524 1.52563 0
M  V30 2021 C 198.998 -0.4813 2.23067 0
M  V30 2022 C 199.976 -1.05927 1.23362 0
M  V30 2023 O 201.16 -1.10979 1.52368 0
M  V30 2024 C 198.287 -1.66676 2.9485 0
M  V30 2025 C 197.333 -1.21348 4.08873 0
M  V30 2026 S 198.166 -0.190102 5.35162 0
M  V30 2027 C 199.322 -1.38121 6.1047 0
M  V30 2028 H 199.555 0.117381 2.97068 0
M  V30 2029 H 197.088 0.179458 1.53354 0
M  V30 2030 H 199.046 -2.3466 3.36816 0
M  V30 2031 H 197.707 -2.23676 2.20518 0
M  V30 2032 H 196.9 -2.09877 4.58222 0
M  V30 2033 H 196.502 -0.612486 3.68951 0
M  V30 2034 H 198.794 -2.30726 6.37002 0
M  V30 2035 H 199.737 -0.928521 7.01986 0
M  V30 2036 H 200.145 -1.60071 5.41329 0
M  V30 2037 N 199.544 -1.57102 0.125237 0
M  V30 2038 C 200.96 -1.57915 -0.231322 0
M  V30 2039 C 201.16 -1.13833 -1.66266 0
M  V30 2040 O 200.216 -0.828581 -2.38518 0
M  V30 2041 C 201.529 -3.00699 0.00766489 0
M  V30 2042 C 203.077 -3.12947 -0.0577483 0
M  V30 2043 C 203.552 -4.57742 0.153626 0
M  V30 2044 N 205.043 -4.63092 0.0998073 0
M  V30 2045 C 205.778 -5.72905 0.238174 0
M  V30 2046 N 205.274 -6.91445 0.433057 0
M  V30 2047 N 207.067 -5.6182 0.177308 0
M  V30 2048 H 199.218 -1.84055 1.06007 0
M  V30 2049 H 201.481 -0.850905 0.417929 0
M  V30 2050 H 201.187 -3.3726 0.997431 0
M  V30 2051 H 201.061 -3.70236 -0.721452 0
M  V30 2052 H 203.448 -2.7624 -1.03804 0
M  V30 2053 H 203.529 -2.4594 0.70335 0
M  V30 2054 H 203.173 -4.95149 1.13092 0
M  V30 2055 H 203.103 -5.22848 -0.627534 0
M  V30 2056 H 205.594 -3.77871 -0.047051 0
M  V30 2057 H 205.907 -7.70985 0.529332 0
M  V30 2058 H 204.252 -6.93415 0.469109 0
M  V30 2059 H 207.443 -4.68093 0.0259748 0
M  V30 2060 H 207.616 -6.47357 0.288582 0
M  V30 2061 N 201.022 0.148545 -1.56898 0
M  V30 2062 C 201.972 1.1886 -1.94567 0
M  V30 2063 C 202.956 1.3863 -0.816735 0
M  V30 2064 O 204.148 1.40218 -1.08018 0
M  V30 2065 C 201.277 2.52262 -2.32849 0
M  V30 2066 C 200.363 2.36092 -3.52309 0
M  V30 2067 N 200.754 1.89674 -4.6889 0
M  V30 2068 C 199.052 2.66848 -3.57363 0
M  V30 2069 C 199.753 1.86511 -5.50989 0
M  V30 2070 N 198.729 2.29766 -4.92655 0
M  V30 2071 H 202.531 0.821793 -2.82177 0
M  V30 2072 H 200.045 0.356615 -1.58436 0
M  V30 2073 H 202.042 3.27447 -2.58039 0
M  V30 2074 H 200.702 2.89727 -1.46589 0
M  V30 2075 H 201.713 1.59663 -4.92674 0
M  V30 2076 H 198.39 3.08198 -2.81639 0
M  V30 2077 H 199.78 1.52128 -6.54452 0
M  V30 2078 N 202.5 1.5196 0.417844 0
M  V30 2079 C 203.748 1.65263 1.16329 0
M  V30 2080 C 204.069 0.380634 1.91249 0
M  V30 2081 O 203.339 -0.604214 1.86349 0
M  V30 2082 H 201.919 0.60912 0.432414 0
M  V30 2083 H 204.581 1.88969 0.477162 0
M  V30 2084 H 203.677 2.4896 1.88217 0
M  V30 2085 N 203.978 -0.674533 1.42435 0
M  V30 2086 C 205.225 -1.43459 1.42919 0
M  V30 2087 C 205.553 -1.94446 0.0457312 0
M  V30 2088 O 204.808 -1.7132 -0.94593 0
M  V30 2089 C 205.107 -2.64767 2.40069 0
M  V30 2090 C 204.773 -2.3232 3.86443 0
M  V30 2091 C 203.435 -2.23182 4.26314 0
M  V30 2092 C 205.787 -2.05977 4.78773 0
M  V30 2093 C 203.115 -1.85827 5.56494 0
M  V30 2094 C 205.467 -1.70125 6.09295 0
M  V30 2095 C 204.131 -1.59498 6.48164 0
M  V30 2096 H 203.401 -0.524952 0.522978 0
M  V30 2097 H 206.048 -0.769097 1.75377 0
M  V30 2098 H 204.353 -3.36349 2.00939 0
M  V30 2099 H 206.05 -3.22949 2.37707 0
M  V30 2100 H 202.64 -2.40334 3.54877 0
M  V30 2101 H 206.824 -2.11969 4.48757 0
M  V30 2102 H 202.08 -1.76168 5.8547 0
M  V30 2103 H 206.254 -1.48767 6.80324 0
M  V30 2104 H 203.881 -1.30322 7.48946 0
M  V30 2105 N 205.456 -1.28612 -0.910864 0
M  V30 2106 C 206.681 -1.1891 -1.69927 0
M  V30 2107 C 207.106 0.248372 -1.86453 0
M  V30 2108 O 206.464 1.17961 -1.37676 0
M  V30 2109 C 206.512 -1.89578 -3.06745 0
M  V30 2110 O 205.616 -1.20521 -3.94396 0
M  V30 2111 H 204.957 -0.412632 -0.520222 0
M  V30 2112 H 207.487 -1.69985 -1.1387 0
M  V30 2113 H 207.497 -1.97597 -3.56958 0
M  V30 2114 H 206.172 -2.94136 -2.94035 0
M  V30 2115 H 204.749 -1.20684 -3.52831 0
M  V30 2116 N 206.934 1.1197 -1.10907 0
M  V30 2117 C 208.182 1.83225 -0.852819 0
M  V30 2118 C 208.503 1.84769 0.623341 0
M  V30 2119 O 207.773 1.3143 1.45269 0
M  V30 2120 H 206.353 0.67849 -0.312507 0
M  V30 2121 H 209.015 1.3556 -1.40033 0
M  V30 2122 H 208.111 2.87265 -1.22005 0
M  V30 2123 N 208.412 0.89855 1.29475 0
M  V30 2124 C 209.661 0.519863 1.94885 0
M  V30 2125 C 209.974 -0.9383 1.71625 0
M  V30 2126 O 211.18 -1.42445 2.31131 0
M  V30 2127 C 209.636 0.878836 3.49005 0
M  V30 2128 C 209.244 2.35569 3.81066 0
M  V30 2129 C 210.988 0.570004 4.20656 0
M  V30 2130 C 208.895 2.65558 5.28425 0
M  V30 2131 H 207.825 0.190692 0.729488 0
M  V30 2132 H 210.476 1.09539 1.47219 0
M  V30 2133 H 208.858 0.232253 3.95318 0
M  V30 2134 H 210.032 3.04773 3.45616 0
M  V30 2135 H 208.347 2.63343 3.22552 0
M  V30 2136 H 210.944 0.770925 5.29113 0
M  V30 2137 H 211.287 -0.491404 4.1339 0
M  V30 2138 H 211.82 1.17438 3.8007 0
M  V30 2139 H 208.559 3.70493 5.40754 0
M  V30 2140 H 208.079 2.00977 5.65127 0
M  V30 2141 H 209.758 2.51765 5.96006 0
M  V30 2142 N 209.89 -1.43072 0.660911 0
M  V30 2143 C 211.301 -1.84932 0.256348 0
M  V30 2144 C 211.652 -1.55325 -1.19868 0
M  V30 2145 O 210.777 -1.00607 -1.91591 0
M  V30 2146 C 211.372 -3.35684 0.458475 0
M  V30 2147 C 209.931 -3.76245 0.108161 0
M  V30 2148 C 209.078 -2.66749 0.757641 0
M  V30 2149 H 212.029 -1.33116 0.864051 0
M  V30 2150 H 212.05 -3.79365 -0.293683 0
M  V30 2151 H 211.562 -3.572 1.51755 0
M  V30 2152 H 209.663 -3.60338 -0.948014 0
M  V30 2153 H 209.776 -4.76058 0.538992 0
M  V30 2154 H 208.14 -2.53989 0.190185 0
M  V30 2155 H 208.923 -2.91092 1.81989 0
M  V30 2156 N 211.368 -0.403325 -1.52352 0
M  V30 2157 C 212.617 0.175668 -2.00934 0
M  V30 2158 C 212.93 1.46718 -1.29356 0
M  V30 2159 O 214.136 2.12708 -1.68724 0
M  V30 2160 C 212.592 0.363612 -3.58058 0
M  V30 2161 C 212.2 -0.915472 -4.38547 0
M  V30 2162 C 213.944 0.89821 -4.14888 0
M  V30 2163 C 211.851 -0.695035 -5.87302 0
M  V30 2164 H 210.781 0.0694234 -0.750797 0
M  V30 2165 H 213.432 -0.527879 -1.75743 0
M  V30 2166 H 211.814 1.12935 -3.79555 0
M  V30 2167 H 212.988 -1.68691 -4.28812 0
M  V30 2168 H 211.303 -1.37606 -3.93006 0
M  V30 2169 H 213.9 1.07907 -5.23699 0
M  V30 2170 H 214.243 1.87126 -3.71873 0
M  V30 2171 H 214.776 0.191681 -3.97338 0
M  V30 2172 H 211.515 -1.63948 -6.34666 0
M  V30 2173 H 211.035 0.0372116 -5.99788 0
M  V30 2174 H 212.714 -0.33497 -6.46132 0
M  V30 2175 N 212.846 1.57033 -0.133567 0
M  V30 2176 C 214.074 2.00044 0.528195 0
M  V30 2177 C 214.489 1.01349 1.59291 0
M  V30 2178 O 213.846 0.00848369 1.82498 0
M  V30 2179 C 213.897 3.43018 1.1411 0
M  V30 2180 O 213.618 4.37939 0.11892 0
M  V30 2181 C 215.119 4.01237 1.88477 0
M  V30 2182 H 212.339 0.656517 0.138661 0
M  V30 2183 H 214.883 2.03267 -0.224196 0
M  V30 2184 H 213.038 3.40688 1.84418 0
M  V30 2185 H 213.452 5.21436 0.56613 0
M  V30 2186 H 214.926 5.03314 2.26669 0
M  V30 2187 H 215.403 3.41193 2.76558 0
M  V30 2188 H 216.009 4.07156 1.22898 0
M  V30 2189 N 214.325 -0.140222 1.56975 0
M  V30 2190 C 215.235 -1.19223 2.02047 0
M  V30 2191 C 216.251 -1.46612 0.937062 0
M  V30 2192 O 217.427 -1.58148 1.24704 0
M  V30 2193 C 214.492 -2.50414 2.39778 0
M  V30 2194 C 213.553 -2.30612 3.621 0
M  V30 2195 C 212.786 -3.55547 3.98023 0
M  V30 2196 O 213.009 -4.62004 3.34528 0
M  V30 2197 O 211.943 -3.47808 4.91237 0
M  V30 2198 H 215.769 -0.839559 2.91865 0
M  V30 2199 H 213.354 -0.349453 1.45256 0
M  V30 2200 H 215.236 -3.27747 2.64877 0
M  V30 2201 H 213.911 -2.85198 1.53114 0
M  V30 2202 H 212.818 -1.51207 3.4218 0
M  V30 2203 H 214.151 -2.00741 4.49404 0
M  V30 2204 N 215.803 -1.52179 -0.40978 0
M  V30 2205 C 217.031 -1.70054 -1.17853 0
M  V30 2206 C 217.446 -0.409735 -1.843 0
M  V30 2207 O 216.803 0.614183 -1.71855 0
M  V30 2208 C 216.854 -2.83568 -2.24213 0
M  V30 2209 O 216.575 -4.0765 -1.60478 0
M  V30 2210 C 218.076 -3.12947 -3.13973 0
M  V30 2211 H 215.296 -0.569917 -0.354169 0
M  V30 2212 H 217.84 -1.98734 -0.482198 0
M  V30 2213 H 215.995 -2.57409 -2.89516 0
M  V30 2214 H 216.409 -4.70899 -2.30986 0
M  V30 2215 H 217.883 -3.95889 -3.84677 0
M  V30 2216 H 218.36 -2.26472 -3.76307 0
M  V30 2217 H 218.966 -3.40868 -2.5434 0
M  V30 2218 N 217.281 0.66697 -1.42791 0
M  V30 2219 C 218.529 1.42417 -1.43394 0
M  V30 2220 C 218.85 1.94925 -0.0542373 0
M  V30 2221 O 218.12 1.73564 0.908415 0
M  V30 2222 H 216.7 0.528515 -0.527902 0
M  V30 2223 H 219.362 0.787562 -1.78279 0
M  V30 2224 H 218.458 2.27333 -2.13837 0
M  V30 2225 N 218.759 1.29093 0.90403 0
M  V30 2226 C 219.987 1.19689 1.68766 0
M  V30 2227 C 220.402 -0.243113 1.87228 0
M  V30 2228 O 219.759 -1.16326 1.40621 0
M  V30 2229 C 219.81 1.90144 3.07453 0
M  V30 2230 O 219.531 3.2852 2.89838 0
M  V30 2231 C 221.032 1.87162 4.01852 0
M  V30 2232 H 218.252 0.415035 0.527244 0
M  V30 2233 H 220.796 1.7039 1.13082 0
M  V30 2234 H 218.951 1.43289 3.59926 0
M  V30 2235 H 219.365 3.63944 3.77684 0
M  V30 2236 H 220.839 2.41032 4.96596 0
M  V30 2237 H 221.316 0.84617 4.30972 0
M  V30 2238 H 221.922 2.33741 3.5531 0
M  V30 2239 N 220.237 -1.11381 1.11499 0
M  V30 2240 C 221.17 -2.16621 0.71769 0
M  V30 2241 C 222.148 -1.60058 -0.286413 0
M  V30 2242 O 223.332 -1.87613 -0.182689 0
M  V30 2243 C 220.459 -3.38646 0.0607265 0
M  V30 2244 C 219.505 -4.13874 1.03008 0
M  V30 2245 S 220.338 -4.70731 2.55289 0
M  V30 2246 C 221.494 -5.96079 1.90895 0
M  V30 2247 H 221.727 -2.49987 1.60915 0
M  V30 2248 H 219.26 -1.23015 0.933092 0
M  V30 2249 H 221.218 -4.09313 -0.311965 0
M  V30 2250 H 219.879 -3.03537 -0.807702 0
M  V30 2251 H 219.072 -5.01333 0.517853 0
M  V30 2252 H 218.674 -3.4897 1.34522 0
M  V30 2253 H 220.966 -6.65948 1.24577 0
M  V30 2254 H 221.909 -6.51946 2.76354 0
M  V30 2255 H 222.317 -5.47652 1.36885 0
M  V30 2256 N 221.715 -0.905404 -1.28997 0
M  V30 2257 C 222.963 -0.533192 -1.9494 0
M  V30 2258 C 223.284 0.924618 -1.71685 0
M  V30 2259 O 222.554 1.65268 -1.05183 0
M  V30 2260 H 221.134 -0.194194 -0.721317 0
M  V30 2261 H 223.796 -1.15294 -1.57141 0
M  V30 2262 H 222.892 -0.72059 -3.03667 0
M  V30 2263 N 223.193 1.4272 -0.668489 0
M  V30 2264 C 224.418 2.06484 -0.194758 0
M  V30 2265 C 224.843 1.49862 1.13679 0
M  V30 2266 O 224.201 0.614582 1.70565 0
M  V30 2267 C 224.249 3.60353 -0.133546 0
M  V30 2268 O 223.353 4.02464 0.899806 0
M  V30 2269 H 222.694 0.656137 -0.10188 0
M  V30 2270 H 225.224 1.82964 -0.915722 0
M  V30 2271 H 225.234 4.07976 0.0447041 0
M  V30 2272 H 223.909 4.00938 -1.1055 0
M  V30 2273 H 222.486 3.66402 0.693109 0
M  V30 2274 N 224.671 0.411399 1.52136 0
M  V30 2275 C 225.618 -0.412975 2.27075 0
M  V30 2276 C 226.588 -1.03912 1.29582 0
M  V30 2277 O 227.773 -1.06296 1.58448 0
M  V30 2278 C 224.913 -1.52247 3.09701 0
M  V30 2279 C 224.026 -0.917021 4.22155 0
M  V30 2280 C 223.161 -1.9994 4.92135 0
M  V30 2281 C 222.2 -1.37101 5.96548 0
M  V30 2282 N 221.337 -2.39364 6.60038 0
M  V30 2283 H 226.177 0.232499 2.97092 0
M  V30 2284 H 223.714 0.126496 1.46555 0
M  V30 2285 H 225.672 -2.17674 3.55913 0
M  V30 2286 H 224.302 -2.13794 2.41851 0
M  V30 2287 H 223.354 -0.151742 3.80097 0
M  V30 2288 H 224.666 -0.418006 4.97045 0
M  V30 2289 H 223.82 -2.73088 5.41763 0
M  V30 2290 H 222.559 -2.53208 4.16818 0
M  V30 2291 H 221.564 -0.624873 5.46237 0
M  V30 2292 H 222.789 -0.845998 6.7381 0
M  V30 2293 H 220.735 -2.91759 5.87548 0
M  V30 2294 H 220.652 -1.9428 7.3061 0
M  V30 2295 H 221.92 -3.12074 7.14304 0
M  V30 2296 N 226.149 -1.5696 0.141893 0
M  V30 2297 C 227.079 -2.19516 -0.795936 0
M  V30 2298 C 228.06 -1.14187 -1.26077 0
M  V30 2299 O 229.245 -1.42511 -1.31925 0
M  V30 2300 C 226.375 -2.81272 -2.03723 0
M  V30 2301 C 225.329 -3.92384 -1.70936 0
M  V30 2302 C 224.655 -4.41052 -3.02287 0
M  V30 2303 C 225.955 -5.13403 -0.959954 0
M  V30 2304 H 227.649 -2.98138 -0.274596 0
M  V30 2305 H 225.195 -1.43406 -0.130636 0
M  V30 2306 H 227.148 -3.237 -2.69808 0
M  V30 2307 H 225.872 -1.99973 -2.58221 0
M  V30 2308 H 224.531 -3.50566 -1.07232 0
M  V30 2309 H 224.179 -3.56582 -3.54765 0
M  V30 2310 H 223.879 -5.15993 -2.81114 0
M  V30 2311 H 225.403 -4.86146 -3.69451 0
M  V30 2312 H 226.817 -5.52706 -1.52279 0
M  V30 2313 H 225.214 -5.94073 -0.848357 0
M  V30 2314 H 226.284 -4.84875 0.0492434 0
M  V30 2315 N 227.627 0.131896 -1.57047 0
M  V30 2316 C 228.873 0.843179 -1.84441 0
M  V30 2317 C 229.206 1.80129 -0.725749 0
M  V30 2318 O 228.481 1.92624 0.269469 0
M  V30 2319 C 228.764 1.60442 -3.22382 0
M  V30 2320 C 228.617 0.666782 -4.4483 0
M  V30 2321 C 229.936 2.56354 -3.5773 0
M  V30 2322 H 227.055 0.305081 -0.670891 0
M  V30 2323 H 229.697 0.107839 -1.89694 0
M  V30 2324 H 227.847 2.23128 -3.18035 0
M  V30 2325 H 229.519 0.0497646 -4.61273 0
M  V30 2326 H 227.762 -0.022609 -4.33794 0
M  V30 2327 H 228.433 1.23579 -5.37989 0
M  V30 2328 H 230.909 2.0378 -3.62785 0
M  V30 2329 H 229.785 3.06657 -4.5525 0
M  V30 2330 H 230.046 3.38419 -2.84473 0
M  V30 2331 N 229.106 1.52395 0.401703 0
M  V30 2332 C 230.354 1.66488 1.14569 0
M  V30 2333 C 230.675 0.400897 1.90835 0
M  V30 2334 O 229.945 -0.584415 1.8698 0
M  V30 2335 H 228.525 0.613672 0.425929 0
M  V30 2336 H 231.187 1.89464 0.457093 0
M  V30 2337 H 230.283 2.50942 1.85566 0
M  V30 2338 N 230.584 -0.659388 1.43143 0
M  V30 2339 C 231.833 -1.41518 1.43721 0
M  V30 2340 C 232.146 -1.95499 0.0628176 0
M  V30 2341 O 233.352 -2.71446 -0.0539683 0
M  V30 2342 C 231.808 -2.5608 2.52885 0
M  V30 2343 C 231.416 -2.08733 3.96402 0
M  V30 2344 C 233.16 -3.3349 2.62649 0
M  V30 2345 C 231.067 -3.20469 4.97045 0
M  V30 2346 H 229.997 -0.531705 0.534608 0
M  V30 2347 H 232.648 -0.712343 1.69109 0
M  V30 2348 H 231.03 -3.28805 2.20688 0
M  V30 2349 H 232.204 -1.43059 4.3803 0
M  V30 2350 H 230.519 -1.44219 3.90627 0
M  V30 2351 H 233.116 -4.16734 3.35017 0
M  V30 2352 H 233.459 -3.8111 1.67513 0
M  V30 2353 H 233.992 -2.67842 2.94118 0
M  V30 2354 H 230.731 -2.77824 5.93712 0
M  V30 2355 H 230.251 -3.84874 4.60034 0
M  V30 2356 H 231.93 -3.85698 5.19467 0
M  V30 2357 N 232.062 -1.29571 -0.897171 0
M  V30 2358 C 233.308 -1.17863 -1.65034 0
M  V30 2359 C 233.641 0.268729 -1.92332 0
M  V30 2360 O 232.916 1.19378 -1.53555 0
M  V30 2361 C 233.199 -1.995 -2.99786 0
M  V30 2362 C 233.052 -3.5239 -2.79538 0
M  V30 2363 C 234.371 -1.82335 -4.00552 0
M  V30 2364 H 231.49 -0.429528 -0.598895 0
M  V30 2365 H 234.132 -1.59072 -1.03905 0
M  V30 2366 H 232.282 -1.64485 -3.51962 0
M  V30 2367 H 233.954 -3.97401 -2.34244 0
M  V30 2368 H 232.197 -3.77187 -2.14273 0
M  V30 2369 H 232.868 -4.04787 -3.75302 0
M  V30 2370 H 235.344 -2.12924 -3.57495 0
M  V30 2371 H 234.22 -2.41801 -4.92771 0
M  V30 2372 H 234.481 -0.779209 -4.35179 0
M  V30 2373 N 233.54 1.10788 -1.12088 0
M  V30 2374 C 234.768 1.86461 -0.896651 0
M  V30 2375 C 235.183 1.80492 0.553912 0
M  V30 2376 O 234.54 1.19102 1.38278 0
M  V30 2377 C 234.591 3.35006 -1.35843 0
M  V30 2378 O 234.312 3.40866 -2.75213 0
M  V30 2379 C 235.813 4.27565 -1.1706 0
M  V30 2380 H 233.033 0.589425 -0.320654 0
M  V30 2381 H 235.577 1.40076 -1.48993 0
M  V30 2382 H 233.732 3.7887 -0.808458 0
M  V30 2383 H 234.146 4.33411 -2.9539 0
M  V30 2384 H 235.62 5.30007 -1.54263 0
M  V30 2385 H 236.097 4.3906 -0.110814 0
M  V30 2386 H 236.703 3.89501 -1.70789 0
M  V30 2387 N 235.018 0.912232 1.28515 0
M  V30 2388 C 236.243 0.559774 1.99703 0
M  V30 2389 C 236.668 -0.851393 1.67729 0
M  V30 2390 O 236.026 -1.56875 0.908834 0
M  V30 2391 C 236.074 0.773874 3.52198 0
M  V30 2392 O 235.178 -0.167842 4.12058 0
M  V30 2393 H 234.519 0.21723 0.627461 0
M  V30 2394 H 237.049 1.22725 1.63706 0
M  V30 2395 H 237.059 0.683386 4.02236 0
M  V30 2396 H 235.734 1.80261 3.74805 0
M  V30 2397 H 234.311 -0.0287509 3.72889 0
M  V30 2398 N 236.496 -1.42363 0.676048 0
M  V30 2399 C 237.912 -1.55811 0.345718 0
M  V30 2400 C 238.112 -1.65544 -1.14879 0
M  V30 2401 O 237.168 -1.62306 -1.93424 0
M  V30 2402 C 238.481 -2.80746 1.07713 0
M  V30 2403 C 240.029 -2.9452 1.05958 0
M  V30 2404 C 240.504 -4.22318 1.77233 0
M  V30 2405 N 241.995 -4.29233 1.74108 0
M  V30 2406 C 242.73 -5.26935 2.26113 0
M  V30 2407 N 242.226 -6.30783 2.86505 0
M  V30 2408 N 244.019 -5.18741 2.1648 0
M  V30 2409 H 236.17 -1.34289 1.6456 0
M  V30 2410 H 238.433 -0.646506 0.69335 0
M  V30 2411 H 238.139 -2.79696 2.13221 0
M  V30 2412 H 238.013 -3.71676 0.64316 0
M  V30 2413 H 240.4 -2.95097 0.0128255 0
M  V30 2414 H 240.481 -2.04817 1.53244 0
M  V30 2415 H 240.125 -4.22502 2.81877 0
M  V30 2416 H 240.055 -5.10958 1.27396 0
M  V30 2417 H 242.546 -3.54814 1.30059 0
M  V30 2418 H 242.859 -7.01691 3.23805 0
M  V30 2419 H 241.204 -6.31341 2.90575 0
M  V30 2420 H 244.395 -4.36533 1.68987 0
M  V30 2421 H 244.568 -5.94721 2.57316 0
M  V30 2422 N 237.974 -0.419461 -1.51915 0
M  V30 2423 C 239.251 0.211999 -1.94448 0
M  V30 2424 C 239.631 1.61703 -1.35703 0
M  V30 2425 O 238.979 2.22102 -0.536931 0
M  V30 2426 C 239.189 0.207872 -3.4838 0
M  V30 2427 C 240.537 0.422192 -4.22496 0
M  V30 2428 O 241.561 0.286778 -3.55044 0
M  V30 2429 O 240.42 0.690009 -5.42126 0
M  V30 2430 H 237.514 0.139586 -0.815135 0
M  V30 2431 H 240.06 -0.476151 -1.62883 0
M  V30 2432 H 238.832 -0.775102 -3.83546 0
M  V30 2433 H 238.455 0.939688 -3.86336 0
M  V30 2434 N 239.452 1.56882 -0.150215 0
M  V30 2435 C 240.701 1.95403 0.500071 0
M  V30 2436 C 241.014 1.03777 1.658 0
M  V30 2437 O 242.22 1.31889 2.37313 0
M  V30 2438 C 240.676 3.4738 0.941018 0
M  V30 2439 C 240.284 4.47596 -0.190158 0
M  V30 2440 C 242.028 3.9476 1.56091 0
M  V30 2441 C 239.935 5.90787 0.269237 0
M  V30 2442 H 238.865 0.729515 0.190588 0
M  V30 2443 H 241.516 1.81988 -0.235074 0
M  V30 2444 H 239.898 3.56138 1.73152 0
M  V30 2445 H 241.072 4.50536 -0.967157 0
M  V30 2446 H 239.387 4.10151 -0.718666 0
M  V30 2447 H 241.984 4.99181 1.9163 0
M  V30 2448 H 242.327 3.36494 2.45107 0
M  V30 2449 H 242.86 3.88932 0.835249 0
M  V30 2450 H 239.599 6.52879 -0.585621 0
M  V30 2451 H 239.119 5.912 1.01204 0
M  V30 2452 H 240.798 6.42979 0.720176 0
M  V30 2453 N 240.93 -0.123565 1.57115 0
M  V30 2454 C 242.207 -0.862196 1.75572 0
M  V30 2455 C 242.587 -1.98279 0.724475 0
M  V30 2456 O 241.935 -2.27102 -0.252407 0
M  V30 2457 C 242.145 -1.38309 3.20424 0
M  V30 2458 C 243.493 -1.83724 3.82793 0
M  V30 2459 O 244.517 -1.47999 3.23998 0
M  V30 2460 O 243.376 -2.49685 4.86127 0
M  V30 2461 H 240.47 -0.409113 0.718718 0
M  V30 2462 H 243.016 -0.107661 1.69358 0
M  V30 2463 H 241.788 -0.578889 3.86994 0
M  V30 2464 H 241.411 -2.20046 3.31158 0
M  V30 2465 N 242.408 -1.52605 -0.393616 0
M  V30 2466 C 243.655 -1.67424 -1.1391 0
M  V30 2467 C 243.983 -0.411859 -1.90089 0
M  V30 2468 O 243.238 0.605626 -1.86093 0
M  V30 2469 C 243.537 -2.85721 -2.14705 0
M  V30 2470 C 243.203 -4.23342 -1.55218 0
M  V30 2471 C 241.865 -4.60771 -1.3872 0
M  V30 2472 C 244.217 -5.09041 -1.11924 0
M  V30 2473 C 241.545 -5.81563 -0.774689 0
M  V30 2474 C 243.897 -6.30452 -0.520853 0
M  V30 2475 C 242.561 -6.66617 -0.343134 0
M  V30 2476 H 241.831 -0.612648 -0.416826 0
M  V30 2477 H 244.478 -1.8674 -0.424315 0
M  V30 2478 H 242.783 -2.60803 -2.92385 0
M  V30 2479 H 244.48 -2.94382 -2.72288 0
M  V30 2480 H 241.07 -3.93855 -1.69045 0
M  V30 2481 H 245.254 -4.80695 -1.23473 0
M  V30 2482 H 240.51 -6.08196 -0.625154 0
M  V30 2483 H 244.684 -6.96175 -0.177065 0
M  V30 2484 H 242.311 -7.60083 0.133571 0
M  V30 2485 N 243.887 0.651787 -1.4349 0
M  V30 2486 C 244.817 1.77621 -1.51569 0
M  V30 2487 C 245.798 1.66022 -0.370253 0
M  V30 2488 O 246.983 1.85095 -0.587658 0
M  V30 2489 C 244.113 3.16056 -1.43966 0
M  V30 2490 C 243.067 3.4242 -2.56774 0
M  V30 2491 C 242.393 4.8067 -2.34223 0
M  V30 2492 C 243.693 3.37023 -3.99015 0
M  V30 2493 H 245.387 1.71117 -2.45681 0
M  V30 2494 H 242.933 0.821825 -1.18246 0
M  V30 2495 H 244.886 3.94472 -1.48221 0
M  V30 2496 H 243.61 3.23293 -0.463586 0
M  V30 2497 H 242.269 2.66375 -2.51873 0
M  V30 2498 H 241.917 4.84585 -1.34856 0
M  V30 2499 H 241.617 4.9927 -3.09844 0
M  V30 2500 H 243.141 5.61342 -2.40265 0
M  V30 2501 H 244.555 4.05374 -4.05395 0
M  V30 2502 H 242.952 3.67159 -4.74673 0
M  V30 2503 H 244.022 2.3518 -4.2405 0
M  V30 2504 N 245.365 1.30045 0.890287 0
M  V30 2505 C 246.328 1.15963 1.977 0
M  V30 2506 C 247.328 0.0923777 1.60534 0
M  V30 2507 O 248.518 0.340071 1.70848 0
M  V30 2508 C 245.65 0.775451 3.31963 0
M  V30 2509 H 246.843 2.12502 2.11619 0
M  V30 2510 H 244.396 1.13366 1.07601 0
M  V30 2511 H 245.131 -0.189671 3.23745 0
M  V30 2512 H 244.916 1.54668 3.60306 0
M  V30 2513 H 246.406 0.700251 4.11687 0
M  V30 2514 N 246.843 -1.10192 1.12674 0
M  V30 2515 C 247.753 -2.20172 0.810026 0
M  V30 2516 C 248.769 -1.72821 -0.202188 0
M  V30 2517 O 249.945 -2.01369 -0.0351691 0
M  V30 2518 C 247.01 -3.45631 0.272007 0
M  V30 2519 C 246.071 -4.07704 1.34447 0
M  V30 2520 C 245.304 -5.27175 0.832029 0
M  V30 2521 O 245.527 -5.69425 -0.333284 0
M  V30 2522 O 244.461 -5.80168 1.60277 0
M  V30 2523 H 248.287 -2.49701 1.72867 0
M  V30 2524 H 245.872 -1.18977 0.903597 0
M  V30 2525 H 247.754 -4.21394 -0.0230219 0
M  V30 2526 H 246.429 -3.17723 -0.619164 0
M  V30 2527 H 245.336 -3.33614 1.6927 0
M  V30 2528 H 246.669 -4.3982 2.2095 0
M  V30 2529 N 248.321 -0.919034 -1.28029 0
M  V30 2530 C 249.268 -0.410005 -2.27129 0
M  V30 2531 C 250.238 0.518405 -1.57803 0
M  V30 2532 O 251.423 0.439451 -1.8567 0
M  V30 2533 C 248.563 0.339054 -3.4343 0
M  V30 2534 C 247.676 -0.622468 -4.27492 0
M  V30 2535 C 246.811 0.145567 -5.31001 0
M  V30 2536 C 245.85 -0.809226 -6.06727 0
M  V30 2537 N 244.987 -0.0743728 -7.02061 0
M  V30 2538 H 249.827 -1.26011 -2.70047 0
M  V30 2539 H 247.364 -0.632663 -1.328 0
M  V30 2540 H 249.322 0.789586 -4.0966 0
M  V30 2541 H 247.952 1.15346 -3.01488 0
M  V30 2542 H 247.004 -1.19153 -3.61257 0
M  V30 2543 H 248.316 -1.35252 -4.80113 0
M  V30 2544 H 247.47 0.656417 -6.03139 0
M  V30 2545 H 246.209 0.908643 -4.79161 0
M  V30 2546 H 245.214 -1.3314 -5.33436 0
M  V30 2547 H 246.439 -1.57194 -6.60656 0
M  V30 2548 H 244.385 0.670616 -6.52563 0
M  V30 2549 H 244.302 -0.744157 -7.52329 0
M  V30 2550 H 245.57 0.416109 -7.78389 0
M  V30 2551 N 249.799 1.42003 -0.683588 0
M  V30 2552 C 251.076 1.95112 -0.138075 0
M  V30 2553 C 251.456 1.62359 1.34918 0
M  V30 2554 O 250.804 0.924311 2.08971 0
M  V30 2555 C 251.014 3.46505 -0.416581 0
M  V30 2556 C 252.362 4.23254 -0.337834 0
M  V30 2557 O 253.386 3.54468 -0.35082 0
M  V30 2558 O 252.245 5.45743 -0.287596 0
M  V30 2559 H 249.339 0.826961 -0.00797996 0
M  V30 2560 H 251.885 1.51784 -0.758924 0
M  V30 2561 H 250.657 3.63582 -1.4465 0
M  V30 2562 H 250.28 3.969 0.235839 0
M  V30 2563 N 251.277 0.427512 1.51691 0
M  V30 2564 C 252.227 -0.406604 2.24345 0
M  V30 2565 C 253.211 -0.998276 1.26187 0
M  V30 2566 O 254.403 -0.918045 1.51331 0
M  V30 2567 C 251.532 -1.51266 3.08177 0
M  V30 2568 C 250.618 -0.930868 4.13758 0
M  V30 2569 N 251.009 -0.0773552 5.05741 0
M  V30 2570 C 249.307 -1.19948 4.29568 0
M  V30 2571 C 250.008 0.248344 5.8117 0
M  V30 2572 N 248.984 -0.365535 5.4237 0
M  V30 2573 H 252.786 0.251581 2.92821 0
M  V30 2574 H 250.3 0.239003 1.60632 0
M  V30 2575 H 252.297 -2.123 3.58796 0
M  V30 2576 H 250.957 -2.17328 2.41244 0
M  V30 2577 H 251.968 0.288351 5.17097 0
M  V30 2578 H 248.645 -1.85832 3.73862 0
M  V30 2579 H 250.035 0.942286 6.6526 0
M  V30 2580 N 252.755 -1.56801 0.158532 0
M  V30 2581 C 253.983 -2.00859 -0.496303 0
M  V30 2582 C 254.398 -1.03871 -1.57659 0
M  V30 2583 O 253.755 -0.0375165 -1.82461 0
M  V30 2584 C 253.806 -3.4479 -1.08638 0
M  V30 2585 O 253.527 -4.38072 -0.0492322 0
M  V30 2586 C 255.028 -4.04185 -1.8207 0
M  V30 2587 H 252.248 -0.65864 -0.128199 0
M  V30 2588 H 254.792 -2.02885 0.256506 0
M  V30 2589 H 252.947 -3.43579 -1.78975 0
M  V30 2590 H 253.361 -5.2227 -0.483102 0
M  V30 2591 H 254.835 -5.06857 -2.18633 0
M  V30 2592 H 255.312 -3.45549 -2.71095 0
M  V30 2593 H 255.918 -4.0906 -1.16405 0
M  V30 2594 N 254.233 0.115231 -1.57178 0
M  V30 2595 C 255.461 0.836437 -1.89239 0
M  V30 2596 C 255.876 1.73256 -0.750175 0
M  V30 2597 O 255.233 1.80357 0.278832 0
M  V30 2598 C 255.284 1.66671 -3.20785 0
M  V30 2599 O 255.005 0.806652 -4.3061 0
M  V30 2600 C 256.506 2.49274 -3.66575 0
M  V30 2601 H 253.726 0.240253 -0.626514 0
M  V30 2602 H 256.27 0.0984932 -2.04263 0
M  V30 2603 H 254.425 2.35737 -3.0742 0
M  V30 2604 H 254.839 1.37969 -5.06028 0
M  V30 2605 H 256.313 3.03055 -4.6137 0
M  V30 2606 H 256.79 3.26807 -2.93417 0
M  V30 2607 H 257.396 1.85443 -3.82741 0
M  V30 2608 N 255.711 1.52812 0.385517 0
M  V30 2609 C 256.641 1.80808 1.47752 0
M  V30 2610 C 257.622 0.660318 1.5676 0
M  V30 2611 O 258.807 0.908246 1.71652 0
M  V30 2612 C 255.937 1.98008 2.85324 0
M  V30 2613 C 254.891 3.13709 2.91154 0
M  V30 2614 C 254.217 3.16169 4.31209 0
M  V30 2615 C 255.517 4.52709 2.60483 0
M  V30 2616 H 257.211 2.72253 1.24573 0
M  V30 2617 H 254.757 1.31003 0.597839 0
M  V30 2618 H 256.71 2.16176 3.61726 0
M  V30 2619 H 255.434 1.03255 3.09848 0
M  V30 2620 H 254.093 2.95329 2.17201 0
M  V30 2621 H 253.741 2.19092 4.52778 0
M  V30 2622 H 253.441 3.93894 4.36029 0
M  V30 2623 H 254.965 3.36496 5.09512 0
M  V30 2624 H 256.379 4.71173 3.26602 0
M  V30 2625 H 254.776 5.32528 2.76648 0
M  V30 2626 H 255.846 4.59186 1.55809 0
M  V30 2627 N 257.189 -0.644168 1.43834 0
M  V30 2628 C 258.119 -1.76814 1.52509 0
M  V30 2629 C 259.1 -1.65823 0.379052 0
M  V30 2630 O 260.285 -1.84781 0.597466 0
M  V30 2631 C 257.415 -3.15288 1.4564 0
M  V30 2632 C 256.369 -3.41053 2.58586 0
M  V30 2633 C 255.695 -4.79421 2.36769 0
M  V30 2634 C 256.995 -3.34902 4.00797 0
M  V30 2635 H 258.689 -1.69812 2.46586 0
M  V30 2636 H 256.235 -0.815542 1.1868 0
M  V30 2637 H 258.188 -3.93681 1.50311 0
M  V30 2638 H 256.912 -3.23043 0.480725 0
M  V30 2639 H 255.571 -2.65035 2.53282 0
M  V30 2640 H 255.219 -4.83863 1.37424 0
M  V30 2641 H 254.919 -4.9762 3.12487 0
M  V30 2642 H 256.443 -5.6006 2.43238 0
M  V30 2643 H 257.857 -4.03218 4.07539 0
M  V30 2644 H 256.254 -3.64637 4.76613 0
M  V30 2645 H 257.324 -2.32928 4.25291 0
M  V30 2646 N 258.668 -1.30515 -0.883378 0
M  V30 2647 C 259.893 -1.22487 -1.67367 0
M  V30 2648 C 260.318 0.208767 -1.86938 0
M  V30 2649 O 259.676 1.15015 -1.40148 0
M  V30 2650 C 259.724 -1.96041 -3.02655 0
M  V30 2651 O 258.828 -1.28859 -3.91751 0
M  V30 2652 H 258.169 -0.423573 -0.511353 0
M  V30 2653 H 260.699 -1.72362 -1.10239 0
M  V30 2654 H 260.709 -2.05124 -3.52687 0
M  V30 2655 H 259.384 -3.00307 -2.8773 0
M  V30 2656 H 257.961 -1.28141 -3.50192 0
M  V30 2657 N 260.146 1.09593 -1.13257 0
M  V30 2658 C 261.056 2.19739 -0.821691 0
M  V30 2659 C 262.072 1.72926 0.19302 0
M  V30 2660 O 263.248 2.01385 0.0244895 0
M  V30 2661 C 260.313 3.45482 -0.290333 0
M  V30 2662 C 259.374 4.06985 -1.36607 0
M  V30 2663 C 258.607 5.26726 -0.859975 0
M  V30 2664 O 258.83 5.69594 0.303082 0
M  V30 2665 O 257.764 5.7931 -1.63351 0
M  V30 2666 H 261.59 2.48781 -1.74189 0
M  V30 2667 H 259.175 1.18496 -0.909894 0
M  V30 2668 H 261.057 4.214 0.000674022 0
M  V30 2669 H 259.732 3.18047 0.602306 0
M  V30 2670 H 258.639 3.32712 -1.71037 0
M  V30 2671 H 259.972 4.38643 -2.23279 0
M  V30 2672 N 261.624 0.925811 1.2754 0
M  V30 2673 C 262.87 0.566092 1.94739 0
M  V30 2674 C 263.203 -0.890057 1.72603 0
M  V30 2675 O 262.478 -1.63467 1.05399 0
M  V30 2676 C 262.761 0.89054 3.48915 0
M  V30 2677 C 262.614 2.4003 3.80402 0
M  V30 2678 C 263.933 0.395101 4.38323 0
M  V30 2679 H 261.052 0.20714 0.707292 0
M  V30 2680 H 263.694 1.15725 1.50691 0
M  V30 2681 H 261.844 0.387452 3.86563 0
M  V30 2682 H 263.516 2.97494 3.52555 0
M  V30 2683 H 261.759 2.85028 3.2702 0
M  V30 2684 H 262.43 2.57785 4.8811 0
M  V30 2685 H 264.906 0.826241 4.07814 0
M  V30 2686 H 263.782 0.651086 5.45025 0
M  V30 2687 H 264.043 -0.704798 4.36446 0
M  V30 2688 N 263.102 -1.41638 0.69111 0
M  V30 2689 C 264.035 -2.28183 -0.0274913 0
M  V30 2690 C 265.013 -1.41984 -0.792424 0
M  V30 2691 O 266.197 -1.71415 -0.784169 0
M  V30 2692 C 263.324 -3.22135 -1.04628 0
M  V30 2693 C 262.37 -4.24848 -0.375037 0
M  V30 2694 S 263.203 -5.28231 0.879321 0
M  V30 2695 C 264.359 -6.25748 -0.137983 0
M  V30 2696 H 264.592 -2.88782 0.706553 0
M  V30 2697 H 262.125 -1.46709 0.481222 0
M  V30 2698 H 264.083 -3.76797 -1.62894 0
M  V30 2699 H 262.744 -2.6064 -1.75287 0
M  V30 2700 H 261.937 -4.90837 -1.14433 0
M  V30 2701 H 261.539 -3.73758 0.134434 0
M  V30 2702 H 263.831 -6.70188 -0.992659 0
M  V30 2703 H 264.774 -7.06417 0.487867 0
M  V30 2704 H 265.182 -5.62363 -0.490762 0
M  V30 2705 N 264.58 -0.43555 -1.51462 0
M  V30 2706 C 265.808 0.130242 -2.0649 0
M  V30 2707 C 266.223 1.36614 -1.30315 0
M  V30 2708 O 265.58 1.78869 -0.362223 0
M  V30 2709 C 265.631 0.454253 -3.58635 0
M  V30 2710 O 265.352 -0.73259 -4.31931 0
M  V30 2711 C 266.853 1.07091 -4.3017 0
M  V30 2712 H 264.073 0.00871669 -0.670943 0
M  V30 2713 H 266.617 -0.614117 -1.95061 0
M  V30 2714 H 264.772 1.14851 -3.69984 0
M  V30 2715 H 265.186 -0.455787 -5.22516 0
M  V30 2716 H 266.66 1.24764 -5.37716 0
M  V30 2717 H 267.137 2.05144 -3.88346 0
M  V30 2718 H 267.743 0.416089 -4.2326 0
M  V30 2719 N 266.058 1.56714 -0.166846 0
M  V30 2720 C 267.469 1.83378 0.350646 0
M  V30 2721 C 267.82 1.08646 1.63372 0
M  V30 2722 O 266.945 0.338058 2.13743 0
M  V30 2723 C 267.54 3.32643 0.642963 0
M  V30 2724 C 266.099 3.59818 1.10491 0
M  V30 2725 C 265.246 2.76954 0.138411 0
M  V30 2726 H 268.197 1.53803 -0.391193 0
M  V30 2727 H 268.218 3.49878 1.49551 0
M  V30 2728 H 267.73 3.87007 -0.291055 0
M  V30 2729 H 265.831 3.1086 2.05418 0
M  V30 2730 H 265.944 4.68178 1.01716 0
M  V30 2731 H 264.308 2.4666 0.634911 0
M  V30 2732 H 265.091 3.34097 -0.789549 0
M  V30 2733 N 267.536 -0.106894 1.57237 0
M  V30 2734 C 268.952 -0.46078 1.52804 0
M  V30 2735 C 269.152 -1.81184 0.881746 0
M  V30 2736 O 268.208 -2.48102 0.469224 0
M  V30 2737 C 269.521 -0.434127 2.9755 0
M  V30 2738 C 271.069 -0.516821 3.08704 0
M  V30 2739 C 271.544 -0.520436 4.55033 0
M  V30 2740 N 273.035 -0.58153 4.59535 0
M  V30 2741 C 273.77 -0.605973 5.70189 0
M  V30 2742 N 273.266 -0.587331 6.90306 0
M  V30 2743 N 275.059 -0.649895 5.5833 0
M  V30 2744 H 267.21 0.778203 1.9763 0
M  V30 2745 H 269.473 0.288403 0.903066 0
M  V30 2746 H 269.179 0.491197 3.48253 0
M  V30 2747 H 269.053 -1.25748 3.55622 0
M  V30 2748 H 271.44 -1.43256 2.57995 0
M  V30 2749 H 271.521 0.334449 2.53604 0
M  V30 2750 H 271.165 0.391313 5.0639 0
M  V30 2751 H 271.095 -1.38876 5.07958 0
M  V30 2752 H 273.586 -0.60161 3.73081 0
M  V30 2753 H 273.899 -0.60894 7.70397 0
M  V30 2754 H 272.244 -0.554564 6.92784 0
M  V30 2755 H 275.435 -0.661907 4.63397 0
M  V30 2756 H 275.608 -0.665476 6.44574 0
M  V30 2757 N 269.014 -1.53014 -0.377408 0
M  V30 2758 C 270.263 -1.67845 -1.11853 0
M  V30 2759 C 270.576 -0.430625 -1.90801 0
M  V30 2760 O 271.782 -0.459261 -2.67587 0
M  V30 2761 C 270.238 -2.96668 -2.03756 0
M  V30 2762 C 269.846 -4.28671 -1.30175 0
M  V30 2763 C 271.59 -3.20865 -2.77932 0
M  V30 2764 C 269.497 -5.48591 -2.20911 0
M  V30 2765 H 268.427 -0.625343 -0.421263 0
M  V30 2766 H 271.078 -1.79514 -0.380409 0
M  V30 2767 H 269.46 -2.78773 -2.8125 0
M  V30 2768 H 270.634 -4.57157 -0.578259 0
M  V30 2769 H 268.949 -4.10825 -0.679108 0
M  V30 2770 H 271.546 -4.07642 -3.46024 0
M  V30 2771 H 271.889 -2.36424 -3.4265 0
M  V30 2772 H 272.422 -3.39379 -2.07525 0
M  V30 2773 H 269.161 -6.35474 -1.6079 0
M  V30 2774 H 268.681 -5.244 -2.91144 0
M  V30 2775 H 270.36 -5.8292 -2.80736 0
M  V30 2776 N 270.492 0.636531 -1.44174 0
M  V30 2777 C 271.402 1.77754 -1.53103 0
M  V30 2778 C 272.418 1.68928 -0.417034 0
M  V30 2779 O 273.594 1.89801 -0.6736 0
M  V30 2780 C 270.659 3.14115 -1.46741 0
M  V30 2781 C 269.72 3.34612 -2.68948 0
M  V30 2782 C 268.953 4.64467 -2.6288 0
M  V30 2783 O 269.176 5.44919 -1.68581 0
M  V30 2784 O 268.11 4.87049 -3.53648 0
M  V30 2785 H 271.936 1.73174 -2.49489 0
M  V30 2786 H 269.521 0.79709 -1.2636 0
M  V30 2787 H 271.403 3.95412 -1.45696 0
M  V30 2788 H 270.078 3.19249 -0.534975 0
M  V30 2789 H 268.985 2.53014 -2.75562 0
M  V30 2790 H 270.318 3.34336 -3.61221 0
M  V30 2791 N 271.97 1.30982 0.876444 0
M  V30 2792 C 272.9 1.20668 1.99903 0
M  V30 2793 C 273.881 0.095354 1.69833 0
M  V30 2794 O 275.066 0.27885 1.92188 0
M  V30 2795 C 272.196 0.90655 3.3526 0
M  V30 2796 C 271.15 1.97675 3.79617 0
M  V30 2797 C 270.476 1.52943 5.1236 0
M  V30 2798 C 271.776 3.389 3.97422 0
M  V30 2799 H 273.47 2.14586 2.0879 0
M  V30 2800 H 271.016 1.03308 1.00317 0
M  V30 2801 H 272.969 0.821025 4.13324 0
M  V30 2802 H 271.693 -0.0682969 3.26529 0
M  V30 2803 H 270.352 2.05205 3.03787 0
M  V30 2804 H 270 0.54262 5.00065 0
M  V30 2805 H 269.7 2.24532 5.43009 0
M  V30 2806 H 271.224 1.45786 5.92941 0
M  V30 2807 H 272.638 3.34081 4.659 0
M  V30 2808 H 271.035 4.0865 4.3946 0
M  V30 2809 H 272.105 3.80163 3.01006 0
M  V30 2810 N 273.449 -1.08991 1.13837 0
M  V30 2811 C 274.695 -1.81526 0.90422 0
M  V30 2812 C 275.028 -1.85706 -0.568066 0
M  V30 2813 O 274.303 -1.32855 -1.42056 0
M  V30 2814 C 274.586 -3.27447 1.49835 0
M  V30 2815 C 274.439 -3.31512 3.04006 0
M  V30 2816 C 275.758 -4.24256 1.17025 0
M  V30 2817 H 272.877 -0.659029 0.329923 0
M  V30 2818 H 275.519 -1.27644 1.40737 0
M  V30 2819 H 273.669 -3.73462 1.07044 0
M  V30 2820 H 275.341 -2.93867 3.55584 0
M  V30 2821 H 273.584 -2.70963 3.38765 0
M  V30 2822 H 274.255 -4.34329 3.40679 0
M  V30 2823 H 276.731 -3.86549 1.54009 0
M  V30 2824 H 275.607 -5.24684 1.61237 0
M  V30 2825 H 275.868 -4.42019 0.0846274 0
M  V30 2826 N 274.927 -0.932562 -1.27047 0
M  V30 2827 C 276.173 -0.576412 -1.94436 0
M  V30 2828 C 276.506 0.880891 -1.73072 0
M  V30 2829 O 275.781 1.62905 -1.06264 0
M  V30 2830 C 276.064 -0.909031 -3.48437 0
M  V30 2831 C 275.917 -2.42044 -3.79123 0
M  V30 2832 C 277.236 -0.418341 -4.38107 0
M  V30 2833 H 274.355 -0.210888 -0.706184 0
M  V30 2834 H 276.997 -1.16522 -1.50075 0
M  V30 2835 H 275.147 -0.407947 -3.86352 0
M  V30 2836 H 276.819 -2.99359 -3.50973 0
M  V30 2837 H 275.062 -2.86758 -3.25503 0
M  V30 2838 H 275.733 -2.6037 -4.86736 0
M  V30 2839 H 278.209 -0.847856 -4.0737 0
M  V30 2840 H 277.085 -0.679981 -5.44672 0
M  V30 2841 H 277.346 0.681642 -4.36814 0
M  V30 2842 N 276.405 1.4127 -0.698611 0
M  V30 2843 C 277.368 2.29158 -0.044132 0
M  V30 2844 C 278.368 1.44529 0.704841 0
M  V30 2845 O 279.558 1.65643 0.539276 0
M  V30 2846 C 276.69 3.27459 0.947809 0
M  V30 2847 H 277.883 2.88529 -0.817994 0
M  V30 2848 H 275.436 1.49307 -0.46228 0
M  V30 2849 H 276.171 2.73073 1.74933 0
M  V30 2850 H 275.956 3.8991 0.41385 0
M  V30 2851 H 277.446 3.93311 1.40344 0
M  V30 2852 N 277.883 0.443576 1.51229 0
M  V30 2853 C 279.294 -0.0180867 1.86691 0
M  V30 2854 C 279.645 -1.41384 1.36033 0
M  V30 2855 O 278.77 -2.04291 0.713722 0
M  V30 2856 C 279.365 -0.039597 3.38777 0
M  V30 2857 C 277.924 -0.445692 3.73752 0
M  V30 2858 C 277.071 0.357584 2.74985 0
M  V30 2859 H 280.022 0.659138 1.44364 0
M  V30 2860 H 280.043 -0.847761 3.70936 0
M  V30 2861 H 279.555 0.976382 3.75617 0
M  V30 2862 H 277.656 -1.46704 3.42503 0
M  V30 2863 H 277.769 -0.166155 4.78812 0
M  V30 2864 H 276.133 -0.184973 2.54027 0
M  V30 2865 H 276.916 1.37256 3.14668 0
M  V30 2866 N 279.361 -1.56624 0.175154 0
M  V30 2867 C 280.324 -2.16934 -0.739738 0
M  V30 2868 C 281.324 -1.11842 -1.15533 0
M  V30 2869 O 282.514 -1.37335 -1.07167 0
M  V30 2870 C 279.646 -2.75531 -2.00738 0
M  V30 2871 H 280.839 -2.99131 -0.214639 0
M  V30 2872 H 278.392 -1.56123 -0.0744197 0
M  V30 2873 H 279.127 -1.97078 -2.57548 0
M  V30 2874 H 278.912 -3.52444 -1.71831 0
M  V30 2875 H 280.402 -3.21904 -2.66021 0
M  V30 2876 N 280.839 0.0985539 -1.57292 0
M  V30 2877 C 282.087 0.801092 -1.85545 0
M  V30 2878 C 282.408 1.79438 -0.763353 0
M  V30 2879 O 281.678 1.94763 0.21073 0
M  V30 2880 H 280.258 0.29884 -0.684619 0
M  V30 2881 H 282.92 0.0810064 -1.94732 0
M  V30 2882 H 282.016 1.3338 -2.82163 0
M  V30 2883 N 282.317 1.53212 0.369288 0
M  V30 2884 C 283.563 1.69466 1.11397 0
M  V30 2885 C 283.896 0.443257 1.89074 0
M  V30 2886 O 283.171 -0.559386 1.86282 0
M  V30 2887 C 283.454 2.9422 2.07621 0
M  V30 2888 C 283.307 4.29508 1.33577 0
M  V30 2889 C 284.626 3.14565 3.07794 0
M  V30 2890 H 281.745 0.616667 0.403597 0
M  V30 2891 H 284.387 1.85845 0.395179 0
M  V30 2892 H 282.537 2.80387 2.68916 0
M  V30 2893 H 284.209 4.55147 0.750955 0
M  V30 2894 H 282.452 4.29088 0.637618 0
M  V30 2895 H 283.123 5.12926 2.03989 0
M  V30 2896 H 285.599 3.2756 2.56601 0
M  V30 2897 H 284.475 4.03297 3.72348 0
M  V30 2898 H 284.736 2.29675 3.77759 0
M  V30 2899 N 283.795 -0.628877 1.44509 0
M  V30 2900 C 285.023 -1.41554 1.50897 0
M  V30 2901 C 285.438 -1.8832 0.134564 0
M  V30 2902 O 284.795 -1.60969 -0.859965 0
M  V30 2903 C 284.846 -2.63435 2.47556 0
M  V30 2904 O 284.567 -2.18619 3.79654 0
M  V30 2905 C 286.068 -3.56537 2.63431 0
M  V30 2906 H 283.288 -0.434044 0.511709 0
M  V30 2907 H 285.832 -0.768895 1.89495 0
M  V30 2908 H 283.987 -3.24187 2.12089 0
M  V30 2909 H 284.401 -2.97652 4.31861 0
M  V30 2910 H 285.875 -4.38657 3.35088 0
M  V30 2911 H 286.352 -4.05493 1.68738 0
M  V30 2912 H 286.958 -3.01653 2.9981 0
M  V30 2913 N 285.273 -1.31445 -0.869486 0
M  V30 2914 C 286.203 -1.21727 -1.99261 0
M  V30 2915 C 287.184 -0.104359 -1.6978 0
M  V30 2916 O 288.369 -0.289038 -1.92037 0
M  V30 2917 C 285.499 -0.924317 -3.34774 0
M  V30 2918 C 284.453 -1.99685 -3.78563 0
M  V30 2919 C 283.779 -1.55658 -5.11541 0
M  V30 2920 C 285.079 -3.41003 -3.95619 0
M  V30 2921 H 286.773 -2.1569 -2.07649 0
M  V30 2922 H 284.319 -1.03839 -0.997675 0
M  V30 2923 H 286.272 -0.842934 -4.12883 0
M  V30 2924 H 284.996 0.0509793 -3.2656 0
M  V30 2925 H 283.655 -2.06813 -3.02694 0
M  V30 2926 H 283.303 -0.569132 -4.9977 0
M  V30 2927 H 283.003 -2.27409 -5.41811 0
M  V30 2928 H 284.527 -1.48928 -5.92159 0
M  V30 2929 H 285.941 -3.36547 -4.64122 0
M  V30 2930 H 284.338 -4.10975 -4.37286 0
M  V30 2931 H 285.408 -3.81754 -2.98985 0
M  V30 2932 N 286.751 1.08385 -1.14413 0
M  V30 2933 C 287.698 2.15311 -0.831265 0
M  V30 2934 C 288.668 1.64751 0.211292 0
M  V30 2935 O 289.853 1.90627 0.0811674 0
M  V30 2936 C 286.993 3.43658 -0.315143 0
M  V30 2937 C 286.106 4.08064 -1.41802 0
M  V30 2938 C 285.241 5.24207 -0.859126 0
M  V30 2939 C 284.28 5.80554 -1.93967 0
M  V30 2940 N 283.417 6.88042 -1.39793 0
M  V30 2941 H 288.257 2.41415 -1.74708 0
M  V30 2942 H 285.794 1.18474 -0.871909 0
M  V30 2943 H 287.752 4.172 0.00230884 0
M  V30 2944 H 286.382 3.17839 0.56378 0
M  V30 2945 H 285.434 3.3228 -1.85187 0
M  V30 2946 H 286.746 4.45962 -2.23427 0
M  V30 2947 H 285.9 6.04689 -0.49359 0
M  V30 2948 H 284.639 4.87699 -0.011932 0
M  V30 2949 H 283.644 4.98725 -2.31415 0
M  V30 2950 H 284.869 6.19121 -2.79046 0
M  V30 2951 H 282.815 6.53493 -0.572919 0
M  V30 2952 H 282.732 7.24767 -2.15054 0
M  V30 2953 H 284 7.72255 -1.0603 0
M  V30 2954 N 288.23 0.939286 1.26551 0
M  V30 2955 C 289.14 0.453432 2.30176 0
M  V30 2956 C 290.156 -0.471649 1.67486 0
M  V30 2957 O 291.332 -0.35164 1.98306 0
M  V30 2958 C 288.397 -0.275326 3.45605 0
M  V30 2959 C 287.458 0.686084 4.23782 0
M  V30 2960 C 286.691 -0.00798994 5.33699 0
M  V30 2961 O 286.914 -1.22528 5.57085 0
M  V30 2962 O 285.848 0.669746 5.98162 0
M  V30 2963 H 289.674 1.31416 2.73795 0
M  V30 2964 H 287.259 0.705095 1.31715 0
M  V30 2965 H 289.141 -0.685911 4.1578 0
M  V30 2966 H 287.816 -1.11147 3.0402 0
M  V30 2967 H 286.723 1.14658 3.56096 0
M  V30 2968 H 288.056 1.48979 4.69112 0
M  V30 2969 N 289.708 -1.40897 0.706093 0
M  V30 2970 C 290.671 -2.29131 0.0562841 0
M  V30 2971 C 291.671 -1.44901 -0.697166 0
M  V30 2972 O 292.861 -1.65926 -0.530484 0
M  V30 2973 C 289.993 -3.27957 -0.93043 0
M  V30 2974 H 291.186 -2.88091 0.833284 0
M  V30 2975 H 288.739 -1.4906 0.470192 0
M  V30 2976 H 289.474 -2.73997 -1.73482 0
M  V30 2977 H 289.259 -3.90124 -0.393166 0
M  V30 2978 H 290.749 -3.94049 -1.38256 0
M  V30 2979 N 291.186 -0.45159 -1.50991 0
M  V30 2980 C 292.134 0.366864 -2.29689 0
M  V30 2981 C 293.128 1.00809 -1.36139 0
M  V30 2982 O 294.334 0.941427 -1.53418 0
M  V30 2983 H 290.709 0.137133 -0.739391 0
M  V30 2984 H 292.68 -0.317538 -2.96706 0
M  V30 2985 C 291.429 1.44751 -3.16137 0
M  V30 2986 H 290.752 0.963473 -3.88017 0
M  V30 2987 H 292.192 1.99315 -3.74232 0
M  V30 2988 C 290.651 2.43869 -2.32442 0
M  V30 2989 O 291.181 3.4872 -1.99392 0
M  V30 2990 N 289.387 2.15105 -1.95392 0
M  V30 2991 H 288.934 1.29866 -2.22469 0
M  V30 2992 H 288.892 2.81661 -1.39693 0
M  V30 2993 N 292.664 1.56529 -0.183458 0
M  V30 2994 C 293.574 2.22144 0.754272 0
M  V30 2995 C 294.59 1.21684 1.24374 0
M  V30 2996 O 295.766 1.54385 1.29333 0
M  V30 2997 C 292.831 2.85884 1.96141 0
M  V30 2998 C 291.892 4.01579 1.51765 0
M  V30 2999 C 291.125 4.6227 2.66725 0
M  V30 3000 O 291.348 4.21865 3.83909 0
M  V30 3001 O 290.282 5.51936 2.40104 0
M  V30 3002 H 294.108 3.02861 0.225527 0
M  V30 3003 H 291.693 1.49331 0.0453032 0
M  V30 3004 H 293.575 3.26253 2.66715 0
M  V30 3005 H 292.25 2.08154 2.47899 0
M  V30 3006 H 291.157 3.65856 0.781049 0
M  V30 3007 H 292.49 4.80938 1.04686 0
M  V30 3008 N 294.142 -0.090211 1.57342 0
M  V30 3009 C 295.391 -0.791531 1.8552 0
M  V30 3010 C 295.704 -1.79659 0.773441 0
M  V30 3011 O 296.91 -2.54616 0.942497 0
M  V30 3012 C 295.366 -1.45856 3.2902 0
M  V30 3013 C 294.974 -0.493017 4.45279 0
M  V30 3014 C 296.718 -2.14332 3.66418 0
M  V30 3015 C 294.625 -1.16491 5.79814 0
M  V30 3016 H 293.555 -0.299356 0.692027 0
M  V30 3017 H 296.206 -0.0445343 1.83446 0
M  V30 3018 H 294.588 -2.25318 3.2565 0
M  V30 3019 H 295.762 0.270464 4.60006 0
M  V30 3020 H 294.077 0.0863061 4.16311 0
M  V30 3021 H 296.674 -2.65344 4.64216 0
M  V30 3022 H 297.017 -2.93447 2.95287 0
M  V30 3023 H 297.55 -1.41724 3.71698 0
M  V30 3024 H 294.289 -0.41447 6.54188 0
M  V30 3025 H 293.809 -1.8997 5.68921 0
M  V30 3026 H 295.488 -1.69001 6.24538 0
M  V30 3027 N 295.62 -1.53406 -0.361157 0
M  V30 3028 C 296.55 -1.83136 -1.44857 0
M  V30 3029 C 297.531 -0.685174 -1.5569 0
M  V30 3030 O 298.716 -0.93544 -1.70186 0
M  V30 3031 C 295.846 -2.02522 -2.82138 0
M  V30 3032 C 294.8 -3.18302 -2.86126 0
M  V30 3033 C 294.126 -3.22989 -4.26125 0
M  V30 3034 C 295.426 -4.56796 -2.53248 0
M  V30 3035 H 297.12 -2.74201 -1.20226 0
M  V30 3036 H 294.666 -1.31938 -0.576922 0
M  V30 3037 H 296.619 -2.21904 -3.58241 0
M  V30 3038 H 295.343 -1.08172 -3.08166 0
M  V30 3039 H 294.002 -2.98747 -2.12475 0
M  V30 3040 H 293.65 -2.26267 -4.49235 0
M  V30 3041 H 293.35 -4.00781 -4.29708 0
M  V30 3042 H 294.874 -3.44559 -5.04094 0
M  V30 3043 H 296.288 -4.7631 -3.19064 0
M  V30 3044 H 294.685 -5.36862 -2.68141 0
M  V30 3045 H 295.755 -4.61606 -1.48484 0
M  V30 3046 N 297.098 0.621204 -1.44841 0
M  V30 3047 C 298.03 1.74615 -1.48466 0
M  V30 3048 C 299.043 1.58377 -0.37691 0
M  V30 3049 O 300.232 1.66508 -0.643215 0
M  V30 3050 C 297.332 3.12459 -1.31236 0
M  V30 3051 C 296.505 3.55064 -2.55438 0
M  V30 3052 C 295.564 4.71821 -2.32963 0
M  V30 3053 O 294.59 4.79628 -3.06505 0
M  V30 3054 N 295.792 5.64186 -1.36654 0
M  V30 3055 H 298.557 1.71973 -2.45449 0
M  V30 3056 H 296.118 0.806077 -1.40407 0
M  V30 3057 H 298.11 3.88302 -1.14032 0
M  V30 3058 H 296.68 3.09686 -0.4258 0
M  V30 3059 H 295.9 2.69324 -2.87851 0
M  V30 3060 H 297.188 3.80284 -3.38026 0
M  V30 3061 H 296.586 5.6058 -0.759344 0
M  V30 3062 H 295.143 6.39618 -1.25425 0
M  V30 3063 N 298.576 1.31904 0.862503 0
M  V30 3064 C 299.992 1.10724 1.14945 0
M  V30 3065 C 300.192 -0.117421 2.01158 0
M  V30 3066 O 299.248 -0.804595 2.39338 0
M  V30 3067 C 300.561 2.38267 1.83437 0
M  V30 3068 C 302.109 2.43949 1.96106 0
M  V30 3069 C 302.584 3.71394 2.68013 0
M  V30 3070 N 304.075 3.72331 2.75543 0
M  V30 3071 C 304.81 4.67641 3.31812 0
M  V30 3072 N 304.306 5.73313 3.88953 0
M  V30 3073 N 306.099 4.5515 3.29841 0
M  V30 3074 H 298.25 2.10436 0.288191 0
M  V30 3075 H 300.513 0.928705 0.190292 0
M  V30 3076 H 300.219 3.27759 1.27542 0
M  V30 3077 H 300.093 2.48633 2.83657 0
M  V30 3078 H 302.48 1.54922 2.51164 0
M  V30 3079 H 302.561 2.37543 0.949059 0
M  V30 3080 H 302.205 4.60791 2.13621 0
M  V30 3081 H 302.135 3.75069 3.69636 0
M  V30 3082 H 304.626 2.95947 2.34997 0
M  V30 3083 H 304.939 6.42107 4.30022 0
M  V30 3084 H 303.284 5.77077 3.87308 0
M  V30 3085 H 306.475 3.71766 2.84443 0
M  V30 3086 H 306.648 5.29604 3.73394 0
M  V30 3087 N 300.054 -1.07777 1.14986 0
M  V30 3088 C 301.279 -1.84558 0.946213 0
M  V30 3089 C 301.704 -1.81323 -0.500362 0
M  V30 3090 O 301.062 -1.20301 -1.35637 0
M  V30 3091 C 301.11 -3.29736 1.45968 0
M  V30 3092 O 300.214 -4.07149 0.65601 0
M  V30 3093 H 299.555 -0.571641 0.33782 0
M  V30 3094 H 302.085 -1.35991 1.52865 0
M  V30 3095 H 302.095 -3.80574 1.47063 0
M  V30 3096 H 300.77 -3.31406 2.51283 0
M  V30 3097 H 299.347 -3.65994 0.714322 0
M  V30 3098 N 301.532 -0.945985 -1.26051 0
M  V30 3099 C 302.479 -0.45809 -2.26208 0
M  V30 3100 C 303.449 0.484816 -1.58867 0
M  V30 3101 O 304.634 0.399969 -1.86561 0
M  V30 3102 C 301.774 0.266131 -3.44072 0
M  V30 3103 C 300.887 -0.713005 -4.26075 0
M  V30 3104 C 300.022 0.0329013 -5.3119 0
M  V30 3105 C 299.061 -0.93774 -6.04874 0
M  V30 3106 N 298.198 -0.223274 -7.01745 0
M  V30 3107 H 303.038 -1.3171 -2.67313 0
M  V30 3108 H 300.575 -0.66069 -1.31428 0
M  V30 3109 H 302.533 0.702514 -4.11243 0
M  V30 3110 H 301.163 1.08925 -3.03867 0
M  V30 3111 H 300.215 -1.26789 -3.58648 0
M  V30 3112 H 301.527 -1.45406 -4.77136 0
M  V30 3113 H 300.681 0.528335 -6.04395 0
M  V30 3114 H 299.42 0.806801 -4.8098 0
M  V30 3115 H 298.425 -1.44425 -5.30492 0
M  V30 3116 H 299.65 -1.71172 -6.57173 0
M  V30 3117 H 297.596 0.532046 -6.53839 0
M  V30 3118 H 297.513 -0.90357 -7.50581 0
M  V30 3119 H 298.781 0.250907 -7.79096 0
M  V30 3120 N 303.011 1.40521 -0.713556 0
M  V30 3121 C 303.958 2.30723 -0.059684 0
M  V30 3122 C 304.928 1.48079 0.752448 0
M  V30 3123 O 306.113 1.76823 0.71681 0
M  V30 3124 C 303.253 3.34274 0.857594 0
M  V30 3125 C 302.366 4.31986 0.0351536 0
M  V30 3126 C 301.501 5.22605 0.951724 0
M  V30 3127 C 300.54 6.11976 0.123253 0
M  V30 3128 N 299.677 6.9502 0.99459 0
M  V30 3129 H 304.517 2.86074 -0.834596 0
M  V30 3130 H 302.054 1.40879 -0.42326 0
M  V30 3131 H 304.012 3.92879 1.40364 0
M  V30 3132 H 302.642 2.8043 1.59871 0
M  V30 3133 H 301.694 3.7518 -0.628052 0
M  V30 3134 H 303.006 4.95101 -0.606347 0
M  V30 3135 H 302.16 5.86131 1.56638 0
M  V30 3136 H 300.899 4.59759 1.62705 0
M  V30 3137 H 299.904 5.47482 -0.50435 0
M  V30 3138 H 301.129 6.76881 -0.548539 0
M  V30 3139 H 299.075 6.34764 1.6556 0
M  V30 3140 H 298.992 7.54892 0.40908 0
M  V30 3141 H 300.26 7.62997 1.59549 0
M  V30 3142 N 304.489 0.459591 1.5075 0
M  V30 3143 C 305.737 -0.0991532 2.01857 0
M  V30 3144 C 306.058 -1.41247 1.34441 0
M  V30 3145 O 305.328 -1.89775 0.486022 0
M  V30 3146 H 303.908 -0.039633 0.745948 0
M  V30 3147 H 306.57 0.607387 1.85194 0
M  V30 3148 H 305.666 -0.258998 3.11023 0
M  V30 3149 N 305.967 -1.56429 0.191757 0
M  V30 3150 C 306.914 -2.18936 -0.730454 0
M  V30 3151 C 307.884 -1.13557 -1.21219 0
M  V30 3152 O 309.069 -1.41794 -1.27668 0
M  V30 3153 C 306.209 -2.85013 -1.9458 0
M  V30 3154 C 305.322 -4.04909 -1.50574 0
M  V30 3155 C 304.457 -4.58853 -2.67634 0
M  V30 3156 C 303.496 -5.71114 -2.20217 0
M  V30 3157 N 302.633 -6.19478 -3.30442 0
M  V30 3158 H 307.473 -2.97389 -0.190664 0
M  V30 3159 H 305.01 -1.46869 -0.0823694 0
M  V30 3160 H 306.968 -3.21492 -2.65893 0
M  V30 3161 H 305.598 -2.09129 -2.45896 0
M  V30 3162 H 304.65 -3.74115 -0.688605 0
M  V30 3163 H 305.962 -4.86113 -1.11784 0
M  V30 3164 H 305.116 -4.97619 -3.47074 0
M  V30 3165 H 303.855 -3.76749 -3.09696 0
M  V30 3166 H 302.86 -5.31879 -1.3923 0
M  V30 3167 H 304.085 -6.55033 -1.79189 0
M  V30 3168 H 302.031 -5.40297 -3.72041 0
M  V30 3169 H 301.948 -6.95725 -2.9581 0
M  V30 3170 H 303.216 -6.62898 -4.10106 0
M  V30 3171 N 307.445 0.0818655 -1.57387 0
M  V30 3172 C 308.375 1.09885 -2.06028 0
M  V30 3173 C 309.356 1.4098 -0.951774 0
M  V30 3174 O 310.541 1.50781 -1.22387 0
M  V30 3175 C 307.671 2.4151 -2.4958 0
M  V30 3176 C 306.625 2.24792 -3.64215 0
M  V30 3177 C 305.951 3.61712 -3.93787 0
M  V30 3178 C 307.251 1.67749 -4.94629 0
M  V30 3179 H 308.945 0.694128 -2.91243 0
M  V30 3180 H 306.491 0.332448 -1.4011 0
M  V30 3181 H 308.444 3.12939 -2.82219 0
M  V30 3182 H 307.168 2.83943 -1.61381 0
M  V30 3183 H 305.827 1.55807 -3.31843 0
M  V30 3184 H 305.475 4.01697 -3.02735 0
M  V30 3185 H 305.175 3.51368 -4.70971 0
M  V30 3186 H 306.699 4.34587 -4.28913 0
M  V30 3187 H 308.113 2.29032 -5.25564 0
M  V30 3188 H 306.51 1.68128 -5.76067 0
M  V30 3189 H 307.58 0.638059 -4.80684 0
M  V30 3190 N 308.923 1.53595 0.353017 0
M  V30 3191 C 310.334 1.61937 0.929153 0
M  V30 3192 C 310.685 0.494686 1.89861 0
M  V30 3193 O 309.81 -0.377017 2.1309 0
M  V30 3194 C 310.405 2.93526 1.69199 0
M  V30 3195 C 308.964 3.04161 2.21727 0
M  V30 3196 C 308.111 2.57322 1.03348 0
M  V30 3197 H 311.062 1.58155 0.131431 0
M  V30 3198 H 311.083 2.82034 2.55416 0
M  V30 3199 H 310.595 3.75362 0.986144 0
M  V30 3200 H 308.696 2.26938 2.95516 0
M  V30 3201 H 308.809 4.09465 2.48748 0
M  V30 3202 H 307.173 2.12499 1.40414 0
M  V30 3203 H 307.956 3.41588 0.342428 0
M  V30 3204 N 310.401 -0.613514 1.45168 0
M  V30 3205 C 311.65 -1.36874 1.4815 0
M  V30 3206 C 311.963 -1.952 0.124982 0
M  V30 3207 O 313.169 -2.71481 0.0324176 0
M  V30 3208 C 311.625 -2.47905 2.60904 0
M  V30 3209 C 311.233 -1.96016 4.02842 0
M  V30 3210 C 312.977 -3.24965 2.73126 0
M  V30 3211 C 310.884 -3.04494 5.06988 0
M  V30 3212 H 309.814 -0.514428 0.551253 0
M  V30 3213 H 312.465 -0.658182 1.7129 0
M  V30 3214 H 310.847 -3.21618 2.31037 0
M  V30 3215 H 312.021 -1.29051 4.4236 0
M  V30 3216 H 310.336 -1.31719 3.95018 0
M  V30 3217 H 312.933 -4.05865 3.48106 0
M  V30 3218 H 313.276 -3.75588 1.79553 0
M  V30 3219 H 313.809 -2.5835 3.0249 0
M  V30 3220 H 310.548 -2.58795 6.0225 0
M  V30 3221 H 310.068 -3.70044 4.72046 0
M  V30 3222 H 311.747 -3.68976 5.31475 0
M  V30 3223 N 311.879 -1.3236 -0.855495 0
M  V30 3224 C 313.125 -1.23054 -1.612 0
M  V30 3225 C 313.458 0.207404 -1.93089 0
M  V30 3226 O 312.733 1.14432 -1.57275 0
M  V30 3227 C 313.016 -2.08937 -2.93287 0
M  V30 3228 C 312.869 -3.61105 -2.68185 0
M  V30 3229 C 314.188 -1.94986 -3.94549 0
M  V30 3230 H 311.307 -0.448364 -0.584926 0
M  V30 3231 H 313.949 -1.62297 -0.987917 0
M  V30 3232 H 312.099 -1.75599 -3.46551 0
M  V30 3233 H 313.771 -4.04652 -2.21483 0
M  V30 3234 H 312.014 -3.83813 -2.02164 0
M  V30 3235 H 312.685 -4.16522 -3.62234 0
M  V30 3236 H 315.161 -2.24189 -3.5054 0
M  V30 3237 H 314.037 -2.57356 -4.84829 0
M  V30 3238 H 314.298 -0.917263 -4.3248 0
M  V30 3239 N 313.357 1.07166 -1.15556 0
M  V30 3240 C 314.305 2.16517 -0.8499 0
M  V30 3241 C 315.299 1.68468 0.177454 0
M  V30 3242 O 316.505 1.79971 0.0323026 0
M  V30 3243 H 312.88 0.706652 -0.25719 0
M  V30 3244 H 314.851 2.39514 -1.77976 0
M  V30 3245 C 313.6 3.45855 -0.357682 0
M  V30 3246 H 312.923 3.83214 -1.13961 0
M  V30 3247 H 314.363 4.23607 -0.182489 0
M  V30 3248 C 312.822 3.24062 0.921152 0
M  V30 3249 O 313.352 3.48813 1.9923 0
M  V30 3250 N 311.558 2.77539 0.86141 0
M  V30 3251 H 311.105 2.57598 -0.0104408 0
M  V30 3252 H 311.063 2.63337 1.71758 0
M  V30 3253 N 314.835 0.952656 1.25548 0
M  V30 3254 C 316.112 0.523818 1.88456 0
M  V30 3255 C 316.492 -0.998871 1.85973 0
M  V30 3256 O 315.84 -1.86381 1.3219 0
M  V30 3257 C 316.05 1.0982 3.31271 0
M  V30 3258 C 317.398 1.17385 4.08051 0
M  V30 3259 O 318.422 1.04961 3.40384 0
M  V30 3260 O 317.281 1.36852 5.29088 0
M  V30 3261 H 314.375 0.172485 0.808813 0
M  V30 3262 H 316.921 1.04596 1.33633 0
M  V30 3263 H 315.693 2.1415 3.27499 0
M  V30 3264 H 315.316 0.559191 3.93648 0
M  V30 3265 N 316.313 -1.40141 0.720998 0
M  V30 3266 C 317.553 -2.02644 0.267335 0
M  V30 3267 C 317.917 -1.55948 -1.12001 0
M  V30 3268 O 319.118 -2.10552 -1.67097 0
M  V30 3269 C 317.389 -3.55679 0.350281 0
M  V30 3270 S 318.948 -4.38793 -0.0256004 0
M  V30 3271 H 315.766 -0.703105 0.105664 0
M  V30 3272 H 318.368 -1.71175 0.944416 0
M  V30 3273 H 317.072 -3.87157 1.36153 0
M  V30 3274 H 316.603 -3.91883 -0.345096 0
M  V30 3275 H 318.618 -4.803 -1.24604 0
M  V30 3276 N 317.792 -0.46758 -1.50504 0
M  V30 3277 C 319.069 0.15003 -1.95024 0
M  V30 3278 C 319.449 1.57304 -1.40779 0
M  V30 3279 O 318.797 2.20281 -0.607319 0
M  V30 3280 C 319.007 0.0969324 -3.48865 0
M  V30 3281 C 320.355 0.287565 -4.23625 0
M  V30 3282 O 321.379 0.173678 -3.55776 0
M  V30 3283 O 320.238 0.517186 -5.44047 0
M  V30 3284 H 317.332 0.113582 -0.819163 0
M  V30 3285 H 319.878 -0.52773 -1.61286 0
M  V30 3286 H 318.65 -0.896732 -3.80886 0
M  V30 3287 H 318.273 0.816303 -3.8913 0
M  V30 3288 N 319.27 1.56325 -0.20005 0
M  V30 3289 C 320.18 2.22931 0.730668 0
M  V30 3290 C 321.196 1.22997 1.23076 0
M  V30 3291 O 322.372 1.55748 1.27689 0
M  V30 3292 C 319.437 2.87948 1.93098 0
M  V30 3293 C 318.498 4.03166 1.47497 0
M  V30 3294 C 317.731 4.65073 2.61807 0
M  V30 3295 O 317.954 4.25913 3.79413 0
M  V30 3296 O 316.888 5.54452 2.34237 0
M  V30 3297 H 320.714 3.03084 0.193391 0
M  V30 3298 H 318.299 1.49371 0.0294621 0
M  V30 3299 H 320.181 3.29063 2.6324 0
M  V30 3300 H 318.856 2.10771 2.45677 0
M  V30 3301 H 317.763 3.66664 0.742201 0
M  V30 3302 H 319.096 4.82022 0.995796 0
M  V30 3303 N 320.748 -0.0735177 1.57428 0
M  V30 3304 C 321.678 -1.0879 2.06608 0
M  V30 3305 C 322.659 -1.40473 0.959237 0
M  V30 3306 O 323.844 -1.5013 1.23185 0
M  V30 3307 C 320.974 -2.40183 2.50857 0
M  V30 3308 C 319.928 -2.22858 3.65402 0
M  V30 3309 C 319.254 -3.59619 3.957 0
M  V30 3310 C 320.554 -1.65123 4.95511 0
M  V30 3311 H 322.248 -0.678673 2.91607 0
M  V30 3312 H 319.794 -0.325013 1.40284 0
M  V30 3313 H 321.747 -3.11437 2.83874 0
M  V30 3314 H 320.471 -2.83083 1.62885 0
M  V30 3315 H 319.13 -1.54045 3.32664 0
M  V30 3316 H 318.778 -4.00086 3.04861 0
M  V30 3317 H 318.478 -3.48866 4.72828 0
M  V30 3318 H 320.002 -4.32306 4.31212 0
M  V30 3319 H 321.416 -2.26241 5.26771 0
M  V30 3320 H 319.813 -1.65071 5.7695 0
M  V30 3321 H 320.883 -0.612559 4.81015 0
M  V30 3322 N 322.226 -1.5378 -0.344866 0
M  V30 3323 C 323.472 -1.71216 -1.08687 0
M  V30 3324 C 323.805 -0.473281 -1.88345 0
M  V30 3325 O 323.08 0.52968 -1.87149 0
M  V30 3326 C 323.363 -2.97486 -2.02914 0
M  V30 3327 C 323.216 -4.31579 -1.26727 0
M  V30 3328 C 324.535 -3.19422 -3.0275 0
M  V30 3329 H 321.654 -0.62301 -0.393735 0
M  V30 3330 H 324.296 -1.8645 -0.365563 0
M  V30 3331 H 322.446 -2.84629 -2.64421 0
M  V30 3332 H 324.118 -4.56284 -0.67845 0
M  V30 3333 H 322.361 -4.30049 -0.569273 0
M  V30 3334 H 323.032 -5.16106 -1.95803 0
M  V30 3335 H 325.508 -3.316 -2.51357 0
M  V30 3336 H 324.384 -4.09169 -3.65885 0
M  V30 3337 H 324.645 -2.35656 -3.74057 0
M  V30 3338 N 323.704 0.605807 -1.45491 0
M  V30 3339 C 324.667 1.69836 -1.5391 0
M  V30 3340 C 325.667 1.55261 -0.418424 0
M  V30 3341 O 326.857 1.60296 -0.681965 0
M  V30 3342 C 323.989 3.09117 -1.43734 0
M  V30 3343 H 325.182 1.63738 -2.51257 0
M  V30 3344 H 322.735 0.821689 -1.32959 0
M  V30 3345 H 323.47 3.20791 -0.475788 0
M  V30 3346 H 323.255 3.21104 -2.25021 0
M  V30 3347 H 324.745 3.88696 -1.52661 0
M  V30 3348 N 325.182 1.32811 0.848464 0
M  V30 3349 C 326.431 1.23075 1.59798 0
M  V30 3350 C 326.744 -0.204419 1.94529 0
M  V30 3351 O 327.95 -0.423701 2.68173 0
M  V30 3352 C 326.406 2.15594 2.88179 0
M  V30 3353 C 326.014 3.64228 2.60849 0
M  V30 3354 C 327.758 2.14709 3.66197 0
M  V30 3355 C 325.665 4.48689 3.85269 0
M  V30 3356 H 324.595 0.457091 0.599653 0
M  V30 3357 H 327.246 1.57813 0.936342 0
M  V30 3358 H 325.628 1.73778 3.55833 0
M  V30 3359 H 326.802 4.14424 2.01467 0
M  V30 3360 H 325.117 3.67306 1.96151 0
M  V30 3361 H 327.714 2.75046 4.58534 0
M  V30 3362 H 328.057 1.13966 4.00397 0
M  V30 3363 H 328.59 2.54837 3.05455 0
M  V30 3364 H 325.329 5.5027 3.56207 0
M  V30 3365 H 324.849 4.03241 4.44024 0
M  V30 3366 H 326.528 4.62006 4.52946 0
M  V30 3367 N 326.66 -1.06551 1.16123 0
M  V30 3368 C 327.909 -1.78687 0.935622 0
M  V30 3369 C 328.222 -1.88056 -0.538001 0
M  V30 3370 O 329.428 -2.56794 -0.88143 0
M  V30 3371 C 327.884 -3.21143 1.62466 0
M  V30 3372 C 327.492 -3.19949 3.13587 0
M  V30 3373 C 329.236 -3.9783 1.48092 0
M  V30 3374 C 327.143 -4.57108 3.75241 0
M  V30 3375 H 326.073 -0.669712 0.346412 0
M  V30 3376 H 328.724 -1.19534 1.39226 0
M  V30 3377 H 327.106 -3.80539 1.09572 0
M  V30 3378 H 328.28 -2.70151 3.73303 0
M  V30 3379 H 326.595 -2.5676 3.27816 0
M  V30 3380 H 329.192 -4.99217 1.91538 0
M  V30 3381 H 329.535 -4.14078 0.429507 0
M  V30 3382 H 330.068 -3.4495 1.98127 0
M  V30 3383 H 326.807 -4.46065 4.80319 0
M  V30 3384 H 326.327 -5.07111 3.20309 0
M  V30 3385 H 328.006 -5.26069 3.76644 0
M  V30 3386 N 328.138 -0.959301 -1.25041 0
M  V30 3387 C 329.101 -0.487677 -2.23952 0
M  V30 3388 C 330.101 0.41119 -1.55454 0
M  V30 3389 O 331.291 0.207825 -1.72956 0
M  V30 3390 C 328.423 0.294807 -3.39623 0
M  V30 3391 H 329.616 -1.36198 -2.67189 0
M  V30 3392 H 327.169 -0.743042 -1.37508 0
M  V30 3393 H 327.904 1.18658 -3.01813 0
M  V30 3394 H 327.689 -0.35012 -3.90534 0
M  V30 3395 H 329.179 0.614089 -4.1306 0
M  V30 3396 N 329.616 1.39756 -0.72842 0
M  V30 3397 C 331.032 1.5442 -0.403308 0
M  V30 3398 C 331.232 1.69694 1.08656 0
M  V30 3399 O 330.288 1.69373 1.87267 0
M  V30 3400 C 331.601 2.76555 -1.18058 0
M  V30 3401 C 333.149 2.90384 -1.16815 0
M  V30 3402 C 333.624 4.15449 -1.92785 0
M  V30 3403 N 335.115 4.22475 -1.89918 0
M  V30 3404 C 335.85 5.1818 -2.45514 0
M  V30 3405 N 335.346 6.19714 -3.09719 0
M  V30 3406 N 337.139 5.1035 -2.35584 0
M  V30 3407 H 329.29 1.28089 -1.69431 0
M  V30 3408 H 331.553 0.620327 -0.716867 0
M  V30 3409 H 331.259 2.7159 -2.23455 0
M  V30 3410 H 331.133 3.69033 -0.780662 0
M  V30 3411 H 333.52 2.94846 -0.12234 0
M  V30 3412 H 333.601 1.98988 -1.6074 0
M  V30 3413 H 333.245 4.11749 -2.97364 0
M  V30 3414 H 333.175 5.05877 -1.46272 0
M  V30 3415 H 335.666 3.49743 -1.43138 0
M  V30 3416 H 335.979 6.8919 -3.49625 0
M  V30 3417 H 334.324 6.20121 -3.13807 0
M  V30 3418 H 337.515 4.2996 -1.85072 0
M  V30 3419 H 337.688 5.84761 -2.79211 0
M  V30 3420 N 331.094 0.475555 1.50254 0
M  V30 3421 C 332.322 -0.0754493 2.06762 0
M  V30 3422 C 332.737 -1.33111 1.33891 0
M  V30 3423 O 332.094 -1.77846 0.40952 0
M  V30 3424 C 332.145 -0.359008 3.59713 0
M  V30 3425 O 331.866 0.846851 4.29837 0
M  V30 3426 C 333.367 -0.956484 4.32858 0
M  V30 3427 H 330.587 0.00907525 0.670939 0
M  V30 3428 H 333.131 0.665618 1.93364 0
M  V30 3429 H 331.286 -1.05001 3.72899 0
M  V30 3430 H 331.7 0.594162 5.21124 0
M  V30 3431 H 333.174 -1.10463 5.40834 0
M  V30 3432 H 333.651 -1.94775 3.93649 0
M  V30 3433 H 334.257 -0.303723 4.24214 0
M  V30 3434 N 332.573 -1.56217 0.208337 0
M  V30 3435 C 333.85 -1.89739 -0.475234 0
M  V30 3436 C 334.23 -1.1238 -1.78701 0
M  V30 3437 O 333.578 -0.228979 -2.2735 0
M  V30 3438 C 333.788 -3.42289 -0.681101 0
M  V30 3439 C 335.136 -4.12789 -0.994507 0
M  V30 3440 O 336.16 -3.47814 -0.768357 0
M  V30 3441 O 335.019 -5.27649 -1.42299 0
M  V30 3442 H 332.113 -0.788478 -0.249461 0
M  V30 3443 H 334.659 -1.67855 0.249538 0
M  V30 3444 H 333.431 -3.90534 0.244722 0
M  V30 3445 H 333.054 -3.69909 -1.45785 0
M  V30 3446 N 334.051 0.0651679 -1.57465 0
M  V30 3447 C 334.981 1.07693 -2.07182 0
M  V30 3448 C 335.962 1.39962 -0.966673 0
M  V30 3449 O 337.147 1.49475 -1.2398 0
M  V30 3450 C 334.277 2.3885 -2.52127 0
M  V30 3451 C 333.231 2.20917 -3.66579 0
M  V30 3452 C 332.557 3.57515 -3.97601 0
M  V30 3453 C 333.857 1.62493 -4.9638 0
M  V30 3454 H 335.551 0.663199 -2.91962 0
M  V30 3455 H 333.097 0.317569 -1.40455 0
M  V30 3456 H 335.05 3.09928 -2.85522 0
M  V30 3457 H 333.774 2.82215 -1.64384 0
M  V30 3458 H 332.433 1.52279 -3.33477 0
M  V30 3459 H 332.081 3.98463 -3.06979 0
M  V30 3460 H 331.781 3.46353 -4.74672 0
M  V30 3461 H 333.305 4.30013 -4.33499 0
M  V30 3462 H 334.719 2.23445 -5.27963 0
M  V30 3463 H 333.116 1.62009 -5.77818 0
M  V30 3464 H 334.186 0.587041 -4.81333 0
M  V30 3465 N 335.529 1.53961 0.336706 0
M  V30 3466 C 336.476 1.82428 1.41381 0
M  V30 3467 C 337.446 0.670444 1.51968 0
M  V30 3468 O 338.631 0.915565 1.67398 0
M  V30 3469 C 335.771 2.04564 2.77934 0
M  V30 3470 C 334.884 3.32267 2.76084 0
M  V30 3471 C 334.019 3.44434 4.04399 0
M  V30 3472 C 333.058 4.66061 3.96804 0
M  V30 3473 N 332.195 4.75224 5.16823 0
M  V30 3474 H 337.035 2.74324 1.16405 0
M  V30 3475 H 334.572 1.35869 0.563752 0
M  V30 3476 H 336.53 2.15388 3.57301 0
M  V30 3477 H 335.16 1.15974 3.01247 0
M  V30 3478 H 334.212 3.3025 1.88784 0
M  V30 3479 H 335.524 4.21733 2.66351 0
M  V30 3480 H 334.678 3.54728 4.92192 0
M  V30 3481 H 333.417 2.53037 4.16921 0
M  V30 3482 H 332.422 4.55838 3.07396 0
M  V30 3483 H 333.647 5.58829 3.85858 0
M  V30 3484 H 331.593 3.86739 5.29876 0
M  V30 3485 H 331.51 5.58636 5.09374 0
M  V30 3486 H 332.778 4.89835 6.06367 0
M  V30 3487 N 337.007 -0.598083 1.45811 0
M  V30 3488 C 337.954 -1.7082 1.55207 0
M  V30 3489 C 338.924 -1.61278 0.39732 0
M  V30 3490 O 340.109 -1.80717 0.612038 0
M  V30 3491 C 337.249 -3.09144 1.53376 0
M  V30 3492 C 336.362 -3.29423 2.79472 0
M  V30 3493 C 335.497 -4.57907 2.69248 0
M  V30 3494 C 334.536 -4.71476 3.90354 0
M  V30 3495 N 333.673 -5.9127 3.78608 0
M  V30 3496 H 338.513 -1.62125 2.50039 0
M  V30 3497 H 336.05 -0.790389 1.24062 0
M  V30 3498 H 338.008 -3.89186 1.50301 0
M  V30 3499 H 336.638 -3.16773 0.620876 0
M  V30 3500 H 335.69 -2.43091 2.92594 0
M  V30 3501 H 337.002 -3.3532 3.69272 0
M  V30 3502 H 336.156 -5.46157 2.64192 0
M  V30 3503 H 334.895 -4.54423 1.77063 0
M  V30 3504 H 333.9 -3.81648 3.95759 0
M  V30 3505 H 335.125 -4.76751 4.83617 0
M  V30 3506 H 333.071 -5.88813 2.89199 0
M  V30 3507 H 332.988 -5.98369 4.6205 0
M  V30 3508 H 334.256 -6.81992 3.77501 0
M  V30 3509 N 338.485 -1.33259 -0.841409 0
M  V30 3510 C 339.433 -1.23279 -1.97244 0
M  V30 3511 C 340.427 -0.134706 -1.68864 0
M  V30 3512 O 341.633 -0.298501 -1.77508 0
M  V30 3513 H 338.008 -0.382497 -0.647457 0
M  V30 3514 H 339.979 -2.18906 -2.02787 0
M  V30 3515 C 338.728 -0.986268 -3.33419 0
M  V30 3516 H 338.051 -1.82347 -3.55794 0
M  V30 3517 H 339.491 -0.956728 -4.13065 0
M  V30 3518 C 337.95 0.310842 -3.35463 0
M  V30 3519 O 338.48 1.31838 -3.79449 0
M  V30 3520 N 336.686 0.337485 -2.88634 0
M  V30 3521 H 336.233 -0.482967 -2.53032 0
M  V30 3522 H 336.191 1.20518 -2.90384 0
M  V30 3523 N 339.963 1.05934 -1.16686 0
M  V30 3524 C 341.379 1.30938 -0.912542 0
M  V30 3525 C 341.579 1.96803 0.432533 0
M  V30 3526 O 340.635 2.23693 1.17123 0
M  V30 3527 C 341.948 2.18649 -2.06429 0
M  V30 3528 C 343.496 2.32055 -2.10047 0
M  V30 3529 C 343.971 3.23122 -3.24586 0
M  V30 3530 N 345.462 3.30706 -3.24327 0
M  V30 3531 C 346.197 4.01273 -4.09594 0
M  V30 3532 N 345.693 4.74332 -5.04956 0
M  V30 3533 N 347.486 3.97361 -3.97569 0
M  V30 3534 H 339.637 0.615777 -2.03278 0
M  V30 3535 H 341.9 0.334077 -0.887185 0
M  V30 3536 H 341.606 1.77534 -3.03603 0
M  V30 3537 H 341.48 3.19252 -2.00894 0
M  V30 3538 H 343.867 2.72415 -1.13464 0
M  V30 3539 H 343.948 1.31107 -2.19647 0
M  V30 3540 H 343.592 2.83477 -4.2143 0
M  V30 3541 H 343.522 4.24057 -3.12223 0
M  V30 3542 H 346.013 2.78644 -2.55276 0
M  V30 3543 H 346.326 5.25716 -5.6643 0
M  V30 3544 H 344.671 4.733 -5.08933 0
M  V30 3545 H 347.862 3.39405 -3.22369 0
M  V30 3546 H 348.035 4.52089 -4.64241 0
M  V30 3547 N 341.441 0.965919 1.2453 0
M  V30 3548 C 342.718 0.543777 1.87889 0
M  V30 3549 C 343.098 -0.97909 1.87021 0
M  V30 3550 O 342.446 -1.84969 1.3416 0
M  V30 3551 C 342.656 1.13327 3.30088 0
M  V30 3552 C 344.004 1.21707 4.06783 0
M  V30 3553 O 345.028 1.08566 3.39252 0
M  V30 3554 O 343.887 1.42456 5.27606 0
M  V30 3555 H 340.981 0.181054 0.806938 0
M  V30 3556 H 343.527 1.06007 1.32516 0
M  V30 3557 H 342.299 2.17612 3.25209 0
M  V30 3558 H 341.922 0.600911 3.93033 0
M  V30 3559 N 342.919 -1.39368 0.735821 0
M  V30 3560 C 344.149 -2.04498 0.293967 0
M  V30 3561 C 344.557 -1.55593 -1.07645 0
M  V30 3562 O 343.9 -0.716324 -1.69158 0
M  V30 3563 C 343.962 -3.58836 0.218342 0
M  V30 3564 C 343.626 -4.30721 1.52736 0
M  V30 3565 C 344.623 -4.57305 2.47322 0
M  V30 3566 C 342.308 -4.69251 1.79189 0
M  V30 3567 C 344.302 -5.21429 3.66593 0
M  V30 3568 C 341.989 -5.33104 2.98737 0
M  V30 3569 C 342.987 -5.59125 3.9226 0
M  V30 3570 O 342.675 -6.21653 5.09708 0
M  V30 3571 H 342.407 -0.664118 0.126189 0
M  V30 3572 H 344.961 -1.79385 1.00051 0
M  V30 3573 H 343.191 -3.8285 -0.544314 0
M  V30 3574 H 344.88 -4.05447 -0.191626 0
M  V30 3575 H 345.646 -4.27983 2.28156 0
M  V30 3576 H 341.525 -4.48354 1.07239 0
M  V30 3577 H 345.069 -5.41656 4.39607 0
M  V30 3578 H 340.966 -5.61846 3.17803 0
M  V30 3579 H 341.734 -6.40146 5.10054 0
M  V30 3580 N 344.397 -0.483516 -1.5 0
M  V30 3581 C 345.808 -0.0314176 -1.86674 0
M  V30 3582 C 346.159 1.37728 -1.39733 0
M  V30 3583 O 345.284 2.02327 -0.767635 0
M  V30 3584 C 345.879 -0.0502376 -3.38763 0
M  V30 3585 C 344.438 0.346442 -3.74802 0
M  V30 3586 C 343.585 -0.430366 -2.7394 0
M  V30 3587 H 346.536 -0.697182 -1.42566 0
M  V30 3588 H 346.557 0.749116 -3.73053 0
M  V30 3589 H 346.069 -1.07563 -3.72897 0
M  V30 3590 H 344.17 1.37572 -3.46273 0
M  V30 3591 H 344.283 0.0391486 -4.79084 0
M  V30 3592 H 342.647 0.117557 -2.54429 0
M  V30 3593 H 343.43 -1.4555 -3.10918 0
M  V30 3594 N 345.875 1.56104 -0.216619 0
M  V30 3595 C 346.805 2.23063 0.690296 0
M  V30 3596 C 347.786 1.20072 1.20485 0
M  V30 3597 O 348.971 1.48643 1.24976 0
M  V30 3598 C 346.101 2.90672 1.90072 0
M  V30 3599 C 345.055 4.00092 1.5202 0
M  V30 3600 C 344.381 4.54972 2.80899 0
M  V30 3601 C 345.681 5.17398 0.71391 0
M  V30 3602 H 347.375 2.99109 0.132038 0
M  V30 3603 H 344.921 1.43866 0.0620664 0
M  V30 3604 H 346.874 3.36204 2.54057 0
M  V30 3605 H 345.598 2.12066 2.48386 0
M  V30 3606 H 344.257 3.55283 0.903839 0
M  V30 3607 H 343.905 3.73102 3.37348 0
M  V30 3608 H 343.605 5.28817 2.56176 0
M  V30 3609 H 345.129 5.0322 3.45836 0
M  V30 3610 H 346.543 5.59342 1.25735 0
M  V30 3611 H 344.94 5.97444 0.563951 0
M  V30 3612 H 346.01 4.84088 -0.280527 0
M  V30 3613 N 347.353 -0.0568162 1.57498 0
M  V30 3614 C 348.316 -1.05038 2.03715 0
M  V30 3615 C 349.316 -1.30709 0.936577 0
M  V30 3616 O 350.506 -1.26178 1.20103 0
M  V30 3617 C 347.638 -2.39034 2.43055 0
M  V30 3618 H 348.831 -0.651715 2.92733 0
M  V30 3619 H 346.384 -0.302947 1.53336 0
M  V30 3620 H 347.119 -2.83703 1.57108 0
M  V30 3621 H 346.904 -2.21739 3.2338 0
M  V30 3622 H 348.394 -3.10421 2.79336 0
M  V30 3623 N 348.832 -1.54138 -0.328536 0
M  V30 3624 C 350.057 -1.76378 -1.09112 0
M  V30 3625 C 350.482 -0.508596 -1.81094 0
M  V30 3626 O 349.84 0.539598 -1.73084 0
M  V30 3627 C 349.888 -2.95358 -2.06872 0
M  V30 3628 O 348.992 -2.66556 -3.14677 0
M  V30 3629 H 348.333 -0.584614 -0.314838 0
M  V30 3630 H 350.863 -2.01146 -0.374348 0
M  V30 3631 H 350.873 -3.22566 -2.4983 0
M  V30 3632 H 349.548 -3.86385 -1.5388 0
M  V30 3633 H 348.125 -2.50282 -2.7643 0
M  V30 3634 N 350.31 0.590341 -1.46126 0
M  V30 3635 C 351.257 1.69994 -1.56111 0
M  V30 3636 C 352.227 1.61065 -0.405867 0
M  V30 3637 O 353.412 1.8039 -0.621613 0
M  V30 3638 C 350.552 3.08326 -1.55013 0
M  V30 3639 C 349.665 3.27936 -2.81215 0
M  V30 3640 C 348.8 4.56473 -2.71673 0
M  V30 3641 C 347.839 4.694 -3.92849 0
M  V30 3642 N 346.976 5.89254 -3.81738 0
M  V30 3643 H 351.816 1.60797 -2.50895 0
M  V30 3644 H 349.353 0.783799 -1.24479 0
M  V30 3645 H 351.311 3.88383 -1.52362 0
M  V30 3646 H 349.941 3.16439 -0.637667 0
M  V30 3647 H 348.993 2.41536 -2.93879 0
M  V30 3648 H 350.305 3.33357 -3.71045 0
M  V30 3649 H 349.459 5.44748 -2.67085 0
M  V30 3650 H 348.198 4.53477 -1.7947 0
M  V30 3651 H 347.203 3.79544 -3.97777 0
M  V30 3652 H 348.428 4.7418 -4.86138 0
M  V30 3653 H 346.374 5.87271 -2.92317 0
M  V30 3654 H 346.291 5.95911 -4.65217 0
M  V30 3655 H 347.559 6.79981 -3.81112 0
M  V30 3656 N 351.788 1.33704 0.83433 0
M  V30 3657 C 353.065 1.16011 1.57483 0
M  V30 3658 C 353.445 -0.27176 2.09343 0
M  V30 3659 O 352.793 -1.27146 1.89858 0
M  V30 3660 C 353.003 2.20507 2.70514 0
M  V30 3661 C 354.351 2.54898 3.39577 0
M  V30 3662 O 355.375 2.19209 2.80759 0
M  V30 3663 O 354.234 3.16158 4.45765 0
M  V30 3664 H 351.328 0.448992 0.694503 0
M  V30 3665 H 353.874 1.453 0.876691 0
M  V30 3666 H 352.646 3.16667 2.29865 0
M  V30 3667 H 352.269 1.92329 3.47987 0
M  V30 3668 N 353.266 -1.05314 1.17247 0
M  V30 3669 C 354.491 -1.82509 0.985148 0
M  V30 3670 C 354.916 -1.82343 -0.461788 0
M  V30 3671 O 354.274 -1.23151 -1.33055 0
M  V30 3672 C 354.322 -3.26566 1.52929 0
M  V30 3673 O 353.426 -4.05666 0.742225 0
M  V30 3674 H 352.767 -0.564347 0.349869 0
M  V30 3675 H 355.297 -1.32718 1.55715 0
M  V30 3676 H 355.307 -3.77369 1.55103 0
M  V30 3677 H 353.982 -3.26001 2.58256 0
M  V30 3678 H 352.559 -3.64397 0.791794 0
M  V30 3679 N 354.744 -0.972509 -1.24016 0
M  V30 3680 C 355.676 -0.464375 -2.24446 0
M  V30 3681 C 356.689 0.4295 -1.57032 0
M  V30 3682 O 357.878 0.234902 -1.76948 0
M  V30 3683 C 354.978 0.348385 -3.37105 0
M  V30 3684 C 354.151 -0.53673 -4.34094 0
M  V30 3685 C 353.21 0.220838 -5.25736 0
M  V30 3686 O 352.236 -0.386867 -5.67884 0
M  V30 3687 N 353.438 1.50907 -5.60542 0
M  V30 3688 H 356.203 -1.32788 -2.68677 0
M  V30 3689 H 353.764 -0.844877 -1.38107 0
M  V30 3690 H 355.756 0.863341 -3.95384 0
M  V30 3691 H 354.326 1.11285 -2.92121 0
M  V30 3692 H 353.546 -1.23261 -3.74433 0
M  V30 3693 H 354.834 -1.14022 -4.95859 0
M  V30 3694 H 354.232 2.02444 -5.28236 0
M  V30 3695 H 352.789 1.96962 -6.21329 0
M  V30 3696 N 356.222 1.38976 -0.743202 0
M  V30 3697 C 357.169 2.30544 -0.10861 0
M  V30 3698 C 358.139 1.49642 0.720869 0
M  V30 3699 O 359.324 1.78304 0.679142 0
M  V30 3700 C 356.464 3.36018 0.786496 0
M  V30 3701 C 355.577 4.31963 -0.0564849 0
M  V30 3702 C 354.712 5.24506 0.840657 0
M  V30 3703 C 353.751 6.121 -0.00658363 0
M  V30 3704 N 352.888 6.96973 0.846943 0
M  V30 3705 H 357.728 2.8424 -0.895088 0
M  V30 3706 H 355.265 1.3995 -0.453048 0
M  V30 3707 H 357.223 3.95768 1.31999 0
M  V30 3708 H 355.853 2.83758 1.53887 0
M  V30 3709 H 354.905 3.73763 -0.707492 0
M  V30 3710 H 356.217 4.93703 -0.711229 0
M  V30 3711 H 355.371 5.89322 1.4417 0
M  V30 3712 H 354.11 4.63107 1.52916 0
M  V30 3713 H 353.115 5.46289 -0.620366 0
M  V30 3714 H 354.34 6.75565 -0.691992 0
M  V30 3715 H 352.286 6.38133 1.52059 0
M  V30 3716 H 352.203 7.5559 0.248864 0
M  V30 3717 H 353.471 7.6621 1.43328 0
M  V30 3718 N 357.7 0.491464 1.49741 0
M  V30 3719 C 358.632 -0.328609 2.26832 0
M  V30 3720 C 359.645 -0.939113 1.32983 0
M  V30 3721 O 360.834 -0.824067 1.58339 0
M  V30 3722 C 357.934 -1.47675 3.05033 0
M  V30 3723 C 357.107 -0.975305 4.26388 0
M  V30 3724 C 356.166 -1.99991 4.86714 0
M  V30 3725 O 355.192 -1.57229 5.47054 0
M  V30 3726 N 356.394 -3.32962 4.75517 0
M  V30 3727 H 359.159 0.332377 2.97851 0
M  V30 3728 H 356.72 0.323441 1.58636 0
M  V30 3729 H 358.712 -2.15954 3.42266 0
M  V30 3730 H 357.282 -2.04206 2.36683 0
M  V30 3731 H 356.502 -0.117723 3.94024 0
M  V30 3732 H 357.79 -0.618531 5.05026 0
M  V30 3733 H 357.188 -3.70399 4.27576 0
M  V30 3734 H 355.745 -3.96982 5.16961 0
M  V30 3735 N 359.178 -1.55987 0.224894 0
M  V30 3736 C 360.108 -2.23426 -0.678457 0
M  V30 3737 C 361.089 -1.20709 -1.19847 0
M  V30 3738 O 362.274 -1.49304 -1.24186 0
M  V30 3739 C 359.404 -2.91676 -1.88527 0
M  V30 3740 C 358.358 -4.00893 -1.49896 0
M  V30 3741 C 357.684 -4.56455 -2.78483 0
M  V30 3742 C 358.984 -5.17769 -0.686461 0
M  V30 3743 H 360.678 -2.99175 -0.116173 0
M  V30 3744 H 358.224 -1.43897 -0.054436 0
M  V30 3745 H 360.177 -3.37547 -2.5227 0
M  V30 3746 H 358.901 -2.1338 -2.47258 0
M  V30 3747 H 357.56 -3.55758 -0.884985 0
M  V30 3748 H 357.208 -3.74886 -3.35365 0
M  V30 3749 H 356.908 -5.30169 -2.53368 0
M  V30 3750 H 358.432 -5.05047 -3.43162 0
M  V30 3751 H 359.846 -5.60001 -1.22767 0
M  V30 3752 H 358.243 -5.97735 -0.532259 0
M  V30 3753 H 359.313 -4.83932 0.306196 0
M  V30 3754 N 360.656 0.0484629 -1.57525 0
M  V30 3755 C 361.586 1.0549 -2.08313 0
M  V30 3756 C 362.567 1.38929 -0.981463 0
M  V30 3757 O 363.752 1.48151 -1.25558 0
M  V30 3758 C 360.882 2.36162 -2.54646 0
M  V30 3759 C 359.836 2.17016 -3.68901 0
M  V30 3760 C 359.162 3.53278 -4.01371 0
M  V30 3761 C 360.462 1.57219 -4.98076 0
M  V30 3762 H 362.156 0.632195 -2.92649 0
M  V30 3763 H 359.702 0.302654 -1.40784 0
M  V30 3764 H 361.655 3.06882 -2.88793 0
M  V30 3765 H 360.379 2.80456 -1.67368 0
M  V30 3766 H 359.038 1.48733 -3.35073 0
M  V30 3767 H 358.686 3.95185 -3.11188 0
M  V30 3768 H 358.386 3.41299 -4.78318 0
M  V30 3769 H 359.91 4.25391 -4.38035 0
M  V30 3770 H 361.324 2.17832 -5.30304 0
M  V30 3771 H 359.721 1.55871 -5.79503 0
M  V30 3772 H 360.791 0.535956 -4.81929 0
M  V30 3773 N 362.134 1.5431 0.320358 0
M  V30 3774 C 363.374 1.74395 1.0661 0
M  V30 3775 C 363.738 0.508602 1.85141 0
M  V30 3776 O 364.939 0.586856 2.62316 0
M  V30 3777 C 363.21 2.98619 1.96371 0
M  V30 3778 S 364.769 3.39621 2.77854 0
M  V30 3779 H 361.587 0.613204 0.359863 0
M  V30 3780 H 364.189 1.9249 0.341727 0
M  V30 3781 H 362.893 3.86673 1.3752 0
M  V30 3782 H 362.424 2.83055 2.73209 0
M  V30 3783 H 364.439 2.95172 3.98858 0
M  V30 3784 N 363.613 -0.582584 1.46437 0
M  V30 3785 C 364.861 -1.33814 1.51453 0
M  V30 3786 C 365.182 -1.94277 0.167792 0
M  V30 3787 O 364.452 -1.78566 -0.805677 0
M  V30 3788 H 363.032 -0.496838 0.557818 0
M  V30 3789 H 365.694 -0.682281 1.82568 0
M  V30 3790 H 364.79 -2.14479 2.26728 0
M  V30 3791 N 365.091 -1.34144 -0.827227 0
M  V30 3792 C 366.054 -1.25264 -1.91942 0
M  V30 3793 C 367.054 -0.168866 -1.59911 0
M  V30 3794 O 368.244 -0.421198 -1.69031 0
M  V30 3795 C 365.376 -0.932952 -3.27885 0
M  V30 3796 H 366.569 -2.22357 -2.0124 0
M  V30 3797 H 364.122 -1.1837 -1.0207 0
M  V30 3798 H 364.857 0.0349917 -3.24281 0
M  V30 3799 H 364.642 -1.71682 -3.52516 0
M  V30 3800 H 366.132 -0.895874 -4.07877 0
M  V30 3801 N 366.569 1.04691 -1.17803 0
M  V30 3802 C 367.532 2.10724 -0.901545 0
M  V30 3803 C 368.532 1.6042 0.110437 0
M  V30 3804 O 369.722 1.7377 -0.122303 0
M  V30 3805 C 366.854 3.39084 -0.351409 0
M  V30 3806 H 368.047 2.36686 -1.84174 0
M  V30 3807 H 365.6 1.21015 -0.98919 0
M  V30 3808 H 366.335 3.18782 0.59569 0
M  V30 3809 H 366.12 3.76909 -1.08083 0
M  V30 3810 H 367.61 4.17227 -0.176451 0
M  V30 3811 N 368.047 0.979072 1.23499 0
M  V30 3812 C 369.293 0.648178 1.92163 0
M  V30 3813 C 369.626 -0.816049 1.76222 0
M  V30 3814 O 368.901 -1.58849 1.12237 0
M  V30 3815 C 369.184 1.03773 3.44824 0
M  V30 3816 C 369.037 2.55948 3.69879 0
M  V30 3817 C 370.356 0.580653 4.36253 0
M  V30 3818 H 367.475 0.236952 0.69787 0
M  V30 3819 H 370.117 1.22012 1.45647 0
M  V30 3820 H 368.267 0.551058 3.84572 0
M  V30 3821 H 369.939 3.12179 3.3962 0
M  V30 3822 H 368.182 2.98641 3.14636 0
M  V30 3823 H 368.853 2.78255 4.76737 0
M  V30 3824 H 371.329 0.998465 4.03943 0
M  V30 3825 H 370.205 0.881663 5.41773 0
M  V30 3826 H 370.466 -0.519052 4.39042 0
M  V30 3827 N 369.525 -1.3858 0.750561 0
M  V30 3828 C 370.773 -1.99789 0.30477 0
M  V30 3829 C 371.094 -1.59874 -1.11649 0
M  V30 3830 O 370.364 -0.85417 -1.76297 0
M  V30 3831 H 368.944 -0.738902 0.109694 0
M  V30 3832 H 371.606 -1.69391 0.963983 0
M  V30 3833 H 370.702 -3.09952 0.365499 0
M  V30 3834 N 371.003 -0.499398 -1.49478 0
M  V30 3835 C 372.231 0.0425456 -2.06856 0
M  V30 3836 C 372.646 1.30964 -1.35992 0
M  V30 3837 O 372.003 1.77172 -0.437762 0
M  V30 3838 C 372.054 0.301735 -3.60239 0
M  V30 3839 O 371.775 -0.915127 -4.28436 0
M  V30 3840 C 373.276 0.887499 -4.34325 0
M  V30 3841 H 370.496 -0.0197482 -0.670709 0
M  V30 3842 H 373.04 -0.696297 -1.92281 0
M  V30 3843 H 371.195 0.990556 -3.74522 0
M  V30 3844 H 371.609 -0.676993 -5.20113 0
M  V30 3845 H 373.083 1.01845 -5.42523 0
M  V30 3846 H 373.56 1.88488 -3.96698 0
M  V30 3847 H 374.166 0.236196 -4.24644 0
M  V30 3848 N 372.481 1.55866 -0.233164 0
M  V30 3849 C 373.897 1.59133 0.121988 0
M  V30 3850 C 374.097 1.25016 1.58029 0
M  V30 3851 O 373.153 0.990922 2.32243 0
M  V30 3852 C 374.466 2.99932 -0.214792 0
M  V30 3853 C 376.014 3.12601 -0.157971 0
M  V30 3854 C 376.489 4.55597 -0.46859 0
M  V30 3855 N 377.98 4.61305 -0.418585 0
M  V30 3856 C 378.715 5.69903 -0.63227 0
M  V30 3857 N 378.211 6.86819 -0.90835 0
M  V30 3858 N 380.004 5.59264 -0.563913 0
M  V30 3859 H 372.155 1.76315 -1.18434 0
M  V30 3860 H 374.418 0.820093 -0.475553 0
M  V30 3861 H 374.124 3.29588 -1.22739 0
M  V30 3862 H 373.998 3.74327 0.464691 0
M  V30 3863 H 376.385 2.82735 0.845283 0
M  V30 3864 H 376.466 2.40511 -0.871102 0
M  V30 3865 H 376.11 4.86182 -1.46934 0
M  V30 3866 H 376.04 5.25928 0.265865 0
M  V30 3867 H 378.531 3.77297 -0.213368 0
M  V30 3868 H 378.844 7.65507 -1.05919 0
M  V30 3869 H 377.189 6.88536 -0.945673 0
M  V30 3870 H 380.38 4.66802 -0.348372 0
M  V30 3871 H 380.553 6.43831 -0.733847 0
M  V30 3872 N 373.959 -0.0401083 1.57549 0
M  V30 3873 C 374.869 -1.06133 2.0922 0
M  V30 3874 C 375.885 -1.40356 1.0284 0
M  V30 3875 O 377.061 -1.49897 1.34509 0
M  V30 3876 C 374.126 -2.34658 2.55218 0
M  V30 3877 C 373.187 -2.07117 3.76033 0
M  V30 3878 C 372.42 -3.29514 4.19829 0
M  V30 3879 O 372.643 -4.39794 3.63232 0
M  V30 3880 O 371.577 -3.15863 5.12362 0
M  V30 3881 H 375.403 -0.652244 2.96613 0
M  V30 3882 H 372.988 -0.256368 1.47184 0
M  V30 3883 H 374.87 -3.10239 2.85184 0
M  V30 3884 H 373.545 -2.74883 1.70941 0
M  V30 3885 H 372.452 -1.29139 3.51104 0
M  V30 3886 H 373.785 -1.71754 4.61261 0
M  V30 3887 N 375.437 -1.54477 -0.31217 0
M  V30 3888 C 376.714 -1.63891 -1.06767 0
M  V30 3889 C 377.094 -0.480028 -2.0557 0
M  V30 3890 O 376.442 0.524487 -2.22399 0
M  V30 3891 C 376.652 -3.01402 -1.75948 0
M  V30 3892 C 378 -3.57838 -2.28554 0
M  V30 3893 O 379.024 -3.03782 -1.85998 0
M  V30 3894 O 377.883 -4.52462 -3.06497 0
M  V30 3895 H 374.977 -0.664125 -0.492816 0
M  V30 3896 H 377.523 -1.66823 -0.311149 0
M  V30 3897 H 376.295 -3.77187 -1.04144 0
M  V30 3898 H 375.918 -3.02199 -2.58383 0
M  V30 3899 N 376.915 0.57481 -1.46744 0
M  V30 3900 C 378.192 1.3352 -1.4294 0
M  V30 3901 C 378.572 2.10775 -0.117009 0
M  V30 3902 O 377.92 2.09966 0.901474 0
M  V30 3903 C 378.13 2.25456 -2.66403 0
M  V30 3904 C 379.478 2.87035 -3.12883 0
M  V30 3905 O 380.502 2.35766 -2.67007 0
M  V30 3906 O 379.361 3.80179 -3.92589 0
M  V30 3907 H 376.455 0.600318 -0.568812 0
M  V30 3908 H 379.001 0.595171 -1.58921 0
M  V30 3909 H 377.773 1.67851 -3.53471 0
M  V30 3910 H 377.396 3.06785 -2.52921 0
M  V30 3911 N 378.394 1.34581 0.820102 0
M  V30 3912 C 379.341 1.2639 1.93117 0
M  V30 3913 C 380.311 0.138554 1.65521 0
M  V30 3914 O 381.496 0.320004 1.88097 0
M  V30 3915 C 378.636 1.02812 3.29429 0
M  V30 3916 C 377.749 2.24146 3.693 0
M  V30 3917 C 376.884 1.93829 4.94574 0
M  V30 3918 C 375.923 3.1129 5.27034 0
M  V30 3919 N 375.06 2.80838 6.43486 0
M  V30 3920 H 379.9 2.21408 1.99455 0
M  V30 3921 H 377.437 1.10077 0.975784 0
M  V30 3922 H 379.395 0.871788 4.0799 0
M  V30 3923 H 378.025 0.114612 3.22596 0
M  V30 3924 H 377.077 2.50691 2.86109 0
M  V30 3925 H 378.389 3.11899 3.89257 0
M  V30 3926 H 377.543 1.74948 5.80929 0
M  V30 3927 H 376.282 1.03341 4.76626 0
M  V30 3928 H 375.287 3.30764 4.39175 0
M  V30 3929 H 376.512 4.02561 5.4692 0
M  V30 3930 H 374.458 1.92929 6.26988 0
M  V30 3931 H 374.375 3.62123 6.63629 0
M  V30 3932 H 375.643 2.65467 7.32903 0
M  V30 3933 N 379.872 -1.04064 1.18357 0
M  V30 3934 C 381.102 -1.80654 1.00238 0
M  V30 3935 C 381.51 -1.83713 -0.452362 0
M  V30 3936 O 380.853 -1.27135 -1.32599 0
M  V30 3937 C 380.915 -3.27582 1.48088 0
M  V30 3938 C 380.579 -3.48184 2.96002 0
M  V30 3939 C 381.576 -3.39372 3.93856 0
M  V30 3940 C 379.261 -3.7478 3.34433 0
M  V30 3941 C 381.255 -3.5686 5.28138 0
M  V30 3942 C 378.942 -3.91915 4.68877 0
M  V30 3943 C 379.94 -3.82956 5.65539 0
M  V30 3944 O 379.628 -3.996 6.97549 0
M  V30 3945 H 379.36 -0.575751 0.354241 0
M  V30 3946 H 381.914 -1.32044 1.57333 0
M  V30 3947 H 380.144 -3.77161 0.853588 0
M  V30 3948 H 381.833 -3.8573 1.2636 0
M  V30 3949 H 382.599 -3.18789 3.65511 0
M  V30 3950 H 378.478 -3.80852 2.59756 0
M  V30 3951 H 382.022 -3.49783 6.03571 0
M  V30 3952 H 377.919 -4.11992 4.96923 0
M  V30 3953 H 378.687 -4.1676 7.04452 0
M  V30 3954 N 381.35 -0.985608 -1.22978 0
M  V30 3955 C 382.766 -0.695104 -1.43668 0
M  V30 3956 C 382.966 0.736866 -1.87543 0
M  V30 3957 O 382.022 1.50868 -2.02473 0
M  V30 3958 C 383.335 -1.69447 -2.48412 0
M  V30 3959 C 384.883 -1.70909 -2.62219 0
M  V30 3960 C 385.358 -2.6969 -3.70178 0
M  V30 3961 N 386.849 -2.6824 -3.77626 0
M  V30 3962 C 387.584 -3.41339 -4.60733 0
M  V30 3963 N 387.08 -4.24015 -5.4789 0
M  V30 3964 N 388.873 -3.30079 -4.54977 0
M  V30 3965 H 381.024 -1.91054 -0.928016 0
M  V30 3966 H 383.287 -0.823553 -0.469536 0
M  V30 3967 H 382.993 -2.7188 -2.23102 0
M  V30 3968 H 382.867 -1.48147 -3.46889 0
M  V30 3969 H 385.254 -0.691785 -2.86877 0
M  V30 3970 H 385.335 -1.96276 -1.6404 0
M  V30 3971 H 384.979 -3.71566 -3.46268 0
M  V30 3972 H 384.909 -2.41595 -4.67909 0
M  V30 3973 H 387.4 -2.08243 -3.15346 0
M  V30 3974 H 387.713 -4.76636 -6.08308 0
M  V30 3975 H 386.058 -4.28104 -5.47496 0
M  V30 3976 H 389.249 -2.64937 -3.85909 0
M  V30 3977 H 389.422 -3.87308 -5.19516 0
M  V30 3978 N 382.828 1.3818 -0.7579 0
M  V30 3979 C 383.758 2.33027 -0.148597 0
M  V30 3980 C 384.739 1.55085 0.69875 0
M  V30 3981 O 385.924 1.83384 0.639053 0
M  V30 3982 C 383.054 3.3928 0.742034 0
M  V30 3983 C 382.008 4.28 -0.00291946 0
M  V30 3984 C 381.334 5.25146 1.00625 0
M  V30 3985 C 382.634 5.08938 -1.17385 0
M  V30 3986 H 384.328 2.84231 -0.940909 0
M  V30 3987 H 381.874 1.36659 -0.453908 0
M  V30 3988 H 383.827 4.046 1.17799 0
M  V30 3989 H 382.551 2.86569 1.56671 0
M  V30 3990 H 381.21 3.64192 -0.419504 0
M  V30 3991 H 380.858 4.68721 1.8251 0
M  V30 3992 H 380.558 5.85361 0.512428 0
M  V30 3993 H 382.082 5.93342 1.44143 0
M  V30 3994 H 383.496 5.67474 -0.815224 0
M  V30 3995 H 381.893 5.7841 -1.59882 0
M  V30 3996 H 382.963 4.42424 -1.98468 0
M  V30 3997 N 384.306 0.507319 1.49211 0
M  V30 3998 C 385.583 -0.0982702 1.95353 0
M  V30 3999 C 385.963 -1.53516 1.449 0
M  V30 4000 O 385.311 -2.18594 0.66551 0
M  V30 4001 C 385.521 -0.00440283 3.49 0
M  V30 4002 C 386.869 -0.175147 4.24239 0
M  V30 4003 O 387.893 -0.0792891 3.56112 0
M  V30 4004 O 386.752 -0.37276 5.45227 0
M  V30 4005 H 383.846 -0.0918236 0.821887 0
M  V30 4006 H 386.392 0.570307 1.5983 0
M  V30 4007 H 385.164 0.997402 3.78375 0
M  V30 4008 H 384.787 -0.712845 3.91158 0
M  V30 4009 N 385.784 -1.5574 0.241426 0
M  V30 4010 C 386.714 -2.24133 -0.654722 0
M  V30 4011 C 387.695 -1.21974 -1.1856 0
M  V30 4012 O 388.88 -1.50612 -1.22595 0
M  V30 4013 C 386.01 -2.93659 -1.85423 0
M  V30 4014 C 384.964 -4.0246 -1.45636 0
M  V30 4015 C 384.29 -4.59383 -2.73626 0
M  V30 4016 C 385.59 -5.18468 -0.631506 0
M  V30 4017 H 387.284 -2.99281 -0.0844353 0
M  V30 4018 H 384.83 -1.43947 -0.0391707 0
M  V30 4019 H 386.783 -3.40203 -2.48676 0
M  V30 4020 H 385.507 -2.15991 -2.44981 0
M  V30 4021 H 384.166 -3.56676 -0.847202 0
M  V30 4022 H 383.814 -3.78422 -3.3137 0
M  V30 4023 H 383.514 -5.32826 -2.4773 0
M  V30 4024 H 385.038 -5.08658 -3.37786 0
M  V30 4025 H 386.452 -5.61272 -1.1682 0
M  V30 4026 H 384.849 -5.98266 -0.468831 0
M  V30 4027 H 385.919 -4.8358 0.357506 0
M  V30 4028 N 387.262 0.0317525 -1.57568 0
M  V30 4029 C 388.192 1.03274 -2.0942 0
M  V30 4030 C 389.173 1.3788 -0.996143 0
M  V30 4031 O 390.358 1.46811 -1.27122 0
M  V30 4032 C 387.488 2.33448 -2.57137 0
M  V30 4033 C 386.442 2.13091 -3.71182 0
M  V30 4034 C 385.768 3.49001 -4.05095 0
M  V30 4035 C 387.068 1.51928 -4.99715 0
M  V30 4036 H 388.762 0.60112 -2.93303 0
M  V30 4037 H 386.308 0.287705 -1.41097 0
M  V30 4038 H 388.261 3.03802 -2.92032 0
M  V30 4039 H 386.985 2.78665 -1.70333 0
M  V30 4040 H 385.644 1.45171 -3.36632 0
M  V30 4041 H 385.292 3.91862 -3.15362 0
M  V30 4042 H 384.992 3.36207 -4.81911 0
M  V30 4043 H 386.516 4.20721 -4.42522 0
M  V30 4044 H 387.93 2.12196 -5.32584 0
M  V30 4045 H 386.327 1.49716 -5.81124 0
M  V30 4046 H 387.397 0.484811 -4.8247 0
M  V30 4047 N 388.74 1.54641 0.303973 0
M  V30 4048 C 389.968 1.77768 1.05858 0
M  V30 4049 C 390.383 0.535722 1.8104 0
M  V30 4050 O 389.74 -0.494337 1.75677 0
M  V30 4051 C 389.791 2.9834 2.04146 0
M  V30 4052 O 389.512 4.17736 1.32015 0
M  V30 4053 C 391.013 3.33832 2.91669 0
M  V30 4054 H 388.233 0.592961 0.314067 0
M  V30 4055 H 390.777 2.01583 0.344149 0
M  V30 4056 H 388.932 2.76742 2.71096 0
M  V30 4057 H 389.346 4.85693 1.97998 0
M  V30 4058 H 390.82 4.21448 3.56491 0
M  V30 4059 H 391.297 2.51857 3.59812 0
M  V30 4060 H 391.903 3.57579 2.30254 0
M  V30 4061 N 390.218 -0.567019 1.47046 0
M  V30 4062 C 391.15 -1.68985 1.54844 0
M  V30 4063 C 392.163 -1.56869 0.435431 0
M  V30 4064 O 393.352 -1.64006 0.70457 0
M  V30 4065 C 390.452 -3.07373 1.42742 0
M  V30 4066 C 389.625 -3.45339 2.6844 0
M  V30 4067 C 388.684 -4.62849 2.50314 0
M  V30 4068 O 387.71 -4.67922 3.24095 0
M  V30 4069 N 388.912 -5.58726 1.57499 0
M  V30 4070 H 391.677 -1.62745 2.51663 0
M  V30 4071 H 389.238 -0.753411 1.43302 0
M  V30 4072 H 391.23 -3.83803 1.28365 0
M  V30 4073 H 389.8 -3.07893 0.540445 0
M  V30 4074 H 389.02 -2.58455 2.97648 0
M  V30 4075 H 390.308 -3.67476 3.51907 0
M  V30 4076 H 389.706 -5.57376 0.966876 0
M  V30 4077 H 388.263 -6.34523 1.49078 0
M  V30 4078 N 391.696 -1.35014 -0.812953 0
M  V30 4079 C 392.659 -1.27292 -1.90602 0
M  V30 4080 C 393.659 -0.185817 -1.59723 0
M  V30 4081 O 394.849 -0.439102 -1.68575 0
M  V30 4082 C 391.981 -0.967676 -3.26877 0
M  V30 4083 H 393.174 -2.24479 -1.9887 0
M  V30 4084 H 390.727 -1.19446 -1.00808 0
M  V30 4085 H 391.462 0.0005954 -3.243 0
M  V30 4086 H 391.247 -1.75412 -3.50675 0
M  V30 4087 H 392.737 -0.939085 -4.06904 0
M  V30 4088 N 393.175 1.03435 -1.18907 0
M  V30 4089 C 394.423 1.76394 -0.986382 0
M  V30 4090 C 394.744 1.88883 0.484567 0
M  V30 4091 O 394.014 1.41843 1.3512 0
M  V30 4092 H 392.594 0.65344 -0.361975 0
M  V30 4093 H 395.256 1.248 -1.49703 0
M  V30 4094 H 394.352 2.77424 -1.42978 0
M  V30 4095 N 394.653 0.992116 1.22453 0
M  V30 4096 C 395.899 0.668523 1.91464 0
M  V30 4097 C 396.232 -0.797313 1.77078 0
M  V30 4098 O 395.507 -1.5765 1.13916 0
M  V30 4099 C 395.79 1.07424 3.43703 0
M  V30 4100 C 395.643 2.59857 3.67143 0
M  V30 4101 C 396.962 0.626891 4.35612 0
M  V30 4102 H 394.081 0.244341 0.695318 0
M  V30 4103 H 396.723 1.2355 1.44345 0
M  V30 4104 H 394.873 0.591816 3.83966 0
M  V30 4105 H 396.545 3.15764 3.3629 0
M  V30 4106 H 394.788 3.01961 3.11451 0
M  V30 4107 H 395.459 2.83296 4.73759 0
M  V30 4108 H 397.935 1.04125 4.02861 0
M  V30 4109 H 396.811 0.939076 5.40807 0
M  V30 4110 H 397.072 -0.472457 4.39568 0
M  V30 4111 N 396.131 -1.37776 0.765217 0
M  V30 4112 C 397.408 -1.93975 0.251596 0
M  V30 4113 C 397.788 -1.69949 -1.25222 0
M  V30 4114 O 397.136 -1.04457 -2.03226 0
M  V30 4115 C 397.346 -3.43487 0.617895 0
M  V30 4116 C 398.694 -4.20564 0.584029 0
M  V30 4117 O 399.718 -3.5182 0.556888 0
M  V30 4118 O 398.577 -5.43138 0.605291 0
M  V30 4119 H 395.671 -0.82509 0.0561806 0
M  V30 4120 H 398.217 -1.47101 0.846128 0
M  V30 4121 H 396.989 -3.5453 1.65602 0
M  V30 4122 H 396.612 -3.976 -0.00403411 0
M  V30 4123 N 397.609 -0.515225 -1.4894 0
M  V30 4124 C 398.855 0.0242508 -2.02785 0
M  V30 4125 C 399.188 1.35323 -1.39289 0
M  V30 4126 O 398.463 1.87041 -0.533469 0
M  V30 4127 C 398.746 0.16184 -3.59736 0
M  V30 4128 C 398.599 -1.19127 -4.33738 0
M  V30 4129 C 399.918 0.895719 -4.30888 0
M  V30 4130 H 397.037 0.00733914 -0.736963 0
M  V30 4131 H 399.679 -0.669395 -1.77818 0
M  V30 4132 H 397.829 0.752624 -3.8114 0
M  V30 4133 H 399.501 -1.82202 -4.23792 0
M  V30 4134 H 397.744 -1.77695 -3.95736 0
M  V30 4135 H 398.415 -1.04815 -5.41957 0
M  V30 4136 H 400.891 0.394528 -4.14225 0
M  V30 4137 H 399.767 0.960859 -5.40425 0
M  V30 4138 H 400.028 1.9427 -3.97129 0
M  V30 4139 N 399.087 1.5561 -0.249682 0
M  V30 4140 C 400.336 1.98187 0.37479 0
M  V30 4141 C 400.649 1.14111 1.58865 0
M  V30 4142 O 401.855 1.46714 2.28445 0
M  V30 4143 C 400.311 3.52661 0.718192 0
M  V30 4144 C 399.919 4.45481 -0.474428 0
M  V30 4145 C 401.663 4.03888 1.3067 0
M  V30 4146 C 399.57 5.91303 -0.107026 0
M  V30 4147 H 398.5 0.740159 0.143808 0
M  V30 4148 H 401.151 1.80125 -0.350336 0
M  V30 4149 H 399.533 3.66429 1.50152 0
M  V30 4150 H 400.707 4.43473 -1.25172 0
M  V30 4151 H 399.022 4.04751 -0.978052 0
M  V30 4152 H 401.619 5.10358 1.59496 0
M  V30 4153 H 401.962 3.51401 2.23211 0
M  V30 4154 H 402.495 3.93457 0.586211 0
M  V30 4155 H 399.234 6.47833 -0.999642 0
M  V30 4156 H 398.754 5.9644 0.634013 0
M  V30 4157 H 400.433 6.46258 0.309807 0
M  V30 4158 N 400.565 -0.0233959 1.57583 0
M  V30 4159 C 401.811 -0.714119 1.89811 0
M  V30 4160 C 402.144 -1.74702 0.848113 0
M  V30 4161 O 401.419 -1.94023 -0.136135 0
M  V30 4162 C 401.702 -1.37853 3.32669 0
M  V30 4163 C 401.555 -0.358764 4.48367 0
M  V30 4164 C 402.874 -2.31101 3.7454 0
M  V30 4165 H 399.993 -0.25814 0.690314 0
M  V30 4166 H 402.635 0.0230927 1.89986 0
M  V30 4167 H 400.785 -2.00689 3.3265 0
M  V30 4168 H 402.457 0.268115 4.6052 0
M  V30 4169 H 400.7 0.321387 4.32608 0
M  V30 4170 H 401.371 -0.862242 5.45224 0
M  V30 4171 H 403.847 -1.78304 3.75961 0
M  V30 4172 H 402.723 -2.74567 4.75294 0
M  V30 4173 H 402.984 -3.18018 3.0711 0
M  V30 4174 N 402.043 -1.548 -0.295768 0
M  V30 4175 C 402.973 -1.89115 -1.36959 0
M  V30 4176 C 403.954 -0.75059 -1.52644 0
M  V30 4177 O 405.139 -1.00678 -1.66065 0
M  V30 4178 C 402.269 -2.14307 -2.73295 0
M  V30 4179 C 401.223 -3.30151 -2.72368 0
M  V30 4180 C 400.549 -3.40772 -4.12042 0
M  V30 4181 C 401.849 -4.67126 -2.33646 0
M  V30 4182 H 403.543 -2.79053 -1.08488 0
M  V30 4183 H 401.089 -1.34266 -0.520443 0
M  V30 4184 H 403.042 -2.36898 -3.48507 0
M  V30 4185 H 401.766 -1.21145 -3.03301 0
M  V30 4186 H 400.425 -3.0749 -1.99613 0
M  V30 4187 H 400.073 -2.45117 -4.39234 0
M  V30 4188 H 399.773 -4.18645 -4.12322 0
M  V30 4189 H 401.297 -3.6563 -4.89027 0
M  V30 4190 H 402.711 -4.89414 -2.98575 0
M  V30 4191 H 401.108 -5.47751 -2.45129 0
M  V30 4192 H 402.178 -4.67489 -1.28772 0
M  V30 4193 N 403.521 0.559213 -1.47345 0
M  V30 4194 C 404.798 1.31997 -1.44348 0
M  V30 4195 C 405.178 2.1064 -0.139358 0
M  V30 4196 O 404.526 2.1091 0.879153 0
M  V30 4197 C 404.736 2.22618 -2.68779 0
M  V30 4198 C 406.084 2.83701 -3.1591 0
M  V30 4199 O 407.108 2.32921 -2.69493 0
M  V30 4200 O 405.967 3.75993 -3.966 0
M  V30 4201 H 403.061 0.594251 -0.575147 0
M  V30 4202 H 405.607 0.578282 -1.59543 0
M  V30 4203 H 404.379 1.64093 -3.55231 0
M  V30 4204 H 404.002 3.04085 -2.5616 0
M  V30 4205 N 404.999 1.35443 0.805782 0
M  V30 4206 C 406.224 1.32037 1.59941 0
M  V30 4207 C 406.649 -0.0994215 1.87837 0
M  V30 4208 O 406.007 -1.06648 1.46615 0
M  V30 4209 C 406.055 2.13354 2.90711 0
M  V30 4210 O 405.159 1.5148 3.83572 0
M  V30 4211 H 404.5 0.452666 0.485787 0
M  V30 4212 H 407.03 1.78496 1.00002 0
M  V30 4213 H 407.04 2.25338 3.40128 0
M  V30 4214 H 405.715 3.16572 2.69732 0
M  V30 4215 H 404.292 1.4834 3.42125 0
M  V30 4216 N 406.477 -1.02803 1.19454 0
M  V30 4217 C 407.702 -1.80378 1.02364 0
M  V30 4218 C 408.127 -1.83282 -0.423007 0
M  V30 4219 O 407.485 -1.25945 -1.30413 0
M  V30 4220 C 407.533 -3.23248 1.59821 0
M  V30 4221 O 406.637 -4.04 0.828105 0
M  V30 4222 H 405.978 -0.556799 0.361761 0
M  V30 4223 H 408.508 -1.29385 1.58495 0
M  V30 4224 H 408.518 -3.73994 1.63073 0
M  V30 4225 H 407.193 -3.2045 2.65113 0
M  V30 4226 H 405.77 -3.62635 0.86891 0
M  V30 4227 N 407.956 -0.998596 -1.21925 0
M  V30 4228 C 408.888 -0.511879 -2.23411 0
M  V30 4229 C 409.901 0.396094 -1.57908 0
M  V30 4230 O 411.09 0.197316 -1.77406 0
M  V30 4231 C 408.19 0.276802 -3.37768 0
M  V30 4232 C 407.363 -0.628687 -4.32858 0
M  V30 4233 C 406.422 0.109272 -5.26087 0
M  V30 4234 O 405.448 -0.507237 -5.66935 0
M  V30 4235 N 406.65 1.38983 -5.63617 0
M  V30 4236 H 409.415 -1.38457 -2.658 0
M  V30 4237 H 406.976 -0.873981 -1.36283 0
M  V30 4238 H 408.968 0.77928 -3.97126 0
M  V30 4239 H 407.538 1.05063 -2.94415 0
M  V30 4240 H 406.758 -1.31175 -3.71735 0
M  V30 4241 H 408.046 -1.24514 -4.93329 0
M  V30 4242 H 407.444 1.91194 -5.32411 0
M  V30 4243 H 406.001 1.83739 -6.25367 0
M  V30 4244 N 409.434 1.37368 -0.772513 0
M  V30 4245 C 410.682 1.99279 -0.336516 0
M  V30 4246 C 411.003 1.6163 1.09091 0
M  V30 4247 O 410.273 0.882109 1.74916 0
M  V30 4248 H 408.853 0.737063 -0.121435 0
M  V30 4249 H 411.515 1.67836 -0.990809 0
M  V30 4250 H 410.611 3.09332 -0.414763 0
M  V30 4251 N 410.912 0.523116 1.48665 0
M  V30 4252 C 411.86 -0.256859 2.31177 0
M  V30 4253 C 412.854 -0.94199 1.40794 0
M  V30 4254 O 414.06 -0.867157 1.57735 0
M  V30 4255 H 410.435 -0.1017 0.745091 0
M  V30 4256 H 412.406 0.458739 2.94853 0
M  V30 4257 C 411.155 -1.29503 3.22683 0
M  V30 4258 H 410.478 -0.777248 3.92172 0
M  V30 4259 H 411.918 -1.81233 3.83315 0
M  V30 4260 C 410.377 -2.32501 2.43813 0
M  V30 4261 O 410.907 -3.3881 2.15803 0
M  V30 4262 N 409.113 -2.05538 2.05432 0
M  V30 4263 H 408.66 -1.19104 2.28412 0
M  V30 4264 H 408.618 -2.74676 1.52973 0
M  V30 4265 N 412.39 -1.55475 0.257931 0
M  V30 4266 C 413.615 -2.04064 -0.370488 0
M  V30 4267 C 414.04 -1.13565 -1.49948 0
M  V30 4268 O 413.398 -0.130781 -1.80828 0
M  V30 4269 C 413.446 -3.50554 -0.845237 0
M  V30 4270 O 412.55 -3.63173 -1.95394 0
M  V30 4271 H 411.891 -0.659257 -0.0792243 0
M  V30 4272 H 414.421 -2.00903 0.387212 0
M  V30 4273 H 414.431 -3.91588 -1.14555 0
M  V30 4274 H 413.106 -4.15896 -0.0191259 0
M  V30 4275 H 411.683 -3.34039 -1.65748 0
M  V30 4276 N 413.868 0.0150385 -1.57593 0
M  V30 4277 C 415.114 0.704043 -1.90187 0
M  V30 4278 C 415.447 1.74249 -0.857366 0
M  V30 4279 O 414.722 1.94092 0.125843 0
M  V30 4280 C 415.005 1.36087 -3.33395 0
M  V30 4281 C 414.858 0.334981 -4.48551 0
M  V30 4282 C 416.177 2.29112 -3.7576 0
M  V30 4283 H 413.296 0.254475 -0.691673 0
M  V30 4284 H 415.938 -0.0331678 -1.89971 0
M  V30 4285 H 414.088 1.98922 -3.3371 0
M  V30 4286 H 415.76 -0.292534 -4.60372 0
M  V30 4287 H 414.003 -0.344325 -4.32431 0
M  V30 4288 H 414.674 0.833316 -5.45674 0
M  V30 4289 H 417.15 1.76308 -3.76902 0
M  V30 4290 H 416.026 2.72043 -4.76743 0
M  V30 4291 H 416.287 3.16385 -3.08793 0
M  V30 4292 N 415.346 1.54954 0.287554 0
M  V30 4293 C 416.576 1.78622 1.03816 0
M  V30 4294 C 416.984 0.552451 1.80955 0
M  V30 4295 O 416.327 -0.487665 1.77109 0
M  V30 4296 C 416.389 2.94975 2.055 0
M  V30 4297 C 416.053 4.32565 1.47433 0
M  V30 4298 C 417.05 5.12096 0.897436 0
M  V30 4299 C 414.735 4.79195 1.50591 0
M  V30 4300 C 416.729 6.36383 0.359851 0
M  V30 4301 C 414.416 6.03441 0.964459 0
M  V30 4302 C 415.414 6.81872 0.392413 0
M  V30 4303 O 415.102 8.03777 -0.140788 0
M  V30 4304 H 414.834 0.599144 0.313053 0
M  V30 4305 H 417.388 2.02761 0.328225 0
M  V30 4306 H 415.618 2.66493 2.80211 0
M  V30 4307 H 417.307 3.06097 2.6657 0
M  V30 4308 H 418.073 4.77209 0.865841 0
M  V30 4309 H 413.952 4.18167 1.94055 0
M  V30 4310 H 417.496 6.97545 -0.0872951 0
M  V30 4311 H 413.393 6.37813 0.993246 0
M  V30 4312 H 414.161 8.18495 -0.0287617 0
M  V30 4313 N 416.824 -0.551391 1.4764 0
M  V30 4314 C 417.756 -1.67333 1.56628 0
M  V30 4315 C 418.769 -1.56398 0.452045 0
M  V30 4316 O 419.958 -1.6325 0.721926 0
M  V30 4317 C 417.058 -3.05841 1.45994 0
M  V30 4318 C 416.231 -3.42472 2.72088 0
M  V30 4319 C 415.29 -4.60168 2.55209 0
M  V30 4320 O 414.316 -4.64458 3.2904 0
M  V30 4321 N 415.518 -5.57024 1.63416 0
M  V30 4322 H 418.283 -1.60066 2.53375 0
M  V30 4323 H 415.844 -0.738169 1.44093 0
M  V30 4324 H 417.836 -3.8242 1.32428 0
M  V30 4325 H 416.406 -3.07302 0.573071 0
M  V30 4326 H 415.626 -2.55284 3.00373 0
M  V30 4327 H 416.914 -3.63723 3.55785 0
M  V30 4328 H 416.312 -5.56319 1.02594 0
M  V30 4329 H 414.869 -6.32906 1.558 0
M  V30 4330 N 418.302 -1.35869 -0.798587 0
M  V30 4331 C 419.551 -1.28921 -1.5512 0
M  V30 4332 C 419.864 0.13208 -1.95154 0
M  V30 4333 O 421.07 0.323879 -2.69561 0
M  V30 4334 C 419.526 -2.26141 -2.79979 0
M  V30 4335 C 419.134 -3.73658 -2.47151 0
M  V30 4336 C 420.878 -2.28152 -3.57976 0
M  V30 4337 C 418.785 -4.62679 -3.6835 0
M  V30 4338 H 417.715 -0.479031 -0.582276 0
M  V30 4339 H 420.366 -1.61179 -0.877125 0
M  V30 4340 H 418.748 -1.86865 -3.49138 0
M  V30 4341 H 419.922 -4.21616 -1.85947 0
M  V30 4342 H 418.237 -3.74333 -1.82383 0
M  V30 4343 H 420.834 -2.91875 -4.4801 0
M  V30 4344 H 421.177 -1.28748 -3.95891 0
M  V30 4345 H 421.71 -2.65998 -2.95787 0
M  V30 4346 H 418.449 -5.63111 -3.35538 0
M  V30 4347 H 417.969 -4.19442 -4.28752 0
M  V30 4348 H 419.648 -4.78498 -4.35487 0
M  V30 4349 N 419.78 1.02168 -1.19998 0
M  V30 4350 C 420.743 2.08765 -0.94604 0
M  V30 4351 C 421.743 1.60618 0.0763846 0
M  V30 4352 O 422.933 1.73472 -0.159135 0
M  V30 4353 C 420.065 3.38262 -0.423255 0
M  V30 4354 H 421.258 2.32726 -1.89153 0
M  V30 4355 H 418.811 1.1889 -1.01464 0
M  V30 4356 H 419.546 3.19974 0.527938 0
M  V30 4357 H 419.331 3.74532 -1.16053 0
M  V30 4358 H 420.821 4.16759 -0.264911 0
M  V30 4359 N 421.258 1.00505 1.21394 0
M  V30 4360 C 422.191 0.51032 2.22421 0
M  V30 4361 C 423.169 -0.436 1.56645 0
M  V30 4362 O 424.353 -0.358709 1.85055 0
M  V30 4363 C 421.48 -0.258733 3.3771 0
M  V30 4364 C 420.526 0.635395 4.2174 0
M  V30 4365 S 421.359 2.09783 4.92698 0
M  V30 4366 C 422.515 1.33862 6.11418 0
M  V30 4367 H 422.748 1.36637 2.64041 0
M  V30 4368 H 420.281 0.812991 1.31262 0
M  V30 4369 H 422.239 -0.696372 4.0455 0
M  V30 4370 H 420.9 -1.0902 2.94573 0
M  V30 4371 H 420.093 0.0430189 5.03982 0
M  V30 4372 H 419.695 1.01031 3.60095 0
M  V30 4373 H 421.987 0.612541 6.74725 0
M  V30 4374 H 422.93 2.13675 6.75092 0
M  V30 4375 H 423.338 0.846568 5.58116 0
M  V30 4376 N 422.737 -1.36956 0.779787 0
M  V30 4377 C 423.983 -1.99787 0.348281 0
M  V30 4378 C 424.316 -1.61756 -1.07465 0
M  V30 4379 O 423.591 -0.867639 -1.74075 0
M  V30 4380 C 423.874 -3.56597 0.50104 0
M  V30 4381 C 423.727 -4.04513 1.96697 0
M  V30 4382 C 425.046 -4.40008 -0.0898097 0
M  V30 4383 H 422.165 -0.725796 0.128022 0
M  V30 4384 H 424.807 -1.62514 0.984331 0
M  V30 4385 H 422.957 -3.88479 -0.0404347 0
M  V30 4386 H 424.629 -3.83161 2.56876 0
M  V30 4387 H 422.872 -3.56408 2.47297 0
M  V30 4388 H 423.543 -5.1352 2.02486 0
M  V30 4389 H 426.019 -4.14431 0.372293 0
M  V30 4390 H 424.895 -5.4888 0.0471605 0
M  V30 4391 H 425.156 -4.26035 -1.18096 0
M  V30 4392 N 424.215 -0.530993 -1.48385 0
M  V30 4393 C 425.165 0.251092 -2.26613 0
M  V30 4394 C 426.149 0.908977 -1.32765 0
M  V30 4395 O 427.341 0.811616 -1.57295 0
M  V30 4396 C 424.47 1.29677 -3.17866 0
M  V30 4397 C 423.556 0.643627 -4.19188 0
M  V30 4398 N 423.947 -0.271223 -5.05072 0
M  V30 4399 C 422.245 0.900711 -4.3681 0
M  V30 4400 C 422.946 -0.648109 -5.78078 0
M  V30 4401 N 421.922 -0.00895987 -5.43599 0
M  V30 4402 H 425.724 -0.452702 -2.90393 0
M  V30 4403 H 423.238 -0.349091 -1.58604 0
M  V30 4404 H 425.235 1.87079 -3.72568 0
M  V30 4405 H 423.895 2.00193 -2.55642 0
M  V30 4406 H 424.906 -0.643883 -5.13882 0
M  V30 4407 H 421.583 1.59636 -3.85775 0
M  V30 4408 H 422.973 -1.39833 -6.57188 0
M  V30 4409 N 425.693 1.55336 -0.266172 0
M  V30 4410 C 426.923 2.03506 0.356239 0
M  V30 4411 C 427.331 1.14426 1.50676 0
M  V30 4412 O 426.674 0.155043 1.83045 0
M  V30 4413 C 426.736 3.47848 0.90785 0
M  V30 4414 C 426.4 4.56861 -0.112888 0
M  V30 4415 C 427.397 5.11528 -0.929264 0
M  V30 4416 C 425.082 5.01704 -0.244546 0
M  V30 4417 C 427.076 6.09549 -1.86357 0
M  V30 4418 C 424.763 5.99553 -1.18234 0
M  V30 4419 C 425.761 6.53356 -1.99036 0
M  V30 4420 O 425.449 7.49293 -2.91231 0
M  V30 4421 H 425.181 0.670444 0.08649 0
M  V30 4422 H 427.735 2.01598 -0.39337 0
M  V30 4423 H 425.965 3.46967 1.70737 0
M  V30 4424 H 427.654 3.79407 1.44239 0
M  V30 4425 H 428.42 4.77701 -0.838237 0
M  V30 4426 H 424.299 4.59477 0.374359 0
M  V30 4427 H 427.843 6.51469 -2.49467 0
M  V30 4428 H 423.74 6.32799 -1.27421 0
M  V30 4429 H 424.508 7.66978 -2.8581 0
M  V30 4430 N 427.171 -0.0066808 1.57599 0
M  V30 4431 C 428.42 -0.692078 1.89455 0
M  V30 4432 C 428.733 -1.75306 0.867586 0
M  V30 4433 O 429.939 -2.49262 1.07614 0
M  V30 4434 C 428.395 -1.2821 3.36289 0
M  V30 4435 C 428.003 -0.256291 4.47266 0
M  V30 4436 C 429.747 -1.94608 3.77264 0
M  V30 4437 C 427.654 -0.855927 5.85173 0
M  V30 4438 H 426.584 -0.262252 0.706923 0
M  V30 4439 H 429.235 0.052769 1.83424 0
M  V30 4440 H 427.617 -2.0774 3.37135 0
M  V30 4441 H 428.791 0.513923 4.57925 0
M  V30 4442 H 427.106 0.306862 4.15268 0
M  V30 4443 H 429.703 -2.40364 4.77629 0
M  V30 4444 H 430.046 -2.77382 3.10427 0
M  V30 4445 H 430.579 -1.21822 3.78688 0
M  V30 4446 H 427.318 -0.0671161 6.55466 0
M  V30 4447 H 426.838 -1.59546 5.78191 0
M  V30 4448 H 428.517 -1.35658 6.32618 0
M  V30 4449 N 428.649 -1.55105 -0.279332 0
M  V30 4450 C 429.596 -1.8755 -1.34513 0
M  V30 4451 C 430.566 -0.726384 -1.49375 0
M  V30 4452 O 431.751 -0.977063 -1.63884 0
M  V30 4453 C 428.891 -2.14738 -2.70151 0
M  V30 4454 C 428.004 -3.42285 -2.63562 0
M  V30 4455 C 427.139 -3.59206 -3.91337 0
M  V30 4456 C 426.178 -4.80467 -3.79233 0
M  V30 4457 N 425.315 -4.94079 -4.98829 0
M  V30 4458 H 430.155 -2.78456 -1.06143 0
M  V30 4459 H 427.692 -1.37867 -0.512936 0
M  V30 4460 H 429.65 -2.28501 -3.49061 0
M  V30 4461 H 428.28 -1.27075 -2.96735 0
M  V30 4462 H 427.332 -3.37029 -1.76397 0
M  V30 4463 H 428.644 -4.31328 -2.50515 0
M  V30 4464 H 427.798 -3.72751 -4.78687 0
M  V30 4465 H 426.537 -2.68337 -4.07243 0
M  V30 4466 H 425.542 -4.66932 -2.90266 0
M  V30 4467 H 426.767 -5.72765 -3.64852 0
M  V30 4468 H 424.713 -4.06139 -5.15158 0
M  V30 4469 H 424.63 -5.77156 -4.8829 0
M  V30 4470 H 425.898 -5.12003 -5.8777 0
M  V30 4471 N 430.127 0.543554 -1.4793 0
M  V30 4472 C 431.059 1.665 -1.57513 0
M  V30 4473 C 432.072 1.56156 -0.460333 0
M  V30 4474 O 433.261 1.62865 -0.730573 0
M  V30 4475 C 430.361 3.05063 -1.47614 0
M  V30 4476 C 429.534 3.41024 -2.739 0
M  V30 4477 C 428.593 4.58809 -2.57645 0
M  V30 4478 O 427.619 4.62707 -3.31498 0
M  V30 4479 N 428.821 5.56149 -1.66368 0
M  V30 4480 H 431.586 1.5872 -2.5422 0
M  V30 4481 H 429.147 0.730517 -1.44482 0
M  V30 4482 H 431.139 3.81712 -1.34455 0
M  V30 4483 H 429.709 3.06994 -0.589359 0
M  V30 4484 H 428.929 2.53687 -3.01723 0
M  V30 4485 H 430.217 3.61831 -3.57709 0
M  V30 4486 H 429.615 5.55767 -1.05543 0
M  V30 4487 H 428.172 6.32071 -1.59154 0
M  V30 4488 N 431.605 1.3629 0.791371 0
M  V30 4489 C 432.552 1.30458 1.90393 0
M  V30 4490 C 433.522 0.173632 1.6519 0
M  V30 4491 O 434.707 0.35983 1.87376 0
M  V30 4492 C 431.847 1.09777 3.27174 0
M  V30 4493 C 430.96 2.31929 3.64462 0
M  V30 4494 C 430.095 2.04276 4.90352 0
M  V30 4495 C 429.134 3.224 5.20312 0
M  V30 4496 N 428.271 2.94424 6.37385 0
M  V30 4497 H 433.111 2.25589 1.94714 0
M  V30 4498 H 430.648 1.12122 0.952216 0
M  V30 4499 H 432.606 0.958133 4.06049 0
M  V30 4500 H 431.236 0.183014 3.22281 0
M  V30 4501 H 430.288 2.56703 2.80727 0
M  V30 4502 H 431.6 3.20085 3.82553 0
M  V30 4503 H 430.754 1.87231 5.77087 0
M  V30 4504 H 429.493 1.13428 4.74326 0
M  V30 4505 H 428.498 3.40005 4.32061 0
M  V30 4506 H 429.723 4.14071 5.38258 0
M  V30 4507 H 427.669 2.06185 6.22755 0
M  V30 4508 H 427.586 3.76118 6.55798 0
M  V30 4509 H 428.854 2.80953 7.27108 0
M  V30 4510 N 433.083 -1.0153 1.20538 0
M  V30 4511 C 434.313 -1.78487 1.04048 0
M  V30 4512 C 434.721 -1.84631 -0.413292 0
M  V30 4513 O 434.064 -1.29919 -1.29872 0
M  V30 4514 C 434.126 -3.24367 1.55003 0
M  V30 4515 C 433.79 -3.41827 3.0332 0
M  V30 4516 C 434.787 -3.30941 4.00966 0
M  V30 4517 C 432.472 -3.67602 3.42307 0
M  V30 4518 C 434.466 -3.45577 5.35589 0
M  V30 4519 C 432.153 -3.81881 4.77085 0
M  V30 4520 C 433.151 -3.70874 5.73534 0
M  V30 4521 O 432.839 -3.84714 7.05868 0
M  V30 4522 H 432.571 -0.568108 0.366373 0
M  V30 4523 H 435.125 -1.28677 1.60098 0
M  V30 4524 H 433.355 -3.75266 0.933397 0
M  V30 4525 H 435.044 -3.82963 1.34514 0
M  V30 4526 H 435.81 -3.10964 3.72191 0
M  V30 4527 H 431.689 -3.75256 2.67776 0
M  V30 4528 H 435.233 -3.36902 6.10854 0
M  V30 4529 H 431.13 -4.01359 5.0555 0
M  V30 4530 H 431.898 -4.01724 7.13134 0
M  V30 4531 N 434.561 -1.01147 -1.20859 0
M  V30 4532 C 435.972 -0.730205 -1.71828 0
M  V30 4533 C 436.323 0.751662 -1.8123 0
M  V30 4534 O 435.448 1.58686 -1.47132 0
M  V30 4535 C 436.043 -1.31885 -3.12077 0
M  V30 4536 C 434.602 -1.08656 -3.60376 0
M  V30 4537 C 433.749 -1.42769 -2.37723 0
M  V30 4538 H 436.7 -1.18158 -1.05945 0
M  V30 4539 H 436.721 -0.706793 -3.73878 0
M  V30 4540 H 436.233 -2.39737 -3.05201 0
M  V30 4541 H 434.334 -0.0254814 -3.72591 0
M  V30 4542 H 434.447 -1.76301 -4.45483 0
M  V30 4543 H 432.811 -0.846603 -2.40218 0
M  V30 4544 H 433.594 -2.51666 -2.33493 0
M  V30 4545 N 436.039 1.36541 -0.78704 0
M  V30 4546 C 436.989 2.27459 -0.156957 0
M  V30 4547 C 437.973 1.46843 0.657709 0
M  V30 4548 O 439.165 1.69245 0.518173 0
M  V30 4549 C 436.294 3.35893 0.709278 0
M  V30 4550 C 435.38 4.23947 -0.114049 0
M  V30 4551 N 435.771 4.92145 -1.16736 0
M  V30 4552 C 434.069 4.4587 0.107497 0
M  V30 4553 C 434.77 5.57261 -1.66837 0
M  V30 4554 N 433.746 5.3473 -0.977992 0
M  V30 4555 H 437.548 2.77669 -0.963185 0
M  V30 4556 H 435.062 1.49839 -0.62627 0
M  V30 4557 H 437.059 3.99953 1.17656 0
M  V30 4558 H 435.719 2.87238 1.51408 0
M  V30 4559 H 436.73 4.94169 -1.54976 0
M  V30 4560 H 433.407 4.08056 0.882994 0
M  V30 4561 H 434.797 6.21728 -2.54762 0
M  V30 4562 N 437.518 0.538854 1.48102 0
M  V30 4563 C 438.448 -0.207654 2.32575 0
M  V30 4564 C 439.429 -0.926559 1.4265 0
M  V30 4565 O 440.614 -0.91061 1.71527 0
M  V30 4566 C 437.744 -1.24957 3.24042 0
M  V30 4567 C 436.698 -0.648263 4.23062 0
M  V30 4568 C 436.024 -1.79348 5.03725 0
M  V30 4569 C 437.324 0.385897 5.20872 0
M  V30 4570 H 439.018 0.497534 2.95237 0
M  V30 4571 H 436.564 0.240715 1.41974 0
M  V30 4572 H 438.517 -1.77983 3.81969 0
M  V30 4573 H 437.241 -1.98446 2.59397 0
M  V30 4574 H 435.9 -0.139452 3.66335 0
M  V30 4575 H 435.548 -2.51696 4.35498 0
M  V30 4576 H 435.248 -1.39702 5.70751 0
M  V30 4577 H 436.772 -2.32735 5.64506 0
M  V30 4578 H 438.186 -0.057607 5.73271 0
M  V30 4579 H 436.583 0.700227 5.96001 0
M  V30 4580 H 437.653 1.28848 4.67468 0
M  V30 4581 N 438.996 -1.55193 0.274407 0
M  V30 4582 C 439.928 -2.1989 -0.646595 0
M  V30 4583 C 440.941 -1.1834 -1.11801 0
M  V30 4584 O 442.13 -1.4507 -1.04004 0
M  V30 4585 C 439.23 -2.8104 -1.89393 0
M  V30 4586 C 438.403 -4.08274 -1.56943 0
M  V30 4587 C 437.462 -4.53478 -2.66916 0
M  V30 4588 O 436.488 -5.19267 -2.33132 0
M  V30 4589 N 437.69 -4.2356 -3.9696 0
M  V30 4590 H 440.455 -2.99556 -0.0928686 0
M  V30 4591 H 438.016 -1.61618 0.0954783 0
M  V30 4592 H 440.008 -3.08226 -2.62257 0
M  V30 4593 H 438.578 -2.05372 -2.35672 0
M  V30 4594 H 437.798 -3.88384 -0.674655 0
M  V30 4595 H 439.086 -4.91173 -1.32764 0
M  V30 4596 H 438.484 -3.70799 -4.27229 0
M  V30 4597 H 437.041 -4.55518 -4.66205 0
M  V30 4598 N 440.474 -0.00167713 -1.576 0
M  V30 4599 C 441.72 0.683832 -1.90923 0
M  V30 4600 C 442.053 1.7333 -0.875799 0
M  V30 4601 O 441.328 1.94215 0.10525 0
M  V30 4602 C 441.611 1.32543 -3.3482 0
M  V30 4603 C 441.464 0.287387 -4.48881 0
M  V30 4604 C 442.783 2.25114 -3.78169 0
M  V30 4605 H 439.902 0.247125 -0.694333 0
M  V30 4606 H 442.544 -0.0533149 -1.89925 0
M  V30 4607 H 440.694 1.95372 -3.35801 0
M  V30 4608 H 442.366 -0.341346 -4.60035 0
M  V30 4609 H 440.609 -0.39017 -4.32042 0
M  V30 4610 H 441.28 0.775393 -5.46527 0
M  V30 4611 H 443.756 1.723 -3.7875 0
M  V30 4612 H 442.632 2.66971 -4.79602 0
M  V30 4613 H 442.893 3.13092 -3.12131 0
M  V30 4614 N 441.952 1.55251 0.271103 0
M  V30 4615 C 443.201 1.75151 1.00025 0
M  V30 4616 C 443.514 0.561041 1.87381 0
M  V30 4617 O 444.72 0.642506 2.63788 0
M  V30 4618 C 443.176 3.09999 1.82835 0
M  V30 4619 C 442.784 4.3662 1.00336 0
M  V30 4620 C 444.528 3.39249 2.55168 0
M  V30 4621 C 442.435 5.62506 1.82595 0
M  V30 4622 H 441.365 0.652877 0.377183 0
M  V30 4623 H 444.016 1.81708 0.255843 0
M  V30 4624 H 442.398 2.97485 2.61378 0
M  V30 4625 H 443.572 4.60055 0.261959 0
M  V30 4626 H 441.887 4.14527 0.394486 0
M  V30 4627 H 444.484 4.3051 3.1712 0
M  V30 4628 H 444.827 2.59467 3.2555 0
M  V30 4629 H 445.36 3.52869 1.83653 0
M  V30 4630 H 442.099 6.45041 1.16631 0
M  V30 4631 H 441.619 5.43211 2.54327 0
M  V30 4632 H 443.298 6.00875 2.39913 0
M  V30 4633 N 443.43 -0.535701 1.48216 0
M  V30 4634 C 444.678 -1.28928 1.55634 0
M  V30 4635 C 444.999 -1.93645 0.229514 0
M  V30 4636 O 444.269 -1.81038 -0.74846 0
M  V30 4637 H 442.849 -0.47884 0.573342 0
M  V30 4638 H 445.511 -0.623853 1.84646 0
M  V30 4639 H 444.607 -2.07157 2.33436 0
M  V30 4640 N 444.908 -1.36708 -0.784132 0
M  V30 4641 C 446.156 -1.30972 -1.53918 0
M  V30 4642 C 446.477 0.109086 -1.94695 0
M  V30 4643 O 445.747 1.05048 -1.65353 0
M  V30 4644 H 444.327 -0.481819 -0.570841 0
M  V30 4645 H 446.989 -1.71063 -0.934002 0
M  V30 4646 H 446.085 -1.94061 -2.44431 0
M  V30 4647 N 446.386 1.0089 -1.21074 0
M  V30 4648 C 447.334 2.11707 -0.963476 0
M  V30 4649 C 448.328 1.69172 0.0879032 0
M  V30 4650 O 449.534 1.79889 -0.0631415 0
M  V30 4651 H 445.909 0.692026 -0.294287 0
M  V30 4652 H 447.88 2.29743 -1.90422 0
M  V30 4653 C 446.629 3.43473 -0.540509 0
M  V30 4654 H 445.952 3.76634 -1.34114 0
M  V30 4655 H 447.392 4.22044 -0.406777 0
M  V30 4656 C 445.851 3.2849 0.748079 0
M  V30 4657 O 446.381 3.58883 1.8046 0
M  V30 4658 N 444.587 2.81715 0.713081 0
M  V30 4659 H 444.134 2.5718 -0.146973 0
M  V30 4660 H 444.092 2.72071 1.57558 0
M  V30 4661 N 447.864 1.01787 1.20321 0
M  V30 4662 C 449.11 0.708985 1.90003 0
M  V30 4663 C 449.443 -0.759572 1.78729 0
M  V30 4664 O 448.718 -1.55198 1.17234 0
M  V30 4665 C 449.001 1.1469 3.41348 0
M  V30 4666 C 448.854 2.67586 3.61549 0
M  V30 4667 C 450.173 0.71915 4.34185 0
M  V30 4668 H 447.292 0.259034 0.689978 0
M  V30 4669 H 449.934 1.26584 1.41692 0
M  V30 4670 H 448.084 0.673128 3.82624 0
M  V30 4671 H 449.756 3.22826 3.29517 0
M  V30 4672 H 447.999 3.085 3.04976 0
M  V30 4673 H 448.67 2.93281 4.67643 0
M  V30 4674 H 451.146 1.12647 4.00562 0
M  V30 4675 H 450.022 1.05358 5.38694 0
M  V30 4676 H 450.283 -0.379111 4.40472 0
M  V30 4677 N 449.342 -1.36122 0.79427 0
M  V30 4678 C 450.588 -1.99406 0.369452 0
M  V30 4679 C 450.921 -1.62886 -1.05743 0
M  V30 4680 O 450.196 -0.886053 -1.73145 0
M  V30 4681 C 450.479 -3.56046 0.538833 0
M  V30 4682 C 450.332 -4.02404 2.00976 0
M  V30 4683 C 451.651 -4.40079 -0.0431359 0
M  V30 4684 H 448.77 -0.724397 0.135712 0
M  V30 4685 H 451.412 -1.61461 1.00151 0
M  V30 4686 H 449.562 -3.885 0.000771004 0
M  V30 4687 H 451.234 -3.80415 2.60926 0
M  V30 4688 H 449.477 -3.53765 2.51063 0
M  V30 4689 H 450.148 -5.11344 2.07922 0
M  V30 4690 H 452.624 -4.14013 0.416228 0
M  V30 4691 H 451.5 -5.48799 0.105374 0
M  V30 4692 H 451.761 -4.27264 -1.13571 0
M  V30 4693 N 450.82 -0.546701 -1.47814 0
M  V30 4694 C 452.048 -0.0232857 -2.06887 0
M  V30 4695 C 452.463 1.26571 -1.4009 0
M  V30 4696 O 451.82 1.7569 -0.493906 0
M  V30 4697 C 451.871 0.186975 -3.61016 0
M  V30 4698 O 451.592 -1.05097 -4.25307 0
M  V30 4699 C 453.093 0.748872 -4.36929 0
M  V30 4700 H 450.313 -0.0410763 -0.669742 0
M  V30 4701 H 452.857 -0.757117 -1.89968 0
M  V30 4702 H 451.012 0.870903 -3.77484 0
M  V30 4703 H 451.426 -0.842121 -5.17695 0
M  V30 4704 H 452.9 0.845334 -5.45489 0
M  V30 4705 H 453.377 1.75772 -4.02493 0
M  V30 4706 H 453.983 0.100979 -4.2518 0
M  V30 4707 N 452.299 1.55045 -0.282633 0
M  V30 4708 C 453.262 2.21515 0.588539 0
M  V30 4709 C 454.262 1.19535 1.07554 0
M  V30 4710 O 455.452 1.44391 0.974514 0
M  V30 4711 C 452.584 2.88704 1.8128 0
M  V30 4712 H 453.777 2.99899 0.00806397 0
M  V30 4713 H 451.33 1.56265 -0.0333067 0
M  V30 4714 H 452.065 2.14352 2.43359 0
M  V30 4715 H 451.85 3.63443 1.47144 0
M  V30 4716 H 453.34 3.39465 2.43214 0
M  V30 4717 N 453.777 0.010035 1.57597 0
M  V30 4718 C 454.74 -0.963029 2.07986 0
M  V30 4719 C 455.74 -1.26619 0.991173 0
M  V30 4720 O 456.93 -1.2097 1.25347 0
M  V30 4721 C 454.062 -2.2851 2.52974 0
M  V30 4722 H 455.255 -0.526971 2.95234 0
M  V30 4723 H 452.808 -0.237639 1.54483 0
M  V30 4724 H 453.543 -2.76784 1.69 0
M  V30 4725 H 453.328 -2.07824 3.32493 0
M  V30 4726 H 454.818 -2.98294 2.9225 0
M  V30 4727 N 455.255 -1.55392 -0.262866 0
M  V30 4728 C 456.187 -1.85392 -1.34768 0
M  V30 4729 C 457.2 -0.739069 -1.45057 0
M  V30 4730 O 458.389 -1.01703 -1.46693 0
M  V30 4731 C 455.489 -2.01088 -2.72795 0
M  V30 4732 C 454.662 -3.31828 -2.84972 0
M  V30 4733 C 453.721 -3.37464 -4.03738 0
M  V30 4734 O 452.747 -4.10778 -3.94018 0
M  V30 4735 N 453.949 -2.65599 -5.16176 0
M  V30 4736 H 456.714 -2.79029 -1.09375 0
M  V30 4737 H 454.275 -1.55434 -0.452981 0
M  V30 4738 H 456.267 -2.02217 -3.50557 0
M  V30 4739 H 454.837 -1.1427 -2.90966 0
M  V30 4740 H 454.057 -3.43152 -1.94012 0
M  V30 4741 H 455.345 -4.18032 -2.90045 0
M  V30 4742 H 454.743 -2.05736 -5.26962 0
M  V30 4743 H 453.3 -2.72439 -5.92132 0
M  V30 4744 N 456.733 0.527833 -1.48498 0
M  V30 4745 C 457.696 1.61439 -1.62696 0
M  V30 4746 C 458.696 1.52824 -0.500136 0
M  V30 4747 O 459.886 1.56456 -0.765976 0
M  V30 4748 C 457.018 3.01063 -1.59918 0
M  V30 4749 H 458.211 1.50189 -2.59583 0
M  V30 4750 H 455.764 0.750055 -1.37127 0
M  V30 4751 H 456.499 3.17818 -0.645163 0
M  V30 4752 H 456.284 3.08725 -2.41726 0
M  V30 4753 H 457.774 3.80057 -1.73051 0
M  V30 4754 N 458.211 1.37122 0.776871 0
M  V30 4755 C 459.158 1.3247 1.88998 0
M  V30 4756 C 460.128 0.191143 1.64997 0
M  V30 4757 O 461.313 0.379683 1.86984 0
M  V30 4758 C 458.453 1.13241 3.25992 0
M  V30 4759 C 457.566 2.35782 3.61982 0
M  V30 4760 C 456.701 2.09465 4.88158 0
M  V30 4761 C 455.74 3.279 5.16864 0
M  V30 4762 N 454.877 3.01167 6.34226 0
M  V30 4763 H 459.717 2.27642 1.9231 0
M  V30 4764 H 457.254 1.13125 0.94027 0
M  V30 4765 H 459.212 1.00115 4.0501 0
M  V30 4766 H 457.842 0.217186 3.22069 0
M  V30 4767 H 456.894 2.59666 2.77989 0
M  V30 4768 H 458.206 3.24125 3.79137 0
M  V30 4769 H 457.36 1.93341 5.75069 0
M  V30 4770 H 456.099 1.18452 4.73097 0
M  V30 4771 H 455.104 3.44569 4.2843 0
M  V30 4772 H 456.329 4.19757 5.33836 0
M  V30 4773 H 454.275 2.12779 6.20533 0
M  V30 4774 H 454.192 3.83052 6.51772 0
M  V30 4775 H 455.46 2.88649 7.24087 0
M  V30 4776 N 459.689 -1.00246 1.21608 0
M  V30 4777 C 460.637 -2.11193 0.97469 0
M  V30 4778 C 461.631 -1.69216 -0.0789303 0
M  V30 4779 O 462.837 -1.79853 0.0726806 0
M  V30 4780 H 459.212 -0.690455 0.297953 0
M  V30 4781 H 461.183 -2.2873 1.91638 0
M  V30 4782 C 459.932 -3.43182 0.558717 0
M  V30 4783 H 459.255 -3.75918 1.3611 0
M  V30 4784 H 460.695 -4.21823 0.429154 0
M  V30 4785 C 459.154 -3.28882 -0.730648 0
M  V30 4786 O 459.684 -3.59835 -1.78554 0
M  V30 4787 N 457.89 -2.8209 -0.698131 0
M  V30 4788 H 457.437 -2.57099 0.16061 0
M  V30 4789 H 457.395 -2.72903 -1.56113 0
M  V30 4790 N 461.167 -1.02423 -1.1978 0
M  V30 4791 C 462.097 -0.62157 -2.25075 0
M  V30 4792 C 463.078 0.367148 -1.6609 0
M  V30 4793 O 464.263 0.250892 -1.92573 0
M  V30 4794 C 461.393 0.0331826 -3.47284 0
M  V30 4795 C 460.347 -0.877323 -4.18912 0
M  V30 4796 C 459.673 -0.0879296 -5.34628 0
M  V30 4797 C 460.973 -2.18892 -4.74219 0
M  V30 4798 H 462.667 -1.50179 -2.59011 0
M  V30 4799 H 460.213 -0.723547 -1.24502 0
M  V30 4800 H 462.166 0.326488 -4.20133 0
M  V30 4801 H 460.89 0.948164 -3.12534 0
M  V30 4802 H 459.549 -1.15475 -3.47938 0
M  V30 4803 H 459.197 0.828941 -4.96123 0
M  V30 4804 H 458.897 -0.694359 -5.83483 0
M  V30 4805 H 460.421 0.198743 -6.10276 0
M  V30 4806 H 461.835 -1.95746 -5.38847 0
M  V30 4807 H 460.232 -2.74686 -5.33542 0
M  V30 4808 H 461.302 -2.84674 -3.92541 0
M  V30 4809 N 462.645 1.35699 -0.801477 0
M  V30 4810 C 463.894 1.98165 -0.375979 0
M  V30 4811 C 464.207 1.64306 1.06127 0
M  V30 4812 O 465.413 2.20097 1.58964 0
M  V30 4813 C 463.869 3.54497 -0.621305 0
M  V30 4814 C 463.477 3.9727 -2.07076 0
M  V30 4815 C 465.221 4.23697 -0.26091 0
M  V30 4816 C 463.128 5.46427 -2.26211 0
M  V30 4817 H 462.058 0.741478 -0.136844 0
M  V30 4818 H 464.709 1.54834 -0.984814 0
M  V30 4819 H 463.091 3.95958 0.0574112 0
M  V30 4820 H 464.265 3.66974 -2.78687 0
M  V30 4821 H 462.58 3.40943 -2.39054 0
M  V30 4822 H 465.177 5.33334 -0.381994 0
M  V30 4823 H 465.52 4.0869 0.792344 0
M  V30 4824 H 466.053 3.87639 -0.893339 0
M  V30 4825 H 462.792 5.66396 -3.29963 0
M  V30 4826 H 462.312 5.78309 -1.59119 0
M  V30 4827 H 463.991 6.12819 -2.07513 0
M  V30 4828 N 464.123 0.554532 1.47522 0
M  V30 4829 C 465.4 -0.0360704 1.95567 0
M  V30 4830 C 465.78 -1.48828 1.49711 0
M  V30 4831 O 465.128 -2.16366 0.734717 0
M  V30 4832 C 465.338 0.106631 3.48837 0
M  V30 4833 C 466.686 -0.0400899 4.24581 0
M  V30 4834 O 467.71 0.0340453 3.56184 0
M  V30 4835 O 466.569 -0.199111 5.46137 0
M  V30 4836 H 463.663 -0.0656294 0.824392 0
M  V30 4837 H 466.209 0.620867 1.57935 0
M  V30 4838 H 464.981 1.11727 3.7501 0
M  V30 4839 H 464.604 -0.58804 3.93227 0
M  V30 4840 N 465.601 -1.54893 0.290851 0
M  V30 4841 C 466.564 -2.21824 -0.576784 0
M  V30 4842 C 467.564 -1.20104 -1.06919 0
M  V30 4843 O 468.754 -1.44906 -0.966843 0
M  V30 4844 C 465.886 -2.89662 -1.79747 0
M  V30 4845 H 467.079 -2.99899 0.00784051 0
M  V30 4846 H 464.632 -1.56245 0.0415934 0
M  V30 4847 H 465.367 -2.15639 -2.42219 0
M  V30 4848 H 465.152 -3.64219 -1.45214 0
M  V30 4849 H 466.642 -3.4075 -2.4141 0
M  V30 4850 N 467.08 -0.0183926 -1.57589 0
M  V30 4851 C 468.328 0.661253 -1.90976 0
M  V30 4852 C 468.649 1.73281 -0.894353 0
M  V30 4853 O 467.919 1.9579 0.0656788 0
M  V30 4854 H 466.499 0.247233 -0.704901 0
M  V30 4855 H 469.161 -0.0636639 -1.94796 0
M  V30 4856 H 468.257 1.12083 -2.9128 0
M  V30 4857 N 468.558 1.5553 0.254621 0
M  V30 4858 C 469.804 1.77262 0.985193 0
M  V30 4859 C 470.137 0.582286 1.85265 0
M  V30 4860 O 469.412 -0.419666 1.89919 0
M  V30 4861 C 469.695 3.0881 1.85225 0
M  V30 4862 C 469.548 4.38233 1.0135 0
M  V30 4863 C 470.867 3.3653 2.83612 0
M  V30 4864 H 467.986 0.644906 0.356742 0
M  V30 4865 H 470.628 1.88264 0.256236 0
M  V30 4866 H 468.778 2.99562 2.47376 0
M  V30 4867 H 470.45 4.59463 0.411269 0
M  V30 4868 H 468.693 4.32636 0.317574 0
M  V30 4869 H 469.364 5.26644 1.65379 0
M  V30 4870 H 471.84 3.45691 2.31596 0
M  V30 4871 H 470.716 4.29805 3.41407 0
M  V30 4872 H 470.977 2.57064 3.59681 0
M  V30 4873 N 470.036 -0.519951 1.48776 0
M  V30 4874 C 471.313 -1.28123 1.47797 0
M  V30 4875 C 471.693 -2.10196 0.195157 0
M  V30 4876 O 471.041 -2.13167 -0.822925 0
M  V30 4877 C 471.251 -2.15413 2.74587 0
M  V30 4878 C 472.599 -2.75225 3.23321 0
M  V30 4879 O 473.623 -2.25694 2.75574 0
M  V30 4880 O 472.482 -3.65346 4.06429 0
M  V30 4881 H 469.576 -0.578793 0.590701 0
M  V30 4882 H 472.122 -0.535779 1.6102 0
M  V30 4883 H 470.894 -1.54617 3.59457 0
M  V30 4884 H 470.517 -2.97186 2.64132 0
M  V30 4885 N 471.514 -1.37532 -0.769588 0
M  V30 4886 C 472.762 -1.32597 -1.5252 0
M  V30 4887 C 473.083 0.0884294 -1.94799 0
M  V30 4888 O 472.353 1.03289 -1.66458 0
M  V30 4889 H 470.933 -0.487846 -0.565699 0
M  V30 4890 H 473.595 -1.72044 -0.915806 0
M  V30 4891 H 472.691 -1.96643 -2.42359 0
M  V30 4892 N 472.992 0.995999 -1.22138 0
M  V30 4893 C 473.922 2.10387 -1.01289 0
M  V30 4894 C 474.903 1.69975 0.0651454 0
M  V30 4895 O 476.088 1.9396 -0.0964628 0
M  V30 4896 C 473.218 3.42312 -0.586517 0
M  V30 4897 C 472.172 3.96558 -1.61014 0
M  V30 4898 C 471.498 5.24494 -1.0397 0
M  V30 4899 C 472.798 4.27595 -2.99933 0
M  V30 4900 H 474.492 2.28086 -1.93951 0
M  V30 4901 H 472.038 1.09607 -0.933928 0
M  V30 4902 H 473.991 4.19223 -0.427793 0
M  V30 4903 H 472.715 3.24431 0.375761 0
M  V30 4904 H 471.374 3.21776 -1.75658 0
M  V30 4905 H 471.022 5.02953 -0.0688703 0
M  V30 4906 H 470.722 5.61755 -1.72352 0
M  V30 4907 H 472.246 6.04042 -0.892494 0
M  V30 4908 H 473.66 4.95315 -2.8868 0
M  V30 4909 H 472.057 4.76021 -3.6541 0
M  V30 4910 H 473.127 3.35498 -3.50099 0
M  V30 4911 N 474.47 1.03057 1.19235 0
M  V30 4912 C 475.886 0.747947 1.40989 0
M  V30 4913 C 476.086 -0.666752 1.90149 0
M  V30 4914 O 475.142 -1.43249 2.07933 0
M  V30 4915 C 476.455 1.7855 2.41951 0
M  V30 4916 C 478.003 1.80524 2.55695 0
M  V30 4917 C 478.478 2.83243 3.59913 0
M  V30 4918 N 479.969 2.8207 3.67411 0
M  V30 4919 C 480.704 3.58204 4.47747 0
M  V30 4920 N 480.2 4.44057 5.31775 0
M  V30 4921 N 481.993 3.46738 4.42413 0
M  V30 4922 H 474.144 1.94367 0.856468 0
M  V30 4923 H 476.407 0.840412 0.438647 0
M  V30 4924 H 476.113 2.79973 2.12857 0
M  V30 4925 H 475.987 1.6092 3.41152 0
M  V30 4926 H 478.374 0.79778 2.84112 0
M  V30 4927 H 478.455 2.02229 1.56643 0
M  V30 4928 H 478.099 3.84161 3.32239 0
M  V30 4929 H 478.029 2.58795 4.5862 0
M  V30 4930 H 480.52 2.19803 3.074 0
M  V30 4931 H 480.833 4.98884 5.90199 0
M  V30 4932 H 479.178 4.48129 5.3123 0
M  V30 4933 H 482.369 2.79077 3.75811 0
M  V30 4934 H 482.542 4.06322 5.04783 0
M  V30 4935 N 475.948 -1.35272 0.808662 0
M  V30 4936 C 477.194 -1.99003 0.390581 0
M  V30 4937 C 477.527 -1.63999 -1.0401 0
M  V30 4938 O 476.802 -0.904368 -1.72196 0
M  V30 4939 C 477.085 -3.55454 0.576566 0
M  V30 4940 C 476.938 -4.00249 2.05233 0
M  V30 4941 C 478.257 -4.401 0.00354277 0
M  V30 4942 H 475.376 -0.722917 0.143388 0
M  V30 4943 H 478.018 -1.6039 1.01858 0
M  V30 4944 H 476.168 -3.88477 0.0419766 0
M  V30 4945 H 477.84 -3.77626 2.64946 0
M  V30 4946 H 476.083 -3.51082 2.54801 0
M  V30 4947 H 476.754 -5.0911 2.13333 0
M  V30 4948 H 479.23 -4.13548 0.460117 0
M  V30 4949 H 478.106 -5.48656 0.163575 0
M  V30 4950 H 478.367 -4.28444 -1.09032 0
M  V30 4951 N 477.426 -0.562348 -1.47226 0
M  V30 4952 C 478.674 -0.0401371 -2.0206 0
M  V30 4953 C 478.995 1.3165 -1.43852 0
M  V30 4954 O 478.265 1.85976 -0.615599 0
M  V30 4955 H 476.845 -0.0118479 -0.746906 0
M  V30 4956 H 479.507 -0.73352 -1.8057 0
M  V30 4957 H 478.603 0.0441254 -3.12069 0
M  V30 4958 N 478.904 1.54736 -0.299062 0
M  V30 4959 C 479.837 2.1962 0.619851 0
M  V30 4960 C 480.815 1.16496 1.13434 0
M  V30 4961 O 481.999 1.4513 1.2029 0
M  V30 4962 C 479.126 2.8385 1.84788 0
M  V30 4963 C 478.172 4.00484 1.46679 0
M  V30 4964 S 479.005 5.32926 0.524389 0
M  V30 4965 C 480.161 6.00638 1.76026 0
M  V30 4966 H 480.394 2.97221 0.0686177 0
M  V30 4967 H 477.927 1.54176 -0.0832085 0
M  V30 4968 H 479.885 3.21483 2.55263 0
M  V30 4969 H 478.546 2.06099 2.37028 0
M  V30 4970 H 477.739 4.44201 2.38121 0
M  V30 4971 H 477.341 3.64398 0.842008 0
M  V30 4972 H 479.633 6.21327 2.70109 0
M  V30 4973 H 480.576 6.94805 1.36569 0
M  V30 4974 H 480.984 5.3026 1.93609 0
M  V30 4975 N 480.382 0.0267497 1.57577 0
M  V30 4976 C 481.63 -0.651116 1.91324 0
M  V30 4977 C 481.951 -1.72804 0.90353 0
M  V30 4978 O 481.221 -1.95822 -0.0552946 0
M  V30 4979 H 479.801 -0.243491 0.706202 0
M  V30 4980 H 482.463 0.0739935 1.94759 0
M  V30 4981 H 481.559 -1.10536 2.9187 0
M  V30 4982 N 481.861 -1.55662 -0.24637 0
M  V30 4983 C 483.101 -1.79283 -0.981685 0
M  V30 4984 C 483.465 -0.596356 -1.82504 0
M  V30 4985 O 484.666 -0.711342 -2.59217 0
M  V30 4986 C 482.937 -3.07648 -1.819 0
M  V30 4987 S 484.496 -3.52491 -2.61334 0
M  V30 4988 H 481.314 -0.629676 -0.330196 0
M  V30 4989 H 483.916 -1.93901 -0.249498 0
M  V30 4990 H 482.62 -3.92794 -1.18915 0
M  V30 4991 H 482.151 -2.95768 -2.59393 0
M  V30 4992 H 484.166 -3.13866 -3.84321 0
M  V30 4993 N 483.339 0.512053 -1.4905 0
M  V30 4994 C 484.587 1.26436 -1.57665 0
M  V30 4995 C 484.908 1.93255 -0.260293 0
M  V30 4996 O 484.178 1.82206 0.719564 0
M  V30 4997 H 482.758 0.469658 -0.580888 0
M  V30 4998 H 485.42 0.594398 -1.85615 0
M  V30 4999 H 484.516 2.03417 -2.36702 0
M  V30 5000 N 484.817 1.37938 0.762283 0
M  V30 5001 C 486.042 1.37059 1.55659 0
M  V30 5002 C 486.467 -0.0396123 1.88058 0
M  V30 5003 O 485.825 -1.01929 1.49934 0
M  V30 5004 C 485.873 2.22494 2.83776 0
M  V30 5005 O 484.977 1.63607 3.78559 0
M  V30 5006 H 484.318 0.467892 0.47114 0
M  V30 5007 H 486.848 1.81587 0.942725 0
M  V30 5008 H 486.858 2.36045 3.32786 0
M  V30 5009 H 485.533 3.24993 2.59524 0
M  V30 5010 H 484.11 1.5915 3.37233 0
M  V30 5011 N 486.295 -0.989507 1.22664 0
M  V30 5012 C 487.544 -1.72375 1.04737 0
M  V30 5013 C 487.857 -1.91096 -0.417316 0
M  V30 5014 O 489.063 -2.6188 -0.716334 0
M  V30 5015 C 487.519 -3.10161 1.82561 0
M  V30 5016 C 487.127 -2.99358 3.333 0
M  V30 5017 C 488.871 -3.87607 1.73093 0
M  V30 5018 C 486.778 -4.32319 4.03552 0
M  V30 5019 H 485.708 -0.646326 0.388302 0
M  V30 5020 H 488.359 -1.10437 1.46546 0
M  V30 5021 H 486.741 -3.728 1.33552 0
M  V30 5022 H 487.915 -2.45863 3.89728 0
M  V30 5023 H 486.23 -2.35392 3.43481 0
M  V30 5024 H 488.827 -4.86025 2.22899 0
M  V30 5025 H 489.17 -4.10509 0.691976 0
M  V30 5026 H 489.703 -3.31652 2.19663 0
M  V30 5027 H 486.442 -4.14616 5.07714 0
M  V30 5028 H 485.962 -4.85714 3.51911 0
M  V30 5029 H 487.641 -5.01051 4.09337 0
M  V30 5030 N 487.773 -1.03688 -1.18687 0
M  V30 5031 C 489.013 -0.746858 -1.90267 0
M  V30 5032 C 489.377 0.712075 -1.78307 0
M  V30 5033 O 490.578 1.11553 -2.44559 0
M  V30 5034 C 488.849 -1.19543 -3.36815 0
M  V30 5035 S 490.408 -1.03047 -4.26529 0
M  V30 5036 H 487.226 -0.271663 -0.657054 0
M  V30 5037 H 489.828 -1.32838 -1.43437 0
M  V30 5038 H 488.532 -2.2527 -3.43047 0
M  V30 5039 H 488.063 -0.607533 -3.88681 0
M  V30 5040 H 490.078 0.0543232 -4.9617 0
M  V30 5041 N 489.251 1.34841 -0.815825 0
M  V30 5042 C 490.5 1.97755 -0.396976 0
M  V30 5043 C 490.813 1.65422 1.04379 0
M  V30 5044 O 492.019 2.21771 1.5662 0
M  V30 5045 C 490.475 3.53818 -0.658869 0
M  V30 5046 C 490.083 3.95051 -2.11278 0
M  V30 5047 C 491.827 4.23397 -0.305834 0
M  V30 5048 C 489.734 5.43997 -2.31994 0
M  V30 5049 H 488.664 0.739985 -0.1447 0
M  V30 5050 H 491.315 1.53781 -1.00118 0
M  V30 5051 H 489.697 3.95997 0.0154112 0
M  V30 5052 H 490.871 3.63998 -2.82564 0
M  V30 5053 H 489.186 3.38388 -2.42657 0
M  V30 5054 H 491.783 5.32899 -0.43854 0
M  V30 5055 H 492.126 4.09508 0.748952 0
M  V30 5056 H 492.659 3.8667 -0.934403 0
M  V30 5057 H 489.398 5.62865 -3.35952 0
M  V30 5058 H 488.918 5.76589 -1.65244 0
M  V30 5059 H 490.597 6.10584 -2.14001 0
M  V30 5060 N 490.729 0.570148 1.46925 0
M  V30 5061 C 491.957 0.0561966 2.06824 0
M  V30 5062 C 492.372 -1.24326 1.42086 0
M  V30 5063 O 491.729 -1.74882 0.521794 0
M  V30 5064 C 491.78 -0.129517 3.61268 0
M  V30 5065 O 491.501 1.1185 4.23581 0
M  V30 5066 C 493.002 -0.679266 4.38065 0
M  V30 5067 H 490.222 0.0517261 0.669003 0
M  V30 5068 H 492.766 0.787243 1.8874 0
M  V30 5069 H 490.921 -0.810739 3.78822 0
M  V30 5070 H 491.335 0.924375 5.1629 0
M  V30 5071 H 492.809 -0.758445 5.46765 0
M  V30 5072 H 493.286 -1.69346 4.05239 0
M  V30 5073 H 493.892 -0.0333237 4.25287 0
M  V30 5074 N 492.207 -1.54576 0.307264 0
M  V30 5075 C 493.139 -2.21212 -0.599807 0
M  V30 5076 C 494.152 -1.20685 -1.09266 0
M  V30 5077 O 495.341 -1.47244 -1.00903 0
M  V30 5078 C 492.441 -2.84994 -1.83389 0
M  V30 5079 C 491.614 -4.11511 -1.48248 0
M  V30 5080 C 490.673 -4.59038 -2.57237 0
M  V30 5081 O 489.699 -5.24095 -2.22065 0
M  V30 5082 N 490.901 -4.31884 -3.87887 0
M  V30 5083 H 493.666 -2.99686 -0.0293075 0
M  V30 5084 H 491.227 -1.61379 0.129738 0
M  V30 5085 H 493.219 -3.1372 -2.5566 0
M  V30 5086 H 491.789 -2.10324 -2.31263 0
M  V30 5087 H 491.009 -3.89728 -0.592122 0
M  V30 5088 H 492.297 -4.93879 -1.22316 0
M  V30 5089 H 491.695 -3.79778 -4.19268 0
M  V30 5090 H 490.252 -4.65304 -4.56438 0
M  V30 5091 N 493.685 -0.035106 -1.57561 0
M  V30 5092 C 494.595 0.960295 -2.14046 0
M  V30 5093 C 495.611 1.3529 -1.0942 0
M  V30 5094 O 496.787 1.43309 -1.41508 0
M  V30 5095 C 493.852 2.22214 -2.66124 0
M  V30 5096 C 492.913 1.8894 -3.85487 0
M  V30 5097 C 492.146 3.09109 -4.35072 0
M  V30 5098 O 492.369 4.21963 -3.83802 0
M  V30 5099 O 491.303 2.91058 -5.26848 0
M  V30 5100 H 495.129 0.509983 -2.99387 0
M  V30 5101 H 492.714 0.185853 -1.48239 0
M  V30 5102 H 494.596 2.96279 -2.99661 0
M  V30 5103 H 493.271 2.66414 -1.83862 0
M  V30 5104 H 492.178 1.12241 -3.56865 0
M  V30 5105 H 493.511 1.49551 -4.6893 0
M  V30 5106 N 495.163 1.55791 0.238111 0
M  V30 5107 C 496.409 1.78297 0.966337 0
M  V30 5108 C 496.742 0.601903 1.84637 0
M  V30 5109 O 496.017 -0.399499 1.90353 0
M  V30 5110 C 496.3 3.10758 1.81939 0
M  V30 5111 C 496.153 4.39283 0.966958 0
M  V30 5112 C 497.472 3.39519 2.80027 0
M  V30 5113 H 494.591 0.648654 0.349882 0
M  V30 5114 H 497.233 1.88525 0.236253 0
M  V30 5115 H 495.383 3.02168 2.44185 0
M  V30 5116 H 497.055 4.59873 0.362514 0
M  V30 5117 H 495.298 4.32948 0.271669 0
M  V30 5118 H 495.969 5.28368 1.59784 0
M  V30 5119 H 498.445 3.48128 2.27917 0
M  V30 5120 H 497.321 4.33402 3.36829 0
M  V30 5121 H 497.582 2.60864 3.56934 0
M  V30 5122 N 496.642 -0.504142 1.49319 0
M  V30 5123 C 497.575 -1.62361 1.60356 0
M  V30 5124 C 498.553 -1.56169 0.45277 0
M  V30 5125 O 499.737 -1.76271 0.667892 0
M  V30 5126 C 496.864 -3.00864 1.55559 0
M  V30 5127 C 495.91 -3.25328 2.75797 0
M  V30 5128 S 496.743 -3.08791 4.37503 0
M  V30 5129 C 497.899 -4.49695 4.35345 0
M  V30 5130 H 498.132 -1.52753 2.55056 0
M  V30 5131 H 495.665 -0.689065 1.38171 0
M  V30 5132 H 497.623 -3.8073 1.53477 0
M  V30 5133 H 496.284 -3.0789 0.621515 0
M  V30 5134 H 495.477 -4.2643 2.68651 0
M  V30 5135 H 495.079 -2.53179 2.75275 0
M  V30 5136 H 497.371 -5.41721 4.06871 0
M  V30 5137 H 498.314 -4.61891 5.36714 0
M  V30 5138 H 498.722 -4.30227 3.65465 0
M  V30 5139 N 498.12 -1.38341 -0.754957 0
M  V30 5140 C 499.083 -1.35262 -1.85032 0
M  V30 5141 C 500.083 -0.253393 -1.58791 0
M  V30 5142 O 501.273 -0.510205 -1.66561 0
M  V30 5143 C 498.405 -1.10544 -3.22479 0
M  V30 5144 H 499.598 -2.32712 -1.8917 0
M  V30 5145 H 497.151 -1.23614 -0.956515 0
M  V30 5146 H 497.886 -0.136952 -3.24011 0
M  V30 5147 H 497.671 -1.90127 -3.4292 0
M  V30 5148 H 499.161 -1.11082 -4.02555 0
M  V30 5149 N 499.598 0.982988 -1.23187 0
M  V30 5150 C 500.838 1.73903 -1.07412 0
M  V30 5151 C 501.202 1.88146 0.382764 0
M  V30 5152 O 502.403 2.6053 0.661638 0
M  V30 5153 C 500.674 3.10105 -1.77678 0
M  V30 5154 S 502.233 4.01323 -1.77441 0
M  V30 5155 H 499.051 0.598093 -0.384456 0
M  V30 5156 H 501.653 1.17456 -1.56283 0
M  V30 5157 H 500.357 2.97388 -2.82822 0
M  V30 5158 H 499.888 3.71622 -1.29077 0
M  V30 5159 H 501.903 4.89189 -0.831162 0
M  V30 5160 N 501.076 1.04316 1.18135 0
M  V30 5161 C 502.324 0.746542 1.87806 0
M  V30 5162 C 502.645 -0.728082 1.80898 0
M  V30 5163 O 501.915 -1.52554 1.22899 0
M  V30 5164 H 500.495 0.273157 0.695265 0
M  V30 5165 H 503.157 1.32044 1.43354 0
M  V30 5166 H 502.253 1.05362 2.93778 0
M  V30 5167 N 502.554 -1.34406 0.822964 0
M  V30 5168 C 503.97 -1.51275 0.508727 0
M  V30 5169 C 504.17 -1.76776 -0.967083 0
M  V30 5170 O 503.226 -1.81871 -1.75155 0
M  V30 5171 C 504.539 -2.67765 1.36829 0
M  V30 5172 C 506.087 -2.81647 1.36542 0
M  V30 5173 C 506.562 -4.01181 2.20947 0
M  V30 5174 N 508.053 -4.08388 2.18571 0
M  V30 5175 C 508.788 -5.00036 2.80627 0
M  V30 5176 N 508.284 -5.96906 3.51674 0
M  V30 5177 N 510.077 -4.92908 2.70181 0
M  V30 5178 H 502.228 -1.16113 1.77852 0
M  V30 5179 H 504.491 -0.56947 0.757897 0
M  V30 5180 H 504.197 -2.55551 2.41633 0
M  V30 5181 H 504.071 -3.62779 1.03303 0
M  V30 5182 H 506.458 -2.93303 0.325163 0
M  V30 5183 H 506.539 -1.87443 1.74066 0
M  V30 5184 H 506.183 -3.90286 3.25022 0
M  V30 5185 H 506.113 -4.94599 1.80774 0
M  V30 5186 H 508.604 -3.39051 1.66891 0
M  V30 5187 H 508.917 -6.63468 3.96271 0
M  V30 5188 H 507.262 -5.9703 3.5578 0
M  V30 5189 H 510.453 -4.1619 2.14251 0
M  V30 5190 H 510.626 -5.64137 3.18831 0
M  V30 5191 N 504.032 -0.577932 -1.46621 0
M  V30 5192 C 505.443 -0.150071 -1.86096 0
M  V30 5193 C 505.794 1.28563 -1.48209 0
M  V30 5194 O 504.919 1.97036 -0.894754 0
M  V30 5195 C 505.514 -0.265576 -3.37758 0
M  V30 5196 C 504.073 0.10738 -3.76247 0
M  V30 5197 C 503.22 -0.603711 -2.70649 0
M  V30 5198 H 506.171 -0.786438 -1.37844 0
M  V30 5199 H 506.192 0.510352 -3.77062 0
M  V30 5200 H 505.704 -1.3106 -3.65301 0
M  V30 5201 H 503.805 1.15272 -3.54321 0
M  V30 5202 H 503.918 -0.26561 -4.78363 0
M  V30 5203 H 502.282 -0.0444884 -2.54661 0
M  V30 5204 H 503.065 -1.65029 -3.01032 0
M  V30 5205 N 505.51 1.54411 -0.315457 0
M  V30 5206 C 506.442 2.21527 0.588067 0
M  V30 5207 C 507.455 1.21263 1.08624 0
M  V30 5208 O 508.644 1.47777 1.00121 0
M  V30 5209 C 505.744 2.85963 1.81875 0
M  V30 5210 C 504.917 4.12291 1.46063 0
M  V30 5211 C 503.976 4.60396 2.54799 0
M  V30 5212 O 503.002 5.25265 2.19283 0
M  V30 5213 N 504.204 4.33935 3.85591 0
M  V30 5214 H 506.969 2.99697 0.013414 0
M  V30 5215 H 504.53 1.61308 -0.138295 0
M  V30 5216 H 506.522 3.15071 2.53993 0
M  V30 5217 H 505.092 2.11548 2.30144 0
M  V30 5218 H 504.312 3.90036 0.571445 0
M  V30 5219 H 505.6 4.9452 1.19695 0
M  V30 5220 H 504.998 3.81996 4.17248 0
M  V30 5221 H 503.555 4.67718 4.53964 0
M  V30 5222 N 506.988 0.0434614 1.5754 0
M  V30 5223 C 508.236 -0.630786 1.92004 0
M  V30 5224 C 508.557 -1.71836 0.921807 0
M  V30 5225 O 507.827 -1.9587 -0.034522 0
M  V30 5226 H 506.407 -0.235988 0.708745 0
M  V30 5227 H 509.069 0.0946462 1.9467 0
M  V30 5228 H 508.165 -1.07434 2.93026 0
M  V30 5229 N 508.466 -1.55915 -0.229846 0
M  V30 5230 C 509.694 -1.82617 -0.972562 0
M  V30 5231 C 510.109 -0.621488 -1.78278 0
M  V30 5232 O 509.466 0.409956 -1.77836 0
M  V30 5233 C 509.517 -3.0774 -1.89679 0
M  V30 5234 O 509.238 -4.23559 -1.11934 0
M  V30 5235 C 510.739 -3.47368 -2.75409 0
M  V30 5236 H 507.959 -0.60727 -0.285419 0
M  V30 5237 H 510.503 -2.02996 -0.247579 0
M  V30 5238 H 508.658 -2.89361 -2.57583 0
M  V30 5239 H 509.072 -4.94586 -1.74599 0
M  V30 5240 H 510.546 -4.37977 -3.35977 0
M  V30 5241 H 511.023 -2.68737 -3.47386 0
M  V30 5242 H 511.629 -3.68158 -2.12931 0
M  V30 5243 N 509.944 0.496216 -1.49584 0
M  V30 5244 C 510.907 1.57952 -1.66084 0
M  V30 5245 C 511.907 1.51729 -0.53244 0
M  V30 5246 O 513.097 1.54796 -0.79899 0
M  V30 5247 C 510.229 2.97604 -1.66268 0
M  V30 5248 H 511.422 1.44649 -2.6271 0
M  V30 5249 H 508.975 0.7208 -1.38687 0
M  V30 5250 H 509.71 3.16378 -0.712432 0
M  V30 5251 H 509.495 3.03528 -2.4822 0
M  V30 5252 H 510.985 3.76301 -1.81073 0
M  V30 5253 N 511.423 1.38739 0.74761 0
M  V30 5254 C 512.669 1.35475 1.50912 0
M  V30 5255 C 513.002 -0.0533093 1.94127 0
M  V30 5256 O 512.277 -1.01572 1.65871 0
M  V30 5257 C 512.56 2.31582 2.75757 0
M  V30 5258 C 512.413 3.81274 2.38642 0
M  V30 5259 C 513.732 2.25722 3.77806 0
M  V30 5260 H 510.851 0.493427 0.547447 0
M  V30 5261 H 513.493 1.69634 0.855823 0
M  V30 5262 H 511.643 2.02582 3.31501 0
M  V30 5263 H 513.315 4.20972 1.88626 0
M  V30 5264 H 511.558 3.98664 1.71025 0
M  V30 5265 H 512.229 4.4399 3.27989 0
M  V30 5266 H 514.705 2.51336 3.31616 0
M  V30 5267 H 513.581 2.95069 4.62845 0
M  V30 5268 H 513.842 1.25803 4.23823 0
M  V30 5269 N 512.901 -0.976442 1.23707 0
M  V30 5270 C 514.131 -1.75087 1.09673 0
M  V30 5271 C 514.539 -1.85852 -0.354344 0
M  V30 5272 O 513.882 -1.33985 -1.25673 0
M  V30 5273 C 513.944 -3.19272 1.65245 0
M  V30 5274 C 513.608 -3.32004 3.14042 0
M  V30 5275 C 514.605 -3.18017 4.11292 0
M  V30 5276 C 512.29 -3.56525 3.53829 0
M  V30 5277 C 514.284 -3.28363 5.46312 0
M  V30 5278 C 511.971 -3.6651 4.88993 0
M  V30 5279 C 512.969 -3.52439 5.85043 0
M  V30 5280 O 512.657 -3.62063 7.1775 0
M  V30 5281 H 512.389 -0.556164 0.384262 0
M  V30 5282 H 514.943 -1.23518 1.64111 0
M  V30 5283 H 513.173 -3.72107 1.05231 0
M  V30 5284 H 514.862 -3.7849 1.46629 0
M  V30 5285 H 515.628 -2.98966 3.81896 0
M  V30 5286 H 511.507 -3.66547 2.79579 0
M  V30 5287 H 515.051 -3.17297 6.21263 0
M  V30 5288 H 510.948 -3.85072 5.18063 0
M  V30 5289 H 511.716 -3.78833 7.25553 0
M  V30 5290 N 514.379 -1.04941 -1.1758 0
M  V30 5291 C 515.326 -0.648155 -2.21512 0
M  V30 5292 C 516.296 0.348431 -1.62404 0
M  V30 5293 O 517.481 0.240419 -1.89279 0
M  V30 5294 C 514.621 -0.0264291 -3.4509 0
M  V30 5295 C 513.734 -1.07154 -4.185 0
M  V30 5296 C 512.869 -0.417403 -5.29558 0
M  V30 5297 C 511.908 -1.447 -5.94751 0
M  V30 5298 N 511.045 -0.817203 -6.97328 0
M  V30 5299 H 515.885 -1.53891 -2.55189 0
M  V30 5300 H 513.422 -0.769699 -1.25356 0
M  V30 5301 H 515.38 0.351456 -4.15717 0
M  V30 5302 H 514.01 0.827802 -3.12005 0
M  V30 5303 H 513.062 -1.56728 -3.46613 0
M  V30 5304 H 514.374 -1.8532 -4.63096 0
M  V30 5305 H 513.528 0.0142061 -6.06698 0
M  V30 5306 H 512.267 0.396265 -4.86087 0
M  V30 5307 H 511.272 -1.88865 -5.16343 0
M  V30 5308 H 512.497 -2.26252 -6.40302 0
M  V30 5309 H 510.443 -0.0239995 -6.55996 0
M  V30 5310 H 510.36 -1.53644 -7.40223 0
M  V30 5311 H 511.628 -0.410283 -7.7842 0
M  V30 5312 N 515.857 1.33968 -0.830081 0
M  V30 5313 C 517.103 1.98357 -0.422191 0
M  V30 5314 C 517.436 1.65633 1.01387 0
M  V30 5315 O 516.711 0.931648 1.70735 0
M  V30 5316 C 516.994 3.54492 -0.633043 0
M  V30 5317 C 516.847 3.96934 -2.11574 0
M  V30 5318 C 518.166 4.40039 -0.0735584 0
M  V30 5319 H 515.285 0.720544 -0.154871 0
M  V30 5320 H 517.927 1.58749 -1.04397 0
M  V30 5321 H 516.077 3.88361 -0.103775 0
M  V30 5322 H 517.749 3.73363 -2.7092 0
M  V30 5323 H 515.992 3.46984 -2.60354 0
M  V30 5324 H 516.663 5.05651 -2.21406 0
M  V30 5325 H 519.139 4.12764 -0.52585 0
M  V30 5326 H 518.015 5.48327 -0.250841 0
M  V30 5327 H 518.276 4.30124 1.02202 0
M  V30 5328 N 517.335 0.585699 1.46312 0
M  V30 5329 C 518.298 -0.135673 2.28798 0
M  V30 5330 C 519.298 -0.815988 1.38558 0
M  V30 5331 O 520.488 -0.667487 1.60904 0
M  V30 5332 C 517.62 -1.20163 3.1902 0
M  V30 5333 H 518.813 0.589257 2.94054 0
M  V30 5334 H 516.366 0.343794 1.52472 0
M  V30 5335 H 517.101 -1.95804 2.58517 0
M  V30 5336 H 516.886 -0.718282 3.85465 0
M  V30 5337 H 518.376 -1.70749 3.81096 0
M  V30 5338 N 518.813 -1.54241 0.323641 0
M  V30 5339 C 519.723 -2.28033 -0.551205 0
M  V30 5340 C 520.739 -1.32388 -1.12913 0
M  V30 5341 O 521.915 -1.65403 -1.14908 0
M  V30 5342 C 518.98 -3.02382 -1.69606 0
M  V30 5343 C 518.041 -4.13612 -1.14993 0
M  V30 5344 C 517.274 -4.84407 -2.24022 0
M  V30 5345 O 517.497 -4.54716 -3.44368 0
M  V30 5346 O 516.431 -5.71312 -1.89436 0
M  V30 5347 H 520.257 -3.03662 0.048066 0
M  V30 5348 H 517.842 -1.49133 0.0893289 0
M  V30 5349 H 519.724 -3.48941 -2.36259 0
M  V30 5350 H 518.399 -2.29628 -2.28151 0
M  V30 5351 H 517.306 -3.71402 -0.448484 0
M  V30 5352 H 518.639 -4.8841 -0.609608 0
M  V30 5353 N 520.291 -0.0518155 -1.57515 0
M  V30 5354 C 521.521 0.63048 -1.96745 0
M  V30 5355 C 521.929 1.64875 -0.928054 0
M  V30 5356 O 521.272 1.83449 0.0960678 0
M  V30 5357 C 521.334 1.37381 -3.32215 0
M  V30 5358 C 520.998 0.511298 -4.54131 0
M  V30 5359 C 521.995 -0.222884 -5.19422 0
M  V30 5360 C 519.68 0.442035 -5.00351 0
M  V30 5361 C 521.674 -1.01476 -6.2927 0
M  V30 5362 C 519.361 -0.35353 -6.10077 0
M  V30 5363 C 520.359 -1.08062 -6.74397 0
M  V30 5364 O 520.047 -1.8631 -7.82013 0
M  V30 5365 H 519.779 0.177126 -0.652382 0
M  V30 5366 H 522.333 -0.114726 -2.05079 0
M  V30 5367 H 520.563 2.16466 -3.20436 0
M  V30 5368 H 522.252 1.9464 -3.56188 0
M  V30 5369 H 523.018 -0.178846 -4.8467 0
M  V30 5370 H 518.897 0.997562 -4.50077 0
M  V30 5371 H 522.441 -1.58279 -6.79407 0
M  V30 5372 H 518.338 -0.399205 -6.44264 0
M  V30 5373 H 519.106 -1.78528 -7.98793 0
M  V30 5374 N 521.769 1.56035 0.221574 0
M  V30 5375 C 522.732 1.91584 1.2581 0
M  V30 5376 C 523.732 0.794425 1.39805 0
M  V30 5377 O 524.922 1.06217 1.38071 0
M  V30 5378 C 522.054 2.16663 2.63192 0
M  V30 5379 H 523.247 2.8429 0.954935 0
M  V30 5380 H 520.8 1.49316 0.461988 0
M  V30 5381 H 521.535 1.26508 2.98607 0
M  V30 5382 H 521.32 2.98358 2.5441 0
M  V30 5383 H 522.81 2.45262 3.37988 0
M  V30 5384 N 523.247 -0.488276 1.49845 0
M  V30 5385 C 524.663 -0.820566 1.3689 0
M  V30 5386 C 524.863 -1.97248 0.411752 0
M  V30 5387 O 523.919 -2.52042 -0.151931 0
M  V30 5388 C 525.232 -1.1488 2.77891 0
M  V30 5389 C 526.78 -1.25626 2.86683 0
M  V30 5390 C 527.255 -1.61772 4.28479 0
M  V30 5391 N 528.746 -1.68797 4.31349 0
M  V30 5392 C 529.481 -1.98235 5.38043 0
M  V30 5393 N 528.977 -2.2581 6.54967 0
M  V30 5394 N 530.77 -1.99593 5.2547 0
M  V30 5395 H 522.921 0.271123 2.10662 0
M  V30 5396 H 525.184 0.058735 0.946179 0
M  V30 5397 H 524.89 -0.375614 3.49688 0
M  V30 5398 H 524.764 -2.08919 3.14058 0
M  V30 5399 H 527.151 -2.02014 2.15114 0
M  V30 5400 H 527.232 -0.296072 2.54081 0
M  V30 5401 H 526.876 -0.859295 5.00578 0
M  V30 5402 H 526.806 -2.58912 4.58554 0
M  V30 5403 H 529.297 -1.49595 3.4703 0
M  V30 5404 H 529.61 -2.47497 7.32096 0
M  V30 5405 H 527.955 -2.23239 6.58171 0
M  V30 5406 H 531.146 -1.77535 4.33127 0
M  V30 5407 H 531.319 -2.222 6.08713 0
M  V30 5408 N 524.725 -1.39134 -0.740242 0
M  V30 5409 C 526.141 -1.20623 -1.0451 0
M  V30 5410 C 526.341 -0.0641651 -2.01398 0
M  V30 5411 O 525.397 0.585843 -2.4561 0
M  V30 5412 C 526.71 -2.53815 -1.6124 0
M  V30 5413 C 528.258 -2.60615 -1.73346 0
M  V30 5414 C 528.733 -3.94015 -2.33486 0
M  V30 5415 N 530.224 -3.95627 -2.40902 0
M  V30 5416 C 530.959 -4.95616 -2.88361 0
M  V30 5417 N 530.455 -6.06003 -3.35756 0
M  V30 5418 N 532.248 -4.82998 -2.87523 0
M  V30 5419 H 524.399 -2.12176 -0.0975576 0
M  V30 5420 H 526.662 -0.942066 -0.105904 0
M  V30 5421 H 526.368 -3.37911 -0.975144 0
M  V30 5422 H 526.242 -2.73162 -2.6012 0
M  V30 5423 H 528.629 -1.76906 -2.36195 0
M  V30 5424 H 528.71 -2.45123 -0.731336 0
M  V30 5425 H 528.354 -4.78153 -1.71267 0
M  V30 5426 H 528.284 -4.06825 -3.34366 0
M  V30 5427 H 530.775 -3.15903 -2.07398 0
M  V30 5428 H 531.088 -6.78215 -3.70464 0
M  V30 5429 H 529.433 -6.09604 -3.33778 0
M  V30 5430 H 532.624 -3.95866 -2.49816 0
M  V30 5431 H 532.797 -5.61072 -3.24196 0
M  V30 5432 N 526.204 0.969867 -1.24223 0
M  V30 5433 C 527.451 1.71256 -1.08063 0
M  V30 5434 C 527.779 1.90734 0.380872 0
M  V30 5435 O 527.034 1.46469 1.29789 0
M  V30 5436 C 527.333 3.10883 -1.76314 0
M  V30 5437 C 526.999 3.11252 -3.26241 0
M  V30 5438 C 525.661 3.1106 -3.67144 0
M  V30 5439 C 528.013 3.05751 -4.22097 0
M  V30 5440 C 525.341 3.03097 -5.02344 0
M  V30 5441 C 527.693 2.9933 -5.57301 0
M  V30 5442 C 526.357 2.97466 -5.97554 0
M  V30 5443 H 525.627 0.62667 -0.395431 0
M  V30 5444 H 528.274 1.13422 -1.54297 0
M  V30 5445 H 526.579 3.72168 -1.22468 0
M  V30 5446 H 528.276 3.67138 -1.61277 0
M  V30 5447 H 524.866 3.12165 -2.93685 0
M  V30 5448 H 529.05 3.05031 -3.91497 0
M  V30 5449 H 524.306 3.00013 -5.32731 0
M  V30 5450 H 528.48 2.94033 -6.31283 0
M  V30 5451 H 526.107 2.91051 -7.02277 0
M  V30 5452 N 527.682 1.05563 1.17022 0
M  V30 5453 C 528.93 0.76642 1.87004 0
M  V30 5454 C 529.251 -0.708854 1.8166 0
M  V30 5455 O 528.521 -1.51242 1.2451 0
M  V30 5456 H 527.101 0.280516 0.692329 0
M  V30 5457 H 529.763 1.33557 1.41945 0
M  V30 5458 H 528.859 1.08472 2.92644 0
M  V30 5459 N 529.16 -1.33526 0.837174 0
M  V30 5460 C 530.406 -1.9813 0.432704 0
M  V30 5461 C 530.739 -1.66168 -1.00508 0
M  V30 5462 O 530.014 -0.94069 -1.70239 0
M  V30 5463 C 530.297 -3.54151 0.651834 0
M  V30 5464 C 530.15 -3.95806 2.13676 0
M  V30 5465 C 531.469 -4.39993 0.0968937 0
M  V30 5466 H 528.588 -0.719713 0.15869 0
M  V30 5467 H 531.23 -1.58193 1.05237 0
M  V30 5468 H 529.38 -3.88301 0.124369 0
M  V30 5469 H 531.052 -3.71921 2.72896 0
M  V30 5470 H 529.295 -3.45599 2.62191 0
M  V30 5471 H 529.966 -5.0447 2.24084 0
M  V30 5472 H 532.442 -4.12479 0.547733 0
M  V30 5473 H 531.318 -5.48186 0.279917 0
M  V30 5474 H 531.579 -4.3066 -0.9992 0
M  V30 5475 N 530.638 -0.59345 -1.46 0
M  V30 5476 C 532.049 -0.169801 -1.85926 0
M  V30 5477 C 532.4 1.26984 -1.49565 0
M  V30 5478 O 531.525 1.96076 -0.915602 0
M  V30 5479 C 532.12 -0.301385 -3.37457 0
M  V30 5480 C 530.679 0.0674684 -3.7634 0
M  V30 5481 C 529.826 -0.632383 -2.69993 0
M  V30 5482 H 532.777 -0.801014 -1.37002 0
M  V30 5483 H 532.798 0.470331 -3.77582 0
M  V30 5484 H 532.31 -1.34927 -3.63891 0
M  V30 5485 H 530.411 1.11507 -3.55523 0
M  V30 5486 H 530.524 -0.316332 -4.78055 0
M  V30 5487 H 528.888 -0.0714961 -2.546 0
M  V30 5488 H 529.671 -1.68212 -2.99265 0
M  V30 5489 N 532.116 1.54067 -0.331816 0
M  V30 5490 C 533.365 1.99895 0.269209 0
M  V30 5491 C 533.678 1.22371 1.52593 0
M  V30 5492 O 534.884 1.58618 2.20347 0
M  V30 5493 C 533.34 3.55972 0.530244 0
M  V30 5494 C 532.948 4.4234 -0.709901 0
M  V30 5495 C 534.692 4.10247 1.09077 0
M  V30 5496 C 532.599 5.89905 -0.420312 0
M  V30 5497 H 531.529 0.746741 0.104371 0
M  V30 5498 H 534.18 1.78014 -0.445324 0
M  V30 5499 H 532.562 3.73873 1.30518 0
M  V30 5500 H 533.736 4.36215 -1.48504 0
M  V30 5501 H 532.051 3.98997 -1.19123 0
M  V30 5502 H 534.648 5.18095 1.32219 0
M  V30 5503 H 534.991 3.62739 2.0427 0
M  V30 5504 H 535.524 3.96011 0.376824 0
M  V30 5505 H 532.263 6.41623 -1.34164 0
M  V30 5506 H 531.783 5.98962 0.316962 0
M  V30 5507 H 533.462 6.46991 -0.0331956 0
M  V30 5508 N 533.594 0.0601682 1.57485 0
M  V30 5509 C 534.843 -0.611101 1.9222 0
M  V30 5510 C 535.156 -1.71469 0.941159 0
M  V30 5511 O 536.362 -2.44473 1.18089 0
M  V30 5512 C 534.818 -1.13832 3.41424 0
M  V30 5513 C 534.426 -0.0663596 4.47951 0
M  V30 5514 C 536.17 -1.78432 3.85178 0
M  V30 5515 C 534.077 -0.606965 5.88277 0
M  V30 5516 H 533.007 -0.232033 0.71741 0
M  V30 5517 H 535.658 0.130518 1.83035 0
M  V30 5518 H 534.04 -1.93254 3.45643 0
M  V30 5519 H 535.214 0.707682 4.55333 0
M  V30 5520 H 533.529 0.482715 4.13593 0
M  V30 5521 H 536.126 -2.1989 4.87394 0
M  V30 5522 H 536.469 -2.63966 3.21913 0
M  V30 5523 H 537.002 -1.05651 3.83514 0
M  V30 5524 H 533.741 0.21095 6.5516 0
M  V30 5525 H 533.261 -1.34879 5.84438 0
M  V30 5526 H 534.94 -1.08704 6.37803 0
M  V30 5527 N 535.072 -1.5615 -0.213296 0
M  V30 5528 C 536.035 -1.92249 -1.24792 0
M  V30 5529 C 537.035 -0.801828 -1.39382 0
M  V30 5530 O 538.225 -1.06948 -1.37506 0
M  V30 5531 C 535.357 -2.18056 -2.62039 0
M  V30 5532 H 536.55 -2.84793 -0.939845 0
M  V30 5533 H 534.103 -1.49559 -0.454062 0
M  V30 5534 H 534.838 -1.2809 -2.97932 0
M  V30 5535 H 534.623 -2.99703 -2.52825 0
M  V30 5536 H 536.113 -2.47051 -3.36683 0
M  V30 5537 N 536.55 0.480323 -1.50102 0
M  V30 5538 C 537.827 1.24159 -1.51142 0
M  V30 5539 C 538.207 2.09605 -0.250818 0
M  V30 5540 O 537.555 2.15274 0.766118 0
M  V30 5541 C 537.765 2.08057 -2.80202 0
M  V30 5542 C 539.113 2.66556 -3.30504 0
M  V30 5543 O 540.137 2.18308 -2.81461 0
M  V30 5544 O 538.996 3.54442 -4.15973 0
M  V30 5545 H 536.09 0.562928 -0.605839 0
M  V30 5546 H 538.636 0.492899 -1.62384 0
M  V30 5547 H 537.408 1.45032 -3.6343 0
M  V30 5548 H 537.031 2.90079 -2.71919 0
M  V30 5549 N 538.028 1.39524 0.732853 0
M  V30 5550 C 539.276 1.36594 1.48951 0
M  V30 5551 C 539.597 -0.0367507 1.94965 0
M  V30 5552 O 538.867 -0.988391 1.69138 0
M  V30 5553 H 537.447 0.502673 0.552566 0
M  V30 5554 H 540.109 1.74411 0.869869 0
M  V30 5555 H 539.205 2.03 2.3706 0
M  V30 5556 N 539.506 -0.963266 1.24736 0
M  V30 5557 C 540.754 -1.70343 1.08755 0
M  V30 5558 C 541.075 -1.91387 -0.373619 0
M  V30 5559 O 540.345 -1.4948 -1.2662 0
M  V30 5560 H 538.925 -0.631224 0.399456 0
M  V30 5561 H 541.587 -1.15859 1.56725 0
M  V30 5562 H 540.683 -2.68616 1.58909 0
M  V30 5563 N 540.985 -1.06182 -1.16461 0
M  V30 5564 C 542.234 -0.772927 -1.86303 0
M  V30 5565 C 542.547 0.703187 -1.82523 0
M  V30 5566 O 543.753 1.10641 -2.47933 0
M  V30 5567 C 542.209 -1.33249 -3.34324 0
M  V30 5568 C 541.817 -2.83876 -3.46581 0
M  V30 5569 C 543.561 -1.12108 -4.09429 0
M  V30 5570 C 541.468 -3.33082 -4.88682 0
M  V30 5571 H 540.398 -0.285452 -0.697878 0
M  V30 5572 H 543.049 -1.28039 -1.31447 0
M  V30 5573 H 541.431 -0.7528 -3.88779 0
M  V30 5574 H 542.605 -3.47786 -3.02293 0
M  V30 5575 H 540.92 -3.03671 -2.84909 0
M  V30 5576 H 543.517 -1.46361 -5.14279 0
M  V30 5577 H 543.86 -0.0593832 -4.16258 0
M  V30 5578 H 544.393 -1.6665 -3.6121 0
M  V30 5579 H 541.132 -4.38726 -4.87032 0
M  V30 5580 H 540.652 -2.73919 -5.33599 0
M  V30 5581 H 542.331 -3.28344 -5.57494 0
M  V30 5582 N 542.463 1.3308 -0.844243 0
M  V30 5583 C 543.395 2.27954 -0.238671 0
M  V30 5584 C 544.408 1.51978 0.583665 0
M  V30 5585 O 545.597 1.73731 0.409857 0
M  V30 5586 C 542.697 3.31963 0.682185 0
M  V30 5587 C 541.87 4.37281 -0.101998 0
M  V30 5588 C 540.929 5.20928 0.743022 0
M  V30 5589 O 539.955 5.68914 0.180285 0
M  V30 5590 N 541.157 5.42738 2.0595 0
M  V30 5591 H 543.922 2.8056 -1.05386 0
M  V30 5592 H 541.483 1.4583 -0.70322 0
M  V30 5593 H 543.475 3.84828 1.25259 0
M  V30 5594 H 542.045 2.79594 1.39808 0
M  V30 5595 H 541.265 3.84843 -0.853802 0
M  V30 5596 H 542.553 5.04746 -0.641015 0
M  V30 5597 H 541.951 5.05463 2.54016 0
M  V30 5598 H 540.508 5.98639 2.57827 0
M  V30 5599 N 543.941 0.601185 1.45683 0
M  V30 5600 C 545.169 0.100054 2.06658 0
M  V30 5601 C 545.584 -1.21285 1.44691 0
M  V30 5602 O 544.941 -1.73735 0.558772 0
M  V30 5603 C 544.992 -0.0528579 3.61461 0
M  V30 5604 O 544.713 1.20809 4.21114 0
M  V30 5605 C 546.214 -0.586193 4.39407 0
M  V30 5606 H 543.434 0.065905 0.667756 0
M  V30 5607 H 545.978 0.827101 1.87028 0
M  V30 5608 H 544.133 -0.730203 3.80456 0
M  V30 5609 H 544.547 1.03368 5.14213 0
M  V30 5610 H 546.021 -0.642297 5.4825 0
M  V30 5611 H 546.498 -1.60713 4.0874 0
M  V30 5612 H 547.104 0.0568935 4.25262 0
M  V30 5613 N 545.419 -1.53889 0.339982 0
M  V30 5614 C 546.665 -2.01152 -0.258003 0
M  V30 5615 C 546.998 -1.22749 -1.50487 0
M  V30 5616 O 546.273 -0.314156 -1.91946 0
M  V30 5617 C 546.556 -3.55468 -0.575717 0
M  V30 5618 C 546.409 -4.44584 0.682996 0
M  V30 5619 C 547.728 -4.1768 -1.38677 0
M  V30 5620 H 544.847 -0.731198 -0.0922992 0
M  V30 5621 H 547.489 -1.84352 0.459814 0
M  V30 5622 H 545.639 -3.69914 -1.18725 0
M  V30 5623 H 547.311 -4.41981 1.32102 0
M  V30 5624 H 545.554 -4.13592 1.3086 0
M  V30 5625 H 546.225 -5.5043 0.416001 0
M  V30 5626 H 548.701 -4.0691 -0.869705 0
M  V30 5627 H 547.577 -5.25734 -1.57783 0
M  V30 5628 H 547.838 -3.72069 -2.38782 0
M  V30 5629 N 546.897 -0.0685191 -1.57451 0
M  V30 5630 C 548.145 0.60016 -1.92983 0
M  V30 5631 C 548.466 1.70348 -0.949028 0
M  V30 5632 O 547.736 1.959 0.00335647 0
M  V30 5633 H 546.316 0.224682 -0.712409 0
M  V30 5634 H 548.978 -0.125605 -1.94495 0
M  V30 5635 H 548.074 1.02759 -2.94698 0
M  V30 5636 N 548.375 1.56261 0.205012 0
M  V30 5637 C 549.325 1.90155 1.25798 0
M  V30 5638 C 550.309 0.766227 1.41484 0
M  V30 5639 O 551.501 1.02893 1.44021 0
M  V30 5640 C 548.63 2.23603 2.60493 0
M  V30 5641 C 547.716 3.43568 2.48639 0
M  V30 5642 N 548.107 4.61747 2.06455 0
M  V30 5643 C 546.405 3.4751 2.79558 0
M  V30 5644 C 547.106 5.43907 2.06253 0
M  V30 5645 N 546.082 4.84051 2.47377 0
M  V30 5646 H 549.884 2.79031 0.922986 0
M  V30 5647 H 547.398 1.57048 0.413501 0
M  V30 5648 H 549.395 2.46067 3.36537 0
M  V30 5649 H 548.055 1.36049 2.94823 0
M  V30 5650 H 549.066 4.86598 1.77321 0
M  V30 5651 H 545.743 2.70345 3.18151 0
M  V30 5652 H 547.133 6.48542 1.75622 0
M  V30 5653 N 549.853 -0.472356 1.50355 0
M  V30 5654 C 551.099 -1.22634 1.6152 0
M  V30 5655 C 551.432 -1.91645 0.313995 0
M  V30 5656 O 550.707 -1.82059 -0.684446 0
M  V30 5657 C 550.99 -2.27099 2.7946 0
M  V30 5658 C 550.843 -1.62402 4.19459 0
M  V30 5659 C 552.162 -3.28421 2.92964 0
M  V30 5660 H 549.281 -0.444494 0.587873 0
M  V30 5661 H 551.923 -0.520321 1.82737 0
M  V30 5662 H 550.073 -2.87314 2.61501 0
M  V30 5663 H 551.745 -1.05793 4.49005 0
M  V30 5664 H 549.988 -0.927184 4.23776 0
M  V30 5665 H 550.659 -2.38309 4.97909 0
M  V30 5666 H 553.135 -2.78227 3.09401 0
M  V30 5667 H 552.011 -3.98845 3.77113 0
M  V30 5668 H 552.272 -3.92467 2.03525 0
M  V30 5669 N 551.331 -1.39911 -0.725443 0
M  V30 5670 C 552.577 -1.37858 -1.48738 0
M  V30 5671 C 552.91 0.0224187 -1.94187 0
M  V30 5672 O 552.185 0.989204 -1.67466 0
M  V30 5673 C 552.468 -2.3594 -2.72038 0
M  V30 5674 C 552.321 -3.85023 -2.32546 0
M  V30 5675 C 553.64 -2.31704 -3.74167 0
M  V30 5676 H 550.759 -0.502074 -0.539528 0
M  V30 5677 H 553.401 -1.70974 -0.828728 0
M  V30 5678 H 551.551 -2.0783 -3.28236 0
M  V30 5679 H 553.223 -4.2392 -1.81905 0
M  V30 5680 H 551.466 -4.01334 -1.64661 0
M  V30 5681 H 552.137 -4.49152 -3.20884 0
M  V30 5682 H 554.613 -2.5658 -3.27576 0
M  V30 5683 H 553.489 -3.02395 -4.58092 0
M  V30 5684 H 553.75 -1.3253 -4.21768 0
M  V30 5685 N 552.809 0.956637 -1.25245 0
M  V30 5686 C 553.756 2.053 -1.05454 0
M  V30 5687 C 554.726 1.66062 0.0356889 0
M  V30 5688 O 555.911 1.90415 -0.121099 0
M  V30 5689 C 553.051 3.38391 -0.677191 0
M  V30 5690 C 552.164 3.90758 -1.84206 0
M  V30 5691 C 551.299 5.12165 -1.40926 0
M  V30 5692 C 550.338 5.56757 -2.54338 0
M  V30 5693 N 549.475 6.69376 -2.11848 0
M  V30 5694 H 554.315 2.21562 -1.99284 0
M  V30 5695 H 551.852 1.08578 -0.992434 0
M  V30 5696 H 553.81 4.1488 -0.43938 0
M  V30 5697 H 552.44 3.22021 0.224127 0
M  V30 5698 H 551.492 3.10808 -2.19323 0
M  V30 5699 H 552.804 4.19802 -2.69383 0
M  V30 5700 H 551.958 5.96065 -1.13098 0
M  V30 5701 H 550.697 4.84832 -0.528175 0
M  V30 5702 H 549.702 4.71423 -2.82913 0
M  V30 5703 H 550.927 5.861 -3.43022 0
M  V30 5704 H 548.873 6.43756 -1.26153 0
M  V30 5705 H 548.79 6.97927 -2.90574 0
M  V30 5706 H 550.058 7.5669 -1.87191 0
M  V30 5707 N 554.287 1.06798 1.15896 0
M  V30 5708 C 555.25 0.687328 2.18651 0
M  V30 5709 C 556.25 -0.269559 1.58524 0
M  V30 5710 O 557.44 -0.0512627 1.74125 0
M  V30 5711 C 554.572 0.0121642 3.40898 0
M  V30 5712 H 555.765 1.59701 2.53842 0
M  V30 5713 H 553.318 0.863828 1.3026 0
M  V30 5714 H 554.053 -0.910025 3.1127 0
M  V30 5715 H 553.838 0.700309 3.85795 0
M  V30 5716 H 555.328 -0.239703 4.16911 0
M  V30 5717 N 555.766 -1.3263 0.851289 0
M  V30 5718 C 556.696 -2.31449 0.308771 0
M  V30 5719 C 557.677 -1.59531 -0.590255 0
M  V30 5720 O 558.862 -1.87351 -0.511205 0
M  V30 5721 C 555.992 -3.43586 -0.506548 0
M  V30 5722 C 554.946 -4.26963 0.297753 0
M  V30 5723 C 554.272 -5.30831 -0.642094 0
M  V30 5724 C 555.572 -4.99643 1.52166 0
M  V30 5725 H 557.266 -2.77074 1.13447 0
M  V30 5726 H 554.812 -1.33207 0.546971 0
M  V30 5727 H 556.765 -4.11754 -0.896474 0
M  V30 5728 H 555.489 -2.96681 -1.36558 0
M  V30 5729 H 554.148 -3.60437 0.669391 0
M  V30 5730 H 553.796 -4.8018 -1.49788 0
M  V30 5731 H 553.496 -5.87501 -0.107968 0
M  V30 5732 H 555.02 -6.01862 -1.02927 0
M  V30 5733 H 556.434 -5.6051 1.20421 0
M  V30 5734 H 554.831 -5.66022 1.99347 0
M  V30 5735 H 555.901 -4.27701 2.28474 0
M  V30 5736 N 557.244 -0.608902 -1.45362 0
M  V30 5737 C 558.207 0.0992563 -2.28985 0
M  V30 5738 C 559.207 0.793841 -1.39838 0
M  V30 5739 O 560.397 0.641804 -1.61946 0
M  V30 5740 C 557.529 1.15073 -3.20891 0
M  V30 5741 H 558.722 -0.635964 -2.93079 0
M  V30 5742 H 556.275 -0.368007 -1.51906 0
M  V30 5743 H 557.01 1.91667 -2.616 0
M  V30 5744 H 556.795 0.656867 -3.86559 0
M  V30 5745 H 558.285 1.64665 -3.83765 0
M  V30 5746 N 558.722 1.53707 -0.348139 0
M  V30 5747 C 559.652 2.28111 0.498766 0
M  V30 5748 C 560.633 1.29851 1.09876 0
M  V30 5749 O 561.818 1.587 1.11928 0
M  V30 5750 C 558.948 3.05735 1.64753 0
M  V30 5751 C 557.902 4.11537 1.17565 0
M  V30 5752 C 557.228 4.77142 2.4133 0
M  V30 5753 C 558.528 5.21587 0.272844 0
M  V30 5754 H 560.222 2.99152 -0.121934 0
M  V30 5755 H 557.768 1.43875 -0.0600842 0
M  V30 5756 H 559.721 3.56526 2.24649 0
M  V30 5757 H 558.445 2.32354 2.2952 0
M  V30 5758 H 557.104 3.61665 0.599483 0
M  V30 5759 H 556.752 4.0035 3.04514 0
M  V30 5760 H 556.452 5.48626 2.10436 0
M  V30 5761 H 557.976 5.30719 3.01943 0
M  V30 5762 H 559.39 5.67986 0.778779 0
M  V30 5763 H 557.787 6.00074 0.0555849 0
M  V30 5764 H 558.857 4.79969 -0.689785 0
M  V30 5765 N 560.2 0.0768682 1.57412 0
M  V30 5766 C 561.448 -0.589918 1.93299 0
M  V30 5767 C 561.769 -1.69842 0.958049 0
M  V30 5768 O 561.039 -1.95899 0.00703261 0
M  V30 5769 H 559.619 -0.220901 0.713591 0
M  V30 5770 H 562.281 0.135917 1.94425 0
M  V30 5771 H 561.377 -1.01195 2.95239 0
M  V30 5772 N 561.678 -1.56367 -0.196722 0
M  V30 5773 C 562.641 -1.93561 -1.22746 0
M  V30 5774 C 563.641 -0.816566 -1.38524 0
M  V30 5775 O 564.831 -1.084 -1.36363 0
M  V30 5776 C 561.963 -2.20823 -2.59712 0
M  V30 5777 H 563.156 -2.85774 -0.909586 0
M  V30 5778 H 560.709 -1.50032 -0.438174 0
M  V30 5779 H 561.444 -1.31243 -2.96557 0
M  V30 5780 H 561.229 -3.02368 -2.49632 0
M  V30 5781 H 562.719 -2.50608 -3.34044 0
M  V30 5782 N 563.156 0.464375 -1.50603 0
M  V30 5783 C 564.381 1.24372 -1.65971 0
M  V30 5784 C 564.806 1.84901 -0.345453 0
M  V30 5785 O 564.164 1.67596 0.691457 0
M  V30 5786 C 564.212 2.32331 -2.7578 0
M  V30 5787 O 563.316 3.37146 -2.375 0
M  V30 5788 H 562.657 0.365604 -0.554283 0
M  V30 5789 H 565.187 0.55183 -1.97018 0
M  V30 5790 H 565.197 2.77539 -2.99059 0
M  V30 5791 H 563.872 1.87648 -3.71162 0
M  V30 5792 H 562.449 2.97602 -2.24694 0
M  V30 5793 N 564.634 1.40294 0.718013 0
M  V30 5794 C 565.862 1.4175 1.50714 0
M  V30 5795 C 566.277 0.0165366 1.88793 0
M  V30 5796 O 565.634 -0.958942 1.55276 0
M  V30 5797 C 565.685 2.30598 2.784 0
M  V30 5798 O 565.406 3.6524 2.41932 0
M  V30 5799 C 566.907 2.4062 3.72313 0
M  V30 5800 H 564.127 0.483565 0.465194 0
M  V30 5801 H 566.671 1.84316 0.885889 0
M  V30 5802 H 564.826 1.91401 3.36815 0
M  V30 5803 H 565.24 4.12402 3.24076 0
M  V30 5804 H 566.714 3.07001 4.58753 0
M  V30 5805 H 567.191 1.4305 4.15251 0
M  V30 5806 H 567.797 2.80359 3.19811 0
M  V30 5807 N 566.112 -0.949982 1.2575 0
M  V30 5808 C 567.358 -1.69766 1.10938 0
M  V30 5809 C 567.691 -1.91056 -0.348028 0
M  V30 5810 O 566.966 -1.48488 -1.25625 0
M  V30 5811 C 567.249 -3.07779 1.86933 0
M  V30 5812 C 567.102 -2.9387 3.4053 0
M  V30 5813 C 568.421 -4.07749 1.65616 0
M  V30 5814 H 565.54 -0.616144 0.404396 0
M  V30 5815 H 568.182 -1.10394 1.54639 0
M  V30 5816 H 566.332 -3.58462 1.4979 0
M  V30 5817 H 568.004 -2.50476 3.87375 0
M  V30 5818 H 566.247 -2.29686 3.68004 0
M  V30 5819 H 566.918 -3.91719 3.88922 0
M  V30 5820 H 569.394 -3.65994 1.97959 0
M  V30 5821 H 568.27 -5.02348 2.21218 0
M  V30 5822 H 568.531 -4.38029 0.598595 0
M  V30 5823 N 567.59 -1.07411 -1.15328 0
M  V30 5824 C 568.523 -0.63913 -2.19067 0
M  V30 5825 C 569.501 0.343929 -1.58921 0
M  V30 5826 O 570.685 0.250207 -1.86832 0
M  V30 5827 C 567.812 0.0613977 -3.38644 0
M  V30 5828 C 566.858 -0.880201 -4.17318 0
M  V30 5829 S 567.691 -2.38152 -4.79629 0
M  V30 5830 C 568.847 -1.69281 -6.02573 0
M  V30 5831 H 569.08 -1.51799 -2.55626 0
M  V30 5832 H 566.613 -0.888138 -1.26299 0
M  V30 5833 H 568.571 0.459323 -4.07922 0
M  V30 5834 H 567.232 0.916605 -3.00428 0
M  V30 5835 H 566.425 -0.336781 -5.02874 0
M  V30 5836 H 566.027 -1.21854 -3.53592 0
M  V30 5837 H 568.319 -1.00488 -6.70006 0
M  V30 5838 H 569.262 -2.52671 -6.61485 0
M  V30 5839 H 569.67 -1.17053 -5.52231 0
M  V30 5840 N 569.068 1.32177 -0.85831 0
M  V30 5841 C 570.001 2.26823 -0.25035 0
M  V30 5842 C 570.979 1.50571 0.61378 0
M  V30 5843 O 572.163 1.79682 0.569777 0
M  V30 5844 C 569.29 3.32472 0.646556 0
M  V30 5845 C 568.336 4.26255 -0.144675 0
M  V30 5846 S 569.169 5.13608 -1.5155 0
M  V30 5847 C 570.325 6.22778 -0.624408 0
M  V30 5848 H 570.558 2.7804 -1.05267 0
M  V30 5849 H 568.091 1.39764 -0.656152 0
M  V30 5850 H 570.049 3.93817 1.15837 0
M  V30 5851 H 568.71 2.80031 1.42272 0
M  V30 5852 H 567.903 5.01114 0.538613 0
M  V30 5853 H 567.505 3.69346 -0.588198 0
M  V30 5854 H 569.797 6.77287 0.169846 0
M  V30 5855 H 570.74 6.95233 -1.34376 0
M  V30 5856 H 571.148 5.64156 -0.197128 0
M  V30 5857 N 570.547 0.616602 1.45037 0
M  V30 5858 C 571.795 0.115103 2.01772 0
M  V30 5859 C 572.116 -1.2622 1.48639 0
M  V30 5860 O 571.386 -1.83563 0.684199 0
M  V30 5861 H 569.966 0.0395607 0.745952 0
M  V30 5862 H 572.628 0.800032 1.77723 0
M  V30 5863 H 571.724 0.0717274 3.12018 0
M  V30 5864 N 572.025 -1.5352 0.356285 0
M  V30 5865 C 573.25 -2.06007 -0.239961 0
M  V30 5866 C 573.675 -1.22872 -1.42422 0
M  V30 5867 O 573.033 -0.245516 -1.7963 0
M  V30 5868 C 573.081 -3.5522 -0.620587 0
M  V30 5869 O 572.185 -3.74864 -1.71902 0
M  V30 5870 H 571.526 -0.662961 -0.0371377 0
M  V30 5871 H 574.056 -1.98033 0.514194 0
M  V30 5872 H 574.066 -3.98081 -0.894197 0
M  V30 5873 H 572.741 -4.15175 0.245407 0
M  V30 5874 H 571.318 -3.43904 -1.44169 0
M  V30 5875 N 573.503 -0.0852151 -1.57369 0
M  V30 5876 C 574.433 0.874556 -2.16503 0
M  V30 5877 C 575.414 1.30111 -1.09568 0
M  V30 5878 O 576.599 1.36977 -1.37662 0
M  V30 5879 C 573.729 2.13731 -2.73745 0
M  V30 5880 C 572.683 1.84971 -3.85966 0
M  V30 5881 C 572.009 3.17991 -4.29867 0
M  V30 5882 C 573.309 1.14442 -5.09608 0
M  V30 5883 H 575.003 0.381899 -2.96954 0
M  V30 5884 H 572.549 0.18225 -1.42842 0
M  V30 5885 H 574.502 2.81302 -3.13763 0
M  V30 5886 H 573.226 2.65263 -1.90534 0
M  V30 5887 H 571.885 1.19801 -3.46473 0
M  V30 5888 H 571.533 3.6739 -3.4356 0
M  V30 5889 H 571.233 2.99534 -5.05523 0
M  V30 5890 H 572.757 3.86737 -4.72511 0
M  V30 5891 H 574.171 1.72105 -5.46857 0
M  V30 5892 H 572.568 1.06197 -5.90629 0
M  V30 5893 H 573.638 0.12559 -4.84737 0
M  V30 5894 N 574.981 1.5647 0.188427 0
M  V30 5895 C 575.911 1.98101 1.23606 0
M  V30 5896 C 576.892 0.853961 1.47111 0
M  V30 5897 O 578.077 1.11879 1.58735 0
M  V30 5898 C 575.207 2.32624 2.57882 0
M  V30 5899 C 574.161 3.48129 2.48978 0
M  V30 5900 C 573.487 3.68347 3.87588 0
M  V30 5901 C 574.787 4.82112 2.00911 0
M  V30 5902 H 576.481 2.85864 0.890068 0
M  V30 5903 H 574.027 1.37532 0.426714 0
M  V30 5904 H 575.98 2.60343 3.3136 0
M  V30 5905 H 574.704 1.41751 2.94235 0
M  V30 5906 H 573.363 3.20511 1.77956 0
M  V30 5907 H 573.011 2.74793 4.21305 0
M  V30 5908 H 572.711 4.46055 3.82503 0
M  V30 5909 H 574.235 3.98449 4.62678 0
M  V30 5910 H 575.649 5.08819 2.64151 0
M  V30 5911 H 574.046 5.63337 2.06814 0
M  V30 5912 H 575.116 4.75249 0.96262 0
M  V30 5913 N 576.459 -0.456382 1.50847 0
M  V30 5914 C 577.422 -1.53493 1.70213 0
M  V30 5915 C 578.422 -1.50264 0.572481 0
M  V30 5916 O 579.612 -1.52623 0.839751 0
M  V30 5917 C 576.744 -2.93091 1.741 0
M  V30 5918 H 577.937 -1.37633 2.66453 0
M  V30 5919 H 575.49 -0.683776 1.4055 0
M  V30 5920 H 576.225 -3.14378 0.796063 0
M  V30 5921 H 576.01 -2.9684 2.5618 0
M  V30 5922 H 577.5 -3.71368 1.90987 0
M  V30 5923 N 577.937 -1.40673 -0.710563 0
M  V30 5924 C 578.9 -1.4108 -1.80635 0
M  V30 5925 C 579.9 -0.303783 -1.57904 0
M  V30 5926 O 581.09 -0.562937 -1.64853 0
M  V30 5927 C 578.222 -1.20748 -3.18799 0
M  V30 5928 H 579.415 -2.38612 -1.81671 0
M  V30 5929 H 576.968 -1.26595 -0.916704 0
M  V30 5930 H 577.703 -0.239964 -3.23411 0
M  V30 5931 H 577.488 -2.00941 -3.36698 0
M  V30 5932 H 578.978 -1.23833 -3.98817 0
M  V30 5933 N 579.415 0.9433 -1.26252 0
M  V30 5934 C 580.643 1.72367 -1.14443 0
M  V30 5935 C 581.058 1.86392 0.300572 0
M  V30 5936 O 580.415 1.36978 1.20596 0
M  V30 5937 C 580.466 3.13155 -1.806 0
M  V30 5938 O 580.187 2.99803 -3.19452 0
M  V30 5939 C 581.688 4.07417 -1.74717 0
M  V30 5940 H 578.908 0.539758 -0.398626 0
M  V30 5941 H 581.452 1.18268 -1.66832 0
M  V30 5942 H 579.607 3.64162 -1.32154 0
M  V30 5943 H 580.021 3.88697 -3.52158 0
M  V30 5944 H 581.495 5.03773 -2.25647 0
M  V30 5945 H 581.972 4.3337 -0.713244 0
M  V30 5946 H 582.578 3.6233 -2.22704 0
M  V30 5947 N 580.893 1.08022 1.14757 0
M  V30 5948 C 582.121 0.828847 1.89572 0
M  V30 5949 C 582.536 -0.618621 1.78377 0
M  V30 5950 O 581.893 -1.42482 1.1404 0
M  V30 5951 C 581.944 1.23677 3.39685 0
M  V30 5952 O 581.665 2.62746 3.50566 0
M  V30 5953 C 583.166 1.01569 4.31507 0
M  V30 5954 H 580.386 0.299196 0.600602 0
M  V30 5955 H 582.93 1.43846 1.45357 0
M  V30 5956 H 581.085 0.671347 3.81539 0
M  V30 5957 H 581.499 2.79573 4.43778 0
M  V30 5958 H 582.973 1.35055 5.35223 0
M  V30 5959 H 583.45 -0.0475433 4.39174 0
M  V30 5960 H 584.056 1.56636 3.95405 0
M  V30 5961 N 582.371 -1.3172 0.865308 0
M  V30 5962 C 583.281 -2.32394 0.320935 0
M  V30 5963 C 584.297 -1.64511 -0.566746 0
M  V30 5964 O 585.473 -1.95969 -0.464575 0
M  V30 5965 C 582.538 -3.43462 -0.472701 0
M  V30 5966 C 581.599 -4.27015 0.442385 0
M  V30 5967 C 580.832 -5.32779 -0.313469 0
M  V30 5968 O 581.055 -5.49158 -1.54214 0
M  V30 5969 O 579.989 -6.01015 0.326257 0
M  V30 5970 H 583.815 -2.80868 1.15528 0
M  V30 5971 H 581.4 -1.35535 0.628545 0
M  V30 5972 H 583.282 -4.11172 -0.922781 0
M  V30 5973 H 581.957 -2.97159 -1.28367 0
M  V30 5974 H 580.864 -3.62075 0.940866 0
M  V30 5975 H 582.197 -4.76871 1.21882 0
M  V30 5976 N 583.85 -0.624285 -1.44708 0
M  V30 5977 C 584.812 0.0749638 -2.29077 0
M  V30 5978 C 585.812 0.778965 -1.40673 0
M  V30 5979 O 587.003 0.624591 -1.62618 0
M  V30 5980 C 584.135 1.11663 -3.22094 0
M  V30 5981 H 585.327 -0.667013 -2.92388 0
M  V30 5982 H 582.88 -0.384098 -1.51507 0
M  V30 5983 H 583.615 1.88881 -2.63618 0
M  V30 5984 H 583.401 0.61583 -3.87234 0
M  V30 5985 H 584.891 1.60585 -3.8549 0
M  V30 5986 N 585.328 1.53329 -0.364422 0
M  V30 5987 C 586.739 1.86345 0.115039 0
M  V30 5988 C 587.09 1.28505 1.4826 0
M  V30 5989 O 586.215 0.606639 2.07723 0
M  V30 5990 C 586.81 3.38114 0.215522 0
M  V30 5991 C 585.369 3.70932 0.639237 0
M  V30 5992 C 584.516 2.76471 -0.214261 0
M  V30 5993 H 587.467 1.47593 -0.583258 0
M  V30 5994 H 587.488 3.66031 1.0393 0
M  V30 5995 H 587 3.80182 -0.779948 0
M  V30 5996 H 585.101 3.3442 1.64298 0
M  V30 5997 H 585.214 4.77302 0.41465 0
M  V30 5998 H 583.578 2.52724 0.316678 0
M  V30 5999 H 584.361 3.21373 -1.20725 0
M  V30 6000 N 586.806 0.0935595 1.57322 0
M  V30 6001 C 588.054 -0.569383 1.93913 0
M  V30 6002 C 588.375 -1.68817 0.976009 0
M  V30 6003 O 587.645 -1.9588 0.0278099 0
M  V30 6004 H 586.225 -0.21332 0.715894 0
M  V30 6005 H 588.887 0.156531 1.9427 0
M  V30 6006 H 587.983 -0.980577 2.96296 0
M  V30 6007 N 588.284 -1.56567 -0.180126 0
M  V30 6008 C 589.194 -1.98947 -1.24327 0
M  V30 6009 C 590.21 -0.899446 -1.4895 0
M  V30 6010 O 591.386 -1.20639 -1.61271 0
M  V30 6011 C 588.451 -2.33328 -2.56435 0
M  V30 6012 C 587.512 -3.56114 -2.39752 0
M  V30 6013 C 586.745 -3.88845 -3.65561 0
M  V30 6014 O 586.968 -3.22662 -4.70368 0
M  V30 6015 O 585.902 -4.82226 -3.60197 0
M  V30 6016 H 589.728 -2.89634 -0.913565 0
M  V30 6017 H 587.313 -1.44319 -0.386306 0
M  V30 6018 H 589.195 -2.5645 -3.34382 0
M  V30 6019 H 587.87 -1.45806 -2.89002 0
M  V30 6020 H 586.777 -3.38221 -1.59866 0
M  V30 6021 H 588.11 -4.4415 -2.12113 0
M  V30 6022 N 589.762 0.448376 -1.51087 0
M  V30 6023 C 590.992 1.21965 -1.66757 0
M  V30 6024 C 591.4 1.85748 -0.359753 0
M  V30 6025 O 590.743 1.71022 0.670604 0
M  V30 6026 C 590.805 2.35284 -2.71812 0
M  V30 6027 C 590.469 1.91957 -4.1473 0
M  V30 6028 C 591.466 1.42921 -4.9987 0
M  V30 6029 C 589.151 1.99985 -4.60772 0
M  V30 6030 C 591.145 1.02485 -6.29107 0
M  V30 6031 C 588.832 1.5916 -5.90009 0
M  V30 6032 C 589.83 1.10491 -6.74004 0
M  V30 6033 O 589.518 0.702413 -8.00825 0
M  V30 6034 H 589.25 0.374125 -0.563034 0
M  V30 6035 H 591.804 0.538927 -1.98204 0
M  V30 6036 H 590.034 3.06599 -2.35657 0
M  V30 6037 H 591.723 2.97184 -2.76472 0
M  V30 6038 H 592.489 1.36123 -4.65506 0
M  V30 6039 H 588.368 2.36814 -3.95525 0
M  V30 6040 H 591.912 0.644271 -6.94619 0
M  V30 6041 H 587.809 1.65626 -6.2389 0
M  V30 6042 H 588.577 0.829248 -8.14288 0
M  V30 6043 N 591.24 1.41047 0.703093 0
M  V30 6044 C 592.487 1.4 1.46309 0
M  V30 6045 C 592.815 0.00654574 1.94499 0
M  V30 6046 O 592.07 -0.980255 1.6938 0
M  V30 6047 C 592.369 2.34686 2.6955 0
M  V30 6048 C 592.035 3.81684 2.40058 0
M  V30 6049 C 590.697 4.21731 2.31725 0
M  V30 6050 C 593.049 4.74525 2.15581 0
M  V30 6051 C 590.377 5.52637 1.97001 0
M  V30 6052 C 592.729 6.05744 1.82366 0
M  V30 6053 C 591.393 6.44819 1.72524 0
M  V30 6054 H 590.663 0.512295 0.535382 0
M  V30 6055 H 593.31 1.73792 0.804275 0
M  V30 6056 H 591.615 1.94122 3.40329 0
M  V30 6057 H 593.312 2.31152 3.27673 0
M  V30 6058 H 589.902 3.49963 2.47435 0
M  V30 6059 H 594.086 4.44395 2.20968 0
M  V30 6060 H 589.342 5.81802 1.87928 0
M  V30 6061 H 593.516 6.77189 1.62444 0
M  V30 6062 H 591.143 7.46168 1.45385 0
M  V30 6063 N 592.718 -0.936591 1.26751 0
M  V30 6064 C 593.965 -1.68331 1.12566 0
M  V30 6065 C 594.293 -1.91677 -0.330168 0
M  V30 6066 O 593.548 -1.49859 -1.2586 0
M  V30 6067 C 593.847 -3.06099 1.84494 0
M  V30 6068 C 593.513 -3.02493 3.34378 0
M  V30 6069 C 592.175 -3.01217 3.75262 0
M  V30 6070 C 594.527 -2.94453 4.30055 0
M  V30 6071 C 591.855 -2.89672 5.10203 0
M  V30 6072 C 594.207 -2.84449 5.65041 0
M  V30 6073 C 592.871 -2.81518 6.0523 0
M  V30 6074 H 592.141 -0.615965 0.411907 0
M  V30 6075 H 594.788 -1.09292 1.5725 0
M  V30 6076 H 593.093 -3.6879 1.32292 0
M  V30 6077 H 594.79 -3.62733 1.70955 0
M  V30 6078 H 591.38 -3.04269 3.01858 0
M  V30 6079 H 595.564 -2.94544 3.99447 0
M  V30 6080 H 590.82 -2.85783 5.40498 0
M  V30 6081 H 594.994 -2.77192 6.38856 0
M  V30 6082 H 592.621 -2.72329 7.09747 0
M  V30 6083 N 594.196 -1.08629 -1.14182 0
M  V30 6084 C 595.421 -0.83902 -1.89671 0
M  V30 6085 C 595.846 0.603332 -1.78161 0
M  V30 6086 O 595.204 1.42301 -1.12339 0
M  V30 6087 C 595.252 -1.26854 -3.37551 0
M  V30 6088 O 594.356 -0.42188 -4.10236 0
M  V30 6089 H 593.697 -0.304545 -0.590041 0
M  V30 6090 H 596.227 -1.4483 -1.44518 0
M  V30 6091 H 596.237 -1.25038 -3.88368 0
M  V30 6092 H 594.912 -2.31901 -3.45246 0
M  V30 6093 H 593.489 -0.503654 -3.69483 0
M  V30 6094 N 595.674 1.31259 -0.872281 0
M  V30 6095 C 596.951 1.91362 -0.404943 0
M  V30 6096 C 597.331 1.79362 1.11321 0
M  V30 6097 O 596.679 1.20277 1.94283 0
M  V30 6098 C 596.889 3.3749 -0.888893 0
M  V30 6099 C 598.237 4.14593 -0.916384 0
M  V30 6100 O 599.261 3.46282 -0.834701 0
M  V30 6101 O 598.12 5.3661 -1.03498 0
M  V30 6102 H 595.214 0.818016 -0.121569 0
M  V30 6103 H 597.76 1.39912 -0.960346 0
M  V30 6104 H 596.532 3.40249 -1.93251 0
M  V30 6105 H 596.155 3.96375 -0.311932 0
M  V30 6106 N 597.152 0.631951 1.44375 0
M  V30 6107 C 598.4 0.136497 2.01639 0
M  V30 6108 C 598.721 -1.24637 1.49969 0
M  V30 6109 O 597.991 -1.82827 0.70363 0
M  V30 6110 H 596.571 0.0474703 0.74549 0
M  V30 6111 H 599.233 0.818837 1.76865 0
M  V30 6112 H 598.329 0.104817 3.11924 0
M  V30 6113 N 598.631 -1.53133 0.372548 0
M  V30 6114 C 599.877 -2.01654 -0.215277 0
M  V30 6115 C 600.21 -1.25914 -1.47849 0
M  V30 6116 O 599.485 -0.3548 -1.91237 0
M  V30 6117 C 599.768 -3.56609 -0.500187 0
M  V30 6118 C 599.621 -4.43036 0.777145 0
M  V30 6119 C 600.94 -4.20528 -1.29786 0
M  V30 6120 H 598.059 -0.732991 -0.0767686 0
M  V30 6121 H 600.701 -1.83335 0.498814 0
M  V30 6122 H 598.851 -3.7235 -1.10852 0
M  V30 6123 H 600.523 -4.39079 1.41447 0
M  V30 6124 H 598.766 -4.10723 1.39604 0
M  V30 6125 H 599.437 -5.49424 0.532662 0
M  V30 6126 H 601.913 -4.08663 -0.783198 0
M  V30 6127 H 600.789 -5.28962 -1.46596 0
M  V30 6128 H 601.05 -3.77051 -2.30836 0
M  V30 6129 N 600.109 -0.101901 -1.5727 0
M  V30 6130 C 601.525 0.254739 -1.57554 0
M  V30 6131 C 601.725 1.67937 -1.11352 0
M  V30 6132 O 600.781 2.39722 -0.793081 0
M  V30 6133 C 602.094 0.036975 -3.00677 0
M  V30 6134 C 603.642 0.104199 -3.12827 0
M  V30 6135 C 604.117 -0.0856565 -4.5792 0
M  V30 6136 N 605.608 -0.0310498 -4.6319 0
M  V30 6137 C 606.343 -0.153099 -5.73196 0
M  V30 6138 N 605.839 -0.330364 -6.92012 0
M  V30 6139 N 607.632 -0.0938854 -5.62022 0
M  V30 6140 H 599.783 -1.03263 -1.85609 0
M  V30 6141 H 602.046 -0.405251 -0.857016 0
M  V30 6142 H 601.752 -0.947254 -3.38703 0
M  V30 6143 H 601.626 0.776335 -3.69124 0
M  V30 6144 H 604.013 1.07894 -2.74669 0
M  V30 6145 H 604.094 -0.666762 -2.46957 0
M  V30 6146 H 603.738 -1.05729 -4.96773 0
M  V30 6147 H 603.668 0.705082 -5.21858 0
M  V30 6148 H 606.159 0.103141 -3.77759 0
M  V30 6149 H 606.472 -0.41482 -7.71686 0
M  V30 6150 H 604.817 -0.366119 -6.94035 0
M  V30 6151 H 608.008 0.0435168 -4.6808 0
M  V30 6152 H 608.181 -0.19245 -6.47714 0
M  V30 6153 N 601.587 1.56661 0.17182 0
M  V30 6154 C 602.517 1.99401 1.21498 0
M  V30 6155 C 603.498 0.869516 1.46197 0
M  V30 6156 O 604.683 1.13556 1.57539 0
M  V30 6157 C 601.813 2.35346 2.55401 0
M  V30 6158 C 600.767 3.5075 2.45272 0
M  V30 6159 C 600.093 3.72437 3.8366 0
M  V30 6160 C 601.393 4.84216 1.95787 0
M  V30 6161 H 603.087 2.86792 0.859699 0
M  V30 6162 H 600.633 1.37977 0.412103 0
M  V30 6163 H 602.586 2.63843 3.2858 0
M  V30 6164 H 601.31 1.44864 2.92715 0
M  V30 6165 H 599.969 3.2238 1.74547 0
M  V30 6166 H 599.617 2.79246 4.18367 0
M  V30 6167 H 599.317 4.50087 3.77751 0
M  V30 6168 H 600.841 4.03334 4.58426 0
M  V30 6169 H 602.255 5.11592 2.5874 0
M  V30 6170 H 600.652 5.65498 2.00827 0
M  V30 6171 H 601.722 4.76243 0.912159 0
M  V30 6172 N 603.065 -0.440357 1.51323 0
M  V30 6173 C 604.012 -1.53429 1.72419 0
M  V30 6174 C 604.982 -1.56165 0.565826 0
M  V30 6175 O 606.167 -1.73222 0.799917 0
M  V30 6176 C 603.307 -2.91169 1.85242 0
M  V30 6177 C 602.42 -2.97985 3.12777 0
M  V30 6178 C 601.555 -4.26829 3.16212 0
M  V30 6179 C 600.594 -4.27501 4.38074 0
M  V30 6180 N 599.731 -5.47866 4.39076 0
M  V30 6181 H 604.571 -1.34743 2.65797 0
M  V30 6182 H 602.108 -0.654608 1.31732 0
M  V30 6183 H 604.066 -3.71087 1.90658 0
M  V30 6184 H 602.696 -3.0842 0.952744 0
M  V30 6185 H 601.748 -2.10749 3.16685 0
M  V30 6186 H 603.06 -2.94342 4.02696 0
M  V30 6187 H 602.214 -5.15118 3.20527 0
M  V30 6188 H 600.953 -4.33124 2.24176 0
M  V30 6189 H 599.958 -3.37606 4.33938 0
M  V30 6190 H 601.183 -4.22873 5.31371 0
M  V30 6191 H 599.129 -5.54887 3.49909 0
M  V30 6192 H 599.046 -5.46091 5.22801 0
M  V30 6193 H 600.314 -6.38195 4.4758 0
M  V30 6194 N 604.543 -1.41418 -0.695603 0
M  V30 6195 C 605.49 -1.43264 -1.80954 0
M  V30 6196 C 606.46 -0.287016 -1.63601 0
M  V30 6197 O 607.645 -0.488054 -1.84452 0
M  V30 6198 C 604.785 -1.32054 -3.18835 0
M  V30 6199 C 603.898 -2.56485 -3.4762 0
M  V30 6200 C 603.033 -2.3757 -4.75115 0
M  V30 6201 C 602.072 -3.57477 -4.96867 0
M  V30 6202 N 601.209 -3.37632 -6.15588 0
M  V30 6203 H 606.049 -2.38467 -1.78711 0
M  V30 6204 H 603.586 -1.18415 -0.872715 0
M  V30 6205 H 605.544 -1.23558 -3.98484 0
M  V30 6206 H 604.174 -0.404592 -3.20254 0
M  V30 6207 H 603.226 -2.75432 -2.62376 0
M  V30 6208 H 604.538 -3.45678 -3.59594 0
M  V30 6209 H 603.692 -2.2654 -5.62818 0
M  V30 6210 H 602.431 -1.45834 -4.65386 0
M  V30 6211 H 601.436 -3.68961 -4.07612 0
M  V30 6212 H 602.661 -4.50167 -5.08455 0
M  V30 6213 H 600.607 -2.48596 -6.07072 0
M  V30 6214 H 600.524 -4.20401 -6.2833 0
M  V30 6215 H 601.792 -3.30375 -7.06026 0
M  V30 6216 N 606.021 0.929856 -1.27246 0
M  V30 6217 C 607.251 1.70895 -1.16096 0
M  V30 6218 C 607.659 1.87039 0.285122 0
M  V30 6219 O 607.002 1.38557 1.20614 0
M  V30 6220 C 607.064 3.12919 -1.7698 0
M  V30 6221 C 606.728 3.2012 -3.26148 0
M  V30 6222 C 607.725 3.02533 -4.22812 0
M  V30 6223 C 605.41 3.43148 -3.66817 0
M  V30 6224 C 607.404 3.07861 -5.58122 0
M  V30 6225 C 605.091 3.48109 -5.02258 0
M  V30 6226 C 606.089 3.30483 -5.97721 0
M  V30 6227 O 605.777 3.35175 -7.30694 0
M  V30 6228 H 605.509 0.54152 -0.404639 0
M  V30 6229 H 608.063 1.17342 -1.68582 0
M  V30 6230 H 606.293 3.67945 -1.18969 0
M  V30 6231 H 607.982 3.72787 -1.60576 0
M  V30 6232 H 608.748 2.84586 -3.92728 0
M  V30 6233 H 604.627 3.55918 -2.9299 0
M  V30 6234 H 608.171 2.94021 -6.32612 0
M  V30 6235 H 604.068 3.65579 -5.31998 0
M  V30 6236 H 604.836 3.51644 -7.39114 0
M  V30 6237 N 607.499 1.09233 1.13605 0
M  V30 6238 C 608.915 0.82163 1.36826 0
M  V30 6239 C 609.115 -0.565021 1.93416 0
M  V30 6240 O 608.171 -1.32026 2.15234 0
M  V30 6241 C 609.484 1.91124 2.32147 0
M  V30 6242 C 611.032 1.93824 2.45767 0
M  V30 6243 C 611.507 3.01923 3.44393 0
M  V30 6244 N 612.998 3.01149 3.51942 0
M  V30 6245 C 613.733 3.81434 4.2813 0
M  V30 6246 N 613.229 4.71621 5.07489 0
M  V30 6247 N 615.022 3.69702 4.23411 0
M  V30 6248 H 607.173 1.98633 0.752234 0
M  V30 6249 H 609.436 0.862482 0.393482 0
M  V30 6250 H 609.142 2.90862 1.97717 0
M  V30 6251 H 609.016 1.78777 3.32142 0
M  V30 6252 H 611.403 0.94726 2.79483 0
M  V30 6253 H 611.484 2.10248 1.45703 0
M  V30 6254 H 611.128 4.01232 3.11408 0
M  V30 6255 H 611.058 2.82742 4.44257 0
M  V30 6256 H 613.549 2.35789 2.95317 0
M  V30 6257 H 613.862 5.29468 5.62924 0
M  V30 6258 H 612.207 4.75658 5.06729 0
M  V30 6259 H 615.398 2.98606 3.60489 0
M  V30 6260 H 615.571 4.32509 4.82535 0
M  V30 6261 N 608.977 -1.30795 0.87923 0
M  V30 6262 C 610.225 -1.95974 0.493809 0
M  V30 6263 C 610.546 -1.69787 -0.959021 0
M  V30 6264 O 609.816 -1.01832 -1.67353 0
M  V30 6265 H 608.396 -0.725083 0.179622 0
M  V30 6266 H 611.058 -1.59432 1.12105 0
M  V30 6267 H 610.154 -3.05058 0.659263 0
M  V30 6268 N 610.455 -0.639598 -1.44038 0
M  V30 6269 C 611.388 0.109736 -2.27936 0
M  V30 6270 C 612.366 0.843095 -1.39035 0
M  V30 6271 O 613.55 0.845456 -1.68476 0
M  V30 6272 C 610.677 1.16173 -3.18153 0
M  V30 6273 C 609.723 0.527954 -4.2322 0
M  V30 6274 S 610.556 -0.688318 -5.31058 0
M  V30 6275 C 611.712 0.363481 -6.24844 0
M  V30 6276 H 611.945 -0.601986 -2.91142 0
M  V30 6277 H 609.478 -0.42802 -1.48349 0
M  V30 6278 H 611.436 1.76372 -3.7068 0
M  V30 6279 H 610.097 1.84569 -2.54151 0
M  V30 6280 H 609.29 1.32054 -4.86393 0
M  V30 6281 H 608.892 0.000396444 -3.74 0
M  V30 6282 H 611.184 1.23362 -6.66174 0
M  V30 6283 H 612.127 -0.23288 -7.07717 0
M  V30 6284 H 612.535 0.693179 -5.60228 0
M  V30 6285 N 611.933 1.52934 -0.380664 0
M  V30 6286 C 613.181 2.01069 0.203874 0
M  V30 6287 C 613.502 1.26922 1.4804 0
M  V30 6288 O 612.772 0.386787 1.92044 0
M  V30 6289 H 611.352 0.742882 0.0783279 0
M  V30 6290 H 614.014 1.88099 -0.510368 0
M  V30 6291 H 613.11 3.09258 0.42021 0
M  V30 6292 N 613.412 0.11024 1.57214 0
M  V30 6293 C 614.637 -0.561179 1.99664 0
M  V30 6294 C 615.062 -1.59985 0.989266 0
M  V30 6295 O 614.42 -1.81255 -0.0402399 0
M  V30 6296 C 614.468 -1.17189 3.41027 0
M  V30 6297 O 613.572 -2.28755 3.4314 0
M  V30 6298 H 612.913 -0.14101 0.648855 0
M  V30 6299 H 615.443 0.196128 2.03658 0
M  V30 6300 H 615.453 -1.50954 3.79047 0
M  V30 6301 H 614.128 -0.411041 4.13864 0
M  V30 6302 H 612.705 -1.96495 3.16929 0
M  V30 6303 N 614.89 -1.56749 -0.16351 0
M  V30 6304 C 615.82 -2.00042 -1.20438 0
M  V30 6305 C 616.801 -0.877256 -1.45733 0
M  V30 6306 O 617.986 -1.1439 -1.56935 0
M  V30 6307 C 615.116 -2.36697 -2.54149 0
M  V30 6308 C 614.07 -3.52046 -2.43408 0
M  V30 6309 C 613.396 -3.74466 -3.81679 0
M  V30 6310 C 614.696 -4.85247 -1.93216 0
M  V30 6311 H 616.39 -2.87244 -0.844477 0
M  V30 6312 H 613.936 -1.38194 -0.40478 0
M  V30 6313 H 615.889 -2.65582 -3.27176 0
M  V30 6314 H 614.613 -1.46414 -2.91943 0
M  V30 6315 H 613.272 -3.23301 -1.72834 0
M  V30 6316 H 612.92 -2.81461 -4.1688 0
M  V30 6317 H 612.62 -4.52084 -3.75359 0
M  V30 6318 H 614.144 -4.0576 -4.5628 0
M  V30 6319 H 615.558 -5.12957 -2.56023 0
M  V30 6320 H 613.955 -5.66556 -1.97825 0
M  V30 6321 H 615.025 -4.7672 -0.88689 0
M  V30 6322 N 616.368 0.432326 -1.51554 0
M  V30 6323 C 617.645 1.19288 -1.55015 0
M  V30 6324 C 618.025 2.08701 -0.317375 0
M  V30 6325 O 617.373 2.17602 0.697243 0
M  V30 6326 C 617.583 1.99037 -2.86679 0
M  V30 6327 C 618.931 2.55907 -3.38817 0
M  V30 6328 O 619.955 2.09243 -2.88263 0
M  V30 6329 O 618.814 3.41029 -4.27038 0
M  V30 6330 H 615.908 0.543369 -0.623441 0
M  V30 6331 H 618.454 0.440988 -1.6387 0
M  V30 6332 H 617.226 1.33397 -3.6786 0
M  V30 6333 H 616.849 2.81281 -2.8101 0
M  V30 6334 N 617.846 1.41785 0.688094 0
M  V30 6335 C 618.809 1.43936 1.78368 0
M  V30 6336 C 619.809 0.328866 1.57401 0
M  V30 6337 O 620.999 0.589093 1.63937 0
M  V30 6338 C 618.131 1.25804 3.16838 0
M  V30 6339 H 619.324 2.41472 1.77852 0
M  V30 6340 H 616.877 1.28037 0.896448 0
M  V30 6341 H 617.612 0.291386 3.22988 0
M  V30 6342 H 617.397 2.06272 3.33458 0
M  V30 6343 H 618.887 1.30162 3.96797 0
M  V30 6344 N 619.324 -0.923095 1.27737 0
M  V30 6345 C 620.257 -2.02515 1.05181 0
M  V30 6346 C 621.235 -1.62574 -0.0292204 0
M  V30 6347 O 622.419 -1.88137 0.116848 0
M  V30 6348 C 619.546 -3.33407 0.596468 0
M  V30 6349 C 618.592 -3.92328 1.67276 0
M  V30 6350 S 619.425 -4.24342 3.26641 0
M  V30 6351 C 620.581 -5.58308 2.82919 0
M  V30 6352 H 620.814 -2.21336 1.98488 0
M  V30 6353 H 618.347 -1.06679 1.1162 0
M  V30 6354 H 620.305 -4.09086 0.34044 0
M  V30 6355 H 618.966 -3.125 -0.316614 0
M  V30 6356 H 618.159 -4.86797 1.30556 0
M  V30 6357 H 617.761 -3.2325 1.8811 0
M  V30 6358 H 620.053 -6.37801 2.28509 0
M  V30 6359 H 620.996 -5.99931 3.7615 0
M  V30 6360 H 621.404 -5.19049 2.21919 0
M  V30 6361 N 620.802 -1.09834 -1.13024 0
M  V30 6362 C 621.712 -0.753731 -2.22162 0
M  V30 6363 C 622.728 0.246105 -1.72251 0
M  V30 6364 O 623.904 0.0864051 -2.01215 0
M  V30 6365 C 620.969 -0.183958 -3.46212 0
M  V30 6366 C 620.03 -1.24028 -4.10993 0
M  V30 6367 C 619.263 -0.697597 -5.29121 0
M  V30 6368 O 619.486 0.478092 -5.68393 0
M  V30 6369 O 618.42 -1.4546 -5.84059 0
M  V30 6370 H 622.246 -1.66456 -2.5402 0
M  V30 6371 H 619.831 -0.873026 -1.21238 0
M  V30 6372 H 621.713 0.130257 -4.21199 0
M  V30 6373 H 620.388 0.699823 -3.16045 0
M  V30 6374 H 619.295 -1.60725 -3.37814 0
M  V30 6375 H 620.628 -2.09685 -4.45301 0
M  V30 6376 N 622.28 1.30327 -0.886154 0
M  V30 6377 C 623.227 2.28099 -0.352069 0
M  V30 6378 C 624.197 1.56433 0.558397 0
M  V30 6379 O 625.382 1.84492 0.486561 0
M  V30 6380 C 622.522 3.42456 0.426346 0
M  V30 6381 C 621.635 4.28938 -0.513472 0
M  V30 6382 C 620.77 5.30458 0.280657 0
M  V30 6383 C 619.809 6.0859 -0.654556 0
M  V30 6384 N 618.946 7.02022 0.104322 0
M  V30 6385 H 623.786 2.73166 -1.19097 0
M  V30 6386 H 621.323 1.34367 -0.598662 0
M  V30 6387 H 623.281 4.07518 0.893587 0
M  V30 6388 H 621.911 2.98455 1.22981 0
M  V30 6389 H 620.963 3.64173 -1.09921 0
M  V30 6390 H 622.275 4.83399 -1.2299 0
M  V30 6391 H 621.429 6.01273 0.8097 0
M  V30 6392 H 620.168 4.76693 1.03029 0
M  V30 6393 H 619.173 5.36651 -1.19522 0
M  V30 6394 H 620.398 6.64443 -1.4033 0
M  V30 6395 H 618.344 6.50645 0.836472 0
M  V30 6396 H 618.261 7.53979 -0.552453 0
M  V30 6397 H 619.529 7.77077 0.614069 0
M  V30 6398 N 623.758 0.647228 1.43697 0
M  V30 6399 C 624.983 0.164083 2.0675 0
M  V30 6400 C 625.408 -1.15892 1.48158 0
M  V30 6401 O 624.766 -1.71459 0.589194 0
M  V30 6402 C 624.814 0.0800368 3.60511 0
M  V30 6403 O 623.918 -0.959453 4.01084 0
M  V30 6404 H 623.259 0.0921288 0.657578 0
M  V30 6405 H 625.789 0.88846 1.84303 0
M  V30 6406 H 625.799 -0.105263 4.07864 0
M  V30 6407 H 624.474 1.04586 4.02535 0
M  V30 6408 H 623.051 -0.747425 3.65333 0
M  V30 6409 N 625.236 -1.5273 0.388769 0
M  V30 6410 C 626.461 -2.0647 -0.19621 0
M  V30 6411 C 626.886 -1.25865 -1.39784 0
M  V30 6412 O 626.244 -0.283562 -1.79069 0
M  V30 6413 C 626.292 -3.56456 -0.5451 0
M  V30 6414 O 625.396 -3.78426 -1.63912 0
M  V30 6415 H 624.737 -0.663599 -0.023067 0
M  V30 6416 H 627.267 -1.96898 0.556084 0
M  V30 6417 H 627.277 -3.99888 -0.809557 0
M  V30 6418 H 625.952 -4.14561 0.333417 0
M  V30 6419 H 624.529 -3.46884 -1.36842 0
M  V30 6420 N 626.714 -0.118576 -1.57153 0
M  V30 6421 C 627.939 0.550582 -1.99958 0
M  V30 6422 C 628.364 1.59458 -0.997736 0
M  V30 6423 O 627.722 1.81274 0.0306269 0
M  V30 6424 C 627.77 1.15379 -3.41643 0
M  V30 6425 O 626.874 2.26932 -3.44348 0
M  V30 6426 H 626.215 0.137567 -0.649593 0
M  V30 6427 H 628.745 -0.206926 -2.03551 0
M  V30 6428 H 628.755 1.48942 -3.79843 0
M  V30 6429 H 627.43 0.389087 -4.14076 0
M  V30 6430 H 626.007 1.94812 -3.17967 0
M  V30 6431 N 628.193 1.56834 0.155195 0
M  V30 6432 C 629.418 1.87412 0.888337 0
M  V30 6433 C 629.843 0.70671 1.74319 0
M  V30 6434 O 629.201 -0.343892 1.78009 0
M  V30 6435 C 629.249 3.1652 1.72765 0
M  V30 6436 O 628.353 2.99877 2.83103 0
M  V30 6437 H 627.694 0.615983 0.247914 0
M  V30 6438 H 630.224 2.04061 0.148478 0
M  V30 6439 H 630.234 3.48334 2.12433 0
M  V30 6440 H 628.909 4.01094 1.09985 0
M  V30 6441 H 627.486 2.79453 2.46902 0
M  V30 6442 N 629.671 -0.424282 1.51781 0
M  V30 6443 C 630.603 -1.53457 1.70246 0
M  V30 6444 C 631.616 -1.52004 0.582967 0
M  V30 6445 O 632.805 -1.56544 0.857683 0
M  V30 6446 C 629.905 -2.92368 1.71389 0
M  V30 6447 C 629.078 -3.1818 3.00133 0
M  V30 6448 C 628.137 -4.36884 2.9329 0
M  V30 6449 O 627.163 -4.34901 3.67219 0
M  V30 6450 N 628.365 -5.4117 2.10036 0
M  V30 6451 H 631.13 -1.38017 2.66029 0
M  V30 6452 H 628.691 -0.613394 1.4983 0
M  V30 6453 H 630.683 -3.6982 1.64362 0
M  V30 6454 H 629.253 -3.0134 0.831449 0
M  V30 6455 H 628.473 -2.28908 3.20928 0
M  V30 6456 H 629.761 -3.32261 3.85331 0
M  V30 6457 H 629.159 -5.45623 1.49373 0
M  V30 6458 H 627.716 -6.17425 2.08878 0
M  V30 6459 N 631.149 -1.42148 -0.680565 0
M  V30 6460 C 632.096 -1.45175 -1.79424 0
M  V30 6461 C 633.066 -0.304352 -1.63288 0
M  V30 6462 O 634.251 -0.507591 -1.83924 0
M  V30 6463 C 631.391 -1.35429 -3.17416 0
M  V30 6464 C 630.504 -2.60158 -3.4488 0
M  V30 6465 C 629.639 -2.42596 -4.72568 0
M  V30 6466 C 628.678 -3.62727 -4.93047 0
M  V30 6467 N 627.815 -3.44143 -6.11973 0
M  V30 6468 H 632.655 -2.40349 -1.76172 0
M  V30 6469 H 630.192 -1.19334 -0.860107 0
M  V30 6470 H 632.15 -1.27777 -3.97151 0
M  V30 6471 H 630.78 -0.438536 -3.19807 0
M  V30 6472 H 629.832 -2.78199 -2.5944 0
M  V30 6473 H 631.144 -3.49473 -3.55908 0
M  V30 6474 H 630.298 -2.32497 -5.60384 0
M  V30 6475 H 629.037 -1.50761 -4.63813 0
M  V30 6476 H 628.042 -3.73264 -4.03676 0
M  V30 6477 H 629.267 -4.55534 -5.03652 0
M  V30 6478 H 627.213 -2.5502 -6.04401 0
M  V30 6479 H 627.13 -4.27041 -6.23836 0
M  V30 6480 H 628.398 -3.37845 -7.02482 0
M  V30 6481 N 632.627 0.916307 -1.28225 0
M  V30 6482 C 634.043 1.19425 -1.05876 0
M  V30 6483 C 634.243 2.005 0.2005 0
M  V30 6484 O 633.299 2.35806 0.902873 0
M  V30 6485 C 634.612 1.93133 -2.30478 0
M  V30 6486 C 636.16 2.06026 -2.35632 0
M  V30 6487 C 636.635 2.83141 -3.59994 0
M  V30 6488 N 638.126 2.90704 -3.60618 0
M  V30 6489 C 638.861 3.50865 -4.53521 0
M  V30 6490 N 638.357 4.12327 -5.56739 0
M  V30 6491 N 640.15 3.48379 -4.41122 0
M  V30 6492 H 632.301 0.37496 -2.09064 0
M  V30 6493 H 634.564 0.228531 -0.920042 0
M  V30 6494 H 634.27 1.40985 -3.22205 0
M  V30 6495 H 634.144 2.93696 -2.36691 0
M  V30 6496 H 636.531 2.57355 -1.44404 0
M  V30 6497 H 636.612 1.04647 -2.33415 0
M  V30 6498 H 636.256 2.32492 -4.51564 0
M  V30 6499 H 636.186 3.84829 -3.59464 0
M  V30 6500 H 638.677 2.47034 -2.85977 0
M  V30 6501 H 638.99 4.56205 -6.23776 0
M  V30 6502 H 637.335 4.10839 -5.60568 0
M  V30 6503 H 640.526 2.99572 -3.59686 0
M  V30 6504 H 640.699 3.94974 -5.13712 0
M  V30 6505 N 634.105 1.10431 1.1244 0
M  V30 6506 C 635.335 0.867612 1.87499 0
M  V30 6507 C 635.743 -0.585475 1.79913 0
M  V30 6508 O 635.086 -1.41539 1.171 0
M  V30 6509 C 635.148 1.2374 3.37533 0
M  V30 6510 C 634.812 2.69751 3.68895 0
M  V30 6511 C 635.809 3.67988 3.67261 0
M  V30 6512 C 633.494 3.06135 3.98229 0
M  V30 6513 C 635.488 5.00632 3.9452 0
M  V30 6514 C 633.175 4.38967 4.25149 0
M  V30 6515 C 634.173 5.36025 4.23281 0
M  V30 6516 O 633.861 6.66465 4.49533 0
M  V30 6517 H 633.593 0.311196 0.600111 0
M  V30 6518 H 636.147 1.47257 1.43194 0
M  V30 6519 H 634.377 0.575537 3.82393 0
M  V30 6520 H 636.066 0.978187 3.93937 0
M  V30 6521 H 636.832 3.41224 3.44661 0
M  V30 6522 H 632.711 2.31214 3.98825 0
M  V30 6523 H 636.255 5.7638 3.92978 0
M  V30 6524 H 632.152 4.6547 4.47223 0
M  V30 6525 H 632.92 6.72095 4.67152 0
M  V30 6526 N 635.583 -1.29855 0.893053 0
M  V30 6527 C 636.83 -1.95826 0.515585 0
M  V30 6528 C 637.158 -1.70451 -0.936842 0
M  V30 6529 O 636.413 -1.00657 -1.67829 0
M  V30 6530 C 636.712 -3.49515 0.746588 0
M  V30 6531 C 636.378 -3.94955 2.17535 0
M  V30 6532 C 635.04 -4.07073 2.56603 0
M  V30 6533 C 637.392 -4.18536 3.10607 0
M  V30 6534 C 634.72 -4.40138 3.87938 0
M  V30 6535 C 637.072 -4.53073 4.41484 0
M  V30 6536 C 635.736 -4.634 4.80434 0
M  V30 6537 H 635.006 -0.71658 0.188666 0
M  V30 6538 H 637.653 -1.54574 1.13045 0
M  V30 6539 H 635.958 -3.9177 0.0487551 0
M  V30 6540 H 637.655 -3.98644 0.434009 0
M  V30 6541 H 634.245 -3.86035 1.86212 0
M  V30 6542 H 638.429 -4.08646 2.81641 0
M  V30 6543 H 633.685 -4.46335 4.17846 0
M  V30 6544 H 637.859 -4.70269 5.13634 0
M  V30 6545 H 635.486 -4.88775 5.82239 0
M  V30 6546 N 637.061 -0.65484 -1.43351 0
M  V30 6547 C 638.286 -0.175046 -2.0666 0
M  V30 6548 C 638.711 1.15104 -1.4877 0
M  V30 6549 O 638.069 1.71144 -0.598279 0
M  V30 6550 C 638.117 -0.0991544 -3.60464 0
M  V30 6551 O 637.221 0.938169 -4.01587 0
M  V30 6552 H 636.562 -0.0956148 -0.65708 0
M  V30 6553 H 639.092 -0.898222 -1.83829 0
M  V30 6554 H 639.102 0.083632 -4.07914 0
M  V30 6555 H 637.777 -1.06719 -4.01975 0
M  V30 6556 H 636.354 0.72804 -3.65724 0
M  V30 6557 N 638.539 1.52521 -0.396863 0
M  V30 6558 C 639.449 2.30403 0.44178 0
M  V30 6559 C 640.465 1.37625 1.06468 0
M  V30 6560 O 641.641 1.70697 1.06886 0
M  V30 6561 C 638.706 3.1013 1.54986 0
M  V30 6562 C 637.767 4.18628 0.951279 0
M  V30 6563 C 637 4.94543 2.00655 0
M  V30 6564 O 637.223 4.70629 3.22281 0
M  V30 6565 O 636.157 5.797 1.61962 0
M  V30 6566 H 639.983 3.03087 -0.192892 0
M  V30 6567 H 637.568 1.48537 -0.16038 0
M  V30 6568 H 639.45 3.59816 2.19341 0
M  V30 6569 H 638.125 2.40251 2.16935 0
M  V30 6570 H 637.032 3.73119 0.270773 0
M  V30 6571 H 638.365 4.90763 0.375887 0
M  V30 6572 N 640.017 0.126909 1.57088 0
M  V30 6573 C 641.265 -0.528123 1.95078 0
M  V30 6574 C 641.586 -1.66708 1.0116 0
M  V30 6575 O 640.856 -1.95777 0.0693527 0
M  V30 6576 H 639.436 -0.198087 0.720257 0
M  V30 6577 H 642.098 0.197703 1.93895 0
M  V30 6578 H 641.194 -0.917507 2.98309 0
M  V30 6579 N 641.495 -1.56914 -0.146875 0
M  V30 6580 C 642.772 -1.74273 -0.888165 0
M  V30 6581 C 643.152 -0.69496 -1.99333 0
M  V30 6582 O 642.5 0.286093 -2.26702 0
M  V30 6583 C 642.71 -3.18336 -1.43051 0
M  V30 6584 C 644.058 -3.80024 -1.89387 0
M  V30 6585 O 645.082 -3.21765 -1.52792 0
M  V30 6586 O 643.941 -4.82367 -2.56874 0
M  V30 6587 H 641.035 -0.712565 -0.419738 0
M  V30 6588 H 643.581 -1.6918 -0.132791 0
M  V30 6589 H 642.353 -3.86092 -0.636274 0
M  V30 6590 H 641.976 -3.27854 -2.24938 0
M  V30 6591 N 642.974 0.416227 -1.52004 0
M  V30 6592 C 643.921 1.50666 -1.74838 0
M  V30 6593 C 644.891 1.55245 -0.590599 0
M  V30 6594 O 646.076 1.71928 -0.827374 0
M  V30 6595 C 643.216 2.88185 -1.89851 0
M  V30 6596 C 642.329 2.92971 -3.17478 0
M  V30 6597 C 641.464 4.21745 -3.22962 0
M  V30 6598 C 640.503 4.20478 -4.4482 0
M  V30 6599 N 639.64 5.40811 -4.47736 0
M  V30 6600 H 644.48 1.30498 -2.67907 0
M  V30 6601 H 642.017 0.633568 -1.32757 0
M  V30 6602 H 643.975 3.68007 -1.96537 0
M  V30 6603 H 642.605 3.06865 -1.00169 0
M  V30 6604 H 641.657 2.05684 -3.19997 0
M  V30 6605 H 642.969 2.87899 -4.07328 0
M  V30 6606 H 642.123 5.09954 -3.28682 0
M  V30 6607 H 640.862 4.29503 -2.31038 0
M  V30 6608 H 639.867 3.30659 -4.39254 0
M  V30 6609 H 641.092 4.14366 -5.38031 0
M  V30 6610 H 639.038 5.4925 -3.58692 0
M  V30 6611 H 638.955 5.37705 -5.31422 0
M  V30 6612 H 640.223 6.30993 -4.57676 0
M  V30 6613 N 644.452 1.42507 0.673017 0
M  V30 6614 C 645.698 1.43284 1.43519 0
M  V30 6615 C 646.031 0.049668 1.94136 0
M  V30 6616 O 645.306 -0.926369 1.71022 0
M  V30 6617 C 645.589 2.45874 2.63093 0
M  V30 6618 C 645.442 3.93388 2.18096 0
M  V30 6619 C 646.761 2.45431 3.6531 0
M  V30 6620 H 643.88 0.521752 0.520522 0
M  V30 6621 H 646.522 1.73932 0.764701 0
M  V30 6622 H 644.672 2.19869 3.20296 0
M  V30 6623 H 646.344 4.30379 1.66046 0
M  V30 6624 H 644.587 4.07169 1.49652 0
M  V30 6625 H 645.258 4.60752 3.03993 0
M  V30 6626 H 647.734 2.68561 3.17827 0
M  V30 6627 H 646.61 3.19189 4.46553 0
M  V30 6628 H 646.871 1.48092 4.16559 0
M  V30 6629 N 645.93 -0.909495 1.28709 0
M  V30 6630 C 646.877 -2.01245 1.13 0
M  V30 6631 C 647.847 -1.6608 0.0259684 0
M  V30 6632 O 649.032 -1.89835 0.191687 0
M  V30 6633 C 646.172 -3.35644 0.802315 0
M  V30 6634 C 645.285 -3.83653 1.98582 0
M  V30 6635 C 644.42 -5.06582 1.59837 0
M  V30 6636 C 643.459 -5.46934 2.74827 0
M  V30 6637 N 642.596 -6.61053 2.36546 0
M  V30 6638 H 647.436 -2.14013 2.0737 0
M  V30 6639 H 644.973 -1.0482 1.03205 0
M  V30 6640 H 646.931 -4.12963 0.593057 0
M  V30 6641 H 645.561 -3.22631 -0.104457 0
M  V30 6642 H 644.613 -3.02454 2.30708 0
M  V30 6643 H 645.925 -4.09515 2.84779 0
M  V30 6644 H 645.079 -5.91457 1.35143 0
M  V30 6645 H 643.818 -4.82537 0.707753 0
M  V30 6646 H 642.823 -4.60599 3.00215 0
M  V30 6647 H 644.048 -5.72965 3.64538 0
M  V30 6648 H 641.994 -6.3863 1.49959 0
M  V30 6649 H 641.911 -6.86662 3.16277 0
M  V30 6650 H 643.179 -7.49221 2.15146 0
M  V30 6651 N 647.408 -1.11026 -1.11852 0
M  V30 6652 C 648.657 -0.851249 -1.82857 0
M  V30 6653 C 648.97 0.62514 -1.85341 0
M  V30 6654 O 650.176 1.00026 -2.52403 0
M  V30 6655 C 648.632 -1.47309 -3.28372 0
M  V30 6656 C 648.24 -2.9832 -3.34229 0
M  V30 6657 C 649.984 -1.29373 -4.04306 0
M  V30 6658 C 647.891 -3.53509 -4.74115 0
M  V30 6659 H 646.821 -0.314794 -0.685143 0
M  V30 6660 H 649.472 -1.33499 -1.25898 0
M  V30 6661 H 647.854 -0.917017 -3.85236 0
M  V30 6662 H 649.028 -3.60295 -2.87271 0
M  V30 6663 H 647.343 -3.15482 -2.71772 0
M  V30 6664 H 649.94 -1.68042 -5.07608 0
M  V30 6665 H 650.283 -0.235879 -4.15631 0
M  V30 6666 H 650.816 -1.8182 -3.53817 0
M  V30 6667 H 647.555 -4.58987 -4.67986 0
M  V30 6668 H 647.075 -2.96305 -5.21501 0
M  V30 6669 H 648.754 -3.51693 -5.43066 0
M  V30 6670 N 648.886 1.2938 -0.899927 0
M  V30 6671 C 649.849 2.25983 -0.382677 0
M  V30 6672 C 650.849 1.53366 0.483259 0
M  V30 6673 O 652.039 1.71798 0.28828 0
M  V30 6674 C 649.171 3.37878 0.452915 0
M  V30 6675 H 650.364 2.73252 -1.23586 0
M  V30 6676 H 647.917 1.40825 -0.678088 0
M  V30 6677 H 648.652 2.95949 1.32608 0
M  V30 6678 H 648.437 3.91742 -0.167562 0
M  V30 6679 H 649.927 4.09746 0.806107 0
M  V30 6680 N 650.364 0.662433 1.43002 0
M  V30 6681 C 651.296 -0.062326 2.29115 0
M  V30 6682 C 652.309 -0.777926 1.43011 0
M  V30 6683 O 653.498 -0.634146 1.66856 0
M  V30 6684 C 650.598 -1.11163 3.2015 0
M  V30 6685 C 649.771 -0.472327 4.34842 0
M  V30 6686 C 648.83 -1.41974 5.06685 0
M  V30 6687 O 647.856 -0.924795 5.61637 0
M  V30 6688 N 649.058 -2.75345 5.11043 0
M  V30 6689 H 651.823 0.676838 2.91957 0
M  V30 6690 H 649.384 0.505907 1.53793 0
M  V30 6691 H 651.376 -1.74643 3.65078 0
M  V30 6692 H 649.946 -1.75266 2.58845 0
M  V30 6693 H 649.166 0.341751 3.92716 0
M  V30 6694 H 650.454 -0.0264381 5.08793 0
M  V30 6695 H 649.852 -3.18108 4.67786 0
M  V30 6696 H 648.409 -3.34105 5.59658 0
M  V30 6697 N 651.842 -1.52309 0.404946 0
M  V30 6698 C 653.09 -2.01368 -0.17186 0
M  V30 6699 C 653.411 -1.29261 -1.46002 0
M  V30 6700 O 652.681 -0.41729 -1.91404 0
M  V30 6701 H 651.261 -0.744034 -0.0664993 0
M  V30 6702 H 653.923 -1.87263 0.540228 0
M  V30 6703 H 653.019 -3.09888 -0.370957 0
M  V30 6704 N 653.32 -0.135238 -1.57019 0
M  V30 6705 C 654.566 0.519563 -1.96032 0
M  V30 6706 C 654.899 1.65284 -1.01955 0
M  V30 6707 O 654.174 1.94408 -0.059727 0
M  V30 6708 C 654.457 1.0369 -3.44848 0
M  V30 6709 C 654.31 -0.0940754 -4.49702 0
M  V30 6710 C 655.629 1.92254 -3.95887 0
M  V30 6711 H 652.748 0.18739 -0.712779 0
M  V30 6712 H 655.39 -0.214086 -1.8879 0
M  V30 6713 H 653.54 1.66209 -3.5115 0
M  V30 6714 H 655.212 -0.73 -4.55487 0
M  V30 6715 H 653.455 -0.754924 -4.27181 0
M  V30 6716 H 654.126 0.309419 -5.51132 0
M  V30 6717 H 656.602 1.39581 -3.9199 0
M  V30 6718 H 655.478 2.25364 -5.00502 0
M  V30 6719 H 655.739 2.85513 -3.37543 0
M  V30 6720 N 654.798 1.5699 0.138552 0
M  V30 6721 C 656.023 1.88344 0.86841 0
M  V30 6722 C 656.448 0.725159 1.7356 0
M  V30 6723 O 655.806 -0.324992 1.78363 0
M  V30 6724 C 655.854 3.18334 1.69398 0
M  V30 6725 O 654.958 3.02863 2.79907 0
M  V30 6726 H 654.299 0.618577 0.241367 0
M  V30 6727 H 656.829 2.04207 0.126826 0
M  V30 6728 H 656.839 3.50567 2.08726 0
M  V30 6729 H 655.514 4.02238 1.05725 0
M  V30 6730 H 654.091 2.82056 2.43924 0
M  V30 6731 N 656.276 -0.40816 1.52223 0
M  V30 6732 C 657.524 -1.15274 1.66001 0
M  V30 6733 C 657.845 -1.91003 0.392803 0
M  V30 6734 O 657.115 -1.8673 -0.592336 0
M  V30 6735 H 655.695 -0.428526 0.611861 0
M  V30 6736 H 658.357 -0.46512 1.89269 0
M  V30 6737 H 657.453 -1.86628 2.50153 0
M  V30 6738 N 657.755 -1.42862 -0.66545 0
M  V30 6739 C 658.98 -1.47456 -1.45848 0
M  V30 6740 C 659.405 -0.0900312 -1.87884 0
M  V30 6741 O 658.763 0.913587 -1.56599 0
M  V30 6742 C 658.811 -2.41514 -2.67774 0
M  V30 6743 O 657.915 -1.89296 -3.66389 0
M  V30 6744 H 657.256 -0.499236 -0.437789 0
M  V30 6745 H 659.786 -1.8765 -0.815394 0
M  V30 6746 H 659.796 -2.58409 -3.15735 0
M  V30 6747 H 658.471 -3.42099 -2.36519 0
M  V30 6748 H 657.048 -1.82003 -3.25468 0
M  V30 6749 N 659.233 0.902656 -1.29189 0
M  V30 6750 C 660.482 1.6475 -1.16362 0
M  V30 6751 C 660.795 1.93517 0.284682 0
M  V30 6752 O 662.001 2.66192 0.534229 0
M  V30 6753 C 660.457 2.96848 -2.03493 0
M  V30 6754 C 660.065 2.75687 -3.5313 0
M  V30 6755 C 661.809 3.74762 -1.99383 0
M  V30 6756 C 659.716 4.03492 -4.32375 0
M  V30 6757 H 658.646 0.618041 -0.431904 0
M  V30 6758 H 661.297 1.0008 -1.53806 0
M  V30 6759 H 659.679 3.62715 -1.58916 0
M  V30 6760 H 660.853 2.18431 -4.05739 0
M  V30 6761 H 659.168 2.11171 -3.58881 0
M  V30 6762 H 661.765 4.69515 -2.5585 0
M  V30 6763 H 662.108 4.04767 -0.973123 0
M  V30 6764 H 662.641 3.15732 -2.41988 0
M  V30 6765 H 659.38 3.78656 -5.3507 0
M  V30 6766 H 658.9 4.60318 -3.84535 0
M  V30 6767 H 660.579 4.71662 -4.42881 0
M  V30 6768 N 660.711 1.11618 1.11262 0
M  V30 6769 C 661.643 0.734015 2.17129 0
M  V30 6770 C 662.656 -0.235243 1.61091 0
M  V30 6771 O 663.845 -0.0178597 1.78491 0
M  V30 6772 C 660.945 0.0643682 3.38839 0
M  V30 6773 C 660.118 1.06092 4.24339 0
M  V30 6774 C 659.177 0.420482 5.24517 0
M  V30 6775 O 658.203 1.07495 5.58957 0
M  V30 6776 N 659.405 -0.815828 5.74739 0
M  V30 6777 H 662.17 1.64492 2.50524 0
M  V30 6778 H 659.731 1.00664 1.26801 0
M  V30 6779 H 661.723 -0.375851 4.02951 0
M  V30 6780 H 660.293 -0.749147 3.03491 0
M  V30 6781 H 659.513 1.67903 3.56654 0
M  V30 6782 H 660.801 1.73507 4.78302 0
M  V30 6783 H 660.199 -1.36668 5.48943 0
M  V30 6784 H 658.756 -1.199 6.40677 0
M  V30 6785 N 662.189 -1.289 0.906776 0
M  V30 6786 C 663.466 -1.90221 0.455537 0
M  V30 6787 C 663.846 -1.82251 -1.06527 0
M  V30 6788 O 663.194 -1.25385 -1.91026 0
M  V30 6789 C 663.404 -3.35015 0.97806 0
M  V30 6790 C 664.752 -4.12018 1.02598 0
M  V30 6791 O 665.776 -3.43947 0.926218 0
M  V30 6792 O 664.635 -5.33677 1.17689 0
M  V30 6793 H 661.729 -0.814505 0.143214 0
M  V30 6794 H 664.275 -1.37317 0.997104 0
M  V30 6795 H 663.047 -3.35006 2.02204 0
M  V30 6796 H 662.67 -3.95408 0.416914 0
M  V30 6797 N 663.667 -0.670007 -1.42649 0
M  V30 6798 C 664.614 0.0112928 -2.30797 0
M  V30 6799 C 665.584 0.797627 -1.45695 0
M  V30 6800 O 666.769 0.770845 -1.74535 0
M  V30 6801 C 663.909 0.95998 -3.31479 0
M  V30 6802 C 663.022 0.167975 -4.31673 0
M  V30 6803 C 662.157 1.11198 -5.19431 0
M  V30 6804 C 661.196 0.311381 -6.11307 0
M  V30 6805 N 660.333 1.20784 -6.91633 0
M  V30 6806 H 665.173 -0.746231 -2.88505 0
M  V30 6807 H 662.71 -0.379739 -1.42114 0
M  V30 6808 H 664.668 1.52379 -3.88377 0
M  V30 6809 H 663.298 1.68419 -2.75382 0
M  V30 6810 H 662.35 -0.512385 -3.76933 0
M  V30 6811 H 663.662 -0.453814 -4.96731 0
M  V30 6812 H 662.816 1.74587 -5.81037 0
M  V30 6813 H 661.555 1.76766 -4.54538 0
M  V30 6814 H 660.56 -0.335758 -5.48774 0
M  V30 6815 H 661.785 -0.340135 -6.78248 0
M  V30 6816 H 659.731 1.85001 -6.29373 0
M  V30 6817 H 659.648 0.64102 -7.53277 0
M  V30 6818 H 660.916 1.82936 -7.5773 0
M  V30 6819 N 665.145 1.52092 -0.413018 0
M  V30 6820 C 666.393 2.01456 0.161178 0
M  V30 6821 C 666.714 1.30034 1.45314 0
M  V30 6822 O 665.984 0.427435 1.9118 0
M  V30 6823 H 664.564 0.744376 0.0625526 0
M  V30 6824 H 667.226 1.86974 -0.550151 0
M  V30 6825 H 666.322 3.1008 0.354517 0
M  V30 6826 N 666.623 0.143563 1.56945 0
M  V30 6827 C 667.848 -0.518701 2.00809 0
M  V30 6828 C 668.273 -1.5785 1.02298 0
M  V30 6829 O 667.631 -1.813 -0.0017839 0
M  V30 6830 C 667.679 -1.09929 3.43436 0
M  V30 6831 O 666.783 -2.21425 3.47915 0
M  V30 6832 H 666.124 -0.127215 0.6517 0
M  V30 6833 H 668.654 0.239283 2.03196 0
M  V30 6834 H 668.664 -1.4288 3.82164 0
M  V30 6835 H 667.339 -0.323162 4.14643 0
M  V30 6836 H 665.916 -1.89728 3.21026 0
M  V30 6837 N 668.101 -1.57061 -0.130224 0
M  V30 6838 C 669.35 -1.83446 -0.838488 0
M  V30 6839 C 669.663 -0.727468 -1.81569 0
M  V30 6840 O 670.869 -0.877394 -2.56932 0
M  V30 6841 C 669.325 -3.25201 -1.54182 0
M  V30 6842 C 668.933 -4.4388 -0.606178 0
M  V30 6843 C 670.677 -3.60844 -2.23588 0
M  V30 6844 C 668.584 -5.76661 -1.31209 0
M  V30 6845 H 667.514 -0.684185 -0.316871 0
M  V30 6846 H 670.165 -1.83273 -0.0912059 0
M  V30 6847 H 668.547 -3.1981 -2.33533 0
M  V30 6848 H 669.721 -4.60545 0.153308 0
M  V30 6849 H 668.036 -4.16395 -0.0196705 0
M  V30 6850 H 670.633 -4.57313 -2.77072 0
M  V30 6851 H 670.976 -2.87724 -3.00867 0
M  V30 6852 H 671.509 -3.67971 -1.51137 0
M  V30 6853 H 668.248 -6.52922 -0.580823 0
M  V30 6854 H 667.768 -5.63902 -2.04387 0
M  V30 6855 H 669.447 -6.20035 -1.8484 0
M  V30 6856 N 669.579 0.400081 -1.52437 0
M  V30 6857 C 670.511 1.50729 -1.72666 0
M  V30 6858 C 671.524 1.51058 -0.607075 0
M  V30 6859 O 672.713 1.5516 -0.88248 0
M  V30 6860 C 669.813 2.89604 -1.76019 0
M  V30 6861 C 668.986 3.13365 -3.05157 0
M  V30 6862 C 668.045 4.32163 -3.00203 0
M  V30 6863 O 667.071 4.29004 -3.74092 0
M  V30 6864 N 668.273 5.3776 -2.18619 0
M  V30 6865 H 671.038 1.33767 -2.68191 0
M  V30 6866 H 668.599 0.58948 -1.50787 0
M  V30 6867 H 670.591 3.67159 -1.70225 0
M  V30 6868 H 669.161 2.99979 -0.879284 0
M  V30 6869 H 668.381 2.23774 -3.24529 0
M  V30 6870 H 669.669 3.26089 -3.90568 0
M  V30 6871 H 669.067 5.43177 -1.58035 0
M  V30 6872 H 667.624 6.14023 -2.18674 0
M  V30 6873 N 671.057 1.43213 0.657864 0
M  V30 6874 C 672.004 1.48011 1.77092 0
M  V30 6875 C 672.974 0.330291 1.62783 0
M  V30 6876 O 674.159 0.536787 1.83094 0
M  V30 6877 C 671.299 1.40461 3.15222 0
M  V30 6878 C 670.412 2.65612 3.40697 0
M  V30 6879 C 669.547 2.50083 4.68649 0
M  V30 6880 C 668.586 3.70525 4.87214 0
M  V30 6881 N 667.723 3.53835 6.0642 0
M  V30 6882 H 672.563 2.43121 1.72326 0
M  V30 6883 H 670.1 1.20687 0.841013 0
M  V30 6884 H 672.058 1.34079 3.95068 0
M  V30 6885 H 670.688 0.489359 3.19069 0
M  V30 6886 H 669.74 2.82292 2.54982 0
M  V30 6887 H 671.052 3.5509 3.50303 0
M  V30 6888 H 670.206 2.41383 5.56614 0
M  V30 6889 H 668.945 1.58121 4.61356 0
M  V30 6890 H 667.95 3.79639 3.97686 0
M  V30 6891 H 669.175 4.63489 4.96341 0
M  V30 6892 H 667.121 2.64604 6.00267 0
M  V30 6893 H 667.038 4.36912 6.16963 0
M  V30 6894 H 668.306 3.48978 6.97019 0
M  V30 6895 N 672.536 -0.895792 1.29666 0
M  V30 6896 C 673.783 -1.64664 1.17864 0
M  V30 6897 C 674.111 -1.92631 -0.26902 0
M  V30 6898 O 673.366 -1.53787 -1.21029 0
M  V30 6899 C 673.665 -3.00075 1.94139 0
M  V30 6900 C 673.331 -2.91702 3.43833 0
M  V30 6901 C 671.993 -2.89126 3.84656 0
M  V30 6902 C 674.345 -2.80622 4.39205 0
M  V30 6903 C 671.673 -2.73293 5.1916 0
M  V30 6904 C 674.025 -2.66329 5.73805 0
M  V30 6905 C 672.689 -2.62121 6.1388 0
M  V30 6906 H 671.959 -0.602549 0.431295 0
M  V30 6907 H 674.606 -1.04234 1.60648 0
M  V30 6908 H 672.911 -3.64394 1.43958 0
M  V30 6909 H 674.608 -3.57111 1.82408 0
M  V30 6910 H 671.198 -2.94511 3.11386 0
M  V30 6911 H 675.382 -2.81686 4.08615 0
M  V30 6912 H 670.638 -2.68443 5.49316 0
M  V30 6913 H 674.812 -2.56727 6.47352 0
M  V30 6914 H 672.439 -2.49611 7.18052 0
M  V30 6915 N 674.014 -1.12206 -1.10668 0
M  V30 6916 C 675.26 -0.877172 -1.82848 0
M  V30 6917 C 675.593 0.595571 -1.84842 0
M  V30 6918 O 674.868 1.44013 -1.30731 0
M  V30 6919 C 675.151 -1.44957 -3.29635 0
M  V30 6920 C 675.004 -2.99051 -3.35989 0
M  V30 6921 C 676.323 -1.10714 -4.25946 0
M  V30 6922 H 673.442 -0.320103 -0.663854 0
M  V30 6923 H 676.084 -1.38827 -1.2972 0
M  V30 6924 H 674.234 -1.01488 -3.7501 0
M  V30 6925 H 675.906 -3.51182 -2.99113 0
M  V30 6926 H 674.149 -3.34705 -2.75962 0
M  V30 6927 H 674.82 -3.34194 -4.39339 0
M  V30 6928 H 677.296 -1.48254 -3.88793 0
M  V30 6929 H 676.172 -1.5343 -5.2702 0
M  V30 6930 H 676.433 -0.019 -4.42096 0
M  V30 6931 N 675.492 1.28418 -0.913599 0
M  V30 6932 C 676.903 1.77024 -0.593237 0
M  V30 6933 C 677.254 1.74779 0.891441 0
M  V30 6934 O 676.379 1.34237 1.69733 0
M  V30 6935 C 676.974 3.21456 -1.07011 0
M  V30 6936 C 675.533 3.67786 -0.800664 0
M  V30 6937 C 674.68 2.48185 -1.23691 0
M  V30 6938 H 677.631 1.14883 -1.09487 0
M  V30 6939 H 677.652 3.78269 -0.411481 0
M  V30 6940 H 677.164 3.23058 -2.1507 0
M  V30 6941 H 675.265 3.71644 0.266725 0
M  V30 6942 H 675.378 4.57934 -1.4083 0
M  V30 6943 H 673.742 2.46116 -0.655655 0
M  V30 6944 H 674.525 2.52506 -2.32585 0
M  V30 6945 N 676.97 0.677563 1.42291 0
M  V30 6946 C 678.2 0.209155 2.05539 0
M  V30 6947 C 678.608 -1.13987 1.51009 0
M  V30 6948 O 677.951 -1.71976 0.645764 0
M  V30 6949 C 678.013 0.0697758 3.59432 0
M  V30 6950 C 677.677 1.34795 4.36668 0
M  V30 6951 C 678.674 2.28201 4.67141 0
M  V30 6952 C 676.359 1.59632 4.76259 0
M  V30 6953 C 678.353 3.44718 5.36142 0
M  V30 6954 C 676.04 2.76437 5.45 0
M  V30 6955 C 677.038 3.68805 5.74867 0
M  V30 6956 O 676.726 4.83567 6.42198 0
M  V30 6957 H 676.458 0.0986202 0.668768 0
M  V30 6958 H 679.012 0.925483 1.83368 0
M  V30 6959 H 677.242 -0.702157 3.80272 0
M  V30 6960 H 678.931 -0.359115 4.04308 0
M  V30 6961 H 679.697 2.10264 4.37052 0
M  V30 6962 H 675.576 0.886073 4.52404 0
M  V30 6963 H 679.12 4.16833 5.59371 0
M  V30 6964 H 675.017 2.94299 5.74507 0
M  V30 6965 H 675.785 4.83147 6.6069 0
M  V30 6966 N 678.448 -1.51871 0.421078 0
M  V30 6967 C 679.378 -2.30231 -0.389363 0
M  V30 6968 C 680.359 -1.34946 -1.03555 0
M  V30 6969 O 681.544 -1.63859 -1.04229 0
M  V30 6970 C 678.674 -3.13247 -1.49979 0
M  V30 6971 C 677.628 -4.16677 -0.977966 0
M  V30 6972 C 676.954 -4.88112 -2.1829 0
M  V30 6973 C 678.254 -5.22295 -0.0236775 0
M  V30 6974 H 679.948 -2.98229 0.264524 0
M  V30 6975 H 677.494 -1.43424 0.12866 0
M  V30 6976 H 679.447 -3.66838 -2.07383 0
M  V30 6977 H 678.171 -2.4304 -2.18173 0
M  V30 6978 H 676.83 -3.64114 -0.426245 0
M  V30 6979 H 676.478 -4.14423 -2.85066 0
M  V30 6980 H 676.178 -5.58041 -1.84021 0
M  V30 6981 H 677.702 -5.44521 -2.76278 0
M  V30 6982 H 679.116 -5.71055 -0.506899 0
M  V30 6983 H 677.513 -5.99656 0.230782 0
M  V30 6984 H 678.583 -4.76131 0.917999 0
M  V30 6985 N 679.926 -0.151884 -1.56866 0
M  V30 6986 C 681.175 0.497992 -1.95456 0
M  V30 6987 C 681.488 1.6569 -1.03953 0
M  V30 6988 O 682.694 2.37173 -1.32142 0
M  V30 6989 C 681.15 0.93732 -3.4748 0
M  V30 6990 C 680.758 -0.194921 -4.47576 0
M  V30 6991 C 682.502 1.55671 -3.94926 0
M  V30 6992 C 680.409 0.26295 -5.90815 0
M  V30 6993 H 679.339 0.189811 -0.729717 0
M  V30 6994 H 681.99 -0.237011 -1.81963 0
M  V30 6995 H 680.372 1.72773 -3.56322 0
M  V30 6996 H 681.546 -0.971951 -4.50433 0
M  V30 6997 H 679.861 -0.72303 -4.10075 0
M  V30 6998 H 682.458 1.91099 -4.99385 0
M  V30 6999 H 682.801 2.44748 -3.36755 0
M  V30 7000 H 683.334 0.831109 -3.89021 0
M  V30 7001 H 680.073 -0.592568 -6.52816 0
M  V30 7002 H 679.593 1.00575 -5.91308 0
M  V30 7003 H 681.272 0.713333 -6.43056 0
M  V30 7004 N 681.404 1.57128 0.121893 0
M  V30 7005 C 682.367 1.99197 1.13372 0
M  V30 7006 C 683.367 0.881728 1.3447 0
M  V30 7007 O 684.557 1.14783 1.31036 0
M  V30 7008 C 681.689 2.32963 2.4888 0
M  V30 7009 H 682.882 2.89788 0.772204 0
M  V30 7010 H 680.435 1.51952 0.366093 0
M  V30 7011 H 681.17 1.45243 2.89957 0
M  V30 7012 H 680.955 3.13934 2.34921 0
M  V30 7013 H 682.445 2.66261 3.21706 0
M  V30 7014 N 682.882 -0.391992 1.52647 0
M  V30 7015 C 684.13 -1.13507 1.67214 0
M  V30 7016 C 684.451 -1.90575 0.41304 0
M  V30 7017 O 683.721 -1.87348 -0.572498 0
M  V30 7018 H 682.301 -0.422013 0.616372 0
M  V30 7019 H 684.963 -0.44502 1.89751 0
M  V30 7020 H 684.059 -1.83964 2.52118 0
M  V30 7021 N 684.36 -1.4356 -0.65026 0
M  V30 7022 C 685.609 -1.44619 -1.406 0
M  V30 7023 C 685.922 -0.0752645 -1.95455 0
M  V30 7024 O 687.128 0.0366832 -2.71475 0
M  V30 7025 C 685.584 -2.54511 -2.54465 0
M  V30 7026 C 685.192 -3.97723 -2.06204 0
M  V30 7027 C 686.936 -2.64768 -3.31811 0
M  V30 7028 C 684.843 -4.99075 -3.17298 0
M  V30 7029 H 683.773 -0.537983 -0.52829 0
M  V30 7030 H 686.424 -1.69559 -0.701561 0
M  V30 7031 H 684.806 -2.22777 -3.27393 0
M  V30 7032 H 685.98 -4.38932 -1.40267 0
M  V30 7033 H 684.295 -3.91538 -1.41729 0
M  V30 7034 H 686.892 -3.37664 -4.14593 0
M  V30 7035 H 687.235 -1.69936 -3.80036 0
M  V30 7036 H 687.768 -2.95817 -2.65964 0
M  V30 7037 H 684.507 -5.95469 -2.74038 0
M  V30 7038 H 684.027 -4.62476 -3.81937 0
M  V30 7039 H 685.706 -5.21913 -3.82382 0
M  V30 7040 N 685.838 0.888903 -1.30139 0
M  V30 7041 C 686.77 1.99972 -1.11999 0
M  V30 7042 C 687.783 1.62673 -0.0643619 0
M  V30 7043 O 688.972 1.75788 -0.309983 0
M  V30 7044 C 686.072 3.31904 -0.685059 0
M  V30 7045 C 685.245 3.97665 -1.82158 0
M  V30 7046 C 684.304 5.07894 -1.37585 0
M  V30 7047 O 683.33 5.2974 -2.08241 0
M  V30 7048 N 684.532 5.7995 -0.252697 0
M  V30 7049 H 687.297 2.16085 -2.07671 0
M  V30 7050 H 684.858 1.06175 -1.22223 0
M  V30 7051 H 686.85 4.03005 -0.369964 0
M  V30 7052 H 685.42 3.12084 0.179507 0
M  V30 7053 H 684.64 3.19787 -2.305 0
M  V30 7054 H 685.928 4.3834 -2.58332 0
M  V30 7055 H 685.326 5.647 0.336141 0
M  V30 7056 H 683.883 6.518 0.00296813 0
M  V30 7057 N 687.317 1.12792 1.10072 0
M  V30 7058 C 688.267 0.768086 2.14673 0
M  V30 7059 C 689.251 -0.234716 1.59179 0
M  V30 7060 O 690.443 -0.039643 1.76956 0
M  V30 7061 C 687.572 0.228472 3.42539 0
M  V30 7062 C 686.658 1.25979 4.04957 0
M  V30 7063 N 687.049 2.4586 4.42025 0
M  V30 7064 C 685.347 1.10602 4.32069 0
M  V30 7065 C 686.048 3.11747 4.9111 0
M  V30 7066 N 685.024 2.39185 4.88151 0
M  V30 7067 H 688.826 1.68029 2.4113 0
M  V30 7068 H 686.34 1.00925 1.27232 0
M  V30 7069 H 688.337 -0.0475216 4.16873 0
M  V30 7070 H 686.997 -0.678136 3.1754 0
M  V30 7071 H 688.008 2.83215 4.33601 0
M  V30 7072 H 684.685 0.257021 4.16708 0
M  V30 7073 H 686.075 4.13862 5.29309 0
M  V30 7074 N 688.795 -1.27931 0.920396 0
M  V30 7075 C 690.043 -1.94304 0.555906 0
M  V30 7076 C 690.364 -1.72753 -0.904519 0
M  V30 7077 O 689.634 -1.07104 -1.64029 0
M  V30 7078 H 688.214 -0.719001 0.202599 0
M  V30 7079 H 690.876 -1.55785 1.1712 0
M  V30 7080 H 689.972 -3.02806 0.755981 0
M  V30 7081 N 690.273 -0.685099 -1.4193 0
M  V30 7082 C 691.513 -0.215676 -2.03259 0
M  V30 7083 C 691.877 1.15934 -1.53047 0
M  V30 7084 O 693.078 1.72401 -2.06231 0
M  V30 7085 C 691.349 -0.259649 -3.56456 0
M  V30 7086 S 692.908 0.137262 -4.38585 0
M  V30 7087 H 689.726 -0.0877362 -0.705566 0
M  V30 7088 H 692.328 -0.900547 -1.73523 0
M  V30 7089 H 691.032 -1.26256 -3.90497 0
M  V30 7090 H 690.563 0.444716 -3.90878 0
M  V30 7091 H 692.578 1.36787 -4.76973 0
M  V30 7092 N 691.751 1.51645 -0.429126 0
M  V30 7093 C 692.683 2.25279 0.422124 0
M  V30 7094 C 693.696 1.28986 0.993299 0
M  V30 7095 O 694.885 1.54797 0.888836 0
M  V30 7096 C 691.985 2.98666 1.60162 0
M  V30 7097 C 691.158 4.2199 1.15078 0
M  V30 7098 C 690.217 4.78028 2.19946 0
M  V30 7099 O 689.243 5.40084 1.79716 0
M  V30 7100 N 690.445 4.61342 3.5234 0
M  V30 7101 H 693.21 2.98971 -0.208931 0
M  V30 7102 H 690.771 1.59838 -0.257568 0
M  V30 7103 H 692.763 3.33044 2.29922 0
M  V30 7104 H 691.333 2.28036 2.13818 0
M  V30 7105 H 690.553 3.932 0.280552 0
M  V30 7106 H 691.841 5.02037 0.826831 0
M  V30 7107 H 691.239 4.11894 3.87763 0
M  V30 7108 H 689.796 5.00104 4.18019 0
M  V30 7109 N 693.229 0.160201 1.56784 0
M  V30 7110 C 694.506 -0.533355 1.88188 0
M  V30 7111 C 694.886 -1.82072 1.06831 0
M  V30 7112 O 694.234 -2.27946 0.158959 0
M  V30 7113 C 694.444 -0.786034 3.40033 0
M  V30 7114 C 695.792 -1.12097 4.09536 0
M  V30 7115 O 696.816 -0.874949 3.45287 0
M  V30 7116 O 695.675 -1.58457 5.23023 0
M  V30 7117 H 692.769 -0.273589 0.780434 0
M  V30 7118 H 695.315 0.197803 1.68543 0
M  V30 7119 H 694.087 0.124515 3.91102 0
M  V30 7120 H 693.71 -1.57091 3.65251 0
M  V30 7121 N 694.707 -1.5719 -0.113559 0
M  V30 7122 C 695.956 -1.84325 -0.818984 0
M  V30 7123 C 696.269 -0.746685 -1.80787 0
M  V30 7124 O 697.475 -0.904596 -2.55987 0
M  V30 7125 C 695.931 -3.26818 -1.50724 0
M  V30 7126 C 695.539 -4.44498 -0.559065 0
M  V30 7127 C 697.283 -3.63196 -2.19748 0
M  V30 7128 C 695.19 -5.7802 -1.25086 0
M  V30 7129 H 694.12 -0.687507 -0.309596 0
M  V30 7130 H 696.771 -1.8336 -0.0717621 0
M  V30 7131 H 695.153 -3.22269 -2.30128 0
M  V30 7132 H 696.327 -4.60356 0.202146 0
M  V30 7133 H 694.642 -4.16393 0.024495 0
M  V30 7134 H 697.239 -4.60226 -2.72206 0
M  V30 7135 H 697.582 -2.90899 -2.97798 0
M  V30 7136 H 698.115 -3.69553 -1.47226 0
M  V30 7137 H 694.854 -6.53501 -0.511539 0
M  V30 7138 H 694.374 -5.66038 -1.98395 0
M  V30 7139 H 696.053 -6.2196 -1.78253 0
M  V30 7140 N 696.185 0.383891 -1.52853 0
M  V30 7141 C 697.433 1.12619 -1.67814 0
M  V30 7142 C 697.754 1.90354 -0.423141 0
M  V30 7143 O 697.024 1.87649 0.562554 0
M  V30 7144 H 695.604 0.418738 -0.618601 0
M  V30 7145 H 698.266 0.43495 -1.89985 0
M  V30 7146 H 697.362 1.82624 -2.5309 0
M  V30 7147 N 697.663 1.43903 0.642637 0
M  V30 7148 C 698.626 1.49538 1.73698 0
M  V30 7149 C 699.626 0.378776 1.56275 0
M  V30 7150 O 700.816 0.64095 1.6198 0
M  V30 7151 C 697.948 1.35821 3.12675 0
M  V30 7152 H 699.141 2.47008 1.70079 0
M  V30 7153 H 696.694 1.30824 0.85526 0
M  V30 7154 H 697.429 0.393994 3.21898 0
M  V30 7155 H 697.214 2.16776 3.26727 0
M  V30 7156 H 698.704 1.4272 3.92455 0
M  V30 7157 N 699.141 -0.881989 1.30609 0
M  V30 7158 C 700.557 -1.16576 1.09005 0
M  V30 7159 C 700.757 -2.00961 -0.14727 0
M  V30 7160 O 699.813 -2.38117 -0.840036 0
M  V30 7161 C 701.126 -1.86954 2.35518 0
M  V30 7162 C 702.674 -1.99706 2.41011 0
M  V30 7163 C 703.149 -2.73497 3.67374 0
M  V30 7164 N 704.64 -2.8104 3.68199 0
M  V30 7165 C 705.375 -3.38718 4.62664 0
M  V30 7166 N 704.871 -3.97421 5.67475 0
M  V30 7167 N 706.664 -3.36561 4.50203 0
M  V30 7168 H 698.815 -0.319398 2.09985 0
M  V30 7169 H 701.078 -0.204058 0.925778 0
M  V30 7170 H 700.784 -1.32393 3.2583 0
M  V30 7171 H 700.658 -2.87317 2.44395 0
M  V30 7172 H 703.045 -2.53436 1.51176 0
M  V30 7173 H 703.126 -0.984218 2.36108 0
M  V30 7174 H 702.77 -2.20438 4.57569 0
M  V30 7175 H 702.7 -3.75163 3.6954 0
M  V30 7176 H 705.191 -2.39365 2.92426 0
M  V30 7177 H 705.504 -4.39507 6.35652 0
M  V30 7178 H 703.849 -3.95832 5.71264 0
M  V30 7179 H 707.04 -2.8993 3.67503 0
M  V30 7180 H 707.213 -3.81215 5.24003 0
M  V30 7181 N 700.619 -1.13374 -1.09472 0
M  V30 7182 C 701.844 -0.918711 -1.85942 0
M  V30 7183 C 702.269 0.527225 -1.8056 0
M  V30 7184 O 701.627 1.37408 -1.18274 0
M  V30 7185 C 701.675 -1.41056 -3.31867 0
M  V30 7186 O 700.779 -0.595496 -4.08078 0
M  V30 7187 H 700.12 -0.329297 -0.576593 0
M  V30 7188 H 702.65 -1.50829 -1.38245 0
M  V30 7189 H 702.66 -1.41398 -3.82715 0
M  V30 7190 H 701.335 -2.46335 -3.35099 0
M  V30 7191 H 699.912 -0.659911 -3.67014 0
M  V30 7192 N 702.098 1.27442 -0.927168 0
M  V30 7193 C 703.028 2.29256 -0.443188 0
M  V30 7194 C 704.009 1.62701 0.49624 0
M  V30 7195 O 705.194 1.90013 0.401105 0
M  V30 7196 C 702.324 3.45955 0.305366 0
M  V30 7197 C 701.278 4.24501 -0.546178 0
M  V30 7198 C 700.604 5.33671 0.331512 0
M  V30 7199 C 701.904 4.89921 -1.81037 0
M  V30 7200 H 703.598 2.69988 -1.29409 0
M  V30 7201 H 701.144 1.29792 -0.623705 0
M  V30 7202 H 703.097 4.1628 0.654885 0
M  V30 7203 H 701.821 3.04138 1.19029 0
M  V30 7204 H 700.48 3.55921 -0.878398 0
M  V30 7205 H 700.128 4.88096 1.21537 0
M  V30 7206 H 699.828 5.87131 -0.234746 0
M  V30 7207 H 701.352 6.0684 0.676614 0
M  V30 7208 H 702.766 5.52536 -1.52895 0
M  V30 7209 H 701.163 5.53436 -2.32009 0
M  V30 7210 H 702.233 4.13652 -2.53021 0
M  V30 7211 N 703.576 0.692616 1.41565 0
M  V30 7212 C 704.801 0.229776 2.06123 0
M  V30 7213 C 705.226 -1.11119 1.5177 0
M  V30 7214 O 704.584 -1.69498 0.643444 0
M  V30 7215 C 704.632 0.19469 3.60074 0
M  V30 7216 O 703.736 -0.831366 4.03933 0
M  V30 7217 H 703.077 0.113002 0.654314 0
M  V30 7218 H 705.607 0.946645 1.81383 0
M  V30 7219 H 705.617 0.0245487 4.07993 0
M  V30 7220 H 704.292 1.17339 3.99004 0
M  V30 7221 H 702.869 -0.630819 3.67526 0
M  V30 7222 N 705.054 -1.51416 0.437162 0
M  V30 7223 C 706.3 -2.02386 -0.129555 0
M  V30 7224 C 706.633 -1.32071 -1.42376 0
M  V30 7225 O 705.908 -0.43559 -1.8956 0
M  V30 7226 C 706.191 -3.5841 -0.348487 0
M  V30 7227 C 706.044 -4.39341 0.964352 0
M  V30 7228 C 707.363 -4.25654 -1.11834 0
M  V30 7229 H 704.482 -0.735587 -0.0456109 0
M  V30 7230 H 707.124 -1.81055 0.576124 0
M  V30 7231 H 705.274 -3.76716 -0.949592 0
M  V30 7232 H 706.946 -4.32685 1.59942 0
M  V30 7233 H 705.189 -4.04432 1.56898 0
M  V30 7234 H 705.86 -5.4667 0.765212 0
M  V30 7235 H 708.336 -4.11617 -0.609165 0
M  V30 7236 H 707.212 -5.34704 -1.24029 0
M  V30 7237 H 707.473 -3.86502 -2.14636 0
M  V30 7238 N 706.532 -0.168513 -1.56696 0
M  V30 7239 C 707.462 0.758563 -2.20835 0
M  V30 7240 C 708.443 1.24121 -1.1631 0
M  V30 7241 O 709.628 1.29487 -1.4473 0
M  V30 7242 C 706.758 1.9892 -2.8469 0
M  V30 7243 C 705.712 1.64252 -3.95228 0
M  V30 7244 C 705.038 2.94757 -4.46119 0
M  V30 7245 C 706.338 0.872675 -5.14958 0
M  V30 7246 H 708.032 0.223953 -2.98561 0
M  V30 7247 H 705.578 0.106277 -1.43607 0
M  V30 7248 H 707.531 2.64275 -3.28233 0
M  V30 7249 H 706.255 2.5479 -2.04327 0
M  V30 7250 H 704.914 1.01266 -3.52336 0
M  V30 7251 H 704.562 3.48662 -3.62552 0
M  V30 7252 H 704.262 2.72316 -5.2069 0
M  V30 7253 H 705.786 3.61147 -4.92347 0
M  V30 7254 H 707.2 1.42875 -5.55211 0
M  V30 7255 H 705.597 0.747402 -5.95428 0
M  V30 7256 H 706.667 -0.131535 -4.84722 0
M  V30 7257 N 708.01 1.57248 0.105221 0
M  V30 7258 C 709.426 1.52853 0.459153 0
M  V30 7259 C 709.626 0.883674 1.8109 0
M  V30 7260 O 708.682 0.471864 2.48052 0
M  V30 7261 C 709.995 2.97596 0.43096 0
M  V30 7262 C 711.543 3.08758 0.513536 0
M  V30 7263 C 712.018 4.55089 0.515593 0
M  V30 7264 N 713.509 4.59597 0.576639 0
M  V30 7265 C 714.244 5.70253 0.599904 0
M  V30 7266 N 713.74 6.90368 0.579985 0
M  V30 7267 N 715.533 5.58399 0.643953 0
M  V30 7268 H 707.684 1.97547 -0.780306 0
M  V30 7269 H 709.947 0.902758 -0.289363 0
M  V30 7270 H 709.653 3.48201 -0.494903 0
M  V30 7271 H 709.527 3.55756 1.2537 0
M  V30 7272 H 711.914 2.58148 1.42982 0
M  V30 7273 H 711.995 2.53568 -0.337148 0
M  V30 7274 H 711.639 5.06348 -0.396701 0
M  V30 7275 H 711.569 5.08105 1.38335 0
M  V30 7276 H 714.06 3.73144 0.597639 0
M  V30 7277 H 714.373 7.70462 0.600741 0
M  V30 7278 H 712.718 6.92843 0.547191 0
M  V30 7279 H 715.909 4.63467 0.656975 0
M  V30 7280 H 716.082 6.44644 0.658616 0
M  V30 7281 N 709.488 -0.375779 1.53054 0
M  V30 7282 C 710.713 -1.14484 1.7294 0
M  V30 7283 C 711.138 -1.82572 0.452668 0
M  V30 7284 O 710.496 -1.71343 -0.592567 0
M  V30 7285 C 710.544 -2.15857 2.88857 0
M  V30 7286 O 709.648 -3.22725 2.56753 0
M  V30 7287 H 708.989 -0.332666 0.574656 0
M  V30 7288 H 711.519 -0.436025 1.999 0
M  V30 7289 H 711.529 -2.59631 3.14731 0
M  V30 7290 H 710.204 -1.65689 3.81471 0
M  V30 7291 H 708.781 -2.83996 2.41663 0
M  V30 7292 N 710.966 -1.44241 -0.634997 0
M  V30 7293 C 711.899 -1.45274 -1.75985 0
M  V30 7294 C 712.877 -0.312025 -1.59578 0
M  V30 7295 O 714.061 -0.508409 -1.81514 0
M  V30 7296 C 711.188 -1.28173 -3.13511 0
M  V30 7297 C 710.234 -2.45757 -3.48576 0
M  V30 7298 S 711.067 -4.08293 -3.46492 0
M  V30 7299 C 712.223 -3.93608 -4.86645 0
M  V30 7300 H 712.456 -2.40454 -1.74841 0
M  V30 7301 H 709.989 -1.31492 -0.809268 0
M  V30 7302 H 711.947 -1.18993 -3.92875 0
M  V30 7303 H 710.608 -0.34511 -3.12198 0
M  V30 7304 H 709.801 -2.29644 -4.48642 0
M  V30 7305 H 709.403 -2.51657 -2.76667 0
M  V30 7306 H 711.695 -3.57059 -5.75774 0
M  V30 7307 H 712.638 -4.9349 -5.07813 0
M  V30 7308 H 713.046 -3.25737 -4.61038 0
M  V30 7309 N 712.444 0.87505 -1.31075 0
M  V30 7310 C 713.377 1.98471 -1.12625 0
M  V30 7311 C 714.355 1.6257 -0.0311379 0
M  V30 7312 O 715.539 1.87574 -0.186594 0
M  V30 7313 C 712.666 3.30963 -0.719799 0
M  V30 7314 C 711.712 3.85849 -1.81722 0
M  V30 7315 S 712.545 4.11926 -3.42165 0
M  V30 7316 C 713.701 5.47423 -3.03445 0
M  V30 7317 H 713.934 2.13817 -2.06566 0
M  V30 7318 H 711.467 1.02463 -1.15502 0
M  V30 7319 H 713.425 4.07541 -0.492035 0
M  V30 7320 H 712.086 3.1346 0.200413 0
M  V30 7321 H 711.279 4.81616 -1.48533 0
M  V30 7322 H 710.881 3.16046 -1.99977 0
M  V30 7323 H 713.173 6.28881 -2.52023 0
M  V30 7324 H 714.116 5.85557 -3.98157 0
M  V30 7325 H 714.524 5.10455 -2.41031 0
M  V30 7326 N 713.922 1.13953 1.08869 0
M  V30 7327 C 715.152 0.926825 1.84644 0
M  V30 7328 C 715.56 -0.527941 1.81685 0
M  V30 7329 O 714.903 -1.37742 1.21543 0
M  V30 7330 C 714.965 1.34416 3.33426 0
M  V30 7331 C 714.629 2.81351 3.60126 0
M  V30 7332 C 715.626 3.79486 3.55368 0
M  V30 7333 C 713.311 3.1865 3.88288 0
M  V30 7334 C 715.305 5.1293 3.78393 0
M  V30 7335 C 712.992 4.5227 4.10968 0
M  V30 7336 C 713.99 5.4922 4.06013 0
M  V30 7337 O 713.678 6.80429 4.28102 0
M  V30 7338 H 713.41 0.33013 0.589907 0
M  V30 7339 H 715.964 1.51738 1.38436 0
M  V30 7340 H 714.194 0.696901 3.80368 0
M  V30 7341 H 715.883 1.10302 3.90626 0
M  V30 7342 H 716.649 3.52017 3.3363 0
M  V30 7343 H 712.528 2.43785 3.91267 0
M  V30 7344 H 716.072 5.88591 3.74442 0
M  V30 7345 H 711.969 4.79462 4.32188 0
M  V30 7346 H 712.737 6.86617 4.45533 0
M  V30 7347 N 715.4 -1.26948 0.933913 0
M  V30 7348 C 716.625 -1.98724 0.593589 0
M  V30 7349 C 717.05 -1.6915 -0.822801 0
M  V30 7350 O 716.408 -0.93533 -1.5531 0
M  V30 7351 C 716.456 -3.50834 0.833542 0
M  V30 7352 O 715.56 -4.12284 -0.0978788 0
M  V30 7353 H 714.901 -0.623683 0.227849 0
M  V30 7354 H 717.431 -1.61599 1.25486 0
M  V30 7355 H 717.441 -4.01018 0.75156 0
M  V30 7356 H 716.116 -3.71691 1.86597 0
M  V30 7357 H 714.693 -3.72884 0.0345443 0
M  V30 7358 N 716.879 -0.700114 -1.41195 0
M  V30 7359 C 718.127 -0.232546 -2.00758 0
M  V30 7360 C 718.448 1.1734 -1.55745 0
M  V30 7361 O 717.718 1.79262 -0.790058 0
M  V30 7362 H 716.298 -0.0829845 -0.742376 0
M  V30 7363 H 718.96 -0.902289 -1.72756 0
M  V30 7364 H 718.056 -0.253521 -3.11069 0
M  V30 7365 N 718.357 1.51182 -0.445186 0
M  V30 7366 C 719.267 2.31692 0.368255 0
M  V30 7367 C 720.283 1.40942 1.02036 0
M  V30 7368 O 721.459 1.74011 1.01401 0
M  V30 7369 C 718.524 3.14903 1.45041 0
M  V30 7370 C 717.585 4.21442 0.817615 0
M  V30 7371 C 716.818 5.00677 1.8482 0
M  V30 7372 O 717.041 4.80644 3.07145 0
M  V30 7373 O 715.975 5.84559 1.43438 0
M  V30 7374 H 719.801 3.0232 -0.289219 0
M  V30 7375 H 717.386 1.47951 -0.207555 0
M  V30 7376 H 719.268 3.66612 2.07783 0
M  V30 7377 H 717.943 2.47031 2.09182 0
M  V30 7378 H 716.85 3.73791 0.151931 0
M  V30 7379 H 718.183 4.9171 0.219564 0
M  V30 7380 N 719.835 0.176821 1.56605 0
M  V30 7381 C 720.765 -0.746841 2.21234 0
M  V30 7382 C 721.746 -1.23502 1.16967 0
M  V30 7383 O 722.931 -1.28718 1.45414 0
M  V30 7384 C 720.061 -1.97407 2.8574 0
M  V30 7385 C 719.015 -1.62153 3.96094 0
M  V30 7386 C 718.341 -2.92387 4.47676 0
M  V30 7387 C 719.641 -0.845353 5.15413 0
M  V30 7388 H 721.335 -0.208116 2.98676 0
M  V30 7389 H 718.881 -0.0986594 1.43662 0
M  V30 7390 H 720.834 -2.62531 3.2963 0
M  V30 7391 H 719.558 -2.53703 2.05676 0
M  V30 7392 H 718.217 -0.993964 3.52868 0
M  V30 7393 H 717.865 -3.46734 3.64396 0
M  V30 7394 H 717.565 -2.69551 5.22127 0
M  V30 7395 H 719.089 -3.5853 4.94255 0
M  V30 7396 H 720.503 -1.39929 5.55961 0
M  V30 7397 H 718.9 -0.715814 5.95815 0
M  V30 7398 H 719.97 0.157239 4.84645 0
M  V30 7399 N 721.313 -1.57302 -0.09688 0
M  V30 7400 C 722.26 -2.01933 -1.11766 0
M  V30 7401 C 723.23 -0.895329 -1.39904 0
M  V30 7402 O 724.415 -1.16119 -1.51397 0
M  V30 7403 C 721.555 -2.44726 -2.43317 0
M  V30 7404 C 720.668 -3.70639 -2.21925 0
M  V30 7405 C 719.803 -4.02318 -3.46862 0
M  V30 7406 C 718.842 -5.21346 -3.20725 0
M  V30 7407 N 717.979 -5.48787 -4.37924 0
M  V30 7408 H 722.819 -2.88919 -0.730075 0
M  V30 7409 H 720.356 -1.42901 -0.348962 0
M  V30 7410 H 722.314 -2.6758 -3.20088 0
M  V30 7411 H 720.944 -1.60753 -2.79926 0
M  V30 7412 H 719.996 -3.55271 -1.35965 0
M  V30 7413 H 721.308 -4.57557 -1.98603 0
M  V30 7414 H 720.462 -4.25939 -4.32042 0
M  V30 7415 H 719.201 -3.13918 -3.73238 0
M  V30 7416 H 718.206 -4.97547 -2.33938 0
M  V30 7417 H 719.431 -6.11343 -2.95697 0
M  V30 7418 H 717.377 -4.63346 -4.64378 0
M  V30 7419 H 717.294 -6.30073 -4.17785 0
M  V30 7420 H 718.562 -5.76943 -5.24173 0
M  V30 7421 N 722.791 0.367657 -1.53252 0
M  V30 7422 C 724.038 1.11052 -1.69333 0
M  V30 7423 C 724.366 1.89363 -0.444064 0
M  V30 7424 O 723.621 1.87094 0.573953 0
M  V30 7425 C 723.92 2.09825 -2.89324 0
M  V30 7426 C 723.586 1.4801 -4.25915 0
M  V30 7427 C 722.248 1.30879 -4.6306 0
M  V30 7428 C 724.6 1.03268 -5.10867 0
M  V30 7429 C 721.928 0.675868 -5.82794 0
M  V30 7430 C 724.28 0.41377 -6.31245 0
M  V30 7431 C 722.944 0.229939 -6.67104 0
M  V30 7432 H 722.214 0.406367 -0.619634 0
M  V30 7433 H 724.861 0.392558 -1.87433 0
M  V30 7434 H 723.166 2.87917 -2.65728 0
M  V30 7435 H 724.863 2.67252 -2.98961 0
M  V30 7436 H 721.453 1.62336 -3.96667 0
M  V30 7437 H 725.637 1.15297 -4.82722 0
M  V30 7438 H 720.893 0.521833 -6.09169 0
M  V30 7439 H 725.067 0.0588768 -6.96375 0
M  V30 7440 H 722.694 -0.262562 -7.59746 0
M  V30 7441 N 724.269 1.44576 0.627338 0
M  V30 7442 C 725.179 1.54232 1.76776 0
M  V30 7443 C 726.195 0.427782 1.6866 0
M  V30 7444 O 727.371 0.685671 1.89369 0
M  V30 7445 C 724.436 1.48738 3.13174 0
M  V30 7446 C 723.497 2.71074 3.32893 0
M  V30 7447 C 722.73 2.65832 4.62784 0
M  V30 7448 O 722.953 1.72048 5.43834 0
M  V30 7449 O 721.887 3.56742 4.84787 0
M  V30 7450 H 725.713 2.50586 1.71582 0
M  V30 7451 H 723.298 1.26865 0.789028 0
M  V30 7452 H 725.18 1.48211 3.94476 0
M  V30 7453 H 723.855 0.555292 3.18902 0
M  V30 7454 H 722.762 2.77168 2.51254 0
M  V30 7455 H 724.095 3.63342 3.32029 0
M  V30 7456 N 725.747 -0.868086 1.31537 0
M  V30 7457 C 726.694 -1.97548 1.19346 0
M  V30 7458 C 727.664 -1.65913 0.0787922 0
M  V30 7459 O 728.849 -1.89129 0.251985 0
M  V30 7460 C 725.989 -3.32922 0.908692 0
M  V30 7461 C 725.102 -3.77141 2.10687 0
M  V30 7462 C 724.237 -5.01241 1.75873 0
M  V30 7463 C 723.276 -5.37914 2.92088 0
M  V30 7464 N 722.413 -6.53192 2.57457 0
M  V30 7465 H 727.253 -2.07307 2.14074 0
M  V30 7466 H 724.79 -1.01483 1.06487 0
M  V30 7467 H 726.748 -4.10867 0.724138 0
M  V30 7468 H 725.378 -3.228 -0.0017611 0
M  V30 7469 H 724.43 -2.94961 2.40213 0
M  V30 7470 H 725.742 -4.00248 2.97663 0
M  V30 7471 H 724.896 -5.86858 1.53891 0
M  V30 7472 H 723.635 -4.80041 0.86091 0
M  V30 7473 H 722.64 -4.50814 3.14717 0
M  V30 7474 H 723.865 -5.61077 3.82582 0
M  V30 7475 H 721.811 -6.33536 1.702 0
M  V30 7476 H 721.728 -6.76252 3.37963 0
M  V30 7477 H 722.996 -7.41997 2.38873 0
M  V30 7478 N 727.225 -1.14528 -1.08264 0
M  V30 7479 C 728.641 -0.885976 -1.3275 0
M  V30 7480 C 728.841 0.472096 -1.95892 0
M  V30 7481 O 727.897 1.21606 -2.21288 0
M  V30 7482 C 729.21 -2.01982 -2.22764 0
M  V30 7483 C 730.758 -2.05329 -2.36239 0
M  V30 7484 C 731.233 -3.1801 -3.29596 0
M  V30 7485 N 732.724 -3.17598 -3.37173 0
M  V30 7486 C 733.459 -4.01426 -4.09444 0
M  V30 7487 N 732.955 -4.95297 -4.8441 0
M  V30 7488 N 734.748 -3.89482 -4.0529 0
M  V30 7489 H 726.899 -2.01996 -0.656607 0
M  V30 7490 H 729.162 -0.880274 -0.351884 0
M  V30 7491 H 728.868 -2.99964 -1.83615 0
M  V30 7492 H 728.742 -1.94421 -3.23234 0
M  V30 7493 H 731.129 -1.07953 -2.74646 0
M  V30 7494 H 731.21 -2.1696 -1.35506 0
M  V30 7495 H 730.854 -4.15633 -2.9191 0
M  V30 7496 H 730.784 -3.03616 -4.30261 0
M  V30 7497 H 733.275 -2.4961 -2.83731 0
M  V30 7498 H 733.588 -5.55723 -5.37021 0
M  V30 7499 H 731.933 -4.99293 -4.83457 0
M  V30 7500 H 735.124 -3.15465 -3.45832 0
M  V30 7501 H 735.297 -4.55039 -4.6135 0
M  V30 7502 N 728.703 1.26451 -0.940633 0
M  V30 7503 C 729.931 1.97868 -0.604642 0
M  V30 7504 C 730.346 1.70051 0.820251 0
M  V30 7505 O 729.703 0.96843 1.54686 0
M  V30 7506 C 729.754 3.51684 -0.836689 0
M  V30 7507 O 729.475 3.78533 -2.20554 0
M  V30 7508 C 730.976 4.40343 -0.511169 0
M  V30 7509 H 728.196 0.631105 -0.227919 0
M  V30 7510 H 730.74 1.60979 -1.26119 0
M  V30 7511 H 728.895 3.86736 -0.226759 0
M  V30 7512 H 729.309 4.73065 -2.26517 0
M  V30 7513 H 730.783 5.47229 -0.724157 0
M  V30 7514 H 731.26 4.35694 0.553815 0
M  V30 7515 H 731.866 4.10834 -1.0998 0
M  V30 7516 N 730.181 0.707592 1.40822 0
M  V30 7517 C 731.114 -0.000859377 2.282 0
M  V30 7518 C 732.092 -0.7758 1.42899 0
M  V30 7519 O 733.276 -0.76411 1.72318 0
M  V30 7520 C 730.403 -1.00861 3.23334 0
M  V30 7521 C 729.449 -0.32543 4.25257 0
M  V30 7522 S 730.282 0.940908 5.27169 0
M  V30 7523 C 731.438 -0.0649459 6.25866 0
M  V30 7524 H 731.671 0.740207 2.87938 0
M  V30 7525 H 729.204 0.498311 1.46138 0
M  V30 7526 H 731.162 -1.58485 3.78672 0
M  V30 7527 H 729.823 -1.72233 2.62668 0
M  V30 7528 H 729.016 -1.08697 4.92139 0
M  V30 7529 H 728.618 0.178044 3.73576 0
M  V30 7530 H 730.91 -0.914377 6.71301 0
M  V30 7531 H 731.853 0.570276 7.058 0
M  V30 7532 H 732.261 -0.425098 5.62897 0
M  V30 7533 N 731.66 -1.50943 0.453197 0
M  V30 7534 C 732.885 -2.07116 -0.108463 0
M  V30 7535 C 733.31 -1.31681 -1.3432 0
M  V30 7536 O 732.668 -0.359256 -1.77705 0
M  V30 7537 C 732.716 -3.58447 -0.393424 0
M  V30 7538 O 731.82 -3.85038 -1.47714 0
M  V30 7539 H 731.161 -0.66398 0.0050993 0
M  V30 7540 H 733.691 -1.94362 0.639095 0
M  V30 7541 H 733.701 -4.02961 -0.639222 0
M  V30 7542 H 732.376 -4.12774 0.508946 0
M  V30 7543 H 730.953 -3.52376 -1.22006 0
M  V30 7544 N 733.138 -0.185124 -1.56509 0
M  V30 7545 C 734.101 0.72591 -2.17401 0
M  V30 7546 C 735.101 1.14819 -1.12575 0
M  V30 7547 O 736.291 1.0629 -1.38015 0
M  V30 7548 C 733.423 1.98979 -2.76803 0
M  V30 7549 H 734.616 0.195588 -2.99262 0
M  V30 7550 H 732.169 0.0644772 -1.56167 0
M  V30 7551 H 732.904 2.56287 -1.98714 0
M  V30 7552 H 732.689 1.69583 -3.53531 0
M  V30 7553 H 734.179 2.63966 -3.23592 0
M  V30 7554 N 734.616 1.57351 0.0885366 0
M  V30 7555 C 735.548 1.99221 1.13329 0
M  V30 7556 C 736.561 0.895705 1.35945 0
M  V30 7557 O 737.75 1.17376 1.34481 0
M  V30 7558 C 734.85 2.3016 2.48756 0
M  V30 7559 C 734.023 3.61444 2.46327 0
M  V30 7560 C 733.082 3.80244 3.63732 0
M  V30 7561 O 732.108 4.52024 3.45924 0
M  V30 7562 N 733.31 3.2132 4.8346 0
M  V30 7563 H 736.075 2.89456 0.776862 0
M  V30 7564 H 733.636 1.59505 0.277428 0
M  V30 7565 H 735.628 2.39925 3.25911 0
M  V30 7566 H 734.198 1.459 2.76464 0
M  V30 7567 H 733.418 3.62588 1.54673 0
M  V30 7568 H 734.706 4.47678 2.41789 0
M  V30 7569 H 734.104 2.63028 5.00832 0
M  V30 7570 H 732.661 3.3656 5.58185 0
M  V30 7571 N 736.094 -0.359525 1.53444 0
M  V30 7572 C 737.343 -1.09886 1.69139 0
M  V30 7573 C 737.656 -1.90285 0.452863 0
M  V30 7574 O 738.862 -2.67033 0.490459 0
M  V30 7575 C 737.318 -2.0028 2.99025 0
M  V30 7576 C 736.926 -1.25164 4.30161 0
M  V30 7577 C 738.67 -2.74168 3.24086 0
M  V30 7578 C 736.577 -2.14494 5.51132 0
M  V30 7579 H 735.507 -0.413936 0.630217 0
M  V30 7580 H 738.158 -0.359434 1.79945 0
M  V30 7581 H 736.54 -2.77978 2.82036 0
M  V30 7582 H 737.714 -0.524867 4.57801 0
M  V30 7583 H 736.029 -0.631116 4.11589 0
M  V30 7584 H 738.626 -3.41243 4.11652 0
M  V30 7585 H 738.969 -3.39868 2.40407 0
M  V30 7586 H 739.502 -2.0355 3.41778 0
M  V30 7587 H 736.241 -1.53362 6.37307 0
M  V30 7588 H 735.761 -2.85004 5.27762 0
M  V30 7589 H 737.44 -2.73914 5.86157 0
M  V30 7590 N 737.572 -1.44907 -0.619662 0
M  V30 7591 C 738.482 -1.55168 -1.75955 0
M  V30 7592 C 739.498 -0.43672 -1.6843 0
M  V30 7593 O 740.674 -0.695704 -1.89002 0
M  V30 7594 C 737.739 -1.50397 -3.12381 0
M  V30 7595 C 736.8 -2.72835 -3.31451 0
M  V30 7596 C 736.033 -2.68283 -4.61368 0
M  V30 7597 O 736.256 -1.74929 -5.42914 0
M  V30 7598 O 735.19 -3.59308 -4.82889 0
M  V30 7599 H 739.016 -2.51493 -1.7025 0
M  V30 7600 H 736.601 -1.27282 -0.782289 0
M  V30 7601 H 738.483 -1.50301 -3.93685 0
M  V30 7602 H 737.158 -0.572197 -3.18603 0
M  V30 7603 H 736.065 -2.78496 -2.49781 0
M  V30 7604 H 737.398 -3.65098 -3.30098 0
M  V30 7605 N 739.05 0.861098 -1.31996 0
M  V30 7606 C 740.298 1.61162 -1.21947 0
M  V30 7607 C 740.619 1.93751 0.220351 0
M  V30 7608 O 739.889 1.59069 1.14341 0
M  V30 7609 H 738.469 0.597485 -0.448353 0
M  V30 7610 H 741.131 1.03039 -1.65436 0
M  V30 7611 H 740.227 2.55138 -1.79752 0
M  V30 7612 N 740.528 1.15101 1.07655 0
M  V30 7613 C 741.776 0.922149 1.79836 0
M  V30 7614 C 742.097 -0.552346 1.87014 0
M  V30 7615 O 741.367 -1.40145 1.3688 0
M  V30 7616 H 739.947 0.338182 0.666064 0
M  V30 7617 H 742.609 1.45107 1.30115 0
M  V30 7618 H 741.705 1.32883 2.82398 0
M  V30 7619 N 742.006 -1.2595 0.947325 0
M  V30 7620 C 743.252 -1.9375 0.599064 0
M  V30 7621 C 743.585 -1.74088 -0.860632 0
M  V30 7622 O 742.86 -1.08158 -1.61654 0
M  V30 7623 C 743.143 -3.47353 0.949634 0
M  V30 7624 C 742.996 -3.76273 2.46452 0
M  V30 7625 C 744.315 -4.37589 0.469442 0
M  V30 7626 H 741.434 -0.703674 0.219115 0
M  V30 7627 H 744.076 -1.48705 1.18266 0
M  V30 7628 H 742.226 -3.8585 0.453008 0
M  V30 7629 H 743.898 -3.47455 3.03435 0
M  V30 7630 H 742.141 -3.22135 2.90537 0
M  V30 7631 H 742.812 -4.83664 2.66032 0
M  V30 7632 H 745.288 -4.06353 0.89534 0
M  V30 7633 H 744.164 -5.43841 0.7435 0
M  V30 7634 H 744.425 -4.37579 -0.630618 0
M  V30 7635 N 743.484 -0.715051 -1.40445 0
M  V30 7636 C 744.434 -0.038591 -2.27967 0
M  V30 7637 C 745.418 0.733099 -1.43229 0
M  V30 7638 O 746.61 0.605388 -1.66325 0
M  V30 7639 C 743.739 0.882801 -3.31755 0
M  V30 7640 C 742.825 0.106325 -4.23967 0
M  V30 7641 N 743.216 -0.910143 -4.97544 0
M  V30 7642 C 741.514 0.33896 -4.4471 0
M  V30 7643 C 742.215 -1.37665 -5.65175 0
M  V30 7644 N 741.191 -0.698905 -5.39088 0
M  V30 7645 H 744.993 -0.81765 -2.82297 0
M  V30 7646 H 742.507 -0.547591 -1.5289 0
M  V30 7647 H 744.504 1.38273 -3.93302 0
M  V30 7648 H 743.164 1.66124 -2.78985 0
M  V30 7649 H 744.175 -1.29097 -5.01552 0
M  V30 7650 H 740.852 1.09377 -4.02918 0
M  V30 7651 H 742.242 -2.22122 -6.34123 0
M  V30 7652 N 744.962 1.50701 -0.461195 0
M  V30 7653 C 746.21 2.01867 0.0970051 0
M  V30 7654 C 746.531 1.34591 1.41104 0
M  V30 7655 O 745.801 0.488041 1.89723 0
M  V30 7656 H 744.381 0.74599 0.0388392 0
M  V30 7657 H 747.043 1.85129 -0.609357 0
M  V30 7658 H 746.139 3.11051 0.255688 0
M  V30 7659 N 746.441 0.193421 1.56409 0
M  V30 7660 C 747.371 -0.723334 2.22014 0
M  V30 7661 C 748.352 -1.22254 1.1827 0
M  V30 7662 O 749.537 -1.27168 1.46771 0
M  V30 7663 C 746.667 -1.94366 2.87818 0
M  V30 7664 C 745.621 -1.57943 3.97791 0
M  V30 7665 C 744.947 -2.87623 4.50752 0
M  V30 7666 C 746.247 -0.790639 5.16281 0
M  V30 7667 H 747.941 -0.176426 2.9888 0
M  V30 7668 H 745.487 -0.0834166 1.43758 0
M  V30 7669 H 747.44 -2.5902 3.32396 0
M  V30 7670 H 746.164 -2.51507 2.08355 0
M  V30 7671 H 744.823 -0.956482 3.53903 0
M  V30 7672 H 744.471 -3.4285 3.68053 0
M  V30 7673 H 744.171 -2.63998 5.24956 0
M  V30 7674 H 745.695 -3.53268 4.9803 0
M  V30 7675 H 747.109 -1.34024 5.57414 0
M  V30 7676 H 745.506 -0.65258 5.96541 0
M  V30 7677 H 746.576 0.208633 4.84451 0
M  V30 7678 N 747.919 -1.57396 -0.0801906 0
M  V30 7679 C 748.869 -1.9955 -1.10289 0
M  V30 7680 C 749.853 -0.876234 -1.34948 0
M  V30 7681 O 751.045 -1.14012 -1.35389 0
M  V30 7682 C 748.174 -2.43596 -2.419 0
M  V30 7683 C 747.26 -3.6224 -2.20551 0
M  V30 7684 N 747.651 -4.76693 -1.69109 0
M  V30 7685 C 745.949 -3.68627 -2.51059 0
M  V30 7686 C 746.65 -5.58577 -1.62379 0
M  V30 7687 N 745.626 -5.02178 -2.0813 0
M  V30 7688 H 749.428 -2.85483 -0.698335 0
M  V30 7689 H 746.942 -1.59837 -0.287395 0
M  V30 7690 H 748.939 -2.72031 -3.15919 0
M  V30 7691 H 747.599 -1.59047 -2.8308 0
M  V30 7692 H 748.61 -4.9915 -1.38092 0
M  V30 7693 H 745.287 -2.94772 -2.95661 0
M  V30 7694 H 746.677 -6.60447 -1.2353 0
M  V30 7695 N 749.397 0.351382 -1.53633 0
M  V30 7696 C 750.622 1.11718 -1.74739 0
M  V30 7697 C 751.047 1.81829 -0.481657 0
M  V30 7698 O 750.405 1.72264 0.565233 0
M  V30 7699 C 750.453 2.11234 -2.92254 0
M  V30 7700 O 749.557 3.186 -2.61855 0
M  V30 7701 H 748.898 0.323482 -0.579875 0
M  V30 7702 H 751.428 0.404167 -2.00568 0
M  V30 7703 H 751.438 2.54591 -3.18822 0
M  V30 7704 H 750.113 1.59599 -3.84058 0
M  V30 7705 H 748.69 2.80115 -2.4615 0
M  V30 7706 N 750.875 1.45233 0.611969 0
M  V30 7707 C 752.105 1.52318 1.39581 0
M  V30 7708 C 752.513 0.153093 1.8858 0
M  V30 7709 O 751.856 -0.854792 1.62601 0
M  V30 7710 C 751.918 2.4426 2.63775 0
M  V30 7711 C 751.582 3.91079 2.36445 0
M  V30 7712 C 752.579 4.81099 1.97079 0
M  V30 7713 C 750.264 4.35958 2.49492 0
M  V30 7714 C 752.258 6.14002 1.71115 0
M  V30 7715 C 749.945 5.68903 2.23142 0
M  V30 7716 C 750.943 6.57744 1.84015 0
M  V30 7717 O 750.631 7.88226 1.5797 0
M  V30 7718 H 750.363 0.518428 0.43383 0
M  V30 7719 H 752.917 1.91067 0.753837 0
M  V30 7720 H 751.147 2.00474 3.30677 0
M  V30 7721 H 752.836 2.42077 3.25812 0
M  V30 7722 H 753.602 4.47692 1.86539 0
M  V30 7723 H 749.481 3.67053 2.78914 0
M  V30 7724 H 753.025 6.83305 1.405 0
M  V30 7725 H 748.922 6.01866 2.33297 0
M  V30 7726 H 749.69 8.00211 1.72058 0
M  V30 7727 N 752.353 -0.854086 1.3245 0
M  V30 7728 C 753.263 -1.99503 1.23434 0
M  V30 7729 C 754.279 -1.73371 0.147828 0
M  V30 7730 O 755.455 -1.97998 0.368609 0
M  V30 7731 C 752.52 -3.33192 0.958328 0
M  V30 7732 C 751.581 -3.72542 2.13333 0
M  V30 7733 C 750.814 -4.99852 1.8704 0
M  V30 7734 O 751.037 -5.64573 0.813239 0
M  V30 7735 O 749.971 -5.36345 2.73161 0
M  V30 7736 H 753.797 -2.10046 2.1935 0
M  V30 7737 H 751.382 -0.984823 1.12346 0
M  V30 7738 H 753.264 -4.13327 0.820918 0
M  V30 7739 H 751.939 -3.23687 0.0293299 0
M  V30 7740 H 750.846 -2.92981 2.32622 0
M  V30 7741 H 752.179 -3.86694 3.04514 0
M  V30 7742 N 753.831 -1.1567 -1.07043 0
M  V30 7743 C 754.778 -0.856336 -2.14326 0
M  V30 7744 C 755.748 0.192051 -1.64986 0
M  V30 7745 O 756.933 0.0589148 -1.90709 0
M  V30 7746 C 754.073 -0.355227 -3.43267 0
M  V30 7747 C 753.186 -1.46555 -4.06381 0
M  V30 7748 C 752.321 -0.920245 -5.23168 0
M  V30 7749 C 751.36 -2.00729 -5.78251 0
M  V30 7750 N 750.497 -1.47813 -6.86364 0
M  V30 7751 H 755.337 -1.77514 -2.39359 0
M  V30 7752 H 752.874 -0.885676 -1.17449 0
M  V30 7753 H 754.832 -0.0463804 -4.17174 0
M  V30 7754 H 753.462 0.526649 -3.18475 0
M  V30 7755 H 752.514 -1.89052 -3.30096 0
M  V30 7756 H 753.826 -2.28616 -4.43324 0
M  V30 7757 H 752.98 -0.564127 -6.04072 0
M  V30 7758 H 751.719 -0.0688477 -4.87651 0
M  V30 7759 H 750.724 -2.3722 -4.95991 0
M  V30 7760 H 751.949 -2.86252 -6.15822 0
M  V30 7761 H 749.895 -0.649145 -6.5278 0
M  V30 7762 H 749.812 -2.23498 -7.22208 0
M  V30 7763 H 751.08 -1.15036 -7.70965 0
M  V30 7764 N 755.309 1.25446 -0.953992 0
M  V30 7765 C 756.725 1.4539 -0.658316 0
M  V30 7766 C 756.925 1.85607 0.784356 0
M  V30 7767 O 755.981 1.98568 1.55972 0
M  V30 7768 C 757.294 2.52643 -1.6307 0
M  V30 7769 C 758.842 2.66484 -1.64181 0
M  V30 7770 C 759.317 3.76921 -2.60182 0
M  V30 7771 N 760.808 3.84331 -2.58542 0
M  V30 7772 C 761.543 4.69271 -3.29503 0
M  V30 7773 N 761.039 5.58503 -4.09934 0
M  V30 7774 N 762.832 4.6323 -3.18393 0
M  V30 7775 H 754.983 0.976337 -1.8863 0
M  V30 7776 H 757.246 0.490343 -0.811337 0
M  V30 7777 H 756.952 2.29949 -2.66114 0
M  V30 7778 H 756.826 3.50547 -1.39271 0
M  V30 7779 H 759.213 2.88545 -0.618552 0
M  V30 7780 H 759.294 1.68982 -1.92038 0
M  V30 7781 H 758.938 3.55612 -3.62633 0
M  V30 7782 H 758.868 4.73906 -2.29609 0
M  V30 7783 H 761.359 3.20544 -2.0015 0
M  V30 7784 H 761.672 6.20241 -4.61 0
M  V30 7785 H 760.017 5.58214 -4.14032 0
M  V30 7786 H 763.208 3.92527 -2.5503 0
M  V30 7787 H 763.381 5.29204 -3.73961 0
M  V30 7788 N 756.787 0.722489 1.40064 0
M  V30 7789 C 757.717 0.0892452 2.33329 0
M  V30 7790 C 758.698 -0.737992 1.53257 0
M  V30 7791 O 759.883 -0.685516 1.81698 0
M  V30 7792 C 757.013 -0.828139 3.37282 0
M  V30 7793 C 755.967 -0.106005 4.27869 0
M  V30 7794 C 755.293 -1.13957 5.22415 0
M  V30 7795 C 756.593 1.04395 5.11761 0
M  V30 7796 H 758.287 0.868269 2.86534 0
M  V30 7797 H 755.833 0.418982 1.3777 0
M  V30 7798 H 757.786 -1.28058 4.01471 0
M  V30 7799 H 756.51 -1.63914 2.82489 0
M  V30 7800 H 755.169 0.326683 3.65142 0
M  V30 7801 H 754.817 -1.9438 4.63924 0
M  V30 7802 H 754.517 -0.661233 5.83868 0
M  V30 7803 H 756.041 -1.59197 5.89482 0
M  V30 7804 H 757.455 0.670541 5.69365 0
M  V30 7805 H 755.852 1.4511 5.82291 0
M  V30 7806 H 756.922 1.87144 4.47331 0
M  V30 7807 N 758.265 -1.50454 0.469181 0
M  V30 7808 C 759.495 -2.06429 -0.0840913 0
M  V30 7809 C 759.903 -1.3334 -1.34227 0
M  V30 7810 O 759.246 -0.395656 -1.79389 0
M  V30 7811 C 759.308 -3.56797 -0.440049 0
M  V30 7812 C 758.972 -4.51359 0.715838 0
M  V30 7813 C 759.969 -4.94754 1.59732 0
M  V30 7814 C 757.654 -4.94069 0.905621 0
M  V30 7815 C 759.648 -5.79564 2.653 0
M  V30 7816 C 757.335 -5.78662 1.96453 0
M  V30 7817 C 758.333 -6.21311 2.83658 0
M  V30 7818 O 758.021 -7.04218 3.87727 0
M  V30 7819 H 757.753 -0.675994 0.00289751 0
M  V30 7820 H 760.307 -1.94629 0.656417 0
M  V30 7821 H 758.537 -3.66492 -1.23372 0
M  V30 7822 H 760.226 -3.95145 -0.928181 0
M  V30 7823 H 760.992 -4.62428 1.46237 0
M  V30 7824 H 756.871 -4.60394 0.236326 0
M  V30 7825 H 760.415 -6.12774 3.33398 0
M  V30 7826 H 756.312 -6.10401 2.09955 0
M  V30 7827 H 757.08 -7.22464 3.84692 0
M  V30 7828 O 759.782 -0.343108 -1.57813 0
M  V30 7829 H 760.473 0.212482 -1.92531 0
M  V30 END ATOM
M  V30 BEGIN BOND
M  V30 END BOND
M  V30 END CTAB
M  END
$$$$
