drugbank_target|Q9KVB4 Uncharacterized protein (DB01694)
 OpenBabel12092120223D

  0  0  0     0  0            999 V3000
M  V30 BEGIN CTAB
M  V30 COUNTS 2046 2068 0 0 0
M  V30 BEGIN ATOM
M  V30 1 H -0.908 1.98254 -0.117106 0
M  V30 2 N 0 1.576 0 0
M  V30 3 C 0.933 2.03868 1.02534 0
M  V30 4 C 1.911 0.928543 1.3348 0
M  V30 5 O 3.095 1.19667 1.45644 0
M  V30 6 C 0.222 2.43627 2.35294 0
M  V30 7 C -0.732 3.65373 2.2001 0
M  V30 8 S 0.101 5.13292 1.52614 0
M  V30 9 C 1.257 5.56322 2.86805 0
M  V30 10 H 1.49 2.90518 0.631377 0
M  V30 11 H -0.977 1.52953 0.210867 0
M  V30 12 H 0.981 2.67203 3.11629 0
M  V30 13 H -0.358 1.57376 2.7183 0
M  V30 14 H -1.165 3.90944 3.18086 0
M  V30 15 H -1.563 3.418 1.51819 0
M  V30 16 H 0.729 5.58782 3.83104 0
M  V30 17 H 1.672 6.56266 2.65933 0
M  V30 18 H 2.08 4.83886 2.90714 0
M  V30 19 N 1.4781 -0.272755 1.55222 0
M  V30 20 C 2.4251 -1.33716 1.88119 0
M  V30 21 C 3.3951 -1.49066 0.73271 0
M  V30 22 O 4.5801 -1.63469 0.984002 0
M  V30 23 C 1.7201 -2.69238 2.15882 0
M  V30 24 C 0.8331 -2.62108 3.43399 0
M  V30 25 C -0.0319 -3.89811 3.60861 0
M  V30 26 C -0.9929 -3.77193 4.8207 0
M  V30 27 N -1.8559 -4.9673 4.96189 0
M  V30 28 H 2.9841 -1.04962 2.78903 0
M  V30 29 H 0.5211 -0.507088 1.38083 0
M  V30 30 H 2.4791 -3.48089 2.29978 0
M  V30 31 H 1.1091 -2.96194 1.28331 0
M  V30 32 H 0.1611 -1.74967 3.37773 0
M  V30 33 H 1.4731 -2.48685 4.32386 0
M  V30 34 H 0.6271 -4.77103 3.74777 0
M  V30 35 H -0.6339 -4.06102 2.7006 0
M  V30 36 H -1.6289 -2.88284 4.68159 0
M  V30 37 H -0.4039 -3.62421 5.74307 0
M  V30 38 H -2.4579 -5.13431 4.08319 0
M  V30 39 H -2.5409 -4.85839 5.79221 0
M  V30 40 H -1.2729 -5.85594 5.1449 0
M  V30 41 N 2.9562 -1.48159 -0.537278 0
M  V30 42 C 3.9032 -1.62138 -1.64256 0
M  V30 43 C 4.8732 -0.463668 -1.59497 0
M  V30 44 O 6.0582 -0.686241 -1.78032 0
M  V30 45 C 3.1982 -1.66028 -3.02537 0
M  V30 46 C 2.3112 -2.92855 -3.17585 0
M  V30 47 C 1.4462 -2.87952 -4.46382 0
M  V30 48 C 0.4852 -4.09516 -4.54932 0
M  V30 49 N -0.3778 -4.02733 -5.75109 0
M  V30 50 H 4.4622 -2.56529 -1.51647 0
M  V30 51 H 1.9992 -1.27224 -0.738414 0
M  V30 52 H 3.9572 -1.66265 -3.82638 0
M  V30 53 H 2.5872 -0.751331 -3.13934 0
M  V30 54 H 1.6392 -3.02395 -2.30784 0
M  V30 55 H 2.9512 -3.82822 -3.19764 0
M  V30 56 H 2.1052 -2.8655 -5.34765 0
M  V30 57 H 0.8442 -1.95702 -4.46712 0
M  V30 58 H -0.1508 -4.11201 -3.64957 0
M  V30 59 H 1.0742 -5.02917 -4.56346 0
M  V30 60 H -0.9798 -3.13299 -5.76351 0
M  V30 61 H -1.0628 -4.86397 -5.78752 0
M  V30 62 H 0.2052 -4.05379 -6.65799 0
M  V30 63 N 4.4343 0.785586 -1.36625 0
M  V30 64 C 5.3643 1.91259 -1.33949 0
M  V30 65 C 6.3453 1.68795 -0.210325 0
M  V30 66 O 7.5303 1.89854 -0.408561 0
M  V30 67 C 4.6603 3.28339 -1.13186 0
M  V30 68 C 3.6143 3.65335 -2.22967 0
M  V30 69 C 2.9403 5.00806 -1.87342 0
M  V30 70 C 4.2403 3.7352 -3.65075 0
M  V30 71 H 5.9343 1.93755 -2.28253 0
M  V30 72 H 3.4803 0.930788 -1.09874 0
M  V30 73 H 5.4333 4.06804 -1.09948 0
M  V30 74 H 4.1573 3.2624 -0.153332 0
M  V30 75 H 2.8163 2.89169 -2.25337 0
M  V30 76 H 2.4643 4.95233 -0.880545 0
M  V30 77 H 2.1643 5.26529 -2.60846 0
M  V30 78 H 3.6883 5.81687 -1.85667 0
M  V30 79 H 5.1023 4.42168 -3.64911 0
M  V30 80 H 3.4993 4.10731 -4.37516 0
M  V30 81 H 4.5693 2.74527 -3.99703 0
M  V30 82 N 5.9124 1.20967 1.01018 0
M  V30 83 C 7.1614 1.01796 1.74128 0
M  V30 84 C 7.4744 -0.449691 1.90361 0
M  V30 85 O 8.6804 -0.76068 2.60626 0
M  V30 86 C 7.1364 1.7727 3.13215 0
M  V30 87 C 6.7444 3.28171 3.04972 0
M  V30 88 C 8.4884 1.66489 3.90489 0
M  V30 89 C 6.3954 3.96156 4.39107 0
M  V30 90 H 5.3254 0.377276 0.652824 0
M  V30 91 H 7.9764 1.44651 1.12909 0
M  V30 92 H 6.3584 1.27205 3.75013 0
M  V30 93 H 7.5324 3.85499 2.52443 0
M  V30 94 H 5.8474 3.39437 2.41188 0
M  V30 95 H 8.4444 2.14617 4.89738 0
M  V30 96 H 8.7874 0.6222 4.11624 0
M  V30 97 H 9.3204 2.14003 3.35332 0
M  V30 98 H 6.0594 5.00604 4.23174 0
M  V30 99 H 5.5794 3.43617 4.91617 0
M  V30 100 H 7.2584 4.00774 5.07926 0
M  V30 101 N 7.3905 -1.2043 1.01659 0
M  V30 102 C 8.6365 -1.90079 0.706963 0
M  V30 103 C 8.9695 -1.78648 -0.761474 0
M  V30 104 O 8.2445 -1.17069 -1.55323 0
M  V30 105 C 8.5275 -3.41469 1.14327 0
M  V30 106 C 8.3805 -3.61833 2.67201 0
M  V30 107 C 9.6995 -4.34261 0.714529 0
M  V30 108 H 6.8185 -0.690254 0.2583 0
M  V30 109 H 9.4605 -1.41826 1.26433 0
M  V30 110 H 7.6105 -3.82696 0.669056 0
M  V30 111 H 9.2825 -3.2986 3.22475 0
M  V30 112 H 7.5255 -3.05304 3.08175 0
M  V30 113 H 8.1965 -4.67955 2.92783 0
M  V30 114 H 10.6725 -4.00682 1.12221 0
M  V30 115 H 9.5485 -5.38806 1.04784 0
M  V30 116 H 9.8095 -4.40431 -0.383799 0
M  V30 117 N 8.8686 -0.792821 -1.36206 0
M  V30 118 C 10.1456 -0.290627 -1.93429 0
M  V30 119 C 10.5256 1.21773 -1.72437 0
M  V30 120 O 9.8736 2.0108 -1.08531 0
M  V30 121 C 10.0836 -0.686973 -3.42172 0
M  V30 122 C 11.4316 -0.668643 -4.19302 0
M  V30 123 O 12.4556 -0.627658 -3.50626 0
M  V30 124 O 11.3146 -0.714597 -5.41808 0
M  V30 125 H 8.4086 -0.0727927 -0.82379 0
M  V30 126 H 10.9546 -0.875593 -1.45367 0
M  V30 127 H 9.7266 -1.72711 -3.51122 0
M  V30 128 H 9.3496 -0.0760733 -3.97527 0
M  V30 129 N 10.3467 1.47872 -0.545128 0
M  V30 130 C 11.2767 2.32661 0.197793 0
M  V30 131 C 12.2577 1.43041 0.920504 0
M  V30 132 O 13.4427 1.71912 0.90333 0
M  V30 133 C 10.5727 3.24569 1.23582 0
M  V30 134 C 9.5267 4.23333 0.630323 0
M  V30 135 C 8.8527 5.0448 1.77211 0
M  V30 136 C 10.1527 5.20704 -0.407974 0
M  V30 137 H 11.8467 2.95024 -0.510045 0
M  V30 138 H 9.3927 1.4187 -0.246731 0
M  V30 139 H 11.3457 3.8272 1.76362 0
M  V30 140 H 10.0697 2.60236 1.97344 0
M  V30 141 H 8.7287 3.6639 0.123922 0
M  V30 142 H 8.3767 4.36561 2.49847 0
M  V30 143 H 8.0767 5.71339 1.37281 0
M  V30 144 H 9.6007 5.65487 2.3034 0
M  V30 145 H 11.0147 5.7329 0.033305 0
M  V30 146 H 9.4117 5.95699 -0.725486 0
M  V30 147 H 10.4817 4.66917 -1.30828 0
M  V30 148 N 11.8248 0.280983 1.55075 0
M  V30 149 C 13.1018 -0.386207 1.91749 0
M  V30 150 C 13.4818 -1.73264 1.20594 0
M  V30 151 O 12.8298 -2.26034 0.334784 0
M  V30 152 C 13.0398 -0.520687 3.45094 0
M  V30 153 C 14.3878 -0.800865 4.16979 0
M  V30 154 O 15.4118 -0.605271 3.5102 0
M  V30 155 O 14.2708 -1.1753 5.33712 0
M  V30 156 H 11.3648 -0.212408 0.799257 0
M  V30 157 H 13.9108 0.327568 1.66509 0
M  V30 158 H 12.6828 0.426633 3.88967 0
M  V30 159 H 12.3058 -1.2837 3.76307 0
M  V30 160 N 13.3029 -1.57598 0.00835791 0
M  V30 161 C 14.5509 -1.90551 -0.6734 0
M  V30 162 C 14.8719 -0.883301 -1.73847 0
M  V30 163 O 14.1419 0.0781442 -1.95744 0
M  V30 164 H 12.7219 -0.703312 -0.251717 0
M  V30 165 H 15.3839 -1.94833 0.0512592 0
M  V30 166 H 14.4799 -2.9056 -1.13935 0
M  V30 167 N 14.781 0.264519 -1.55364 0
M  V30 168 C 16.009 1.013 -1.80405 0
M  V30 169 C 16.424 1.79618 -0.581622 0
M  V30 170 O 15.781 1.76879 0.449468 0
M  V30 171 C 15.832 1.96487 -3.03439 0
M  V30 172 O 15.553 1.21341 -4.20961 0
M  V30 173 C 17.054 2.83079 -3.41147 0
M  V30 174 H 14.274 0.298875 -0.600762 0
M  V30 175 H 16.818 0.292736 -2.02394 0
M  V30 176 H 14.973 2.63965 -2.83551 0
M  V30 177 H 15.387 1.85573 -4.90574 0
M  V30 178 H 16.861 3.4565 -4.30384 0
M  V30 179 H 17.338 3.53286 -2.60932 0
M  V30 180 H 17.944 2.2108 -3.63323 0
M  V30 181 N 16.2591 1.48442 0.529413 0
M  V30 182 C 17.1891 1.65902 1.64313 0
M  V30 183 C 18.1701 0.507897 1.6234 0
M  V30 184 O 19.3551 0.740503 1.79528 0
M  V30 185 C 16.4851 1.69911 3.02898 0
M  V30 186 C 15.4391 2.8453 3.19729 0
M  V30 187 C 14.7651 2.73629 4.59381 0
M  V30 188 C 16.0651 4.25821 3.02447 0
M  V30 189 H 17.7591 2.5914 1.49955 0
M  V30 190 H 15.3051 1.24709 0.719982 0
M  V30 191 H 17.2581 1.80715 3.80684 0
M  V30 192 H 15.9821 0.732524 3.18279 0
M  V30 193 H 14.6411 2.73283 2.44361 0
M  V30 194 H 14.2891 1.74938 4.71599 0
M  V30 195 H 13.9891 3.50541 4.71588 0
M  V30 196 H 15.5131 2.86401 5.39265 0
M  V30 197 H 16.9271 4.37898 3.70024 0
M  V30 198 H 15.3241 5.03735 3.26146 0
M  V30 199 H 16.3941 4.42244 1.98867 0
M  V30 200 N 17.7372 -0.778329 1.37039 0
M  V30 201 C 18.9652 -1.56734 1.35063 0
M  V30 202 C 19.3802 -1.88686 -0.0655597 0
M  V30 203 O 18.7372 -1.5096 -1.02554 0
M  V30 204 C 18.7882 -2.88163 2.18276 0
M  V30 205 O 18.5092 -2.57583 3.54376 0
M  V30 206 C 20.0102 -3.82422 2.24206 0
M  V30 207 H 17.2302 -0.485778 0.462883 0
M  V30 208 H 19.7742 -0.965185 1.8029 0
M  V30 209 H 17.9292 -3.44818 1.76576 0
M  V30 210 H 18.3432 -3.41699 3.97922 0
M  V30 211 H 19.8172 -4.71667 2.86765 0
M  V30 212 H 20.2942 -4.21078 1.24861 0
M  V30 213 H 20.9002 -3.31697 2.6619 0
M  V30 214 N 19.2153 -1.21501 -1.00376 0
M  V30 215 C 20.1473 -0.933174 -2.09343 0
M  V30 216 C 21.1603 0.0840896 -1.62583 0
M  V30 217 O 22.3493 -0.148563 -1.77881 0
M  V30 218 C 19.4493 -0.379869 -3.36764 0
M  V30 219 C 18.6223 -1.45176 -4.12605 0
M  V30 220 C 17.6813 -0.907476 -5.18316 0
M  V30 221 O 16.7073 -1.5912 -5.46507 0
M  V30 222 N 17.9093 0.276649 -5.7984 0
M  V30 223 H 20.6743 -1.87124 -2.34104 0
M  V30 224 H 18.2353 -1.12043 -1.16867 0
M  V30 225 H 20.2273 -0.00131488 -4.047 0
M  V30 226 H 18.7973 0.463048 -3.09151 0
M  V30 227 H 18.0173 -2.00411 -3.39454 0
M  V30 228 H 19.3053 -2.17328 -4.6005 0
M  V30 229 H 18.7033 0.849147 -5.59291 0
M  V30 230 H 17.2603 0.596702 -6.49063 0
M  V30 231 N 20.6934 1.19889 -1.02296 0
M  V30 232 C 21.6564 2.21116 -0.603351 0
M  V30 233 C 22.6564 1.5738 0.329884 0
M  V30 234 O 23.8464 1.73802 0.117702 0
M  V30 235 C 20.9784 3.40696 0.117992 0
M  V30 236 H 22.1714 2.59754 -1.49893 0
M  V30 237 H 19.7244 1.33463 -0.813468 0
M  V30 238 H 20.4594 3.07569 1.0282 0
M  V30 239 H 20.2444 3.88188 -0.552511 0
M  V30 240 H 21.7344 4.15692 0.398696 0
M  V30 241 N 22.1715 0.800033 1.35784 0
M  V30 242 C 23.1195 0.193851 2.31791 0
M  V30 243 C 24.1135 -0.652744 1.56319 0
M  V30 244 O 25.3195 -0.546641 1.71499 0
M  V30 245 H 21.6945 0.04392 0.750716 0
M  V30 246 H 23.6655 1.01883 2.80468 0
M  V30 247 C 22.4145 -0.648338 3.41602 0
M  V30 248 H 21.7375 -0.00624665 3.998 0
M  V30 249 H 23.1775 -1.03898 4.11073 0
M  V30 250 C 21.6365 -1.8111 2.84079 0
M  V30 251 O 22.1665 -2.90825 2.77099 0
M  V30 252 N 20.3725 -1.62056 2.41218 0
M  V30 253 H 19.9195 -0.728123 2.47095 0
M  V30 254 H 19.8775 -2.40013 2.03079 0
M  V30 255 N 23.6496 -1.47581 0.552962 0
M  V30 256 C 24.8776 -2.06875 0.0320556 0
M  V30 257 C 25.2926 -1.40625 -1.25976 0
M  V30 258 O 24.6496 -0.501349 -1.75479 0
M  V30 259 C 24.7006 -3.61092 -0.17167 0
M  V30 260 O 24.4216 -4.24858 1.06899 0
M  V30 261 C 25.9226 -4.37242 -0.730344 0
M  V30 262 H 23.1426 -0.669561 0.043915 0
M  V30 263 H 25.6866 -1.89646 0.765163 0
M  V30 264 H 23.8416 -3.7785 -0.854894 0
M  V30 265 H 24.2556 -5.17334 0.864059 0
M  V30 266 H 25.7296 -5.45842 -0.822203 0
M  V30 267 H 26.2066 -4.03235 -1.74064 0
M  V30 268 H 26.8126 -4.25219 -0.0829543 0
M  V30 269 N 25.1277 -0.289203 -1.54924 0
M  V30 270 C 26.3527 0.329299 -2.04769 0
M  V30 271 C 26.7777 1.4763 -1.16564 0
M  V30 272 O 26.1357 1.80527 -0.167186 0
M  V30 273 C 26.1837 0.774438 -3.52186 0
M  V30 274 O 25.2877 1.88038 -3.67036 0
M  V30 275 H 24.6287 0.0659259 -0.660719 0
M  V30 276 H 27.1587 -0.42761 -2.00082 0
M  V30 277 H 27.1687 1.06642 -3.93816 0
M  V30 278 H 25.8437 -0.0646707 -4.1585 0
M  V30 279 H 24.4207 1.58985 -3.3731 0
M  V30 280 N 26.6058 1.57591 -0.0167156 0
M  V30 281 C 27.8828 1.82547 0.702564 0
M  V30 282 C 28.2628 0.898018 1.91047 0
M  V30 283 O 27.6108 -0.0493456 2.28447 0
M  V30 284 C 27.8208 3.31459 1.09251 0
M  V30 285 C 29.1688 3.97622 1.48937 0
M  V30 286 O 30.1928 3.35881 1.18584 0
M  V30 287 O 29.0518 5.06415 2.05442 0
M  V30 288 H 26.1458 0.752268 0.343544 0
M  V30 289 H 28.6918 1.69644 -0.0434495 0
M  V30 290 H 27.4638 3.9061 0.23227 0
M  V30 291 H 27.0868 3.49422 1.89709 0
M  V30 292 N 28.0839 -0.256276 1.55502 0
M  V30 293 C 29.3139 -1.00196 1.80677 0
M  V30 294 C 29.7219 -1.79805 0.588797 0
M  V30 295 O 29.0649 -1.78055 -0.451883 0
M  V30 296 C 29.1269 -1.99515 2.99055 0
M  V30 297 C 28.7909 -1.38688 4.35448 0
M  V30 298 C 29.7879 -0.794079 5.138 0
M  V30 299 C 27.4729 -1.40906 4.82132 0
M  V30 300 C 29.4669 -0.231562 6.36979 0
M  V30 301 C 27.1539 -0.842684 6.05262 0
M  V30 302 C 28.1519 -0.254953 6.82524 0
M  V30 303 O 27.8399 0.3027 8.0333 0
M  V30 304 H 27.5719 -0.300919 0.60533 0
M  V30 305 H 30.1259 -0.287307 2.03381 0
M  V30 306 H 28.3559 -2.74785 2.72084 0
M  V30 307 H 30.0449 -2.60349 3.11405 0
M  V30 308 H 30.8109 -0.769519 4.78856 0
M  V30 309 H 26.6899 -1.85591 4.21992 0
M  V30 310 H 30.2339 0.227816 6.97228 0
M  V30 311 H 26.1309 -0.86454 6.39684 0
M  V30 312 H 26.8989 0.193662 8.18271 0
M  V30 313 N 29.562 -1.4872 -0.521534 0
M  V30 314 C 30.978 -1.35028 -0.850855 0
M  V30 315 C 31.178 -0.367712 -1.98116 0
M  V30 316 O 30.234 0.208037 -2.51642 0
M  V30 317 C 31.547 -2.75263 -1.21041 0
M  V30 318 C 33.095 -2.83813 -1.31981 0
M  V30 319 C 33.57 -4.24769 -1.71276 0
M  V30 320 N 35.061 -4.27482 -1.78363 0
M  V30 321 C 35.796 -5.33494 -2.1017 0
M  V30 322 N 35.292 -6.49775 -2.40343 0
M  V30 323 N 37.085 -5.20894 -2.11248 0
M  V30 324 H 29.236 -2.11214 0.22413 0
M  V30 325 H 31.499 -0.947252 0.0376439 0
M  V30 326 H 31.205 -3.48765 -0.453415 0
M  V30 327 H 31.079 -3.09327 -2.15863 0
M  V30 328 H 33.466 -2.10561 -2.06756 0
M  V30 329 H 33.547 -2.53358 -0.352596 0
M  V30 330 H 33.191 -4.9854 -0.970588 0
M  V30 331 H 33.121 -4.52673 -2.69062 0
M  V30 332 H 35.612 -3.43611 -1.57288 0
M  V30 333 H 35.925 -7.26402 -2.63743 0
M  V30 334 H 34.27 -6.53035 -2.37844 0
M  V30 335 H 37.461 -4.29065 -1.87139 0
M  V30 336 H 37.634 -6.03612 -2.35704 0
M  V30 337 N 31.0401 0.771051 -1.3745 0
M  V30 338 C 31.9881 1.90574 -1.33358 0
M  V30 339 C 32.9821 1.67936 -0.22224 0
M  V30 340 O 34.1881 1.75717 -0.390304 0
M  V30 341 H 30.5631 0.626714 -0.415612 0
M  V30 342 H 32.5341 1.91142 -2.29144 0
M  V30 343 C 31.2831 3.27845 -1.15813 0
M  V30 344 H 30.6061 3.45842 -2.00583 0
M  V30 345 H 32.0461 4.07538 -1.17 0
M  V30 346 C 30.5051 3.36625 0.136165 0
M  V30 347 O 31.0351 3.85785 1.11949 0
M  V30 348 N 29.2411 2.89997 0.187099 0
M  V30 349 H 28.7881 2.50182 -0.613753 0
M  V30 350 H 28.7461 2.96252 1.05272 0
M  V30 351 N 32.5182 1.22032 0.997298 0
M  V30 352 C 33.7642 1.04376 1.73878 0
M  V30 353 C 34.0972 -0.420716 1.89588 0
M  V30 354 O 33.3722 -1.31202 1.43583 0
M  V30 355 C 33.6552 1.75047 3.14691 0
M  V30 356 C 33.5082 3.29062 3.06656 0
M  V30 357 C 34.8272 1.49928 4.13775 0
M  V30 358 H 31.9462 0.380578 0.631133 0
M  V30 359 H 34.5882 1.50312 1.16217 0
M  V30 360 H 32.7382 1.35996 3.63919 0
M  V30 361 H 34.4102 3.7753 2.65083 0
M  V30 362 H 32.6532 3.58967 2.43568 0
M  V30 363 H 33.3242 3.73683 4.06282 0
M  V30 364 H 35.8002 1.83842 3.73285 0
M  V30 365 H 34.6762 2.01878 5.10428 0
M  V30 366 H 34.9372 0.430929 4.39995 0
M  V30 367 N 33.9963 -1.19345 1.0293 0
M  V30 368 C 34.9263 -2.2481 0.631105 0
M  V30 369 C 35.9073 -1.66245 -0.360104 0
M  V30 370 O 37.0923 -1.92677 -0.242726 0
M  V30 371 C 34.2223 -3.47295 -0.0184607 0
M  V30 372 C 33.1763 -4.18536 0.895073 0
M  V30 373 C 32.5023 -5.34586 0.110592 0
M  V30 374 C 33.8023 -4.73287 2.209 0
M  V30 375 H 35.4963 -2.58372 1.51275 0
M  V30 376 H 33.0423 -1.24194 0.728818 0
M  V30 377 H 34.9953 -4.20268 -0.308675 0
M  V30 378 H 33.7193 -3.12933 -0.934907 0
M  V30 379 H 32.3783 -3.47446 1.16949 0
M  V30 380 H 32.0263 -4.96469 -0.807902 0
M  V30 381 H 31.7263 -5.83183 0.719087 0
M  V30 382 H 33.2503 -6.10355 -0.172871 0
M  V30 383 H 34.6643 -5.38013 1.98028 0
M  V30 384 H 33.0613 -5.32373 2.76946 0
M  V30 385 H 34.1313 -3.91331 2.86336 0
M  V30 386 N 35.4744 -0.807222 -1.35358 0
M  V30 387 C 36.8854 -0.44876 -1.81226 0
M  V30 388 C 37.2364 1.02929 -1.67033 0
M  V30 389 O 36.3614 1.79991 -1.20133 0
M  V30 390 C 36.9564 -0.807774 -3.2903 0
M  V30 391 C 35.5154 -0.501901 -3.73039 0
M  V30 392 C 34.6624 -1.03304 -2.57339 0
M  V30 393 H 37.6134 -0.998808 -1.23327 0
M  V30 394 H 37.6344 -0.10554 -3.80354 0
M  V30 395 H 37.1464 -1.88357 -3.39328 0
M  V30 396 H 35.2474 0.565128 -3.68289 0
M  V30 397 H 35.3604 -1.03497 -4.67787 0
M  V30 398 H 33.7244 -0.455339 -2.50597 0
M  V30 399 H 34.5074 -2.11496 -2.70415 0
M  V30 400 N 36.9525 1.47285 -0.560781 0
M  V30 401 C 38.3685 1.58065 -0.22081 0
M  V30 402 C 38.5685 1.55892 1.27671 0
M  V30 403 O 37.6245 1.46422 2.0571 0
M  V30 404 C 38.9375 2.88418 -0.850625 0
M  V30 405 C 40.4855 3.02009 -0.822184 0
M  V30 406 C 40.9605 4.35066 -1.43113 0
M  V30 407 N 42.4515 4.41711 -1.39448 0
M  V30 408 C 43.1865 5.43237 -1.83525 0
M  V30 409 N 42.6825 6.51555 -2.35474 0
M  V30 410 N 44.4755 5.34304 -1.74574 0
M  V30 411 H 36.6265 1.46941 -1.53369 0
M  V30 412 H 38.8895 0.699558 -0.639783 0
M  V30 413 H 38.5955 2.95755 -1.9032 0
M  V30 414 H 38.4695 3.75612 -0.345773 0
M  V30 415 H 40.8565 2.94266 0.221714 0
M  V30 416 H 40.9375 2.16347 -1.36483 0
M  V30 417 H 40.5815 4.43565 -2.47412 0
M  V30 418 H 40.5115 5.19465 -0.863899 0
M  V30 419 H 43.0025 3.64027 -1.01452 0
M  V30 420 H 43.3155 7.25203 -2.67021 0
M  V30 421 H 41.6605 6.52435 -2.39487 0
M  V30 422 H 44.8515 4.48581 -1.33763 0
M  V30 423 H 45.0245 6.13288 -2.09242 0
M  V30 424 N 38.4306 0.297415 1.54768 0
M  V30 425 C 39.3606 -0.573494 2.26348 0
M  V30 426 C 40.3416 -1.14085 1.26169 0
M  V30 427 O 41.5266 -1.17086 1.54934 0
M  V30 428 C 38.6566 -1.74716 3.00153 0
M  V30 429 C 37.6106 -1.31032 4.07449 0
M  V30 430 C 36.9366 -2.56887 4.68949 0
M  V30 431 C 38.2366 -0.444183 5.20408 0
M  V30 432 H 39.9306 0.0235131 2.99391 0
M  V30 433 H 37.4766 0.0127488 1.43994 0
M  V30 434 H 39.4296 -2.3625 3.48947 0
M  V30 435 H 38.1536 -2.37035 2.24682 0
M  V30 436 H 36.8126 -0.718066 3.59499 0
M  V30 437 H 36.4606 -3.17512 3.90122 0
M  V30 438 H 36.1606 -2.2836 5.41411 0
M  V30 439 H 37.6846 -3.19229 5.20505 0
M  V30 440 H 39.0986 -0.9651 5.65118 0
M  V30 441 H 37.4956 -0.252846 5.99567 0
M  V30 442 H 38.5656 0.531609 4.81977 0
M  V30 443 N 39.9087 -1.5758 0.0250728 0
M  V30 444 C 41.1857 -1.82917 -0.692873 0
M  V30 445 C 41.5657 -0.908137 -1.90568 0
M  V30 446 O 40.9137 0.0372298 -2.2847 0
M  V30 447 C 41.1237 -3.32034 -1.07492 0
M  V30 448 C 42.4717 -3.98406 -1.46826 0
M  V30 449 O 43.4957 -3.36505 -1.16801 0
M  V30 450 O 42.3547 -5.07497 -2.02754 0
M  V30 451 H 39.4487 -0.754079 -0.33955 0
M  V30 452 H 41.9947 -1.69619 0.0524456 0
M  V30 453 H 40.7667 -3.90728 -0.211552 0
M  V30 454 H 40.3897 -3.50424 -1.87854 0
M  V30 455 N 41.3868 0.248026 -1.55636 0
M  V30 456 C 42.6328 0.97767 -1.77678 0
M  V30 457 C 42.9658 1.85016 -0.590135 0
M  V30 458 O 42.2408 1.90095 0.411611 0
M  V30 459 C 42.5238 1.83914 -3.09593 0
M  V30 460 C 42.3768 0.99491 -4.38659 0
M  V30 461 C 43.6958 2.82183 -3.37729 0
M  V30 462 H 40.8148 0.354005 -0.646413 0
M  V30 463 H 43.4568 0.248253 -1.88371 0
M  V30 464 H 41.6068 2.46104 -3.00608 0
M  V30 465 H 43.2788 0.391789 -4.59633 0
M  V30 466 H 41.5218 0.299231 -4.32767 0
M  V30 467 H 42.1928 1.63145 -5.2734 0
M  V30 468 H 44.6688 2.30129 -3.4667 0
M  V30 469 H 43.5448 3.39582 -4.31249 0
M  V30 470 H 43.8058 3.58588 -2.58586 0
M  V30 471 N 42.8649 1.48995 0.513639 0
M  V30 472 C 44.1139 1.57093 1.2651 0
M  V30 473 C 44.4269 0.257091 1.93903 0
M  V30 474 O 45.6329 0.216478 2.70636 0
M  V30 475 C 44.0889 2.77118 2.29638 0
M  V30 476 C 43.6969 4.15209 1.68241 0
M  V30 477 C 45.4409 2.94538 3.05692 0
M  V30 478 C 43.3479 5.26474 2.69406 0
M  V30 479 H 42.2779 0.584876 0.475854 0
M  V30 480 H 44.9289 1.7536 0.540487 0
M  V30 481 H 43.3109 2.52319 3.05207 0
M  V30 482 H 44.4849 4.50094 0.987505 0
M  V30 483 H 42.7999 4.03042 1.04623 0
M  V30 484 H 45.3969 3.74832 3.8132 0
M  V30 485 H 45.7399 2.04614 3.62545 0
M  V30 486 H 46.2729 3.19316 2.37238 0
M  V30 487 H 43.0119 6.18417 2.17351 0
M  V30 488 H 42.5319 4.96058 3.37175 0
M  V30 489 H 44.2109 5.55277 3.32078 0
M  V30 490 N 44.343 -0.763751 1.37857 0
M  V30 491 C 45.253 -1.90817 1.36478 0
M  V30 492 C 46.269 -1.71997 0.263248 0
M  V30 493 O 47.445 -1.95095 0.499979 0
M  V30 494 C 44.51 -3.2605 1.17864 0
M  V30 495 C 43.571 -3.57467 2.3773 0
M  V30 496 C 42.804 -4.86249 2.19995 0
M  V30 497 O 43.027 -5.57884 1.18836 0
M  V30 498 O 41.961 -5.16911 3.08361 0
M  V30 499 H 45.787 -1.94933 2.32884 0
M  V30 500 H 43.372 -0.907619 1.1867 0
M  V30 501 H 45.254 -4.06924 1.09504 0
M  V30 502 H 43.929 -3.22769 0.245372 0
M  V30 503 H 42.836 -2.76796 2.51664 0
M  V30 504 H 44.169 -3.655 3.29652 0
M  V30 505 N 45.8211 -1.22559 -0.990812 0
M  V30 506 C 46.7531 -0.955325 -2.08342 0
M  V30 507 C 47.7661 0.0668408 -1.62663 0
M  V30 508 O 48.9551 -0.167421 -1.77713 0
M  V30 509 C 46.0551 -0.415566 -3.36342 0
M  V30 510 C 45.2281 -1.49544 -4.11042 0
M  V30 511 C 44.2871 -0.962399 -5.17324 0
M  V30 512 O 43.3131 -1.64907 -5.44788 0
M  V30 513 N 44.5151 0.215134 -5.80101 0
M  V30 514 H 47.2801 -1.89596 -2.32106 0
M  V30 515 H 44.8411 -1.13276 -1.15673 0
M  V30 516 H 46.8331 -0.0442386 -4.04676 0
M  V30 517 H 45.4031 0.430232 -3.09625 0
M  V30 518 H 44.6231 -2.04 -3.37309 0
M  V30 519 H 45.9111 -2.22195 -4.57719 0
M  V30 520 H 45.3091 0.789779 -5.6016 0
M  V30 521 H 43.8661 0.527826 -6.49659 0
M  V30 522 N 47.2992 1.18797 -1.03562 0
M  V30 523 C 48.2292 2.24472 -0.643019 0
M  V30 524 C 49.2102 1.66433 0.351283 0
M  V30 525 O 50.3952 1.92803 0.232505 0
M  V30 526 C 47.5252 3.473 4.24935e-05 0
M  V30 527 C 46.4792 4.18055 -0.917257 0
M  V30 528 C 45.8052 5.34519 -0.138941 0
M  V30 529 C 47.1052 4.72109 -2.23407 0
M  V30 530 H 48.7992 2.57566 -1.52643 0
M  V30 531 H 46.3452 1.23806 -0.735394 0
M  V30 532 H 48.2982 4.20426 0.286383 0
M  V30 533 H 47.0222 3.13424 0.918299 0
M  V30 534 H 45.6812 3.46821 -1.1879 0
M  V30 535 H 45.3292 4.96891 0.781562 0
M  V30 536 H 45.0292 5.82794 -0.750005 0
M  V30 537 H 46.5532 6.10438 0.1405 0
M  V30 538 H 47.9672 5.36955 -2.00879 0
M  V30 539 H 46.3642 5.30897 -2.79765 0
M  V30 540 H 47.4342 3.89807 -2.88407 0
M  V30 541 N 48.7773 0.814389 1.34928 0
M  V30 542 C 50.1933 0.499084 1.51596 0
M  V30 543 C 50.3933 -0.978319 1.76157 0
M  V30 544 O 49.4493 -1.76309 1.80752 0
M  V30 545 C 50.7623 1.35121 2.68631 0
M  V30 546 C 52.3103 1.34746 2.82511 0
M  V30 547 C 52.7853 2.18388 4.0258 0
M  V30 548 N 54.2763 2.15966 4.09772 0
M  V30 549 C 55.0113 2.77437 5.01813 0
M  V30 550 N 54.5073 3.47866 5.99134 0
M  V30 551 N 56.3003 2.67037 4.94619 0
M  V30 552 H 48.4513 1.7711 1.17243 0
M  V30 553 H 50.7143 0.754256 0.574284 0
M  V30 554 H 50.4203 2.40001 2.57085 0
M  V30 555 H 50.2943 1.00991 3.63429 0
M  V30 556 H 52.6813 0.30648 2.93504 0
M  V30 557 H 52.7623 1.72869 1.88547 0
M  V30 558 H 52.4063 3.2253 3.92347 0
M  V30 559 H 52.3363 1.77621 4.9574 0
M  V30 560 H 54.8273 1.64729 3.40107 0
M  V30 561 H 55.1403 3.92038 6.65977 0
M  V30 562 H 53.4853 3.51972 5.99284 0
M  V30 563 H 56.6763 2.11597 4.17546 0
M  V30 564 H 56.8493 3.15232 5.66156 0
M  V30 565 N 50.2554 -1.46986 0.568584 0
M  V30 566 C 51.1654 -2.33942 -0.17555 0
M  V30 567 C 52.1814 -1.48891 -0.90041 0
M  V30 568 O 53.3574 -1.81794 -0.86676 0
M  V30 569 C 50.4224 -3.25811 -1.18524 0
M  V30 570 C 49.4834 -4.26757 -0.466582 0
M  V30 571 C 48.7164 -5.14236 -1.42817 0
M  V30 572 O 48.9394 -5.04379 -2.66379 0
M  V30 573 O 47.8734 -5.94412 -0.946453 0
M  V30 574 H 51.6994 -2.98896 0.538036 0
M  V30 575 H 49.2844 -1.4573 0.329097 0
M  V30 576 H 51.1664 -3.82527 -1.76779 0
M  V30 577 H 49.8414 -2.63471 -1.88055 0
M  V30 578 H 48.7484 -3.73769 0.157451 0
M  V30 579 H 50.0814 -4.91843 0.187485 0
M  V30 580 N 51.7335 -0.305618 -1.54608 0
M  V30 581 C 52.9635 0.304333 -2.04346 0
M  V30 582 C 53.3715 1.47715 -1.18224 0
M  V30 583 O 52.7145 1.82591 -0.201577 0
M  V30 584 C 52.7765 0.819031 -3.50046 0
M  V30 585 C 52.4405 -0.22912 -4.56425 0
M  V30 586 C 53.4375 -1.05914 -5.08997 0
M  V30 587 C 51.1225 -0.372148 -5.0092 0
M  V30 588 C 53.1165 -2.01809 -6.04609 0
M  V30 589 C 50.8035 -1.33454 -5.9635 0
M  V30 590 C 51.8015 -2.15599 -6.48079 0
M  V30 591 O 51.4895 -3.10205 -7.41639 0
M  V30 592 H 51.2215 0.0693996 -0.672428 0
M  V30 593 H 53.7755 -0.444548 -2.00532 0
M  V30 594 H 52.0055 1.61852 -3.51199 0
M  V30 595 H 53.6945 1.34537 -3.82955 0
M  V30 596 H 54.4605 -0.959538 -4.75413 0
M  V30 597 H 50.3395 0.257304 -4.60281 0
M  V30 598 H 53.8835 -2.65966 -6.44909 0
M  V30 599 H 49.7805 -1.43485 -6.29351 0
M  V30 600 H 50.5485 -3.05237 -7.59455 0
M  V30 601 N 53.2116 1.57565 -0.0334293 0
M  V30 602 C 54.1616 2.06978 0.956237 0
M  V30 603 C 55.1456 0.971193 1.28283 0
M  V30 604 O 56.3376 1.23471 1.26822 0
M  V30 605 C 53.4666 2.60393 2.23719 0
M  V30 606 C 52.5526 3.7719 1.93877 0
M  V30 607 N 52.9436 4.87639 1.34321 0
M  V30 608 C 51.2416 3.85758 2.23845 0
M  V30 609 C 51.9426 5.68825 1.21709 0
M  V30 610 N 50.9186 5.1587 1.71404 0
M  V30 611 H 54.7206 2.89773 0.490815 0
M  V30 612 H 52.2346 1.61492 0.171478 0
M  V30 613 H 54.2316 2.94088 2.95496 0
M  V30 614 H 52.8916 1.79031 2.70884 0
M  V30 615 H 53.9026 5.07803 1.01767 0
M  V30 616 H 50.5796 3.1531 2.73653 0
M  V30 617 H 51.9696 6.67631 0.75621 0
M  V30 618 N 54.6897 -0.239769 1.55765 0
M  V30 619 C 55.6217 -1.32001 1.87372 0
M  V30 620 C 56.6347 -1.43944 0.760522 0
M  V30 621 O 57.8237 -1.45167 1.0387 0
M  V30 622 C 54.9237 -2.69779 2.05115 0
M  V30 623 C 54.0967 -2.80014 3.36022 0
M  V30 624 C 53.1557 -3.98684 3.4342 0
M  V30 625 O 52.1817 -3.87877 4.16582 0
M  V30 626 N 53.3837 -5.12176 2.73232 0
M  V30 627 H 56.1487 -1.0522 2.80622 0
M  V30 628 H 53.7097 -0.429857 1.56089 0
M  V30 629 H 55.7017 -3.47517 2.07399 0
M  V30 630 H 54.2717 -2.89237 1.18577 0
M  V30 631 H 53.4917 -1.88896 3.45994 0
M  V30 632 H 54.7797 -2.83808 4.22292 0
M  V30 633 H 54.1777 -5.2385 2.13536 0
M  V30 634 H 52.7347 -5.88022 2.81199 0
M  V30 635 N 56.1678 -1.49265 -0.50573 0
M  V30 636 C 57.0978 -1.68495 -1.61653 0
M  V30 637 C 58.0788 -0.53366 -1.61512 0
M  V30 638 O 59.2638 -0.76897 -1.78327 0
M  V30 639 C 56.3938 -1.74709 -3.00157 0
M  V30 640 C 55.3478 -2.89581 -3.15162 0
M  V30 641 C 54.6738 -2.80903 -4.5497 0
M  V30 642 C 55.9738 -4.30578 -2.95634 0
M  V30 643 H 57.6678 -2.61493 -1.45814 0
M  V30 644 H 55.2138 -1.25838 -0.70005 0
M  V30 645 H 57.1668 -1.86748 -3.77761 0
M  V30 646 H 55.8908 -0.783067 -3.17074 0
M  V30 647 H 54.5498 -2.77136 -2.39982 0
M  V30 648 H 54.1978 -1.82419 -4.68756 0
M  V30 649 H 53.8978 -3.57999 -4.65951 0
M  V30 650 H 55.4218 -2.94944 -5.34641 0
M  V30 651 H 56.8358 -4.4373 -3.63011 0
M  V30 652 H 55.2328 -5.0886 -3.18091 0
M  V30 653 H 56.3028 -4.45352 -1.91806 0
M  V30 654 N 57.6459 0.756429 -1.3826 0
M  V30 655 C 58.8939 1.51248 -1.34047 0
M  V30 656 C 59.2149 1.94875 0.0698372 0
M  V30 657 O 58.4849 1.67436 1.01696 0
M  V30 658 H 57.0649 0.561018 -0.493222 0
M  V30 659 H 59.7269 0.899347 -1.7291 0
M  V30 660 H 58.8229 2.40472 -1.98947 0
M  V30 661 N 59.124 1.23083 0.984299 0
M  V30 662 C 60.371 1.06057 1.72505 0
M  V30 663 C 60.699 -0.403105 1.90277 0
M  V30 664 O 59.954 -1.3149 1.44944 0
M  V30 665 C 60.253 1.72673 3.1292 0
M  V30 666 C 59.919 3.22586 3.15038 0
M  V30 667 C 58.581 3.63489 3.15324 0
M  V30 668 C 60.933 4.185 3.10657 0
M  V30 669 C 58.261 4.98772 3.08939 0
M  V30 670 C 60.613 5.53769 3.05814 0
M  V30 671 C 59.277 5.94041 3.04419 0
M  V30 672 H 58.547 0.388091 0.631242 0
M  V30 673 H 61.194 1.52963 1.15215 0
M  V30 674 H 59.499 1.18116 3.73572 0
M  V30 675 H 61.196 1.56982 3.68996 0
M  V30 676 H 57.786 2.90022 3.15571 0
M  V30 677 H 61.97 3.87911 3.09579 0
M  V30 678 H 57.226 5.29193 3.0621 0
M  V30 679 H 61.4 6.27808 3.0138 0
M  V30 680 H 59.027 6.98833 2.99227 0
M  V30 681 N 60.6021 -1.18246 1.0419 0
M  V30 682 C 61.5121 -2.25574 0.644476 0
M  V30 683 C 62.5281 -1.70845 -0.329826 0
M  V30 684 O 63.7041 -2.00554 -0.184443 0
M  V30 685 C 60.7691 -3.46697 0.014877 0
M  V30 686 C 59.8301 -4.16554 1.03834 0
M  V30 687 C 59.0631 -5.31894 0.438692 0
M  V30 688 O 59.2861 -5.65385 -0.754752 0
M  V30 689 O 58.2201 -5.90459 1.168 0
M  V30 690 H 62.0461 -2.61836 1.53869 0
M  V30 691 H 59.6311 -1.25352 0.812854 0
M  V30 692 H 61.5131 -4.20062 -0.335538 0
M  V30 693 H 60.1881 -3.12255 -0.853138 0
M  V30 694 H 59.0951 -3.45251 1.44057 0
M  V30 695 H 60.4281 -4.54998 1.87716 0
M  V30 696 N 62.0802 -0.821533 -1.34494 0
M  V30 697 C 63.3292 -0.405355 -1.97585 0
M  V30 698 C 63.6422 1.03677 -1.65863 0
M  V30 699 O 64.8482 1.55679 -2.22433 0
M  V30 700 C 63.3042 -0.673861 -3.53535 0
M  V30 701 C 62.9122 -2.12951 -3.94152 0
M  V30 702 C 64.6562 -0.32378 -4.23263 0
M  V30 703 C 62.5632 -2.34298 -5.43009 0
M  V30 704 H 61.4932 -0.147836 -0.739365 0
M  V30 705 H 64.1442 -1.00769 -1.53355 0
M  V30 706 H 62.5262 -0.00137554 -3.96 0
M  V30 707 H 63.7002 -2.84104 -3.62797 0
M  V30 708 H 62.0152 -2.44089 -3.37356 0
M  V30 709 H 64.6122 -0.461126 -5.32708 0
M  V30 710 H 64.9552 0.731586 -4.09821 0
M  V30 711 H 65.4882 -0.950786 -3.8627 0
M  V30 712 H 62.2272 -3.38335 -5.61435 0
M  V30 713 H 61.7472 -1.67687 -5.75883 0
M  V30 714 H 63.4262 -2.16588 -6.09671 0
M  V30 715 N 63.5583 1.46682 -0.576371 0
M  V30 716 C 64.8043 2.02712 -0.0596221 0
M  V30 717 C 65.1373 1.44765 1.29448 0
M  V30 718 O 64.4123 0.610355 1.84675 0
M  V30 719 C 64.6953 3.60098 0.0129503 0
M  V30 720 C 64.5483 4.28441 -1.3696 0
M  V30 721 C 65.8673 4.34224 0.71678 0
M  V30 722 H 62.9863 0.736637 -0.0231407 0
M  V30 723 H 65.6283 1.74898 -0.742351 0
M  V30 724 H 63.7783 3.83926 0.594378 0
M  V30 725 H 65.4503 4.15896 -1.9957 0
M  V30 726 H 63.6933 3.8805 -1.93907 0
M  V30 727 H 64.3643 5.3716 -1.27135 0
M  V30 728 H 66.8403 4.15503 0.222908 0
M  V30 729 H 65.7163 5.43936 0.73657 0
M  V30 730 H 65.9773 4.04823 1.77682 0
M  V30 731 N 65.0364 0.313813 1.54444 0
M  V30 732 C 66.2854 -0.292519 1.99568 0
M  V30 733 C 66.5984 -1.54011 1.20582 0
M  V30 734 O 67.8044 -2.22183 1.56035 0
M  V30 735 C 66.2604 -0.571752 3.55329 0
M  V30 736 C 65.8684 0.658229 4.43138 0
M  V30 737 C 67.6124 -1.13857 4.08946 0
M  V30 738 C 65.5194 0.351439 5.90355 0
M  V30 739 H 64.4494 -0.113079 0.745472 0
M  V30 740 H 67.1004 0.424518 1.78522 0
M  V30 741 H 65.4824 -1.34872 3.72325 0
M  V30 742 H 66.6564 1.43403 4.37918 0
M  V30 743 H 64.9714 1.14458 4.0036 0
M  V30 744 H 67.5684 -1.38257 5.16516 0
M  V30 745 H 67.9114 -2.08489 3.6033 0
M  V30 746 H 68.4444 -0.423015 3.95544 0
M  V30 747 H 65.1834 1.26667 6.43145 0
M  V30 748 H 64.7034 -0.386842 5.98551 0
M  V30 749 H 66.3824 -0.0423134 6.46986 0
M  V30 750 N 66.5145 -1.57545 0.0417849 0
M  V30 751 C 67.7395 -1.97035 -0.647455 0
M  V30 752 C 68.1645 -0.918775 -1.64135 0
M  V30 753 O 67.5225 0.119006 -1.80909 0
M  V30 754 C 67.5705 -3.35609 -1.31905 0
M  V30 755 O 66.6745 -3.3287 -2.43457 0
M  V30 756 H 66.0155 -0.64211 -0.169086 0
M  V30 757 H 68.5455 -2.04318 0.107399 0
M  V30 758 H 68.5555 -3.72126 -1.67291 0
M  V30 759 H 67.2305 -4.11685 -0.590586 0
M  V30 760 H 65.8075 -3.08087 -2.10088 0
M  V30 761 N 67.9926 0.231505 -1.5589 0
M  V30 762 C 69.2206 0.974505 -1.82513 0
M  V30 763 C 69.6356 1.78344 -0.619591 0
M  V30 764 O 68.9926 1.77792 0.411848 0
M  V30 765 C 69.0436 1.90007 -3.07538 0
M  V30 766 O 68.7646 1.12385 -4.2344 0
M  V30 767 C 70.2656 2.75779 -3.47075 0
M  V30 768 H 67.4856 0.286065 -0.606966 0
M  V30 769 H 70.0296 0.249739 -2.02969 0
M  V30 770 H 68.1846 2.57891 -2.89086 0
M  V30 771 H 68.5986 1.75125 -4.944 0
M  V30 772 H 70.0726 3.36443 -4.37619 0
M  V30 773 H 70.5496 3.47672 -2.68367 0
M  V30 774 H 71.1556 2.13323 -3.67931 0
M  V30 775 N 69.4707 1.49531 0.497807 0
M  V30 776 C 70.4337 1.65916 1.58128 0
M  V30 777 C 71.4337 0.530825 1.51786 0
M  V30 778 O 72.6237 0.797342 1.54881 0
M  V30 779 C 69.7557 1.65951 2.9778 0
M  V30 780 H 70.9487 2.62556 1.44929 0
M  V30 781 H 68.5017 1.38611 0.722275 0
M  V30 782 H 69.2367 0.709065 3.16453 0
M  V30 783 H 69.0217 2.47897 3.03792 0
M  V30 784 H 70.5117 1.80673 3.76493 0
M  V30 785 N 70.9488 -0.749086 1.3866 0
M  V30 786 C 72.3648 -1.05276 1.19955 0
M  V30 787 C 72.5648 -2.01435 0.05134 0
M  V30 788 O 71.6208 -2.45232 -0.60147 0
M  V30 789 C 72.9338 -1.62853 2.52783 0
M  V30 790 C 74.4818 -1.75002 2.59506 0
M  V30 791 C 74.9568 -2.35991 3.92521 0
M  V30 792 N 76.4478 -2.43416 3.94085 0
M  V30 793 C 77.1828 -2.91511 4.9377 0
M  V30 794 N 76.6788 -3.39608 6.03853 0
M  V30 795 N 78.4718 -2.90592 4.81157 0
M  V30 796 H 70.6228 -0.111066 2.12109 0
M  V30 797 H 72.8858 -0.111901 0.941373 0
M  V30 798 H 72.5918 -0.99664 3.37283 0
M  V30 799 H 72.4658 -2.61854 2.715 0
M  V30 800 H 74.8528 -2.37317 1.75398 0
M  V30 801 H 74.9338 -0.74693 2.44652 0
M  V30 802 H 74.5778 -1.74308 4.77053 0
M  V30 803 H 74.5078 -3.3695 4.04688 0
M  V30 804 H 76.9988 -2.09405 3.14576 0
M  V30 805 H 77.3118 -3.74775 6.75843 0
M  V30 806 H 75.6568 -3.37653 6.07466 0
M  V30 807 H 78.8478 -2.52332 3.94267 0
M  V30 808 H 79.0208 -3.27762 5.58996 0
M  V30 809 N 72.4269 -1.23603 -0.977757 0
M  V30 810 C 73.3749 -1.01704 -2.09187 0
M  V30 811 C 74.3689 0.0448214 -1.69341 0
M  V30 812 O 75.5749 -0.108902 -1.7967 0
M  V30 813 H 71.9499 -0.311803 -0.684312 0
M  V30 814 H 73.9209 -1.96207 -2.24823 0
M  V30 815 C 72.6699 -0.627746 -3.41986 0
M  V30 816 H 71.9929 -1.43656 -3.73099 0
M  V30 817 H 73.4329 -0.514053 -4.20872 0
M  V30 818 C 71.8919 0.664238 -3.30287 0
M  V30 819 O 72.4219 1.71268 -3.6336 0
M  V30 820 N 70.6279 0.641156 -2.83439 0
M  V30 821 H 70.1749 -0.212376 -2.56723 0
M  V30 822 H 70.1329 1.50583 -2.75993 0
M  V30 823 N 73.905 1.17692 -1.04816 0
M  V30 824 C 74.838 2.20436 -0.590173 0
M  V30 825 C 75.816 1.58115 0.379244 0
M  V30 826 O 77 1.86228 0.291762 0
M  V30 827 C 74.127 3.38424 0.136817 0
M  V30 828 C 73.173 4.19176 -0.787023 0
M  V30 829 S 74.006 4.84815 -2.27409 0
M  V30 830 C 75.162 6.06195 -1.55817 0
M  V30 831 H 75.395 2.58944 -1.46067 0
M  V30 832 H 72.928 1.28246 -0.859784 0
M  V30 833 H 74.886 4.06798 0.550076 0
M  V30 834 H 73.547 2.98312 0.983299 0
M  V30 835 H 72.74 5.03499 -0.224681 0
M  V30 836 H 72.342 3.56219 -1.13947 0
M  V30 837 H 74.634 6.72078 -0.855387 0
M  V30 838 H 75.577 6.6695 -2.37873 0
M  V30 839 H 75.985 5.54701 -1.04722 0
M  V30 840 N 75.3831 0.828654 1.34056 0
M  V30 841 C 76.7991 0.515135 1.51058 0
M  V30 842 C 76.9991 -0.959581 1.77184 0
M  V30 843 O 76.0551 -1.74382 1.82612 0
M  V30 844 C 77.3681 1.37963 2.67183 0
M  V30 845 C 78.9161 1.37735 2.81066 0
M  V30 846 C 79.3911 2.22645 4.00241 0
M  V30 847 N 80.8821 2.203 4.07458 0
M  V30 848 C 81.6171 2.82744 4.98842 0
M  V30 849 N 81.1131 3.54201 5.9541 0
M  V30 850 N 82.9061 2.72268 4.91759 0
M  V30 851 H 75.0571 1.78343 1.15358 0
M  V30 852 H 77.3201 0.760304 0.566252 0
M  V30 853 H 77.0261 2.42714 2.54525 0
M  V30 854 H 76.9001 1.0484 3.62338 0
M  V30 855 H 79.2871 0.337593 2.93163 0
M  V30 856 H 79.3681 1.74859 1.86703 0
M  V30 857 H 79.0121 3.26674 3.88905 0
M  V30 858 H 78.9421 1.82869 4.93829 0
M  V30 859 H 81.4331 1.68327 3.38341 0
M  V30 860 H 81.7461 3.9908 6.61782 0
M  V30 861 H 80.0911 3.58308 5.95517 0
M  V30 862 H 83.2821 2.16014 4.15278 0
M  V30 863 H 83.4551 3.21219 5.62781 0
M  V30 864 N 76.8612 -1.46375 0.584142 0
M  V30 865 C 78.0892 -2.06761 0.0759296 0
M  V30 866 C 78.5042 -1.43266 -1.22965 0
M  V30 867 O 77.8612 -0.538458 -1.74376 0
M  V30 868 C 77.9122 -3.61375 -0.0950384 0
M  V30 869 O 77.6332 -4.22495 1.15887 0
M  V30 870 C 79.1342 -4.38693 -0.637434 0
M  V30 871 H 76.3542 -0.668479 0.0581075 0
M  V30 872 H 78.8982 -1.8798 0.805218 0
M  V30 873 H 77.0532 -3.79578 -0.774554 0
M  V30 874 H 77.4672 -5.15385 0.973598 0
M  V30 875 H 78.9412 -5.47464 -0.706237 0
M  V30 876 H 79.4182 -4.06836 -1.65472 0
M  V30 877 H 80.0242 -4.25299 0.00725967 0
M  V30 878 N 78.3393 -0.321999 -1.54275 0
M  V30 879 C 79.5693 0.282642 -2.04658 0
M  V30 880 C 79.9773 1.46453 -1.19784 0
M  V30 881 O 79.3203 1.82367 -0.220932 0
M  V30 882 C 79.3823 0.781857 -3.50895 0
M  V30 883 C 79.0463 -0.277517 -4.56157 0
M  V30 884 C 80.0433 -1.11307 -5.07845 0
M  V30 885 C 77.7283 -0.425256 -5.00497 0
M  V30 886 C 79.7223 -2.08211 -6.02434 0
M  V30 887 C 77.4093 -1.39771 -5.94901 0
M  V30 888 C 78.4073 -2.2246 -6.45756 0
M  V30 889 O 78.0953 -3.18054 -7.38307 0
M  V30 890 H 77.8273 0.0622636 -0.673126 0
M  V30 891 H 80.3813 -0.465792 -2.00049 0
M  V30 892 H 78.6113 1.58118 -3.52896 0
M  V30 893 H 80.3003 1.30467 -3.84361 0
M  V30 894 H 81.0663 -1.00991 -4.74369 0
M  V30 895 H 76.9453 0.20847 -4.60528 0
M  V30 896 H 80.4893 -2.72791 -6.42052 0
M  V30 897 H 76.3863 -1.50152 -6.27794 0
M  V30 898 H 77.1543 -3.13275 -7.56175 0
M  V30 899 N 79.8174 1.5752 -0.0501392 0
M  V30 900 C 80.7274 2.14952 0.939827 0
M  V30 901 C 81.7434 1.10706 1.34239 0
M  V30 902 O 82.9194 1.42869 1.41952 0
M  V30 903 C 79.9844 2.68232 2.19665 0
M  V30 904 C 79.0454 3.87272 1.85253 0
M  V30 905 C 78.2784 4.38002 3.04943 0
M  V30 906 O 78.5014 3.87811 4.18281 0
M  V30 907 O 77.4354 5.29602 2.86017 0
M  V30 908 H 81.2614 2.9986 0.481392 0
M  V30 909 H 78.8464 1.4841 0.171699 0
M  V30 910 H 80.7284 3.02475 2.93406 0
M  V30 911 H 79.4034 1.86395 2.64648 0
M  V30 912 H 78.3104 3.5792 1.0883 0
M  V30 913 H 79.6434 4.70336 1.4507 0
M  V30 914 N 81.2955 -0.223234 1.56011 0
M  V30 915 C 82.5435 -0.946003 1.78592 0
M  V30 916 C 82.8645 -1.84936 0.618349 0
M  V30 917 O 82.1345 -1.92473 -0.364833 0
M  V30 918 H 80.7145 -0.352298 0.658707 0
M  V30 919 H 83.3765 -0.235494 1.93472 0
M  V30 920 H 82.4725 -1.55381 2.70672 0
M  V30 921 N 82.7736 -1.49793 -0.48987 0
M  V30 922 C 83.7216 -1.67783 -1.61095 0
M  V30 923 C 84.7156 -0.543683 -1.60438 0
M  V30 924 O 85.9216 -0.723647 -1.64813 0
M  V30 925 H 82.2966 -0.529255 -0.534222 0
M  V30 926 H 84.2676 -2.61861 -1.43078 0
M  V30 927 C 83.0166 -1.77191 -2.99164 0
M  V30 928 H 82.3396 -2.63841 -3.0038 0
M  V30 929 H 83.7796 -1.93809 -3.77113 0
M  V30 930 C 82.2386 -0.519203 -3.32875 0
M  V30 931 O 82.7686 0.350124 -4.00171 0
M  V30 932 N 80.9746 -0.378816 -2.8812 0
M  V30 933 H 80.5216 -1.08725 -2.33531 0
M  V30 934 H 80.4796 0.458239 -3.11043 0
M  V30 935 N 84.2517 0.741722 -1.39055 0
M  V30 936 C 85.4977 1.50336 -1.36113 0
M  V30 937 C 85.8307 1.94148 0.0450796 0
M  V30 938 O 85.1057 1.66301 1.00868 0
M  V30 939 C 85.3887 2.74773 -2.32749 0
M  V30 940 C 85.2417 2.37023 -3.82283 0
M  V30 941 C 86.5607 3.76846 -2.27322 0
M  V30 942 H 83.6797 0.545351 -0.495743 0
M  V30 943 H 86.3217 0.848624 -1.69995 0
M  V30 944 H 84.4717 3.30639 -2.03986 0
M  V30 945 H 86.1437 1.8684 -4.21768 0
M  V30 946 H 84.3867 1.69334 -3.99385 0
M  V30 947 H 85.0577 3.26104 -4.45376 0
M  V30 948 H 87.5337 3.30548 -2.5274 0
M  V30 949 H 86.4097 4.6159 -2.97028 0
M  V30 950 H 86.6707 4.23286 -1.27599 0
M  V30 951 N 85.7298 1.2412 0.971189 0
M  V30 952 C 86.9778 1.07668 1.71032 0
M  V30 953 C 87.2988 -0.385797 1.91146 0
M  V30 954 O 86.5688 -1.27569 1.4867 0
M  V30 955 H 85.1488 0.395429 0.633755 0
M  V30 956 H 87.8108 1.55984 1.16855 0
M  V30 957 H 86.9068 1.57195 2.69622 0
M  V30 958 N 87.2079 -1.17134 1.05439 0
M  V30 959 C 88.1549 -2.21235 0.657539 0
M  V30 960 C 89.1249 -1.62551 -0.341543 0
M  V30 961 O 90.3099 -1.89379 -0.232393 0
M  V30 962 C 87.4499 -3.45076 0.0410575 0
M  V30 963 C 86.5629 -4.18042 1.08927 0
M  V30 964 C 85.6979 -5.29376 0.439848 0
M  V30 965 C 84.7369 -5.94132 1.4722 0
M  V30 966 N 83.8739 -6.96975 0.846756 0
M  V30 967 H 88.7139 -2.54534 1.54972 0
M  V30 968 H 86.2509 -1.25028 0.775006 0
M  V30 969 H 88.2089 -4.15862 -0.33383 0
M  V30 970 H 86.8389 -3.12353 -0.814568 0
M  V30 971 H 85.8909 -3.45945 1.58196 0
M  V30 972 H 87.2029 -4.62306 1.87282 0
M  V30 973 H 86.3569 -6.06699 0.0115125 0
M  V30 974 H 85.0959 -4.86251 -0.375656 0
M  V30 975 H 84.1009 -5.15538 1.91052 0
M  V30 976 H 85.3259 -6.39337 2.28965 0
M  V30 977 H 83.2719 -6.5598 0.0518075 0
M  V30 978 H 83.1889 -7.39565 1.5678 0
M  V30 979 H 84.4569 -7.78239 0.443277 0
M  V30 980 N 88.686 -0.835752 -1.33615 0
M  V30 981 C 89.935 -0.426289 -1.97144 0
M  V30 982 C 90.248 1.01912 -1.66953 0
M  V30 983 O 91.454 1.53311 -2.24072 0
M  V30 984 C 89.91 -0.711321 -3.52801 0
M  V30 985 C 89.518 -2.1712 -3.91871 0
M  V30 986 C 91.262 -0.368654 -4.22896 0
M  V30 987 C 89.169 -2.40044 -5.40493 0
M  V30 988 H 88.099 -0.15567 -0.737755 0
M  V30 989 H 90.75 -1.0239 -1.52278 0
M  V30 990 H 89.132 -0.0433766 -3.95976 0
M  V30 991 H 90.306 -2.87936 -3.59763 0
M  V30 992 H 88.621 -2.47654 -3.34749 0
M  V30 993 H 91.218 -0.517601 -5.32189 0
M  V30 994 H 91.561 0.688078 -4.10574 0
M  V30 995 H 92.094 -0.991702 -3.8524 0
M  V30 996 H 88.833 -3.44271 -5.57815 0
M  V30 997 H 88.353 -1.73785 -5.74072 0
M  V30 998 H 90.032 -2.23042 -6.0734 0
M  V30 999 N 90.1641 1.46063 -0.591896 0
M  V30 1000 C 91.1121 2.32124 0.148739 0
M  V30 1001 C 92.1061 1.45035 0.875286 0
M  V30 1002 O 93.3121 1.61609 0.792632 0
M  V30 1003 H 89.6871 0.749024 0.066832 0
M  V30 1004 H 91.6581 2.92392 -0.595783 0
M  V30 1005 C 90.4071 3.28373 1.1431 0
M  V30 1006 H 89.7301 3.95371 0.59346 0
M  V30 1007 H 91.1701 3.91352 1.63155 0
M  V30 1008 C 89.6291 2.54393 2.20875 0
M  V30 1009 O 90.1591 2.31373 3.28374 0
M  V30 1010 N 88.3651 2.14797 1.95731 0
M  V30 1011 H 87.9121 2.33719 1.08319 0
M  V30 1012 H 87.8701 1.65619 2.67241 0
M  V30 1013 N 91.6422 0.330177 1.54103 0
M  V30 1014 C 92.8912 -0.271336 1.99867 0
M  V30 1015 C 93.2042 -1.52723 1.22209 0
M  V30 1016 O 94.4102 -2.20515 1.58383 0
M  V30 1017 C 92.8662 -0.534032 3.55916 0
M  V30 1018 C 92.4742 0.705193 4.42415 0
M  V30 1019 C 94.2182 -1.09514 4.1013 0
M  V30 1020 C 92.1252 0.414035 5.89949 0
M  V30 1021 H 91.0552 -0.105166 0.74663 0
M  V30 1022 H 93.7062 0.443429 1.78062 0
M  V30 1023 H 92.0882 -1.30915 3.73734 0
M  V30 1024 H 93.2622 1.4804 4.36372 0
M  V30 1025 H 91.5772 1.18698 3.99124 0
M  V30 1026 H 94.1742 -1.3277 5.17954 0
M  V30 1027 H 94.5172 -2.04656 3.62521 0
M  V30 1028 H 95.0502 -0.381038 3.95971 0
M  V30 1029 H 91.7892 1.33481 6.41766 0
M  V30 1030 H 91.3092 -0.323336 5.98928 0
M  V30 1031 H 92.9882 0.0263105 6.46995 0
M  V30 1032 N 93.1203 -1.57491 0.0584922 0
M  V30 1033 C 94.0703 -2.08474 -0.923188 0
M  V30 1034 C 95.0543 -0.991479 -1.26722 0
M  V30 1035 O 96.2463 -1.25473 -1.24842 0
M  V30 1036 C 93.3753 -2.6392 -2.19548 0
M  V30 1037 C 92.4613 -3.80227 -1.87852 0
M  V30 1038 N 92.8523 -4.89714 -1.26546 0
M  V30 1039 C 91.1503 -3.89271 -2.17679 0
M  V30 1040 C 91.8513 -5.70689 -1.12644 0
M  V30 1041 N 90.8273 -5.18531 -1.63176 0
M  V30 1042 H 94.6293 -2.90517 -0.444653 0
M  V30 1043 H 92.1433 -1.61745 -0.145764 0
M  V30 1044 H 94.1403 -2.98752 -2.9078 0
M  V30 1045 H 92.8003 -1.83318 -2.68001 0
M  V30 1046 H 93.8113 -5.09358 -0.936757 0
M  V30 1047 H 90.4883 -3.19623 -2.68602 0
M  V30 1048 H 91.8783 -6.6875 -0.6499 0
M  V30 1049 N 94.5984 0.214957 -1.56127 0
M  V30 1050 C 95.8264 0.955092 -1.83536 0
M  V30 1051 C 96.2414 1.77677 -0.638472 0
M  V30 1052 O 95.5984 1.78219 0.392968 0
M  V30 1053 C 95.6494 1.86734 -3.09536 0
M  V30 1054 O 95.3704 1.07887 -4.24608 0
M  V30 1055 C 96.8714 2.72082 -3.4998 0
M  V30 1056 H 94.0914 0.279611 -0.609966 0
M  V30 1057 H 96.6354 0.228197 -2.03223 0
M  V30 1058 H 94.7904 2.5481 -2.91806 0
M  V30 1059 H 95.2044 1.69872 -4.9623 0
M  V30 1060 H 96.6784 3.31782 -4.41163 0
M  V30 1061 H 97.1554 3.44806 -2.7204 0
M  V30 1062 H 97.7614 2.09409 -3.70173 0
M  V30 1063 N 96.0765 1.50051 0.48192 0
M  V30 1064 C 97.0065 1.71046 1.58951 0
M  V30 1065 C 97.9875 0.559288 1.60642 0
M  V30 1066 O 99.1725 0.797243 1.77081 0
M  V30 1067 C 96.3025 1.79462 2.97339 0
M  V30 1068 C 95.2565 2.94558 3.10515 0
M  V30 1069 C 94.5825 2.88105 4.50444 0
M  V30 1070 C 95.8825 4.35227 2.88747 0
M  V30 1071 H 97.5765 2.6378 1.41635 0
M  V30 1072 H 95.1225 1.26936 0.679942 0
M  V30 1073 H 97.0755 1.92734 3.74742 0
M  V30 1074 H 95.7995 0.833412 3.15788 0
M  V30 1075 H 94.4585 2.80918 2.35543 0
M  V30 1076 H 94.1065 1.89853 4.65795 0
M  V30 1077 H 93.8065 3.65366 4.60197 0
M  V30 1078 H 95.3305 3.03412 5.29881 0
M  V30 1079 H 96.7445 4.49449 3.55905 0
M  V30 1080 H 95.1415 5.13856 3.09955 0
M  V30 1081 H 96.2115 4.48347 1.84696 0
M  V30 1082 N 97.5546 -0.734337 1.39446 0
M  V30 1083 C 98.9656 -1.31264 1.32766 0
M  V30 1084 C 99.3166 -1.96198 -0.00767497 0
M  V30 1085 O 98.4416 -1.96346 -0.909796 0
M  V30 1086 C 99.0366 -2.38682 2.4045 0
M  V30 1087 C 97.5956 -2.92184 2.37288 0
M  V30 1088 C 96.7426 -1.6576 2.22304 0
M  V30 1089 H 99.6936 -0.531799 1.49525 0
M  V30 1090 H 99.7146 -3.19087 2.07276 0
M  V30 1091 H 99.2266 -1.91392 3.37625 0
M  V30 1092 H 97.3276 -3.43752 1.43754 0
M  V30 1093 H 97.4406 -3.45253 3.3217 0
M  V30 1094 H 95.8046 -1.9012 1.69489 0
M  V30 1095 H 96.5876 -1.20521 3.21449 0
M  V30 1096 N 99.0327 -1.24633 -0.964593 0
M  V30 1097 C 100.282 -1.08188 -1.7023 0
M  V30 1098 C 100.595 0.37873 -1.91898 0
M  V30 1099 O 101.801 0.663427 -2.6327 0
M  V30 1100 C 100.257 -1.88773 -3.06419 0
M  V30 1101 C 99.8647 -3.39263 -2.92582 0
M  V30 1102 C 101.609 -1.80867 -3.84041 0
M  V30 1103 C 99.5157 -4.1218 -4.24101 0
M  V30 1104 H 98.4457 -0.401245 -0.638372 0
M  V30 1105 H 101.097 -1.48742 -1.07462 0
M  V30 1106 H 99.4787 -1.41035 -3.70034 0
M  V30 1107 H 100.653 -3.94603 -2.37961 0
M  V30 1108 H 98.9677 -3.48154 -2.28424 0
M  V30 1109 H 101.565 -2.32646 -4.81435 0
M  V30 1110 H 101.908 -0.774543 -4.09031 0
M  V30 1111 H 102.441 -2.26301 -3.27159 0
M  V30 1112 H 99.1797 -5.15965 -4.04303 0
M  V30 1113 H 98.6997 -3.61626 -4.78526 0
M  V30 1114 H 100.379 -4.19349 -4.92702 0
M  V30 1115 N 100.511 1.16574 -1.06058 0
M  V30 1116 C 101.76 1.86385 -0.770944 0
M  V30 1117 C 102.073 1.82448 0.705129 0
M  V30 1118 O 103.279 2.47815 1.10905 0
M  V30 1119 C 101.735 3.34466 -1.32893 0
M  V30 1120 C 101.343 3.46883 -2.83507 0
M  V30 1121 C 103.087 4.09548 -1.11672 0
M  V30 1122 C 100.994 4.89036 -3.32562 0
M  V30 1123 H 99.9238 0.698181 -0.284709 0
M  V30 1124 H 102.575 1.31583 -1.27899 0
M  V30 1125 H 100.957 3.88859 -0.748662 0
M  V30 1126 H 102.131 3.02663 -3.47465 0
M  V30 1127 H 100.446 2.85232 -3.03368 0
M  V30 1128 H 103.043 5.14434 -1.45814 0
M  V30 1129 H 103.386 4.16264 -0.0549535 0
M  V30 1130 H 103.919 3.61387 -1.66265 0
M  V30 1131 H 100.658 4.87499 -4.38207 0
M  V30 1132 H 100.178 5.3389 -2.73351 0
M  V30 1133 H 101.857 5.57843 -3.2775 0
M  V30 1134 N 101.989 0.842826 1.3317 0
M  V30 1135 C 103.217 0.454055 2.01856 0
M  V30 1136 C 103.632 -0.94587 1.63397 0
M  V30 1137 O 102.989 -1.61534 0.849302 0
M  V30 1138 C 103.04 0.569715 3.56982 0
M  V30 1139 O 102.761 1.91448 3.94055 0
M  V30 1140 C 104.262 0.178412 4.42941 0
M  V30 1141 H 101.482 0.17979 0.646465 0
M  V30 1142 H 104.026 1.1365 1.70012 0
M  V30 1143 H 102.181 -0.0648587 3.87346 0
M  V30 1144 H 102.595 1.90282 4.88767 0
M  V30 1145 H 104.069 0.310376 5.51127 0
M  V30 1146 H 104.546 -0.880056 4.30293 0
M  V30 1147 H 105.152 0.787579 4.17944 0
M  V30 1148 N 103.467 -1.45747 0.599634 0
M  V30 1149 C 104.377 -2.34262 -0.125888 0
M  V30 1150 C 105.393 -1.50768 -0.868625 0
M  V30 1151 O 106.569 -1.83592 -0.828003 0
M  V30 1152 C 103.634 -3.28252 -1.11587 0
M  V30 1153 C 102.695 -4.27651 -0.375956 0
M  V30 1154 C 101.928 -5.1715 -1.31877 0
M  V30 1155 O 102.151 -5.09916 -2.55621 0
M  V30 1156 O 101.085 -5.96286 -0.820157 0
M  V30 1157 H 104.911 -2.97688 0.601315 0
M  V30 1158 H 102.496 -1.44999 0.359934 0
M  V30 1159 H 104.378 -3.86191 -1.68626 0
M  V30 1160 H 103.053 -2.67401 -1.82424 0
M  V30 1161 H 101.96 -3.7335 0.236698 0
M  V30 1162 H 103.293 -4.91334 0.29177 0
M  V30 1163 N 104.945 -0.338344 -1.53925 0
M  V30 1164 C 106.191 0.252842 -2.01822 0
M  V30 1165 C 106.546 1.48612 -1.22197 0
M  V30 1166 O 105.839 1.89238 -0.299892 0
M  V30 1167 C 106.033 0.62448 -3.51902 0
M  V30 1168 C 105.862 -0.571235 -4.46057 0
M  V30 1169 C 104.632 -1.07493 -4.93734 0
M  V30 1170 C 106.83 -1.42807 -4.94076 0
M  V30 1171 N 104.812 -2.23351 -5.71828 0
M  V30 1172 C 106.183 -2.43362 -5.70241 0
M  V30 1173 C 108.238 -1.45412 -4.76193 0
M  V30 1174 C 106.941 -3.46346 -6.30426 0
M  V30 1175 C 108.967 -2.47274 -5.37224 0
M  V30 1176 C 108.329 -3.46555 -6.13253 0
M  V30 1177 H 104.428 0.0559669 -0.779995 0
M  V30 1178 H 107.012 -0.476732 -1.88773 0
M  V30 1179 H 105.183 1.32317 -3.65167 0
M  V30 1180 H 106.915 1.19841 -3.86549 0
M  V30 1181 H 103.67 -0.643848 -4.69203 0
M  V30 1182 H 104.094 -2.81834 -6.15548 0
M  V30 1183 H 108.736 -0.700171 -4.16962 0
M  V30 1184 H 106.454 -4.22638 -6.88769 0
M  V30 1185 H 110.04 -2.50109 -5.25297 0
M  V30 1186 H 108.92 -4.24083 -6.59638 0
M  V30 1187 N 106.423 1.57458 -0.0668435 0
M  V30 1188 C 107.353 2.15468 0.899764 0
M  V30 1189 C 108.334 1.08042 1.31381 0
M  V30 1190 O 109.519 1.36054 1.38574 0
M  V30 1191 C 106.649 2.71232 2.16911 0
M  V30 1192 C 105.603 3.83781 1.89463 0
M  V30 1193 C 104.929 4.26127 3.22986 0
M  V30 1194 C 106.229 5.08238 1.20381 0
M  V30 1195 H 107.923 2.96488 0.416529 0
M  V30 1196 H 105.469 1.4262 0.198908 0
M  V30 1197 H 107.422 3.10458 2.84945 0
M  V30 1198 H 106.146 1.87426 2.67468 0
M  V30 1199 H 104.805 3.45051 1.23836 0
M  V30 1200 H 104.453 3.39249 3.71374 0
M  V30 1201 H 104.153 5.01993 3.05413 0
M  V30 1202 H 105.677 4.67966 3.92225 0
M  V30 1203 H 107.091 5.44811 1.78475 0
M  V30 1204 H 105.488 5.89349 1.13083 0
M  V30 1205 H 106.558 4.84558 0.182153 0
M  V30 1206 N 107.901 -0.206675 1.56239 0
M  V30 1207 C 109.178 -0.954051 1.70755 0
M  V30 1208 C 109.558 -2.01841 0.618353 0
M  V30 1209 O 108.906 -2.25444 -0.372434 0
M  V30 1210 C 109.116 -1.551 3.12642 0
M  V30 1211 C 110.464 -2.03757 3.72516 0
M  V30 1212 O 111.488 -1.64965 3.15698 0
M  V30 1213 O 110.347 -2.75103 4.72208 0
M  V30 1214 H 107.441 -0.446636 0.696021 0
M  V30 1215 H 109.987 -0.197283 1.68549 0
M  V30 1216 H 108.759 -0.783212 3.83382 0
M  V30 1217 H 108.382 -2.37291 3.19028 0
M  V30 1218 N 109.379 -1.50304 -0.473955 0
M  V30 1219 C 110.326 -1.68959 -1.57231 0
M  V30 1220 C 111.296 -0.530899 -1.57387 0
M  V30 1221 O 112.481 -0.761133 -1.74961 0
M  V30 1222 C 109.621 -1.7871 -2.95223 0
M  V30 1223 C 108.734 -3.06061 -3.04878 0
M  V30 1224 C 107.869 -3.06626 -4.33767 0
M  V30 1225 C 106.908 -4.28443 -4.37154 0
M  V30 1226 N 106.045 -4.26763 -5.5751 0
M  V30 1227 H 110.885 -2.6273 -1.40631 0
M  V30 1228 H 108.422 -1.30241 -0.683789 0
M  V30 1229 H 110.38 -1.82344 -3.75242 0
M  V30 1230 H 109.01 -0.883806 -3.10465 0
M  V30 1231 H 108.062 -3.11911 -2.17751 0
M  V30 1232 H 109.374 -3.96039 -3.0324 0
M  V30 1233 H 108.528 -3.08973 -5.22131 0
M  V30 1234 H 107.267 -2.14473 -4.3801 0
M  V30 1235 H 106.272 -4.2631 -3.47188 0
M  V30 1236 H 107.497 -5.2182 -4.34605 0
M  V30 1237 H 105.443 -3.37462 -5.62544 0
M  V30 1238 H 105.36 -5.10507 -5.57601 0
M  V30 1239 H 106.628 -4.33253 -6.48006 0
M  V30 1240 N 110.857 0.726932 -1.39834 0
M  V30 1241 C 111.807 1.83232 -1.35683 0
M  V30 1242 C 112.791 1.59155 -0.236295 0
M  V30 1243 O 113.983 1.70522 -0.474488 0
M  V30 1244 C 111.112 3.21246 -1.21062 0
M  V30 1245 C 110.198 3.51125 -2.37849 0
M  V30 1246 N 110.589 3.51889 -3.63329 0
M  V30 1247 C 108.887 3.81527 -2.30982 0
M  V30 1248 C 109.588 3.79791 -4.40606 0
M  V30 1249 N 108.564 3.97971 -3.70297 0
M  V30 1250 H 112.366 1.8214 -2.30656 0
M  V30 1251 H 109.88 0.925545 -1.33444 0
M  V30 1252 H 111.877 4.00387 -1.16171 0
M  V30 1253 H 110.537 3.23572 -0.270458 0
M  V30 1254 H 111.548 3.33008 -3.96643 0
M  V30 1255 H 108.225 3.91411 -1.45272 0
M  V30 1256 H 109.615 3.86783 -5.49408 0
M  V30 1257 N 112.336 1.25143 0.95797 0
M  V30 1258 C 113.268 1.01023 2.05735 0
M  V30 1259 C 114.281 -0.0236902 1.62783 0
M  V30 1260 O 115.47 0.21448 1.77207 0
M  V30 1261 C 112.57 0.504595 3.35122 0
M  V30 1262 C 111.743 1.6039 4.06932 0
M  V30 1263 C 110.802 1.09922 5.14591 0
M  V30 1264 O 109.828 1.79293 5.40225 0
M  V30 1265 N 111.03 -0.0612545 5.80468 0
M  V30 1266 H 113.795 1.95683 2.26998 0
M  V30 1267 H 111.356 1.16303 1.12629 0
M  V30 1268 H 113.348 0.151516 4.04416 0
M  V30 1269 H 111.918 -0.347989 3.10657 0
M  V30 1270 H 111.138 2.12872 3.31782 0
M  V30 1271 H 112.426 2.34252 4.51667 0
M  V30 1272 H 111.824 -0.640985 5.62057 0
M  V30 1273 H 110.381 -0.355395 6.5083 0
M  V30 1274 N 113.814 -1.1601 1.06675 0
M  V30 1275 C 115.06 -1.86909 0.786945 0
M  V30 1276 C 115.393 -1.81717 -0.685018 0
M  V30 1277 O 114.668 -1.23551 -1.50218 0
M  V30 1278 C 114.951 -3.36313 1.28707 0
M  V30 1279 C 114.804 -3.50175 2.82308 0
M  V30 1280 C 116.123 -4.3084 0.898071 0
M  V30 1281 H 113.242 -0.678677 0.287343 0
M  V30 1282 H 115.884 -1.36336 1.32334 0
M  V30 1283 H 114.034 -3.79513 0.830768 0
M  V30 1284 H 115.706 -3.15886 3.36175 0
M  V30 1285 H 113.949 -2.91959 3.20847 0
M  V30 1286 H 114.62 -4.55116 3.12368 0
M  V30 1287 H 117.096 -3.95561 1.29114 0
M  V30 1288 H 115.972 -5.33876 1.27543 0
M  V30 1289 H 116.233 -4.41662 -0.196651 0
M  V30 1290 N 115.292 -0.849877 -1.32721 0
M  V30 1291 C 116.703 -0.506188 -1.79707 0
M  V30 1292 C 117.054 0.975627 -1.70223 0
M  V30 1293 O 116.179 1.76078 -1.25799 0
M  V30 1294 C 116.774 -0.912044 -3.26293 0
M  V30 1295 C 115.333 -0.620326 -3.71253 0
M  V30 1296 C 114.48 -1.11439 -2.53922 0
M  V30 1297 H 117.431 -1.03754 -1.20087 0
M  V30 1298 H 117.452 -0.226493 -3.79825 0
M  V30 1299 H 116.964 -1.99057 -3.33164 0
M  V30 1300 H 115.065 0.447674 -3.69901 0
M  V30 1301 H 115.178 -1.18327 -4.64258 0
M  V30 1302 H 113.542 -0.534834 -2.49021 0
M  V30 1303 H 114.325 -2.19992 -2.6355 0
M  V30 1304 N 116.77 1.45427 -0.607355 0
M  V30 1305 C 118 2.06314 -0.108656 0
M  V30 1306 C 118.408 1.45269 1.21217 0
M  V30 1307 O 117.751 0.561115 1.74921 0
M  V30 1308 C 117.813 3.59345 0.105618 0
M  V30 1309 C 117.477 4.42723 -1.13337 0
M  V30 1310 C 118.474 4.77715 -2.05145 0
M  V30 1311 C 116.159 4.83478 -1.36213 0
M  V30 1312 C 118.153 5.52317 -3.18158 0
M  V30 1313 C 115.84 5.57835 -2.49527 0
M  V30 1314 C 116.838 5.92171 -3.40327 0
M  V30 1315 O 116.526 6.65019 -4.51669 0
M  V30 1316 H 116.258 0.672782 -0.0658842 0
M  V30 1317 H 118.812 1.87664 -0.834945 0
M  V30 1318 H 117.042 3.76394 0.886796 0
M  V30 1319 H 118.731 4.02076 0.555886 0
M  V30 1320 H 119.497 4.46787 -1.88697 0
M  V30 1321 H 115.376 4.56188 -0.664362 0
M  V30 1322 H 118.92 5.79036 -3.89054 0
M  V30 1323 H 114.817 5.88177 -2.65928 0
M  V30 1324 H 115.585 6.83469 -4.50348 0
M  V30 1325 N 118.248 0.346503 1.53744 0
M  V30 1326 C 119.525 -0.304532 1.93215 0
M  V30 1327 C 119.905 -1.67993 1.27834 0
M  V30 1328 O 119.253 -2.24411 0.430352 0
M  V30 1329 C 119.463 -0.373852 3.46992 0
M  V30 1330 C 120.811 -0.62329 4.2 0
M  V30 1331 O 121.835 -0.455847 3.53271 0
M  V30 1332 O 120.694 -0.947879 5.38217 0
M  V30 1333 H 117.788 -0.178318 0.807547 0
M  V30 1334 H 120.334 0.397895 1.64969 0
M  V30 1335 H 119.106 0.591224 3.86808 0
M  V30 1336 H 118.729 -1.12294 3.81413 0
M  V30 1337 N 119.726 -1.57421 0.075193 0
M  V30 1338 C 120.636 -2.1642 -0.905511 0
M  V30 1339 C 121.652 -1.12828 -1.32461 0
M  V30 1340 O 122.828 -1.45109 -1.39661 0
M  V30 1341 C 119.893 -2.71693 -2.15369 0
M  V30 1342 C 118.954 -3.90171 -1.79068 0
M  V30 1343 C 118.187 -4.42798 -2.97936 0
M  V30 1344 O 118.41 -3.94416 -4.12058 0
M  V30 1345 O 117.344 -5.34085 -2.77555 0
M  V30 1346 H 121.17 -3.00588 -0.433626 0
M  V30 1347 H 118.755 -1.48664 -0.148067 0
M  V30 1348 H 120.637 -3.07104 -2.88557 0
M  V30 1349 H 119.312 -1.90582 -2.61649 0
M  V30 1350 H 118.219 -3.59606 -1.03122 0
M  V30 1351 H 119.552 -4.72584 -1.37569 0
M  V30 1352 N 121.204 0.198386 -1.56346 0
M  V30 1353 C 122.453 0.917451 -1.79627 0
M  V30 1354 C 122.766 1.8456 -0.64784 0
M  V30 1355 O 123.972 2.60504 -0.764859 0
M  V30 1356 C 122.428 1.68175 -3.18191 0
M  V30 1357 C 122.036 0.798589 -4.40825 0
M  V30 1358 C 123.78 2.39065 -3.50782 0
M  V30 1359 C 121.687 1.56157 -5.70411 0
M  V30 1360 H 120.617 0.346317 -0.669762 0
M  V30 1361 H 123.268 0.170801 -1.82703 0
M  V30 1362 H 121.65 2.47216 -3.09354 0
M  V30 1363 H 122.824 0.0470665 -4.60776 0
M  V30 1364 H 121.139 0.200686 -4.15916 0
M  V30 1365 H 123.736 2.96692 -4.44835 0
M  V30 1366 H 124.079 3.13091 -2.74371 0
M  V30 1367 H 124.612 1.66993 -3.61052 0
M  V30 1368 H 121.351 0.864142 -6.49779 0
M  V30 1369 H 120.871 2.2871 -5.54483 0
M  V30 1370 H 122.55 2.11622 -6.11412 0
M  V30 1371 N 122.682 1.50554 0.465978 0
M  V30 1372 C 123.612 1.72722 1.57128 0
M  V30 1373 C 124.593 0.576294 1.6004 0
M  V30 1374 O 125.778 0.81598 1.76225 0
M  V30 1375 C 122.908 1.82605 2.95419 0
M  V30 1376 C 121.862 2.97835 3.07373 0
M  V30 1377 C 121.188 2.92867 4.47363 0
M  V30 1378 C 122.488 4.38265 2.84114 0
M  V30 1379 H 124.182 2.65267 1.38829 0
M  V30 1380 H 121.728 1.2765 0.666441 0
M  V30 1381 H 123.681 1.96698 3.72677 0
M  V30 1382 H 122.405 0.866858 3.14886 0
M  V30 1383 H 121.064 2.83401 2.3255 0
M  V30 1384 H 120.712 1.94783 4.63755 0
M  V30 1385 H 120.412 3.70227 4.56296 0
M  V30 1386 H 121.936 3.09015 5.26633 0
M  V30 1387 H 123.35 4.53198 3.51118 0
M  V30 1388 H 121.747 5.17115 3.04487 0
M  V30 1389 H 122.817 4.50281 1.7993 0
M  V30 1390 N 124.16 -0.719506 1.40217 0
M  V30 1391 C 125.406 -1.48152 1.38488 0
M  V30 1392 C 125.739 -1.94195 -0.0141867 0
M  V30 1393 O 125.014 -1.67884 -0.982096 0
M  V30 1394 C 125.297 -2.71035 2.37091 0
M  V30 1395 C 125.15 -2.30912 3.86005 0
M  V30 1396 C 126.469 -3.73182 2.33288 0
M  V30 1397 H 123.588 -0.537395 0.504357 0
M  V30 1398 H 126.23 -0.821472 1.71324 0
M  V30 1399 H 124.38 -3.27352 2.0922 0
M  V30 1400 H 126.052 -1.80107 4.24687 0
M  V30 1401 H 124.295 -1.62958 4.02029 0
M  V30 1402 H 124.966 -3.18978 4.50508 0
M  V30 1403 H 127.442 -3.26485 2.57966 0
M  V30 1404 H 126.318 -4.56806 3.04334 0
M  V30 1405 H 126.579 -4.21202 1.34317 0
M  V30 1406 N 125.638 -1.25649 -0.95132 0
M  V30 1407 C 126.886 -1.10375 -1.69298 0
M  V30 1408 C 127.207 0.355339 -1.91735 0
M  V30 1409 O 126.477 1.25188 -1.50681 0
M  V30 1410 H 125.057 -0.405461 -0.627384 0
M  V30 1411 H 127.719 -1.57823 -1.14358 0
M  V30 1412 H 126.815 -1.61465 -2.67087 0
M  V30 1413 N 127.117 1.15442 -1.07289 0
M  V30 1414 C 128.064 2.20161 -0.692653 0
M  V30 1415 C 129.034 1.63073 0.31564 0
M  V30 1416 O 130.219 1.89725 0.202235 0
M  V30 1417 C 127.359 3.44967 -0.0959509 0
M  V30 1418 C 126.472 4.16256 -1.15564 0
M  V30 1419 C 125.607 5.28609 -0.524011 0
M  V30 1420 C 124.646 5.91715 -1.56653 0
M  V30 1421 N 123.783 6.9554 -0.957531 0
M  V30 1422 H 128.623 2.52037 -1.59002 0
M  V30 1423 H 126.16 1.2378 -0.794798 0
M  V30 1424 H 128.118 4.16341 0.267628 0
M  V30 1425 H 126.748 3.1361 0.764772 0
M  V30 1426 H 125.8 3.43385 -1.6368 0
M  V30 1427 H 127.112 4.59268 -1.94613 0
M  V30 1428 H 126.266 6.06604 -0.108032 0
M  V30 1429 H 125.005 4.86787 0.29825 0
M  V30 1430 H 124.01 5.12433 -1.9923 0
M  V30 1431 H 125.235 6.35614 -2.39107 0
M  V30 1432 H 123.181 6.55814 -0.156162 0
M  V30 1433 H 123.098 7.36977 -1.68526 0
M  V30 1434 H 124.366 7.77435 -0.567032 0
M  V30 1435 N 128.595 0.856903 1.32268 0
M  V30 1436 C 130.006 0.515711 1.79436 0
M  V30 1437 C 130.357 -0.966586 1.70738 0
M  V30 1438 O 129.482 -1.75409 1.26731 0
M  V30 1439 C 130.077 0.929335 3.25805 0
M  V30 1440 C 128.636 0.640006 3.70919 0
M  V30 1441 C 127.783 1.12784 2.53328 0
M  V30 1442 H 130.734 1.04389 1.19535 0
M  V30 1443 H 130.755 0.246633 3.797 0
M  V30 1444 H 130.267 2.00821 3.32103 0
M  V30 1445 H 128.368 -0.428051 3.70133 0
M  V30 1446 H 128.481 1.20788 4.63624 0
M  V30 1447 H 126.845 0.548033 2.48734 0
M  V30 1448 H 127.628 2.21387 2.62379 0
M  V30 1449 N 130.073 -1.45103 0.615059 0
M  V30 1450 C 131.319 -2.03035 0.121804 0
M  V30 1451 C 131.674 -1.47393 -1.23665 0
M  V30 1452 O 130.967 -0.642061 -1.80522 0
M  V30 1453 C 131.161 -3.57386 0.0318797 0
M  V30 1454 C 130.99 -4.28 1.38007 0
M  V30 1455 C 129.76 -4.65624 1.9627 0
M  V30 1456 C 131.958 -4.5948 2.31047 0
M  V30 1457 N 129.94 -5.21132 3.24492 0
M  V30 1458 C 131.311 -5.159 3.43872 0
M  V30 1459 C 133.366 -4.41423 2.30326 0
M  V30 1460 C 132.069 -5.56165 4.5615 0
M  V30 1461 C 134.095 -4.82726 3.41658 0
M  V30 1462 C 133.457 -5.39245 4.53205 0
M  V30 1463 H 129.556 -0.77702 0.0881159 0
M  V30 1464 H 132.14 -1.76819 0.815044 0
M  V30 1465 H 130.311 -3.83247 -0.630599 0
M  V30 1466 H 132.043 -4.01976 -0.468721 0
M  V30 1467 H 128.798 -4.49421 1.49392 0
M  V30 1468 H 129.222 -5.53377 3.90004 0
M  V30 1469 H 133.864 -3.97033 1.45343 0
M  V30 1470 H 131.582 -5.99517 5.41854 0
M  V30 1471 H 135.168 -4.7048 3.42257 0
M  V30 1472 H 134.048 -5.70616 5.37929 0
M  V30 1473 N 131.551 -0.354651 -1.53558 0
M  V30 1474 C 132.791 0.238651 -2.03002 0
M  V30 1475 C 133.155 1.46878 -1.23656 0
M  V30 1476 O 134.356 2.13699 -1.63053 0
M  V30 1477 C 132.627 0.534175 -3.53386 0
M  V30 1478 S 134.186 1.10271 -4.24719 0
M  V30 1479 H 131.004 0.0702908 -0.707517 0
M  V30 1480 H 133.606 -0.494987 -1.8913 0
M  V30 1481 H 132.31 -0.368765 -4.0874 0
M  V30 1482 H 131.841 1.29718 -3.71398 0
M  V30 1483 H 133.856 2.38772 -4.34974 0
M  V30 1484 N 133.029 1.57378 -0.0835403 0
M  V30 1485 C 134.277 1.93547 0.581718 0
M  V30 1486 C 134.598 0.96524 1.69435 0
M  V30 1487 O 133.868 0.0153369 1.95894 0
M  V30 1488 H 132.448 0.714521 0.217874 0
M  V30 1489 H 135.11 1.94366 -0.144158 0
M  V30 1490 H 134.206 2.95665 0.999423 0
M  V30 1491 N 134.507 -0.190092 1.56449 0
M  V30 1492 C 135.457 -1.23977 1.91347 0
M  V30 1493 C 136.441 -1.40747 0.779693 0
M  V30 1494 O 137.633 -1.43033 1.04262 0
M  V30 1495 C 134.762 -2.58347 2.26079 0
M  V30 1496 C 133.848 -2.4535 3.45925 0
M  V30 1497 N 134.239 -2.02039 4.63696 0
M  V30 1498 C 132.537 -2.76229 3.50162 0
M  V30 1499 C 133.238 -2.01053 5.4585 0
M  V30 1500 N 132.214 -2.42747 4.8639 0
M  V30 1501 H 136.016 -0.896318 2.79899 0
M  V30 1502 H 133.53 -0.398496 1.57435 0
M  V30 1503 H 135.527 -3.34173 2.49267 0
M  V30 1504 H 134.187 -2.93512 1.38856 0
M  V30 1505 H 135.198 -1.7267 4.88268 0
M  V30 1506 H 131.875 -3.15556 2.73369 0
M  V30 1507 H 133.265 -1.69426 6.50188 0
M  V30 1508 N 135.985 -1.50799 -0.457987 0
M  V30 1509 C 137.262 -1.52968 -1.21902 0
M  V30 1510 C 137.642 -0.281906 -2.09209 0
M  V30 1511 O 136.99 0.734076 -2.16388 0
M  V30 1512 C 137.2 -2.8326 -2.03875 0
M  V30 1513 C 138.548 -3.34425 -2.6162 0
M  V30 1514 O 139.572 -2.8467 -2.14106 0
M  V30 1515 O 138.431 -4.21188 -3.48228 0
M  V30 1516 H 135.525 -0.614129 -0.553873 0
M  V30 1517 H 138.071 -1.63098 -0.468739 0
M  V30 1518 H 136.843 -3.65543 -1.39621 0
M  V30 1519 H 136.466 -2.76195 -2.8601 0
M  V30 1520 N 137.463 0.71206 -1.40597 0
M  V30 1521 C 138.711 1.46907 -1.38791 0
M  V30 1522 C 139.032 1.94998 0.00780391 0
M  V30 1523 O 138.302 1.70587 0.963174 0
M  V30 1524 H 136.882 0.545043 -0.51082 0
M  V30 1525 H 139.544 0.843882 -1.75683 0
M  V30 1526 H 138.64 2.34021 -2.06496 0
M  V30 1527 N 138.941 1.26152 0.944643 0
M  V30 1528 C 140.188 1.11492 1.69044 0
M  V30 1529 C 140.516 -0.342366 1.91463 0
M  V30 1530 O 139.771 -1.26812 1.49054 0
M  V30 1531 C 140.07 1.82541 3.07268 0
M  V30 1532 C 139.736 3.32445 3.04616 0
M  V30 1533 C 138.398 3.73337 3.036 0
M  V30 1534 C 140.75 4.28171 2.97185 0
M  V30 1535 C 138.078 5.08348 2.92915 0
M  V30 1536 C 140.43 5.63218 2.88041 0
M  V30 1537 C 139.094 6.03426 2.85366 0
M  V30 1538 H 138.364 0.407977 0.618576 0
M  V30 1539 H 141.011 1.56551 1.10291 0
M  V30 1540 H 139.316 1.29941 3.69625 0
M  V30 1541 H 141.013 1.68642 3.63815 0
M  V30 1542 H 137.603 2.99915 3.06185 0
M  V30 1543 H 141.787 3.97563 2.97081 0
M  V30 1544 H 137.043 5.38667 2.89219 0
M  V30 1545 H 141.217 6.37078 2.81254 0
M  V30 1546 H 138.844 7.07999 2.76842 0
M  V30 1547 N 140.419 -1.14872 1.07899 0
M  V30 1548 C 141.649 -1.89386 0.825631 0
M  V30 1549 C 142.057 -1.78565 -0.625406 0
M  V30 1550 O 141.4 -1.13918 -1.44113 0
M  V30 1551 C 141.462 -3.40206 1.16191 0
M  V30 1552 C 141.126 -3.74812 2.61467 0
M  V30 1553 C 142.123 -3.75367 3.59716 0
M  V30 1554 C 139.808 -4.0495 2.97189 0
M  V30 1555 C 141.802 -4.05574 4.9172 0
M  V30 1556 C 139.489 -4.34821 4.29388 0
M  V30 1557 C 140.487 -4.35116 5.26463 0
M  V30 1558 O 140.175 -4.64267 6.56286 0
M  V30 1559 H 139.907 -0.606894 0.297751 0
M  V30 1560 H 142.461 -1.46438 1.44031 0
M  V30 1561 H 140.691 -3.8358 0.490214 0
M  V30 1562 H 142.38 -3.96018 0.890193 0
M  V30 1563 H 143.146 -3.52176 3.33462 0
M  V30 1564 H 139.025 -4.03876 2.22273 0
M  V30 1565 H 142.569 -4.05719 5.67484 0
M  V30 1566 H 138.466 -4.5748 4.55392 0
M  V30 1567 H 139.234 -4.82007 6.61522 0
M  V30 1568 N 141.898 -0.863906 -1.31812 0
M  V30 1569 C 143.147 -0.46801 -1.96195 0
M  V30 1570 C 143.46 0.983474 -1.69077 0
M  V30 1571 O 144.666 1.48523 -2.27273 0
M  V30 1572 C 143.122 -0.785995 -3.51212 0
M  V30 1573 C 142.73 -2.25383 -3.87178 0
M  V30 1574 C 144.474 -0.458274 -4.22019 0
M  V30 1575 C 142.381 -2.51455 -5.3528 0
M  V30 1576 H 141.311 -0.171283 -0.734287 0
M  V30 1577 H 143.962 -1.05597 -1.50072 0
M  V30 1578 H 142.344 -0.127359 -3.95795 0
M  V30 1579 H 143.518 -2.95502 -3.53575 0
M  V30 1580 H 141.833 -2.54698 -3.2942 0
M  V30 1581 H 144.43 -0.630369 -5.30971 0
M  V30 1582 H 144.773 0.600834 -4.11941 0
M  V30 1583 H 145.306 -1.07319 -3.8305 0
M  V30 1584 H 142.045 -3.56025 -5.50387 0
M  V30 1585 H 141.565 -1.85923 -5.70257 0
M  V30 1586 H 143.244 -2.35874 -6.02472 0
M  V30 1587 N 143.376 1.44774 -0.622745 0
M  V30 1588 C 144.653 1.95522 -0.0551974 0
M  V30 1589 C 145.033 1.5649 1.41683 0
M  V30 1590 O 144.381 0.834848 2.12703 0
M  V30 1591 C 144.591 3.4796 -0.269242 0
M  V30 1592 C 145.939 4.24306 -0.158014 0
M  V30 1593 O 146.963 3.55637 -0.200162 0
M  V30 1594 O 145.822 5.46471 -0.0558693 0
M  V30 1595 H 142.916 0.826556 0.0271015 0
M  V30 1596 H 145.462 1.54866 -0.693864 0
M  V30 1597 H 144.234 3.6939 -1.29099 0
M  V30 1598 H 143.857 3.95543 0.403966 0
M  V30 1599 N 144.854 0.36279 1.53368 0
M  V30 1600 C 146.131 -0.284021 1.93527 0
M  V30 1601 C 146.511 -1.66628 1.29608 0
M  V30 1602 O 145.859 -2.23942 0.45413 0
M  V30 1603 C 146.069 -0.337028 3.47369 0
M  V30 1604 C 147.417 -0.578708 4.20638 0
M  V30 1605 O 148.441 -0.418352 3.53735 0
M  V30 1606 O 147.3 -0.89074 5.39192 0
M  V30 1607 H 144.394 -0.169743 0.809393 0
M  V30 1608 H 146.94 0.41537 1.64538 0
M  V30 1609 H 145.712 0.632217 3.86159 0
M  V30 1610 H 145.335 -1.08243 3.82582 0
M  V30 1611 N 146.332 -1.57332 0.0918853 0
M  V30 1612 C 147.748 -1.57389 -0.264766 0
M  V30 1613 C 147.948 -1.10281 -1.68643 0
M  V30 1614 O 147.004 -0.777801 -2.40222 0
M  V30 1615 C 148.317 -3.00648 -0.0561195 0
M  V30 1616 C 149.865 -3.12754 -0.124116 0
M  V30 1617 C 150.34 -4.57965 0.0564972 0
M  V30 1618 N 151.831 -4.632 0.00155611 0
M  V30 1619 C 152.566 -5.73281 0.116598 0
M  V30 1620 N 152.062 -6.92208 0.286294 0
M  V30 1621 N 153.855 -5.6207 0.0580973 0
M  V30 1622 H 146.006 -1.86262 1.02079 0
M  V30 1623 H 148.269 -0.859579 0.399786 0
M  V30 1624 H 147.975 -3.393 0.925669 0
M  V30 1625 H 147.849 -3.68623 -0.799823 0
M  V30 1626 H 150.236 -2.73976 -1.09641 0
M  V30 1627 H 150.317 -2.47377 0.651024 0
M  V30 1628 H 149.961 -4.97436 1.02564 0
M  V30 1629 H 149.891 -5.21399 -0.738297 0
M  V30 1630 H 152.382 -3.77686 -0.127192 0
M  V30 1631 H 152.695 -7.71934 0.365676 0
M  V30 1632 H 151.04 -6.94254 0.32192 0
M  V30 1633 H 154.231 -4.68043 -0.0733204 0
M  V30 1634 H 154.404 -6.47824 0.151203 0
M  V30 1635 N 147.81 0.181792 -1.56548 0
M  V30 1636 C 148.773 1.20894 -1.94724 0
M  V30 1637 C 149.773 1.37738 -0.829747 0
M  V30 1638 O 150.963 1.35323 -1.09697 0
M  V30 1639 C 148.095 2.57593 -2.23291 0
M  V30 1640 H 149.288 0.882275 -2.86629 0
M  V30 1641 H 146.841 0.423838 -1.50444 0
M  V30 1642 H 147.576 2.95291 -1.34067 0
M  V30 1643 H 147.361 2.46735 -3.04736 0
M  V30 1644 H 148.851 3.31637 -2.53785 0
M  V30 1645 N 149.288 1.51039 0.449983 0
M  V30 1646 C 150.534 1.63322 1.20223 0
M  V30 1647 C 150.867 0.34241 1.91158 0
M  V30 1648 O 150.142 -0.657344 1.83055 0
M  V30 1649 C 150.425 2.82801 2.22925 0
M  V30 1650 C 150.278 4.21823 1.56157 0
M  V30 1651 C 151.597 2.97807 3.24035 0
M  V30 1652 H 148.716 0.594407 0.435718 0
M  V30 1653 H 151.358 1.83489 0.493136 0
M  V30 1654 H 149.508 2.65738 2.834 0
M  V30 1655 H 151.18 4.50526 0.991162 0
M  V30 1656 H 149.423 4.25105 0.864172 0
M  V30 1657 H 150.094 5.01391 2.30891 0
M  V30 1658 H 152.57 3.13497 2.73603 0
M  V30 1659 H 151.446 3.82992 3.93202 0
M  V30 1660 H 151.707 2.09328 3.89402 0
M  V30 1661 N 150.766 -0.704594 1.40972 0
M  V30 1662 C 152.182 -1.01406 1.23244 0
M  V30 1663 C 152.382 -2.01169 0.115399 0
M  V30 1664 O 151.438 -2.47021 -0.523147 0
M  V30 1665 C 152.751 -1.54728 2.57836 0
M  V30 1666 C 154.299 -1.66658 2.64942 0
M  V30 1667 C 154.774 -2.23383 3.9983 0
M  V30 1668 N 156.265 -2.30756 4.01629 0
M  V30 1669 C 157 -2.75655 5.02794 0
M  V30 1670 N 156.496 -3.20225 6.14352 0
M  V30 1671 N 158.289 -2.75138 4.90159 0
M  V30 1672 H 150.44 -0.0435285 2.12355 0
M  V30 1673 H 152.703 -0.0818951 0.944456 0
M  V30 1674 H 152.409 -0.888832 3.40283 0
M  V30 1675 H 152.283 -2.53084 2.79693 0
M  V30 1676 H 154.67 -2.31617 1.8286 0
M  V30 1677 H 154.751 -0.668717 2.46904 0
M  V30 1678 H 154.395 -1.59043 4.82357 0
M  V30 1679 H 154.325 -3.23904 4.15203 0
M  V30 1680 H 156.816 -1.99291 3.21079 0
M  V30 1681 H 157.129 -3.53084 6.87424 0
M  V30 1682 H 155.474 -3.18156 6.17901 0
M  V30 1683 H 158.665 -2.39661 4.02095 0
M  V30 1684 H 158.838 -3.09812 5.6914 0
M  V30 1685 N 152.244 -1.26651 -0.937939 0
M  V30 1686 C 153.655 -1.1125 -1.49934 0
M  V30 1687 C 154.006 0.306077 -1.93798 0
M  V30 1688 O 153.131 1.19792 -1.80219 0
M  V30 1689 C 153.726 -2.01339 -2.72485 0
M  V30 1690 C 152.285 -1.90074 -3.24883 0
M  V30 1691 C 151.432 -1.94498 -1.97651 0
M  V30 1692 H 154.383 -1.39693 -0.753091 0
M  V30 1693 H 154.404 -1.56319 -3.46907 0
M  V30 1694 H 153.916 -3.04577 -2.40529 0
M  V30 1695 H 152.017 -0.897827 -3.61621 0
M  V30 1696 H 152.13 -2.75778 -3.9177 0
M  V30 1697 H 150.494 -1.38591 -2.13693 0
M  V30 1698 H 151.277 -2.99372 -1.68022 0
M  V30 1699 N 153.722 1.14298 -1.08507 0
M  V30 1700 C 154.947 1.8976 -0.837001 0
M  V30 1701 C 155.372 1.78097 0.605228 0
M  V30 1702 O 154.73 1.12188 1.4242 0
M  V30 1703 C 154.778 3.37685 -1.26495 0
M  V30 1704 O 153.882 4.10281 -0.417514 0
M  V30 1705 H 153.223 0.590365 -0.303917 0
M  V30 1706 H 155.753 1.44672 -1.44676 0
M  V30 1707 H 155.763 3.88501 -1.24625 0
M  V30 1708 H 154.438 3.45492 -2.31534 0
M  V30 1709 H 153.015 3.69536 -0.499722 0
M  V30 1710 N 155.201 0.870884 1.31352 0
M  V30 1711 C 156.111 0.330783 2.32256 0
M  V30 1712 C 157.127 -0.559767 1.6475 0
M  V30 1713 O 158.303 -0.456263 1.96164 0
M  V30 1714 C 155.368 -0.458137 3.4366 0
M  V30 1715 C 154.429 0.460482 4.26823 0
M  V30 1716 C 153.662 -0.290881 5.32907 0
M  V30 1717 O 153.885 -1.51885 5.49806 0
M  V30 1718 O 152.819 0.351732 6.00871 0
M  V30 1719 H 156.645 1.16718 2.80376 0
M  V30 1720 H 154.23 0.634285 1.35267 0
M  V30 1721 H 156.112 -0.905343 4.1156 0
M  V30 1722 H 154.787 -1.27106 2.97701 0
M  V30 1723 H 153.694 0.956207 3.61673 0
M  V30 1724 H 155.027 1.23903 4.7635 0
M  V30 1725 N 156.679 -1.44442 0.630414 0
M  V30 1726 C 157.926 -2.02052 0.134617 0
M  V30 1727 C 158.254 -1.49576 -1.24327 0
M  V30 1728 O 157.509 -0.669806 -1.83881 0
M  V30 1729 C 157.808 -3.57332 0.0697835 0
M  V30 1730 C 157.474 -4.29058 1.38635 0
M  V30 1731 C 156.136 -4.4837 1.74694 0
M  V30 1732 C 158.488 -4.69872 2.25543 0
M  V30 1733 C 155.816 -5.05756 2.97369 0
M  V30 1734 C 158.168 -5.28616 3.47487 0
M  V30 1735 C 156.832 -5.46147 3.8377 0
M  V30 1736 H 156.102 -0.739361 0.0492598 0
M  V30 1737 H 158.749 -1.73217 0.816586 0
M  V30 1738 H 157.054 -3.85577 -0.695553 0
M  V30 1739 H 158.751 -3.99637 -0.330344 0
M  V30 1740 H 155.341 -4.14357 1.09574 0
M  V30 1741 H 159.525 -4.54666 1.98979 0
M  V30 1742 H 154.781 -5.17515 3.25558 0
M  V30 1743 H 158.955 -5.59192 4.15063 0
M  V30 1744 H 156.582 -5.9038 4.7891 0
M  V30 1745 N 158.157 -0.370918 -1.53173 0
M  V30 1746 C 159.12 0.460778 -2.24521 0
M  V30 1747 C 160.12 1.00536 -1.25496 0
M  V30 1748 O 161.31 0.890266 -1.49733 0
M  V30 1749 C 158.442 1.64457 -2.98608 0
M  V30 1750 H 159.635 -0.163613 -2.99453 0
M  V30 1751 H 157.188 -0.122699 -1.55818 0
M  V30 1752 H 157.923 2.30691 -2.2793 0
M  V30 1753 H 157.708 1.26099 -3.7127 0
M  V30 1754 H 159.198 2.23384 -3.5283 0
M  V30 1755 N 159.635 1.57281 -0.100228 0
M  V30 1756 C 160.86 1.99302 0.573881 0
M  V30 1757 C 161.285 0.979059 1.60611 0
M  V30 1758 O 160.643 -0.0517803 1.81226 0
M  V30 1759 C 160.691 3.40274 1.19358 0
M  V30 1760 O 159.795 3.41676 2.30935 0
M  V30 1761 H 159.136 0.647944 0.145138 0
M  V30 1762 H 161.666 2.03779 -0.183156 0
M  V30 1763 H 161.676 3.78078 1.53365 0
M  V30 1764 H 160.351 4.13594 0.437385 0
M  V30 1765 H 158.928 3.15672 1.98509 0
M  V30 1766 N 161.113 -0.173488 1.56642 0
M  V30 1767 C 162.046 -1.24353 1.91342 0
M  V30 1768 C 163.024 -1.4289 0.775965 0
M  V30 1769 O 164.208 -1.57932 1.02907 0
M  V30 1770 C 161.335 -2.60683 2.16245 0
M  V30 1771 C 160.381 -2.58894 3.38934 0
M  V30 1772 S 161.214 -2.0819 4.93373 0
M  V30 1773 C 162.37 -3.46302 5.21369 0
M  V30 1774 H 162.603 -0.947345 2.81803 0
M  V30 1775 H 160.136 -0.377958 1.49703 0
M  V30 1776 H 162.094 -3.39149 2.31275 0
M  V30 1777 H 160.755 -2.87502 1.26496 0
M  V30 1778 H 159.948 -3.59188 3.53553 0
M  V30 1779 H 159.55 -1.88522 3.2301 0
M  V30 1780 H 161.842 -4.42287 5.13214 0
M  V30 1781 H 162.785 -3.3656 6.23003 0
M  V30 1782 H 163.193 -3.42214 4.48943 0
M  V30 1783 N 162.591 -1.51276 -0.441967 0
M  V30 1784 C 163.539 -1.72823 -1.55676 0
M  V30 1785 C 164.533 -0.59445 -1.58627 0
M  V30 1786 O 165.739 -0.775715 -1.62427 0
M  V30 1787 H 162.114 -0.545983 -0.517113 0
M  V30 1788 H 164.085 -2.6628 -1.34675 0
M  V30 1789 C 162.834 -1.86619 -2.93375 0
M  V30 1790 H 162.157 -2.73264 -2.91834 0
M  V30 1791 H 163.597 -2.05709 -3.70756 0
M  V30 1792 C 162.056 -0.624842 -3.31055 0
M  V30 1793 O 162.586 0.222636 -4.01083 0
M  V30 1794 N 160.792 -0.470288 -2.86769 0
M  V30 1795 H 160.339 -1.161 -2.29953 0
M  V30 1796 H 160.297 0.359051 -3.12343 0
M  V30 1797 N 164.069 0.697108 -1.41344 0
M  V30 1798 C 164.999 1.82353 -1.45841 0
M  V30 1799 C 165.98 1.67115 -0.317247 0
M  V30 1800 O 167.165 1.86871 -0.528474 0
M  V30 1801 C 164.295 3.20476 -1.33838 0
M  V30 1802 C 163.249 3.50415 -2.4575 0
M  V30 1803 C 162.575 4.87878 -2.18813 0
M  V30 1804 C 163.875 3.49546 -3.88091 0
M  V30 1805 H 165.569 1.78846 -2.40113 0
M  V30 1806 H 163.115 0.859028 -1.15571 0
M  V30 1807 H 165.068 3.98988 -1.35596 0
M  V30 1808 H 163.792 3.24604 -0.360498 0
M  V30 1809 H 162.451 2.74253 -2.43271 0
M  V30 1810 H 162.099 4.8863 -1.19371 0
M  V30 1811 H 161.799 5.08875 -2.93803 0
M  V30 1812 H 163.323 5.68702 -2.22284 0
M  V30 1813 H 164.737 4.18066 -3.92293 0
M  V30 1814 H 163.134 3.82075 -4.62751 0
M  V30 1815 H 164.204 2.48552 -4.16353 0
M  V30 1816 N 165.547 1.27147 0.931209 0
M  V30 1817 C 166.457 1.11372 2.06478 0
M  V30 1818 C 167.473 0.044645 1.73943 0
M  V30 1819 O 168.649 0.250417 1.99837 0
M  V30 1820 C 165.714 0.758838 3.38294 0
M  V30 1821 C 164.775 1.90841 3.84549 0
M  V30 1822 C 164.008 1.57036 5.10074 0
M  V30 1823 O 164.231 0.476645 5.68405 0
M  V30 1824 O 163.165 2.40839 5.51616 0
M  V30 1825 H 166.991 2.06493 2.22698 0
M  V30 1826 H 164.576 1.06301 1.04978 0
M  V30 1827 H 166.458 0.574098 4.17471 0
M  V30 1828 H 165.133 -0.162879 3.2329 0
M  V30 1829 H 164.04 2.14819 3.06274 0
M  V30 1830 H 165.373 2.81021 4.04089 0
M  V30 1831 N 167.025 -1.13721 1.09112 0
M  V30 1832 C 167.935 -2.22638 0.73957 0
M  V30 1833 C 168.951 -1.72091 -0.257068 0
M  V30 1834 O 170.127 -2.01155 -0.0992154 0
M  V30 1835 C 167.192 -3.46322 0.16191 0
M  V30 1836 C 166.253 -4.11775 1.21408 0
M  V30 1837 C 165.486 -5.29555 0.663891 0
M  V30 1838 O 165.709 -5.68077 -0.514274 0
M  V30 1839 O 164.643 -5.84973 1.41738 0
M  V30 1840 H 168.469 -2.55074 1.64836 0
M  V30 1841 H 166.054 -1.21791 0.865289 0
M  V30 1842 H 167.936 -4.21107 -0.157073 0
M  V30 1843 H 166.611 -3.15593 -0.719932 0
M  V30 1844 H 165.518 -3.3883 1.58571 0
M  V30 1845 H 166.851 -4.46627 2.06845 0
M  V30 1846 N 168.503 -0.877838 -1.30888 0
M  V30 1847 C 169.752 -0.488793 -1.95688 0
M  V30 1848 C 170.065 0.965485 -1.70111 0
M  V30 1849 O 171.271 1.46104 -2.28836 0
M  V30 1850 C 169.727 -0.823201 -3.50359 0
M  V30 1851 C 169.335 -2.29477 -3.84765 0
M  V30 1852 C 171.079 -0.503009 -4.21509 0
M  V30 1853 C 168.986 -2.57118 -5.32583 0
M  V30 1854 H 167.916 -0.179062 -0.732429 0
M  V30 1855 H 170.567 -1.07183 -1.48943 0
M  V30 1856 H 168.949 -0.169331 -3.95638 0
M  V30 1857 H 170.123 -2.99236 -3.5042 0
M  V30 1858 H 168.438 -2.58178 -3.267 0
M  V30 1859 H 171.035 -0.68665 -5.30273 0
M  V30 1860 H 171.378 0.557109 -4.12555 0
M  V30 1861 H 171.911 -1.11376 -3.8189 0
M  V30 1862 H 168.65 -3.61843 -5.4658 0
M  V30 1863 H 168.17 -1.91961 -5.68253 0
M  V30 1864 H 169.849 -2.42251 -5.99936 0
M  V30 1865 N 169.982 1.44106 -0.638065 0
M  V30 1866 C 170.932 2.27843 0.0847285 0
M  V30 1867 C 171.916 1.39055 0.809471 0
M  V30 1868 O 173.108 1.62808 0.694435 0
M  V30 1869 C 170.237 3.26497 1.06089 0
M  V30 1870 C 169.323 4.22772 0.33541 0
M  V30 1871 N 169.714 5.01737 -0.639787 0
M  V30 1872 C 168.012 4.42227 0.578921 0
M  V30 1873 C 168.713 5.71792 -1.06904 0
M  V30 1874 N 167.689 5.42079 -0.406395 0
M  V30 1875 H 171.491 2.86305 -0.663814 0
M  V30 1876 H 169.005 1.55627 -0.464122 0
M  V30 1877 H 171.002 3.8525 1.59337 0
M  V30 1878 H 169.662 2.69595 1.80966 0
M  V30 1879 H 170.673 5.07799 -1.01789 0
M  V30 1880 H 167.35 3.96415 1.31003 0
M  V30 1881 H 168.74 6.45205 -1.8751 0
M  V30 1882 N 171.46 0.379036 1.52974 0
M  V30 1883 C 172.392 -0.495963 2.2377 0
M  V30 1884 C 173.405 -1.03517 1.25651 0
M  V30 1885 O 174.594 -0.939249 1.51791 0
M  V30 1886 C 171.694 -1.69894 2.93239 0
M  V30 1887 C 170.867 -1.2889 4.17979 0
M  V30 1888 C 169.926 -2.35543 4.70538 0
M  V30 1889 O 168.952 -1.97375 5.33883 0
M  V30 1890 N 170.154 -3.67318 4.49508 0
M  V30 1891 H 172.919 0.110523 2.99496 0
M  V30 1892 H 170.48 0.204878 1.60598 0
M  V30 1893 H 172.472 -2.40747 3.25304 0
M  V30 1894 H 171.042 -2.212 2.20883 0
M  V30 1895 H 170.262 -0.409676 3.92065 0
M  V30 1896 H 171.55 -0.991443 4.99047 0
M  V30 1897 H 170.948 -4.01095 3.98923 0
M  V30 1898 H 169.505 -4.34235 4.8609 0
M  V30 1899 N 172.938 -1.57226 0.108567 0
M  V30 1900 C 173.868 -2.17778 -0.84232 0
M  V30 1901 C 174.849 -1.11487 -1.2847 0
M  V30 1902 O 176.034 -1.39681 -1.34918 0
M  V30 1903 C 173.164 -2.76888 -2.09644 0
M  V30 1904 C 172.118 -3.88669 -1.79221 0
M  V30 1905 C 171.444 -4.34541 -3.11574 0
M  V30 1906 C 172.744 -5.11251 -1.06864 0
M  V30 1907 H 174.438 -2.97489 -0.337774 0
M  V30 1908 H 171.984 -1.43097 -0.161025 0
M  V30 1909 H 173.937 -3.17904 -2.76614 0
M  V30 1910 H 172.661 -1.94451 -2.62405 0
M  V30 1911 H 171.32 -3.48213 -1.14644 0
M  V30 1912 H 170.968 -3.48977 -3.62249 0
M  V30 1913 H 170.668 -5.09914 -2.91996 0
M  V30 1914 H 172.192 -4.782 -3.7968 0
M  V30 1915 H 173.606 -5.49352 -1.63968 0
M  V30 1916 H 172.003 -5.9214 -0.974178 0
M  V30 1917 H 173.073 -4.8487 -0.0536168 0
M  V30 1918 N 174.416 0.165178 -1.56732 0
M  V30 1919 C 175.663 0.880807 -1.8234 0
M  V30 1920 C 175.991 1.81977 -0.686621 0
M  V30 1921 O 175.246 1.92971 0.325697 0
M  V30 1922 C 175.545 1.70405 -3.1416 0
M  V30 1923 C 175.211 0.913475 -4.4155 0
M  V30 1924 C 173.873 0.695303 -4.7615 0
M  V30 1925 C 176.225 0.359349 -5.1996 0
M  V30 1926 C 173.553 -0.0879947 -5.86634 0
M  V30 1927 C 175.905 -0.410893 -6.31264 0
M  V30 1928 C 174.569 -0.639808 -6.64427 0
M  V30 1929 H 173.839 0.32231 -0.667231 0
M  V30 1930 H 176.486 0.145402 -1.90947 0
M  V30 1931 H 174.791 2.50903 -3.00923 0
M  V30 1932 H 176.488 2.26091 -3.31186 0
M  V30 1933 H 173.078 1.09357 -4.14414 0
M  V30 1934 H 177.262 0.515228 -4.93618 0
M  V30 1935 H 172.518 -0.27503 -6.10781 0
M  V30 1936 H 176.692 -0.847494 -6.91224 0
M  V30 1937 H 174.319 -1.24864 -7.49875 0
M  V30 1938 N 175.894 1.51508 0.433938 0
M  V30 1939 C 176.804 1.75917 1.5521 0
M  V30 1940 C 177.82 0.643545 1.61662 0
M  V30 1941 O 178.996 0.926183 1.7884 0
M  V30 1942 C 176.061 1.88213 2.91164 0
M  V30 1943 C 175.122 3.12074 2.94802 0
M  V30 1944 C 174.355 3.23774 4.24271 0
M  V30 1945 O 174.578 2.4133 5.16833 0
M  V30 1946 O 173.512 4.16774 4.34262 0
M  V30 1947 H 177.338 2.70777 1.37527 0
M  V30 1948 H 174.923 1.36051 0.617293 0
M  V30 1949 H 176.805 1.98267 3.71845 0
M  V30 1950 H 175.48 0.965413 3.08968 0
M  V30 1951 H 174.387 3.07497 2.13065 0
M  V30 1952 H 175.72 4.03446 2.81943 0
M  V30 1953 N 177.372 -0.689602 1.41712 0
M  V30 1954 C 178.319 -1.80345 1.44029 0
M  V30 1955 C 179.289 -1.63478 0.293948 0
M  V30 1956 O 180.474 -1.84244 0.495869 0
M  V30 1957 C 177.614 -3.18272 1.33405 0
M  V30 1958 C 176.727 -3.46529 2.57956 0
M  V30 1959 C 175.862 -4.74103 2.39582 0
M  V30 1960 C 174.901 -4.95347 3.5958 0
M  V30 1961 N 174.038 -6.14151 3.40239 0
M  V30 1962 H 178.878 -1.77698 2.39222 0
M  V30 1963 H 176.415 -0.867688 1.18784 0
M  V30 1964 H 178.373 -3.97956 1.25246 0
M  V30 1965 H 177.003 -3.2008 0.418164 0
M  V30 1966 H 176.055 -2.61207 2.76542 0
M  V30 1967 H 177.367 -3.58126 3.47199 0
M  V30 1968 H 176.521 -5.61853 2.28924 0
M  V30 1969 H 175.26 -4.64763 1.47805 0
M  V30 1970 H 174.265 -4.06044 3.70686 0
M  V30 1971 H 175.49 -5.06542 4.52318 0
M  V30 1972 H 173.436 -6.06013 2.51167 0
M  V30 1973 H 173.353 -6.26543 4.23061 0
M  V30 1974 H 174.621 -7.04619 3.33365 0
M  V30 1975 N 178.85 -1.27639 -0.924453 0
M  V30 1976 C 179.76 -1.12466 -2.05885 0
M  V30 1977 C 180.776 -0.053869 -1.73917 0
M  V30 1978 O 181.952 -0.261012 -1.99702 0
M  V30 1979 C 179.017 -0.776768 -3.37886 0
M  V30 1980 C 178.078 -1.92878 -3.83532 0
M  V30 1981 C 177.311 -1.59739 -5.09234 0
M  V30 1982 O 177.534 -0.506782 -5.68144 0
M  V30 1983 O 176.468 -2.43761 -5.50331 0
M  V30 1984 H 180.294 -2.07671 -2.21599 0
M  V30 1985 H 177.879 -1.06857 -1.04413 0
M  V30 1986 H 179.761 -0.596229 -4.17161 0
M  V30 1987 H 178.436 0.145732 -3.23372 0
M  V30 1988 H 177.343 -2.1644 -3.0513 0
M  V30 1989 H 178.676 -2.8316 -4.02593 0
M  V30 1990 N 180.328 1.1314 -1.09713 0
M  V30 1991 C 181.275 2.18642 -0.739196 0
M  V30 1992 C 182.245 1.63706 0.280978 0
M  V30 1993 O 183.43 1.90111 0.161946 0
M  V30 1994 C 180.57 3.44685 -0.169102 0
M  V30 1995 C 179.683 4.13711 -1.24367 0
M  V30 1996 C 178.818 5.27379 -0.636019 0
M  V30 1997 C 177.857 5.88259 -1.69169 0
M  V30 1998 N 176.994 6.93352 -1.10485 0
M  V30 1999 H 181.834 2.48607 -1.64312 0
M  V30 2000 H 179.371 1.22066 -0.820875 0
M  V30 2001 H 181.329 4.16815 0.179256 0
M  V30 2002 H 179.959 3.15161 0.698079 0
M  V30 2003 H 179.011 3.39835 -1.70927 0
M  V30 2004 H 180.323 4.55037 -2.04311 0
M  V30 2005 H 179.477 6.06238 -0.236677 0
M  V30 2006 H 178.216 4.8731 0.194928 0
M  V30 2007 H 177.221 5.08092 -2.10055 0
M  V30 2008 H 178.446 6.30399 -2.52536 0
M  V30 2009 H 176.392 6.55335 -0.295234 0
M  V30 2010 H 176.309 7.33236 -1.84121 0
M  V30 2011 H 177.577 7.76057 -0.73181 0
M  V30 2012 N 181.806 0.884767 1.30421 0
M  V30 2013 C 183.031 0.517288 2.00845 0
M  V30 2014 C 183.456 -0.886779 1.65885 0
M  V30 2015 O 182.814 -1.58768 0.875354 0
M  V30 2016 C 182.862 0.698994 3.5376 0
M  V30 2017 O 181.966 -0.255208 4.1161 0
M  V30 2018 H 181.307 0.203872 0.631927 0
M  V30 2019 H 183.837 1.19225 1.66272 0
M  V30 2020 H 183.847 0.597912 4.03595 0
M  V30 2021 H 182.522 1.72271 3.78544 0
M  V30 2022 H 181.099 -0.10784 3.72744 0
M  V30 2023 N 183.284 -1.43765 0.645699 0
M  V30 2024 C 184.524 -2.03776 0.159542 0
M  V30 2025 C 184.888 -1.49792 -1.2011 0
M  V30 2026 O 186.089 -2.01398 -1.78023 0
M  V30 2027 C 184.36 -3.57036 0.161251 0
M  V30 2028 S 185.919 -4.3804 -0.258159 0
M  V30 2029 H 182.737 -0.707717 0.0682454 0
M  V30 2030 H 185.339 -1.75941 0.852352 0
M  V30 2031 H 184.043 -3.9383 1.15439 0
M  V30 2032 H 183.574 -3.89503 -0.552339 0
M  V30 2033 H 185.589 -4.7302 -1.49889 0
M  V30 2034 N 184.763 -0.387143 -1.52771 0
M  V30 2035 C 185.988 0.198407 -2.06449 0
M  V30 2036 C 186.413 1.39918 -1.25716 0
M  V30 2037 O 185.771 1.79099 -0.281657 0
M  V30 2038 C 185.819 0.548893 -3.56398 0
M  V30 2039 O 184.923 1.64315 -3.78252 0
M  V30 2040 H 184.264 0.0237731 -0.663574 0
M  V30 2041 H 186.794 -0.553989 -1.96957 0
M  V30 2042 H 186.804 0.813812 -3.99801 0
M  V30 2043 H 185.479 -0.329005 -4.14597 0
M  V30 2044 H 184.056 1.37211 -3.46738 0
M  V30 2045 O 186.28 1.59438 -0.257276 0
M  V30 2046 H 186.971 1.91101 0.316273 0
M  V30 END ATOM
M  V30 BEGIN BOND
M  V30 END BOND
M  V30 END CTAB
M  END
$$$$
