drugbank_target|C0H4V6 14-3-3 protein (DB11638)
 OpenBabel12092121103D

  0  0  0     0  0            999 V3000
M  V30 BEGIN CTAB
M  V30 COUNTS 4164 4193 0 0 0
M  V30 BEGIN ATOM
M  V30 1 H -0.908 1.98254 -0.117106 0
M  V30 2 N 0 1.576 0 0
M  V30 3 C 0.933 2.03868 1.02534 0
M  V30 4 C 1.911 0.928543 1.3348 0
M  V30 5 O 3.095 1.19667 1.45644 0
M  V30 6 C 0.222 2.43627 2.35294 0
M  V30 7 C -0.732 3.65373 2.2001 0
M  V30 8 S 0.101 5.13292 1.52614 0
M  V30 9 C 1.257 5.56322 2.86805 0
M  V30 10 H 1.49 2.90518 0.631377 0
M  V30 11 H -0.977 1.52953 0.210867 0
M  V30 12 H 0.981 2.67203 3.11629 0
M  V30 13 H -0.358 1.57376 2.7183 0
M  V30 14 H -1.165 3.90944 3.18086 0
M  V30 15 H -1.563 3.418 1.51819 0
M  V30 16 H 0.729 5.58782 3.83104 0
M  V30 17 H 1.672 6.56266 2.65933 0
M  V30 18 H 2.08 4.83886 2.90714 0
M  V30 19 N 1.4781 -0.272755 1.55222 0
M  V30 20 C 2.4411 -1.32041 1.87344 0
M  V30 21 C 3.4411 -1.42342 0.74803 0
M  V30 22 O 4.6311 -1.41488 1.0162 0
M  V30 23 C 1.7631 -2.70173 2.07893 0
M  V30 24 H 2.9561 -1.04789 2.80997 0
M  V30 25 H 0.5091 -0.51083 1.47717 0
M  V30 26 H 1.2441 -3.02605 1.16622 0
M  V30 27 H 1.0291 -2.64082 2.89833 0
M  V30 28 H 2.5191 -3.45869 2.34017 0
M  V30 29 N 2.9562 -1.48159 -0.537278 0
M  V30 30 C 4.1842 -1.59454 -1.31841 0
M  V30 31 C 4.5992 -0.252065 -1.8711 0
M  V30 32 O 3.9562 0.757621 -1.66031 0
M  V30 33 C 4.0072 -2.63546 -2.47439 0
M  V30 34 O 3.7282 -3.92583 -1.94449 0
M  V30 35 C 5.2292 -2.85212 -3.39366 0
M  V30 36 H 2.4492 -0.53785 -0.401196 0
M  V30 37 H 4.9932 -1.93932 -0.648891 0
M  V30 38 H 3.1482 -2.31946 -3.1029 0
M  V30 39 H 3.5622 -4.49629 -2.70063 0
M  V30 40 H 5.0362 -3.61863 -4.16844 0
M  V30 41 H 5.5132 -1.93765 -3.94147 0
M  V30 42 H 6.1192 -3.18086 -2.82314 0
M  V30 43 N 4.4343 0.785586 -1.36625 0
M  V30 44 C 5.6593 1.57963 -1.34397 0
M  V30 45 C 6.0843 1.87964 0.071526 0
M  V30 46 O 5.4423 1.48182 1.0446 0
M  V30 47 C 5.4903 2.87511 -2.17646 0
M  V30 48 O 4.5943 3.81281 -1.57158 0
M  V30 49 H 3.9353 0.479014 -0.459828 0
M  V30 50 H 6.4653 0.973411 -1.79961 0
M  V30 51 H 6.4753 3.36745 -2.30362 0
M  V30 52 H 5.1503 2.65002 -3.20541 0
M  V30 53 H 3.7273 3.39885 -1.53403 0
M  V30 54 N 5.9124 1.20967 1.01018 0
M  V30 55 C 6.8224 0.980157 2.13143 0
M  V30 56 C 7.8384 -0.0660665 1.73875 0
M  V30 57 O 9.0144 0.122821 2.01025 0
M  V30 58 C 6.0794 0.54216 3.42435 0
M  V30 59 C 5.1404 1.65999 3.95908 0
M  V30 60 C 4.3734 1.2428 5.19028 0
M  V30 61 O 4.5964 0.114196 5.70286 0
M  V30 62 O 3.5304 2.05271 5.65816 0
M  V30 63 H 7.3564 1.91913 2.35379 0
M  V30 64 H 4.9414 0.994099 1.11526 0
M  V30 65 H 6.8234 0.30744 4.20277 0
M  V30 66 H 5.4984 -0.36815 3.216 0
M  V30 67 H 4.4054 1.94906 3.19316 0
M  V30 68 H 5.7384 2.54753 4.21143 0
M  V30 69 N 7.3905 -1.2043 1.01659 0
M  V30 70 C 8.3005 -2.2689 0.596484 0
M  V30 71 C 9.3165 -1.70107 -0.36599 0
M  V30 72 O 10.4925 -2.00117 -0.226942 0
M  V30 73 C 7.5575 -3.4665 -0.0586659 0
M  V30 74 C 6.6185 -4.18662 0.949751 0
M  V30 75 C 5.8515 -5.32705 0.32577 0
M  V30 76 O 6.0745 -5.63656 -0.874509 0
M  V30 77 O 5.0085 -5.92803 1.04249 0
M  V30 78 H 8.8345 -2.65041 1.4828 0
M  V30 79 H 6.4195 -1.27048 0.786082 0
M  V30 80 H 8.3015 -4.19256 -0.424564 0
M  V30 81 H 6.9765 -3.10375 -0.91918 0
M  V30 82 H 5.8835 -3.48229 1.36702 0
M  V30 83 H 7.2165 -4.58878 1.78023 0
M  V30 84 N 8.8686 -0.792821 -1.36206 0
M  V30 85 C 9.7986 -0.207853 -2.32573 0
M  V30 86 C 10.7796 0.659055 -1.56813 0
M  V30 87 O 11.9646 0.592176 -1.84951 0
M  V30 88 C 9.0946 0.655449 -3.41059 0
M  V30 89 C 8.0486 -0.111842 -4.27854 0
M  V30 90 C 7.3746 0.872274 -5.27537 0
M  V30 91 C 8.6746 -1.30299 -5.05786 0
M  V30 92 H 10.3686 -1.01294 -2.81744 0
M  V30 93 H 7.9146 -0.48854 -1.3546 0
M  V30 94 H 9.8676 1.07464 -4.07467 0
M  V30 95 H 8.5916 1.49328 -2.90463 0
M  V30 96 H 7.2506 -0.512053 -3.63006 0
M  V30 97 H 6.8986 1.70523 -4.73214 0
M  V30 98 H 6.5986 0.363291 -5.86476 0
M  V30 99 H 8.1226 1.28996 -5.96818 0
M  V30 100 H 9.5366 -0.959379 -5.65216 0
M  V30 101 H 7.9336 -1.7455 -5.74154 0
M  V30 102 H 9.0036 -2.09663 -4.37229 0
M  V30 103 N 10.3467 1.47872 -0.545128 0
M  V30 104 C 11.2937 2.29849 0.2093 0
M  V30 105 C 12.2637 1.38313 0.919707 0
M  V30 106 O 13.4487 1.67277 0.917772 0
M  V30 107 C 10.5887 3.22019 1.24088 0
M  V30 108 C 9.7017 4.2864 0.537778 0
M  V30 109 C 8.8367 5.07973 1.5536 0
M  V30 110 C 7.8757 6.06381 0.8348 0
M  V30 111 N 7.0127 6.78717 1.79688 0
M  V30 112 H 11.8527 2.93845 -0.49591 0
M  V30 113 H 9.3897 1.44848 -0.256389 0
M  V30 114 H 11.3477 3.73868 1.85144 0
M  V30 115 H 9.9777 2.59914 1.91428 0
M  V30 116 H 9.0297 3.7994 -0.187046 0
M  V30 117 H 10.3417 4.98793 -0.0258907 0
M  V30 118 H 9.4957 5.63912 2.23803 0
M  V30 119 H 8.2347 4.37693 2.15118 0
M  V30 120 H 7.2397 5.49631 0.136388 0
M  V30 121 H 8.4647 6.78665 0.24313 0
M  V30 122 H 6.4107 6.11177 2.38326 0
M  V30 123 H 6.3277 7.44998 1.28505 0
M  V30 124 H 7.5957 7.39237 2.47282 0
M  V30 125 N 11.8248 0.280983 1.55075 0
M  V30 126 C 12.7568 -0.637268 2.20163 0
M  V30 127 C 13.7698 -1.11298 1.18813 0
M  V30 128 O 14.9588 -1.03388 1.4551 0
M  V30 129 C 12.0588 -1.88199 2.81841 0
M  V30 130 C 11.2318 -1.55211 4.08936 0
M  V30 131 C 10.2908 -2.64991 4.54606 0
M  V30 132 O 9.3168 -2.30929 5.2025 0
M  V30 133 N 10.5188 -3.95161 4.25238 0
M  V30 134 H 13.2838 -0.0801694 2.99593 0
M  V30 135 H 10.8448 0.102329 1.61576 0
M  V30 136 H 12.8368 -2.60948 3.09335 0
M  V30 137 H 11.4068 -2.34799 2.06369 0
M  V30 138 H 10.6268 -0.658185 3.88666 0
M  V30 139 H 11.9148 -1.30681 4.91732 0
M  V30 140 H 11.3128 -4.25653 3.72607 0
M  V30 141 H 9.8698 -4.6427 4.5749 0
M  V30 142 N 13.3029 -1.57598 0.00835791 0
M  V30 143 C 14.2329 -2.1198 -0.979113 0
M  V30 144 C 15.2139 -1.03091 -1.35301 0
M  V30 145 O 16.3989 -1.30818 -1.43528 0
M  V30 146 C 13.5289 -2.62995 -2.26828 0
M  V30 147 C 12.4829 -3.76485 -2.03576 0
M  V30 148 C 11.8089 -4.13846 -3.38579 0
M  V30 149 C 13.1089 -5.0342 -1.39161 0
M  V30 150 H 14.8029 -2.94738 -0.526281 0
M  V30 151 H 12.3489 -1.41783 -0.251704 0
M  V30 152 H 14.3019 -2.99669 -2.96271 0
M  V30 153 H 13.0259 -1.7737 -2.7424 0
M  V30 154 H 11.6849 -3.40217 -1.36557 0
M  V30 155 H 11.3329 -3.25232 -3.83709 0
M  V30 156 H 11.0329 -4.90312 -3.23834 0
M  V30 157 H 12.5569 -4.53086 -4.09323 0
M  V30 158 H 13.9709 -5.37812 -1.98573 0
M  V30 159 H 12.3679 -5.84746 -1.34878 0
M  V30 160 H 13.4379 -4.83548 -0.361868 0
M  V30 161 N 14.781 0.264519 -1.55364 0
M  V30 162 C 16.197 0.61215 -1.47394 0
M  V30 163 C 16.397 1.89134 -0.695018 0
M  V30 164 O 15.453 2.51563 -0.217275 0
M  V30 165 C 16.766 0.731235 -2.91674 0
M  V30 166 C 18.314 0.82473 -3.01939 0
M  V30 167 C 18.789 0.975522 -4.4749 0
M  V30 168 N 20.28 1.04083 -4.51354 0
M  V30 169 C 21.015 1.17646 -5.61201 0
M  V30 170 N 20.511 1.27874 -6.80896 0
M  V30 171 N 22.304 1.20823 -5.48961 0
M  V30 172 H 14.455 -0.575456 -2.04456 0
M  V30 173 H 16.718 -0.196099 -0.927496 0
M  V30 174 H 16.424 -0.138392 -3.51428 0
M  V30 175 H 16.298 1.60883 -3.41169 0
M  V30 176 H 18.685 1.68482 -2.42276 0
M  V30 177 H 18.766 -0.0776479 -2.55682 0
M  V30 178 H 18.41 0.120058 -5.07758 0
M  V30 179 H 18.34 1.89268 -4.91412 0
M  V30 180 H 20.831 0.973846 -3.65136 0
M  V30 181 H 21.144 1.38081 -7.60364 0
M  V30 182 H 19.489 1.24863 -6.83692 0
M  V30 183 H 22.68 1.12469 -4.54388 0
M  V30 184 H 22.853 1.31049 -6.3461 0
M  V30 185 N 16.2591 1.48442 0.529413 0
M  V30 186 C 17.4991 1.58086 1.29569 0
M  V30 187 C 17.8631 0.249302 1.90375 0
M  V30 188 O 19.0641 0.220738 2.67892 0
M  V30 189 C 17.3351 2.68793 2.35552 0
M  V30 190 S 18.8941 2.98207 3.21898 0
M  V30 191 H 15.7121 0.557922 0.440732 0
M  V30 192 H 18.3141 1.85966 0.603059 0
M  V30 193 H 17.0181 3.64102 1.89363 0
M  V30 194 H 16.5491 2.42817 3.09522 0
M  V30 195 H 18.5641 2.37548 4.35644 0
M  V30 196 N 17.7372 -0.778329 1.37039 0
M  V30 197 C 19.0142 -1.52551 1.22424 0
M  V30 198 C 19.3942 -2.10288 -0.184964 0
M  V30 199 O 18.7422 -1.94953 -1.19187 0
M  V30 200 C 18.9522 -2.61164 2.31504 0
M  V30 201 C 20.3002 -3.28746 2.68721 0
M  V30 202 O 21.3242 -2.71455 2.30631 0
M  V30 203 O 20.1832 -4.3231 3.3432 0
M  V30 204 H 17.2772 -0.675343 0.477326 0
M  V30 205 H 19.8232 -0.815859 1.48801 0
M  V30 206 H 18.5952 -2.16574 3.25901 0
M  V30 207 H 18.2182 -3.39737 2.06554 0
M  V30 208 N 19.2153 -1.21501 -1.00376 0
M  V30 209 C 20.4553 -1.04444 -1.75701 0
M  V30 210 C 20.8193 0.414644 -1.87469 0
M  V30 211 O 22.0203 0.705763 -2.59369 0
M  V30 212 C 20.2913 -1.72389 -3.13077 0
M  V30 213 S 21.8503 -1.70604 -4.04277 0
M  V30 214 H 18.6683 -0.374249 -0.604532 0
M  V30 215 H 21.2703 -1.54267 -1.20091 0
M  V30 216 H 19.9743 -2.77734 -3.02146 0
M  V30 217 H 19.5053 -1.22751 -3.73759 0
M  V30 218 H 21.5203 -0.748012 -4.9053 0
M  V30 219 N 20.6934 1.19889 -1.02296 0
M  V30 220 C 21.9214 1.9339 -0.735399 0
M  V30 221 C 22.3364 1.75148 0.704887 0
M  V30 222 O 21.6934 1.06954 1.47875 0
M  V30 223 C 21.7444 3.45313 -1.06962 0
M  V30 224 O 21.4654 3.62964 -2.45334 0
M  V30 225 C 22.9664 4.35948 -0.804021 0
M  V30 226 H 20.1864 0.61448 -0.269546 0
M  V30 227 H 22.7304 1.522 -1.36585 0
M  V30 228 H 20.8854 3.84359 -0.484455 0
M  V30 229 H 21.2994 4.56886 -2.57595 0
M  V30 230 H 22.7734 5.41174 -1.0879 0
M  V30 231 H 23.2504 4.3842 0.261691 0
M  V30 232 H 23.8564 4.02574 -1.37164 0
M  V30 233 N 22.1715 0.800033 1.35784 0
M  V30 234 C 23.4015 0.389041 2.02904 0
M  V30 235 C 23.8095 -1.0027 1.60445 0
M  V30 236 O 23.1525 -1.65633 0.794453 0
M  V30 237 C 23.2145 0.385495 3.57427 0
M  V30 238 C 22.8785 1.72662 4.23127 0
M  V30 239 C 23.8755 2.68385 4.4527 0
M  V30 240 C 21.5605 2.00883 4.60381 0
M  V30 241 C 23.5545 3.90517 5.03761 0
M  V30 242 C 21.2415 3.2328 5.18588 0
M  V30 243 C 22.2395 4.17915 5.40218 0
M  V30 244 O 21.9275 5.38153 5.97199 0
M  V30 245 H 21.6595 0.157032 0.657508 0
M  V30 246 H 24.2135 1.08311 1.74522 0
M  V30 247 H 22.4435 -0.365128 3.84972 0
M  V30 248 H 24.1325 -0.00228296 4.059 0
M  V30 249 H 24.8985 2.47872 4.16874 0
M  V30 250 H 20.7775 1.28037 4.42863 0
M  V30 251 H 24.3215 4.64395 5.2056 0
M  V30 252 H 20.2185 3.43667 5.4641 0
M  V30 253 H 20.9865 5.3936 6.15656 0
M  V30 254 N 23.6496 -1.47581 0.552962 0
M  V30 255 C 25.0656 -1.5818 0.212424 0
M  V30 256 C 25.2656 -1.55213 -1.28496 0
M  V30 257 O 24.3216 -1.45329 -2.06484 0
M  V30 258 C 25.6346 -2.88865 0.835318 0
M  V30 259 C 27.1826 -3.0244 0.806156 0
M  V30 260 C 27.6576 -4.35819 1.40804 0
M  V30 261 N 29.1486 -4.42444 1.37103 0
M  V30 262 C 29.8836 -5.44202 1.80641 0
M  V30 263 N 29.3796 -6.52795 2.32015 0
M  V30 264 N 31.1726 -5.35222 1.71738 0
M  V30 265 H 23.3236 -1.47753 1.52587 0
M  V30 266 H 25.5866 -0.702941 0.636064 0
M  V30 267 H 25.2926 -2.9676 1.88749 0
M  V30 268 H 25.1666 -3.7579 0.325848 0
M  V30 269 H 27.5536 -2.94144 -0.237317 0
M  V30 270 H 27.6346 -2.17068 1.35334 0
M  V30 271 H 27.2786 -4.44871 2.45056 0
M  V30 272 H 27.2086 -5.19916 0.836338 0
M  V30 273 H 29.6996 -3.6456 0.995202 0
M  V30 274 H 30.0126 -7.26609 2.63171 0
M  V30 275 H 28.3576 -6.53696 2.36023 0
M  V30 276 H 31.5486 -4.49284 1.31382 0
M  V30 277 H 31.7216 -6.14389 2.05987 0
M  V30 278 N 25.1277 -0.289203 -1.54924 0
M  V30 279 C 26.3527 0.329299 -2.04769 0
M  V30 280 C 26.7777 1.4763 -1.16564 0
M  V30 281 O 26.1357 1.80527 -0.167186 0
M  V30 282 C 26.1837 0.774438 -3.52186 0
M  V30 283 O 25.2877 1.88038 -3.67036 0
M  V30 284 H 24.6287 0.0659259 -0.660719 0
M  V30 285 H 27.1587 -0.42761 -2.00082 0
M  V30 286 H 27.1687 1.06642 -3.93816 0
M  V30 287 H 25.8437 -0.0646707 -4.1585 0
M  V30 288 H 24.4207 1.58985 -3.3731 0
M  V30 289 N 26.6058 1.57591 -0.0167156 0
M  V30 290 C 27.5528 2.09462 0.969251 0
M  V30 291 C 28.5228 0.99381 1.33089 0
M  V30 292 O 29.7078 1.26726 1.42636 0
M  V30 293 C 26.8478 2.61622 2.25051 0
M  V30 294 C 25.9608 3.85666 1.94642 0
M  V30 295 C 25.0958 4.26266 3.16972 0
M  V30 296 C 24.1348 5.43101 2.82326 0
M  V30 297 N 23.2718 5.78915 3.97243 0
M  V30 298 H 28.1118 2.93428 0.519997 0
M  V30 299 H 25.6488 1.45044 0.245087 0
M  V30 300 H 27.6068 2.89949 2.99976 0
M  V30 301 H 26.2368 1.80505 2.67615 0
M  V30 302 H 25.2888 3.64145 1.10013 0
M  V30 303 H 26.6008 4.70678 1.65117 0
M  V30 304 H 25.7548 4.55963 4.00228 0
M  V30 305 H 24.4938 3.39996 3.49648 0
M  V30 306 H 23.4988 5.1311 1.97479 0
M  V30 307 H 24.7238 6.3106 2.50879 0
M  V30 308 H 22.6698 4.95602 4.29785 0
M  V30 309 H 22.5868 6.58539 3.71299 0
M  V30 310 H 23.8548 6.13212 4.81239 0
M  V30 311 N 28.0839 -0.256276 1.55502 0
M  V30 312 C 29.0139 -1.32102 1.92539 0
M  V30 313 C 29.9949 -1.50684 0.789194 0
M  V30 314 O 31.1799 -1.63449 1.04872 0
M  V30 315 C 28.3099 -2.67752 2.21192 0
M  V30 316 C 27.2639 -2.63878 3.36975 0
M  V30 317 C 26.5899 -4.03236 3.51147 0
M  V30 318 C 27.8899 -2.21682 4.72921 0
M  V30 319 H 29.5839 -1.01351 2.81724 0
M  V30 320 H 27.1299 -0.486105 1.35547 0
M  V30 321 H 29.0829 -3.42365 2.45691 0
M  V30 322 H 27.8069 -3.0012 1.28824 0
M  V30 323 H 26.4659 -1.91722 3.12471 0
M  V30 324 H 26.1139 -4.32854 2.56216 0
M  V30 325 H 25.8139 -4.01535 4.29003 0
M  V30 326 H 27.3379 -4.79563 3.77957 0
M  V30 327 H 28.7519 -2.86023 4.96854 0
M  V30 328 H 27.1489 -2.3111 5.53812 0
M  V30 329 H 28.2189 -1.16833 4.70615 0
M  V30 330 N 29.562 -1.4872 -0.521534 0
M  V30 331 C 30.525 -1.63379 -1.60748 0
M  V30 332 C 31.525 -0.50661 -1.52611 0
M  V30 333 O 32.715 -0.772601 -1.5613 0
M  V30 334 C 29.847 -1.61192 -3.00383 0
M  V30 335 H 31.04 -2.60217 -1.49087 0
M  V30 336 H 28.593 -1.37444 -0.744235 0
M  V30 337 H 29.328 -0.65863 -3.17541 0
M  V30 338 H 29.113 -2.43032 -3.07698 0
M  V30 339 H 30.603 -1.7466 -3.7932 0
M  V30 340 N 31.0401 0.771051 -1.3745 0
M  V30 341 C 31.9501 1.91538 -1.35464 0
M  V30 342 C 32.9661 1.72134 -0.254123 0
M  V30 343 O 34.1421 1.95358 -0.489626 0
M  V30 344 C 31.2071 3.26671 -1.16134 0
M  V30 345 C 30.2681 3.58723 -2.35831 0
M  V30 346 C 29.5011 4.87409 -2.17413 0
M  V30 347 O 29.7241 5.58506 -1.15876 0
M  V30 348 O 28.6581 5.18539 -3.05615 0
M  V30 349 H 32.4841 1.96165 -2.31847 0
M  V30 350 H 30.0691 0.9139 -1.18187 0
M  V30 351 H 31.9511 4.07499 -1.07345 0
M  V30 352 H 30.6261 3.22894 -0.228251 0
M  V30 353 H 29.5331 2.78127 -2.50192 0
M  V30 354 H 30.8661 3.67243 -3.27709 0
M  V30 355 N 32.5182 1.22032 0.997298 0
M  V30 356 C 33.4502 0.944263 2.08845 0
M  V30 357 C 34.4632 -0.0754663 1.62625 0
M  V30 358 O 35.6522 0.157994 1.77799 0
M  V30 359 C 32.7522 0.397723 3.36558 0
M  V30 360 C 31.9252 1.47362 4.11829 0
M  V30 361 C 30.9842 0.934951 5.17827 0
M  V30 362 O 30.0102 1.62016 5.45655 0
M  V30 363 N 31.2122 -0.245895 5.79979 0
M  V30 364 H 33.9772 1.88363 2.33109 0
M  V30 365 H 31.5382 1.12661 1.16272 0
M  V30 366 H 33.5302 0.0227771 4.04694 0
M  V30 367 H 32.1002 -0.446646 3.09393 0
M  V30 368 H 31.3202 2.02208 3.38386 0
M  V30 369 H 32.6082 2.19764 4.58891 0
M  V30 370 H 32.0062 -0.819475 5.59733 0
M  V30 371 H 30.5632 -0.562272 6.4937 0
M  V30 372 N 33.9963 -1.19345 1.0293 0
M  V30 373 C 34.9593 -2.20793 0.615069 0
M  V30 374 C 35.9593 -1.57553 -0.321533 0
M  V30 375 O 37.1493 -1.73862 -0.108483 0
M  V30 376 C 34.2813 -3.40754 -0.0999222 0
M  V30 377 H 35.4743 -2.58955 1.51269 0
M  V30 378 H 33.0273 -1.3303 0.820534 0
M  V30 379 H 33.7623 -3.0811 -1.01187 0
M  V30 380 H 33.5473 -3.87889 0.57309 0
M  V30 381 H 35.0373 -4.15898 -0.376645 0
M  V30 382 N 35.4744 -0.807222 -1.35358 0
M  V30 383 C 36.3844 -0.219594 -2.3357 0
M  V30 384 C 37.4004 0.637734 -1.61892 0
M  V30 385 O 38.5764 0.549336 -1.93763 0
M  V30 386 C 35.6414 0.62158 -3.41083 0
M  V30 387 C 34.7024 -0.256315 -4.28534 0
M  V30 388 C 33.9354 0.544807 -5.30912 0
M  V30 389 O 34.1584 1.77944 -5.41934 0
M  V30 390 O 33.0924 -0.0646478 -6.01865 0
M  V30 391 H 36.9184 -1.03208 -2.85625 0
M  V30 392 H 34.5034 -0.569025 -1.38139 0
M  V30 393 H 36.3854 1.10067 -4.06772 0
M  V30 394 H 35.0604 1.41165 -2.91297 0
M  V30 395 H 33.9674 -0.782559 -3.65823 0
M  V30 396 H 35.3004 -1.01034 -4.81719 0
M  V30 397 N 36.9525 1.47285 -0.560781 0
M  V30 398 C 38.3685 1.58065 -0.22081 0
M  V30 399 C 38.5685 1.55892 1.27671 0
M  V30 400 O 37.6245 1.46422 2.0571 0
M  V30 401 C 38.9375 2.88418 -0.850625 0
M  V30 402 C 40.4855 3.02009 -0.822184 0
M  V30 403 C 40.9605 4.35066 -1.43113 0
M  V30 404 N 42.4515 4.41711 -1.39448 0
M  V30 405 C 43.1865 5.43237 -1.83525 0
M  V30 406 N 42.6825 6.51555 -2.35474 0
M  V30 407 N 44.4755 5.34304 -1.74574 0
M  V30 408 H 36.6265 1.46941 -1.53369 0
M  V30 409 H 38.8895 0.699558 -0.639783 0
M  V30 410 H 38.5955 2.95755 -1.9032 0
M  V30 411 H 38.4695 3.75612 -0.345773 0
M  V30 412 H 40.8565 2.94266 0.221714 0
M  V30 413 H 40.9375 2.16347 -1.36483 0
M  V30 414 H 40.5815 4.43565 -2.47412 0
M  V30 415 H 40.5115 5.19465 -0.863899 0
M  V30 416 H 43.0025 3.64027 -1.01452 0
M  V30 417 H 43.3155 7.25203 -2.67021 0
M  V30 418 H 41.6605 6.52435 -2.39487 0
M  V30 419 H 44.8515 4.48581 -1.33763 0
M  V30 420 H 45.0245 6.13288 -2.09242 0
M  V30 421 N 38.4306 0.297415 1.54768 0
M  V30 422 C 39.6606 -0.315165 2.04182 0
M  V30 423 C 40.0686 -1.4834 1.17439 0
M  V30 424 O 39.4116 -1.82695 0.191891 0
M  V30 425 C 39.4736 -0.837583 3.49607 0
M  V30 426 C 39.1376 0.204912 4.5654 0
M  V30 427 C 40.1346 1.03214 5.09552 0
M  V30 428 C 37.8196 0.345578 5.0111 0
M  V30 429 C 39.8136 1.986 6.05671 0
M  V30 430 C 37.5006 1.30289 5.97049 0
M  V30 431 C 38.4986 2.12159 6.49213 0
M  V30 432 O 38.1866 3.06268 7.43273 0
M  V30 433 H 37.9186 -0.0729646 0.672051 0
M  V30 434 H 40.4726 0.433907 2.00765 0
M  V30 435 H 38.7026 -1.63712 3.50336 0
M  V30 436 H 40.3916 -1.36566 3.82236 0
M  V30 437 H 41.1576 0.934312 4.75916 0
M  V30 438 H 37.0366 -0.28171 4.60138 0
M  V30 439 H 40.5806 2.62542 6.46311 0
M  V30 440 H 36.4776 1.40145 6.30103 0
M  V30 441 H 37.2456 3.01205 7.61064 0
M  V30 442 N 39.9087 -1.5758 0.0250728 0
M  V30 443 C 41.1857 -1.82917 -0.692873 0
M  V30 444 C 41.5657 -0.908137 -1.90568 0
M  V30 445 O 40.9137 0.0372298 -2.2847 0
M  V30 446 C 41.1237 -3.32034 -1.07492 0
M  V30 447 C 42.4717 -3.98406 -1.46826 0
M  V30 448 O 43.4957 -3.36505 -1.16801 0
M  V30 449 O 42.3547 -5.07497 -2.02754 0
M  V30 450 H 39.4487 -0.754079 -0.33955 0
M  V30 451 H 41.9947 -1.69619 0.0524456 0
M  V30 452 H 40.7667 -3.90728 -0.211552 0
M  V30 453 H 40.3897 -3.50424 -1.87854 0
M  V30 454 N 41.3868 0.248026 -1.55636 0
M  V30 455 C 42.2968 1.32859 -1.93354 0
M  V30 456 C 43.3128 1.52719 -0.833838 0
M  V30 457 O 44.4888 1.66363 -1.13513 0
M  V30 458 C 41.5538 2.66337 -2.21958 0
M  V30 459 C 40.6148 2.55008 -3.45354 0
M  V30 460 C 39.8478 3.82121 -3.72584 0
M  V30 461 O 40.0708 4.83951 -3.01907 0
M  V30 462 O 39.0048 3.80822 -4.6611 0
M  V30 463 H 42.8308 1.03862 -2.85388 0
M  V30 464 H 40.4158 0.448686 -1.42503 0
M  V30 465 H 42.2978 3.45216 -2.4167 0
M  V30 466 H 40.9728 2.95068 -1.33103 0
M  V30 467 H 39.8798 1.7442 -3.30951 0
M  V30 468 H 41.2128 2.31222 -4.34508 0
M  V30 469 N 42.8649 1.48995 0.513639 0
M  V30 470 C 43.7979 1.59319 1.63379 0
M  V30 471 C 44.7759 0.442816 1.56454 0
M  V30 472 O 45.9599 0.656655 1.76693 0
M  V30 473 C 43.0869 1.5364 3.01848 0
M  V30 474 C 42.1329 2.7372 3.27078 0
M  V30 475 S 42.9659 4.35528 3.1157 0
M  V30 476 C 44.1219 4.32473 4.52458 0
M  V30 477 H 44.3549 2.54079 1.54374 0
M  V30 478 H 41.8879 1.3773 0.697849 0
M  V30 479 H 43.8459 1.51049 3.81699 0
M  V30 480 H 42.5069 0.601898 3.08279 0
M  V30 481 H 41.6999 2.6593 4.28132 0
M  V30 482 H 41.3019 2.73657 2.54927 0
M  V30 483 H 43.5939 4.03414 5.44301 0
M  V30 484 H 44.5369 5.33762 4.65299 0
M  V30 485 H 44.9449 3.62718 4.32546 0
M  V30 486 N 44.343 -0.763751 1.37857 0
M  V30 487 C 45.306 -1.85889 1.34081 0
M  V30 488 C 46.306 -1.58949 0.243277 0
M  V30 489 O 47.496 -1.66882 0.499589 0
M  V30 490 C 44.628 -3.23176 1.08489 0
M  V30 491 H 45.821 -1.90648 2.31502 0
M  V30 492 H 43.374 -0.964367 1.23003 0
M  V30 493 H 44.109 -3.24091 0.116318 0
M  V30 494 H 43.894 -3.44124 1.8794 0
M  V30 495 H 45.384 -4.03254 1.08517 0
M  V30 496 N 45.8211 -1.22559 -0.990812 0
M  V30 497 C 47.0981 -0.959875 -1.70428 0
M  V30 498 C 47.4781 0.524455 -2.04481 0
M  V30 499 O 46.8261 1.49302 -1.72977 0
M  V30 500 C 47.0361 -1.85955 -2.95333 0
M  V30 501 C 48.3841 -2.11687 -3.68068 0
M  V30 502 O 49.4081 -1.8342 -3.05345 0
M  V30 503 O 48.2671 -2.59572 -4.80921 0
M  V30 504 H 45.3611 -0.361154 -0.743974 0
M  V30 505 H 47.9071 -1.33554 -1.04697 0
M  V30 506 H 46.6791 -2.86346 -2.66687 0
M  V30 507 H 46.3021 -1.4856 -3.68803 0
M  V30 508 N 47.2992 1.18797 -1.03562 0
M  V30 509 C 48.2622 2.20464 -0.626769 0
M  V30 510 C 49.2622 1.57721 0.313173 0
M  V30 511 O 50.4522 1.73917 0.0992615 0
M  V30 512 C 47.5842 3.40802 0.0818498 0
M  V30 513 H 48.7772 2.58149 -1.5264 0
M  V30 514 H 46.3302 1.32593 -0.827578 0
M  V30 515 H 47.0652 3.08642 0.995518 0
M  V30 516 H 46.8502 3.8758 -0.593652 0
M  V30 517 H 48.3402 4.16092 0.354584 0
M  V30 518 N 48.7773 0.814389 1.34928 0
M  V30 519 C 49.7103 0.175641 2.27523 0
M  V30 520 C 50.6883 -0.662953 1.48471 0
M  V30 521 O 51.8723 -0.628545 1.77712 0
M  V30 522 C 48.9993 -0.755516 3.30166 0
M  V30 523 C 48.0453 0.00445305 4.265 0
M  V30 524 S 48.8783 1.34582 5.18313 0
M  V30 525 C 50.0343 0.419315 6.24494 0
M  V30 526 H 50.2673 0.960691 2.8135 0
M  V30 527 H 47.8003 0.609846 1.41846 0
M  V30 528 H 49.7583 -1.28723 3.89796 0
M  V30 529 H 48.4193 -1.51402 2.75202 0
M  V30 530 H 47.6123 -0.703077 4.99072 0
M  V30 531 H 47.2143 0.466447 3.7108 0
M  V30 532 H 49.5063 -0.392432 6.76362 0
M  V30 533 H 50.4493 1.11446 6.99275 0
M  V30 534 H 50.8573 0.0115389 5.64499 0
M  V30 535 N 50.2554 -1.46986 0.568584 0
M  V30 536 C 51.6714 -1.57946 0.229189 0
M  V30 537 C 51.8714 -1.56567 -1.26843 0
M  V30 538 O 50.9274 -1.47511 -2.04931 0
M  V30 539 C 52.2404 -2.87963 0.865909 0
M  V30 540 C 53.7884 -3.01568 0.838188 0
M  V30 541 C 54.2634 -4.34301 1.45419 0
M  V30 542 N 55.7544 -4.40965 1.41788 0
M  V30 543 C 56.4894 -5.42256 1.86403 0
M  V30 544 N 55.9854 -6.50297 2.38926 0
M  V30 545 N 57.7784 -5.3337 1.77405 0
M  V30 546 H 49.9294 -1.46126 1.54146 0
M  V30 547 H 52.1924 -0.696156 0.643484 0
M  V30 548 H 51.8984 -2.94742 1.91886 0
M  V30 549 H 51.7724 -3.75423 0.365687 0
M  V30 550 H 54.1594 -2.94379 -0.206106 0
M  V30 551 H 54.2404 -2.1562 1.37629 0
M  V30 552 H 53.8844 -4.42247 2.49761 0
M  V30 553 H 53.8144 -5.19 0.891435 0
M  V30 554 H 56.3054 -3.63484 1.03381 0
M  V30 555 H 56.6184 -7.23777 2.70863 0
M  V30 556 H 54.9634 -6.51155 2.42944 0
M  V30 557 H 58.1544 -4.47865 1.3614 0
M  V30 558 H 58.3274 -6.12169 2.12492 0
M  V30 559 N 51.7335 -0.305618 -1.54608 0
M  V30 560 C 52.9615 0.304775 -2.04643 0
M  V30 561 C 53.3765 1.47167 -1.18268 0
M  V30 562 O 52.7335 1.81296 -0.209328 0
M  V30 563 C 52.7845 0.756564 -3.53495 0
M  V30 564 O 52.5055 -0.36389 -4.36586 0
M  V30 565 C 54.0065 1.43163 -4.19546 0
M  V30 566 H 51.2265 0.0655481 -0.667791 0
M  V30 567 H 53.7705 -0.446592 -1.99564 0
M  V30 568 H 51.9255 1.45794 -3.58919 0
M  V30 569 H 52.3395 -0.0113121 -5.24499 0
M  V30 570 H 53.8135 1.69886 -5.25207 0
M  V30 571 H 54.2905 2.37318 -3.69563 0
M  V30 572 H 54.8965 0.773307 -4.18211 0
M  V30 573 N 53.2116 1.57565 -0.0334293 0
M  V30 574 C 54.1416 2.13511 0.945265 0
M  V30 575 C 55.1226 1.05231 1.33643 0
M  V30 576 O 56.3076 1.33084 1.41429 0
M  V30 577 C 53.4376 2.6657 2.22616 0
M  V30 578 C 52.3916 3.79676 1.97561 0
M  V30 579 C 51.7176 4.1918 3.31952 0
M  V30 580 C 53.0176 5.0557 1.31135 0
M  V30 581 H 54.7116 2.95538 0.479325 0
M  V30 582 H 52.2576 1.42166 0.229115 0
M  V30 583 H 54.2106 3.04344 2.91466 0
M  V30 584 H 52.9346 1.8171 2.71384 0
M  V30 585 H 51.5936 3.42347 1.31127 0
M  V30 586 H 51.2416 3.31296 3.78487 0
M  V30 587 H 50.9416 4.95402 3.15992 0
M  V30 588 H 52.4656 4.59541 4.02063 0
M  V30 589 H 53.8796 5.40903 1.89992 0
M  V30 590 H 52.2766 5.86818 1.25559 0
M  V30 591 H 53.3466 4.84062 0.284894 0
M  V30 592 N 54.6897 -0.239769 1.55765 0
M  V30 593 C 55.9357 -0.968234 1.78194 0
M  V30 594 C 56.2687 -1.84701 0.599938 0
M  V30 595 O 55.5437 -1.9031 -0.401524 0
M  V30 596 C 55.8267 -1.8227 3.10564 0
M  V30 597 C 55.6797 -0.971633 4.3918 0
M  V30 598 C 56.9987 -2.80388 3.39221 0
M  V30 599 H 54.1177 -0.350572 0.648281 0
M  V30 600 H 56.7597 -0.238259 1.885 0
M  V30 601 H 54.9097 -2.44507 3.01908 0
M  V30 602 H 56.5817 -0.367408 4.59835 0
M  V30 603 H 54.8247 -0.276276 4.32919 0
M  V30 604 H 55.4957 -1.60346 5.28198 0
M  V30 605 H 57.9717 -2.28287 3.47885 0
M  V30 606 H 56.8477 -3.3729 4.33044 0
M  V30 607 H 57.1087 -3.57212 2.60484 0
M  V30 608 N 56.1678 -1.49265 -0.50573 0
M  V30 609 C 57.0778 -1.68312 -1.63427 0
M  V30 610 C 58.0938 -0.565682 -1.64548 0
M  V30 611 O 59.2698 -0.839801 -1.83055 0
M  V30 612 C 56.3348 -1.74107 -2.99813 0
M  V30 613 C 55.3958 -2.97653 -3.09356 0
M  V30 614 C 54.6288 -3.03163 -4.39236 0
M  V30 615 O 54.8518 -2.16396 -5.27758 0
M  V30 616 O 53.7858 -3.9558 -4.53652 0
M  V30 617 H 57.6118 -2.63907 -1.50289 0
M  V30 618 H 55.1968 -1.32951 -0.681502 0
M  V30 619 H 57.0788 -1.803 -3.80881 0
M  V30 620 H 55.7538 -0.816901 -3.13223 0
M  V30 621 H 54.6608 -2.96981 -2.27493 0
M  V30 622 H 55.9938 -3.89535 -3.00871 0
M  V30 623 N 57.6459 0.756429 -1.3826 0
M  V30 624 C 58.5779 1.87971 -1.31147 0
M  V30 625 C 59.5909 1.61248 -0.224239 0
M  V30 626 O 60.7799 1.71881 -0.481581 0
M  V30 627 C 57.8799 3.23545 -1.00857 0
M  V30 628 C 57.0529 3.77794 -2.20432 0
M  V30 629 C 56.1119 4.91877 -1.86931 0
M  V30 630 O 55.1379 5.06659 -2.59395 0
M  V30 631 N 56.3399 5.74643 -0.822568 0
M  V30 632 H 59.1049 1.94585 -2.2794 0
M  V30 633 H 56.6659 0.936234 -1.32084 0
M  V30 634 H 58.6579 3.97403 -0.765021 0
M  V30 635 H 57.2279 3.12335 -0.128687 0
M  V30 636 H 56.4479 2.95534 -2.6087 0
M  V30 637 H 57.7359 4.10771 -3.00241 0
M  V30 638 H 57.1339 5.65266 -0.221575 0
M  V30 639 H 55.6909 6.48661 -0.638899 0
M  V30 640 N 59.124 1.23083 0.984299 0
M  V30 641 C 60.364 1.07226 1.74017 0
M  V30 642 C 60.728 -0.384766 1.88105 0
M  V30 643 O 61.929 -0.664411 2.60459 0
M  V30 644 C 60.2 1.77348 3.10294 0
M  V30 645 S 61.759 1.77014 4.01512 0
M  V30 646 H 58.577 0.383819 0.598502 0
M  V30 647 H 61.179 1.56158 1.17622 0
M  V30 648 H 59.883 2.82506 2.97689 0
M  V30 649 H 59.414 1.28682 3.71759 0
M  V30 650 H 61.429 0.825956 4.89277 0
M  V30 651 N 60.6021 -1.18246 1.0419 0
M  V30 652 C 61.8481 -1.88536 0.747122 0
M  V30 653 C 62.1811 -1.80223 -0.723409 0
M  V30 654 O 61.4561 -1.20337 -1.52804 0
M  V30 655 C 61.7391 -3.38968 1.21544 0
M  V30 656 C 61.5921 -3.56084 2.74816 0
M  V30 657 C 62.9111 -4.32648 0.806482 0
M  V30 658 H 60.0301 -0.684619 0.272883 0
M  V30 659 H 62.6721 -1.39113 1.29413 0
M  V30 660 H 60.8221 -3.8119 0.750081 0
M  V30 661 H 62.4941 -3.22946 3.29399 0
M  V30 662 H 60.7371 -2.98699 3.14582 0
M  V30 663 H 61.4081 -4.61639 3.02644 0
M  V30 664 H 63.8841 -3.98211 1.20695 0
M  V30 665 H 62.7601 -5.36462 1.1619 0
M  V30 666 H 63.0211 -4.41146 -0.29029 0
M  V30 667 N 62.0802 -0.821533 -1.34494 0
M  V30 668 C 63.0282 -0.230702 -2.31453 0
M  V30 669 C 64.0222 0.627793 -1.57338 0
M  V30 670 O 65.2282 0.519288 -1.72347 0
M  V30 671 H 61.6032 -0.0558577 -0.749923 0
M  V30 672 H 63.5742 -1.06332 -2.78812 0
M  V30 673 C 62.3232 0.59391 -3.4259 0
M  V30 674 H 61.6462 -0.0573588 -3.99759 0
M  V30 675 H 63.0862 0.973446 -4.12674 0
M  V30 676 C 61.5452 1.76568 -2.86924 0
M  V30 677 O 62.0752 2.8638 -2.81691 0
M  V30 678 N 60.2812 1.58198 -2.43766 0
M  V30 679 H 59.8282 0.68872 -2.48222 0
M  V30 680 H 59.7862 2.36752 -2.06871 0
M  V30 681 N 63.5583 1.46682 -0.576371 0
M  V30 682 C 64.5063 2.31953 0.17335 0
M  V30 683 C 65.5003 1.44098 0.89062 0
M  V30 684 O 66.7063 1.60759 0.809728 0
M  V30 685 H 63.0813 0.748273 0.0747727 0
M  V30 686 H 65.0523 2.93007 -0.564738 0
M  V30 687 C 63.8013 3.27142 1.17786 0
M  V30 688 H 63.1243 3.94719 0.635361 0
M  V30 689 H 64.5643 3.896 1.67296 0
M  V30 690 C 63.0233 2.52036 2.23561 0
M  V30 691 O 63.5533 2.27877 3.3081 0
M  V30 692 N 61.7593 2.12709 1.97998 0
M  V30 693 H 61.3063 2.32557 1.10792 0
M  V30 694 H 61.2643 1.62776 2.68982 0
M  V30 695 N 65.0364 0.313813 1.54444 0
M  V30 696 C 66.3134 -0.345447 1.92525 0
M  V30 697 C 66.6934 -1.70667 1.24242 0
M  V30 698 O 66.0414 -2.25273 0.382654 0
M  V30 699 C 66.2514 -0.44737 3.46121 0
M  V30 700 C 67.5994 -0.712238 4.18584 0
M  V30 701 O 68.6234 -0.530678 3.52225 0
M  V30 702 O 67.4824 -1.06183 5.36085 0
M  V30 703 H 64.5764 -0.195407 0.803583 0
M  V30 704 H 67.1224 0.362813 1.65776 0
M  V30 705 H 65.8944 0.509043 3.87975 0
M  V30 706 H 65.5174 -1.20359 3.78945 0
M  V30 707 N 66.5145 -1.57545 0.0417849 0
M  V30 708 C 67.4615 -2.10977 -0.935805 0
M  V30 709 C 68.4315 -1.01486 -1.31491 0
M  V30 710 O 69.6165 -1.2898 -1.40602 0
M  V30 711 C 66.7565 -2.65169 -2.2086 0
M  V30 712 C 65.8695 -3.88714 -1.88482 0
M  V30 713 C 65.0045 -4.31254 -3.1015 0
M  V30 714 C 64.0435 -5.47524 -2.7365 0
M  V30 715 N 63.1805 -5.85162 -3.87982 0
M  V30 716 H 68.0205 -2.94218 -0.473249 0
M  V30 717 H 65.5575 -1.45415 -0.221981 0
M  V30 718 H 67.5155 -2.94685 -2.95325 0
M  V30 719 H 66.1455 -1.8474 -2.64709 0
M  V30 720 H 65.1975 -3.65849 -1.04205 0
M  V30 721 H 66.5095 -4.73245 -1.57608 0
M  V30 722 H 65.6635 -4.62273 -3.92923 0
M  V30 723 H 64.4025 -3.45516 -3.44195 0
M  V30 724 H 63.4075 -5.16187 -1.89291 0
M  V30 725 H 64.6325 -6.34971 -2.40807 0
M  V30 726 H 62.5785 -5.02377 -4.21846 0
M  V30 727 H 62.4955 -6.64362 -3.60775 0
M  V30 728 H 63.7635 -6.20791 -4.71422 0
M  V30 729 N 67.9926 0.231505 -1.5589 0
M  V30 730 C 69.2696 0.981096 -1.69215 0
M  V30 731 C 69.6496 2.02799 -0.586164 0
M  V30 732 O 68.9976 2.24823 0.408253 0
M  V30 733 C 69.2076 1.60054 -3.10135 0
M  V30 734 C 70.5556 2.09658 -3.69227 0
M  V30 735 O 71.5796 1.69967 -3.13033 0
M  V30 736 O 70.4386 2.8258 -4.67772 0
M  V30 737 H 67.5326 0.457653 -0.688827 0
M  V30 738 H 70.0786 0.224073 -1.68214 0
M  V30 739 H 68.8506 0.844105 -3.82087 0
M  V30 740 H 68.4736 2.42336 -3.15212 0
M  V30 741 N 69.4707 1.49531 0.497807 0
M  V30 742 C 70.3807 1.69176 1.62532 0
M  V30 743 C 71.3967 0.5744 1.64246 0
M  V30 744 O 72.5727 0.849497 1.82608 0
M  V30 745 C 69.6377 1.75695 2.98885 0
M  V30 746 C 68.6987 2.9929 3.07773 0
M  V30 747 C 67.9317 3.05488 4.37622 0
M  V30 748 O 68.1547 2.19192 5.26603 0
M  V30 749 O 67.0887 3.9798 4.51548 0
M  V30 750 H 70.9147 2.647 1.48887 0
M  V30 751 H 68.4997 1.3331 0.674441 0
M  V30 752 H 70.3817 1.82317 3.79919 0
M  V30 753 H 69.0567 0.8335 3.12785 0
M  V30 754 H 67.9637 2.98183 2.25915 0
M  V30 755 H 69.2967 3.91125 2.98801 0
M  V30 756 N 70.9488 -0.749086 1.3866 0
M  V30 757 C 71.8788 -1.8764 1.38973 0
M  V30 758 C 72.8598 -1.68178 0.255004 0
M  V30 759 O 74.0448 -1.88704 0.458754 0
M  V30 760 C 71.1748 -3.25222 1.21851 0
M  V30 761 C 70.1288 -3.59295 2.32575 0
M  V30 762 C 69.4548 -4.95663 2.00555 0
M  V30 763 C 70.7548 -3.63709 3.7485 0
M  V30 764 H 72.4488 -1.87635 2.3331 0
M  V30 765 H 69.9948 -0.901329 1.12303 0
M  V30 766 H 71.9478 -4.03746 1.20695 0
M  V30 767 H 70.6718 -3.25719 0.239775 0
M  V30 768 H 69.3308 -2.83093 2.32925 0
M  V30 769 H 68.9788 -4.92724 1.01154 0
M  V30 770 H 68.6788 -5.19429 2.74714 0
M  V30 771 H 70.2028 -5.7656 2.01024 0
M  V30 772 H 71.6168 -4.32338 3.76506 0
M  V30 773 H 70.0138 -3.98986 4.48252 0
M  V30 774 H 71.0838 -2.63834 4.06841 0
M  V30 775 N 72.4269 -1.23603 -0.977757 0
M  V30 776 C 73.6549 -1.09646 -1.75458 0
M  V30 777 C 74.0699 0.351859 -1.85492 0
M  V30 778 O 73.4269 1.24327 -1.336 0
M  V30 779 C 73.4779 -1.71895 -3.18016 0
M  V30 780 O 73.1989 -3.11063 -3.08498 0
M  V30 781 C 74.6999 -1.63415 -4.12081 0
M  V30 782 H 71.9199 -0.38359 -0.550545 0
M  V30 783 H 74.4639 -1.63507 -1.22824 0
M  V30 784 H 72.6189 -1.22061 -3.67668 0
M  V30 785 H 73.0329 -3.41305 -3.9826 0
M  V30 786 H 74.5069 -2.11669 -5.09804 0
M  V30 787 H 74.9839 -0.593462 -4.35172 0
M  V30 788 H 75.5899 -2.12628 -3.68334 0
M  V30 789 N 73.905 1.17692 -1.04816 0
M  V30 790 C 75.151 1.88137 -0.75711 0
M  V30 791 C 75.484 1.80604 0.713841 0
M  V30 792 O 74.759 1.21146 1.52164 0
M  V30 793 C 75.042 3.38318 -1.2334 0
M  V30 794 C 74.895 3.54622 -2.76701 0
M  V30 795 C 76.214 4.32214 -0.829415 0
M  V30 796 H 73.333 0.683163 -0.27651 0
M  V30 797 H 75.975 1.38424 -1.30149 0
M  V30 798 H 74.125 3.80787 -0.770286 0
M  V30 799 H 75.797 3.21194 -3.31107 0
M  V30 800 H 74.04 2.97026 -3.16161 0
M  V30 801 H 74.711 4.60028 -3.05088 0
M  V30 802 H 77.187 3.97565 -1.22805 0
M  V30 803 H 76.063 5.35838 -1.19033 0
M  V30 804 H 76.324 4.41294 0.266891 0
M  V30 805 N 75.3831 0.828654 1.34056 0
M  V30 806 C 76.2931 0.256725 2.33191 0
M  V30 807 C 77.3091 -0.611898 1.62886 0
M  V30 808 O 78.4851 -0.51844 1.94613 0
M  V30 809 C 75.5501 -0.567238 3.42028 0
M  V30 810 C 74.6111 0.324458 4.28072 0
M  V30 811 C 73.8441 -0.460274 5.31712 0
M  V30 812 O 74.0671 -1.693 5.44696 0
M  V30 813 O 73.0011 0.160391 6.01686 0
M  V30 814 H 76.8271 1.07739 2.83947 0
M  V30 815 H 74.4121 0.59093 1.37217 0
M  V30 816 H 76.2941 -1.03582 4.08471 0
M  V30 817 H 74.9691 -1.36513 2.93506 0
M  V30 818 H 73.8761 0.840659 3.64532 0
M  V30 819 H 75.2091 1.08685 4.8005 0
M  V30 820 N 76.8612 -1.46375 0.584142 0
M  V30 821 C 77.7712 -2.34115 -0.150728 0
M  V30 822 C 78.7872 -1.49838 -0.884567 0
M  V30 823 O 79.9632 -1.82704 -0.847429 0
M  V30 824 C 77.0282 -3.2705 -1.15062 0
M  V30 825 C 76.0892 -4.27228 -0.421293 0
M  V30 826 C 75.3222 -5.15722 -1.37355 0
M  V30 827 O 75.5452 -5.07176 -2.61014 0
M  V30 828 O 74.4792 -5.95383 -0.883355 0
M  V30 829 H 78.3052 -2.98309 0.569708 0
M  V30 830 H 75.8902 -1.45373 0.344535 0
M  V30 831 H 77.7722 -3.84381 -1.72712 0
M  V30 832 H 76.4472 -2.65451 -1.8525 0
M  V30 833 H 75.3542 -3.7358 0.197085 0
M  V30 834 H 76.6872 -4.91616 0.239641 0
M  V30 835 N 78.3393 -0.321999 -1.54275 0
M  V30 836 C 79.7553 0.0306999 -1.5957 0
M  V30 837 C 79.9553 1.50614 -1.33857 0
M  V30 838 O 79.0113 2.2619 -1.12223 0
M  V30 839 C 80.3243 -0.386122 -2.98211 0
M  V30 840 C 81.8723 -0.336647 -3.11184 0
M  V30 841 C 82.3473 -0.728607 -4.52167 0
M  V30 842 N 83.8383 -0.681952 -4.58152 0
M  V30 843 C 84.5733 -0.957449 -5.6535 0
M  V30 844 N 84.0693 -1.3 -6.80494 0
M  V30 845 N 85.8623 -0.883113 -5.55119 0
M  V30 846 H 78.0133 -1.28332 -1.69247 0
M  V30 847 H 80.2763 -0.521716 -0.791528 0
M  V30 848 H 79.9823 -1.41404 -3.22022 0
M  V30 849 H 79.8563 0.249662 -3.76373 0
M  V30 850 H 82.2433 0.682058 -2.8711 0
M  V30 851 H 82.3243 -1.00734 -2.3513 0
M  V30 852 H 81.9683 -1.74522 -4.76974 0
M  V30 853 H 81.8983 -0.0356152 -5.26588 0
M  V30 854 H 84.3893 -0.428985 -3.75457 0
M  V30 855 H 84.7023 -1.49563 -7.58189 0
M  V30 856 H 83.0473 -1.33824 -6.81994 0
M  V30 857 H 86.2383 -0.615001 -4.64042 0
M  V30 858 H 86.4113 -1.10118 -6.38575 0
M  V30 859 N 79.8174 1.5752 -0.0501392 0
M  V30 860 C 80.7654 2.12651 0.942459 0
M  V30 861 C 81.7594 1.05807 1.32292 0
M  V30 862 O 82.9654 1.24217 1.3027 0
M  V30 863 H 79.3404 0.679673 0.321789 0
M  V30 864 H 81.3114 2.94951 0.452356 0
M  V30 865 C 80.0604 2.68565 2.20836 0
M  V30 866 H 79.3834 3.50439 1.92439 0
M  V30 867 H 80.8234 3.10761 2.8845 0
M  V30 868 C 79.2824 1.62291 2.95234 0
M  V30 869 O 79.8124 1.03508 3.88135 0
M  V30 870 N 78.0184 1.33836 2.57946 0
M  V30 871 H 77.5654 1.81826 1.82475 0
M  V30 872 H 77.5234 0.629595 3.08032 0
M  V30 873 N 81.2955 -0.223234 1.56011 0
M  V30 874 C 82.2255 -1.27988 1.95298 0
M  V30 875 C 83.2065 -1.48976 0.820979 0
M  V30 876 O 84.3915 -1.61188 1.08315 0
M  V30 877 C 81.5215 -2.63 2.26822 0
M  V30 878 C 80.4755 -2.56671 3.42497 0
M  V30 879 C 79.8015 -3.95697 3.59622 0
M  V30 880 C 81.1015 -2.11601 4.77517 0
M  V30 881 H 82.7955 -0.953525 2.8381 0
M  V30 882 H 80.3415 -0.457244 1.36548 0
M  V30 883 H 82.2945 -3.37077 2.52898 0
M  V30 884 H 81.0185 -2.9732 1.35161 0
M  V30 885 H 79.6775 -1.85051 3.16467 0
M  V30 886 H 79.3255 -4.27322 2.6534 0
M  V30 887 H 79.0255 -3.92345 4.37424 0
M  V30 888 H 80.5495 -4.71438 3.88044 0
M  V30 889 H 81.9635 -2.7542 5.02809 0
M  V30 890 H 80.3605 -2.19311 5.5859 0
M  V30 891 H 81.4305 -1.06824 4.72987 0
M  V30 892 N 82.7736 -1.49793 -0.48987 0
M  V30 893 C 83.7036 -1.70201 -1.59856 0
M  V30 894 C 84.6846 -0.55076 -1.60937 0
M  V30 895 O 85.8696 -0.787841 -1.77501 0
M  V30 896 C 82.9996 -1.77882 -2.98287 0
M  V30 897 C 81.9536 -2.92907 -3.12073 0
M  V30 898 C 81.2796 -2.85712 -4.51965 0
M  V30 899 C 82.5796 -4.3369 -2.91051 0
M  V30 900 H 84.2736 -2.63025 -1.43032 0
M  V30 901 H 81.8196 -1.26574 -0.686664 0
M  V30 902 H 83.7726 -1.90744 -3.75759 0
M  V30 903 H 82.4966 -0.816653 -3.16225 0
M  V30 904 H 81.1556 -2.79665 -2.37029 0
M  V30 905 H 80.8036 -1.8738 -4.66795 0
M  V30 906 H 80.5036 -3.62921 -4.62128 0
M  V30 907 H 82.0276 -3.00598 -5.31482 0
M  V30 908 H 83.4416 -4.47555 -3.58284 0
M  V30 909 H 81.8386 -5.12205 -3.12675 0
M  V30 910 H 82.9086 -4.47362 -1.87071 0
M  V30 911 N 84.2517 0.741722 -1.39055 0
M  V30 912 C 85.4767 1.53607 -1.39354 0
M  V30 913 C 85.9017 1.88096 0.0116905 0
M  V30 914 O 85.2597 1.5143 0.996924 0
M  V30 915 C 85.3077 2.80441 -2.26682 0
M  V30 916 O 84.4117 3.76088 -1.69208 0
M  V30 917 H 83.7527 0.464142 -0.474835 0
M  V30 918 H 86.2827 0.915665 -1.82967 0
M  V30 919 H 86.2927 3.29246 -2.40959 0
M  V30 920 H 84.9677 2.5467 -3.2881 0
M  V30 921 H 83.5447 3.34833 -1.64138 0
M  V30 922 N 85.7298 1.2412 0.971189 0
M  V30 923 C 86.9758 1.08041 1.71625 0
M  V30 924 C 87.3088 -0.380407 1.90438 0
M  V30 925 O 86.5838 -1.28127 1.46334 0
M  V30 926 C 86.8668 1.81682 3.10908 0
M  V30 927 C 86.7198 3.35493 2.99608 0
M  V30 928 C 88.0388 1.58671 4.10501 0
M  V30 929 H 85.1578 0.39388 0.622919 0
M  V30 930 H 87.7998 1.52743 1.13003 0
M  V30 931 H 85.9498 1.43684 3.60953 0
M  V30 932 H 87.6218 3.83068 2.57015 0
M  V30 933 H 85.8648 3.64052 2.35899 0
M  V30 934 H 86.5358 3.82217 3.98264 0
M  V30 935 H 89.0118 1.91719 3.69301 0
M  V30 936 H 87.8878 2.1266 5.06031 0
M  V30 937 H 88.1488 0.524161 4.38982 0
M  V30 938 N 87.2079 -1.17134 1.05439 0
M  V30 939 C 88.1709 -2.19439 0.661764 0
M  V30 940 C 89.1709 -1.58199 -0.288042 0
M  V30 941 O 90.3609 -1.74053 -0.0715803 0
M  V30 942 C 87.4929 -3.40889 -0.0276209 0
M  V30 943 H 88.6859 -2.55688 1.56728 0
M  V30 944 H 86.2389 -1.31259 0.848567 0
M  V30 945 H 86.9739 -3.10187 -0.94629 0
M  V30 946 H 86.7589 -3.86586 0.655238 0
M  V30 947 H 88.2489 -4.16603 -0.288342 0
M  V30 948 N 88.686 -0.835752 -1.33615 0
M  V30 949 C 89.916 -0.442701 -2.01801 0
M  V30 950 C 90.324 0.959807 -1.63047 0
M  V30 951 O 89.667 1.63468 -0.838088 0
M  V30 952 C 89.729 -0.480125 -3.56279 0
M  V30 953 C 89.393 -1.8382 -4.18401 0
M  V30 954 C 90.39 -2.80097 -4.37998 0
M  V30 955 C 88.075 -2.13019 -4.54894 0
M  V30 956 C 90.069 -4.03736 -4.9323 0
M  V30 957 C 87.756 -3.36916 -5.09834 0
M  V30 958 C 88.754 -4.32091 -5.28948 0
M  V30 959 O 88.442 -5.53797 -5.82721 0
M  V30 960 H 88.174 -0.17441 -0.653114 0
M  V30 961 H 90.728 -1.129 -1.71589 0
M  V30 962 H 88.958 0.262931 -3.85805 0
M  V30 963 H 90.647 -0.105335 -4.05763 0
M  V30 964 H 91.413 -2.58838 -4.10156 0
M  V30 965 H 87.292 -1.39733 -4.39313 0
M  V30 966 H 90.836 -4.78034 -5.08064 0
M  V30 967 H 86.733 -3.58033 -5.37106 0
M  V30 968 H 87.501 -5.55494 -6.0114 0
M  V30 969 N 90.1641 1.46063 -0.591896 0
M  V30 970 C 91.1111 2.30399 0.136069 0
M  V30 971 C 92.0811 1.41169 0.875238 0
M  V30 972 O 93.2661 1.70112 0.86409 0
M  V30 973 C 90.4061 3.25804 1.13781 0
M  V30 974 C 89.5191 4.30134 0.401137 0
M  V30 975 C 88.6541 5.12659 1.39121 0
M  V30 976 C 87.6931 6.0873 0.641462 0
M  V30 977 N 86.8301 6.8409 1.58004 0
M  V30 978 H 91.6701 2.92118 -0.589144 0
M  V30 979 H 89.2071 1.43959 -0.302342 0
M  V30 980 H 91.1651 3.79569 1.73156 0
M  V30 981 H 89.7951 2.65872 1.83062 0
M  V30 982 H 88.8471 3.79152 -0.307826 0
M  V30 983 H 90.1591 4.98458 -0.184565 0
M  V30 984 H 89.3131 5.70747 2.05749 0
M  V30 985 H 88.0521 4.44316 2.01084 0
M  V30 986 H 87.0571 5.49786 -0.0385419 0
M  V30 987 H 88.2821 6.79095 0.0270945 0
M  V30 988 H 86.2281 6.18449 2.18761 0
M  V30 989 H 86.1451 7.48709 1.04738 0
M  V30 990 H 87.4131 7.4673 2.23639 0
M  V30 991 N 91.6422 0.330177 1.54103 0
M  V30 992 C 92.5902 -0.548226 2.26047 0
M  V30 993 C 93.5842 -1.11309 1.27698 0
M  V30 994 O 94.7902 -1.06036 1.45452 0
M  V30 995 H 91.1652 -0.195456 0.726155 0
M  V30 996 H 93.1362 0.0807567 2.98291 0
M  V30 997 C 91.8852 -1.69415 3.03634 0
M  V30 998 H 91.2082 -1.26876 3.79134 0
M  V30 999 H 92.6482 -2.28423 3.5721 0
M  V30 1000 C 91.1072 -2.61569 2.12328 0
M  V30 1001 O 91.6372 -3.63462 1.7105 0
M  V30 1002 N 89.8432 -2.29952 1.77681 0
M  V30 1003 H 89.3902 -1.47134 2.11446 0
M  V30 1004 H 89.3482 -2.91871 1.16869 0
M  V30 1005 N 93.1203 -1.57491 0.0584922 0
M  V30 1006 C 94.0833 -2.1085 -0.898617 0
M  V30 1007 C 95.0833 -1.02964 -1.23511 0
M  V30 1008 O 96.2733 -1.29007 -1.17059 0
M  V30 1009 C 93.4053 -2.59881 -2.20623 0
M  V30 1010 H 94.5983 -2.96715 -0.435936 0
M  V30 1011 H 92.1513 -1.55141 -0.190023 0
M  V30 1012 H 92.8863 -1.77431 -2.71457 0
M  V30 1013 H 92.6713 -3.38727 -1.97501 0
M  V30 1014 H 94.1613 -3.01285 -2.89166 0
M  V30 1015 N 94.5984 0.214957 -1.56127 0
M  V30 1016 C 95.8444 0.939762 -1.79712 0
M  V30 1017 C 96.1774 1.83723 -0.629247 0
M  V30 1018 O 95.4524 1.90925 0.371197 0
M  V30 1019 C 95.7354 1.77306 -3.13424 0
M  V30 1020 C 95.5884 0.90164 -4.40671 0
M  V30 1021 C 96.9074 2.74956 -3.43638 0
M  V30 1022 H 94.0264 0.340214 -0.653776 0
M  V30 1023 H 96.6684 0.20824 -1.88855 0
M  V30 1024 H 94.8184 2.39673 -3.0576 0
M  V30 1025 H 96.4904 0.294206 -4.60361 0
M  V30 1026 H 94.7334 0.207368 -4.33304 0
M  V30 1027 H 95.4044 1.51923 -5.30682 0
M  V30 1028 H 97.8804 2.22724 -3.51473 0
M  V30 1029 H 96.7564 3.30358 -4.38355 0
M  V30 1030 H 97.0174 3.53023 -2.66134 0
M  V30 1031 N 96.0765 1.50051 0.48192 0
M  V30 1032 C 97.3245 1.60181 1.23234 0
M  V30 1033 C 97.6455 0.299176 1.92691 0
M  V30 1034 O 96.9155 -0.682708 1.83619 0
M  V30 1035 H 95.4955 0.590232 0.457859 0
M  V30 1036 H 98.1575 1.86775 0.556881 0
M  V30 1037 H 97.2535 2.40753 1.98607 0
M  V30 1038 N 97.5546 -0.734337 1.39446 0
M  V30 1039 C 98.5176 -1.83004 1.37994 0
M  V30 1040 C 99.5176 -1.58397 0.276938 0
M  V30 1041 O 100.708 -1.65785 0.534875 0
M  V30 1042 C 97.8396 -3.20802 1.1532 0
M  V30 1043 H 99.0326 -1.85694 2.35494 0
M  V30 1044 H 96.5856 -0.938059 1.25021 0
M  V30 1045 H 97.3206 -3.23772 0.185036 0
M  V30 1046 H 97.1056 -3.4006 1.95197 0
M  V30 1047 H 98.5956 -4.00862 1.17046 0
M  V30 1048 N 99.0327 -1.24633 -0.964593 0
M  V30 1049 C 100.449 -1.01239 -1.2338 0
M  V30 1050 C 100.649 0.2769 -1.99588 0
M  V30 1051 O 99.7047 0.992241 -2.32187 0
M  V30 1052 C 101.018 -2.22937 -2.01791 0
M  V30 1053 C 102.566 -2.27594 -2.14872 0
M  V30 1054 C 103.041 -3.48921 -2.96678 0
M  V30 1055 N 104.532 -3.49257 -3.04259 0
M  V30 1056 C 105.267 -4.39795 -3.67924 0
M  V30 1057 N 104.763 -5.40591 -4.33281 0
M  V30 1058 N 106.556 -4.275 -3.64966 0
M  V30 1059 H 98.7067 -2.0748 -0.454502 0
M  V30 1060 H 100.97 -0.910647 -0.26349 0
M  V30 1061 H 100.676 -3.16587 -1.53184 0
M  V30 1062 H 100.55 -2.25306 -3.02518 0
M  V30 1063 H 102.937 -1.34473 -2.6268 0
M  V30 1064 H 103.018 -2.2925 -1.13482 0
M  V30 1065 H 102.662 -4.42359 -2.49562 0
M  V30 1066 H 102.592 -3.4451 -3.98272 0
M  V30 1067 H 105.083 -2.76337 -2.57771 0
M  V30 1068 H 105.396 -6.05904 -4.79687 0
M  V30 1069 H 103.741 -5.44475 -4.3194 0
M  V30 1070 H 106.932 -3.47987 -3.13086 0
M  V30 1071 H 107.105 -4.98258 -4.14298 0
M  V30 1072 N 100.511 1.16574 -1.06058 0
M  V30 1073 C 101.927 1.3904 -0.783585 0
M  V30 1074 C 102.127 1.91784 0.618145 0
M  V30 1075 O 101.183 2.11511 1.37911 0
M  V30 1076 C 102.496 2.37329 -1.84649 0
M  V30 1077 C 104.044 2.51018 -1.86973 0
M  V30 1078 C 104.519 3.52588 -2.92311 0
M  V30 1079 N 106.01 3.60113 -2.91329 0
M  V30 1080 C 106.745 4.38486 -3.69482 0
M  V30 1081 N 106.241 5.20302 -4.57447 0
M  V30 1082 N 108.034 4.33446 -3.57885 0
M  V30 1083 H 100.185 0.806725 -1.96483 0
M  V30 1084 H 102.448 0.417117 -0.851303 0
M  V30 1085 H 102.154 2.05663 -2.85299 0
M  V30 1086 H 102.028 3.36946 -1.6955 0
M  V30 1087 H 104.415 2.81989 -0.869827 0
M  V30 1088 H 104.496 1.51445 -2.0615 0
M  V30 1089 H 104.14 3.22354 -3.92492 0
M  V30 1090 H 104.07 4.51886 -2.70383 0
M  V30 1091 H 106.561 3.01707 -2.27555 0
M  V30 1092 H 106.874 5.77311 -5.13743 0
M  V30 1093 H 105.219 5.19653 -4.61503 0
M  V30 1094 H 108.41 3.68586 -2.88551 0
M  V30 1095 H 108.583 4.94279 -4.19037 0
M  V30 1096 N 101.989 0.842826 1.3317 0
M  V30 1097 C 102.952 0.284065 2.27433 0
M  V30 1098 C 103.952 -0.54948 1.5112 0
M  V30 1099 O 105.142 -0.362699 1.70382 0
M  V30 1100 C 102.274 -0.599384 3.35589 0
M  V30 1101 H 103.467 1.11589 2.78366 0
M  V30 1102 H 101.02 0.616221 1.4364 0
M  V30 1103 H 101.755 -1.45349 2.89904 0
M  V30 1104 H 101.54 -0.00291266 3.921 0
M  V30 1105 H 103.03 -0.983488 4.05854 0
M  V30 1106 N 103.467 -1.45747 0.599634 0
M  V30 1107 C 104.692 -2.07178 0.0960198 0
M  V30 1108 C 105.117 -1.44268 -1.207 0
M  V30 1109 O 104.475 -0.532503 -1.73303 0
M  V30 1110 C 104.523 -3.60579 -0.0385348 0
M  V30 1111 O 103.627 -3.97713 -1.0908 0
M  V30 1112 H 102.968 -0.660251 0.0704593 0
M  V30 1113 H 105.498 -1.87124 0.827385 0
M  V30 1114 H 105.508 -4.07298 -0.239304 0
M  V30 1115 H 104.183 -4.05756 0.912947 0
M  V30 1116 H 102.76 -3.62678 -0.867135 0
M  V30 1117 N 104.945 -0.338344 -1.53925 0
M  V30 1118 C 106.191 0.252842 -2.01822 0
M  V30 1119 C 106.546 1.48612 -1.22197 0
M  V30 1120 O 105.839 1.89238 -0.299892 0
M  V30 1121 C 106.033 0.62448 -3.51902 0
M  V30 1122 C 105.862 -0.571235 -4.46057 0
M  V30 1123 C 104.632 -1.07493 -4.93734 0
M  V30 1124 C 106.83 -1.42807 -4.94076 0
M  V30 1125 N 104.812 -2.23351 -5.71828 0
M  V30 1126 C 106.183 -2.43362 -5.70241 0
M  V30 1127 C 108.238 -1.45412 -4.76193 0
M  V30 1128 C 106.941 -3.46346 -6.30426 0
M  V30 1129 C 108.967 -2.47274 -5.37224 0
M  V30 1130 C 108.329 -3.46555 -6.13253 0
M  V30 1131 H 104.428 0.0559669 -0.779995 0
M  V30 1132 H 107.012 -0.476732 -1.88773 0
M  V30 1133 H 105.183 1.32317 -3.65167 0
M  V30 1134 H 106.915 1.19841 -3.86549 0
M  V30 1135 H 103.67 -0.643848 -4.69203 0
M  V30 1136 H 104.094 -2.81834 -6.15548 0
M  V30 1137 H 108.736 -0.700171 -4.16962 0
M  V30 1138 H 106.454 -4.22638 -6.88769 0
M  V30 1139 H 110.04 -2.50109 -5.25297 0
M  V30 1140 H 108.92 -4.24083 -6.59638 0
M  V30 1141 N 106.423 1.57458 -0.0668435 0
M  V30 1142 C 107.839 1.56947 0.289772 0
M  V30 1143 C 108.039 1.07584 1.70376 0
M  V30 1144 O 107.095 0.739486 2.41429 0
M  V30 1145 C 108.408 3.0052 0.103943 0
M  V30 1146 C 109.956 3.12517 0.173857 0
M  V30 1147 C 110.431 4.57997 0.0163682 0
M  V30 1148 N 111.922 4.63144 0.0721352 0
M  V30 1149 C 112.657 5.73394 -0.0253794 0
M  V30 1150 N 112.153 6.92576 -0.176133 0
M  V30 1151 N 113.946 5.62091 0.0313305 0
M  V30 1152 H 106.097 1.87863 -0.991027 0
M  V30 1153 H 108.36 0.86583 -0.38606 0
M  V30 1154 H 108.066 3.40729 -0.871572 0
M  V30 1155 H 107.94 3.67304 0.858366 0
M  V30 1156 H 110.327 2.72197 1.13985 0
M  V30 1157 H 110.408 2.48381 -0.611586 0
M  V30 1158 H 110.052 4.99005 -0.946374 0
M  V30 1159 H 109.982 5.20158 0.821153 0
M  V30 1160 H 112.473 3.77436 0.187263 0
M  V30 1161 H 112.786 7.72418 -0.242821 0
M  V30 1162 H 111.131 6.94678 -0.211429 0
M  V30 1163 H 114.322 4.67867 0.147773 0
M  V30 1164 H 114.495 6.47982 -0.048121 0
M  V30 1165 N 107.901 -0.206675 1.56239 0
M  V30 1166 C 109.15 -0.926964 1.79138 0
M  V30 1167 C 109.463 -1.84901 0.638043 0
M  V30 1168 O 110.669 -2.60906 0.751033 0
M  V30 1169 C 109.125 -1.6986 3.17294 0
M  V30 1170 C 108.733 -0.821956 4.40395 0
M  V30 1171 C 110.477 -2.40922 3.4951 0
M  V30 1172 C 108.384 -1.59179 5.69575 0
M  V30 1173 H 107.314 -0.349864 0.667915 0
M  V30 1174 H 109.965 -0.180487 1.8261 0
M  V30 1175 H 108.347 -2.48853 3.08039 0
M  V30 1176 H 109.521 -0.0715019 4.60745 0
M  V30 1177 H 107.836 -0.222741 4.15804 0
M  V30 1178 H 110.433 -2.99047 4.43255 0
M  V30 1179 H 110.776 -3.14542 2.72707 0
M  V30 1180 H 111.309 -1.68905 3.60161 0
M  V30 1181 H 108.048 -0.898589 6.49312 0
M  V30 1182 H 107.568 -2.31648 5.53262 0
M  V30 1183 H 109.247 -2.14862 6.10281 0
M  V30 1184 N 109.379 -1.50304 -0.473955 0
M  V30 1185 C 110.628 -1.60392 -1.22301 0
M  V30 1186 C 110.941 -0.308411 -1.93153 0
M  V30 1187 O 112.147 -0.288156 -2.69966 0
M  V30 1188 C 110.603 -2.83109 -2.2221 0
M  V30 1189 C 110.211 -4.19524 -1.57173 0
M  V30 1190 C 111.955 -3.0254 -2.97775 0
M  V30 1191 C 109.862 -5.33431 -2.55353 0
M  V30 1192 H 108.792 -0.597286 -0.460179 0
M  V30 1193 H 111.443 -1.76731 -0.493803 0
M  V30 1194 H 109.825 -2.60322 -2.9841 0
M  V30 1195 H 110.999 -4.52554 -0.867824 0
M  V30 1196 H 109.314 -4.05674 -0.939002 0
M  V30 1197 H 111.911 -3.84811 -3.71248 0
M  V30 1198 H 112.254 -2.14154 -3.56992 0
M  V30 1199 H 112.787 -3.25494 -2.28688 0
M  V30 1200 H 109.526 -6.23962 -2.00878 0
M  V30 1201 H 109.046 -5.04823 -3.23904 0
M  V30 1202 H 110.725 -5.63887 -3.17239 0
M  V30 1203 N 110.857 0.726932 -1.39834 0
M  V30 1204 C 112.082 1.52121 -1.40976 0
M  V30 1205 C 112.507 1.88098 -0.00826029 0
M  V30 1206 O 111.865 1.52479 0.980807 0
M  V30 1207 C 111.913 2.78021 -2.29644 0
M  V30 1208 O 111.017 3.74272 -1.73188 0
M  V30 1209 H 110.358 0.45908 -0.479731 0
M  V30 1210 H 112.888 0.896207 -1.83927 0
M  V30 1211 H 112.898 3.26671 -2.44438 0
M  V30 1212 H 111.573 2.51169 -3.31492 0
M  V30 1213 H 110.15 3.33073 -1.6768 0
M  V30 1214 N 112.336 1.25143 0.95797 0
M  V30 1215 C 113.561 1.12521 1.74223 0
M  V30 1216 C 113.986 -0.317402 1.85403 0
M  V30 1217 O 113.344 -1.2299 1.33204 0
M  V30 1218 C 113.392 1.78062 3.1357 0
M  V30 1219 O 112.496 1.058 3.98598 0
M  V30 1220 H 111.837 0.39304 0.535178 0
M  V30 1221 H 114.367 1.65641 1.201 0
M  V30 1222 H 114.377 1.84213 3.64046 0
M  V30 1223 H 113.052 2.83021 3.04749 0
M  V30 1224 H 111.629 1.07506 3.57067 0
M  V30 1225 N 113.814 -1.1601 1.06675 0
M  V30 1226 C 115.06 -1.86909 0.786945 0
M  V30 1227 C 115.393 -1.81717 -0.685018 0
M  V30 1228 O 114.668 -1.23551 -1.50218 0
M  V30 1229 C 114.951 -3.36313 1.28707 0
M  V30 1230 C 114.804 -3.50175 2.82308 0
M  V30 1231 C 116.123 -4.3084 0.898071 0
M  V30 1232 H 113.242 -0.678677 0.287343 0
M  V30 1233 H 115.884 -1.36336 1.32334 0
M  V30 1234 H 114.034 -3.79513 0.830768 0
M  V30 1235 H 115.706 -3.15886 3.36175 0
M  V30 1236 H 113.949 -2.91959 3.20847 0
M  V30 1237 H 114.62 -4.55116 3.12368 0
M  V30 1238 H 117.096 -3.95561 1.29114 0
M  V30 1239 H 115.972 -5.33876 1.27543 0
M  V30 1240 H 116.233 -4.41662 -0.196651 0
M  V30 1241 N 115.292 -0.849877 -1.32721 0
M  V30 1242 C 116.202 -0.293791 -2.32753 0
M  V30 1243 C 117.218 0.585906 -1.63839 0
M  V30 1244 O 118.394 0.487413 -1.95413 0
M  V30 1245 C 115.459 0.512752 -3.42887 0
M  V30 1246 C 114.52 -0.39252 -4.27502 0
M  V30 1247 C 113.753 0.375625 -5.32377 0
M  V30 1248 O 113.976 1.60613 -5.4732 0
M  V30 1249 O 112.91 -0.256094 -6.01355 0
M  V30 1250 H 116.736 -1.12242 -2.82197 0
M  V30 1251 H 114.321 -0.612685 -1.36259 0
M  V30 1252 H 116.203 0.970704 -4.10067 0
M  V30 1253 H 114.878 1.31826 -2.95641 0
M  V30 1254 H 113.785 -0.898547 -3.63149 0
M  V30 1255 H 115.118 -1.16309 -4.7826 0
M  V30 1256 N 116.77 1.45427 -0.607355 0
M  V30 1257 C 117.702 2.2871 0.149752 0
M  V30 1258 C 118.715 1.39937 0.831958 0
M  V30 1259 O 119.904 1.64313 0.697385 0
M  V30 1260 C 117.004 3.15673 1.23304 0
M  V30 1261 C 116.177 4.32722 0.637996 0
M  V30 1262 C 115.236 5.00895 1.61215 0
M  V30 1263 O 114.262 5.57697 1.13854 0
M  V30 1264 N 115.464 5.00159 2.94655 0
M  V30 1265 H 118.229 2.94328 -0.564882 0
M  V30 1266 H 115.79 1.55612 -0.446823 0
M  V30 1267 H 117.782 3.58144 1.88454 0
M  V30 1268 H 116.352 2.51965 1.8502 0
M  V30 1269 H 115.572 3.93734 -0.191572 0
M  V30 1270 H 116.86 5.08321 0.220665 0
M  V30 1271 H 116.258 4.553 3.35735 0
M  V30 1272 H 114.815 5.46495 3.55228 0
M  V30 1273 N 118.248 0.346503 1.53744 0
M  V30 1274 C 119.195 -0.508914 2.25119 0
M  V30 1275 C 120.165 -1.09315 1.25058 0
M  V30 1276 O 121.35 -1.12921 1.53797 0
M  V30 1277 C 118.49 -1.65246 3.02965 0
M  V30 1278 C 117.603 -1.09525 4.17886 0
M  V30 1279 C 116.738 -2.20634 4.83212 0
M  V30 1280 C 115.777 -1.62279 5.90196 0
M  V30 1281 N 114.914 -2.67143 6.49291 0
M  V30 1282 H 119.754 0.106283 2.9781 0
M  V30 1283 H 117.291 0.0642227 1.4696 0
M  V30 1284 H 119.249 -2.32574 3.4636 0
M  V30 1285 H 117.879 -2.2386 2.32565 0
M  V30 1286 H 116.931 -0.312818 3.79112 0
M  V30 1287 H 118.243 -0.628444 4.94825 0
M  V30 1288 H 117.397 -2.95821 5.29693 0
M  V30 1289 H 116.136 -2.70659 4.05703 0
M  V30 1290 H 115.141 -0.855989 5.43096 0
M  V30 1291 H 116.366 -1.13102 6.69615 0
M  V30 1292 H 114.312 -3.16417 5.74645 0
M  V30 1293 H 114.229 -2.25093 7.21713 0
M  V30 1294 H 115.497 -3.4209 7.00425 0
M  V30 1295 N 119.726 -1.57421 0.075193 0
M  V30 1296 C 120.636 -2.1642 -0.905511 0
M  V30 1297 C 121.652 -1.12828 -1.32461 0
M  V30 1298 O 122.828 -1.45109 -1.39661 0
M  V30 1299 C 119.893 -2.71693 -2.15369 0
M  V30 1300 C 118.954 -3.90171 -1.79068 0
M  V30 1301 C 118.187 -4.42798 -2.97936 0
M  V30 1302 O 118.41 -3.94416 -4.12058 0
M  V30 1303 O 117.344 -5.34085 -2.77555 0
M  V30 1304 H 121.17 -3.00588 -0.433626 0
M  V30 1305 H 118.755 -1.48664 -0.148067 0
M  V30 1306 H 120.637 -3.07104 -2.88557 0
M  V30 1307 H 119.312 -1.90582 -2.61649 0
M  V30 1308 H 118.219 -3.59606 -1.03122 0
M  V30 1309 H 119.552 -4.72584 -1.37569 0
M  V30 1310 N 121.204 0.198386 -1.56346 0
M  V30 1311 C 122.137 1.27381 -1.89339 0
M  V30 1312 C 123.115 1.44106 -0.753134 0
M  V30 1313 O 124.299 1.59549 -1.00381 0
M  V30 1314 C 121.426 2.6409 -2.12071 0
M  V30 1315 C 120.472 2.64253 -3.34772 0
M  V30 1316 S 121.305 2.16013 -4.89999 0
M  V30 1317 C 122.461 3.54553 -5.15794 0
M  V30 1318 H 122.694 0.992058 -2.8026 0
M  V30 1319 H 120.227 0.401726 -1.49082 0
M  V30 1320 H 122.185 3.42786 -2.2585 0
M  V30 1321 H 120.846 2.89478 -1.21906 0
M  V30 1322 H 120.039 3.64768 -3.47794 0
M  V30 1323 H 119.641 1.93637 -3.1997 0
M  V30 1324 H 121.933 4.50396 -5.06112 0
M  V30 1325 H 122.876 3.46428 -6.1757 0
M  V30 1326 H 123.284 3.49313 -4.43442 0
M  V30 1327 N 122.682 1.50554 0.465978 0
M  V30 1328 C 123.907 1.65838 1.24549 0
M  V30 1329 C 124.332 0.343486 1.84937 0
M  V30 1330 O 123.69 -0.69324 1.67523 0
M  V30 1331 C 123.738 2.75533 2.32624 0
M  V30 1332 O 122.842 2.37142 3.37398 0
M  V30 1333 H 122.183 0.553893 0.366194 0
M  V30 1334 H 124.713 1.96959 0.553927 0
M  V30 1335 H 124.723 2.98763 2.77857 0
M  V30 1336 H 123.398 3.70962 1.88043 0
M  V30 1337 H 121.975 2.24377 2.97841 0
M  V30 1338 N 124.16 -0.719506 1.40217 0
M  V30 1339 C 125.107 -1.83359 1.40172 0
M  V30 1340 C 126.077 -1.64065 0.259206 0
M  V30 1341 O 127.262 -1.85254 0.456677 0
M  V30 1342 C 124.402 -3.2103 1.26624 0
M  V30 1343 C 123.515 -3.51923 2.50548 0
M  V30 1344 C 122.65 -4.79079 2.29471 0
M  V30 1345 C 121.689 -5.02863 3.48992 0
M  V30 1346 N 120.826 -6.2123 3.27135 0
M  V30 1347 H 125.666 -1.82733 2.35399 0
M  V30 1348 H 123.203 -0.892688 1.16917 0
M  V30 1349 H 125.161 -4.00524 1.16776 0
M  V30 1350 H 123.791 -3.20895 0.350176 0
M  V30 1351 H 122.843 -2.67014 2.70939 0
M  V30 1352 H 124.155 -3.6541 3.39525 0
M  V30 1353 H 123.309 -5.66582 2.16955 0
M  V30 1354 H 122.048 -4.67794 1.37913 0
M  V30 1355 H 121.053 -4.13816 3.6199 0
M  V30 1356 H 122.278 -5.16023 4.41472 0
M  V30 1357 H 120.224 -6.11204 2.38256 0
M  V30 1358 H 120.141 -6.35375 4.09675 0
M  V30 1359 H 121.409 -7.11532 3.18344 0
M  V30 1360 N 125.638 -1.25649 -0.95132 0
M  V30 1361 C 126.601 -1.06399 -2.03007 0
M  V30 1362 C 127.601 -0.0156794 -1.60792 0
M  V30 1363 O 128.791 -0.25817 -1.72276 0
M  V30 1364 C 125.923 -0.616184 -3.35285 0
M  V30 1365 H 127.116 -2.02164 -2.21517 0
M  V30 1366 H 124.669 -1.08103 -1.12887 0
M  V30 1367 H 125.404 0.343917 -3.22471 0
M  V30 1368 H 125.189 -1.37301 -3.67275 0
M  V30 1369 H 126.679 -0.503032 -4.14559 0
M  V30 1370 N 127.117 1.15442 -1.07289 0
M  V30 1371 C 128.065 2.22225 -0.686952 0
M  V30 1372 C 129.059 1.66688 0.30193 0
M  V30 1373 O 130.265 1.79236 0.165712 0
M  V30 1374 H 126.64 0.723783 -0.204064 0
M  V30 1375 H 128.611 2.52056 -1.5972 0
M  V30 1376 C 127.36 3.47556 -0.100149 0
M  V30 1377 H 126.683 3.90612 -0.852211 0
M  V30 1378 H 128.123 4.23794 0.132235 0
M  V30 1379 C 126.582 3.16337 1.159 0
M  V30 1380 O 127.112 3.33074 2.24555 0
M  V30 1381 N 125.318 2.70385 1.06491 0
M  V30 1382 H 124.865 2.56966 0.180668 0
M  V30 1383 H 124.823 2.49871 1.90819 0
M  V30 1384 N 128.595 0.856903 1.32268 0
M  V30 1385 C 129.841 0.462069 1.97466 0
M  V30 1386 C 130.174 -0.980298 1.67642 0
M  V30 1387 O 129.449 -1.68824 0.965858 0
M  V30 1388 C 129.732 0.704336 3.53145 0
M  V30 1389 C 129.585 2.19529 3.9259 0
M  V30 1390 C 130.904 0.1622 4.39801 0
M  V30 1391 H 128.023 0.169357 0.717278 0
M  V30 1392 H 130.665 1.07574 1.56614 0
M  V30 1393 H 128.815 0.181999 3.88073 0
M  V30 1394 H 130.487 2.78387 3.67829 0
M  V30 1395 H 128.73 2.67292 3.41668 0
M  V30 1396 H 129.401 2.31549 5.01088 0
M  V30 1397 H 131.877 0.608905 4.11621 0
M  V30 1398 H 130.753 0.361265 5.4771 0
M  V30 1399 H 131.014 -0.935158 4.32096 0
M  V30 1400 N 130.073 -1.45103 0.615059 0
M  V30 1401 C 131.023 -2.27679 -0.120966 0
M  V30 1402 C 132.007 -1.3775 -0.831491 0
M  V30 1403 O 133.199 -1.61683 -0.720249 0
M  V30 1404 C 130.328 -3.24767 -1.1127 0
M  V30 1405 C 129.414 -4.22184 -0.402627 0
M  V30 1406 N 129.805 -5.02692 0.559884 0
M  V30 1407 C 128.103 -4.4125 -0.649202 0
M  V30 1408 C 128.804 -5.73421 0.977942 0
M  V30 1409 N 127.78 -5.42657 0.320104 0
M  V30 1410 H 131.582 -2.87325 0.618181 0
M  V30 1411 H 129.096 -1.56345 0.439304 0
M  V30 1412 H 131.093 -3.82666 -1.65446 0
M  V30 1413 H 129.753 -2.66682 -1.85232 0
M  V30 1414 H 130.764 -5.09354 0.936976 0
M  V30 1415 H 127.441 -3.9428 -1.37293 0
M  V30 1416 H 128.831 -6.48107 1.77222 0
M  V30 1417 N 131.551 -0.354651 -1.53558 0
M  V30 1418 C 132.499 0.512195 -2.26891 0
M  V30 1419 C 133.493 1.09263 -1.29452 0
M  V30 1420 O 134.699 1.03709 -1.47121 0
M  V30 1421 H 131.074 0.183878 -0.729173 0
M  V30 1422 H 133.045 -0.128202 -2.98124 0
M  V30 1423 C 131.794 1.64563 -3.06291 0
M  V30 1424 H 131.117 1.20829 -3.81104 0
M  V30 1425 H 132.557 2.22711 -3.60799 0
M  V30 1426 C 131.016 2.58158 -2.16462 0
M  V30 1427 O 131.546 3.60695 -1.76811 0
M  V30 1428 N 129.752 2.27096 -1.81317 0
M  V30 1429 H 129.299 1.43751 -2.1376 0
M  V30 1430 H 129.257 2.89975 -1.21498 0
M  V30 1431 N 133.029 1.57378 -0.0835403 0
M  V30 1432 C 133.976 2.13384 0.879539 0
M  V30 1433 C 134.946 1.04936 1.28754 0
M  V30 1434 O 136.131 1.32662 1.37133 0
M  V30 1435 C 133.271 2.70932 2.13752 0
M  V30 1436 C 132.384 3.93575 1.7811 0
M  V30 1437 C 131.519 4.39326 2.98607 0
M  V30 1438 C 130.558 5.54587 2.59037 0
M  V30 1439 N 129.695 5.95243 3.72331 0
M  V30 1440 H 134.535 2.9537 0.395076 0
M  V30 1441 H 132.072 1.45953 0.183349 0
M  V30 1442 H 134.03 3.02411 2.87408 0
M  V30 1443 H 132.66 1.91693 2.59718 0
M  V30 1444 H 131.712 3.68483 0.94469 0
M  V30 1445 H 133.024 4.77258 1.45005 0
M  V30 1446 H 132.178 4.72528 3.80529 0
M  V30 1447 H 130.917 3.5452 3.34913 0
M  V30 1448 H 129.922 5.21024 1.75539 0
M  V30 1449 H 131.147 6.41133 2.23887 0
M  V30 1450 H 129.093 5.13385 4.08378 0
M  V30 1451 H 129.01 6.73694 3.43034 0
M  V30 1452 H 130.278 6.33072 4.54797 0
M  V30 1453 N 134.507 -0.190092 1.56449 0
M  V30 1454 C 135.455 -1.25501 1.95837 0
M  V30 1455 C 136.449 -1.4685 0.844485 0
M  V30 1456 O 137.655 -1.47651 1.02952 0
M  V30 1457 H 134.03 -0.421447 0.622805 0
M  V30 1458 H 136.001 -0.895821 2.84636 0
M  V30 1459 C 134.75 -2.59124 2.31841 0
M  V30 1460 H 134.073 -2.43514 3.17082 0
M  V30 1461 H 135.513 -3.32371 2.6326 0
M  V30 1462 C 133.972 -3.16488 1.15486 0
M  V30 1463 O 134.502 -3.99365 0.432535 0
M  V30 1464 N 132.708 -2.75305 0.930349 0
M  V30 1465 H 132.255 -2.08013 1.51948 0
M  V30 1466 H 132.213 -3.14024 0.153634 0
M  V30 1467 N 135.985 -1.50799 -0.457987 0
M  V30 1468 C 137.231 -1.62683 -1.21088 0
M  V30 1469 C 137.564 -0.332268 -1.91336 0
M  V30 1470 O 136.839 0.667043 -1.82704 0
M  V30 1471 C 137.122 -2.81615 -2.24422 0
M  V30 1472 C 136.975 -4.20989 -1.58392 0
M  V30 1473 C 138.294 -2.96085 -3.2561 0
M  V30 1474 H 135.413 -0.592087 -0.438864 0
M  V30 1475 H 138.055 -1.83225 -0.50286 0
M  V30 1476 H 136.205 -2.64231 -2.84806 0
M  V30 1477 H 137.877 -4.49994 -1.01504 0
M  V30 1478 H 136.12 -4.24641 -0.886704 0
M  V30 1479 H 136.791 -5.0016 -2.33547 0
M  V30 1480 H 139.267 -3.12042 -2.75262 0
M  V30 1481 H 138.143 -3.80902 -3.95228 0
M  V30 1482 H 138.404 -2.0726 -3.90507 0
M  V30 1483 N 137.463 0.71206 -1.40597 0
M  V30 1484 C 138.426 1.80785 -1.40888 0
M  V30 1485 C 139.426 1.57937 -0.302103 0
M  V30 1486 O 140.616 1.64913 -0.561182 0
M  V30 1487 C 137.748 3.18927 -1.20409 0
M  V30 1488 H 138.941 1.81924 -2.38419 0
M  V30 1489 H 136.494 0.91805 -1.26497 0
M  V30 1490 H 137.229 3.23436 -0.236522 0
M  V30 1491 H 137.014 3.36911 -2.00582 0
M  V30 1492 H 138.504 3.98949 -1.23408 0
M  V30 1493 N 138.941 1.26152 0.944643 0
M  V30 1494 C 139.904 1.07474 2.0244 0
M  V30 1495 C 140.904 0.0242064 1.60782 0
M  V30 1496 O 142.094 0.267302 1.72137 0
M  V30 1497 C 139.226 0.633956 3.34953 0
M  V30 1498 H 140.419 2.03336 2.20442 0
M  V30 1499 H 137.972 1.087 1.12312 0
M  V30 1500 H 138.707 -0.326811 3.22649 0
M  V30 1501 H 138.492 1.39247 3.66542 0
M  V30 1502 H 139.982 0.52501 4.14287 0
M  V30 1503 N 140.419 -1.14872 1.07899 0
M  V30 1504 C 141.647 -1.89661 0.82683 0
M  V30 1505 C 142.062 -1.78312 -0.620519 0
M  V30 1506 O 141.419 -1.13888 -1.42604 0
M  V30 1507 C 141.47 -3.39817 1.23316 0
M  V30 1508 O 141.191 -3.50845 2.62372 0
M  V30 1509 C 142.692 -4.31615 1.0111 0
M  V30 1510 H 139.912 -0.60092 0.298557 0
M  V30 1511 H 142.456 -1.4551 1.43691 0
M  V30 1512 H 140.611 -3.8161 0.667286 0
M  V30 1513 H 141.025 -4.44076 2.79101 0
M  V30 1514 H 142.499 -5.35367 1.34486 0
M  V30 1515 H 142.976 -4.39169 -0.0522168 0
M  V30 1516 H 143.582 -3.95572 1.56215 0
M  V30 1517 N 141.898 -0.863906 -1.31812 0
M  V30 1518 C 143.128 -0.485406 -2.00817 0
M  V30 1519 C 143.536 0.925007 -1.65046 0
M  V30 1520 O 142.879 1.61653 -0.872574 0
M  V30 1521 C 142.941 -0.555589 -3.55181 0
M  V30 1522 C 142.605 -1.92654 -4.14407 0
M  V30 1523 C 143.602 -2.89324 -4.31958 0
M  V30 1524 C 141.287 -2.2262 -4.50273 0
M  V30 1525 C 143.281 -4.14108 -4.84555 0
M  V30 1526 C 140.968 -3.47654 -5.02573 0
M  V30 1527 C 141.966 -4.43214 -5.19664 0
M  V30 1528 O 141.654 -5.66033 -5.70843 0
M  V30 1529 H 141.386 -0.188224 -0.649267 0
M  V30 1530 H 143.94 -1.16514 -1.69156 0
M  V30 1531 H 142.17 0.181037 -3.86276 0
M  V30 1532 H 143.859 -0.19138 -4.05449 0
M  V30 1533 H 144.625 -2.6748 -4.04573 0
M  V30 1534 H 140.504 -1.4902 -4.3625 0
M  V30 1535 H 144.048 -4.88703 -4.9781 0
M  V30 1536 H 139.945 -3.69345 -5.29391 0
M  V30 1537 H 140.713 -5.6812 -5.89222 0
M  V30 1538 N 143.376 1.44774 -0.622745 0
M  V30 1539 C 144.792 1.56986 -0.287652 0
M  V30 1540 C 144.992 1.61167 1.20944 0
M  V30 1541 O 144.048 1.55015 1.99315 0
M  V30 1542 C 145.361 2.84551 -0.972188 0
M  V30 1543 C 146.909 2.9825 -0.949536 0
M  V30 1544 C 147.384 4.28605 -1.61437 0
M  V30 1545 N 148.875 4.35399 -1.58057 0
M  V30 1546 C 149.61 5.34964 -2.064 0
M  V30 1547 N 149.106 6.40981 -2.62897 0
M  V30 1548 N 150.899 5.26419 -1.97078 0
M  V30 1549 H 143.05 1.40304 -1.59463 0
M  V30 1550 H 145.313 0.671794 -0.668878 0
M  V30 1551 H 145.019 2.87417 -2.02693 0
M  V30 1552 H 144.893 3.73807 -0.504771 0
M  V30 1553 H 147.28 2.94941 0.0967067 0
M  V30 1554 H 147.361 2.10364 -1.45536 0
M  V30 1555 H 147.005 4.32672 -2.66002 0
M  V30 1556 H 146.935 5.15334 -1.08344 0
M  V30 1557 H 149.426 3.59397 -1.16801 0
M  V30 1558 H 149.739 7.13225 -2.97539 0
M  V30 1559 H 148.084 6.4169 -2.66943 0
M  V30 1560 H 151.275 4.42504 -1.52669 0
M  V30 1561 H 151.448 6.03861 -2.35066 0
M  V30 1562 N 144.854 0.36279 1.53368 0
M  V30 1563 C 145.801 -0.485008 2.25646 0
M  V30 1564 C 146.771 -1.07982 1.2621 0
M  V30 1565 O 147.956 -1.11284 1.54986 0
M  V30 1566 C 145.096 -1.62023 3.04701 0
M  V30 1567 C 144.209 -1.05086 4.19024 0
M  V30 1568 C 143.344 -2.15496 4.85525 0
M  V30 1569 C 142.383 -1.5601 5.91884 0
M  V30 1570 N 141.52 -2.60241 6.52088 0
M  V30 1571 H 146.36 0.137864 2.97681 0
M  V30 1572 H 143.897 0.0798061 1.46883 0
M  V30 1573 H 145.855 -2.28887 3.48807 0
M  V30 1574 H 144.485 -2.2138 2.34927 0
M  V30 1575 H 143.537 -0.27259 3.79422 0
M  V30 1576 H 144.849 -0.575926 4.95464 0
M  V30 1577 H 144.003 -2.90186 5.32801 0
M  V30 1578 H 142.742 -2.66341 4.08551 0
M  V30 1579 H 141.747 -0.798338 5.43973 0
M  V30 1580 H 142.972 -1.05994 6.70777 0
M  V30 1581 H 140.918 -3.10304 5.77968 0
M  V30 1582 H 140.835 -2.17426 7.24059 0
M  V30 1583 H 142.103 -3.34641 7.04014 0
M  V30 1584 N 146.332 -1.57332 0.0918853 0
M  V30 1585 C 147.279 -2.13847 -0.868211 0
M  V30 1586 C 148.249 -1.05618 -1.28196 0
M  V30 1587 O 149.434 -1.33387 -1.36427 0
M  V30 1588 C 146.574 -2.72062 -2.12312 0
M  V30 1589 C 145.687 -3.94514 -1.7602 0
M  V30 1590 C 144.822 -4.40903 -2.96273 0
M  V30 1591 C 143.861 -5.55953 -2.56092 0
M  V30 1592 N 142.998 -5.97209 -3.69169 0
M  V30 1593 H 147.838 -2.95575 -0.379406 0
M  V30 1594 H 145.375 -1.46048 -0.175606 0
M  V30 1595 H 147.333 -3.03931 -2.858 0
M  V30 1596 H 145.963 -1.93068 -2.58698 0
M  V30 1597 H 145.015 -3.68979 -0.925135 0
M  V30 1598 H 146.327 -4.7802 -1.42472 0
M  V30 1599 H 145.481 -4.74539 -3.78018 0
M  V30 1600 H 144.22 -3.56291 -3.33029 0
M  V30 1601 H 143.225 -5.21948 -1.72773 0
M  V30 1602 H 144.45 -6.42311 -2.20484 0
M  V30 1603 H 142.396 -5.15543 -4.05649 0
M  V30 1604 H 142.313 -6.75504 -3.39456 0
M  V30 1605 H 143.581 -6.35475 -4.51434 0
M  V30 1606 N 147.81 0.181792 -1.56548 0
M  V30 1607 C 149.056 0.901431 -1.81665 0
M  V30 1608 C 149.389 1.82347 -0.668075 0
M  V30 1609 O 148.664 1.91669 0.330615 0
M  V30 1610 C 148.947 1.70618 -3.17115 0
M  V30 1611 C 148.8 0.807964 -4.42484 0
M  V30 1612 C 150.119 2.67605 -3.49393 0
M  V30 1613 H 147.238 0.32627 -0.660846 0
M  V30 1614 H 149.88 0.168134 -1.89255 0
M  V30 1615 H 148.03 2.33133 -3.10775 0
M  V30 1616 H 149.702 0.19649 -4.60881 0
M  V30 1617 H 147.945 0.115411 -4.33646 0
M  V30 1618 H 148.616 1.40632 -5.33785 0
M  V30 1619 H 151.092 2.15218 -3.56118 0
M  V30 1620 H 149.968 3.20985 -4.45264 0
M  V30 1621 H 150.229 3.47298 -2.73563 0
M  V30 1622 N 149.288 1.51039 0.449983 0
M  V30 1623 C 150.198 1.74261 1.57067 0
M  V30 1624 C 151.214 0.626363 1.62335 0
M  V30 1625 O 152.39 0.907162 1.79812 0
M  V30 1626 C 149.455 1.85114 2.93144 0
M  V30 1627 C 148.516 3.0893 2.98095 0
M  V30 1628 C 147.749 3.19256 4.27681 0
M  V30 1629 O 147.972 2.35835 5.19363 0
M  V30 1630 O 146.906 4.12144 4.38658 0
M  V30 1631 H 150.732 2.69303 1.40391 0
M  V30 1632 H 148.317 1.35389 0.631688 0
M  V30 1633 H 150.199 1.94311 3.73926 0
M  V30 1634 H 148.874 0.932588 3.09975 0
M  V30 1635 H 147.781 3.0522 2.16314 0
M  V30 1636 H 149.114 4.00433 2.86206 0
M  V30 1637 N 150.766 -0.704594 1.40972 0
M  V30 1638 C 151.676 -1.84856 1.44448 0
M  V30 1639 C 152.692 -1.70726 0.335961 0
M  V30 1640 O 153.868 -1.92799 0.582276 0
M  V30 1641 C 150.933 -3.20758 1.31587 0
M  V30 1642 C 149.994 -3.47063 2.52677 0
M  V30 1643 C 149.227 -4.76481 2.4042 0
M  V30 1644 O 149.45 -5.52341 1.42391 0
M  V30 1645 O 148.384 -5.03367 3.30007 0
M  V30 1646 H 152.21 -1.8488 2.40942 0
M  V30 1647 H 149.795 -0.85647 1.22413 0
M  V30 1648 H 151.677 -4.01913 1.26665 0
M  V30 1649 H 150.352 -3.21438 0.382049 0
M  V30 1650 H 149.259 -2.65873 2.63177 0
M  V30 1651 H 150.592 -3.5119 3.44858 0
M  V30 1652 N 152.244 -1.26651 -0.937939 0
M  V30 1653 C 153.154 -1.10276 -2.07066 0
M  V30 1654 C 154.17 -0.0354197 -1.73964 0
M  V30 1655 O 155.346 -0.239816 -1.99967 0
M  V30 1656 C 152.411 -0.740887 -3.38691 0
M  V30 1657 C 151.472 -1.88799 -3.85556 0
M  V30 1658 C 150.705 -1.54329 -5.10899 0
M  V30 1659 O 150.928 -0.446494 -5.6865 0
M  V30 1660 O 149.862 -2.37911 -5.52885 0
M  V30 1661 H 153.688 -2.05309 -2.23789 0
M  V30 1662 H 151.273 -1.05743 -1.0554 0
M  V30 1663 H 153.155 -0.55195 -4.1777 0
M  V30 1664 H 151.83 0.180022 -3.23199 0
M  V30 1665 H 150.737 -2.13191 -3.07409 0
M  V30 1666 H 152.07 -2.78874 -4.05574 0
M  V30 1667 N 153.722 1.14298 -1.08507 0
M  V30 1668 C 154.652 2.21542 -0.737646 0
M  V30 1669 C 155.633 1.67773 0.280377 0
M  V30 1670 O 156.818 1.93616 0.150521 0
M  V30 1671 C 153.948 3.46988 -0.147259 0
M  V30 1672 C 152.902 4.13789 -1.09374 0
M  V30 1673 C 152.228 5.33449 -0.365524 0
M  V30 1674 C 153.528 4.62208 -2.4323 0
M  V30 1675 H 155.222 2.5086 -1.6343 0
M  V30 1676 H 152.768 1.20576 -0.787243 0
M  V30 1677 H 154.721 4.21262 0.107808 0
M  V30 1678 H 153.445 3.17037 0.784538 0
M  V30 1679 H 152.104 3.4147 -1.33393 0
M  V30 1680 H 151.752 4.99759 0.57011 0
M  V30 1681 H 151.452 5.79088 -0.996512 0
M  V30 1682 H 152.976 6.10485 -0.118534 0
M  V30 1683 H 154.39 5.27952 -2.23472 0
M  V30 1684 H 152.787 5.18553 -3.02031 0
M  V30 1685 H 153.857 3.77224 -3.04681 0
M  V30 1686 N 155.201 0.870884 1.31352 0
M  V30 1687 C 156.149 0.316445 2.30437 0
M  V30 1688 C 157.143 -0.568965 1.59559 0
M  V30 1689 O 158.349 -0.454964 1.74155 0
M  V30 1690 H 154.724 0.0836521 0.747333 0
M  V30 1691 H 156.695 1.16606 2.74673 0
M  V30 1692 C 155.444 -0.46635 3.44558 0
M  V30 1693 H 154.767 0.205687 3.99271 0
M  V30 1694 H 156.207 -0.819614 4.16003 0
M  V30 1695 C 154.666 -1.65797 2.9328 0
M  V30 1696 O 155.196 -2.75728 2.92125 0
M  V30 1697 N 153.402 -1.49041 2.4947 0
M  V30 1698 H 152.949 -0.59612 2.50608 0
M  V30 1699 H 152.907 -2.28911 2.15516 0
M  V30 1700 N 156.679 -1.44442 0.630414 0
M  V30 1701 C 157.627 -2.32437 -0.0871428 0
M  V30 1702 C 158.621 -1.47304 -0.836525 0
M  V30 1703 O 159.827 -1.63653 -0.749506 0
M  V30 1704 H 156.202 -0.750533 -0.0469495 0
M  V30 1705 H 158.173 -2.90709 0.673096 0
M  V30 1706 C 156.922 -3.31288 -1.05563 0
M  V30 1707 H 156.245 -3.96805 -0.488426 0
M  V30 1708 H 157.685 -3.9554 -1.52721 0
M  V30 1709 C 156.144 -2.6016 -2.14052 0
M  V30 1710 O 156.674 -2.39997 -3.22124 0
M  V30 1711 N 154.88 -2.19911 -1.89967 0
M  V30 1712 H 154.427 -2.36509 -1.02085 0
M  V30 1713 H 154.385 -1.72646 -2.62756 0
M  V30 1714 N 158.157 -0.370918 -1.53173 0
M  V30 1715 C 159.406 0.218249 -2.00516 0
M  V30 1716 C 159.719 1.49429 -1.26215 0
M  V30 1717 O 160.925 2.16239 -1.64174 0
M  V30 1718 C 159.381 0.43948 -3.57207 0
M  V30 1719 C 158.989 -0.822244 -4.4039 0
M  V30 1720 C 160.733 0.986012 -4.1289 0
M  V30 1721 C 158.64 -0.570304 -5.88644 0
M  V30 1722 H 157.57 0.0853333 -0.749156 0
M  V30 1723 H 160.221 -0.490483 -1.76823 0
M  V30 1724 H 158.603 1.20961 -3.77074 0
M  V30 1725 H 159.777 -1.59557 -4.32294 0
M  V30 1726 H 158.092 -1.29238 -3.95836 0
M  V30 1727 H 160.689 1.18991 -5.21292 0
M  V30 1728 H 161.032 1.94972 -3.6782 0
M  V30 1729 H 161.565 0.27592 -3.96842 0
M  V30 1730 H 158.304 -1.50449 -6.38001 0
M  V30 1731 H 157.824 0.164427 -5.99575 0
M  V30 1732 H 159.503 -0.19784 -6.46697 0
M  V30 1733 N 159.635 1.57281 -0.100228 0
M  V30 1734 C 160.875 1.96419 0.56558 0
M  V30 1735 C 161.239 0.981265 1.65031 0
M  V30 1736 O 162.44 1.26133 2.37369 0
M  V30 1737 C 160.711 3.39996 1.10171 0
M  V30 1738 S 162.27 4.01134 1.77867 0
M  V30 1739 H 159.088 0.68667 0.184406 0
M  V30 1740 H 161.69 1.94662 -0.180851 0
M  V30 1741 H 160.394 4.09296 0.300803 0
M  V30 1742 H 159.925 3.45361 1.88385 0
M  V30 1743 H 161.94 3.90358 3.06326 0
M  V30 1744 N 161.113 -0.173488 1.56642 0
M  V30 1745 C 162.045 -1.23935 1.92802 0
M  V30 1746 C 163.058 -1.40589 0.820889 0
M  V30 1747 O 164.247 -1.40631 1.09933 0
M  V30 1748 C 161.347 -2.60837 2.16373 0
M  V30 1749 C 160.52 -2.6551 3.47596 0
M  V30 1750 C 159.579 -3.8376 3.60021 0
M  V30 1751 O 158.605 -3.69859 4.32658 0
M  V30 1752 N 159.807 -5.00127 2.94709 0
M  V30 1753 H 162.572 -0.932236 2.84832 0
M  V30 1754 H 160.133 -0.363268 1.57772 0
M  V30 1755 H 162.125 -3.38407 2.21952 0
M  V30 1756 H 160.695 -2.83948 1.30738 0
M  V30 1757 H 159.915 -1.74052 3.53694 0
M  V30 1758 H 161.203 -2.65641 4.33949 0
M  V30 1759 H 160.601 -5.14322 2.35563 0
M  V30 1760 H 159.158 -5.75567 3.05886 0
M  V30 1761 N 162.591 -1.51276 -0.441967 0
M  V30 1762 C 163.868 -1.54252 -1.20273 0
M  V30 1763 C 164.248 -0.30408 -2.08898 0
M  V30 1764 O 163.596 0.711084 -2.17154 0
M  V30 1765 C 163.806 -2.85406 -2.00859 0
M  V30 1766 C 165.154 -3.37181 -2.58059 0
M  V30 1767 O 166.178 -2.86925 -2.11074 0
M  V30 1768 O 165.037 -4.24858 -3.43741 0
M  V30 1769 H 162.131 -0.619969 -0.547328 0
M  V30 1770 H 164.677 -1.63586 -0.451413 0
M  V30 1771 H 163.449 -3.67003 -1.35736 0
M  V30 1772 H 163.072 -2.79213 -2.83065 0
M  V30 1773 N 164.069 0.697108 -1.41344 0
M  V30 1774 C 165.318 1.45279 -1.39918 0
M  V30 1775 C 165.631 1.95597 -0.0109624 0
M  V30 1776 O 166.837 2.71208 0.125919 0
M  V30 1777 C 165.293 2.62695 -2.46007 0
M  V30 1778 C 164.901 2.19169 -3.90729 0
M  V30 1779 C 166.645 3.40336 -2.53715 0
M  V30 1780 C 164.552 3.33535 -4.88373 0
M  V30 1781 H 163.482 0.545692 -0.520323 0
M  V30 1782 H 166.133 0.756929 -1.67161 0
M  V30 1783 H 164.515 3.34541 -2.11892 0
M  V30 1784 H 165.689 1.54623 -4.34083 0
M  V30 1785 H 164.004 1.54525 -3.86666 0
M  V30 1786 H 166.601 4.2547 -3.2385 0
M  V30 1787 H 166.944 3.85418 -1.5735 0
M  V30 1788 H 167.477 2.75546 -2.86913 0
M  V30 1789 H 164.216 2.93468 -5.86137 0
M  V30 1790 H 163.736 3.96936 -4.49668 0
M  V30 1791 H 165.415 3.99335 -5.09059 0
M  V30 1792 N 165.547 1.27147 0.931209 0
M  V30 1793 C 166.477 1.12081 2.04842 0
M  V30 1794 C 167.458 0.0232364 1.70084 0
M  V30 1795 O 168.643 0.197085 1.93197 0
M  V30 1796 C 165.773 0.76354 3.38803 0
M  V30 1797 C 164.727 1.81396 3.87659 0
M  V30 1798 C 164.053 1.31075 5.18385 0
M  V30 1799 C 165.353 3.21739 4.11438 0
M  V30 1800 H 167.047 2.05537 2.17703 0
M  V30 1801 H 164.593 0.989603 1.04608 0
M  V30 1802 H 166.546 0.644982 4.16435 0
M  V30 1803 H 165.27 -0.206727 3.25945 0
M  V30 1804 H 163.929 1.92136 3.12217 0
M  V30 1805 H 163.577 0.330037 5.01916 0
M  V30 1806 H 163.277 2.013 5.52044 0
M  V30 1807 H 164.801 1.20506 5.98591 0
M  V30 1808 H 166.215 3.14019 4.79651 0
M  V30 1809 H 164.612 3.89644 4.56397 0
M  V30 1810 H 165.682 3.67054 3.16859 0
M  V30 1811 N 167.025 -1.13721 1.09112 0
M  V30 1812 C 167.973 -2.21103 0.722219 0
M  V30 1813 C 168.967 -1.67147 -0.275374 0
M  V30 1814 O 170.173 -1.79477 -0.137176 0
M  V30 1815 H 166.548 -0.720445 0.215553 0
M  V30 1816 H 168.519 -2.49483 1.63709 0
M  V30 1817 C 167.268 -3.47352 0.15543 0
M  V30 1818 H 166.591 -3.89206 0.914246 0
M  V30 1819 H 168.031 -4.2395 -0.0647967 0
M  V30 1820 C 166.49 -3.1814 -1.10852 0
M  V30 1821 O 167.02 -3.36604 -2.19227 0
M  V30 1822 N 165.226 -2.72045 -1.02176 0
M  V30 1823 H 164.773 -2.57221 -0.139764 0
M  V30 1824 H 164.731 -2.52875 -1.8682 0
M  V30 1825 N 168.503 -0.877838 -1.30888 0
M  V30 1826 C 169.433 -0.35534 -2.3078 0
M  V30 1827 C 170.414 0.557994 -1.60687 0
M  V30 1828 O 171.599 0.473355 -1.88343 0
M  V30 1829 C 168.729 0.437221 -3.44537 0
M  V30 1830 C 167.683 -0.383715 -4.26276 0
M  V30 1831 C 167.009 0.535014 -5.32017 0
M  V30 1832 C 168.309 -1.62201 -4.96476 0
M  V30 1833 H 170.003 -1.19007 -2.74732 0
M  V30 1834 H 167.549 -0.573698 -1.32078 0
M  V30 1835 H 169.502 0.813334 -4.13477 0
M  V30 1836 H 168.226 1.30553 -2.99372 0
M  V30 1837 H 166.885 -0.741874 -3.59015 0
M  V30 1838 H 166.533 1.40083 -4.831 0
M  V30 1839 H 166.233 -0.0104211 -5.87599 0
M  V30 1840 H 167.757 0.907799 -6.03814 0
M  V30 1841 H 169.171 -1.31689 -5.5797 0
M  V30 1842 H 167.568 -2.10711 -5.61891 0
M  V30 1843 H 168.638 -2.37044 -4.23011 0
M  V30 1844 N 169.982 1.44106 -0.638065 0
M  V30 1845 C 170.912 2.33448 0.0494287 0
M  V30 1846 C 171.893 1.48606 0.827672 0
M  V30 1847 O 173.078 1.77308 0.792173 0
M  V30 1848 C 170.208 3.31771 1.02691 0
M  V30 1849 C 169.162 4.26485 0.359823 0
M  V30 1850 C 168.488 5.14729 1.44769 0
M  V30 1851 C 169.788 5.17056 -0.738296 0
M  V30 1852 H 171.482 2.91183 -0.696636 0
M  V30 1853 H 169.028 1.40014 -0.336456 0
M  V30 1854 H 170.981 3.93161 1.51666 0
M  V30 1855 H 169.705 2.7226 1.80395 0
M  V30 1856 H 168.364 3.66437 -0.10934 0
M  V30 1857 H 168.012 4.51566 2.21578 0
M  V30 1858 H 167.712 5.78913 1.00668 0
M  V30 1859 H 169.236 5.78991 1.93911 0
M  V30 1860 H 170.65 5.72342 -0.331354 0
M  V30 1861 H 169.047 5.89879 -1.10286 0
M  V30 1862 H 170.117 4.57652 -1.60258 0
M  V30 1863 N 171.46 0.379036 1.52974 0
M  V30 1864 C 172.688 -0.20679 2.05864 0
M  V30 1865 C 173.103 -1.41356 1.25155 0
M  V30 1866 O 172.46 -1.8009 0.295588 0
M  V30 1867 C 172.511 -0.587045 3.56702 0
M  V30 1868 O 172.232 0.571776 4.34353 0
M  V30 1869 C 173.733 -1.22983 4.25899 0
M  V30 1870 H 170.953 -0.0336123 0.670158 0
M  V30 1871 H 173.497 0.541298 1.97206 0
M  V30 1872 H 171.652 -1.28504 3.65466 0
M  V30 1873 H 172.066 0.261544 5.23847 0
M  V30 1874 H 173.54 -1.44635 5.32715 0
M  V30 1875 H 174.017 -2.19416 3.80465 0
M  V30 1876 H 174.623 -0.572892 4.21424 0
M  V30 1877 N 172.938 -1.57226 0.108567 0
M  V30 1878 C 173.885 -2.14756 -0.845481 0
M  V30 1879 C 174.855 -1.06971 -1.27068 0
M  V30 1880 O 176.04 -1.34827 -1.35005 0
M  V30 1881 C 173.18 -2.74298 -2.09415 0
M  V30 1882 C 172.293 -3.96358 -1.71826 0
M  V30 1883 C 171.428 -4.44021 -2.9158 0
M  V30 1884 C 170.467 -5.58637 -2.50181 0
M  V30 1885 N 169.604 -6.01091 -3.62814 0
M  V30 1886 H 174.444 -2.95961 -0.348035 0
M  V30 1887 H 171.981 -1.46226 -0.160106 0
M  V30 1888 H 173.939 -3.06945 -2.82561 0
M  V30 1889 H 172.569 -1.95801 -2.56636 0
M  V30 1890 H 171.621 -3.69939 -0.885947 0
M  V30 1891 H 172.933 -4.79504 -1.37394 0
M  V30 1892 H 172.087 -4.78522 -3.72963 0
M  V30 1893 H 170.826 -3.59803 -3.29231 0
M  V30 1894 H 169.831 -5.23751 -1.67228 0
M  V30 1895 H 171.056 -6.44613 -2.13659 0
M  V30 1896 H 169.002 -5.19817 -4.00158 0
M  V30 1897 H 168.919 -6.79066 -3.32273 0
M  V30 1898 H 170.187 -6.40227 -4.44668 0
M  V30 1899 N 174.416 0.165178 -1.56732 0
M  V30 1900 C 175.363 1.2044 -1.96883 0
M  V30 1901 C 176.333 1.43664 -0.833657 0
M  V30 1902 O 177.518 1.56302 -1.09427 0
M  V30 1903 C 174.658 2.53727 -2.33916 0
M  V30 1904 C 173.771 2.3783 -3.6064 0
M  V30 1905 C 172.906 3.64026 -3.86857 0
M  V30 1906 C 171.945 3.43088 -5.06909 0
M  V30 1907 N 171.082 4.61369 -5.29229 0
M  V30 1908 H 175.922 0.854996 -2.85471 0
M  V30 1909 H 173.459 0.41076 -1.41249 0
M  V30 1910 H 175.417 3.31419 -2.53411 0
M  V30 1911 H 174.047 2.8665 -1.48431 0
M  V30 1912 H 173.099 1.51282 -3.49024 0
M  V30 1913 H 174.411 2.18308 -4.4849 0
M  V30 1914 H 173.565 4.50152 -4.06753 0
M  V30 1915 H 172.304 3.86533 -2.97394 0
M  V30 1916 H 171.309 2.55349 -4.86906 0
M  V30 1917 H 172.534 3.21997 -5.97909 0
M  V30 1918 H 170.48 4.84084 -4.42718 0
M  V30 1919 H 170.397 4.44783 -6.11313 0
M  V30 1920 H 171.665 5.48761 -5.53608 0
M  V30 1921 N 175.894 1.51508 0.433938 0
M  V30 1922 C 176.824 1.76016 1.53429 0
M  V30 1923 C 177.805 0.610112 1.58782 0
M  V30 1924 O 178.99 0.853177 1.74455 0
M  V30 1925 C 176.12 1.88831 2.9148 0
M  V30 1926 C 175.074 3.04288 3.00987 0
M  V30 1927 C 174.4 3.0229 4.4105 0
M  V30 1928 C 175.7 4.44193 2.74754 0
M  V30 1929 H 177.394 2.68152 1.33171 0
M  V30 1930 H 174.94 1.29035 0.639214 0
M  V30 1931 H 176.893 2.04559 3.6842 0
M  V30 1932 H 175.617 0.933455 3.12976 0
M  V30 1933 H 174.276 2.8827 2.26486 0
M  V30 1934 H 173.924 2.04576 4.59519 0
M  V30 1935 H 173.624 3.79822 4.4834 0
M  V30 1936 H 175.148 3.20116 5.1996 0
M  V30 1937 H 176.562 4.60544 3.41426 0
M  V30 1938 H 174.959 5.23457 2.9345 0
M  V30 1939 H 176.029 4.53996 1.70339 0
M  V30 1940 N 177.372 -0.689602 1.41712 0
M  V30 1941 C 178.621 -1.44534 1.40686 0
M  V30 1942 C 178.934 -1.95588 0.0213352 0
M  V30 1943 O 180.14 -2.71271 -0.111534 0
M  V30 1944 C 178.596 -2.61387 2.47396 0
M  V30 1945 C 178.204 -2.17094 3.91885 0
M  V30 1946 C 179.948 -3.38986 2.55517 0
M  V30 1947 C 177.855 -3.3094 4.90135 0
M  V30 1948 H 176.785 -0.542925 0.52321 0
M  V30 1949 H 179.436 -0.748054 1.6756 0
M  V30 1950 H 177.818 -3.33412 2.13664 0
M  V30 1951 H 178.992 -1.52318 4.34897 0
M  V30 1952 H 177.307 -1.52473 3.8748 0
M  V30 1953 H 179.904 -4.23747 3.26102 0
M  V30 1954 H 180.247 -3.84578 1.59391 0
M  V30 1955 H 180.78 -2.74021 2.8837 0
M  V30 1956 H 177.519 -2.90355 5.87685 0
M  V30 1957 H 177.039 -3.94546 4.51767 0
M  V30 1958 H 178.718 -3.9663 5.11169 0
M  V30 1959 N 178.85 -1.27639 -0.924453 0
M  V30 1960 C 180.261 -1.12834 -1.48746 0
M  V30 1961 C 180.612 0.285505 -1.94112 0
M  V30 1962 O 179.737 1.17874 -1.81479 0
M  V30 1963 C 180.332 -2.04217 -2.70334 0
M  V30 1964 C 178.891 -1.93509 -3.22848 0
M  V30 1965 C 178.038 -1.96583 -1.95577 0
M  V30 1966 H 180.989 -1.40484 -0.738233 0
M  V30 1967 H 181.01 -1.59989 -3.4523 0
M  V30 1968 H 180.522 -3.07111 -2.37285 0
M  V30 1969 H 178.623 -0.936131 -3.60649 0
M  V30 1970 H 178.736 -2.79917 -3.88823 0
M  V30 1971 H 177.1 -1.4085 -2.12211 0
M  V30 1972 H 177.883 -3.01137 -1.64837 0
M  V30 1973 N 180.328 1.1314 -1.09713 0
M  V30 1974 C 181.276 2.20717 -0.733934 0
M  V30 1975 C 182.27 1.6729 0.266506 0
M  V30 1976 O 183.476 1.79547 0.127656 0
M  V30 1977 H 179.851 0.719292 -0.21937 0
M  V30 1978 H 181.822 2.48611 -1.6503 0
M  V30 1979 C 180.571 3.47265 -0.173849 0
M  V30 1980 H 179.894 3.88716 -0.934873 0
M  V30 1981 H 181.334 4.23979 0.0423126 0
M  V30 1982 C 179.793 3.18724 1.09164 0
M  V30 1983 O 180.323 3.37762 2.17439 0
M  V30 1984 N 178.529 2.72583 1.00732 0
M  V30 1985 H 178.076 2.57291 0.126121 0
M  V30 1986 H 178.034 2.53862 1.85476 0
M  V30 1987 N 181.806 0.884767 1.30421 0
M  V30 1988 C 183.034 0.518044 2.0031 0
M  V30 1989 C 183.449 -0.893408 1.66324 0
M  V30 1990 O 182.806 -1.5875 0.900262 0
M  V30 1991 C 182.857 0.682997 3.54989 0
M  V30 1992 O 182.578 2.03888 3.87764 0
M  V30 1993 C 184.079 0.31924 4.42149 0
M  V30 1994 H 181.299 0.200265 0.640418 0
M  V30 1995 H 183.843 1.19001 1.6631 0
M  V30 1996 H 181.998 0.0584052 3.87356 0
M  V30 1997 H 182.412 2.05735 4.82466 0
M  V30 1998 H 183.886 0.485555 5.4986 0
M  V30 1999 H 184.363 -0.742717 4.32875 0
M  V30 2000 H 184.969 0.920147 4.15227 0
M  V30 2001 N 183.284 -1.43765 0.645699 0
M  V30 2002 C 184.509 -2.06767 0.161883 0
M  V30 2003 C 184.934 -1.48034 -1.16049 0
M  V30 2004 O 184.292 -0.587369 -1.71522 0
M  V30 2005 C 184.34 -3.60519 0.0762003 0
M  V30 2006 O 183.444 -4.00982 -0.963721 0
M  V30 2007 H 182.785 -0.657675 0.091429 0
M  V30 2008 H 185.315 -1.84397 0.886499 0
M  V30 2009 H 185.325 -4.07853 -0.109604 0
M  V30 2010 H 184 -4.02646 1.04157 0
M  V30 2011 H 182.577 -3.65253 -0.751312 0
M  V30 2012 N 184.763 -0.387143 -1.52771 0
M  V30 2013 C 185.673 0.456442 -2.30117 0
M  V30 2014 C 186.689 1.07342 -1.36944 0
M  V30 2015 O 187.865 1.07971 -1.70013 0
M  V30 2016 C 184.93 1.56957 -3.09136 0
M  V30 2017 C 183.991 0.977916 -4.18014 0
M  V30 2018 C 183.224 2.038 -4.93256 0
M  V30 2019 O 183.447 3.25271 -4.68567 0
M  V30 2020 O 182.381 1.6565 -5.78657 0
M  V30 2021 H 186.207 -0.17359 -3.03203 0
M  V30 2022 H 183.792 -0.150919 -1.48636 0
M  V30 2023 H 185.674 2.21628 -3.58412 0
M  V30 2024 H 184.349 2.18461 -2.38865 0
M  V30 2025 H 183.256 0.294525 -3.72939 0
M  V30 2026 H 184.589 0.407128 -4.90513 0
M  V30 2027 N 186.241 1.57166 -0.116904 0
M  V30 2028 C 187.466 1.999 0.55271 0
M  V30 2029 C 187.891 0.996039 1.59564 0
M  V30 2030 O 187.249 -0.032556 1.81271 0
M  V30 2031 C 187.297 3.4152 1.15742 0
M  V30 2032 O 186.401 3.44106 2.27299 0
M  V30 2033 H 185.742 0.649447 0.138258 0
M  V30 2034 H 188.272 2.03573 -0.204759 0
M  V30 2035 H 188.282 3.79684 1.49346 0
M  V30 2036 H 186.957 4.14034 0.393493 0
M  V30 2037 H 185.534 3.17759 1.9515 0
M  V30 2038 N 187.719 -0.156864 1.56817 0
M  V30 2039 C 188.629 -1.2136 2.00771 0
M  V30 2040 C 189.645 -1.47598 0.921459 0
M  V30 2041 O 190.821 -1.59462 1.2302 0
M  V30 2042 C 187.886 -2.52943 2.37109 0
M  V30 2043 C 186.947 -2.34439 3.59634 0
M  V30 2044 C 186.18 -3.59748 3.94229 0
M  V30 2045 O 186.403 -4.65526 3.29609 0
M  V30 2046 O 185.337 -3.52998 4.8752 0
M  V30 2047 H 189.163 -0.870468 2.90958 0
M  V30 2048 H 186.748 -0.36484 1.44877 0
M  V30 2049 H 188.63 -3.30538 2.61386 0
M  V30 2050 H 187.305 -2.86806 1.5008 0
M  V30 2051 H 186.212 -1.54828 3.40557 0
M  V30 2052 H 187.545 -2.05496 4.4725 0
M  V30 2053 N 189.197 -1.51736 -0.425897 0
M  V30 2054 C 190.422 -1.69082 -1.20108 0
M  V30 2055 C 190.847 -0.392398 -1.83962 0
M  V30 2056 O 190.205 0.64858 -1.69302 0
M  V30 2057 C 190.253 -2.81604 -2.25237 0
M  V30 2058 O 189.357 -2.46004 -3.30992 0
M  V30 2059 H 188.698 -0.563408 -0.35138 0
M  V30 2060 H 191.228 -1.98358 -0.501512 0
M  V30 2061 H 191.238 -3.06025 -2.69838 0
M  V30 2062 H 189.913 -3.75817 -1.78142 0
M  V30 2063 H 188.49 -2.32195 -2.91787 0
M  V30 2064 N 190.675 0.682077 -1.42076 0
M  V30 2065 C 191.622 1.79578 -1.44984 0
M  V30 2066 C 192.592 1.6332 -0.302614 0
M  V30 2067 O 193.777 1.83978 -0.505633 0
M  V30 2068 C 190.917 3.1756 -1.35091 0
M  V30 2069 C 190.03 3.45156 -2.59791 0
M  V30 2070 C 189.165 4.72826 -2.42093 0
M  V30 2071 C 188.204 4.93433 -3.62202 0
M  V30 2072 N 187.341 6.12338 -3.43491 0
M  V30 2073 H 192.181 1.76427 -2.40161 0
M  V30 2074 H 189.718 0.861376 -1.19242 0
M  V30 2075 H 191.676 3.97287 -1.27354 0
M  V30 2076 H 190.306 3.19854 -0.435133 0
M  V30 2077 H 189.358 2.59736 -2.77923 0
M  V30 2078 H 190.67 3.5628 -3.49094 0
M  V30 2079 H 189.824 5.60631 -2.319 0
M  V30 2080 H 188.563 4.63973 -1.50268 0
M  V30 2081 H 187.568 4.04073 -3.72834 0
M  V30 2082 H 188.793 5.04136 -4.54998 0
M  V30 2083 H 186.739 6.04672 -2.54377 0
M  V30 2084 H 186.656 6.2429 -4.26377 0
M  V30 2085 H 187.924 7.02841 -3.37097 0
M  V30 2086 N 192.153 1.28127 0.917671 0
M  V30 2087 C 193.399 1.15223 1.66888 0
M  V30 2088 C 193.732 -0.299293 1.9188 0
M  V30 2089 O 193.007 -1.21805 1.51637 0
M  V30 2090 C 193.29 1.94706 3.02922 0
M  V30 2091 C 193.143 3.47898 2.85109 0
M  V30 2092 C 194.462 1.75939 4.03402 0
M  V30 2093 H 191.581 0.419946 0.605652 0
M  V30 2094 H 194.223 1.57398 1.06423 0
M  V30 2095 H 192.373 1.58864 3.54534 0
M  V30 2096 H 194.045 3.93624 2.40537 0
M  V30 2097 H 192.288 3.7373 2.20246 0
M  V30 2098 H 192.959 3.98765 3.81694 0
M  V30 2099 H 195.435 2.07209 3.60837 0
M  V30 2100 H 194.311 2.33931 4.96556 0
M  V30 2101 H 194.572 0.709877 4.36364 0
M  V30 2102 N 193.631 -1.12557 1.10312 0
M  V30 2103 C 194.878 -1.84038 0.844759 0
M  V30 2104 C 195.206 -1.84026 -0.629668 0
M  V30 2105 O 194.461 -1.28026 -1.48013 0
M  V30 2106 C 194.76 -3.31462 1.33669 0
M  V30 2107 C 194.426 -3.51647 2.82232 0
M  V30 2108 C 193.088 -3.56864 3.22802 0
M  V30 2109 C 195.44 -3.58867 3.77974 0
M  V30 2110 C 192.768 -3.66844 4.57867 0
M  V30 2111 C 195.12 -3.70375 5.1284 0
M  V30 2112 C 193.784 -3.73848 5.52986 0
M  V30 2113 H 193.054 -0.673444 0.309119 0
M  V30 2114 H 195.701 -1.32824 1.37949 0
M  V30 2115 H 194.006 -3.85091 0.721949 0
M  V30 2116 H 195.703 -3.85236 1.11329 0
M  V30 2117 H 192.293 -3.48249 2.49842 0
M  V30 2118 H 196.477 -3.54107 3.47738 0
M  V30 2119 H 191.733 -3.67804 4.88396 0
M  V30 2120 H 195.907 -3.74904 5.86873 0
M  V30 2121 H 193.534 -3.81333 6.57639 0
M  V30 2122 N 195.109 -0.891671 -1.2995 0
M  V30 2123 C 196.339 -0.527893 -1.99742 0
M  V30 2124 C 196.747 0.88979 -1.66971 0
M  V30 2125 O 196.09 1.59766 -0.906667 0
M  V30 2126 C 196.152 -0.630804 -3.53922 0
M  V30 2127 C 195.816 -2.01401 -4.10228 0
M  V30 2128 C 196.813 -2.98422 -4.25724 0
M  V30 2129 C 194.498 -2.32121 -4.45449 0
M  V30 2130 C 196.492 -4.24293 -4.75662 0
M  V30 2131 C 194.179 -3.58237 -4.95086 0
M  V30 2132 C 195.177 -4.54137 -5.10146 0
M  V30 2133 O 194.865 -5.78014 -5.58708 0
M  V30 2134 H 194.597 -0.201953 -0.645129 0
M  V30 2135 H 197.151 -1.20076 -1.66646 0
M  V30 2136 H 195.381 0.0990616 -3.86573 0
M  V30 2137 H 197.07 -0.277338 -4.04951 0
M  V30 2138 H 197.836 -2.76001 -3.98809 0
M  V30 2139 H 193.715 -1.5824 -4.32991 0
M  V30 2140 H 197.259 -4.99153 -4.87332 0
M  V30 2141 H 193.156 -3.80491 -5.21437 0
M  V30 2142 H 193.924 -5.8049 -5.77039 0
M  V30 2143 N 196.587 1.43421 -0.653314 0
M  V30 2144 C 197.817 2.05864 -0.174238 0
M  V30 2145 C 198.225 1.49052 1.16534 0
M  V30 2146 O 197.568 0.616481 1.73047 0
M  V30 2147 C 197.63 3.59499 -0.00875873 0
M  V30 2148 C 197.294 4.38893 -1.27364 0
M  V30 2149 C 198.291 4.70947 -2.20239 0
M  V30 2150 C 195.976 4.789 -1.51525 0
M  V30 2151 C 197.97 5.41916 -3.35568 0
M  V30 2152 C 195.657 5.49614 -2.67147 0
M  V30 2153 C 196.655 5.81044 -3.58994 0
M  V30 2154 O 196.343 6.50313 -4.72597 0
M  V30 2155 H 196.075 0.670345 -0.0872549 0
M  V30 2156 H 198.629 1.84913 -0.894226 0
M  V30 2157 H 196.859 3.79025 0.7666 0
M  V30 2158 H 198.548 4.0364 0.427687 0
M  V30 2159 H 199.314 4.40558 -2.02815 0
M  V30 2160 H 195.193 4.53843 -0.809158 0
M  V30 2161 H 198.737 5.66365 -4.07279 0
M  V30 2162 H 194.634 5.79419 -2.84505 0
M  V30 2163 H 195.402 6.68795 -4.71864 0
M  V30 2164 N 198.065 0.39524 1.52563 0
M  V30 2165 C 199.012 -0.437036 2.26624 0
M  V30 2166 C 199.982 -1.05281 1.28472 0
M  V30 2167 O 201.167 -1.07971 1.57311 0
M  V30 2168 C 198.307 -1.55524 3.08069 0
M  V30 2169 C 197.42 -0.961745 4.21158 0
M  V30 2170 C 196.555 -2.05149 4.89987 0
M  V30 2171 C 195.594 -1.4342 5.95061 0
M  V30 2172 N 194.731 -2.46351 6.57462 0
M  V30 2173 H 199.571 0.200976 2.97322 0
M  V30 2174 H 197.108 0.110944 1.46681 0
M  V30 2175 H 199.066 -2.21437 3.53584 0
M  V30 2176 H 197.696 -2.16348 2.3957 0
M  V30 2177 H 196.748 -0.192048 3.79915 0
M  V30 2178 H 198.06 -0.470701 4.96574 0
M  V30 2179 H 197.214 -2.78819 5.38837 0
M  V30 2180 H 195.953 -2.57615 4.14109 0
M  V30 2181 H 194.958 -0.682774 5.45544 0
M  V30 2182 H 196.183 -0.917416 6.72875 0
M  V30 2183 H 194.129 -2.97975 5.8442 0
M  V30 2184 H 194.046 -2.02019 7.28508 0
M  V30 2185 H 195.314 -3.19633 7.10954 0
M  V30 2186 N 199.544 -1.57102 0.125237 0
M  V30 2187 C 200.477 -2.11371 -0.860094 0
M  V30 2188 C 201.455 -1.03168 -1.25679 0
M  V30 2189 O 202.639 -1.30862 -1.35674 0
M  V30 2190 C 199.766 -2.61555 -2.1519 0
M  V30 2191 C 198.812 -3.81701 -1.9028 0
M  V30 2192 S 199.645 -5.23797 -1.11343 0
M  V30 2193 C 200.801 -5.77353 -2.41689 0
M  V30 2194 H 201.034 -2.94617 -0.39852 0
M  V30 2195 H 198.567 -1.54145 -0.0886555 0
M  V30 2196 H 200.525 -2.91122 -2.89411 0
M  V30 2197 H 199.186 -1.78479 -2.58465 0
M  V30 2198 H 198.379 -4.14985 -2.86014 0
M  V30 2199 H 197.981 -3.52783 -1.24178 0
M  V30 2200 H 200.273 -5.87458 -3.37489 0
M  V30 2201 H 201.216 -6.75323 -2.12942 0
M  V30 2202 H 201.624 -5.05457 -2.51342 0
M  V30 2203 N 201.022 0.148545 -1.56898 0
M  V30 2204 C 201.969 1.18345 -1.98149 0
M  V30 2205 C 202.939 1.42772 -0.848848 0
M  V30 2206 O 204.124 1.55132 -1.11079 0
M  V30 2207 C 201.264 2.51231 -2.36594 0
M  V30 2208 C 200.377 2.33991 -3.63142 0
M  V30 2209 C 199.512 3.59902 -3.90697 0
M  V30 2210 C 198.551 3.37692 -5.1052 0
M  V30 2211 N 197.688 4.5573 -5.34092 0
M  V30 2212 H 202.528 0.82467 -2.86362 0
M  V30 2213 H 200.065 0.395756 -1.41676 0
M  V30 2214 H 202.023 3.28713 -2.56912 0
M  V30 2215 H 200.653 2.85059 -1.51463 0
M  V30 2216 H 199.705 1.47572 -3.50609 0
M  V30 2217 H 201.017 2.13539 -4.5078 0
M  V30 2218 H 200.171 4.45813 -4.11505 0
M  V30 2219 H 198.91 3.83357 -3.01477 0
M  V30 2220 H 197.915 2.5017 -4.89587 0
M  V30 2221 H 199.14 3.15637 -6.0129 0
M  V30 2222 H 197.086 4.79361 -4.47827 0
M  V30 2223 H 197.003 4.38274 -6.15996 0
M  V30 2224 H 198.271 5.42858 -5.59397 0
M  V30 2225 N 202.5 1.5196 0.417844 0
M  V30 2226 C 203.748 1.65263 1.16329 0
M  V30 2227 C 204.069 0.380634 1.91249 0
M  V30 2228 O 203.339 -0.604214 1.86349 0
M  V30 2229 H 201.919 0.60912 0.432414 0
M  V30 2230 H 204.581 1.88969 0.477162 0
M  V30 2231 H 203.677 2.4896 1.88217 0
M  V30 2232 N 203.978 -0.674533 1.42435 0
M  V30 2233 C 205.255 -1.4305 1.33402 0
M  V30 2234 C 205.635 -2.11081 -0.0284674 0
M  V30 2235 O 204.983 -2.03257 -1.04397 0
M  V30 2236 C 205.193 -2.43272 2.50239 0
M  V30 2237 C 206.541 -3.07907 2.92367 0
M  V30 2238 O 207.565 -2.53599 2.50132 0
M  V30 2239 O 206.424 -4.0632 3.65467 0
M  V30 2240 H 203.518 -0.638076 0.526106 0
M  V30 2241 H 206.064 -0.703235 1.54443 0
M  V30 2242 H 204.836 -1.91803 3.41068 0
M  V30 2243 H 204.459 -3.23479 2.31186 0
M  V30 2244 N 205.456 -1.28612 -0.910864 0
M  V30 2245 C 206.686 -1.1862 -1.69153 0
M  V30 2246 C 207.094 0.257324 -1.87442 0
M  V30 2247 O 206.437 1.18543 -1.40332 0
M  V30 2248 C 206.499 -1.81606 -3.10257 0
M  V30 2249 C 206.163 -3.30864 -3.15243 0
M  V30 2250 C 207.16 -4.27256 -2.96223 0
M  V30 2251 C 204.845 -3.71871 -3.37664 0
M  V30 2252 C 206.839 -5.62631 -2.99541 0
M  V30 2253 C 204.526 -5.07371 -3.40614 0
M  V30 2254 C 205.524 -6.02561 -3.21573 0
M  V30 2255 O 205.212 -7.35589 -3.2429 0
M  V30 2256 H 204.944 -0.412633 -0.535453 0
M  V30 2257 H 207.498 -1.70306 -1.14827 0
M  V30 2258 H 205.728 -1.24418 -3.66138 0
M  V30 2259 H 207.417 -1.66092 -3.70362 0
M  V30 2260 H 208.183 -3.9691 -2.78725 0
M  V30 2261 H 204.062 -2.98241 -3.5153 0
M  V30 2262 H 207.606 -6.36907 -2.84597 0
M  V30 2263 H 203.503 -5.37366 -3.57642 0
M  V30 2264 H 204.271 -7.44252 -3.40633 0
M  V30 2265 N 206.934 1.1197 -1.10907 0
M  V30 2266 C 208.164 1.8713 -0.875553 0
M  V30 2267 C 208.572 1.8016 0.577843 0
M  V30 2268 O 207.915 1.17699 1.41042 0
M  V30 2269 C 207.977 3.37005 -1.2517 0
M  V30 2270 C 207.641 3.67748 -2.71313 0
M  V30 2271 C 208.638 3.65698 -3.69542 0
M  V30 2272 C 206.323 3.96928 -3.07821 0
M  V30 2273 C 208.317 3.92395 -5.023 0
M  V30 2274 C 206.004 4.23284 -4.40765 0
M  V30 2275 C 207.002 4.21005 -5.37814 0
M  V30 2276 O 206.69 4.46704 -6.68364 0
M  V30 2277 H 206.422 0.598786 -0.313737 0
M  V30 2278 H 208.976 1.42568 -1.47863 0
M  V30 2279 H 207.206 3.82146 -0.591741 0
M  V30 2280 H 208.895 3.93519 -0.994877 0
M  V30 2281 H 209.661 3.43211 -3.42682 0
M  V30 2282 H 205.54 3.97841 -2.32902 0
M  V30 2283 H 209.084 3.90531 -5.78041 0
M  V30 2284 H 204.981 4.45246 -4.67361 0
M  V30 2285 H 205.749 4.64299 -6.74069 0
M  V30 2286 N 208.412 0.89855 1.29475 0
M  V30 2287 C 209.828 0.594483 1.48115 0
M  V30 2288 C 210.028 -0.86431 1.82022 0
M  V30 2289 O 209.084 -1.64457 1.91599 0
M  V30 2290 C 210.397 1.51932 2.59494 0
M  V30 2291 C 211.945 1.5244 2.7337 0
M  V30 2292 C 212.42 2.43548 3.87877 0
M  V30 2293 N 213.911 2.41589 3.95208 0
M  V30 2294 C 214.646 3.08789 4.83153 0
M  V30 2295 N 214.142 3.85265 5.75798 0
M  V30 2296 N 215.935 2.97952 4.76635 0
M  V30 2297 H 208.086 1.84207 1.05742 0
M  V30 2298 H 210.349 0.789251 0.525154 0
M  V30 2299 H 210.055 2.55865 2.41301 0
M  V30 2300 H 209.929 1.23899 3.56271 0
M  V30 2301 H 212.316 0.492518 2.90961 0
M  V30 2302 H 212.397 1.8451 1.77172 0
M  V30 2303 H 212.041 3.46829 3.71041 0
M  V30 2304 H 211.971 2.08788 4.83441 0
M  V30 2305 H 214.462 1.86025 3.28943 0
M  V30 2306 H 214.775 4.33598 6.39697 0
M  V30 2307 H 213.12 3.89371 5.75687 0
M  V30 2308 H 216.311 2.37723 4.03244 0
M  V30 2309 H 216.484 3.50599 5.44962 0
M  V30 2310 N 209.89 -1.43072 0.660911 0
M  V30 2311 C 211.12 -2.05769 0.185153 0
M  V30 2312 C 211.528 -1.49668 -1.15742 0
M  V30 2313 O 210.871 -0.625649 -1.72717 0
M  V30 2314 C 210.933 -3.59489 0.0278237 0
M  V30 2315 C 210.597 -4.38212 1.2969 0
M  V30 2316 C 211.594 -4.69772 2.22734 0
M  V30 2317 C 209.279 -4.7809 1.54063 0
M  V30 2318 C 211.273 -5.40129 3.38437 0
M  V30 2319 C 208.96 -5.4819 2.70058 0
M  V30 2320 C 209.958 -5.79132 3.62071 0
M  V30 2321 O 209.646 -6.47798 4.76039 0
M  V30 2322 H 209.378 -0.669873 0.0908086 0
M  V30 2323 H 211.932 -1.84436 0.90402 0
M  V30 2324 H 210.162 -3.79426 -0.746489 0
M  V30 2325 H 211.851 -4.03862 -0.406275 0
M  V30 2326 H 212.617 -4.39476 2.05149 0
M  V30 2327 H 208.496 -4.53408 0.833215 0
M  V30 2328 H 212.04 -5.64198 4.10277 0
M  V30 2329 H 207.937 -5.77902 2.87574 0
M  V30 2330 H 208.705 -6.66283 4.75404 0
M  V30 2331 N 211.368 -0.403325 -1.52352 0
M  V30 2332 C 212.617 0.175668 -2.00934 0
M  V30 2333 C 212.93 1.46718 -1.29356 0
M  V30 2334 O 214.136 2.12708 -1.68724 0
M  V30 2335 C 212.592 0.363612 -3.58058 0
M  V30 2336 C 212.2 -0.915472 -4.38547 0
M  V30 2337 C 213.944 0.89821 -4.14888 0
M  V30 2338 C 211.851 -0.695035 -5.87302 0
M  V30 2339 H 210.781 0.0694234 -0.750797 0
M  V30 2340 H 213.432 -0.527879 -1.75743 0
M  V30 2341 H 211.814 1.12935 -3.79555 0
M  V30 2342 H 212.988 -1.68691 -4.28812 0
M  V30 2343 H 211.303 -1.37606 -3.93006 0
M  V30 2344 H 213.9 1.07907 -5.23699 0
M  V30 2345 H 214.243 1.87126 -3.71873 0
M  V30 2346 H 214.776 0.191681 -3.97338 0
M  V30 2347 H 211.515 -1.63948 -6.34666 0
M  V30 2348 H 211.035 0.0372116 -5.99788 0
M  V30 2349 H 212.714 -0.33497 -6.46132 0
M  V30 2350 N 212.846 1.57033 -0.133567 0
M  V30 2351 C 214.071 2.00475 0.531477 0
M  V30 2352 C 214.496 1.01291 1.58499 0
M  V30 2353 O 213.854 -0.0133279 1.81295 0
M  V30 2354 C 213.902 3.42729 1.12113 0
M  V30 2355 O 213.006 3.46498 2.23636 0
M  V30 2356 H 212.347 0.650876 0.131362 0
M  V30 2357 H 214.877 2.03344 -0.22634 0
M  V30 2358 H 214.887 3.81246 1.4531 0
M  V30 2359 H 213.562 4.14428 0.349557 0
M  V30 2360 H 212.139 3.19811 1.91769 0
M  V30 2361 N 214.325 -0.140222 1.56975 0
M  V30 2362 C 215.235 -1.19223 2.02047 0
M  V30 2363 C 216.251 -1.46612 0.937062 0
M  V30 2364 O 217.427 -1.58148 1.24704 0
M  V30 2365 C 214.492 -2.50414 2.39778 0
M  V30 2366 C 213.553 -2.30612 3.621 0
M  V30 2367 C 212.786 -3.55547 3.98023 0
M  V30 2368 O 213.009 -4.62004 3.34528 0
M  V30 2369 O 211.943 -3.47808 4.91237 0
M  V30 2370 H 215.769 -0.839559 2.91865 0
M  V30 2371 H 213.354 -0.349453 1.45256 0
M  V30 2372 H 215.236 -3.27747 2.64877 0
M  V30 2373 H 213.911 -2.85198 1.53114 0
M  V30 2374 H 212.818 -1.51207 3.4218 0
M  V30 2375 H 214.151 -2.00741 4.49404 0
M  V30 2376 N 215.803 -1.52179 -0.40978 0
M  V30 2377 C 217.05 -1.66206 -1.15679 0
M  V30 2378 C 217.378 -0.391674 -1.90516 0
M  V30 2379 O 216.633 0.62533 -1.8544 0
M  V30 2380 C 216.932 -2.83428 -2.17723 0
M  V30 2381 C 216.598 -4.21672 -1.59699 0
M  V30 2382 C 215.26 -4.59274 -1.43599 0
M  V30 2383 C 217.612 -5.07825 -1.17317 0
M  V30 2384 C 214.94 -5.80709 -0.836328 0
M  V30 2385 C 217.292 -6.29864 -0.587691 0
M  V30 2386 C 215.956 -6.66216 -0.413818 0
M  V30 2387 H 215.226 -0.608192 -0.423301 0
M  V30 2388 H 217.873 -1.86279 -0.444097 0
M  V30 2389 H 216.178 -2.57687 -2.95135 0
M  V30 2390 H 217.875 -2.91477 -2.75394 0
M  V30 2391 H 214.465 -3.9204 -1.73213 0
M  V30 2392 H 218.649 -4.79359 -1.28565 0
M  V30 2393 H 213.905 -6.07498 -0.689626 0
M  V30 2394 H 218.079 -6.95948 -0.250894 0
M  V30 2395 H 215.706 -7.60182 0.0529471 0
M  V30 2396 N 217.281 0.66697 -1.42791 0
M  V30 2397 C 218.506 1.46004 -1.47301 0
M  V30 2398 C 218.931 1.87894 -0.0880317 0
M  V30 2399 O 218.289 1.56502 0.915253 0
M  V30 2400 C 218.337 2.68031 -2.41229 0
M  V30 2401 O 217.441 3.6659 -1.88906 0
M  V30 2402 H 216.782 0.43832 -0.49877 0
M  V30 2403 H 219.312 0.817391 -1.87563 0
M  V30 2404 H 219.322 3.1601 -2.58073 0
M  V30 2405 H 217.997 2.36883 -3.41847 0
M  V30 2406 H 216.574 3.25661 -1.81656 0
M  V30 2407 N 218.759 1.29093 0.90403 0
M  V30 2408 C 219.999 1.18076 1.66845 0
M  V30 2409 C 220.363 -0.26436 1.90171 0
M  V30 2410 O 221.564 -0.497423 2.64157 0
M  V30 2411 C 219.835 1.96722 2.98388 0
M  V30 2412 S 221.394 2.0219 3.89441 0
M  V30 2413 H 218.212 0.421104 0.572881 0
M  V30 2414 H 220.814 1.63322 1.07453 0
M  V30 2415 H 219.518 3.00866 2.7912 0
M  V30 2416 H 219.049 1.52064 3.62823 0
M  V30 2417 H 221.064 1.13545 4.83034 0
M  V30 2418 N 220.237 -1.11381 1.11499 0
M  V30 2419 C 221.514 -1.7955 0.775965 0
M  V30 2420 C 221.894 -1.97859 -0.73588 0
M  V30 2421 O 221.242 -1.56376 -1.66609 0
M  V30 2422 C 221.452 -3.13196 1.53977 0
M  V30 2423 C 222.8 -3.88227 1.71944 0
M  V30 2424 O 223.824 -3.22887 1.50407 0
M  V30 2425 O 222.683 -5.05477 2.07738 0
M  V30 2426 H 219.777 -0.777728 0.28119 0
M  V30 2427 H 222.323 -1.18118 1.21845 0
M  V30 2428 H 221.095 -2.95229 2.56818 0
M  V30 2429 H 220.718 -3.82342 1.09088 0
M  V30 2430 N 221.715 -0.905404 -1.28997 0
M  V30 2431 C 222.625 -0.392246 -2.31298 0
M  V30 2432 C 223.641 0.515889 -1.66176 0
M  V30 2433 O 224.817 0.404093 -1.97304 0
M  V30 2434 C 221.882 0.36686 -3.44754 0
M  V30 2435 C 220.943 -0.573485 -4.25452 0
M  V30 2436 C 220.176 0.149488 -5.33491 0
M  V30 2437 O 220.399 1.37255 -5.5364 0
M  V30 2438 O 219.333 -0.510919 -5.99728 0
M  V30 2439 H 223.159 -1.2411 -2.77183 0
M  V30 2440 H 220.744 -0.669926 -1.33538 0
M  V30 2441 H 222.626 0.795907 -4.13816 0
M  V30 2442 H 221.301 1.19169 -3.00966 0
M  V30 2443 H 220.208 -1.05176 -3.59011 0
M  V30 2444 H 221.541 -1.36489 -4.72897 0
M  V30 2445 N 223.193 1.4272 -0.668489 0
M  V30 2446 C 224.441 2.01226 -0.187769 0
M  V30 2447 C 224.762 1.53092 1.2078 0
M  V30 2448 O 224.032 0.74993 1.80977 0
M  V30 2449 H 222.612 0.744041 -0.0664272 0
M  V30 2450 H 225.274 1.74723 -0.863583 0
M  V30 2451 H 224.37 3.11556 -0.184166 0
M  V30 2452 N 224.671 0.411399 1.52136 0
M  V30 2453 C 225.618 -0.412975 2.27075 0
M  V30 2454 C 226.588 -1.03912 1.29582 0
M  V30 2455 O 227.773 -1.06296 1.58448 0
M  V30 2456 C 224.913 -1.52247 3.09701 0
M  V30 2457 C 224.026 -0.917021 4.22155 0
M  V30 2458 C 223.161 -1.9994 4.92135 0
M  V30 2459 C 222.2 -1.37101 5.96548 0
M  V30 2460 N 221.337 -2.39364 6.60038 0
M  V30 2461 H 226.177 0.232499 2.97092 0
M  V30 2462 H 223.714 0.126496 1.46555 0
M  V30 2463 H 225.672 -2.17674 3.55913 0
M  V30 2464 H 224.302 -2.13794 2.41851 0
M  V30 2465 H 223.354 -0.151742 3.80097 0
M  V30 2466 H 224.666 -0.418006 4.97045 0
M  V30 2467 H 223.82 -2.73088 5.41763 0
M  V30 2468 H 222.559 -2.53208 4.16818 0
M  V30 2469 H 221.564 -0.624873 5.46237 0
M  V30 2470 H 222.789 -0.845998 6.7381 0
M  V30 2471 H 220.735 -2.91759 5.87548 0
M  V30 2472 H 220.652 -1.9428 7.3061 0
M  V30 2473 H 221.92 -3.12074 7.14304 0
M  V30 2474 N 226.149 -1.5696 0.141893 0
M  V30 2475 C 227.096 -2.16501 -0.799737 0
M  V30 2476 C 228.066 -1.09643 -1.24771 0
M  V30 2477 O 229.251 -1.3766 -1.32115 0
M  V30 2478 C 226.391 -2.78679 -2.03549 0
M  V30 2479 C 225.504 -3.99914 -1.6338 0
M  V30 2480 C 224.639 -4.50106 -2.82096 0
M  V30 2481 C 223.678 -5.63819 -2.38275 0
M  V30 2482 N 222.815 -6.08651 -3.49983 0
M  V30 2483 H 227.655 -2.96632 -0.285179 0
M  V30 2484 H 225.192 -1.46533 -0.129053 0
M  V30 2485 H 227.15 -3.1287 -2.75986 0
M  V30 2486 H 225.78 -2.012 -2.52425 0
M  V30 2487 H 224.832 -3.71735 -0.807279 0
M  V30 2488 H 226.144 -4.82311 -1.27192 0
M  V30 2489 H 225.298 -4.86325 -3.62729 0
M  V30 2490 H 224.037 -3.66706 -3.21525 0
M  V30 2491 H 223.042 -5.2718 -1.56081 0
M  V30 2492 H 224.267 -6.49 -1.99938 0
M  V30 2493 H 222.213 -5.28188 -3.89042 0
M  V30 2494 H 222.13 -6.85961 -3.17794 0
M  V30 2495 H 223.398 -6.49515 -4.30988 0
M  V30 2496 N 227.627 0.131896 -1.57047 0
M  V30 2497 C 228.537 1.1815 -2.02676 0
M  V30 2498 C 229.553 1.46113 -0.944824 0
M  V30 2499 O 230.729 1.57485 -1.25541 0
M  V30 2500 C 227.794 2.49139 -2.41103 0
M  V30 2501 C 226.855 2.28688 -3.63318 0
M  V30 2502 C 226.088 3.53431 -3.99903 0
M  V30 2503 O 226.311 4.60223 -3.36973 0
M  V30 2504 O 225.245 3.45198 -4.93074 0
M  V30 2505 H 229.071 0.824069 -2.92306 0
M  V30 2506 H 226.656 0.341745 -1.45439 0
M  V30 2507 H 228.538 3.26338 -2.66611 0
M  V30 2508 H 227.213 2.84382 -1.54624 0
M  V30 2509 H 226.12 1.4939 -3.42977 0
M  V30 2510 H 227.453 1.98355 -4.50462 0
M  V30 2511 N 229.106 1.52395 0.401703 0
M  V30 2512 C 230.069 1.75636 1.47257 0
M  V30 2513 C 231.069 0.62628 1.48103 0
M  V30 2514 O 232.259 0.894227 1.49497 0
M  V30 2515 C 229.391 1.84553 2.86624 0
M  V30 2516 H 230.584 2.71241 1.27938 0
M  V30 2517 H 228.137 1.42923 0.632662 0
M  V30 2518 H 228.872 0.908882 3.11303 0
M  V30 2519 H 228.657 2.66715 2.87412 0
M  V30 2520 H 230.147 2.04251 3.64241 0
M  V30 2521 N 230.584 -0.659388 1.43143 0
M  V30 2522 C 231.809 -1.45221 1.48073 0
M  V30 2523 C 232.234 -1.87845 0.097995 0
M  V30 2524 O 231.592 -1.56985 -0.90694 0
M  V30 2525 C 231.64 -2.66748 2.42647 0
M  V30 2526 O 230.744 -3.65583 1.90848 0
M  V30 2527 H 230.085 -0.435669 0.501088 0
M  V30 2528 H 232.615 -0.807432 1.87994 0
M  V30 2529 H 232.625 -3.14637 2.59745 0
M  V30 2530 H 231.3 -2.35067 3.43098 0
M  V30 2531 H 229.877 -3.24693 1.83381 0
M  V30 2532 N 232.062 -1.29571 -0.897171 0
M  V30 2533 C 233.01 -1.14802 -2.02295 0
M  V30 2534 C 234.004 -0.0629637 -1.69283 0
M  V30 2535 O 235.21 -0.222945 -1.78614 0
M  V30 2536 H 231.585 -0.354692 -0.663097 0
M  V30 2537 H 233.556 -2.10108 -2.11889 0
M  V30 2538 C 232.305 -0.843966 -3.37302 0
M  V30 2539 H 231.628 -1.67093 -3.63208 0
M  V30 2540 H 233.068 -0.780672 -4.16751 0
M  V30 2541 C 231.527 0.452843 -3.33843 0
M  V30 2542 O 232.057 1.47813 -3.73516 0
M  V30 2543 N 230.263 0.459601 -2.86943 0
M  V30 2544 H 229.81 -0.375213 -2.54853 0
M  V30 2545 H 229.768 1.32726 -2.85011 0
M  V30 2546 N 233.54 1.10788 -1.12088 0
M  V30 2547 C 234.78 1.84297 -0.883974 0
M  V30 2548 C 235.144 1.83036 0.579797 0
M  V30 2549 O 236.345 2.52061 0.933734 0
M  V30 2550 C 234.616 3.27173 -1.43849 0
M  V30 2551 S 236.175 4.17853 -1.33957 0
M  V30 2552 H 232.993 0.635433 -0.318977 0
M  V30 2553 H 235.595 1.33341 -1.4297 0
M  V30 2554 H 234.299 3.25658 -2.49749 0
M  V30 2555 H 233.83 3.83198 -0.890096 0
M  V30 2556 H 235.845 4.95239 -0.308603 0
M  V30 2557 N 235.018 0.912232 1.28515 0
M  V30 2558 C 235.981 0.404223 2.25607 0
M  V30 2559 C 236.981 -0.468602 1.53821 0
M  V30 2560 O 238.171 -0.271873 1.72065 0
M  V30 2561 C 235.303 -0.420653 3.38295 0
M  V30 2562 H 236.496 1.26188 2.7206 0
M  V30 2563 H 234.049 0.691495 1.40171 0
M  V30 2564 H 234.784 -1.29777 2.97201 0
M  V30 2565 H 234.569 0.204935 3.91564 0
M  V30 2566 H 236.059 -0.766971 4.10496 0
M  V30 2567 N 236.496 -1.42363 0.676048 0
M  V30 2568 C 237.428 -2.29164 -0.0404605 0
M  V30 2569 C 238.441 -1.43747 -0.764245 0
M  V30 2570 O 239.63 -1.67453 -0.618195 0
M  V30 2571 C 236.73 -3.21196 -1.08103 0
M  V30 2572 C 235.903 -4.35273 -0.430812 0
M  V30 2573 C 234.962 -5.08017 -1.37133 0
M  V30 2574 O 233.988 -5.62494 -0.87116 0
M  V30 2575 N 235.19 -5.13647 -2.70456 0
M  V30 2576 H 237.955 -2.91298 0.704667 0
M  V30 2577 H 235.516 -1.53303 0.520559 0
M  V30 2578 H 237.508 -3.66728 -1.71152 0
M  V30 2579 H 236.078 -2.60505 -1.72788 0
M  V30 2580 H 235.298 -3.92372 0.379209 0
M  V30 2581 H 236.586 -5.08795 0.0221132 0
M  V30 2582 H 235.984 -4.708 -3.1363 0
M  V30 2583 H 234.541 -5.62821 -3.28749 0
M  V30 2584 N 237.974 -0.419461 -1.51915 0
M  V30 2585 C 238.884 0.407528 -2.31033 0
M  V30 2586 C 239.9 1.04413 -1.3919 0
M  V30 2587 O 241.076 1.0434 -1.72265 0
M  V30 2588 C 238.141 1.50365 -3.12396 0
M  V30 2589 C 237.202 0.889029 -4.19994 0
M  V30 2590 C 236.435 1.93291 -4.97468 0
M  V30 2591 O 236.658 3.15259 -4.75361 0
M  V30 2592 O 235.592 1.53339 -5.8204 0
M  V30 2593 H 239.418 -0.237865 -3.02767 0
M  V30 2594 H 237.003 -0.182413 -1.48282 0
M  V30 2595 H 238.885 2.13975 -3.63032 0
M  V30 2596 H 237.56 2.13345 -2.43445 0
M  V30 2597 H 236.467 0.215353 -3.7348 0
M  V30 2598 H 237.8 0.302991 -4.91267 0
M  V30 2599 N 239.452 1.56882 -0.150215 0
M  V30 2600 C 240.415 2.1573 0.774157 0
M  V30 2601 C 241.415 1.0999 1.17298 0
M  V30 2602 O 242.605 1.35613 1.09338 0
M  V30 2603 C 239.737 2.72302 2.05096 0
M  V30 2604 H 240.93 2.98752 0.262201 0
M  V30 2605 H 238.483 1.55985 0.099248 0
M  V30 2606 H 239.218 1.92956 2.6065 0
M  V30 2607 H 239.003 3.49665 1.77416 0
M  V30 2608 H 240.493 3.17632 2.71109 0
M  V30 2609 N 240.93 -0.123565 1.57115 0
M  V30 2610 C 242.16 -0.845233 1.88519 0
M  V30 2611 C 242.568 -1.74168 0.739064 0
M  V30 2612 O 241.911 -1.81244 -0.299355 0
M  V30 2613 C 241.973 -1.73452 3.14888 0
M  V30 2614 C 241.637 -1.01285 4.45635 0
M  V30 2615 C 242.634 -0.355774 5.18681 0
M  V30 2616 C 240.319 -0.99538 4.92339 0
M  V30 2617 C 242.313 0.309114 6.3665 0
M  V30 2618 C 240 -0.32669 6.10226 0
M  V30 2619 C 240.998 0.324406 6.82229 0
M  V30 2620 O 240.686 0.982437 7.97874 0
M  V30 2621 H 240.418 -0.248534 0.628655 0
M  V30 2622 H 242.972 -0.113907 2.05084 0
M  V30 2623 H 241.202 -2.50737 2.94394 0
M  V30 2624 H 242.891 -2.33021 3.32349 0
M  V30 2625 H 243.657 -0.360918 4.83655 0
M  V30 2626 H 239.536 -1.49159 4.36202 0
M  V30 2627 H 243.08 0.8179 6.92789 0
M  V30 2628 H 238.977 -0.319294 6.4471 0
M  V30 2629 H 239.745 0.886454 8.13686 0
M  V30 2630 N 242.408 -1.52605 -0.393616 0
M  V30 2631 C 243.34 -1.73303 -1.49995 0
M  V30 2632 C 244.353 -0.613473 -1.50799 0
M  V30 2633 O 245.542 -0.889049 -1.54784 0
M  V30 2634 C 242.642 -1.77245 -2.88855 0
M  V30 2635 C 241.815 -3.06483 -3.12069 0
M  V30 2636 C 240.874 -3.02033 -4.30886 0
M  V30 2637 O 239.9 -3.75907 -4.27414 0
M  V30 2638 N 241.102 -2.20897 -5.36828 0
M  V30 2639 H 243.867 -2.68756 -1.32629 0
M  V30 2640 H 241.428 -1.51036 -0.583083 0
M  V30 2641 H 243.42 -1.7178 -3.66434 0
M  V30 2642 H 241.99 -0.891993 -2.99603 0
M  V30 2643 H 241.21 -3.25474 -2.22396 0
M  V30 2644 H 242.498 -3.91947 -3.2443 0
M  V30 2645 H 241.896 -1.60336 -5.42502 0
M  V30 2646 H 240.453 -2.21275 -6.13091 0
M  V30 2647 N 243.887 0.651787 -1.4349 0
M  V30 2648 C 244.834 1.76462 -1.4876 0
M  V30 2649 C 245.804 1.62641 -0.337189 0
M  V30 2650 O 246.989 1.82864 -0.544544 0
M  V30 2651 C 244.129 3.14623 -1.41796 0
M  V30 2652 C 243.242 3.39568 -2.67053 0
M  V30 2653 C 242.377 4.67585 -2.52068 0
M  V30 2654 C 241.416 4.85639 -3.72587 0
M  V30 2655 N 240.553 6.04915 -3.56402 0
M  V30 2656 H 245.393 1.71293 -2.43849 0
M  V30 2657 H 242.93 0.835889 -1.21043 0
M  V30 2658 H 244.888 3.94496 -1.35753 0
M  V30 2659 H 243.518 3.18859 -0.50288 0
M  V30 2660 H 242.57 2.53783 -2.8337 0
M  V30 2661 H 243.882 3.48795 -3.56572 0
M  V30 2662 H 243.036 5.55586 -2.4374 0
M  V30 2663 H 241.775 4.60681 -1.60075 0
M  V30 2664 H 240.78 3.96073 -3.81321 0
M  V30 2665 H 242.005 4.94372 -4.65589 0
M  V30 2666 H 239.951 5.9914 -2.67146 0
M  V30 2667 H 239.868 6.15106 -4.39524 0
M  V30 2668 H 241.136 6.95533 -3.51929 0
M  V30 2669 N 245.365 1.30045 0.890287 0
M  V30 2670 C 246.328 1.15963 1.977 0
M  V30 2671 C 247.328 0.0923777 1.60534 0
M  V30 2672 O 248.518 0.340071 1.70848 0
M  V30 2673 C 245.65 0.775451 3.31963 0
M  V30 2674 H 246.843 2.12502 2.11619 0
M  V30 2675 H 244.396 1.13366 1.07601 0
M  V30 2676 H 245.131 -0.189671 3.23745 0
M  V30 2677 H 244.916 1.54668 3.60306 0
M  V30 2678 H 246.406 0.700251 4.11687 0
M  V30 2679 N 246.843 -1.10192 1.12674 0
M  V30 2680 C 248.071 -1.85983 0.906527 0
M  V30 2681 C 248.486 -1.80783 -0.544333 0
M  V30 2682 O 247.843 -1.19834 -1.37645 0
M  V30 2683 C 247.894 -3.34281 1.37618 0
M  V30 2684 O 247.615 -3.39401 2.77017 0
M  V30 2685 C 249.116 -4.26938 1.19325 0
M  V30 2686 H 246.336 -0.587716 0.323775 0
M  V30 2687 H 248.88 -1.39284 1.49734 0
M  V30 2688 H 247.035 -3.78436 0.828539 0
M  V30 2689 H 247.449 -4.31838 2.97684 0
M  V30 2690 H 248.923 -5.29181 1.57071 0
M  V30 2691 H 249.4 -4.38995 0.134097 0
M  V30 2692 H 250.006 -3.8859 1.72852 0
M  V30 2693 N 248.321 -0.919034 -1.28029 0
M  V30 2694 C 249.598 -0.473668 -1.89778 0
M  V30 2695 C 249.978 1.04783 -1.83259 0
M  V30 2696 O 249.326 1.8982 -1.27202 0
M  V30 2697 C 249.536 -1.00998 -3.34066 0
M  V30 2698 C 250.884 -1.06525 -4.1102 0
M  V30 2699 O 251.908 -0.958996 -3.43048 0
M  V30 2700 O 250.767 -1.22776 -5.3253 0
M  V30 2701 H 247.861 -0.15098 -0.813101 0
M  V30 2702 H 250.407 -1.01016 -1.36359 0
M  V30 2703 H 249.179 -2.05392 -3.33061 0
M  V30 2704 H 248.802 -0.454626 -3.94992 0
M  V30 2705 N 249.799 1.42003 -0.683588 0
M  V30 2706 C 251.048 2.00638 -0.206681 0
M  V30 2707 C 251.361 1.5472 1.19671 0
M  V30 2708 O 252.567 2.05833 1.77045 0
M  V30 2709 C 251.023 3.58487 -0.318632 0
M  V30 2710 C 250.631 4.1339 -1.72663 0
M  V30 2711 C 252.375 4.24384 0.0991141 0
M  V30 2712 C 250.282 5.63633 -1.79087 0
M  V30 2713 H 249.212 0.750408 -0.0735107 0
M  V30 2714 H 251.863 1.62624 -0.850048 0
M  V30 2715 H 250.245 3.94047 0.392781 0
M  V30 2716 H 251.419 3.89273 -2.46583 0
M  V30 2717 H 249.734 3.59976 -2.09299 0
M  V30 2718 H 252.331 5.34652 0.0713833 0
M  V30 2719 H 252.674 4.00505 1.13586 0
M  V30 2720 H 253.207 3.93816 -0.561599 0
M  V30 2721 H 249.946 5.92323 -2.80774 0
M  V30 2722 H 249.466 5.89714 -1.09535 0
M  V30 2723 H 251.145 6.28201 -1.5483 0
M  V30 2724 N 251.277 0.427512 1.51691 0
M  V30 2725 C 252.24 -0.377132 2.26076 0
M  V30 2726 C 253.24 -0.958089 1.29141 0
M  V30 2727 O 254.43 -0.83408 1.52934 0
M  V30 2728 C 251.562 -1.53262 3.04506 0
M  V30 2729 H 252.755 0.27464 2.9864 0
M  V30 2730 H 250.308 0.180445 1.55255 0
M  V30 2731 H 251.043 -2.22072 2.36335 0
M  V30 2732 H 250.828 -1.12232 3.75694 0
M  V30 2733 H 252.318 -2.10135 3.60878 0
M  V30 2734 N 252.755 -1.56801 0.158532 0
M  V30 2735 C 253.665 -2.20916 -0.789518 0
M  V30 2736 C 254.681 -1.1969 -1.26294 0
M  V30 2737 O 255.857 -1.52308 -1.31773 0
M  V30 2738 C 252.922 -2.82727 -2.00665 0
M  V30 2739 C 251.983 -3.99114 -1.58134 0
M  V30 2740 C 251.216 -4.57968 -2.74045 0
M  V30 2741 O 251.439 -4.15704 -3.90572 0
M  V30 2742 O 250.373 -5.48047 -2.48855 0
M  V30 2743 H 254.199 -3.02464 -0.273681 0
M  V30 2744 H 251.784 -1.4924 -0.0690548 0
M  V30 2745 H 253.666 -3.21968 -2.71872 0
M  V30 2746 H 252.341 -2.04184 -2.51179 0
M  V30 2747 H 251.248 -3.64567 -0.839155 0
M  V30 2748 H 252.581 -4.79212 -1.12325 0
M  V30 2749 N 254.233 0.115231 -1.57178 0
M  V30 2750 C 255.181 1.16014 -2.01602 0
M  V30 2751 C 256.175 1.42653 -0.913587 0
M  V30 2752 O 257.381 1.42571 -1.09879 0
M  V30 2753 H 253.756 0.391252 -0.642204 0
M  V30 2754 H 255.727 0.758998 -2.88586 0
M  V30 2755 C 254.476 2.47767 -2.4394 0
M  V30 2756 H 253.799 2.28108 -3.28339 0
M  V30 2757 H 255.239 3.19432 -2.78818 0
M  V30 2758 C 253.698 3.10617 -1.30455 0
M  V30 2759 O 254.228 3.96846 -0.622585 0
M  V30 2760 N 252.434 2.70553 -1.06064 0
M  V30 2761 H 251.981 2.00527 -1.61699 0
M  V30 2762 H 251.939 3.12934 -0.303284 0
M  V30 2763 N 255.711 1.52812 0.385517 0
M  V30 2764 C 256.621 1.80766 1.49535 0
M  V30 2765 C 257.637 0.694651 1.59532 0
M  V30 2766 O 258.813 0.982611 1.75803 0
M  V30 2767 C 255.878 1.97381 2.85029 0
M  V30 2768 C 254.939 3.21295 2.84724 0
M  V30 2769 C 254.172 3.37108 4.13756 0
M  V30 2770 O 254.395 2.5765 5.08893 0
M  V30 2771 O 253.329 4.30378 4.20783 0
M  V30 2772 H 257.155 2.75015 1.28842 0
M  V30 2773 H 254.74 1.37946 0.573697 0
M  V30 2774 H 256.622 2.09996 3.65349 0
M  V30 2775 H 255.297 1.06322 3.05741 0
M  V30 2776 H 254.204 3.1412 2.03174 0
M  V30 2777 H 255.537 4.12212 2.68965 0
M  V30 2778 N 257.189 -0.644168 1.43834 0
M  V30 2779 C 258.119 -1.76814 1.52509 0
M  V30 2780 C 259.1 -1.65823 0.379052 0
M  V30 2781 O 260.285 -1.84781 0.597466 0
M  V30 2782 C 257.415 -3.15288 1.4564 0
M  V30 2783 C 256.369 -3.41053 2.58586 0
M  V30 2784 C 255.695 -4.79421 2.36769 0
M  V30 2785 C 256.995 -3.34902 4.00797 0
M  V30 2786 H 258.689 -1.69812 2.46586 0
M  V30 2787 H 256.235 -0.815542 1.1868 0
M  V30 2788 H 258.188 -3.93681 1.50311 0
M  V30 2789 H 256.912 -3.23043 0.480725 0
M  V30 2790 H 255.571 -2.65035 2.53282 0
M  V30 2791 H 255.219 -4.83863 1.37424 0
M  V30 2792 H 254.919 -4.9762 3.12487 0
M  V30 2793 H 256.443 -5.6006 2.43238 0
M  V30 2794 H 257.857 -4.03218 4.07539 0
M  V30 2795 H 256.254 -3.64637 4.76613 0
M  V30 2796 H 257.324 -2.32928 4.25291 0
M  V30 2797 N 258.668 -1.30515 -0.883378 0
M  V30 2798 C 260.079 -1.17509 -1.45081 0
M  V30 2799 C 260.43 0.223605 -1.94922 0
M  V30 2800 O 259.555 1.12041 -1.85137 0
M  V30 2801 C 260.15 -2.12715 -2.63701 0
M  V30 2802 C 258.709 -2.03682 -3.16529 0
M  V30 2803 C 257.856 -2.02706 -1.89224 0
M  V30 2804 H 260.807 -1.42762 -0.693165 0
M  V30 2805 H 260.828 -1.70891 -3.39965 0
M  V30 2806 H 260.34 -3.14505 -2.27395 0
M  V30 2807 H 258.441 -1.05039 -3.57488 0
M  V30 2808 H 258.554 -2.92146 -3.7972 0
M  V30 2809 H 256.918 -1.4753 -2.07622 0
M  V30 2810 H 257.701 -3.06229 -1.55174 0
M  V30 2811 N 260.146 1.09593 -1.13257 0
M  V30 2812 C 261.371 1.8604 -0.916732 0
M  V30 2813 C 261.796 1.80504 0.529146 0
M  V30 2814 O 261.154 1.18127 1.37534 0
M  V30 2815 C 261.202 3.32017 -1.40703 0
M  V30 2816 O 260.306 4.08141 -0.591153 0
M  V30 2817 H 259.647 0.576943 -0.328683 0
M  V30 2818 H 262.177 1.38405 -1.50682 0
M  V30 2819 H 262.187 3.82865 -1.4099 0
M  V30 2820 H 260.862 3.35361 -2.45979 0
M  V30 2821 H 259.439 3.67084 -0.656005 0
M  V30 2822 N 261.624 0.925811 1.2754 0
M  V30 2823 C 262.852 0.581509 1.9856 0
M  V30 2824 C 263.267 -0.840041 1.69082 0
M  V30 2825 O 262.624 -1.55805 0.950312 0
M  V30 2826 C 262.675 0.795589 3.52637 0
M  V30 2827 O 262.396 2.16121 3.81082 0
M  V30 2828 C 263.897 0.459744 4.4091 0
M  V30 2829 H 261.117 0.220538 0.633722 0
M  V30 2830 H 263.661 1.24232 1.6244 0
M  V30 2831 H 261.816 0.18161 3.86974 0
M  V30 2832 H 262.23 2.2098 4.75676 0
M  V30 2833 H 263.704 0.660244 5.48037 0
M  V30 2834 H 264.181 -0.604625 4.35018 0
M  V30 2835 H 264.787 1.05178 4.12089 0
M  V30 2836 N 263.102 -1.41638 0.69111 0
M  V30 2837 C 264.052 -2.28 -0.000107832 0
M  V30 2838 C 265.036 -1.41964 -0.757304 0
M  V30 2839 O 266.228 -1.65274 -0.633532 0
M  V30 2840 C 263.357 -3.30209 -0.938983 0
M  V30 2841 C 262.443 -4.23725 -0.17827 0
M  V30 2842 N 262.834 -4.99017 0.825563 0
M  V30 2843 C 261.132 -4.44071 -0.414392 0
M  V30 2844 C 261.833 -5.67431 1.28052 0
M  V30 2845 N 260.809 -5.40197 0.607304 0
M  V30 2846 H 264.611 -2.83644 0.769617 0
M  V30 2847 H 262.125 -1.53797 0.521562 0
M  V30 2848 H 264.122 -3.90898 -1.44929 0
M  V30 2849 H 262.782 -2.76126 -1.70836 0
M  V30 2850 H 263.793 -5.03671 1.20566 0
M  V30 2851 H 260.47 -4.01004 -1.162 0
M  V30 2852 H 261.86 -6.37801 2.11327 0
M  V30 2853 N 264.58 -0.43555 -1.51462 0
M  V30 2854 C 265.991 0.0279871 -1.86679 0
M  V30 2855 C 266.342 1.42104 -1.35281 0
M  V30 2856 O 265.467 2.04667 -0.702878 0
M  V30 2857 C 266.062 0.0575626 -3.38751 0
M  V30 2858 C 264.621 0.465507 -3.7351 0
M  V30 2859 C 263.768 -0.342996 -2.75171 0
M  V30 2860 H 266.719 -0.651473 -1.44712 0
M  V30 2861 H 266.74 0.867421 -3.70481 0
M  V30 2862 H 266.252 -0.956448 -3.7613 0
M  V30 2863 H 264.353 1.48519 -3.41721 0
M  V30 2864 H 264.466 0.191546 -4.78717 0
M  V30 2865 H 262.83 0.198442 -2.53926 0
M  V30 2866 H 263.613 -1.35585 -3.15391 0
M  V30 2867 N 266.058 1.56714 -0.166846 0
M  V30 2868 C 267.307 1.95922 0.479318 0
M  V30 2869 C 267.62 1.05529 1.6469 0
M  V30 2870 O 268.826 1.34399 2.35901 0
M  V30 2871 C 267.282 3.48359 0.90412 0
M  V30 2872 C 266.89 4.47369 -0.237621 0
M  V30 2873 C 268.634 3.96394 1.51896 0
M  V30 2874 C 266.541 5.91039 0.206561 0
M  V30 2875 H 265.471 0.731495 0.18284 0
M  V30 2876 H 268.122 1.81728 -0.254363 0
M  V30 2877 H 266.504 3.57955 1.69365 0
M  V30 2878 H 267.678 4.49485 -1.01489 0
M  V30 2879 H 265.993 4.09366 -0.762128 0
M  V30 2880 H 268.59 5.01186 1.86325 0
M  V30 2881 H 268.933 3.39075 2.41524 0
M  V30 2882 H 269.466 3.89796 0.79395 0
M  V30 2883 H 266.205 6.52221 -0.654834 0
M  V30 2884 H 265.725 5.9224 0.949282 0
M  V30 2885 H 267.404 6.43707 0.651939 0
M  V30 2886 N 267.536 -0.106894 1.57237 0
M  V30 2887 C 268.952 -0.46078 1.52804 0
M  V30 2888 C 269.152 -1.81184 0.881746 0
M  V30 2889 O 268.208 -2.48102 0.469224 0
M  V30 2890 C 269.521 -0.434127 2.9755 0
M  V30 2891 C 271.069 -0.516821 3.08704 0
M  V30 2892 C 271.544 -0.520436 4.55033 0
M  V30 2893 N 273.035 -0.58153 4.59535 0
M  V30 2894 C 273.77 -0.605973 5.70189 0
M  V30 2895 N 273.266 -0.587331 6.90306 0
M  V30 2896 N 275.059 -0.649895 5.5833 0
M  V30 2897 H 267.21 0.778203 1.9763 0
M  V30 2898 H 269.473 0.288403 0.903066 0
M  V30 2899 H 269.179 0.491197 3.48253 0
M  V30 2900 H 269.053 -1.25748 3.55622 0
M  V30 2901 H 271.44 -1.43256 2.57995 0
M  V30 2902 H 271.521 0.334449 2.53604 0
M  V30 2903 H 271.165 0.391313 5.0639 0
M  V30 2904 H 271.095 -1.38876 5.07958 0
M  V30 2905 H 273.586 -0.60161 3.73081 0
M  V30 2906 H 273.899 -0.60894 7.70397 0
M  V30 2907 H 272.244 -0.554564 6.92784 0
M  V30 2908 H 275.435 -0.661907 4.63397 0
M  V30 2909 H 275.608 -0.665476 6.44574 0
M  V30 2910 N 269.014 -1.53014 -0.377408 0
M  V30 2911 C 269.944 -1.81589 -1.46791 0
M  V30 2912 C 270.925 -0.668622 -1.56408 0
M  V30 2913 O 272.11 -0.917337 -1.71168 0
M  V30 2914 C 269.24 -1.99519 -2.8427 0
M  V30 2915 C 268.194 -3.15249 -2.89486 0
M  V30 2916 C 267.52 -3.18451 -4.29527 0
M  V30 2917 C 268.82 -4.54084 -2.58079 0
M  V30 2918 H 270.514 -2.7291 -1.23127 0
M  V30 2919 H 268.06 -1.31319 -0.590883 0
M  V30 2920 H 270.013 -2.18092 -3.60575 0
M  V30 2921 H 268.737 -1.04897 -3.09296 0
M  V30 2922 H 267.396 -2.96477 -2.15631 0
M  V30 2923 H 267.044 -2.2149 -4.5161 0
M  V30 2924 H 266.744 -3.962 -4.33934 0
M  V30 2925 H 268.268 -3.39193 -5.07721 0
M  V30 2926 H 269.682 -4.72899 -3.24098 0
M  V30 2927 H 268.079 -5.33987 -2.7382 0
M  V30 2928 H 269.149 -4.60006 -1.53372 0
M  V30 2929 N 270.492 0.636531 -1.44174 0
M  V30 2930 C 271.74 1.39343 -1.46383 0
M  V30 2931 C 272.061 1.94766 -0.0955715 0
M  V30 2932 O 271.331 1.75452 0.871395 0
M  V30 2933 H 269.911 0.517199 -0.538994 0
M  V30 2934 H 272.573 0.74957 -1.7991 0
M  V30 2935 H 271.669 2.22746 -2.18611 0
M  V30 2936 N 271.97 1.30982 0.876444 0
M  V30 2937 C 272.9 1.20668 1.99903 0
M  V30 2938 C 273.881 0.095354 1.69833 0
M  V30 2939 O 275.066 0.27885 1.92188 0
M  V30 2940 C 272.196 0.90655 3.3526 0
M  V30 2941 C 271.15 1.97675 3.79617 0
M  V30 2942 C 270.476 1.52943 5.1236 0
M  V30 2943 C 271.776 3.389 3.97422 0
M  V30 2944 H 273.47 2.14586 2.0879 0
M  V30 2945 H 271.016 1.03308 1.00317 0
M  V30 2946 H 272.969 0.821025 4.13324 0
M  V30 2947 H 271.693 -0.0682969 3.26529 0
M  V30 2948 H 270.352 2.05205 3.03787 0
M  V30 2949 H 270 0.54262 5.00065 0
M  V30 2950 H 269.7 2.24532 5.43009 0
M  V30 2951 H 271.224 1.45786 5.92941 0
M  V30 2952 H 272.638 3.34081 4.659 0
M  V30 2953 H 271.035 4.0865 4.3946 0
M  V30 2954 H 272.105 3.80163 3.01006 0
M  V30 2955 N 273.449 -1.08991 1.13837 0
M  V30 2956 C 274.412 -2.13925 0.822715 0
M  V30 2957 C 275.412 -1.599 -0.1699 0
M  V30 2958 O 276.602 -1.74104 0.0577251 0
M  V30 2959 C 273.734 -3.40155 0.225318 0
M  V30 2960 H 274.927 -2.43358 1.75262 0
M  V30 2961 H 272.48 -1.24603 0.943594 0
M  V30 2962 H 273.215 -3.16352 -0.713594 0
M  V30 2963 H 273 -3.80661 0.940193 0
M  V30 2964 H 274.49 -4.17594 0.0214784 0
M  V30 2965 N 274.927 -0.932562 -1.27047 0
M  V30 2966 C 275.857 -0.452902 -2.29066 0
M  V30 2967 C 276.838 0.489338 -1.62909 0
M  V30 2968 O 278.023 0.393046 -1.90181 0
M  V30 2969 C 275.153 0.290698 -3.46081 0
M  V30 2970 C 274.107 -0.564168 -4.24265 0
M  V30 2971 C 273.433 0.308886 -5.33807 0
M  V30 2972 C 274.733 -1.83112 -4.89149 0
M  V30 2973 H 276.427 -1.30552 -2.69437 0
M  V30 2974 H 273.973 -0.629201 -1.29526 0
M  V30 2975 H 275.926 0.637233 -4.16554 0
M  V30 2976 H 274.65 1.17738 -3.0464 0
M  V30 2977 H 273.309 -0.893477 -3.55545 0
M  V30 2978 H 272.957 1.19467 -4.88607 0
M  V30 2979 H 272.657 -0.259633 -5.87026 0
M  V30 2980 H 274.181 0.650884 -6.07121 0
M  V30 2981 H 275.595 -1.55236 -5.51883 0
M  V30 2982 H 273.992 -2.34353 -5.52448 0
M  V30 2983 H 275.062 -2.54772 -4.12576 0
M  V30 2984 N 276.405 1.4127 -0.698611 0
M  V30 2985 C 277.353 2.32588 -0.023855 0
M  V30 2986 C 278.347 1.51128 0.765292 0
M  V30 2987 O 279.553 1.67043 0.670571 0
M  V30 2988 H 275.928 0.751918 0.0110871 0
M  V30 2989 H 277.899 2.87167 -0.811031 0
M  V30 2990 C 276.648 3.35947 0.896369 0
M  V30 2991 H 275.971 3.98684 0.298548 0
M  V30 2992 H 277.411 4.02376 1.33676 0
M  V30 2993 C 275.87 2.70076 2.01396 0
M  V30 2994 O 276.4 2.55093 3.10307 0
M  V30 2995 N 274.606 2.28724 1.79259 0
M  V30 2996 H 274.153 2.4111 0.906841 0
M  V30 2997 H 274.111 1.84986 2.54219 0
M  V30 2998 N 277.883 0.443576 1.51229 0
M  V30 2999 C 279.113 -0.119117 2.06256 0
M  V30 3000 C 279.521 -1.36471 1.31043 0
M  V30 3001 O 278.864 -1.80034 0.365151 0
M  V30 3002 C 278.926 -0.500546 3.55998 0
M  V30 3003 C 278.59 0.639125 4.52509 0
M  V30 3004 C 279.587 1.51311 4.97394 0
M  V30 3005 C 277.272 0.821632 4.95535 0
M  V30 3006 C 279.266 2.55425 5.83984 0
M  V30 3007 C 276.953 1.86603 5.81913 0
M  V30 3008 C 277.951 2.73072 6.26036 0
M  V30 3009 O 277.639 3.75718 7.10698 0
M  V30 3010 H 277.371 -0.00857665 0.675946 0
M  V30 3011 H 279.925 0.623288 1.95715 0
M  V30 3012 H 278.155 -1.29575 3.64345 0
M  V30 3013 H 279.844 -0.995116 3.93513 0
M  V30 3014 H 280.61 1.38367 4.64844 0
M  V30 3015 H 276.489 0.158149 4.60729 0
M  V30 3016 H 280.033 3.22949 6.18344 0
M  V30 3017 H 275.93 1.99564 6.13876 0
M  V30 3018 H 276.698 3.72374 7.2889 0
M  V30 3019 N 279.361 -1.56624 0.175154 0
M  V30 3020 C 280.586 -2.01813 -0.478137 0
M  V30 3021 C 281.011 -1.05457 -1.55757 0
M  V30 3022 O 280.369 -0.0347439 -1.81267 0
M  V30 3023 C 280.417 -3.45581 -1.02987 0
M  V30 3024 O 279.521 -3.52305 -2.14371 0
M  V30 3025 H 278.862 -0.65413 -0.114059 0
M  V30 3026 H 281.392 -2.02673 0.280173 0
M  V30 3027 H 281.402 -3.84965 -1.35151 0
M  V30 3028 H 280.077 -4.1521 -0.239556 0
M  V30 3029 H 278.654 -3.24783 -1.83222 0
M  V30 3030 N 280.839 0.0985539 -1.57292 0
M  V30 3031 C 282.085 0.803867 -1.86188 0
M  V30 3032 C 282.418 1.78549 -0.763794 0
M  V30 3033 O 281.693 1.93153 0.22855 0
M  V30 3034 C 281.976 1.53568 -3.25713 0
M  V30 3035 C 281.829 0.572277 -4.46145 0
M  V30 3036 C 283.148 2.48708 -3.63087 0
M  V30 3037 H 280.267 0.290781 -0.677211 0
M  V30 3038 H 282.909 0.0675783 -1.8988 0
M  V30 3039 H 281.059 2.16332 -3.22696 0
M  V30 3040 H 282.731 -0.0480894 -4.61275 0
M  V30 3041 H 280.974 -0.114618 -4.33649 0
M  V30 3042 H 281.645 1.12139 -5.40489 0
M  V30 3043 H 284.121 1.96039 -3.67026 0
M  V30 3044 H 282.997 2.96932 -4.61652 0
M  V30 3045 H 283.258 3.32309 -2.91588 0
M  V30 3046 N 282.317 1.53212 0.369288 0
M  V30 3047 C 283.564 1.69215 1.11232 0
M  V30 3048 C 283.892 0.442048 1.8941 0
M  V30 3049 O 283.147 -0.575944 1.87033 0
M  V30 3050 C 283.446 2.89101 2.10132 0
M  V30 3051 C 283.112 4.25758 1.48463 0
M  V30 3052 C 281.774 4.6292 1.31372 0
M  V30 3053 C 284.126 5.10757 1.03811 0
M  V30 3054 C 281.454 5.82722 0.68207 0
M  V30 3055 C 283.806 6.31201 0.420487 0
M  V30 3056 C 282.47 6.67079 0.237038 0
M  V30 3057 H 281.74 0.619201 0.407027 0
M  V30 3058 H 284.387 1.87391 0.394552 0
M  V30 3059 H 282.692 2.65421 2.88199 0
M  V30 3060 H 284.389 2.98676 2.6757 0
M  V30 3061 H 280.979 3.96494 1.62758 0
M  V30 3062 H 285.163 4.82599 1.1581 0
M  V30 3063 H 280.419 6.09113 0.528316 0
M  V30 3064 H 284.593 6.96368 0.0662874 0
M  V30 3065 H 282.22 7.59774 -0.254477 0
M  V30 3066 N 283.795 -0.628877 1.44509 0
M  V30 3067 C 285.042 -1.38839 1.47411 0
M  V30 3068 C 285.37 -1.94202 0.10757 0
M  V30 3069 O 284.625 -1.74243 -0.890947 0
M  V30 3070 C 284.924 -2.56995 2.48371 0
M  V30 3071 C 284.59 -2.19908 3.93639 0
M  V30 3072 C 283.252 -2.09506 4.33198 0
M  V30 3073 C 285.604 -1.9064 4.85083 0
M  V30 3074 C 282.932 -1.68028 5.62124 0
M  V30 3075 C 285.284 -1.50655 6.14399 0
M  V30 3076 C 283.948 -1.38796 6.5291 0
M  V30 3077 H 283.218 -0.508048 0.539414 0
M  V30 3078 H 285.865 -0.712913 1.77735 0
M  V30 3079 H 284.17 -3.29786 2.11538 0
M  V30 3080 H 285.867 -3.15223 2.47861 0
M  V30 3081 H 282.457 -2.28922 3.62343 0
M  V30 3082 H 286.641 -1.97585 4.55273 0
M  V30 3083 H 281.897 -1.57452 5.90778 0
M  V30 3084 H 286.071 -1.27048 6.84713 0
M  V30 3085 H 283.698 -1.06429 7.52713 0
M  V30 3086 N 285.273 -1.31445 -0.869486 0
M  V30 3087 C 286.503 -1.23942 -1.65294 0
M  V30 3088 C 286.911 0.197561 -1.88166 0
M  V30 3089 O 286.254 1.14019 -1.44033 0
M  V30 3090 C 286.316 -1.91385 -3.04322 0
M  V30 3091 C 285.98 -3.40726 -3.04557 0
M  V30 3092 C 286.977 -4.36464 -2.82481 0
M  V30 3093 C 284.662 -3.82425 -3.25663 0
M  V30 3094 C 286.656 -5.71876 -2.8149 0
M  V30 3095 C 284.343 -5.1795 -3.243 0
M  V30 3096 C 285.341 -6.12486 -3.02241 0
M  V30 3097 O 285.029 -7.45534 -3.00724 0
M  V30 3098 H 284.761 -0.429459 -0.522054 0
M  V30 3099 H 287.315 -1.73873 -1.0935 0
M  V30 3100 H 285.545 -1.36004 -3.61994 0
M  V30 3101 H 287.234 -1.77791 -3.64891 0
M  V30 3102 H 288 -4.05576 -2.65956 0
M  V30 3103 H 283.879 -3.09274 -3.41863 0
M  V30 3104 H 287.423 -6.45638 -2.64191 0
M  V30 3105 H 283.32 -5.48473 -3.40365 0
M  V30 3106 H 284.088 -7.54713 -3.16782 0
M  V30 3107 N 286.751 1.08385 -1.14413 0
M  V30 3108 C 287.661 2.18856 -0.844951 0
M  V30 3109 C 288.677 1.73121 0.174668 0
M  V30 3110 O 289.853 2.014 0.00312857 0
M  V30 3111 C 286.918 3.45155 -0.32696 0
M  V30 3112 C 285.979 4.05513 -1.40916 0
M  V30 3113 C 285.212 5.25784 -0.915793 0
M  V30 3114 O 285.435 5.69884 0.242651 0
M  V30 3115 O 284.369 5.77545 -1.69487 0
M  V30 3116 H 288.195 2.46919 -1.76818 0
M  V30 3117 H 285.78 1.17524 -0.922411 0
M  V30 3118 H 287.662 4.21377 -0.0440211 0
M  V30 3119 H 286.337 3.18668 0.568539 0
M  V30 3120 H 285.244 3.30879 -1.74556 0
M  V30 3121 H 286.577 4.3625 -2.27919 0
M  V30 3122 N 288.23 0.939286 1.26551 0
M  V30 3123 C 289.479 0.581601 1.93133 0
M  V30 3124 C 289.792 -0.883224 1.74524 0
M  V30 3125 O 290.998 -1.3502 2.35546 0
M  V30 3126 C 289.454 0.989425 3.46032 0
M  V30 3127 C 289.062 2.47573 3.73379 0
M  V30 3128 C 290.806 0.703544 4.18629 0
M  V30 3129 C 288.713 2.82235 5.19709 0
M  V30 3130 H 287.643 0.213803 0.723052 0
M  V30 3131 H 290.294 1.14167 1.4366 0
M  V30 3132 H 288.676 0.357902 3.94379 0
M  V30 3133 H 289.85 3.15614 3.35744 0
M  V30 3134 H 288.165 2.73471 3.1401 0
M  V30 3135 H 290.762 0.938869 5.26393 0
M  V30 3136 H 291.105 -0.359639 4.14744 0
M  V30 3137 H 291.638 1.2947 3.76141 0
M  V30 3138 H 288.377 3.87509 5.28694 0
M  V30 3139 H 287.897 2.18854 5.58447 0
M  V30 3140 H 289.576 2.70599 5.87695 0
M  V30 3141 N 289.708 -1.40897 0.706093 0
M  V30 3142 C 290.638 -2.33418 0.0620085 0
M  V30 3143 C 291.619 -1.52385 -0.755827 0
M  V30 3144 O 292.804 -1.80886 -0.706674 0
M  V30 3145 C 289.934 -3.36293 -0.867445 0
M  V30 3146 C 288.888 -4.27716 -0.155932 0
M  V30 3147 C 288.214 -5.2105 -1.20046 0
M  V30 3148 C 289.514 -5.12944 0.984149 0
M  V30 3149 H 291.208 -2.87527 0.83477 0
M  V30 3150 H 288.754 -1.38249 0.402875 0
M  V30 3151 H 290.707 -3.99949 -1.32735 0
M  V30 3152 H 289.431 -2.80556 -1.67199 0
M  V30 3153 H 288.09 -3.65498 0.284047 0
M  V30 3154 H 287.738 -4.61624 -1.99781 0
M  V30 3155 H 287.438 -5.83056 -0.729328 0
M  V30 3156 H 288.962 -5.87584 -1.66066 0
M  V30 3157 H 290.376 -5.70109 0.604048 0
M  V30 3158 H 288.773 -5.83945 1.38304 0
M  V30 3159 H 289.843 -4.49485 1.81911 0
M  V30 3160 N 291.186 -0.45159 -1.50991 0
M  V30 3161 C 292.134 0.366864 -2.29689 0
M  V30 3162 C 293.128 1.00809 -1.36139 0
M  V30 3163 O 294.334 0.941427 -1.53418 0
M  V30 3164 H 290.709 0.137133 -0.739391 0
M  V30 3165 H 292.68 -0.317538 -2.96706 0
M  V30 3166 C 291.429 1.44751 -3.16137 0
M  V30 3167 H 290.752 0.963473 -3.88017 0
M  V30 3168 H 292.192 1.99315 -3.74232 0
M  V30 3169 C 290.651 2.43869 -2.32442 0
M  V30 3170 O 291.181 3.4872 -1.99392 0
M  V30 3171 N 289.387 2.15105 -1.95392 0
M  V30 3172 H 288.934 1.29866 -2.22469 0
M  V30 3173 H 288.892 2.81661 -1.39693 0
M  V30 3174 N 292.664 1.56529 -0.183458 0
M  V30 3175 C 293.596 2.15747 0.773697 0
M  V30 3176 C 294.609 1.1162 1.1851 0
M  V30 3177 O 295.798 1.3876 1.12285 0
M  V30 3178 C 292.898 2.6952 2.05456 0
M  V30 3179 C 292.071 3.98429 1.8048 0
M  V30 3180 C 291.13 4.37145 2.92901 0
M  V30 3181 O 290.156 5.04791 2.6301 0
M  V30 3182 N 291.358 3.99695 4.2098 0
M  V30 3183 H 294.123 2.98505 0.26736 0
M  V30 3184 H 291.684 1.619 -0.0010878 0
M  V30 3185 H 293.676 2.92412 2.79781 0
M  V30 3186 H 292.246 1.91282 2.47245 0
M  V30 3187 H 291.466 3.8379 0.899947 0
M  V30 3188 H 292.754 4.82597 1.61175 0
M  V30 3189 H 292.152 3.4526 4.48121 0
M  V30 3190 H 290.709 4.27562 4.9197 0
M  V30 3191 N 294.142 -0.090211 1.57342 0
M  V30 3192 C 295.553 -0.644173 1.75235 0
M  V30 3193 C 295.904 -1.78865 0.806335 0
M  V30 3194 O 295.029 -2.16395 -0.0140128 0
M  V30 3195 C 295.624 -1.17532 3.1776 0
M  V30 3196 C 294.183 -1.67531 3.37061 0
M  V30 3197 C 293.33 -0.58693 2.71017 0
M  V30 3198 H 296.281 0.135884 1.58117 0
M  V30 3199 H 296.302 -2.04455 3.20902 0
M  V30 3200 H 295.814 -0.342138 3.86589 0
M  V30 3201 H 293.915 -2.53234 2.73319 0
M  V30 3202 H 294.028 -1.76493 4.45406 0
M  V30 3203 H 292.392 -1.02756 2.33052 0
M  V30 3204 H 293.175 0.235758 3.4249 0
M  V30 3205 N 295.62 -1.53406 -0.361157 0
M  V30 3206 C 296.57 -1.76536 -1.44287 0
M  V30 3207 C 297.554 -0.620019 -1.48474 0
M  V30 3208 O 298.746 -0.878834 -1.53641 0
M  V30 3209 C 295.875 -1.96266 -2.81664 0
M  V30 3210 C 294.961 -3.16815 -2.81938 0
M  V30 3211 N 295.352 -4.38637 -2.51855 0
M  V30 3212 C 293.65 -3.17627 -3.13096 0
M  V30 3213 C 294.351 -5.20401 -2.59919 0
M  V30 3214 N 293.327 -4.56712 -2.94814 0
M  V30 3215 H 297.129 -2.68331 -1.19899 0
M  V30 3216 H 294.643 -1.52091 -0.56938 0
M  V30 3217 H 296.64 -2.10966 -3.59582 0
M  V30 3218 H 295.3 -1.05702 -3.07013 0
M  V30 3219 H 296.311 -4.66293 -2.25369 0
M  V30 3220 H 292.988 -2.36971 -3.43731 0
M  V30 3221 H 294.378 -6.27586 -2.39969 0
M  V30 3222 N 297.098 0.621204 -1.44841 0
M  V30 3223 C 298.03 1.74615 -1.48466 0
M  V30 3224 C 299.043 1.58377 -0.37691 0
M  V30 3225 O 300.232 1.66508 -0.643215 0
M  V30 3226 C 297.332 3.12459 -1.31236 0
M  V30 3227 C 296.505 3.55064 -2.55438 0
M  V30 3228 C 295.564 4.71821 -2.32963 0
M  V30 3229 O 294.59 4.79628 -3.06505 0
M  V30 3230 N 295.792 5.64186 -1.36654 0
M  V30 3231 H 298.557 1.71973 -2.45449 0
M  V30 3232 H 296.118 0.806077 -1.40407 0
M  V30 3233 H 298.11 3.88302 -1.14032 0
M  V30 3234 H 296.68 3.09686 -0.4258 0
M  V30 3235 H 295.9 2.69324 -2.87851 0
M  V30 3236 H 297.188 3.80284 -3.38026 0
M  V30 3237 H 296.586 5.6058 -0.759344 0
M  V30 3238 H 295.143 6.39618 -1.25425 0
M  V30 3239 N 298.576 1.31904 0.862503 0
M  V30 3240 C 299.539 1.20131 1.95195 0
M  V30 3241 C 300.539 0.126409 1.60302 0
M  V30 3242 O 301.729 0.376234 1.70089 0
M  V30 3243 C 298.861 0.845691 3.30244 0
M  V30 3244 H 300.054 2.16943 2.07064 0
M  V30 3245 H 297.607 1.15622 1.05172 0
M  V30 3246 H 298.342 -0.120957 3.24074 0
M  V30 3247 H 298.127 1.62276 3.56944 0
M  V30 3248 H 299.617 0.787418 4.10109 0
M  V30 3249 N 300.054 -1.07777 1.14986 0
M  V30 3250 C 301.294 -1.81888 0.932527 0
M  V30 3251 C 301.658 -1.84509 -0.531064 0
M  V30 3252 O 302.859 -2.54448 -0.866577 0
M  V30 3253 C 301.13 -3.23244 1.52473 0
M  V30 3254 S 302.689 -4.14154 1.44989 0
M  V30 3255 H 299.507 -0.626752 0.335712 0
M  V30 3256 H 302.109 -1.29503 1.46455 0
M  V30 3257 H 300.813 -3.18922 2.58296 0
M  V30 3258 H 300.344 -3.80704 0.991381 0
M  V30 3259 H 302.359 -4.94247 0.439799 0
M  V30 3260 N 301.532 -0.945985 -1.26051 0
M  V30 3261 C 302.442 -0.465633 -2.29933 0
M  V30 3262 C 303.458 0.462761 -1.67733 0
M  V30 3263 O 304.634 0.341118 -1.9849 0
M  V30 3264 C 301.699 0.256994 -3.45746 0
M  V30 3265 C 300.76 -0.708549 -4.23412 0
M  V30 3266 C 299.993 -0.0203135 -5.33696 0
M  V30 3267 O 300.216 1.19571 -5.57726 0
M  V30 3268 O 299.15 -0.701459 -5.97799 0
M  V30 3269 H 302.976 -1.32866 -2.73094 0
M  V30 3270 H 300.561 -0.712071 -1.31339 0
M  V30 3271 H 302.443 0.663852 -4.16138 0
M  V30 3272 H 301.118 1.09533 -3.04605 0
M  V30 3273 H 300.025 -1.16545 -3.55483 0
M  V30 3274 H 301.358 -1.51465 -4.68315 0
M  V30 3275 N 303.011 1.40521 -0.713556 0
M  V30 3276 C 303.944 2.28198 -0.00881422 0
M  V30 3277 C 304.922 1.43227 0.769735 0
M  V30 3278 O 306.106 1.72641 0.756799 0
M  V30 3279 C 303.233 3.23758 0.994899 0
M  V30 3280 C 302.279 4.25391 0.3074 0
M  V30 3281 S 303.112 5.26765 -0.963247 0
M  V30 3282 C 304.268 6.25888 0.0384143 0
M  V30 3283 H 304.501 2.87622 -0.752407 0
M  V30 3284 H 302.034 1.45925 -0.504502 0
M  V30 3285 H 303.992 3.79341 1.56879 0
M  V30 3286 H 302.653 2.63396 1.71118 0
M  V30 3287 H 301.846 4.92596 1.0661 0
M  V30 3288 H 301.448 3.73497 -0.193879 0
M  V30 3289 H 303.74 6.71683 0.885912 0
M  V30 3290 H 304.683 7.05552 -0.60019 0
M  V30 3291 H 305.091 5.63072 0.401233 0
M  V30 3292 N 304.489 0.459591 1.5075 0
M  V30 3293 C 305.452 -0.329093 2.26825 0
M  V30 3294 C 306.452 -0.930481 1.31144 0
M  V30 3295 O 307.642 -0.801453 1.54669 0
M  V30 3296 C 304.774 -1.46768 3.07688 0
M  V30 3297 H 305.967 0.337924 2.9799 0
M  V30 3298 H 303.52 0.213336 1.54837 0
M  V30 3299 H 304.255 -2.17009 2.40993 0
M  V30 3300 H 304.04 -1.04238 3.77991 0
M  V30 3301 H 305.53 -2.02433 3.65254 0
M  V30 3302 N 305.967 -1.56429 0.191757 0
M  V30 3303 C 306.914 -2.18936 -0.730454 0
M  V30 3304 C 307.884 -1.13557 -1.21219 0
M  V30 3305 O 309.069 -1.41794 -1.27668 0
M  V30 3306 C 306.209 -2.85013 -1.9458 0
M  V30 3307 C 305.322 -4.04909 -1.50574 0
M  V30 3308 C 304.457 -4.58853 -2.67634 0
M  V30 3309 C 303.496 -5.71114 -2.20217 0
M  V30 3310 N 302.633 -6.19478 -3.30442 0
M  V30 3311 H 307.473 -2.97389 -0.190664 0
M  V30 3312 H 305.01 -1.46869 -0.0823694 0
M  V30 3313 H 306.968 -3.21492 -2.65893 0
M  V30 3314 H 305.598 -2.09129 -2.45896 0
M  V30 3315 H 304.65 -3.74115 -0.688605 0
M  V30 3316 H 305.962 -4.86113 -1.11784 0
M  V30 3317 H 305.116 -4.97619 -3.47074 0
M  V30 3318 H 303.855 -3.76749 -3.09696 0
M  V30 3319 H 302.86 -5.31879 -1.3923 0
M  V30 3320 H 304.085 -6.55033 -1.79189 0
M  V30 3321 H 302.031 -5.40297 -3.72041 0
M  V30 3322 H 301.948 -6.95725 -2.9581 0
M  V30 3323 H 303.216 -6.62898 -4.10106 0
M  V30 3324 N 307.445 0.0818655 -1.57387 0
M  V30 3325 C 308.861 0.436412 -1.53517 0
M  V30 3326 C 309.061 1.79758 -0.910459 0
M  V30 3327 O 308.117 2.47324 -0.508636 0
M  V30 3328 C 309.43 0.386734 -2.98203 0
M  V30 3329 C 310.978 0.467644 -3.09487 0
M  V30 3330 C 311.453 0.447978 -4.55804 0
M  V30 3331 N 312.944 0.508348 -4.60402 0
M  V30 3332 C 313.679 0.515184 -5.71081 0
M  V30 3333 N 313.175 0.477435 -6.91153 0
M  V30 3334 N 314.968 0.560988 -5.59294 0
M  V30 3335 H 307.119 -0.809546 -1.96367 0
M  V30 3336 H 309.382 -0.302733 -0.898363 0
M  V30 3337 H 309.088 -0.546539 -3.47427 0
M  V30 3338 H 308.962 1.20075 -3.57578 0
M  V30 3339 H 311.349 1.39134 -2.60242 0
M  V30 3340 H 311.43 -0.374753 -2.5304 0
M  V30 3341 H 311.074 -0.471826 -5.05704 0
M  V30 3342 H 311.004 1.30777 -5.10103 0
M  V30 3343 H 313.495 0.54218 -3.7399 0
M  V30 3344 H 313.808 0.486299 -7.71268 0
M  V30 3345 H 312.153 0.444278 -6.93579 0
M  V30 3346 H 315.344 0.5881 -4.64391 0
M  V30 3347 H 315.517 0.562846 -6.45551 0
M  V30 3348 N 308.923 1.53595 0.353017 0
M  V30 3349 C 309.886 1.80232 1.41594 0
M  V30 3350 C 310.886 0.673081 1.46035 0
M  V30 3351 O 312.076 0.941335 1.46576 0
M  V30 3352 C 309.208 1.93578 2.80607 0
M  V30 3353 H 310.401 2.75174 1.19244 0
M  V30 3354 H 307.954 1.44864 0.586872 0
M  V30 3355 H 308.689 1.00746 3.08254 0
M  V30 3356 H 308.474 2.75724 2.78781 0
M  V30 3357 H 309.964 2.15735 3.57558 0
M  V30 3358 N 310.401 -0.613514 1.45168 0
M  V30 3359 C 311.648 -1.37268 1.48875 0
M  V30 3360 C 311.976 -1.94077 0.128161 0
M  V30 3361 O 311.231 -1.75178 -0.872416 0
M  V30 3362 C 311.53 -2.54347 2.51083 0
M  V30 3363 C 311.196 -2.1572 3.95949 0
M  V30 3364 C 309.858 -2.04899 4.35396 0
M  V30 3365 C 312.21 -1.85485 4.87078 0
M  V30 3366 C 309.538 -1.62057 5.63875 0
M  V30 3367 C 311.89 -1.4413 6.15962 0
M  V30 3368 C 310.554 -1.31863 6.54346 0
M  V30 3369 H 309.824 -0.502299 0.544773 0
M  V30 3370 H 312.471 -0.694021 1.78481 0
M  V30 3371 H 310.776 -3.27524 2.15024 0
M  V30 3372 H 312.473 -3.12577 2.51191 0
M  V30 3373 H 309.063 -2.25066 3.64751 0
M  V30 3374 H 313.247 -1.92745 4.57343 0
M  V30 3375 H 308.503 -1.51177 5.92415 0
M  V30 3376 H 312.677 -1.19778 6.86022 0
M  V30 3377 H 310.304 -0.984392 7.538 0
M  V30 3378 N 311.879 -1.3236 -0.855495 0
M  V30 3379 C 313.156 -1.13491 -1.59309 0
M  V30 3380 C 313.536 0.30503 -2.08885 0
M  V30 3381 O 312.884 1.30151 -1.87811 0
M  V30 3382 C 313.094 -2.16176 -2.73987 0
M  V30 3383 C 314.442 -2.49463 -3.43589 0
M  V30 3384 O 315.466 -2.14715 -2.84211 0
M  V30 3385 O 314.325 -3.09027 -4.50738 0
M  V30 3386 H 311.419 -0.437887 -0.701559 0
M  V30 3387 H 313.965 -1.43887 -0.899696 0
M  V30 3388 H 312.737 -3.1297 -2.34873 0
M  V30 3389 H 312.36 -1.86769 -3.51003 0
M  V30 3390 N 313.357 1.07166 -1.15556 0
M  V30 3391 C 314.634 1.76546 -0.842069 0
M  V30 3392 C 315.014 2.00453 0.661939 0
M  V30 3393 O 314.362 1.62452 1.60691 0
M  V30 3394 C 314.572 3.07266 -1.65495 0
M  V30 3395 C 315.92 3.81578 -1.86234 0
M  V30 3396 O 316.944 3.17083 -1.62287 0
M  V30 3397 O 315.803 4.97419 -2.26355 0
M  V30 3398 H 312.897 0.766756 -0.309862 0
M  V30 3399 H 315.443 1.13514 -1.26145 0
M  V30 3400 H 314.215 2.85494 -2.67598 0
M  V30 3401 H 313.838 3.7803 -1.23203 0
M  V30 3402 N 314.835 0.952656 1.25548 0
M  V30 3403 C 315.798 0.475794 2.24207 0
M  V30 3404 C 316.798 -0.419428 1.55234 0
M  V30 3405 O 317.988 -0.216994 1.72843 0
M  V30 3406 C 315.12 -0.312814 3.39462 0
M  V30 3407 H 316.313 1.34779 2.67908 0
M  V30 3408 H 313.866 0.735739 1.37901 0
M  V30 3409 H 314.601 -1.20257 3.01179 0
M  V30 3410 H 314.386 0.329404 3.90714 0
M  V30 3411 H 315.876 -0.635986 4.12729 0
M  V30 3412 N 316.313 -1.40141 0.720998 0
M  V30 3413 C 317.562 -2.0002 0.259804 0
M  V30 3414 C 317.875 -1.57839 -1.15526 0
M  V30 3415 O 319.081 -2.10455 -1.71525 0
M  V30 3416 C 317.537 -3.57516 0.413566 0
M  V30 3417 C 317.145 -4.08667 1.83562 0
M  V30 3418 C 318.889 -4.24498 0.0134387 0
M  V30 3419 C 316.796 -5.58686 1.93968 0
M  V30 3420 H 315.726 -0.748195 0.0933806 0
M  V30 3421 H 318.377 -1.60313 0.892866 0
M  V30 3422 H 316.759 -3.9495 -0.288169 0
M  V30 3423 H 317.933 -3.82598 2.56817 0
M  V30 3424 H 316.248 -3.543 2.1877 0
M  V30 3425 H 318.845 -5.34654 0.0703954 0
M  V30 3426 H 319.188 -4.03375 -1.02927 0
M  V30 3427 H 319.721 -3.92188 0.665815 0
M  V30 3428 H 316.46 -5.8467 2.96379 0
M  V30 3429 H 315.98 -5.86602 1.25131 0
M  V30 3430 H 317.659 -6.23875 1.71431 0
M  V30 3431 N 317.792 -0.46758 -1.50504 0
M  V30 3432 C 319.02 0.0864133 -2.06719 0
M  V30 3433 C 319.435 1.33819 -1.33184 0
M  V30 3434 O 318.792 1.78061 -0.400083 0
M  V30 3435 C 318.843 0.378079 -3.59517 0
M  V30 3436 O 318.564 -0.824044 -4.3028 0
M  V30 3437 C 320.065 0.979426 -4.32345 0
M  V30 3438 H 317.285 -0.00551697 -0.670977 0
M  V30 3439 H 319.829 -0.655354 -1.93715 0
M  V30 3440 H 317.984 1.06977 -3.72337 0
M  V30 3441 H 318.398 -0.566518 -5.21432 0
M  V30 3442 H 319.872 1.1333 -5.40241 0
M  V30 3443 H 320.349 1.9686 -3.9261 0
M  V30 3444 H 320.955 0.326216 -4.24047 0
M  V30 3445 N 319.27 1.56325 -0.20005 0
M  V30 3446 C 320.18 2.22931 0.730668 0
M  V30 3447 C 321.196 1.22997 1.23076 0
M  V30 3448 O 322.372 1.55748 1.27689 0
M  V30 3449 C 319.437 2.87948 1.93098 0
M  V30 3450 C 318.498 4.03166 1.47497 0
M  V30 3451 C 317.731 4.65073 2.61807 0
M  V30 3452 O 317.954 4.25913 3.79413 0
M  V30 3453 O 316.888 5.54452 2.34237 0
M  V30 3454 H 320.714 3.03084 0.193391 0
M  V30 3455 H 318.299 1.49371 0.0294621 0
M  V30 3456 H 320.181 3.29063 2.6324 0
M  V30 3457 H 318.856 2.10771 2.45677 0
M  V30 3458 H 317.763 3.66664 0.742201 0
M  V30 3459 H 319.096 4.82022 0.995796 0
M  V30 3460 N 320.748 -0.0735177 1.57428 0
M  V30 3461 C 321.995 -0.772999 1.87166 0
M  V30 3462 C 322.323 -1.77665 0.791551 0
M  V30 3463 O 321.578 -1.94541 -0.212636 0
M  V30 3464 C 321.877 -1.51799 3.23561 0
M  V30 3465 C 321.543 -0.654484 4.46125 0
M  V30 3466 C 320.205 -0.416511 4.79394 0
M  V30 3467 C 322.557 -0.0555862 5.2117 0
M  V30 3468 C 319.885 0.429869 5.85123 0
M  V30 3469 C 322.237 0.778239 6.27795 0
M  V30 3470 C 320.901 1.0261 6.59566 0
M  V30 3471 H 320.171 -0.282861 0.684888 0
M  V30 3472 H 322.818 -0.0338272 1.9147 0
M  V30 3473 H 321.123 -2.32932 3.1504 0
M  V30 3474 H 322.82 -2.06397 3.43804 0
M  V30 3475 H 319.41 -0.850091 4.20085 0
M  V30 3476 H 323.594 -0.226558 4.95783 0
M  V30 3477 H 318.85 0.630665 6.08139 0
M  V30 3478 H 323.024 1.24906 6.85107 0
M  V30 3479 H 320.651 1.68371 7.4132 0
M  V30 3480 N 322.226 -1.5378 -0.344866 0
M  V30 3481 C 323.503 -1.61589 -1.10219 0
M  V30 3482 C 323.883 -0.436316 -2.06542 0
M  V30 3483 O 323.231 0.571543 -2.21237 0
M  V30 3484 C 323.441 -2.97602 -1.82301 0
M  V30 3485 C 324.789 -3.5291 -2.36093 0
M  V30 3486 O 325.813 -2.99768 -1.924 0
M  V30 3487 O 324.672 -4.45859 -3.16026 0
M  V30 3488 H 321.766 -0.653522 -0.506792 0
M  V30 3489 H 324.312 -1.66126 -0.346465 0
M  V30 3490 H 323.084 -3.74893 -1.12121 0
M  V30 3491 H 322.707 -2.9665 -2.64735 0
M  V30 3492 N 323.704 0.605807 -1.45491 0
M  V30 3493 C 324.652 1.73754 -1.54636 0
M  V30 3494 C 325.646 1.64207 -0.416219 0
M  V30 3495 O 326.852 1.69979 -0.592199 0
M  V30 3496 H 323.227 0.574073 -0.485741 0
M  V30 3497 H 325.198 1.63169 -2.49837 0
M  V30 3498 C 323.947 3.12135 -1.53189 0
M  V30 3499 H 323.27 3.20141 -2.39478 0
M  V30 3500 H 324.71 3.91147 -1.63645 0
M  V30 3501 C 323.169 3.35921 -0.256616 0
M  V30 3502 O 323.699 3.96194 0.662798 0
M  V30 3503 N 321.905 2.90204 -0.151751 0
M  V30 3504 H 321.452 2.41336 -0.90081 0
M  V30 3505 H 321.41 3.06492 0.700699 0
M  V30 3506 N 325.182 1.32811 0.848464 0
M  V30 3507 C 326.428 1.23907 1.60546 0
M  V30 3508 C 326.761 -0.197161 1.93197 0
M  V30 3509 O 326.036 -1.13596 1.5788 0
M  V30 3510 C 326.319 2.10489 2.92175 0
M  V30 3511 C 326.172 3.62522 2.66266 0
M  V30 3512 C 327.491 1.97075 3.93509 0
M  V30 3513 H 324.61 0.451459 0.58254 0
M  V30 3514 H 327.252 1.62818 0.979296 0
M  V30 3515 H 325.402 1.77434 3.45614 0
M  V30 3516 H 327.074 4.05821 2.19334 0
M  V30 3517 H 325.317 3.84879 2.00126 0
M  V30 3518 H 325.988 4.18437 3.6002 0
M  V30 3519 H 328.464 2.26045 3.49346 0
M  V30 3520 H 327.34 2.59923 4.83457 0
M  V30 3521 H 327.601 0.940186 4.31987 0
M  V30 3522 N 326.66 -1.06551 1.16123 0
M  V30 3523 C 327.885 -1.83544 0.965735 0
M  V30 3524 C 328.31 -1.81843 -0.481102 0
M  V30 3525 O 327.668 -1.21732 -1.34354 0
M  V30 3526 C 327.716 -3.28169 1.49457 0
M  V30 3527 O 326.82 -4.0643 0.699157 0
M  V30 3528 H 326.161 -0.568026 0.343864 0
M  V30 3529 H 328.691 -1.34362 1.54299 0
M  V30 3530 H 328.701 -3.78992 1.51092 0
M  V30 3531 H 327.376 -3.28722 2.54784 0
M  V30 3532 H 325.953 -3.65216 0.7531 0
M  V30 3533 N 328.138 -0.959301 -1.25041 0
M  V30 3534 C 329.048 -0.489994 -2.29426 0
M  V30 3535 C 330.064 0.444944 -1.68215 0
M  V30 3536 O 331.24 0.320046 -1.98841 0
M  V30 3537 C 328.305 0.220309 -3.45999 0
M  V30 3538 C 327.366 -0.753418 -4.22637 0
M  V30 3539 C 326.599 -0.076918 -5.33645 0
M  V30 3540 O 326.822 1.13649 -5.58963 0
M  V30 3541 O 325.756 -0.764824 -5.97021 0
M  V30 3542 H 329.582 -1.35755 -2.71669 0
M  V30 3543 H 327.167 -0.725961 -1.30576 0
M  V30 3544 H 329.049 0.619677 -4.16819 0
M  V30 3545 H 327.724 1.06296 -3.0575 0
M  V30 3546 H 326.631 -1.20308 -3.54227 0
M  V30 3547 H 327.964 -1.56423 -4.66683 0
M  V30 3548 N 329.616 1.39756 -0.72842 0
M  V30 3549 C 330.893 1.94574 -0.200079 0
M  V30 3550 C 331.273 1.66569 1.29684 0
M  V30 3551 O 330.621 0.990326 2.05924 0
M  V30 3552 C 330.831 3.45004 -0.526608 0
M  V30 3553 C 332.179 4.21965 -0.472318 0
M  V30 3554 O 333.203 3.53173 -0.463413 0
M  V30 3555 O 332.062 5.44552 -0.461075 0
M  V30 3556 H 329.156 0.826289 -0.0342851 0
M  V30 3557 H 331.702 1.49293 -0.806829 0
M  V30 3558 H 330.474 3.58796 -1.56144 0
M  V30 3559 H 330.097 3.97449 0.109449 0
M  V30 3560 N 331.094 0.475555 1.50254 0
M  V30 3561 C 332.319 -0.0777042 2.07254 0
M  V30 3562 C 332.744 -1.3235 1.3366 0
M  V30 3563 O 332.102 -1.77152 0.385597 0
M  V30 3564 C 332.15 -0.340169 3.58992 0
M  V30 3565 O 331.254 -1.41982 3.87188 0
M  V30 3566 H 330.595 0.0149556 0.663832 0
M  V30 3567 H 333.125 0.667878 1.93392 0
M  V30 3568 H 333.135 -0.579332 4.03866 0
M  V30 3569 H 331.81 0.570167 4.11973 0
M  V30 3570 H 330.387 -1.16762 3.54148 0
M  V30 3571 N 332.573 -1.56217 0.208337 0
M  V30 3572 C 333.803 -2.02043 -0.431523 0
M  V30 3573 C 334.211 -1.08755 -1.54819 0
M  V30 3574 O 333.554 -0.0870009 -1.83494 0
M  V30 3575 C 333.616 -3.44239 -1.03633 0
M  V30 3576 C 333.28 -4.56965 -0.0567502 0
M  V30 3577 C 334.277 -5.14624 0.738773 0
M  V30 3578 C 331.962 -5.02266 0.0581736 0
M  V30 3579 C 333.956 -6.16045 1.63605 0
M  V30 3580 C 331.643 -6.03528 0.959001 0
M  V30 3581 C 332.641 -6.60293 1.7465 0
M  V30 3582 O 332.329 -7.59586 2.6322 0
M  V30 3583 H 332.061 -0.666772 -0.111313 0
M  V30 3584 H 334.615 -2.02919 0.318277 0
M  V30 3585 H 332.845 -3.40391 -1.83497 0
M  V30 3586 H 334.534 -3.73793 -1.58221 0
M  V30 3587 H 335.3 -4.80483 0.660364 0
M  V30 3588 H 331.179 -4.57771 -0.544633 0
M  V30 3589 H 334.723 -6.60279 2.25116 0
M  V30 3590 H 330.62 -6.37092 1.03848 0
M  V30 3591 H 331.388 -7.77057 2.57148 0
M  V30 3592 N 334.051 0.0651679 -1.57465 0
M  V30 3593 C 334.998 1.07675 -2.04144 0
M  V30 3594 C 335.968 1.38071 -0.923335 0
M  V30 3595 O 337.153 1.49026 -1.19146 0
M  V30 3596 C 334.293 2.38337 -2.49579 0
M  V30 3597 C 333.406 2.14413 -3.75035 0
M  V30 3598 C 332.541 3.38686 -4.09225 0
M  V30 3599 C 331.58 3.10156 -5.27702 0
M  V30 3600 N 330.717 4.26778 -5.57499 0
M  V30 3601 H 335.557 0.671716 -2.90331 0
M  V30 3602 H 333.094 0.3201 -1.43575 0
M  V30 3603 H 335.052 3.14632 -2.73975 0
M  V30 3604 H 333.682 2.7663 -1.6636 0
M  V30 3605 H 332.734 1.2878 -3.57939 0
M  V30 3606 H 334.046 1.89344 -4.61466 0
M  V30 3607 H 333.2 4.23373 -4.34558 0
M  V30 3608 H 331.939 3.66837 -3.21374 0
M  V30 3609 H 330.944 2.23866 -5.02159 0
M  V30 3610 H 332.169 2.8332 -6.17176 0
M  V30 3611 H 330.115 4.54948 -4.72608 0
M  V30 3612 H 330.032 4.05005 -6.38362 0
M  V30 3613 H 331.3 5.12443 -5.87386 0
M  V30 3614 N 335.529 1.53961 0.336706 0
M  V30 3615 C 336.806 1.62171 1.09361 0
M  V30 3616 C 337.186 0.447263 2.06307 0
M  V30 3617 O 336.534 -0.559802 2.21537 0
M  V30 3618 C 336.744 2.98565 1.80721 0
M  V30 3619 C 338.092 3.54157 2.34218 0
M  V30 3620 O 339.116 3.00784 1.90807 0
M  V30 3621 O 337.975 4.47528 3.13657 0
M  V30 3622 H 335.069 0.6562 0.503319 0
M  V30 3623 H 337.615 1.66307 0.33765 0
M  V30 3624 H 336.387 3.75482 1.10132 0
M  V30 3625 H 336.01 2.9805 2.63158 0
M  V30 3626 N 337.007 -0.598083 1.45811 0
M  V30 3627 C 338.232 -1.3881 1.54099 0
M  V30 3628 C 338.657 -1.8726 0.177578 0
M  V30 3629 O 338.015 -1.6069 -0.839541 0
M  V30 3630 C 338.063 -2.56217 2.53743 0
M  V30 3631 O 337.167 -3.5716 2.06182 0
M  V30 3632 H 336.508 -0.414024 0.519115 0
M  V30 3633 H 339.038 -0.726971 1.91249 0
M  V30 3634 H 339.048 -3.03337 2.72856 0
M  V30 3635 H 337.723 -2.20303 3.5276 0
M  V30 3636 H 336.3 -3.16624 1.96987 0
M  V30 3637 N 338.485 -1.33259 -0.841409 0
M  V30 3638 C 339.713 -1.27605 -1.62864 0
M  V30 3639 C 340.128 0.153507 -1.88175 0
M  V30 3640 O 339.485 1.09485 -1.46011 0
M  V30 3641 C 339.536 -2.04596 -2.98031 0
M  V30 3642 O 339.257 -3.41975 -2.73834 0
M  V30 3643 C 340.758 -2.06122 -3.92465 0
M  V30 3644 H 337.978 -0.439718 -0.506842 0
M  V30 3645 H 340.522 -1.75591 -1.04824 0
M  V30 3646 H 338.677 -1.60299 -3.5268 0
M  V30 3647 H 339.091 -3.81549 -3.59889 0
M  V30 3648 H 340.565 -2.64451 -4.84531 0
M  V30 3649 H 341.042 -1.05083 -4.26444 0
M  V30 3650 H 341.648 -2.50427 -3.43753 0
M  V30 3651 N 339.963 1.05934 -1.16686 0
M  V30 3652 C 340.893 2.1546 -0.899949 0
M  V30 3653 C 341.874 1.69391 0.155154 0
M  V30 3654 O 343.059 1.94199 0.00648693 0
M  V30 3655 C 340.189 3.44939 -0.404241 0
M  V30 3656 C 339.143 4.04536 -1.39767 0
M  V30 3657 C 338.469 5.29268 -0.760216 0
M  V30 3658 C 339.769 4.42893 -2.76845 0
M  V30 3659 H 341.463 2.38046 -1.81588 0
M  V30 3660 H 339.009 1.14404 -0.874514 0
M  V30 3661 H 340.962 4.20901 -0.204971 0
M  V30 3662 H 339.686 3.21983 0.547206 0
M  V30 3663 H 338.345 3.30635 -1.58355 0
M  V30 3664 H 337.993 5.02611 0.197831 0
M  V30 3665 H 337.693 5.70101 -1.42332 0
M  V30 3666 H 339.217 6.07924 -0.57105 0
M  V30 3667 H 340.631 5.09921 -2.62019 0
M  V30 3668 H 339.028 4.94721 -3.39663 0
M  V30 3669 H 340.098 3.53584 -3.31823 0
M  V30 3670 N 341.441 0.965919 1.2453 0
M  V30 3671 C 342.69 0.622437 1.91856 0
M  V30 3672 C 343.003 -0.846006 1.76358 0
M  V30 3673 O 344.209 -1.29993 2.38357 0
M  V30 3674 C 342.665 1.0626 3.43856 0
M  V30 3675 C 342.273 2.55437 3.68043 0
M  V30 3676 C 344.017 0.792183 4.17043 0
M  V30 3677 C 341.924 2.93196 5.13605 0
M  V30 3678 H 340.854 0.229092 0.718354 0
M  V30 3679 H 343.505 1.17189 1.41206 0
M  V30 3680 H 341.887 0.441476 3.93531 0
M  V30 3681 H 343.061 3.22665 3.28974 0
M  V30 3682 H 341.376 2.8007 3.08139 0
M  V30 3683 H 343.973 1.05031 5.24283 0
M  V30 3684 H 344.316 -0.271584 4.15413 0
M  V30 3685 H 344.849 1.37419 3.73311 0
M  V30 3686 H 341.588 3.98636 5.20355 0
M  V30 3687 H 341.108 2.30651 5.53679 0
M  V30 3688 H 342.787 2.83004 5.81823 0
M  V30 3689 N 342.919 -1.39368 0.735821 0
M  V30 3690 C 343.852 -2.28155 0.0451175 0
M  V30 3691 C 344.83 -1.44433 -0.746852 0
M  V30 3692 O 346.014 -1.73823 -0.729237 0
M  V30 3693 C 343.141 -3.253 -0.943266 0
M  V30 3694 C 342.187 -4.25826 -0.239685 0
M  V30 3695 S 343.02 -5.25166 1.04693 0
M  V30 3696 C 344.176 -6.2587 0.0611639 0
M  V30 3697 H 344.409 -2.86388 0.79807 0
M  V30 3698 H 341.942 -1.45104 0.527653 0
M  V30 3699 H 343.9 -3.81789 -1.50824 0
M  V30 3700 H 342.561 -2.66085 -1.66906 0
M  V30 3701 H 341.754 -4.94229 -0.987596 0
M  V30 3702 H 341.356 -3.73141 0.253274 0
M  V30 3703 H 343.648 -6.73007 -0.778941 0
M  V30 3704 H 344.591 -7.04508 0.712362 0
M  V30 3705 H 344.999 -5.63639 -0.311602 0
M  V30 3706 N 344.397 -0.483516 -1.5 0
M  V30 3707 C 345.329 0.340634 -2.26655 0
M  V30 3708 C 346.342 0.946152 -1.32483 0
M  V30 3709 O 347.531 0.832453 -1.579 0
M  V30 3710 C 344.631 1.4929 -3.04246 0
M  V30 3711 C 343.804 0.997903 -4.25865 0
M  V30 3712 C 342.863 2.02569 -4.85646 0
M  V30 3713 O 341.889 1.60128 -5.46212 0
M  V30 3714 N 343.091 3.3548 -4.73744 0
M  V30 3715 H 345.856 -0.316577 -2.98023 0
M  V30 3716 H 343.417 -0.315024 -1.58806 0
M  V30 3717 H 345.409 2.17766 -3.41116 0
M  V30 3718 H 343.979 2.05458 -2.35597 0
M  V30 3719 H 343.199 0.138617 -3.93956 0
M  V30 3720 H 344.487 0.645305 -5.04691 0
M  V30 3721 H 343.885 3.72661 -4.25605 0
M  V30 3722 H 342.442 3.99718 -5.14848 0
M  V30 3723 N 345.875 1.56104 -0.216619 0
M  V30 3724 C 346.805 2.23063 0.690296 0
M  V30 3725 C 347.786 1.20072 1.20485 0
M  V30 3726 O 348.971 1.48643 1.24976 0
M  V30 3727 C 346.101 2.90672 1.90072 0
M  V30 3728 C 345.055 4.00092 1.5202 0
M  V30 3729 C 344.381 4.54972 2.80899 0
M  V30 3730 C 345.681 5.17398 0.71391 0
M  V30 3731 H 347.375 2.99109 0.132038 0
M  V30 3732 H 344.921 1.43866 0.0620664 0
M  V30 3733 H 346.874 3.36204 2.54057 0
M  V30 3734 H 345.598 2.12066 2.48386 0
M  V30 3735 H 344.257 3.55283 0.903839 0
M  V30 3736 H 343.905 3.73102 3.37348 0
M  V30 3737 H 343.605 5.28817 2.56176 0
M  V30 3738 H 345.129 5.0322 3.45836 0
M  V30 3739 H 346.543 5.59342 1.25735 0
M  V30 3740 H 344.94 5.97444 0.563951 0
M  V30 3741 H 346.01 4.84088 -0.280527 0
M  V30 3742 N 347.353 -0.0568162 1.57498 0
M  V30 3743 C 348.283 -1.06593 2.0775 0
M  V30 3744 C 349.264 -1.39448 0.974082 0
M  V30 3745 O 350.449 -1.48815 1.24771 0
M  V30 3746 C 347.579 -2.37509 2.5339 0
M  V30 3747 C 346.533 -2.1897 3.67745 0
M  V30 3748 C 345.859 -3.55402 3.99492 0
M  V30 3749 C 347.159 -1.59859 4.97235 0
M  V30 3750 H 348.853 -0.647706 2.9231 0
M  V30 3751 H 346.399 -0.310116 1.40621 0
M  V30 3752 H 348.352 -3.08409 2.87162 0
M  V30 3753 H 347.076 -2.8134 1.65878 0
M  V30 3754 H 345.735 -1.50508 3.3428 0
M  V30 3755 H 345.383 -3.9683 3.09088 0
M  V30 3756 H 345.083 -3.43831 4.76502 0
M  V30 3757 H 346.607 -4.27708 4.35773 0
M  V30 3758 H 348.021 -2.20642 5.29141 0
M  V30 3759 H 346.418 -1.58942 5.78669 0
M  V30 3760 H 347.488 -0.561506 4.81638 0
M  V30 3761 N 348.832 -1.54138 -0.328536 0
M  V30 3762 C 350.248 -1.44736 -0.672574 0
M  V30 3763 C 350.448 -0.616217 -1.91846 0
M  V30 3764 O 349.504 -0.113067 -2.52247 0
M  V30 3765 C 350.817 -2.884 -0.851217 0
M  V30 3766 C 352.365 -2.98271 -0.948877 0
M  V30 3767 C 352.84 -4.43074 -1.15973 0
M  V30 3768 N 354.331 -4.46665 -1.22658 0
M  V30 3769 C 355.066 -5.55857 -1.40751 0
M  V30 3770 N 354.562 -6.75026 -1.5592 0
M  V30 3771 N 356.355 -5.43495 -1.4342 0
M  V30 3772 H 348.506 -2.06661 0.490421 0
M  V30 3773 H 350.769 -0.934812 0.157579 0
M  V30 3774 H 350.475 -3.51699 -0.00704236 0
M  V30 3775 H 350.349 -3.34225 -1.74853 0
M  V30 3776 H 352.736 -2.35102 -1.78356 0
M  V30 3777 H 352.817 -2.55785 -0.0281435 0
M  V30 3778 H 352.461 -5.06827 -0.329915 0
M  V30 3779 H 352.391 -4.83165 -2.09426 0
M  V30 3780 H 354.882 -3.60797 -1.124 0
M  V30 3781 H 355.195 -7.54004 -1.69404 0
M  V30 3782 H 353.54 -6.77944 -1.53027 0
M  V30 3783 H 356.731 -4.49349 -1.31162 0
M  V30 3784 H 356.904 -6.28649 -1.57178 0
M  V30 3785 N 350.31 0.590341 -1.46126 0
M  V30 3786 C 351.587 1.35029 -1.41515 0
M  V30 3787 C 351.967 2.10888 -0.0946472 0
M  V30 3788 O 351.315 2.08998 0.923693 0
M  V30 3789 C 351.525 2.28269 -2.63997 0
M  V30 3790 C 352.873 2.90338 -3.09821 0
M  V30 3791 O 353.897 2.38585 -2.64492 0
M  V30 3792 O 352.756 3.84321 -3.88535 0
M  V30 3793 H 349.85 0.606317 -0.562413 0
M  V30 3794 H 352.396 0.611994 -1.58281 0
M  V30 3795 H 351.168 1.71591 -3.51671 0
M  V30 3796 H 350.791 3.0945 -2.49652 0
M  V30 3797 N 351.788 1.33704 0.83433 0
M  V30 3798 C 352.736 1.24323 1.96587 0
M  V30 3799 C 353.73 0.143659 1.6879 0
M  V30 3800 O 354.936 0.30791 1.77347 0
M  V30 3801 H 351.311 0.385925 0.645419 0
M  V30 3802 H 353.282 2.19978 2.01624 0
M  V30 3803 C 352.031 1.00394 3.32891 0
M  V30 3804 H 351.354 1.84231 3.54822 0
M  V30 3805 H 352.794 0.97862 4.12552 0
M  V30 3806 C 351.253 -0.293047 3.35623 0
M  V30 3807 O 351.783 -1.29823 3.80143 0
M  V30 3808 N 349.989 -0.322174 2.88809 0
M  V30 3809 H 349.536 0.496379 2.52772 0
M  V30 3810 H 349.494 -1.18977 2.91019 0
M  V30 3811 N 353.266 -1.05314 1.17247 0
M  V30 3812 C 354.196 -2.1498 0.911362 0
M  V30 3813 C 355.177 -1.69471 -0.146169 0
M  V30 3814 O 356.362 -1.942 0.003812 0
M  V30 3815 C 353.492 -3.4472 0.422528 0
M  V30 3816 C 352.446 -4.03789 1.4191 0
M  V30 3817 C 351.772 -5.28858 0.788274 0
M  V30 3818 C 353.072 -4.41418 2.7919 0
M  V30 3819 H 354.766 -2.3708 1.82848 0
M  V30 3820 H 352.312 -1.13938 0.880569 0
M  V30 3821 H 354.265 -4.20787 0.227289 0
M  V30 3822 H 352.989 -3.22269 -0.530123 0
M  V30 3823 H 351.648 -3.2979 1.60106 0
M  V30 3824 H 351.296 -5.02709 -0.171173 0
M  V30 3825 H 350.996 -5.69338 1.45353 0
M  V30 3826 H 352.52 -6.07612 0.603282 0
M  V30 3827 H 353.934 -5.08524 2.64719 0
M  V30 3828 H 352.331 -4.92913 3.42282 0
M  V30 3829 H 353.401 -3.51819 3.33693 0
M  V30 3830 N 354.744 -0.972509 -1.24016 0
M  V30 3831 C 355.972 -0.654803 -1.96265 0
M  V30 3832 C 356.387 0.776708 -1.72083 0
M  V30 3833 O 355.744 1.52171 -1.00748 0
M  V30 3834 C 355.795 -0.92592 -3.49441 0
M  V30 3835 O 355.516 -2.30116 -3.72798 0
M  V30 3836 C 357.017 -0.623068 -4.38899 0
M  V30 3837 H 354.237 -0.243907 -0.6251 0
M  V30 3838 H 356.781 -1.30175 -1.57717 0
M  V30 3839 H 354.936 -0.325108 -3.86033 0
M  V30 3840 H 355.35 -2.38483 -4.67147 0
M  V30 3841 H 356.824 -0.863189 -5.45209 0
M  V30 3842 H 357.301 0.442754 -4.36963 0
M  V30 3843 H 357.907 -1.204 -4.07902 0
M  V30 3844 N 356.222 1.38976 -0.743202 0
M  V30 3845 C 357.152 2.33171 -0.123873 0
M  V30 3846 C 358.133 1.54336 0.71516 0
M  V30 3847 O 359.318 1.82696 0.658467 0
M  V30 3848 C 356.448 3.38474 0.777978 0
M  V30 3849 C 355.402 4.27979 0.0424758 0
M  V30 3850 C 354.728 5.2405 1.06189 0
M  V30 3851 C 356.028 5.10155 -1.1198 0
M  V30 3852 H 357.722 2.85213 -0.910709 0
M  V30 3853 H 355.268 1.37133 -0.439388 0
M  V30 3854 H 357.221 4.03328 1.22084 0
M  V30 3855 H 355.945 2.84891 1.59702 0
M  V30 3856 H 354.604 3.64616 -0.380853 0
M  V30 3857 H 354.252 4.66758 1.87472 0
M  V30 3858 H 353.952 5.84785 0.574485 0
M  V30 3859 H 355.476 5.9178 1.50428 0
M  V30 3860 H 356.89 5.68307 -0.75499 0
M  V30 3861 H 355.287 5.80073 -1.53738 0
M  V30 3862 H 356.357 4.44504 -1.93764 0
M  V30 3863 N 357.7 0.491464 1.49741 0
M  V30 3864 C 358.946 -0.0485431 2.03342 0
M  V30 3865 C 359.301 -1.35566 1.36527 0
M  V30 3866 O 358.594 -1.85262 0.488729 0
M  V30 3867 C 358.788 -0.267329 3.56399 0
M  V30 3868 C 358.617 1.01703 4.38049 0
M  V30 3869 C 357.387 1.56614 4.80417 0
M  V30 3870 C 359.585 1.91782 4.77204 0
M  V30 3871 N 357.567 2.7974 5.4646 0
M  V30 3872 C 358.938 2.99489 5.42868 0
M  V30 3873 C 360.993 1.92575 4.5915 0
M  V30 3874 C 359.696 4.08005 5.92389 0
M  V30 3875 C 361.722 3.0006 5.09626 0
M  V30 3876 C 361.084 4.06485 5.75282 0
M  V30 3877 H 357.183 0.0227779 0.781668 0
M  V30 3878 H 359.767 0.664204 1.8302 0
M  V30 3879 H 357.938 -0.949126 3.76625 0
M  V30 3880 H 359.67 -0.803492 3.96644 0
M  V30 3881 H 356.425 1.11256 4.60347 0
M  V30 3882 H 356.849 3.42323 5.84075 0
M  V30 3883 H 361.491 1.11605 4.07804 0
M  V30 3884 H 359.209 4.89779 6.42761 0
M  V30 3885 H 362.795 3.01681 4.97473 0
M  V30 3886 H 361.675 4.88287 6.13633 0
M  V30 3887 N 359.178 -1.55987 0.224894 0
M  V30 3888 C 360.406 -2.02784 -0.410665 0
M  V30 3889 C 360.821 -1.10464 -1.53112 0
M  V30 3890 O 360.178 -0.114871 -1.82138 0
M  V30 3891 C 360.229 -3.49087 -0.939165 0
M  V30 3892 O 359.95 -4.37887 0.136614 0
M  V30 3893 C 361.451 -4.11543 -1.64763 0
M  V30 3894 H 358.671 -0.663484 -0.100148 0
M  V30 3895 H 361.215 -2.01614 0.342326 0
M  V30 3896 H 359.37 -3.50861 -1.64242 0
M  V30 3897 H 359.784 -5.23849 -0.261155 0
M  V30 3898 H 361.258 -5.15673 -1.96939 0
M  V30 3899 H 361.735 -3.56736 -2.56195 0
M  V30 3900 H 362.341 -4.13629 -0.989503 0
M  V30 3901 N 360.656 0.0484629 -1.57525 0
M  V30 3902 C 361.881 0.759177 -1.93006 0
M  V30 3903 C 362.306 1.69125 -0.823317 0
M  V30 3904 O 361.664 1.79931 0.222364 0
M  V30 3905 C 361.712 1.50899 -3.27509 0
M  V30 3906 O 360.816 2.62112 -3.18388 0
M  V30 3907 H 360.157 0.205564 -0.631379 0
M  V30 3908 H 362.687 0.00972959 -2.04598 0
M  V30 3909 H 362.697 1.88317 -3.6194 0
M  V30 3910 H 361.372 0.825269 -4.0763 0
M  V30 3911 H 359.949 2.27379 -2.95556 0
M  V30 3912 N 362.134 1.5431 0.320358 0
M  V30 3913 C 363.411 1.63322 1.07635 0
M  V30 3914 C 363.791 0.46912 2.05821 0
M  V30 3915 O 363.139 -0.536274 2.22118 0
M  V30 3916 C 363.349 3.00465 1.77544 0
M  V30 3917 C 364.697 3.56621 2.30449 0
M  V30 3918 O 365.721 3.02791 1.87606 0
M  V30 3919 O 364.58 4.5083 3.08892 0
M  V30 3920 H 361.674 0.661502 0.496331 0
M  V30 3921 H 364.22 1.66656 0.319992 0
M  V30 3922 H 362.992 3.76629 1.06143 0
M  V30 3923 H 362.615 3.00824 2.59982 0
M  V30 3924 N 363.613 -0.582584 1.46437 0
M  V30 3925 C 364.543 -1.70187 1.59871 0
M  V30 3926 C 365.524 -1.64066 0.449042 0
M  V30 3927 O 366.709 -1.82081 0.6753 0
M  V30 3928 C 363.839 -3.08827 1.58881 0
M  V30 3929 C 362.793 -3.29779 2.72819 0
M  V30 3930 C 362.119 -4.68947 2.5689 0
M  V30 3931 C 363.419 -3.17601 4.1464 0
M  V30 3932 H 365.113 -1.592 2.53566 0
M  V30 3933 H 362.659 -0.764472 1.22032 0
M  V30 3934 H 364.612 -3.86951 1.66873 0
M  V30 3935 H 363.336 -3.20713 0.617306 0
M  V30 3936 H 361.995 -2.54054 2.64296 0
M  V30 3937 H 361.643 -4.77599 1.57823 0
M  V30 3938 H 361.343 -4.83919 3.33312 0
M  V30 3939 H 362.867 -5.4924 2.66773 0
M  V30 3940 H 364.281 -3.8557 4.24274 0
M  V30 3941 H 362.678 -3.44094 4.9165 0
M  V30 3942 H 363.748 -2.14681 4.34788 0
M  V30 3943 N 365.091 -1.34144 -0.827227 0
M  V30 3944 C 366.023 -1.21206 -1.9453 0
M  V30 3945 C 367.036 -0.140176 -1.62195 0
M  V30 3946 O 368.225 -0.391647 -1.7415 0
M  V30 3947 C 365.325 -0.839141 -3.28347 0
M  V30 3948 C 364.498 -2.0051 -3.88734 0
M  V30 3949 C 363.557 -1.61128 -5.00923 0
M  V30 3950 O 362.583 -2.32726 -5.19449 0
M  V30 3951 N 363.785 -0.522958 -5.7814 0
M  V30 3952 H 366.55 -2.17525 -2.06162 0
M  V30 3953 H 364.111 -1.27043 -1.00358 0
M  V30 3954 H 366.103 -0.557556 -4.00841 0
M  V30 3955 H 364.673 0.0337293 -3.12582 0
M  V30 3956 H 363.893 -2.45166 -3.08686 0
M  V30 3957 H 365.181 -2.78498 -4.25812 0
M  V30 3958 H 364.579 0.0723518 -5.65654 0
M  V30 3959 H 363.136 -0.301089 -6.51104 0
M  V30 3960 N 366.569 1.04691 -1.17803 0
M  V30 3961 C 367.817 1.7743 -0.967617 0
M  V30 3962 C 368.138 1.88359 0.504574 0
M  V30 3963 O 367.408 1.40402 1.36617 0
M  V30 3964 H 365.988 0.657242 -0.355024 0
M  V30 3965 H 368.65 1.2638 -1.48371 0
M  V30 3966 H 367.746 2.78924 -1.40027 0
M  V30 3967 N 368.047 0.979072 1.23499 0
M  V30 3968 C 369.324 0.563674 1.87302 0
M  V30 3969 C 369.704 -0.959199 1.88049 0
M  V30 3970 O 369.052 -1.83535 1.36114 0
M  V30 3971 C 369.262 1.16822 3.28867 0
M  V30 3972 C 370.61 1.26014 4.0547 0
M  V30 3973 O 371.634 1.12158 3.38082 0
M  V30 3974 O 370.493 1.48044 5.26066 0
M  V30 3975 H 367.587 0.189602 0.804972 0
M  V30 3976 H 370.133 1.07407 1.31384 0
M  V30 3977 H 368.905 2.21049 3.22883 0
M  V30 3978 H 368.528 0.642564 3.92373 0
M  V30 3979 N 369.525 -1.3858 0.750561 0
M  V30 3980 C 370.457 -2.29057 0.0810714 0
M  V30 3981 C 371.47 -1.47596 -0.686973 0
M  V30 3982 O 372.659 -1.70495 -0.528563 0
M  V30 3983 C 369.759 -3.26475 -0.909247 0
M  V30 3984 C 368.932 -4.36945 -0.199478 0
M  V30 3985 C 367.991 -5.14572 -1.10011 0
M  V30 3986 O 367.017 -5.66321 -0.57177 0
M  V30 3987 N 368.219 -5.27262 -2.42849 0
M  V30 3988 H 370.984 -2.87153 0.858087 0
M  V30 3989 H 368.545 -1.50328 0.60109 0
M  V30 3990 H 370.537 -3.75285 -1.51471 0
M  V30 3991 H 369.107 -2.69298 -1.58736 0
M  V30 3992 H 368.327 -3.8981 0.586664 0
M  V30 3993 H 369.615 -5.07963 0.291783 0
M  V30 3994 H 369.013 -4.86763 -2.88233 0
M  V30 3995 H 367.57 -5.79456 -2.98453 0
M  V30 3996 N 371.003 -0.499398 -1.49478 0
M  V30 3997 C 372.231 0.0425456 -2.06856 0
M  V30 3998 C 372.646 1.30964 -1.35992 0
M  V30 3999 O 372.003 1.77172 -0.437762 0
M  V30 4000 C 372.054 0.301735 -3.60239 0
M  V30 4001 O 371.775 -0.915127 -4.28436 0
M  V30 4002 C 373.276 0.887499 -4.34325 0
M  V30 4003 H 370.496 -0.0197482 -0.670709 0
M  V30 4004 H 373.04 -0.696297 -1.92281 0
M  V30 4005 H 371.195 0.990556 -3.74522 0
M  V30 4006 H 371.609 -0.676993 -5.20113 0
M  V30 4007 H 373.083 1.01845 -5.42523 0
M  V30 4008 H 373.56 1.88488 -3.96698 0
M  V30 4009 H 374.166 0.236196 -4.24644 0
M  V30 4010 N 372.481 1.55866 -0.233164 0
M  V30 4011 C 373.391 2.24431 0.683217 0
M  V30 4012 C 374.407 1.2558 1.2044 0
M  V30 4013 O 375.583 1.58422 1.24356 0
M  V30 4014 C 372.648 2.91979 1.86947 0
M  V30 4015 C 371.709 4.06204 1.38912 0
M  V30 4016 C 370.942 4.70522 2.51883 0
M  V30 4017 O 371.165 4.33865 3.70293 0
M  V30 4018 O 370.099 5.59296 2.22423 0
M  V30 4019 H 373.925 3.03426 0.129059 0
M  V30 4020 H 371.51 1.494 -0.0022283 0
M  V30 4021 H 373.392 3.34573 2.56201 0
M  V30 4022 H 372.067 2.15935 2.41151 0
M  V30 4023 H 370.974 3.68155 0.664259 0
M  V30 4024 H 372.307 4.84025 0.893328 0
M  V30 4025 N 373.959 -0.0401083 1.57549 0
M  V30 4026 C 374.869 -1.06133 2.0922 0
M  V30 4027 C 375.885 -1.40356 1.0284 0
M  V30 4028 O 377.061 -1.49897 1.34509 0
M  V30 4029 C 374.126 -2.34658 2.55218 0
M  V30 4030 C 373.187 -2.07117 3.76033 0
M  V30 4031 C 372.42 -3.29514 4.19829 0
M  V30 4032 O 372.643 -4.39794 3.63232 0
M  V30 4033 O 371.577 -3.15863 5.12362 0
M  V30 4034 H 375.403 -0.652244 2.96613 0
M  V30 4035 H 372.988 -0.256368 1.47184 0
M  V30 4036 H 374.87 -3.10239 2.85184 0
M  V30 4037 H 373.545 -2.74883 1.70941 0
M  V30 4038 H 372.452 -1.29139 3.51104 0
M  V30 4039 H 373.785 -1.71754 4.61261 0
M  V30 4040 N 375.437 -1.54477 -0.31217 0
M  V30 4041 C 376.384 -1.84655 -1.38461 0
M  V30 4042 C 377.354 -0.694536 -1.50882 0
M  V30 4043 O 378.539 -0.942081 -1.6592 0
M  V30 4044 C 375.679 -2.0896 -2.74645 0
M  V30 4045 C 374.792 -3.36618 -2.70763 0
M  V30 4046 C 373.927 -3.50824 -3.98868 0
M  V30 4047 C 372.966 -4.72315 -3.89339 0
M  V30 4048 N 372.103 -4.83387 -5.09197 0
M  V30 4049 H 376.943 -2.76142 -1.12026 0
M  V30 4050 H 374.48 -1.36748 -0.542065 0
M  V30 4051 H 376.438 -2.21045 -3.53829 0
M  V30 4052 H 375.068 -1.20752 -2.99364 0
M  V30 4053 H 374.12 -3.33211 -1.83506 0
M  V30 4054 H 375.432 -4.25917 -2.59608 0
M  V30 4055 H 374.586 -3.62513 -4.86486 0
M  V30 4056 H 373.325 -2.59638 -4.12843 0
M  V30 4057 H 372.33 -4.6067 -3.00105 0
M  V30 4058 H 373.555 -5.64897 -3.76919 0
M  V30 4059 H 371.501 -3.9512 -5.23657 0
M  V30 4060 H 371.418 -5.66669 -5.00422 0
M  V30 4061 H 372.686 -4.9942 -5.98498 0
M  V30 4062 N 376.915 0.57481 -1.46744 0
M  V30 4063 C 378.14 1.36341 -1.56288 0
M  V30 4064 C 378.565 1.86954 -0.207347 0
M  V30 4065 O 377.923 1.62006 0.813871 0
M  V30 4066 C 377.971 2.52147 -2.57787 0
M  V30 4067 O 377.075 3.53834 -2.11838 0
M  V30 4068 H 376.416 0.405713 -0.525636 0
M  V30 4069 H 378.946 0.696453 -1.92382 0
M  V30 4070 H 378.956 2.98958 -2.77648 0
M  V30 4071 H 377.631 2.14663 -3.5622 0
M  V30 4072 H 376.208 3.1345 -2.01999 0
M  V30 4073 N 378.394 1.34581 0.820102 0
M  V30 4074 C 379.341 1.2639 1.93117 0
M  V30 4075 C 380.311 0.138554 1.65521 0
M  V30 4076 O 381.496 0.320004 1.88097 0
M  V30 4077 C 378.636 1.02812 3.29429 0
M  V30 4078 C 377.749 2.24146 3.693 0
M  V30 4079 C 376.884 1.93829 4.94574 0
M  V30 4080 C 375.923 3.1129 5.27034 0
M  V30 4081 N 375.06 2.80838 6.43486 0
M  V30 4082 H 379.9 2.21408 1.99455 0
M  V30 4083 H 377.437 1.10077 0.975784 0
M  V30 4084 H 379.395 0.871788 4.0799 0
M  V30 4085 H 378.025 0.114612 3.22596 0
M  V30 4086 H 377.077 2.50691 2.86109 0
M  V30 4087 H 378.389 3.11899 3.89257 0
M  V30 4088 H 377.543 1.74948 5.80929 0
M  V30 4089 H 376.282 1.03341 4.76626 0
M  V30 4090 H 375.287 3.30764 4.39175 0
M  V30 4091 H 376.512 4.02561 5.4692 0
M  V30 4092 H 374.458 1.92929 6.26988 0
M  V30 4093 H 374.375 3.62123 6.63629 0
M  V30 4094 H 375.643 2.65467 7.32903 0
M  V30 4095 N 379.872 -1.04064 1.18357 0
M  V30 4096 C 381.149 -1.74252 0.888581 0
M  V30 4097 C 381.529 -2.02138 -0.60856 0
M  V30 4098 O 380.877 -1.66656 -1.56327 0
M  V30 4099 C 381.087 -3.0277 1.73584 0
M  V30 4100 C 382.435 -3.76506 1.96286 0
M  V30 4101 O 383.459 -3.12668 1.70637 0
M  V30 4102 O 382.318 -4.91243 2.39464 0
M  V30 4103 H 379.412 -0.758271 0.330082 0
M  V30 4104 H 381.958 -1.1013 1.2911 0
M  V30 4105 H 380.73 -2.78299 2.75073 0
M  V30 4106 H 380.353 -3.74631 1.33183 0
M  V30 4107 N 381.35 -0.985608 -1.22978 0
M  V30 4108 C 382.26 -0.538548 -2.28335 0
M  V30 4109 C 383.276 0.409163 -1.69121 0
M  V30 4110 O 384.452 0.277797 -1.99475 0
M  V30 4111 C 381.517 0.146867 -3.46389 0
M  V30 4112 C 380.578 -0.842896 -4.20944 0
M  V30 4113 C 379.811 -0.190095 -5.33361 0
M  V30 4114 O 380.034 1.01767 -5.61248 0
M  V30 4115 O 378.968 -0.891289 -5.95264 0
M  V30 4116 H 382.794 -1.41487 -2.68729 0
M  V30 4117 H 380.379 -0.753495 -1.29007 0
M  V30 4118 H 382.261 0.531125 -4.1804 0
M  V30 4119 H 380.936 0.997871 -3.07935 0
M  V30 4120 H 379.843 -1.27795 -3.51595 0
M  V30 4121 H 381.176 -1.66287 -4.6326 0
M  V30 4122 N 382.828 1.3818 -0.7579 0
M  V30 4123 C 384.076 1.99624 -0.315361 0
M  V30 4124 C 384.397 1.60464 1.10799 0
M  V30 4125 O 383.667 0.863507 1.75842 0
M  V30 4126 H 382.247 0.73831 -0.113611 0
M  V30 4127 H 384.909 1.68878 -0.972952 0
M  V30 4128 H 384.005 3.09754 -0.381931 0
M  V30 4129 N 384.306 0.507319 1.49211 0
M  V30 4130 C 385.236 -0.256939 2.32082 0
M  V30 4131 C 386.217 -0.956609 1.40652 0
M  V30 4132 O 387.402 -0.946788 1.69557 0
M  V30 4133 C 384.532 -1.31802 3.21318 0
M  V30 4134 C 383.486 -0.737855 4.21592 0
M  V30 4135 C 382.812 -1.89992 4.99807 0
M  V30 4136 C 384.112 0.275325 5.21574 0
M  V30 4137 H 385.806 0.434798 2.96226 0
M  V30 4138 H 383.352 0.210546 1.42452 0
M  V30 4139 H 385.305 -1.86045 3.78107 0
M  V30 4140 H 384.029 -2.03903 2.5513 0
M  V30 4141 H 382.688 -0.217126 3.65956 0
M  V30 4142 H 382.336 -2.60877 4.30061 0
M  V30 4143 H 382.036 -1.51777 5.6766 0
M  V30 4144 H 383.56 -2.44657 5.59442 0
M  V30 4145 H 384.974 -0.179193 5.7302 0
M  V30 4146 H 383.371 0.573649 5.97352 0
M  V30 4147 H 384.441 1.18903 4.70096 0
M  V30 4148 N 385.784 -1.5574 0.241426 0
M  V30 4149 C 386.694 -2.2479 -0.671305 0
M  V30 4150 C 387.71 -1.26217 -1.19772 0
M  V30 4151 O 388.886 -1.59079 -1.23514 0
M  V30 4152 C 385.951 -2.92966 -1.85396 0
M  V30 4153 C 385.012 -4.06935 -1.36756 0
M  V30 4154 C 384.245 -4.71851 -2.49384 0
M  V30 4155 O 384.468 -4.35823 -3.67987 0
M  V30 4156 O 383.402 -5.60467 -2.19454 0
M  V30 4157 H 387.228 -3.0349 -0.112966 0
M  V30 4158 H 384.813 -1.49397 0.0101513 0
M  V30 4159 H 386.695 -3.35927 -2.54423 0
M  V30 4160 H 385.37 -2.17211 -2.40002 0
M  V30 4161 H 384.277 -3.68503 -0.644726 0
M  V30 4162 H 385.61 -4.84492 -0.867647 0
M  V30 4163 O 387.301 -0.105854 -1.61153 0
M  V30 4164 H 387.992 0.494986 -1.87269 0
M  V30 END ATOM
M  V30 BEGIN BOND
M  V30 END BOND
M  V30 END CTAB
M  END
$$$$
